drugbank_target|O95747 Serine/threonine-protein kinase OSR1 (DB12010)
 OpenBabel12092121173D

  0  0  0     0  0            999 V3000
M  V30 BEGIN CTAB
M  V30 COUNTS 8205 8279 0 0 0
M  V30 BEGIN ATOM
M  V30 1 H -0.908 1.98254 -0.117106 0
M  V30 2 N 0 1.576 0 0
M  V30 3 C 0.933 2.03868 1.02534 0
M  V30 4 C 1.911 0.928543 1.3348 0
M  V30 5 O 3.095 1.19667 1.45644 0
M  V30 6 C 0.222 2.43627 2.35294 0
M  V30 7 C -0.732 3.65373 2.2001 0
M  V30 8 S 0.101 5.13292 1.52614 0
M  V30 9 C 1.257 5.56322 2.86805 0
M  V30 10 H 1.49 2.90518 0.631377 0
M  V30 11 H -0.977 1.52953 0.210867 0
M  V30 12 H 0.981 2.67203 3.11629 0
M  V30 13 H -0.358 1.57376 2.7183 0
M  V30 14 H -1.165 3.90944 3.18086 0
M  V30 15 H -1.563 3.418 1.51819 0
M  V30 16 H 0.729 5.58782 3.83104 0
M  V30 17 H 1.672 6.56266 2.65933 0
M  V30 18 H 2.08 4.83886 2.90714 0
M  V30 19 N 1.4781 -0.272755 1.55222 0
M  V30 20 C 2.7031 -1.02683 1.80197 0
M  V30 21 C 3.1281 -1.79142 0.573551 0
M  V30 22 O 2.4861 -1.74917 -0.476849 0
M  V30 23 C 2.5341 -1.9609 3.02624 0
M  V30 24 O 1.6381 -3.04863 2.77727 0
M  V30 25 H 0.9791 -0.293557 0.595584 0
M  V30 26 H 3.5091 -0.30159 2.02365 0
M  V30 27 H 3.5191 -2.38039 3.31363 0
M  V30 28 H 2.1941 -1.39851 3.91682 0
M  V30 29 H 0.7711 -2.67228 2.60084 0
M  V30 30 N 2.9562 -1.48159 -0.537278 0
M  V30 31 C 3.8662 -1.64807 -1.6696 0
M  V30 32 C 4.8822 -0.530651 -1.65711 0
M  V30 33 O 6.0582 -0.800784 -1.84796 0
M  V30 34 C 3.1232 -1.67708 -3.03438 0
M  V30 35 C 2.1842 -2.91025 -3.156 0
M  V30 36 C 1.4172 -2.93778 -4.45567 0
M  V30 37 O 1.6402 -2.05153 -5.3223 0
M  V30 38 O 0.5742 -3.85868 -4.61941 0
M  V30 39 H 4.4002 -2.6066 -1.55853 0
M  V30 40 H 1.9852 -1.31475 -0.709549 0
M  V30 41 H 3.8672 -1.7218 -3.84619 0
M  V30 42 H 2.5422 -0.750278 -3.14885 0
M  V30 43 H 1.4492 -2.92089 -2.33741 0
M  V30 44 H 2.7822 -3.83065 -3.09066 0
M  V30 45 N 4.4343 0.785586 -1.36625 0
M  V30 46 C 5.7113 1.53198 -1.21613 0
M  V30 47 C 6.0913 2.10187 0.196113 0
M  V30 48 O 5.4393 1.94318 1.20219 0
M  V30 49 C 5.6493 2.62388 -2.30116 0
M  V30 50 C 6.9973 3.30167 -2.66974 0
M  V30 51 O 8.0213 2.72674 -2.29188 0
M  V30 52 O 6.8803 4.34077 -3.32023 0
M  V30 53 H 3.9743 0.677865 -0.473738 0
M  V30 54 H 6.5203 0.823739 -1.48367 0
M  V30 55 H 5.2923 2.18299 -3.24748 0
M  V30 56 H 4.9153 3.40827 -2.0475 0
M  V30 57 N 5.9124 1.20967 1.01018 0
M  V30 58 C 7.1374 1.0503 1.78839 0
M  V30 59 C 7.5624 -0.395752 1.8389 0
M  V30 60 O 6.9204 -1.28529 1.27867 0
M  V30 61 C 6.9684 1.64602 3.2084 0
M  V30 62 O 6.0724 0.887988 4.02726 0
M  V30 63 H 5.4134 0.369987 0.551367 0
M  V30 64 H 7.9434 1.60399 1.27018 0
M  V30 65 H 7.9534 1.68607 3.71532 0
M  V30 66 H 6.6284 2.69841 3.16479 0
M  V30 67 H 5.2054 0.922648 3.61305 0
M  V30 68 N 7.3905 -1.2043 1.01659 0
M  V30 69 C 8.6155 -1.94318 0.724942 0
M  V30 70 C 9.0405 -1.74266 -0.708034 0
M  V30 71 O 8.3985 -1.03694 -1.48719 0
M  V30 72 C 8.4465 -3.44486 1.06591 0
M  V30 73 O 7.5505 -4.12017 0.177599 0
M  V30 74 H 6.8915 -0.60708 0.26898 0
M  V30 75 H 9.4215 -1.52861 1.35995 0
M  V30 76 H 9.4315 -3.95106 1.01762 0
M  V30 77 H 8.1065 -3.58404 2.10997 0
M  V30 78 H 6.6835 -3.71821 0.283421 0
M  V30 79 N 8.8686 -0.792821 -1.36206 0
M  V30 80 C 9.8316 -0.199459 -2.2833 0
M  V30 81 C 10.8316 0.605189 -1.48977 0
M  V30 82 O 12.0216 0.425685 -1.68919 0
M  V30 83 C 9.1536 0.723523 -3.33134 0
M  V30 84 H 10.3466 -1.01181 -2.82316 0
M  V30 85 H 7.8996 -0.562485 -1.45828 0
M  V30 86 H 8.6346 1.56008 -2.84309 0
M  V30 87 H 8.4196 0.148436 -3.91819 0
M  V30 88 H 9.9096 1.13344 -4.01924 0
M  V30 89 N 10.3467 1.47872 -0.545128 0
M  V30 90 C 11.2767 2.32661 0.197793 0
M  V30 91 C 12.2577 1.43041 0.920504 0
M  V30 92 O 13.4427 1.71912 0.90333 0
M  V30 93 C 10.5727 3.24569 1.23582 0
M  V30 94 C 9.5267 4.23333 0.630323 0
M  V30 95 C 8.8527 5.0448 1.77211 0
M  V30 96 C 10.1527 5.20704 -0.407974 0
M  V30 97 H 11.8467 2.95024 -0.510045 0
M  V30 98 H 9.3927 1.4187 -0.246731 0
M  V30 99 H 11.3457 3.8272 1.76362 0
M  V30 100 H 10.0697 2.60236 1.97344 0
M  V30 101 H 8.7287 3.6639 0.123922 0
M  V30 102 H 8.3767 4.36561 2.49847 0
M  V30 103 H 8.0767 5.71339 1.37281 0
M  V30 104 H 9.6007 5.65487 2.3034 0
M  V30 105 H 11.0147 5.7329 0.033305 0
M  V30 106 H 9.4117 5.95699 -0.725486 0
M  V30 107 H 10.4817 4.66917 -1.30828 0
M  V30 108 N 11.8248 0.280983 1.55075 0
M  V30 109 C 13.2358 -0.215629 1.85451 0
M  V30 110 C 13.5868 -1.54991 1.203 0
M  V30 111 O 12.7118 -2.10699 0.493435 0
M  V30 112 C 13.3068 -0.398026 3.36454 0
M  V30 113 C 11.8658 -0.838866 3.66933 0
M  V30 114 C 11.0128 0.064458 2.77225 0
M  V30 115 H 13.9638 0.502601 1.50531 0
M  V30 116 H 13.9848 -1.23569 3.59876 0
M  V30 117 H 13.4968 0.573241 3.83843 0
M  V30 118 H 11.5978 -1.8214 3.25048 0
M  V30 119 H 11.7108 -0.672123 4.74362 0
M  V30 120 H 10.0748 -0.452863 2.50642 0
M  V30 121 H 10.8578 1.03172 3.2743 0
M  V30 122 N 13.3029 -1.57598 0.00835791 0
M  V30 123 C 14.5489 -1.92046 -0.670055 0
M  V30 124 C 14.9039 -0.88351 -1.70915 0
M  V30 125 O 14.1969 0.103223 -1.91322 0
M  V30 126 C 14.3909 -3.3101 -1.34787 0
M  V30 127 C 14.2199 -4.48126 -0.375945 0
M  V30 128 C 12.9899 -5.05297 0.0166914 0
M  V30 129 C 15.1879 -5.1303 0.361272 0
M  V30 130 N 13.1699 -6.05931 0.985952 0
M  V30 131 C 14.5409 -6.08571 1.18495 0
M  V30 132 C 16.5959 -4.9609 0.42421 0
M  V30 133 C 15.2989 -6.88996 2.06584 0
M  V30 134 C 17.3249 -5.77107 1.29236 0
M  V30 135 C 16.6869 -6.72248 2.10386 0
M  V30 136 H 12.7859 -0.75096 -0.218136 0
M  V30 137 H 15.3699 -1.94572 0.0706669 0
M  V30 138 H 13.5409 -3.29342 -2.05884 0
M  V30 139 H 15.2729 -3.52864 -1.98164 0
M  V30 140 H 12.0279 -4.72279 -0.353435 0
M  V30 141 H 12.4519 -6.60932 1.4662 0
M  V30 142 H 17.0939 -4.22378 -0.188915 0
M  V30 143 H 14.8119 -7.62028 2.6896 0
M  V30 144 H 18.3979 -5.66038 1.34508 0
M  V30 145 H 17.2779 -7.33846 2.76476 0
M  V30 146 N 14.781 0.264519 -1.55364 0
M  V30 147 C 16.006 1.01726 -1.80739 0
M  V30 148 C 16.431 1.78836 -0.583044 0
M  V30 149 O 15.789 1.75167 0.467566 0
M  V30 150 C 15.837 1.94482 -3.03659 0
M  V30 151 O 14.941 3.03386 -2.7934 0
M  V30 152 H 14.282 0.290395 -0.597132 0
M  V30 153 H 16.812 0.290854 -2.02522 0
M  V30 154 H 16.822 2.36278 -3.32621 0
M  V30 155 H 15.497 1.37772 -3.92418 0
M  V30 156 H 14.074 2.65844 -2.61498 0
M  V30 157 N 16.2591 1.48442 0.529413 0
M  V30 158 C 17.5081 1.55742 1.28169 0
M  V30 159 C 17.8211 0.236511 1.94165 0
M  V30 160 O 19.0271 0.187761 2.7085 0
M  V30 161 C 17.4831 2.74667 2.32564 0
M  V30 162 C 17.0911 4.13402 1.72636 0
M  V30 163 C 18.8351 2.9128 3.08798 0
M  V30 164 C 16.7421 5.23587 2.74975 0
M  V30 165 H 15.6721 0.579796 0.48203 0
M  V30 166 H 18.3231 1.74776 0.559056 0
M  V30 167 H 16.7051 2.49067 3.07866 0
M  V30 168 H 17.8791 4.49022 1.03519 0
M  V30 169 H 16.1941 4.0191 1.08892 0
M  V30 170 H 18.7911 3.70767 3.85274 0
M  V30 171 H 19.1341 2.00757 3.64695 0
M  V30 172 H 19.6671 3.16782 2.40611 0
M  V30 173 H 16.4061 6.16076 2.23897 0
M  V30 174 H 15.9261 4.92454 3.42417 0
M  V30 175 H 17.6051 5.51724 3.37949 0
M  V30 176 N 17.7372 -0.778329 1.37039 0
M  V30 177 C 18.6852 -1.91278 1.32345 0
M  V30 178 C 19.6792 -1.68051 0.213331 0
M  V30 179 O 20.8852 -1.75922 0.38098 0
M  V30 180 H 17.2602 -0.628909 0.412283 0
M  V30 181 H 19.2312 -1.92355 2.28127 0
M  V30 182 C 17.9802 -3.28455 1.14073 0
M  V30 183 H 17.3032 -3.46901 1.98746 0
M  V30 184 H 18.7432 -4.08152 1.14837 0
M  V30 185 C 17.2022 -3.36548 -0.154015 0
M  V30 186 O 17.7322 -3.85186 -1.13993 0
M  V30 187 N 15.9382 -2.89894 -0.202475 0
M  V30 188 H 15.4852 -2.50504 0.600476 0
M  V30 189 H 15.4432 -2.9569 -1.06841 0
M  V30 190 N 19.2153 -1.21501 -1.00376 0
M  V30 191 C 20.6313 -0.972629 -1.26539 0
M  V30 192 C 20.8313 0.340257 -1.98606 0
M  V30 193 O 19.8873 1.06561 -2.28913 0
M  V30 194 C 21.2003 -2.16404 -2.08781 0
M  V30 195 C 22.7483 -2.20643 -2.22004 0
M  V30 196 C 23.2233 -3.39306 -3.07629 0
M  V30 197 N 24.7143 -3.39401 -3.15217 0
M  V30 198 C 25.4493 -4.27867 -3.81729 0
M  V30 199 N 24.9453 -5.26533 -4.5026 0
M  V30 200 N 26.7383 -4.15672 -3.78382 0
M  V30 201 H 18.8893 -2.05929 -0.520281 0
M  V30 202 H 21.1523 -0.901803 -0.292328 0
M  V30 203 H 20.8583 -3.11554 -1.63178 0
M  V30 204 H 20.7323 -2.15567 -3.09533 0
M  V30 205 H 23.1193 -1.26048 -2.66825 0
M  V30 206 H 23.2003 -2.25523 -1.20718 0
M  V30 207 H 22.8443 -4.34195 -2.63509 0
M  V30 208 H 22.7743 -3.31665 -4.09031 0
M  V30 209 H 25.2653 -2.67997 -2.66432 0
M  V30 210 H 25.5783 -5.90337 -4.98721 0
M  V30 211 H 23.9233 -5.30457 -4.49044 0
M  V30 212 H 27.1143 -3.3785 -3.23998 0
M  V30 213 H 27.2873 -4.84825 -4.2994 0
M  V30 214 N 20.6934 1.19889 -1.02296 0
M  V30 215 C 21.9704 1.85148 -0.630832 0
M  V30 216 C 22.3504 1.91385 0.890782 0
M  V30 217 O 21.6984 1.42642 1.78509 0
M  V30 218 C 21.9084 3.24442 -1.28602 0
M  V30 219 C 23.2564 4.00663 -1.4055 0
M  V30 220 O 24.2804 3.33818 -1.24273 0
M  V30 221 O 23.1394 5.20387 -1.66913 0
M  V30 222 H 20.2334 0.797613 -0.218499 0
M  V30 223 H 22.7794 1.27427 -1.12074 0
M  V30 224 H 21.5514 3.14704 -2.32545 0
M  V30 225 H 21.1744 3.89802 -0.7836 0
M  V30 226 N 22.1715 0.800033 1.35784 0
M  V30 227 C 23.4485 0.30088 1.93272 0
M  V30 228 C 23.8285 -1.20857 1.73081 0
M  V30 229 O 23.1765 -2.00502 1.09596 0
M  V30 230 C 23.3865 0.70511 3.41803 0
M  V30 231 C 24.7345 0.690871 4.18942 0
M  V30 232 O 25.7585 0.646244 3.50289 0
M  V30 233 O 24.6175 0.74332 5.41421 0
M  V30 234 H 21.7115 0.0771605 0.823393 0
M  V30 235 H 24.2575 0.88329 1.449 0
M  V30 236 H 23.0295 1.74571 3.50201 0
M  V30 237 H 22.6525 0.0971541 3.97481 0
M  V30 238 N 23.6496 -1.47581 0.552962 0
M  V30 239 C 24.8796 -2.06575 0.0320091 0
M  V30 240 C 25.2876 -1.4067 -1.26525 0
M  V30 241 O 24.6306 -0.495808 -1.76883 0
M  V30 242 C 24.6926 -3.58705 -0.238913 0
M  V30 243 C 24.3566 -4.46625 0.968272 0
M  V30 244 C 25.3536 -4.85 1.87274 0
M  V30 245 C 23.0386 -4.88201 1.18175 0
M  V30 246 C 25.0326 -5.63745 2.9744 0
M  V30 247 C 22.7196 -5.66712 2.28651 0
M  V30 248 C 23.7176 -6.04394 3.18114 0
M  V30 249 O 23.4056 -6.81324 4.26676 0
M  V30 250 H 23.1376 -0.674763 0.0408689 0
M  V30 251 H 25.6916 -1.90634 0.764719 0
M  V30 252 H 23.9216 -3.72844 -1.02588 0
M  V30 253 H 25.6106 -3.99735 -0.704731 0
M  V30 254 H 26.3766 -4.53482 1.71984 0
M  V30 255 H 22.2556 -4.58339 0.494593 0
M  V30 256 H 25.7996 -5.93077 3.67296 0
M  V30 257 H 21.6966 -5.97642 2.43915 0
M  V30 258 H 22.4646 -6.99712 4.24671 0
M  V30 259 N 25.1277 -0.289203 -1.54924 0
M  V30 260 C 26.0377 0.601863 -2.26748 0
M  V30 261 C 27.0537 1.15834 -1.2984 0
M  V30 262 O 28.2297 1.18564 -1.62802 0
M  V30 263 C 25.2947 1.76299 -2.98529 0
M  V30 264 C 24.3557 1.24178 -4.10948 0
M  V30 265 C 23.5887 2.34757 -4.79296 0
M  V30 266 O 23.8117 3.54411 -4.46933 0
M  V30 267 O 22.7457 2.02115 -5.66951 0
M  V30 268 H 26.5717 0.0195879 -3.03694 0
M  V30 269 H 24.1567 -0.0560868 -1.49295 0
M  V30 270 H 26.0387 2.43973 -3.43592 0
M  V30 271 H 24.7137 2.33209 -2.24488 0
M  V30 272 H 23.6207 0.531104 -3.70311 0
M  V30 273 H 24.9537 0.718252 -4.86931 0
M  V30 274 N 26.6058 1.57591 -0.0167156 0
M  V30 275 C 27.5358 2.12496 0.967858 0
M  V30 276 C 28.5168 1.03807 1.34752 0
M  V30 277 O 29.7018 1.31577 1.42833 0
M  V30 278 C 26.8318 2.64194 2.25431 0
M  V30 279 C 25.7858 3.77559 2.01576 0
M  V30 280 C 25.1118 4.15636 3.36379 0
M  V30 281 C 26.4118 5.04151 1.36489 0
M  V30 282 H 28.1058 2.95013 0.510643 0
M  V30 283 H 25.6518 1.41915 0.244181 0
M  V30 284 H 27.6048 3.01236 2.94678 0
M  V30 285 H 26.3288 1.78821 2.73296 0
M  V30 286 H 24.9878 3.40937 1.34751 0
M  V30 287 H 24.6358 3.27263 3.81979 0
M  V30 288 H 24.3358 4.92022 3.21229 0
M  V30 289 H 25.8598 4.5525 4.06915 0
M  V30 290 H 27.2738 5.38857 1.95718 0
M  V30 291 H 25.6708 5.85453 1.31776 0
M  V30 292 H 26.7408 4.83733 0.336219 0
M  V30 293 N 28.0839 -0.256276 1.55502 0
M  V30 294 C 29.0159 -1.33981 1.85962 0
M  V30 295 C 30.0289 -1.44743 0.745212 0
M  V30 296 O 31.2179 -1.4626 1.02324 0
M  V30 297 C 28.3179 -2.7194 2.02242 0
M  V30 298 C 27.4909 -2.83562 3.33033 0
M  V30 299 C 26.5499 -4.02304 3.39172 0
M  V30 300 O 25.5759 -3.92273 4.12444 0
M  V30 301 N 26.7779 -5.15045 2.67784 0
M  V30 302 H 29.5429 -1.08191 2.7949 0
M  V30 303 H 27.1039 -0.446388 1.55624 0
M  V30 304 H 29.0959 -3.49697 2.03701 0
M  V30 305 H 27.6659 -2.90479 1.15502 0
M  V30 306 H 26.8859 -1.92555 3.43971 0
M  V30 307 H 28.1739 -2.88271 4.19258 0
M  V30 308 H 27.5719 -5.26085 2.07968 0
M  V30 309 H 26.1289 -5.90972 2.74947 0
M  V30 310 N 29.562 -1.4872 -0.521534 0
M  V30 311 C 30.472 -1.66569 -1.65203 0
M  V30 312 C 31.488 -0.548197 -1.65139 0
M  V30 313 O 32.664 -0.820339 -1.83936 0
M  V30 314 C 29.729 -1.70917 -3.01642 0
M  V30 315 C 28.79 -2.94356 -3.12495 0
M  V30 316 C 28.023 -2.98487 -4.42426 0
M  V30 317 O 28.246 -2.10786 -5.30024 0
M  V30 318 O 27.18 -3.90746 -4.57822 0
M  V30 319 H 31.006 -2.62298 -1.5308 0
M  V30 320 H 28.591 -1.3222 -0.695565 0
M  V30 321 H 30.473 -1.7625 -3.82771 0
M  V30 322 H 29.148 -0.783633 -3.14071 0
M  V30 323 H 28.055 -2.94552 -2.3063 0
M  V30 324 H 29.388 -3.86322 -3.04986 0
M  V30 325 N 31.0401 0.771051 -1.3745 0
M  V30 326 C 32.2861 1.5319 -1.32894 0
M  V30 327 C 32.6191 1.94008 0.0862511 0
M  V30 328 O 31.8941 1.64124 1.04373 0
M  V30 329 C 32.1771 2.79648 -2.26868 0
M  V30 330 C 32.0301 2.45079 -3.77169 0
M  V30 331 C 33.3491 3.81583 -2.19277 0
M  V30 332 H 30.4681 0.555744 -0.484064 0
M  V30 333 H 33.1101 0.884492 -1.68157 0
M  V30 334 H 31.2601 3.34891 -1.96926 0
M  V30 335 H 32.9321 1.95745 -4.1771 0
M  V30 336 H 31.1751 1.77767 -3.95704 0
M  V30 337 H 31.8461 3.35478 -4.38359 0
M  V30 338 H 34.3221 3.35835 -2.45671 0
M  V30 339 H 33.1981 4.67787 -2.87171 0
M  V30 340 H 33.4591 4.25897 -1.18592 0
M  V30 341 N 32.5182 1.22032 0.997298 0
M  V30 342 C 33.7672 1.03637 1.73038 0
M  V30 343 C 34.0802 -0.429475 1.90827 0
M  V30 344 O 35.2862 -0.732995 2.61418 0
M  V30 345 C 33.7422 1.80582 3.11317 0
M  V30 346 C 33.3502 3.31387 3.01474 0
M  V30 347 C 35.0942 1.70621 3.88701 0
M  V30 348 C 33.0012 4.00791 4.3488 0
M  V30 349 H 31.9312 0.384179 0.648785 0
M  V30 350 H 34.5822 1.4584 1.11368 0
M  V30 351 H 32.9642 1.31175 3.73643 0
M  V30 352 H 34.1382 3.88155 2.4834 0
M  V30 353 H 32.4532 3.41976 2.37575 0
M  V30 354 H 35.0502 2.19799 4.87434 0
M  V30 355 H 35.3932 0.665823 4.10941 0
M  V30 356 H 35.9262 2.17547 3.33044 0
M  V30 357 H 32.6652 5.05064 4.1784 0
M  V30 358 H 32.1852 3.48811 4.87945 0
M  V30 359 H 33.8642 4.06139 5.03647 0
M  V30 360 N 33.9963 -1.19345 1.0293 0
M  V30 361 C 35.2443 -1.88665 0.724574 0
M  V30 362 C 35.5653 -1.80036 -0.749144 0
M  V30 363 O 34.8353 -1.2111 -1.53978 0
M  V30 364 H 33.4153 -0.698406 0.265025 0
M  V30 365 H 36.0773 -1.44885 1.30362 0
M  V30 366 H 35.1733 -2.94987 1.01926 0
M  V30 367 N 35.4744 -0.807222 -1.35358 0
M  V30 368 C 36.6994 -0.399309 -2.0352 0
M  V30 369 C 37.1244 0.981986 -1.60433 0
M  V30 370 O 36.4824 1.63601 -0.781299 0
M  V30 371 C 36.5304 -0.491552 -3.57234 0
M  V30 372 O 35.6344 0.494754 -4.09421 0
M  V30 373 H 34.9754 -0.166682 -0.642739 0
M  V30 374 H 37.5054 -1.09328 -1.72941 0
M  V30 375 H 37.5154 -0.361588 -4.06395 0
M  V30 376 H 36.1904 -1.49907 -3.87944 0
M  V30 377 H 34.7674 0.324977 -3.71481 0
M  V30 378 N 36.9525 1.47285 -0.560781 0
M  V30 379 C 38.2005 2.02064 -0.0379868 0
M  V30 380 C 38.5215 1.43711 1.31803 0
M  V30 381 O 37.7915 0.61362 1.86042 0
M  V30 382 H 36.3715 0.746918 -0.0110531 0
M  V30 383 H 39.0335 1.80648 -0.731598 0
M  V30 384 H 38.1295 3.12064 0.0474463 0
M  V30 385 N 38.4306 0.297415 1.54768 0
M  V30 386 C 39.3936 -0.567375 2.22066 0
M  V30 387 C 40.3936 -1.06409 1.20556 0
M  V30 388 O 41.5836 -0.960691 1.45315 0
M  V30 389 C 38.7156 -1.78517 2.90421 0
M  V30 390 H 39.9086 0.0205534 2.99893 0
M  V30 391 H 37.4616 0.0482163 1.56226 0
M  V30 392 H 38.1966 -2.41303 2.16664 0
M  V30 393 H 37.9816 -1.43669 3.64831 0
M  V30 394 H 39.4716 -2.39964 3.41771 0
M  V30 395 N 39.9087 -1.5758 0.0250728 0
M  V30 396 C 41.1367 -1.9593 -0.664747 0
M  V30 397 C 41.5517 -0.901352 -1.65895 0
M  V30 398 O 40.9087 0.117255 -1.82123 0
M  V30 399 C 40.9597 -3.34342 -1.37468 0
M  V30 400 O 40.6807 -4.36079 -0.420324 0
M  V30 401 C 42.1817 -3.873 -2.1567 0
M  V30 402 H 39.4017 -0.645405 -0.183557 0
M  V30 403 H 41.9457 -2.04329 0.0836372 0
M  V30 404 H 40.1007 -3.27175 -2.0745 0
M  V30 405 H 40.5147 -5.16297 -0.923991 0
M  V30 406 H 41.9887 -4.86504 -2.60803 0
M  V30 407 H 42.4657 -3.21331 -2.99405 0
M  V30 408 H 43.0717 -3.97723 -1.50654 0
M  V30 409 N 41.3868 0.248026 -1.55636 0
M  V30 410 C 42.3498 1.29044 -1.89421 0
M  V30 411 C 43.3498 1.41134 -0.770581 0
M  V30 412 O 44.5398 1.39854 -1.03858 0
M  V30 413 C 41.6718 2.66831 -2.12165 0
M  V30 414 H 42.8648 1.00305 -2.82629 0
M  V30 415 H 40.4178 0.487265 -1.48511 0
M  V30 416 H 41.1528 3.00711 -1.21422 0
M  V30 417 H 40.9378 2.59438 -2.93997 0
M  V30 418 H 42.4278 3.42103 -2.3949 0
M  V30 419 N 42.8649 1.48995 0.513639 0
M  V30 420 C 44.1109 1.58076 1.27042 0
M  V30 421 C 44.4439 0.261026 1.92438 0
M  V30 422 O 43.7189 -0.734393 1.80103 0
M  V30 423 C 44.0019 2.73091 2.34719 0
M  V30 424 C 43.8549 4.14821 1.73907 0
M  V30 425 C 45.1739 2.83796 3.36375 0
M  V30 426 H 42.2929 0.575391 0.460536 0
M  V30 427 H 44.9349 1.81232 0.570516 0
M  V30 428 H 43.0849 2.53479 2.94416 0
M  V30 429 H 44.7569 4.45917 1.18135 0
M  V30 430 H 42.9999 4.21058 1.0437 0
M  V30 431 H 43.6709 4.91147 2.51949 0
M  V30 432 H 46.1469 3.01611 2.86653 0
M  V30 433 H 45.0229 3.65971 4.09093 0
M  V30 434 H 45.2839 1.92624 3.9793 0
M  V30 435 N 44.343 -0.763751 1.37857 0
M  V30 436 C 45.589 -1.52483 1.33704 0
M  V30 437 C 45.922 -1.94051 -0.0759612 0
M  V30 438 O 45.197 -1.64675 -1.03501 0
M  V30 439 C 45.48 -2.78441 2.28348 0
M  V30 440 C 45.333 -2.43075 3.78463 0
M  V30 441 C 46.652 -3.80415 2.21298 0
M  V30 442 H 43.771 -0.553169 0.487005 0
M  V30 443 H 46.413 -0.875562 1.68624 0
M  V30 444 H 44.563 -3.33842 1.987 0
M  V30 445 H 46.235 -1.93527 4.18742 0
M  V30 446 H 44.478 -1.75666 3.96641 0
M  V30 447 H 45.149 -3.33149 4.40132 0
M  V30 448 H 47.625 -3.34527 2.47449 0
M  V30 449 H 46.501 -4.66257 2.89647 0
M  V30 450 H 46.762 -4.25262 1.20849 0
M  V30 451 N 45.8211 -1.22559 -0.990812 0
M  V30 452 C 46.7531 -0.955325 -2.08342 0
M  V30 453 C 47.7661 0.0668408 -1.62663 0
M  V30 454 O 48.9551 -0.167421 -1.77713 0
M  V30 455 C 46.0551 -0.415566 -3.36342 0
M  V30 456 C 45.2281 -1.49544 -4.11042 0
M  V30 457 C 44.2871 -0.962399 -5.17324 0
M  V30 458 O 43.3131 -1.64907 -5.44788 0
M  V30 459 N 44.5151 0.215134 -5.80101 0
M  V30 460 H 47.2801 -1.89596 -2.32106 0
M  V30 461 H 44.8411 -1.13276 -1.15673 0
M  V30 462 H 46.8331 -0.0442386 -4.04676 0
M  V30 463 H 45.4031 0.430232 -3.09625 0
M  V30 464 H 44.6231 -2.04 -3.37309 0
M  V30 465 H 45.9111 -2.22195 -4.57719 0
M  V30 466 H 45.3091 0.789779 -5.6016 0
M  V30 467 H 43.8661 0.527826 -6.49659 0
M  V30 468 N 47.2992 1.18797 -1.03562 0
M  V30 469 C 48.2622 2.20464 -0.626769 0
M  V30 470 C 49.2622 1.57721 0.313173 0
M  V30 471 O 50.4522 1.73917 0.0992615 0
M  V30 472 C 47.5842 3.40802 0.0818498 0
M  V30 473 H 48.7772 2.58149 -1.5264 0
M  V30 474 H 46.3302 1.32593 -0.827578 0
M  V30 475 H 47.0652 3.08642 0.995518 0
M  V30 476 H 46.8502 3.8758 -0.593652 0
M  V30 477 H 48.3402 4.16092 0.354584 0
M  V30 478 N 48.7773 0.814389 1.34928 0
M  V30 479 C 49.7403 0.235759 2.27984 0
M  V30 480 C 50.7403 -0.581412 1.49921 0
M  V30 481 O 51.9303 -0.398758 1.69575 0
M  V30 482 C 49.0623 -0.670433 3.34242 0
M  V30 483 H 50.2553 1.05659 2.80671 0
M  V30 484 H 47.8083 0.585614 1.44915 0
M  V30 485 H 48.5433 -1.51466 2.86755 0
M  V30 486 H 48.3283 -0.0860822 3.92005 0
M  V30 487 H 49.8183 -1.06935 4.03676 0
M  V30 488 N 50.2554 -1.46986 0.568584 0
M  V30 489 C 51.4854 -2.0653 0.0539173 0
M  V30 490 C 51.8934 -1.42004 -1.25026 0
M  V30 491 O 51.2364 -0.514541 -1.76347 0
M  V30 492 C 51.2984 -3.58938 -0.200854 0
M  V30 493 C 50.9624 -4.45572 1.01559 0
M  V30 494 C 51.9594 -4.82986 1.92407 0
M  V30 495 C 49.6444 -4.8692 1.23346 0
M  V30 496 C 51.6384 -5.60559 3.03402 0
M  V30 497 C 49.3254 -5.64255 2.34649 0
M  V30 498 C 50.3234 -6.00986 3.24507 0
M  V30 499 O 50.0114 -6.76761 4.33878 0
M  V30 500 H 49.7434 -0.674292 0.0480234 0
M  V30 501 H 52.2974 -1.89812 0.784896 0
M  V30 502 H 50.5274 -3.73911 -0.986279 0
M  V30 503 H 52.2164 -4.0046 -0.662294 0
M  V30 504 H 52.9824 -4.51633 1.76785 0
M  V30 505 H 48.8614 -4.57789 0.543178 0
M  V30 506 H 52.4054 -5.89147 3.73565 0
M  V30 507 H 48.3024 -5.95021 2.5024 0
M  V30 508 H 49.0704 -6.95168 4.32068 0
M  V30 509 N 51.7335 -0.305618 -1.54608 0
M  V30 510 C 52.9735 0.303114 -2.0214 0
M  V30 511 C 53.3375 1.50737 -1.18921 0
M  V30 512 O 54.5385 2.18778 -1.56172 0
M  V30 513 C 52.8095 0.646332 -3.51507 0
M  V30 514 S 54.3685 1.23727 -4.20995 0
M  V30 515 H 51.1865 0.0927643 -0.704923 0
M  V30 516 H 53.7885 -0.434566 -1.90609 0
M  V30 517 H 52.4925 -0.238541 -4.09706 0
M  V30 518 H 52.0235 1.41468 -3.67084 0
M  V30 519 H 54.0385 2.52489 -4.27158 0
M  V30 520 N 53.2116 1.57565 -0.0334293 0
M  V30 521 C 54.1746 2.09393 0.932048 0
M  V30 522 C 55.1746 1.00986 1.25134 0
M  V30 523 O 56.3646 1.27129 1.19096 0
M  V30 524 C 53.4966 2.56338 2.2473 0
M  V30 525 H 54.6896 2.95984 0.483085 0
M  V30 526 H 52.2426 1.54819 0.21468 0
M  V30 527 H 52.9776 1.7309 2.74245 0
M  V30 528 H 52.7626 3.35542 2.02865 0
M  V30 529 H 54.2526 2.96646 2.93923 0
M  V30 530 N 54.6897 -0.239769 1.55765 0
M  V30 531 C 56.1007 -0.808263 1.68297 0
M  V30 532 C 56.4517 -1.85736 0.632181 0
M  V30 533 O 55.5767 -2.15277 -0.220204 0
M  V30 534 C 56.1717 -1.47284 3.05111 0
M  V30 535 C 54.7307 -1.98895 3.19559 0
M  V30 536 C 53.8777 -0.842575 2.64189 0
M  V30 537 H 56.8287 -0.0154422 1.58692 0
M  V30 538 H 56.8497 -2.34111 2.99954 0
M  V30 539 H 56.3617 -0.709053 3.81568 0
M  V30 540 H 54.4627 -2.78132 2.47938 0
M  V30 541 H 54.5757 -2.18143 4.26556 0
M  V30 542 H 52.9397 -1.24501 2.22197 0
M  V30 543 H 53.7227 -0.0917552 3.43177 0
M  V30 544 N 56.1678 -1.49265 -0.50573 0
M  V30 545 C 57.1148 -1.65585 -1.6078 0
M  V30 546 C 58.0848 -0.497396 -1.58478 0
M  V30 547 O 59.2698 -0.72385 -1.76536 0
M  V30 548 C 56.4098 -1.72408 -2.98948 0
M  V30 549 C 55.5228 -2.99525 -3.11301 0
M  V30 550 C 54.6578 -2.97356 -4.40174 0
M  V30 551 C 53.6968 -4.19074 -4.46143 0
M  V30 552 N 52.8338 -4.14841 -5.66437 0
M  V30 553 H 57.6738 -2.59688 -1.46172 0
M  V30 554 H 55.2108 -1.28761 -0.711261 0
M  V30 555 H 57.1688 -1.74344 -3.79025 0
M  V30 556 H 55.7988 -0.817753 -3.1227 0
M  V30 557 H 54.8508 -3.07222 -2.24318 0
M  V30 558 H 56.1628 -3.89518 -3.11572 0
M  V30 559 H 55.3168 -2.97829 -5.28567 0
M  V30 560 H 54.0558 -2.05133 -4.42461 0
M  V30 561 H 53.0608 -4.1885 -3.56153 0
M  V30 562 H 54.2858 -5.12483 -4.45575 0
M  V30 563 H 52.2318 -3.25453 -5.69575 0
M  V30 564 H 52.1488 -4.98564 -5.68304 0
M  V30 565 H 53.4168 -4.1941 -6.57051 0
M  V30 566 N 57.6459 0.756429 -1.3826 0
M  V30 567 C 58.5929 1.87011 -1.35261 0
M  V30 568 C 59.5629 1.64695 -0.215616 0
M  V30 569 O 60.7479 1.864 -0.407399 0
M  V30 570 C 57.8879 3.24275 -1.18068 0
M  V30 571 C 57.0009 3.58442 -2.41129 0
M  V30 572 C 56.1359 4.84994 -2.16689 0
M  V30 573 C 55.1749 5.11939 -3.35537 0
M  V30 574 N 54.3119 6.29685 -3.10549 0
M  V30 575 H 59.1519 1.8891 -2.30472 0
M  V30 576 H 56.6889 0.923373 -1.14509 0
M  V30 577 H 58.6469 4.03479 -1.06116 0
M  V30 578 H 57.2769 3.21711 -0.264973 0
M  V30 579 H 56.3289 2.74103 -2.63764 0
M  V30 580 H 57.6409 3.74283 -3.29717 0
M  V30 581 H 56.7949 5.72135 -2.01857 0
M  V30 582 H 55.5339 4.71286 -1.25462 0
M  V30 583 H 54.5389 4.23268 -3.50891 0
M  V30 584 H 55.7639 5.27546 -4.27635 0
M  V30 585 H 53.7099 6.17306 -2.21967 0
M  V30 586 H 53.6269 6.46014 -3.92686 0
M  V30 587 H 54.8949 7.19722 -2.99367 0
M  V30 588 N 59.124 1.23083 0.984299 0
M  V30 589 C 60.034 1.02515 2.11016 0
M  V30 590 C 61.05 -0.0291702 1.73976 0
M  V30 591 O 62.226 0.165434 2.00719 0
M  V30 592 C 59.291 0.614673 3.41208 0
M  V30 593 C 58.352 1.74359 3.92297 0
M  V30 594 C 57.585 1.35261 5.16275 0
M  V30 595 O 57.808 0.235136 5.69915 0
M  V30 596 O 56.742 2.17227 5.61334 0
M  V30 597 H 60.568 1.96862 2.31255 0
M  V30 598 H 58.153 1.01753 1.09392 0
M  V30 599 H 60.035 0.396518 4.1953 0
M  V30 600 H 58.71 -0.299851 3.22308 0
M  V30 601 H 57.617 2.01635 3.1511 0
M  V30 602 H 58.95 2.63629 4.15645 0
M  V30 603 N 60.6021 -1.18246 1.0419 0
M  V30 604 C 61.5491 -2.2192 0.634037 0
M  V30 605 C 62.5191 -1.62179 -0.358765 0
M  V30 606 O 63.7041 -1.89122 -0.252466 0
M  V30 607 C 60.8441 -3.451 0.00445535 0
M  V30 608 C 59.9571 -4.19174 1.04487 0
M  V30 609 C 59.0921 -5.29813 0.383676 0
M  V30 610 C 58.1311 -5.9566 1.4091 0
M  V30 611 N 57.2681 -6.97834 0.772784 0
M  V30 612 H 62.1081 -2.56164 1.52263 0
M  V30 613 H 59.6451 -1.25843 0.761701 0
M  V30 614 H 61.6031 -4.15485 -0.377919 0
M  V30 615 H 60.2331 -3.11472 -0.847652 0
M  V30 616 H 59.2851 -3.47604 1.54518 0
M  V30 617 H 60.5971 -4.64267 1.82368 0
M  V30 618 H 59.7511 -6.06677 -0.0528366 0
M  V30 619 H 58.4901 -4.85825 -0.427208 0
M  V30 620 H 57.4951 -5.17535 1.85574 0
M  V30 621 H 58.7201 -6.4173 2.22171 0
M  V30 622 H 56.6661 -6.55998 -0.0177708 0
M  V30 623 H 56.5831 -7.41186 1.48928 0
M  V30 624 H 57.8511 -7.78665 0.36071 0
M  V30 625 N 62.0802 -0.821533 -1.34494 0
M  V30 626 C 63.3262 -0.409552 -1.98622 0
M  V30 627 C 63.6592 1.0244 -1.64984 0
M  V30 628 O 62.9342 1.71325 -0.920758 0
M  V30 629 C 63.2172 -0.610458 -3.54888 0
M  V30 630 C 63.0702 -2.09043 -3.98273 0
M  V30 631 C 64.3892 -0.0455379 -4.40076 0
M  V30 632 H 61.5082 -0.15028 -0.721516 0
M  V30 633 H 64.1502 -1.03384 -1.59411 0
M  V30 634 H 62.3002 -0.079044 -3.8842 0
M  V30 635 H 63.9722 -2.68537 -3.75081 0
M  V30 636 H 62.2152 -2.58139 -3.48635 0
M  V30 637 H 62.8862 -2.18182 -5.07051 0
M  V30 638 H 65.3622 -0.499557 -4.1309 0
M  V30 639 H 64.2382 -0.215922 -5.48475 0
M  V30 640 H 64.4992 1.04939 -4.29465 0
M  V30 641 N 63.5583 1.46682 -0.576371 0
M  V30 642 C 64.5213 2.28707 0.150239 0
M  V30 643 C 65.5213 1.38035 0.824794 0
M  V30 644 O 66.7113 1.60476 0.677719 0
M  V30 645 C 63.8433 3.18248 1.22192 0
M  V30 646 H 65.0363 2.94423 -0.570521 0
M  V30 647 H 62.5893 1.52688 -0.334078 0
M  V30 648 H 63.3243 2.57265 1.97447 0
M  V30 649 H 63.1093 3.85 0.742812 0
M  V30 650 H 64.5993 3.80001 1.73172 0
M  V30 651 N 65.0364 0.313813 1.54444 0
M  V30 652 C 66.2854 -0.292519 1.99568 0
M  V30 653 C 66.5984 -1.54011 1.20582 0
M  V30 654 O 67.8044 -2.22183 1.56035 0
M  V30 655 C 66.2604 -0.571752 3.55329 0
M  V30 656 C 65.8684 0.658229 4.43138 0
M  V30 657 C 67.6124 -1.13857 4.08946 0
M  V30 658 C 65.5194 0.351439 5.90355 0
M  V30 659 H 64.4494 -0.113079 0.745472 0
M  V30 660 H 67.1004 0.424518 1.78522 0
M  V30 661 H 65.4824 -1.34872 3.72325 0
M  V30 662 H 66.6564 1.43403 4.37918 0
M  V30 663 H 64.9714 1.14458 4.0036 0
M  V30 664 H 67.5684 -1.38257 5.16516 0
M  V30 665 H 67.9114 -2.08489 3.6033 0
M  V30 666 H 68.4444 -0.423015 3.95544 0
M  V30 667 H 65.1834 1.26667 6.43145 0
M  V30 668 H 64.7034 -0.386842 5.98551 0
M  V30 669 H 66.3824 -0.0423134 6.46986 0
M  V30 670 N 66.5145 -1.57545 0.0417849 0
M  V30 671 C 67.4615 -2.10977 -0.935805 0
M  V30 672 C 68.4315 -1.01486 -1.31491 0
M  V30 673 O 69.6165 -1.2898 -1.40602 0
M  V30 674 C 66.7565 -2.65169 -2.2086 0
M  V30 675 C 65.8695 -3.88714 -1.88482 0
M  V30 676 C 65.0045 -4.31254 -3.1015 0
M  V30 677 C 64.0435 -5.47524 -2.7365 0
M  V30 678 N 63.1805 -5.85162 -3.87982 0
M  V30 679 H 68.0205 -2.94218 -0.473249 0
M  V30 680 H 65.5575 -1.45415 -0.221981 0
M  V30 681 H 67.5155 -2.94685 -2.95325 0
M  V30 682 H 66.1455 -1.8474 -2.64709 0
M  V30 683 H 65.1975 -3.65849 -1.04205 0
M  V30 684 H 66.5095 -4.73245 -1.57608 0
M  V30 685 H 65.6635 -4.62273 -3.92923 0
M  V30 686 H 64.4025 -3.45516 -3.44195 0
M  V30 687 H 63.4075 -5.16187 -1.89291 0
M  V30 688 H 64.6325 -6.34971 -2.40807 0
M  V30 689 H 62.5785 -5.02377 -4.21846 0
M  V30 690 H 62.4955 -6.64362 -3.60775 0
M  V30 691 H 63.7635 -6.20791 -4.71422 0
M  V30 692 N 67.9926 0.231505 -1.5589 0
M  V30 693 C 69.4086 0.580748 -1.48659 0
M  V30 694 C 69.6086 1.87617 -0.73498 0
M  V30 695 O 68.6646 2.51046 -0.270586 0
M  V30 696 C 69.9776 0.669202 -2.93159 0
M  V30 697 C 71.5256 0.760499 -3.03621 0
M  V30 698 C 72.0006 0.880383 -4.49459 0
M  V30 699 N 73.4916 0.944861 -4.53461 0
M  V30 700 C 74.2266 1.05716 -5.63571 0
M  V30 701 N 73.7226 1.13403 -6.83456 0
M  V30 702 N 75.5156 1.09152 -5.514 0
M  V30 703 H 67.6666 -0.618695 -2.03189 0
M  V30 704 H 69.9296 -0.215728 -0.923128 0
M  V30 705 H 69.6356 -0.212904 -3.51055 0
M  V30 706 H 69.5096 1.5361 -3.44505 0
M  V30 707 H 71.8966 1.63305 -2.45796 0
M  V30 708 H 71.9776 -0.131864 -2.5546 0
M  V30 709 H 71.6216 0.0123284 -5.07899 0
M  V30 710 H 71.5516 1.78802 -4.95316 0
M  V30 711 H 74.0426 0.896176 -3.6712 0
M  V30 712 H 74.3556 1.21921 -7.63122 0
M  V30 713 H 72.7006 1.10333 -6.86186 0
M  V30 714 H 75.8916 1.02805 -4.56671 0
M  V30 715 H 76.0646 1.17558 -6.37247 0
M  V30 716 N 69.4707 1.49531 0.497807 0
M  V30 717 C 70.7197 1.58426 1.24837 0
M  V30 718 C 71.0327 0.277643 1.93619 0
M  V30 719 O 72.2387 0.24517 2.70391 0
M  V30 720 C 70.6947 2.79538 2.26686 0
M  V30 721 C 70.3027 4.16971 1.63828 0
M  V30 722 C 72.0467 2.97764 3.0255 0
M  V30 723 C 69.9537 5.29301 2.63807 0
M  V30 724 H 68.8837 0.58989 0.469623 0
M  V30 725 H 71.5347 1.75923 0.521857 0
M  V30 726 H 69.9167 2.55542 3.02514 0
M  V30 727 H 71.0907 4.51116 0.939711 0
M  V30 728 H 69.4057 4.04129 1.00342 0
M  V30 729 H 72.0027 3.78856 3.77323 0
M  V30 730 H 72.3457 2.08448 3.60354 0
M  V30 731 H 72.8787 3.21815 2.33838 0
M  V30 732 H 69.6177 6.20687 2.10779 0
M  V30 733 H 69.1377 4.99606 3.31894 0
M  V30 734 H 70.8167 5.58768 3.2617 0
M  V30 735 N 70.9488 -0.749086 1.3866 0
M  V30 736 C 71.8968 -1.88428 1.36373 0
M  V30 737 C 72.8908 -1.67561 0.248929 0
M  V30 738 O 74.0968 -1.75074 0.41821 0
M  V30 739 H 70.4718 -0.620023 0.42553 0
M  V30 740 H 72.4428 -1.87473 2.32156 0
M  V30 741 C 71.1918 -3.25961 1.21014 0
M  V30 742 H 70.5148 -3.42607 2.06059 0
M  V30 743 H 71.9548 -4.05625 1.23469 0
M  V30 744 C 70.4138 -3.36799 -0.0825941 0
M  V30 745 O 70.9438 -3.87517 -1.05797 0
M  V30 746 N 69.1498 -2.90258 -0.140939 0
M  V30 747 H 68.6968 -2.49174 0.653477 0
M  V30 748 H 68.6548 -2.97889 -1.00545 0
M  V30 749 N 72.4269 -1.23603 -0.977757 0
M  V30 750 C 73.3569 -1.04401 -2.0886 0
M  V30 751 C 74.3379 0.0399052 -1.70053 0
M  V30 752 O 75.5229 -0.125246 -1.93796 0
M  V30 753 C 72.6529 -0.637269 -3.41403 0
M  V30 754 C 71.6069 -1.66883 -3.94124 0
M  V30 755 C 70.9329 -1.11745 -5.22893 0
M  V30 756 C 72.2329 -3.06247 -4.23096 0
M  V30 757 H 73.9269 -1.97316 -2.25182 0
M  V30 758 H 71.4729 -0.950096 -1.08209 0
M  V30 759 H 73.4259 -0.48998 -4.18542 0
M  V30 760 H 72.1499 0.327557 -3.24953 0
M  V30 761 H 70.8089 -1.80416 -3.19133 0
M  V30 762 H 70.4569 -0.143527 -5.02795 0
M  V30 763 H 70.1569 -1.80672 -5.59134 0
M  V30 764 H 71.6809 -0.982067 -6.02651 0
M  V30 765 H 73.0949 -2.96001 -4.90975 0
M  V30 766 H 71.4919 -3.72436 -4.70544 0
M  V30 767 H 72.5619 -3.55041 -3.30263 0
M  V30 768 N 73.905 1.17692 -1.04816 0
M  V30 769 C 74.815 2.25229 -0.65643 0
M  V30 770 C 75.831 1.71018 0.320761 0
M  V30 771 O 77.007 2.00649 0.173805 0
M  V30 772 C 74.072 3.46684 -0.0332629 0
M  V30 773 C 73.133 4.15997 -1.06042 0
M  V30 774 C 72.366 5.31654 -0.466893 0
M  V30 775 O 72.589 5.65777 0.724758 0
M  V30 776 O 71.523 5.89831 -1.1993 0
M  V30 777 H 75.349 2.61016 -1.55255 0
M  V30 778 H 72.934 1.24919 -0.81949 0
M  V30 779 H 74.816 4.20234 0.313256 0
M  V30 780 H 73.491 3.12703 0.836566 0
M  V30 781 H 72.398 3.44482 -1.45886 0
M  V30 782 H 73.731 4.53996 -1.90127 0
M  V30 783 N 75.3831 0.828654 1.34056 0
M  V30 784 C 76.3301 0.252567 2.29414 0
M  V30 785 C 77.3001 -0.62588 1.53857 0
M  V30 786 O 78.4851 -0.566312 1.82202 0
M  V30 787 C 75.6251 -0.574831 3.40279 0
M  V30 788 C 74.7381 0.326499 4.30764 0
M  V30 789 C 73.8731 -0.511016 5.28736 0
M  V30 790 C 72.9121 0.389342 6.1086 0
M  V30 791 N 72.0491 -0.409439 7.00905 0
M  V30 792 H 76.8891 1.07108 2.78086 0
M  V30 793 H 74.4261 0.539677 1.36843 0
M  V30 794 H 76.3841 -1.06992 4.03248 0
M  V30 795 H 75.0141 -1.35841 2.92826 0
M  V30 796 H 74.0661 0.939837 3.68607 0
M  V30 797 H 75.3781 1.01857 4.88289 0
M  V30 798 H 74.5321 -1.07035 5.97184 0
M  V30 799 H 73.2711 -1.23657 4.71763 0
M  V30 800 H 72.2761 0.960769 5.4134 0
M  V30 801 H 73.5011 1.1131 6.69916 0
M  V30 802 H 71.4471 -1.11856 6.46393 0
M  V30 803 H 71.3641 0.224126 7.55668 0
M  V30 804 H 72.6321 -0.951336 7.73673 0
M  V30 805 N 76.8612 -1.46375 0.584142 0
M  V30 806 C 78.1012 -2.0427 0.0729695 0
M  V30 807 C 78.4652 -1.44563 -1.26355 0
M  V30 808 O 79.6662 -1.93667 -1.86405 0
M  V30 809 C 77.9372 -3.57399 0.00967464 0
M  V30 810 S 79.4962 -4.36551 -0.443714 0
M  V30 811 H 76.3142 -0.709975 0.0381673 0
M  V30 812 H 78.9162 -1.79398 0.776962 0
M  V30 813 H 77.6202 -3.98372 0.986319 0
M  V30 814 H 77.1512 -3.8681 -0.717044 0
M  V30 815 H 79.1662 -4.66237 -1.69816 0
M  V30 816 N 78.3393 -0.321999 -1.54275 0
M  V30 817 C 79.2713 0.578671 -2.21775 0
M  V30 818 C 80.2843 1.08109 -1.21722 0
M  V30 819 O 81.4733 0.994938 -1.482 0
M  V30 820 C 78.5733 1.80661 -2.86731 0
M  V30 821 C 77.7463 1.44314 -4.12907 0
M  V30 822 C 76.8053 2.52845 -4.61472 0
M  V30 823 O 75.8313 2.17054 -5.2619 0
M  V30 824 N 77.0333 3.83748 -4.35566 0
M  V30 825 H 79.7983 0.000709447 -2.997 0
M  V30 826 H 77.3593 -0.145132 -1.61248 0
M  V30 827 H 79.3513 2.52655 -3.16145 0
M  V30 828 H 77.9213 2.29245 -2.12521 0
M  V30 829 H 77.1413 0.554906 -3.90275 0
M  V30 830 H 78.4293 1.17598 -4.95023 0
M  V30 831 H 77.8273 4.15625 -3.83761 0
M  V30 832 H 76.3843 4.51977 -4.69638 0
M  V30 833 N 79.8174 1.5752 -0.0501392 0
M  V30 834 C 81.0454 1.96963 0.633492 0
M  V30 835 C 81.4604 0.927631 1.6444 0
M  V30 836 O 80.8174 -0.0882665 1.82286 0
M  V30 837 C 80.8684 3.36487 1.32132 0
M  V30 838 O 80.5894 4.36693 0.350894 0
M  V30 839 C 82.0904 3.90682 2.09481 0
M  V30 840 H 79.3104 0.648244 0.173266 0
M  V30 841 H 81.8544 2.0417 -0.116134 0
M  V30 842 H 80.0094 3.30434 2.02218 0
M  V30 843 H 80.4234 5.17702 0.841735 0
M  V30 844 H 81.8974 4.90591 2.5303 0
M  V30 845 H 82.3744 3.26053 2.94255 0
M  V30 846 H 82.9804 4.00069 1.44307 0
M  V30 847 N 81.2955 -0.223234 1.56011 0
M  V30 848 C 82.5205 -0.968978 1.83373 0
M  V30 849 C 82.9455 -1.77227 0.630254 0
M  V30 850 O 82.3035 -1.76345 -0.420959 0
M  V30 851 C 82.3515 -1.86363 3.08709 0
M  V30 852 O 81.4555 -2.95873 2.87285 0
M  V30 853 H 80.7965 -0.274461 0.604622 0
M  V30 854 H 83.3265 -0.237056 2.03222 0
M  V30 855 H 83.3365 -2.27376 3.38768 0
M  V30 856 H 82.0115 -1.27319 3.95933 0
M  V30 857 H 80.5885 -2.58818 2.68454 0
M  V30 858 N 82.7736 -1.49793 -0.48987 0
M  V30 859 C 83.7066 -1.61898 -1.60823 0
M  V30 860 C 84.6846 -0.467651 -1.5573 0
M  V30 861 O 85.8686 -0.684682 -1.75626 0
M  V30 862 C 82.9956 -1.58422 -2.99366 0
M  V30 863 C 82.0416 -2.78889 -3.22682 0
M  V30 864 S 82.8746 -4.40429 -3.04602 0
M  V30 865 C 84.0306 -4.39617 -4.4552 0
M  V30 866 H 84.2636 -2.56502 -1.50312 0
M  V30 867 H 81.7966 -1.38822 -0.675849 0
M  V30 868 H 83.7546 -1.57103 -3.79248 0
M  V30 869 H 82.4156 -0.650866 -3.07283 0
M  V30 870 H 81.6086 -2.72708 -4.23847 0
M  V30 871 H 81.2106 -2.77678 -2.50541 0
M  V30 872 H 83.5026 -4.12022 -5.37814 0
M  V30 873 H 84.4456 -5.41097 -4.56749 0
M  V30 874 H 84.8536 -3.69554 -4.2672 0
M  V30 875 N 84.2517 0.741722 -1.39055 0
M  V30 876 C 85.5287 1.49252 -1.26425 0
M  V30 877 C 85.9087 2.10705 0.129144 0
M  V30 878 O 85.2567 1.98045 1.13976 0
M  V30 879 C 85.4667 2.54934 -2.38347 0
M  V30 880 C 86.8147 3.21506 -2.77343 0
M  V30 881 O 87.8387 2.65245 -2.37747 0
M  V30 882 O 86.6977 4.23294 -3.45665 0
M  V30 883 H 83.7917 0.662451 -0.495064 0
M  V30 884 H 86.3377 0.776121 -1.50912 0
M  V30 885 H 85.1097 2.07857 -3.31529 0
M  V30 886 H 84.7327 3.34141 -2.15489 0
M  V30 887 N 85.7298 1.2412 0.971189 0
M  V30 888 C 86.6398 1.04747 2.09917 0
M  V30 889 C 87.6558 -0.0107162 1.73997 0
M  V30 890 O 88.8318 0.186714 2.00533 0
M  V30 891 C 85.8968 0.650828 3.40537 0
M  V30 892 C 84.9578 1.7851 3.90426 0
M  V30 893 C 84.1908 1.40729 5.14812 0
M  V30 894 O 84.4138 0.29557 5.69634 0
M  V30 895 O 83.3478 2.23168 5.58999 0
M  V30 896 H 87.1738 1.99304 2.29154 0
M  V30 897 H 84.7588 1.02908 1.08307 0
M  V30 898 H 86.6408 0.440992 4.19086 0
M  V30 899 H 85.3158 -0.265649 3.22608 0
M  V30 900 H 84.2228 2.04966 3.12953 0
M  V30 901 H 85.5558 2.68023 4.12825 0
M  V30 902 N 87.2079 -1.17134 1.05439 0
M  V30 903 C 88.1379 -2.2342 0.678649 0
M  V30 904 C 89.1189 -1.66971 -0.32476 0
M  V30 905 O 90.3039 -1.93149 -0.201802 0
M  V30 906 C 87.4339 -3.47256 0.0552099 0
M  V30 907 C 86.3879 -4.16543 0.98365 0
M  V30 908 C 85.7139 -5.34231 0.223961 0
M  V30 909 C 87.0139 -4.68495 2.3089 0
M  V30 910 H 88.7079 -2.55105 1.56722 0
M  V30 911 H 86.2539 -1.2262 0.754998 0
M  V30 912 H 88.2069 -4.20828 -0.21946 0
M  V30 913 H 86.9309 -3.14846 -0.868319 0
M  V30 914 H 85.5899 -3.44887 1.24293 0
M  V30 915 H 85.2379 -4.98071 -0.702412 0
M  V30 916 H 84.9379 -5.81527 0.842627 0
M  V30 917 H 86.4619 -6.10585 -0.0433671 0
M  V30 918 H 87.8759 -5.33691 2.09396 0
M  V30 919 H 86.2729 -5.26379 2.88176 0
M  V30 920 H 87.3429 -3.85169 2.94572 0
M  V30 921 N 88.686 -0.835752 -1.33615 0
M  V30 922 C 89.616 -0.281739 -2.31794 0
M  V30 923 C 90.597 0.608833 -1.58831 0
M  V30 924 O 91.782 0.533035 -1.86741 0
M  V30 925 C 88.912 0.546612 -3.42971 0
M  V30 926 C 87.866 -0.247904 -4.27281 0
M  V30 927 C 87.192 0.704001 -5.30045 0
M  V30 928 C 88.492 -1.46324 -5.01385 0
M  V30 929 H 90.186 -1.10206 -2.78379 0
M  V30 930 H 87.732 -0.531388 -1.33837 0
M  V30 931 H 89.685 0.944467 -4.1068 0
M  V30 932 H 88.409 1.40011 -2.95067 0
M  V30 933 H 87.068 -0.627281 -3.61194 0
M  V30 934 H 86.716 1.55381 -4.78399 0
M  V30 935 H 86.416 0.176524 -5.87335 0
M  V30 936 H 87.94 1.09944 -6.0062 0
M  V30 937 H 89.354 -1.13871 -5.61877 0
M  V30 938 H 87.751 -1.92728 -5.6831 0
M  V30 939 H 88.821 -2.23467 -4.30338 0
M  V30 940 N 90.1641 1.46063 -0.591896 0
M  V30 941 C 91.1111 2.30399 0.136069 0
M  V30 942 C 92.0811 1.41169 0.875238 0
M  V30 943 O 93.2661 1.70112 0.86409 0
M  V30 944 C 90.4061 3.25804 1.13781 0
M  V30 945 C 89.5191 4.30134 0.401137 0
M  V30 946 C 88.6541 5.12659 1.39121 0
M  V30 947 C 87.6931 6.0873 0.641462 0
M  V30 948 N 86.8301 6.8409 1.58004 0
M  V30 949 H 91.6701 2.92118 -0.589144 0
M  V30 950 H 89.2071 1.43959 -0.302342 0
M  V30 951 H 91.1651 3.79569 1.73156 0
M  V30 952 H 89.7951 2.65872 1.83062 0
M  V30 953 H 88.8471 3.79152 -0.307826 0
M  V30 954 H 90.1591 4.98458 -0.184565 0
M  V30 955 H 89.3131 5.70747 2.05749 0
M  V30 956 H 88.0521 4.44316 2.01084 0
M  V30 957 H 87.0571 5.49786 -0.0385419 0
M  V30 958 H 88.2821 6.79095 0.0270945 0
M  V30 959 H 86.2281 6.18449 2.18761 0
M  V30 960 H 86.1451 7.48709 1.04738 0
M  V30 961 H 87.4131 7.4673 2.23639 0
M  V30 962 N 91.6422 0.330177 1.54103 0
M  V30 963 C 92.5522 -0.541534 2.28264 0
M  V30 964 C 93.5682 -1.12351 1.32866 0
M  V30 965 O 94.7442 -1.14206 1.65888 0
M  V30 966 C 91.8092 -1.68322 3.03098 0
M  V30 967 C 90.8702 -1.13238 4.14096 0
M  V30 968 C 90.1032 -2.21966 4.85352 0
M  V30 969 O 90.3262 -3.42437 4.56172 0
M  V30 970 O 89.2602 -1.87013 5.7211 0
M  V30 971 H 93.0862 0.060938 3.03639 0
M  V30 972 H 90.6712 0.09565 1.49093 0
M  V30 973 H 92.5532 -2.34777 3.49939 0
M  V30 974 H 91.2282 -2.27176 2.30593 0
M  V30 975 H 90.1352 -0.432736 3.71589 0
M  V30 976 H 91.4682 -0.588898 4.88664 0
M  V30 977 N 93.1203 -1.57491 0.0584922 0
M  V30 978 C 94.3693 -1.92155 -0.613146 0
M  V30 979 C 94.6823 -0.939334 -1.71569 0
M  V30 980 O 95.8883 -1.17829 -2.44599 0
M  V30 981 C 94.3443 -3.41303 -1.14195 0
M  V30 982 C 93.9523 -4.47944 -0.0711265 0
M  V30 983 C 95.6963 -3.84988 -1.78841 0
M  V30 984 C 93.6033 -5.88212 -0.613225 0
M  V30 985 H 92.5333 -0.717162 -0.232796 0
M  V30 986 H 95.1843 -1.83049 0.12857 0
M  V30 987 H 93.5663 -3.45437 -1.93621 0
M  V30 988 H 94.7403 -4.55408 0.702836 0
M  V30 989 H 93.0553 -4.13644 0.478313 0
M  V30 990 H 95.6523 -4.87159 -2.20408 0
M  V30 991 H 95.9953 -3.21632 -2.64308 0
M  V30 992 H 96.5283 -3.83401 -1.06059 0
M  V30 993 H 93.2673 -6.55183 0.203978 0
M  V30 994 H 92.7873 -5.84294 -1.35501 0
M  V30 995 H 94.4663 -6.37687 -1.09383 0
M  V30 996 N 94.5984 0.214957 -1.56127 0
M  V30 997 C 95.5304 1.29004 -1.89448 0
M  V30 998 C 96.5434 1.42716 -0.783326 0
M  V30 999 O 97.7324 1.43496 -1.06166 0
M  V30 1000 C 94.8324 2.66482 -2.09381 0
M  V30 1001 C 94.0054 2.74633 -3.40434 0
M  V30 1002 C 93.0644 3.9317 -3.49719 0
M  V30 1003 O 92.0904 3.812 -4.227 0
M  V30 1004 N 93.2924 5.07765 -2.81346 0
M  V30 1005 H 96.0574 1.00743 -2.82261 0
M  V30 1006 H 93.6184 0.40497 -1.56753 0
M  V30 1007 H 95.6104 3.44173 -2.12901 0
M  V30 1008 H 94.1804 2.87314 -1.23163 0
M  V30 1009 H 93.4004 1.83368 -3.48955 0
M  V30 1010 H 94.6884 2.77054 -4.26754 0
M  V30 1011 H 94.0864 5.20386 -2.21843 0
M  V30 1012 H 92.6434 5.83474 -2.90519 0
M  V30 1013 N 96.0765 1.50051 0.48192 0
M  V30 1014 C 97.0395 1.67584 1.5636 0
M  V30 1015 C 98.0395 0.546894 1.51214 0
M  V30 1016 O 99.2295 0.813725 1.54026 0
M  V30 1017 C 96.3615 1.691 2.96003 0
M  V30 1018 H 97.5545 2.64078 1.42136 0
M  V30 1019 H 95.1075 1.39369 0.707533 0
M  V30 1020 H 95.8425 0.742589 3.15684 0
M  V30 1021 H 95.6275 2.51105 3.01146 0
M  V30 1022 H 97.1175 1.84656 3.74556 0
M  V30 1023 N 97.5546 -0.734337 1.39446 0
M  V30 1024 C 98.4876 -1.85715 1.32609 0
M  V30 1025 C 99.4656 -1.6137 0.199636 0
M  V30 1026 O 100.65 -1.84626 0.380195 0
M  V30 1027 C 97.7766 -3.21709 1.05929 0
M  V30 1028 C 96.8226 -3.64913 2.20773 0
M  V30 1029 S 97.6556 -3.74203 3.83056 0
M  V30 1030 C 98.8116 -5.12986 3.58603 0
M  V30 1031 H 99.0446 -1.91232 2.27635 0
M  V30 1032 H 96.5776 -0.899263 1.25509 0
M  V30 1033 H 98.5356 -4.00236 0.912203 0
M  V30 1034 H 97.1966 -3.13848 0.125883 0
M  V30 1035 H 96.3896 -4.63606 1.97699 0
M  V30 1036 H 95.9916 -2.93593 2.31688 0
M  V30 1037 H 98.2836 -5.99339 3.15909 0
M  V30 1038 H 99.2266 -5.41088 4.5676 0
M  V30 1039 H 99.6346 -4.82694 2.9269 0
M  V30 1040 N 99.0327 -1.24633 -0.964593 0
M  V30 1041 C 100.258 -1.11596 -1.74818 0
M  V30 1042 C 100.683 0.32723 -1.85232 0
M  V30 1043 O 100.041 1.23695 -1.32549 0
M  V30 1044 C 100.089 -1.76397 -3.1451 0
M  V30 1045 O 99.1927 -1.03685 -3.99153 0
M  V30 1046 H 98.5337 -0.390196 -0.537255 0
M  V30 1047 H 101.064 -1.65002 -1.20977 0
M  V30 1048 H 101.074 -1.8228 -3.65018 0
M  V30 1049 H 99.7487 -2.81401 -3.06246 0
M  V30 1050 H 98.3257 -1.05611 -3.57632 0
M  V30 1051 N 100.511 1.16574 -1.06058 0
M  V30 1052 C 101.443 2.2045 -0.627239 0
M  V30 1053 C 102.456 1.59752 0.313534 0
M  V30 1054 O 103.645 1.78192 0.104896 0
M  V30 1055 C 100.745 3.3875 0.100974 0
M  V30 1056 C 99.9178 4.29008 -0.852687 0
M  V30 1057 C 98.9768 5.25944 -0.164152 0
M  V30 1058 O 98.0028 5.63535 -0.801047 0
M  V30 1059 N 99.2048 5.70075 1.09518 0
M  V30 1060 H 101.97 2.58249 -1.52077 0
M  V30 1061 H 99.5308 1.3156 -0.943594 0
M  V30 1062 H 101.523 4.00638 0.57194 0
M  V30 1063 H 100.093 2.99476 0.89628 0
M  V30 1064 H 99.3128 3.64419 -1.50308 0
M  V30 1065 H 100.601 4.86195 -1.49972 0
M  V30 1066 H 99.9988 5.41624 1.6328 0
M  V30 1067 H 98.5558 6.34067 1.51006 0
M  V30 1068 N 101.989 0.842826 1.3317 0
M  V30 1069 C 103.229 0.446574 1.99462 0
M  V30 1070 C 103.593 -0.976818 1.65295 0
M  V30 1071 O 104.794 -1.477 2.24584 0
M  V30 1072 C 103.065 0.665353 3.51152 0
M  V30 1073 S 104.624 0.364911 4.3728 0
M  V30 1074 H 101.442 0.167803 0.690915 0
M  V30 1075 H 104.044 1.09297 1.62094 0
M  V30 1076 H 102.748 1.7006 3.73507 0
M  V30 1077 H 102.279 0.00494568 3.934 0
M  V30 1078 H 104.294 -0.813761 4.89482 0
M  V30 1079 N 103.467 -1.45747 0.599634 0
M  V30 1080 C 104.417 -2.27538 -0.145107 0
M  V30 1081 C 105.401 -1.3686 -0.846055 0
M  V30 1082 O 106.593 -1.6091 -0.737357 0
M  V30 1083 C 103.722 -3.23569 -1.14708 0
M  V30 1084 C 102.808 -4.21734 -0.447383 0
M  V30 1085 N 103.199 -5.03257 0.506535 0
M  V30 1086 C 101.497 -4.40536 -0.695966 0
M  V30 1087 C 102.198 -5.74426 0.917068 0
M  V30 1088 N 101.174 -5.42966 0.26253 0
M  V30 1089 H 104.976 -2.87965 0.587672 0
M  V30 1090 H 102.49 -1.56803 0.422697 0
M  V30 1091 H 104.487 -3.8089 -1.69495 0
M  V30 1092 H 103.147 -2.64702 -1.8805 0
M  V30 1093 H 104.158 -5.10319 0.882899 0
M  V30 1094 H 100.835 -3.92802 -1.41467 0
M  V30 1095 H 102.225 -6.4995 1.70338 0
M  V30 1096 N 104.945 -0.338344 -1.53925 0
M  V30 1097 C 105.895 0.536712 -2.21593 0
M  V30 1098 C 106.879 1.07015 -1.20153 0
M  V30 1099 O 108.071 1.00471 -1.45721 0
M  V30 1100 C 105.2 1.68977 -2.98834 0
M  V30 1101 C 104.286 1.17052 -4.07627 0
M  V30 1102 N 104.677 0.372085 -5.0443 0
M  V30 1103 C 102.975 1.44789 -4.21844 0
M  V30 1104 C 103.676 0.0909171 -5.81629 0
M  V30 1105 N 102.652 0.681131 -5.39316 0
M  V30 1106 H 106.454 -0.0804298 -2.9379 0
M  V30 1107 H 103.968 -0.144943 -1.61752 0
M  V30 1108 H 105.965 2.32857 -3.45808 0
M  V30 1109 H 104.625 2.31024 -2.28162 0
M  V30 1110 H 105.636 0.0136217 -5.17898 0
M  V30 1111 H 102.313 2.07313 -3.62391 0
M  V30 1112 H 103.703 -0.552817 -6.69622 0
M  V30 1113 N 106.423 1.57458 -0.0668435 0
M  V30 1114 C 107.834 1.80776 0.466558 0
M  V30 1115 C 108.185 0.980361 1.69951 0
M  V30 1116 O 107.31 0.201441 2.1546 0
M  V30 1117 C 107.905 3.27881 0.85321 0
M  V30 1118 C 106.464 3.52062 1.3315 0
M  V30 1119 C 105.611 2.75513 0.314264 0
M  V30 1120 H 108.562 1.5598 -0.292588 0
M  V30 1121 H 108.583 3.39659 1.715 0
M  V30 1122 H 108.095 3.88075 -0.0443439 0
M  V30 1123 H 106.196 2.97167 2.24772 0
M  V30 1124 H 106.309 4.60762 1.31285 0
M  V30 1125 H 104.673 2.42123 0.790492 0
M  V30 1126 H 105.456 3.38442 -0.575477 0
M  V30 1127 N 107.901 -0.206675 1.56239 0
M  V30 1128 C 108.849 -1.27571 1.94495 0
M  V30 1129 C 109.843 -1.47737 0.828862 0
M  V30 1130 O 111.049 -1.48735 1.0138 0
M  V30 1131 H 107.424 -0.428029 0.6183 0
M  V30 1132 H 109.395 -0.925961 2.8367 0
M  V30 1133 C 108.144 -2.61568 2.29079 0
M  V30 1134 H 107.467 -2.46863 3.14482 0
M  V30 1135 H 108.907 -3.35144 2.5972 0
M  V30 1136 C 107.366 -3.17695 1.12123 0
M  V30 1137 O 107.896 -3.99801 0.390153 0
M  V30 1138 N 106.102 -2.76276 0.901097 0
M  V30 1139 H 105.649 -2.09613 1.49733 0
M  V30 1140 H 105.607 -3.1417 0.120319 0
M  V30 1141 N 109.379 -1.50304 -0.473955 0
M  V30 1142 C 110.628 -1.60392 -1.22301 0
M  V30 1143 C 110.941 -0.308411 -1.93153 0
M  V30 1144 O 112.147 -0.288156 -2.69966 0
M  V30 1145 C 110.603 -2.83109 -2.2221 0
M  V30 1146 C 110.211 -4.19524 -1.57173 0
M  V30 1147 C 111.955 -3.0254 -2.97775 0
M  V30 1148 C 109.862 -5.33431 -2.55353 0
M  V30 1149 H 108.792 -0.597286 -0.460179 0
M  V30 1150 H 111.443 -1.76731 -0.493803 0
M  V30 1151 H 109.825 -2.60322 -2.9841 0
M  V30 1152 H 110.999 -4.52554 -0.867824 0
M  V30 1153 H 109.314 -4.05674 -0.939002 0
M  V30 1154 H 111.911 -3.84811 -3.71248 0
M  V30 1155 H 112.254 -2.14154 -3.56992 0
M  V30 1156 H 112.787 -3.25494 -2.28688 0
M  V30 1157 H 109.526 -6.23962 -2.00878 0
M  V30 1158 H 109.046 -5.04823 -3.23904 0
M  V30 1159 H 110.725 -5.63887 -3.17239 0
M  V30 1160 N 110.857 0.726932 -1.39834 0
M  V30 1161 C 112.103 1.48884 -1.377 0
M  V30 1162 C 112.436 1.94185 0.0244852 0
M  V30 1163 O 111.711 1.67361 0.990986 0
M  V30 1164 C 111.994 2.72288 -2.3565 0
M  V30 1165 C 111.847 2.32956 -3.84775 0
M  V30 1166 C 113.166 3.74414 -2.31306 0
M  V30 1167 H 110.285 0.540062 -0.5015 0
M  V30 1168 H 112.927 0.830547 -1.70886 0
M  V30 1169 H 111.077 3.28457 -2.07481 0
M  V30 1170 H 112.749 1.82356 -4.23726 0
M  V30 1171 H 110.992 1.65088 -4.01159 0
M  V30 1172 H 111.663 3.21362 -4.4881 0
M  V30 1173 H 114.139 3.27849 -2.56231 0
M  V30 1174 H 113.015 4.58414 -3.01907 0
M  V30 1175 H 113.276 4.21909 -1.32081 0
M  V30 1176 N 112.336 1.25143 0.95797 0
M  V30 1177 C 113.561 1.12521 1.74223 0
M  V30 1178 C 113.986 -0.317402 1.85403 0
M  V30 1179 O 113.344 -1.2299 1.33204 0
M  V30 1180 C 113.392 1.78062 3.1357 0
M  V30 1181 O 112.496 1.058 3.98598 0
M  V30 1182 H 111.837 0.39304 0.535178 0
M  V30 1183 H 114.367 1.65641 1.201 0
M  V30 1184 H 114.377 1.84213 3.64046 0
M  V30 1185 H 113.052 2.83021 3.04749 0
M  V30 1186 H 111.629 1.07506 3.57067 0
M  V30 1187 N 113.814 -1.1601 1.06675 0
M  V30 1188 C 115.044 -1.90251 0.805497 0
M  V30 1189 C 115.452 -1.77891 -0.64431 0
M  V30 1190 O 114.795 -1.12383 -1.45313 0
M  V30 1191 C 114.857 -3.41419 1.12576 0
M  V30 1192 C 114.521 -3.77564 2.57477 0
M  V30 1193 C 115.518 -3.79161 3.55715 0
M  V30 1194 C 113.203 -4.08079 2.92877 0
M  V30 1195 C 115.197 -4.10767 4.8739 0
M  V30 1196 C 112.884 -4.39351 4.24751 0
M  V30 1197 C 113.882 -4.40675 5.21818 0
M  V30 1198 O 113.57 -4.71202 6.51325 0
M  V30 1199 H 113.302 -0.610018 0.291297 0
M  V30 1200 H 115.856 -1.47958 1.4247 0
M  V30 1201 H 114.086 -3.84079 0.449503 0
M  V30 1202 H 115.775 -3.9694 0.84814 0
M  V30 1203 H 116.541 -3.55693 3.29708 0
M  V30 1204 H 112.42 -4.06211 2.17976 0
M  V30 1205 H 115.964 -4.11715 5.63148 0
M  V30 1206 H 111.861 -4.62285 4.50514 0
M  V30 1207 H 112.629 -4.88996 6.56373 0
M  V30 1208 N 115.292 -0.849877 -1.32721 0
M  V30 1209 C 116.522 -0.46408 -2.0132 0
M  V30 1210 C 116.93 0.94246 -1.64056 0
M  V30 1211 O 116.273 1.6257 -0.855379 0
M  V30 1212 C 116.335 -0.517887 -3.5575 0
M  V30 1213 C 115.999 -1.88248 -4.16427 0
M  V30 1214 C 116.996 -2.84726 -4.35002 0
M  V30 1215 C 114.681 -2.17832 -4.52609 0
M  V30 1216 C 116.675 -4.08945 -4.8892 0
M  V30 1217 C 114.362 -3.42304 -5.06232 0
M  V30 1218 C 115.36 -4.37677 -5.24335 0
M  V30 1219 O 115.048 -5.59946 -5.76815 0
M  V30 1220 H 114.78 -0.181327 -0.651227 0
M  V30 1221 H 117.334 -1.14713 -1.70382 0
M  V30 1222 H 115.564 0.221997 -3.86062 0
M  V30 1223 H 117.253 -0.148366 -4.05629 0
M  V30 1224 H 118.019 -2.63174 -4.07388 0
M  V30 1225 H 113.898 -1.44385 -4.37806 0
M  V30 1226 H 117.442 -4.83396 -5.02966 0
M  V30 1227 H 113.339 -3.63709 -5.33278 0
M  V30 1228 H 114.107 -5.61838 -5.95214 0
M  V30 1229 N 116.77 1.45427 -0.607355 0
M  V30 1230 C 117.998 2.06614 -0.108814 0
M  V30 1231 C 118.413 1.45204 1.2067 0
M  V30 1232 O 117.77 0.566132 1.73497 0
M  V30 1233 C 117.821 3.61481 0.0375347 0
M  V30 1234 O 117.542 4.20598 -1.22593 0
M  V30 1235 C 119.043 4.39652 0.567561 0
M  V30 1236 H 116.263 0.66747 -0.0687351 0
M  V30 1237 H 118.807 1.86675 -0.835022 0
M  V30 1238 H 116.962 3.80762 0.714068 0
M  V30 1239 H 117.376 5.1377 -1.05547 0
M  V30 1240 H 118.85 5.48518 0.61905 0
M  V30 1241 H 119.327 4.09417 1.58978 0
M  V30 1242 H 119.933 4.25234 -0.0749202 0
M  V30 1243 N 118.248 0.346503 1.53744 0
M  V30 1244 C 119.473 -0.253074 2.0585 0
M  V30 1245 C 119.898 -1.43202 1.21962 0
M  V30 1246 O 119.256 -1.79783 0.234073 0
M  V30 1247 C 119.304 -0.643193 3.54817 0
M  V30 1248 O 118.408 -1.74286 3.73762 0
M  V30 1249 H 117.749 -0.0413583 0.662711 0
M  V30 1250 H 120.279 0.501574 1.98357 0
M  V30 1251 H 120.289 -0.919526 3.97503 0
M  V30 1252 H 118.964 0.218966 4.15323 0
M  V30 1253 H 117.541 -1.46356 3.42979 0
M  V30 1254 N 119.726 -1.57421 0.075193 0
M  V30 1255 C 120.973 -1.93618 -0.593146 0
M  V30 1256 C 121.301 -0.955484 -1.69413 0
M  V30 1257 O 120.556 0.0283251 -1.9568 0
M  V30 1258 C 120.855 -3.36428 -1.20626 0
M  V30 1259 C 120.521 -4.50307 -0.231078 0
M  V30 1260 C 119.183 -4.81186 0.0371936 0
M  V30 1261 C 121.535 -5.19374 0.435888 0
M  V30 1262 C 118.863 -5.78466 0.979461 0
M  V30 1263 C 121.215 -6.17665 1.3665 0
M  V30 1264 C 119.879 -6.46958 1.6432 0
M  V30 1265 H 119.149 -0.708499 -0.217047 0
M  V30 1266 H 121.796 -1.90937 0.146793 0
M  V30 1267 H 120.101 -3.35592 -2.02201 0
M  V30 1268 H 121.798 -3.61727 -1.73073 0
M  V30 1269 H 118.388 -4.26227 -0.450357 0
M  V30 1270 H 122.572 -4.95711 0.241748 0
M  V30 1271 H 117.828 -5.99487 1.20106 0
M  V30 1272 H 122.002 -6.70284 1.88924 0
M  V30 1273 H 119.629 -7.2215 2.37494 0
M  V30 1274 N 121.204 0.198386 -1.56346 0
M  V30 1275 C 122.45 0.920648 -1.80698 0
M  V30 1276 C 122.783 1.83045 -0.648697 0
M  V30 1277 O 122.058 1.91308 0.350925 0
M  V30 1278 C 122.341 1.73971 -3.15287 0
M  V30 1279 C 122.194 0.85485 -4.41602 0
M  V30 1280 C 123.513 2.71296 -3.46535 0
M  V30 1281 H 120.632 0.333261 -0.657348 0
M  V30 1282 H 123.274 0.188198 -1.89066 0
M  V30 1283 H 121.424 2.36416 -3.08285 0
M  V30 1284 H 123.096 0.245362 -4.60647 0
M  V30 1285 H 121.339 0.161398 -4.335 0
M  V30 1286 H 122.01 1.46286 -5.32264 0
M  V30 1287 H 124.486 2.18983 -3.53816 0
M  V30 1288 H 123.362 3.2569 -4.41834 0
M  V30 1289 H 123.623 3.5018 -2.69864 0
M  V30 1290 N 122.682 1.50554 0.465978 0
M  V30 1291 C 123.928 1.62038 1.21949 0
M  V30 1292 C 124.261 0.322116 1.9151 0
M  V30 1293 O 123.536 -0.676723 1.82348 0
M  V30 1294 C 123.819 2.80421 2.25912 0
M  V30 1295 C 123.672 4.20144 1.60622 0
M  V30 1296 C 124.991 2.94354 3.27176 0
M  V30 1297 H 122.11 0.589752 0.441998 0
M  V30 1298 H 124.752 1.82956 0.51257 0
M  V30 1299 H 122.902 2.62717 2.86203 0
M  V30 1300 H 124.574 4.49449 1.03889 0
M  V30 1301 H 122.817 4.24165 0.909211 0
M  V30 1302 H 123.488 4.98914 2.36196 0
M  V30 1303 H 125.964 3.10578 2.76913 0
M  V30 1304 H 124.84 3.788 3.97242 0
M  V30 1305 H 125.101 2.05186 3.916 0
M  V30 1306 N 124.16 -0.719506 1.40217 0
M  V30 1307 C 125.107 -1.83359 1.40172 0
M  V30 1308 C 126.077 -1.64065 0.259206 0
M  V30 1309 O 127.262 -1.85254 0.456677 0
M  V30 1310 C 124.402 -3.2103 1.26624 0
M  V30 1311 C 123.515 -3.51923 2.50548 0
M  V30 1312 C 122.65 -4.79079 2.29471 0
M  V30 1313 C 121.689 -5.02863 3.48992 0
M  V30 1314 N 120.826 -6.2123 3.27135 0
M  V30 1315 H 125.666 -1.82733 2.35399 0
M  V30 1316 H 123.203 -0.892688 1.16917 0
M  V30 1317 H 125.161 -4.00524 1.16776 0
M  V30 1318 H 123.791 -3.20895 0.350176 0
M  V30 1319 H 122.843 -2.67014 2.70939 0
M  V30 1320 H 124.155 -3.6541 3.39525 0
M  V30 1321 H 123.309 -5.66582 2.16955 0
M  V30 1322 H 122.048 -4.67794 1.37913 0
M  V30 1323 H 121.053 -4.13816 3.6199 0
M  V30 1324 H 122.278 -5.16023 4.41472 0
M  V30 1325 H 120.224 -6.11204 2.38256 0
M  V30 1326 H 120.141 -6.35375 4.09675 0
M  V30 1327 H 121.409 -7.11532 3.18344 0
M  V30 1328 N 125.638 -1.25649 -0.95132 0
M  V30 1329 C 126.915 -1.01361 -1.67288 0
M  V30 1330 C 127.295 0.459135 -2.06046 0
M  V30 1331 O 126.643 1.43723 -1.7764 0
M  V30 1332 C 126.853 -1.95256 -2.89268 0
M  V30 1333 C 128.201 -2.23289 -3.61147 0
M  V30 1334 O 129.225 -1.93041 -2.99355 0
M  V30 1335 O 128.084 -2.74741 -4.72419 0
M  V30 1336 H 125.178 -0.38464 -0.732107 0
M  V30 1337 H 127.724 -1.36817 -1.00395 0
M  V30 1338 H 126.496 -2.94685 -2.57442 0
M  V30 1339 H 126.119 -1.60218 -3.6389 0
M  V30 1340 N 127.117 1.15442 -1.07289 0
M  V30 1341 C 128.027 2.23786 -0.704057 0
M  V30 1342 C 129.043 1.7166 0.284413 0
M  V30 1343 O 130.219 2.00972 0.131205 0
M  V30 1344 C 127.284 3.46535 -0.106792 0
M  V30 1345 C 126.345 4.13654 -1.14842 0
M  V30 1346 C 125.578 5.30544 -0.57956 0
M  V30 1347 O 125.801 5.67187 0.604585 0
M  V30 1348 O 124.735 5.87154 -1.32414 0
M  V30 1349 H 128.561 2.57664 -1.60757 0
M  V30 1350 H 126.146 1.23152 -0.845803 0
M  V30 1351 H 128.028 4.20804 0.224048 0
M  V30 1352 H 126.703 3.14407 0.770049 0
M  V30 1353 H 125.61 3.4131 -1.5316 0
M  V30 1354 H 126.943 4.49861 -1.99714 0
M  V30 1355 N 128.595 0.856903 1.32268 0
M  V30 1356 C 129.525 0.31858 2.31316 0
M  V30 1357 C 130.506 -0.583487 1.59779 0
M  V30 1358 O 131.691 -0.503259 1.87566 0
M  V30 1359 C 128.821 -0.491979 3.43798 0
M  V30 1360 C 127.775 0.315849 4.26833 0
M  V30 1361 C 127.101 -0.619586 5.31098 0
M  V30 1362 C 128.401 1.54282 4.98993 0
M  V30 1363 H 130.095 1.14621 2.76591 0
M  V30 1364 H 127.641 0.552613 1.32974 0
M  V30 1365 H 129.594 -0.879012 4.1213 0
M  V30 1366 H 128.318 -1.35299 2.97257 0
M  V30 1367 H 126.977 0.684664 3.6015 0
M  V30 1368 H 126.625 -1.47751 4.8081 0
M  V30 1369 H 126.325 -0.0830621 5.87541 0
M  V30 1370 H 127.849 -1.00375 6.02293 0
M  V30 1371 H 129.263 1.22796 5.59995 0
M  V30 1372 H 127.66 2.01745 5.65172 0
M  V30 1373 H 128.73 2.30285 4.26728 0
M  V30 1374 N 130.073 -1.45103 0.615059 0
M  V30 1375 C 131.319 -2.03035 0.121804 0
M  V30 1376 C 131.674 -1.47393 -1.23665 0
M  V30 1377 O 130.967 -0.642061 -1.80522 0
M  V30 1378 C 131.161 -3.57386 0.0318797 0
M  V30 1379 C 130.99 -4.28 1.38007 0
M  V30 1380 C 129.76 -4.65624 1.9627 0
M  V30 1381 C 131.958 -4.5948 2.31047 0
M  V30 1382 N 129.94 -5.21132 3.24492 0
M  V30 1383 C 131.311 -5.159 3.43872 0
M  V30 1384 C 133.366 -4.41423 2.30326 0
M  V30 1385 C 132.069 -5.56165 4.5615 0
M  V30 1386 C 134.095 -4.82726 3.41658 0
M  V30 1387 C 133.457 -5.39245 4.53205 0
M  V30 1388 H 129.556 -0.77702 0.0881159 0
M  V30 1389 H 132.14 -1.76819 0.815044 0
M  V30 1390 H 130.311 -3.83247 -0.630599 0
M  V30 1391 H 132.043 -4.01976 -0.468721 0
M  V30 1392 H 128.798 -4.49421 1.49392 0
M  V30 1393 H 129.222 -5.53377 3.90004 0
M  V30 1394 H 133.864 -3.97033 1.45343 0
M  V30 1395 H 131.582 -5.99517 5.41854 0
M  V30 1396 H 135.168 -4.7048 3.42257 0
M  V30 1397 H 134.048 -5.70616 5.37929 0
M  V30 1398 N 131.551 -0.354651 -1.53558 0
M  V30 1399 C 132.481 0.489091 -2.2832 0
M  V30 1400 C 133.462 1.09324 -1.30316 0
M  V30 1401 O 134.647 1.11255 -1.59173 0
M  V30 1402 C 131.777 1.63456 -3.0643 0
M  V30 1403 C 130.731 1.1582 -4.12031 0
M  V30 1404 C 130.057 2.39305 -4.7816 0
M  V30 1405 C 131.357 0.250731 -5.21698 0
M  V30 1406 H 133.051 -0.134614 -2.99097 0
M  V30 1407 H 130.597 -0.0661826 -1.43848 0
M  V30 1408 H 132.55 2.23136 -3.57475 0
M  V30 1409 H 131.274 2.28533 -2.33325 0
M  V30 1410 H 129.933 0.584146 -3.61916 0
M  V30 1411 H 129.581 3.02814 -4.01637 0
M  V30 1412 H 129.281 2.08109 -5.49513 0
M  V30 1413 H 130.805 2.99691 -5.31994 0
M  V30 1414 H 132.219 0.754695 -5.68311 0
M  V30 1415 H 130.616 0.0301468 -6.00092 0
M  V30 1416 H 131.686 -0.710125 -4.79672 0
M  V30 1417 N 133.029 1.57378 -0.0835403 0
M  V30 1418 C 134.275 1.94217 0.583733 0
M  V30 1419 C 134.608 0.964653 1.68547 0
M  V30 1420 O 133.883 -0.00422258 1.945 0
M  V30 1421 C 134.166 3.41253 1.14972 0
M  V30 1422 C 134.019 4.49768 0.0538277 0
M  V30 1423 C 135.338 3.89352 2.05166 0
M  V30 1424 H 132.457 0.706233 0.210724 0
M  V30 1425 H 135.099 1.89392 -0.1519 0
M  V30 1426 H 133.249 3.45496 1.77665 0
M  V30 1427 H 134.921 4.57641 -0.579851 0
M  V30 1428 H 133.164 4.29432 -0.614068 0
M  V30 1429 H 133.835 5.49817 0.490452 0
M  V30 1430 H 136.311 3.87189 1.52393 0
M  V30 1431 H 135.187 4.92822 2.41698 0
M  V30 1432 H 135.448 3.27973 2.96456 0
M  V30 1433 N 134.507 -0.190092 1.56449 0
M  V30 1434 C 135.44 -1.26375 1.90012 0
M  V30 1435 C 136.418 -1.43705 0.760765 0
M  V30 1436 O 137.602 -1.59014 1.01226 0
M  V30 1437 C 134.729 -2.62962 2.13468 0
M  V30 1438 C 133.775 -2.62474 3.36169 0
M  V30 1439 S 134.608 -2.13412 4.91137 0
M  V30 1440 C 135.764 -3.51812 5.17667 0
M  V30 1441 H 135.997 -0.977181 2.80782 0
M  V30 1442 H 133.53 -0.393814 1.49293 0
M  V30 1443 H 135.488 -3.41583 2.27664 0
M  V30 1444 H 134.149 -2.88828 1.23439 0
M  V30 1445 H 133.342 -3.62918 3.49723 0
M  V30 1446 H 132.944 -1.91937 3.20992 0
M  V30 1447 H 135.236 -4.47706 5.08494 0
M  V30 1448 H 136.179 -3.43148 6.19399 0
M  V30 1449 H 136.587 -3.46956 4.45288 0
M  V30 1450 N 135.985 -1.50799 -0.457987 0
M  V30 1451 C 136.932 -1.70617 -1.5543 0
M  V30 1452 C 137.902 -0.547562 -1.56815 0
M  V30 1453 O 139.087 -0.779647 -1.74144 0
M  V30 1454 C 136.227 -1.81831 -2.93311 0
M  V30 1455 C 135.34 -3.09278 -3.01615 0
M  V30 1456 C 134.475 -3.11209 -4.30491 0
M  V30 1457 C 133.514 -4.33055 -4.32585 0
M  V30 1458 N 132.651 -4.32652 -5.52952 0
M  V30 1459 H 137.491 -2.64207 -1.37836 0
M  V30 1460 H 135.028 -1.30959 -0.669937 0
M  V30 1461 H 136.986 -1.86314 -3.73287 0
M  V30 1462 H 135.616 -0.916685 -3.0951 0
M  V30 1463 H 134.668 -3.14203 -2.1443 0
M  V30 1464 H 135.98 -3.99233 -2.99022 0
M  V30 1465 H 135.134 -3.14494 -5.18824 0
M  V30 1466 H 133.873 -2.19106 -4.35711 0
M  V30 1467 H 132.878 -4.29969 -3.42647 0
M  V30 1468 H 134.103 -5.264 -4.29046 0
M  V30 1469 H 132.049 -3.43409 -5.58933 0
M  V30 1470 H 131.966 -5.16392 -5.52155 0
M  V30 1471 H 133.234 -4.40101 -6.43375 0
M  V30 1472 N 137.463 0.71206 -1.40597 0
M  V30 1473 C 138.393 1.83889 -1.43899 0
M  V30 1474 C 139.374 1.67442 -0.299504 0
M  V30 1475 O 140.559 1.87421 -0.508624 0
M  V30 1476 C 137.689 3.21877 -1.30431 0
M  V30 1477 C 136.643 3.53002 -2.42019 0
M  V30 1478 C 135.969 4.90172 -2.13626 0
M  V30 1479 C 137.269 3.53643 -3.84362 0
M  V30 1480 H 138.963 1.81383 -2.38203 0
M  V30 1481 H 136.509 0.871237 -1.14654 0
M  V30 1482 H 138.462 4.00404 -1.31357 0
M  V30 1483 H 137.186 3.24968 -0.326049 0
M  V30 1484 H 135.845 2.76818 -2.40349 0
M  V30 1485 H 135.493 4.89869 -1.14182 0
M  V30 1486 H 135.193 5.11962 -2.88389 0
M  V30 1487 H 136.717 5.71028 -2.1624 0
M  V30 1488 H 138.131 4.22203 -3.87837 0
M  V30 1489 H 136.528 3.86961 -4.58673 0
M  V30 1490 H 137.598 2.52954 -4.13693 0
M  V30 1491 N 138.941 1.26152 0.944643 0
M  V30 1492 C 139.871 1.09902 2.06019 0
M  V30 1493 C 140.852 0.00519538 1.70099 0
M  V30 1494 O 142.037 0.176583 1.93396 0
M  V30 1495 C 139.167 0.727562 3.39594 0
M  V30 1496 C 138.121 1.77274 3.89561 0
M  V30 1497 C 137.447 1.25569 5.19747 0
M  V30 1498 C 138.747 3.17357 4.14827 0
M  V30 1499 H 140.441 2.03217 2.19871 0
M  V30 1500 H 137.987 0.978452 1.05652 0
M  V30 1501 H 139.94 0.600777 4.17095 0
M  V30 1502 H 138.664 -0.241287 3.25707 0
M  V30 1503 H 137.323 1.88814 3.14237 0
M  V30 1504 H 136.971 0.276783 5.02238 0
M  V30 1505 H 136.671 1.95433 5.54148 0
M  V30 1506 H 138.195 1.1415 5.99835 0
M  V30 1507 H 139.609 3.08914 4.82954 0
M  V30 1508 H 138.006 3.84781 4.60504 0
M  V30 1509 H 139.076 3.63673 3.20734 0
M  V30 1510 N 140.419 -1.14872 1.07899 0
M  V30 1511 C 141.644 -1.90202 0.826926 0
M  V30 1512 C 142.069 -1.77774 -0.614664 0
M  V30 1513 O 141.427 -1.11431 -1.43013 0
M  V30 1514 C 141.475 -3.38352 1.24702 0
M  V30 1515 O 140.579 -4.10497 0.39575 0
M  V30 1516 H 139.92 -0.591968 0.300782 0
M  V30 1517 H 142.45 -1.45437 1.43907 0
M  V30 1518 H 142.46 -3.89156 1.22563 0
M  V30 1519 H 141.135 -3.46715 2.29698 0
M  V30 1520 H 139.712 -3.69796 0.480117 0
M  V30 1521 N 141.898 -0.863906 -1.31812 0
M  V30 1522 C 143.146 -0.470904 -1.96537 0
M  V30 1523 C 143.467 0.978771 -1.68657 0
M  V30 1524 O 142.737 1.6853 -0.998717 0
M  V30 1525 H 141.317 -0.171148 -0.72713 0
M  V30 1526 H 143.979 -1.10236 -1.60729 0
M  V30 1527 H 143.075 -0.623616 -3.05806 0
M  V30 1528 N 143.376 1.44774 -0.622745 0
M  V30 1529 C 144.624 2.01721 -0.123655 0
M  V30 1530 C 144.945 1.49172 1.25589 0
M  V30 1531 O 144.215 0.691974 1.83272 0
M  V30 1532 H 142.795 0.745777 -0.0427225 0
M  V30 1533 H 145.457 1.77382 -0.807559 0
M  V30 1534 H 144.553 3.11984 -0.0849534 0
M  V30 1535 N 144.854 0.36279 1.53368 0
M  V30 1536 C 146.079 -0.231226 2.06107 0
M  V30 1537 C 146.504 -1.419 1.23474 0
M  V30 1538 O 145.862 -1.79524 0.253128 0
M  V30 1539 C 145.91 -0.605523 3.5548 0
M  V30 1540 O 145.014 -1.70312 3.7559 0
M  V30 1541 H 144.355 -0.034327 0.663112 0
M  V30 1542 H 146.885 0.522584 1.97814 0
M  V30 1543 H 146.895 -0.877314 3.98456 0
M  V30 1544 H 145.57 0.263004 4.15068 0
M  V30 1545 H 144.147 -1.4271 3.44512 0
M  V30 1546 N 146.332 -1.57332 0.0918853 0
M  V30 1547 C 147.578 -1.94524 -0.573425 0
M  V30 1548 C 147.911 -0.973578 -1.68033 0
M  V30 1549 O 147.186 -0.00609226 -1.94499 0
M  V30 1550 C 147.469 -3.41858 -1.13161 0
M  V30 1551 C 147.322 -4.4979 -0.0299747 0
M  V30 1552 C 148.641 -3.90435 -2.03098 0
M  V30 1553 H 145.76 -0.70734 -0.206975 0
M  V30 1554 H 148.402 -1.89309 0.161942 0
M  V30 1555 H 146.552 -3.46433 -1.7583 0
M  V30 1556 H 148.224 -4.57327 0.604112 0
M  V30 1557 H 146.467 -4.291 0.636833 0
M  V30 1558 H 147.138 -5.50069 -0.461287 0
M  V30 1559 H 149.614 -3.87992 -1.50338 0
M  V30 1560 H 148.49 -4.94097 -2.39081 0
M  V30 1561 H 148.751 -3.29541 -2.94712 0
M  V30 1562 N 147.81 0.181792 -1.56548 0
M  V30 1563 C 148.74 1.22765 -1.98623 0
M  V30 1564 C 149.721 1.46747 -0.860189 0
M  V30 1565 O 150.906 1.58259 -1.12551 0
M  V30 1566 C 148.036 2.56894 -2.33715 0
M  V30 1567 C 146.99 2.475 -3.49182 0
M  V30 1568 C 146.316 3.86023 -3.69986 0
M  V30 1569 C 147.616 1.98866 -4.82959 0
M  V30 1570 H 149.31 0.877942 -2.86239 0
M  V30 1571 H 146.856 0.42088 -1.37712 0
M  V30 1572 H 148.809 3.30253 -2.61746 0
M  V30 1573 H 147.533 2.93632 -1.42997 0
M  V30 1574 H 146.192 1.76596 -3.21262 0
M  V30 1575 H 145.84 4.20136 -2.76576 0
M  V30 1576 H 145.54 3.80609 -4.47672 0
M  V30 1577 H 147.064 4.60984 -4.00407 0
M  V30 1578 H 148.478 2.61992 -5.09934 0
M  V30 1579 H 146.875 2.04424 -5.64208 0
M  V30 1580 H 147.945 0.942465 -4.75653 0
M  V30 1581 N 149.288 1.51039 0.449983 0
M  V30 1582 C 150.565 1.53612 1.21089 0
M  V30 1583 C 150.945 0.292997 2.09057 0
M  V30 1584 O 150.293 -0.72259 2.16774 0
M  V30 1585 C 150.503 2.84337 2.0237 0
M  V30 1586 C 151.851 3.35807 2.59843 0
M  V30 1587 O 152.875 2.85802 2.12593 0
M  V30 1588 O 151.734 4.23029 3.45989 0
M  V30 1589 H 148.828 0.617057 0.550608 0
M  V30 1590 H 151.374 1.63344 0.460082 0
M  V30 1591 H 150.146 3.66278 1.37681 0
M  V30 1592 H 149.769 2.77708 2.84542 0
M  V30 1593 N 150.766 -0.704594 1.40972 0
M  V30 1594 C 152.015 -1.46018 1.39146 0
M  V30 1595 C 152.328 -1.956 0.000589254 0
M  V30 1596 O 153.534 -2.71137 -0.1403 0
M  V30 1597 C 151.99 -2.63996 2.4461 0
M  V30 1598 C 151.598 -2.21238 3.89561 0
M  V30 1599 C 153.342 -3.41677 2.51907 0
M  V30 1600 C 151.249 -3.3612 4.86598 0
M  V30 1601 H 150.179 -0.548444 0.517422 0
M  V30 1602 H 152.83 -0.765784 1.66757 0
M  V30 1603 H 151.212 -3.3566 2.10115 0
M  V30 1604 H 152.386 -1.56923 4.33257 0
M  V30 1605 H 150.701 -1.56574 3.85841 0
M  V30 1606 H 153.298 -4.27182 3.2159 0
M  V30 1607 H 153.641 -3.86247 1.55303 0
M  V30 1608 H 154.174 -2.77064 2.85448 0
M  V30 1609 H 150.913 -2.96572 5.84573 0
M  V30 1610 H 150.433 -3.99315 4.47557 0
M  V30 1611 H 152.112 -4.02029 5.06934 0
M  V30 1612 N 152.244 -1.26651 -0.937939 0
M  V30 1613 C 153.493 -1.11775 -1.67897 0
M  V30 1614 C 153.806 0.33794 -1.92659 0
M  V30 1615 O 155.012 0.607434 -2.64618 0
M  V30 1616 C 153.468 -1.9523 -3.02346 0
M  V30 1617 C 153.076 -3.45393 -2.8532 0
M  V30 1618 C 154.82 -1.88972 -3.80118 0
M  V30 1619 C 152.727 -4.21083 -4.15263 0
M  V30 1620 H 151.657 -0.414696 -0.629717 0
M  V30 1621 H 154.308 -1.50988 -1.04283 0
M  V30 1622 H 152.69 -1.48853 -3.66959 0
M  V30 1623 H 153.864 -3.99561 -2.29537 0
M  V30 1624 H 152.179 -3.52921 -2.20988 0
M  V30 1625 H 154.776 -2.42805 -4.76392 0
M  V30 1626 H 155.119 -0.86113 -4.07296 0
M  V30 1627 H 155.652 -2.33189 -3.22285 0
M  V30 1628 H 152.391 -5.24425 -3.93267 0
M  V30 1629 H 151.911 -3.71695 -4.70747 0
M  V30 1630 H 153.59 -4.29706 -4.83696 0
M  V30 1631 N 153.722 1.14298 -1.08507 0
M  V30 1632 C 154.669 2.19414 -0.715965 0
M  V30 1633 C 155.639 1.63399 0.298326 0
M  V30 1634 O 156.824 1.89929 0.182101 0
M  V30 1635 C 153.964 3.44845 -0.132534 0
M  V30 1636 C 153.077 4.15007 -1.19973 0
M  V30 1637 C 152.212 5.28024 -0.580048 0
M  V30 1638 C 151.251 5.9002 -1.62921 0
M  V30 1639 N 150.388 6.94485 -1.03125 0
M  V30 1640 H 155.228 2.50336 -1.61666 0
M  V30 1641 H 152.765 1.2293 -0.807882 0
M  V30 1642 H 154.723 4.16601 0.223454 0
M  V30 1643 H 153.353 3.14403 0.731467 0
M  V30 1644 H 152.405 3.41629 -1.67313 0
M  V30 1645 H 153.717 4.57178 -1.99473 0
M  V30 1646 H 152.871 6.06455 -0.172364 0
M  V30 1647 H 151.61 4.87076 0.246603 0
M  V30 1648 H 150.615 5.10291 -2.04654 0
M  V30 1649 H 151.84 6.33042 -2.45835 0
M  V30 1650 H 149.786 6.55612 -0.225711 0
M  V30 1651 H 149.703 7.35148 -1.76334 0
M  V30 1652 H 150.971 7.7679 -0.649458 0
M  V30 1653 N 155.201 0.870884 1.31352 0
M  V30 1654 C 156.151 0.298889 2.26032 0
M  V30 1655 C 157.135 -0.564595 1.50669 0
M  V30 1656 O 158.327 -0.411323 1.72154 0
M  V30 1657 C 155.456 -0.497842 3.39671 0
M  V30 1658 C 154.542 0.378937 4.22404 0
M  V30 1659 N 154.933 1.47284 4.83881 0
M  V30 1660 C 153.231 0.171535 4.4567 0
M  V30 1661 C 153.932 2.01359 5.45738 0
M  V30 1662 N 152.908 1.31047 5.27568 0
M  V30 1663 H 156.71 1.13494 2.71102 0
M  V30 1664 H 154.224 0.718745 1.45629 0
M  V30 1665 H 156.221 -0.924155 4.06528 0
M  V30 1666 H 154.881 -1.33149 2.96144 0
M  V30 1667 H 155.892 1.85575 4.8351 0
M  V30 1668 H 152.569 -0.626091 4.12779 0
M  V30 1669 H 153.959 2.93143 6.0458 0
M  V30 1670 N 156.679 -1.44442 0.630414 0
M  V30 1671 C 157.928 -2.01267 0.132073 0
M  V30 1672 C 158.241 -1.50172 -1.25331 0
M  V30 1673 O 159.447 -1.9912 -1.84562 0
M  V30 1674 C 157.903 -3.59422 0.185362 0
M  V30 1675 C 157.511 -4.19514 1.57201 0
M  V30 1676 C 159.255 -4.23724 -0.256553 0
M  V30 1677 C 157.162 -5.69891 1.58045 0
M  V30 1678 H 156.092 -0.752619 0.0456092 0
M  V30 1679 H 158.743 -1.65666 0.789106 0
M  V30 1680 H 157.125 -3.92318 -0.538759 0
M  V30 1681 H 158.299 -3.98156 2.31966 0
M  V30 1682 H 156.614 -3.67496 1.95795 0
M  V30 1683 H 159.211 -5.34019 -0.269767 0
M  V30 1684 H 159.554 -3.96013 -1.28372 0
M  V30 1685 H 160.087 -3.95629 0.41505 0
M  V30 1686 H 156.826 -6.02336 2.58597 0
M  V30 1687 H 156.346 -5.93373 0.875725 0
M  V30 1688 H 158.025 -6.33515 1.31408 0
M  V30 1689 N 158.157 -0.370918 -1.53173 0
M  V30 1690 C 159.403 0.217423 -2.01631 0
M  V30 1691 C 159.736 1.47983 -1.25756 0
M  V30 1692 O 159.011 1.91274 -0.352764 0
M  V30 1693 C 159.294 0.503982 -3.56556 0
M  V30 1694 C 159.147 -0.77243 -4.43118 0
M  V30 1695 C 160.466 1.30234 -4.20389 0
M  V30 1696 H 157.585 0.0775486 -0.732909 0
M  V30 1697 H 160.227 -0.496863 -1.83388 0
M  V30 1698 H 158.377 1.11248 -3.72231 0
M  V30 1699 H 160.049 -1.4098 -4.39229 0
M  V30 1700 H 158.292 -1.39167 -4.10871 0
M  V30 1701 H 158.963 -0.526815 -5.4948 0
M  V30 1702 H 161.439 0.787546 -4.08579 0
M  V30 1703 H 160.315 1.47158 -5.28806 0
M  V30 1704 H 160.576 2.31237 -3.76805 0
M  V30 1705 N 159.635 1.57281 -0.100228 0
M  V30 1706 C 160.598 2.13158 0.842398 0
M  V30 1707 C 161.598 1.06202 1.20738 0
M  V30 1708 O 162.788 1.32066 1.13597 0
M  V30 1709 C 159.92 2.65639 2.13655 0
M  V30 1710 H 161.113 2.97766 0.357114 0
M  V30 1711 H 158.666 1.5559 0.148823 0
M  V30 1712 H 159.401 1.84566 2.66657 0
M  V30 1713 H 159.186 3.43844 1.88451 0
M  V30 1714 H 160.676 3.08846 2.81077 0
M  V30 1715 N 161.113 -0.173488 1.56642 0
M  V30 1716 C 162.06 -1.21482 1.96242 0
M  V30 1717 C 163.03 -1.44104 0.826027 0
M  V30 1718 O 164.215 -1.5688 1.08597 0
M  V30 1719 C 161.355 -2.54964 2.32567 0
M  V30 1720 C 160.468 -2.39739 3.59373 0
M  V30 1721 C 159.603 -3.66072 3.84921 0
M  V30 1722 C 158.642 -3.45771 5.05083 0
M  V30 1723 N 157.779 -4.64169 5.26775 0
M  V30 1724 H 162.619 -0.870123 2.85014 0
M  V30 1725 H 160.156 -0.418245 1.41029 0
M  V30 1726 H 162.114 -3.32758 2.5165 0
M  V30 1727 H 160.744 -2.87433 1.46908 0
M  V30 1728 H 159.796 -1.53131 3.48217 0
M  V30 1729 H 161.108 -2.20683 4.47326 0
M  V30 1730 H 160.262 -4.52303 4.0436 0
M  V30 1731 H 159.001 -3.88105 2.9534 0
M  V30 1732 H 158.006 -2.57927 4.85545 0
M  V30 1733 H 159.231 -3.25163 5.96193 0
M  V30 1734 H 157.177 -4.86425 4.40144 0
M  V30 1735 H 157.094 -4.48019 6.08946 0
M  V30 1736 H 158.362 -5.51689 5.5069 0
M  V30 1737 N 162.591 -1.51276 -0.441967 0
M  V30 1738 C 163.839 -1.63392 -1.18943 0
M  V30 1739 C 164.16 -0.350159 -1.9183 0
M  V30 1740 O 163.43 0.633784 -1.85364 0
M  V30 1741 H 162.01 -0.602164 -0.442049 0
M  V30 1742 H 164.672 -1.88186 -0.507165 0
M  V30 1743 H 163.768 -2.45934 -1.92154 0
M  V30 1744 N 164.069 0.697108 -1.41344 0
M  V30 1745 C 164.979 1.84088 -1.45427 0
M  V30 1746 C 165.995 1.70545 -0.34501 0
M  V30 1747 O 167.171 1.92488 -0.592492 0
M  V30 1748 C 164.236 3.20056 -1.33286 0
M  V30 1749 C 163.297 3.45718 -2.54514 0
M  V30 1750 C 162.53 4.75199 -2.42944 0
M  V30 1751 O 162.753 5.51579 -1.45318 0
M  V30 1752 O 161.687 5.0161 -3.32672 0
M  V30 1753 H 165.513 1.836 -2.41919 0
M  V30 1754 H 163.098 0.849966 -1.22866 0
M  V30 1755 H 164.98 4.01236 -1.28794 0
M  V30 1756 H 163.655 3.2123 -0.39909 0
M  V30 1757 H 162.562 2.64474 -2.64583 0
M  V30 1758 H 163.895 3.49356 -3.46715 0
M  V30 1759 N 165.547 1.27147 0.931209 0
M  V30 1760 C 166.497 1.06227 2.01742 0
M  V30 1761 C 167.481 -0.00859065 1.60898 0
M  V30 1762 O 168.673 0.209537 1.75755 0
M  V30 1763 C 165.802 0.707787 3.35924 0
M  V30 1764 C 164.888 1.81661 3.83223 0
M  V30 1765 N 165.279 3.05564 4.03069 0
M  V30 1766 C 163.577 1.70249 4.12227 0
M  V30 1767 C 164.278 3.77697 4.42403 0
M  V30 1768 N 163.254 3.0544 4.49675 0
M  V30 1769 H 167.056 2.00261 2.15111 0
M  V30 1770 H 164.57 1.1781 1.11779 0
M  V30 1771 H 166.567 0.539043 4.134 0
M  V30 1772 H 165.227 -0.224964 3.2392 0
M  V30 1773 H 166.238 3.41363 3.89476 0
M  V30 1774 H 162.915 0.840329 4.08956 0
M  V30 1775 H 164.305 4.84168 4.65866 0
M  V30 1776 N 167.025 -1.13721 1.09112 0
M  V30 1777 C 167.972 -2.19031 0.727591 0
M  V30 1778 C 168.942 -1.63555 -0.289656 0
M  V30 1779 O 170.127 -1.90023 -0.172026 0
M  V30 1780 C 167.267 -3.4477 0.15082 0
M  V30 1781 C 166.38 -4.14365 1.22172 0
M  V30 1782 C 165.515 -5.27709 0.608042 0
M  V30 1783 C 164.554 -5.89147 1.66047 0
M  V30 1784 N 163.691 -6.93929 1.06806 0
M  V30 1785 H 168.531 -2.49475 1.62991 0
M  V30 1786 H 166.068 -1.22499 0.81439 0
M  V30 1787 H 168.026 -4.16714 -0.201358 0
M  V30 1788 H 166.656 -3.14787 -0.714783 0
M  V30 1789 H 165.708 -3.40737 1.69122 0
M  V30 1790 H 167.02 -4.56114 2.01895 0
M  V30 1791 H 166.174 -6.06355 0.204523 0
M  V30 1792 H 164.913 -4.872 -0.220769 0
M  V30 1793 H 163.918 -5.09198 2.07357 0
M  V30 1794 H 165.143 -6.31729 2.49189 0
M  V30 1795 H 163.089 -6.55483 0.260476 0
M  V30 1796 H 163.006 -7.34202 1.8023 0
M  V30 1797 H 164.274 -7.76434 0.690644 0
M  V30 1798 N 168.503 -0.877838 -1.30888 0
M  V30 1799 C 169.728 -0.506629 -2.01117 0
M  V30 1800 C 170.153 0.895564 -1.65412 0
M  V30 1801 O 169.511 1.5923 -0.866922 0
M  V30 1802 C 169.559 -0.680223 -3.54126 0
M  V30 1803 O 168.663 0.277033 -4.11468 0
M  V30 1804 H 168.004 -0.200518 -0.633 0
M  V30 1805 H 170.534 -1.18342 -1.66902 0
M  V30 1806 H 170.544 -0.5765 -4.03907 0
M  V30 1807 H 169.219 -1.70261 -3.79452 0
M  V30 1808 H 167.796 0.127606 -3.72682 0
M  V30 1809 N 169.982 1.44106 -0.638065 0
M  V30 1810 C 171.23 2.01579 -0.145043 0
M  V30 1811 C 171.551 1.50496 1.24 0
M  V30 1812 O 170.821 0.711374 1.82527 0
M  V30 1813 H 169.401 0.745282 -0.05063 0
M  V30 1814 H 172.063 1.76516 -0.826327 0
M  V30 1815 H 171.159 3.11877 -0.118039 0
M  V30 1816 N 171.46 0.379036 1.52974 0
M  V30 1817 C 172.706 -0.206727 2.01744 0
M  V30 1818 C 173.039 -1.47314 1.26539 0
M  V30 1819 O 172.314 -1.91084 0.362903 0
M  V30 1820 C 172.597 -0.485066 3.56818 0
M  V30 1821 C 172.45 0.795919 4.42702 0
M  V30 1822 C 173.769 -1.28003 4.21074 0
M  V30 1823 H 170.888 -0.0736607 0.73331 0
M  V30 1824 H 173.53 0.506581 1.83122 0
M  V30 1825 H 171.68 -1.09272 3.72816 0
M  V30 1826 H 173.352 1.43307 4.38476 0
M  V30 1827 H 171.595 1.41344 4.10127 0
M  V30 1828 H 172.266 0.555947 5.49193 0
M  V30 1829 H 174.742 -0.765867 4.08991 0
M  V30 1830 H 173.618 -1.44352 5.29579 0
M  V30 1831 H 173.879 -2.29236 3.78026 0
M  V30 1832 N 172.938 -1.57226 0.108567 0
M  V30 1833 C 173.868 -2.17778 -0.84232 0
M  V30 1834 C 174.849 -1.11487 -1.2847 0
M  V30 1835 O 176.034 -1.39681 -1.34918 0
M  V30 1836 C 173.164 -2.76888 -2.09644 0
M  V30 1837 C 172.118 -3.88669 -1.79221 0
M  V30 1838 C 171.444 -4.34541 -3.11574 0
M  V30 1839 C 172.744 -5.11251 -1.06864 0
M  V30 1840 H 174.438 -2.97489 -0.337774 0
M  V30 1841 H 171.984 -1.43097 -0.161025 0
M  V30 1842 H 173.937 -3.17904 -2.76614 0
M  V30 1843 H 172.661 -1.94451 -2.62405 0
M  V30 1844 H 171.32 -3.48213 -1.14644 0
M  V30 1845 H 170.968 -3.48977 -3.62249 0
M  V30 1846 H 170.668 -5.09914 -2.91996 0
M  V30 1847 H 172.192 -4.782 -3.7968 0
M  V30 1848 H 173.606 -5.49352 -1.63968 0
M  V30 1849 H 172.003 -5.9214 -0.974178 0
M  V30 1850 H 173.073 -4.8487 -0.0536168 0
M  V30 1851 N 174.416 0.165178 -1.56732 0
M  V30 1852 C 175.693 0.908443 -1.73224 0
M  V30 1853 C 176.073 2.0013 -0.67165 0
M  V30 1854 O 175.421 2.26353 0.31253 0
M  V30 1855 C 175.631 1.46756 -3.16644 0
M  V30 1856 C 176.979 1.93809 -3.77787 0
M  V30 1857 O 178.003 1.56537 -3.1996 0
M  V30 1858 O 176.862 2.62486 -4.79336 0
M  V30 1859 H 173.956 0.428025 -0.707618 0
M  V30 1860 H 176.502 0.152526 -1.69013 0
M  V30 1861 H 175.274 0.68129 -3.85323 0
M  V30 1862 H 174.897 2.28749 -3.25207 0
M  V30 1863 N 175.894 1.51508 0.433938 0
M  V30 1864 C 176.804 1.75917 1.5521 0
M  V30 1865 C 177.82 0.643545 1.61662 0
M  V30 1866 O 178.996 0.926183 1.7884 0
M  V30 1867 C 176.061 1.88213 2.91164 0
M  V30 1868 C 175.122 3.12074 2.94802 0
M  V30 1869 C 174.355 3.23774 4.24271 0
M  V30 1870 O 174.578 2.4133 5.16833 0
M  V30 1871 O 173.512 4.16774 4.34262 0
M  V30 1872 H 177.338 2.70777 1.37527 0
M  V30 1873 H 174.923 1.36051 0.617293 0
M  V30 1874 H 176.805 1.98267 3.71845 0
M  V30 1875 H 175.48 0.965413 3.08968 0
M  V30 1876 H 174.387 3.07497 2.13065 0
M  V30 1877 H 175.72 4.03446 2.81943 0
M  V30 1878 N 177.372 -0.689602 1.41712 0
M  V30 1879 C 178.597 -1.48329 1.44959 0
M  V30 1880 C 179.022 -1.8801 0.0581283 0
M  V30 1881 O 178.38 -1.55026 -0.940035 0
M  V30 1882 C 178.428 -2.71835 2.36935 0
M  V30 1883 O 177.532 -3.69549 1.8305 0
M  V30 1884 H 176.873 -0.446199 0.491734 0
M  V30 1885 H 179.403 -0.847127 1.86239 0
M  V30 1886 H 179.413 -3.20076 2.53013 0
M  V30 1887 H 178.088 -2.42291 3.38035 0
M  V30 1888 H 176.665 -3.2851 1.76452 0
M  V30 1889 N 178.85 -1.27639 -0.924453 0
M  V30 1890 C 180.078 -1.16989 -1.70649 0
M  V30 1891 C 180.493 0.272869 -1.86818 0
M  V30 1892 O 179.85 1.18549 -1.38753 0
M  V30 1893 C 179.901 -1.85229 -3.10439 0
M  V30 1894 O 179.622 -3.23868 -2.95028 0
M  V30 1895 C 181.123 -1.80746 -4.04779 0
M  V30 1896 H 178.343 -0.406595 -0.53378 0
M  V30 1897 H 180.887 -1.68569 -1.15778 0
M  V30 1898 H 179.042 -1.37545 -3.6216 0
M  V30 1899 H 179.456 -3.57889 -3.83426 0
M  V30 1900 H 180.93 -2.33101 -5.00368 0
M  V30 1901 H 181.407 -0.777499 -4.32263 0
M  V30 1902 H 182.013 -2.28059 -3.58984 0
M  V30 1903 N 180.328 1.1314 -1.09713 0
M  V30 1904 C 181.577 1.83838 -0.829851 0
M  V30 1905 C 181.89 1.84599 0.646728 0
M  V30 1906 O 183.096 2.51218 1.02965 0
M  V30 1907 C 181.552 3.30069 -1.43466 0
M  V30 1908 C 181.16 3.37688 -2.94399 0
M  V30 1909 C 182.904 4.05788 -1.24645 0
M  V30 1910 C 180.811 4.78209 -3.47952 0
M  V30 1911 H 179.741 0.68877 -0.306777 0
M  V30 1912 H 182.392 1.27448 -1.3202 0
M  V30 1913 H 180.774 3.8628 -0.871996 0
M  V30 1914 H 181.948 2.91456 -3.56918 0
M  V30 1915 H 180.263 2.75436 -3.12289 0
M  V30 1916 H 182.86 5.09535 -1.62107 0
M  V30 1917 H 183.203 4.15878 -0.187357 0
M  V30 1918 H 183.736 3.55915 -1.77678 0
M  V30 1919 H 180.475 4.73311 -4.53495 0
M  V30 1920 H 179.995 5.24924 -2.90198 0
M  V30 1921 H 181.674 5.47133 -3.45332 0
M  V30 1922 N 181.806 0.884767 1.30421 0
M  V30 1923 C 182.769 0.356277 2.26414 0
M  V30 1924 C 183.769 -0.501124 1.52792 0
M  V30 1925 O 184.959 -0.30831 1.7145 0
M  V30 1926 C 182.091 -0.492316 3.37326 0
M  V30 1927 H 183.284 1.20389 2.74675 0
M  V30 1928 H 180.837 0.661607 1.41607 0
M  V30 1929 H 181.572 -1.36052 2.94381 0
M  V30 1930 H 181.357 0.121832 3.91911 0
M  V30 1931 H 182.847 -0.853871 4.08777 0
M  V30 1932 N 183.284 -1.43765 0.645699 0
M  V30 1933 C 184.512 -2.06253 0.163556 0
M  V30 1934 C 184.927 -1.48352 -1.16778 0
M  V30 1935 O 184.284 -0.611932 -1.71935 0
M  V30 1936 C 184.335 -3.61453 0.0583186 0
M  V30 1937 O 184.056 -4.172 1.33702 0
M  V30 1938 C 185.557 -4.41002 -0.450795 0
M  V30 1939 H 182.777 -0.665413 0.0864077 0
M  V30 1940 H 185.321 -1.84396 0.884222 0
M  V30 1941 H 183.476 -3.82522 -0.612865 0
M  V30 1942 H 183.89 -5.10791 1.19131 0
M  V30 1943 H 185.364 -5.49966 -0.473403 0
M  V30 1944 H 185.841 -4.13488 -1.48068 0
M  V30 1945 H 186.447 -4.24886 0.187637 0
M  V30 1946 N 184.763 -0.387143 -1.52771 0
M  V30 1947 C 186.012 0.19697 -2.00736 0
M  V30 1948 C 186.325 1.48082 -1.27793 0
M  V30 1949 O 187.531 2.14485 -1.66458 0
M  V30 1950 C 185.987 0.401568 -3.57653 0
M  V30 1951 C 185.595 -0.868907 -4.39493 0
M  V30 1952 C 187.339 0.942164 -4.13912 0
M  V30 1953 C 185.246 -0.632705 -5.88006 0
M  V30 1954 H 184.176 0.0773827 -0.750019 0
M  V30 1955 H 186.827 -0.50921 -1.76293 0
M  V30 1956 H 185.209 1.16954 -3.78335 0
M  V30 1957 H 186.383 -1.64133 -4.30577 0
M  V30 1958 H 184.698 -1.33429 -3.94443 0
M  V30 1959 H 187.295 1.13455 -5.22525 0
M  V30 1960 H 187.638 1.9106 -3.69867 0
M  V30 1961 H 188.171 0.233814 -3.97112 0
M  V30 1962 H 184.91 -1.57208 -6.36369 0
M  V30 1963 H 184.43 0.100825 -5.99715 0
M  V30 1964 H 186.109 -0.26642 -6.46451 0
M  V30 1965 N 186.241 1.57166 -0.116904 0
M  V30 1966 C 187.171 2.18222 0.830759 0
M  V30 1967 C 188.152 1.12167 1.27877 0
M  V30 1968 O 189.337 1.40394 1.34176 0
M  V30 1969 C 186.467 2.77996 2.08172 0
M  V30 1970 C 185.421 3.89614 1.77157 0
M  V30 1971 C 184.747 4.36187 3.09265 0
M  V30 1972 C 186.047 5.1181 1.04151 0
M  V30 1973 H 187.741 2.97664 0.321992 0
M  V30 1974 H 185.287 1.4318 0.153434 0
M  V30 1975 H 187.24 3.19366 2.74924 0
M  V30 1976 H 185.964 1.9584 2.6137 0
M  V30 1977 H 184.623 3.48816 1.12796 0
M  V30 1978 H 184.271 3.50893 3.60393 0
M  V30 1979 H 183.971 5.11455 2.89288 0
M  V30 1980 H 185.495 4.80207 3.77139 0
M  V30 1981 H 186.909 5.50214 1.61052 0
M  V30 1982 H 185.306 5.92648 0.942762 0
M  V30 1983 H 186.376 4.84892 0.0279022 0
M  V30 1984 N 187.719 -0.156864 1.56817 0
M  V30 1985 C 189.135 -0.50916 1.5126 0
M  V30 1986 C 189.335 -1.83897 0.823658 0
M  V30 1987 O 188.391 -2.49469 0.390055 0
M  V30 1988 C 189.704 -0.52857 2.96018 0
M  V30 1989 C 191.252 -0.614771 3.06903 0
M  V30 1990 C 191.727 -0.664938 4.53147 0
M  V30 1991 N 193.218 -0.727433 4.57452 0
M  V30 1992 C 193.953 -0.787067 5.67973 0
M  V30 1993 N 193.449 -0.806649 6.88088 0
M  V30 1994 N 195.242 -0.827195 5.5598 0
M  V30 1995 H 187.393 0.714935 2.00006 0
M  V30 1996 H 189.656 0.259526 0.911784 0
M  V30 1997 H 189.362 0.380154 3.49639 0
M  V30 1998 H 189.236 -1.36998 3.51442 0
M  V30 1999 H 191.623 -1.51392 2.53307 0
M  V30 2000 H 191.704 0.253597 2.5454 0
M  V30 2001 H 191.348 0.230011 5.07379 0
M  V30 2002 H 191.278 -1.54966 5.03282 0
M  V30 2003 H 193.769 -0.719998 3.70978 0
M  V30 2004 H 194.082 -0.853727 7.6807 0
M  V30 2005 H 192.427 -0.774687 6.90669 0
M  V30 2006 H 195.618 -0.808998 4.61056 0
M  V30 2007 H 195.791 -0.870206 6.4213 0
M  V30 2008 N 189.197 -1.51736 -0.425897 0
M  V30 2009 C 190.107 -1.76738 -1.54275 0
M  V30 2010 C 191.123 -0.65211 -1.61318 0
M  V30 2011 O 192.299 -0.935654 -1.78346 0
M  V30 2012 C 189.364 -1.89755 -2.90162 0
M  V30 2013 C 188.425 -3.13633 -2.93143 0
M  V30 2014 C 187.658 -3.2602 -4.22548 0
M  V30 2015 O 187.881 -2.44067 -5.15546 0
M  V30 2016 O 186.815 -4.19071 -4.32046 0
M  V30 2017 H 190.641 -2.71502 -1.36089 0
M  V30 2018 H 188.226 -1.36376 -0.610069 0
M  V30 2019 H 190.108 -2.00236 -3.70788 0
M  V30 2020 H 188.783 -0.981785 -3.08452 0
M  V30 2021 H 187.69 -3.08622 -2.11431 0
M  V30 2022 H 189.023 -4.04936 -2.798 0
M  V30 2023 N 190.675 0.682077 -1.42076 0
M  V30 2024 C 191.921 1.44428 -1.42367 0
M  V30 2025 C 192.254 1.94164 -0.0373056 0
M  V30 2026 O 191.529 1.70429 0.937239 0
M  V30 2027 C 191.812 2.64654 -2.44194 0
M  V30 2028 C 191.665 2.20596 -3.91991 0
M  V30 2029 C 192.984 3.66865 -2.431 0
M  V30 2030 H 190.103 0.523834 -0.518428 0
M  V30 2031 H 192.745 0.77576 -1.73442 0
M  V30 2032 H 190.895 3.2169 -2.17826 0
M  V30 2033 H 192.567 1.68783 -4.29313 0
M  V30 2034 H 190.81 1.52242 -4.06208 0
M  V30 2035 H 191.481 3.06921 -4.58807 0
M  V30 2036 H 193.957 3.19531 -2.66532 0
M  V30 2037 H 192.833 4.48577 -3.16339 0
M  V30 2038 H 193.094 4.17493 -1.45437 0
M  V30 2039 N 192.153 1.28127 0.917671 0
M  V30 2040 C 193.083 1.14248 2.03641 0
M  V30 2041 C 194.064 0.0412748 1.7005 0
M  V30 2042 O 195.249 0.217566 1.92977 0
M  V30 2043 C 192.379 0.799431 3.37974 0
M  V30 2044 C 191.333 1.85497 3.85713 0
M  V30 2045 C 190.659 1.36565 5.16966 0
M  V30 2046 C 191.959 3.26085 4.08002 0
M  V30 2047 H 193.653 2.07835 2.15511 0
M  V30 2048 H 191.199 1.00064 1.03553 0
M  V30 2049 H 193.152 0.689114 4.15727 0
M  V30 2050 H 191.876 -0.172145 3.26146 0
M  V30 2051 H 190.535 1.95437 3.10161 0
M  V30 2052 H 190.183 0.383253 5.01538 0
M  V30 2053 H 189.883 2.07143 5.49878 0
M  V30 2054 H 191.407 1.26848 5.97279 0
M  V30 2055 H 192.821 3.19089 4.76293 0
M  V30 2056 H 191.218 3.94462 4.52238 0
M  V30 2057 H 192.288 3.70394 3.12948 0
M  V30 2058 N 193.631 -1.12557 1.10312 0
M  V30 2059 C 194.541 -2.21841 0.763142 0
M  V30 2060 C 195.557 -1.72354 -0.238801 0
M  V30 2061 O 196.733 -2.01249 -0.0778746 0
M  V30 2062 C 193.798 -3.46131 0.198632 0
M  V30 2063 C 192.859 -4.10464 1.25769 0
M  V30 2064 C 192.092 -5.28821 0.72002 0
M  V30 2065 O 192.315 -5.6859 -0.453993 0
M  V30 2066 O 191.249 -5.83437 1.47935 0
M  V30 2067 H 195.075 -2.53312 1.67532 0
M  V30 2068 H 192.66 -1.20867 0.878157 0
M  V30 2069 H 194.542 -4.2125 -0.112401 0
M  V30 2070 H 193.217 -3.16338 -0.686419 0
M  V30 2071 H 192.124 -3.3713 1.62156 0
M  V30 2072 H 193.457 -4.44408 2.11571 0
M  V30 2073 N 195.109 -0.891671 -1.2995 0
M  V30 2074 C 196.357 -0.512486 -1.95494 0
M  V30 2075 C 196.678 0.942776 -1.70695 0
M  V30 2076 O 195.948 1.66374 -1.03424 0
M  V30 2077 H 194.528 -0.186533 -0.723336 0
M  V30 2078 H 197.19 -1.13621 -1.58355 0
M  V30 2079 H 196.286 -0.688342 -3.04415 0
M  V30 2080 N 196.587 1.43421 -0.653314 0
M  V30 2081 C 197.517 2.33487 0.0246656 0
M  V30 2082 C 198.498 1.49475 0.811863 0
M  V30 2083 O 199.683 1.78139 0.773322 0
M  V30 2084 C 196.813 3.32841 0.99166 0
M  V30 2085 C 195.767 4.26842 0.314568 0
M  V30 2086 C 195.093 5.16236 1.39302 0
M  V30 2087 C 196.393 5.16243 -0.793095 0
M  V30 2088 H 198.087 2.90427 -0.727481 0
M  V30 2089 H 195.633 1.39649 -0.351287 0
M  V30 2090 H 197.586 3.94747 1.47487 0
M  V30 2091 H 196.31 2.74158 1.77497 0
M  V30 2092 H 194.969 3.663 -0.148199 0
M  V30 2093 H 194.617 4.53891 2.16776 0
M  V30 2094 H 194.317 5.79948 0.945223 0
M  V30 2095 H 195.841 5.81015 1.87759 0
M  V30 2096 H 197.255 5.71958 -0.392039 0
M  V30 2097 H 195.652 5.88676 -1.16536 0
M  V30 2098 H 196.722 4.55927 -1.65103 0
M  V30 2099 N 198.065 0.39524 1.52563 0
M  V30 2100 C 198.975 -0.444232 2.30356 0
M  V30 2101 C 199.991 -1.06615 1.37511 0
M  V30 2102 O 201.167 -1.07067 1.70583 0
M  V30 2103 C 198.232 -1.55315 3.09964 0
M  V30 2104 C 197.293 -0.955734 4.18526 0
M  V30 2105 C 196.526 -2.01181 4.9433 0
M  V30 2106 O 196.749 -3.22781 4.70285 0
M  V30 2107 O 195.683 -1.62579 5.79527 0
M  V30 2108 H 199.509 0.189667 3.03107 0
M  V30 2109 H 197.094 0.1588 1.48554 0
M  V30 2110 H 198.976 -2.19724 3.59582 0
M  V30 2111 H 197.651 -2.17191 2.4002 0
M  V30 2112 H 196.558 -0.274743 3.7309 0
M  V30 2113 H 197.891 -0.381109 4.90722 0
M  V30 2114 N 199.544 -1.57102 0.125237 0
M  V30 2115 C 200.774 -1.99472 -0.538015 0
M  V30 2116 C 201.182 -1.00395 -1.60366 0
M  V30 2117 O 200.525 0.0103875 -1.83697 0
M  V30 2118 C 200.587 -3.38262 -1.21734 0
M  V30 2119 C 200.251 -4.56021 -0.298897 0
M  V30 2120 C 201.248 -5.17817 0.464943 0
M  V30 2121 C 198.933 -5.01869 -0.208149 0
M  V30 2122 C 200.927 -6.23852 1.3072 0
M  V30 2123 C 198.614 -6.07763 0.637736 0
M  V30 2124 C 199.612 -6.68622 1.39403 0
M  V30 2125 O 199.3 -7.7247 2.22586 0
M  V30 2126 H 199.032 -0.659934 -0.146501 0
M  V30 2127 H 201.586 -2.04321 0.210267 0
M  V30 2128 H 199.816 -3.30185 -2.01282 0
M  V30 2129 H 201.505 -3.6488 -1.77813 0
M  V30 2130 H 202.271 -4.83308 0.404741 0
M  V30 2131 H 198.15 -4.54241 -0.786522 0
M  V30 2132 H 201.694 -6.71284 1.898 0
M  V30 2133 H 197.591 -6.41701 0.699309 0
M  V30 2134 H 198.359 -7.89595 2.15596 0
M  V30 2135 N 201.022 0.148545 -1.56898 0
M  V30 2136 C 201.952 1.18524 -2.01182 0
M  V30 2137 C 202.933 1.4489 -0.891123 0
M  V30 2138 O 204.118 1.55836 -1.15882 0
M  V30 2139 C 201.248 2.51879 -2.39112 0
M  V30 2140 C 200.202 2.40038 -3.54353 0
M  V30 2141 C 199.528 3.78089 -3.78091 0
M  V30 2142 C 200.828 1.88577 -4.87069 0
M  V30 2143 H 202.522 0.817029 -2.88036 0
M  V30 2144 H 200.068 0.391575 -1.38574 0
M  V30 2145 H 202.021 3.24627 -2.68692 0
M  V30 2146 H 200.745 2.90532 -1.49193 0
M  V30 2147 H 199.404 1.69742 -3.24936 0
M  V30 2148 H 199.052 4.14175 -2.85426 0
M  V30 2149 H 198.752 3.71028 -4.55645 0
M  V30 2150 H 200.276 4.52387 -4.10095 0
M  V30 2151 H 201.69 2.51117 -5.15377 0
M  V30 2152 H 200.087 1.9241 -5.68417 0
M  V30 2153 H 201.157 0.84136 -4.77545 0
M  V30 2154 N 202.5 1.5196 0.417844 0
M  V30 2155 C 203.45 1.7106 1.5074 0
M  V30 2156 C 204.434 0.564487 1.50673 0
M  V30 2157 O 205.626 0.821206 1.56797 0
M  V30 2158 C 202.755 1.85677 2.88754 0
M  V30 2159 C 201.841 3.06133 2.93502 0
M  V30 2160 N 202.232 4.28987 2.67962 0
M  V30 2161 C 200.53 3.05787 3.24669 0
M  V30 2162 C 201.231 5.10395 2.79055 0
M  V30 2163 N 200.207 4.45455 3.11561 0
M  V30 2164 H 204.009 2.63696 1.29775 0
M  V30 2165 H 201.523 1.49873 0.625436 0
M  V30 2166 H 203.52 1.97475 3.67164 0
M  V30 2167 H 202.18 0.942348 3.10725 0
M  V30 2168 H 203.191 4.57607 2.4252 0
M  V30 2169 H 199.868 2.2405 3.52289 0
M  V30 2170 H 201.258 6.18247 2.63097 0
M  V30 2171 N 203.978 -0.674533 1.42435 0
M  V30 2172 C 204.925 -1.78807 1.45934 0
M  V30 2173 C 205.895 -1.63157 0.311271 0
M  V30 2174 O 207.08 -1.83707 0.515383 0
M  V30 2175 C 204.22 -3.16839 1.36773 0
M  V30 2176 C 203.333 -3.43774 2.61617 0
M  V30 2177 C 202.468 -4.71536 2.44597 0
M  V30 2178 C 201.507 -4.91505 3.64814 0
M  V30 2179 N 200.644 -6.10508 3.46734 0
M  V30 2180 H 205.484 -1.75151 2.41093 0
M  V30 2181 H 203.021 -0.85504 1.19697 0
M  V30 2182 H 204.979 -3.96606 1.29459 0
M  V30 2183 H 203.609 -3.19619 0.452089 0
M  V30 2184 H 202.661 -2.58259 2.79297 0
M  V30 2185 H 203.973 -3.54423 3.50978 0
M  V30 2186 H 203.127 -5.59393 2.3487 0
M  V30 2187 H 201.866 -4.6317 1.52726 0
M  V30 2188 H 200.871 -4.0209 3.74972 0
M  V30 2189 H 202.096 -5.01716 4.57665 0
M  V30 2190 H 200.042 -6.03315 2.5758 0
M  V30 2191 H 199.959 -6.2202 4.29682 0
M  V30 2192 H 201.227 -7.01044 3.40819 0
M  V30 2193 N 205.456 -1.28612 -0.910864 0
M  V30 2194 C 206.404 -1.1265 -2.03501 0
M  V30 2195 C 207.398 -0.0450054 -1.6934 0
M  V30 2196 O 208.604 -0.203988 -1.7884 0
M  V30 2197 H 204.979 -0.347639 -0.666822 0
M  V30 2198 H 206.95 -2.07849 -2.14106 0
M  V30 2199 C 205.699 -0.808143 -3.38178 0
M  V30 2200 H 205.022 -1.63231 -3.6496 0
M  V30 2201 H 206.462 -0.736426 -4.17556 0
M  V30 2202 C 204.921 0.488226 -3.33344 0
M  V30 2203 O 205.451 1.51766 -3.71927 0
M  V30 2204 N 203.657 0.490009 -2.86439 0
M  V30 2205 H 203.204 -0.348161 -2.55236 0
M  V30 2206 H 203.162 1.35741 -2.83587 0
M  V30 2207 N 206.934 1.1197 -1.10907 0
M  V30 2208 C 208.182 1.83225 -0.852819 0
M  V30 2209 C 208.503 1.84769 0.623341 0
M  V30 2210 O 207.773 1.3143 1.45269 0
M  V30 2211 H 206.353 0.67849 -0.312507 0
M  V30 2212 H 209.015 1.3556 -1.40033 0
M  V30 2213 H 208.111 2.87265 -1.22005 0
M  V30 2214 N 208.412 0.89855 1.29475 0
M  V30 2215 C 209.344 0.332726 2.26772 0
M  V30 2216 C 210.357 -0.520323 1.54261 0
M  V30 2217 O 211.546 -0.337668 1.75277 0
M  V30 2218 C 208.646 -0.544334 3.345 0
M  V30 2219 C 207.819 0.282728 4.36485 0
M  V30 2220 C 206.878 -0.526982 5.23555 0
M  V30 2221 O 205.904 0.0551165 5.69173 0
M  V30 2222 N 207.106 -1.83331 5.5079 0
M  V30 2223 H 209.871 1.16897 2.75962 0
M  V30 2224 H 207.432 0.762919 1.42798 0
M  V30 2225 H 209.424 -1.09239 3.89678 0
M  V30 2226 H 207.994 -1.28127 2.85136 0
M  V30 2227 H 207.214 1.01221 3.80983 0
M  V30 2228 H 208.502 0.84918 5.01664 0
M  V30 2229 H 207.9 -2.32898 5.15534 0
M  V30 2230 H 206.457 -2.32852 6.08788 0
M  V30 2231 N 209.89 -1.43072 0.660911 0
M  V30 2232 C 211.139 -2.00942 0.174735 0
M  V30 2233 C 211.452 -1.52797 -1.22117 0
M  V30 2234 O 212.658 -2.02991 -1.80297 0
M  V30 2235 C 211.114 -3.58948 0.261559 0
M  V30 2236 C 210.722 -4.16085 1.66064 0
M  V30 2237 C 212.466 -4.24173 -0.166617 0
M  V30 2238 C 210.373 -5.6641 1.70098 0
M  V30 2239 H 209.303 -0.751483 0.0615631 0
M  V30 2240 H 211.954 -1.63955 0.824069 0
M  V30 2241 H 210.336 -3.93372 -0.455421 0
M  V30 2242 H 211.51 -3.93147 2.40359 0
M  V30 2243 H 209.825 -3.6326 2.03546 0
M  V30 2244 H 212.422 -5.34471 -0.156433 0
M  V30 2245 H 212.765 -3.98647 -1.19943 0
M  V30 2246 H 213.298 -3.94659 0.498875 0
M  V30 2247 H 210.037 -5.96715 2.71315 0
M  V30 2248 H 209.557 -5.91382 1.00139 0
M  V30 2249 H 211.236 -6.30585 1.44816 0
M  V30 2250 N 211.368 -0.403325 -1.52352 0
M  V30 2251 C 212.318 0.442244 -2.2367 0
M  V30 2252 C 213.302 1.01823 -1.24583 0
M  V30 2253 O 214.494 0.942005 -1.49851 0
M  V30 2254 C 211.623 1.5615 -3.05732 0
M  V30 2255 C 210.709 0.996575 -4.12225 0
M  V30 2256 N 211.1 0.157804 -5.05554 0
M  V30 2257 C 209.398 1.26767 -4.27605 0
M  V30 2258 C 210.099 -0.155853 -5.81491 0
M  V30 2259 N 209.075 0.451775 -5.41719 0
M  V30 2260 H 212.877 -0.204964 -2.93184 0
M  V30 2261 H 210.391 -0.213418 -1.60992 0
M  V30 2262 H 212.388 2.17981 -3.55373 0
M  V30 2263 H 211.048 2.21139 -2.37755 0
M  V30 2264 H 212.059 -0.206049 -5.1749 0
M  V30 2265 H 208.736 1.91757 -3.70858 0
M  V30 2266 H 210.126 -0.836329 -6.66675 0
M  V30 2267 N 212.846 1.57033 -0.133567 0
M  V30 2268 C 214.262 1.58035 0.222944 0
M  V30 2269 C 214.462 1.14713 1.6566 0
M  V30 2270 O 213.518 0.841218 2.38075 0
M  V30 2271 C 214.831 3.00691 -0.0236116 0
M  V30 2272 C 216.379 3.12973 0.0411512 0
M  V30 2273 C 216.854 4.57654 -0.177899 0
M  V30 2274 N 218.345 4.63033 -0.124365 0
M  V30 2275 C 219.08 5.72771 -0.268553 0
M  V30 2276 N 218.576 6.91206 -0.46972 0
M  V30 2277 N 220.369 5.61718 -0.2071 0
M  V30 2278 H 212.52 1.8349 -1.06981 0
M  V30 2279 H 214.783 0.848677 -0.422436 0
M  V30 2280 H 214.489 3.36726 -1.0153 0
M  V30 2281 H 214.363 3.70614 0.701808 0
M  V30 2282 H 216.75 2.76787 1.02338 0
M  V30 2283 H 216.831 2.45564 -0.716383 0
M  V30 2284 H 216.475 4.94542 -1.15717 0
M  V30 2285 H 216.405 5.23173 0.599797 0
M  V30 2286 H 218.896 3.7789 0.027011 0
M  V30 2287 H 219.209 7.70693 -0.570212 0
M  V30 2288 H 217.554 6.93156 -0.505876 0
M  V30 2289 H 220.745 4.68072 -0.0507986 0
M  V30 2290 H 220.918 6.47195 -0.322909 0
M  V30 2291 N 214.325 -0.140222 1.56975 0
M  V30 2292 C 215.602 -0.880769 1.74648 0
M  V30 2293 C 215.982 -1.99036 0.703404 0
M  V30 2294 O 215.33 -2.26821 -0.27648 0
M  V30 2295 C 215.54 -1.417 3.18939 0
M  V30 2296 C 216.888 -1.87774 3.80823 0
M  V30 2297 O 217.912 -1.51427 3.2241 0
M  V30 2298 O 216.771 -2.54827 4.83452 0
M  V30 2299 H 213.865 -0.416713 0.714338 0
M  V30 2300 H 216.411 -0.125618 1.69234 0
M  V30 2301 H 215.183 -0.619902 3.86359 0
M  V30 2302 H 214.806 -2.23546 3.28805 0
M  V30 2303 N 215.803 -1.52179 -0.40978 0
M  V30 2304 C 217.049 -1.66453 -1.15851 0
M  V30 2305 C 217.382 -0.392972 -1.90182 0
M  V30 2306 O 216.657 0.608579 -1.84734 0
M  V30 2307 C 216.94 -2.88612 -2.15349 0
M  V30 2308 C 216.793 -4.25815 -1.44918 0
M  V30 2309 C 218.112 -3.06294 -3.16026 0
M  V30 2310 H 215.231 -0.60575 -0.419805 0
M  V30 2311 H 217.873 -1.84732 -0.444314 0
M  V30 2312 H 216.023 -2.73158 -2.76255 0
M  V30 2313 H 217.695 -4.52995 -0.871365 0
M  V30 2314 H 215.938 -4.27247 -0.751159 0
M  V30 2315 H 216.609 -5.07337 -2.17516 0
M  V30 2316 H 219.085 -3.20641 -2.65195 0
M  V30 2317 H 217.961 -3.93283 -3.8291 0
M  V30 2318 H 218.222 -2.19579 -3.83715 0
M  V30 2319 N 217.281 0.66697 -1.42791 0
M  V30 2320 C 218.228 1.7803 -1.4688 0
M  V30 2321 C 219.198 1.6299 -0.319919 0
M  V30 2322 O 220.383 1.83432 -0.525118 0
M  V30 2323 C 217.523 3.1611 -1.38451 0
M  V30 2324 C 216.636 3.42381 -2.63437 0
M  V30 2325 C 215.771 4.70232 -2.47094 0
M  V30 2326 C 214.81 4.89564 -3.67415 0
M  V30 2327 N 213.947 6.08661 -3.49966 0
M  V30 2328 H 218.787 1.7387 -2.42019 0
M  V30 2329 H 216.324 0.84868 -1.20149 0
M  V30 2330 H 218.282 3.95914 -1.31561 0
M  V30 2331 H 216.912 3.19374 -0.469033 0
M  V30 2332 H 215.964 2.56774 -2.80662 0
M  V30 2333 H 217.276 3.52557 -3.52853 0
M  V30 2334 H 216.43 5.5814 -2.37834 0
M  V30 2335 H 215.169 4.62353 -1.5518 0
M  V30 2336 H 214.174 4.00096 -3.77099 0
M  V30 2337 H 215.399 4.99282 -4.6032 0
M  V30 2338 H 213.345 6.0194 -2.60776 0
M  V30 2339 H 213.262 6.19733 -4.32975 0
M  V30 2340 H 214.53 6.99226 -3.44532 0
M  V30 2341 N 218.759 1.29093 0.90403 0
M  V30 2342 C 219.722 1.1386 1.98919 0
M  V30 2343 C 220.722 0.0753457 1.60623 0
M  V30 2344 O 221.912 0.321931 1.71199 0
M  V30 2345 C 219.044 0.740198 3.32767 0
M  V30 2346 H 220.237 2.10246 2.13861 0
M  V30 2347 H 217.79 1.12218 1.08797 0
M  V30 2348 H 218.525 -0.223997 3.23525 0
M  V30 2349 H 218.31 1.50838 3.61926 0
M  V30 2350 H 219.8 0.656546 4.12407 0
M  V30 2351 N 220.237 -1.11381 1.11499 0
M  V30 2352 C 221.485 -1.8277 0.862524 0
M  V30 2353 C 221.806 -1.85097 -0.613534 0
M  V30 2354 O 221.076 -1.32198 -1.4457 0
M  V30 2355 H 219.656 -0.676823 0.316101 0
M  V30 2356 H 222.318 -1.34816 1.4075 0
M  V30 2357 H 221.414 -2.86614 1.23527 0
M  V30 2358 N 221.715 -0.905404 -1.28997 0
M  V30 2359 C 222.663 -0.377431 -2.29517 0
M  V30 2360 C 223.657 0.526461 -1.61012 0
M  V30 2361 O 224.863 0.40863 -1.753 0
M  V30 2362 H 221.238 -0.103437 -0.744852 0
M  V30 2363 H 223.209 -1.23848 -2.71485 0
M  V30 2364 C 221.958 0.374833 -3.45674 0
M  V30 2365 H 221.281 -0.311474 -3.98585 0
M  V30 2366 H 222.721 0.70903 -4.1803 0
M  V30 2367 C 221.18 1.57963 -2.97572 0
M  V30 2368 O 221.71 2.67886 -2.99333 0
M  V30 2369 N 219.916 1.42375 -2.53333 0
M  V30 2370 H 219.463 0.529466 -2.521 0
M  V30 2371 H 219.421 2.23117 -2.21509 0
M  V30 2372 N 223.193 1.4272 -0.668489 0
M  V30 2373 C 224.442 2.00846 -0.185389 0
M  V30 2374 C 224.755 1.53442 1.21305 0
M  V30 2375 O 225.961 2.03944 1.79218 0
M  V30 2376 C 224.417 3.58805 -0.280591 0
M  V30 2377 C 224.025 4.15198 -1.68268 0
M  V30 2378 C 225.769 4.24255 0.14412 0
M  V30 2379 C 223.676 5.655 -1.73099 0
M  V30 2380 H 222.606 0.751145 -0.0655475 0
M  V30 2381 H 225.257 1.63516 -0.832752 0
M  V30 2382 H 223.639 3.93608 0.434553 0
M  V30 2383 H 224.813 3.91866 -2.42441 0
M  V30 2384 H 223.128 3.62176 -2.05469 0
M  V30 2385 H 225.725 5.34547 0.128086 0
M  V30 2386 H 226.068 3.99277 1.17827 0
M  V30 2387 H 226.601 3.94389 -0.519798 0
M  V30 2388 H 223.34 5.95268 -2.74475 0
M  V30 2389 H 222.86 5.90842 -1.03274 0
M  V30 2390 H 224.539 6.29808 -1.48158 0
M  V30 2391 N 224.671 0.411399 1.52136 0
M  V30 2392 C 225.601 -0.404015 2.29978 0
M  V30 2393 C 226.582 -1.04412 1.34284 0
M  V30 2394 O 227.767 -1.0527 1.63192 0
M  V30 2395 C 224.897 -1.5197 3.12286 0
M  V30 2396 C 223.851 -1.00448 4.16046 0
M  V30 2397 C 223.177 -2.21393 4.86712 0
M  V30 2398 C 224.477 -0.0569336 5.22269 0
M  V30 2399 H 226.171 0.245529 2.98392 0
M  V30 2400 H 223.717 0.119525 1.43503 0
M  V30 2401 H 225.67 -2.09715 3.6551 0
M  V30 2402 H 224.394 -2.19716 2.41646 0
M  V30 2403 H 223.053 -0.449421 3.63835 0
M  V30 2404 H 222.701 -2.87699 4.12599 0
M  V30 2405 H 222.401 -1.87571 5.56858 0
M  V30 2406 H 223.925 -2.7974 5.4275 0
M  V30 2407 H 225.339 -0.54325 5.7072 0
M  V30 2408 H 223.736 0.192594 5.99791 0
M  V30 2409 H 224.806 0.887663 4.76706 0
M  V30 2410 N 226.149 -1.5696 0.141893 0
M  V30 2411 C 227.079 -2.19516 -0.795936 0
M  V30 2412 C 228.06 -1.14187 -1.26077 0
M  V30 2413 O 229.245 -1.42511 -1.31925 0
M  V30 2414 C 226.375 -2.81272 -2.03723 0
M  V30 2415 C 225.329 -3.92384 -1.70936 0
M  V30 2416 C 224.655 -4.41052 -3.02287 0
M  V30 2417 C 225.955 -5.13403 -0.959954 0
M  V30 2418 H 227.649 -2.98138 -0.274596 0
M  V30 2419 H 225.195 -1.43406 -0.130636 0
M  V30 2420 H 227.148 -3.237 -2.69808 0
M  V30 2421 H 225.872 -1.99973 -2.58221 0
M  V30 2422 H 224.531 -3.50566 -1.07232 0
M  V30 2423 H 224.179 -3.56582 -3.54765 0
M  V30 2424 H 223.879 -5.15993 -2.81114 0
M  V30 2425 H 225.403 -4.86146 -3.69451 0
M  V30 2426 H 226.817 -5.52706 -1.52279 0
M  V30 2427 H 225.214 -5.94073 -0.848357 0
M  V30 2428 H 226.284 -4.84875 0.0492434 0
M  V30 2429 N 227.627 0.131896 -1.57047 0
M  V30 2430 C 228.875 0.840269 -1.83804 0
M  V30 2431 C 229.196 1.81017 -0.72512 0
M  V30 2432 O 228.466 1.94272 0.251995 0
M  V30 2433 H 227.046 0.313294 -0.678127 0
M  V30 2434 H 229.708 0.122294 -1.94516 0
M  V30 2435 H 228.804 1.39335 -2.79271 0
M  V30 2436 N 229.106 1.52395 0.401703 0
M  V30 2437 C 230.016 1.7917 1.51444 0
M  V30 2438 C 231.032 0.677691 1.6026 0
M  V30 2439 O 232.208 0.963909 1.76835 0
M  V30 2440 C 229.273 1.94347 2.87107 0
M  V30 2441 C 228.334 3.18257 2.88116 0
M  V30 2442 C 227.567 3.32701 4.17308 0
M  V30 2443 O 227.79 2.52238 5.11598 0
M  V30 2444 O 226.724 4.25891 4.25324 0
M  V30 2445 H 230.55 2.73633 1.31752 0
M  V30 2446 H 228.135 1.3733 0.588296 0
M  V30 2447 H 230.017 2.06109 3.67555 0
M  V30 2448 H 228.692 1.03073 3.06851 0
M  V30 2449 H 227.599 3.11947 2.06494 0
M  V30 2450 H 228.932 4.09336 2.73322 0
M  V30 2451 N 230.584 -0.659388 1.43143 0
M  V30 2452 C 231.861 -1.41627 1.34912 0
M  V30 2453 C 232.241 -2.11099 -0.00607785 0
M  V30 2454 O 231.589 -2.04353 -1.02236 0
M  V30 2455 C 231.799 -2.40604 2.52805 0
M  V30 2456 C 233.147 -3.04789 2.95616 0
M  V30 2457 O 234.171 -2.50932 2.52807 0
M  V30 2458 O 233.03 -4.02421 3.69756 0
M  V30 2459 H 230.124 -0.63246 0.532844 0
M  V30 2460 H 232.67 -0.686814 1.5518 0
M  V30 2461 H 231.442 -1.88174 3.43083 0
M  V30 2462 H 231.065 -3.21009 2.34604 0
M  V30 2463 N 232.062 -1.29571 -0.897171 0
M  V30 2464 C 233.31 -1.17456 -1.64464 0
M  V30 2465 C 233.631 0.273698 -1.9307 0
M  V30 2466 O 232.901 1.18684 -1.55855 0
M  V30 2467 H 231.481 -0.431706 -0.609622 0
M  V30 2468 H 234.143 -1.62531 -1.07562 0
M  V30 2469 H 233.239 -1.72648 -2.59998 0
M  V30 2470 N 233.54 1.10788 -1.12088 0
M  V30 2471 C 234.765 1.87002 -0.896949 0
M  V30 2472 C 235.19 1.79933 0.548261 0
M  V30 2473 O 234.548 1.16662 1.38779 0
M  V30 2474 C 234.596 3.3349 -1.37174 0
M  V30 2475 O 233.7 4.08745 -0.547831 0
M  V30 2476 H 233.041 0.580397 -0.322545 0
M  V30 2477 H 235.571 1.39996 -1.49206 0
M  V30 2478 H 235.581 3.84339 -1.36922 0
M  V30 2479 H 234.256 3.37951 -2.42408 0
M  V30 2480 H 232.833 3.6776 -0.617034 0
M  V30 2481 N 235.018 0.912232 1.28515 0
M  V30 2482 C 236.264 0.545405 1.95328 0
M  V30 2483 C 236.597 -0.908313 1.71649 0
M  V30 2484 O 235.872 -1.64575 1.03659 0
M  V30 2485 C 236.155 0.853483 3.4984 0
M  V30 2486 C 236.008 2.35982 3.82926 0
M  V30 2487 C 237.327 0.348589 4.38717 0
M  V30 2488 H 234.446 0.199626 0.709449 0
M  V30 2489 H 237.088 1.1412 1.5191 0
M  V30 2490 H 235.238 0.34643 3.86952 0
M  V30 2491 H 236.91 2.93738 3.55691 0
M  V30 2492 H 235.153 2.81543 3.30024 0
M  V30 2493 H 235.824 2.52593 4.90816 0
M  V30 2494 H 238.3 0.78294 4.08668 0
M  V30 2495 H 237.176 0.593242 5.45685 0
M  V30 2496 H 237.437 -0.751049 4.35674 0
M  V30 2497 N 236.496 -1.42363 0.676048 0
M  V30 2498 C 237.428 -2.29164 -0.0404605 0
M  V30 2499 C 238.441 -1.43747 -0.764245 0
M  V30 2500 O 239.63 -1.67453 -0.618195 0
M  V30 2501 C 236.73 -3.21196 -1.08103 0
M  V30 2502 C 235.903 -4.35273 -0.430812 0
M  V30 2503 C 234.962 -5.08017 -1.37133 0
M  V30 2504 O 233.988 -5.62494 -0.87116 0
M  V30 2505 N 235.19 -5.13647 -2.70456 0
M  V30 2506 H 237.955 -2.91298 0.704667 0
M  V30 2507 H 235.516 -1.53303 0.520559 0
M  V30 2508 H 237.508 -3.66728 -1.71152 0
M  V30 2509 H 236.078 -2.60505 -1.72788 0
M  V30 2510 H 235.298 -3.92372 0.379209 0
M  V30 2511 H 236.586 -5.08795 0.0221132 0
M  V30 2512 H 235.984 -4.708 -3.1363 0
M  V30 2513 H 234.541 -5.62821 -3.28749 0
M  V30 2514 N 237.974 -0.419461 -1.51915 0
M  V30 2515 C 239.223 0.154346 -2.01109 0
M  V30 2516 C 239.536 1.45338 -1.30905 0
M  V30 2517 O 240.742 2.10906 -1.7097 0
M  V30 2518 C 239.198 0.325615 -3.58424 0
M  V30 2519 C 238.806 -0.961934 -4.37551 0
M  V30 2520 C 240.55 0.854155 -4.15818 0
M  V30 2521 C 238.457 -0.757287 -5.86531 0
M  V30 2522 H 237.387 0.0614563 -0.751491 0
M  V30 2523 H 240.038 -0.54649 -1.75173 0
M  V30 2524 H 238.42 1.08903 -3.80731 0
M  V30 2525 H 239.594 -1.7323 -4.26999 0
M  V30 2526 H 237.909 -1.41766 -3.91524 0
M  V30 2527 H 240.506 1.02346 -5.24814 0
M  V30 2528 H 240.849 1.83172 -3.73837 0
M  V30 2529 H 241.382 0.149528 -3.97519 0
M  V30 2530 H 238.121 -1.70671 -6.32892 0
M  V30 2531 H 237.641 -0.0264061 -5.99794 0
M  V30 2532 H 239.32 -0.403482 -6.45741 0
M  V30 2533 N 239.452 1.56882 -0.150215 0
M  V30 2534 C 240.415 2.1573 0.774157 0
M  V30 2535 C 241.415 1.0999 1.17298 0
M  V30 2536 O 242.605 1.35613 1.09338 0
M  V30 2537 C 239.737 2.72302 2.05096 0
M  V30 2538 H 240.93 2.98752 0.262201 0
M  V30 2539 H 238.483 1.55985 0.099248 0
M  V30 2540 H 239.218 1.92956 2.6065 0
M  V30 2541 H 239.003 3.49665 1.77416 0
M  V30 2542 H 240.493 3.17632 2.71109 0
M  V30 2543 N 240.93 -0.123565 1.57115 0
M  V30 2544 C 242.207 -0.862196 1.75572 0
M  V30 2545 C 242.587 -1.98279 0.724475 0
M  V30 2546 O 241.935 -2.27102 -0.252407 0
M  V30 2547 C 242.145 -1.38309 3.20424 0
M  V30 2548 C 243.493 -1.83724 3.82793 0
M  V30 2549 O 244.517 -1.47999 3.23998 0
M  V30 2550 O 243.376 -2.49685 4.86127 0
M  V30 2551 H 240.47 -0.409113 0.718718 0
M  V30 2552 H 243.016 -0.107661 1.69358 0
M  V30 2553 H 241.788 -0.578889 3.86994 0
M  V30 2554 H 241.411 -2.20046 3.31158 0
M  V30 2555 N 242.408 -1.52605 -0.393616 0
M  V30 2556 C 243.655 -1.67424 -1.1391 0
M  V30 2557 C 243.983 -0.411859 -1.90089 0
M  V30 2558 O 243.238 0.605626 -1.86093 0
M  V30 2559 C 243.537 -2.85721 -2.14705 0
M  V30 2560 C 243.203 -4.23342 -1.55218 0
M  V30 2561 C 241.865 -4.60771 -1.3872 0
M  V30 2562 C 244.217 -5.09041 -1.11924 0
M  V30 2563 C 241.545 -5.81563 -0.774689 0
M  V30 2564 C 243.897 -6.30452 -0.520853 0
M  V30 2565 C 242.561 -6.66617 -0.343134 0
M  V30 2566 H 241.831 -0.612648 -0.416826 0
M  V30 2567 H 244.478 -1.8674 -0.424315 0
M  V30 2568 H 242.783 -2.60803 -2.92385 0
M  V30 2569 H 244.48 -2.94382 -2.72288 0
M  V30 2570 H 241.07 -3.93855 -1.69045 0
M  V30 2571 H 245.254 -4.80695 -1.23473 0
M  V30 2572 H 240.51 -6.08196 -0.625154 0
M  V30 2573 H 244.684 -6.96175 -0.177065 0
M  V30 2574 H 242.311 -7.60083 0.133571 0
M  V30 2575 N 243.887 0.651787 -1.4349 0
M  V30 2576 C 245.135 1.40888 -1.44897 0
M  V30 2577 C 245.456 1.94856 -0.0749086 0
M  V30 2578 O 244.726 1.74518 0.889956 0
M  V30 2579 H 243.306 0.522887 -0.533478 0
M  V30 2580 H 245.968 0.768609 -1.79104 0
M  V30 2581 H 245.064 2.25052 -2.16236 0
M  V30 2582 N 245.365 1.30045 0.890287 0
M  V30 2583 C 246.611 1.18737 1.64406 0
M  V30 2584 C 246.944 -0.258525 1.92472 0
M  V30 2585 O 246.219 -1.18562 1.54186 0
M  V30 2586 C 246.502 2.01087 2.98724 0
M  V30 2587 C 246.355 3.53867 2.77665 0
M  V30 2588 C 247.674 1.84457 3.9958 0
M  V30 2589 H 244.793 0.432698 0.596608 0
M  V30 2590 H 247.435 1.5962 1.0306 0
M  V30 2591 H 245.585 1.66349 3.51084 0
M  V30 2592 H 247.257 3.98637 2.32133 0
M  V30 2593 H 245.5 3.78318 2.12269 0
M  V30 2594 H 246.171 4.06772 3.7315 0
M  V30 2595 H 248.647 2.14817 3.56361 0
M  V30 2596 H 247.523 2.44411 4.91482 0
M  V30 2597 H 247.784 0.802276 4.3476 0
M  V30 2598 N 246.843 -1.10192 1.12674 0
M  V30 2599 C 248.068 -1.86523 0.906853 0
M  V30 2600 C 248.493 -1.80221 -0.538711 0
M  V30 2601 O 247.851 -1.17396 -1.38158 0
M  V30 2602 C 247.899 -3.32758 1.3894 0
M  V30 2603 O 247.003 -4.08449 0.5695 0
M  V30 2604 H 246.344 -0.578678 0.325619 0
M  V30 2605 H 248.874 -1.39203 1.49946 0
M  V30 2606 H 248.884 -3.83608 1.38958 0
M  V30 2607 H 247.559 -3.36661 2.44197 0
M  V30 2608 H 246.136 -3.67427 0.636528 0
M  V30 2609 N 248.321 -0.919034 -1.28029 0
M  V30 2610 C 249.284 -0.416182 -2.2539 0
M  V30 2611 C 250.284 0.460438 -1.54067 0
M  V30 2612 O 251.474 0.262744 -1.72207 0
M  V30 2613 C 248.606 0.402707 -3.38513 0
M  V30 2614 H 249.799 -1.27629 -2.71387 0
M  V30 2615 H 247.352 -0.698919 -1.39803 0
M  V30 2616 H 248.087 1.282 -2.97885 0
M  V30 2617 H 247.872 -0.225698 -3.9145 0
M  V30 2618 H 249.362 0.745191 -4.10897 0
M  V30 2619 N 249.799 1.42003 -0.683588 0
M  V30 2620 C 251.046 2.01413 -0.209514 0
M  V30 2621 C 251.374 1.54088 1.1869 0
M  V30 2622 O 250.629 0.737591 1.81268 0
M  V30 2623 C 250.928 3.56827 -0.202357 0
M  V30 2624 C 250.594 4.23617 -1.54464 0
M  V30 2625 C 249.256 4.41577 -1.91215 0
M  V30 2626 C 251.608 4.61178 -2.42826 0
M  V30 2627 C 248.936 4.9437 -3.15935 0
M  V30 2628 C 251.288 5.15355 -3.66867 0
M  V30 2629 C 249.952 5.31528 -4.03776 0
M  V30 2630 H 249.222 0.737023 -0.0766668 0
M  V30 2631 H 251.869 1.70067 -0.880312 0
M  V30 2632 H 250.174 3.87892 0.551969 0
M  V30 2633 H 251.871 4.00588 0.181793 0
M  V30 2634 H 248.461 4.10004 -1.24877 0
M  V30 2635 H 252.645 4.46968 -2.15717 0
M  V30 2636 H 247.901 5.05076 -3.44541 0
M  V30 2637 H 252.075 5.43402 -4.35531 0
M  V30 2638 H 249.702 5.72199 -5.00492 0
M  V30 2639 N 251.277 0.427512 1.51691 0
M  V30 2640 C 252.207 -0.3796 2.30394 0
M  V30 2641 C 253.188 -1.02982 1.35384 0
M  V30 2642 O 254.373 -1.03534 1.643 0
M  V30 2643 C 251.503 -1.48649 3.1388 0
M  V30 2644 C 250.457 -0.960294 4.17088 0
M  V30 2645 C 249.783 -2.16219 4.89033 0
M  V30 2646 C 251.083 -0.00153679 5.223 0
M  V30 2647 H 252.777 0.277164 2.98114 0
M  V30 2648 H 250.323 0.134739 1.43368 0
M  V30 2649 H 252.276 -2.05826 3.67714 0
M  V30 2650 H 251 -2.1714 2.43962 0
M  V30 2651 H 249.659 -0.410806 3.64291 0
M  V30 2652 H 249.307 -2.83307 4.15628 0
M  V30 2653 H 249.007 -1.81654 5.58816 0
M  V30 2654 H 250.531 -2.73968 5.45687 0
M  V30 2655 H 251.945 -0.482687 5.71264 0
M  V30 2656 H 250.342 0.256199 5.99553 0
M  V30 2657 H 251.412 0.938174 4.75738 0
M  V30 2658 N 252.755 -1.56801 0.158532 0
M  V30 2659 C 253.718 -2.16138 -0.762705 0
M  V30 2660 C 254.718 -1.1061 -1.16713 0
M  V30 2661 O 255.908 -1.36191 -1.08617 0
M  V30 2662 C 253.04 -2.73386 -2.03649 0
M  V30 2663 H 254.233 -2.98886 -0.246354 0
M  V30 2664 H 251.786 -1.56035 -0.0909744 0
M  V30 2665 H 252.521 -1.94335 -2.59623 0
M  V30 2666 H 252.306 -3.50601 -1.75559 0
M  V30 2667 H 253.796 -3.19065 -2.6942 0
M  V30 2668 N 254.233 0.115231 -1.57178 0
M  V30 2669 C 255.461 0.836437 -1.89239 0
M  V30 2670 C 255.876 1.73256 -0.750175 0
M  V30 2671 O 255.233 1.80357 0.278832 0
M  V30 2672 C 255.284 1.66671 -3.20785 0
M  V30 2673 O 255.005 0.806652 -4.3061 0
M  V30 2674 C 256.506 2.49274 -3.66575 0
M  V30 2675 H 253.726 0.240253 -0.626514 0
M  V30 2676 H 256.27 0.0984932 -2.04263 0
M  V30 2677 H 254.425 2.35737 -3.0742 0
M  V30 2678 H 254.839 1.37969 -5.06028 0
M  V30 2679 H 256.313 3.03055 -4.6137 0
M  V30 2680 H 256.79 3.26807 -2.93417 0
M  V30 2681 H 257.396 1.85443 -3.82741 0
M  V30 2682 N 255.711 1.52812 0.385517 0
M  V30 2683 C 256.959 1.67694 1.12797 0
M  V30 2684 C 257.28 0.421115 1.90399 0
M  V30 2685 O 256.55 -0.564551 1.87589 0
M  V30 2686 H 255.13 0.618155 0.419396 0
M  V30 2687 H 257.792 1.89938 0.436972 0
M  V30 2688 H 256.888 2.52896 1.82894 0
M  V30 2689 N 257.189 -0.644168 1.43834 0
M  V30 2690 C 258.437 -1.40117 1.45642 0
M  V30 2691 C 258.758 -1.94814 0.0852413 0
M  V30 2692 O 258.028 -1.74988 -0.880688 0
M  V30 2693 H 256.608 -0.52005 0.536243 0
M  V30 2694 H 259.27 -0.7591 1.7951 0
M  V30 2695 H 258.366 -2.23902 2.17427 0
M  V30 2696 N 258.668 -1.30515 -0.883378 0
M  V30 2697 C 259.945 -1.10086 -1.6168 0
M  V30 2698 C 260.325 0.349269 -2.08191 0
M  V30 2699 O 259.673 1.34105 -1.85008 0
M  V30 2700 C 259.883 -2.10315 -2.78511 0
M  V30 2701 C 261.231 -2.42119 -3.48803 0
M  V30 2702 O 262.255 -2.08638 -2.88702 0
M  V30 2703 O 261.114 -2.99396 -4.57192 0
M  V30 2704 H 258.208 -0.422907 -0.710689 0
M  V30 2705 H 260.754 -1.41947 -0.930015 0
M  V30 2706 H 259.526 -3.07917 -2.41459 0
M  V30 2707 H 259.149 -1.79282 -3.54886 0
M  V30 2708 N 260.146 1.09593 -1.13257 0
M  V30 2709 C 261.395 1.81105 -0.887917 0
M  V30 2710 C 261.708 1.86563 0.587672 0
M  V30 2711 O 262.914 2.54367 0.949204 0
M  V30 2712 C 261.37 3.25338 -1.53895 0
M  V30 2713 C 260.978 3.28151 -3.04994 0
M  V30 2714 C 262.722 4.01617 -1.37492 0
M  V30 2715 C 260.629 4.66897 -3.6299 0
M  V30 2716 H 259.559 0.678661 -0.328534 0
M  V30 2717 H 262.21 1.23183 -1.36008 0
M  V30 2718 H 260.592 3.8331 -0.994446 0
M  V30 2719 H 261.766 2.79953 -3.66009 0
M  V30 2720 H 260.081 2.65361 -3.20893 0
M  V30 2721 H 262.678 5.04119 -1.78235 0
M  V30 2722 H 263.021 4.15072 -0.31957 0
M  V30 2723 H 263.554 3.50082 -1.88912 0
M  V30 2724 H 260.293 4.58643 -4.68323 0
M  V30 2725 H 259.813 5.15426 -3.06752 0
M  V30 2726 H 261.492 5.3587 -3.62563 0
M  V30 2727 N 261.624 0.925811 1.2754 0
M  V30 2728 C 262.852 0.581509 1.9856 0
M  V30 2729 C 263.267 -0.840041 1.69082 0
M  V30 2730 O 262.624 -1.55805 0.950312 0
M  V30 2731 C 262.675 0.795589 3.52637 0
M  V30 2732 O 262.396 2.16121 3.81082 0
M  V30 2733 C 263.897 0.459744 4.4091 0
M  V30 2734 H 261.117 0.220538 0.633722 0
M  V30 2735 H 263.661 1.24232 1.6244 0
M  V30 2736 H 261.816 0.18161 3.86974 0
M  V30 2737 H 262.23 2.2098 4.75676 0
M  V30 2738 H 263.704 0.660244 5.48037 0
M  V30 2739 H 264.181 -0.604625 4.35018 0
M  V30 2740 H 264.787 1.05178 4.12089 0
M  V30 2741 N 263.102 -1.41638 0.69111 0
M  V30 2742 C 264.518 -1.55435 0.362224 0
M  V30 2743 C 264.718 -1.66754 -1.13117 0
M  V30 2744 O 263.774 -1.64348 -1.91692 0
M  V30 2745 C 265.087 -2.79588 1.10684 0
M  V30 2746 C 266.635 -2.9338 1.09075 0
M  V30 2747 C 267.11 -4.20414 1.81703 0
M  V30 2748 N 268.601 -4.27362 1.7865 0
M  V30 2749 C 269.336 -5.24507 2.31689 0
M  V30 2750 N 268.832 -6.27708 2.93179 0
M  V30 2751 N 270.625 -5.16416 2.2197 0
M  V30 2752 H 262.776 -1.32536 1.65976 0
M  V30 2753 H 265.039 -0.639115 0.700168 0
M  V30 2754 H 264.745 -2.77419 2.16175 0
M  V30 2755 H 264.619 -3.70973 0.682545 0
M  V30 2756 H 267.006 -2.95067 0.0441238 0
M  V30 2757 H 267.087 -2.0318 1.55407 0
M  V30 2758 H 266.731 -4.19488 2.86343 0
M  V30 2759 H 266.661 -5.09578 1.32808 0
M  V30 2760 H 269.152 -3.53415 1.33815 0
M  V30 2761 H 269.465 -6.98217 3.31229 0
M  V30 2762 H 267.81 -6.28223 2.97255 0
M  V30 2763 H 271.001 -4.34716 1.73607 0
M  V30 2764 H 271.174 -5.91958 2.63609 0
M  V30 2765 N 264.58 -0.43555 -1.51462 0
M  V30 2766 C 265.528 0.391205 -2.29287 0
M  V30 2767 C 266.522 1.02247 -1.35062 0
M  V30 2768 O 267.728 0.957646 -1.52411 0
M  V30 2769 H 264.103 0.144968 -0.737895 0
M  V30 2770 H 266.074 -0.286051 -2.97026 0
M  V30 2771 C 264.823 1.48096 -3.14583 0
M  V30 2772 H 264.146 1.00457 -3.86973 0
M  V30 2773 H 265.586 2.03273 -3.72097 0
M  V30 2774 C 264.045 2.46321 -2.29843 0
M  V30 2775 O 264.575 3.50815 -1.95682 0
M  V30 2776 N 262.781 2.17166 -1.931 0
M  V30 2777 H 262.328 1.32218 -2.21079 0
M  V30 2778 H 262.286 2.83127 -1.36698 0
M  V30 2779 N 266.058 1.56714 -0.166846 0
M  V30 2780 C 267.005 2.17746 0.765193 0
M  V30 2781 C 267.975 1.11614 1.23011 0
M  V30 2782 O 269.16 1.39745 1.29908 0
M  V30 2783 C 266.3 2.81882 1.9909 0
M  V30 2784 C 265.413 4.02462 1.56997 0
M  V30 2785 C 264.548 4.54537 2.749 0
M  V30 2786 C 263.587 5.67538 2.29275 0
M  V30 2787 N 262.724 6.14142 3.40255 0
M  V30 2788 H 267.564 2.97048 0.237952 0
M  V30 2789 H 265.101 1.4672 0.105725 0
M  V30 2790 H 267.059 3.17221 2.70974 0
M  V30 2791 H 265.689 2.05191 2.49192 0
M  V30 2792 H 264.741 3.72973 0.748037 0
M  V30 2793 H 266.053 4.84273 1.19503 0
M  V30 2794 H 265.207 4.92035 3.54946 0
M  V30 2795 H 263.946 3.71774 3.1565 0
M  V30 2796 H 262.951 5.29597 1.47674 0
M  V30 2797 H 264.176 6.52099 1.89588 0
M  V30 2798 H 262.122 5.3431 3.8059 0
M  V30 2799 H 262.039 6.9093 3.06841 0
M  V30 2800 H 263.307 6.56289 4.206 0
M  V30 2801 N 267.536 -0.106894 1.57237 0
M  V30 2802 C 268.782 -0.81373 1.85759 0
M  V30 2803 C 269.115 -1.78952 0.754315 0
M  V30 2804 O 268.39 -1.93029 -0.23879 0
M  V30 2805 C 268.673 -1.55293 3.24894 0
M  V30 2806 C 268.526 -0.595929 4.45835 0
M  V30 2807 C 269.845 -2.5063 3.61763 0
M  V30 2808 H 266.964 -0.294369 0.67566 0
M  V30 2809 H 269.606 -0.0776472 1.89841 0
M  V30 2810 H 267.756 -2.1804 3.21544 0
M  V30 2811 H 269.428 0.0236262 4.61294 0
M  V30 2812 H 267.671 0.0916191 4.33703 0
M  V30 2813 H 268.342 -1.15004 5.39887 0
M  V30 2814 H 270.818 -1.97982 3.65981 0
M  V30 2815 H 269.694 -2.99376 4.60071 0
M  V30 2816 H 269.955 -3.3385 2.89821 0
M  V30 2817 N 269.014 -1.53014 -0.377408 0
M  V30 2818 C 270.43 -1.42523 -0.718281 0
M  V30 2819 C 270.63 -0.55487 -1.9371 0
M  V30 2820 O 269.686 -0.0327593 -2.52479 0
M  V30 2821 C 270.999 -2.85546 -0.942539 0
M  V30 2822 C 272.547 -2.95101 -1.04329 0
M  V30 2823 C 273.022 -4.3916 -1.3001 0
M  V30 2824 N 274.513 -4.42536 -1.36806 0
M  V30 2825 C 275.248 -5.51097 -1.58364 0
M  V30 2826 N 274.744 -6.69724 -1.77317 0
M  V30 2827 N 276.537 -5.38657 -1.60638 0
M  V30 2828 H 268.688 -2.08116 0.424426 0
M  V30 2829 H 270.951 -0.939352 0.127759 0
M  V30 2830 H 270.657 -3.51499 -0.118929 0
M  V30 2831 H 270.531 -3.28493 -1.85397 0
M  V30 2832 H 272.918 -2.29309 -1.85745 0
M  V30 2833 H 272.999 -2.55566 -0.109505 0
M  V30 2834 H 272.643 -5.05521 -0.490991 0
M  V30 2835 H 272.573 -4.76258 -2.24691 0
M  V30 2836 H 275.064 -3.57039 -1.23821 0
M  V30 2837 H 275.377 -7.48233 -1.93306 0
M  V30 2838 H 273.722 -6.72732 -1.74518 0
M  V30 2839 H 276.913 -4.44948 -1.45391 0
M  V30 2840 H 277.086 -6.2333 -1.77098 0
M  V30 2841 N 270.492 0.636531 -1.44174 0
M  V30 2842 C 271.439 1.74875 -1.50624 0
M  V30 2843 C 272.409 1.62275 -0.35442 0
M  V30 2844 O 273.594 1.82276 -0.563908 0
M  V30 2845 C 270.734 3.13102 -1.45125 0
M  V30 2846 C 269.847 3.36717 -2.7064 0
M  V30 2847 C 268.982 4.64885 -2.57013 0
M  V30 2848 C 268.021 4.8166 -3.77717 0
M  V30 2849 N 267.158 6.01101 -3.62798 0
M  V30 2850 H 271.998 1.68697 -2.45653 0
M  V30 2851 H 269.535 0.823004 -1.21922 0
M  V30 2852 H 271.493 3.93034 -1.39929 0
M  V30 2853 H 270.123 3.18308 -0.536671 0
M  V30 2854 H 269.175 2.50763 -2.86046 0
M  V30 2855 H 270.487 3.44993 -3.60252 0
M  V30 2856 H 269.641 5.52969 -2.49619 0
M  V30 2857 H 268.38 4.58957 -1.64953 0
M  V30 2858 H 267.385 3.92007 -3.85501 0
M  V30 2859 H 268.61 4.89406 -4.70807 0
M  V30 2860 H 266.556 5.96273 -2.73486 0
M  V30 2861 H 266.473 6.10409 -4.46023 0
M  V30 2862 H 267.741 6.91761 -3.59286 0
M  V30 2863 N 271.97 1.30982 0.876444 0
M  V30 2864 C 273.198 1.23242 1.6619 0
M  V30 2865 C 273.613 -0.203345 1.87702 0
M  V30 2866 O 272.97 -1.13317 1.43057 0
M  V30 2867 C 273.021 1.96623 3.03351 0
M  V30 2868 O 272.742 3.34594 2.82804 0
M  V30 2869 C 274.243 1.95644 3.97792 0
M  V30 2870 H 271.463 0.426126 0.518322 0
M  V30 2871 H 274.007 1.7275 1.09442 0
M  V30 2872 H 272.162 1.50892 3.56806 0
M  V30 2873 H 272.576 3.71873 3.69879 0
M  V30 2874 H 274.05 2.51511 4.91372 0
M  V30 2875 H 274.527 0.937395 4.2908 0
M  V30 2876 H 275.133 2.41225 3.50272 0
M  V30 2877 N 273.449 -1.08991 1.13837 0
M  V30 2878 C 274.696 -1.81258 0.902882 0
M  V30 2879 C 275.024 -1.85936 -0.570803 0
M  V30 2880 O 274.279 -1.3267 -1.43865 0
M  V30 2881 C 274.578 -3.27042 1.44147 0
M  V30 2882 C 274.244 -3.4249 2.93276 0
M  V30 2883 C 272.906 -3.46414 3.33992 0
M  V30 2884 C 275.258 -3.4666 3.892 0
M  V30 2885 C 272.586 -3.52091 4.69307 0
M  V30 2886 C 274.938 -3.53872 5.24364 0
M  V30 2887 C 273.602 -3.56066 5.646 0
M  V30 2888 H 272.872 -0.663268 0.330388 0
M  V30 2889 H 275.519 -1.28368 1.42105 0
M  V30 2890 H 273.824 -3.82599 0.844097 0
M  V30 2891 H 275.521 -3.81499 1.23528 0
M  V30 2892 H 272.111 -3.40124 2.60794 0
M  V30 2893 H 276.295 -3.42865 3.58828 0
M  V30 2894 H 271.551 -3.52079 4.9985 0
M  V30 2895 H 275.725 -3.56043 5.98503 0
M  V30 2896 H 273.352 -3.60218 6.69438 0
M  V30 2897 N 274.927 -0.932562 -1.27047 0
M  V30 2898 C 276.173 -0.576412 -1.94436 0
M  V30 2899 C 276.506 0.880891 -1.73072 0
M  V30 2900 O 275.781 1.62905 -1.06264 0
M  V30 2901 C 276.064 -0.909031 -3.48437 0
M  V30 2902 C 275.917 -2.42044 -3.79123 0
M  V30 2903 C 277.236 -0.418341 -4.38107 0
M  V30 2904 H 274.355 -0.210888 -0.706184 0
M  V30 2905 H 276.997 -1.16522 -1.50075 0
M  V30 2906 H 275.147 -0.407947 -3.86352 0
M  V30 2907 H 276.819 -2.99359 -3.50973 0
M  V30 2908 H 275.062 -2.86758 -3.25503 0
M  V30 2909 H 275.733 -2.6037 -4.86736 0
M  V30 2910 H 278.209 -0.847856 -4.0737 0
M  V30 2911 H 277.085 -0.679981 -5.44672 0
M  V30 2912 H 277.346 0.681642 -4.36814 0
M  V30 2913 N 276.405 1.4127 -0.698611 0
M  V30 2914 C 277.653 2.00782 -0.230409 0
M  V30 2915 C 277.974 1.5562 1.17505 0
M  V30 2916 O 277.244 0.78815 1.79346 0
M  V30 2917 H 275.824 0.742464 -0.0821944 0
M  V30 2918 H 278.486 1.72852 -0.90045 0
M  V30 2919 H 277.582 3.11095 -0.25021 0
M  V30 2920 N 277.883 0.443576 1.51229 0
M  V30 2921 C 279.111 -0.11929 2.06556 0
M  V30 2922 C 279.526 -1.35921 1.31038 0
M  V30 2923 O 278.883 -1.78675 0.371704 0
M  V30 2924 C 278.934 -0.435228 3.5887 0
M  V30 2925 O 278.655 0.755486 4.31537 0
M  V30 2926 C 280.156 -1.04808 4.30732 0
M  V30 2927 H 277.376 -0.0051584 0.67098 0
M  V30 2928 H 279.92 0.624453 1.94733 0
M  V30 2929 H 278.075 -1.12887 3.70588 0
M  V30 2930 H 278.489 0.483491 5.22267 0
M  V30 2931 H 279.963 -1.2191 5.3837 0
M  V30 2932 H 280.44 -2.03081 3.89429 0
M  V30 2933 H 281.046 -0.393637 4.23474 0
M  V30 2934 N 279.361 -1.56624 0.175154 0
M  V30 2935 C 280.772 -1.83561 -0.340916 0
M  V30 2936 C 281.123 -1.09511 -1.62794 0
M  V30 2937 O 280.248 -0.349389 -2.13561 0
M  V30 2938 C 280.843 -3.32979 -0.625313 0
M  V30 2939 C 279.402 -3.60399 -1.08581 0
M  V30 2940 C 278.549 -2.77024 -0.123722 0
M  V30 2941 H 281.5 -1.53593 0.399344 0
M  V30 2942 H 281.521 -3.50666 -1.47694 0
M  V30 2943 H 281.033 -3.86847 0.311575 0
M  V30 2944 H 279.134 -3.11945 -2.03767 0
M  V30 2945 H 279.247 -4.68711 -0.992317 0
M  V30 2946 H 277.611 -2.46993 -0.621821 0
M  V30 2947 H 278.394 -3.33674 0.807256 0
M  V30 2948 N 280.839 0.0985539 -1.57292 0
M  V30 2949 C 282.079 0.808332 -1.87737 0
M  V30 2950 C 282.443 1.7607 -0.76572 0
M  V30 2951 O 283.644 2.51358 -0.952499 0
M  V30 2952 C 281.915 1.52093 -3.23423 0
M  V30 2953 S 283.474 2.26947 -3.75554 0
M  V30 2954 H 280.292 0.269377 -0.657995 0
M  V30 2955 H 282.894 0.0656269 -1.9539 0
M  V30 2956 H 281.598 0.81363 -4.02254 0
M  V30 2957 H 281.129 2.30361 -3.189 0
M  V30 2958 H 283.144 3.53027 -3.48692 0
M  V30 2959 N 282.317 1.53212 0.369288 0
M  V30 2960 C 283.563 1.70413 1.11046 0
M  V30 2961 C 283.918 0.448509 1.87099 0
M  V30 2962 O 283.211 -0.558382 1.83283 0
M  V30 2963 C 283.405 2.89101 2.10132 0
M  V30 2964 C 283.234 4.26084 1.43814 0
M  V30 2965 C 282.004 4.90994 1.19384 0
M  V30 2966 C 284.202 5.06754 0.877802 0
M  V30 2967 N 282.184 6.11911 0.49377 0
M  V30 2968 C 283.555 6.1924 0.306891 0
M  V30 2969 C 285.61 4.91814 0.776129 0
M  V30 2970 C 284.313 7.1842 -0.355774 0
M  V30 2971 C 286.339 5.91263 0.127252 0
M  V30 2972 C 285.701 7.03069 -0.432801 0
M  V30 2973 H 281.8 0.676872 0.391623 0
M  V30 2974 H 284.384 1.90603 0.397334 0
M  V30 2975 H 282.555 2.70456 2.78761 0
M  V30 2976 H 284.287 2.95142 2.76899 0
M  V30 2977 H 281.042 4.50074 1.47413 0
M  V30 2978 H 281.466 6.76813 0.159207 0
M  V30 2979 H 286.108 4.05564 1.19489 0
M  V30 2980 H 283.826 8.04264 -0.786499 0
M  V30 2981 H 287.412 5.81779 0.0495613 0
M  V30 2982 H 286.292 7.78702 -0.926958 0
M  V30 2983 N 283.795 -0.628877 1.44509 0
M  V30 2984 C 284.728 -1.75367 1.46019 0
M  V30 2985 C 285.706 -1.59444 0.318787 0
M  V30 2986 O 286.89 -1.81297 0.516099 0
M  V30 2987 C 284.017 -3.12965 1.29501 0
M  V30 2988 C 283.063 -3.47532 2.47233 0
M  V30 2989 S 283.896 -3.44758 4.09758 0
M  V30 2990 C 285.052 -4.84973 3.95667 0
M  V30 2991 H 285.285 -1.7382 2.41193 0
M  V30 2992 H 282.818 -0.803686 1.31834 0
M  V30 2993 H 284.776 -3.92367 1.20658 0
M  V30 2994 H 283.437 -3.12049 0.358341 0
M  V30 2995 H 282.63 -4.47664 2.31544 0
M  V30 2996 H 282.232 -2.75598 2.52828 0
M  V30 2997 H 284.524 -5.74255 3.59496 0
M  V30 2998 H 285.467 -5.05716 4.95638 0
M  V30 2999 H 285.875 -4.59653 3.27688 0
M  V30 3000 N 285.273 -1.31445 -0.869486 0
M  V30 3001 C 286.236 -1.19094 -1.9583 0
M  V30 3002 C 287.236 -0.117906 -1.60367 0
M  V30 3003 O 288.426 -0.367208 -1.70286 0
M  V30 3004 C 285.558 -0.828165 -3.30688 0
M  V30 3005 H 286.751 -2.15842 -2.08212 0
M  V30 3006 H 284.304 -1.15063 -1.05784 0
M  V30 3007 H 285.039 0.138142 -3.24006 0
M  V30 3008 H 284.824 -1.6038 -3.578 0
M  V30 3009 H 286.314 -0.765658 -4.10521 0
M  V30 3010 N 286.751 1.08385 -1.14413 0
M  V30 3011 C 288.162 1.62258 -0.923535 0
M  V30 3012 C 288.513 1.88691 0.537595 0
M  V30 3013 O 287.638 1.64454 1.40655 0
M  V30 3014 C 288.233 2.94781 -1.67002 0
M  V30 3015 C 286.792 3.45437 -1.495 0
M  V30 3016 C 285.939 2.19668 -1.69238 0
M  V30 3017 H 288.89 0.916086 -1.2959 0
M  V30 3018 H 288.911 3.63229 -1.13334 0
M  V30 3019 H 288.423 2.7551 -2.73342 0
M  V30 3020 H 286.524 3.6981 -0.455097 0
M  V30 3021 H 286.637 4.22173 -2.2651 0
M  V30 3022 H 285.001 2.28849 -1.11804 0
M  V30 3023 H 285.784 2.02905 -2.7692 0
M  V30 3024 N 288.23 0.939286 1.26551 0
M  V30 3025 C 289.14 0.453432 2.30176 0
M  V30 3026 C 290.156 -0.471649 1.67486 0
M  V30 3027 O 291.332 -0.35164 1.98306 0
M  V30 3028 C 288.397 -0.275326 3.45605 0
M  V30 3029 C 287.458 0.686084 4.23782 0
M  V30 3030 C 286.691 -0.00798994 5.33699 0
M  V30 3031 O 286.914 -1.22528 5.57085 0
M  V30 3032 O 285.848 0.669746 5.98162 0
M  V30 3033 H 289.674 1.31416 2.73795 0
M  V30 3034 H 287.259 0.705095 1.31715 0
M  V30 3035 H 289.141 -0.685911 4.1578 0
M  V30 3036 H 287.816 -1.11147 3.0402 0
M  V30 3037 H 286.723 1.14658 3.56096 0
M  V30 3038 H 288.056 1.48979 4.69112 0
M  V30 3039 N 289.708 -1.40897 0.706093 0
M  V30 3040 C 290.954 -2.01352 0.241889 0
M  V30 3041 C 291.287 -1.55832 -1.15888 0
M  V30 3042 O 290.562 -0.774145 -1.7843 0
M  V30 3043 C 290.845 -3.58752 0.311311 0
M  V30 3044 C 290.698 -4.1437 1.74978 0
M  V30 3045 C 292.017 -4.38914 -0.322922 0
M  V30 3046 H 289.136 -0.731562 0.0893687 0
M  V30 3047 H 291.778 -1.67504 0.896802 0
M  V30 3048 H 289.928 -3.87718 -0.246302 0
M  V30 3049 H 291.6 -3.96239 2.36205 0
M  V30 3050 H 289.843 -3.69016 2.28057 0
M  V30 3051 H 290.514 -5.23532 1.74981 0
M  V30 3052 H 292.99 -4.15822 0.152089 0
M  V30 3053 H 291.866 -5.48358 -0.243855 0
M  V30 3054 H 292.127 -4.19176 -1.40513 0
M  V30 3055 N 291.186 -0.45159 -1.50991 0
M  V30 3056 C 292.119 0.398179 -2.24699 0
M  V30 3057 C 293.097 1.01276 -1.27208 0
M  V30 3058 O 294.281 1.05247 -1.56382 0
M  V30 3059 C 291.408 1.55618 -3.00833 0
M  V30 3060 C 290.454 1.0609 -4.13095 0
M  V30 3061 S 291.287 -0.00865136 -5.35499 0
M  V30 3062 C 292.443 1.15369 -6.15175 0
M  V30 3063 H 292.676 -0.227555 -2.96428 0
M  V30 3064 H 290.209 -0.236251 -1.52582 0
M  V30 3065 H 292.167 2.21997 -3.45293 0
M  V30 3066 H 290.828 2.15337 -2.28667 0
M  V30 3067 H 290.021 1.92726 -4.65696 0
M  V30 3068 H 289.623 0.47513 -3.7097 0
M  V30 3069 H 291.915 2.06925 -6.45126 0
M  V30 3070 H 292.858 0.667344 -7.04948 0
M  V30 3071 H 293.266 1.3987 -5.46897 0
M  V30 3072 N 292.664 1.56529 -0.183458 0
M  V30 3073 C 293.574 2.22144 0.754272 0
M  V30 3074 C 294.59 1.21684 1.24374 0
M  V30 3075 O 295.766 1.54385 1.29333 0
M  V30 3076 C 292.831 2.85884 1.96141 0
M  V30 3077 C 291.892 4.01579 1.51765 0
M  V30 3078 C 291.125 4.6227 2.66725 0
M  V30 3079 O 291.348 4.21865 3.83909 0
M  V30 3080 O 290.282 5.51936 2.40104 0
M  V30 3081 H 294.108 3.02861 0.225527 0
M  V30 3082 H 291.693 1.49331 0.0453032 0
M  V30 3083 H 293.575 3.26253 2.66715 0
M  V30 3084 H 292.25 2.08154 2.47899 0
M  V30 3085 H 291.157 3.65856 0.781049 0
M  V30 3086 H 292.49 4.80938 1.04686 0
M  V30 3087 N 294.142 -0.090211 1.57342 0
M  V30 3088 C 295.074 -1.13541 1.99101 0
M  V30 3089 C 296.087 -1.3604 0.894258 0
M  V30 3090 O 297.276 -1.34606 1.17233 0
M  V30 3091 C 294.376 -2.49001 2.29895 0
M  V30 3092 C 293.549 -2.46712 3.61182 0
M  V30 3093 C 292.608 -3.64136 3.79857 0
M  V30 3094 O 291.634 -3.46405 4.51655 0
M  V30 3095 N 292.836 -4.83802 3.20806 0
M  V30 3096 H 295.601 -0.779942 2.89373 0
M  V30 3097 H 293.162 -0.279125 1.59476 0
M  V30 3098 H 295.154 -3.26166 2.39578 0
M  V30 3099 H 293.724 -2.76619 1.45605 0
M  V30 3100 H 292.944 -1.55058 3.62423 0
M  V30 3101 H 294.232 -2.42265 4.4742 0
M  V30 3102 H 293.63 -5.01112 2.62494 0
M  V30 3103 H 292.187 -5.58543 3.35966 0
M  V30 3104 N 295.62 -1.53406 -0.361157 0
M  V30 3105 C 296.866 -1.70054 -1.10496 0
M  V30 3106 C 297.199 -0.453278 -1.88836 0
M  V30 3107 O 296.474 0.5495 -1.86576 0
M  V30 3108 C 296.757 -2.95317 -2.06058 0
M  V30 3109 C 296.61 -4.3021 -1.31298 0
M  V30 3110 C 297.929 -3.16193 -3.06121 0
M  V30 3111 H 295.048 -0.618799 -0.400321 0
M  V30 3112 H 297.69 -1.86052 -0.385318 0
M  V30 3113 H 295.84 -2.81809 -2.67425 0
M  V30 3114 H 297.512 -4.55538 -0.726807 0
M  V30 3115 H 295.755 -4.29421 -0.614853 0
M  V30 3116 H 296.426 -5.14 -2.01265 0
M  V30 3117 H 298.902 -3.28916 -2.5486 0
M  V30 3118 H 297.778 -4.05266 -3.70204 0
M  V30 3119 H 298.039 -2.31676 -3.76535 0
M  V30 3120 N 297.098 0.621204 -1.44841 0
M  V30 3121 C 298.514 0.94048 -1.28946 0
M  V30 3122 C 298.714 2.00154 -0.23249 0
M  V30 3123 O 297.77 2.49651 0.378237 0
M  V30 3124 C 299.083 1.39433 -2.66419 0
M  V30 3125 C 300.631 1.50927 -2.74208 0
M  V30 3126 C 301.106 1.99692 -4.12174 0
M  V30 3127 N 302.597 2.06947 -4.144 0
M  V30 3128 C 303.332 2.45871 -5.1801 0
M  V30 3129 N 302.828 2.83862 -6.31977 0
M  V30 3130 N 304.621 2.46092 -5.05366 0
M  V30 3131 H 296.772 -0.0803548 -2.12248 0
M  V30 3132 H 299.035 0.0266913 -0.947624 0
M  V30 3133 H 298.741 0.688925 -3.44887 0
M  V30 3134 H 298.615 2.36347 -2.93973 0
M  V30 3135 H 301.002 2.20561 -1.96053 0
M  V30 3136 H 301.083 0.523627 -2.50383 0
M  V30 3137 H 300.727 1.30649 -4.90809 0
M  V30 3138 H 300.657 2.99146 -4.33381 0
M  V30 3139 H 303.148 1.80232 -3.32152 0
M  V30 3140 H 303.461 3.12405 -7.0684 0
M  V30 3141 H 301.806 2.8159 -6.35399 0
M  V30 3142 H 304.997 2.1581 -4.15384 0
M  V30 3143 H 305.17 2.76102 -5.86235 0
M  V30 3144 N 298.576 1.31904 0.862503 0
M  V30 3145 C 299.824 1.21776 1.61292 0
M  V30 3146 C 300.145 -0.222413 1.93727 0
M  V30 3147 O 299.415 -1.1451 1.58947 0
M  V30 3148 H 297.995 0.447717 0.597962 0
M  V30 3149 H 300.657 1.65326 1.03215 0
M  V30 3150 H 299.753 1.7948 2.5533 0
M  V30 3151 N 300.054 -1.07777 1.14986 0
M  V30 3152 C 301.284 -1.83752 0.944402 0
M  V30 3153 C 301.692 -1.8218 -0.51058 0
M  V30 3154 O 301.035 -1.22852 -1.36576 0
M  V30 3155 C 301.097 -3.32128 1.37592 0
M  V30 3156 C 300.761 -3.57425 2.84775 0
M  V30 3157 C 301.758 -3.5173 3.8286 0
M  V30 3158 C 299.443 -3.8523 3.2234 0
M  V30 3159 C 301.437 -3.73482 5.16517 0
M  V30 3160 C 299.124 -4.06634 4.56171 0
M  V30 3161 C 300.122 -4.00754 5.53069 0
M  V30 3162 O 299.81 -4.2159 6.84483 0
M  V30 3163 H 299.542 -0.58673 0.335744 0
M  V30 3164 H 302.096 -1.36982 1.53052 0
M  V30 3165 H 300.326 -3.79686 0.733165 0
M  V30 3166 H 302.015 -3.89555 1.14024 0
M  V30 3167 H 302.781 -3.30256 3.55184 0
M  V30 3168 H 298.66 -3.88923 2.47508 0
M  V30 3169 H 302.204 -3.68808 5.92137 0
M  V30 3170 H 298.101 -4.27593 4.83564 0
M  V30 3171 H 298.869 -4.38961 6.90837 0
M  V30 3172 N 301.532 -0.945985 -1.26051 0
M  V30 3173 C 302.809 -0.513816 -1.88731 0
M  V30 3174 C 303.189 1.00872 -1.8544 0
M  V30 3175 O 302.537 1.8708 -1.312 0
M  V30 3176 C 302.747 -1.08062 -3.31849 0
M  V30 3177 C 304.095 -1.1522 -4.08668 0
M  V30 3178 O 305.119 -1.03155 -3.40936 0
M  V30 3179 O 303.978 -1.34044 -5.29806 0
M  V30 3180 H 301.072 -0.168193 -0.809716 0
M  V30 3181 H 303.618 -1.03886 -1.34186 0
M  V30 3182 H 302.39 -2.1241 -3.2863 0
M  V30 3183 H 302.013 -0.538307 -3.93939 0
M  V30 3184 N 303.011 1.40521 -0.713556 0
M  V30 3185 C 304.258 2.00923 -0.25219 0
M  V30 3186 C 304.586 1.56571 1.15395 0
M  V30 3187 O 303.841 0.775874 1.79663 0
M  V30 3188 C 304.14 3.56317 -0.278 0
M  V30 3189 C 303.806 4.20246 -1.63415 0
M  V30 3190 C 302.468 4.37422 -2.00538 0
M  V30 3191 C 304.82 4.55923 -2.52554 0
M  V30 3192 C 302.148 4.87558 -3.2635 0
M  V30 3193 C 304.5 5.07458 -3.77716 0
M  V30 3194 C 303.164 5.22843 -4.14959 0
M  V30 3195 H 302.434 0.735231 -0.0922829 0
M  V30 3196 H 305.081 1.68161 -0.916188 0
M  V30 3197 H 303.386 3.88976 0.469567 0
M  V30 3198 H 305.083 4.00883 0.0967819 0
M  V30 3199 H 301.673 4.07263 -1.33546 0
M  V30 3200 H 305.857 4.42291 -2.25149 0
M  V30 3201 H 301.113 4.97654 -3.55176 0
M  V30 3202 H 305.287 5.34041 -4.4696 0
M  V30 3203 H 302.914 5.61454 -5.12516 0
M  V30 3204 N 304.489 0.459591 1.5075 0
M  V30 3205 C 305.436 -0.340524 2.28274 0
M  V30 3206 C 306.406 -0.997371 1.32822 0
M  V30 3207 O 307.591 -1.01202 1.61749 0
M  V30 3208 C 304.731 -1.42317 3.14388 0
M  V30 3209 C 303.844 -0.782251 4.24859 0
M  V30 3210 C 302.979 -1.84182 4.98247 0
M  V30 3211 C 302.018 -1.18053 6.00608 0
M  V30 3212 N 301.155 -2.18244 6.67319 0
M  V30 3213 H 305.995 0.326899 2.96202 0
M  V30 3214 H 303.532 0.173057 1.46078 0
M  V30 3215 H 305.49 -2.06241 3.62658 0
M  V30 3216 H 304.12 -2.05992 2.4853 0
M  V30 3217 H 303.172 -0.0307404 3.80388 0
M  V30 3218 H 304.484 -0.259663 4.98124 0
M  V30 3219 H 303.638 -2.55714 5.50177 0
M  V30 3220 H 302.377 -2.39819 4.24662 0
M  V30 3221 H 301.382 -0.450776 5.47949 0
M  V30 3222 H 302.607 -0.631202 6.7616 0
M  V30 3223 H 300.553 -2.72919 5.96533 0
M  V30 3224 H 300.47 -1.70938 7.36421 0
M  V30 3225 H 301.738 -2.89191 7.23871 0
M  V30 3226 N 305.967 -1.56429 0.191757 0
M  V30 3227 C 306.93 -2.17707 -0.716688 0
M  V30 3228 C 307.93 -1.13061 -1.14341 0
M  V30 3229 O 309.12 -1.38464 -1.05704 0
M  V30 3230 C 306.252 -2.77644 -1.97804 0
M  V30 3231 H 307.445 -2.99342 -0.1829 0
M  V30 3232 H 304.998 -1.56193 -0.0578566 0
M  V30 3233 H 305.733 -1.99799 -2.55443 0
M  V30 3234 H 305.518 -3.54246 -1.68083 0
M  V30 3235 H 307.008 -3.24708 -2.62592 0
M  V30 3236 N 307.445 0.0818655 -1.57387 0
M  V30 3237 C 308.722 0.815343 -1.77796 0
M  V30 3238 C 309.102 1.96289 -0.77679 0
M  V30 3239 O 308.45 2.27691 0.192106 0
M  V30 3240 C 308.66 1.29765 -3.23978 0
M  V30 3241 C 310.008 1.7351 -3.8753 0
M  V30 3242 O 311.032 1.39356 -3.27808 0
M  V30 3243 O 309.891 2.36708 -4.92576 0
M  V30 3244 H 306.985 0.389914 -0.729312 0
M  V30 3245 H 309.531 0.0627213 -1.69584 0
M  V30 3246 H 308.303 0.47608 -3.88393 0
M  V30 3247 H 307.926 2.11189 -3.36875 0
M  V30 3248 N 308.923 1.53595 0.353017 0
M  V30 3249 C 310.172 1.69603 1.09168 0
M  V30 3250 C 310.485 0.460925 1.90092 0
M  V30 3251 O 311.691 0.501774 2.66823 0
M  V30 3252 C 310.147 2.99872 1.9901 0
M  V30 3253 C 309.755 4.30687 1.23339 0
M  V30 3254 C 311.499 3.25246 2.72792 0
M  V30 3255 C 309.406 5.52036 2.12156 0
M  V30 3256 H 308.336 0.631966 0.411261 0
M  V30 3257 H 310.987 1.80096 0.351802 0
M  V30 3258 H 309.369 2.83212 2.7678 0
M  V30 3259 H 310.543 4.58019 0.505456 0
M  V30 3260 H 308.858 4.11853 0.613663 0
M  V30 3261 H 311.455 4.13095 3.39495 0
M  V30 3262 H 311.798 2.41846 3.38846 0
M  V30 3263 H 312.331 3.42638 2.021 0
M  V30 3264 H 309.07 6.37951 1.50659 0
M  V30 3265 H 308.59 5.28966 2.82764 0
M  V30 3266 H 310.269 5.87313 2.71427 0
M  V30 3267 N 310.401 -0.613514 1.45168 0
M  V30 3268 C 311.647 -1.37279 1.50087 0
M  V30 3269 C 312.002 -1.91902 0.138294 0
M  V30 3270 O 311.295 -1.71764 -0.84899 0
M  V30 3271 C 311.489 -2.54347 2.51083 0
M  V30 3272 C 311.318 -2.11186 3.97027 0
M  V30 3273 C 310.088 -1.97636 4.65046 0
M  V30 3274 C 312.286 -1.69016 4.85735 0
M  V30 3275 N 310.268 -1.48224 5.95737 0
M  V30 3276 C 311.639 -1.30976 6.06008 0
M  V30 3277 C 313.694 -1.56555 4.72647 0
M  V30 3278 C 312.397 -0.817197 7.14643 0
M  V30 3279 C 314.423 -1.08702 5.81324 0
M  V30 3280 C 313.785 -0.716233 7.00749 0
M  V30 3281 H 309.884 -0.496478 0.60418 0
M  V30 3282 H 312.468 -0.701988 1.81605 0
M  V30 3283 H 310.639 -3.19031 2.21527 0
M  V30 3284 H 312.371 -3.21208 2.46187 0
M  V30 3285 H 309.126 -2.18638 4.20112 0
M  V30 3286 H 309.55 -1.25767 6.65216 0
M  V30 3287 H 314.192 -1.83849 3.80736 0
M  V30 3288 H 311.91 -0.531797 8.06348 0
M  V30 3289 H 315.496 -0.994943 5.7323 0
M  V30 3290 H 314.376 -0.351642 7.83411 0
M  V30 3291 N 311.879 -1.3236 -0.855495 0
M  V30 3292 C 313.104 -1.2601 -1.64731 0
M  V30 3293 C 313.529 0.169068 -1.87339 0
M  V30 3294 O 312.887 1.12016 -1.42556 0
M  V30 3295 C 312.935 -2.02417 -2.98429 0
M  V30 3296 O 312.039 -1.3714 -3.8893 0
M  V30 3297 H 311.38 -0.434325 -0.502253 0
M  V30 3298 H 313.91 -1.74661 -1.06558 0
M  V30 3299 H 313.92 -2.12559 -3.48257 0
M  V30 3300 H 312.595 -3.06343 -2.81295 0
M  V30 3301 H 311.172 -1.3554 -3.47395 0
M  V30 3302 N 313.357 1.07166 -1.15556 0
M  V30 3303 C 314.604 1.79798 -0.931604 0
M  V30 3304 C 314.932 1.8682 0.54115 0
M  V30 3305 O 314.187 1.34942 1.41736 0
M  V30 3306 C 314.486 3.24707 -1.49332 0
M  V30 3307 C 314.152 3.37781 -2.98688 0
M  V30 3308 C 312.814 3.41057 -3.39461 0
M  V30 3309 C 315.166 3.40424 -3.94665 0
M  V30 3310 C 312.494 3.4458 -4.74849 0
M  V30 3311 C 314.846 3.45485 -5.29927 0
M  V30 3312 C 313.51 3.47039 -5.70193 0
M  V30 3313 H 312.78 0.657928 -0.340898 0
M  V30 3314 H 315.427 1.26091 -1.44129 0
M  V30 3315 H 313.732 3.81208 -0.904859 0
M  V30 3316 H 315.429 3.79486 -1.29582 0
M  V30 3317 H 312.019 3.35932 -2.66172 0
M  V30 3318 H 316.203 3.37113 -3.64237 0
M  V30 3319 H 311.459 3.44083 -5.05388 0
M  V30 3320 H 315.633 3.46476 -6.04092 0
M  V30 3321 H 313.26 3.49522 -6.75084 0
M  V30 3322 N 314.835 0.952656 1.25548 0
M  V30 3323 C 316.083 0.605176 1.92826 0
M  V30 3324 C 316.404 -0.860261 1.74999 0
M  V30 3325 O 315.674 -1.6125 1.11244 0
M  V30 3326 H 314.254 0.220832 0.713612 0
M  V30 3327 H 316.916 1.21047 1.52754 0
M  V30 3328 H 316.012 0.832798 3.00784 0
M  V30 3329 N 316.313 -1.40141 0.720998 0
M  V30 3330 C 317.562 -2.0002 0.259804 0
M  V30 3331 C 317.875 -1.57839 -1.15526 0
M  V30 3332 O 319.081 -2.10455 -1.71525 0
M  V30 3333 C 317.537 -3.57516 0.413566 0
M  V30 3334 C 317.145 -4.08667 1.83562 0
M  V30 3335 C 318.889 -4.24498 0.0134387 0
M  V30 3336 C 316.796 -5.58686 1.93968 0
M  V30 3337 H 315.726 -0.748195 0.0933806 0
M  V30 3338 H 318.377 -1.60313 0.892866 0
M  V30 3339 H 316.759 -3.9495 -0.288169 0
M  V30 3340 H 317.933 -3.82598 2.56817 0
M  V30 3341 H 316.248 -3.543 2.1877 0
M  V30 3342 H 318.845 -5.34654 0.0703954 0
M  V30 3343 H 319.188 -4.03375 -1.02927 0
M  V30 3344 H 319.721 -3.92188 0.665815 0
M  V30 3345 H 316.46 -5.8467 2.96379 0
M  V30 3346 H 315.98 -5.86602 1.25131 0
M  V30 3347 H 317.659 -6.23875 1.71431 0
M  V30 3348 N 317.792 -0.46758 -1.50504 0
M  V30 3349 C 319.02 0.0864133 -2.06719 0
M  V30 3350 C 319.435 1.33819 -1.33184 0
M  V30 3351 O 318.792 1.78061 -0.400083 0
M  V30 3352 C 318.843 0.378079 -3.59517 0
M  V30 3353 O 318.564 -0.824044 -4.3028 0
M  V30 3354 C 320.065 0.979426 -4.32345 0
M  V30 3355 H 317.285 -0.00551697 -0.670977 0
M  V30 3356 H 319.829 -0.655354 -1.93715 0
M  V30 3357 H 317.984 1.06977 -3.72337 0
M  V30 3358 H 318.398 -0.566518 -5.21432 0
M  V30 3359 H 319.872 1.1333 -5.40241 0
M  V30 3360 H 320.349 1.9686 -3.9261 0
M  V30 3361 H 320.955 0.326216 -4.24047 0
M  V30 3362 N 319.27 1.56325 -0.20005 0
M  V30 3363 C 320.233 2.18084 0.705132 0
M  V30 3364 C 321.233 1.13666 1.1374 0
M  V30 3365 O 322.423 1.39023 1.04968 0
M  V30 3366 C 319.555 2.78689 1.96329 0
M  V30 3367 H 320.748 2.99435 0.167023 0
M  V30 3368 H 318.301 1.56221 0.0495725 0
M  V30 3369 H 319.036 2.0115 2.5438 0
M  V30 3370 H 318.821 3.55133 1.66202 0
M  V30 3371 H 320.311 3.26096 2.60866 0
M  V30 3372 N 320.748 -0.0735177 1.57428 0
M  V30 3373 C 321.997 -0.771809 1.86349 0
M  V30 3374 C 322.31 -1.78828 0.792452 0
M  V30 3375 O 323.516 -2.53602 0.96945 0
M  V30 3376 C 321.972 -1.42358 3.30548 0
M  V30 3377 C 321.58 -0.445761 4.45777 0
M  V30 3378 C 323.324 -2.10434 3.6867 0
M  V30 3379 C 321.231 -1.10335 5.81016 0
M  V30 3380 H 320.161 -0.291999 0.695164 0
M  V30 3381 H 322.812 -0.0250749 1.83483 0
M  V30 3382 H 321.194 -2.21852 3.28021 0
M  V30 3383 H 322.368 0.319239 4.59693 0
M  V30 3384 H 320.683 0.130457 4.16196 0
M  V30 3385 H 323.28 -2.60405 4.67004 0
M  V30 3386 H 323.623 -2.90298 2.98383 0
M  V30 3387 H 324.156 -1.37773 3.7318 0
M  V30 3388 H 320.895 -0.345061 6.54591 0
M  V30 3389 H 320.415 -1.83925 5.70904 0
M  V30 3390 H 322.094 -1.62367 6.26295 0
M  V30 3391 N 322.226 -1.5378 -0.344866 0
M  V30 3392 C 323.136 -1.84667 -1.4469 0
M  V30 3393 C 324.152 -0.736704 -1.57635 0
M  V30 3394 O 325.328 -1.02888 -1.73136 0
M  V30 3395 C 322.393 -2.04869 -2.79696 0
M  V30 3396 C 321.454 -3.28731 -2.76106 0
M  V30 3397 C 320.687 -3.4796 -4.04673 0
M  V30 3398 O 320.91 -2.71052 -5.01883 0
M  V30 3399 O 319.844 -4.41383 -4.09224 0
M  V30 3400 H 323.67 -2.78334 -1.21506 0
M  V30 3401 H 321.255 -1.39418 -0.536921 0
M  V30 3402 H 323.137 -2.19609 -3.59652 0
M  V30 3403 H 321.812 -1.14391 -3.02814 0
M  V30 3404 H 320.719 -3.19396 -1.94774 0
M  V30 3405 H 322.052 -4.19198 -2.57941 0
M  V30 3406 N 323.704 0.605807 -1.45491 0
M  V30 3407 C 324.634 1.72709 -1.57143 0
M  V30 3408 C 325.615 1.6476 -0.422884 0
M  V30 3409 O 326.8 1.83132 -0.646247 0
M  V30 3410 C 323.93 3.11316 -1.53948 0
M  V30 3411 C 322.884 3.34077 -2.67537 0
M  V30 3412 C 322.21 4.72975 -2.49397 0
M  V30 3413 C 323.51 3.24158 -4.09535 0
M  V30 3414 H 325.204 1.63214 -2.51001 0
M  V30 3415 H 322.75 0.78379 -1.208 0
M  V30 3416 H 324.703 3.89557 -1.60696 0
M  V30 3417 H 323.427 3.21655 -0.566205 0
M  V30 3418 H 322.086 2.58227 -2.6022 0
M  V30 3419 H 321.734 4.8005 -1.50205 0
M  V30 3420 H 321.434 4.8916 -3.25571 0
M  V30 3421 H 322.958 5.53414 -2.58002 0
M  V30 3422 H 324.372 3.92271 -4.18086 0
M  V30 3423 H 322.769 3.51872 -4.86113 0
M  V30 3424 H 323.839 2.2157 -4.31317 0
M  V30 3425 N 325.182 1.32811 0.848464 0
M  V30 3426 C 326.145 1.22194 1.9391 0
M  V30 3427 C 327.145 0.143404 1.60159 0
M  V30 3428 O 328.335 0.394253 1.6968 0
M  V30 3429 C 325.467 0.88067 3.29328 0
M  V30 3430 H 326.66 2.19127 2.04752 0
M  V30 3431 H 324.213 1.16731 1.0394 0
M  V30 3432 H 324.948 -0.0865776 3.24184 0
M  V30 3433 H 324.733 1.66052 3.55203 0
M  V30 3434 H 326.223 0.830871 4.09251 0
M  V30 3435 N 326.66 -1.06551 1.16123 0
M  V30 3436 C 327.888 -1.83005 0.965237 0
M  V30 3437 C 328.303 -1.82423 -0.486542 0
M  V30 3438 O 327.66 -1.24152 -1.33763 0
M  V30 3439 C 327.711 -3.29733 1.48183 0
M  V30 3440 O 327.432 -3.30416 2.87674 0
M  V30 3441 C 328.933 -4.22926 1.32848 0
M  V30 3442 H 326.153 -0.577118 0.342309 0
M  V30 3443 H 328.697 -1.3445 1.54089 0
M  V30 3444 H 326.852 -3.75609 0.948517 0
M  V30 3445 H 327.266 -4.22149 3.11272 0
M  V30 3446 H 328.74 -5.23916 1.73827 0
M  V30 3447 H 329.217 -4.38346 0.273692 0
M  V30 3448 H 329.823 -3.82894 1.85127 0
M  V30 3449 N 328.138 -0.959301 -1.25041 0
M  V30 3450 C 329.386 -0.615393 -1.92503 0
M  V30 3451 C 329.707 0.850969 -1.75452 0
M  V30 3452 O 328.977 1.60658 -1.12098 0
M  V30 3453 H 327.557 -0.224613 -0.712431 0
M  V30 3454 H 330.219 -1.21855 -1.5211 0
M  V30 3455 H 329.315 -0.848738 -3.00338 0
M  V30 3456 N 329.616 1.39756 -0.72842 0
M  V30 3457 C 330.579 2.29012 -0.0927297 0
M  V30 3458 C 331.579 1.45992 0.674025 0
M  V30 3459 O 332.769 1.66749 0.50402 0
M  V30 3460 C 329.901 3.29396 0.878137 0
M  V30 3461 H 331.094 2.86729 -0.879011 0
M  V30 3462 H 328.647 1.48293 -0.493847 0
M  V30 3463 H 329.382 2.76722 1.69101 0
M  V30 3464 H 329.167 3.907 0.331051 0
M  V30 3465 H 330.657 3.96199 1.3197 0
M  V30 3466 N 331.094 0.475555 1.50254 0
M  V30 3467 C 332.057 -0.305016 2.27161 0
M  V30 3468 C 333.057 -0.916519 1.32123 0
M  V30 3469 O 334.247 -0.785003 1.5551 0
M  V30 3470 C 331.379 -1.43496 3.09227 0
M  V30 3471 H 332.572 0.369511 2.97615 0
M  V30 3472 H 330.125 0.229747 1.54602 0
M  V30 3473 H 330.86 -2.14441 2.43281 0
M  V30 3474 H 330.645 -1.00223 3.79075 0
M  V30 3475 H 332.135 -1.98548 3.67381 0
M  V30 3476 N 332.573 -1.56217 0.208337 0
M  V30 3477 C 333.984 -1.84243 -0.301904 0
M  V30 3478 C 334.335 -1.12939 -1.60434 0
M  V30 3479 O 333.46 -0.39461 -2.12772 0
M  V30 3480 C 334.055 -3.34231 -0.554543 0
M  V30 3481 C 332.614 -3.62621 -1.00912 0
M  V30 3482 C 331.761 -2.77224 -0.064933 0
M  V30 3483 H 334.712 -1.52712 0.431833 0
M  V30 3484 H 334.733 -3.5372 -1.40223 0
M  V30 3485 H 334.245 -3.86099 0.393561 0
M  V30 3486 H 332.346 -3.16197 -1.97104 0
M  V30 3487 H 332.459 -4.7071 -0.892674 0
M  V30 3488 H 330.823 -2.48256 -0.56929 0
M  V30 3489 H 331.606 -3.31887 0.877851 0
M  V30 3490 N 334.051 0.0651679 -1.57465 0
M  V30 3491 C 335.281 0.774683 -1.91526 0
M  V30 3492 C 335.689 1.71305 -0.803196 0
M  V30 3493 O 335.032 1.82231 0.231881 0
M  V30 3494 C 335.094 1.61645 -3.21109 0
M  V30 3495 C 334.758 0.846753 -4.49087 0
M  V30 3496 C 335.755 0.163024 -5.19644 0
M  V30 3497 C 333.44 0.811966 -4.95694 0
M  V30 3498 C 335.434 -0.54519 -6.35064 0
M  V30 3499 C 333.121 0.0999836 -6.11018 0
M  V30 3500 C 334.119 -0.577388 -6.80555 0
M  V30 3501 O 333.807 -1.27789 -7.93678 0
M  V30 3502 H 333.539 0.225031 -0.637446 0
M  V30 3503 H 336.093 0.0377134 -2.05365 0
M  V30 3504 H 334.323 2.39638 -3.03497 0
M  V30 3505 H 336.012 2.20525 -3.40769 0
M  V30 3506 H 336.778 0.181163 -4.84662 0
M  V30 3507 H 332.657 1.32867 -4.41438 0
M  V30 3508 H 336.201 -1.07446 -6.89276 0
M  V30 3509 H 332.098 0.0797945 -6.45451 0
M  V30 3510 H 332.866 -1.18784 -8.09835 0
M  V30 3511 N 335.529 1.53961 0.336706 0
M  V30 3512 C 336.479 1.7881 1.41461 0
M  V30 3513 C 337.463 0.643561 1.47469 0
M  V30 3514 O 338.655 0.903166 1.52223 0
M  V30 3515 C 335.784 2.00722 2.78506 0
M  V30 3516 C 334.87 3.2126 2.76862 0
M  V30 3517 N 335.261 4.42588 2.44845 0
M  V30 3518 C 333.559 3.22568 3.08004 0
M  V30 3519 C 334.26 5.2447 2.51607 0
M  V30 3520 N 333.236 4.61344 2.87511 0
M  V30 3521 H 337.038 2.70205 1.15615 0
M  V30 3522 H 334.552 1.52978 0.545112 0
M  V30 3523 H 336.549 2.1666 3.5618 0
M  V30 3524 H 335.209 1.10573 3.05293 0
M  V30 3525 H 336.22 4.69819 2.17922 0
M  V30 3526 H 332.897 2.42409 3.39918 0
M  V30 3527 H 334.287 6.31324 2.29955 0
M  V30 3528 N 337.007 -0.598083 1.45811 0
M  V30 3529 C 337.954 -1.7082 1.55207 0
M  V30 3530 C 338.924 -1.61278 0.39732 0
M  V30 3531 O 340.109 -1.80717 0.612038 0
M  V30 3532 C 337.249 -3.09144 1.53376 0
M  V30 3533 C 336.362 -3.29423 2.79472 0
M  V30 3534 C 335.497 -4.57907 2.69248 0
M  V30 3535 C 334.536 -4.71476 3.90354 0
M  V30 3536 N 333.673 -5.9127 3.78608 0
M  V30 3537 H 338.513 -1.62125 2.50039 0
M  V30 3538 H 336.05 -0.790389 1.24062 0
M  V30 3539 H 338.008 -3.89186 1.50301 0
M  V30 3540 H 336.638 -3.16773 0.620876 0
M  V30 3541 H 335.69 -2.43091 2.92594 0
M  V30 3542 H 337.002 -3.3532 3.69272 0
M  V30 3543 H 336.156 -5.46157 2.64192 0
M  V30 3544 H 334.895 -4.54423 1.77063 0
M  V30 3545 H 333.9 -3.81648 3.95759 0
M  V30 3546 H 335.125 -4.76751 4.83617 0
M  V30 3547 H 333.071 -5.88813 2.89199 0
M  V30 3548 H 332.988 -5.98369 4.6205 0
M  V30 3549 H 334.256 -6.81992 3.77501 0
M  V30 3550 N 338.485 -1.33259 -0.841409 0
M  V30 3551 C 339.715 -1.2742 -1.62628 0
M  V30 3552 C 340.123 0.157604 -1.88542 0
M  V30 3553 O 339.466 1.10938 -1.46419 0
M  V30 3554 C 339.528 -1.97797 -3.00194 0
M  V30 3555 C 339.192 -3.47109 -2.97261 0
M  V30 3556 C 340.189 -4.42358 -2.73159 0
M  V30 3557 C 337.874 -3.89247 -3.17478 0
M  V30 3558 C 339.868 -5.77718 -2.69296 0
M  V30 3559 C 337.555 -5.24713 -3.13241 0
M  V30 3560 C 338.553 -6.1876 -2.89181 0
M  V30 3561 O 338.241 -7.51745 -2.84843 0
M  V30 3562 H 337.973 -0.440436 -0.512827 0
M  V30 3563 H 340.527 -1.76153 -1.05638 0
M  V30 3564 H 338.757 -1.43652 -3.59028 0
M  V30 3565 H 340.446 -1.8549 -3.61038 0
M  V30 3566 H 341.212 -4.11127 -2.57294 0
M  V30 3567 H 337.091 -3.16456 -3.35226 0
M  V30 3568 H 340.635 -6.51097 -2.50436 0
M  V30 3569 H 336.532 -5.55569 -3.28654 0
M  V30 3570 H 337.3 -7.61262 -3.00702 0
M  V30 3571 N 339.963 1.05934 -1.16686 0
M  V30 3572 C 341.374 1.60263 -0.957745 0
M  V30 3573 C 341.725 1.89789 0.49745 0
M  V30 3574 O 340.85 1.67401 1.37135 0
M  V30 3575 C 341.445 2.91172 -1.73218 0
M  V30 3576 C 340.004 3.42188 -1.56794 0
M  V30 3577 C 339.151 2.16028 -1.73859 0
M  V30 3578 H 342.102 0.888392 -1.31504 0
M  V30 3579 H 342.123 3.60744 -1.21014 0
M  V30 3580 H 341.635 2.6965 -2.79124 0
M  V30 3581 H 339.736 3.68762 -0.533437 0
M  V30 3582 H 339.849 4.17273 -2.35414 0
M  V30 3583 H 338.213 2.26426 -1.16633 0
M  V30 3584 H 338.996 1.96985 -2.81161 0
M  V30 3585 N 341.441 0.965919 1.2453 0
M  V30 3586 C 342.852 0.665929 1.7442 0
M  V30 3587 C 343.203 -0.818407 1.78316 0
M  V30 3588 O 342.328 -1.64037 1.41141 0
M  V30 3589 C 342.923 1.20211 3.16757 0
M  V30 3590 C 341.482 0.952059 3.6416 0
M  V30 3591 C 340.629 1.33848 2.42858 0
M  V30 3592 H 343.58 1.14144 1.10258 0
M  V30 3593 H 343.601 0.567544 3.76244 0
M  V30 3594 H 343.113 2.28244 3.13889 0
M  V30 3595 H 341.214 -0.112821 3.72429 0
M  V30 3596 H 341.327 1.59645 4.51719 0
M  V30 3597 H 339.691 0.756864 2.43195 0
M  V30 3598 H 340.474 2.42827 2.42673 0
M  V30 3599 N 342.919 -1.39368 0.735821 0
M  V30 3600 C 343.852 -2.28155 0.0451175 0
M  V30 3601 C 344.83 -1.44433 -0.746852 0
M  V30 3602 O 346.014 -1.73823 -0.729237 0
M  V30 3603 C 343.141 -3.253 -0.943266 0
M  V30 3604 C 342.187 -4.25826 -0.239685 0
M  V30 3605 S 343.02 -5.25166 1.04693 0
M  V30 3606 C 344.176 -6.2587 0.0611639 0
M  V30 3607 H 344.409 -2.86388 0.79807 0
M  V30 3608 H 341.942 -1.45104 0.527653 0
M  V30 3609 H 343.9 -3.81789 -1.50824 0
M  V30 3610 H 342.561 -2.66085 -1.66906 0
M  V30 3611 H 341.754 -4.94229 -0.987596 0
M  V30 3612 H 341.356 -3.73141 0.253274 0
M  V30 3613 H 343.648 -6.73007 -0.778941 0
M  V30 3614 H 344.591 -7.04508 0.712362 0
M  V30 3615 H 344.999 -5.63639 -0.311602 0
M  V30 3616 N 344.397 -0.483516 -1.5 0
M  V30 3617 C 345.344 0.304164 -2.28787 0
M  V30 3618 C 346.314 0.976114 -1.34392 0
M  V30 3619 O 347.499 0.986156 -1.63339 0
M  V30 3620 C 344.639 1.37298 -3.16612 0
M  V30 3621 C 343.752 0.714561 -4.26049 0
M  V30 3622 C 342.887 1.76232 -5.01114 0
M  V30 3623 C 341.926 1.08483 -6.0241 0
M  V30 3624 N 341.063 2.076 -6.70706 0
M  V30 3625 H 345.903 -0.373981 -2.95644 0
M  V30 3626 H 343.44 -0.196275 -1.45785 0
M  V30 3627 H 345.398 2.00445 -3.65893 0
M  V30 3628 H 344.028 2.02012 -2.51776 0
M  V30 3629 H 343.08 -0.0297798 -3.80388 0
M  V30 3630 H 344.392 0.180383 -4.98474 0
M  V30 3631 H 343.546 2.46929 -5.54176 0
M  V30 3632 H 342.285 2.33033 -4.28424 0
M  V30 3633 H 341.29 0.363545 -5.48597 0
M  V30 3634 H 342.515 0.523551 -6.77079 0
M  V30 3635 H 340.461 2.63394 -6.00799 0
M  V30 3636 H 340.378 1.59201 -7.39047 0
M  V30 3637 H 341.646 2.77639 -7.2838 0
M  V30 3638 N 345.875 1.56104 -0.216619 0
M  V30 3639 C 347.121 1.98466 0.417033 0
M  V30 3640 C 347.454 1.10403 1.59765 0
M  V30 3641 O 346.729 0.160632 1.93836 0
M  V30 3642 C 347.012 3.49769 0.85637 0
M  V30 3643 C 346.865 4.48606 -0.327546 0
M  V30 3644 C 348.184 4.05339 1.7143 0
M  V30 3645 H 345.303 0.721551 0.150112 0
M  V30 3646 H 347.945 1.87423 -0.311864 0
M  V30 3647 H 346.095 3.5931 1.47745 0
M  V30 3648 H 347.767 4.5108 -0.965618 0
M  V30 3649 H 346.01 4.22682 -0.975805 0
M  V30 3650 H 346.681 5.51995 0.0227149 0
M  V30 3651 H 349.157 3.98712 1.19031 0
M  V30 3652 H 348.033 5.11533 1.99061 0
M  V30 3653 H 348.294 3.51918 2.67593 0
M  V30 3654 N 347.353 -0.0568162 1.57498 0
M  V30 3655 C 348.283 -1.06593 2.0775 0
M  V30 3656 C 349.264 -1.39448 0.974082 0
M  V30 3657 O 350.449 -1.48815 1.24771 0
M  V30 3658 C 347.579 -2.37509 2.5339 0
M  V30 3659 C 346.533 -2.1897 3.67745 0
M  V30 3660 C 345.859 -3.55402 3.99492 0
M  V30 3661 C 347.159 -1.59859 4.97235 0
M  V30 3662 H 348.853 -0.647706 2.9231 0
M  V30 3663 H 346.399 -0.310116 1.40621 0
M  V30 3664 H 348.352 -3.08409 2.87162 0
M  V30 3665 H 347.076 -2.8134 1.65878 0
M  V30 3666 H 345.735 -1.50508 3.3428 0
M  V30 3667 H 345.383 -3.9683 3.09088 0
M  V30 3668 H 345.083 -3.43831 4.76502 0
M  V30 3669 H 346.607 -4.27708 4.35773 0
M  V30 3670 H 348.021 -2.20642 5.29141 0
M  V30 3671 H 346.418 -1.58942 5.78669 0
M  V30 3672 H 347.488 -0.561506 4.81638 0
M  V30 3673 N 348.832 -1.54138 -0.328536 0
M  V30 3674 C 349.765 -1.78014 -1.4278 0
M  V30 3675 C 350.743 -0.629889 -1.49904 0
M  V30 3676 O 351.927 -0.866763 -1.6739 0
M  V30 3677 C 349.054 -1.89225 -2.80912 0
M  V30 3678 C 348.1 -3.11483 -2.91343 0
M  V30 3679 S 348.933 -4.70201 -2.56263 0
M  V30 3680 C 350.089 -4.84312 -3.96476 0
M  V30 3681 H 350.322 -2.70974 -1.22313 0
M  V30 3682 H 347.855 -1.45197 -0.525084 0
M  V30 3683 H 349.813 -1.9637 -3.60485 0
M  V30 3684 H 348.474 -0.972518 -2.98665 0
M  V30 3685 H 347.667 -3.16046 -3.92595 0
M  V30 3686 H 347.269 -3.02642 -2.19736 0
M  V30 3687 H 349.561 -4.66643 -4.91173 0
M  V30 3688 H 350.504 -5.86411 -3.96898 0
M  V30 3689 H 350.912 -4.12652 -3.85199 0
M  V30 3690 N 350.31 0.590341 -1.46126 0
M  V30 3691 C 351.24 1.71032 -1.58966 0
M  V30 3692 C 352.221 1.64302 -0.440335 0
M  V30 3693 O 353.406 1.82436 -0.665634 0
M  V30 3694 C 350.536 3.09665 -1.57241 0
M  V30 3695 C 349.49 3.31221 -2.71066 0
M  V30 3696 C 348.816 4.70303 -2.54399 0
M  V30 3697 C 350.116 3.19796 -4.1295 0
M  V30 3698 H 351.81 1.60543 -2.52718 0
M  V30 3699 H 349.356 0.770933 -1.21625 0
M  V30 3700 H 351.309 3.87831 -1.64819 0
M  V30 3701 H 350.033 3.21036 -0.600289 0
M  V30 3702 H 348.692 2.55452 -2.62944 0
M  V30 3703 H 348.34 4.78429 -1.55288 0
M  V30 3704 H 348.04 4.85679 -3.30741 0
M  V30 3705 H 349.564 5.50647 -2.63857 0
M  V30 3706 H 350.978 3.87815 -4.22223 0
M  V30 3707 H 349.375 3.46696 -4.89818 0
M  V30 3708 H 350.445 2.16983 -4.33643 0
M  V30 3709 N 351.788 1.33704 0.83433 0
M  V30 3710 C 353.016 1.28467 1.62185 0
M  V30 3711 C 353.431 -0.143526 1.88254 0
M  V30 3712 O 352.788 -1.08709 1.4659 0
M  V30 3713 C 352.839 2.06174 2.96942 0
M  V30 3714 O 352.56 3.43422 2.72016 0
M  V30 3715 C 354.061 2.08201 3.91366 0
M  V30 3716 H 351.281 0.4424 0.504503 0
M  V30 3717 H 353.825 1.76145 1.03891 0
M  V30 3718 H 351.98 1.62167 3.51825 0
M  V30 3719 H 352.394 3.83453 3.57861 0
M  V30 3720 H 353.868 2.67017 4.83121 0
M  V30 3721 H 354.345 1.07343 4.2588 0
M  V30 3722 H 354.951 2.52246 3.42421 0
M  V30 3723 N 353.266 -1.05314 1.17247 0
M  V30 3724 C 354.196 -2.1498 0.911362 0
M  V30 3725 C 355.177 -1.69471 -0.146169 0
M  V30 3726 O 356.362 -1.942 0.003812 0
M  V30 3727 C 353.492 -3.4472 0.422528 0
M  V30 3728 C 352.446 -4.03789 1.4191 0
M  V30 3729 C 351.772 -5.28858 0.788274 0
M  V30 3730 C 353.072 -4.41418 2.7919 0
M  V30 3731 H 354.766 -2.3708 1.82848 0
M  V30 3732 H 352.312 -1.13938 0.880569 0
M  V30 3733 H 354.265 -4.20787 0.227289 0
M  V30 3734 H 352.989 -3.22269 -0.530123 0
M  V30 3735 H 351.648 -3.2979 1.60106 0
M  V30 3736 H 351.296 -5.02709 -0.171173 0
M  V30 3737 H 350.996 -5.69338 1.45353 0
M  V30 3738 H 352.52 -6.07612 0.603282 0
M  V30 3739 H 353.934 -5.08524 2.64719 0
M  V30 3740 H 352.331 -4.92913 3.42282 0
M  V30 3741 H 353.401 -3.51819 3.33693 0
M  V30 3742 N 354.744 -0.972509 -1.24016 0
M  V30 3743 C 355.676 -0.464375 -2.24446 0
M  V30 3744 C 356.689 0.4295 -1.57032 0
M  V30 3745 O 357.878 0.234902 -1.76948 0
M  V30 3746 C 354.978 0.348385 -3.37105 0
M  V30 3747 C 354.151 -0.53673 -4.34094 0
M  V30 3748 C 353.21 0.220838 -5.25736 0
M  V30 3749 O 352.236 -0.386867 -5.67884 0
M  V30 3750 N 353.438 1.50907 -5.60542 0
M  V30 3751 H 356.203 -1.32788 -2.68677 0
M  V30 3752 H 353.764 -0.844877 -1.38107 0
M  V30 3753 H 355.756 0.863341 -3.95384 0
M  V30 3754 H 354.326 1.11285 -2.92121 0
M  V30 3755 H 353.546 -1.23261 -3.74433 0
M  V30 3756 H 354.834 -1.14022 -4.95859 0
M  V30 3757 H 354.232 2.02444 -5.28236 0
M  V30 3758 H 352.789 1.96962 -6.21329 0
M  V30 3759 N 356.222 1.38976 -0.743202 0
M  V30 3760 C 357.17 2.32394 -0.0978389 0
M  V30 3761 C 358.164 1.53486 0.716824 0
M  V30 3762 O 359.37 1.69092 0.617088 0
M  V30 3763 H 355.745 0.75189 -0.0128402 0
M  V30 3764 H 357.716 2.84441 -0.901981 0
M  V30 3765 C 356.465 3.38629 0.789036 0
M  V30 3766 H 355.788 3.99432 0.171559 0
M  V30 3767 H 357.228 4.06426 1.20807 0
M  V30 3768 C 355.687 2.76347 1.92702 0
M  V30 3769 O 356.217 2.64836 3.02034 0
M  V30 3770 N 354.423 2.34311 1.71891 0
M  V30 3771 H 353.97 2.43873 0.829675 0
M  V30 3772 H 353.928 1.9298 2.48205 0
M  V30 3773 N 357.7 0.491464 1.49741 0
M  V30 3774 C 358.977 -0.118984 1.95238 0
M  V30 3775 C 359.357 -1.55044 1.43264 0
M  V30 3776 O 358.705 -2.19287 0.642287 0
M  V30 3777 C 358.915 -0.0414187 3.48975 0
M  V30 3778 C 360.263 -0.220133 4.24029 0
M  V30 3779 O 361.287 -0.117055 3.56008 0
M  V30 3780 O 360.146 -0.430567 5.44801 0
M  V30 3781 H 357.24 -0.100536 0.820866 0
M  V30 3782 H 359.786 0.553322 1.60426 0
M  V30 3783 H 358.558 0.957214 3.79412 0
M  V30 3784 H 358.181 -0.754292 3.9038 0
M  V30 3785 N 359.178 -1.55987 0.224894 0
M  V30 3786 C 360.589 -1.84553 -0.282345 0
M  V30 3787 C 360.94 -1.14634 -1.59227 0
M  V30 3788 O 360.065 -0.417155 -2.12341 0
M  V30 3789 C 360.66 -3.348 -0.519062 0
M  V30 3790 C 359.219 -3.63671 -0.970604 0
M  V30 3791 C 358.366 -2.77277 -0.0355261 0
M  V30 3792 H 361.317 -1.52245 0.448006 0
M  V30 3793 H 361.338 -3.55187 -1.36463 0
M  V30 3794 H 360.85 -3.8566 0.43449 0
M  V30 3795 H 358.951 -3.1827 -1.9374 0
M  V30 3796 H 359.064 -4.71631 -0.842698 0
M  V30 3797 H 357.428 -2.48846 -0.542927 0
M  V30 3798 H 358.211 -3.30937 0.913003 0
M  V30 3799 N 360.656 0.0484629 -1.57525 0
M  V30 3800 C 362.067 0.597486 -1.76881 0
M  V30 3801 C 362.418 1.76664 -0.853475 0
M  V30 3802 O 361.543 2.16357 -0.0433656 0
M  V30 3803 C 362.138 1.09066 -3.20765 0
M  V30 3804 C 360.697 1.58535 -3.41385 0
M  V30 3805 C 359.844 0.514868 -2.72478 0
M  V30 3806 H 362.795 -0.177758 -1.57701 0
M  V30 3807 H 362.816 1.95875 -3.2621 0
M  V30 3808 H 362.328 0.239521 -3.8736 0
M  V30 3809 H 360.429 2.45898 -2.79937 0
M  V30 3810 H 360.542 1.64622 -4.49929 0
M  V30 3811 H 358.906 0.965407 -2.35695 0
M  V30 3812 H 359.689 -0.32648 -3.41744 0
M  V30 3813 N 362.134 1.5431 0.320358 0
M  V30 3814 C 363.359 1.76954 1.08175 0
M  V30 3815 C 363.784 0.518193 1.80821 0
M  V30 3816 O 363.142 -0.530411 1.73368 0
M  V30 3817 C 363.19 2.96451 2.05303 0
M  V30 3818 O 362.294 2.68221 3.13259 0
M  V30 3819 H 361.635 0.586275 0.311733 0
M  V30 3820 H 364.165 2.01342 0.363676 0
M  V30 3821 H 364.175 3.23887 2.48116 0
M  V30 3822 H 362.85 3.87196 1.51829 0
M  V30 3823 H 361.427 2.51744 2.75099 0
M  V30 3824 N 363.613 -0.582584 1.46437 0
M  V30 3825 C 364.543 -1.70187 1.59871 0
M  V30 3826 C 365.524 -1.64066 0.449042 0
M  V30 3827 O 366.709 -1.82081 0.6753 0
M  V30 3828 C 363.839 -3.08827 1.58881 0
M  V30 3829 C 362.793 -3.29779 2.72819 0
M  V30 3830 C 362.119 -4.68947 2.5689 0
M  V30 3831 C 363.419 -3.17601 4.1464 0
M  V30 3832 H 365.113 -1.592 2.53566 0
M  V30 3833 H 362.659 -0.764472 1.22032 0
M  V30 3834 H 364.612 -3.86951 1.66873 0
M  V30 3835 H 363.336 -3.20713 0.617306 0
M  V30 3836 H 361.995 -2.54054 2.64296 0
M  V30 3837 H 361.643 -4.77599 1.57823 0
M  V30 3838 H 361.343 -4.83919 3.33312 0
M  V30 3839 H 362.867 -5.4924 2.66773 0
M  V30 3840 H 364.281 -3.8557 4.24274 0
M  V30 3841 H 362.678 -3.44094 4.9165 0
M  V30 3842 H 363.748 -2.14681 4.34788 0
M  V30 3843 N 365.091 -1.34144 -0.827227 0
M  V30 3844 C 366.001 -1.27428 -1.96975 0
M  V30 3845 C 367.017 -0.182728 -1.73038 0
M  V30 3846 O 368.193 -0.408426 -1.97215 0
M  V30 3847 C 365.258 -1.02526 -3.31194 0
M  V30 3848 C 364.319 -2.20796 -3.68168 0
M  V30 3849 C 363.552 -1.97073 -4.95982 0
M  V30 3850 O 363.775 -0.926822 -5.6282 0
M  V30 3851 O 362.709 -2.83912 -5.30733 0
M  V30 3852 H 366.535 -2.23537 -2.05584 0
M  V30 3853 H 364.12 -1.14307 -0.961989 0
M  V30 3854 H 366.002 -0.904026 -4.11589 0
M  V30 3855 H 364.677 -0.0945389 -3.23562 0
M  V30 3856 H 363.584 -2.38477 -2.88235 0
M  V30 3857 H 364.917 -3.12243 -3.8048 0
M  V30 3858 N 366.569 1.04691 -1.17803 0
M  V30 3859 C 367.797 1.81446 -0.99423 0
M  V30 3860 C 368.212 1.83174 0.457459 0
M  V30 3861 O 367.569 1.26265 1.31771 0
M  V30 3862 C 367.62 3.27334 -1.5341 0
M  V30 3863 O 367.341 3.25798 -2.92895 0
M  V30 3864 C 368.842 4.20759 -1.39559 0
M  V30 3865 H 366.062 0.571599 -0.351447 0
M  V30 3866 H 368.606 1.31982 -1.56208 0
M  V30 3867 H 366.761 3.74052 -1.00815 0
M  V30 3868 H 367.175 4.17144 -3.17949 0
M  V30 3869 H 368.649 5.21084 -1.82141 0
M  V30 3870 H 369.126 4.37856 -0.343394 0
M  V30 3871 H 369.732 3.79901 -1.91195 0
M  V30 3872 N 368.047 0.979072 1.23499 0
M  V30 3873 C 369.295 0.645941 1.91499 0
M  V30 3874 C 369.616 -0.822948 1.76784 0
M  V30 3875 O 368.886 -1.58854 1.14639 0
M  V30 3876 H 367.466 0.235919 0.708767 0
M  V30 3877 H 370.128 1.2426 1.50152 0
M  V30 3878 H 369.224 0.896411 2.9895 0
M  V30 3879 N 369.525 -1.3858 0.750561 0
M  V30 3880 C 370.771 -2.00481 0.305825 0
M  V30 3881 C 371.104 -1.5944 -1.10872 0
M  V30 3882 O 370.379 -0.83052 -1.75877 0
M  V30 3883 C 370.662 -3.5758 0.425287 0
M  V30 3884 C 370.515 -4.08594 1.88072 0
M  V30 3885 C 371.834 -4.39719 -0.183122 0
M  V30 3886 H 368.953 -0.728348 0.112598 0
M  V30 3887 H 371.595 -1.64566 0.949638 0
M  V30 3888 H 369.745 -3.88306 -0.122828 0
M  V30 3889 H 371.417 -3.88523 2.48691 0
M  V30 3890 H 369.66 -3.61574 2.39681 0
M  V30 3891 H 370.331 -5.177 1.91548 0
M  V30 3892 H 372.807 -4.15128 0.284303 0
M  V30 3893 H 371.683 -5.48856 -0.0692757 0
M  V30 3894 H 371.944 -4.23434 -1.27106 0
M  V30 3895 N 371.003 -0.499398 -1.49478 0
M  V30 3896 C 371.935 0.316575 -2.27003 0
M  V30 3897 C 372.948 0.932047 -1.33479 0
M  V30 3898 O 374.137 0.815658 -1.58774 0
M  V30 3899 C 371.237 1.46055 -3.05812 0
M  V30 3900 C 370.41 0.952679 -4.26899 0
M  V30 3901 C 369.469 1.97407 -4.87767 0
M  V30 3902 O 368.495 1.54326 -5.4788 0
M  V30 3903 N 369.697 3.30436 -4.77276 0
M  V30 3904 H 372.462 -0.348168 -2.97671 0
M  V30 3905 H 370.023 -0.33185 -1.58463 0
M  V30 3906 H 372.015 2.14135 -3.43407 0
M  V30 3907 H 370.585 2.02948 -2.37762 0
M  V30 3908 H 369.805 0.0968248 -3.94081 0
M  V30 3909 H 371.093 0.59174 -5.05347 0
M  V30 3910 H 370.491 3.68126 -4.29534 0
M  V30 3911 H 369.048 3.94235 -5.19059 0
M  V30 3912 N 372.481 1.55866 -0.233164 0
M  V30 3913 C 373.758 1.90471 0.444988 0
M  V30 3914 C 374.138 1.15209 1.7689 0
M  V30 3915 O 373.486 0.265119 2.26957 0
M  V30 3916 C 373.696 3.4333 0.626559 0
M  V30 3917 C 375.044 4.14319 0.92871 0
M  V30 3918 O 376.068 3.48993 0.712926 0
M  V30 3919 O 374.927 5.29846 1.33887 0
M  V30 3920 H 372.021 0.792347 0.236885 0
M  V30 3921 H 374.567 1.67437 -0.276211 0
M  V30 3922 H 373.339 3.90095 -0.306822 0
M  V30 3923 H 372.962 3.72181 1.39881 0
M  V30 3924 N 373.959 -0.0401083 1.57549 0
M  V30 3925 C 374.906 -1.04413 2.05831 0
M  V30 3926 C 375.876 -1.36585 0.945184 0
M  V30 3927 O 377.061 -1.47112 1.21502 0
M  V30 3928 C 374.201 -2.34336 2.53339 0
M  V30 3929 C 373.314 -2.08419 3.78398 0
M  V30 3930 C 372.449 -3.32133 4.14561 0
M  V30 3931 C 371.488 -3.01721 5.3257 0
M  V30 3932 N 370.625 -4.17855 5.64218 0
M  V30 3933 H 375.465 -0.625442 2.91363 0
M  V30 3934 H 373.002 -0.297218 1.44066 0
M  V30 3935 H 374.96 -3.10234 2.78946 0
M  V30 3936 H 373.59 -2.73948 1.7074 0
M  V30 3937 H 372.642 -1.23069 3.59942 0
M  V30 3938 H 373.954 -1.81978 4.64419 0
M  V30 3939 H 373.108 -4.16406 4.41238 0
M  V30 3940 H 371.847 -3.61678 3.2717 0
M  V30 3941 H 370.852 -2.15849 5.05657 0
M  V30 3942 H 372.077 -2.73466 6.21605 0
M  V30 3943 H 370.023 -4.47372 4.79786 0
M  V30 3944 H 369.94 -3.94798 6.44725 0
M  V30 3945 H 371.208 -5.03033 5.95465 0
M  V30 3946 N 375.437 -1.54477 -0.31217 0
M  V30 3947 C 376.347 -1.87695 -1.4074 0
M  V30 3948 C 377.363 -0.769975 -1.56036 0
M  V30 3949 O 378.539 -1.06537 -1.70915 0
M  V30 3950 C 375.604 -2.10755 -2.75287 0
M  V30 3951 C 374.665 -3.34514 -2.69071 0
M  V30 3952 C 373.898 -3.56465 -3.97201 0
M  V30 3953 O 374.121 -2.81637 -4.96021 0
M  V30 3954 O 373.055 -4.49964 -3.9977 0
M  V30 3955 H 376.881 -2.80849 -1.15574 0
M  V30 3956 H 374.466 -1.40526 -0.507228 0
M  V30 3957 H 376.348 -2.27188 -3.54913 0
M  V30 3958 H 375.023 -1.20788 -3.0032 0
M  V30 3959 H 373.93 -3.23456 -1.87955 0
M  V30 3960 H 375.263 -4.24575 -2.48992 0
M  V30 3961 N 376.915 0.57481 -1.46744 0
M  V30 3962 C 377.848 1.69827 -1.52427 0
M  V30 3963 C 378.826 1.58151 -0.377744 0
M  V30 3964 O 380.01 1.79257 -0.58303 0
M  V30 3965 C 377.137 3.07943 -1.41027 0
M  V30 3966 C 376.183 3.38116 -2.59961 0
M  V30 3967 S 377.016 3.29313 -4.22272 0
M  V30 3968 C 378.172 4.69953 -4.13394 0
M  V30 3969 H 378.405 1.64748 -2.47478 0
M  V30 3970 H 375.938 0.754203 -1.34726 0
M  V30 3971 H 377.896 3.87619 -1.35137 0
M  V30 3972 H 376.557 3.10504 -0.473909 0
M  V30 3973 H 375.75 4.38762 -2.47999 0
M  V30 3974 H 375.352 2.66024 -2.62882 0
M  V30 3975 H 377.644 5.60517 -3.80562 0
M  V30 3976 H 378.587 4.86972 -5.14066 0
M  V30 3977 H 378.995 4.47174 -3.44522 0
M  V30 3978 N 378.394 1.34581 0.820102 0
M  V30 3979 C 379.324 1.29038 1.94606 0
M  V30 3980 C 380.305 0.1673 1.69275 0
M  V30 3981 O 381.49 0.360112 1.90832 0
M  V30 3982 C 378.62 1.04793 3.31113 0
M  V30 3983 C 377.574 2.13597 3.70891 0
M  V30 3984 C 376.9 1.74537 5.05412 0
M  V30 3985 C 378.2 3.55451 3.8269 0
M  V30 3986 H 379.894 2.23248 1.99501 0
M  V30 3987 H 377.44 1.0747 0.958449 0
M  V30 3988 H 379.393 0.995592 4.0947 0
M  V30 3989 H 378.117 0.0702565 3.26524 0
M  V30 3990 H 376.776 2.17905 2.9481 0
M  V30 3991 H 376.424 0.754226 4.97313 0
M  V30 3992 H 376.124 2.47361 5.32997 0
M  V30 3993 H 377.648 1.70803 5.86224 0
M  V30 3994 H 379.062 3.5354 4.51312 0
M  V30 3995 H 377.459 4.26922 4.21732 0
M  V30 3996 H 378.529 3.92587 2.84611 0
M  V30 3997 N 379.872 -1.04064 1.18357 0
M  V30 3998 C 380.819 -2.12077 0.910603 0
M  V30 3999 C 381.789 -1.65421 -0.15 0
M  V30 4000 O 382.974 -1.90797 -0.0103614 0
M  V30 4001 C 380.114 -3.42252 0.442472 0
M  V30 4002 C 379.227 -4.0252 1.5685 0
M  V30 4003 C 378.362 -5.20657 1.05309 0
M  V30 4004 C 377.401 -5.72955 2.1538 0
M  V30 4005 N 376.538 -6.8238 1.65233 0
M  V30 4006 H 381.378 -2.34764 1.83548 0
M  V30 4007 H 378.915 -1.15157 0.915279 0
M  V30 4008 H 380.873 -4.16921 0.152534 0
M  V30 4009 H 379.503 -3.19712 -0.445428 0
M  V30 4010 H 378.555 -3.25178 1.97391 0
M  V30 4011 H 379.867 -4.37362 2.39824 0
M  V30 4012 H 379.021 -6.0244 0.717677 0
M  V30 4013 H 377.76 -4.87318 0.19293 0
M  V30 4014 H 376.765 -4.89793 2.49766 0
M  V30 4015 H 377.99 -6.08337 3.01832 0
M  V30 4016 H 375.936 -6.50917 0.815064 0
M  V30 4017 H 375.853 -7.16286 2.41805 0
M  V30 4018 H 377.121 -7.67788 1.34619 0
M  V30 4019 N 381.35 -0.985608 -1.22978 0
M  V30 4020 C 382.297 -0.529825 -2.24636 0
M  V30 4021 C 383.267 0.434028 -1.60329 0
M  V30 4022 O 384.452 0.340414 -1.87739 0
M  V30 4023 C 381.592 0.156533 -3.44745 0
M  V30 4024 C 380.705 -0.848197 -4.23591 0
M  V30 4025 C 379.84 -0.136109 -5.31026 0
M  V30 4026 C 378.879 -1.1297 -6.01585 0
M  V30 4027 N 378.016 -0.446415 -7.00679 0
M  V30 4028 H 382.856 -1.40148 -2.62988 0
M  V30 4029 H 380.393 -0.702168 -1.29259 0
M  V30 4030 H 382.351 0.571324 -4.1327 0
M  V30 4031 H 380.981 0.992025 -3.07179 0
M  V30 4032 H 380.033 -1.38135 -3.54433 0
M  V30 4033 H 381.345 -1.60512 -4.72268 0
M  V30 4034 H 380.499 0.335784 -6.0577 0
M  V30 4035 H 379.238 0.653373 -4.83304 0
M  V30 4036 H 378.243 -1.6123 -5.25628 0
M  V30 4037 H 379.468 -1.91993 -6.51395 0
M  V30 4038 H 377.414 0.323763 -6.55201 0
M  V30 4039 H 377.331 -1.1419 -7.47326 0
M  V30 4040 H 378.599 0.00291697 -7.795 0
M  V30 4041 N 382.828 1.3818 -0.7579 0
M  V30 4042 C 384.058 2.04004 -0.326463 0
M  V30 4043 C 384.466 1.57286 1.05156 0
M  V30 4044 O 383.809 0.743144 1.67997 0
M  V30 4045 C 383.871 3.58444 -0.275402 0
M  V30 4046 C 383.535 4.28237 -1.59569 0
M  V30 4047 C 384.532 4.53312 -2.54566 0
M  V30 4048 C 382.217 4.66341 -1.86631 0
M  V30 4049 C 384.211 5.15531 -3.74842 0
M  V30 4050 C 381.898 5.28283 -3.0718 0
M  V30 4051 C 382.896 5.52814 -4.01106 0
M  V30 4052 O 382.584 6.13465 -5.19534 0
M  V30 4053 H 382.316 0.662026 -0.136739 0
M  V30 4054 H 384.87 1.7777 -1.02893 0
M  V30 4055 H 383.1 3.83667 0.483337 0
M  V30 4056 H 384.789 4.05701 0.127099 0
M  V30 4057 H 385.555 4.24299 -2.34936 0
M  V30 4058 H 381.434 4.46591 -1.14358 0
M  V30 4059 H 384.978 5.34594 -4.48168 0
M  V30 4060 H 380.875 5.56719 -3.26702 0
M  V30 4061 H 381.643 6.31951 -5.20173 0
M  V30 4062 N 384.306 0.507319 1.49211 0
M  V30 4063 C 385.554 -0.0348839 2.0207 0
M  V30 4064 C 385.875 -1.36898 1.38866 0
M  V30 4065 O 385.145 -1.88133 0.546151 0
M  V30 4066 H 383.725 -0.0158812 0.746831 0
M  V30 4067 H 386.387 0.665998 1.83168 0
M  V30 4068 H 385.483 -0.159917 3.1169 0
M  V30 4069 N 385.784 -1.5574 0.241426 0
M  V30 4070 C 386.731 -2.21149 -0.660432 0
M  V30 4071 C 387.701 -1.17356 -1.17545 0
M  V30 4072 O 388.886 -1.45784 -1.23093 0
M  V30 4073 C 386.026 -2.91059 -1.85414 0
M  V30 4074 C 385.139 -4.09495 -1.37616 0
M  V30 4075 C 384.274 -4.67135 -2.529 0
M  V30 4076 C 383.313 -5.77831 -2.01936 0
M  V30 4077 N 382.45 -6.29677 -3.10566 0
M  V30 4078 H 387.29 -2.97845 -0.095955 0
M  V30 4079 H 384.827 -1.47057 -0.0356024 0
M  V30 4080 H 386.785 -3.29788 -2.5553 0
M  V30 4081 H 385.415 -2.16846 -2.39118 0
M  V30 4082 H 384.467 -3.76117 -0.569235 0
M  V30 4083 H 385.779 -4.89423 -0.962618 0
M  V30 4084 H 384.933 -5.08409 -3.31067 0
M  V30 4085 H 383.672 -3.86411 -2.97553 0
M  V30 4086 H 382.677 -5.36039 -1.22238 0
M  V30 4087 H 383.902 -6.60402 -1.58259 0
M  V30 4088 H 381.848 -5.5186 -3.54664 0
M  V30 4089 H 381.765 -7.04783 -2.73526 0
M  V30 4090 H 383.033 -6.75609 -3.88809 0
M  V30 4091 N 387.262 0.0317525 -1.57568 0
M  V30 4092 C 388.487 0.738664 -1.938 0
M  V30 4093 C 388.912 1.68242 -0.841208 0
M  V30 4094 O 388.27 1.80157 0.203267 0
M  V30 4095 C 388.318 1.47417 -3.29091 0
M  V30 4096 O 387.422 2.5872 -3.2115 0
M  V30 4097 H 386.763 0.198856 -0.633524 0
M  V30 4098 H 389.293 -0.0119713 -2.04596 0
M  V30 4099 H 389.303 1.84468 -3.63917 0
M  V30 4100 H 387.978 0.781988 -4.08482 0
M  V30 4101 H 386.555 2.24231 -2.97951 0
M  V30 4102 N 388.74 1.54641 0.303973 0
M  V30 4103 C 389.987 1.7378 1.03955 0
M  V30 4104 C 390.315 0.521986 1.87365 0
M  V30 4105 O 389.57 -0.496099 1.89308 0
M  V30 4106 C 389.869 2.97753 1.97681 0
M  V30 4107 C 389.535 4.31671 1.30271 0
M  V30 4108 C 388.197 4.68075 1.11619 0
M  V30 4109 C 390.549 5.147 0.82055 0
M  V30 4110 C 387.877 5.8509 0.434304 0
M  V30 4111 C 390.229 6.32416 0.152395 0
M  V30 4112 C 388.893 6.67484 -0.0461067 0
M  V30 4113 H 388.163 0.635908 0.380398 0
M  V30 4114 H 390.81 1.88896 0.314718 0
M  V30 4115 H 389.115 2.77406 2.76682 0
M  V30 4116 H 390.812 3.09756 2.54661 0
M  V30 4117 H 387.402 4.03041 1.45795 0
M  V30 4118 H 391.586 4.87077 0.952374 0
M  V30 4119 H 386.842 6.10806 0.269495 0
M  V30 4120 H 391.016 6.96023 -0.229126 0
M  V30 4121 H 388.643 7.58011 -0.576494 0
M  V30 4122 N 390.218 -0.567019 1.47046 0
M  V30 4123 C 391.634 -0.891975 1.32348 0
M  V30 4124 C 391.834 -1.99154 0.306616 0
M  V30 4125 O 390.89 -2.50883 -0.28532 0
M  V30 4126 C 392.203 -1.29449 2.7141 0
M  V30 4127 C 393.751 -1.40646 2.79621 0
M  V30 4128 C 394.226 -1.84257 4.19301 0
M  V30 4129 N 395.717 -1.91424 4.21795 0
M  V30 4130 C 396.452 -2.26476 5.26779 0
M  V30 4131 N 395.948 -2.60211 6.42077 0
M  V30 4132 N 397.741 -2.27166 5.14152 0
M  V30 4133 H 389.892 0.159074 2.11803 0
M  V30 4134 H 392.155 0.00849752 0.947962 0
M  V30 4135 H 391.861 -0.560448 3.47206 0
M  V30 4136 H 391.735 -2.25273 3.02542 0
M  V30 4137 H 394.122 -2.13133 2.04104 0
M  V30 4138 H 394.203 -0.430339 2.52154 0
M  V30 4139 H 393.847 -1.12343 4.95319 0
M  V30 4140 H 393.777 -2.82855 4.44185 0
M  V30 4141 H 396.268 -1.6778 3.38612 0
M  V30 4142 H 396.581 -2.85956 7.17948 0
M  V30 4143 H 394.926 -2.57813 6.45413 0
M  V30 4144 H 398.117 -2.00244 4.23107 0
M  V30 4145 H 398.29 -2.54154 5.96079 0
M  V30 4146 N 391.696 -1.35014 -0.812953 0
M  V30 4147 C 392.643 -1.27412 -1.92444 0
M  V30 4148 C 393.613 -0.14733 -1.65445 0
M  V30 4149 O 394.798 -0.329974 -1.87925 0
M  V30 4150 C 391.938 -1.04558 -3.28879 0
M  V30 4151 C 391.051 -2.26101 -3.68106 0
M  V30 4152 C 390.186 -1.96449 -4.9354 0
M  V30 4153 C 389.225 -3.14081 -5.25376 0
M  V30 4154 N 388.362 -2.84246 -6.41988 0
M  V30 4155 H 393.202 -2.22463 -1.98278 0
M  V30 4156 H 390.739 -1.10593 -0.969933 0
M  V30 4157 H 392.697 -0.893413 -4.07522 0
M  V30 4158 H 391.327 -0.131719 -3.22531 0
M  V30 4159 H 390.379 -2.52204 -2.84775 0
M  V30 4160 H 391.691 -3.13959 -3.87597 0
M  V30 4161 H 390.845 -1.78026 -5.79993 0
M  V30 4162 H 389.584 -1.05867 -4.76071 0
M  V30 4163 H 388.589 -3.33089 -4.37415 0
M  V30 4164 H 389.814 -4.05455 -5.44778 0
M  V30 4165 H 387.76 -1.96252 -6.25956 0
M  V30 4166 H 387.677 -3.65637 -6.61699 0
M  V30 4167 H 388.945 -2.6935 -7.31485 0
M  V30 4168 N 393.175 1.03435 -1.18907 0
M  V30 4169 C 394.108 2.11162 -0.86521 0
M  V30 4170 C 395.086 1.6165 0.175473 0
M  V30 4171 O 396.27 1.88425 0.0530129 0
M  V30 4172 C 393.397 3.37423 -0.293868 0
M  V30 4173 C 392.443 4.05795 -1.31274 0
M  V30 4174 S 393.276 4.52027 -2.8711 0
M  V30 4175 C 394.432 5.81513 -2.31504 0
M  V30 4176 H 394.665 2.38308 -1.77754 0
M  V30 4177 H 392.198 1.16295 -1.01562 0
M  V30 4178 H 394.156 4.1049 0.0292572 0
M  V30 4179 H 392.817 3.0838 0.596682 0
M  V30 4180 H 392.01 4.96574 -0.86198 0
M  V30 4181 H 391.612 3.38874 -1.58242 0
M  V30 4182 H 393.904 6.55784 -1.70157 0
M  V30 4183 H 394.847 6.3136 -3.20608 0
M  V30 4184 H 395.255 5.36921 -1.74286 0
M  V30 4185 N 394.653 0.992116 1.22453 0
M  V30 4186 C 395.902 0.662992 1.90492 0
M  V30 4187 C 396.215 -0.808407 1.78113 0
M  V30 4188 O 397.421 -1.24908 2.41061 0
M  V30 4189 C 395.877 1.1353 3.41524 0
M  V30 4190 C 395.485 2.63187 3.62542 0
M  V30 4191 C 397.229 0.880465 4.15269 0
M  V30 4192 C 395.136 3.04024 5.0727 0
M  V30 4193 H 394.066 0.244278 0.713333 0
M  V30 4194 H 396.717 1.20157 1.38688 0
M  V30 4195 H 395.099 0.52485 3.92506 0
M  V30 4196 H 396.273 3.2957 3.22056 0
M  V30 4197 H 394.588 2.86543 3.02129 0
M  V30 4198 H 397.185 1.16128 5.21937 0
M  V30 4199 H 397.528 -0.183408 4.15896 0
M  V30 4200 H 398.061 1.45307 3.70312 0
M  V30 4201 H 394.8 4.09584 5.11782 0
M  V30 4202 H 394.32 2.42343 5.48662 0
M  V30 4203 H 395.999 2.95282 5.75689 0
M  V30 4204 N 396.131 -1.37776 0.765217 0
M  V30 4205 C 397.356 -2.04651 0.336537 0
M  V30 4206 C 397.781 -1.57337 -1.03086 0
M  V30 4207 O 397.139 -0.730621 -1.65927 0
M  V30 4208 C 397.187 -3.58577 0.381468 0
M  V30 4209 O 396.291 -4.07706 -0.62042 0
M  V30 4210 H 395.632 -0.64756 0.146838 0
M  V30 4211 H 398.162 -1.76221 1.03959 0
M  V30 4212 H 398.172 -4.07314 0.236448 0
M  V30 4213 H 396.847 -3.9237 1.37907 0
M  V30 4214 H 395.424 -3.70306 -0.439056 0
M  V30 4215 N 397.609 -0.515225 -1.4894 0
M  V30 4216 C 398.539 0.244628 -2.32215 0
M  V30 4217 C 399.52 0.949136 -1.41157 0
M  V30 4218 O 400.705 0.937783 -1.70057 0
M  V30 4219 C 397.835 1.30096 -3.22013 0
M  V30 4220 C 396.789 0.715486 -4.21977 0
M  V30 4221 C 396.115 1.87339 -5.00808 0
M  V30 4222 C 397.415 -0.302982 -5.2142 0
M  V30 4223 H 399.109 -0.450501 -2.95991 0
M  V30 4224 H 396.655 -0.218098 -1.42339 0
M  V30 4225 H 398.608 1.84037 -3.79089 0
M  V30 4226 H 397.332 2.02547 -2.56207 0
M  V30 4227 H 395.991 0.197715 -3.66066 0
M  V30 4228 H 395.639 2.58592 -4.31438 0
M  V30 4229 H 395.339 1.48764 -5.68457 0
M  V30 4230 H 396.863 2.41686 -5.60732 0
M  V30 4231 H 398.277 0.148802 -5.73107 0
M  V30 4232 H 396.674 -0.60532 -5.97039 0
M  V30 4233 H 397.744 -1.21395 -4.69459 0
M  V30 4234 N 399.087 1.5561 -0.249682 0
M  V30 4235 C 400.327 2.00916 0.37579 0
M  V30 4236 C 400.691 1.13409 1.54927 0
M  V30 4237 O 401.892 1.48183 2.24266 0
M  V30 4238 C 400.163 3.48949 0.772633 0
M  V30 4239 S 401.722 4.16261 1.38824 0
M  V30 4240 H 398.54 0.70112 0.118117 0
M  V30 4241 H 401.142 1.92052 -0.365567 0
M  V30 4242 H 399.846 4.103 -0.090683 0
M  V30 4243 H 399.377 3.61745 1.5461 0
M  V30 4244 H 401.392 4.17778 2.67724 0
M  V30 4245 N 400.565 -0.0233959 1.57583 0
M  V30 4246 C 401.495 -1.02162 2.09965 0
M  V30 4247 C 402.476 -1.3735 1.00344 0
M  V30 4248 O 403.661 -1.46135 1.27899 0
M  V30 4249 C 400.791 -2.32081 2.58371 0
M  V30 4250 C 399.745 -2.1112 3.72307 0
M  V30 4251 C 399.071 -3.46848 4.06941 0
M  V30 4252 C 400.371 -1.49276 5.00514 0
M  V30 4253 H 402.065 -0.585557 2.93618 0
M  V30 4254 H 399.611 -0.280218 1.41247 0
M  V30 4255 H 401.564 -3.02249 2.93639 0
M  V30 4256 H 400.288 -2.77758 1.71808 0
M  V30 4257 H 398.947 -1.43384 3.37397 0
M  V30 4258 H 398.595 -3.90184 3.17436 0
M  V30 4259 H 398.295 -3.33646 4.83688 0
M  V30 4260 H 399.819 -4.18369 4.44747 0
M  V30 4261 H 401.233 -2.09368 5.33702 0
M  V30 4262 H 399.63 -1.46632 5.8191 0
M  V30 4263 H 400.7 -0.459217 4.82721 0
M  V30 4264 N 402.043 -1.548 -0.295768 0
M  V30 4265 C 402.975 -1.82492 -1.3867 0
M  V30 4266 C 403.988 -0.708134 -1.46592 0
M  V30 4267 O 405.177 -0.985686 -1.48817 0
M  V30 4268 C 402.277 -1.95256 -2.76999 0
M  V30 4269 C 401.45 -3.25709 -2.91946 0
M  V30 4270 C 400.509 -3.28824 -4.10806 0
M  V30 4271 O 399.535 -4.02328 -4.02643 0
M  V30 4272 N 400.737 -2.5459 -5.21694 0
M  V30 4273 H 403.502 -2.76646 -1.15269 0
M  V30 4274 H 401.063 -1.54438 -0.485849 0
M  V30 4275 H 403.055 -1.94736 -3.54768 0
M  V30 4276 H 401.625 -1.08072 -2.93324 0
M  V30 4277 H 400.845 -3.38959 -2.01247 0
M  V30 4278 H 402.133 -4.11786 -2.98847 0
M  V30 4279 H 401.531 -1.94512 -5.31208 0
M  V30 4280 H 400.088 -2.59818 -5.97778 0
M  V30 4281 N 403.521 0.559213 -1.47345 0
M  V30 4282 C 404.468 1.66645 -1.59682 0
M  V30 4283 C 405.438 1.60168 -0.43994 0
M  V30 4284 O 406.623 1.79031 -0.659736 0
M  V30 4285 C 403.763 3.04969 -1.61518 0
M  V30 4286 C 402.876 3.21897 -2.88108 0
M  V30 4287 C 402.011 4.50608 -2.81294 0
M  V30 4288 C 401.05 4.60961 -4.02717 0
M  V30 4289 N 400.187 5.81024 -3.94151 0
M  V30 4290 H 405.027 1.55439 -2.54249 0
M  V30 4291 H 402.564 0.757219 -1.26113 0
M  V30 4292 H 404.522 3.85064 -1.60566 0
M  V30 4293 H 403.152 3.15015 -0.704645 0
M  V30 4294 H 402.204 2.35248 -2.98936 0
M  V30 4295 H 403.516 3.25412 -3.78032 0
M  V30 4296 H 402.67 5.3896 -2.7858 0
M  V30 4297 H 401.409 4.49568 -1.89049 0
M  V30 4298 H 400.414 3.71021 -4.05738 0
M  V30 4299 H 401.639 4.63761 -4.96087 0
M  V30 4300 H 399.585 5.80938 -3.04708 0
M  V30 4301 H 399.502 5.85909 -4.77752 0
M  V30 4302 H 400.77 6.71744 -3.9545 0
M  V30 4303 N 404.999 1.35443 0.805782 0
M  V30 4304 C 406.276 1.19325 1.54987 0
M  V30 4305 C 406.656 -0.227294 2.09873 0
M  V30 4306 O 406.004 -1.2309 1.92512 0
M  V30 4307 C 406.214 2.26196 2.65775 0
M  V30 4308 C 407.562 2.62043 3.34094 0
M  V30 4309 O 408.586 2.25115 2.76046 0
M  V30 4310 O 407.445 3.25542 4.38958 0
M  V30 4311 H 404.539 0.463623 0.684823 0
M  V30 4312 H 407.085 1.47127 0.845674 0
M  V30 4313 H 405.857 3.21471 2.23096 0
M  V30 4314 H 405.48 1.99667 3.43829 0
M  V30 4315 N 406.477 -1.02803 1.19454 0
M  V30 4316 C 407.888 -1.57667 0.999899 0
M  V30 4317 C 408.239 -1.91041 -0.446956 0
M  V30 4318 O 407.364 -1.70978 -1.32648 0
M  V30 4319 C 407.959 -2.86477 1.80877 0
M  V30 4320 C 406.518 -3.37911 1.65811 0
M  V30 4321 C 405.665 -2.11343 1.79526 0
M  V30 4322 H 408.616 -0.853214 1.33813 0
M  V30 4323 H 408.637 -3.57408 1.30536 0
M  V30 4324 H 408.149 -2.62155 2.86175 0
M  V30 4325 H 406.25 -3.67218 0.63102 0
M  V30 4326 H 406.363 -4.10885 2.46395 0
M  V30 4327 H 404.727 -2.23254 1.22596 0
M  V30 4328 H 405.51 -1.89461 2.86285 0
M  V30 4329 N 407.956 -0.998596 -1.21925 0
M  V30 4330 C 408.866 -0.562736 -2.27751 0
M  V30 4331 C 409.882 0.391203 -1.69545 0
M  V30 4332 O 411.058 0.256625 -1.99758 0
M  V30 4333 C 408.123 0.11012 -3.46525 0
M  V30 4334 C 407.184 -0.887495 -4.20026 0
M  V30 4335 C 406.417 -0.246654 -5.3313 0
M  V30 4336 O 406.64 0.958088 -5.62296 0
M  V30 4337 O 405.574 -0.954374 -5.94286 0
M  V30 4338 H 409.4 -1.44329 -2.67213 0
M  V30 4339 H 406.985 -0.767135 -1.28201 0
M  V30 4340 H 408.867 0.486756 -4.18579 0
M  V30 4341 H 407.542 0.965154 -3.08976 0
M  V30 4342 H 406.449 -1.31517 -3.5022 0
M  V30 4343 H 407.782 -1.71191 -4.6147 0
M  V30 4344 N 409.434 1.37368 -0.772513 0
M  V30 4345 C 410.381 2.30262 -0.157488 0
M  V30 4346 C 411.351 1.51137 0.688965 0
M  V30 4347 O 412.536 1.79704 0.641168 0
M  V30 4348 C 409.676 3.37611 0.715045 0
M  V30 4349 C 408.789 4.31746 -0.148098 0
M  V30 4350 C 407.924 5.26171 0.729213 0
M  V30 4351 C 406.963 6.11948 -0.136418 0
M  V30 4352 N 406.1 6.98613 0.698914 0
M  V30 4353 H 410.94 2.82277 -0.955179 0
M  V30 4354 H 408.477 1.38957 -0.482631 0
M  V30 4355 H 410.435 3.98479 1.23575 0
M  V30 4356 H 409.065 2.86959 1.47833 0
M  V30 4357 H 408.117 3.72178 -0.786613 0
M  V30 4358 H 409.429 4.92084 -0.81579 0
M  V30 4359 H 408.583 5.92247 1.31637 0
M  V30 4360 H 407.322 4.66246 1.43059 0
M  V30 4361 H 406.327 5.4485 -0.736102 0
M  V30 4362 H 407.552 6.73945 -0.835134 0
M  V30 4363 H 405.498 6.41215 1.38489 0
M  V30 4364 H 405.415 7.55948 0.0885358 0
M  V30 4365 H 406.683 7.69077 1.27044 0
M  V30 4366 N 410.912 0.523116 1.48665 0
M  V30 4367 C 412.328 0.180511 1.58576 0
M  V30 4368 C 412.528 -1.31597 1.52592 0
M  V30 4369 O 411.584 -2.0937 1.4114 0
M  V30 4370 C 412.897 0.776949 2.90489 0
M  V30 4371 C 414.445 0.745058 3.04003 0
M  V30 4372 C 414.92 1.31995 4.38567 0
M  V30 4373 N 416.411 1.28162 4.45117 0
M  V30 4374 C 417.146 1.6964 5.47731 0
M  V30 4375 N 416.642 2.18816 6.57337 0
M  V30 4376 N 418.435 1.6092 5.38573 0
M  V30 4377 H 410.586 1.4958 1.50797 0
M  V30 4378 H 412.849 0.621772 0.715614 0
M  V30 4379 H 412.555 1.82732 3.00503 0
M  V30 4380 H 412.429 0.25007 3.7637 0
M  V30 4381 H 414.816 -0.296532 2.93606 0
M  V30 4382 H 414.897 1.30933 2.1975 0
M  V30 4383 H 414.541 2.36043 4.49718 0
M  V30 4384 H 414.471 0.731418 5.21496 0
M  V30 4385 H 416.962 0.92155 3.66491 0
M  V30 4386 H 417.275 2.48478 7.31764 0
M  V30 4387 H 415.62 2.22805 6.58318 0
M  V30 4388 H 418.811 1.22304 4.5184 0
M  V30 4389 H 418.984 1.93567 6.18414 0
M  V30 4390 N 412.39 -1.55475 0.257931 0
M  V30 4391 C 413.801 -1.8511 -0.243135 0
M  V30 4392 C 414.152 -1.17986 -1.5676 0
M  V30 4393 O 413.277 -0.462102 -2.11409 0
M  V30 4394 C 413.872 -3.35826 -0.447929 0
M  V30 4395 C 412.431 -3.65647 -0.893245 0
M  V30 4396 C 411.578 -2.7729 0.0232965 0
M  V30 4397 H 414.529 -1.51261 0.480199 0
M  V30 4398 H 414.55 -3.58002 -1.28898 0
M  V30 4399 H 414.062 -3.84652 0.516196 0
M  V30 4400 H 412.163 -3.22308 -1.86945 0
M  V30 4401 H 412.276 -4.73312 -0.742469 0
M  V30 4402 H 410.64 -2.49942 -0.490021 0
M  V30 4403 H 411.423 -3.28926 0.982994 0
M  V30 4404 N 413.868 0.0150385 -1.57593 0
M  V30 4405 C 415.096 0.714395 -1.94175 0
M  V30 4406 C 415.511 1.68135 -0.858841 0
M  V30 4407 O 414.868 1.81766 0.163567 0
M  V30 4408 C 414.919 1.45933 -3.30735 0
M  V30 4409 O 414.64 0.531167 -4.34868 0
M  V30 4410 C 416.141 2.25456 -3.81686 0
M  V30 4411 H 413.361 0.199923 -0.640525 0
M  V30 4412 H 415.905 -0.0316096 -2.04476 0
M  V30 4413 H 414.06 2.15709 -3.21789 0
M  V30 4414 H 414.474 1.05509 -5.13778 0
M  V30 4415 H 415.948 2.731 -4.79709 0
M  V30 4416 H 416.425 3.07485 -3.13607 0
M  V30 4417 H 417.031 1.60727 -3.9376 0
M  V30 4418 N 415.346 1.54954 0.287554 0
M  V30 4419 C 416.309 1.86076 1.33823 0
M  V30 4420 C 417.309 0.734414 1.43049 0
M  V30 4421 O 418.499 1.00266 1.42452 0
M  V30 4422 C 415.631 2.05305 2.72144 0
M  V30 4423 H 416.824 2.79984 1.07465 0
M  V30 4424 H 414.377 1.47223 0.524902 0
M  V30 4425 H 415.112 1.1373 3.03704 0
M  V30 4426 H 414.897 2.873 2.66836 0
M  V30 4427 H 416.387 2.30706 3.48087 0
M  V30 4428 N 416.824 -0.551391 1.4764 0
M  V30 4429 C 417.787 -1.64007 1.60107 0
M  V30 4430 C 418.787 -1.53601 0.47576 0
M  V30 4431 O 419.977 -1.57655 0.740988 0
M  V30 4432 C 417.109 -3.03569 1.55108 0
M  V30 4433 H 418.302 -1.543 2.57161 0
M  V30 4434 H 415.855 -0.771776 1.35917 0
M  V30 4435 H 416.59 -3.18804 0.594519 0
M  V30 4436 H 416.375 -3.12532 2.36783 0
M  V30 4437 H 417.865 -3.82762 1.66982 0
M  V30 4438 N 418.302 -1.35869 -0.798587 0
M  V30 4439 C 419.212 -1.31578 -1.94228 0
M  V30 4440 C 420.228 -0.21939 -1.72611 0
M  V30 4441 O 421.404 -0.450167 -1.96305 0
M  V30 4442 C 418.469 -1.09528 -3.28944 0
M  V30 4443 C 417.53 -2.28556 -3.63402 0
M  V30 4444 C 416.763 -2.07549 -4.9169 0
M  V30 4445 O 416.986 -1.046 -5.60727 0
M  V30 4446 O 415.92 -2.95106 -5.24591 0
M  V30 4447 H 419.746 -2.27847 -2.00796 0
M  V30 4448 H 417.331 -1.16322 -0.937526 0
M  V30 4449 H 419.213 -0.991127 -4.09579 0
M  V30 4450 H 417.888 -0.16315 -3.23289 0
M  V30 4451 H 416.795 -2.44538 -2.83112 0
M  V30 4452 H 418.128 -3.20244 -3.73771 0
M  V30 4453 N 419.78 1.02168 -1.19998 0
M  V30 4454 C 420.71 2.12488 -0.96804 0
M  V30 4455 C 421.691 1.69799 0.101185 0
M  V30 4456 O 422.876 1.94121 -0.0552993 0
M  V30 4457 C 420.006 3.43479 -0.513776 0
M  V30 4458 C 418.96 3.99884 -1.52566 0
M  V30 4459 C 418.286 5.26582 -0.928214 0
M  V30 4460 C 419.586 4.33861 -2.90795 0
M  V30 4461 H 421.28 2.32149 -1.89069 0
M  V30 4462 H 418.826 1.11564 -0.910468 0
M  V30 4463 H 420.779 4.20036 -0.338774 0
M  V30 4464 H 419.503 3.23561 0.444493 0
M  V30 4465 H 418.162 3.25429 -1.68794 0
M  V30 4466 H 417.81 5.02986 0.0378289 0
M  V30 4467 H 417.51 5.65284 -1.60397 0
M  V30 4468 H 419.034 6.05799 -0.764167 0
M  V30 4469 H 420.448 5.01327 -2.78109 0
M  V30 4470 H 418.845 4.83664 -3.55231 0
M  V30 4471 H 419.915 3.42848 -3.42904 0
M  V30 4472 N 421.258 1.00505 1.21394 0
M  V30 4473 C 422.188 0.585684 2.26035 0
M  V30 4474 C 423.169 -0.393525 1.65485 0
M  V30 4475 O 424.354 -0.281497 1.92149 0
M  V30 4476 C 421.484 -0.0884283 3.47187 0
M  V30 4477 C 420.438 0.810567 4.20254 0
M  V30 4478 C 419.764 0.00286382 5.347 0
M  V30 4479 C 421.064 2.1132 4.77641 0
M  V30 4480 H 422.758 1.46039 2.61368 0
M  V30 4481 H 420.304 0.703648 1.25638 0
M  V30 4482 H 422.257 -0.393286 4.19561 0
M  V30 4483 H 420.981 -0.997766 3.10986 0
M  V30 4484 H 419.64 1.09925 3.49731 0
M  V30 4485 H 419.288 -0.907765 4.94741 0
M  V30 4486 H 418.988 0.601444 5.84514 0
M  V30 4487 H 420.512 -0.295808 6.09883 0
M  V30 4488 H 421.926 1.87148 5.41893 0
M  V30 4489 H 420.323 2.66164 5.37845 0
M  V30 4490 H 421.393 2.78393 3.9702 0
M  V30 4491 N 422.737 -1.36956 0.779787 0
M  V30 4492 C 424.153 -1.52817 0.460342 0
M  V30 4493 C 424.353 -1.7361 -1.02283 0
M  V30 4494 O 423.409 -1.76207 -1.80852 0
M  V30 4495 C 424.722 -2.71983 1.28241 0
M  V30 4496 C 426.27 -2.85849 1.27512 0
M  V30 4497 C 426.745 -4.08008 2.08072 0
M  V30 4498 N 428.236 -4.15135 2.05467 0
M  V30 4499 C 428.971 -5.08711 2.64577 0
M  V30 4500 N 428.467 -6.07792 3.32506 0
M  V30 4501 N 430.26 -5.01254 2.54363 0
M  V30 4502 H 422.411 -1.21713 1.74068 0
M  V30 4503 H 424.674 -0.593294 0.739396 0
M  V30 4504 H 424.38 -2.63109 2.33381 0
M  V30 4505 H 424.254 -3.65882 0.917088 0
M  V30 4506 H 426.641 -2.94189 0.231686 0
M  V30 4507 H 426.722 -1.92886 1.68014 0
M  V30 4508 H 426.366 -4.00429 3.12441 0
M  V30 4509 H 426.296 -5.001 1.64947 0
M  V30 4510 H 428.787 -3.44189 1.5602 0
M  V30 4511 H 429.1 -6.75739 3.74963 0
M  V30 4512 H 427.445 -6.08047 3.36606 0
M  V30 4513 H 430.636 -4.22795 2.00902 0
M  V30 4514 H 430.809 -5.73995 3.00722 0
M  V30 4515 N 424.215 -0.530993 -1.48385 0
M  V30 4516 C 425.165 0.251092 -2.26613 0
M  V30 4517 C 426.149 0.908977 -1.32765 0
M  V30 4518 O 427.341 0.811616 -1.57295 0
M  V30 4519 C 424.47 1.29677 -3.17866 0
M  V30 4520 C 423.556 0.643627 -4.19188 0
M  V30 4521 N 423.947 -0.271223 -5.05072 0
M  V30 4522 C 422.245 0.900711 -4.3681 0
M  V30 4523 C 422.946 -0.648109 -5.78078 0
M  V30 4524 N 421.922 -0.00895987 -5.43599 0
M  V30 4525 H 425.724 -0.452702 -2.90393 0
M  V30 4526 H 423.238 -0.349091 -1.58604 0
M  V30 4527 H 425.235 1.87079 -3.72568 0
M  V30 4528 H 423.895 2.00193 -2.55642 0
M  V30 4529 H 424.906 -0.643883 -5.13882 0
M  V30 4530 H 421.583 1.59636 -3.85775 0
M  V30 4531 H 422.973 -1.39833 -6.57188 0
M  V30 4532 N 425.693 1.55336 -0.266172 0
M  V30 4533 C 426.64 2.22172 0.625165 0
M  V30 4534 C 427.61 1.19211 1.15663 0
M  V30 4535 O 428.795 1.47723 1.20758 0
M  V30 4536 C 425.935 2.93972 1.8076 0
M  V30 4537 C 425.048 4.11632 1.31084 0
M  V30 4538 C 424.183 4.71099 2.45436 0
M  V30 4539 C 423.222 5.8097 1.92718 0
M  V30 4540 N 422.359 6.34538 3.00509 0
M  V30 4541 H 427.199 2.9796 0.0485582 0
M  V30 4542 H 424.736 1.47095 0.0122024 0
M  V30 4543 H 426.694 3.33811 2.50251 0
M  V30 4544 H 425.324 2.20623 2.35638 0
M  V30 4545 H 424.376 3.76975 0.509326 0
M  V30 4546 H 425.688 4.90893 0.884633 0
M  V30 4547 H 424.842 5.13612 3.22936 0
M  V30 4548 H 423.581 3.91096 2.91368 0
M  V30 4549 H 422.586 5.37916 1.13695 0
M  V30 4550 H 423.811 6.62836 1.47733 0
M  V30 4551 H 421.757 5.57433 3.45839 0
M  V30 4552 H 421.674 7.09046 2.62279 0
M  V30 4553 H 422.942 6.81709 3.78011 0
M  V30 4554 N 427.171 -0.0066808 1.57599 0
M  V30 4555 C 428.418 -0.69292 1.90276 0
M  V30 4556 C 428.746 -1.74148 0.866192 0
M  V30 4557 O 428.001 -1.95268 -0.129933 0
M  V30 4558 C 428.3 -1.37939 3.29708 0
M  V30 4559 C 427.966 -0.464679 4.48499 0
M  V30 4560 C 426.628 -0.212809 4.80729 0
M  V30 4561 C 428.98 0.16551 5.20937 0
M  V30 4562 C 426.308 0.677653 5.82773 0
M  V30 4563 C 428.66 1.04381 6.23929 0
M  V30 4564 C 427.324 1.30492 6.54621 0
M  V30 4565 H 426.594 -0.253558 0.696268 0
M  V30 4566 H 429.241 0.0474123 1.91441 0
M  V30 4567 H 427.546 -2.1936 3.24636 0
M  V30 4568 H 429.243 -1.9163 3.52249 0
M  V30 4569 H 425.833 -0.671153 4.23313 0
M  V30 4570 H 430.017 -0.0160756 4.96297 0
M  V30 4571 H 425.273 0.88803 6.04917 0
M  V30 4572 H 429.447 1.53851 6.79193 0
M  V30 4573 H 427.074 1.99662 7.33512 0
M  V30 4574 N 428.649 -1.55105 -0.279332 0
M  V30 4575 C 429.896 -1.75412 -1.01177 0
M  V30 4576 C 430.224 -0.551728 -1.86511 0
M  V30 4577 O 429.479 0.465919 -1.90073 0
M  V30 4578 C 429.778 -3.0086 -1.92919 0
M  V30 4579 C 429.444 -4.33689 -1.23387 0
M  V30 4580 C 428.106 -4.69792 -1.04159 0
M  V30 4581 C 430.458 -5.15941 -0.738562 0
M  V30 4582 C 427.786 -5.85707 -0.341166 0
M  V30 4583 C 430.138 -6.32579 -0.0517636 0
M  V30 4584 C 428.802 -6.67326 0.152292 0
M  V30 4585 H 428.072 -0.641879 -0.370233 0
M  V30 4586 H 430.719 -1.89373 -0.284627 0
M  V30 4587 H 429.024 -2.81773 -2.72234 0
M  V30 4588 H 430.721 -3.13768 -2.49701 0
M  V30 4589 H 427.311 -4.05309 -1.39364 0
M  V30 4590 H 431.495 -4.8853 -0.874764 0
M  V30 4591 H 426.751 -6.11157 -0.172287 0
M  V30 4592 H 430.925 -6.9557 0.339828 0
M  V30 4593 H 428.552 -7.56998 0.697014 0
M  V30 4594 N 430.127 0.543554 -1.4793 0
M  V30 4595 C 431.059 1.665 -1.57513 0
M  V30 4596 C 432.072 1.56156 -0.460333 0
M  V30 4597 O 433.261 1.62865 -0.730573 0
M  V30 4598 C 430.361 3.05063 -1.47614 0
M  V30 4599 C 429.534 3.41024 -2.739 0
M  V30 4600 C 428.593 4.58809 -2.57645 0
M  V30 4601 O 427.619 4.62707 -3.31498 0
M  V30 4602 N 428.821 5.56149 -1.66368 0
M  V30 4603 H 431.586 1.5872 -2.5422 0
M  V30 4604 H 429.147 0.730517 -1.44482 0
M  V30 4605 H 431.139 3.81712 -1.34455 0
M  V30 4606 H 429.709 3.06994 -0.589359 0
M  V30 4607 H 428.929 2.53687 -3.01723 0
M  V30 4608 H 430.217 3.61831 -3.57709 0
M  V30 4609 H 429.615 5.55767 -1.05543 0
M  V30 4610 H 428.172 6.32071 -1.59154 0
M  V30 4611 N 431.605 1.3629 0.791371 0
M  V30 4612 C 432.552 1.30458 1.90393 0
M  V30 4613 C 433.522 0.173632 1.6519 0
M  V30 4614 O 434.707 0.35983 1.87376 0
M  V30 4615 C 431.847 1.09777 3.27174 0
M  V30 4616 C 430.96 2.31929 3.64462 0
M  V30 4617 C 430.095 2.04276 4.90352 0
M  V30 4618 C 429.134 3.224 5.20312 0
M  V30 4619 N 428.271 2.94424 6.37385 0
M  V30 4620 H 433.111 2.25589 1.94714 0
M  V30 4621 H 430.648 1.12122 0.952216 0
M  V30 4622 H 432.606 0.958133 4.06049 0
M  V30 4623 H 431.236 0.183014 3.22281 0
M  V30 4624 H 430.288 2.56703 2.80727 0
M  V30 4625 H 431.6 3.20085 3.82553 0
M  V30 4626 H 430.754 1.87231 5.77087 0
M  V30 4627 H 429.493 1.13428 4.74326 0
M  V30 4628 H 428.498 3.40005 4.32061 0
M  V30 4629 H 429.723 4.14071 5.38258 0
M  V30 4630 H 427.669 2.06185 6.22755 0
M  V30 4631 H 427.586 3.76118 6.55798 0
M  V30 4632 H 428.854 2.80953 7.27108 0
M  V30 4633 N 433.083 -1.0153 1.20538 0
M  V30 4634 C 434.046 -2.0826 0.957098 0
M  V30 4635 C 435.046 -1.60657 -0.0678655 0
M  V30 4636 O 436.236 -1.73385 0.168332 0
M  V30 4637 C 433.368 -3.38033 0.441188 0
M  V30 4638 H 434.561 -2.31719 1.90384 0
M  V30 4639 H 432.114 -1.1835 1.02093 0
M  V30 4640 H 432.849 -3.20249 -0.510961 0
M  V30 4641 H 432.634 -3.73911 1.18038 0
M  V30 4642 H 434.124 -4.16613 0.287009 0
M  V30 4643 N 434.561 -1.01147 -1.20859 0
M  V30 4644 C 435.508 -0.577354 -2.23462 0
M  V30 4645 C 436.478 0.399922 -1.61214 0
M  V30 4646 O 437.663 0.300515 -1.88419 0
M  V30 4647 C 434.803 0.083372 -3.44999 0
M  V30 4648 C 433.916 -0.937856 -4.21697 0
M  V30 4649 C 433.051 -0.248717 -5.30617 0
M  V30 4650 C 432.09 -1.25705 -5.99053 0
M  V30 4651 N 431.227 -0.594939 -6.99575 0
M  V30 4652 H 436.067 -1.45695 -2.59956 0
M  V30 4653 H 433.604 -0.729428 -1.27741 0
M  V30 4654 H 435.562 0.483535 -4.14388 0
M  V30 4655 H 434.192 0.926645 -3.09214 0
M  V30 4656 H 433.244 -1.45622 -3.51423 0
M  V30 4657 H 434.556 -1.70493 -4.68757 0
M  V30 4658 H 433.71 0.207215 -6.06346 0
M  V30 4659 H 432.449 0.55071 -4.84581 0
M  V30 4660 H 431.454 -1.72343 -5.2209 0
M  V30 4661 H 432.679 -2.05767 -6.47176 0
M  V30 4662 H 430.625 0.184713 -6.5574 0
M  V30 4663 H 430.542 -1.30017 -7.44736 0
M  V30 4664 H 431.81 -0.162427 -7.79331 0
M  V30 4665 N 436.039 1.36541 -0.78704 0
M  V30 4666 C 436.987 2.31965 -0.171724 0
M  V30 4667 C 437.981 1.55689 0.667631 0
M  V30 4668 O 439.187 1.70969 0.562981 0
M  V30 4669 H 435.562 0.751101 -0.0367545 0
M  V30 4670 H 437.533 2.81428 -0.992017 0
M  V30 4671 C 436.282 3.40968 0.680904 0
M  V30 4672 H 435.605 3.99775 0.0443961 0
M  V30 4673 H 437.045 4.10063 1.07815 0
M  V30 4674 C 435.504 2.82338 1.83813 0
M  V30 4675 O 436.034 2.74311 2.93456 0
M  V30 4676 N 434.24 2.39661 1.6435 0
M  V30 4677 H 433.787 2.46389 0.751668 0
M  V30 4678 H 433.745 2.00779 2.4194 0
M  V30 4679 N 437.518 0.538854 1.48102 0
M  V30 4680 C 438.465 -0.219042 2.29758 0
M  V30 4681 C 439.435 -0.925562 1.37922 0
M  V30 4682 O 440.62 -0.924855 1.66886 0
M  V30 4683 C 437.76 -1.25452 3.2149 0
M  V30 4684 C 436.873 -0.555943 4.28408 0
M  V30 4685 C 436.008 -1.57512 5.0731 0
M  V30 4686 C 435.047 -0.860498 6.06021 0
M  V30 4687 N 434.184 -1.82564 6.77949 0
M  V30 4688 H 439.024 0.483449 2.94052 0
M  V30 4689 H 436.561 0.250247 1.44956 0
M  V30 4690 H 438.519 -1.86727 3.7308 0
M  V30 4691 H 437.149 -1.92528 2.591 0
M  V30 4692 H 436.201 0.170938 3.80016 0
M  V30 4693 H 437.513 0.00474616 4.988 0
M  V30 4694 H 436.667 -2.26191 5.62959 0
M  V30 4695 H 435.406 -2.16972 4.36778 0
M  V30 4696 H 434.411 -0.159686 5.49568 0
M  V30 4697 H 435.636 -0.271897 6.78555 0
M  V30 4698 H 433.582 -2.40915 6.10161 0
M  V30 4699 H 433.499 -1.31662 7.44447 0
M  V30 4700 H 434.767 -2.50414 7.38182 0
M  V30 4701 N 438.996 -1.55193 0.274407 0
M  V30 4702 C 439.906 -2.26164 -0.623473 0
M  V30 4703 C 440.922 -1.28729 -1.17068 0
M  V30 4704 O 442.098 -1.61663 -1.20112 0
M  V30 4705 C 439.163 -2.96833 -1.7914 0
M  V30 4706 C 438.224 -4.09745 -1.28093 0
M  V30 4707 C 437.457 -4.77034 -2.3932 0
M  V30 4708 O 437.68 -4.4353 -3.5866 0
M  V30 4709 O 436.614 -5.64996 -2.07516 0
M  V30 4710 H 440.44 -3.03661 -0.0485661 0
M  V30 4711 H 438.025 -1.49341 0.0418382 0
M  V30 4712 H 439.907 -3.41248 -2.4724 0
M  V30 4713 H 438.582 -2.22253 -2.35341 0
M  V30 4714 H 437.489 -3.69787 -0.566416 0
M  V30 4715 H 438.822 -4.86224 -0.764683 0
M  V30 4716 N 440.474 -0.00167713 -1.576 0
M  V30 4717 C 441.721 0.68282 -1.90641 0
M  V30 4718 C 442.049 1.73686 -0.875415 0
M  V30 4719 O 441.304 1.95334 0.119575 0
M  V30 4720 C 441.603 1.36189 -3.30435 0
M  V30 4721 C 441.269 0.440887 -4.48739 0
M  V30 4722 C 439.931 0.187312 -4.80835 0
M  V30 4723 C 442.283 -0.193134 -5.20842 0
M  V30 4724 C 439.611 -0.70855 -5.82406 0
M  V30 4725 C 441.963 -1.07688 -6.23367 0
M  V30 4726 C 440.627 -1.33962 -6.53919 0
M  V30 4727 H 439.897 0.249862 -0.697603 0
M  V30 4728 H 442.544 -0.0575642 -1.91413 0
M  V30 4729 H 440.849 2.17636 -3.25794 0
M  V30 4730 H 442.546 1.89759 -3.5326 0
M  V30 4731 H 439.136 0.648694 -4.23663 0
M  V30 4732 H 443.32 -0.0102445 -4.96299 0
M  V30 4733 H 438.576 -0.920097 -6.04437 0
M  V30 4734 H 442.75 -1.57451 -6.78367 0
M  V30 4735 H 440.377 -2.03549 -7.32442 0
M  V30 4736 N 441.952 1.55251 0.271103 0
M  V30 4737 C 442.882 1.9127 1.33933 0
M  V30 4738 C 443.863 0.77478 1.5143 0
M  V30 4739 O 445.048 1.03307 1.64442 0
M  V30 4740 C 442.178 2.18627 2.69851 0
M  V30 4741 C 441.132 3.34442 2.67081 0
M  V30 4742 C 440.458 3.47284 4.06569 0
M  V30 4743 C 441.758 4.70784 2.26185 0
M  V30 4744 H 443.452 2.80744 1.04035 0
M  V30 4745 H 440.998 1.35077 0.499017 0
M  V30 4746 H 442.951 2.42413 3.44694 0
M  V30 4747 H 441.675 1.25955 3.01335 0
M  V30 4748 H 440.334 3.10627 1.94695 0
M  V30 4749 H 439.982 2.52074 4.35279 0
M  V30 4750 H 439.682 4.25152 4.0561 0
M  V30 4751 H 441.206 3.73363 4.83148 0
M  V30 4752 H 442.62 4.94102 2.90751 0
M  V30 4753 H 441.017 5.51582 2.36384 0
M  V30 4754 H 442.087 4.69478 1.21319 0
M  V30 4755 N 443.43 -0.535701 1.48216 0
M  V30 4756 C 444.362 -1.65662 1.58394 0
M  V30 4757 C 445.375 -1.5591 0.468607 0
M  V30 4758 O 446.564 -1.62475 0.7392 0
M  V30 4759 C 443.664 -3.04276 1.4923 0
M  V30 4760 C 442.837 -3.39567 2.75705 0
M  V30 4761 C 441.896 -4.57436 2.60075 0
M  V30 4762 O 440.922 -4.60942 3.33948 0
M  V30 4763 N 442.124 -5.55259 1.69315 0
M  V30 4764 H 444.889 -1.5737 2.55058 0
M  V30 4765 H 442.45 -0.722845 1.44867 0
M  V30 4766 H 444.442 -3.80994 1.36477 0
M  V30 4767 H 443.012 -3.06677 0.605632 0
M  V30 4768 H 442.232 -2.52083 3.03064 0
M  V30 4769 H 443.52 -3.59929 3.59623 0
M  V30 4770 H 442.918 -5.552 1.08489 0
M  V30 4771 H 441.475 -6.31218 1.62504 0
M  V30 4772 N 444.908 -1.36708 -0.784132 0
M  V30 4773 C 445.818 -1.3363 -1.92822 0
M  V30 4774 C 446.834 -0.237686 -1.72369 0
M  V30 4775 O 448.01 -0.470962 -1.95816 0
M  V30 4776 C 445.075 -1.13011 -3.27764 0
M  V30 4777 C 444.136 -2.32397 -3.60957 0
M  V30 4778 C 443.369 -2.12752 -4.89461 0
M  V30 4779 O 443.592 -1.10541 -5.59586 0
M  V30 4780 O 442.526 -3.00653 -5.21432 0
M  V30 4781 H 446.352 -2.29964 -1.98369 0
M  V30 4782 H 443.937 -1.1731 -0.925136 0
M  V30 4783 H 445.819 -1.03451 -4.08504 0
M  V30 4784 H 444.494 -0.19743 -3.23097 0
M  V30 4785 H 443.401 -2.47527 -2.80502 0
M  V30 4786 H 444.734 -3.2419 -3.70354 0
M  V30 4787 N 446.386 1.0089 -1.21074 0
M  V30 4788 C 447.333 2.09588 -0.966512 0
M  V30 4789 C 448.303 1.65761 0.106089 0
M  V30 4790 O 449.488 1.90758 -0.0402287 0
M  V30 4791 C 446.628 3.40958 -0.533058 0
M  V30 4792 C 445.741 3.9822 -1.67467 0
M  V30 4793 C 444.876 5.17682 -1.19076 0
M  V30 4794 C 443.915 5.67043 -2.30496 0
M  V30 4795 N 443.052 6.77759 -1.83267 0
M  V30 4796 H 447.892 2.29815 -1.89708 0
M  V30 4797 H 445.429 1.12689 -0.945489 0
M  V30 4798 H 447.387 4.1637 -0.263019 0
M  V30 4799 H 446.017 3.20781 0.360505 0
M  V30 4800 H 445.069 3.1983 -2.05944 0
M  V30 4801 H 446.381 4.3085 -2.51336 0
M  V30 4802 H 445.535 6.00326 -0.877151 0
M  V30 4803 H 444.274 4.86635 -0.322066 0
M  V30 4804 H 443.279 4.82999 -2.62664 0
M  V30 4805 H 444.504 6.00121 -3.17855 0
M  V30 4806 H 442.45 6.48527 -0.987356 0
M  V30 4807 H 442.367 7.09624 -2.60711 0
M  V30 4808 H 443.635 7.63949 -1.54928 0
M  V30 4809 N 447.864 1.01787 1.20321 0
M  V30 4810 C 449.092 0.727194 1.937 0
M  V30 4811 C 449.507 -0.712305 1.74848 0
M  V30 4812 O 448.864 -1.48327 1.06327 0
M  V30 4813 C 448.915 1.05497 3.45764 0
M  V30 4814 O 448.636 2.43794 3.64 0
M  V30 4815 C 450.137 0.785534 4.36285 0
M  V30 4816 H 447.357 0.266939 0.615617 0
M  V30 4817 H 449.901 1.35939 1.52777 0
M  V30 4818 H 448.056 0.468158 3.84561 0
M  V30 4819 H 448.47 2.55656 4.57974 0
M  V30 4820 H 449.944 1.06495 5.4163 0
M  V30 4821 H 450.421 -0.280273 4.38305 0
M  V30 4822 H 451.027 1.35456 4.03152 0
M  V30 4823 N 449.342 -1.36122 0.79427 0
M  V30 4824 C 450.272 -2.32551 0.210328 0
M  V30 4825 C 451.253 -1.56884 -0.657386 0
M  V30 4826 O 452.438 -1.85014 -0.590207 0
M  V30 4827 C 449.568 -3.41128 -0.651819 0
M  V30 4828 C 448.522 -4.27842 0.116395 0
M  V30 4829 C 447.848 -5.2763 -0.86666 0
M  V30 4830 C 449.148 -5.05647 1.30837 0
M  V30 4831 H 450.842 -2.81636 1.01594 0
M  V30 4832 H 448.388 -1.35407 0.489981 0
M  V30 4833 H 450.341 -4.07581 -1.07031 0
M  V30 4834 H 449.065 -2.90622 -1.49019 0
M  V30 4835 H 447.724 -3.62952 0.515915 0
M  V30 4836 H 447.372 -4.73395 -1.70019 0
M  V30 4837 H 447.072 -5.86514 -0.35705 0
M  V30 4838 H 448.596 -5.96955 -1.28361 0
M  V30 4839 H 450.01 -5.65113 0.965393 0
M  V30 4840 H 448.407 -5.73967 1.75161 0
M  V30 4841 H 449.477 -4.37006 2.10128 0
M  V30 4842 N 450.82 -0.546701 -1.47814 0
M  V30 4843 C 451.752 0.244196 -2.27895 0
M  V30 4844 C 452.765 0.88911 -1.36377 0
M  V30 4845 O 453.954 0.764733 -1.61289 0
M  V30 4846 C 451.054 1.36252 -3.10304 0
M  V30 4847 C 450.227 0.816382 -4.29714 0
M  V30 4848 C 449.286 1.81789 -4.93801 0
M  V30 4849 O 448.312 1.36818 -5.52512 0
M  V30 4850 N 449.514 3.15085 -4.87547 0
M  V30 4851 H 452.279 -0.442694 -2.96412 0
M  V30 4852 H 449.84 -0.382095 -1.57327 0
M  V30 4853 H 451.832 2.03102 -3.50045 0
M  V30 4854 H 450.402 1.95281 -2.44099 0
M  V30 4855 H 449.622 -0.0285981 -3.9419 0
M  V30 4856 H 450.91 0.430668 -5.06974 0
M  V30 4857 H 450.308 3.54275 -4.41028 0
M  V30 4858 H 448.865 3.77522 -5.31339 0
M  V30 4859 N 452.299 1.55045 -0.282633 0
M  V30 4860 C 453.715 1.59441 0.0712997 0
M  V30 4861 C 453.915 1.2998 1.53972 0
M  V30 4862 O 452.971 1.06431 2.28973 0
M  V30 4863 C 454.284 2.99097 -0.310104 0
M  V30 4864 C 455.832 3.1194 -0.257343 0
M  V30 4865 C 456.307 4.53875 -0.613297 0
M  V30 4866 N 457.798 4.5974 -0.565134 0
M  V30 4867 C 458.533 5.67603 -0.81326 0
M  V30 4868 N 458.029 6.83582 -1.1264 0
M  V30 4869 N 459.822 5.57187 -0.741553 0
M  V30 4870 H 451.973 1.72458 -1.23984 0
M  V30 4871 H 454.236 0.804549 -0.501403 0
M  V30 4872 H 453.942 3.25516 -1.33163 0
M  V30 4873 H 453.816 3.75616 0.345366 0
M  V30 4874 H 456.203 2.85281 0.754905 0
M  V30 4875 H 456.284 2.37618 -0.947178 0
M  V30 4876 H 455.928 4.81261 -1.62327 0
M  V30 4877 H 455.858 5.26508 0.09841 0
M  V30 4878 H 458.349 3.76427 -0.333294 0
M  V30 4879 H 458.662 7.6175 -1.30219 0
M  V30 4880 H 457.007 6.85179 -1.16425 0
M  V30 4881 H 460.198 4.65457 -0.496705 0
M  V30 4882 H 460.371 6.41171 -0.938306 0
M  V30 4883 N 453.777 0.010035 1.57597 0
M  V30 4884 C 454.74 -0.963029 2.07986 0
M  V30 4885 C 455.74 -1.26619 0.991173 0
M  V30 4886 O 456.93 -1.2097 1.25347 0
M  V30 4887 C 454.062 -2.2851 2.52974 0
M  V30 4888 H 455.255 -0.526971 2.95234 0
M  V30 4889 H 452.808 -0.237639 1.54483 0
M  V30 4890 H 453.543 -2.76784 1.69 0
M  V30 4891 H 453.328 -2.07824 3.32493 0
M  V30 4892 H 454.818 -2.98294 2.9225 0
M  V30 4893 N 455.255 -1.55392 -0.262866 0
M  V30 4894 C 456.666 -1.67079 -0.833158 0
M  V30 4895 C 457.017 -0.604539 -1.86654 0
M  V30 4896 O 456.142 0.252138 -2.14926 0
M  V30 4897 C 456.737 -3.02891 -1.51797 0
M  V30 4898 C 455.296 -3.16571 -2.03617 0
M  V30 4899 C 454.443 -2.62909 -0.881701 0
M  V30 4900 H 457.394 -1.58652 -0.0389986 0
M  V30 4901 H 457.415 -2.96445 -2.38538 0
M  V30 4902 H 456.927 -3.80473 -0.765619 0
M  V30 4903 H 455.028 -2.43782 -2.81782 0
M  V30 4904 H 455.141 -4.23271 -2.24452 0
M  V30 4905 H 453.505 -2.20324 -1.27786 0
M  V30 4906 H 454.288 -3.43003 -0.14269 0
M  V30 4907 N 456.733 0.527833 -1.48498 0
M  V30 4908 C 457.961 1.30823 -1.6029 0
M  V30 4909 C 458.376 1.86945 -0.263974 0
M  V30 4910 O 457.733 1.6651 0.747034 0
M  V30 4911 C 457.784 2.45756 -2.65116 0
M  V30 4912 O 457.505 1.91946 -3.93813 0
M  V30 4913 C 459.006 3.37543 -2.87367 0
M  V30 4914 H 456.226 0.397763 -0.540394 0
M  V30 4915 H 458.77 0.636529 -1.94341 0
M  V30 4916 H 456.925 3.08806 -2.33917 0
M  V30 4917 H 457.339 2.67195 -4.51339 0
M  V30 4918 H 458.813 4.14532 -3.6451 0
M  V30 4919 H 459.29 3.92905 -1.9627 0
M  V30 4920 H 459.896 2.80283 -3.19878 0
M  V30 4921 N 458.211 1.37122 0.776871 0
M  V30 4922 C 459.46 1.31373 1.53049 0
M  V30 4923 C 459.773 -0.101016 1.95339 0
M  V30 4924 O 460.979 -0.280953 2.70042 0
M  V30 4925 C 459.435 2.30567 2.76346 0
M  V30 4926 C 459.043 3.77543 2.41175 0
M  V30 4927 C 460.787 2.33818 3.54301 0
M  V30 4928 C 458.694 4.68481 3.60943 0
M  V30 4929 H 457.624 0.488234 0.574581 0
M  V30 4930 H 460.275 1.62554 0.851372 0
M  V30 4931 H 458.657 1.92396 3.46121 0
M  V30 4932 H 459.831 4.24521 1.79216 0
M  V30 4933 H 458.146 3.77187 1.76405 0
M  V30 4934 H 460.743 2.98965 4.4331 0
M  V30 4935 H 461.086 1.3503 3.93793 0
M  V30 4936 H 461.619 2.7067 2.91518 0
M  V30 4937 H 458.358 5.68378 3.26537 0
M  V30 4938 H 457.878 4.2621 4.22025 0
M  V30 4939 H 459.557 4.85366 4.27819 0
M  V30 4940 N 459.689 -1.00246 1.21608 0
M  V30 4941 C 460.914 -1.78167 1.06167 0
M  V30 4942 C 461.339 -1.84138 -0.384035 0
M  V30 4943 O 460.697 -1.28683 -1.27712 0
M  V30 4944 C 460.745 -3.19786 1.66642 0
M  V30 4945 O 459.849 -4.02153 0.913613 0
M  V30 4946 H 459.19 -0.549 0.37349 0
M  V30 4947 H 461.72 -1.25994 1.61204 0
M  V30 4948 H 461.73 -3.70451 1.70969 0
M  V30 4949 H 460.405 -3.14754 2.7185 0
M  V30 4950 H 458.982 -3.60711 0.945635 0
M  V30 4951 N 461.167 -1.02423 -1.1978 0
M  V30 4952 C 462.077 -0.610919 -2.26506 0
M  V30 4953 C 463.093 0.355152 -1.70337 0
M  V30 4954 O 464.269 0.214195 -2.00258 0
M  V30 4955 C 461.334 0.0365921 -3.46681 0
M  V30 4956 C 460.395 -0.976389 -4.18049 0
M  V30 4957 C 459.628 -0.359683 -5.32487 0
M  V30 4958 O 459.851 0.838601 -5.64202 0
M  V30 4959 O 458.785 -1.08022 -5.92127 0
M  V30 4960 H 462.611 -1.49965 -2.64091 0
M  V30 4961 H 460.196 -0.794156 -1.26545 0
M  V30 4962 H 462.078 0.39786 -4.19518 0
M  V30 4963 H 460.753 0.899398 -3.10954 0
M  V30 4964 H 459.66 -1.38916 -3.47352 0
M  V30 4965 H 460.993 -1.80941 -4.57735 0
M  V30 4966 N 462.645 1.35699 -0.801477 0
M  V30 4967 C 464.061 1.52065 -0.484596 0
M  V30 4968 C 464.261 1.75215 0.995084 0
M  V30 4969 O 463.317 1.79061 1.78026 0
M  V30 4970 C 464.63 2.69908 -1.32552 0
M  V30 4971 C 466.178 2.83784 -1.32044 0
M  V30 4972 C 466.653 4.04646 -2.14536 0
M  V30 4973 N 468.144 4.11814 -2.12046 0
M  V30 4974 C 468.879 5.04437 -2.72636 0
M  V30 4975 N 468.375 6.02426 -3.42133 0
M  V30 4976 N 470.168 4.97144 -2.62305 0
M  V30 4977 H 462.319 1.18928 -1.75983 0
M  V30 4978 H 464.582 0.581455 -0.748741 0
M  V30 4979 H 464.288 2.59363 -2.37537 0
M  V30 4980 H 464.162 3.64376 -0.975181 0
M  V30 4981 H 466.549 2.93783 -0.27846 0
M  V30 4982 H 466.63 1.90188 -1.71062 0
M  V30 4983 H 466.274 3.95407 -3.18772 0
M  V30 4984 H 466.204 4.97413 -1.72882 0
M  V30 4985 H 468.695 3.41664 -1.61476 0
M  V30 4986 H 469.008 6.69688 -3.85666 0
M  V30 4987 H 467.353 6.02615 -3.46237 0
M  V30 4988 H 470.544 4.19546 -2.07603 0
M  V30 4989 H 470.717 5.69138 -3.09815 0
M  V30 4990 N 464.123 0.554532 1.47522 0
M  V30 4991 C 465.086 -0.184174 2.28459 0
M  V30 4992 C 466.086 -0.845195 1.36796 0
M  V30 4993 O 467.276 -0.701467 1.59452 0
M  V30 4994 C 464.408 -1.26903 3.16399 0
M  V30 4995 H 465.601 0.526751 2.95238 0
M  V30 4996 H 463.154 0.311375 1.53167 0
M  V30 4997 H 463.889 -2.01244 2.54306 0
M  V30 4998 H 463.674 -0.799883 3.83854 0
M  V30 4999 H 465.164 -1.78794 3.77389 0
M  V30 5000 N 465.601 -1.54893 0.290851 0
M  V30 5001 C 466.548 -2.23138 -0.58974 0
M  V30 5002 C 467.518 -1.21036 -1.13752 0
M  V30 5003 O 468.703 -1.49626 -1.18392 0
M  V30 5004 C 465.843 -2.96811 -1.76061 0
M  V30 5005 C 464.956 -4.13665 -1.24519 0
M  V30 5006 C 464.091 -4.74944 -2.3791 0
M  V30 5007 C 463.13 -5.83963 -1.83451 0
M  V30 5008 N 462.267 -6.39239 -2.90376 0
M  V30 5009 H 467.107 -2.98 -0.00114915 0
M  V30 5010 H 464.644 -1.47096 0.0112006 0
M  V30 5011 H 466.602 -3.37751 -2.44909 0
M  V30 5012 H 465.232 -2.24344 -2.32098 0
M  V30 5013 H 464.284 -3.77737 -0.449288 0
M  V30 5014 H 465.596 -4.92238 -0.806424 0
M  V30 5015 H 464.75 -5.18684 -3.14724 0
M  V30 5016 H 463.489 -3.95682 -2.85109 0
M  V30 5017 H 462.494 -5.39657 -1.05122 0
M  V30 5018 H 463.719 -6.65103 -1.37169 0
M  V30 5019 H 461.665 -5.62864 -3.36927 0
M  V30 5020 H 461.582 -7.13129 -2.50965 0
M  V30 5021 H 462.85 -6.87637 -3.67118 0
M  V30 5022 N 467.08 -0.0183926 -1.57589 0
M  V30 5023 C 468.027 0.967022 -2.09565 0
M  V30 5024 C 468.997 1.32983 -0.995225 0
M  V30 5025 O 470.182 1.42501 -1.26878 0
M  V30 5026 C 467.322 2.24772 -2.61861 0
M  V30 5027 C 466.435 1.94232 -3.85873 0
M  V30 5028 C 465.57 3.16518 -4.26603 0
M  V30 5029 C 464.609 2.81748 -5.43401 0
M  V30 5030 N 463.746 3.96626 -5.79338 0
M  V30 5031 H 468.586 0.516874 -2.93483 0
M  V30 5032 H 466.123 0.243544 -1.4507 0
M  V30 5033 H 468.081 2.99667 -2.90268 0
M  V30 5034 H 466.711 2.67423 -1.8079 0
M  V30 5035 H 465.763 1.09625 -3.64262 0
M  V30 5036 H 467.075 1.64616 -4.70853 0
M  V30 5037 H 466.229 3.99743 -4.56389 0
M  V30 5038 H 464.968 3.49286 -3.40368 0
M  V30 5039 H 463.973 1.96933 -5.1332 0
M  V30 5040 H 465.198 2.50207 -6.31327 0
M  V30 5041 H 463.144 4.29257 -4.96059 0
M  V30 5042 H 463.061 3.70598 -6.58933 0
M  V30 5043 H 464.329 4.80586 -6.13724 0
M  V30 5044 N 468.558 1.5553 0.254621 0
M  V30 5045 C 469.804 1.77262 0.985193 0
M  V30 5046 C 470.137 0.582286 1.85265 0
M  V30 5047 O 469.412 -0.419666 1.89919 0
M  V30 5048 C 469.695 3.0881 1.85225 0
M  V30 5049 C 469.548 4.38233 1.0135 0
M  V30 5050 C 470.867 3.3653 2.83612 0
M  V30 5051 H 467.986 0.644906 0.356742 0
M  V30 5052 H 470.628 1.88264 0.256236 0
M  V30 5053 H 468.778 2.99562 2.47376 0
M  V30 5054 H 470.45 4.59463 0.411269 0
M  V30 5055 H 468.693 4.32636 0.317574 0
M  V30 5056 H 469.364 5.26644 1.65379 0
M  V30 5057 H 471.84 3.45691 2.31596 0
M  V30 5058 H 470.716 4.29805 3.41407 0
M  V30 5059 H 470.977 2.57064 3.59681 0
M  V30 5060 N 470.036 -0.519951 1.48776 0
M  V30 5061 C 471.452 -0.849418 1.35119 0
M  V30 5062 C 471.652 -1.98077 0.36982 0
M  V30 5063 O 470.708 -2.51664 -0.205359 0
M  V30 5064 C 472.021 -1.20748 2.75391 0
M  V30 5065 C 473.569 -1.31679 2.83954 0
M  V30 5066 C 474.044 -1.70824 4.24951 0
M  V30 5067 N 475.535 -1.77908 4.27672 0
M  V30 5068 C 476.27 -2.09603 5.33717 0
M  V30 5069 N 475.766 -2.39652 6.5003 0
M  V30 5070 N 477.559 -2.10694 5.21119 0
M  V30 5071 H 469.71 0.226377 2.1119 0
M  V30 5072 H 471.973 0.0386519 0.947212 0
M  V30 5073 H 471.679 -0.449703 3.48813 0
M  V30 5074 H 471.553 -2.15534 3.09556 0
M  V30 5075 H 473.94 -2.06532 2.10781 0
M  V30 5076 H 474.021 -0.3499 2.53396 0
M  V30 5077 H 473.665 -0.965282 4.98643 0
M  V30 5078 H 473.595 -2.6858 4.52959 0
M  V30 5079 H 476.086 -1.56923 3.43779 0
M  V30 5080 H 476.399 -2.6297 7.26682 0
M  V30 5081 H 474.744 -2.37149 6.53288 0
M  V30 5082 H 477.935 -1.86682 4.29264 0
M  V30 5083 H 478.108 -2.35062 6.03863 0
M  V30 5084 N 471.514 -1.37532 -0.769588 0
M  V30 5085 C 472.93 -1.18379 -1.07045 0
M  V30 5086 C 473.13 -0.0214312 -2.01489 0
M  V30 5087 O 472.186 0.637809 -2.44312 0
M  V30 5088 C 473.499 -2.50338 -1.66588 0
M  V30 5089 C 475.047 -2.56879 -1.78835 0
M  V30 5090 C 475.522 -3.88974 -2.41792 0
M  V30 5091 N 477.013 -3.90428 -2.4924 0
M  V30 5092 C 477.748 -4.89388 -2.98809 0
M  V30 5093 N 477.244 -5.98745 -3.48535 0
M  V30 5094 N 479.037 -4.76791 -2.97703 0
M  V30 5095 H 471.188 -2.11921 -0.142541 0
M  V30 5096 H 473.451 -0.939608 -0.125863 0
M  V30 5097 H 473.157 -3.35767 -1.0466 0
M  V30 5098 H 473.031 -2.67583 -2.65856 0
M  V30 5099 H 475.418 -1.71856 -2.39895 0
M  V30 5100 H 475.499 -2.43516 -0.783166 0
M  V30 5101 H 475.143 -4.74412 -1.81371 0
M  V30 5102 H 475.073 -3.99641 -3.4292 0
M  V30 5103 H 477.564 -3.11433 -2.14052 0
M  V30 5104 H 477.877 -6.70205 -3.84767 0
M  V30 5105 H 476.222 -6.02387 -3.46634 0
M  V30 5106 H 479.413 -3.90478 -2.58157 0
M  V30 5107 H 479.586 -5.54069 -3.36024 0
M  V30 5108 N 472.992 0.995999 -1.22138 0
M  V30 5109 C 474.238 1.73767 -1.04561 0
M  V30 5110 C 474.571 1.89633 0.418698 0
M  V30 5111 O 473.846 1.43723 1.3105 0
M  V30 5112 C 474.129 3.14505 -1.75382 0
M  V30 5113 C 473.982 3.06306 -3.29388 0
M  V30 5114 C 475.301 4.13615 -1.50369 0
M  V30 5115 H 472.42 0.630728 -0.38125 0
M  V30 5116 H 475.062 1.16057 -1.50435 0
M  V30 5117 H 473.212 3.63775 -1.36383 0
M  V30 5118 H 474.884 2.64681 -3.77812 0
M  V30 5119 H 473.127 2.43186 -3.59226 0
M  V30 5120 H 473.798 4.05884 -3.74116 0
M  V30 5121 H 476.274 3.73089 -1.84239 0
M  V30 5122 H 475.15 5.10212 -2.02421 0
M  V30 5123 H 475.411 4.39949 -0.435611 0
M  V30 5124 N 474.47 1.03057 1.19235 0
M  V30 5125 C 475.881 0.757449 1.70645 0
M  V30 5126 C 476.232 -0.722735 1.82403 0
M  V30 5127 O 475.357 -1.56325 1.49638 0
M  V30 5128 C 475.952 1.36833 3.09939 0
M  V30 5129 C 474.511 1.14375 3.58602 0
M  V30 5130 C 473.658 1.46533 2.35422 0
M  V30 5131 H 476.609 1.19828 1.04052 0
M  V30 5132 H 476.63 0.766184 3.72706 0
M  V30 5133 H 476.142 2.44562 3.01349 0
M  V30 5134 H 474.243 0.0847542 3.72504 0
M  V30 5135 H 474.356 1.83366 4.42622 0
M  V30 5136 H 472.72 0.884712 2.38841 0
M  V30 5137 H 473.503 2.55349 2.2946 0
M  V30 5138 N 475.948 -1.35272 0.808662 0
M  V30 5139 C 477.196 -1.98316 0.389233 0
M  V30 5140 C 477.517 -1.64465 -1.04767 0
M  V30 5141 O 476.787 -0.928175 -1.72516 0
M  V30 5142 H 475.367 -0.733585 0.140935 0
M  V30 5143 H 478.029 -1.6515 1.03496 0
M  V30 5144 H 477.125 -3.08123 0.496631 0
M  V30 5145 N 477.426 -0.562348 -1.47226 0
M  V30 5146 C 478.651 -0.0432632 -2.07355 0
M  V30 5147 C 479.076 1.24332 -1.41149 0
M  V30 5148 O 478.434 1.74603 -0.488226 0
M  V30 5149 C 478.482 0.130288 -3.60365 0
M  V30 5150 O 477.586 1.19166 -3.94808 0
M  V30 5151 H 476.927 -0.0536334 -0.66183 0
M  V30 5152 H 479.457 -0.779495 -1.89169 0
M  V30 5153 H 479.467 0.342881 -4.06557 0
M  V30 5154 H 478.142 -0.809389 -4.07948 0
M  V30 5155 H 476.719 0.959153 -3.60354 0
M  V30 5156 N 478.904 1.54736 -0.299062 0
M  V30 5157 C 480.129 2.04975 0.316254 0
M  V30 5158 C 480.554 1.17501 1.46885 0
M  V30 5159 O 479.912 0.178678 1.80417 0
M  V30 5160 C 479.96 3.52672 0.751997 0
M  V30 5161 O 479.064 3.68226 1.85697 0
M  V30 5162 H 478.405 0.661126 0.0617175 0
M  V30 5163 H 480.935 1.99805 -0.440341 0
M  V30 5164 H 480.945 3.94488 1.04133 0
M  V30 5165 H 479.62 4.158 -0.0911482 0
M  V30 5166 H 478.197 3.38316 1.56834 0
M  V30 5167 N 480.382 0.0267497 1.57577 0
M  V30 5168 C 481.63 -0.651116 1.91324 0
M  V30 5169 C 481.951 -1.72804 0.90353 0
M  V30 5170 O 481.221 -1.95822 -0.0552946 0
M  V30 5171 H 479.801 -0.243491 0.706202 0
M  V30 5172 H 482.463 0.0739935 1.94759 0
M  V30 5173 H 481.559 -1.10536 2.9187 0
M  V30 5174 N 481.861 -1.55662 -0.24637 0
M  V30 5175 C 483.277 -1.48098 -0.594907 0
M  V30 5176 C 483.477 -0.717044 -1.8831 0
M  V30 5177 O 482.533 -0.246618 -2.51293 0
M  V30 5178 C 483.846 -2.92507 -0.697146 0
M  V30 5179 C 485.394 -3.02881 -0.789436 0
M  V30 5180 C 485.869 -4.48598 -0.923232 0
M  V30 5181 N 487.36 -4.52538 -0.988088 0
M  V30 5182 C 488.095 -5.62536 -1.11089 0
M  V30 5183 N 487.591 -6.82342 -1.19919 0
M  V30 5184 N 489.384 -5.50334 -1.14408 0
M  V30 5185 H 481.535 -2.0377 0.599278 0
M  V30 5186 H 483.798 -0.925145 0.20691 0
M  V30 5187 H 483.504 -3.51242 0.179396 0
M  V30 5188 H 483.378 -3.43024 -1.5689 0
M  V30 5189 H 485.765 -2.44226 -1.65643 0
M  V30 5190 H 485.846 -2.55574 0.107482 0
M  V30 5191 H 485.49 -5.07864 -0.0607927 0
M  V30 5192 H 485.42 -4.93587 -1.8352 0
M  V30 5193 H 487.911 -3.66248 -0.931167 0
M  V30 5194 H 488.224 -7.61924 -1.29197 0
M  V30 5195 H 486.569 -6.85102 -1.16876 0
M  V30 5196 H 489.76 -4.5567 -1.07158 0
M  V30 5197 H 489.933 -6.36096 -1.23634 0
M  V30 5198 N 483.339 0.512053 -1.4905 0
M  V30 5199 C 484.269 1.62365 -1.67809 0
M  V30 5200 C 485.25 1.61737 -0.526809 0
M  V30 5201 O 486.435 1.78651 -0.761404 0
M  V30 5202 C 483.565 3.00895 -1.73435 0
M  V30 5203 C 482.519 3.16387 -2.88242 0
M  V30 5204 C 481.845 4.56157 -2.78971 0
M  V30 5205 C 483.145 2.97457 -4.29321 0
M  V30 5206 H 484.839 1.46921 -2.60873 0
M  V30 5207 H 482.385 0.705379 -1.2554 0
M  V30 5208 H 484.338 3.78549 -1.85145 0
M  V30 5209 H 483.062 3.17403 -0.769619 0
M  V30 5210 H 481.721 2.41155 -2.76116 0
M  V30 5211 H 481.369 4.69525 -1.8043 0
M  V30 5212 H 481.069 4.67465 -3.5602 0
M  V30 5213 H 482.593 5.35886 -2.92675 0
M  V30 5214 H 484.007 3.64888 -4.42187 0
M  V30 5215 H 482.404 3.20245 -5.07507 0
M  V30 5216 H 483.474 1.93692 -4.44535 0
M  V30 5217 N 484.817 1.37938 0.762283 0
M  V30 5218 C 485.767 1.30976 1.86626 0
M  V30 5219 C 486.751 0.195714 1.59705 0
M  V30 5220 O 487.943 0.430937 1.71674 0
M  V30 5221 C 485.072 1.12847 3.24223 0
M  V30 5222 C 484.158 2.28836 3.57064 0
M  V30 5223 N 484.549 3.54256 3.61022 0
M  V30 5224 C 482.847 2.21198 3.87282 0
M  V30 5225 C 483.548 4.30798 3.90881 0
M  V30 5226 N 482.524 3.60049 4.07266 0
M  V30 5227 H 486.326 2.25946 1.87951 0
M  V30 5228 H 483.84 1.31046 0.959206 0
M  V30 5229 H 485.837 1.05943 4.03214 0
M  V30 5230 H 484.497 0.188024 3.24155 0
M  V30 5231 H 485.508 3.8804 3.42995 0
M  V30 5232 H 482.185 1.35264 3.94981 0
M  V30 5233 H 483.575 5.39386 4.00639 0
M  V30 5234 N 486.295 -0.989507 1.22664 0
M  V30 5235 C 487.242 -2.08024 0.999733 0
M  V30 5236 C 488.212 -1.65909 -0.0797047 0
M  V30 5237 O 489.397 -1.90669 0.0705715 0
M  V30 5238 C 486.537 -3.40067 0.587234 0
M  V30 5239 C 485.65 -3.95505 1.73781 0
M  V30 5240 C 484.785 -5.15722 1.27297 0
M  V30 5241 C 483.824 -5.63305 2.39488 0
M  V30 5242 N 482.961 -6.74758 1.94026 0
M  V30 5243 H 487.801 -2.26768 1.9334 0
M  V30 5244 H 485.338 -1.11171 0.963297 0
M  V30 5245 H 487.296 -4.15899 0.329227 0
M  V30 5246 H 485.926 -3.21314 -0.309426 0
M  V30 5247 H 484.978 -3.16513 2.11006 0
M  V30 5248 H 486.29 -4.26797 2.58158 0
M  V30 5249 H 485.444 -5.98854 0.972546 0
M  V30 5250 H 484.183 -4.86061 0.399445 0
M  V30 5251 H 483.188 -4.78759 2.70315 0
M  V30 5252 H 484.413 -5.94988 3.27362 0
M  V30 5253 H 482.359 -6.46874 1.09041 0
M  V30 5254 H 482.276 -7.05386 2.71968 0
M  V30 5255 H 483.544 -7.61387 1.67062 0
M  V30 5256 N 487.773 -1.03688 -1.18687 0
M  V30 5257 C 489.001 -0.757918 -1.92518 0
M  V30 5258 C 489.416 0.684398 -1.75959 0
M  V30 5259 O 488.773 1.46617 -1.08673 0
M  V30 5260 C 488.824 -1.10985 -3.44042 0
M  V30 5261 O 488.545 -2.49554 -3.60076 0
M  V30 5262 C 490.046 -0.854844 -4.3498 0
M  V30 5263 H 487.266 -0.276699 -0.611293 0
M  V30 5264 H 489.81 -1.38352 -1.50595 0
M  V30 5265 H 487.965 -0.529279 -3.83767 0
M  V30 5266 H 488.379 -2.6291 -4.53849 0
M  V30 5267 H 489.853 -1.15098 -5.39867 0
M  V30 5268 H 490.33 0.210507 -4.38695 0
M  V30 5269 H 490.936 -1.41853 -4.00946 0
M  V30 5270 N 489.251 1.34841 -0.815825 0
M  V30 5271 C 490.161 2.33425 -0.234462 0
M  V30 5272 C 491.177 1.62295 0.627413 0
M  V30 5273 O 492.353 1.94109 0.536987 0
M  V30 5274 C 489.418 3.41471 0.599849 0
M  V30 5275 C 488.479 4.28362 -0.283596 0
M  V30 5276 C 487.712 5.31248 0.51099 0
M  V30 5277 O 487.935 5.43056 1.7449 0
M  V30 5278 O 486.869 6.01812 -0.10297 0
M  V30 5279 H 490.695 2.84962 -1.05024 0
M  V30 5280 H 488.28 1.37774 -0.577809 0
M  V30 5281 H 490.162 4.07464 1.07475 0
M  V30 5282 H 488.837 2.9219 1.39308 0
M  V30 5283 H 487.744 3.65318 -0.805836 0
M  V30 5284 H 489.077 4.81066 -1.041 0
M  V30 5285 N 490.729 0.570148 1.46925 0
M  V30 5286 C 492.006 -0.0153259 1.95594 0
M  V30 5287 C 492.386 -1.47232 1.51281 0
M  V30 5288 O 491.734 -2.15574 0.757624 0
M  V30 5289 C 491.944 0.143624 3.48704 0
M  V30 5290 C 493.292 0.00494484 4.246 0
M  V30 5291 O 494.316 0.0718214 3.56128 0
M  V30 5292 O 493.175 -0.141175 5.46318 0
M  V30 5293 H 490.269 -0.0568819 0.825041 0
M  V30 5294 H 492.815 0.637583 1.57267 0
M  V30 5295 H 491.587 1.15699 3.73804 0
M  V30 5296 H 491.21 -0.5463 3.93829 0
M  V30 5297 N 492.207 -1.54576 0.307264 0
M  V30 5298 C 493.455 -1.99867 -0.299574 0
M  V30 5299 C 493.776 -1.19714 -1.53927 0
M  V30 5300 O 493.046 -0.29472 -1.9367 0
M  V30 5301 H 491.626 -0.738299 -0.113683 0
M  V30 5302 H 494.288 -1.9032 0.420042 0
M  V30 5303 H 493.384 -3.06901 -0.567283 0
M  V30 5304 N 493.685 -0.035106 -1.57561 0
M  V30 5305 C 494.933 0.64096 -1.91667 0
M  V30 5306 C 495.254 1.72323 -0.912681 0
M  V30 5307 O 494.524 1.95849 0.0449089 0
M  V30 5308 H 493.104 0.239743 -0.707483 0
M  V30 5309 H 495.766 -0.084321 -1.94718 0
M  V30 5310 H 494.862 1.08987 -2.92452 0
M  V30 5311 N 495.163 1.55791 0.238111 0
M  V30 5312 C 496.409 1.79211 0.962035 0
M  V30 5313 C 496.764 0.605463 1.82625 0
M  V30 5314 O 496.057 -0.40104 1.87356 0
M  V30 5315 C 496.251 3.05869 1.84875 0
M  V30 5316 C 496.08 4.36739 1.07186 0
M  V30 5317 C 494.85 4.99346 0.773424 0
M  V30 5318 C 497.048 5.1237 0.445168 0
M  V30 5319 N 495.03 6.13894 -0.0266037 0
M  V30 5320 C 496.401 6.19613 -0.219023 0
M  V30 5321 C 498.456 4.96622 0.356522 0
M  V30 5322 C 497.159 7.1282 -0.963358 0
M  V30 5323 C 499.185 5.90214 -0.374304 0
M  V30 5324 C 498.547 6.96872 -1.0271 0
M  V30 5325 H 494.646 0.707627 0.332849 0
M  V30 5326 H 497.23 1.93284 0.234368 0
M  V30 5327 H 495.401 2.93108 2.54837 0
M  V30 5328 H 497.133 3.17547 2.5089 0
M  V30 5329 H 493.888 4.60948 1.08738 0
M  V30 5330 H 494.312 6.75727 -0.414968 0
M  V30 5331 H 498.954 4.14232 0.846878 0
M  V30 5332 H 496.672 7.94704 -1.46529 0
M  V30 5333 H 500.258 5.80106 -0.443678 0
M  V30 5334 H 499.138 7.68045 -1.58358 0
M  V30 5335 N 496.642 -0.504142 1.49319 0
M  V30 5336 C 497.552 -1.63248 1.68486 0
M  V30 5337 C 498.568 -1.64488 0.567432 0
M  V30 5338 O 499.744 -1.82966 0.841749 0
M  V30 5339 C 496.809 -2.99627 1.74426 0
M  V30 5340 C 495.87 -3.09039 2.97982 0
M  V30 5341 C 495.103 -4.38913 3.0363 0
M  V30 5342 O 495.326 -5.27528 2.16958 0
M  V30 5343 O 494.26 -4.53231 3.96062 0
M  V30 5344 H 498.086 -1.50008 2.64067 0
M  V30 5345 H 495.671 -0.680086 1.33023 0
M  V30 5346 H 497.553 -3.80689 1.80705 0
M  V30 5347 H 496.228 -3.13136 0.820233 0
M  V30 5348 H 495.135 -2.27177 2.97223 0
M  V30 5349 H 496.468 -3.00456 3.89855 0
M  V30 5350 N 498.12 -1.38341 -0.754957 0
M  V30 5351 C 499.366 -1.35678 -1.51536 0
M  V30 5352 C 499.721 0.0533985 -1.92326 0
M  V30 5353 O 499.014 1.01573 -1.6246 0
M  V30 5354 C 499.208 -2.2452 -2.78075 0
M  V30 5355 C 499.037 -3.74035 -2.49655 0
M  V30 5356 C 497.807 -4.43066 -2.42942 0
M  V30 5357 C 500.005 -4.665 -2.16523 0
M  V30 5358 N 497.987 -5.78026 -2.06783 0
M  V30 5359 C 499.358 -5.89962 -1.90644 0
M  V30 5360 C 501.413 -4.54718 -2.02821 0
M  V30 5361 C 500.116 -7.0296 -1.52444 0
M  V30 5362 C 502.142 -5.67618 -1.66023 0
M  V30 5363 C 501.504 -6.90141 -1.41015 0
M  V30 5364 H 497.603 -0.551764 -0.554148 0
M  V30 5365 H 500.187 -1.73716 -0.879258 0
M  V30 5366 H 498.358 -1.88673 -3.39496 0
M  V30 5367 H 500.09 -2.12993 -3.44116 0
M  V30 5368 H 496.845 -3.96264 -2.59367 0
M  V30 5369 H 497.269 -6.49394 -1.91353 0
M  V30 5370 H 501.911 -3.60546 -2.20831 0
M  V30 5371 H 499.629 -7.97051 -1.33174 0
M  V30 5372 H 503.215 -5.6048 -1.56055 0
M  V30 5373 H 502.095 -7.76021 -1.12965 0
M  V30 5374 N 499.598 0.982988 -1.23187 0
M  V30 5375 C 500.823 1.76455 -1.08988 0
M  V30 5376 C 501.248 1.84726 0.354691 0
M  V30 5377 O 500.606 1.30699 1.25649 0
M  V30 5378 C 500.654 3.17094 -1.71708 0
M  V30 5379 O 499.758 4.00648 -0.977477 0
M  V30 5380 H 499.099 0.542988 -0.382177 0
M  V30 5381 H 501.629 1.23413 -1.63188 0
M  V30 5382 H 501.639 3.67684 -1.76841 0
M  V30 5383 H 500.314 3.10389 -2.76823 0
M  V30 5384 H 498.891 3.59161 -1.0029 0
M  V30 5385 N 501.076 1.04316 1.18135 0
M  V30 5386 C 502.353 0.662166 1.84051 0
M  V30 5387 C 502.733 -0.858169 1.9287 0
M  V30 5388 O 502.081 -1.76062 1.45652 0
M  V30 5389 C 502.291 1.3409 3.22212 0
M  V30 5390 C 503.639 1.4733 3.9822 0
M  V30 5391 O 504.663 1.29921 3.31661 0
M  V30 5392 O 503.522 1.75722 5.17479 0
M  V30 5393 H 500.616 0.232005 0.79379 0
M  V30 5394 H 503.162 1.1422 1.25506 0
M  V30 5395 H 501.934 2.37853 3.10711 0
M  V30 5396 H 501.557 0.849649 3.88416 0
M  V30 5397 N 502.554 -1.34406 0.822964 0
M  V30 5398 C 503.831 -1.92733 0.333641 0
M  V30 5399 C 504.211 -1.75107 -1.17901 0
M  V30 5400 O 503.559 -1.12983 -1.98613 0
M  V30 5401 C 503.769 -3.40557 0.763023 0
M  V30 5402 C 505.117 -4.17709 0.761879 0
M  V30 5403 O 506.141 -3.49141 0.705606 0
M  V30 5404 O 505 -5.40082 0.835109 0
M  V30 5405 H 502.094 -0.821964 0.0911249 0
M  V30 5406 H 504.64 -1.4338 0.907757 0
M  V30 5407 H 503.412 -3.47187 1.8049 0
M  V30 5408 H 503.035 -3.97259 0.164605 0
M  V30 5409 N 504.032 -0.577932 -1.46621 0
M  V30 5410 C 504.942 0.160651 -2.34049 0
M  V30 5411 C 505.958 0.890911 -1.49462 0
M  V30 5412 O 507.134 0.855166 -1.82343 0
M  V30 5413 C 504.199 1.16447 -3.26559 0
M  V30 5414 C 503.26 0.4394 -4.27045 0
M  V30 5415 C 502.493 1.3954 -5.15135 0
M  V30 5416 O 502.716 2.63162 -5.06065 0
M  V30 5417 O 501.65 0.908585 -5.95003 0
M  V30 5418 H 505.476 -0.557057 -2.98547 0
M  V30 5419 H 503.061 -0.338369 -1.45518 0
M  V30 5420 H 504.943 1.7434 -3.83645 0
M  V30 5421 H 503.618 1.86373 -2.64663 0
M  V30 5422 H 502.525 -0.181247 -3.73661 0
M  V30 5423 H 503.858 -0.218799 -4.91713 0
M  V30 5424 N 505.51 1.54411 -0.315457 0
M  V30 5425 C 506.757 2.00419 0.289543 0
M  V30 5426 C 507.085 1.20373 1.52776 0
M  V30 5427 O 506.34 0.271769 1.93804 0
M  V30 5428 C 506.639 3.50936 0.676652 0
M  V30 5429 C 506.305 4.48532 -0.461472 0
M  V30 5430 C 504.967 4.74936 -0.773879 0
M  V30 5431 C 507.319 5.06567 -1.22637 0
M  V30 5432 C 504.647 5.56634 -1.85405 0
M  V30 5433 C 506.999 5.89441 -2.29657 0
M  V30 5434 C 505.663 6.1415 -2.61488 0
M  V30 5435 H 504.933 0.733386 0.105951 0
M  V30 5436 H 507.58 1.86434 -0.437554 0
M  V30 5437 H 505.885 3.62606 1.48405 0
M  V30 5438 H 507.582 3.83971 1.15618 0
M  V30 5439 H 504.172 4.28096 -0.207893 0
M  V30 5440 H 508.356 4.86157 -0.998271 0
M  V30 5441 H 503.612 5.74012 -2.10523 0
M  V30 5442 H 507.786 6.33432 -2.89374 0
M  V30 5443 H 505.413 6.77245 -3.45317 0
M  V30 5444 N 506.988 0.0434614 1.5754 0
M  V30 5445 C 508.265 -0.671479 1.83713 0
M  V30 5446 C 508.645 -1.89495 0.930315 0
M  V30 5447 O 507.993 -2.28498 -0.0105639 0
M  V30 5448 C 508.203 -1.0361 3.33266 0
M  V30 5449 C 509.551 -1.42167 4.00092 0
M  V30 5450 O 510.575 -1.12866 3.37846 0
M  V30 5451 O 509.434 -1.96817 5.09829 0
M  V30 5452 H 506.528 -0.330726 0.75799 0
M  V30 5453 H 509.074 0.0722373 1.69546 0
M  V30 5454 H 507.846 -0.165938 3.90948 0
M  V30 5455 H 507.469 -1.83751 3.52592 0
M  V30 5456 N 508.466 -1.55915 -0.229846 0
M  V30 5457 C 509.376 -1.94891 -1.30593 0
M  V30 5458 C 510.392 -0.851604 -1.51736 0
M  V30 5459 O 511.568 -1.15447 -1.65027 0
M  V30 5460 C 508.633 -2.25052 -2.63728 0
M  V30 5461 C 507.694 -3.48306 -2.5096 0
M  V30 5462 C 506.927 -3.77019 -3.77747 0
M  V30 5463 O 507.15 -3.07534 -4.80395 0
M  V30 5464 O 506.084 -4.70523 -3.75356 0
M  V30 5465 H 509.91 -2.86581 -1.00525 0
M  V30 5466 H 507.495 -1.43017 -0.432025 0
M  V30 5467 H 509.377 -2.45682 -3.42372 0
M  V30 5468 H 508.052 -1.36538 -2.93495 0
M  V30 5469 H 506.959 -3.32964 -1.70546 0
M  V30 5470 H 508.292 -4.37177 -2.26136 0
M  V30 5471 N 509.944 0.496216 -1.49584 0
M  V30 5472 C 510.854 1.62352 -1.69349 0
M  V30 5473 C 511.87 1.64184 -0.576147 0
M  V30 5474 O 513.046 1.82517 -0.85144 0
M  V30 5475 C 510.111 2.98698 -1.76013 0
M  V30 5476 C 509.172 3.07454 -2.99617 0
M  V30 5477 C 508.405 4.37296 -3.05953 0
M  V30 5478 O 508.628 5.2637 -2.19752 0
M  V30 5479 O 507.562 4.51124 -3.9846 0
M  V30 5480 H 511.388 1.48606 -2.64859 0
M  V30 5481 H 508.973 0.673022 -1.33382 0
M  V30 5482 H 510.855 3.79725 -1.82721 0
M  V30 5483 H 509.53 3.12696 -0.836828 0
M  V30 5484 H 508.437 2.25597 -2.98424 0
M  V30 5485 H 509.77 2.98385 -3.91443 0
M  V30 5486 N 511.423 1.38739 0.74761 0
M  V30 5487 C 512.648 1.38702 1.54197 0
M  V30 5488 C 513.073 -0.019664 1.8809 0
M  V30 5489 O 512.431 -1.00333 1.51006 0
M  V30 5490 C 512.479 2.25492 2.814 0
M  V30 5491 O 511.583 1.67613 3.76802 0
M  V30 5492 H 510.924 0.472863 0.466151 0
M  V30 5493 H 513.454 1.82577 0.923413 0
M  V30 5494 H 513.464 2.39561 3.30264 0
M  V30 5495 H 512.139 3.27727 2.56062 0
M  V30 5496 H 510.716 1.62718 3.35526 0
M  V30 5497 N 512.901 -0.976442 1.23707 0
M  V30 5498 C 513.811 -2.10359 1.03856 0
M  V30 5499 C 514.827 -1.73991 -0.0180919 0
M  V30 5500 O 516.003 -2.0061 0.178211 0
M  V30 5501 C 513.068 -3.40809 0.636387 0
M  V30 5502 C 512.129 -3.91179 1.76854 0
M  V30 5503 C 511.362 -5.15404 1.38546 0
M  V30 5504 O 511.585 -5.69754 0.27142 0
M  V30 5505 O 510.519 -5.5994 2.20797 0
M  V30 5506 H 514.345 -2.29997 1.98331 0
M  V30 5507 H 511.93 -1.08742 1.02448 0
M  V30 5508 H 513.812 -4.19269 0.423223 0
M  V30 5509 H 512.487 -3.22493 -0.279322 0
M  V30 5510 H 511.394 -3.13819 2.03638 0
M  V30 5511 H 512.727 -4.13958 2.6627 0
M  V30 5512 N 514.379 -1.04941 -1.1758 0
M  V30 5513 C 515.289 -0.658826 -2.25159 0
M  V30 5514 C 516.305 0.318941 -1.71052 0
M  V30 5515 O 517.481 0.171669 -2.00667 0
M  V30 5516 C 514.546 -0.0369522 -3.4668 0
M  V30 5517 C 513.607 -1.06484 -4.15884 0
M  V30 5518 C 512.84 -0.472551 -5.31604 0
M  V30 5519 O 513.063 0.718736 -5.65854 0
M  V30 5520 O 511.997 -1.20557 -5.89703 0
M  V30 5521 H 515.823 -1.55533 -2.60851 0
M  V30 5522 H 513.408 -0.820819 -1.24832 0
M  V30 5523 H 515.29 0.308784 -4.20267 0
M  V30 5524 H 513.965 0.833238 -3.12792 0
M  V30 5525 H 512.872 -1.46253 -3.44327 0
M  V30 5526 H 514.205 -1.9061 -4.53794 0
M  V30 5527 N 515.857 1.33968 -0.830081 0
M  V30 5528 C 517.105 1.97672 -0.420734 0
M  V30 5529 C 517.426 1.66111 1.02138 0
M  V30 5530 O 516.696 0.955503 1.71017 0
M  V30 5531 H 515.276 0.73125 -0.152587 0
M  V30 5532 H 517.938 1.63483 -1.0611 0
M  V30 5533 H 517.034 3.07294 -0.545588 0
M  V30 5534 N 517.335 0.585699 1.46312 0
M  V30 5535 C 518.282 -0.145835 2.30339 0
M  V30 5536 C 519.252 -0.881215 1.40797 0
M  V30 5537 O 520.437 -0.871293 1.69744 0
M  V30 5538 C 517.577 -1.15161 3.25318 0
M  V30 5539 C 516.69 -0.419367 4.2996 0
M  V30 5540 C 515.825 -1.41293 5.12064 0
M  V30 5541 C 514.864 -0.667261 6.08452 0
M  V30 5542 N 514.001 -1.60903 6.83414 0
M  V30 5543 H 518.841 0.576755 2.92365 0
M  V30 5544 H 516.378 0.296237 1.44086 0
M  V30 5545 H 518.336 -1.74763 3.78832 0
M  V30 5546 H 516.966 -1.84188 2.65094 0
M  V30 5547 H 516.018 0.291751 3.7928 0
M  V30 5548 H 517.33 0.163433 4.98532 0
M  V30 5549 H 516.484 -2.08167 5.6987 0
M  V30 5550 H 515.223 -2.02966 4.43459 0
M  V30 5551 H 514.228 0.0152356 5.49798 0
M  V30 5552 H 515.453 -0.0558817 6.79077 0
M  V30 5553 H 513.399 -2.21381 6.17516 0
M  V30 5554 H 513.316 -1.07911 7.48259 0
M  V30 5555 H 514.584 -2.26802 7.45775 0
M  V30 5556 N 518.813 -1.54241 0.323641 0
M  V30 5557 C 519.776 -2.22997 -0.529602 0
M  V30 5558 C 520.776 -1.22345 -1.04347 0
M  V30 5559 O 521.966 -1.46924 -0.935889 0
M  V30 5560 C 519.098 -2.93409 -1.73562 0
M  V30 5561 H 520.291 -2.99815 0.0714518 0
M  V30 5562 H 517.844 -1.56121 0.0747258 0
M  V30 5563 H 518.579 -2.20729 -2.37591 0
M  V30 5564 H 518.364 -3.67217 -1.37456 0
M  V30 5565 H 519.854 -3.45794 -2.34128 0
M  V30 5566 N 520.291 -0.0518155 -1.57515 0
M  V30 5567 C 521.254 0.907547 -2.10467 0
M  V30 5568 C 522.254 1.23947 -1.02439 0
M  V30 5569 O 523.444 1.17604 -1.2851 0
M  V30 5570 C 520.576 2.21723 -2.58944 0
M  V30 5571 H 521.769 0.44851 -2.96527 0
M  V30 5572 H 519.322 0.196598 -1.55059 0
M  V30 5573 H 520.057 2.72206 -1.76279 0
M  V30 5574 H 519.842 1.98935 -3.37886 0
M  V30 5575 H 521.332 2.90441 -3.00056 0
M  V30 5576 N 521.769 1.56035 0.221574 0
M  V30 5577 C 523.018 1.78245 0.944016 0
M  V30 5578 C 523.331 0.620371 1.85501 0
M  V30 5579 O 524.537 0.726103 2.6161 0
M  V30 5580 C 522.993 3.15659 1.7288 0
M  V30 5581 C 522.601 4.39591 0.863942 0
M  V30 5582 C 524.345 3.47195 2.44246 0
M  V30 5583 C 522.252 5.6803 1.64607 0
M  V30 5584 H 521.182 0.664547 0.356222 0
M  V30 5585 H 523.833 1.8243 0.197904 0
M  V30 5586 H 522.215 3.0565 2.51781 0
M  V30 5587 H 523.389 4.60655 0.115464 0
M  V30 5588 H 521.704 4.15572 0.262407 0
M  V30 5589 H 524.301 4.40381 3.03263 0
M  V30 5590 H 524.644 2.69693 3.1713 0
M  V30 5591 H 525.177 3.58533 1.72334 0
M  V30 5592 H 521.916 6.48425 0.960507 0
M  V30 5593 H 521.436 5.51027 2.36917 0
M  V30 5594 H 523.115 6.08203 2.20675 0
M  V30 5595 N 523.247 -0.488276 1.49845 0
M  V30 5596 C 524.472 -1.26997 1.63971 0
M  V30 5597 C 524.897 -1.85427 0.315994 0
M  V30 5598 O 524.255 -1.66475 -0.718032 0
M  V30 5599 C 524.303 -2.36689 2.72049 0
M  V30 5600 O 523.407 -3.40882 2.32107 0
M  V30 5601 H 522.748 -0.374376 0.548396 0
M  V30 5602 H 525.278 -0.583104 1.96115 0
M  V30 5603 H 525.288 -2.82262 2.94605 0
M  V30 5604 H 523.963 -1.93529 3.68129 0
M  V30 5605 H 522.54 -3.01139 2.19931 0
M  V30 5606 N 524.725 -1.39134 -0.740242 0
M  V30 5607 C 525.657 -1.33332 -1.86428 0
M  V30 5608 C 526.67 -0.243042 -1.60976 0
M  V30 5609 O 527.859 -0.501608 -1.71307 0
M  V30 5610 C 524.959 -1.04626 -3.22346 0
M  V30 5611 C 524.132 -2.24826 -3.75196 0
M  V30 5612 C 523.191 -1.92659 -4.89662 0
M  V30 5613 O 522.217 -2.6529 -5.03597 0
M  V30 5614 N 523.419 -0.889575 -5.73643 0
M  V30 5615 H 526.184 -2.30196 -1.91911 0
M  V30 5616 H 523.745 -1.33168 -0.920756 0
M  V30 5617 H 525.737 -0.811347 -3.96484 0
M  V30 5618 H 524.307 -0.165129 -3.12164 0
M  V30 5619 H 523.527 -2.64301 -2.9247 0
M  V30 5620 H 524.815 -3.05015 -4.07239 0
M  V30 5621 H 524.213 -0.287529 -5.64969 0
M  V30 5622 H 522.77 -0.714557 -6.47871 0
M  V30 5623 N 526.204 0.969867 -1.24223 0
M  V30 5624 C 527.134 2.08191 -1.05729 0
M  V30 5625 C 528.115 1.70075 0.0290765 0
M  V30 5626 O 529.3 1.93712 -0.137583 0
M  V30 5627 C 526.43 3.40991 -0.658995 0
M  V30 5628 C 525.384 3.93054 -1.69389 0
M  V30 5629 C 524.71 5.22171 -1.15072 0
M  V30 5630 C 526.01 4.21137 -3.08935 0
M  V30 5631 H 527.704 2.23921 -1.98746 0
M  V30 5632 H 525.25 1.07602 -0.956967 0
M  V30 5633 H 527.203 4.18221 -0.51662 0
M  V30 5634 H 525.927 3.25155 0.30686 0
M  V30 5635 H 524.586 3.17977 -1.82444 0
M  V30 5636 H 524.234 5.02694 -0.175539 0
M  V30 5637 H 523.934 5.57973 -1.84229 0
M  V30 5638 H 525.458 6.02013 -1.02042 0
M  V30 5639 H 526.872 4.8908 -2.99121 0
M  V30 5640 H 525.269 4.68163 -3.75425 0
M  V30 5641 H 526.339 3.27996 -3.57137 0
M  V30 5642 N 527.682 1.05563 1.17022 0
M  V30 5643 C 529.098 0.777684 1.39371 0
M  V30 5644 C 529.298 -0.626269 1.91521 0
M  V30 5645 O 528.354 -1.38806 2.10924 0
M  V30 5646 C 529.667 1.83642 2.3811 0
M  V30 5647 C 531.215 1.85907 2.51809 0
M  V30 5648 C 531.69 2.90813 3.53824 0
M  V30 5649 N 533.181 2.898 3.61345 0
M  V30 5650 C 533.916 3.6762 4.40049 0
M  V30 5651 N 533.412 4.55237 5.22237 0
M  V30 5652 N 535.205 3.56044 4.34959 0
M  V30 5653 H 527.356 1.9614 0.815047 0
M  V30 5654 H 529.619 0.849527 0.420722 0
M  V30 5655 H 529.325 2.84425 2.06871 0
M  V30 5656 H 529.199 1.6812 3.37662 0
M  V30 5657 H 531.586 0.857865 2.82356 0
M  V30 5658 H 531.667 2.05506 1.52318 0
M  V30 5659 H 531.311 3.91122 3.24015 0
M  V30 5660 H 531.241 2.68465 4.53028 0
M  V30 5661 H 533.732 2.26274 3.02669 0
M  V30 5662 H 534.045 5.11291 5.79484 0
M  V30 5663 H 532.39 4.59296 5.21605 0
M  V30 5664 H 535.581 2.86986 3.69806 0
M  V30 5665 H 535.754 4.16938 4.96051 0
M  V30 5666 N 529.16 -1.33526 0.837174 0
M  V30 5667 C 530.385 -2.0258 0.444545 0
M  V30 5668 C 530.81 -1.6258 -0.946006 0
M  V30 5669 O 530.168 -0.817548 -1.6182 0
M  V30 5670 C 530.216 -3.5605 0.571006 0
M  V30 5671 O 529.32 -4.10422 -0.403431 0
M  V30 5672 H 528.661 -0.638866 0.180958 0
M  V30 5673 H 531.191 -1.70462 1.13154 0
M  V30 5674 H 531.201 -4.05488 0.452024 0
M  V30 5675 H 529.876 -3.84509 1.58512 0
M  V30 5676 H 528.453 -3.72113 -0.242147 0
M  V30 5677 N 530.638 -0.59345 -1.46 0
M  V30 5678 C 532.049 -0.169801 -1.85926 0
M  V30 5679 C 532.4 1.26984 -1.49565 0
M  V30 5680 O 531.525 1.96076 -0.915602 0
M  V30 5681 C 532.12 -0.301385 -3.37457 0
M  V30 5682 C 530.679 0.0674684 -3.7634 0
M  V30 5683 C 529.826 -0.632383 -2.69993 0
M  V30 5684 H 532.777 -0.801014 -1.37002 0
M  V30 5685 H 532.798 0.470331 -3.77582 0
M  V30 5686 H 532.31 -1.34927 -3.63891 0
M  V30 5687 H 530.411 1.11507 -3.55523 0
M  V30 5688 H 530.524 -0.316332 -4.78055 0
M  V30 5689 H 528.888 -0.0714961 -2.546 0
M  V30 5690 H 529.671 -1.68212 -2.99265 0
M  V30 5691 N 532.116 1.54067 -0.331816 0
M  V30 5692 C 533.532 1.59587 0.0205388 0
M  V30 5693 C 533.732 1.34813 1.49759 0
M  V30 5694 O 532.788 1.13661 2.25471 0
M  V30 5695 C 534.101 2.97959 -0.405103 0
M  V30 5696 C 535.649 3.10964 -0.356454 0
M  V30 5697 C 536.124 4.51694 -0.757384 0
M  V30 5698 N 537.615 4.57709 -0.71111 0
M  V30 5699 C 538.35 5.64729 -0.993427 0
M  V30 5700 N 537.846 6.79652 -1.3433 0
M  V30 5701 N 539.639 5.54546 -0.918442 0
M  V30 5702 H 531.79 1.68426 -1.29407 0
M  V30 5703 H 534.053 0.78819 -0.526745 0
M  V30 5704 H 533.759 3.21115 -1.43451 0
M  V30 5705 H 533.633 3.76524 0.225692 0
M  V30 5706 H 536.02 2.87538 0.663763 0
M  V30 5707 H 536.101 2.34484 -1.02229 0
M  V30 5708 H 535.745 4.75853 -1.77555 0
M  V30 5709 H 535.675 5.26555 -0.0691444 0
M  V30 5710 H 538.166 3.75176 -0.452883 0
M  V30 5711 H 538.479 7.57221 -1.54388 0
M  V30 5712 H 536.824 6.81128 -1.38164 0
M  V30 5713 H 540.015 4.63641 -0.644536 0
M  V30 5714 H 540.188 6.37861 -1.14181 0
M  V30 5715 N 533.594 0.0601682 1.57485 0
M  V30 5716 C 534.84 -0.612501 1.93329 0
M  V30 5717 C 535.173 -1.6996 0.939526 0
M  V30 5718 O 534.448 -1.94472 -0.0330957 0
M  V30 5719 C 534.731 -1.20025 3.39508 0
M  V30 5720 C 534.584 -0.12059 4.49638 0
M  V30 5721 C 535.903 -2.10923 3.86264 0
M  V30 5722 H 533.022 -0.221185 0.703027 0
M  V30 5723 H 535.664 0.123768 1.89596 0
M  V30 5724 H 533.814 -1.82774 3.42821 0
M  V30 5725 H 535.486 0.51185 4.58452 0
M  V30 5726 H 533.729 0.550251 4.30296 0
M  V30 5727 H 534.4 -0.572019 5.49028 0
M  V30 5728 H 536.876 -1.58124 3.84884 0
M  V30 5729 H 535.752 -2.48987 4.8918 0
M  V30 5730 H 536.013 -3.01292 3.23536 0
M  V30 5731 N 535.072 -1.5615 -0.213296 0
M  V30 5732 C 536.019 -1.93086 -1.26437 0
M  V30 5733 C 536.989 -0.789086 -1.4616 0
M  V30 5734 O 538.174 -1.04569 -1.59593 0
M  V30 5735 C 535.314 -2.26003 -2.608 0
M  V30 5736 C 534.427 -3.53156 -2.48807 0
M  V30 5737 C 533.562 -3.7548 -3.7575 0
M  V30 5738 C 532.601 -4.96119 -3.58514 0
M  V30 5739 N 531.738 -5.14791 -4.77425 0
M  V30 5740 H 536.578 -2.82707 -0.942376 0
M  V30 5741 H 534.115 -1.39919 -0.454001 0
M  V30 5742 H 536.073 -2.431 -3.39055 0
M  V30 5743 H 534.703 -1.39546 -2.91079 0
M  V30 5744 H 533.755 -3.44207 -1.61944 0
M  V30 5745 H 535.067 -4.41565 -2.31996 0
M  V30 5746 H 534.221 -3.92718 -4.62447 0
M  V30 5747 H 532.96 -2.85368 -3.95495 0
M  V30 5748 H 531.965 -4.78823 -2.70201 0
M  V30 5749 H 533.19 -5.87724 -3.40231 0
M  V30 5750 H 531.136 -4.27623 -4.97468 0
M  V30 5751 H 531.053 -5.97347 -4.63371 0
M  V30 5752 H 532.321 -5.36471 -5.65525 0
M  V30 5753 N 536.55 0.480323 -1.50102 0
M  V30 5754 C 537.46 1.60547 -1.71061 0
M  V30 5755 C 538.476 1.63564 -0.593529 0
M  V30 5756 O 539.652 1.81604 -0.870751 0
M  V30 5757 C 536.717 2.96814 -1.79171 0
M  V30 5758 C 535.778 3.04259 -3.02861 0
M  V30 5759 C 535.011 4.34027 -3.10574 0
M  V30 5760 O 535.234 5.24009 -2.25323 0
M  V30 5761 O 534.168 4.46873 -4.03223 0
M  V30 5762 H 537.994 1.45788 -2.6642 0
M  V30 5763 H 535.579 0.658838 -1.34088 0
M  V30 5764 H 537.461 3.77765 -1.86738 0
M  V30 5765 H 536.136 3.11791 -0.869947 0
M  V30 5766 H 535.043 2.22419 -3.008 0
M  V30 5767 H 536.376 2.94216 -3.94586 0
M  V30 5768 N 538.028 1.39524 0.732853 0
M  V30 5769 C 539.253 1.40329 1.52717 0
M  V30 5770 C 539.678 0.000286574 1.881 0
M  V30 5771 O 539.036 -0.987262 1.52062 0
M  V30 5772 C 539.084 2.28464 2.78992 0
M  V30 5773 O 538.188 1.716 3.75003 0
M  V30 5774 H 537.529 0.47778 0.461109 0
M  V30 5775 H 540.059 1.83546 0.903996 0
M  V30 5776 H 540.069 2.43051 3.27705 0
M  V30 5777 H 538.744 3.30425 2.52572 0
M  V30 5778 H 537.321 1.66267 3.33781 0
M  V30 5779 N 539.506 -0.963266 1.24736 0
M  V30 5780 C 540.755 -1.70115 1.08369 0
M  V30 5781 C 541.068 -1.91939 -0.376688 0
M  V30 5782 O 542.274 -2.6334 -0.660624 0
M  V30 5783 C 540.73 -3.06218 1.89099 0
M  V30 5784 C 540.338 -2.92221 3.39574 0
M  V30 5785 C 542.082 -3.83848 1.81275 0
M  V30 5786 C 539.989 -4.23662 4.12631 0
M  V30 5787 H 538.919 -0.637944 0.401924 0
M  V30 5788 H 541.57 -1.07304 1.48856 0
M  V30 5789 H 539.952 -3.69884 1.41429 0
M  V30 5790 H 541.126 -2.37541 3.94856 0
M  V30 5791 H 539.441 -2.28054 3.48397 0
M  V30 5792 H 542.038 -4.81188 2.33158 0
M  V30 5793 H 542.381 -4.08949 0.778895 0
M  V30 5794 H 542.914 -3.26918 2.26649 0
M  V30 5795 H 539.653 -4.03753 5.16395 0
M  V30 5796 H 539.173 -4.78141 3.62135 0
M  V30 5797 H 540.852 -4.92256 4.19873 0
M  V30 5798 N 540.985 -1.06182 -1.16461 0
M  V30 5799 C 542.21 -0.798599 -1.91408 0
M  V30 5800 C 542.635 0.640987 -1.76842 0
M  V30 5801 O 541.993 1.44652 -1.09296 0
M  V30 5802 C 542.041 -1.19665 -3.40165 0
M  V30 5803 O 541.145 -0.334768 -4.11039 0
M  V30 5804 H 540.486 -0.291961 -0.596368 0
M  V30 5805 H 543.016 -1.41732 -1.47557 0
M  V30 5806 H 543.026 -1.16772 -3.90933 0
M  V30 5807 H 541.701 -2.24526 -3.50087 0
M  V30 5808 H 540.278 -0.425168 -3.70468 0
M  V30 5809 N 542.463 1.3308 -0.844243 0
M  V30 5810 C 543.411 2.31028 -0.269954 0
M  V30 5811 C 544.405 1.58381 0.600997 0
M  V30 5812 O 545.611 1.73203 0.48996 0
M  V30 5813 H 541.986 0.748866 -0.0685782 0
M  V30 5814 H 543.957 2.76967 -1.11049 0
M  V30 5815 C 542.706 3.43549 0.535676 0
M  V30 5816 H 542.029 3.99604 -0.125202 0
M  V30 5817 H 543.469 4.14267 0.903262 0
M  V30 5818 C 541.928 2.8988 1.71672 0
M  V30 5819 O 542.458 2.86511 2.81557 0
M  V30 5820 N 540.664 2.46416 1.54037 0
M  V30 5821 H 540.211 2.49356 0.64649 0
M  V30 5822 H 540.169 2.1086 2.33207 0
M  V30 5823 N 543.941 0.601185 1.45683 0
M  V30 5824 C 545.166 0.0982245 2.07167 0
M  V30 5825 C 545.591 -1.20546 1.44396 0
M  V30 5826 O 544.949 -1.73247 0.534347 0
M  V30 5827 C 544.997 -0.0346976 3.60583 0
M  V30 5828 O 544.101 -1.08657 3.97828 0
M  V30 5829 H 543.442 0.0711618 0.660176 0
M  V30 5830 H 545.972 0.829376 1.87036 0
M  V30 5831 H 545.982 -0.234969 4.07323 0
M  V30 5832 H 544.657 0.917265 4.05659 0
M  V30 5833 H 543.234 -0.863275 3.6277 0
M  V30 5834 N 545.419 -1.53889 0.339982 0
M  V30 5835 C 546.329 -2.28604 -0.526988 0
M  V30 5836 C 547.345 -1.33578 -1.11503 0
M  V30 5837 O 548.521 -1.66612 -1.13148 0
M  V30 5838 C 545.586 -3.04164 -1.66389 0
M  V30 5839 C 544.647 -4.14809 -1.10599 0
M  V30 5840 C 543.88 -4.86756 -2.18871 0
M  V30 5841 O 544.103 -4.58343 -3.39526 0
M  V30 5842 O 543.037 -5.73289 -1.83366 0
M  V30 5843 H 546.863 -3.03594 0.0802707 0
M  V30 5844 H 544.448 -1.4903 0.105141 0
M  V30 5845 H 546.33 -3.51427 -2.32544 0
M  V30 5846 H 545.005 -2.32035 -2.25703 0
M  V30 5847 H 543.912 -3.71857 -0.409067 0
M  V30 5848 H 545.245 -4.89029 -0.557771 0
M  V30 5849 N 546.897 -0.0685191 -1.57451 0
M  V30 5850 C 547.827 0.89747 -2.15564 0
M  V30 5851 C 548.808 1.31266 -1.08181 0
M  V30 5852 O 549.993 1.38429 -1.36202 0
M  V30 5853 C 547.123 2.16623 -2.71463 0
M  V30 5854 C 546.077 1.89054 -3.83982 0
M  V30 5855 C 545.403 3.22532 -4.26471 0
M  V30 5856 C 546.703 1.1984 -5.08366 0
M  V30 5857 H 548.397 0.413373 -2.96533 0
M  V30 5858 H 545.943 0.197391 -1.42641 0
M  V30 5859 H 547.896 2.84614 -3.10761 0
M  V30 5860 H 546.62 2.67269 -1.8771 0
M  V30 5861 H 545.279 1.23469 -3.45183 0
M  V30 5862 H 544.927 3.71013 -3.39644 0
M  V30 5863 H 544.627 3.04879 -5.02317 0
M  V30 5864 H 546.151 3.91727 -4.68383 0
M  V30 5865 H 547.565 1.77896 -5.45001 0
M  V30 5866 H 545.962 1.12456 -5.89469 0
M  V30 5867 H 547.032 0.176996 -4.84577 0
M  V30 5868 N 548.375 1.56261 0.205012 0
M  V30 5869 C 549.622 1.8004 0.926927 0
M  V30 5870 C 549.95 0.640086 1.83666 0
M  V30 5871 O 549.205 -0.374702 1.92079 0
M  V30 5872 C 549.504 3.09722 1.78345 0
M  V30 5873 C 549.17 4.39082 1.02555 0
M  V30 5874 C 547.832 4.74226 0.816256 0
M  V30 5875 C 550.184 5.18877 0.491559 0
M  V30 5876 C 547.512 5.86668 0.0613287 0
M  V30 5877 C 549.864 6.32105 -0.250107 0
M  V30 5878 C 548.528 6.6584 -0.470508 0
M  V30 5879 H 547.798 0.658812 0.339187 0
M  V30 5880 H 550.445 1.90515 0.19395 0
M  V30 5881 H 548.75 2.9444 2.5848 0
M  V30 5882 H 550.447 3.25324 2.34446 0
M  V30 5883 H 547.037 4.11497 1.19868 0
M  V30 5884 H 551.221 4.92147 0.640684 0
M  V30 5885 H 546.477 6.11283 -0.119501 0
M  V30 5886 H 550.651 6.93157 -0.671307 0
M  V30 5887 H 548.278 7.5281 -1.05739 0
M  V30 5888 N 549.853 -0.472356 1.50355 0
M  V30 5889 C 551.264 -1.05326 1.54154 0
M  V30 5890 C 551.615 -1.93155 0.344303 0
M  V30 5891 O 550.74 -2.09479 -0.542928 0
M  V30 5892 C 551.335 -1.91691 2.79356 0
M  V30 5893 C 549.894 -2.44892 2.8584 0
M  V30 5894 C 549.041 -1.23205 2.48426 0
M  V30 5895 H 551.992 -0.255027 1.56637 0
M  V30 5896 H 552.013 -2.76742 2.6114 0
M  V30 5897 H 551.525 -1.27741 3.66475 0
M  V30 5898 H 549.626 -3.12399 2.0307 0
M  V30 5899 H 549.739 -2.80086 3.88701 0
M  V30 5900 H 548.103 -1.56643 2.00836 0
M  V30 5901 H 548.886 -0.609194 3.37852 0
M  V30 5902 N 551.331 -1.39911 -0.725443 0
M  V30 5903 C 552.559 -1.40949 -1.51463 0
M  V30 5904 C 552.974 -0.0065242 -1.88799 0
M  V30 5905 O 552.331 0.967163 -1.54765 0
M  V30 5906 C 552.382 -2.29119 -2.79619 0
M  V30 5907 O 552.103 -3.63952 -2.43866 0
M  V30 5908 C 553.604 -2.38642 -3.73584 0
M  V30 5909 H 550.824 -0.481091 -0.467752 0
M  V30 5910 H 553.368 -1.83843 -0.895651 0
M  V30 5911 H 551.523 -1.89612 -3.37826 0
M  V30 5912 H 551.937 -4.10677 -3.26258 0
M  V30 5913 H 553.411 -3.04563 -4.60375 0
M  V30 5914 H 553.888 -1.40846 -4.16004 0
M  V30 5915 H 554.494 -2.78659 -3.21293 0
M  V30 5916 N 552.809 0.956637 -1.25245 0
M  V30 5917 C 554.037 1.73571 -1.12608 0
M  V30 5918 C 554.452 1.86063 0.320324 0
M  V30 5919 O 553.809 1.35691 1.22042 0
M  V30 5920 C 553.86 3.15053 -1.77268 0
M  V30 5921 O 553.581 3.03174 -3.16255 0
M  V30 5922 C 555.082 4.09248 -1.70386 0
M  V30 5923 H 552.302 0.543955 -0.392879 0
M  V30 5924 H 554.846 1.20031 -1.65568 0
M  V30 5925 H 553.001 3.65543 -1.28284 0
M  V30 5926 H 553.415 3.9241 -3.48015 0
M  V30 5927 H 554.889 5.06138 -2.20291 0
M  V30 5928 H 555.366 4.34102 -0.667239 0
M  V30 5929 H 555.972 3.64672 -2.18849 0
M  V30 5930 N 554.287 1.06798 1.15896 0
M  V30 5931 C 555.564 0.701057 1.82605 0
M  V30 5932 C 555.944 -0.817066 1.94646 0
M  V30 5933 O 555.292 -1.72933 1.49353 0
M  V30 5934 C 555.502 1.40895 3.19296 0
M  V30 5935 C 556.85 1.55744 3.95005 0
M  V30 5936 O 557.874 1.36927 3.28831 0
M  V30 5937 O 556.733 1.86658 5.13635 0
M  V30 5938 H 553.827 0.248791 0.78869 0
M  V30 5939 H 556.373 1.16857 1.23055 0
M  V30 5940 H 555.145 2.4439 3.05596 0
M  V30 5941 H 554.768 0.931847 3.86526 0
M  V30 5942 N 555.766 -1.3263 0.851289 0
M  V30 5943 C 557.177 -1.79653 0.5081 0
M  V30 5944 C 557.528 -1.70327 -0.973815 0
M  V30 5945 O 556.653 -1.25986 -1.75944 0
M  V30 5946 C 557.248 -3.26196 0.915515 0
M  V30 5947 C 555.807 -3.71187 0.624277 0
M  V30 5948 C 554.954 -2.53804 1.11709 0
M  V30 5949 H 557.905 -1.19976 1.03882 0
M  V30 5950 H 557.926 -3.79801 0.230535 0
M  V30 5951 H 557.438 -3.32952 1.99411 0
M  V30 5952 H 555.539 -3.69948 -0.443737 0
M  V30 5953 H 555.652 -4.64132 1.18821 0
M  V30 5954 H 554.016 -2.48964 0.537484 0
M  V30 5955 H 554.799 -2.63315 2.20272 0
M  V30 5956 N 557.244 -0.608902 -1.45362 0
M  V30 5957 C 558.49 -0.104762 -2.02529 0
M  V30 5958 C 558.823 1.26191 -1.47613 0
M  V30 5959 O 558.098 1.8327 -0.65134 0
M  V30 5960 C 558.381 -0.0672661 -3.60037 0
M  V30 5961 C 558.234 -1.4647 -4.25284 0
M  V30 5962 C 559.553 0.619877 -4.35713 0
M  V30 5963 H 556.672 -0.0395438 -0.735938 0
M  V30 5964 H 559.314 -0.781126 -1.73201 0
M  V30 5965 H 557.464 0.50871 -3.85155 0
M  V30 5966 H 559.136 -2.08785 -4.11347 0
M  V30 5967 H 557.379 -2.02502 -3.83634 0
M  V30 5968 H 558.05 -1.39069 -5.34195 0
M  V30 5969 H 560.526 0.130297 -4.15896 0
M  V30 5970 H 559.402 0.615224 -5.45441 0
M  V30 5971 H 559.663 1.68621 -4.0868 0
M  V30 5972 N 558.722 1.53707 -0.348139 0
M  V30 5973 C 559.97 2.00591 0.246478 0
M  V30 5974 C 560.291 1.23753 1.50699 0
M  V30 5975 O 559.561 0.345964 1.92821 0
M  V30 5976 H 558.141 0.741053 0.0940679 0
M  V30 5977 H 560.803 1.89139 -0.470354 0
M  V30 5978 H 559.899 3.08297 0.485714 0
M  V30 5979 N 560.2 0.0768682 1.57412 0
M  V30 5980 C 561.428 -0.59997 1.9801 0
M  V30 5981 C 561.843 -1.62842 0.955408 0
M  V30 5982 O 561.2 -1.8241 -0.057314 0
M  V30 5983 C 561.251 -1.26401 3.38681 0
M  V30 5984 O 560.972 -0.276723 4.37225 0
M  V30 5985 C 562.473 -2.0282 3.94182 0
M  V30 5986 H 559.693 -0.162239 0.651091 0
M  V30 5987 H 562.237 0.150771 2.03943 0
M  V30 5988 H 560.392 -1.96581 3.33819 0
M  V30 5989 H 560.806 -0.753744 5.19056 0
M  V30 5990 H 562.28 -2.44667 4.94815 0
M  V30 5991 H 562.757 -2.88678 3.31001 0
M  V30 5992 H 563.363 -1.37496 4.02461 0
M  V30 5993 N 561.678 -1.56367 -0.196722 0
M  V30 5994 C 562.608 -1.97442 -1.24655 0
M  V30 5995 C 563.589 -0.846147 -1.47561 0
M  V30 5996 O 564.774 -1.11035 -1.59326 0
M  V30 5997 C 561.904 -2.31253 -2.59112 0
M  V30 5998 C 560.858 -3.46804 -2.50821 0
M  V30 5999 C 560.184 -3.66286 -3.89536 0
M  V30 6000 C 561.484 -4.8104 -2.03465 0
M  V30 6001 H 563.178 -2.85388 -0.905216 0
M  V30 6002 H 560.724 -1.37304 -0.434002 0
M  V30 6003 H 562.677 -2.58583 -3.32736 0
M  V30 6004 H 561.401 -1.40188 -2.94983 0
M  V30 6005 H 560.06 -3.19563 -1.79653 0
M  V30 6006 H 559.708 -2.72555 -4.22756 0
M  V30 6007 H 559.408 -4.4402 -3.84864 0
M  V30 6008 H 560.932 -3.9599 -4.64784 0
M  V30 6009 H 562.346 -5.07411 -2.66846 0
M  V30 6010 H 560.743 -5.62232 -2.09798 0
M  V30 6011 H 561.813 -4.74732 -0.98781 0
M  V30 6012 N 563.156 0.464375 -1.50603 0
M  V30 6013 C 564.086 1.56944 -1.72889 0
M  V30 6014 C 565.067 1.59979 -0.577997 0
M  V30 6015 O 566.252 1.76138 -0.817855 0
M  V30 6016 C 563.382 2.95225 -1.8292 0
M  V30 6017 C 562.336 3.07056 -2.98162 0
M  V30 6018 C 561.662 4.47051 -2.93343 0
M  V30 6019 C 562.962 2.83648 -4.38567 0
M  V30 6020 H 564.656 1.38547 -2.65415 0
M  V30 6021 H 562.202 0.665082 -1.27721 0
M  V30 6022 H 564.155 3.72467 -1.97095 0
M  V30 6023 H 562.879 3.14793 -0.870209 0
M  V30 6024 H 561.538 2.32248 -2.83648 0
M  V30 6025 H 561.186 4.63547 -1.95276 0
M  V30 6026 H 560.886 4.55902 -3.70712 0
M  V30 6027 H 562.41 5.26304 -3.09575 0
M  V30 6028 H 563.824 3.50636 -4.53572 0
M  V30 6029 H 562.221 3.03937 -5.17438 0
M  V30 6030 H 563.291 1.79451 -4.50472 0
M  V30 6031 N 564.634 1.40294 0.718013 0
M  V30 6032 C 565.566 1.36281 1.84283 0
M  V30 6033 C 566.579 0.268621 1.60569 0
M  V30 6034 O 567.768 0.528798 1.70487 0
M  V30 6035 C 564.868 1.09741 3.2064 0
M  V30 6036 C 564.041 2.30767 3.71571 0
M  V30 6037 C 563.1 2.00424 4.86535 0
M  V30 6038 O 562.126 2.73268 4.99313 0
M  V30 6039 N 563.328 0.980724 5.72156 0
M  V30 6040 H 566.093 2.3322 1.88225 0
M  V30 6041 H 563.654 1.34616 0.899453 0
M  V30 6042 H 565.646 0.874322 3.95143 0
M  V30 6043 H 564.216 0.214771 3.11861 0
M  V30 6044 H 563.436 2.68921 2.88228 0
M  V30 6045 H 564.724 3.11455 4.02335 0
M  V30 6046 H 564.122 0.377375 5.6444 0
M  V30 6047 H 562.679 0.817538 6.46653 0
M  V30 6048 N 566.112 -0.949982 1.2575 0
M  V30 6049 C 567.358 -1.69766 1.10938 0
M  V30 6050 C 567.691 -1.91056 -0.348028 0
M  V30 6051 O 566.966 -1.48488 -1.25625 0
M  V30 6052 C 567.249 -3.07779 1.86933 0
M  V30 6053 C 567.102 -2.9387 3.4053 0
M  V30 6054 C 568.421 -4.07749 1.65616 0
M  V30 6055 H 565.54 -0.616144 0.404396 0
M  V30 6056 H 568.182 -1.10394 1.54639 0
M  V30 6057 H 566.332 -3.58462 1.4979 0
M  V30 6058 H 568.004 -2.50476 3.87375 0
M  V30 6059 H 566.247 -2.29686 3.68004 0
M  V30 6060 H 566.918 -3.91719 3.88922 0
M  V30 6061 H 569.394 -3.65994 1.97959 0
M  V30 6062 H 568.27 -5.02348 2.21218 0
M  V30 6063 H 568.531 -4.38029 0.598595 0
M  V30 6064 N 567.59 -1.07411 -1.15328 0
M  V30 6065 C 569.001 -0.820261 -1.67716 0
M  V30 6066 C 569.352 0.654539 -1.8496 0
M  V30 6067 O 568.477 1.50664 -1.55337 0
M  V30 6068 C 569.072 -1.48242 -3.04647 0
M  V30 6069 C 567.631 -1.27606 -3.5411 0
M  V30 6070 C 566.778 -1.5517 -2.29821 0
M  V30 6071 H 569.729 -1.23608 -0.995332 0
M  V30 6072 H 569.75 -0.903984 -3.69606 0
M  V30 6073 H 569.262 -2.55578 -2.92064 0
M  V30 6074 H 567.363 -0.222948 -3.71932 0
M  V30 6075 H 567.476 -1.99667 -4.35511 0
M  V30 6076 H 565.84 -0.972747 -2.35393 0
M  V30 6077 H 566.623 -2.63689 -2.19824 0
M  V30 6078 N 569.068 1.32177 -0.85831 0
M  V30 6079 C 569.978 2.32561 -0.308606 0
M  V30 6080 C 570.994 1.64209 0.575462 0
M  V30 6081 O 572.17 1.95719 0.474961 0
M  V30 6082 C 569.235 3.43207 0.490909 0
M  V30 6083 C 568.296 4.27243 -0.419733 0
M  V30 6084 C 567.529 5.32605 0.341719 0
M  V30 6085 O 567.752 5.48332 1.57125 0
M  V30 6086 O 566.686 6.0118 -0.294379 0
M  V30 6087 H 570.512 2.81477 -1.14037 0
M  V30 6088 H 568.097 1.35866 -0.621349 0
M  V30 6089 H 569.979 4.10677 0.944574 0
M  V30 6090 H 568.654 2.96474 1.29941 0
M  V30 6091 H 567.561 3.62569 -0.921652 0
M  V30 6092 H 568.894 4.7751 -1.19352 0
M  V30 6093 N 570.547 0.616602 1.45037 0
M  V30 6094 C 571.479 -0.135186 2.28801 0
M  V30 6095 C 572.492 -0.82303 1.40464 0
M  V30 6096 O 573.681 -0.686909 1.64754 0
M  V30 6097 C 570.781 -1.21292 3.16451 0
M  V30 6098 C 569.954 -0.61043 4.3312 0
M  V30 6099 C 569.013 -1.58022 5.01912 0
M  V30 6100 O 568.039 -1.10301 5.58411 0
M  V30 6101 N 569.241 -2.91464 5.02025 0
M  V30 6102 H 572.006 0.583612 2.93963 0
M  V30 6103 H 569.567 0.456723 1.55324 0
M  V30 6104 H 571.559 -1.86169 3.59337 0
M  V30 6105 H 570.129 -1.83412 2.53138 0
M  V30 6106 H 569.349 0.216638 3.93604 0
M  V30 6107 H 570.637 -0.188293 5.08451 0
M  V30 6108 H 570.035 -3.32829 4.57429 0
M  V30 6109 H 568.592 -3.51741 5.48745 0
M  V30 6110 N 572.025 -1.5352 0.356285 0
M  V30 6111 C 573.274 -2.00298 -0.237373 0
M  V30 6112 C 573.587 -1.24784 -1.50627 0
M  V30 6113 O 574.793 -1.62103 -2.17795 0
M  V30 6114 C 573.249 -3.56771 -0.473545 0
M  V30 6115 C 572.857 -4.41154 0.780183 0
M  V30 6116 C 574.601 -4.1193 -1.02537 0
M  V30 6117 C 572.508 -5.89161 0.514108 0
M  V30 6118 H 571.438 -0.748307 -0.092478 0
M  V30 6119 H 574.089 -1.77283 0.473588 0
M  V30 6120 H 572.471 -3.75902 -1.24553 0
M  V30 6121 H 573.645 -4.33797 1.55425 0
M  V30 6122 H 571.96 -3.97052 1.25455 0
M  V30 6123 H 574.557 -5.20133 -1.2396 0
M  V30 6124 H 574.9 -3.65943 -1.98473 0
M  V30 6125 H 575.433 -3.96561 -0.313775 0
M  V30 6126 H 572.172 -6.39408 1.44355 0
M  V30 6127 H 571.692 -5.9939 -0.221632 0
M  V30 6128 H 573.371 -6.46857 0.136122 0
M  V30 6129 N 573.503 -0.0852151 -1.57369 0
M  V30 6130 C 574.728 0.592872 -1.98746 0
M  V30 6131 C 575.153 1.61538 -0.963689 0
M  V30 6132 O 574.511 1.81168 0.069071 0
M  V30 6133 C 574.559 1.22599 -3.39119 0
M  V30 6134 O 573.663 2.34185 -3.39457 0
M  V30 6135 H 573.004 0.151314 -0.646529 0
M  V30 6136 H 575.534 -0.163703 -2.03944 0
M  V30 6137 H 575.544 1.56965 -3.76598 0
M  V30 6138 H 574.219 0.476831 -4.13158 0
M  V30 6139 H 572.796 2.01512 -3.13763 0
M  V30 6140 N 574.981 1.5647 0.188427 0
M  V30 6141 C 575.944 1.9421 1.21718 0
M  V30 6142 C 576.944 0.823901 1.38089 0
M  V30 6143 O 578.134 1.09122 1.35787 0
M  V30 6144 C 575.266 2.22197 2.58537 0
M  V30 6145 H 576.459 2.86252 0.894418 0
M  V30 6146 H 574.012 1.50263 0.430211 0
M  V30 6147 H 574.747 1.32814 2.95856 0
M  V30 6148 H 574.532 3.03688 2.48025 0
M  V30 6149 H 576.022 2.52376 3.3271 0
M  V30 6150 N 576.459 -0.456382 1.50847 0
M  V30 6151 C 577.409 -1.55045 1.67168 0
M  V30 6152 C 578.393 -1.52061 0.525958 0
M  V30 6153 O 579.585 -1.58836 0.781036 0
M  V30 6154 C 576.714 -2.93386 1.78268 0
M  V30 6155 C 575.8 -3.01198 2.98564 0
M  V30 6156 N 576.191 -2.78792 4.22029 0
M  V30 6157 C 574.489 -3.32346 2.97426 0
M  V30 6158 C 575.19 -2.91953 5.03128 0
M  V30 6159 N 574.166 -3.22797 4.37382 0
M  V30 6160 H 577.968 -1.36444 2.60308 0
M  V30 6161 H 575.482 -0.663375 1.48233 0
M  V30 6162 H 577.479 -3.72071 1.88067 0
M  V30 6163 H 576.139 -3.13022 0.862965 0
M  V30 6164 H 577.15 -2.54087 4.51287 0
M  V30 6165 H 573.827 -3.57877 2.15012 0
M  V30 6166 H 575.217 -2.78745 6.11351 0
M  V30 6167 N 577.937 -1.40673 -0.710563 0
M  V30 6168 C 578.867 -1.44095 -1.83736 0
M  V30 6169 C 579.848 -0.301286 -1.67411 0
M  V30 6170 O 581.033 -0.510618 -1.87367 0
M  V30 6171 C 578.163 -1.30773 -3.21738 0
M  V30 6172 C 577.117 -2.42395 -3.52745 0
M  V30 6173 C 576.443 -2.14147 -4.89944 0
M  V30 6174 C 577.743 -3.84738 -3.53234 0
M  V30 6175 H 579.437 -2.38396 -1.81129 0
M  V30 6176 H 576.983 -1.14746 -0.870017 0
M  V30 6177 H 578.936 -1.31783 -4.00264 0
M  V30 6178 H 577.66 -0.329507 -3.24934 0
M  V30 6179 H 576.319 -2.40643 -2.76562 0
M  V30 6180 H 575.967 -1.14703 -4.89747 0
M  V30 6181 H 575.667 -2.88934 -5.11655 0
M  V30 6182 H 577.191 -2.16848 -5.70797 0
M  V30 6183 H 578.605 -3.88286 -4.2179 0
M  V30 6184 H 577.002 -4.59085 -3.86473 0
M  V30 6185 H 578.072 -4.13962 -2.52514 0
M  V30 6186 N 579.415 0.9433 -1.26252 0
M  V30 6187 C 580.826 1.50404 -1.10614 0
M  V30 6188 C 581.177 1.93666 0.31429 0
M  V30 6189 O 580.302 1.79709 1.20555 0
M  V30 6190 C 580.897 2.73336 -2.00182 0
M  V30 6191 C 579.456 3.25686 -1.88695 0
M  V30 6192 C 578.603 1.98474 -1.93658 0
M  V30 6193 H 581.554 0.759006 -1.39373 0
M  V30 6194 H 581.575 3.47567 -1.54847 0
M  V30 6195 H 581.087 2.41818 -3.03555 0
M  V30 6196 H 579.188 3.61998 -0.882489 0
M  V30 6197 H 579.301 3.92935 -2.74115 0
M  V30 6198 H 577.665 2.14278 -1.37684 0
M  V30 6199 H 578.448 1.6929 -2.98657 0
M  V30 6200 N 580.893 1.08022 1.14757 0
M  V30 6201 C 581.825 0.664566 2.19354 0
M  V30 6202 C 582.838 -0.286374 1.60261 0
M  V30 6203 O 584.027 -0.0746362 1.78344 0
M  V30 6204 C 581.127 -0.0434634 3.38872 0
M  V30 6205 C 580.3 0.925381 4.27499 0
M  V30 6206 C 579.359 0.253398 5.2559 0
M  V30 6207 O 578.385 0.896581 5.62094 0
M  V30 6208 N 579.587 -0.998263 5.71852 0
M  V30 6209 H 582.352 1.56438 2.55631 0
M  V30 6210 H 579.913 0.965788 1.29939 0
M  V30 6211 H 581.905 -0.503857 4.01551 0
M  V30 6212 H 580.475 -0.845321 3.00954 0
M  V30 6213 H 579.695 1.56472 3.61815 0
M  V30 6214 H 580.983 1.58203 4.8358 0
M  V30 6215 H 580.381 -1.54063 5.44317 0
M  V30 6216 H 578.938 -1.40222 6.36538 0
M  V30 6217 N 582.371 -1.3172 0.865308 0
M  V30 6218 C 583.782 -1.79104 0.527126 0
M  V30 6219 C 584.133 -1.7135 -0.955695 0
M  V30 6220 O 583.258 -1.27845 -1.74598 0
M  V30 6221 C 583.853 -3.25207 0.950061 0
M  V30 6222 C 582.412 -3.70504 0.663611 0
M  V30 6223 C 581.559 -2.52605 1.14395 0
M  V30 6224 H 584.51 -1.18868 1.05148 0
M  V30 6225 H 584.531 -3.79535 0.270805 0
M  V30 6226 H 584.043 -3.30818 2.02931 0
M  V30 6227 H 582.144 -3.70398 -0.404474 0
M  V30 6228 H 582.257 -4.62845 1.23737 0
M  V30 6229 H 580.621 -2.4838 0.563859 0
M  V30 6230 H 581.404 -2.60964 2.23053 0
M  V30 6231 N 583.85 -0.624285 -1.44708 0
M  V30 6232 C 584.812 0.0749638 -2.29077 0
M  V30 6233 C 585.812 0.778965 -1.40673 0
M  V30 6234 O 587.003 0.624591 -1.62618 0
M  V30 6235 C 584.135 1.11663 -3.22094 0
M  V30 6236 H 585.327 -0.667013 -2.92388 0
M  V30 6237 H 582.88 -0.384098 -1.51507 0
M  V30 6238 H 583.615 1.88881 -2.63618 0
M  V30 6239 H 583.401 0.61583 -3.87234 0
M  V30 6240 H 584.891 1.60585 -3.8549 0
M  V30 6241 N 585.328 1.53329 -0.364422 0
M  V30 6242 C 586.576 2.00842 0.225189 0
M  V30 6243 C 586.897 1.25345 1.49378 0
M  V30 6244 O 586.167 0.366396 1.92443 0
M  V30 6245 H 584.747 0.742009 0.0862027 0
M  V30 6246 H 587.409 1.8863 -0.490389 0
M  V30 6247 H 586.505 3.08795 0.452987 0
M  V30 6248 N 586.806 0.0935595 1.57322 0
M  V30 6249 C 587.738 -0.895923 2.10964 0
M  V30 6250 C 588.751 -1.24705 1.04654 0
M  V30 6251 O 589.94 -1.20044 1.32105 0
M  V30 6252 C 587.04 -2.20546 2.57318 0
M  V30 6253 C 586.213 -2.0299 3.87445 0
M  V30 6254 C 585.272 -3.17443 4.19662 0
M  V30 6255 O 584.298 -2.91474 4.88909 0
M  V30 6256 N 585.5 -4.43168 3.74943 0
M  V30 6257 H 588.265 -0.437788 2.96485 0
M  V30 6258 H 585.826 -0.0915863 1.61641 0
M  V30 6259 H 587.818 -2.9606 2.75917 0
M  V30 6260 H 586.388 -2.57789 1.76816 0
M  V30 6261 H 585.608 -1.11815 3.78009 0
M  V30 6262 H 586.896 -1.88535 4.7258 0
M  V30 6263 H 586.294 -4.67149 3.19043 0
M  V30 6264 H 584.851 -5.15637 3.987 0
M  V30 6265 N 588.284 -1.56567 -0.180126 0
M  V30 6266 C 589.533 -1.80685 -0.896426 0
M  V30 6267 C 589.846 -0.669335 -1.83791 0
M  V30 6268 O 591.052 -0.795209 -2.59593 0
M  V30 6269 C 589.508 -3.20132 -1.6445 0
M  V30 6270 C 589.116 -4.41727 -0.747088 0
M  V30 6271 C 590.86 -3.53549 -2.34955 0
M  V30 6272 C 588.767 -5.72195 -1.49489 0
M  V30 6273 H 587.697 -0.673758 -0.338477 0
M  V30 6274 H 590.348 -1.8289 -0.149467 0
M  V30 6275 H 588.73 -3.12218 -2.43589 0
M  V30 6276 H 589.904 -4.608 0.00671129 0
M  V30 6277 H 588.219 -4.16122 -0.152134 0
M  V30 6278 H 590.816 -4.48267 -2.91481 0
M  V30 6279 H 591.159 -2.78006 -3.09868 0
M  V30 6280 H 591.692 -3.62976 -1.62768 0
M  V30 6281 H 588.431 -6.50743 -0.788251 0
M  V30 6282 H 587.951 -5.57115 -2.22224 0
M  V30 6283 H 589.63 -6.1384 -2.04472 0
M  V30 6284 N 589.762 0.448376 -1.51087 0
M  V30 6285 C 590.725 1.52588 -1.71025 0
M  V30 6286 C 591.725 1.49958 -0.580442 0
M  V30 6287 O 592.915 1.52176 -0.847833 0
M  V30 6288 C 590.047 2.92163 -1.75652 0
M  V30 6289 H 591.24 1.36218 -2.67179 0
M  V30 6290 H 588.793 0.676313 -1.4091 0
M  V30 6291 H 589.528 3.13951 -0.812724 0
M  V30 6292 H 589.313 2.95478 -2.57751 0
M  V30 6293 H 590.803 3.70349 -1.92953 0
M  V30 6294 N 591.24 1.41047 0.703093 0
M  V30 6295 C 592.468 1.4334 1.49202 0
M  V30 6296 C 592.883 0.0365596 1.88765 0
M  V30 6297 O 592.24 -0.942419 1.56284 0
M  V30 6298 C 592.291 2.33538 2.75939 0
M  V30 6299 O 592.012 3.67786 2.38045 0
M  V30 6300 C 593.513 2.44555 3.6974 0
M  V30 6301 H 590.733 0.488472 0.460039 0
M  V30 6302 H 593.277 1.85245 0.86629 0
M  V30 6303 H 591.432 1.94962 3.34766 0
M  V30 6304 H 591.846 4.15816 3.19683 0
M  V30 6305 H 593.32 3.11849 4.55471 0
M  V30 6306 H 593.797 1.47447 4.1371 0
M  V30 6307 H 594.403 2.83735 3.16819 0
M  V30 6308 N 592.718 -0.936591 1.26751 0
M  V30 6309 C 593.65 -2.03991 1.045 0
M  V30 6310 C 594.663 -1.628 0.00394261 0
M  V30 6311 O 595.852 -1.76817 0.244526 0
M  V30 6312 C 592.952 -3.34218 0.561403 0
M  V30 6313 C 592.125 -4.04151 1.67274 0
M  V30 6314 C 591.184 -5.12651 1.1864 0
M  V30 6315 O 590.21 -5.37104 1.88437 0
M  V30 6316 N 591.412 -5.80488 0.037278 0
M  V30 6317 H 594.177 -2.23644 1.99508 0
M  V30 6318 H 591.738 -1.10638 1.18198 0
M  V30 6319 H 593.73 -4.04101 0.220136 0
M  V30 6320 H 592.3 -3.11203 -0.295211 0
M  V30 6321 H 591.52 -3.28121 2.18472 0
M  V30 6322 H 592.808 -4.47626 2.41885 0
M  V30 6323 H 592.206 -5.63064 -0.545494 0
M  V30 6324 H 590.763 -6.5134 -0.244877 0
M  V30 6325 N 594.196 -1.08629 -1.14182 0
M  V30 6326 C 595.607 -0.838003 -1.66836 0
M  V30 6327 C 595.958 0.634885 -1.85644 0
M  V30 6328 O 595.083 1.49008 -1.56926 0
M  V30 6329 C 595.678 -1.51465 -3.03058 0
M  V30 6330 C 594.237 -1.31355 -3.52736 0
M  V30 6331 C 593.384 -1.57599 -2.28162 0
M  V30 6332 H 596.335 -1.24656 -0.982165 0
M  V30 6333 H 596.356 -0.943134 -3.68626 0
M  V30 6334 H 595.868 -2.58661 -2.89337 0
M  V30 6335 H 593.969 -0.262384 -3.71675 0
M  V30 6336 H 594.082 -2.04275 -4.33369 0
M  V30 6337 H 592.446 -0.997659 -2.34348 0
M  V30 6338 H 593.229 -2.66006 -2.17015 0
M  V30 6339 N 595.674 1.31259 -0.872281 0
M  V30 6340 C 596.902 2.00795 -0.498907 0
M  V30 6341 C 597.317 1.65464 0.909238 0
M  V30 6342 O 596.674 0.885073 1.59602 0
M  V30 6343 C 596.725 3.55625 -0.649092 0
M  V30 6344 O 596.446 3.89692 -2.00179 0
M  V30 6345 C 597.947 4.42434 -0.277034 0
M  V30 6346 H 595.167 0.642299 -0.194145 0
M  V30 6347 H 597.711 1.67438 -1.17408 0
M  V30 6348 H 595.866 3.87394 -0.0214402 0
M  V30 6349 H 596.28 4.84407 -2.01122 0
M  V30 6350 H 597.754 5.50299 -0.433064 0
M  V30 6351 H 598.231 4.32146 0.783989 0
M  V30 6352 H 598.837 4.16086 -0.880483 0
M  V30 6353 N 597.152 0.631951 1.44375 0
M  V30 6354 C 598.084 -0.110911 2.28931 0
M  V30 6355 C 599.097 -0.808086 1.41329 0
M  V30 6356 O 600.286 -0.669396 1.65473 0
M  V30 6357 C 597.386 -1.17928 3.1772 0
M  V30 6358 C 596.559 -0.564458 4.33743 0
M  V30 6359 C 595.618 -1.5269 5.0356 0
M  V30 6360 O 594.644 -1.04372 5.59549 0
M  V30 6361 N 595.846 -2.86123 5.05088 0
M  V30 6362 H 598.611 0.614758 2.93327 0
M  V30 6363 H 596.172 0.473171 1.54831 0
M  V30 6364 H 598.164 -1.82348 3.61291 0
M  V30 6365 H 596.734 -1.80717 2.55069 0
M  V30 6366 H 595.954 0.258373 3.93352 0
M  V30 6367 H 597.242 -0.134355 5.08623 0
M  V30 6368 H 596.64 -3.27959 4.60933 0
M  V30 6369 H 595.197 -3.45901 5.52445 0
M  V30 6370 N 598.631 -1.53133 0.372548 0
M  V30 6371 C 599.877 -2.01654 -0.215277 0
M  V30 6372 C 600.21 -1.25914 -1.47849 0
M  V30 6373 O 599.485 -0.3548 -1.91237 0
M  V30 6374 C 599.768 -3.56609 -0.500187 0
M  V30 6375 C 599.621 -4.43036 0.777145 0
M  V30 6376 C 600.94 -4.20528 -1.29786 0
M  V30 6377 H 598.059 -0.732991 -0.0767686 0
M  V30 6378 H 600.701 -1.83335 0.498814 0
M  V30 6379 H 598.851 -3.7235 -1.10852 0
M  V30 6380 H 600.523 -4.39079 1.41447 0
M  V30 6381 H 598.766 -4.10723 1.39604 0
M  V30 6382 H 599.437 -5.49424 0.532662 0
M  V30 6383 H 601.913 -4.08663 -0.783198 0
M  V30 6384 H 600.789 -5.28962 -1.46596 0
M  V30 6385 H 601.05 -3.77051 -2.30836 0
M  V30 6386 N 600.109 -0.101901 -1.5727 0
M  V30 6387 C 601.334 0.571759 -1.99363 0
M  V30 6388 C 601.759 1.60507 -0.980768 0
M  V30 6389 O 601.117 1.81231 0.0498517 0
M  V30 6390 C 601.165 1.18996 -3.404 0
M  V30 6391 O 600.269 2.30572 -3.41922 0
M  V30 6392 H 599.61 0.144449 -0.648098 0
M  V30 6393 H 602.14 -0.185325 -2.03759 0
M  V30 6394 H 602.15 1.52962 -3.78241 0
M  V30 6395 H 600.825 0.432984 -4.1364 0
M  V30 6396 H 599.402 1.98173 -3.15883 0
M  V30 6397 N 601.587 1.56661 0.17182 0
M  V30 6398 C 602.517 1.99401 1.21498 0
M  V30 6399 C 603.498 0.869516 1.46197 0
M  V30 6400 O 604.683 1.13556 1.57539 0
M  V30 6401 C 601.813 2.35346 2.55401 0
M  V30 6402 C 600.767 3.5075 2.45272 0
M  V30 6403 C 600.093 3.72437 3.8366 0
M  V30 6404 C 601.393 4.84216 1.95787 0
M  V30 6405 H 603.087 2.86792 0.859699 0
M  V30 6406 H 600.633 1.37977 0.412103 0
M  V30 6407 H 602.586 2.63843 3.2858 0
M  V30 6408 H 601.31 1.44864 2.92715 0
M  V30 6409 H 599.969 3.2238 1.74547 0
M  V30 6410 H 599.617 2.79246 4.18367 0
M  V30 6411 H 599.317 4.50087 3.77751 0
M  V30 6412 H 600.841 4.03334 4.58426 0
M  V30 6413 H 602.255 5.11592 2.5874 0
M  V30 6414 H 600.652 5.65498 2.00827 0
M  V30 6415 H 601.722 4.76243 0.912159 0
M  V30 6416 N 603.065 -0.440357 1.51323 0
M  V30 6417 C 604.476 -1.02032 1.56353 0
M  V30 6418 C 604.827 -1.92382 0.385197 0
M  V30 6419 O 603.952 -2.10583 -0.498373 0
M  V30 6420 C 604.547 -1.85723 2.83359 0
M  V30 6421 C 603.106 -2.38774 2.90971 0
M  V30 6422 C 602.253 -1.17908 2.50984 0
M  V30 6423 H 605.204 -0.221744 1.57143 0
M  V30 6424 H 605.225 -2.71141 2.66951 0
M  V30 6425 H 604.737 -1.19939 3.69102 0
M  V30 6426 H 602.838 -3.08021 2.09651 0
M  V30 6427 H 602.951 -2.71778 3.94555 0
M  V30 6428 H 601.315 -1.52347 2.04114 0
M  V30 6429 H 602.098 -0.537393 3.39068 0
M  V30 6430 N 604.543 -1.41418 -0.695603 0
M  V30 6431 C 605.954 -1.36335 -1.27552 0
M  V30 6432 C 606.305 -0.0464336 -1.96145 0
M  V30 6433 O 605.43 0.855304 -1.9878 0
M  V30 6434 C 606.025 -2.46941 -2.3196 0
M  V30 6435 C 604.584 -2.45256 -2.85529 0
M  V30 6436 C 603.731 -2.2679 -1.59566 0
M  V30 6437 H 606.682 -1.50934 -0.490362 0
M  V30 6438 H 606.703 -2.15997 -3.1325 0
M  V30 6439 H 606.215 -3.42775 -1.82008 0
M  V30 6440 H 604.316 -1.53179 -3.39657 0
M  V30 6441 H 604.429 -3.41565 -3.35961 0
M  V30 6442 H 602.793 -1.74667 -1.85374 0
M  V30 6443 H 603.576 -3.24651 -1.1161 0
M  V30 6444 N 606.021 0.929856 -1.27246 0
M  V30 6445 C 607.249 1.71144 -1.16265 0
M  V30 6446 C 607.664 1.867 0.280786 0
M  V30 6447 O 607.021 1.38249 1.19136 0
M  V30 6448 C 607.072 3.11222 -1.83911 0
M  V30 6449 O 606.793 2.96398 -3.22614 0
M  V30 6450 C 608.294 4.05541 -1.79028 0
M  V30 6451 H 605.514 0.535499 -0.404328 0
M  V30 6452 H 608.058 1.16492 -1.68077 0
M  V30 6453 H 606.213 3.6274 -1.36009 0
M  V30 6454 H 606.627 3.8494 -3.56261 0
M  V30 6455 H 608.101 5.01351 -2.30978 0
M  V30 6456 H 608.578 4.32589 -0.759168 0
M  V30 6457 H 609.184 3.59947 -2.26535 0
M  V30 6458 N 607.499 1.09233 1.13605 0
M  V30 6459 C 608.462 0.733553 2.17144 0
M  V30 6460 C 609.462 -0.235873 1.59061 0
M  V30 6461 O 610.652 -0.0143167 1.74194 0
M  V30 6462 C 607.784 0.084471 3.40795 0
M  V30 6463 H 608.977 1.65049 2.50397 0
M  V30 6464 H 606.53 0.891264 1.28399 0
M  V30 6465 H 607.265 -0.843795 3.1313 0
M  V30 6466 H 607.05 0.781985 3.84223 0
M  V30 6467 H 608.54 -0.151216 4.17326 0
M  V30 6468 N 608.977 -1.30795 0.87923 0
M  V30 6469 C 609.887 -2.32041 0.345565 0
M  V30 6470 C 610.903 -1.65103 -0.549265 0
M  V30 6471 O 612.079 -1.9645 -0.443763 0
M  V30 6472 C 609.144 -3.43944 -0.436245 0
M  V30 6473 C 608.205 -4.26521 0.48765 0
M  V30 6474 C 607.438 -5.33081 -0.256943 0
M  V30 6475 O 607.661 -5.50762 -1.48381 0
M  V30 6476 O 606.595 -6.00635 0.389985 0
M  V30 6477 H 610.421 -2.79627 1.18501 0
M  V30 6478 H 608.006 -1.3486 0.642885 0
M  V30 6479 H 609.888 -4.12128 -0.879119 0
M  V30 6480 H 608.563 -2.98504 -1.25208 0
M  V30 6481 H 607.47 -3.61057 0.979216 0
M  V30 6482 H 608.803 -4.75551 1.26933 0
M  V30 6483 N 610.455 -0.639598 -1.44038 0
M  V30 6484 C 611.866 -0.228866 -1.85292 0
M  V30 6485 C 612.217 1.22161 -1.53529 0
M  V30 6486 O 611.342 1.93064 -0.977518 0
M  V30 6487 C 611.937 -0.408592 -3.36327 0
M  V30 6488 C 610.496 -0.0522953 -3.76364 0
M  V30 6489 C 609.643 -0.717959 -2.67844 0
M  V30 6490 H 612.594 -0.844194 -1.34384 0
M  V30 6491 H 612.615 0.349968 -3.78887 0
M  V30 6492 H 612.127 -1.46435 -3.59414 0
M  V30 6493 H 610.228 1.0014 -3.58891 0
M  V30 6494 H 610.341 -0.468261 -4.76806 0
M  V30 6495 H 608.705 -0.152459 -2.54243 0
M  V30 6496 H 609.488 -1.77648 -2.93762 0
M  V30 6497 N 611.933 1.52934 -0.380664 0
M  V30 6498 C 612.896 2.24809 0.446473 0
M  V30 6499 C 613.896 1.26133 0.997347 0
M  V30 6500 O 615.086 1.50297 0.880714 0
M  V30 6501 C 612.218 2.99649 1.62553 0
M  V30 6502 H 613.411 2.99343 -0.182677 0
M  V30 6503 H 610.964 1.55736 -0.132618 0
M  V30 6504 H 611.699 2.29395 2.29235 0
M  V30 6505 H 611.484 3.72066 1.23732 0
M  V30 6506 H 612.974 3.54246 2.21133 0
M  V30 6507 N 613.412 0.11024 1.57214 0
M  V30 6508 C 614.359 -0.843195 2.14846 0
M  V30 6509 C 615.329 -1.26954 1.07107 0
M  V30 6510 O 616.514 -1.34861 1.34971 0
M  V30 6511 C 613.654 -2.09123 2.74521 0
M  V30 6512 C 612.767 -1.71404 3.96541 0
M  V30 6513 C 611.902 -2.91107 4.44331 0
M  V30 6514 C 610.941 -2.49586 5.58903 0
M  V30 6515 N 610.078 -3.62175 6.01477 0
M  V30 6516 H 614.918 -0.344886 2.95998 0
M  V30 6517 H 612.455 -0.15855 1.46243 0
M  V30 6518 H 614.413 -2.82234 3.07246 0
M  V30 6519 H 613.043 -2.56427 1.96074 0
M  V30 6520 H 612.095 -0.88201 3.70033 0
M  V30 6521 H 613.407 -1.36884 4.7965 0
M  V30 6522 H 612.561 -3.72454 4.78919 0
M  V30 6523 H 611.3 -3.28848 3.60153 0
M  V30 6524 H 610.305 -1.6667 5.23929 0
M  V30 6525 H 611.53 -2.12973 6.4484 0
M  V30 6526 H 609.476 -3.99605 5.20242 0
M  V30 6527 H 609.393 -3.3155 6.79419 0
M  V30 6528 H 610.661 -4.43987 6.407 0
M  V30 6529 N 614.89 -1.56749 -0.16351 0
M  V30 6530 C 616.118 -1.86577 -0.894233 0
M  V30 6531 C 616.533 -0.696543 -1.75481 0
M  V30 6532 O 615.89 0.334161 -1.79415 0
M  V30 6533 C 615.941 -3.15508 -1.76456 0
M  V30 6534 O 615.662 -4.27926 -0.938685 0
M  V30 6535 C 617.163 -3.58737 -2.60428 0
M  V30 6536 H 614.383 -0.618829 -0.259405 0
M  V30 6537 H 616.927 -2.03863 -0.161259 0
M  V30 6538 H 615.082 -3.00025 -2.45079 0
M  V30 6539 H 615.496 -5.01546 -1.53465 0
M  V30 6540 H 616.97 -4.51832 -3.17099 0
M  V30 6541 H 617.447 -2.83229 -3.35675 0
M  V30 6542 H 618.053 -3.76858 -1.97125 0
M  V30 6543 N 616.368 0.432326 -1.51554 0
M  V30 6544 C 617.331 1.50765 -1.72634 0
M  V30 6545 C 618.331 1.49334 -0.596314 0
M  V30 6546 O 619.521 1.51268 -0.863925 0
M  V30 6547 C 616.653 2.90284 -1.7874 0
M  V30 6548 H 617.846 1.33377 -2.68609 0
M  V30 6549 H 615.399 0.661329 -1.4162 0
M  V30 6550 H 616.134 3.13071 -0.845977 0
M  V30 6551 H 615.919 2.92727 -2.6087 0
M  V30 6552 H 617.409 3.68282 -1.96871 0
M  V30 6553 N 617.846 1.41785 0.688094 0
M  V30 6554 C 618.778 1.40159 1.81351 0
M  V30 6555 C 619.791 0.30262 1.59963 0
M  V30 6556 O 620.98 0.564841 1.69327 0
M  V30 6557 C 618.08 1.16517 3.1824 0
M  V30 6558 C 617.253 2.38597 3.66593 0
M  V30 6559 C 616.312 2.10699 4.82174 0
M  V30 6560 O 615.338 2.83798 4.93404 0
M  V30 6561 N 616.54 1.10187 5.69947 0
M  V30 6562 H 619.305 2.3716 1.83236 0
M  V30 6563 H 616.866 1.36494 0.870697 0
M  V30 6564 H 618.858 0.957941 3.93199 0
M  V30 6565 H 617.428 0.280873 3.11336 0
M  V30 6566 H 616.648 2.74974 2.82459 0
M  V30 6567 H 617.936 3.19919 3.95638 0
M  V30 6568 H 617.334 0.497016 5.63512 0
M  V30 6569 H 615.891 0.954518 6.44773 0
M  V30 6570 N 619.324 -0.923095 1.27737 0
M  V30 6571 C 620.287 -2.00587 1.10894 0
M  V30 6572 C 621.287 -1.60718 0.0514927 0
M  V30 6573 O 622.477 -1.71658 0.296481 0
M  V30 6574 C 619.609 -3.33829 0.690717 0
M  V30 6575 H 620.802 -2.16959 2.07048 0
M  V30 6576 H 618.355 -1.10451 1.1059 0
M  V30 6577 H 619.09 -3.23157 -0.272 0
M  V30 6578 H 618.875 -3.64125 1.45448 0
M  V30 6579 H 620.365 -4.13336 0.595252 0
M  V30 6580 N 620.802 -1.09834 -1.13024 0
M  V30 6581 C 621.732 -0.763451 -2.20666 0
M  V30 6582 C 622.713 0.260778 -1.68089 0
M  V30 6583 O 623.898 0.127915 -1.93778 0
M  V30 6584 C 621.028 -0.187744 -3.46792 0
M  V30 6585 C 619.982 -1.14196 -4.12484 0
M  V30 6586 C 619.308 -0.427755 -5.32986 0
M  V30 6587 C 620.608 -2.48607 -4.59338 0
M  V30 6588 H 622.302 -1.66347 -2.48936 0
M  V30 6589 H 619.848 -0.801261 -1.19649 0
M  V30 6590 H 621.801 0.0586375 -4.21359 0
M  V30 6591 H 620.525 0.747485 -3.17931 0
M  V30 6592 H 619.184 -1.37369 -3.3989 0
M  V30 6593 H 618.832 0.511747 -5.0039 0
M  V30 6594 H 618.532 -1.06403 -5.77886 0
M  V30 6595 H 620.056 -0.189772 -6.10305 0
M  V30 6596 H 621.47 -2.29618 -5.25308 0
M  V30 6597 H 619.867 -3.08062 -5.14993 0
M  V30 6598 H 620.937 -3.09062 -3.73642 0
M  V30 6599 N 622.28 1.30327 -0.886154 0
M  V30 6600 C 623.505 2.0079 -0.519425 0
M  V30 6601 C 623.93 1.65979 0.885013 0
M  V30 6602 O 623.288 0.877043 1.58675 0
M  V30 6603 C 623.336 3.53686 -0.702758 0
M  V30 6604 O 622.44 4.11637 0.250828 0
M  V30 6605 H 621.781 0.63171 -0.204544 0
M  V30 6606 H 624.311 1.66145 -1.19402 0
M  V30 6607 H 624.321 4.03531 -0.602207 0
M  V30 6608 H 622.996 3.78361 -1.72673 0
M  V30 6609 H 621.573 3.72755 0.103873 0
M  V30 6610 N 623.758 0.647228 1.43697 0
M  V30 6611 C 624.983 0.164083 2.0675 0
M  V30 6612 C 625.408 -1.15892 1.48158 0
M  V30 6613 O 624.766 -1.71459 0.589194 0
M  V30 6614 C 624.814 0.0800368 3.60511 0
M  V30 6615 O 623.918 -0.959453 4.01084 0
M  V30 6616 H 623.259 0.0921288 0.657578 0
M  V30 6617 H 625.789 0.88846 1.84303 0
M  V30 6618 H 625.799 -0.105263 4.07864 0
M  V30 6619 H 624.474 1.04586 4.02535 0
M  V30 6620 H 623.051 -0.747425 3.65333 0
M  V30 6621 N 625.236 -1.5273 0.388769 0
M  V30 6622 C 626.484 -2.01174 -0.193208 0
M  V30 6623 C 626.805 -1.27705 -1.47365 0
M  V30 6624 O 626.075 -0.396966 -1.91836 0
M  V30 6625 H 624.655 -0.743287 -0.0743871 0
M  V30 6626 H 627.317 -1.87826 0.520336 0
M  V30 6627 H 626.413 -3.09477 -0.403803 0
M  V30 6628 N 626.714 -0.118576 -1.57153 0
M  V30 6629 C 627.939 0.550582 -1.99958 0
M  V30 6630 C 628.364 1.59458 -0.997736 0
M  V30 6631 O 627.722 1.81274 0.0306269 0
M  V30 6632 C 627.77 1.15379 -3.41643 0
M  V30 6633 O 626.874 2.26932 -3.44348 0
M  V30 6634 H 626.215 0.137567 -0.649593 0
M  V30 6635 H 628.745 -0.206926 -2.03551 0
M  V30 6636 H 628.755 1.48942 -3.79843 0
M  V30 6637 H 627.43 0.389087 -4.14076 0
M  V30 6638 H 626.007 1.94812 -3.17967 0
M  V30 6639 N 628.193 1.56834 0.155195 0
M  V30 6640 C 629.441 1.82536 0.867462 0
M  V30 6641 C 629.762 0.698168 1.82073 0
M  V30 6642 O 629.032 -0.280807 1.93877 0
M  V30 6643 H 627.612 0.673401 0.323327 0
M  V30 6644 H 630.274 1.94313 0.151156 0
M  V30 6645 H 629.37 2.77171 1.43466 0
M  V30 6646 N 629.671 -0.424282 1.51781 0
M  V30 6647 C 630.896 -1.19928 1.6921 0
M  V30 6648 C 631.321 -1.8392 0.394355 0
M  V30 6649 O 630.679 -1.69371 -0.646778 0
M  V30 6650 C 630.727 -2.24937 2.81843 0
M  V30 6651 O 629.831 -3.3073 2.46356 0
M  V30 6652 H 629.172 -0.35078 0.563781 0
M  V30 6653 H 631.702 -0.499401 1.98412 0
M  V30 6654 H 631.712 -2.69512 3.06312 0
M  V30 6655 H 630.387 -1.77742 3.76006 0
M  V30 6656 H 628.964 -2.9154 2.32505 0
M  V30 6657 N 631.149 -1.42148 -0.680565 0
M  V30 6658 C 632.081 -1.41119 -1.80605 0
M  V30 6659 C 633.094 -0.311099 -1.598 0
M  V30 6660 O 634.283 -0.573813 -1.69026 0
M  V30 6661 C 631.383 -1.18204 -3.17618 0
M  V30 6662 C 630.556 -2.40537 -3.65322 0
M  V30 6663 C 629.615 -2.13254 -4.8105 0
M  V30 6664 O 628.641 -2.8641 -4.91892 0
M  V30 6665 N 629.843 -1.13208 -5.69354 0
M  V30 6666 H 632.608 -2.38128 -1.81975 0
M  V30 6667 H 630.169 -1.36953 -0.863446 0
M  V30 6668 H 632.161 -0.97878 -3.92686 0
M  V30 6669 H 630.731 -0.29738 -3.11182 0
M  V30 6670 H 629.951 -2.76468 -2.80996 0
M  V30 6671 H 631.239 -3.22012 -3.93936 0
M  V30 6672 H 630.637 -0.526893 -5.63241 0
M  V30 6673 H 629.194 -0.988699 -6.44258 0
M  V30 6674 N 632.627 0.916307 -1.28225 0
M  V30 6675 C 633.537 2.05165 -1.13775 0
M  V30 6676 C 634.553 1.73879 -0.0649418 0
M  V30 6677 O 635.729 1.99531 -0.273722 0
M  V30 6678 C 632.794 3.37385 -0.798267 0
M  V30 6679 C 631.855 3.82296 -1.95316 0
M  V30 6680 C 631.088 5.08206 -1.62978 0
M  V30 6681 O 631.311 5.6781 -0.542948 0
M  V30 6682 O 630.245 5.48768 -2.47261 0
M  V30 6683 H 634.071 2.20273 -2.09078 0
M  V30 6684 H 631.656 1.0373 -1.07519 0
M  V30 6685 H 633.538 4.16773 -0.62278 0
M  V30 6686 H 632.213 3.23458 0.125139 0
M  V30 6687 H 631.12 3.03746 -2.18378 0
M  V30 6688 H 632.453 4.00782 -2.85718 0
M  V30 6689 N 634.105 1.10431 1.1244 0
M  V30 6690 C 635.333 0.868872 1.87772 0
M  V30 6691 C 635.748 -0.580645 1.7965 0
M  V30 6692 O 635.105 -1.40031 1.17036 0
M  V30 6693 C 635.156 1.30855 3.36986 0
M  V30 6694 O 634.877 2.70123 3.44914 0
M  V30 6695 C 636.378 1.107 4.29256 0
M  V30 6696 H 633.598 0.311868 0.59412 0
M  V30 6697 H 636.142 1.46897 1.42273 0
M  V30 6698 H 634.297 0.752126 3.80029 0
M  V30 6699 H 634.711 2.88923 4.37748 0
M  V30 6700 H 636.185 1.46378 5.32238 0
M  V30 6701 H 636.662 0.0456228 4.39176 0
M  V30 6702 H 637.268 1.64988 3.91994 0
M  V30 6703 N 635.583 -1.29855 0.893053 0
M  V30 6704 C 636.53 -2.27909 0.364161 0
M  V30 6705 C 637.5 -1.56726 -0.550093 0
M  V30 6706 O 638.685 -1.84747 -0.47677 0
M  V30 6707 C 635.825 -3.42678 -0.408178 0
M  V30 6708 C 634.938 -4.28659 0.536212 0
M  V30 6709 C 634.073 -5.30599 -0.252521 0
M  V30 6710 C 633.112 -6.08234 0.686822 0
M  V30 6711 N 632.249 -7.02068 -0.0670902 0
M  V30 6712 H 637.089 -2.72531 1.20544 0
M  V30 6713 H 634.626 -1.34047 0.605779 0
M  V30 6714 H 636.584 -4.07986 -0.871962 0
M  V30 6715 H 635.214 -2.99103 -1.21397 0
M  V30 6716 H 634.266 -3.63584 1.1185 0
M  V30 6717 H 635.578 -4.8274 1.25552 0
M  V30 6718 H 634.732 -6.01694 -0.777801 0
M  V30 6719 H 633.471 -4.77233 -1.005 0
M  V30 6720 H 632.476 -5.3601 1.22366 0
M  V30 6721 H 633.701 -6.63689 1.43852 0
M  V30 6722 H 631.647 -6.5108 -0.801955 0
M  V30 6723 H 631.564 -7.53675 0.59243 0
M  V30 6724 H 632.832 -7.77392 -0.572851 0
M  V30 6725 N 637.061 -0.65484 -1.43351 0
M  V30 6726 C 638.31 -0.166215 -2.01014 0
M  V30 6727 C 638.623 1.22764 -1.52278 0
M  V30 6728 O 639.829 1.81156 -2.02224 0
M  V30 6729 C 638.285 -0.246341 -3.59056 0
M  V30 6730 C 637.893 -1.64299 -4.16785 0
M  V30 6731 C 639.637 0.184597 -4.24098 0
M  V30 6732 C 637.544 -1.67695 -5.67126 0
M  V30 6733 H 636.474 -0.0583769 -0.751737 0
M  V30 6734 H 639.125 -0.817111 -1.64303 0
M  V30 6735 H 637.507 0.472092 -3.93176 0
M  V30 6736 H 638.681 -2.3869 -3.94162 0
M  V30 6737 H 636.996 -2.02004 -3.6412 0
M  V30 6738 H 639.593 0.179088 -5.344 0
M  V30 6739 H 639.936 1.21632 -3.98135 0
M  V30 6740 H 640.469 -0.482141 -3.94867 0
M  V30 6741 H 637.208 -2.68783 -5.9786 0
M  V30 6742 H 636.728 -0.976313 -5.91801 0
M  V30 6743 H 638.407 -1.42142 -6.31193 0
M  V30 6744 N 638.539 1.52521 -0.396863 0
M  V30 6745 C 639.95 1.86547 0.0754868 0
M  V30 6746 C 640.301 1.31621 1.45501 0
M  V30 6747 O 639.426 0.650563 2.0639 0
M  V30 6748 C 640.021 3.38495 0.143754 0
M  V30 6749 C 638.58 3.72205 0.560413 0
M  V30 6750 C 637.727 2.75954 -0.272856 0
M  V30 6751 H 640.678 1.46323 -0.614434 0
M  V30 6752 H 640.699 3.68153 0.961425 0
M  V30 6753 H 640.211 3.78442 -0.860415 0
M  V30 6754 H 638.312 3.3783 1.57167 0
M  V30 6755 H 638.425 4.78074 0.313314 0
M  V30 6756 H 636.789 2.53339 0.263 0
M  V30 6757 H 637.572 3.1874 -1.27515 0
M  V30 6758 N 640.017 0.126909 1.57088 0
M  V30 6759 C 641.266 -0.529024 1.94639 0
M  V30 6760 C 641.579 -1.67323 1.01304 0
M  V30 6761 O 642.785 -2.39245 1.28352 0
M  V30 6762 C 641.241 -0.992483 3.45945 0
M  V30 6763 C 640.849 0.123691 4.47829 0
M  V30 6764 C 642.593 -1.61934 3.924 0
M  V30 6765 C 640.5 -0.356911 5.90322 0
M  V30 6766 H 639.43 -0.201397 0.726605 0
M  V30 6767 H 642.081 0.208032 1.82317 0
M  V30 6768 H 640.463 -1.7842 3.53528 0
M  V30 6769 H 641.637 0.900168 4.51922 0
M  V30 6770 H 639.952 0.657699 4.11173 0
M  V30 6771 H 642.549 -1.9902 4.96281 0
M  V30 6772 H 642.892 -2.50075 3.32819 0
M  V30 6773 H 643.425 -0.892894 3.8765 0
M  V30 6774 H 640.164 0.488636 6.53676 0
M  V30 6775 H 639.684 -1.0997 5.89633 0
M  V30 6776 H 641.363 -0.815547 6.41839 0
M  V30 6777 N 641.495 -1.56914 -0.146875 0
M  V30 6778 C 642.72 -1.87881 -0.878386 0
M  V30 6779 C 643.145 -0.715945 -1.73942 0
M  V30 6780 O 642.503 0.334447 -1.78189 0
M  V30 6781 C 642.551 -3.17431 -1.71084 0
M  V30 6782 O 641.655 -3.01374 -2.81509 0
M  V30 6783 H 640.996 -0.617289 -0.244644 0
M  V30 6784 H 643.526 -2.04136 -0.137654 0
M  V30 6785 H 643.536 -3.49455 -2.10582 0
M  V30 6786 H 642.211 -4.01671 -1.07856 0
M  V30 6787 H 640.788 -2.80758 -2.45416 0
M  V30 6788 N 642.974 0.416227 -1.52004 0
M  V30 6789 C 643.904 1.51365 -1.77795 0
M  V30 6790 C 644.885 1.58059 -0.628601 0
M  V30 6791 O 646.07 1.73447 -0.873478 0
M  V30 6792 C 643.2 2.89256 -1.92219 0
M  V30 6793 C 642.154 2.97415 -3.0778 0
M  V30 6794 C 641.48 4.37492 -3.07417 0
M  V30 6795 C 642.78 2.69551 -4.47369 0
M  V30 6796 H 644.474 1.30033 -2.69688 0
M  V30 6797 H 642.02 0.624112 -1.29772 0
M  V30 6798 H 643.973 3.66008 -2.08845 0
M  V30 6799 H 642.697 3.11866 -0.969917 0
M  V30 6800 H 641.356 2.23107 -2.90893 0
M  V30 6801 H 641.004 4.571 -2.09925 0
M  V30 6802 H 640.704 4.43877 -3.85029 0
M  V30 6803 H 642.228 5.16188 -3.26162 0
M  V30 6804 H 643.642 3.36028 -4.64497 0
M  V30 6805 H 642.039 2.87321 -5.26846 0
M  V30 6806 H 643.109 1.65029 -4.55953 0
M  V30 6807 N 644.452 1.42507 0.673017 0
M  V30 6808 C 645.698 1.43284 1.43519 0
M  V30 6809 C 646.031 0.049668 1.94136 0
M  V30 6810 O 645.306 -0.926369 1.71022 0
M  V30 6811 C 645.589 2.45874 2.63093 0
M  V30 6812 C 645.442 3.93388 2.18096 0
M  V30 6813 C 646.761 2.45431 3.6531 0
M  V30 6814 H 643.88 0.521752 0.520522 0
M  V30 6815 H 646.522 1.73932 0.764701 0
M  V30 6816 H 644.672 2.19869 3.20296 0
M  V30 6817 H 646.344 4.30379 1.66046 0
M  V30 6818 H 644.587 4.07169 1.49652 0
M  V30 6819 H 645.258 4.60752 3.03993 0
M  V30 6820 H 647.734 2.68561 3.17827 0
M  V30 6821 H 646.61 3.19189 4.46553 0
M  V30 6822 H 646.871 1.48092 4.16559 0
M  V30 6823 N 645.93 -0.909495 1.28709 0
M  V30 6824 C 646.86 -2.0291 1.15542 0
M  V30 6825 C 647.841 -1.7002 0.0521017 0
M  V30 6826 O 649.026 -1.92835 0.229849 0
M  V30 6827 C 646.156 -3.37458 0.820935 0
M  V30 6828 C 645.11 -3.84524 1.87949 0
M  V30 6829 C 644.436 -5.16086 1.39854 0
M  V30 6830 C 645.736 -4.05918 3.28676 0
M  V30 6831 H 647.43 -2.14183 2.09203 0
M  V30 6832 H 644.976 -1.02913 1.00722 0
M  V30 6833 H 646.929 -4.1528 0.715571 0
M  V30 6834 H 645.653 -3.26249 -0.151374 0
M  V30 6835 H 644.312 -3.08911 1.97408 0
M  V30 6836 H 643.96 -5.01284 0.41518 0
M  V30 6837 H 643.66 -5.48547 2.1064 0
M  V30 6838 H 645.184 -5.96459 1.30649 0
M  V30 6839 H 646.598 -4.74252 3.22115 0
M  V30 6840 H 644.995 -4.49717 3.97334 0
M  V30 6841 H 646.065 -3.10583 3.72379 0
M  V30 6842 N 647.408 -1.11026 -1.11852 0
M  V30 6843 C 648.824 -0.843294 -1.35502 0
M  V30 6844 C 649.024 0.534179 -1.9429 0
M  V30 6845 O 648.08 1.28585 -2.17307 0
M  V30 6846 C 649.393 -1.94793 -2.29077 0
M  V30 6847 C 650.941 -1.97709 -2.42652 0
M  V30 6848 C 651.416 -3.07364 -3.39546 0
M  V30 6849 N 652.907 -3.0671 -3.47107 0
M  V30 6850 C 653.642 -3.88197 -4.22008 0
M  V30 6851 N 653.138 -4.79635 -4.99922 0
M  V30 6852 N 654.931 -3.76391 -4.17476 0
M  V30 6853 H 647.082 -1.99805 -0.720538 0
M  V30 6854 H 649.345 -0.868633 -0.379711 0
M  V30 6855 H 649.051 -2.93971 -1.93065 0
M  V30 6856 H 648.925 -1.84039 -3.29256 0
M  V30 6857 H 651.312 -0.991604 -2.77941 0
M  V30 6858 H 651.393 -2.1254 -1.4234 0
M  V30 6859 H 651.037 -4.06136 -3.04985 0
M  V30 6860 H 650.967 -2.89774 -4.39703 0
M  V30 6861 H 653.458 -2.40457 -2.91528 0
M  V30 6862 H 653.771 -5.38357 -5.54429 0
M  V30 6863 H 652.116 -4.8366 -4.99097 0
M  V30 6864 H 655.307 -3.04303 -3.55693 0
M  V30 6865 H 655.48 -4.40131 -4.75593 0
M  V30 6866 N 648.886 1.2938 -0.899927 0
M  V30 6867 C 649.816 2.30144 -0.39446 0
M  V30 6868 C 650.797 1.61611 0.530639 0
M  V30 6869 O 651.982 1.89119 0.441319 0
M  V30 6870 C 649.112 3.45229 0.37868 0
M  V30 6871 C 648.066 4.25564 -0.456012 0
M  V30 6872 C 647.392 5.32848 0.444637 0
M  V30 6873 C 648.692 4.93651 -1.70605 0
M  V30 6874 H 650.386 2.72673 -1.23653 0
M  V30 6875 H 647.932 1.31086 -0.596034 0
M  V30 6876 H 649.885 4.14797 0.743037 0
M  V30 6877 H 648.609 3.01545 1.25453 0
M  V30 6878 H 647.268 3.57704 -0.802704 0
M  V30 6879 H 646.916 4.85408 1.31863 0
M  V30 6880 H 646.616 5.87497 -0.110154 0
M  V30 6881 H 648.14 6.05268 0.805182 0
M  V30 6882 H 649.554 5.55655 -1.41141 0
M  V30 6883 H 647.951 5.58233 -2.20217 0
M  V30 6884 H 649.021 4.18926 -2.4419 0
M  V30 6885 N 650.364 0.662433 1.43002 0
M  V30 6886 C 651.78 0.330835 1.56133 0
M  V30 6887 C 651.98 -1.16454 1.64441 0
M  V30 6888 O 651.036 -1.94964 1.60453 0
M  V30 6889 C 652.349 1.05029 2.81761 0
M  V30 6890 C 653.897 1.03142 2.95518 0
M  V30 6891 C 654.372 1.73196 4.2399 0
M  V30 6892 N 655.863 1.70004 4.30875 0
M  V30 6893 C 656.598 2.21074 5.29069 0
M  V30 6894 N 656.094 2.80473 6.33488 0
M  V30 6895 N 657.887 2.1152 5.20784 0
M  V30 6896 H 650.038 1.63272 1.35853 0
M  V30 6897 H 652.301 0.687149 0.653092 0
M  V30 6898 H 652.007 2.10542 2.81718 0
M  V30 6899 H 651.881 0.607664 3.72273 0
M  V30 6900 H 654.268 -0.0153339 2.95096 0
M  V30 6901 H 654.349 1.51282 2.0627 0
M  V30 6902 H 653.993 2.77833 4.25172 0
M  V30 6903 H 653.923 1.22515 5.1215 0
M  V30 6904 H 656.414 1.26667 3.56039 0
M  V30 6905 H 656.727 3.17094 7.04749 0
M  V30 6906 H 655.072 2.84538 6.34085 0
M  V30 6907 H 658.263 1.64814 4.38126 0
M  V30 6908 H 658.436 2.51629 5.97149 0
M  V30 6909 N 651.842 -1.52309 0.404946 0
M  V30 6910 C 652.79 -2.28452 -0.437321 0
M  V30 6911 C 653.784 -1.32975 -1.04948 0
M  V30 6912 O 654.99 -1.50451 -0.988159 0
M  V30 6913 H 651.365 -0.734824 -0.159805 0
M  V30 6914 H 653.336 -2.97542 0.22615 0
M  V30 6915 C 652.085 -3.11536 -1.54404 0
M  V30 6916 H 651.408 -3.84871 -1.08233 0
M  V30 6917 H 652.848 -3.67926 -2.10729 0
M  V30 6918 C 651.307 -2.24833 -2.50902 0
M  V30 6919 O 651.837 -1.88574 -3.54687 0
M  V30 6920 N 650.043 -1.88685 -2.21012 0
M  V30 6921 H 649.59 -2.18371 -1.36646 0
M  V30 6922 H 649.548 -1.30966 -2.85824 0
M  V30 6923 N 653.32 -0.135238 -1.57019 0
M  V30 6924 C 654.545 0.529343 -2.00531 0
M  V30 6925 C 654.97 1.58391 -1.01459 0
M  V30 6926 O 654.328 1.81296 0.0113986 0
M  V30 6927 C 654.376 1.11748 -3.42848 0
M  V30 6928 O 653.48 2.23267 -3.46736 0
M  V30 6929 H 652.821 0.130669 -0.651016 0
M  V30 6930 H 655.351 -0.228503 -2.0332 0
M  V30 6931 H 655.361 1.44905 -3.81401 0
M  V30 6932 H 654.036 0.345147 -4.14465 0
M  V30 6933 H 652.613 1.91428 -3.20015 0
M  V30 6934 N 654.798 1.5699 0.138552 0
M  V30 6935 C 655.745 1.98899 1.17081 0
M  V30 6936 C 656.715 0.857922 1.42228 0
M  V30 6937 O 657.9 1.12065 1.54422 0
M  V30 6938 C 655.04 2.38189 2.4972 0
M  V30 6939 C 654.153 3.64624 2.31674 0
M  V30 6940 C 653.288 3.9298 3.57407 0
M  V30 6941 C 652.327 5.1266 3.34435 0
M  V30 6942 N 651.464 5.36983 4.5232 0
M  V30 6943 H 656.304 2.86881 0.80642 0
M  V30 6944 H 653.841 1.41925 0.386727 0
M  V30 6945 H 655.799 2.59 3.2707 0
M  V30 6946 H 654.429 1.53275 2.84089 0
M  V30 6947 H 653.481 3.51542 1.45337 0
M  V30 6948 H 654.793 4.52131 2.10664 0
M  V30 6949 H 653.947 4.14335 4.43183 0
M  V30 6950 H 652.686 3.03912 3.8143 0
M  V30 6951 H 651.691 4.9117 2.47048 0
M  V30 6952 H 652.916 6.03288 3.11802 0
M  V30 6953 H 650.862 4.50871 4.76499 0
M  V30 6954 H 650.779 6.18775 4.34343 0
M  V30 6955 H 652.047 5.62842 5.39285 0
M  V30 6956 N 656.276 -0.40816 1.52223 0
M  V30 6957 C 657.223 -1.49737 1.75635 0
M  V30 6958 C 658.193 -1.5493 0.598824 0
M  V30 6959 O 659.378 -1.71487 0.83648 0
M  V30 6960 C 656.518 -2.87174 1.91376 0
M  V30 6961 C 655.631 -2.91283 3.19027 0
M  V30 6962 C 654.766 -4.20026 3.25195 0
M  V30 6963 C 653.805 -4.18113 4.47044 0
M  V30 6964 N 652.942 -5.38429 4.50598 0
M  V30 6965 H 657.782 -1.29075 2.68596 0
M  V30 6966 H 655.319 -0.626518 1.33091 0
M  V30 6967 H 657.277 -3.66959 1.98486 0
M  V30 6968 H 655.907 -3.06329 1.01795 0
M  V30 6969 H 654.959 -2.03984 3.21084 0
M  V30 6970 H 656.271 -2.85734 4.08849 0
M  V30 6971 H 655.425 -5.08204 3.31382 0
M  V30 6972 H 654.164 -4.28271 2.33313 0
M  V30 6973 H 653.169 -3.28325 4.41002 0
M  V30 6974 H 654.394 -4.11507 5.40221 0
M  V30 6975 H 652.34 -5.4734 3.616 0
M  V30 6976 H 652.257 -5.34879 5.34266 0
M  V30 6977 H 653.525 -6.28557 4.61016 0
M  V30 6978 N 657.755 -1.42862 -0.66545 0
M  V30 6979 C 658.665 -1.49491 -1.80803 0
M  V30 6980 C 659.681 -0.382914 -1.69734 0
M  V30 6981 O 660.857 -0.635223 -1.9112 0
M  V30 6982 C 657.922 -1.40383 -3.17007 0
M  V30 6983 C 656.983 -2.62152 -3.39963 0
M  V30 6984 C 656.216 -2.53469 -4.69669 0
M  V30 6985 O 656.439 -1.57568 -5.48205 0
M  V30 6986 O 655.373 -3.43763 -4.94075 0
M  V30 6987 H 659.199 -2.45949 -1.78165 0
M  V30 6988 H 656.784 -1.24728 -0.822387 0
M  V30 6989 H 658.666 -1.377 -3.98267 0
M  V30 6990 H 657.341 -0.470546 -3.20262 0
M  V30 6991 H 656.248 -2.70409 -2.58515 0
M  V30 6992 H 657.581 -3.54411 -3.41546 0
M  V30 6993 N 659.233 0.902656 -1.29189 0
M  V30 6994 C 660.163 2.02294 -1.16616 0
M  V30 6995 C 661.144 1.6999 -0.0611175 0
M  V30 6996 O 662.329 1.9271 -0.240072 0
M  V30 6997 C 659.459 3.37018 -0.83882 0
M  V30 6998 C 658.413 3.83522 -1.89986 0
M  V30 6999 C 657.739 5.15337 -1.42589 0
M  V30 7000 C 659.039 4.04169 -3.30824 0
M  V30 7001 H 660.733 2.13071 -2.10336 0
M  V30 7002 H 658.279 1.02378 -1.01266 0
M  V30 7003 H 660.232 4.14895 -0.737584 0
M  V30 7004 H 658.956 3.26325 0.134071 0
M  V30 7005 H 657.615 3.07859 -1.99043 0
M  V30 7006 H 657.263 5.01056 -0.441759 0
M  V30 7007 H 656.963 5.47423 -2.13547 0
M  V30 7008 H 658.487 5.95758 -1.3381 0
M  V30 7009 H 659.901 4.72537 -3.24626 0
M  V30 7010 H 658.298 4.47604 -3.99713 0
M  V30 7011 H 659.368 3.08604 -3.74021 0
M  V30 7012 N 660.711 1.11618 1.11262 0
M  V30 7013 C 661.659 0.771291 2.1944 0
M  V30 7014 C 662.653 -0.238073 1.67719 0
M  V30 7015 O 663.859 -0.0971628 1.79738 0
M  V30 7016 H 660.234 0.231548 0.715465 0
M  V30 7017 H 662.205 1.69226 2.45775 0
M  V30 7018 C 660.954 0.232765 3.4692 0
M  V30 7019 H 660.277 1.00072 3.87073 0
M  V30 7020 H 661.717 0.0296561 4.2399 0
M  V30 7021 C 660.176 -1.03738 3.20531 0
M  V30 7022 O 660.706 -2.11675 3.41404 0
M  V30 7023 N 658.912 -0.960906 2.74253 0
M  V30 7024 H 658.459 -0.0824323 2.57468 0
M  V30 7025 H 658.417 -1.8114 2.56974 0
M  V30 7026 N 662.189 -1.289 0.906776 0
M  V30 7027 C 663.466 -1.90221 0.455537 0
M  V30 7028 C 663.846 -1.82251 -1.06527 0
M  V30 7029 O 663.194 -1.25385 -1.91026 0
M  V30 7030 C 663.404 -3.35015 0.97806 0
M  V30 7031 C 664.752 -4.12018 1.02598 0
M  V30 7032 O 665.776 -3.43947 0.926218 0
M  V30 7033 O 664.635 -5.33677 1.17689 0
M  V30 7034 H 661.729 -0.814505 0.143214 0
M  V30 7035 H 664.275 -1.37317 0.997104 0
M  V30 7036 H 663.047 -3.35006 2.02204 0
M  V30 7037 H 662.67 -3.95408 0.416914 0
M  V30 7038 N 663.667 -0.670007 -1.42649 0
M  V30 7039 C 664.916 -0.187526 -2.00826 0
M  V30 7040 C 665.229 1.21142 -1.53571 0
M  V30 7041 O 666.435 1.79001 -2.04134 0
M  V30 7042 C 664.891 -0.284409 -3.58774 0
M  V30 7043 C 664.499 -1.6871 -4.15019 0
M  V30 7044 C 666.243 0.139605 -4.2427 0
M  V30 7045 C 664.15 -1.73701 -5.65316 0
M  V30 7046 H 663.08 -0.0663468 -0.751075 0
M  V30 7047 H 665.731 -0.834492 -1.63427 0
M  V30 7048 H 664.113 0.430364 -3.93655 0
M  V30 7049 H 665.287 -2.42857 -3.91608 0
M  V30 7050 H 663.602 -2.05855 -3.61957 0
M  V30 7051 H 666.199 0.122398 -5.3456 0
M  V30 7052 H 666.542 1.17403 -3.99402 0
M  V30 7053 H 667.075 -0.523995 -3.94334 0
M  V30 7054 H 663.814 -2.75109 -5.94975 0
M  V30 7055 H 663.334 -1.03903 -5.90732 0
M  V30 7056 H 665.013 -1.48829 -6.2965 0
M  V30 7057 N 665.145 1.52092 -0.413018 0
M  V30 7058 C 666.561 1.59471 -0.0640836 0
M  V30 7059 C 666.761 1.42562 1.42402 0
M  V30 7060 O 665.817 1.25453 2.19129 0
M  V30 7061 C 667.13 2.95392 -0.562474 0
M  V30 7062 C 668.678 3.08637 -0.520788 0
M  V30 7063 C 669.153 4.47044 -0.995752 0
M  V30 7064 N 670.644 4.53296 -0.952732 0
M  V30 7065 C 671.379 5.58669 -1.29138 0
M  V30 7066 N 670.875 6.71576 -1.70168 0
M  V30 7067 N 672.668 5.48898 -1.2111 0
M  V30 7068 H 664.819 1.6133 -1.38153 0
M  V30 7069 H 667.082 0.75916 -0.567785 0
M  V30 7070 H 666.788 3.13059 -1.60271 0
M  V30 7071 H 666.662 3.77191 0.0257875 0
M  V30 7072 H 669.049 2.90652 0.510412 0
M  V30 7073 H 669.13 2.28735 -1.14515 0
M  V30 7074 H 668.774 4.65773 -2.0253 0
M  V30 7075 H 668.704 5.25448 -0.348162 0
M  V30 7076 H 671.195 3.72248 -0.651119 0
M  V30 7077 H 671.508 7.47973 -1.9431 0
M  V30 7078 H 669.853 6.72847 -1.74075 0
M  V30 7079 H 673.044 4.59573 -0.889396 0
M  V30 7080 H 673.217 6.30912 -1.47833 0
M  V30 7081 N 666.623 0.143563 1.56945 0
M  V30 7082 C 667.87 -0.508407 1.96014 0
M  V30 7083 C 668.198 -1.65099 1.02824 0
M  V30 7084 O 667.453 -1.95618 0.0567764 0
M  V30 7085 C 667.752 -1.05885 3.41355 0
M  V30 7086 C 667.418 -0.0350809 4.50886 0
M  V30 7087 C 666.08 0.246362 4.80569 0
M  V30 7088 C 668.432 0.661282 5.16988 0
M  V30 7089 C 665.76 1.23003 5.73661 0
M  V30 7090 C 668.112 1.63375 6.11139 0
M  V30 7091 C 666.776 1.92292 6.39203 0
M  V30 7092 H 666.046 -0.186039 0.717266 0
M  V30 7093 H 668.693 0.229667 1.90118 0
M  V30 7094 H 666.998 -1.87419 3.44066 0
M  V30 7095 H 668.695 -1.57183 3.6891 0
M  V30 7096 H 665.285 -0.264622 4.27782 0
M  V30 7097 H 669.469 0.457038 4.94191 0
M  V30 7098 H 664.725 1.46056 5.93698 0
M  V30 7099 H 668.899 2.17887 6.61436 0
M  V30 7100 H 666.526 2.68666 7.11142 0
M  V30 7101 N 668.101 -1.57061 -0.130224 0
M  V30 7102 C 669.011 -2.02802 -1.17934 0
M  V30 7103 C 670.027 -0.946378 -1.46013 0
M  V30 7104 O 671.203 -1.25708 -1.57351 0
M  V30 7105 C 668.268 -2.41368 -2.48882 0
M  V30 7106 C 667.329 -3.63561 -2.28301 0
M  V30 7107 C 666.562 -4.00279 -3.53005 0
M  V30 7108 O 666.785 -3.37463 -4.59864 0
M  V30 7109 O 665.719 -4.93441 -3.44673 0
M  V30 7110 H 669.545 -2.92394 -0.820958 0
M  V30 7111 H 667.13 -1.45475 -0.340197 0
M  V30 7112 H 669.012 -2.66958 -3.26054 0
M  V30 7113 H 667.687 -1.54926 -2.84217 0
M  V30 7114 H 666.594 -3.43136 -1.49025 0
M  V30 7115 H 667.927 -4.50673 -1.97875 0
M  V30 7116 N 669.579 0.400081 -1.52437 0
M  V30 7117 C 670.826 1.14619 -1.6694 0
M  V30 7118 C 671.154 1.90262 -0.403797 0
M  V30 7119 O 670.409 1.85835 0.61351 0
M  V30 7120 C 670.708 2.15914 -2.84808 0
M  V30 7121 C 670.374 1.57011 -4.2268 0
M  V30 7122 C 669.036 1.40672 -4.60179 0
M  V30 7123 C 671.388 1.14081 -5.08562 0
M  V30 7124 C 668.716 0.799335 -5.81229 0
M  V30 7125 C 671.068 0.547573 -6.30226 0
M  V30 7126 C 669.732 0.371389 -6.66466 0
M  V30 7127 H 669.002 0.419419 -0.610875 0
M  V30 7128 H 671.649 0.432227 -1.86558 0
M  V30 7129 H 669.954 2.93488 -2.59561 0
M  V30 7130 H 671.651 2.73533 -2.93225 0
M  V30 7131 H 668.241 1.70713 -3.93135 0
M  V30 7132 H 672.425 1.2551 -4.80168 0
M  V30 7133 H 667.681 0.65093 -6.07925 0
M  V30 7134 H 671.855 0.206575 -6.96094 0
M  V30 7135 H 669.482 -0.10135 -7.60132 0
M  V30 7136 N 671.057 1.43213 0.657864 0
M  V30 7137 C 672.285 1.48015 1.44566 0
M  V30 7138 C 672.7 0.0965951 1.88553 0
M  V30 7139 O 672.057 -0.892221 1.59203 0
M  V30 7140 C 672.108 2.42199 2.68369 0
M  V30 7141 O 671.829 3.75173 2.26223 0
M  V30 7142 C 673.33 2.56195 3.61772 0
M  V30 7143 H 670.55 0.502861 0.444266 0
M  V30 7144 H 673.094 1.87907 0.806917 0
M  V30 7145 H 671.249 2.05514 3.28394 0
M  V30 7146 H 671.663 4.25776 3.06293 0
M  V30 7147 H 673.137 3.26182 4.4532 0
M  V30 7148 H 673.614 1.60534 4.0881 0
M  V30 7149 H 674.22 2.93671 3.07632 0
M  V30 7150 N 672.536 -0.895792 1.29666 0
M  V30 7151 C 673.947 -1.46195 1.1612 0
M  V30 7152 C 674.298 -1.94699 -0.242195 0
M  V30 7153 O 673.423 -1.8406 -1.13802 0
M  V30 7154 C 674.018 -2.65718 2.10189 0
M  V30 7155 C 672.577 -3.18458 2.00653 0
M  V30 7156 C 671.724 -1.91149 2.00891 0
M  V30 7157 H 674.675 -0.706756 1.42094 0
M  V30 7158 H 674.696 -3.4158 1.6764 0
M  V30 7159 H 674.208 -2.30386 3.12321 0
M  V30 7160 H 672.309 -3.58474 1.01623 0
M  V30 7161 H 672.422 -3.82491 2.88509 0
M  V30 7162 H 670.786 -2.09021 1.45542 0
M  V30 7163 H 671.569 -1.58089 3.04734 0
M  V30 7164 N 674.014 -1.12206 -1.10668 0
M  V30 7165 C 675.262 -0.874144 -1.82217 0
M  V30 7166 C 675.583 0.601736 -1.85484 0
M  V30 7167 O 674.853 1.43725 -1.33116 0
M  V30 7168 H 673.433 -0.320404 -0.674797 0
M  V30 7169 H 676.095 -1.41606 -1.33917 0
M  V30 7170 H 675.191 -1.25349 -2.85822 0
M  V30 7171 N 675.492 1.28418 -0.913599 0
M  V30 7172 C 676.908 1.47411 -0.611728 0
M  V30 7173 C 677.108 1.83018 0.843008 0
M  V30 7174 O 676.164 1.93505 1.6221 0
M  V30 7175 C 677.477 2.57703 -1.5495 0
M  V30 7176 C 679.025 2.71572 -1.5562 0
M  V30 7177 C 679.5 3.85008 -2.48058 0
M  V30 7178 N 680.991 3.92361 -2.46184 0
M  V30 7179 C 681.726 4.79516 -3.14407 0
M  V30 7180 N 681.222 5.71262 -3.91958 0
M  V30 7181 N 683.015 4.73125 -3.03495 0
M  V30 7182 H 675.166 1.03585 -1.85429 0
M  V30 7183 H 677.429 0.515907 -0.795326 0
M  V30 7184 H 677.135 2.38298 -2.58663 0
M  V30 7185 H 677.009 3.54801 -1.28048 0
M  V30 7186 H 679.396 2.90366 -0.526441 0
M  V30 7187 H 679.477 1.75006 -1.86565 0
M  V30 7188 H 679.121 3.66969 -3.51136 0
M  V30 7189 H 679.051 4.80971 -2.14416 0
M  V30 7190 H 681.542 3.26749 -1.89851 0
M  V30 7191 H 681.855 6.34593 -4.41034 0
M  V30 7192 H 680.2 5.71103 -3.96063 0
M  V30 7193 H 683.391 4.00442 -2.42413 0
M  V30 7194 H 683.564 5.40834 -3.56935 0
M  V30 7195 N 676.97 0.677563 1.42291 0
M  V30 7196 C 678.247 0.129803 1.95169 0
M  V30 7197 C 678.627 -1.35605 1.61786 0
M  V30 7198 O 677.975 -2.09361 0.915444 0
M  V30 7199 C 678.185 0.401889 3.46678 0
M  V30 7200 C 679.533 0.319889 4.23393 0
M  V30 7201 O 680.557 0.33579 3.54614 0
M  V30 7202 O 679.416 0.264459 5.4586 0
M  V30 7203 H 676.51 0.00447433 0.826988 0
M  V30 7204 H 679.056 0.752483 1.52105 0
M  V30 7205 H 677.828 1.43108 3.64192 0
M  V30 7206 H 677.451 -0.252662 3.96796 0
M  V30 7207 N 678.448 -1.51871 0.421078 0
M  V30 7208 C 679.676 -2.06356 -0.14994 0
M  V30 7209 C 680.091 -1.29006 -1.37851 0
M  V30 7210 O 679.448 -0.345139 -1.79207 0
M  V30 7211 C 679.499 -3.58185 -0.488454 0
M  V30 7212 O 679.22 -4.32611 0.691341 0
M  V30 7213 C 680.721 -4.29129 -1.11191 0
M  V30 7214 H 677.941 -0.67083 -0.0151186 0
M  V30 7215 H 680.485 -1.95638 0.595476 0
M  V30 7216 H 678.64 -3.68871 -1.18376 0
M  V30 7217 H 679.054 -5.22927 0.405906 0
M  V30 7218 H 680.528 -5.36501 -1.29889 0
M  V30 7219 H 681.005 -3.86371 -2.0884 0
M  V30 7220 H 681.611 -4.22843 -0.456458 0
M  V30 7221 N 679.926 -0.151884 -1.56866 0
M  V30 7222 C 680.889 0.771861 -2.15812 0
M  V30 7223 C 681.889 1.17181 -1.10115 0
M  V30 7224 O 683.079 1.09194 -1.35729 0
M  V30 7225 C 680.211 2.04806 -2.7252 0
M  V30 7226 H 681.404 0.259021 -2.98779 0
M  V30 7227 H 678.957 0.097588 -1.55995 0
M  V30 7228 H 679.692 2.60445 -1.93233 0
M  V30 7229 H 679.477 1.77044 -3.49854 0
M  V30 7230 H 680.967 2.70771 -3.1792 0
M  V30 7231 N 681.404 1.57128 0.121893 0
M  V30 7232 C 682.314 2.03425 1.16857 0
M  V30 7233 C 683.33 0.954108 1.45509 0
M  V30 7234 O 684.506 1.26541 1.56682 0
M  V30 7235 C 681.571 2.42685 2.47599 0
M  V30 7236 C 680.632 3.64767 2.2637 0
M  V30 7237 C 679.865 4.02145 3.50878 0
M  V30 7238 O 680.088 3.39897 4.58068 0
M  V30 7239 O 679.022 4.95262 3.42051 0
M  V30 7240 H 682.848 2.92825 0.80544 0
M  V30 7241 H 680.433 1.45654 0.332477 0
M  V30 7242 H 682.315 2.68684 3.24634 0
M  V30 7243 H 680.99 1.56432 2.83392 0
M  V30 7244 H 679.897 3.43922 1.47203 0
M  V30 7245 H 681.23 4.51716 1.95482 0
M  V30 7246 N 682.882 -0.391992 1.52647 0
M  V30 7247 C 684.13 -1.13507 1.67214 0
M  V30 7248 C 684.451 -1.90575 0.41304 0
M  V30 7249 O 683.721 -1.87348 -0.572498 0
M  V30 7250 H 682.301 -0.422013 0.616372 0
M  V30 7251 H 684.963 -0.44502 1.89751 0
M  V30 7252 H 684.059 -1.83964 2.52118 0
M  V30 7253 N 684.36 -1.4356 -0.65026 0
M  V30 7254 C 685.606 -1.45549 -1.41221 0
M  V30 7255 C 685.939 -0.0805472 -1.94033 0
M  V30 7256 O 685.214 0.899043 -1.72475 0
M  V30 7257 C 685.497 -2.50028 -2.59148 0
M  V30 7258 C 685.35 -3.96808 -2.1181 0
M  V30 7259 C 686.669 -2.51212 -3.61359 0
M  V30 7260 H 683.788 -0.529967 -0.512156 0
M  V30 7261 H 686.43 -1.75127 -0.736933 0
M  V30 7262 H 684.58 -2.24937 -3.16758 0
M  V30 7263 H 686.252 -4.32966 -1.59178 0
M  V30 7264 H 684.495 -4.09498 -1.43156 0
M  V30 7265 H 685.166 -4.6553 -2.96625 0
M  V30 7266 H 687.642 -2.73583 -3.13515 0
M  V30 7267 H 686.518 -3.26252 -4.41419 0
M  V30 7268 H 686.779 -1.54701 -4.1415 0
M  V30 7269 N 685.838 0.888903 -1.30139 0
M  V30 7270 C 687.063 1.67884 -1.21777 0
M  V30 7271 C 687.488 1.86848 0.216689 0
M  V30 7272 O 686.846 1.39659 1.15608 0
M  V30 7273 C 686.894 3.03483 -1.94757 0
M  V30 7274 O 685.998 3.92294 -1.27198 0
M  V30 7275 H 685.339 0.513144 -0.421402 0
M  V30 7276 H 687.869 1.10968 -1.71893 0
M  V30 7277 H 687.879 3.53553 -2.03627 0
M  V30 7278 H 686.554 2.89 -2.99085 0
M  V30 7279 H 685.131 3.50732 -1.26655 0
M  V30 7280 N 687.317 1.12792 1.10072 0
M  V30 7281 C 688.249 0.757003 2.16338 0
M  V30 7282 C 689.262 -0.218144 1.61332 0
M  V30 7283 O 690.451 0.0010727 1.785 0
M  V30 7284 C 687.551 0.100303 3.38752 0
M  V30 7285 C 686.724 1.10586 4.2319 0
M  V30 7286 C 685.783 0.47609 5.24042 0
M  V30 7287 O 684.809 1.13418 5.57786 0
M  V30 7288 N 686.011 -0.754823 5.75572 0
M  V30 7289 H 688.776 1.6714 2.48766 0
M  V30 7290 H 686.337 1.02003 1.25726 0
M  V30 7291 H 688.329 -0.333092 4.03327 0
M  V30 7292 H 686.899 -0.716915 3.04268 0
M  V30 7293 H 686.119 1.71677 3.54853 0
M  V30 7294 H 687.407 1.78571 4.76435 0
M  V30 7295 H 686.805 -1.30838 5.50362 0
M  V30 7296 H 685.362 -1.13098 6.41913 0
M  V30 7297 N 688.795 -1.27931 0.920396 0
M  V30 7298 C 689.705 -2.30824 0.419212 0
M  V30 7299 C 690.721 -1.66767 -0.496461 0
M  V30 7300 O 691.897 -1.97763 -0.38104 0
M  V30 7301 C 688.962 -3.45158 -0.326601 0
M  V30 7302 C 688.023 -4.24754 0.623098 0
M  V30 7303 C 687.256 -5.33629 -0.0872172 0
M  V30 7304 O 687.479 -5.55204 -1.30784 0
M  V30 7305 O 686.413 -5.99091 0.580875 0
M  V30 7306 H 690.239 -2.75716 1.27337 0
M  V30 7307 H 687.824 -1.32747 0.685465 0
M  V30 7308 H 689.706 -4.14716 -0.747559 0
M  V30 7309 H 688.381 -3.02336 -1.15648 0
M  V30 7310 H 687.288 -3.57759 1.09359 0
M  V30 7311 H 688.621 -4.71272 1.41998 0
M  V30 7312 N 690.273 -0.685099 -1.4193 0
M  V30 7313 C 691.203 -0.0273506 -2.33484 0
M  V30 7314 C 692.184 0.778366 -1.51246 0
M  V30 7315 O 693.369 0.733449 -1.79817 0
M  V30 7316 C 690.499 0.917272 -3.34968 0
M  V30 7317 C 689.453 0.21941 -4.27437 0
M  V30 7318 C 688.779 1.27768 -5.1921 0
M  V30 7319 C 690.079 -0.907894 -5.14349 0
M  V30 7320 H 691.773 -0.791994 -2.88735 0
M  V30 7321 H 689.319 -0.382308 -1.38832 0
M  V30 7322 H 691.272 1.38657 -3.97935 0
M  V30 7323 H 689.996 1.71346 -2.78043 0
M  V30 7324 H 688.655 -0.229757 -3.65879 0
M  V30 7325 H 688.303 2.06612 -4.58607 0
M  V30 7326 H 688.003 0.815803 -5.81909 0
M  V30 7327 H 689.527 1.7477 -5.85054 0
M  V30 7328 H 690.941 -0.519348 -5.70943 0
M  V30 7329 H 689.338 -1.2962 -5.85934 0
M  V30 7330 H 690.408 -1.75218 -4.52136 0
M  V30 7331 N 691.751 1.51645 -0.429126 0
M  V30 7332 C 693 2.01203 0.141538 0
M  V30 7333 C 693.313 1.31828 1.44502 0
M  V30 7334 O 694.519 1.7231 2.09813 0
M  V30 7335 C 692.975 3.58624 0.302786 0
M  V30 7336 C 692.583 4.3693 -0.989775 0
M  V30 7337 C 694.327 4.16353 0.827661 0
M  V30 7338 C 692.234 5.86037 -0.794619 0
M  V30 7339 H 691.164 0.751867 0.05667 0
M  V30 7340 H 693.815 1.74822 -0.557633 0
M  V30 7341 H 692.197 3.81417 1.06476 0
M  V30 7342 H 693.371 4.25887 -1.75945 0
M  V30 7343 H 691.686 3.90614 -1.44256 0
M  V30 7344 H 694.283 5.25455 0.990026 0
M  V30 7345 H 694.626 3.74995 1.80787 0
M  V30 7346 H 695.159 3.97606 0.124213 0
M  V30 7347 H 691.898 6.31792 -1.74697 0
M  V30 7348 H 691.418 5.99765 -0.0645968 0
M  V30 7349 H 693.097 6.45471 -0.444591 0
M  V30 7350 N 693.229 0.160201 1.56784 0
M  V30 7351 C 694.454 -0.497373 2.01348 0
M  V30 7352 C 694.879 -1.56757 1.03966 0
M  V30 7353 O 694.237 -1.81292 0.0174455 0
M  V30 7354 C 694.285 -1.0628 3.44582 0
M  V30 7355 O 693.389 -2.17723 3.50244 0
M  V30 7356 H 692.73 -0.120295 0.653012 0
M  V30 7357 H 695.26 0.260821 2.02931 0
M  V30 7358 H 695.27 -1.38819 3.83658 0
M  V30 7359 H 693.945 -0.279166 4.14962 0
M  V30 7360 H 692.522 -1.86313 3.2302 0
M  V30 7361 N 694.707 -1.5719 -0.113559 0
M  V30 7362 C 695.67 -1.99796 -1.12314 0
M  V30 7363 C 696.67 -0.888847 -1.34001 0
M  V30 7364 O 697.86 -1.15476 -1.30426 0
M  V30 7365 C 694.992 -2.34279 -2.47641 0
M  V30 7366 H 696.185 -2.90193 -0.756825 0
M  V30 7367 H 693.738 -1.52144 -0.358029 0
M  V30 7368 H 694.473 -1.46778 -2.89183 0
M  V30 7369 H 694.258 -3.15175 -2.33253 0
M  V30 7370 H 695.748 -2.67963 -3.2029 0
M  V30 7371 N 696.185 0.383891 -1.52853 0
M  V30 7372 C 697.433 1.12619 -1.67814 0
M  V30 7373 C 697.754 1.90354 -0.423141 0
M  V30 7374 O 697.024 1.87649 0.562554 0
M  V30 7375 H 695.604 0.418738 -0.618601 0
M  V30 7376 H 698.266 0.43495 -1.89985 0
M  V30 7377 H 697.362 1.82624 -2.5309 0
M  V30 7378 N 697.663 1.43903 0.642637 0
M  V30 7379 C 698.593 1.52697 1.76652 0
M  V30 7380 C 699.574 0.380816 1.65782 0
M  V30 7381 O 700.759 0.599432 1.84717 0
M  V30 7382 C 697.889 1.45975 3.15133 0
M  V30 7383 C 696.843 2.58949 3.40778 0
M  V30 7384 C 696.169 2.37279 4.79169 0
M  V30 7385 C 697.469 4.01153 3.34475 0
M  V30 7386 H 699.163 2.46766 1.69549 0
M  V30 7387 H 696.709 1.18767 0.814279 0
M  V30 7388 H 698.662 1.5073 3.93521 0
M  V30 7389 H 697.386 0.484162 3.22991 0
M  V30 7390 H 696.045 2.53564 2.64765 0
M  V30 7391 H 695.693 1.37939 4.83717 0
M  V30 7392 H 695.393 3.13016 4.97287 0
M  V30 7393 H 696.917 2.43834 5.59801 0
M  V30 7394 H 698.331 4.07968 4.02784 0
M  V30 7395 H 696.728 4.77001 3.64129 0
M  V30 7396 H 697.798 4.25539 2.32475 0
M  V30 7397 N 699.141 -0.881989 1.30609 0
M  V30 7398 C 700.387 -1.63647 1.19781 0
M  V30 7399 C 700.72 -1.92632 -0.246265 0
M  V30 7400 O 699.995 -1.54938 -1.17577 0
M  V30 7401 C 700.278 -2.97437 2.02985 0
M  V30 7402 C 700.131 -2.75406 3.55628 0
M  V30 7403 C 701.45 -3.98397 1.86997 0
M  V30 7404 H 698.569 -0.593841 0.436488 0
M  V30 7405 H 701.211 -1.02041 1.60273 0
M  V30 7406 H 699.361 -3.50018 1.68581 0
M  V30 7407 H 701.033 -2.2959 4.00107 0
M  V30 7408 H 699.276 -2.09856 3.79662 0
M  V30 7409 H 699.947 -3.70552 4.09139 0
M  V30 7410 H 702.423 -3.54986 2.17081 0
M  V30 7411 H 701.299 -4.89916 2.47536 0
M  V30 7412 H 701.56 -4.3424 0.829943 0
M  V30 7413 N 700.619 -1.13374 -1.09472 0
M  V30 7414 C 701.896 -0.806329 -1.78207 0
M  V30 7415 C 702.276 0.702191 -1.99079 0
M  V30 7416 O 701.624 1.63931 -1.59182 0
M  V30 7417 C 701.834 -1.59271 -3.10538 0
M  V30 7418 C 703.182 -1.78509 -3.85253 0
M  V30 7419 O 704.206 -1.55866 -3.20288 0
M  V30 7420 O 703.065 -2.16287 -5.01879 0
M  V30 7421 H 700.159 -0.29435 -0.772843 0
M  V30 7422 H 702.705 -1.23833 -1.16033 0
M  V30 7423 H 701.477 -2.61792 -2.90828 0
M  V30 7424 H 701.1 -1.15562 -3.80436 0
M  V30 7425 N 702.098 1.27442 -0.927168 0
M  V30 7426 C 703.346 1.94007 -0.566203 0
M  V30 7427 C 703.667 1.7323 0.895345 0
M  V30 7428 O 702.937 1.07973 1.63459 0
M  V30 7429 H 701.517 0.717917 -0.206409 0
M  V30 7430 H 704.179 1.55161 -1.17945 0
M  V30 7431 H 703.275 3.02401 -0.772028 0
M  V30 7432 N 703.576 0.692616 1.41565 0
M  V30 7433 C 704.992 0.363878 1.55397 0
M  V30 7434 C 705.192 -1.1294 1.66874 0
M  V30 7435 O 704.248 -1.91517 1.64552 0
M  V30 7436 C 705.561 1.10982 2.7947 0
M  V30 7437 C 707.109 1.09387 2.93263 0
M  V30 7438 C 707.584 1.8215 4.20221 0
M  V30 7439 N 709.075 1.79105 4.27172 0
M  V30 7440 C 709.81 2.32247 5.2426 0
M  V30 7441 N 709.306 2.93847 6.27396 0
M  V30 7442 N 711.099 2.22519 5.1618 0
M  V30 7443 H 703.25 1.66116 1.3236 0
M  V30 7444 H 705.513 0.700848 0.63837 0
M  V30 7445 H 705.219 2.1647 2.77188 0
M  V30 7446 H 705.093 0.686492 3.709 0
M  V30 7447 H 707.48 0.0472638 2.95062 0
M  V30 7448 H 707.561 1.55623 2.03015 0
M  V30 7449 H 707.205 2.86789 4.19183 0
M  V30 7450 H 707.135 1.33351 5.09436 0
M  V30 7451 H 709.626 1.34191 3.53272 0
M  V30 7452 H 709.939 3.31972 6.97864 0
M  V30 7453 H 708.284 2.97924 6.27906 0
M  V30 7454 H 711.475 1.7407 4.34531 0
M  V30 7455 H 711.648 2.64239 5.91677 0
M  V30 7456 N 705.054 -1.51416 0.437162 0
M  V30 7457 C 706.331 -1.94682 -0.189292 0
M  V30 7458 C 706.711 -1.37581 -1.60108 0
M  V30 7459 O 706.059 -0.562815 -2.2146 0
M  V30 7460 C 706.269 -3.48599 -0.167201 0
M  V30 7461 C 707.617 -4.2296 -0.372856 0
M  V30 7462 O 708.641 -3.55354 -0.245323 0
M  V30 7463 O 707.5 -5.42895 -0.626693 0
M  V30 7464 H 704.594 -0.816708 -0.130063 0
M  V30 7465 H 707.14 -1.62316 0.495128 0
M  V30 7466 H 705.912 -3.82616 0.81981 0
M  V30 7467 H 705.535 -3.87406 -0.894537 0
M  V30 7468 N 706.532 -0.168513 -1.56696 0
M  V30 7469 C 707.462 0.758563 -2.20835 0
M  V30 7470 C 708.443 1.24121 -1.1631 0
M  V30 7471 O 709.628 1.29487 -1.4473 0
M  V30 7472 C 706.758 1.9892 -2.8469 0
M  V30 7473 C 705.712 1.64252 -3.95228 0
M  V30 7474 C 705.038 2.94757 -4.46119 0
M  V30 7475 C 706.338 0.872675 -5.14958 0
M  V30 7476 H 708.032 0.223953 -2.98561 0
M  V30 7477 H 705.578 0.106277 -1.43607 0
M  V30 7478 H 707.531 2.64275 -3.28233 0
M  V30 7479 H 706.255 2.5479 -2.04327 0
M  V30 7480 H 704.914 1.01266 -3.52336 0
M  V30 7481 H 704.562 3.48662 -3.62552 0
M  V30 7482 H 704.262 2.72316 -5.2069 0
M  V30 7483 H 705.786 3.61147 -4.92347 0
M  V30 7484 H 707.2 1.42875 -5.55211 0
M  V30 7485 H 705.597 0.747402 -5.95428 0
M  V30 7486 H 706.667 -0.131535 -4.84722 0
M  V30 7487 N 708.01 1.57248 0.105221 0
M  V30 7488 C 709.256 1.85845 0.811753 0
M  V30 7489 C 709.589 0.756219 1.78871 0
M  V30 7490 O 708.864 -0.236736 1.93054 0
M  V30 7491 C 709.147 3.25059 1.54947 0
M  V30 7492 C 709 4.45898 0.591185 0
M  V30 7493 C 710.319 3.6203 2.50245 0
M  V30 7494 H 707.438 0.675973 0.293649 0
M  V30 7495 H 710.08 1.89849 0.0756269 0
M  V30 7496 H 708.23 3.21776 2.17698 0
M  V30 7497 H 709.902 4.61291 -0.0285352 0
M  V30 7498 H 708.145 4.33693 -0.0962343 0
M  V30 7499 H 708.816 5.40009 1.1443 0
M  V30 7500 H 711.292 3.66192 1.97593 0
M  V30 7501 H 710.168 4.60389 2.98886 0
M  V30 7502 H 710.429 2.90176 3.33542 0
M  V30 7503 N 709.488 -0.375779 1.53054 0
M  V30 7504 C 710.737 -1.11674 1.67964 0
M  V30 7505 C 711.05 -1.90755 0.432655 0
M  V30 7506 O 712.256 -2.67538 0.462109 0
M  V30 7507 C 710.712 -2.0344 2.96884 0
M  V30 7508 C 710.32 -1.29719 4.28809 0
M  V30 7509 C 712.064 -2.7759 3.2116 0
M  V30 7510 C 709.971 -2.20327 5.48826 0
M  V30 7511 H 708.901 -0.420597 0.625791 0
M  V30 7512 H 711.552 -0.378499 1.79554 0
M  V30 7513 H 709.934 -2.80953 2.79072 0
M  V30 7514 H 711.108 -0.573394 4.57219 0
M  V30 7515 H 709.423 -0.674735 4.10897 0
M  V30 7516 H 712.02 -3.4559 4.0801 0
M  V30 7517 H 712.363 -3.42399 2.36789 0
M  V30 7518 H 712.896 -2.07164 3.396 0
M  V30 7519 H 709.635 -1.60113 6.35645 0
M  V30 7520 H 709.155 -2.90585 5.2471 0
M  V30 7521 H 710.834 -2.80116 5.83219 0
M  V30 7522 N 710.966 -1.44241 -0.634997 0
M  V30 7523 C 712.212 -1.47038 -1.39669 0
M  V30 7524 C 712.545 -0.101122 -1.93937 0
M  V30 7525 O 711.82 0.880699 -1.73418 0
M  V30 7526 C 712.103 -2.52763 -2.56482 0
M  V30 7527 C 711.956 -3.99032 -2.07589 0
M  V30 7528 C 713.275 -2.55031 -3.58674 0
M  V30 7529 H 710.394 -0.53537 -0.506506 0
M  V30 7530 H 713.036 -1.75898 -0.718317 0
M  V30 7531 H 711.186 -2.28284 -3.14354 0
M  V30 7532 H 712.858 -4.3463 -1.54577 0
M  V30 7533 H 711.101 -4.10994 -1.38804 0
M  V30 7534 H 711.772 -4.68649 -2.91671 0
M  V30 7535 H 714.248 -2.76893 -3.10595 0
M  V30 7536 H 713.124 -3.30916 -4.37934 0
M  V30 7537 H 713.385 -1.59085 -4.12486 0
M  V30 7538 N 712.444 0.87505 -1.31075 0
M  V30 7539 C 713.407 1.96333 -1.18263 0
M  V30 7540 C 714.407 1.60416 -0.111106 0
M  V30 7541 O 715.597 1.7044 -0.359987 0
M  V30 7542 C 712.729 3.31036 -0.81414 0
M  V30 7543 H 713.922 2.09125 -2.14958 0
M  V30 7544 H 711.475 1.06271 -1.14614 0
M  V30 7545 H 712.21 3.23944 0.151875 0
M  V30 7546 H 711.995 3.58476 -1.58862 0
M  V30 7547 H 713.485 4.10842 -0.748249 0
M  V30 7548 N 713.922 1.13953 1.08869 0
M  V30 7549 C 714.885 0.824991 2.13838 0
M  V30 7550 C 715.885 -0.168198 1.59918 0
M  V30 7551 O 717.075 0.0595778 1.74098 0
M  V30 7552 C 714.207 0.228938 3.4013 0
M  V30 7553 H 715.4 1.75521 2.43171 0
M  V30 7554 H 712.953 0.94492 1.24503 0
M  V30 7555 H 713.688 -0.710227 3.16427 0
M  V30 7556 H 713.473 0.944243 3.80561 0
M  V30 7557 H 714.963 0.0259223 4.17592 0
M  V30 7558 N 715.4 -1.26948 0.933913 0
M  V30 7559 C 716.348 -2.2862 0.428463 0
M  V30 7560 C 717.342 -1.62144 -0.490464 0
M  V30 7561 O 718.548 -1.76167 -0.36948 0
M  V30 7562 H 714.923 -0.742363 0.120003 0
M  V30 7563 H 716.894 -2.68659 1.29865 0
M  V30 7564 C 715.643 -3.46423 -0.29774 0
M  V30 7565 H 714.966 -3.97792 0.400183 0
M  V30 7566 H 716.406 -4.19505 -0.615736 0
M  V30 7567 C 714.865 -3.01017 -1.51295 0
M  V30 7568 O 715.395 -3.05226 -2.61151 0
M  V30 7569 N 713.601 -2.56442 -1.36696 0
M  V30 7570 H 713.148 -2.53217 -0.473178 0
M  V30 7571 H 713.106 -2.26424 -2.18127 0
M  V30 7572 N 716.879 -0.700114 -1.41195 0
M  V30 7573 C 717.809 -0.0521132 -2.33442 0
M  V30 7574 C 718.79 0.76228 -1.52063 0
M  V30 7575 O 719.975 0.714336 -1.80585 0
M  V30 7576 C 717.105 0.881693 -3.35922 0
M  V30 7577 C 716.059 0.174062 -4.27646 0
M  V30 7578 C 715.385 1.22254 -5.20536 0
M  V30 7579 C 716.685 -0.962396 -5.13357 0
M  V30 7580 H 718.379 -0.822574 -2.87879 0
M  V30 7581 H 715.925 -0.397011 -1.38419 0
M  V30 7582 H 717.878 1.34429 -3.99383 0
M  V30 7583 H 716.602 1.68387 -2.79845 0
M  V30 7584 H 715.261 -0.268551 -3.65615 0
M  V30 7585 H 714.909 2.01736 -4.60773 0
M  V30 7586 H 714.609 0.754038 -5.82742 0
M  V30 7587 H 716.133 1.68555 -5.86874 0
M  V30 7588 H 717.547 -0.579875 -5.7036 0
M  V30 7589 H 715.944 -1.35828 -5.84526 0
M  V30 7590 H 717.014 -1.80003 -4.50252 0
M  V30 7591 N 718.357 1.51182 -0.445186 0
M  V30 7592 C 719.289 2.25714 0.398206 0
M  V30 7593 C 720.302 1.30032 0.979562 0
M  V30 7594 O 721.491 1.55731 0.872368 0
M  V30 7595 C 718.591 3.00348 1.56985 0
M  V30 7596 C 717.764 4.23187 1.10596 0
M  V30 7597 C 716.823 4.80334 2.14863 0
M  V30 7598 O 715.849 5.4196 1.73977 0
M  V30 7599 N 717.051 4.65053 3.47427 0
M  V30 7600 H 719.816 2.98732 -0.240629 0
M  V30 7601 H 717.377 1.59556 -0.274507 0
M  V30 7602 H 719.369 3.35464 2.26376 0
M  V30 7603 H 717.939 2.30291 2.11387 0
M  V30 7604 H 717.159 3.93476 0.238832 0
M  V30 7605 H 718.447 5.02886 0.773537 0
M  V30 7606 H 717.845 4.15984 3.83372 0
M  V30 7607 H 716.402 5.04509 4.12691 0
M  V30 7608 N 719.835 0.176821 1.56605 0
M  V30 7609 C 720.782 -0.751312 2.18229 0
M  V30 7610 C 721.752 -1.22297 1.12395 0
M  V30 7611 O 722.937 -1.29015 1.40569 0
M  V30 7612 C 720.077 -1.97291 2.83143 0
M  V30 7613 C 719.19 -1.54431 4.03454 0
M  V30 7614 C 718.325 -2.72 4.56278 0
M  V30 7615 C 717.364 -2.25657 5.68986 0
M  V30 7616 N 716.501 -3.36338 6.16296 0
M  V30 7617 H 721.341 -0.219033 2.97194 0
M  V30 7618 H 718.878 -0.0963803 1.46784 0
M  V30 7619 H 720.836 -2.68949 3.1894 0
M  V30 7620 H 719.466 -2.4788 2.06773 0
M  V30 7621 H 718.518 -0.724273 3.73441 0
M  V30 7622 H 719.83 -1.16417 4.85024 0
M  V30 7623 H 718.984 -3.51806 4.94285 0
M  V30 7624 H 717.723 -3.13277 3.73777 0
M  V30 7625 H 716.728 -1.44299 5.30526 0
M  V30 7626 H 717.953 -1.85432 6.53293 0
M  V30 7627 H 715.899 -3.7718 5.36723 0
M  V30 7628 H 715.816 -3.02435 6.9287 0
M  V30 7629 H 717.084 -4.16413 6.58954 0
M  V30 7630 N 721.313 -1.57302 -0.09688 0
M  V30 7631 C 722.562 -1.85183 -0.799388 0
M  V30 7632 C 722.875 -0.765818 -1.79985 0
M  V30 7633 O 724.081 -0.931696 -2.55013 0
M  V30 7634 C 722.537 -3.28399 -1.47249 0
M  V30 7635 C 722.145 -4.45066 -0.511888 0
M  V30 7636 C 723.889 -3.65506 -2.15883 0
M  V30 7637 C 721.796 -5.79315 -1.18948 0
M  V30 7638 H 720.726 -0.690752 -0.302287 0
M  V30 7639 H 723.377 -1.83425 -0.0523104 0
M  V30 7640 H 721.759 -3.24692 -2.26697 0
M  V30 7641 H 722.933 -4.60116 0.250962 0
M  V30 7642 H 721.248 -4.16343 0.0686576 0
M  V30 7643 H 723.845 -4.63087 -2.67309 0
M  V30 7644 H 724.188 -2.94041 -2.94696 0
M  V30 7645 H 724.721 -3.71094 -1.43298 0
M  V30 7646 H 721.46 -6.54007 -0.442198 0
M  V30 7647 H 720.98 -5.68111 -1.9238 0
M  V30 7648 H 722.659 -6.23816 -1.71646 0
M  V30 7649 N 722.791 0.367657 -1.53252 0
M  V30 7650 C 724.037 1.11216 -1.69584 0
M  V30 7651 C 724.37 1.89026 -0.445269 0
M  V30 7652 O 723.645 1.86342 0.557404 0
M  V30 7653 C 723.928 2.07308 -2.94441 0
M  V30 7654 C 723.781 1.3312 -4.2965 0
M  V30 7655 C 725.1 3.07459 -3.14892 0
M  V30 7656 H 722.219 0.40294 -0.617096 0
M  V30 7657 H 724.861 0.393201 -1.85887 0
M  V30 7658 H 723.011 2.68617 -2.80673 0
M  V30 7659 H 724.683 0.746111 -4.55226 0
M  V30 7660 H 722.926 0.633051 -4.29156 0
M  V30 7661 H 723.597 2.03443 -5.13142 0
M  V30 7662 H 726.073 2.56252 -3.27832 0
M  V30 7663 H 724.949 3.71919 -4.03693 0
M  V30 7664 H 725.21 3.77514 -2.30077 0
M  V30 7665 N 724.269 1.44576 0.627338 0
M  V30 7666 C 725.179 1.54232 1.76776 0
M  V30 7667 C 726.195 0.427782 1.6866 0
M  V30 7668 O 727.371 0.685671 1.89369 0
M  V30 7669 C 724.436 1.48738 3.13174 0
M  V30 7670 C 723.497 2.71074 3.32893 0
M  V30 7671 C 722.73 2.65832 4.62784 0
M  V30 7672 O 722.953 1.72048 5.43834 0
M  V30 7673 O 721.887 3.56742 4.84787 0
M  V30 7674 H 725.713 2.50586 1.71582 0
M  V30 7675 H 723.298 1.26865 0.789028 0
M  V30 7676 H 725.18 1.48211 3.94476 0
M  V30 7677 H 723.855 0.555292 3.18902 0
M  V30 7678 H 722.762 2.77168 2.51254 0
M  V30 7679 H 724.095 3.63342 3.32029 0
M  V30 7680 N 725.747 -0.868086 1.31537 0
M  V30 7681 C 726.657 -2.00801 1.21311 0
M  V30 7682 C 727.673 -1.73518 0.129431 0
M  V30 7683 O 728.849 -1.98378 0.347588 0
M  V30 7684 C 725.914 -3.3419 0.922935 0
M  V30 7685 C 724.975 -3.74783 2.0937 0
M  V30 7686 C 724.208 -5.01807 1.81728 0
M  V30 7687 O 724.431 -5.65404 0.753313 0
M  V30 7688 O 723.365 -5.39213 2.67457 0
M  V30 7689 H 727.191 -2.12361 2.17109 0
M  V30 7690 H 724.776 -0.996684 1.11295 0
M  V30 7691 H 726.658 -4.14174 0.777033 0
M  V30 7692 H 725.333 -3.237 -0.00500301 0
M  V30 7693 H 724.24 -2.95432 2.29501 0
M  V30 7694 H 725.573 -3.89902 3.00396 0
M  V30 7695 N 727.225 -1.14528 -1.08264 0
M  V30 7696 C 728.636 -0.925261 -1.6216 0
M  V30 7697 C 728.987 0.535587 -1.88748 0
M  V30 7698 O 728.112 1.4048 -1.64604 0
M  V30 7699 C 728.707 -1.67316 -2.94603 0
M  V30 7700 C 727.266 -1.49868 -3.45278 0
M  V30 7701 C 726.413 -1.69471 -2.19487 0
M  V30 7702 H 729.364 -1.29687 -0.914707 0
M  V30 7703 H 729.385 -1.13721 -3.63109 0
M  V30 7704 H 728.897 -2.73635 -2.75219 0
M  V30 7705 H 726.998 -0.459032 -3.69762 0
M  V30 7706 H 727.111 -2.2696 -4.21931 0
M  V30 7707 H 725.475 -1.12048 -2.2873 0
M  V30 7708 H 726.258 -2.77136 -2.0261 0
M  V30 7709 N 728.703 1.26451 -0.940633 0
M  V30 7710 C 729.635 2.25556 -0.407104 0
M  V30 7711 C 730.648 1.55888 0.469324 0
M  V30 7712 O 731.837 1.76292 0.279858 0
M  V30 7713 C 728.937 3.36109 0.434064 0
M  V30 7714 C 728.11 4.3532 -0.426082 0
M  V30 7715 C 727.169 5.25004 0.354563 0
M  V30 7716 O 726.195 5.68684 -0.242219 0
M  V30 7717 N 727.397 5.5652 1.65123 0
M  V30 7718 H 730.162 2.7197 -1.25907 0
M  V30 7719 H 727.723 1.40212 -0.809456 0
M  V30 7720 H 729.715 3.93059 0.963684 0
M  V30 7721 H 728.285 2.89194 1.18683 0
M  V30 7722 H 727.505 3.77449 -1.13692 0
M  V30 7723 H 728.793 4.986 -1.01366 0
M  V30 7724 H 728.191 5.22912 2.15822 0
M  V30 7725 H 726.748 6.16115 2.12711 0
M  V30 7726 N 730.181 0.707592 1.40822 0
M  V30 7727 C 731.406 0.251626 2.05868 0
M  V30 7728 C 731.831 -1.09503 1.5294 0
M  V30 7729 O 731.189 -1.68806 0.661385 0
M  V30 7730 C 731.237 0.23287 3.59847 0
M  V30 7731 O 730.341 -0.788477 4.04792 0
M  V30 7732 H 729.682 0.119936 0.653078 0
M  V30 7733 H 732.212 0.96583 1.80369 0
M  V30 7734 H 732.222 0.0678204 4.07944 0
M  V30 7735 H 730.897 1.21565 3.97737 0
M  V30 7736 H 729.474 -0.591802 3.68174 0
M  V30 7737 N 731.66 -1.50943 0.453197 0
M  V30 7738 C 732.608 -2.29728 -0.364419 0
M  V30 7739 C 733.602 -1.36246 -1.00664 0
M  V30 7740 O 734.808 -1.53518 -0.939794 0
M  V30 7741 H 731.183 -0.739536 -0.136347 0
M  V30 7742 H 733.154 -2.96672 0.320696 0
M  V30 7743 C 731.903 -3.1629 -1.44415 0
M  V30 7744 H 731.226 -3.88119 -0.959343 0
M  V30 7745 H 732.666 -3.74444 -1.98917 0
M  V30 7746 C 731.125 -2.32702 -2.43622 0
M  V30 7747 O 731.655 -1.99763 -3.48508 0
M  V30 7748 N 729.861 -1.95621 -2.14897 0
M  V30 7749 H 729.408 -2.22607 -1.29629 0
M  V30 7750 H 729.366 -1.39993 -2.81513 0
M  V30 7751 N 733.138 -0.185124 -1.56509 0
M  V30 7752 C 734.554 0.170865 -1.58683 0
M  V30 7753 C 734.754 1.61799 -1.20098 0
M  V30 7754 O 733.81 2.35181 -0.919038 0
M  V30 7755 C 735.123 -0.122459 -3.00451 0
M  V30 7756 C 736.671 -0.0617699 -3.12939 0
M  V30 7757 C 737.146 -0.328269 -4.56822 0
M  V30 7758 N 738.637 -0.276533 -4.62374 0
M  V30 7759 C 739.372 -0.456722 -5.71578 0
M  V30 7760 N 738.868 -0.69672 -6.89288 0
M  V30 7761 N 740.661 -0.391669 -5.60734 0
M  V30 7762 H 732.812 -1.12956 -1.79874 0
M  V30 7763 H 735.075 -0.45011 -0.834329 0
M  V30 7764 H 734.781 -1.12546 -3.33206 0
M  V30 7765 H 734.655 0.579578 -3.72721 0
M  V30 7766 H 737.042 0.931826 -2.80002 0
M  V30 7767 H 737.123 -0.796732 -2.43076 0
M  V30 7768 H 736.767 -1.31914 -4.9047 0
M  V30 7769 H 736.697 0.427465 -5.24862 0
M  V30 7770 H 739.188 -0.0972458 -3.77775 0
M  V30 7771 H 739.501 -0.823291 -7.68402 0
M  V30 7772 H 737.846 -0.733497 -6.91119 0
M  V30 7773 H 741.037 -0.204663 -4.67652 0
M  V30 7774 H 741.21 -0.535518 -6.45783 0
M  V30 7775 N 734.616 1.57351 0.0885366 0
M  V30 7776 C 735.841 1.91011 0.80805 0
M  V30 7777 C 736.266 0.780009 1.71165 0
M  V30 7778 O 735.624 -0.268083 1.79307 0
M  V30 7779 C 735.672 3.23562 1.59185 0
M  V30 7780 O 734.776 3.11615 2.7013 0
M  V30 7781 H 734.117 0.625943 0.221565 0
M  V30 7782 H 736.647 2.04507 0.0617954 0
M  V30 7783 H 736.657 3.5703 1.97468 0
M  V30 7784 H 735.332 4.05398 0.928741 0
M  V30 7785 H 733.909 2.89673 2.34827 0
M  V30 7786 N 736.094 -0.359525 1.53444 0
M  V30 7787 C 737.34 -1.10315 1.70172 0
M  V30 7788 C 737.673 -1.88788 0.455287 0
M  V30 7789 O 736.948 -1.86635 -0.547514 0
M  V30 7790 C 737.231 -2.05744 2.95536 0
M  V30 7791 C 737.084 -1.3084 4.3035 0
M  V30 7792 C 738.403 -3.05784 3.16518 0
M  V30 7793 H 735.522 -0.399662 0.619225 0
M  V30 7794 H 738.164 -0.383338 1.86093 0
M  V30 7795 H 736.314 -2.67125 2.82093 0
M  V30 7796 H 737.986 -0.721959 4.55615 0
M  V30 7797 H 736.229 -0.610283 4.29486 0
M  V30 7798 H 736.9 -2.00718 5.14214 0
M  V30 7799 H 739.376 -2.5451 3.29187 0
M  V30 7800 H 738.252 -3.69772 4.05659 0
M  V30 7801 H 738.513 -3.76289 2.32076 0
M  V30 7802 N 737.572 -1.44907 -0.619662 0
M  V30 7803 C 738.8 -1.51795 -1.40591 0
M  V30 7804 C 739.215 -0.146553 -1.8823 0
M  V30 7805 O 738.572 0.849698 -1.61513 0
M  V30 7806 C 738.623 -2.49229 -2.61853 0
M  V30 7807 O 738.344 -3.81039 -2.16197 0
M  V30 7808 C 739.845 -2.65696 -3.54853 0
M  V30 7809 H 737.065 -0.514463 -0.430777 0
M  V30 7810 H 739.609 -1.8998 -0.756813 0
M  V30 7811 H 737.764 -2.14149 -3.2283 0
M  V30 7812 H 738.178 -4.33747 -2.94896 0
M  V30 7813 H 739.652 -3.37874 -4.36515 0
M  V30 7814 H 740.129 -1.71316 -4.0441 0
M  V30 7815 H 740.735 -3.01724 -2.99737 0
M  V30 7816 N 739.05 0.861098 -1.31996 0
M  V30 7817 C 740.297 1.61481 -1.22188 0
M  V30 7818 C 740.625 1.93276 0.217853 0
M  V30 7819 O 739.88 1.56942 1.16909 0
M  V30 7820 C 740.179 2.94822 -2.02027 0
M  V30 7821 C 739.845 2.82483 -3.51446 0
M  V30 7822 C 738.507 2.78825 -3.92186 0
M  V30 7823 C 740.859 2.68878 -4.46491 0
M  V30 7824 C 738.187 2.59433 -5.26224 0
M  V30 7825 C 740.539 2.51022 -5.80664 0
M  V30 7826 C 739.203 2.45753 -6.20614 0
M  V30 7827 H 738.473 0.590902 -0.447119 0
M  V30 7828 H 741.12 0.999376 -1.63355 0
M  V30 7829 H 739.425 3.6045 -1.53569 0
M  V30 7830 H 741.122 3.52149 -1.91812 0
M  V30 7831 H 737.712 2.86152 -3.19085 0
M  V30 7832 H 741.896 2.70754 -4.1594 0
M  V30 7833 H 737.152 2.53784 -5.5624 0
M  V30 7834 H 741.326 2.39473 -6.53931 0
M  V30 7835 H 738.953 2.30485 -7.24417 0
M  V30 7836 N 740.528 1.15101 1.07655 0
M  V30 7837 C 741.475 0.844958 2.14777 0
M  V30 7838 C 742.445 -0.200798 1.64882 0
M  V30 7839 O 743.63 -0.0690278 1.90675 0
M  V30 7840 C 740.77 0.337018 3.4345 0
M  V30 7841 C 739.883 1.44398 4.07153 0
M  V30 7842 C 739.018 0.892487 5.23649 0
M  V30 7843 C 738.057 1.9766 5.79307 0
M  V30 7844 N 737.194 1.44171 6.87138 0
M  V30 7845 H 742.034 1.76242 2.40297 0
M  V30 7846 H 739.571 0.879435 1.17917 0
M  V30 7847 H 741.529 0.024256 4.17193 0
M  V30 7848 H 740.159 -0.543531 3.18191 0
M  V30 7849 H 739.211 1.87299 3.31094 0
M  V30 7850 H 740.523 2.26262 4.4453 0
M  V30 7851 H 739.677 0.532083 6.04362 0
M  V30 7852 H 738.416 0.0429854 4.87681 0
M  V30 7853 H 737.421 2.34586 4.97242 0
M  V30 7854 H 738.646 2.82982 6.17331 0
M  V30 7855 H 736.592 0.614518 6.53115 0
M  V30 7856 H 736.509 2.19665 7.23383 0
M  V30 7857 H 737.777 1.10945 7.71564 0
M  V30 7858 N 742.006 -1.2595 0.947325 0
M  V30 7859 C 742.936 -2.28521 0.479604 0
M  V30 7860 C 743.917 -1.63469 -0.470293 0
M  V30 7861 O 745.102 -1.90627 -0.370824 0
M  V30 7862 C 742.232 -3.46397 -0.250289 0
M  V30 7863 C 741.186 -4.23578 0.613643 0
M  V30 7864 C 740.512 -5.34131 -0.246568 0
M  V30 7865 C 741.812 -4.86979 1.88809 0
M  V30 7866 H 743.506 -2.67895 1.33688 0
M  V30 7867 H 741.052 -1.28783 0.644274 0
M  V30 7868 H 743.005 -4.17269 -0.588576 0
M  V30 7869 H 741.729 -3.05993 -1.14175 0
M  V30 7870 H 740.388 -3.54478 0.93491 0
M  V30 7871 H 740.036 -4.89968 -1.13756 0
M  V30 7872 H 739.736 -5.86683 0.328123 0
M  V30 7873 H 741.26 -6.07839 -0.579986 0
M  V30 7874 H 742.674 -5.50034 1.61666 0
M  V30 7875 H 741.071 -5.49675 2.40784 0
M  V30 7876 H 742.141 -4.09575 2.5957 0
M  V30 7877 N 743.484 -0.715051 -1.40445 0
M  V30 7878 C 744.447 -0.0708726 -2.2909 0
M  V30 7879 C 745.447 0.687926 -1.45342 0
M  V30 7880 O 746.637 0.519908 -1.66261 0
M  V30 7881 C 743.769 0.909528 -3.28543 0
M  V30 7882 H 744.962 -0.851611 -2.87555 0
M  V30 7883 H 742.515 -0.479674 -1.48758 0
M  V30 7884 H 743.25 1.71734 -2.75096 0
M  V30 7885 H 743.035 0.368318 -3.90366 0
M  V30 7886 H 744.525 1.35744 -3.94922 0
M  V30 7887 N 744.962 1.50701 -0.461195 0
M  V30 7888 C 746.187 2.07171 0.0974773 0
M  V30 7889 C 746.612 1.32391 1.3362 0
M  V30 7890 O 745.97 0.368676 1.77512 0
M  V30 7891 C 746.018 3.58651 0.374409 0
M  V30 7892 O 745.122 3.85816 1.4567 0
M  V30 7893 H 744.463 0.663944 -0.00862047 0
M  V30 7894 H 746.993 1.94021 -0.649394 0
M  V30 7895 H 747.003 4.03295 0.617843 0
M  V30 7896 H 745.678 4.12498 -0.530829 0
M  V30 7897 H 744.255 3.53018 1.20136 0
M  V30 7898 N 746.441 0.193421 1.56409 0
M  V30 7899 C 747.689 -0.444908 1.97142 0
M  V30 7900 C 748.01 -1.62268 1.08139 0
M  V30 7901 O 747.28 -1.95307 0.152326 0
M  V30 7902 H 745.86 -0.16736 0.728011 0
M  V30 7903 H 748.522 0.279763 1.92882 0
M  V30 7904 H 747.618 -0.790159 3.01932 0
M  V30 7905 N 747.919 -1.57396 -0.0801906 0
M  V30 7906 C 749.165 -1.87113 -0.782083 0
M  V30 7907 C 749.498 -0.78458 -1.77646 0
M  V30 7908 O 748.773 0.205993 -1.93406 0
M  V30 7909 C 749.056 -3.27483 -1.49756 0
M  V30 7910 C 748.909 -4.46782 -0.520171 0
M  V30 7911 C 750.228 -3.65965 -2.44454 0
M  V30 7912 H 747.347 -0.680559 -0.282858 0
M  V30 7913 H 749.989 -1.89946 -0.0454139 0
M  V30 7914 H 748.139 -3.25199 -2.12551 0
M  V30 7915 H 749.811 -4.61187 0.101919 0
M  V30 7916 H 748.054 -4.33485 0.165219 0
M  V30 7917 H 748.725 -5.41761 -1.05824 0
M  V30 7918 H 751.201 -3.69289 -1.91742 0
M  V30 7919 H 750.077 -4.65086 -2.91524 0
M  V30 7920 H 750.338 -2.95446 -3.28883 0
M  V30 7921 N 749.397 0.351382 -1.53633 0
M  V30 7922 C 750.307 1.45471 -1.84052 0
M  V30 7923 C 751.323 1.57945 -0.730015 0
M  V30 7924 O 752.499 1.73571 -1.02153 0
M  V30 7925 C 749.564 2.80562 -2.03681 0
M  V30 7926 C 748.625 2.77497 -3.27558 0
M  V30 7927 C 747.858 4.06144 -3.46241 0
M  V30 7928 O 748.081 5.03028 -2.68922 0
M  V30 7929 O 747.015 4.11092 -4.39645 0
M  V30 7930 H 750.841 1.22684 -2.77817 0
M  V30 7931 H 748.426 0.542827 -1.3919 0
M  V30 7932 H 750.308 3.6058 -2.18082 0
M  V30 7933 H 748.983 3.03296 -1.13106 0
M  V30 7934 H 747.89 1.96126 -3.18568 0
M  V30 7935 H 749.223 2.59716 -4.18101 0
M  V30 7936 N 750.875 1.45233 0.611969 0
M  V30 7937 C 752.123 1.48727 1.36838 0
M  V30 7938 C 752.444 0.128616 1.94575 0
M  V30 7939 O 751.714 -0.84149 1.76906 0
M  V30 7940 H 750.294 0.547695 0.507976 0
M  V30 7941 H 752.956 1.81156 0.718925 0
M  V30 7942 H 752.052 2.2236 2.19003 0
M  V30 7943 N 752.353 -0.854086 1.3245 0
M  V30 7944 C 753.578 -1.64597 1.26185 0
M  V30 7945 C 754.003 -1.87357 -0.167074 0
M  V30 7946 O 753.361 -1.42675 -1.11864 0
M  V30 7947 C 753.409 -2.98213 2.02734 0
M  V30 7948 O 752.513 -3.88784 1.37554 0
M  V30 7949 H 751.854 -0.50179 0.434859 0
M  V30 7950 H 754.384 -1.06372 1.74775 0
M  V30 7951 H 754.394 -3.4803 2.1293 0
M  V30 7952 H 753.069 -2.80969 3.06642 0
M  V30 7953 H 751.646 -3.4725 1.3591 0
M  V30 7954 N 753.831 -1.1567 -1.07043 0
M  V30 7955 C 755.108 -0.843948 -1.76456 0
M  V30 7956 C 755.488 0.659806 -2.00524 0
M  V30 7957 O 754.836 1.60518 -1.62623 0
M  V30 7958 C 755.046 -1.65822 -3.0709 0
M  V30 7959 C 756.394 -1.8664 -3.8138 0
M  V30 7960 O 757.418 -1.62624 -3.1691 0
M  V30 7961 O 756.277 -2.26884 -4.97178 0
M  V30 7962 H 753.371 -0.310677 -0.766426 0
M  V30 7963 H 755.917 -1.26266 -1.1338 0
M  V30 7964 H 754.689 -2.67902 -2.85209 0
M  V30 7965 H 754.312 -1.23605 -3.77899 0
M  V30 7966 N 755.309 1.25446 -0.953992 0
M  V30 7967 C 756.558 1.92441 -0.604101 0
M  V30 7968 C 756.871 1.75543 0.862796 0
M  V30 7969 O 758.077 2.37106 1.32262 0
M  V30 7970 C 756.533 3.44854 -1.02974 0
M  V30 7971 C 756.141 3.70464 -2.51914 0
M  V30 7972 C 757.885 4.1778 -0.752352 0
M  V30 7973 C 755.792 5.1638 -2.88281 0
M  V30 7974 H 754.722 0.720508 -0.222227 0
M  V30 7975 H 757.373 1.42318 -1.15836 0
M  V30 7976 H 755.755 3.93935 -0.403904 0
M  V30 7977 H 756.929 3.32038 -3.19511 0
M  V30 7978 H 755.244 3.10797 -2.77117 0
M  V30 7979 H 757.841 5.25261 -1.00024 0
M  V30 7980 H 758.184 4.15135 0.311212 0
M  V30 7981 H 758.717 3.74605 -1.33851 0
M  V30 7982 H 755.456 5.24135 -3.93653 0
M  V30 7983 H 754.976 5.55855 -2.25357 0
M  V30 7984 H 756.655 5.84497 -2.77439 0
M  V30 7985 N 756.787 0.722489 1.40064 0
M  V30 7986 C 758.198 0.336507 1.83642 0
M  V30 7987 C 758.549 -1.13002 1.6039 0
M  V30 7988 O 757.674 -1.87036 1.08842 0
M  V30 7989 C 758.269 0.603985 3.33373 0
M  V30 7990 C 756.828 0.271637 3.75419 0
M  V30 7991 C 755.975 0.872898 2.63203 0
M  V30 7992 H 758.926 0.921108 1.29233 0
M  V30 7993 H 758.947 -0.128471 3.80283 0
M  V30 7994 H 758.459 1.67141 3.50265 0
M  V30 7995 H 756.56 -0.790455 3.64119 0
M  V30 7996 H 756.673 0.745457 4.73265 0
M  V30 7997 H 755.037 0.300431 2.52922 0
M  V30 7998 H 755.82 1.94473 2.82905 0
M  V30 7999 N 758.265 -1.50454 0.469181 0
M  V30 8000 C 759.542 -1.9504 -0.147955 0
M  V30 8001 C 759.922 -1.40946 -1.57154 0
M  V30 8002 O 759.27 -0.609663 -2.20217 0
M  V30 8003 C 759.48 -3.48875 -0.0932198 0
M  V30 8004 C 760.828 -4.23655 -0.283056 0
M  V30 8005 O 761.852 -3.55795 -0.169892 0
M  V30 8006 O 760.711 -5.44102 -0.511396 0
M  V30 8007 H 757.805 -0.819283 -0.11271 0
M  V30 8008 H 760.351 -1.6123 0.529446 0
M  V30 8009 H 759.123 -3.80791 0.900784 0
M  V30 8010 H 758.746 -3.89217 -0.812161 0
M  V30 8011 N 759.743 -0.201713 -1.56304 0
M  V30 8012 C 761.02 0.483273 -1.89536 0
M  V30 8013 C 761.4 1.79176 -1.11621 0
M  V30 8014 O 760.748 2.27445 -0.219339 0
M  V30 8015 C 760.958 0.695604 -3.41998 0
M  V30 8016 C 762.306 1.012 -4.12364 0
M  V30 8017 O 763.33 0.783094 -3.47485 0
M  V30 8018 O 762.189 1.44534 -5.27041 0
M  V30 8019 H 759.283 0.252801 -0.787414 0
M  V30 8020 H 761.829 -0.24242 -1.6796 0
M  V30 8021 H 760.601 -0.228165 -3.90634 0
M  V30 8022 H 760.224 1.47351 -3.69288 0
M  V30 8023 N 761.222 1.57436 0.0718424 0
M  V30 8024 C 762.47 1.86878 0.769484 0
M  V30 8025 C 762.791 0.7937 1.78116 0
M  V30 8026 O 762.061 -0.177642 1.95093 0
M  V30 8027 H 760.641 0.689593 0.287177 0
M  V30 8028 H 763.303 1.94841 0.0479427 0
M  V30 8029 H 762.399 2.84387 1.28572 0
M  V30 8030 N 762.7 -0.34323 1.53817 0
M  V30 8031 C 763.647 -1.42153 1.81827 0
M  V30 8032 C 764.617 -1.52251 0.663996 0
M  V30 8033 O 765.802 -1.67784 0.908461 0
M  V30 8034 C 762.942 -2.78799 2.03384 0
M  V30 8035 C 762.055 -2.7749 3.31094 0
M  V30 8036 C 761.19 -4.05856 3.42717 0
M  V30 8037 C 760.229 -3.98776 4.64375 0
M  V30 8038 N 759.366 -5.18833 4.73029 0
M  V30 8039 H 764.206 -1.17567 2.73829 0
M  V30 8040 H 761.743 -0.569506 1.35628 0
M  V30 8041 H 763.701 -3.58211 2.13872 0
M  V30 8042 H 762.331 -3.01736 1.14696 0
M  V30 8043 H 761.383 -1.90182 3.29446 0
M  V30 8044 H 762.695 -2.68137 4.206 0
M  V30 8045 H 761.849 -4.93691 3.52638 0
M  V30 8046 H 760.588 -4.1799 2.51267 0
M  V30 8047 H 759.593 -3.09325 4.5453 0
M  V30 8048 H 760.818 -3.88224 5.57189 0
M  V30 8049 H 758.764 -5.31511 3.84489 0
M  V30 8050 H 758.681 -5.11737 5.56472 0
M  V30 8051 H 759.949 -6.08439 4.87261 0
M  V30 8052 N 764.178 -1.45556 -0.604258 0
M  V30 8053 C 765.108 -1.57327 -1.72541 0
M  V30 8054 C 766.089 -0.424637 -1.64714 0
M  V30 8055 O 767.274 -0.648196 -1.83063 0
M  V30 8056 C 764.404 -1.54279 -3.11152 0
M  V30 8057 C 763.358 -2.67893 -3.33792 0
M  V30 8058 C 762.684 -2.499 -4.72709 0
M  V30 8059 C 763.984 -4.0988 -3.23722 0
M  V30 8060 H 765.678 -2.51175 -1.62947 0
M  V30 8061 H 763.224 -1.20884 -0.782504 0
M  V30 8062 H 765.177 -1.6111 -3.89386 0
M  V30 8063 H 763.901 -0.569627 -3.21594 0
M  V30 8064 H 762.56 -2.60495 -2.57949 0
M  V30 8065 H 762.208 -1.50715 -4.79889 0
M  V30 8066 H 761.908 -3.26091 -4.88813 0
M  V30 8067 H 763.432 -2.5859 -5.5314 0
M  V30 8068 H 764.846 -4.18503 -3.91826 0
M  V30 8069 H 763.243 -4.86487 -3.51355 0
M  V30 8070 H 764.313 -4.31553 -2.21111 0
M  V30 8071 N 765.656 0.84705 -1.32902 0
M  V30 8072 C 766.905 1.59667 -1.23245 0
M  V30 8073 C 767.218 1.94551 0.202349 0
M  V30 8074 O 768.424 2.68218 0.420847 0
M  V30 8075 C 766.88 2.8795 -2.15901 0
M  V30 8076 C 766.488 2.60461 -3.64505 0
M  V30 8077 C 768.232 3.65968 -2.15098 0
M  V30 8078 C 766.139 3.84791 -4.49099 0
M  V30 8079 H 765.069 0.599167 -0.457728 0
M  V30 8080 H 767.72 0.934662 -1.57912 0
M  V30 8081 H 766.102 3.55648 -1.74157 0
M  V30 8082 H 767.276 2.01026 -4.14639 0
M  V30 8083 H 765.591 1.9576 -3.67515 0
M  V30 8084 H 768.188 4.58241 -2.75534 0
M  V30 8085 H 768.531 4.00275 -1.14392 0
M  V30 8086 H 769.064 3.05184 -2.55162 0
M  V30 8087 H 765.803 3.55621 -5.50649 0
M  V30 8088 H 765.323 4.43594 -4.03713 0
M  V30 8089 H 767.002 4.52454 -4.62487 0
M  V30 8090 N 767.134 1.16236 1.06428 0
M  V30 8091 C 768.382 0.941171 1.78847 0
M  V30 8092 C 768.703 -0.53248 1.87589 0
M  V30 8093 O 767.973 -1.38686 1.38358 0
M  V30 8094 H 766.553 0.345228 0.66244 0
M  V30 8095 H 769.215 1.46479 1.28569 0
M  V30 8096 H 768.311 1.35871 2.80972 0
M  V30 8097 N 768.612 -1.24939 0.960631 0
M  V30 8098 C 769.859 -1.92818 0.618663 0
M  V30 8099 C 770.187 -1.75177 -0.845173 0
M  V30 8100 O 769.442 -1.09412 -1.62258 0
M  V30 8101 C 769.741 -3.45066 0.930809 0
M  V30 8102 C 769.407 -3.82869 2.38164 0
M  V30 8103 C 768.069 -3.92899 2.7782 0
M  V30 8104 C 770.421 -4.01483 3.32356 0
M  V30 8105 C 767.749 -4.18955 4.10723 0
M  V30 8106 C 770.101 -4.29033 4.6488 0
M  V30 8107 C 768.765 -4.37282 5.04322 0
M  V30 8108 H 768.035 -0.705571 0.226385 0
M  V30 8109 H 770.682 -1.48365 1.21079 0
M  V30 8110 H 768.987 -3.9096 0.256355 0
M  V30 8111 H 770.684 -3.95783 0.644712 0
M  V30 8112 H 767.274 -3.75622 2.06413 0
M  V30 8113 H 771.458 -3.93143 3.02907 0
M  V30 8114 H 766.714 -4.23558 4.40918 0
M  V30 8115 H 770.888 -4.42381 5.3784 0
M  V30 8116 H 768.515 -4.57225 6.0733 0
M  V30 8117 N 770.09 -0.729906 -1.39679 0
M  V30 8118 C 771.053 -0.0951668 -2.29002 0
M  V30 8119 C 772.053 0.672471 -1.46063 0
M  V30 8120 O 773.243 0.502245 -1.66803 0
M  V30 8121 C 770.375 0.874631 -3.29489 0
M  V30 8122 H 771.568 -0.882062 -2.86635 0
M  V30 8123 H 769.121 -0.495424 -1.4824 0
M  V30 8124 H 769.856 1.68807 -2.76902 0
M  V30 8125 H 769.641 0.326893 -3.90735 0
M  V30 8126 H 771.131 1.31548 -3.96339 0
M  V30 8127 N 771.568 1.50203 -0.477153 0
M  V30 8128 C 772.5 2.26508 0.350239 0
M  V30 8129 C 773.513 1.32081 0.95176 0
M  V30 8130 O 774.702 1.57546 0.839139 0
M  V30 8131 C 771.802 3.0361 1.50579 0
M  V30 8132 C 770.975 4.25438 1.01595 0
M  V30 8133 C 770.034 4.84783 2.04626 0
M  V30 8134 O 769.06 5.45528 1.62442 0
M  V30 8135 N 770.262 4.72318 3.37485 0
M  V30 8136 H 773.027 2.98155 -0.30394 0
M  V30 8137 H 770.588 1.58938 -0.308289 0
M  V30 8138 H 772.58 3.4019 2.1921 0
M  V30 8139 H 771.15 2.34724 2.06455 0
M  V30 8140 H 770.37 3.93894 0.155316 0
M  V30 8141 H 771.658 5.04413 0.666694 0
M  V30 8142 H 771.056 4.24022 3.74462 0
M  V30 8143 H 769.613 5.13149 4.01897 0
M  V30 8144 N 773.046 0.209999 1.56195 0
M  V30 8145 C 773.976 -0.699746 2.22769 0
M  V30 8146 C 774.957 -1.20993 1.1956 0
M  V30 8147 O 776.142 -1.25605 1.48112 0
M  V30 8148 C 773.272 -1.91302 2.89863 0
M  V30 8149 C 772.226 -1.53715 3.99444 0
M  V30 8150 C 771.552 -2.82826 4.53777 0
M  V30 8151 C 772.852 -0.735836 5.17091 0
M  V30 8152 H 774.546 -0.144716 2.9905 0
M  V30 8153 H 772.092 -0.0681645 1.43839 0
M  V30 8154 H 774.045 -2.5548 3.35124 0
M  V30 8155 H 772.769 -2.49283 2.11011 0
M  V30 8156 H 771.428 -0.918892 3.54897 0
M  V30 8157 H 771.076 -3.38927 3.71669 0
M  V30 8158 H 770.776 -2.58415 5.27727 0
M  V30 8159 H 772.3 -3.47966 5.01749 0
M  V30 8160 H 773.714 -1.28105 5.58804 0
M  V30 8161 H 772.111 -0.589272 5.972 0
M  V30 8162 H 773.181 0.260004 4.84202 0
M  V30 8163 N 774.524 -1.57472 -0.0634922 0
M  V30 8164 C 775.749 -1.92273 -0.77756 0
M  V30 8165 C 776.174 -0.807141 -1.69902 0
M  V30 8166 O 775.532 0.239523 -1.79711 0
M  V30 8167 C 775.58 -3.26054 -1.54017 0
M  V30 8168 O 774.684 -3.15873 -2.65138 0
M  V30 8169 H 774.025 -0.629389 -0.211579 0
M  V30 8170 H 776.555 -2.04579 -0.0292523 0
M  V30 8171 H 776.565 -3.60127 -1.91763 0
M  V30 8172 H 775.24 -4.06824 -0.864128 0
M  V30 8173 H 773.817 -2.93373 -2.30189 0
M  V30 8174 N 776.003 0.335068 -1.53997 0
M  V30 8175 C 777.252 1.07182 -1.70865 0
M  V30 8176 C 777.565 1.89541 -0.483078 0
M  V30 8177 O 778.771 2.66219 -0.532879 0
M  V30 8178 C 777.227 1.95497 -3.02174 0
M  V30 8179 C 776.835 1.18304 -4.32097 0
M  V30 8180 C 778.579 2.68978 -3.28407 0
M  V30 8181 C 776.486 2.05699 -5.54474 0
M  V30 8182 H 775.416 0.403857 -0.636722 0
M  V30 8183 H 778.067 0.33076 -1.80494 0
M  V30 8184 H 776.449 2.73456 -2.86423 0
M  V30 8185 H 777.623 0.451969 -4.58578 0
M  V30 8186 H 775.938 0.565556 -4.12541 0
M  V30 8187 H 778.535 3.34651 -4.17029 0
M  V30 8188 H 778.878 3.36 -2.45784 0
M  V30 8189 H 779.411 1.98087 -3.44973 0
M  V30 8190 H 776.15 1.43204 -6.39666 0
M  V30 8191 H 775.67 2.76572 -5.32229 0
M  V30 8192 H 777.349 2.64554 -5.90441 0
M  V30 8193 N 777.481 1.45874 0.596531 0
M  V30 8194 C 778.706 1.54247 1.38646 0
M  V30 8195 C 779.131 0.179571 1.87241 0
M  V30 8196 O 778.489 -0.837831 1.6078 0
M  V30 8197 C 778.537 2.54015 2.55946 0
M  V30 8198 O 777.641 2.06561 3.5694 0
M  V30 8199 H 776.982 0.519555 0.413471 0
M  V30 8200 H 779.512 1.91327 0.724936 0
M  V30 8201 H 779.522 2.73179 3.03047 0
M  V30 8202 H 778.197 3.52994 2.19928 0
M  V30 8203 H 776.774 1.97324 3.16414 0
M  V30 8204 O 778.998 -0.740596 1.43518 0
M  V30 8205 H 779.689 -1.39004 1.34898 0
M  V30 END ATOM
M  V30 BEGIN BOND
M  V30 END BOND
M  V30 END CTAB
M  END
$$$$
