drugbank_target|O95750 Fibroblast growth factor 19 (DB01109)
 OpenBabel12092121033D

  0  0  0     0  0            999 V3000
M  V30 BEGIN CTAB
M  V30 COUNTS 3354 3398 0 0 0
M  V30 BEGIN ATOM
M  V30 1 H -0.908 1.98254 -0.117106 0
M  V30 2 N 0 1.576 0 0
M  V30 3 C 0.933 2.03868 1.02534 0
M  V30 4 C 1.911 0.928543 1.3348 0
M  V30 5 O 3.095 1.19667 1.45644 0
M  V30 6 C 0.222 2.43627 2.35294 0
M  V30 7 C -0.732 3.65373 2.2001 0
M  V30 8 S 0.101 5.13292 1.52614 0
M  V30 9 C 1.257 5.56322 2.86805 0
M  V30 10 H 1.49 2.90518 0.631377 0
M  V30 11 H -0.977 1.52953 0.210867 0
M  V30 12 H 0.981 2.67203 3.11629 0
M  V30 13 H -0.358 1.57376 2.7183 0
M  V30 14 H -1.165 3.90944 3.18086 0
M  V30 15 H -1.563 3.418 1.51819 0
M  V30 16 H 0.729 5.58782 3.83104 0
M  V30 17 H 1.672 6.56266 2.65933 0
M  V30 18 H 2.08 4.83886 2.90714 0
M  V30 19 N 1.4781 -0.272755 1.55222 0
M  V30 20 C 2.8941 -0.619959 1.47067 0
M  V30 21 C 3.0941 -1.895 0.684978 0
M  V30 22 O 2.1501 -2.51675 0.203931 0
M  V30 23 C 3.4631 -0.746693 2.91282 0
M  V30 24 C 5.0111 -0.840731 3.01497 0
M  V30 25 C 5.4861 -0.99924 4.46967 0
M  V30 26 N 6.9771 -1.06476 4.50796 0
M  V30 27 C 7.7121 -1.20621 5.6057 0
M  V30 28 N 7.2081 -1.31483 6.80209 0
M  V30 29 N 9.0011 -1.23733 5.48312 0
M  V30 30 H 1.1521 0.564606 2.04758 0
M  V30 31 H 3.4151 0.191177 0.928523 0
M  V30 32 H 3.1211 0.119753 3.51496 0
M  V30 33 H 2.9951 -1.6269 3.40311 0
M  V30 34 H 5.3821 -1.69764 2.41379 0
M  V30 35 H 5.4631 0.0640874 2.5572 0
M  V30 36 H 5.1071 -0.146984 5.07687 0
M  V30 37 H 5.0371 -1.91871 4.90401 0
M  V30 38 H 7.5281 -0.993196 3.64615 0
M  V30 39 H 7.8411 -1.42111 7.59621 0
M  V30 40 H 6.1861 -1.28487 6.8302 0
M  V30 41 H 9.3771 -1.14877 4.53785 0
M  V30 42 H 9.5501 -1.34412 6.33906 0
M  V30 43 N 2.9562 -1.48159 -0.537278 0
M  V30 44 C 4.1812 -1.59707 -1.32319 0
M  V30 45 C 4.6062 -0.254859 -1.86365 0
M  V30 46 O 3.9642 0.772378 -1.64024 0
M  V30 47 C 4.0122 -2.6412 -2.45505 0
M  V30 48 O 3.1162 -2.20774 -3.48328 0
M  V30 49 H 2.4572 -0.535791 -0.392204 0
M  V30 50 H 4.9872 -1.94092 -0.647268 0
M  V30 51 H 4.9972 -2.85166 -2.91795 0
M  V30 52 H 3.6722 -3.61567 -2.05528 0
M  V30 53 H 2.2492 -2.09911 -3.08207 0
M  V30 54 N 4.4343 0.785586 -1.36625 0
M  V30 55 C 5.6823 1.54057 -1.30808 0
M  V30 56 C 6.0033 1.94683 0.111157 0
M  V30 57 O 5.2733 1.65241 1.05224 0
M  V30 58 H 3.8533 0.571354 -0.481211 0
M  V30 59 H 6.5153 0.935821 -1.70963 0
M  V30 60 H 5.6113 2.44637 -1.93801 0
M  V30 61 N 5.9124 1.20967 1.01018 0
M  V30 62 C 7.1524 1.03511 1.76252 0
M  V30 63 C 7.5164 -0.42458 1.87247 0
M  V30 64 O 8.7174 -0.719508 2.58991 0
M  V30 65 C 6.9884 1.70726 3.13986 0
M  V30 66 S 8.5474 1.68458 4.05176 0
M  V30 67 H 5.3654 0.371037 0.606508 0
M  V30 68 H 7.9674 1.53628 1.20908 0
M  V30 69 H 6.6714 2.76128 3.03614 0
M  V30 70 H 6.2024 1.20767 3.74405 0
M  V30 71 H 8.2174 0.721987 4.90919 0
M  V30 72 N 7.3905 -1.2043 1.01659 0
M  V30 73 C 8.6365 -1.90079 0.706963 0
M  V30 74 C 8.9695 -1.78648 -0.761474 0
M  V30 75 O 8.2445 -1.17069 -1.55323 0
M  V30 76 C 8.5275 -3.41469 1.14327 0
M  V30 77 C 8.3805 -3.61833 2.67201 0
M  V30 78 C 9.6995 -4.34261 0.714529 0
M  V30 79 H 6.8185 -0.690254 0.2583 0
M  V30 80 H 9.4605 -1.41826 1.26433 0
M  V30 81 H 7.6105 -3.82696 0.669056 0
M  V30 82 H 9.2825 -3.2986 3.22475 0
M  V30 83 H 7.5255 -3.05304 3.08175 0
M  V30 84 H 8.1965 -4.67955 2.92783 0
M  V30 85 H 10.6725 -4.00682 1.12221 0
M  V30 86 H 9.5485 -5.38806 1.04784 0
M  V30 87 H 9.8095 -4.40431 -0.383799 0
M  V30 88 N 8.8686 -0.792821 -1.36206 0
M  V30 89 C 10.1146 -0.36733 -1.99446 0
M  V30 90 C 10.4476 1.05917 -1.62774 0
M  V30 91 O 9.7226 1.7324 -0.88421 0
M  V30 92 C 10.0056 -0.535044 -3.56103 0
M  V30 93 C 9.8586 -2.00548 -4.02617 0
M  V30 94 C 11.1776 0.0478191 -4.40074 0
M  V30 95 H 8.2966 -0.134941 -0.724541 0
M  V30 96 H 10.9386 -0.999794 -1.61568 0
M  V30 97 H 9.0886 0.00336329 -3.885 0
M  V30 98 H 10.7606 -2.60521 -3.80692 0
M  V30 99 H 9.0036 -2.50686 -3.54032 0
M  V30 100 H 9.6746 -2.07377 -5.11565 0
M  V30 101 H 12.1506 -0.411822 -4.14057 0
M  V30 102 H 11.0266 -0.0995336 -5.4881 0
M  V30 103 H 11.2876 1.14025 -4.27142 0
M  V30 104 N 10.3467 1.47872 -0.545128 0
M  V30 105 C 11.5927 2.02793 -0.0166104 0
M  V30 106 C 11.9257 1.41987 1.32489 0
M  V30 107 O 11.2007 0.571045 1.85928 0
M  V30 108 C 11.4837 3.59989 0.0893294 0
M  V30 109 C 11.3367 4.3125 -1.27841 0
M  V30 110 C 12.6557 4.32606 0.808724 0
M  V30 111 H 9.7747 0.736962 -0.00751035 0
M  V30 112 H 12.4167 1.76433 -0.705085 0
M  V30 113 H 10.5667 3.82579 0.675681 0
M  V30 114 H 12.2387 4.20035 -1.90704 0
M  V30 115 H 10.4817 3.92076 -1.85632 0
M  V30 116 H 11.1527 5.39736 -1.15713 0
M  V30 117 H 13.6287 4.14936 0.310992 0
M  V30 118 H 12.5047 5.42251 0.851782 0
M  V30 119 H 12.7657 4.00963 1.86229 0
M  V30 120 N 11.8248 0.280983 1.55075 0
M  V30 121 C 12.7748 -0.618585 2.19448 0
M  V30 122 C 13.7588 -1.11401 1.16098 0
M  V30 123 O 14.9508 -1.0581 1.41891 0
M  V30 124 C 12.0798 -1.79951 2.92357 0
M  V30 125 C 11.1658 -1.321 4.03002 0
M  V30 126 N 11.5568 -0.559044 5.02701 0
M  V30 127 C 9.8548 -1.60346 4.16179 0
M  V30 128 C 10.5558 -0.306722 5.80891 0
M  V30 129 N 9.5318 -0.880825 5.36416 0
M  V30 130 H 13.3338 -0.0286638 2.93886 0
M  V30 131 H 10.8478 0.0848104 1.62178 0
M  V30 132 H 12.8448 -2.45531 3.36927 0
M  V30 133 H 11.5048 -2.39333 2.19431 0
M  V30 134 H 12.5158 -0.205827 5.17491 0
M  V30 135 H 9.1928 -2.20621 3.54447 0
M  V30 136 H 10.5828 0.30391 6.71212 0
M  V30 137 N 13.3029 -1.57598 0.00835791 0
M  V30 138 C 14.5489 -1.91211 -0.675732 0
M  V30 139 C 14.8819 -0.883139 -1.72958 0
M  V30 140 O 14.1569 0.097016 -1.94258 0
M  V30 141 C 14.4399 -3.35379 -1.31123 0
M  V30 142 C 14.2929 -4.48999 -0.268356 0
M  V30 143 C 15.6119 -3.7912 -2.23508 0
M  V30 144 H 12.7309 -0.695374 -0.244179 0
M  V30 145 H 15.3729 -1.89901 0.0613655 0
M  V30 146 H 13.5229 -3.36626 -1.93946 0
M  V30 147 H 15.1949 -4.59887 0.360844 0
M  V30 148 H 13.4379 -4.31873 0.408482 0
M  V30 149 H 14.1089 -5.46851 -0.752218 0
M  V30 150 H 16.5849 -3.79477 -1.70693 0
M  V30 151 H 15.4609 -4.80729 -2.64936 0
M  V30 152 H 15.7219 -3.13455 -3.11766 0
M  V30 153 N 14.781 0.264519 -1.55364 0
M  V30 154 C 16.027 0.992314 -1.77552 0
M  V30 155 C 16.382 1.83626 -0.574379 0
M  V30 156 O 15.675 1.86648 0.432782 0
M  V30 157 C 15.869 1.9004 -3.02687 0
M  V30 158 C 15.698 1.14583 -4.34857 0
M  V30 159 C 14.468 0.858068 -4.97961 0
M  V30 160 C 16.666 0.532069 -5.1154 0
M  V30 161 N 14.648 0.0775974 -6.13851 0
M  V30 162 C 16.019 -0.113823 -6.19896 0
M  V30 163 C 18.074 0.440763 -4.95945 0
M  V30 164 C 16.777 -0.842231 -7.14352 0
M  V30 165 C 18.803 -0.274072 -5.90765 0
M  V30 166 C 18.165 -0.90867 -6.98515 0
M  V30 167 H 14.264 0.344811 -0.701875 0
M  V30 168 H 16.848 0.267141 -1.92859 0
M  V30 169 H 15.019 2.59775 -2.88741 0
M  V30 170 H 16.751 2.56243 -3.13243 0
M  V30 171 H 13.506 1.16547 -4.59036 0
M  V30 172 H 13.93 -0.300216 -6.76334 0
M  V30 173 H 18.572 0.917064 -4.12735 0
M  V30 174 H 16.29 -1.33019 -7.97077 0
M  V30 175 H 19.876 -0.345151 -5.80775 0
M  V30 176 H 18.756 -1.45299 -7.70622 0
M  V30 177 N 16.2591 1.48442 0.529413 0
M  V30 178 C 17.5081 1.55742 1.28169 0
M  V30 179 C 17.8211 0.236511 1.94165 0
M  V30 180 O 19.0271 0.187761 2.7085 0
M  V30 181 C 17.4831 2.74667 2.32564 0
M  V30 182 C 17.0911 4.13402 1.72636 0
M  V30 183 C 18.8351 2.9128 3.08798 0
M  V30 184 C 16.7421 5.23587 2.74975 0
M  V30 185 H 15.6721 0.579796 0.48203 0
M  V30 186 H 18.3231 1.74776 0.559056 0
M  V30 187 H 16.7051 2.49067 3.07866 0
M  V30 188 H 17.8791 4.49022 1.03519 0
M  V30 189 H 16.1941 4.0191 1.08892 0
M  V30 190 H 18.7911 3.70767 3.85274 0
M  V30 191 H 19.1341 2.00757 3.64695 0
M  V30 192 H 19.6671 3.16782 2.40611 0
M  V30 193 H 16.4061 6.16076 2.23897 0
M  V30 194 H 15.9261 4.92454 3.42417 0
M  V30 195 H 17.6051 5.51724 3.37949 0
M  V30 196 N 17.7372 -0.778329 1.37039 0
M  V30 197 C 18.6672 -1.90546 1.34962 0
M  V30 198 C 19.6482 -1.68681 0.219274 0
M  V30 199 O 20.8332 -1.89634 0.418624 0
M  V30 200 C 17.9632 -3.27734 1.14925 0
M  V30 201 C 16.9172 -3.64147 2.24902 0
M  V30 202 C 16.2432 -4.99806 1.89996 0
M  V30 203 C 17.5432 -3.71579 3.67051 0
M  V30 204 H 19.2372 -1.92541 2.29277 0
M  V30 205 H 16.7832 -0.924948 1.10366 0
M  V30 206 H 18.7362 -4.06215 1.12104 0
M  V30 207 H 17.4602 -3.26154 0.170631 0
M  V30 208 H 16.1192 -2.8797 2.26868 0
M  V30 209 H 15.7672 -4.94759 0.906796 0
M  V30 210 H 15.4672 -5.25139 2.63634 0
M  V30 211 H 16.9912 -5.80694 1.88749 0
M  V30 212 H 18.4052 -4.40227 3.67251 0
M  V30 213 H 16.8022 -4.08405 4.39688 0
M  V30 214 H 17.8722 -2.72404 4.01154 0
M  V30 215 N 19.2153 -1.21501 -1.00376 0
M  V30 216 C 20.1783 -0.976927 -2.07337 0
M  V30 217 C 21.1783 0.0525322 -1.60714 0
M  V30 218 O 22.3683 -0.184869 -1.73216 0
M  V30 219 C 19.5003 -0.473423 -3.37597 0
M  V30 220 H 20.6933 -1.92587 -2.29892 0
M  V30 221 H 18.2463 -1.03217 -1.17371 0
M  V30 222 H 18.9813 0.480379 -3.20722 0
M  V30 223 H 18.7663 -1.216 -3.72768 0
M  V30 224 H 20.2563 -0.32675 -4.1632 0
M  V30 225 N 20.6934 1.19889 -1.02296 0
M  V30 226 C 21.9414 1.89046 -0.714558 0
M  V30 227 C 22.2624 1.79636 0.758681 0
M  V30 228 O 21.5324 1.20292 1.54618 0
M  V30 229 H 20.1124 0.699802 -0.261317 0
M  V30 230 H 22.7744 1.45574 -1.29592 0
M  V30 231 H 21.8704 2.95524 -1.0036 0
M  V30 232 N 22.1715 0.800033 1.35784 0
M  V30 233 C 23.1015 0.220184 2.3246 0
M  V30 234 C 24.0825 -0.65073 1.57161 0
M  V30 235 O 25.2675 -0.582359 1.85263 0
M  V30 236 C 22.3975 -0.637353 3.41402 0
M  V30 237 C 21.3515 0.134531 4.27789 0
M  V30 238 C 20.6775 -0.844285 5.27992 0
M  V30 239 C 21.9775 1.32979 5.05088 0
M  V30 240 H 23.6715 1.02787 2.81203 0
M  V30 241 H 21.2175 0.495717 1.35199 0
M  V30 242 H 23.1705 -1.05302 4.08031 0
M  V30 243 H 21.8945 -1.47785 2.91251 0
M  V30 244 H 20.5535 0.531296 3.6273 0
M  V30 245 H 20.2015 -1.68011 4.74111 0
M  V30 246 H 19.9015 -0.332184 5.8666 0
M  V30 247 H 21.4255 -1.2583 5.97494 0
M  V30 248 H 22.8395 0.98934 5.64699 0
M  V30 249 H 21.2365 1.77593 5.7322 0
M  V30 250 H 22.3065 2.11978 4.36111 0
M  V30 251 N 23.6496 -1.47581 0.552962 0
M  V30 252 C 24.8956 -2.03369 0.0355807 0
M  V30 253 C 25.2506 -1.42016 -1.29805 0
M  V30 254 O 24.5436 -0.564917 -1.83083 0
M  V30 255 C 24.7376 -3.57199 -0.119728 0
M  V30 256 C 24.5666 -4.33468 1.1973 0
M  V30 257 C 23.3366 -4.7353 1.76345 0
M  V30 258 C 25.5346 -4.68866 2.11351 0
M  V30 259 N 23.5166 -5.34426 3.02097 0
M  V30 260 C 24.8876 -5.3002 3.21681 0
M  V30 261 C 26.9426 -4.50795 2.11397 0
M  V30 262 C 25.6456 -5.75011 4.32151 0
M  V30 263 C 27.6716 -4.96782 3.20876 0
M  V30 264 C 27.0336 -5.57981 4.29926 0
M  V30 265 H 23.1326 -0.780058 0.0550806 0
M  V30 266 H 25.7166 -1.80117 0.739315 0
M  V30 267 H 23.8876 -3.80227 -0.792579 0
M  V30 268 H 25.6196 -3.99627 -0.638792 0
M  V30 269 H 22.3746 -4.55352 1.30196 0
M  V30 270 H 22.7986 -5.69421 3.66182 0
M  V30 271 H 27.4406 -4.0284 1.28372 0
M  V30 272 H 25.1586 -6.21959 5.15938 0
M  V30 273 H 28.7446 -4.84573 3.21994 0
M  V30 274 H 27.6246 -5.92918 5.13243 0
M  V30 275 N 25.1277 -0.289203 -1.54924 0
M  V30 276 C 26.0577 0.58549 -2.2604 0
M  V30 277 C 27.0387 1.14753 -1.25562 0
M  V30 278 O 28.2237 1.17906 -1.54311 0
M  V30 279 C 25.3537 1.76305 -2.99222 0
M  V30 280 C 24.3077 1.33191 -4.06748 0
M  V30 281 C 23.6337 2.5937 -4.6758 0
M  V30 282 C 24.9337 0.471775 -5.20165 0
M  V30 283 H 26.6277 -0.00763532 -2.99399 0
M  V30 284 H 24.1737 -0.00511229 -1.43999 0
M  V30 285 H 26.1267 2.38097 -3.47689 0
M  V30 286 H 24.8507 2.38223 -2.23422 0
M  V30 287 H 23.5097 0.737121 -3.59113 0
M  V30 288 H 23.1577 3.19576 -3.88433 0
M  V30 289 H 22.8577 2.31228 -5.40192 0
M  V30 290 H 24.3817 3.21985 -5.18804 0
M  V30 291 H 25.7957 0.995056 -5.64599 0
M  V30 292 H 24.1927 0.284639 -5.99425 0
M  V30 293 H 25.2627 -0.506041 -4.82252 0
M  V30 294 N 26.6058 1.57591 -0.0167156 0
M  V30 295 C 27.5688 2.08393 0.954204 0
M  V30 296 C 28.5688 0.996531 1.26198 0
M  V30 297 O 29.7588 1.25858 1.20438 0
M  V30 298 C 26.8908 2.5394 2.27436 0
M  V30 299 H 28.0838 2.95455 0.514451 0
M  V30 300 H 25.6368 1.54582 0.231089 0
M  V30 301 H 26.3718 1.70171 2.76066 0
M  V30 302 H 26.1568 3.33371 2.06412 0
M  V30 303 H 27.6468 2.93512 2.97053 0
M  V30 304 N 28.0839 -0.256276 1.55502 0
M  V30 305 C 29.3299 -0.987079 1.77157 0
M  V30 306 C 29.6629 -1.85327 0.580315 0
M  V30 307 O 28.9379 -1.89874 -0.421686 0
M  V30 308 C 29.2209 -1.85553 3.08613 0
M  V30 309 C 29.0739 -1.01816 4.38125 0
M  V30 310 C 30.3929 -2.8397 3.36228 0
M  V30 311 H 27.5119 -0.357428 0.644526 0
M  V30 312 H 30.1539 -0.258239 1.88237 0
M  V30 313 H 28.3039 -2.47695 2.99298 0
M  V30 314 H 29.9759 -0.416159 4.59419 0
M  V30 315 H 28.2189 -0.322178 4.32602 0
M  V30 316 H 28.8899 -1.65939 5.26468 0
M  V30 317 H 31.3659 -2.31964 3.45445 0
M  V30 318 H 30.2419 -3.41864 4.29442 0
M  V30 319 H 30.5029 -3.59955 2.56681 0
M  V30 320 N 29.562 -1.4872 -0.521534 0
M  V30 321 C 30.525 -1.63379 -1.60748 0
M  V30 322 C 31.525 -0.50661 -1.52611 0
M  V30 323 O 32.715 -0.772601 -1.5613 0
M  V30 324 C 29.847 -1.61192 -3.00383 0
M  V30 325 H 31.04 -2.60217 -1.49087 0
M  V30 326 H 28.593 -1.37444 -0.744235 0
M  V30 327 H 29.328 -0.65863 -3.17541 0
M  V30 328 H 29.113 -2.43032 -3.07698 0
M  V30 329 H 30.603 -1.7466 -3.7932 0
M  V30 330 N 31.0401 0.771051 -1.3745 0
M  V30 331 C 32.2881 1.52661 -1.32435 0
M  V30 332 C 32.6091 1.9479 0.0905024 0
M  V30 333 O 31.8791 1.66348 1.03466 0
M  V30 334 H 30.4591 0.566218 -0.487244 0
M  V30 335 H 33.1211 0.917636 -1.71946 0
M  V30 336 H 32.2171 2.42568 -1.96385 0
M  V30 337 N 32.5182 1.22032 0.997298 0
M  V30 338 C 33.9342 0.979326 1.26021 0
M  V30 339 C 34.1342 -0.32972 1.98784 0
M  V30 340 O 33.1902 -1.05345 2.29475 0
M  V30 341 C 34.5032 2.17509 2.07631 0
M  V30 342 C 36.0512 2.21817 2.2083 0
M  V30 343 C 36.5262 3.40933 3.05825 0
M  V30 344 N 38.0172 3.41067 3.13412 0
M  V30 345 C 38.7522 4.29885 3.79455 0
M  V30 346 N 38.2482 5.28914 4.47462 0
M  V30 347 N 40.0412 4.17673 3.76173 0
M  V30 348 H 32.1922 2.06202 0.509352 0
M  V30 349 H 34.4552 0.90334 0.287541 0
M  V30 350 H 34.1612 3.12415 1.61524 0
M  V30 351 H 34.0352 2.17206 3.08385 0
M  V30 352 H 36.4222 1.27462 2.66153 0
M  V30 353 H 36.5032 2.2616 1.1952 0
M  V30 354 H 36.1472 4.35586 2.61203 0
M  V30 355 H 36.0772 3.33829 4.07266 0
M  V30 356 H 38.5682 2.69406 2.65007 0
M  V30 357 H 38.8812 5.92973 4.95583 0
M  V30 358 H 37.2262 5.32831 4.46224 0
M  V30 359 H 40.4172 3.39564 3.22202 0
M  V30 360 H 40.5902 4.87098 4.27363 0
M  V30 361 N 33.9963 -1.19345 1.0293 0
M  V30 362 C 35.4073 -1.70725 0.755633 0
M  V30 363 C 35.7583 -1.82326 -0.724676 0
M  V30 364 O 34.8833 -1.49471 -1.56484 0
M  V30 365 C 35.4783 -3.10084 1.36503 0
M  V30 366 C 34.0373 -3.58723 1.13994 0
M  V30 367 C 33.1843 -2.35577 1.46283 0
M  V30 368 H 36.1353 -1.0418 1.19718 0
M  V30 369 H 36.1563 -3.72787 0.762217 0
M  V30 370 H 35.6683 -3.01609 2.44241 0
M  V30 371 H 33.7693 -3.72512 0.0807901 0
M  V30 372 H 33.8823 -4.42816 1.82894 0
M  V30 373 H 32.2463 -2.38935 0.88217 0
M  V30 374 H 33.0293 -2.29731 2.55105 0
M  V30 375 N 35.4744 -0.807222 -1.35358 0
M  V30 376 C 36.4044 -0.232509 -2.3234 0
M  V30 377 C 37.3854 0.642386 -1.57504 0
M  V30 378 O 38.5704 0.572526 -1.85569 0
M  V30 379 C 35.7004 0.619238 -3.41735 0
M  V30 380 C 34.6544 -0.157215 -4.27711 0
M  V30 381 C 33.9804 0.816273 -5.28433 0
M  V30 382 C 35.2804 -1.35656 -5.04376 0
M  V30 383 H 36.9744 -1.04276 -2.80654 0
M  V30 384 H 34.5204 -0.50288 -1.34934 0
M  V30 385 H 36.4734 1.03137 -4.08584 0
M  V30 386 H 35.1974 1.46239 -2.92031 0
M  V30 387 H 33.8564 -0.550525 -3.62443 0
M  V30 388 H 33.5044 1.65494 -4.74996 0
M  V30 389 H 33.2044 0.301067 -5.86828 0
M  V30 390 H 34.7284 1.22659 -5.98153 0
M  V30 391 H 36.1424 -1.01927 -5.64166 0
M  V30 392 H 34.5394 -1.8063 -5.7227 0
M  V30 393 H 35.6094 -2.14288 -4.34981 0
M  V30 394 N 36.9525 1.47285 -0.560781 0
M  V30 395 C 37.9155 2.28535 0.174488 0
M  V30 396 C 38.9155 1.37153 0.839388 0
M  V30 397 O 40.1055 1.59748 0.694702 0
M  V30 398 C 37.2375 3.16934 1.25561 0
M  V30 399 H 38.4305 2.95012 -0.539262 0
M  V30 400 H 35.9835 1.53034 -0.317865 0
M  V30 401 H 36.7185 2.55157 2.00164 0
M  V30 402 H 36.5035 3.8419 0.783604 0
M  V30 403 H 37.9935 3.78143 1.77193 0
M  V30 404 N 38.4306 0.297415 1.54768 0
M  V30 405 C 39.6776 -0.312913 2.00068 0
M  V30 406 C 40.0056 -1.54171 1.18582 0
M  V30 407 O 39.2606 -1.94108 0.249133 0
M  V30 408 C 39.5596 -0.717561 3.50123 0
M  V30 409 C 39.2256 0.409095 4.4904 0
M  V30 410 C 37.8876 0.718399 4.75807 0
M  V30 411 C 40.2396 1.16717 5.07963 0
M  V30 412 C 37.5676 1.78896 5.5876 0
M  V30 413 C 39.9196 2.22762 5.92081 0
M  V30 414 C 38.5836 2.54303 6.1716 0
M  V30 415 H 37.8536 -0.114503 0.7321 0
M  V30 416 H 40.5006 0.415767 1.86932 0
M  V30 417 H 38.8056 -1.52627 3.60849 0
M  V30 418 H 40.5026 -1.20091 3.82595 0
M  V30 419 H 37.0926 0.157918 4.28309 0
M  V30 420 H 41.2766 0.941466 4.87289 0
M  V30 421 H 36.5326 2.0381 5.7643 0
M  V30 422 H 40.7066 2.81962 6.36765 0
M  V30 423 H 38.3336 3.3739 6.81229 0
M  V30 424 N 39.9087 -1.5758 0.0250728 0
M  V30 425 C 41.1337 -1.96337 -0.668317 0
M  V30 426 C 41.5587 -0.901314 -1.651 0
M  V30 427 O 40.9167 0.138187 -1.80773 0
M  V30 428 C 40.9647 -3.34191 -1.35457 0
M  V30 429 O 40.0687 -3.30269 -2.46974 0
M  V30 430 H 39.4097 -0.640281 -0.175887 0
M  V30 431 H 41.9397 -2.0442 0.0857224 0
M  V30 432 H 41.9497 -3.70331 -1.71228 0
M  V30 433 H 40.6247 -4.11036 -0.634218 0
M  V30 434 H 39.2017 -3.05841 -2.13344 0
M  V30 435 N 41.3868 0.248026 -1.55636 0
M  V30 436 C 42.6638 0.998988 -1.68165 0
M  V30 437 C 43.0438 2.03409 -0.564621 0
M  V30 438 O 42.3918 2.24378 0.432076 0
M  V30 439 C 42.6018 1.63334 -3.0842 0
M  V30 440 C 43.9498 2.13562 -3.66983 0
M  V30 441 O 44.9738 1.73277 -3.11213 0
M  V30 442 O 43.8328 2.87526 -4.64749 0
M  V30 443 H 40.9268 0.464933 -0.683935 0
M  V30 444 H 43.4728 0.241902 -1.67967 0
M  V30 445 H 42.2448 0.884583 -3.8117 0
M  V30 446 H 41.8678 2.45666 -3.12624 0
M  V30 447 N 42.8649 1.48995 0.513639 0
M  V30 448 C 43.8279 1.64229 1.59879 0
M  V30 449 C 44.8279 0.514696 1.5234 0
M  V30 450 O 46.0179 0.78087 1.55718 0
M  V30 451 C 43.1499 1.62783 2.99524 0
M  V30 452 H 44.3429 2.61004 1.47705 0
M  V30 453 H 41.8959 1.37837 0.736936 0
M  V30 454 H 42.6309 0.675461 3.17188 0
M  V30 455 H 42.4159 2.4466 3.06404 0
M  V30 456 H 43.9059 1.76669 3.78388 0
M  V30 457 N 44.343 -0.763751 1.37857 0
M  V30 458 C 45.591 -1.51957 1.33243 0
M  V30 459 C 45.912 -1.94835 -0.0801709 0
M  V30 460 O 45.182 -1.66894 -1.02582 0
M  V30 461 H 43.762 -0.563626 0.49024 0
M  V30 462 H 46.424 -0.908504 1.7243 0
M  V30 463 H 45.52 -2.41523 1.97669 0
M  V30 464 N 45.8211 -1.22559 -0.990812 0
M  V30 465 C 47.2321 -1.04791 -1.54518 0
M  V30 466 C 47.5831 0.387998 -1.92325 0
M  V30 467 O 46.7081 1.27328 -1.74976 0
M  V30 468 C 47.3031 -1.896 -2.80779 0
M  V30 469 C 45.8621 -1.76124 -3.32652 0
M  V30 470 C 45.0091 -1.8594 -2.05722 0
M  V30 471 H 47.9601 -1.36374 -0.811662 0
M  V30 472 H 47.9811 -1.41464 -3.53225 0
M  V30 473 H 47.4931 -2.94101 -2.53231 0
M  V30 474 H 45.5941 -0.743643 -3.65104 0
M  V30 475 H 45.7071 -2.58913 -4.03114 0
M  V30 476 H 44.0711 -1.29403 -2.19379 0
M  V30 477 H 44.8541 -2.91976 -1.80568 0
M  V30 478 N 47.2992 1.18797 -1.03562 0
M  V30 479 C 48.2492 2.20161 -0.592724 0
M  V30 480 C 49.2332 1.56772 0.362133 0
M  V30 481 O 50.4252 1.76062 0.182009 0
M  V30 482 C 47.5542 3.43266 0.0481024 0
M  V30 483 C 46.6402 4.13786 -0.9296 0
M  V30 484 N 47.0312 4.60388 -2.09467 0
M  V30 485 C 45.3292 4.39572 -0.754499 0
M  V30 486 C 46.0302 5.14619 -2.71187 0
M  V30 487 N 45.0062 5.05826 -1.991 0
M  V30 488 H 48.8082 2.53877 -1.48066 0
M  V30 489 H 46.3222 1.34946 -0.903514 0
M  V30 490 H 48.3192 4.15136 0.383058 0
M  V30 491 H 46.9792 3.11048 0.931636 0
M  V30 492 H 47.9902 4.54999 -2.47379 0
M  V30 493 H 44.6672 4.17425 0.0793713 0
M  V30 494 H 46.0572 5.60917 -3.69895 0
M  V30 495 N 48.7773 0.814389 1.34928 0
M  V30 496 C 50.0233 0.399013 1.98836 0
M  V30 497 C 50.3563 -1.03314 1.64438 0
M  V30 498 O 49.6313 -1.71811 0.911659 0
M  V30 499 C 49.9143 0.591629 3.55207 0
M  V30 500 C 49.7673 2.06928 3.99376 0
M  V30 501 C 51.0863 0.022199 4.40094 0
M  V30 502 H 48.2053 0.146451 0.722303 0
M  V30 503 H 50.8473 1.02537 1.59957 0
M  V30 504 H 48.9973 0.0584441 3.88456 0
M  V30 505 H 50.6693 2.66544 3.76499 0
M  V30 506 H 48.9123 2.56287 3.49999 0
M  V30 507 H 49.5833 2.1549 5.08201 0
M  V30 508 H 52.0593 0.477643 4.13349 0
M  V30 509 H 50.9353 0.186832 5.48582 0
M  V30 510 H 51.1963 -1.07215 4.28902 0
M  V30 511 N 50.2554 -1.46986 0.568584 0
M  V30 512 C 51.2054 -2.27179 -0.193339 0
M  V30 513 C 52.1894 -1.35035 -0.874895 0
M  V30 514 O 53.3814 -1.5931 -0.771322 0
M  V30 515 C 50.5104 -3.21063 -1.21546 0
M  V30 516 C 49.5964 -4.2069 -0.536738 0
M  V30 517 N 49.9874 -5.04218 0.399673 0
M  V30 518 C 48.2854 -4.38961 -0.789254 0
M  V30 519 C 48.9864 -5.76242 0.795017 0
M  V30 520 N 47.9624 -5.434 0.1473 0
M  V30 521 H 51.7644 -2.89146 0.526458 0
M  V30 522 H 49.2784 -1.57664 0.389342 0
M  V30 523 H 51.2754 -3.77209 -1.77536 0
M  V30 524 H 49.9354 -2.60654 -1.93623 0
M  V30 525 H 50.9464 -5.12077 0.774454 0
M  V30 526 H 47.6234 -3.89713 -1.49767 0
M  V30 527 H 49.0134 -6.53417 1.56513 0
M  V30 528 N 51.7335 -0.305618 -1.54608 0
M  V30 529 C 52.9635 0.304333 -2.04346 0
M  V30 530 C 53.3715 1.47715 -1.18224 0
M  V30 531 O 52.7145 1.82591 -0.201577 0
M  V30 532 C 52.7765 0.819031 -3.50046 0
M  V30 533 C 52.4405 -0.22912 -4.56425 0
M  V30 534 C 53.4375 -1.05914 -5.08997 0
M  V30 535 C 51.1225 -0.372148 -5.0092 0
M  V30 536 C 53.1165 -2.01809 -6.04609 0
M  V30 537 C 50.8035 -1.33454 -5.9635 0
M  V30 538 C 51.8015 -2.15599 -6.48079 0
M  V30 539 O 51.4895 -3.10205 -7.41639 0
M  V30 540 H 51.2215 0.0693996 -0.672428 0
M  V30 541 H 53.7755 -0.444548 -2.00532 0
M  V30 542 H 52.0055 1.61852 -3.51199 0
M  V30 543 H 53.6945 1.34537 -3.82955 0
M  V30 544 H 54.4605 -0.959538 -4.75413 0
M  V30 545 H 50.3395 0.257304 -4.60281 0
M  V30 546 H 53.8835 -2.65966 -6.44909 0
M  V30 547 H 49.7805 -1.43485 -6.29351 0
M  V30 548 H 50.5485 -3.05237 -7.59455 0
M  V30 549 N 53.2116 1.57565 -0.0334293 0
M  V30 550 C 54.4596 1.91598 0.642999 0
M  V30 551 C 54.7806 0.910847 1.7242 0
M  V30 552 O 54.0506 -0.0469931 1.95844 0
M  V30 553 H 52.6306 0.707228 0.240496 0
M  V30 554 H 55.2926 1.94726 -0.0822488 0
M  V30 555 H 54.3886 2.92336 1.09298 0
M  V30 556 N 54.6897 -0.239769 1.55765 0
M  V30 557 C 55.9357 -0.963942 1.79108 0
M  V30 558 C 56.2907 -1.82689 0.60352 0
M  V30 559 O 55.5837 -1.87313 -0.403033 0
M  V30 560 C 55.7777 -1.852 3.05672 0
M  V30 561 C 55.6067 -1.07651 4.36625 0
M  V30 562 C 54.3767 -0.778738 4.99263 0
M  V30 563 C 56.5747 -0.45062 5.12322 0
M  V30 564 N 54.5567 0.0200708 6.13897 0
M  V30 565 C 55.9277 0.212429 6.19636 0
M  V30 566 C 57.9827 -0.361806 4.96584 0
M  V30 567 C 56.6857 0.955772 7.12922 0
M  V30 568 C 58.7117 0.368023 5.90254 0
M  V30 569 C 58.0737 1.01968 6.96981 0
M  V30 570 H 54.1727 -0.333601 0.707272 0
M  V30 571 H 56.7567 -0.236425 1.93259 0
M  V30 572 H 54.9277 -2.55149 2.92837 0
M  V30 573 H 56.6597 -2.51228 3.1728 0
M  V30 574 H 53.4147 -1.09229 4.60832 0
M  V30 575 H 53.8387 0.407777 6.75771 0
M  V30 576 H 58.4807 -0.851286 4.14141 0
M  V30 577 H 56.1987 1.45683 7.9486 0
M  V30 578 H 59.7847 0.437504 5.80153 0
M  V30 579 H 58.6647 1.5754 7.68213 0
M  V30 580 N 56.1678 -1.49265 -0.50573 0
M  V30 581 C 57.4158 -1.582 -1.25766 0
M  V30 582 C 57.7368 -0.268482 -1.93143 0
M  V30 583 O 57.0068 0.711833 -1.8251 0
M  V30 584 H 55.5868 -0.582873 -0.467191 0
M  V30 585 H 58.2488 -1.85865 -0.586525 0
M  V30 586 H 57.3448 -2.37563 -2.02412 0
M  V30 587 N 57.6459 0.756429 -1.3826 0
M  V30 588 C 58.9229 1.50584 -1.24835 0
M  V30 589 C 59.3029 2.10556 0.151485 0
M  V30 590 O 58.6509 1.96825 1.1607 0
M  V30 591 C 58.8609 2.57448 -2.3563 0
M  V30 592 C 60.2089 3.24429 -2.73917 0
M  V30 593 O 61.2329 2.67751 -2.34921 0
M  V30 594 O 60.0919 4.26937 -3.41156 0
M  V30 595 H 57.1859 0.667664 -0.48801 0
M  V30 596 H 59.7319 0.792083 -1.5008 0
M  V30 597 H 58.5039 2.11362 -3.29305 0
M  V30 598 H 58.1269 3.36408 -2.11933 0
M  V30 599 N 59.124 1.23083 0.984299 0
M  V30 600 C 60.535 1.05609 1.5396 0
M  V30 601 C 60.886 -0.377793 1.92528 0
M  V30 602 O 60.011 -1.26398 1.75649 0
M  V30 603 C 60.606 1.91087 2.7977 0
M  V30 604 C 59.165 1.77885 3.31713 0
M  V30 605 C 58.312 1.87028 2.04733 0
M  V30 606 H 61.263 1.36802 0.804419 0
M  V30 607 H 61.284 1.43336 3.5247 0
M  V30 608 H 60.796 2.9544 2.51668 0
M  V30 609 H 58.897 0.762995 3.64704 0
M  V30 610 H 59.01 2.61047 4.01735 0
M  V30 611 H 57.374 1.30565 2.18689 0
M  V30 612 H 58.157 2.92929 1.79017 0
M  V30 613 N 60.6021 -1.18246 1.0419 0
M  V30 614 C 61.8511 -1.87588 0.741194 0
M  V30 615 C 62.1641 -1.81303 -0.734066 0
M  V30 616 O 63.3701 -2.46019 -1.14834 0
M  V30 617 C 61.8261 -3.36538 1.27555 0
M  V30 618 C 61.4341 -3.51349 2.77953 0
M  V30 619 C 63.1781 -4.11273 1.05143 0
M  V30 620 C 61.0851 -4.94265 3.2474 0
M  V30 621 H 60.0151 -0.702622 0.273565 0
M  V30 622 H 62.6661 -1.33601 1.25789 0
M  V30 623 H 61.0481 -3.9 0.686703 0
M  V30 624 H 62.2221 -3.08153 3.42605 0
M  V30 625 H 60.5371 -2.90022 2.98791 0
M  V30 626 H 63.1341 -5.16689 1.37611 0
M  V30 627 H 63.4771 -4.16298 -0.0112774 0
M  V30 628 H 64.0101 -3.63987 1.60495 0
M  V30 629 H 60.7491 -4.94408 4.30396 0
M  V30 630 H 60.2691 -5.38172 2.64823 0
M  V30 631 H 61.9481 -5.62987 3.18834 0
M  V30 632 N 62.0802 -0.821533 -1.34494 0
M  V30 633 C 63.4962 -0.507117 -1.51329 0
M  V30 634 C 63.6962 0.968964 -1.76673 0
M  V30 635 O 62.7522 1.75348 -1.81685 0
M  V30 636 C 64.0652 -1.36544 -2.67911 0
M  V30 637 C 65.6132 -1.36242 -2.81793 0
M  V30 638 C 66.0882 -2.2052 -4.01416 0
M  V30 639 N 67.5792 -2.18136 -4.08621 0
M  V30 640 C 68.3142 -2.80095 -5.00334 0
M  V30 641 N 67.8102 -3.51039 -5.9728 0
M  V30 642 N 69.6032 -2.69656 -4.93196 0
M  V30 643 H 61.7542 -1.77729 -1.16302 0
M  V30 644 H 64.0172 -0.757291 -0.570276 0
M  V30 645 H 63.7232 -2.41361 -2.55808 0
M  V30 646 H 63.5972 -1.02917 -3.62888 0
M  V30 647 H 65.9842 -0.322041 -2.93338 0
M  V30 648 H 66.0652 -1.73866 -1.87628 0
M  V30 649 H 65.7092 -3.24607 -3.90631 0
M  V30 650 H 65.6392 -1.80247 -4.94791 0
M  V30 651 H 68.1302 -1.6653 -3.39229 0
M  V30 652 H 68.4432 -3.95565 -6.63889 0
M  V30 653 H 66.7882 -3.55145 -5.97409 0
M  V30 654 H 69.9792 -2.13808 -4.16418 0
M  V30 655 H 70.1522 -3.1823 -5.64476 0
M  V30 656 N 63.5583 1.46682 -0.576371 0
M  V30 657 C 64.4883 2.33028 0.148397 0
M  V30 658 C 65.4693 1.44961 0.889956 0
M  V30 659 O 66.6543 1.73789 0.866662 0
M  V30 660 C 63.7843 3.27117 1.1667 0
M  V30 661 C 62.7383 4.24575 0.540386 0
M  V30 662 C 62.0643 5.08126 1.6647 0
M  V30 663 C 63.3643 5.19722 -0.518331 0
M  V30 664 H 65.0583 2.93875 -0.572509 0
M  V30 665 H 62.6043 1.41315 -0.276768 0
M  V30 666 H 64.5573 3.86374 1.68204 0
M  V30 667 H 63.2813 2.64364 1.9178 0
M  V30 668 H 61.9403 3.66571 0.0461769 0
M  V30 669 H 61.5883 4.41762 2.40531 0
M  V30 670 H 61.2883 5.74122 1.25131 0
M  V30 671 H 62.8123 5.70246 2.18293 0
M  V30 672 H 64.2263 5.73232 -0.0883058 0
M  V30 673 H 62.6233 5.94026 -0.851679 0
M  V30 674 H 63.6933 4.64037 -1.40703 0
M  V30 675 N 65.0364 0.313813 1.54444 0
M  V30 676 C 66.4524 -0.0391619 1.59552 0
M  V30 677 C 66.6524 -1.51322 1.33056 0
M  V30 678 O 65.7084 -2.26782 1.11022 0
M  V30 679 C 67.0214 0.370302 2.98411 0
M  V30 680 C 68.5694 0.320139 3.11358 0
M  V30 681 C 69.0444 0.704617 4.52547 0
M  V30 682 N 70.5354 0.657645 4.58508 0
M  V30 683 C 71.2704 0.927453 5.6585 0
M  V30 684 N 70.7664 1.26389 6.81174 0
M  V30 685 N 72.5594 0.853662 5.5558 0
M  V30 686 H 64.7104 1.27433 1.69925 0
M  V30 687 H 66.9734 0.517511 0.794284 0
M  V30 688 H 66.6794 1.39694 3.22767 0
M  V30 689 H 66.5534 -0.269619 3.76235 0
M  V30 690 H 68.9404 -0.697275 2.86744 0
M  V30 691 H 69.0214 0.99486 2.35661 0
M  V30 692 H 68.6654 1.7199 4.77893 0
M  V30 693 H 68.5954 0.00768843 5.26599 0
M  V30 694 H 71.0864 0.409067 3.75679 0
M  V30 695 H 71.3994 1.4554 7.58972 0
M  V30 696 H 69.7444 1.30206 6.82694 0
M  V30 697 H 72.9354 0.590383 4.64362 0
M  V30 698 H 73.1084 1.0673 6.3915 0
M  V30 699 N 66.5145 -1.57545 0.0417849 0
M  V30 700 C 67.4645 -2.07483 -0.945247 0
M  V30 701 C 68.4485 -0.977983 -1.27767 0
M  V30 702 O 69.6405 -1.24142 -1.26166 0
M  V30 703 C 66.7695 -2.61576 -2.22335 0
M  V30 704 C 65.8555 -3.78213 -1.91874 0
M  V30 705 N 66.2465 -4.88344 -1.31733 0
M  V30 706 C 64.5445 -3.8694 -2.21796 0
M  V30 707 C 65.2455 -5.69462 -1.1869 0
M  V30 708 N 64.2215 -5.16771 -1.68666 0
M  V30 709 H 68.0235 -2.90029 -0.475441 0
M  V30 710 H 65.5375 -1.61581 -0.162911 0
M  V30 711 H 67.5345 -2.95651 -2.93932 0
M  V30 712 H 66.1945 -1.80465 -2.69931 0
M  V30 713 H 67.2055 -5.08335 -0.990729 0
M  V30 714 H 63.8825 -3.16757 -2.71977 0
M  V30 715 H 65.2725 -6.68023 -0.720793 0
M  V30 716 N 67.9926 0.231505 -1.5589 0
M  V30 717 C 68.9226 1.29022 -1.94617 0
M  V30 718 C 69.9036 1.4941 -0.813067 0
M  V30 719 O 71.0886 1.6176 -1.07459 0
M  V30 720 C 68.2186 2.64199 -2.25424 0
M  V30 721 C 67.1726 2.58484 -3.41131 0
M  V30 722 C 66.4986 3.97599 -3.57518 0
M  V30 723 C 67.7986 2.1413 -4.76388 0
M  V30 724 H 69.4926 0.968563 -2.83301 0
M  V30 725 H 67.0386 0.464479 -1.36303 0
M  V30 726 H 68.9916 3.38413 -2.51107 0
M  V30 727 H 67.7156 2.98032 -1.33583 0
M  V30 728 H 66.3746 1.86727 -3.15481 0
M  V30 729 H 66.0226 4.28723 -2.6307 0
M  V30 730 H 65.7226 3.94659 -4.35337 0
M  V30 731 H 67.2466 4.7349 -3.85538 0
M  V30 732 H 68.6606 2.78083 -5.01341 0
M  V30 733 H 67.0576 2.2227 -5.57419 0
M  V30 734 H 68.1276 1.09331 -4.72414 0
M  V30 735 N 69.4707 1.49531 0.497807 0
M  V30 736 C 70.7007 1.62657 1.27382 0
M  V30 737 C 71.1087 0.298488 1.86831 0
M  V30 738 O 70.4517 -0.72647 1.68725 0
M  V30 739 C 70.5137 2.6393 2.44093 0
M  V30 740 C 70.1777 4.08195 2.05489 0
M  V30 741 C 71.1747 4.949 1.59279 0
M  V30 742 C 68.8597 4.53948 2.15026 0
M  V30 743 C 70.8537 6.25397 1.23113 0
M  V30 744 C 68.5407 5.84458 1.78473 0
M  V30 745 C 69.5387 6.70006 1.32591 0
M  V30 746 O 69.2267 7.98083 0.965327 0
M  V30 747 H 68.9587 0.550429 0.392434 0
M  V30 748 H 71.5127 1.96325 0.603801 0
M  V30 749 H 69.7427 2.25449 3.14181 0
M  V30 750 H 71.4317 2.66552 3.06113 0
M  V30 751 H 72.1977 4.60779 1.51354 0
M  V30 752 H 68.0767 3.87525 2.4969 0
M  V30 753 H 71.6207 6.92125 0.872299 0
M  V30 754 H 67.5177 6.18107 1.86048 0
M  V30 755 H 68.2857 8.11122 1.09652 0
M  V30 756 N 70.9488 -0.749086 1.3866 0
M  V30 757 C 72.1768 -1.53834 1.38358 0
M  V30 758 C 72.5918 -1.88783 -0.0255219 0
M  V30 759 O 71.9488 -1.53101 -0.993292 0
M  V30 760 C 71.9998 -2.83468 2.2434 0
M  V30 761 O 71.7208 -2.50008 3.5976 0
M  V30 762 C 73.2218 -3.7758 2.32267 0
M  V30 763 H 70.4418 -0.47585 0.473083 0
M  V30 764 H 72.9858 -0.926726 1.82297 0
M  V30 765 H 71.1408 -3.40995 1.83851 0
M  V30 766 H 71.5548 -3.33182 4.05081 0
M  V30 767 H 73.0288 -4.65478 2.96706 0
M  V30 768 H 73.5058 -4.18334 1.33765 0
M  V30 769 H 74.1118 -3.25976 2.73166 0
M  V30 770 N 72.4269 -1.23603 -0.977757 0
M  V30 771 C 73.6519 -1.09735 -1.75991 0
M  V30 772 C 74.0769 0.346858 -1.84874 0
M  V30 773 O 73.4349 1.25093 -1.3123 0
M  V30 774 C 73.4829 -1.73051 -3.16363 0
M  V30 775 O 72.5869 -0.994452 -4.0023 0
M  V30 776 H 71.9279 -0.384476 -0.541364 0
M  V30 777 H 74.4579 -1.6371 -1.2272 0
M  V30 778 H 74.4679 -1.78398 -3.66931 0
M  V30 779 H 73.1429 -2.78137 -3.09213 0
M  V30 780 H 71.7199 -1.01812 -3.58732 0
M  V30 781 N 73.905 1.17692 -1.04816 0
M  V30 782 C 75.153 1.87488 -0.754497 0
M  V30 783 C 75.474 1.81205 0.720407 0
M  V30 784 O 74.744 1.23544 1.52032 0
M  V30 785 H 73.324 0.694101 -0.276102 0
M  V30 786 H 75.986 1.42793 -1.32651 0
M  V30 787 H 75.082 2.93328 -1.06606 0
M  V30 788 N 75.3831 0.828654 1.34056 0
M  V30 789 C 76.7941 0.477534 1.8049 0
M  V30 790 C 77.1451 -1.00258 1.6865 0
M  V30 791 O 76.2701 -1.78057 1.22982 0
M  V30 792 C 76.8651 0.860018 3.27703 0
M  V30 793 C 75.4241 0.561185 3.72193 0
M  V30 794 C 74.5711 1.07385 2.55663 0
M  V30 795 H 77.5221 1.0183 1.21722 0
M  V30 796 H 77.5431 0.166038 3.80138 0
M  V30 797 H 77.0551 1.93731 3.36288 0
M  V30 798 H 75.1561 -0.506465 3.69142 0
M  V30 799 H 75.2691 1.10926 4.66082 0
M  V30 800 H 73.6331 0.495149 2.49841 0
M  V30 801 H 74.4161 2.15771 2.67016 0
M  V30 802 N 76.8612 -1.46375 0.584142 0
M  V30 803 C 77.8112 -2.27371 -0.169232 0
M  V30 804 C 78.7952 -1.35955 -0.860523 0
M  V30 805 O 79.9872 -1.60119 -0.754382 0
M  V30 806 C 77.1162 -3.22334 -1.18134 0
M  V30 807 C 76.2022 -4.21235 -0.492088 0
M  V30 808 N 76.5932 -5.03766 0.453129 0
M  V30 809 C 74.8912 -4.39773 -0.742652 0
M  V30 810 C 75.5922 -5.75366 0.85609 0
M  V30 811 N 74.5682 -5.43214 0.204926 0
M  V30 812 H 78.3702 -2.88572 0.557097 0
M  V30 813 H 75.8842 -1.57242 0.406042 0
M  V30 814 H 77.8812 -3.79071 -1.73525 0
M  V30 815 H 76.5412 -2.62693 -1.90847 0
M  V30 816 H 77.5522 -5.11227 0.828723 0
M  V30 817 H 74.2292 -3.91279 -1.45625 0
M  V30 818 H 75.6192 -6.5172 1.63434 0
M  V30 819 N 78.3393 -0.321999 -1.54275 0
M  V30 820 C 79.5873 0.280489 -2.00144 0
M  V30 821 C 79.9083 1.52777 -1.21178 0
M  V30 822 O 79.1783 1.9338 -0.313187 0
M  V30 823 H 77.7583 0.106632 -0.73935 0
M  V30 824 H 80.4203 -0.438184 -1.8991 0
M  V30 825 H 79.5163 0.537972 -3.07428 0
M  V30 826 N 79.8174 1.5752 -0.0501392 0
M  V30 827 C 80.7474 2.14502 0.922566 0
M  V30 828 C 81.7284 1.06642 1.3252 0
M  V30 829 O 82.9134 1.34577 1.4001 0
M  V30 830 C 80.0434 2.68916 2.19776 0
M  V30 831 C 78.9974 3.8175 1.93523 0
M  V30 832 C 78.3234 4.22677 3.27487 0
M  V30 833 C 79.6234 5.06932 1.25765 0
M  V30 834 H 81.3174 2.9603 0.447952 0
M  V30 835 H 78.8634 1.42401 0.214024 0
M  V30 836 H 80.8164 3.07419 2.88222 0
M  V30 837 H 79.5404 1.84578 2.69441 0
M  V30 838 H 78.1994 3.43718 1.27489 0
M  V30 839 H 77.8474 3.35291 3.74952 0
M  V30 840 H 77.5474 4.98725 3.1072 0
M  V30 841 H 79.0714 4.63779 3.97166 0
M  V30 842 H 80.4854 5.42888 1.84244 0
M  V30 843 H 78.8824 5.88116 1.19328 0
M  V30 844 H 79.9524 4.84337 0.233536 0
M  V30 845 N 81.2955 -0.223234 1.56011 0
M  V30 846 C 82.5205 -0.968978 1.83373 0
M  V30 847 C 82.9455 -1.77227 0.630254 0
M  V30 848 O 82.3035 -1.76345 -0.420959 0
M  V30 849 C 82.3515 -1.86363 3.08709 0
M  V30 850 O 81.4555 -2.95873 2.87285 0
M  V30 851 H 80.7965 -0.274461 0.604622 0
M  V30 852 H 83.3265 -0.237056 2.03222 0
M  V30 853 H 83.3365 -2.27376 3.38768 0
M  V30 854 H 82.0115 -1.27319 3.95933 0
M  V30 855 H 80.5885 -2.58818 2.68454 0
M  V30 856 N 82.7736 -1.49793 -0.48987 0
M  V30 857 C 83.9986 -1.63836 -1.27172 0
M  V30 858 C 84.4236 -0.31402 -1.8546 0
M  V30 859 O 83.7816 0.719803 -1.66399 0
M  V30 860 C 83.8296 -2.71797 -2.36978 0
M  V30 861 O 82.9336 -2.31744 -3.41128 0
M  V30 862 H 82.2746 -0.547997 -0.37496 0
M  V30 863 H 84.8046 -1.96053 -0.585191 0
M  V30 864 H 84.8146 -2.94305 -2.82575 0
M  V30 865 H 83.4896 -3.67923 -1.93921 0
M  V30 866 H 82.0666 -2.1961 -3.01373 0
M  V30 867 N 84.2517 0.741722 -1.39055 0
M  V30 868 C 85.4917 1.51385 -1.37338 0
M  V30 869 C 85.8557 1.91972 0.0330513 0
M  V30 870 O 87.0567 2.68229 0.175174 0
M  V30 871 C 85.3277 2.72481 -2.31276 0
M  V30 872 S 86.8867 3.62211 -2.47687 0
M  V30 873 H 83.7047 0.517906 -0.487129 0
M  V30 874 H 86.3067 0.86969 -1.7509 0
M  V30 875 H 85.0107 2.40793 -3.32336 0
M  V30 876 H 84.5417 3.41832 -1.94716 0
M  V30 877 H 86.5567 4.65812 -1.70978 0
M  V30 878 N 85.7298 1.2412 0.971189 0
M  V30 879 C 86.9768 1.07881 1.71371 0
M  V30 880 C 87.3048 -0.382901 1.90694 0
M  V30 881 O 86.5598 -1.29945 1.46331 0
M  V30 882 C 86.8588 1.75983 3.11071 0
M  V30 883 C 86.5248 3.25909 3.11599 0
M  V30 884 C 85.1868 3.66813 3.11451 0
M  V30 885 C 87.5388 4.21771 3.062 0
M  V30 886 C 84.8668 5.02021 3.03631 0
M  V30 887 C 87.2188 5.56982 2.99923 0
M  V30 888 C 85.8828 5.97237 2.98102 0
M  V30 889 H 85.1528 0.394764 0.62709 0
M  V30 890 H 87.7998 1.54176 1.13587 0
M  V30 891 H 86.1048 1.22072 3.72298 0
M  V30 892 H 87.8018 1.60887 3.6731 0
M  V30 893 H 84.3918 2.93353 3.12477 0
M  V30 894 H 88.5758 3.91172 3.05447 0
M  V30 895 H 83.8318 5.32411 3.0058 0
M  V30 896 H 88.0058 6.30969 2.94704 0
M  V30 897 H 85.6328 7.01967 2.91798 0
M  V30 898 N 87.2079 -1.17134 1.05439 0
M  V30 899 C 88.1379 -2.2342 0.678649 0
M  V30 900 C 89.1189 -1.66971 -0.32476 0
M  V30 901 O 90.3039 -1.93149 -0.201802 0
M  V30 902 C 87.4339 -3.47256 0.0552099 0
M  V30 903 C 86.3879 -4.16543 0.98365 0
M  V30 904 C 85.7139 -5.34231 0.223961 0
M  V30 905 C 87.0139 -4.68495 2.3089 0
M  V30 906 H 88.7079 -2.55105 1.56722 0
M  V30 907 H 86.2539 -1.2262 0.754998 0
M  V30 908 H 88.2069 -4.20828 -0.21946 0
M  V30 909 H 86.9309 -3.14846 -0.868319 0
M  V30 910 H 85.5899 -3.44887 1.24293 0
M  V30 911 H 85.2379 -4.98071 -0.702412 0
M  V30 912 H 84.9379 -5.81527 0.842627 0
M  V30 913 H 86.4619 -6.10585 -0.0433671 0
M  V30 914 H 87.8759 -5.33691 2.09396 0
M  V30 915 H 86.2729 -5.26379 2.88176 0
M  V30 916 H 87.3429 -3.85169 2.94572 0
M  V30 917 N 88.686 -0.835752 -1.33615 0
M  V30 918 C 90.102 -0.523139 -1.50783 0
M  V30 919 C 90.302 0.950171 -1.77691 0
M  V30 920 O 89.358 1.73411 -1.83534 0
M  V30 921 C 90.671 -1.39378 -2.66448 0
M  V30 922 C 92.219 -1.39223 -2.80332 0
M  V30 923 C 92.694 -2.24765 -3.99055 0
M  V30 924 N 94.185 -2.22458 -4.06284 0
M  V30 925 C 94.92 -2.85386 -4.97336 0
M  V30 926 N 94.416 -3.57354 -5.93523 0
M  V30 927 N 96.209 -2.74872 -4.90308 0
M  V30 928 H 88.36 -1.78952 -1.14411 0
M  V30 929 H 90.623 -0.763297 -0.562212 0
M  V30 930 H 90.329 -2.44061 -2.53234 0
M  V30 931 H 90.203 -1.0676 -3.61776 0
M  V30 932 H 92.59 -0.353136 -2.92979 0
M  V30 933 H 92.671 -1.75846 -1.85773 0
M  V30 934 H 92.315 -3.28732 -3.87167 0
M  V30 935 H 92.245 -1.85485 -4.92852 0
M  V30 936 H 94.736 -1.70119 -3.37443 0
M  V30 937 H 95.049 -4.02584 -6.59656 0
M  V30 938 H 93.394 -3.61461 -5.93608 0
M  V30 939 H 96.585 -2.18213 -4.14126 0
M  V30 940 H 96.758 -3.24199 -5.61069 0
M  V30 941 N 90.1641 1.46063 -0.591896 0
M  V30 942 C 91.4131 2.01547 -0.0786637 0
M  V30 943 C 91.7261 1.46796 1.29268 0
M  V30 944 O 92.9321 1.94157 1.89777 0
M  V30 945 C 91.3881 3.59787 -0.0900024 0
M  V30 946 C 90.9961 4.23534 -1.46023 0
M  V30 947 C 92.7401 4.22895 0.368806 0
M  V30 948 C 90.6471 5.73881 -1.4288 0
M  V30 949 H 89.5771 0.753564 -0.0256388 0
M  V30 950 H 92.2281 1.677 -0.744905 0
M  V30 951 H 90.6101 3.90752 0.642586 0
M  V30 952 H 91.7841 4.04167 -2.21328 0
M  V30 953 H 90.0991 3.72558 -1.85982 0
M  V30 954 H 92.6961 5.33116 0.411258 0
M  V30 955 H 93.0391 3.9247 1.38827 0
M  V30 956 H 93.5721 3.9659 -0.31001 0
M  V30 957 H 90.3111 6.0898 -2.42536 0
M  V30 958 H 89.8311 5.95486 -0.718095 0
M  V30 959 H 91.5101 6.36776 -1.14565 0
M  V30 960 N 91.6422 0.330177 1.54103 0
M  V30 961 C 93.0582 -0.0222371 1.59585 0
M  V30 962 C 93.2582 -1.49902 1.34654 0
M  V30 963 O 92.3142 -2.25592 1.13421 0
M  V30 964 C 93.6272 0.401932 2.98002 0
M  V30 965 C 95.1752 0.353145 3.11001 0
M  V30 966 C 95.6502 0.752576 4.51775 0
M  V30 967 N 97.1412 0.706239 4.57784 0
M  V30 968 C 97.8762 0.987417 5.64834 0
M  V30 969 N 97.3722 1.33607 6.79795 0
M  V30 970 N 99.1652 0.91254 5.54643 0
M  V30 971 H 91.3162 1.29228 1.68564 0
M  V30 972 H 93.5792 0.525906 0.78875 0
M  V30 973 H 93.2852 1.4311 3.21267 0
M  V30 974 H 93.1592 -0.229699 3.765 0
M  V30 975 H 95.5462 -0.666822 2.87467 0
M  V30 976 H 95.6272 1.0198 2.34593 0
M  V30 977 H 95.2712 1.77049 4.76042 0
M  V30 978 H 95.2012 0.0635409 5.26562 0
M  V30 979 H 97.6922 0.44889 3.75224 0
M  V30 980 H 98.0052 1.53582 7.57385 0
M  V30 981 H 96.3502 1.37439 6.81275 0
M  V30 982 H 99.5412 0.639601 4.6371 0
M  V30 983 H 99.7142 1.13503 6.37982 0
M  V30 984 N 93.1203 -1.57491 0.0584922 0
M  V30 985 C 94.0833 -2.1085 -0.898617 0
M  V30 986 C 95.0833 -1.02964 -1.23511 0
M  V30 987 O 96.2733 -1.29007 -1.17059 0
M  V30 988 C 93.4053 -2.59881 -2.20623 0
M  V30 989 H 94.5983 -2.96715 -0.435936 0
M  V30 990 H 92.1513 -1.55141 -0.190023 0
M  V30 991 H 92.8863 -1.77431 -2.71457 0
M  V30 992 H 92.6713 -3.38727 -1.97501 0
M  V30 993 H 94.1613 -3.01285 -2.89166 0
M  V30 994 N 94.5984 0.214957 -1.56127 0
M  V30 995 C 95.8754 0.963093 -1.70247 0
M  V30 996 C 96.2554 2.02166 -0.60764 0
M  V30 997 O 95.6034 2.25244 0.384385 0
M  V30 998 C 95.8134 1.56756 -3.11815 0
M  V30 999 C 97.1614 2.0573 -3.7143 0
M  V30 1000 O 98.1854 1.66637 -3.14818 0
M  V30 1001 O 97.0444 2.77603 -4.70743 0
M  V30 1002 H 94.1384 0.450321 -0.693643 0
M  V30 1003 H 96.6844 0.206219 -1.68442 0
M  V30 1004 H 95.4564 0.803533 -3.82961 0
M  V30 1005 H 95.0794 2.3898 -3.17765 0
M  V30 1006 N 96.0765 1.50051 0.48192 0
M  V30 1007 C 97.3245 1.60181 1.23234 0
M  V30 1008 C 97.6455 0.299176 1.92691 0
M  V30 1009 O 96.9155 -0.682708 1.83619 0
M  V30 1010 H 95.4955 0.590232 0.457859 0
M  V30 1011 H 98.1575 1.86775 0.556881 0
M  V30 1012 H 97.2535 2.40753 1.98607 0
M  V30 1013 N 97.5546 -0.734337 1.39446 0
M  V30 1014 C 98.8006 -1.49613 1.36908 0
M  V30 1015 C 99.1336 -1.94169 -0.0347829 0
M  V30 1016 O 98.4086 -1.66833 -0.999847 0
M  V30 1017 C 98.6916 -2.73534 2.34203 0
M  V30 1018 C 98.5446 -2.34993 3.83534 0
M  V30 1019 C 99.8636 -3.75635 2.29317 0
M  V30 1020 H 96.9826 -0.542714 0.498629 0
M  V30 1021 H 99.6246 -0.839597 1.70443 0
M  V30 1022 H 97.7746 -3.29553 2.05736 0
M  V30 1023 H 99.4466 -1.84601 4.22753 0
M  V30 1024 H 97.6896 -1.67213 4.00278 0
M  V30 1025 H 98.3606 -3.23738 4.47099 0
M  V30 1026 H 100.837 -3.29203 2.54489 0
M  V30 1027 H 99.7126 -4.60008 2.99472 0
M  V30 1028 H 99.9736 -4.22603 1.29842 0
M  V30 1029 N 99.0327 -1.24633 -0.964593 0
M  V30 1030 C 100.279 -1.08949 -1.71049 0
M  V30 1031 C 100.612 0.370302 -1.90637 0
M  V30 1032 O 99.8867 1.27349 -1.47011 0
M  V30 1033 C 100.17 -1.83329 -3.0994 0
M  V30 1034 C 100.023 -3.37077 -2.97824 0
M  V30 1035 C 101.342 -1.60846 -4.09654 0
M  V30 1036 H 98.4607 -0.397178 -0.620821 0
M  V30 1037 H 101.103 -1.5334 -1.12191 0
M  V30 1038 H 99.2527 -1.45597 -3.60186 0
M  V30 1039 H 100.925 -3.84425 -2.5498 0
M  V30 1040 H 99.1677 -3.65298 -2.33965 0
M  V30 1041 H 99.8387 -3.84324 -3.96231 0
M  V30 1042 H 102.315 -1.93674 -3.68279 0
M  V30 1043 H 101.191 -2.1534 -5.04896 0
M  V30 1044 H 101.452 -0.547434 -4.38698 0
M  V30 1045 N 100.511 1.16574 -1.06058 0
M  V30 1046 C 101.788 1.83048 -0.689416 0
M  V30 1047 C 102.168 1.94122 0.829443 0
M  V30 1048 O 101.516 1.48249 1.7388 0
M  V30 1049 C 101.726 3.20186 -1.38859 0
M  V30 1050 C 103.074 3.95989 -1.53226 0
M  V30 1051 O 104.098 3.29696 -1.3483 0
M  V30 1052 O 102.957 5.14813 -1.83384 0
M  V30 1053 H 100.051 0.790258 -0.243764 0
M  V30 1054 H 102.597 1.23797 -1.16071 0
M  V30 1055 H 101.369 3.07146 -2.4244 0
M  V30 1056 H 100.992 3.87112 -0.907216 0
M  V30 1057 N 101.989 0.842826 1.3317 0
M  V30 1058 C 103.229 0.446574 1.99462 0
M  V30 1059 C 103.593 -0.976818 1.65295 0
M  V30 1060 O 104.794 -1.477 2.24584 0
M  V30 1061 C 103.065 0.665353 3.51152 0
M  V30 1062 S 104.624 0.364911 4.3728 0
M  V30 1063 H 101.442 0.167803 0.690915 0
M  V30 1064 H 104.044 1.09297 1.62094 0
M  V30 1065 H 102.748 1.7006 3.73507 0
M  V30 1066 H 102.279 0.00494568 3.934 0
M  V30 1067 H 104.294 -0.813761 4.89482 0
M  V30 1068 N 103.467 -1.45747 0.599634 0
M  V30 1069 C 104.43 -2.28917 -0.113835 0
M  V30 1070 C 105.43 -1.3933 -0.802729 0
M  V30 1071 O 106.62 -1.61534 -0.652103 0
M  V30 1072 C 103.752 -3.20152 -1.17114 0
M  V30 1073 H 104.945 -2.93478 0.617289 0
M  V30 1074 H 102.498 -1.52137 0.358327 0
M  V30 1075 H 103.233 -2.60374 -1.93329 0
M  V30 1076 H 103.018 -3.86133 -0.681468 0
M  V30 1077 H 104.508 -3.82708 -1.67105 0
M  V30 1078 N 104.945 -0.338344 -1.53925 0
M  V30 1079 C 106.361 0.0137736 -1.59594 0
M  V30 1080 C 106.561 1.49186 -1.35447 0
M  V30 1081 O 105.617 2.24987 -1.14616 0
M  V30 1082 C 106.93 -0.41773 -2.97784 0
M  V30 1083 C 108.478 -0.369633 -3.1081 0
M  V30 1084 C 108.953 -0.776524 -4.51369 0
M  V30 1085 N 110.444 -0.730506 -4.57403 0
M  V30 1086 C 111.179 -1.01736 -5.64303 0
M  V30 1087 N 110.675 -1.3721 -6.79077 0
M  V30 1088 N 112.468 -0.941942 -5.54151 0
M  V30 1089 H 104.619 -1.3012 -1.67876 0
M  V30 1090 H 106.882 -0.530082 -0.78595 0
M  V30 1091 H 106.588 -1.44811 -3.20504 0
M  V30 1092 H 106.462 0.209729 -3.76616 0
M  V30 1093 H 108.849 0.651568 -2.87817 0
M  V30 1094 H 108.93 -1.03223 -2.34049 0
M  V30 1095 H 108.574 -1.79571 -4.75096 0
M  V30 1096 H 108.504 -0.0914649 -5.26521 0
M  V30 1097 H 110.995 -0.468783 -3.74981 0
M  V30 1098 H 111.308 -1.57597 -7.5656 0
M  V30 1099 H 109.653 -1.4105 -6.80536 0
M  V30 1100 H 112.844 -0.664184 -4.63364 0
M  V30 1101 H 113.017 -1.16884 -6.37371 0
M  V30 1102 N 106.423 1.57458 -0.0668435 0
M  V30 1103 C 107.671 1.92919 0.602214 0
M  V30 1104 C 107.992 0.947215 1.70449 0
M  V30 1105 O 107.262 -0.00544117 1.95899 0
M  V30 1106 H 105.842 0.71217 0.22544 0
M  V30 1107 H 108.504 1.94508 -0.123535 0
M  V30 1108 H 107.6 2.94589 1.03073 0
M  V30 1109 N 107.901 -0.206675 1.56239 0
M  V30 1110 C 108.833 -1.27997 1.9013 0
M  V30 1111 C 109.846 -1.42299 0.790883 0
M  V30 1112 O 111.035 -1.42931 1.06925 0
M  V30 1113 C 108.135 -2.65368 2.10792 0
M  V30 1114 C 107.308 -2.72824 3.41886 0
M  V30 1115 C 106.367 -3.9131 3.51799 0
M  V30 1116 O 105.393 -3.78953 4.24716 0
M  V30 1117 N 106.595 -5.06265 2.84035 0
M  V30 1118 H 109.36 -0.992444 2.82791 0
M  V30 1119 H 106.921 -0.396652 1.56966 0
M  V30 1120 H 108.913 -3.43039 2.14724 0
M  V30 1121 H 107.483 -2.86657 1.24685 0
M  V30 1122 H 106.703 -1.81515 3.49923 0
M  V30 1123 H 107.991 -2.74786 4.28217 0
M  V30 1124 H 107.389 -5.19203 2.246 0
M  V30 1125 H 105.946 -5.81925 2.93609 0
M  V30 1126 N 109.379 -1.50304 -0.473955 0
M  V30 1127 C 110.604 -1.65175 -1.25427 0
M  V30 1128 C 111.029 -0.333673 -1.85117 0
M  V30 1129 O 110.387 0.702114 -1.67153 0
M  V30 1130 C 110.435 -2.74295 -2.34082 0
M  V30 1131 O 109.539 -2.35349 -3.38651 0
M  V30 1132 H 108.88 -0.551944 -0.369126 0
M  V30 1133 H 111.41 -1.96662 -0.564364 0
M  V30 1134 H 111.42 -2.97285 -2.79438 0
M  V30 1135 H 110.095 -3.69959 -1.90008 0
M  V30 1136 H 108.672 -2.22794 -2.99027 0
M  V30 1137 N 110.857 0.726932 -1.39834 0
M  V30 1138 C 111.82 1.82269 -1.38962 0
M  V30 1139 C 112.82 1.58248 -0.285334 0
M  V30 1140 O 114.01 1.65499 -0.54366 0
M  V30 1141 C 111.142 3.20186 -1.17019 0
M  V30 1142 H 112.335 1.84443 -2.36476 0
M  V30 1143 H 109.888 0.931416 -1.25516 0
M  V30 1144 H 110.623 3.23669 -0.202204 0
M  V30 1145 H 110.408 3.3902 -1.96998 0
M  V30 1146 H 111.898 4.00235 -1.1917 0
M  V30 1147 N 112.336 1.25143 0.95797 0
M  V30 1148 C 113.286 1.01924 2.0395 0
M  V30 1149 C 114.27 -0.0427175 1.60843 0
M  V30 1150 O 115.462 0.17221 1.7616 0
M  V30 1151 C 112.591 0.636373 3.3735 0
M  V30 1152 C 111.677 1.73492 3.8699 0
M  V30 1153 N 112.068 2.96945 4.0946 0
M  V30 1154 C 110.366 1.61467 4.15746 0
M  V30 1155 C 111.067 3.68228 4.50315 0
M  V30 1156 N 110.043 2.95833 4.56053 0
M  V30 1157 H 113.845 1.95653 2.19311 0
M  V30 1158 H 111.359 1.15413 1.14253 0
M  V30 1159 H 113.356 0.451233 4.14451 0
M  V30 1160 H 112.016 -0.293621 3.2337 0
M  V30 1161 H 113.027 3.33025 3.96629 0
M  V30 1162 H 109.704 0.753394 4.10646 0
M  V30 1163 H 111.094 4.74178 4.76031 0
M  V30 1164 N 113.814 -1.1601 1.06675 0
M  V30 1165 C 115.039 -1.91068 0.806706 0
M  V30 1166 C 115.464 -1.77112 -0.633485 0
M  V30 1167 O 114.822 -1.09908 -1.44187 0
M  V30 1168 C 114.87 -3.39655 1.21106 0
M  V30 1169 O 113.974 -4.10893 0.352189 0
M  V30 1170 H 113.315 -0.595125 0.294486 0
M  V30 1171 H 115.845 -1.46955 1.42356 0
M  V30 1172 H 115.855 -3.90434 1.18428 0
M  V30 1173 H 114.53 -3.49132 2.26008 0
M  V30 1174 H 113.107 -3.70285 0.440868 0
M  V30 1175 N 115.292 -0.849877 -1.32721 0
M  V30 1176 C 116.222 -0.306308 -2.31482 0
M  V30 1177 C 117.203 0.591952 -1.59468 0
M  V30 1178 O 118.388 0.513199 -1.87296 0
M  V30 1179 C 115.518 0.510204 -3.43532 0
M  V30 1180 C 114.472 -0.293209 -4.26994 0
M  V30 1181 C 113.798 0.647743 -5.30762 0
M  V30 1182 C 115.098 -1.51634 -4.99804 0
M  V30 1183 H 116.792 -1.13153 -2.77195 0
M  V30 1184 H 114.338 -0.545553 -1.33266 0
M  V30 1185 H 116.291 0.900856 -4.11658 0
M  V30 1186 H 115.015 1.36874 -2.96535 0
M  V30 1187 H 113.674 -0.665555 -3.60508 0
M  V30 1188 H 113.322 1.50299 -4.8002 0
M  V30 1189 H 113.022 0.11422 -5.87489 0
M  V30 1190 H 114.546 1.03567 -6.01753 0
M  V30 1191 H 115.96 -1.19824 -5.60638 0
M  V30 1192 H 114.357 -1.98745 -5.66234 0
M  V30 1193 H 115.427 -2.28018 -4.27943 0
M  V30 1194 N 116.77 1.45427 -0.607355 0
M  V30 1195 C 117.7 2.3329 0.0989352 0
M  V30 1196 C 118.681 1.46816 0.859007 0
M  V30 1197 O 119.866 1.75588 0.829604 0
M  V30 1198 C 116.996 3.29518 1.09705 0
M  V30 1199 C 115.95 4.25626 0.450206 0
M  V30 1200 C 115.276 5.11542 1.55655 0
M  V30 1201 C 116.576 5.18505 -0.628455 0
M  V30 1202 H 118.27 2.92595 -0.634716 0
M  V30 1203 H 115.816 1.40696 -0.306681 0
M  V30 1204 H 117.769 3.89855 1.59971 0
M  V30 1205 H 116.493 2.68372 1.86129 0
M  V30 1206 H 115.152 3.66586 -0.0315886 0
M  V30 1207 H 114.8 4.46765 2.31107 0
M  V30 1208 H 114.5 5.76647 1.12925 0
M  V30 1209 H 116.024 5.74748 2.06148 0
M  V30 1210 H 117.438 5.72916 -0.209877 0
M  V30 1211 H 115.835 5.92085 -0.977489 0
M  V30 1212 H 116.905 4.60948 -1.50514 0
M  V30 1213 N 118.248 0.346503 1.53744 0
M  V30 1214 C 119.158 -0.517293 2.28826 0
M  V30 1215 C 120.174 -1.10935 1.3405 0
M  V30 1216 O 121.35 -1.1244 1.6709 0
M  V30 1217 C 118.415 -1.65098 3.04866 0
M  V30 1218 C 117.476 -1.0884 4.15274 0
M  V30 1219 C 116.709 -2.16806 4.87679 0
M  V30 1220 O 116.932 -3.3758 4.59778 0
M  V30 1221 O 115.866 -1.80934 5.74061 0
M  V30 1222 H 119.692 0.0931396 3.03557 0
M  V30 1223 H 117.277 0.111458 1.48984 0
M  V30 1224 H 119.159 -2.31053 3.5241 0
M  V30 1225 H 117.834 -2.24717 2.32989 0
M  V30 1226 H 116.741 -0.3933 3.72027 0
M  V30 1227 H 118.074 -0.537036 4.89261 0
M  V30 1228 N 119.726 -1.57421 0.075193 0
M  V30 1229 C 120.975 -1.92794 -0.592731 0
M  V30 1230 C 121.288 -0.957478 -1.70563 0
M  V30 1231 O 122.494 -1.20417 -2.43335 0
M  V30 1232 C 120.95 -3.42495 -1.10569 0
M  V30 1233 C 120.558 -4.47994 -0.0236121 0
M  V30 1234 C 122.302 -3.86864 -1.74748 0
M  V30 1235 C 120.209 -5.88829 -0.550803 0
M  V30 1236 H 119.139 -0.719591 -0.225177 0
M  V30 1237 H 121.79 -1.82902 0.147978 0
M  V30 1238 H 120.172 -3.47471 -1.89947 0
M  V30 1239 H 121.346 -4.54637 0.751099 0
M  V30 1240 H 119.661 -4.13113 0.522159 0
M  V30 1241 H 122.258 -4.8947 -2.15229 0
M  V30 1242 H 122.601 -3.24417 -2.60882 0
M  V30 1243 H 123.134 -3.84504 -1.01986 0
M  V30 1244 H 119.873 -6.54929 0.273457 0
M  V30 1245 H 119.393 -5.85698 -1.29296 0
M  V30 1246 H 121.072 -6.38811 -1.02613 0
M  V30 1247 N 121.204 0.198386 -1.56346 0
M  V30 1248 C 122.151 1.24589 -1.94284 0
M  V30 1249 C 123.121 1.454 -0.802997 0
M  V30 1250 O 124.306 1.58588 -1.06087 0
M  V30 1251 C 121.446 2.58631 -2.28482 0
M  V30 1252 C 120.559 2.45426 -3.55514 0
M  V30 1253 C 119.694 3.7215 -3.79049 0
M  V30 1254 C 118.733 3.53763 -4.99518 0
M  V30 1255 N 117.87 4.72491 -5.19323 0
M  V30 1256 H 122.71 0.915356 -2.83593 0
M  V30 1257 H 120.247 0.440629 -1.40346 0
M  V30 1258 H 122.205 3.3672 -2.46324 0
M  V30 1259 H 120.835 2.89734 -1.42317 0
M  V30 1260 H 119.887 1.58652 -3.45737 0
M  V30 1261 H 121.199 2.27772 -4.43758 0
M  V30 1262 H 120.353 4.58679 -3.97113 0
M  V30 1263 H 119.092 3.92754 -2.89129 0
M  V30 1264 H 118.097 2.65619 -4.8138 0
M  V30 1265 H 119.322 3.34607 -5.90944 0
M  V30 1266 H 117.268 4.93365 -4.3235 0
M  V30 1267 H 117.185 4.5765 -6.01741 0
M  V30 1268 H 118.453 5.6038 -5.41843 0
M  V30 1269 N 122.682 1.50554 0.465978 0
M  V30 1270 C 123.645 1.69233 1.54574 0
M  V30 1271 C 124.645 0.562901 1.50626 0
M  V30 1272 O 125.835 0.830016 1.53155 0
M  V30 1273 C 122.967 1.7223 2.94193 0
M  V30 1274 H 124.16 2.65571 1.39327 0
M  V30 1275 H 121.713 1.40111 0.692711 0
M  V30 1276 H 122.448 0.77603 3.14878 0
M  V30 1277 H 122.233 2.54285 2.98466 0
M  V30 1278 H 123.723 1.88618 3.72576 0
M  V30 1279 N 124.16 -0.719506 1.40217 0
M  V30 1280 C 125.406 -1.48152 1.38488 0
M  V30 1281 C 125.739 -1.94195 -0.0141867 0
M  V30 1282 O 125.014 -1.67884 -0.982096 0
M  V30 1283 C 125.297 -2.71035 2.37091 0
M  V30 1284 C 125.15 -2.30912 3.86005 0
M  V30 1285 C 126.469 -3.73182 2.33288 0
M  V30 1286 H 123.588 -0.537395 0.504357 0
M  V30 1287 H 126.23 -0.821472 1.71324 0
M  V30 1288 H 124.38 -3.27352 2.0922 0
M  V30 1289 H 126.052 -1.80107 4.24687 0
M  V30 1290 H 124.295 -1.62958 4.02029 0
M  V30 1291 H 124.966 -3.18978 4.50508 0
M  V30 1292 H 127.442 -3.26485 2.57966 0
M  V30 1293 H 126.318 -4.56806 3.04334 0
M  V30 1294 H 126.579 -4.21202 1.34317 0
M  V30 1295 N 125.638 -1.25649 -0.95132 0
M  V30 1296 C 126.601 -1.06399 -2.03007 0
M  V30 1297 C 127.601 -0.0156794 -1.60792 0
M  V30 1298 O 128.791 -0.25817 -1.72276 0
M  V30 1299 C 125.923 -0.616184 -3.35285 0
M  V30 1300 H 127.116 -2.02164 -2.21517 0
M  V30 1301 H 124.669 -1.08103 -1.12887 0
M  V30 1302 H 125.404 0.343917 -3.22471 0
M  V30 1303 H 125.189 -1.37301 -3.67275 0
M  V30 1304 H 126.679 -0.503032 -4.14559 0
M  V30 1305 N 127.117 1.15442 -1.07289 0
M  V30 1306 C 128.047 2.22312 -0.714107 0
M  V30 1307 C 129.028 1.67467 0.298155 0
M  V30 1308 O 130.213 1.93445 0.171048 0
M  V30 1309 C 127.343 3.47124 -0.110448 0
M  V30 1310 C 126.297 4.14926 -1.04979 0
M  V30 1311 C 125.623 5.33807 -0.308924 0
M  V30 1312 C 126.923 4.64762 -2.38314 0
M  V30 1313 H 128.617 2.5258 -1.6076 0
M  V30 1314 H 126.163 1.21404 -0.77441 0
M  V30 1315 H 128.116 4.21124 0.152482 0
M  V30 1316 H 126.84 3.16187 0.81812 0
M  V30 1317 H 125.499 3.42866 -1.29764 0
M  V30 1318 H 125.147 4.99126 0.623084 0
M  V30 1319 H 124.847 5.80113 -0.935036 0
M  V30 1320 H 126.371 6.10576 -0.0537771 0
M  V30 1321 H 127.785 5.30292 -2.1786 0
M  V30 1322 H 126.182 5.21728 -2.96514 0
M  V30 1323 H 127.252 3.80434 -3.00663 0
M  V30 1324 N 128.595 0.856903 1.32268 0
M  V30 1325 C 130.011 0.547061 1.49931 0
M  V30 1326 C 130.211 -0.921781 1.7918 0
M  V30 1327 O 129.267 -1.70469 1.8627 0
M  V30 1328 C 130.58 1.43599 2.64196 0
M  V30 1329 C 132.128 1.43665 2.78081 0
M  V30 1330 C 132.603 2.31085 3.95428 0
M  V30 1331 N 134.094 2.28893 4.02694 0
M  V30 1332 C 134.829 2.93262 4.92732 0
M  V30 1333 N 134.325 3.66751 5.87763 0
M  V30 1334 N 136.118 2.82638 4.85873 0
M  V30 1335 H 128.269 1.8075 1.11549 0
M  V30 1336 H 130.532 0.772144 0.549997 0
M  V30 1337 H 130.238 2.48058 2.49319 0
M  V30 1338 H 130.112 1.12502 3.60032 0
M  V30 1339 H 132.499 0.399701 2.92381 0
M  V30 1340 H 132.58 1.7878 1.82952 0
M  V30 1341 H 132.224 3.34849 3.81888 0
M  V30 1342 H 132.154 1.93302 4.89839 0
M  V30 1343 H 134.645 1.75466 3.34694 0
M  V30 1344 H 134.958 4.13027 6.53168 0
M  V30 1345 H 133.303 3.70859 5.87783 0
M  V30 1346 H 136.494 2.24774 4.10602 0
M  V30 1347 H 136.667 3.33084 5.55841 0
M  V30 1348 N 130.073 -1.45103 0.615059 0
M  V30 1349 C 131.301 -2.06553 0.11977 0
M  V30 1350 C 131.716 -1.45842 -1.19898 0
M  V30 1351 O 131.073 -0.575325 -1.73194 0
M  V30 1352 C 131.124 -3.61495 -0.018364 0
M  V30 1353 O 130.845 -4.19942 1.24822 0
M  V30 1354 C 132.346 -4.39947 -0.544237 0
M  V30 1355 H 129.566 -0.667096 0.0722739 0
M  V30 1356 H 132.11 -1.8623 0.84491 0
M  V30 1357 H 130.265 -3.81135 -0.693865 0
M  V30 1358 H 130.679 -5.13204 1.0827 0
M  V30 1359 H 132.153 -5.48838 -0.589953 0
M  V30 1360 H 132.63 -4.10255 -1.56805 0
M  V30 1361 H 133.236 -4.25188 0.0974703 0
M  V30 1362 N 131.551 -0.354651 -1.53558 0
M  V30 1363 C 132.797 0.238797 -2.01389 0
M  V30 1364 C 133.13 1.49309 -1.2418 0
M  V30 1365 O 132.405 1.91638 -0.332457 0
M  V30 1366 C 132.688 0.541771 -3.56001 0
M  V30 1367 C 132.541 -0.725388 -4.43912 0
M  V30 1368 C 133.86 1.34685 -4.18984 0
M  V30 1369 H 130.979 0.0853177 -0.732045 0
M  V30 1370 H 133.621 -0.477384 -1.83905 0
M  V30 1371 H 131.771 1.15189 -3.71031 0
M  V30 1372 H 133.443 -1.36313 -4.407 0
M  V30 1373 H 131.686 -1.34801 -4.12324 0
M  V30 1374 H 132.357 -0.468505 -5.50008 0
M  V30 1375 H 134.833 0.830837 -4.07721 0
M  V30 1376 H 133.709 1.52759 -5.27215 0
M  V30 1377 H 133.97 2.35221 -3.74331 0
M  V30 1378 N 133.029 1.57378 -0.0835403 0
M  V30 1379 C 133.992 2.12252 0.864959 0
M  V30 1380 C 134.992 1.04916 1.21858 0
M  V30 1381 O 136.182 1.30853 1.14991 0
M  V30 1382 C 133.314 2.63358 2.16461 0
M  V30 1383 H 134.507 2.97371 0.388676 0
M  V30 1384 H 132.06 1.55423 0.165317 0
M  V30 1385 H 132.795 1.81727 2.686 0
M  V30 1386 H 132.58 3.41826 1.92087 0
M  V30 1387 H 134.07 3.05847 2.84337 0
M  V30 1388 N 134.507 -0.190092 1.56449 0
M  V30 1389 C 135.756 -0.907912 1.80111 0
M  V30 1390 C 136.069 -1.84214 0.657619 0
M  V30 1391 O 137.275 -2.60094 0.778663 0
M  V30 1392 C 135.731 -1.66485 3.19078 0
M  V30 1393 C 135.339 -0.7752 4.41242 0
M  V30 1394 C 137.083 -2.37201 3.52045 0
M  V30 1395 C 134.99 -1.53129 5.71231 0
M  V30 1396 H 133.92 -0.34276 0.671589 0
M  V30 1397 H 136.571 -0.161109 1.82791 0
M  V30 1398 H 134.953 -2.45572 3.10661 0
M  V30 1399 H 136.127 -0.0226298 4.60794 0
M  V30 1400 H 134.442 -0.178627 4.16017 0
M  V30 1401 H 137.039 -2.94329 4.46402 0
M  V30 1402 H 137.382 -3.11632 2.76028 0
M  V30 1403 H 137.915 -1.65075 3.61932 0
M  V30 1404 H 134.654 -0.82967 6.50228 0
M  V30 1405 H 134.174 -2.25767 5.55688 0
M  V30 1406 H 135.853 -2.08377 6.12526 0
M  V30 1407 N 135.985 -1.50799 -0.457987 0
M  V30 1408 C 136.932 -1.70617 -1.5543 0
M  V30 1409 C 137.902 -0.547562 -1.56815 0
M  V30 1410 O 139.087 -0.779647 -1.74144 0
M  V30 1411 C 136.227 -1.81831 -2.93311 0
M  V30 1412 C 135.34 -3.09278 -3.01615 0
M  V30 1413 C 134.475 -3.11209 -4.30491 0
M  V30 1414 C 133.514 -4.33055 -4.32585 0
M  V30 1415 N 132.651 -4.32652 -5.52952 0
M  V30 1416 H 137.491 -2.64207 -1.37836 0
M  V30 1417 H 135.028 -1.30959 -0.669937 0
M  V30 1418 H 136.986 -1.86314 -3.73287 0
M  V30 1419 H 135.616 -0.916685 -3.0951 0
M  V30 1420 H 134.668 -3.14203 -2.1443 0
M  V30 1421 H 135.98 -3.99233 -2.99022 0
M  V30 1422 H 135.134 -3.14494 -5.18824 0
M  V30 1423 H 133.873 -2.19106 -4.35711 0
M  V30 1424 H 132.878 -4.29969 -3.42647 0
M  V30 1425 H 134.103 -5.264 -4.29046 0
M  V30 1426 H 132.049 -3.43409 -5.58933 0
M  V30 1427 H 131.966 -5.16392 -5.52155 0
M  V30 1428 H 133.234 -4.40101 -6.43375 0
M  V30 1429 N 137.463 0.71206 -1.40597 0
M  V30 1430 C 138.711 1.46907 -1.38791 0
M  V30 1431 C 139.032 1.94998 0.00780391 0
M  V30 1432 O 138.302 1.70587 0.963174 0
M  V30 1433 H 136.882 0.545043 -0.51082 0
M  V30 1434 H 139.544 0.843882 -1.75683 0
M  V30 1435 H 138.64 2.34021 -2.06496 0
M  V30 1436 N 138.941 1.26152 0.944643 0
M  V30 1437 C 140.187 1.11657 1.69294 0
M  V30 1438 C 140.52 -0.339926 1.91202 0
M  V30 1439 O 139.795 -1.24994 1.49019 0
M  V30 1440 C 140.078 1.88236 3.06984 0
M  V30 1441 C 139.931 3.41772 2.92424 0
M  V30 1442 C 141.25 1.67343 4.07043 0
M  V30 1443 H 138.369 0.407004 0.614424 0
M  V30 1444 H 141.011 1.55106 1.09737 0
M  V30 1445 H 139.161 1.51308 3.57824 0
M  V30 1446 H 140.833 3.88433 2.48832 0
M  V30 1447 H 139.076 3.68974 2.28124 0
M  V30 1448 H 139.747 3.90579 3.90067 0
M  V30 1449 H 142.223 1.99509 3.65151 0
M  V30 1450 H 141.099 2.23346 5.01406 0
M  V30 1451 H 141.36 0.617158 4.37771 0
M  V30 1452 N 140.419 -1.14872 1.07899 0
M  V30 1453 C 141.369 -2.17809 0.674027 0
M  V30 1454 C 142.353 -1.58008 -0.303699 0
M  V30 1455 O 143.545 -1.76616 -0.11654 0
M  V30 1456 C 140.674 -3.43208 0.0793318 0
M  V30 1457 C 139.76 -4.10051 1.08253 0
M  V30 1458 N 140.151 -4.52296 2.2641 0
M  V30 1459 C 138.449 -4.36469 0.917124 0
M  V30 1460 C 139.15 -5.04199 2.901 0
M  V30 1461 N 138.126 -4.98088 2.17736 0
M  V30 1462 H 141.928 -2.48207 1.57386 0
M  V30 1463 H 139.442 -1.315 0.952976 0
M  V30 1464 H 141.439 -4.16272 -0.228719 0
M  V30 1465 H 140.099 -3.14291 -0.815551 0
M  V30 1466 H 141.11 -4.45504 2.64096 0
M  V30 1467 H 137.787 -4.17432 0.0756078 0
M  V30 1468 H 139.177 -5.46802 3.90458 0
M  V30 1469 N 141.898 -0.863906 -1.31812 0
M  V30 1470 C 143.123 -0.48527 -2.01643 0
M  V30 1471 C 143.548 0.913058 -1.64453 0
M  V30 1472 O 142.906 1.6014 -0.849985 0
M  V30 1473 C 142.954 -0.642625 -3.54828 0
M  V30 1474 O 142.058 0.320659 -4.11151 0
M  V30 1475 H 141.399 -0.193793 -0.635091 0
M  V30 1476 H 143.929 -1.16565 -1.68148 0
M  V30 1477 H 143.939 -0.533628 -4.04495 0
M  V30 1478 H 142.614 -1.66227 -3.81237 0
M  V30 1479 H 141.191 0.167126 -3.72525 0
M  V30 1480 N 143.376 1.44774 -0.622745 0
M  V30 1481 C 144.622 2.0242 -0.124083 0
M  V30 1482 C 144.955 1.4881 1.24777 0
M  V30 1483 O 144.23 0.668799 1.8264 0
M  V30 1484 C 144.513 3.59957 -0.101619 0
M  V30 1485 C 144.366 4.23867 -1.50521 0
M  V30 1486 C 145.685 4.36284 0.578272 0
M  V30 1487 H 142.804 0.735528 -0.0465645 0
M  V30 1488 H 145.446 1.72447 -0.797617 0
M  V30 1489 H 143.596 3.85623 0.471934 0
M  V30 1490 H 145.268 4.09336 -2.12701 0
M  V30 1491 H 143.511 3.81684 -2.06154 0
M  V30 1492 H 144.182 5.32843 -1.4416 0
M  V30 1493 H 146.658 4.16001 0.0906057 0
M  V30 1494 H 145.534 5.46004 0.563149 0
M  V30 1495 H 145.795 4.10271 1.64713 0
M  V30 1496 N 144.854 0.36279 1.53368 0
M  V30 1497 C 146.27 0.0116182 1.59596 0
M  V30 1498 C 146.47 -1.47012 1.37803 0
M  V30 1499 O 145.526 -2.23136 1.18181 0
M  V30 1500 C 146.839 0.465052 2.97082 0
M  V30 1501 C 148.387 0.419033 3.10182 0
M  V30 1502 C 148.862 0.848235 4.50077 0
M  V30 1503 N 150.353 0.803183 4.56183 0
M  V30 1504 C 151.088 1.107 5.62613 0
M  V30 1505 N 150.584 1.47996 6.76808 0
M  V30 1506 N 152.377 1.02998 5.52583 0
M  V30 1507 H 144.528 1.32775 1.65785 0
M  V30 1508 H 146.791 0.542518 0.777417 0
M  V30 1509 H 146.497 1.49892 3.18159 0
M  V30 1510 H 146.371 -0.149786 3.76902 0
M  V30 1511 H 148.758 -0.605696 2.88817 0
M  V30 1512 H 148.839 1.06933 2.32377 0
M  V30 1513 H 148.483 1.87107 4.7218 0
M  V30 1514 H 148.413 0.175218 5.26308 0
M  V30 1515 H 150.904 0.52838 3.74188 0
M  V30 1516 H 151.217 1.69613 7.53957 0
M  V30 1517 H 149.562 1.51859 6.78206 0
M  V30 1518 H 152.753 0.737817 4.62249 0
M  V30 1519 H 152.926 1.2701 6.35431 0
M  V30 1520 N 146.332 -1.57332 0.0918853 0
M  V30 1521 C 147.562 -1.98286 -0.580205 0
M  V30 1522 C 147.97 -0.969713 -1.6246 0
M  V30 1523 O 147.313 0.0493501 -1.83634 0
M  V30 1524 C 147.375 -3.35603 -1.28882 0
M  V30 1525 C 147.039 -4.55285 -0.395559 0
M  V30 1526 C 148.036 -5.18687 0.355002 0
M  V30 1527 C 145.721 -5.01314 -0.314556 0
M  V30 1528 C 147.715 -6.26484 1.17458 0
M  V30 1529 C 145.402 -6.08979 0.508677 0
M  V30 1530 C 146.4 -6.71429 1.2519 0
M  V30 1531 O 146.088 -7.77018 2.06151 0
M  V30 1532 H 145.82 -0.656678 -0.160466 0
M  V30 1533 H 148.374 -2.04721 0.16688 0
M  V30 1534 H 146.604 -3.25842 -2.08241 0
M  V30 1535 H 148.293 -3.61026 -1.85512 0
M  V30 1536 H 149.059 -4.84058 0.302134 0
M  V30 1537 H 144.938 -4.5247 -0.882697 0
M  V30 1538 H 148.482 -6.75159 1.75518 0
M  V30 1539 H 144.379 -6.4304 0.563037 0
M  V30 1540 H 145.147 -7.93991 1.98799 0
M  V30 1541 N 147.81 0.181792 -1.56548 0
M  V30 1542 C 148.74 1.22765 -1.98623 0
M  V30 1543 C 149.721 1.46747 -0.860189 0
M  V30 1544 O 150.906 1.58259 -1.12551 0
M  V30 1545 C 148.036 2.56894 -2.33715 0
M  V30 1546 C 146.99 2.475 -3.49182 0
M  V30 1547 C 146.316 3.86023 -3.69986 0
M  V30 1548 C 147.616 1.98866 -4.82959 0
M  V30 1549 H 149.31 0.877942 -2.86239 0
M  V30 1550 H 146.856 0.42088 -1.37712 0
M  V30 1551 H 148.809 3.30253 -2.61746 0
M  V30 1552 H 147.533 2.93632 -1.42997 0
M  V30 1553 H 146.192 1.76596 -3.21262 0
M  V30 1554 H 145.84 4.20136 -2.76576 0
M  V30 1555 H 145.54 3.80609 -4.47672 0
M  V30 1556 H 147.064 4.60984 -4.00407 0
M  V30 1557 H 148.478 2.61992 -5.09934 0
M  V30 1558 H 146.875 2.04424 -5.64208 0
M  V30 1559 H 147.945 0.942465 -4.75653 0
M  V30 1560 N 149.288 1.51039 0.449983 0
M  V30 1561 C 150.528 1.64732 1.21007 0
M  V30 1562 C 150.892 0.349865 1.88785 0
M  V30 1563 O 152.093 0.362431 2.66345 0
M  V30 1564 C 150.364 2.80902 2.20973 0
M  V30 1565 S 151.923 3.14851 3.05638 0
M  V30 1566 H 148.741 0.5805 0.410538 0
M  V30 1567 H 151.343 1.88901 0.503634 0
M  V30 1568 H 150.047 3.73627 1.69796 0
M  V30 1569 H 149.578 2.58882 2.96215 0
M  V30 1570 H 151.593 2.60306 4.22439 0
M  V30 1571 N 150.766 -0.704594 1.40972 0
M  V30 1572 C 151.699 -1.82861 1.36518 0
M  V30 1573 C 152.677 -1.6091 0.23382 0
M  V30 1574 O 153.861 -1.83778 0.419271 0
M  V30 1575 C 150.988 -3.1939 1.12729 0
M  V30 1576 C 150.034 -3.60148 2.28463 0
M  V30 1577 S 150.867 -3.65994 3.90907 0
M  V30 1578 C 152.023 -5.05264 3.69403 0
M  V30 1579 H 152.256 -1.86361 2.3164 0
M  V30 1580 H 149.789 -0.872439 1.27389 0
M  V30 1581 H 151.747 -3.98211 0.996893 0
M  V30 1582 H 150.408 -3.1351 0.192427 0
M  V30 1583 H 149.601 -4.59309 2.07489 0
M  V30 1584 H 149.203 -2.88612 2.37863 0
M  V30 1585 H 151.495 -5.92504 3.28551 0
M  V30 1586 H 152.438 -5.31278 4.68134 0
M  V30 1587 H 152.846 -4.76377 3.02862 0
M  V30 1588 N 152.244 -1.26651 -0.937939 0
M  V30 1589 C 153.492 -1.12165 -1.68118 0
M  V30 1590 C 153.813 0.334983 -1.92101 0
M  V30 1591 O 153.083 1.23583 -1.52 0
M  V30 1592 H 151.663 -0.412093 -0.623048 0
M  V30 1593 H 154.325 -1.59027 -1.12678 0
M  V30 1594 H 153.421 -1.64289 -2.6536 0
M  V30 1595 N 153.722 1.14298 -1.08507 0
M  V30 1596 C 154.685 2.17607 -0.719711 0
M  V30 1597 C 155.685 1.58907 0.245997 0
M  V30 1598 O 156.875 1.74181 0.0254081 0
M  V30 1599 C 154.007 3.40842 -0.0627695 0
M  V30 1600 H 155.2 2.51443 -1.63452 0
M  V30 1601 H 152.753 1.28963 -0.88307 0
M  V30 1602 H 153.488 3.12587 0.863716 0
M  V30 1603 H 153.273 3.84713 -0.757504 0
M  V30 1604 H 154.763 4.17221 0.177786 0
M  V30 1605 N 155.201 0.870884 1.31352 0
M  V30 1606 C 156.478 0.402907 1.91405 0
M  V30 1607 C 156.858 -1.11512 1.79244 0
M  V30 1608 O 156.206 -1.94411 1.2007 0
M  V30 1609 C 156.416 0.885301 3.37585 0
M  V30 1610 C 157.764 0.911971 4.14691 0
M  V30 1611 O 158.788 0.831016 3.46371 0
M  V30 1612 O 157.647 1.02927 5.3672 0
M  V30 1613 H 154.741 0.120698 0.818145 0
M  V30 1614 H 157.287 0.958857 1.40014 0
M  V30 1615 H 156.059 1.92889 3.40455 0
M  V30 1616 H 155.682 0.307714 3.96407 0
M  V30 1617 N 156.679 -1.44442 0.630414 0
M  V30 1618 C 157.927 -2.01653 0.134351 0
M  V30 1619 C 158.248 -1.49836 -1.24796 0
M  V30 1620 O 157.518 -0.701684 -1.82902 0
M  V30 1621 H 156.098 -0.74554 0.0466769 0
M  V30 1622 H 158.76 -1.76952 0.816955 0
M  V30 1623 H 157.856 -3.11935 0.101498 0
M  V30 1624 N 158.157 -0.370918 -1.53173 0
M  V30 1625 C 159.104 0.473035 -2.259 0
M  V30 1626 C 160.074 1.07311 -1.26781 0
M  V30 1627 O 161.259 1.1046 -1.55574 0
M  V30 1628 C 158.399 1.60405 -3.05556 0
M  V30 1629 C 157.512 1.02863 -4.19575 0
M  V30 1630 C 156.647 2.12918 -4.86661 0
M  V30 1631 C 155.686 1.52869 -5.92704 0
M  V30 1632 N 154.823 2.56779 -6.53459 0
M  V30 1633 H 159.663 -0.153649 -2.97604 0
M  V30 1634 H 157.2 -0.0875946 -1.46839 0
M  V30 1635 H 159.158 2.27034 -3.50016 0
M  V30 1636 H 157.788 2.20131 -2.36097 0
M  V30 1637 H 156.84 0.252465 -3.79561 0
M  V30 1638 H 158.152 0.549642 -4.95762 0
M  V30 1639 H 157.306 2.87356 -5.34333 0
M  V30 1640 H 156.045 2.6417 -4.09958 0
M  V30 1641 H 155.05 0.769479 -5.44389 0
M  V30 1642 H 156.275 1.02435 -6.7133 0
M  V30 1643 H 154.221 3.07235 -5.79606 0
M  V30 1644 H 154.138 2.13583 -7.25202 0
M  V30 1645 H 155.406 3.30903 -7.05779 0
M  V30 1646 N 159.635 1.57281 -0.100228 0
M  V30 1647 C 160.568 2.09976 0.893612 0
M  V30 1648 C 161.546 1.01155 1.27304 0
M  V30 1649 O 162.73 1.28687 1.37739 0
M  V30 1650 C 159.857 2.58098 2.19324 0
M  V30 1651 C 158.903 3.78626 1.96328 0
M  V30 1652 S 159.736 5.21959 1.19662 0
M  V30 1653 C 160.892 5.73435 2.50844 0
M  V30 1654 H 161.125 2.93946 0.44534 0
M  V30 1655 H 158.658 1.53985 0.113167 0
M  V30 1656 H 160.616 2.8648 2.94005 0
M  V30 1657 H 159.277 1.74344 2.61272 0
M  V30 1658 H 158.47 4.10382 2.92579 0
M  V30 1659 H 158.072 3.50763 1.29775 0
M  V30 1660 H 160.364 5.82015 3.46792 0
M  V30 1661 H 161.307 6.7185 2.23659 0
M  V30 1662 H 161.715 5.01395 2.59352 0
M  V30 1663 N 161.113 -0.173488 1.56642 0
M  V30 1664 C 162.045 -1.23935 1.92802 0
M  V30 1665 C 163.058 -1.40589 0.820889 0
M  V30 1666 O 164.247 -1.40631 1.09933 0
M  V30 1667 C 161.347 -2.60837 2.16373 0
M  V30 1668 C 160.52 -2.6551 3.47596 0
M  V30 1669 C 159.579 -3.8376 3.60021 0
M  V30 1670 O 158.605 -3.69859 4.32658 0
M  V30 1671 N 159.807 -5.00127 2.94709 0
M  V30 1672 H 162.572 -0.932236 2.84832 0
M  V30 1673 H 160.133 -0.363268 1.57772 0
M  V30 1674 H 162.125 -3.38407 2.21952 0
M  V30 1675 H 160.695 -2.83948 1.30738 0
M  V30 1676 H 159.915 -1.74052 3.53694 0
M  V30 1677 H 161.203 -2.65641 4.33949 0
M  V30 1678 H 160.601 -5.14322 2.35563 0
M  V30 1679 H 159.158 -5.75567 3.05886 0
M  V30 1680 N 162.591 -1.51276 -0.441967 0
M  V30 1681 C 163.839 -1.63392 -1.18943 0
M  V30 1682 C 164.16 -0.350159 -1.9183 0
M  V30 1683 O 163.43 0.633784 -1.85364 0
M  V30 1684 H 162.01 -0.602164 -0.442049 0
M  V30 1685 H 164.672 -1.88186 -0.507165 0
M  V30 1686 H 163.768 -2.45934 -1.92154 0
M  V30 1687 N 164.069 0.697108 -1.41344 0
M  V30 1688 C 164.999 1.82353 -1.45841 0
M  V30 1689 C 165.98 1.67115 -0.317247 0
M  V30 1690 O 167.165 1.86871 -0.528474 0
M  V30 1691 C 164.295 3.20476 -1.33838 0
M  V30 1692 C 163.249 3.50415 -2.4575 0
M  V30 1693 C 162.575 4.87878 -2.18813 0
M  V30 1694 C 163.875 3.49546 -3.88091 0
M  V30 1695 H 165.569 1.78846 -2.40113 0
M  V30 1696 H 163.115 0.859028 -1.15571 0
M  V30 1697 H 165.068 3.98988 -1.35596 0
M  V30 1698 H 163.792 3.24604 -0.360498 0
M  V30 1699 H 162.451 2.74253 -2.43271 0
M  V30 1700 H 162.099 4.8863 -1.19371 0
M  V30 1701 H 161.799 5.08875 -2.93803 0
M  V30 1702 H 163.323 5.68702 -2.22284 0
M  V30 1703 H 164.737 4.18066 -3.92293 0
M  V30 1704 H 163.134 3.82075 -4.62751 0
M  V30 1705 H 164.204 2.48552 -4.16353 0
M  V30 1706 N 165.547 1.27147 0.931209 0
M  V30 1707 C 166.477 1.12081 2.04842 0
M  V30 1708 C 167.458 0.0232364 1.70084 0
M  V30 1709 O 168.643 0.197085 1.93197 0
M  V30 1710 C 165.773 0.76354 3.38803 0
M  V30 1711 C 164.727 1.81396 3.87659 0
M  V30 1712 C 164.053 1.31075 5.18385 0
M  V30 1713 C 165.353 3.21739 4.11438 0
M  V30 1714 H 167.047 2.05537 2.17703 0
M  V30 1715 H 164.593 0.989603 1.04608 0
M  V30 1716 H 166.546 0.644982 4.16435 0
M  V30 1717 H 165.27 -0.206727 3.25945 0
M  V30 1718 H 163.929 1.92136 3.12217 0
M  V30 1719 H 163.577 0.330037 5.01916 0
M  V30 1720 H 163.277 2.013 5.52044 0
M  V30 1721 H 164.801 1.20506 5.98591 0
M  V30 1722 H 166.215 3.14019 4.79651 0
M  V30 1723 H 164.612 3.89644 4.56397 0
M  V30 1724 H 165.682 3.67054 3.16859 0
M  V30 1725 N 167.025 -1.13721 1.09112 0
M  V30 1726 C 167.957 -2.1871 0.685467 0
M  V30 1727 C 168.97 -1.60527 -0.271068 0
M  V30 1728 O 170.159 -1.78407 -0.0576148 0
M  V30 1729 C 167.259 -3.38898 -0.0111255 0
M  V30 1730 C 166.432 -4.26597 0.966131 0
M  V30 1731 C 165.491 -5.25324 0.303539 0
M  V30 1732 O 164.517 -5.61213 0.950177 0
M  V30 1733 N 165.719 -5.72779 -0.943651 0
M  V30 1734 H 168.484 -2.54126 1.58871 0
M  V30 1735 H 166.045 -1.29012 0.978143 0
M  V30 1736 H 168.037 -4.02014 -0.465517 0
M  V30 1737 H 166.607 -3.01747 -0.816565 0
M  V30 1738 H 165.827 -3.60306 1.59917 0
M  V30 1739 H 167.115 -4.82048 1.6281 0
M  V30 1740 H 166.513 -5.45762 -1.48862 0
M  V30 1741 H 165.07 -6.37847 -1.34142 0
M  V30 1742 N 168.503 -0.877838 -1.30888 0
M  V30 1743 C 169.733 -0.506678 -2.00291 0
M  V30 1744 C 170.141 0.907449 -1.66018 0
M  V30 1745 O 169.484 1.60719 -0.88967 0
M  V30 1746 C 169.546 -0.59323 -3.54572 0
M  V30 1747 C 169.21 -1.97038 -4.12341 0
M  V30 1748 C 170.207 -2.93889 -4.28865 0
M  V30 1749 C 167.892 -2.27383 -4.47886 0
M  V30 1750 C 169.886 -4.19224 -4.80136 0
M  V30 1751 C 167.573 -3.52965 -4.98857 0
M  V30 1752 C 168.571 -4.48701 -5.14934 0
M  V30 1753 O 168.259 -5.72056 -5.64808 0
M  V30 1754 H 167.991 -0.1951 -0.647234 0
M  V30 1755 H 170.545 -1.18301 -1.6791 0
M  V30 1756 H 168.775 0.140057 -3.86446 0
M  V30 1757 H 170.464 -0.234372 -4.05223 0
M  V30 1758 H 171.23 -2.71756 -4.01714 0
M  V30 1759 H 167.109 -1.53639 -4.34645 0
M  V30 1760 H 170.653 -4.93956 -4.92599 0
M  V30 1761 H 166.55 -3.74939 -5.25443 0
M  V30 1762 H 167.318 -5.74337 -5.83163 0
M  V30 1763 N 169.982 1.44106 -0.638065 0
M  V30 1764 C 171.207 2.0685 -0.150916 0
M  V30 1765 C 171.632 1.47417 1.16833 0
M  V30 1766 O 170.99 0.578264 1.71831 0
M  V30 1767 C 171.038 3.60555 -0.05708 0
M  V30 1768 O 170.142 4.00465 0.984972 0
M  V30 1769 H 169.483 0.658151 -0.0879399 0
M  V30 1770 H 172.013 1.84865 -0.876707 0
M  V30 1771 H 172.023 4.07789 0.131232 0
M  V30 1772 H 170.698 4.03193 -1.02021 0
M  V30 1773 H 169.275 3.64849 0.770672 0
M  V30 1774 N 171.46 0.379036 1.52974 0
M  V30 1775 C 172.37 -0.468639 2.29872 0
M  V30 1776 C 173.386 -1.08067 1.36373 0
M  V30 1777 O 174.562 -1.08871 1.69438 0
M  V30 1778 C 171.627 -1.58594 3.083 0
M  V30 1779 C 170.688 -1.00007 4.17489 0
M  V30 1780 C 169.921 -2.06413 4.92168 0
M  V30 1781 O 170.144 -3.27751 4.66835 0
M  V30 1782 O 169.078 -1.68717 5.7777 0
M  V30 1783 H 172.904 0.157508 3.03291 0
M  V30 1784 H 170.489 0.143035 1.48714 0
M  V30 1785 H 172.371 -2.23525 3.57232 0
M  V30 1786 H 171.046 -2.19724 2.37703 0
M  V30 1787 H 169.953 -0.314299 3.72777 0
M  V30 1788 H 171.286 -0.433135 4.90291 0
M  V30 1789 N 172.938 -1.57226 0.108567 0
M  V30 1790 C 173.848 -2.18292 -0.859401 0
M  V30 1791 C 174.864 -1.15612 -1.30038 0
M  V30 1792 O 176.04 -1.48039 -1.36552 0
M  V30 1793 C 173.105 -2.762 -2.09558 0
M  V30 1794 C 172.166 -3.93881 -1.70752 0
M  V30 1795 C 171.399 -4.49018 -2.88477 0
M  V30 1796 O 171.622 -4.03068 -4.036 0
M  V30 1797 O 170.556 -5.39852 -2.66164 0
M  V30 1798 H 174.382 -3.01441 -0.369769 0
M  V30 1799 H 171.967 -1.48945 -0.1165 0
M  V30 1800 H 173.849 -3.13156 -2.81978 0
M  V30 1801 H 172.524 -1.96089 -2.57548 0
M  V30 1802 H 171.431 -3.61713 -0.954714 0
M  V30 1803 H 172.764 -4.75396 -1.27513 0
M  V30 1804 N 174.416 0.165178 -1.56732 0
M  V30 1805 C 175.693 0.908443 -1.73224 0
M  V30 1806 C 176.073 2.0013 -0.67165 0
M  V30 1807 O 175.421 2.26353 0.31253 0
M  V30 1808 C 175.631 1.46756 -3.16644 0
M  V30 1809 C 176.979 1.93809 -3.77787 0
M  V30 1810 O 178.003 1.56537 -3.1996 0
M  V30 1811 O 176.862 2.62486 -4.79336 0
M  V30 1812 H 173.956 0.428025 -0.707618 0
M  V30 1813 H 176.502 0.152526 -1.69013 0
M  V30 1814 H 175.274 0.68129 -3.85323 0
M  V30 1815 H 174.897 2.28749 -3.25207 0
M  V30 1816 N 175.894 1.51508 0.433938 0
M  V30 1817 C 177.134 1.66006 1.19253 0
M  V30 1818 C 177.498 0.369868 1.88404 0
M  V30 1819 O 178.699 0.39066 2.65946 0
M  V30 1820 C 176.97 2.83229 2.17981 0
M  V30 1821 S 178.529 3.18075 3.02281 0
M  V30 1822 H 175.347 0.584821 0.404358 0
M  V30 1823 H 177.949 1.89425 0.48357 0
M  V30 1824 H 176.653 3.75407 1.65824 0
M  V30 1825 H 176.184 2.6201 2.93453 0
M  V30 1826 H 178.199 2.64772 4.19655 0
M  V30 1827 N 177.372 -0.689602 1.41712 0
M  V30 1828 C 178.335 -1.78521 1.43746 0
M  V30 1829 C 179.335 -1.57436 0.327191 0
M  V30 1830 O 180.525 -1.64 0.587348 0
M  V30 1831 C 177.657 -3.16971 1.25467 0
M  V30 1832 H 178.85 -1.78108 2.41283 0
M  V30 1833 H 176.403 -0.89781 1.27942 0
M  V30 1834 H 177.138 -3.23019 0.287948 0
M  V30 1835 H 176.923 -3.33678 2.05917 0
M  V30 1836 H 178.413 -3.96935 1.2974 0
M  V30 1837 N 178.85 -1.27639 -0.924453 0
M  V30 1838 C 180.097 -1.14167 -1.67249 0
M  V30 1839 C 180.425 0.311863 -1.91984 0
M  V30 1840 O 179.68 1.24425 -1.51053 0
M  V30 1841 C 179.979 -1.87407 -3.04325 0
M  V30 1842 C 179.645 -3.37249 -2.99289 0
M  V30 1843 C 178.307 -3.7812 -2.97622 0
M  V30 1844 C 180.659 -4.32845 -2.90336 0
M  V30 1845 C 177.987 -5.12944 -2.8479 0
M  V30 1846 C 180.339 -5.6773 -2.79045 0
M  V30 1847 C 179.003 -6.07889 -2.7573 0
M  V30 1848 H 178.273 -0.417766 -0.612007 0
M  V30 1849 H 180.92 -1.58286 -1.07786 0
M  V30 1850 H 179.225 -1.35805 -3.67511 0
M  V30 1851 H 180.922 -1.74408 -3.61086 0
M  V30 1852 H 177.512 -3.04748 -3.01374 0
M  V30 1853 H 181.696 -4.02239 -2.90719 0
M  V30 1854 H 176.952 -5.432 -2.80612 0
M  V30 1855 H 181.126 -6.41472 -2.71083 0
M  V30 1856 H 178.753 -7.12314 -2.65544 0
M  V30 1857 N 180.328 1.1314 -1.09713 0
M  V30 1858 C 181.238 2.22242 -0.751367 0
M  V30 1859 C 182.254 1.72224 0.247938 0
M  V30 1860 O 183.43 2.01205 0.0885463 0
M  V30 1861 C 180.495 3.46231 -0.180274 0
M  V30 1862 C 179.556 4.11125 -1.2359 0
M  V30 1863 C 178.789 5.29195 -0.691966 0
M  V30 1864 O 179.012 5.68342 0.48414 0
M  V30 1865 O 177.946 5.84214 -1.44838 0
M  V30 1866 H 181.772 2.54197 -1.66186 0
M  V30 1867 H 179.357 1.21331 -0.871735 0
M  V30 1868 H 181.239 4.21185 0.134739 0
M  V30 1869 H 179.914 3.1597 0.703185 0
M  V30 1870 H 178.821 3.37985 -1.60366 0
M  V30 1871 H 180.154 4.45524 -2.09211 0
M  V30 1872 N 181.806 0.884767 1.30421 0
M  V30 1873 C 182.716 0.355398 2.31892 0
M  V30 1874 C 183.732 -0.542261 1.65335 0
M  V30 1875 O 184.908 -0.435432 1.96637 0
M  V30 1876 C 181.973 -0.421661 3.44126 0
M  V30 1877 C 181.034 0.505727 4.26311 0
M  V30 1878 C 180.267 -0.234343 5.33185 0
M  V30 1879 O 180.49 -1.46045 5.51386 0
M  V30 1880 O 179.424 0.415443 6.00465 0
M  V30 1881 H 183.25 1.19685 2.79122 0
M  V30 1882 H 180.835 0.648596 1.34587 0
M  V30 1883 H 182.717 -0.861641 4.12497 0
M  V30 1884 H 181.392 -1.23942 2.99032 0
M  V30 1885 H 180.299 0.994513 3.60639 0
M  V30 1886 H 181.632 1.28948 4.75009 0
M  V30 1887 N 183.284 -1.43765 0.645699 0
M  V30 1888 C 184.194 -2.34544 -0.0512957 0
M  V30 1889 C 185.21 -1.53455 -0.82022 0
M  V30 1890 O 186.386 -1.86133 -0.769176 0
M  V30 1891 C 183.451 -3.31636 -1.01087 0
M  V30 1892 C 182.512 -4.2863 -0.239712 0
M  V30 1893 C 181.745 -5.21084 -1.15358 0
M  V30 1894 O 181.968 -5.1779 -2.39269 0
M  V30 1895 O 180.902 -5.98593 -0.630038 0
M  V30 1896 H 184.728 -2.95624 0.695718 0
M  V30 1897 H 182.313 -1.43781 0.405882 0
M  V30 1898 H 184.195 -3.9136 -1.56254 0
M  V30 1899 H 182.87 -2.73069 -1.73824 0
M  V30 1900 H 181.777 -3.72408 0.355356 0
M  V30 1901 H 183.11 -4.90157 0.447936 0
M  V30 1902 N 184.763 -0.387143 -1.52771 0
M  V30 1903 C 186.012 0.19697 -2.00736 0
M  V30 1904 C 186.325 1.48082 -1.27793 0
M  V30 1905 O 187.531 2.14485 -1.66458 0
M  V30 1906 C 185.987 0.401568 -3.57653 0
M  V30 1907 C 185.595 -0.868907 -4.39493 0
M  V30 1908 C 187.339 0.942164 -4.13912 0
M  V30 1909 C 185.246 -0.632705 -5.88006 0
M  V30 1910 H 184.176 0.0773827 -0.750019 0
M  V30 1911 H 186.827 -0.50921 -1.76293 0
M  V30 1912 H 185.209 1.16954 -3.78335 0
M  V30 1913 H 186.383 -1.64133 -4.30577 0
M  V30 1914 H 184.698 -1.33429 -3.94443 0
M  V30 1915 H 187.295 1.13455 -5.22525 0
M  V30 1916 H 187.638 1.9106 -3.69867 0
M  V30 1917 H 188.171 0.233814 -3.97112 0
M  V30 1918 H 184.91 -1.57208 -6.36369 0
M  V30 1919 H 184.43 0.100825 -5.99715 0
M  V30 1920 H 186.109 -0.26642 -6.46451 0
M  V30 1921 N 186.241 1.57166 -0.116904 0
M  V30 1922 C 187.657 1.5779 0.239693 0
M  V30 1923 C 187.857 1.1295 1.66867 0
M  V30 1924 O 186.913 0.81592 2.38954 0
M  V30 1925 C 188.226 3.00699 0.00828202 0
M  V30 1926 C 189.774 3.12912 0.0743438 0
M  V30 1927 C 190.249 4.57817 -0.129348 0
M  V30 1928 N 191.74 4.63139 -0.075247 0
M  V30 1929 C 192.475 5.73023 -0.207788 0
M  V30 1930 N 191.971 6.91665 -0.396382 0
M  V30 1931 N 193.764 5.61906 -0.14751 0
M  V30 1932 H 185.915 1.84615 -1.05029 0
M  V30 1933 H 188.178 0.85311 -0.41341 0
M  V30 1934 H 187.884 3.37784 -0.979531 0
M  V30 1935 H 187.758 3.69848 0.741077 0
M  V30 1936 H 190.145 2.75686 1.05268 0
M  V30 1937 H 190.226 2.4631 -0.690297 0
M  V30 1938 H 189.87 4.95742 -1.10465 0
M  V30 1939 H 189.8 5.22507 0.655253 0
M  V30 1940 H 192.291 3.7784 0.0670898 0
M  V30 1941 H 192.604 7.71255 -0.488437 0
M  V30 1942 H 190.949 6.93654 -0.432329 0
M  V30 1943 H 194.14 4.681 -0.00115036 0
M  V30 1944 H 194.313 6.47501 -0.254247 0
M  V30 1945 N 187.719 -0.156864 1.56817 0
M  V30 1946 C 189.13 -0.717916 1.72345 0
M  V30 1947 C 189.481 -1.82124 0.729747 0
M  V30 1948 O 188.606 -2.16141 -0.105781 0
M  V30 1949 C 189.201 -1.30904 3.12489 0
M  V30 1950 C 187.76 -1.81676 3.29653 0
M  V30 1951 C 186.907 -0.701349 2.68284 0
M  V30 1952 H 189.858 0.0686989 1.58551 0
M  V30 1953 H 189.879 -2.17882 3.11942 0
M  V30 1954 H 189.391 -0.505796 3.8479 0
M  V30 1955 H 187.492 -2.64598 2.62333 0
M  V30 1956 H 187.605 -1.95226 4.3752 0
M  V30 1957 H 185.969 -1.12548 2.28484 0
M  V30 1958 H 186.752 0.0902846 3.43181 0
M  V30 1959 N 189.197 -1.51736 -0.425897 0
M  V30 1960 C 190.474 -1.55519 -1.1863 0
M  V30 1961 C 190.854 -0.326219 -2.08564 0
M  V30 1962 O 190.202 0.688012 -2.17896 0
M  V30 1963 C 190.412 -2.87521 -1.9782 0
M  V30 1964 C 191.76 -3.39899 -2.54468 0
M  V30 1965 O 192.784 -2.89148 -2.08019 0
M  V30 1966 O 191.643 -4.2848 -3.39215 0
M  V30 1967 H 188.737 -0.625739 -0.540721 0
M  V30 1968 H 191.283 -1.64055 -0.434038 0
M  V30 1969 H 190.055 -3.68422 -1.31836 0
M  V30 1970 H 189.678 -2.822 -2.80088 0
M  V30 1971 N 190.675 0.682077 -1.42076 0
M  V30 1972 C 191.923 1.4393 -1.41876 0
M  V30 1973 C 192.244 1.94971 -0.0335599 0
M  V30 1974 O 191.514 1.72591 0.926773 0
M  V30 1975 H 190.094 0.534085 -0.522267 0
M  V30 1976 H 192.756 0.806427 -1.77434 0
M  V30 1977 H 191.852 2.29588 -2.11414 0
M  V30 1978 N 192.153 1.28127 0.917671 0
M  V30 1979 C 193.383 1.17722 1.6978 0
M  V30 1980 C 193.791 -0.267261 1.87303 0
M  V30 1981 O 193.134 -1.19286 1.39702 0
M  V30 1982 C 193.196 1.79958 3.11216 0
M  V30 1983 C 192.86 3.29187 3.16993 0
M  V30 1984 C 193.857 4.25679 2.98485 0
M  V30 1985 C 191.542 3.70075 3.39632 0
M  V30 1986 C 193.536 5.61035 3.02521 0
M  V30 1987 C 191.223 5.05557 3.433 0
M  V30 1988 C 192.221 6.00847 3.24764 0
M  V30 1989 O 191.909 7.33859 3.28187 0
M  V30 1990 H 191.641 0.409788 0.537634 0
M  V30 1991 H 194.195 1.69694 1.15728 0
M  V30 1992 H 192.425 1.22475 3.66793 0
M  V30 1993 H 194.114 1.64125 3.71238 0
M  V30 1994 H 194.88 3.95426 2.80826 0
M  V30 1995 H 190.759 2.96373 3.53106 0
M  V30 1996 H 194.303 6.35388 2.87971 0
M  V30 1997 H 190.2 5.35462 3.60486 0
M  V30 1998 H 190.968 7.42436 3.44575 0
M  V30 1999 N 193.631 -1.12557 1.10312 0
M  V30 2000 C 194.579 -2.20325 0.745629 0
M  V30 2001 C 195.573 -1.67429 -0.25763 0
M  V30 2002 O 196.779 -1.79612 -0.118132 0
M  V30 2003 H 193.154 -0.718118 0.223182 0
M  V30 2004 H 195.125 -2.47733 1.66346 0
M  V30 2005 C 193.874 -3.47168 0.192262 0
M  V30 2006 H 193.197 -3.88215 0.955475 0
M  V30 2007 H 194.637 -4.23995 -0.0198274 0
M  V30 2008 C 193.096 -3.19298 -1.07472 0
M  V30 2009 O 193.626 -3.3891 -2.15645 0
M  V30 2010 N 191.832 -2.73113 -0.992847 0
M  V30 2011 H 191.379 -2.57354 -0.112474 0
M  V30 2012 H 191.337 -2.54842 -1.84127 0
M  V30 2013 N 195.109 -0.891671 -1.2995 0
M  V30 2014 C 196.355 -0.514261 -1.96171 0
M  V30 2015 C 196.688 0.935506 -1.70182 0
M  V30 2016 O 195.963 1.66204 -1.01028 0
M  V30 2017 C 196.246 -0.797719 -3.51153 0
M  V30 2018 C 196.099 -2.2986 -3.86632 0
M  V30 2019 C 197.418 -0.278749 -4.39216 0
M  V30 2020 H 194.537 -0.188314 -0.712535 0
M  V30 2021 H 197.179 -1.11689 -1.53706 0
M  V30 2022 H 195.329 -0.284826 -3.87455 0
M  V30 2023 H 197.001 -2.88042 -3.60319 0
M  V30 2024 H 195.244 -2.76257 -3.34462 0
M  V30 2025 H 195.915 -2.44753 -4.94773 0
M  V30 2026 H 198.391 -0.717825 -4.09862 0
M  V30 2027 H 197.267 -0.506353 -5.46559 0
M  V30 2028 H 197.528 0.820266 -4.34424 0
M  V30 2029 N 196.587 1.43421 -0.653314 0
M  V30 2030 C 197.817 2.05864 -0.174238 0
M  V30 2031 C 198.225 1.49052 1.16534 0
M  V30 2032 O 197.568 0.616481 1.73047 0
M  V30 2033 C 197.63 3.59499 -0.00875873 0
M  V30 2034 C 197.294 4.38893 -1.27364 0
M  V30 2035 C 198.291 4.70947 -2.20239 0
M  V30 2036 C 195.976 4.789 -1.51525 0
M  V30 2037 C 197.97 5.41916 -3.35568 0
M  V30 2038 C 195.657 5.49614 -2.67147 0
M  V30 2039 C 196.655 5.81044 -3.58994 0
M  V30 2040 O 196.343 6.50313 -4.72597 0
M  V30 2041 H 196.075 0.670345 -0.0872549 0
M  V30 2042 H 198.629 1.84913 -0.894226 0
M  V30 2043 H 196.859 3.79025 0.7666 0
M  V30 2044 H 198.548 4.0364 0.427687 0
M  V30 2045 H 199.314 4.40558 -2.02815 0
M  V30 2046 H 195.193 4.53843 -0.809158 0
M  V30 2047 H 198.737 5.66365 -4.07279 0
M  V30 2048 H 194.634 5.79419 -2.84505 0
M  V30 2049 H 195.402 6.68795 -4.71864 0
M  V30 2050 N 198.065 0.39524 1.52563 0
M  V30 2051 C 199.481 0.0454682 1.59535 0
M  V30 2052 C 199.681 -1.44056 1.4089 0
M  V30 2053 O 198.737 -2.20579 1.22888 0
M  V30 2054 C 200.05 0.527963 2.96029 0
M  V30 2055 C 201.598 0.484733 3.09224 0
M  V30 2056 C 202.073 0.943512 4.48176 0
M  V30 2057 N 203.564 0.899765 4.54377 0
M  V30 2058 C 204.299 1.22609 5.60138 0
M  V30 2059 N 203.795 1.62319 6.73516 0
M  V30 2060 N 205.588 1.14696 5.50274 0
M  V30 2061 H 197.739 1.36261 1.62931 0
M  V30 2062 H 200.002 0.558887 0.765735 0
M  V30 2063 H 199.708 1.56607 3.14908 0
M  V30 2064 H 199.582 -0.0698056 3.77135 0
M  V30 2065 H 201.969 -0.544298 2.90037 0
M  V30 2066 H 202.05 1.11838 2.30056 0
M  V30 2067 H 201.694 1.9708 4.68104 0
M  V30 2068 H 201.624 0.286817 5.25818 0
M  V30 2069 H 204.115 0.607632 3.72983 0
M  V30 2070 H 204.428 1.85567 7.5019 0
M  V30 2071 H 202.773 1.66211 6.74833 0
M  V30 2072 H 205.964 0.835701 4.6058 0
M  V30 2073 H 206.137 1.40459 6.32594 0
M  V30 2074 N 199.544 -1.57102 0.125237 0
M  V30 2075 C 200.769 -2.0019 -0.542101 0
M  V30 2076 C 201.194 -1.00449 -1.59034 0
M  V30 2077 O 200.552 0.0229423 -1.81285 0
M  V30 2078 C 200.6 -3.42129 -1.13929 0
M  V30 2079 O 199.704 -3.45307 -2.2547 0
M  V30 2080 H 199.045 -0.650171 -0.134812 0
M  V30 2081 H 201.575 -2.03461 0.215553 0
M  V30 2082 H 201.585 -3.80471 -1.4733 0
M  V30 2083 H 200.26 -4.14237 -0.371531 0
M  V30 2084 H 198.837 -3.1879 -1.93462 0
M  V30 2085 N 201.022 0.148545 -1.56898 0
M  V30 2086 C 201.932 1.20293 -2.01412 0
M  V30 2087 C 202.948 1.47107 -0.929273 0
M  V30 2088 O 204.124 1.58807 -1.23863 0
M  V30 2089 C 201.189 2.51682 -2.38447 0
M  V30 2090 C 200.25 2.32529 -3.60872 0
M  V30 2091 C 199.483 3.57653 -3.96132 0
M  V30 2092 O 199.706 4.63771 -3.32073 0
M  V30 2093 O 198.64 3.50408 -4.89385 0
M  V30 2094 H 202.466 0.855025 -2.91416 0
M  V30 2095 H 200.051 0.357151 -1.45068 0
M  V30 2096 H 201.933 3.29147 -2.63135 0
M  V30 2097 H 200.608 2.86006 -1.51599 0
M  V30 2098 H 199.515 1.53019 -3.41373 0
M  V30 2099 H 200.848 2.03121 -4.48333 0
M  V30 2100 N 202.5 1.5196 0.417844 0
M  V30 2101 C 203.447 1.74678 1.50852 0
M  V30 2102 C 204.417 0.588947 1.55308 0
M  V30 2103 O 205.602 0.825544 1.72016 0
M  V30 2104 C 202.742 1.89544 2.88387 0
M  V30 2105 C 201.855 3.17166 2.93309 0
M  V30 2106 C 200.99 3.22513 4.22088 0
M  V30 2107 C 200.029 4.44372 4.20951 0
M  V30 2108 N 199.166 4.47161 5.41287 0
M  V30 2109 H 204.006 2.67768 1.30783 0
M  V30 2110 H 201.543 1.32689 0.63498 0
M  V30 2111 H 203.501 1.96146 3.68216 0
M  V30 2112 H 202.131 0.998424 3.06971 0
M  V30 2113 H 201.183 3.19778 2.06024 0
M  V30 2114 H 202.495 4.07021 2.88332 0
M  V30 2115 H 201.649 3.28139 5.10303 0
M  V30 2116 H 200.388 2.30581 4.29748 0
M  V30 2117 H 199.393 4.38902 3.31127 0
M  V30 2118 H 200.618 5.3759 4.14938 0
M  V30 2119 H 198.564 3.58108 5.49632 0
M  V30 2120 H 198.481 5.3085 5.3827 0
M  V30 2121 H 199.749 4.57005 6.3148 0
M  V30 2122 N 203.978 -0.674533 1.42435 0
M  V30 2123 C 204.928 -1.7807 1.4239 0
M  V30 2124 C 205.912 -1.58169 0.295202 0
M  V30 2125 O 207.104 -1.68643 0.537449 0
M  V30 2126 C 204.233 -3.16532 1.32901 0
M  V30 2127 C 203.319 -3.42055 2.50717 0
M  V30 2128 N 203.71 -3.38162 3.76139 0
M  V30 2129 C 202.008 -3.72692 2.44983 0
M  V30 2130 C 202.709 -3.63177 4.54398 0
M  V30 2131 N 201.685 -3.83954 3.84812 0
M  V30 2132 H 205.487 -1.73454 2.37257 0
M  V30 2133 H 203.001 -0.875381 1.36788 0
M  V30 2134 H 204.998 -3.958 1.30951 0
M  V30 2135 H 203.658 -3.22345 0.390363 0
M  V30 2136 H 204.669 -3.18057 4.0873 0
M  V30 2137 H 201.346 -3.85749 1.59699 0
M  V30 2138 H 202.736 -3.66125 5.63384 0
M  V30 2139 N 205.456 -1.28612 -0.910864 0
M  V30 2140 C 206.872 -1.06381 -1.18976 0
M  V30 2141 C 207.072 0.191998 -2.00583 0
M  V30 2142 O 206.128 0.892869 -2.36187 0
M  V30 2143 C 207.441 -2.31295 -1.92154 0
M  V30 2144 C 208.989 -2.36503 -2.05025 0
M  V30 2145 C 209.464 -3.61191 -2.81612 0
M  V30 2146 N 210.955 -3.61847 -2.89172 0
M  V30 2147 C 211.69 -4.55004 -3.4894 0
M  V30 2148 N 211.186 -5.58482 -4.09963 0
M  V30 2149 N 212.979 -4.42594 -3.46506 0
M  V30 2150 H 205.13 -2.09221 -0.366094 0
M  V30 2151 H 207.393 -0.921003 -0.224629 0
M  V30 2152 H 207.099 -3.228 -1.39618 0
M  V30 2153 H 206.973 -2.37934 -2.9269 0
M  V30 2154 H 209.36 -1.45494 -2.5674 0
M  V30 2155 H 209.441 -2.33857 -1.03657 0
M  V30 2156 H 209.085 -4.52545 -2.30576 0
M  V30 2157 H 209.015 -3.61092 -3.83302 0
M  V30 2158 H 211.506 -2.87022 -2.45819 0
M  V30 2159 H 211.819 -6.25704 -4.53557 0
M  V30 2160 H 210.164 -5.62305 -4.08459 0
M  V30 2161 H 213.355 -3.60953 -2.98045 0
M  V30 2162 H 213.528 -5.15381 -3.92793 0
M  V30 2163 N 206.934 1.1197 -1.10907 0
M  V30 2164 C 207.864 2.19928 -0.784473 0
M  V30 2165 C 208.845 1.6833 0.244726 0
M  V30 2166 O 210.03 1.93892 0.109418 0
M  V30 2167 C 207.16 3.46597 -0.220827 0
M  V30 2168 C 206.114 4.11376 -1.18127 0
M  V30 2169 C 205.44 5.32554 -0.478594 0
M  V30 2170 C 206.74 4.56945 -2.52979 0
M  V30 2171 H 208.434 2.47337 -1.68715 0
M  V30 2172 H 205.98 1.18879 -0.812642 0
M  V30 2173 H 207.933 4.21396 0.0184278 0
M  V30 2174 H 206.657 3.1863 0.717113 0
M  V30 2175 H 205.316 3.38564 -1.40606 0
M  V30 2176 H 204.964 5.00856 0.463976 0
M  V30 2177 H 204.664 5.76844 -1.11912 0
M  V30 2178 H 206.188 6.10096 -0.248 0
M  V30 2179 H 207.602 5.23093 -2.3462 0
M  V30 2180 H 205.999 5.1203 -3.12962 0
M  V30 2181 H 207.069 3.70676 -3.12614 0
M  V30 2182 N 208.412 0.89855 1.29475 0
M  V30 2183 C 209.823 0.572537 1.77705 0
M  V30 2184 C 210.174 -0.911778 1.73727 0
M  V30 2185 O 209.299 -1.71288 1.32247 0
M  V30 2186 C 209.894 1.03252 3.22683 0
M  V30 2187 C 208.453 0.757687 3.68695 0
M  V30 2188 C 207.6 1.20787 2.49612 0
M  V30 2189 H 210.551 1.08139 1.16153 0
M  V30 2190 H 210.572 0.367307 3.78723 0
M  V30 2191 H 210.084 2.11285 3.25546 0
M  V30 2192 H 208.185 -0.310079 3.71308 0
M  V30 2193 H 208.298 1.35476 4.59547 0
M  V30 2194 H 206.662 0.626888 2.46865 0
M  V30 2195 H 207.445 2.29622 2.55203 0
M  V30 2196 N 209.89 -1.43072 0.660911 0
M  V30 2197 C 211.136 -2.0202 0.177708 0
M  V30 2198 C 211.469 -1.52066 -1.20787 0
M  V30 2199 O 210.744 -0.716987 -1.80802 0
M  V30 2200 C 211.027 -3.59561 0.197019 0
M  V30 2201 C 210.88 -4.19727 1.61706 0
M  V30 2202 C 212.199 -4.37664 -0.462396 0
M  V30 2203 H 209.318 -0.734034 0.0660494 0
M  V30 2204 H 211.96 -1.70272 0.843058 0
M  V30 2205 H 210.11 -3.86739 -0.369527 0
M  V30 2206 H 211.782 -4.03553 2.23479 0
M  V30 2207 H 210.025 -3.76084 2.16201 0
M  V30 2208 H 210.696 -5.28834 1.58237 0
M  V30 2209 H 213.172 -4.16095 0.0197215 0
M  V30 2210 H 212.048 -5.47305 -0.418188 0
M  V30 2211 H 212.309 -4.14493 -1.53778 0
M  V30 2212 N 211.368 -0.403325 -1.52352 0
M  V30 2213 C 212.593 0.176499 -2.06648 0
M  V30 2214 C 213.018 1.38577 -1.27193 0
M  V30 2215 O 212.376 1.7879 -0.300637 0
M  V30 2216 C 212.424 0.511061 -3.5696 0
M  V30 2217 O 211.528 1.60294 -3.79973 0
M  V30 2218 H 210.869 0.0167337 -0.663789 0
M  V30 2219 H 213.399 -0.574848 -1.96359 0
M  V30 2220 H 213.409 0.771362 -4.00642 0
M  V30 2221 H 212.084 -0.37296 -4.14224 0
M  V30 2222 H 210.661 1.33526 -3.48174 0
M  V30 2223 N 212.846 1.57033 -0.133567 0
M  V30 2224 C 213.776 2.1909 0.807567 0
M  V30 2225 C 214.757 1.13517 1.26681 0
M  V30 2226 O 215.942 1.41809 1.32679 0
M  V30 2227 C 213.072 2.80188 2.05212 0
M  V30 2228 C 212.026 3.91471 1.73015 0
M  V30 2229 C 211.352 4.39443 3.04622 0
M  V30 2230 C 212.652 5.12886 0.987168 0
M  V30 2231 H 214.346 2.97988 0.290403 0
M  V30 2232 H 211.892 1.43335 0.138239 0
M  V30 2233 H 213.845 3.22264 2.71521 0
M  V30 2234 H 212.569 1.98601 2.59278 0
M  V30 2235 H 211.228 3.49993 1.0909 0
M  V30 2236 H 210.876 3.54695 3.56651 0
M  V30 2237 H 210.576 5.14495 2.83847 0
M  V30 2238 H 212.1 4.8418 3.72024 0
M  V30 2239 H 213.514 5.51891 1.55208 0
M  V30 2240 H 211.911 5.93615 0.87985 0
M  V30 2241 H 212.981 4.84894 -0.0235286 0
M  V30 2242 N 214.325 -0.140222 1.56975 0
M  V30 2243 C 215.55 -0.870414 1.88251 0
M  V30 2244 C 215.975 -1.73637 0.723312 0
M  V30 2245 O 215.333 -1.78329 -0.32689 0
M  V30 2246 C 215.381 -1.69737 3.18154 0
M  V30 2247 O 214.485 -2.80229 3.02565 0
M  V30 2248 H 213.826 -0.242025 0.61832 0
M  V30 2249 H 216.356 -0.128999 2.04193 0
M  V30 2250 H 216.366 -2.09099 3.50345 0
M  V30 2251 H 215.041 -1.06152 4.02125 0
M  V30 2252 H 213.618 -2.44224 2.81796 0
M  V30 2253 N 215.803 -1.52179 -0.40978 0
M  V30 2254 C 217.028 -1.70347 -1.18308 0
M  V30 2255 C 217.453 -0.411887 -1.83535 0
M  V30 2256 O 216.811 0.630587 -1.6998 0
M  V30 2257 C 216.859 -2.83977 -2.22238 0
M  V30 2258 O 215.963 -2.495 -3.28365 0
M  V30 2259 H 215.304 -0.567103 -0.345384 0
M  V30 2260 H 217.834 -1.98879 -0.480445 0
M  V30 2261 H 217.844 -3.0887 -2.66577 0
M  V30 2262 H 216.519 -3.77685 -1.74146 0
M  V30 2263 H 215.096 -2.35277 -2.89308 0
M  V30 2264 N 217.281 0.66697 -1.42791 0
M  V30 2265 C 218.244 1.76211 -1.46568 0
M  V30 2266 C 219.244 1.56896 -0.352196 0
M  V30 2267 O 220.434 1.63044 -0.613364 0
M  V30 2268 C 217.566 3.14935 -1.30494 0
M  V30 2269 H 218.759 1.74247 -2.44086 0
M  V30 2270 H 216.312 0.877342 -1.29354 0
M  V30 2271 H 217.047 3.2252 -0.339301 0
M  V30 2272 H 216.832 3.30359 -2.11199 0
M  V30 2273 H 218.322 3.94821 -1.36038 0
M  V30 2274 N 218.759 1.29093 0.90403 0
M  V30 2275 C 219.706 1.13853 2.00764 0
M  V30 2276 C 220.676 0.0330084 1.66067 0
M  V30 2277 O 221.861 0.199733 1.89752 0
M  V30 2278 C 219.001 0.816537 3.35301 0
M  V30 2279 C 218.114 2.00206 3.82807 0
M  V30 2280 C 217.249 1.61983 5.059 0
M  V30 2281 C 216.288 2.77143 5.45764 0
M  V30 2282 N 215.425 2.39346 6.60044 0
M  V30 2283 H 220.265 2.08276 2.13132 0
M  V30 2284 H 217.802 1.03648 1.04381 0
M  V30 2285 H 219.76 0.610557 4.12708 0
M  V30 2286 H 218.39 -0.090779 3.22672 0
M  V30 2287 H 217.442 2.31988 3.01473 0
M  V30 2288 H 218.754 2.86512 4.08304 0
M  V30 2289 H 217.908 1.37649 5.90879 0
M  V30 2290 H 216.647 0.728202 4.82233 0
M  V30 2291 H 215.652 3.02165 4.59322 0
M  V30 2292 H 216.877 3.66964 5.71414 0
M  V30 2293 H 214.823 1.52665 6.37989 0
M  V30 2294 H 214.74 3.19185 6.85315 0
M  V30 2295 H 216.008 2.1832 7.48303 0
M  V30 2296 N 220.237 -1.11381 1.11499 0
M  V30 2297 C 221.169 -2.17207 0.731704 0
M  V30 2298 C 222.182 -1.61066 -0.236957 0
M  V30 2299 O 223.371 -1.78489 -0.0197591 0
M  V30 2300 C 220.471 -3.38846 0.0607624 0
M  V30 2301 C 219.644 -4.24451 1.0564 0
M  V30 2302 C 218.703 -5.24562 0.4149 0
M  V30 2303 O 217.729 -5.59071 1.069 0
M  V30 2304 N 218.931 -5.74651 -0.821943 0
M  V30 2305 H 221.696 -2.50699 1.64225 0
M  V30 2306 H 219.257 -1.26908 1.00529 0
M  V30 2307 H 221.249 -4.02911 -0.380139 0
M  V30 2308 H 219.819 -3.03411 -0.752376 0
M  V30 2309 H 219.039 -3.56833 1.67524 0
M  V30 2310 H 220.327 -4.78486 1.72998 0
M  V30 2311 H 219.725 -5.48797 -1.37252 0
M  V30 2312 H 218.282 -6.40549 -1.20582 0
M  V30 2313 N 221.715 -0.905404 -1.28997 0
M  V30 2314 C 223.131 -0.60233 -1.47798 0
M  V30 2315 C 223.331 0.854645 -1.82478 0
M  V30 2316 O 222.387 1.63439 -1.92468 0
M  V30 2317 C 223.7 -1.53306 -2.58685 0
M  V30 2318 C 225.248 -1.53887 -2.72558 0
M  V30 2319 C 225.723 -2.45602 -3.86579 0
M  V30 2320 N 227.214 -2.43681 -3.93921 0
M  V30 2321 C 227.949 -3.11347 -4.81509 0
M  V30 2322 N 227.445 -3.88313 -5.73746 0
M  V30 2323 N 229.238 -3.00476 -4.75048 0
M  V30 2324 H 221.389 -1.84765 -1.04764 0
M  V30 2325 H 223.652 -0.792025 -0.520961 0
M  V30 2326 H 223.358 -2.57141 -2.39941 0
M  V30 2327 H 223.232 -1.25787 -3.55609 0
M  V30 2328 H 225.619 -0.507941 -2.90696 0
M  V30 2329 H 225.7 -1.85447 -1.76191 0
M  V30 2330 H 225.344 -3.48792 -3.69197 0
M  V30 2331 H 225.274 -2.11349 -4.82327 0
M  V30 2332 H 227.765 -1.87767 -3.27951 0
M  V30 2333 H 228.078 -4.36985 -6.37389 0
M  V30 2334 H 226.423 -3.92419 -5.73614 0
M  V30 2335 H 229.614 -2.39858 -4.01977 0
M  V30 2336 H 229.787 -3.53485 -5.43095 0
M  V30 2337 N 223.193 1.4272 -0.668489 0
M  V30 2338 C 224.125 2.2914 0.052613 0
M  V30 2339 C 225.138 1.43339 0.771857 0
M  V30 2340 O 226.327 1.67123 0.627067 0
M  V30 2341 C 223.427 3.20618 1.09804 0
M  V30 2342 C 222.6 4.35039 0.45389 0
M  V30 2343 C 221.659 5.07282 1.39825 0
M  V30 2344 O 220.685 5.62024 0.900978 0
M  V30 2345 N 221.887 5.12206 2.73176 0
M  V30 2346 H 224.652 2.91668 -0.689209 0
M  V30 2347 H 222.213 1.53577 -0.512422 0
M  V30 2348 H 224.205 3.65815 1.73094 0
M  V30 2349 H 222.775 2.59585 1.74167 0
M  V30 2350 H 221.995 3.92567 -0.358396 0
M  V30 2351 H 223.283 5.088 0.00486972 0
M  V30 2352 H 222.681 4.6913 3.16122 0
M  V30 2353 H 221.238 5.61069 3.31729 0
M  V30 2354 N 224.671 0.411399 1.52136 0
M  V30 2355 C 225.601 -0.404015 2.29978 0
M  V30 2356 C 226.582 -1.04412 1.34284 0
M  V30 2357 O 227.767 -1.0527 1.63192 0
M  V30 2358 C 224.897 -1.5197 3.12286 0
M  V30 2359 C 223.851 -1.00448 4.16046 0
M  V30 2360 C 223.177 -2.21393 4.86712 0
M  V30 2361 C 224.477 -0.0569336 5.22269 0
M  V30 2362 H 226.171 0.245529 2.98392 0
M  V30 2363 H 223.717 0.119525 1.43503 0
M  V30 2364 H 225.67 -2.09715 3.6551 0
M  V30 2365 H 224.394 -2.19716 2.41646 0
M  V30 2366 H 223.053 -0.449421 3.63835 0
M  V30 2367 H 222.701 -2.87699 4.12599 0
M  V30 2368 H 222.401 -1.87571 5.56858 0
M  V30 2369 H 223.925 -2.7974 5.4275 0
M  V30 2370 H 225.339 -0.54325 5.7072 0
M  V30 2371 H 223.736 0.192594 5.99791 0
M  V30 2372 H 224.806 0.887663 4.76706 0
M  V30 2373 N 226.149 -1.5696 0.141893 0
M  V30 2374 C 227.379 -2.00031 -0.516828 0
M  V30 2375 C 227.787 -1.02091 -1.59293 0
M  V30 2376 O 227.13 -0.00909657 -1.83698 0
M  V30 2377 C 227.192 -3.39534 -1.1814 0
M  V30 2378 C 226.856 -4.56313 -0.250513 0
M  V30 2379 C 227.853 -5.17295 0.519839 0
M  V30 2380 C 225.538 -5.02061 -0.154907 0
M  V30 2381 C 227.532 -6.2243 1.3733 0
M  V30 2382 C 225.219 -6.07053 0.702161 0
M  V30 2383 C 226.217 -6.67106 1.46487 0
M  V30 2384 O 225.905 -7.70066 2.30767 0
M  V30 2385 H 225.637 -0.661451 -0.139493 0
M  V30 2386 H 228.191 -2.04086 0.231926 0
M  V30 2387 H 226.421 -3.32302 -1.97769 0
M  V30 2388 H 228.11 -3.66745 -1.73933 0
M  V30 2389 H 228.876 -4.82852 0.45598 0
M  V30 2390 H 224.755 -4.5505 -0.7383 0
M  V30 2391 H 228.299 -6.69233 1.96909 0
M  V30 2392 H 224.196 -6.40923 0.76733 0
M  V30 2393 H 224.964 -7.87264 2.23959 0
M  V30 2394 N 227.627 0.131896 -1.57047 0
M  V30 2395 C 228.574 1.16236 -1.99393 0
M  V30 2396 C 229.544 1.41863 -0.863943 0
M  V30 2397 O 230.729 1.53946 -1.12718 0
M  V30 2398 C 227.869 2.48708 -2.39245 0
M  V30 2399 C 226.982 2.30127 -3.65603 0
M  V30 2400 C 226.117 3.55738 -3.94492 0
M  V30 2401 C 225.156 3.32259 -5.14073 0
M  V30 2402 N 224.293 4.50039 -5.38896 0
M  V30 2403 H 229.133 0.794251 -2.87221 0
M  V30 2404 H 226.67 0.380707 -1.42088 0
M  V30 2405 H 228.628 3.25969 -2.60384 0
M  V30 2406 H 227.258 2.83437 -1.54478 0
M  V30 2407 H 226.31 1.43845 -3.52154 0
M  V30 2408 H 227.622 2.08746 -4.5302 0
M  V30 2409 H 226.776 4.41423 -4.1621 0
M  V30 2410 H 225.515 3.80138 -3.05526 0
M  V30 2411 H 224.52 2.44963 -4.92212 0
M  V30 2412 H 225.745 3.09242 -6.04604 0
M  V30 2413 H 223.691 4.74584 -4.52886 0
M  V30 2414 H 223.608 4.31716 -6.2061 0
M  V30 2415 H 224.876 5.36895 -5.65123 0
M  V30 2416 N 229.106 1.52395 0.401703 0
M  V30 2417 C 230.054 1.7689 1.51039 0
M  V30 2418 C 231.048 0.636298 1.56996 0
M  V30 2419 O 232.254 0.818507 1.60314 0
M  V30 2420 H 228.629 0.559502 0.502456 0
M  V30 2421 H 230.6 2.69757 1.27568 0
M  V30 2422 C 229.349 1.94331 2.88324 0
M  V30 2423 H 228.672 2.80905 2.84486 0
M  V30 2424 H 230.112 2.15466 3.65172 0
M  V30 2425 C 228.571 0.712396 3.29282 0
M  V30 2426 O 229.101 -0.116218 4.01532 0
M  V30 2427 N 227.307 0.546154 2.85422 0
M  V30 2428 H 226.854 1.22156 2.26794 0
M  V30 2429 H 226.812 -0.276113 3.13185 0
M  V30 2430 N 230.584 -0.659388 1.43143 0
M  V30 2431 C 232 -0.974337 1.26407 0
M  V30 2432 C 232.2 -2.007 0.179341 0
M  V30 2433 O 231.256 -2.4856 -0.444295 0
M  V30 2434 C 232.569 -1.46447 2.62628 0
M  V30 2435 C 234.117 -1.58144 2.7011 0
M  V30 2436 C 234.592 -2.1055 4.06734 0
M  V30 2437 N 236.083 -2.17861 4.08767 0
M  V30 2438 C 236.818 -2.59519 5.1131 0
M  V30 2439 N 236.314 -3.00518 6.24228 0
M  V30 2440 N 238.107 -2.59404 4.98664 0
M  V30 2441 H 230.258 0.0240528 2.12386 0
M  V30 2442 H 232.521 -0.0518065 0.946583 0
M  V30 2443 H 232.227 -0.780123 3.42939 0
M  V30 2444 H 232.101 -2.44058 2.87603 0
M  V30 2445 H 234.488 -2.25682 1.90136 0
M  V30 2446 H 234.569 -0.589828 2.48907 0
M  V30 2447 H 234.213 -1.43616 4.87172 0
M  V30 2448 H 234.143 -3.10531 4.25298 0
M  V30 2449 H 236.634 -1.88975 3.27257 0
M  V30 2450 H 236.947 -3.31036 6.98309 0
M  V30 2451 H 235.292 -2.98337 6.2771 0
M  V30 2452 H 238.483 -2.26747 4.09516 0
M  V30 2453 H 238.656 -2.91548 5.78709 0
M  V30 2454 N 232.062 -1.29571 -0.897171 0
M  V30 2455 C 233.31 -1.17456 -1.64464 0
M  V30 2456 C 233.631 0.273698 -1.9307 0
M  V30 2457 O 232.901 1.18684 -1.55855 0
M  V30 2458 H 231.481 -0.431706 -0.609622 0
M  V30 2459 H 234.143 -1.62531 -1.07562 0
M  V30 2460 H 233.239 -1.72648 -2.59998 0
M  V30 2461 N 233.54 1.10788 -1.12088 0
M  V30 2462 C 234.787 1.82671 -0.873931 0
M  V30 2463 C 235.115 1.85004 0.600311 0
M  V30 2464 O 234.37 1.30365 1.45957 0
M  V30 2465 C 234.669 3.29294 -1.38926 0
M  V30 2466 C 234.335 3.47113 -2.87791 0
M  V30 2467 C 232.997 3.51684 -3.28439 0
M  V30 2468 C 235.349 3.52808 -3.83635 0
M  V30 2469 C 232.677 3.59513 -4.63646 0
M  V30 2470 C 235.029 3.62169 -5.18668 0
M  V30 2471 C 233.693 3.65003 -5.58864 0
M  V30 2472 H 232.963 0.668441 -0.319794 0
M  V30 2473 H 235.61 1.30613 -1.40045 0
M  V30 2474 H 233.915 3.83894 -0.783122 0
M  V30 2475 H 235.612 3.83416 -1.17443 0
M  V30 2476 H 232.202 3.4423 -2.5535 0
M  V30 2477 H 236.386 3.4853 -3.53328 0
M  V30 2478 H 231.642 3.59987 -4.94185 0
M  V30 2479 H 235.816 3.6552 -5.92763 0
M  V30 2480 H 233.443 3.70822 -6.63623 0
M  V30 2481 N 235.018 0.912232 1.28515 0
M  V30 2482 C 235.948 0.416403 2.29757 0
M  V30 2483 C 236.929 -0.515194 1.6211 0
M  V30 2484 O 238.114 -0.423253 1.89532 0
M  V30 2485 C 235.244 -0.34572 3.45575 0
M  V30 2486 C 234.198 0.496599 4.25109 0
M  V30 2487 C 233.524 -0.393771 5.33248 0
M  V30 2488 C 234.824 1.75307 4.92001 0
M  V30 2489 H 236.518 1.26249 2.7148 0
M  V30 2490 H 234.064 0.608515 1.30511 0
M  V30 2491 H 236.017 -0.703422 4.15488 0
M  V30 2492 H 234.741 -1.2257 3.02728 0
M  V30 2493 H 233.4 0.8368 3.56922 0
M  V30 2494 H 233.048 -1.27225 4.86644 0
M  V30 2495 H 232.748 0.166209 5.87365 0
M  V30 2496 H 234.272 -0.747389 6.06009 0
M  V30 2497 H 235.686 1.46437 5.54283 0
M  V30 2498 H 234.083 2.25534 5.56106 0
M  V30 2499 H 235.153 2.48176 4.16577 0
M  V30 2500 N 236.496 -1.42363 0.676048 0
M  V30 2501 C 237.907 -1.84649 0.275948 0
M  V30 2502 C 238.258 -1.56588 -1.18214 0
M  V30 2503 O 237.383 -1.02634 -1.90513 0
M  V30 2504 C 237.978 -3.35178 0.494053 0
M  V30 2505 C 236.537 -3.76109 0.148061 0
M  V30 2506 C 235.684 -2.65931 0.785891 0
M  V30 2507 H 238.635 -1.32192 0.878121 0
M  V30 2508 H 238.656 -3.79655 -0.25343 0
M  V30 2509 H 238.168 -3.55571 1.55535 0
M  V30 2510 H 236.269 -3.61323 -0.909742 0
M  V30 2511 H 236.382 -4.7546 0.589454 0
M  V30 2512 H 234.746 -2.53773 0.217113 0
M  V30 2513 H 235.529 -2.89146 1.85067 0
M  V30 2514 N 237.974 -0.419461 -1.51915 0
M  V30 2515 C 238.904 0.391813 -2.30189 0
M  V30 2516 C 239.885 1.03699 -1.34836 0
M  V30 2517 O 241.07 1.04403 -1.63748 0
M  V30 2518 C 238.2 1.50312 -3.13087 0
M  V30 2519 C 237.154 0.9824 -4.16573 0
M  V30 2520 C 236.48 2.18809 -4.8788 0
M  V30 2521 C 237.78 0.0292356 -5.22292 0
M  V30 2522 H 239.474 -0.26135 -2.98257 0
M  V30 2523 H 237.02 -0.127134 -1.43438 0
M  V30 2524 H 238.973 2.07773 -3.66617 0
M  V30 2525 H 237.697 2.18431 -2.42807 0
M  V30 2526 H 236.356 0.430119 -3.64068 0
M  V30 2527 H 236.004 2.85507 -4.14119 0
M  V30 2528 H 235.704 1.84615 -5.57845 0
M  V30 2529 H 237.228 2.76858 -5.44226 0
M  V30 2530 H 238.642 0.512976 -5.71 0
M  V30 2531 H 237.039 -0.2244 -5.9968 0
M  V30 2532 H 238.109 -0.912931 -4.76228 0
M  V30 2533 N 239.452 1.56882 -0.150215 0
M  V30 2534 C 240.677 2.01027 0.510184 0
M  V30 2535 C 241.102 1.02966 1.57415 0
M  V30 2536 O 240.46 0.00590158 1.81299 0
M  V30 2537 C 240.508 3.43899 1.08472 0
M  V30 2538 O 239.612 3.4885 2.19948 0
M  V30 2539 H 238.953 0.652233 0.124451 0
M  V30 2540 H 241.483 2.03093 -0.247894 0
M  V30 2541 H 241.493 3.82766 1.41259 0
M  V30 2542 H 240.168 4.14776 0.305582 0
M  V30 2543 H 238.745 3.21827 1.88366 0
M  V30 2544 N 240.93 -0.123565 1.57115 0
M  V30 2545 C 241.88 -1.1575 1.96433 0
M  V30 2546 C 242.864 -1.37313 0.838686 0
M  V30 2547 O 244.056 -1.38482 1.10235 0
M  V30 2548 C 241.185 -2.48526 2.36833 0
M  V30 2549 C 240.271 -2.30457 3.5602 0
M  V30 2550 N 240.662 -1.8219 4.71848 0
M  V30 2551 C 238.96 -2.61129 3.61563 0
M  V30 2552 C 239.661 -1.77721 5.53886 0
M  V30 2553 N 238.637 -2.21899 4.96248 0
M  V30 2554 H 242.439 -0.776797 2.83449 0
M  V30 2555 H 239.953 -0.331364 1.58983 0
M  V30 2556 H 241.95 -3.233 2.63216 0
M  V30 2557 H 240.61 -2.87358 1.5118 0
M  V30 2558 H 241.621 -1.51805 4.95152 0
M  V30 2559 H 238.298 -3.03678 2.86507 0
M  V30 2560 H 239.688 -1.41697 6.56789 0
M  V30 2561 N 242.408 -1.52605 -0.393616 0
M  V30 2562 C 243.655 -1.67424 -1.1391 0
M  V30 2563 C 243.983 -0.411859 -1.90089 0
M  V30 2564 O 243.238 0.605626 -1.86093 0
M  V30 2565 C 243.537 -2.85721 -2.14705 0
M  V30 2566 C 243.203 -4.23342 -1.55218 0
M  V30 2567 C 241.865 -4.60771 -1.3872 0
M  V30 2568 C 244.217 -5.09041 -1.11924 0
M  V30 2569 C 241.545 -5.81563 -0.774689 0
M  V30 2570 C 243.897 -6.30452 -0.520853 0
M  V30 2571 C 242.561 -6.66617 -0.343134 0
M  V30 2572 H 241.831 -0.612648 -0.416826 0
M  V30 2573 H 244.478 -1.8674 -0.424315 0
M  V30 2574 H 242.783 -2.60803 -2.92385 0
M  V30 2575 H 244.48 -2.94382 -2.72288 0
M  V30 2576 H 241.07 -3.93855 -1.69045 0
M  V30 2577 H 245.254 -4.80695 -1.23473 0
M  V30 2578 H 240.51 -6.08196 -0.625154 0
M  V30 2579 H 244.684 -6.96175 -0.177065 0
M  V30 2580 H 242.311 -7.60083 0.133571 0
M  V30 2581 N 243.887 0.651787 -1.4349 0
M  V30 2582 C 244.817 1.77621 -1.51569 0
M  V30 2583 C 245.798 1.66022 -0.370253 0
M  V30 2584 O 246.983 1.85095 -0.587658 0
M  V30 2585 C 244.113 3.16056 -1.43966 0
M  V30 2586 C 243.067 3.4242 -2.56774 0
M  V30 2587 C 242.393 4.8067 -2.34223 0
M  V30 2588 C 243.693 3.37023 -3.99015 0
M  V30 2589 H 245.387 1.71117 -2.45681 0
M  V30 2590 H 242.933 0.821825 -1.18246 0
M  V30 2591 H 244.886 3.94472 -1.48221 0
M  V30 2592 H 243.61 3.23293 -0.463586 0
M  V30 2593 H 242.269 2.66375 -2.51873 0
M  V30 2594 H 241.917 4.84585 -1.34856 0
M  V30 2595 H 241.617 4.9927 -3.09844 0
M  V30 2596 H 243.141 5.61342 -2.40265 0
M  V30 2597 H 244.555 4.05374 -4.05395 0
M  V30 2598 H 242.952 3.67159 -4.74673 0
M  V30 2599 H 244.022 2.3518 -4.2405 0
M  V30 2600 N 245.365 1.30045 0.890287 0
M  V30 2601 C 246.776 1.16738 1.45702 0
M  V30 2602 C 247.127 -0.233939 1.948 0
M  V30 2603 O 246.252 -1.13021 1.84541 0
M  V30 2604 C 246.847 2.11313 2.64825 0
M  V30 2605 C 245.406 2.02001 3.17604 0
M  V30 2606 C 244.553 2.01699 1.90296 0
M  V30 2607 H 247.504 1.42392 0.700726 0
M  V30 2608 H 247.525 1.69086 3.40867 0
M  V30 2609 H 247.037 3.13294 2.2906 0
M  V30 2610 H 245.138 1.03142 3.5804 0
M  V30 2611 H 245.251 2.90128 3.81264 0
M  V30 2612 H 243.615 1.46427 2.08402 0
M  V30 2613 H 244.398 3.05402 1.56795 0
M  V30 2614 N 246.843 -1.10192 1.12674 0
M  V30 2615 C 247.776 -2.15847 0.740625 0
M  V30 2616 C 248.754 -1.60352 -0.269421 0
M  V30 2617 O 249.938 -1.87796 -0.16278 0
M  V30 2618 C 247.065 -3.38562 0.096641 0
M  V30 2619 C 246.111 -4.12758 1.07391 0
M  V30 2620 S 246.944 -4.67997 2.60267 0
M  V30 2621 C 248.1 -5.94021 1.97206 0
M  V30 2622 H 248.333 -2.48266 1.63558 0
M  V30 2623 H 245.866 -1.22019 0.946087 0
M  V30 2624 H 247.824 -4.09621 -0.268535 0
M  V30 2625 H 246.485 -3.04377 -0.775462 0
M  V30 2626 H 245.678 -5.00755 0.570997 0
M  V30 2627 H 245.28 -3.47523 1.38216 0
M  V30 2628 H 247.572 -6.64589 1.31634 0
M  V30 2629 H 248.515 -6.48979 2.83253 0
M  V30 2630 H 248.923 -5.46169 1.42686 0
M  V30 2631 N 248.321 -0.919034 -1.28029 0
M  V30 2632 C 249.251 -0.428581 -2.29533 0
M  V30 2633 C 250.232 0.50659 -1.62381 0
M  V30 2634 O 251.417 0.413195 -1.89753 0
M  V30 2635 C 248.547 0.327388 -3.45753 0
M  V30 2636 C 247.501 -0.519137 -4.2484 0
M  V30 2637 C 246.827 0.365486 -5.33449 0
M  V30 2638 C 248.127 -1.77914 -4.91064 0
M  V30 2639 H 249.821 -1.27687 -2.70807 0
M  V30 2640 H 247.367 -0.615428 -1.30186 0
M  V30 2641 H 249.32 0.681378 -4.15855 0
M  V30 2642 H 248.044 1.20963 -3.03374 0
M  V30 2643 H 246.703 -0.855717 -3.56473 0
M  V30 2644 H 246.351 1.24642 -4.87312 0
M  V30 2645 H 246.051 -0.197356 -5.87268 0
M  V30 2646 H 247.575 0.715241 -6.06396 0
M  V30 2647 H 248.989 -1.49374 -5.53498 0
M  V30 2648 H 247.386 -2.2848 -5.54903 0
M  V30 2649 H 248.456 -2.50382 -4.15255 0
M  V30 2650 N 249.799 1.42003 -0.683588 0
M  V30 2651 C 251.21 1.84501 -0.285736 0
M  V30 2652 C 251.561 1.57213 1.17382 0
M  V30 2653 O 250.686 1.03642 1.89966 0
M  V30 2654 C 251.281 3.34912 -0.511821 0
M  V30 2655 C 249.84 3.76025 -0.168005 0
M  V30 2656 C 248.987 2.6551 -0.799983 0
M  V30 2657 H 251.938 1.31724 -0.885119 0
M  V30 2658 H 251.959 3.79784 0.233292 0
M  V30 2659 H 251.471 3.54741 -1.57418 0
M  V30 2660 H 249.572 3.61801 0.890567 0
M  V30 2661 H 249.685 4.75141 -0.614661 0
M  V30 2662 H 248.049 2.53654 -0.230568 0
M  V30 2663 H 248.832 2.8816 -1.86597 0
M  V30 2664 N 251.277 0.427512 1.51691 0
M  V30 2665 C 252.21 -0.433876 2.24037 0
M  V30 2666 C 253.188 -1.03287 1.25581 0
M  V30 2667 O 254.372 -1.07722 1.54688 0
M  V30 2668 C 251.499 -1.60385 2.98319 0
M  V30 2669 C 250.545 -1.12648 4.11355 0
M  V30 2670 S 251.378 -0.076543 5.35445 0
M  V30 2671 C 252.534 -1.25141 6.13262 0
M  V30 2672 H 252.767 0.180367 2.96752 0
M  V30 2673 H 250.3 0.211946 1.52938 0
M  V30 2674 H 252.258 -2.27462 3.41718 0
M  V30 2675 H 250.919 -2.18948 2.25213 0
M  V30 2676 H 250.112 -2.0011 4.62571 0
M  V30 2677 H 249.714 -0.534088 3.70167 0
M  V30 2678 H 252.006 -2.17162 6.41753 0
M  V30 2679 H 252.949 -0.779411 7.03797 0
M  V30 2680 H 253.357 -1.48553 5.44603 0
M  V30 2681 N 252.755 -1.56801 0.158532 0
M  V30 2682 C 254.001 -1.96781 -0.490405 0
M  V30 2683 C 254.334 -1.04397 -1.63753 0
M  V30 2684 O 253.609 -0.0885805 -1.94298 0
M  V30 2685 C 253.892 -3.4635 -0.985594 0
M  V30 2686 C 253.745 -4.49512 0.160824 0
M  V30 2687 C 255.064 -3.98697 -1.86355 0
M  V30 2688 H 252.183 -0.715482 -0.176788 0
M  V30 2689 H 254.825 -1.88451 0.242088 0
M  V30 2690 H 252.975 -3.53579 -1.60978 0
M  V30 2691 H 254.647 -4.54353 0.797537 0
M  V30 2692 H 252.89 -4.26013 0.818256 0
M  V30 2693 H 253.561 -5.51531 -0.227569 0
M  V30 2694 H 256.037 -3.94019 -1.33746 0
M  V30 2695 H 254.913 -5.03792 -2.17909 0
M  V30 2696 H 255.174 -3.41744 -2.8047 0
M  V30 2697 N 254.233 0.115231 -1.57178 0
M  V30 2698 C 255.644 0.67197 -1.74188 0
M  V30 2699 C 255.995 1.80125 -0.777777 0
M  V30 2700 O 255.12 2.16346 0.0484376 0
M  V30 2701 C 255.715 1.22573 -3.1585 0
M  V30 2702 C 254.274 1.72872 -3.34353 0
M  V30 2703 C 253.421 0.629972 -2.70049 0
M  V30 2704 H 256.372 -0.110712 -1.58313 0
M  V30 2705 H 256.393 2.09535 -3.17609 0
M  V30 2706 H 255.905 0.403598 -3.85996 0
M  V30 2707 H 254.006 2.5755 -2.69256 0
M  V30 2708 H 254.119 1.83557 -4.42542 0
M  V30 2709 H 252.483 1.0645 -2.31388 0
M  V30 2710 H 253.266 -0.181241 -3.42821 0
M  V30 2711 N 255.711 1.52812 0.385517 0
M  V30 2712 C 256.621 1.80766 1.49535 0
M  V30 2713 C 257.637 0.694651 1.59532 0
M  V30 2714 O 258.813 0.982611 1.75803 0
M  V30 2715 C 255.878 1.97381 2.85029 0
M  V30 2716 C 254.939 3.21295 2.84724 0
M  V30 2717 C 254.172 3.37108 4.13756 0
M  V30 2718 O 254.395 2.5765 5.08893 0
M  V30 2719 O 253.329 4.30378 4.20783 0
M  V30 2720 H 257.155 2.75015 1.28842 0
M  V30 2721 H 254.74 1.37946 0.573697 0
M  V30 2722 H 256.622 2.09996 3.65349 0
M  V30 2723 H 255.297 1.06322 3.05741 0
M  V30 2724 H 254.204 3.1412 2.03174 0
M  V30 2725 H 255.537 4.12212 2.68965 0
M  V30 2726 N 257.189 -0.644168 1.43834 0
M  V30 2727 C 258.099 -1.78563 1.52159 0
M  V30 2728 C 259.115 -1.69147 0.408069 0
M  V30 2729 O 260.291 -1.90156 0.663524 0
M  V30 2730 C 257.356 -3.14888 1.45073 0
M  V30 2731 C 256.417 -3.36034 2.6717 0
M  V30 2732 C 255.65 -4.65855 2.60413 0
M  V30 2733 O 255.873 -5.45805 1.65689 0
M  V30 2734 O 254.807 -4.88918 3.5106 0
M  V30 2735 H 258.633 -1.74494 2.48567 0
M  V30 2736 H 256.218 -0.80378 1.25935 0
M  V30 2737 H 258.1 -3.96179 1.43597 0
M  V30 2738 H 256.775 -3.19528 0.518037 0
M  V30 2739 H 255.682 -2.54472 2.74217 0
M  V30 2740 H 257.015 -3.36247 3.59442 0
M  V30 2741 N 258.668 -1.30515 -0.883378 0
M  V30 2742 C 260.079 -1.17509 -1.45081 0
M  V30 2743 C 260.43 0.223605 -1.94922 0
M  V30 2744 O 259.555 1.12041 -1.85137 0
M  V30 2745 C 260.15 -2.12715 -2.63701 0
M  V30 2746 C 258.709 -2.03682 -3.16529 0
M  V30 2747 C 257.856 -2.02706 -1.89224 0
M  V30 2748 H 260.807 -1.42762 -0.693165 0
M  V30 2749 H 260.828 -1.70891 -3.39965 0
M  V30 2750 H 260.34 -3.14505 -2.27395 0
M  V30 2751 H 258.441 -1.05039 -3.57488 0
M  V30 2752 H 258.554 -2.92146 -3.7972 0
M  V30 2753 H 256.918 -1.4753 -2.07622 0
M  V30 2754 H 257.701 -3.06229 -1.55174 0
M  V30 2755 N 260.146 1.09593 -1.13257 0
M  V30 2756 C 261.056 2.19739 -0.821691 0
M  V30 2757 C 262.072 1.72926 0.19302 0
M  V30 2758 O 263.248 2.01385 0.0244895 0
M  V30 2759 C 260.313 3.45482 -0.290333 0
M  V30 2760 C 259.374 4.06985 -1.36607 0
M  V30 2761 C 258.607 5.26726 -0.859975 0
M  V30 2762 O 258.83 5.69594 0.303082 0
M  V30 2763 O 257.764 5.7931 -1.63351 0
M  V30 2764 H 261.59 2.48781 -1.74189 0
M  V30 2765 H 259.175 1.18496 -0.909894 0
M  V30 2766 H 261.057 4.214 0.000674022 0
M  V30 2767 H 259.732 3.18047 0.602306 0
M  V30 2768 H 258.639 3.32712 -1.71037 0
M  V30 2769 H 259.972 4.38643 -2.23279 0
M  V30 2770 N 261.624 0.925811 1.2754 0
M  V30 2771 C 262.901 0.483726 1.89524 0
M  V30 2772 C 263.281 -1.03809 1.83812 0
M  V30 2773 O 262.629 -1.89143 1.28207 0
M  V30 2774 C 262.839 1.02769 3.33526 0
M  V30 2775 C 264.187 1.08703 4.10449 0
M  V30 2776 O 265.211 0.977175 3.42534 0
M  V30 2777 O 264.07 1.25599 5.31871 0
M  V30 2778 H 261.164 0.15529 0.812289 0
M  V30 2779 H 263.71 1.01738 1.35822 0
M  V30 2780 H 262.482 2.07155 3.31967 0
M  V30 2781 H 262.105 0.475567 3.94746 0
M  V30 2782 N 263.102 -1.41638 0.69111 0
M  V30 2783 C 264.032 -2.3347 0.037248 0
M  V30 2784 C 265.013 -1.51575 -0.771947 0
M  V30 2785 O 266.198 -1.80126 -0.72582 0
M  V30 2786 C 263.328 -3.35354 -0.903064 0
M  V30 2787 C 262.282 -4.27526 -0.201288 0
M  V30 2788 C 261.608 -5.19747 -1.25565 0
M  V30 2789 C 262.908 -5.13959 0.929689 0
M  V30 2790 H 264.602 -2.88397 0.804227 0
M  V30 2791 H 262.148 -1.38669 0.388189 0
M  V30 2792 H 264.101 -3.98519 -1.36969 0
M  V30 2793 H 262.825 -2.78767 -1.70166 0
M  V30 2794 H 261.484 -3.65779 0.245265 0
M  V30 2795 H 261.132 -4.59479 -2.04666 0
M  V30 2796 H 260.832 -5.8225 -0.791128 0
M  V30 2797 H 262.356 -5.85789 -1.72288 0
M  V30 2798 H 263.77 -5.70718 0.543546 0
M  V30 2799 H 262.167 -5.85379 1.32103 0
M  V30 2800 H 263.237 -4.51389 1.77133 0
M  V30 2801 N 264.58 -0.43555 -1.51462 0
M  V30 2802 C 265.996 -0.0877501 -1.59359 0
M  V30 2803 C 266.196 1.4027 -1.4466 0
M  V30 2804 O 265.252 2.17243 -1.28693 0
M  V30 2805 C 266.565 -0.606264 -2.94525 0
M  V30 2806 C 268.113 -0.566548 -3.0783 0
M  V30 2807 C 268.588 -1.06201 -4.45517 0
M  V30 2808 N 270.079 -1.01992 -4.51832 0
M  V30 2809 C 270.814 -1.37417 -5.5669 0
M  V30 2810 N 270.31 -1.80119 -6.68976 0
M  V30 2811 N 272.103 -1.29245 -5.47039 0
M  V30 2812 H 264.254 -1.40533 -1.59261 0
M  V30 2813 H 266.517 -0.578992 -0.750648 0
M  V30 2814 H 266.223 -1.64901 -3.10645 0
M  V30 2815 H 266.097 -0.0302097 -3.77188 0
M  V30 2816 H 268.484 0.467208 -2.91378 0
M  V30 2817 H 268.565 -1.17898 -2.2701 0
M  V30 2818 H 268.209 -2.09422 -4.62715 0
M  V30 2819 H 268.139 -0.426127 -5.24873 0
M  V30 2820 H 270.63 -0.706308 -3.71241 0
M  V30 2821 H 270.943 -2.05392 -7.45006 0
M  V30 2822 H 269.288 -1.84044 -6.70189 0
M  V30 2823 H 272.479 -0.957522 -4.58202 0
M  V30 2824 H 272.652 -1.57182 -6.28648 0
M  V30 2825 N 266.058 1.56714 -0.166846 0
M  V30 2826 C 267.306 1.96358 0.478305 0
M  V30 2827 C 267.627 1.0537 1.6408 0
M  V30 2828 O 266.897 0.119154 1.95537 0
M  V30 2829 H 265.477 0.725065 0.179692 0
M  V30 2830 H 268.139 1.93329 -0.246985 0
M  V30 2831 H 267.235 3.00547 0.841292 0
M  V30 2832 N 267.536 -0.106894 1.57237 0
M  V30 2833 C 268.486 -1.1366 1.9765 0
M  V30 2834 C 269.47 -1.36416 0.853203 0
M  V30 2835 O 270.662 -1.37305 1.11697 0
M  V30 2836 C 267.791 -2.46 2.39455 0
M  V30 2837 C 266.877 -2.26668 3.58445 0
M  V30 2838 N 267.268 -1.77176 4.73754 0
M  V30 2839 C 265.566 -2.57279 3.64312 0
M  V30 2840 C 266.267 -1.71836 5.5574 0
M  V30 2841 N 265.243 -2.16623 4.98573 0
M  V30 2842 H 269.045 -0.74669 2.84256 0
M  V30 2843 H 266.559 -0.314483 1.59326 0
M  V30 2844 H 268.556 -3.2049 2.6663 0
M  V30 2845 H 267.216 -2.85738 1.54219 0
M  V30 2846 H 268.227 -1.46545 4.96734 0
M  V30 2847 H 264.904 -3.00622 2.89711 0
M  V30 2848 H 266.294 -1.34723 6.58255 0
M  V30 2849 N 269.014 -1.53014 -0.377408 0
M  V30 2850 C 269.944 -1.81589 -1.46791 0
M  V30 2851 C 270.925 -0.668622 -1.56408 0
M  V30 2852 O 272.11 -0.917337 -1.71168 0
M  V30 2853 C 269.24 -1.99519 -2.8427 0
M  V30 2854 C 268.194 -3.15249 -2.89486 0
M  V30 2855 C 267.52 -3.18451 -4.29527 0
M  V30 2856 C 268.82 -4.54084 -2.58079 0
M  V30 2857 H 270.514 -2.7291 -1.23127 0
M  V30 2858 H 268.06 -1.31319 -0.590883 0
M  V30 2859 H 270.013 -2.18092 -3.60575 0
M  V30 2860 H 268.737 -1.04897 -3.09296 0
M  V30 2861 H 267.396 -2.96477 -2.15631 0
M  V30 2862 H 267.044 -2.2149 -4.5161 0
M  V30 2863 H 266.744 -3.962 -4.33934 0
M  V30 2864 H 268.268 -3.39193 -5.07721 0
M  V30 2865 H 269.682 -4.72899 -3.24098 0
M  V30 2866 H 268.079 -5.33987 -2.7382 0
M  V30 2867 H 269.149 -4.60006 -1.53372 0
M  V30 2868 N 270.492 0.636531 -1.44174 0
M  V30 2869 C 271.402 1.77754 -1.53103 0
M  V30 2870 C 272.418 1.68928 -0.417034 0
M  V30 2871 O 273.594 1.89801 -0.6736 0
M  V30 2872 C 270.659 3.14115 -1.46741 0
M  V30 2873 C 269.72 3.34612 -2.68948 0
M  V30 2874 C 268.953 4.64467 -2.6288 0
M  V30 2875 O 269.176 5.44919 -1.68581 0
M  V30 2876 O 268.11 4.87049 -3.53648 0
M  V30 2877 H 271.936 1.73174 -2.49489 0
M  V30 2878 H 269.521 0.79709 -1.2636 0
M  V30 2879 H 271.403 3.95412 -1.45696 0
M  V30 2880 H 270.078 3.19249 -0.534975 0
M  V30 2881 H 268.985 2.53014 -2.75562 0
M  V30 2882 H 270.318 3.34336 -3.61221 0
M  V30 2883 N 271.97 1.30982 0.876444 0
M  V30 2884 C 273.195 1.23373 1.66715 0
M  V30 2885 C 273.62 -0.19885 1.87046 0
M  V30 2886 O 272.978 -1.1427 1.40756 0
M  V30 2887 C 273.026 1.97644 3.01611 0
M  V30 2888 O 272.13 1.30935 3.91062 0
M  V30 2889 H 271.471 0.426279 0.509099 0
M  V30 2890 H 274.001 1.72944 1.09323 0
M  V30 2891 H 274.011 2.06992 3.51594 0
M  V30 2892 H 272.686 3.01829 2.86133 0
M  V30 2893 H 271.263 1.29996 3.49507 0
M  V30 2894 N 273.449 -1.08991 1.13837 0
M  V30 2895 C 274.726 -1.77863 0.813876 0
M  V30 2896 C 275.106 -1.99375 -0.693746 0
M  V30 2897 O 274.454 -1.59875 -1.63255 0
M  V30 2898 C 274.664 -3.0986 1.60586 0
M  V30 2899 C 276.012 -3.84493 1.8014 0
M  V30 2900 O 277.036 -3.19624 1.57222 0
M  V30 2901 O 275.895 -5.00957 2.18413 0
M  V30 2902 H 272.989 -0.771589 0.297624 0
M  V30 2903 H 275.535 -1.15507 1.24323 0
M  V30 2904 H 274.307 -2.89715 2.63022 0
M  V30 2905 H 273.93 -3.79942 1.17173 0
M  V30 2906 N 274.927 -0.932562 -1.27047 0
M  V30 2907 C 275.86 -0.379774 -2.25018 0
M  V30 2908 C 276.838 0.526587 -1.53837 0
M  V30 2909 O 278.022 0.465992 -1.82649 0
M  V30 2910 C 275.149 0.455187 -3.35627 0
M  V30 2911 C 274.195 -0.388428 -4.24728 0
M  V30 2912 S 275.028 -1.80701 -5.04091 0
M  V30 2913 C 276.184 -0.979865 -6.18182 0
M  V30 2914 H 276.417 -1.2101 -2.71558 0
M  V30 2915 H 273.95 -0.735078 -1.35779 0
M  V30 2916 H 275.908 0.931052 -3.99802 0
M  V30 2917 H 274.569 1.26009 -2.87716 0
M  V30 2918 H 273.762 0.25089 -5.03375 0
M  V30 2919 H 273.364 -0.798649 -3.65373 0
M  V30 2920 H 275.656 -0.218115 -6.77149 0
M  V30 2921 H 276.599 -1.73951 -6.86401 0
M  V30 2922 H 277.007 -0.51973 -5.62102 0
M  V30 2923 N 276.405 1.4127 -0.698611 0
M  V30 2924 C 277.652 2.0118 -0.230865 0
M  V30 2925 C 277.98 1.55338 1.17049 0
M  V30 2926 O 277.235 0.756775 1.80475 0
M  V30 2927 C 277.534 3.56592 -0.240192 0
M  V30 2928 C 277.2 4.21955 -1.58948 0
M  V30 2929 C 275.862 4.39524 -1.95887 0
M  V30 2930 C 278.214 4.58576 -2.47704 0
M  V30 2931 C 275.542 4.90992 -3.2116 0
M  V30 2932 C 277.894 5.11435 -3.72313 0
M  V30 2933 C 276.558 5.27215 -4.0939 0
M  V30 2934 H 275.828 0.736169 -0.0844796 0
M  V30 2935 H 278.475 1.69124 -0.8983 0
M  V30 2936 H 276.78 3.88456 0.510797 0
M  V30 2937 H 278.477 4.00758 0.139296 0
M  V30 2938 H 275.067 4.08657 -1.29219 0
M  V30 2939 H 279.251 4.44654 -2.20445 0
M  V30 2940 H 274.507 5.01393 -3.49878 0
M  V30 2941 H 278.681 5.38752 -4.4127 0
M  V30 2942 H 276.308 5.66859 -5.06533 0
M  V30 2943 N 277.883 0.443576 1.51229 0
M  V30 2944 C 279.108 -0.121648 2.07043 0
M  V30 2945 C 279.533 -1.35156 1.30823 0
M  V30 2946 O 278.891 -1.7793 0.347934 0
M  V30 2947 C 278.939 -0.41624 3.5819 0
M  V30 2948 O 278.043 -1.50163 3.8409 0
M  V30 2949 H 277.384 0.000871367 0.663999 0
M  V30 2950 H 279.914 0.626706 1.94765 0
M  V30 2951 H 279.924 -0.664867 4.02546 0
M  V30 2952 H 278.599 0.482653 4.1309 0
M  V30 2953 H 277.176 -1.24248 3.51592 0
M  V30 2954 N 279.361 -1.56624 0.175154 0
M  V30 2955 C 280.586 -2.01813 -0.478137 0
M  V30 2956 C 281.011 -1.05457 -1.55757 0
M  V30 2957 O 280.369 -0.0347439 -1.81267 0
M  V30 2958 C 280.417 -3.45581 -1.02987 0
M  V30 2959 O 279.521 -3.52305 -2.14371 0
M  V30 2960 H 278.862 -0.65413 -0.114059 0
M  V30 2961 H 281.392 -2.02673 0.280173 0
M  V30 2962 H 281.402 -3.84965 -1.35151 0
M  V30 2963 H 280.077 -4.1521 -0.239556 0
M  V30 2964 H 278.654 -3.24783 -1.83222 0
M  V30 2965 N 280.839 0.0985539 -1.57292 0
M  V30 2966 C 282.25 0.653457 -1.74891 0
M  V30 2967 C 282.601 1.7929 -0.796838 0
M  V30 2968 O 281.726 2.16385 0.0254886 0
M  V30 2969 C 282.321 1.19216 -3.17133 0
M  V30 2970 C 280.88 1.69316 -3.36168 0
M  V30 2971 C 280.027 0.601294 -2.70702 0
M  V30 2972 H 282.978 -0.127497 -1.58187 0
M  V30 2973 H 282.999 2.06154 -3.19814 0
M  V30 2974 H 282.511 0.362635 -3.86402 0
M  V30 2975 H 280.612 2.5468 -2.71972 0
M  V30 2976 H 280.725 1.78853 -4.44464 0
M  V30 2977 H 279.089 1.0399 -2.32504 0
M  V30 2978 H 279.872 -0.217592 -3.4261 0
M  V30 2979 N 282.317 1.53212 0.369288 0
M  V30 2980 C 283.247 1.82365 1.45826 0
M  V30 2981 C 284.228 0.676907 1.56051 0
M  V30 2982 O 285.413 0.926401 1.70679 0
M  V30 2983 C 282.543 2.01023 2.83208 0
M  V30 2984 C 281.497 3.1678 2.8781 0
M  V30 2985 C 280.823 3.20724 4.27832 0
M  V30 2986 C 282.123 4.55447 2.55667 0
M  V30 2987 H 283.817 2.73559 1.21678 0
M  V30 2988 H 281.363 1.3163 0.583911 0
M  V30 2989 H 283.316 2.20001 3.59413 0
M  V30 2990 H 282.04 1.06536 3.08736 0
M  V30 2991 H 280.699 2.97616 2.14056 0
M  V30 2992 H 280.347 2.23882 4.50429 0
M  V30 2993 H 280.047 3.98496 4.31827 0
M  V30 2994 H 281.571 3.41881 5.05915 0
M  V30 2995 H 282.985 4.74611 3.21586 0
M  V30 2996 H 281.382 5.35432 2.70984 0
M  V30 2997 H 282.452 4.60812 1.5093 0
M  V30 2998 N 283.795 -0.628877 1.44509 0
M  V30 2999 C 284.705 -1.7694 1.54044 0
M  V30 3000 C 285.721 -1.68705 0.425987 0
M  V30 3001 O 286.897 -1.89442 0.683656 0
M  V30 3002 C 283.962 -3.13332 1.48405 0
M  V30 3003 C 283.023 -3.33181 2.70719 0
M  V30 3004 C 282.256 -4.63067 2.6534 0
M  V30 3005 O 282.479 -5.44017 1.71469 0
M  V30 3006 O 281.413 -4.85167 3.56226 0
M  V30 3007 H 285.239 -1.71848 2.50403 0
M  V30 3008 H 282.824 -0.790378 1.26781 0
M  V30 3009 H 284.706 -3.94634 1.47791 0
M  V30 3010 H 283.381 -3.1896 0.551898 0
M  V30 3011 H 282.288 -2.51549 2.769 0
M  V30 3012 H 283.621 -3.32416 3.62988 0
M  V30 3013 N 285.273 -1.31445 -0.869486 0
M  V30 3014 C 286.501 -1.24122 -1.65534 0
M  V30 3015 C 286.916 0.193387 -1.87807 0
M  V30 3016 O 286.273 1.12557 -1.43656 0
M  V30 3017 C 286.324 -1.98229 -3.02304 0
M  V30 3018 O 286.045 -3.3609 -2.81026 0
M  V30 3019 C 287.546 -1.97751 -3.96749 0
M  V30 3020 H 284.766 -0.428868 -0.516055 0
M  V30 3021 H 287.31 -1.73328 -1.08525 0
M  V30 3022 H 285.465 -1.52782 -3.56001 0
M  V30 3023 H 285.879 -3.7383 -3.67902 0
M  V30 3024 H 287.353 -2.54114 -4.90031 0
M  V30 3025 H 287.83 -0.960137 -4.28577 0
M  V30 3026 H 288.436 -2.43079 -3.48988 0
M  V30 3027 N 286.751 1.08385 -1.14413 0
M  V30 3028 C 288.028 1.77429 -0.823297 0
M  V30 3029 C 288.408 1.9974 0.683163 0
M  V30 3030 O 287.756 1.60739 1.62405 0
M  V30 3031 C 287.966 3.09004 -1.62227 0
M  V30 3032 C 289.314 3.83532 -1.82177 0
M  V30 3033 O 290.338 3.18786 -1.58915 0
M  V30 3034 O 289.197 4.99792 -2.21067 0
M  V30 3035 H 286.291 0.769999 -0.301712 0
M  V30 3036 H 288.837 1.14846 -1.24934 0
M  V30 3037 H 287.609 2.88316 -2.64555 0
M  V30 3038 H 287.232 3.79316 -1.19187 0
M  V30 3039 N 288.23 0.939286 1.26551 0
M  V30 3040 C 289.455 0.602008 1.98471 0
M  V30 3041 C 289.88 -0.815624 1.69497 0
M  V30 3042 O 289.238 -1.54912 0.941905 0
M  V30 3043 C 289.286 0.848407 3.50477 0
M  V30 3044 O 288.39 -0.0804009 4.12322 0
M  V30 3045 H 287.731 0.23049 0.622712 0
M  V30 3046 H 290.261 1.2617 1.61066 0
M  V30 3047 H 290.271 0.768553 4.00696 0
M  V30 3048 H 288.946 1.88171 3.70897 0
M  V30 3049 H 287.523 0.0503508 3.72866 0
M  V30 3050 N 289.708 -1.40897 0.706093 0
M  V30 3051 C 290.641 -2.282 -0.00328781 0
M  V30 3052 C 291.619 -1.42816 -0.77732 0
M  V30 3053 O 292.803 -1.72237 -0.765944 0
M  V30 3054 C 289.93 -3.23226 -1.01205 0
M  V30 3055 C 288.976 -4.25222 -0.329955 0
M  V30 3056 S 289.809 -5.27269 0.935298 0
M  V30 3057 C 290.965 -6.25859 -0.0716061 0
M  V30 3058 H 291.198 -2.88016 0.737143 0
M  V30 3059 H 288.731 -1.46191 0.496756 0
M  V30 3060 H 290.689 -3.78503 -1.58888 0
M  V30 3061 H 289.35 -2.62485 -1.72513 0
M  V30 3062 H 288.543 -4.92023 -1.09221 0
M  V30 3063 H 288.145 -3.73595 0.174069 0
M  V30 3064 H 290.437 -6.71204 -0.921521 0
M  V30 3065 H 291.38 -7.0586 0.562765 0
M  V30 3066 H 291.788 -5.62852 -0.431088 0
M  V30 3067 N 291.186 -0.45159 -1.50991 0
M  V30 3068 C 292.463 0.170707 -1.94854 0
M  V30 3069 C 292.843 1.58788 -1.39103 0
M  V30 3070 O 292.191 2.20913 -0.583921 0
M  V30 3071 C 292.401 0.133929 -3.48743 0
M  V30 3072 C 293.749 0.33248 -4.23296 0
M  V30 3073 O 294.773 0.211403 -3.55572 0
M  V30 3074 O 293.632 0.57486 -5.43468 0
M  V30 3075 H 290.726 0.122264 -0.817912 0
M  V30 3076 H 293.272 -0.510594 -1.61836 0
M  V30 3077 H 292.044 -0.856283 -3.81816 0
M  V30 3078 H 291.667 0.857529 -3.88242 0
M  V30 3079 N 292.664 1.56529 -0.183458 0
M  V30 3080 C 294.075 1.83739 0.331177 0
M  V30 3081 C 294.426 1.10373 1.62211 0
M  V30 3082 O 293.551 0.36071 2.13373 0
M  V30 3083 C 294.146 3.33306 0.607646 0
M  V30 3084 C 292.705 3.60969 1.06668 0
M  V30 3085 C 291.852 2.77086 0.109029 0
M  V30 3086 H 294.803 1.53379 -0.407484 0
M  V30 3087 H 294.824 3.51444 1.45832 0
M  V30 3088 H 294.336 3.86677 -0.332086 0
M  V30 3089 H 292.437 3.13021 2.0211 0
M  V30 3090 H 292.55 4.69231 0.967447 0
M  V30 3091 H 290.914 2.47319 0.608714 0
M  V30 3092 H 291.697 3.33241 -0.82494 0
M  V30 3093 N 294.142 -0.090211 1.57342 0
M  V30 3094 C 295.389 -0.792807 1.86335 0
M  V30 3095 C 295.717 -1.78494 0.772662 0
M  V30 3096 O 294.972 -1.94305 -0.233258 0
M  V30 3097 C 295.271 -1.55222 3.21933 0
M  V30 3098 C 294.937 -0.701765 4.45406 0
M  V30 3099 C 293.599 -0.467334 4.78925 0
M  V30 3100 C 295.951 -0.11086 5.21082 0
M  V30 3101 C 293.279 0.367785 5.85546 0
M  V30 3102 C 295.631 0.711609 6.28585 0
M  V30 3103 C 294.295 0.956086 6.60617 0
M  V30 3104 H 293.565 -0.290109 0.681849 0
M  V30 3105 H 296.212 -0.0541332 1.91423 0
M  V30 3106 H 294.517 -2.3626 3.12551 0
M  V30 3107 H 296.214 -2.10032 3.41595 0
M  V30 3108 H 292.804 -0.894598 4.1916 0
M  V30 3109 H 296.988 -0.279129 4.95514 0
M  V30 3110 H 292.244 0.566128 6.08773 0
M  V30 3111 H 296.418 1.17632 6.86393 0
M  V30 3112 H 294.045 1.60499 7.43064 0
M  V30 3113 N 295.62 -1.53406 -0.361157 0
M  V30 3114 C 296.868 -1.69467 -1.10115 0
M  V30 3115 C 297.189 -0.451352 -1.89705 0
M  V30 3116 O 296.459 0.534636 -1.88463 0
M  V30 3117 H 295.039 -0.624749 -0.409508 0
M  V30 3118 H 297.701 -1.90609 -0.406699 0
M  V30 3119 H 296.797 -2.55774 -1.78847 0
M  V30 3120 N 297.098 0.621204 -1.44841 0
M  V30 3121 C 298.028 1.74366 -1.55303 0
M  V30 3122 C 299.009 1.65199 -0.405385 0
M  V30 3123 O 300.194 1.83807 -0.626787 0
M  V30 3124 C 297.324 3.12931 -1.50637 0
M  V30 3125 C 296.278 3.36896 -2.63979 0
M  V30 3126 C 295.604 4.75594 -2.44366 0
M  V30 3127 C 296.904 3.28483 -4.06074 0
M  V30 3128 H 298.598 1.65867 -2.49256 0
M  V30 3129 H 296.144 0.796558 -1.19962 0
M  V30 3130 H 298.097 3.9124 -1.56555 0
M  V30 3131 H 296.821 3.22237 -0.532057 0
M  V30 3132 H 295.48 2.60972 -2.57467 0
M  V30 3133 H 295.128 4.81616 -1.45105 0
M  V30 3134 H 294.828 4.92586 -3.20364 0
M  V30 3135 H 296.352 5.5612 -2.52117 0
M  V30 3136 H 297.766 3.96684 -4.13902 0
M  V30 3137 H 296.163 3.57008 -4.82354 0
M  V30 3138 H 297.233 2.26133 -4.28943 0
M  V30 3139 N 298.576 1.31904 0.862503 0
M  V30 3140 C 299.822 1.22197 1.61851 0
M  V30 3141 C 300.155 -0.217641 1.92977 0
M  V30 3142 O 299.43 -1.15264 1.56666 0
M  V30 3143 C 299.713 2.07378 2.94391 0
M  V30 3144 C 299.566 3.59678 2.70096 0
M  V30 3145 C 300.885 1.92891 3.95577 0
M  V30 3146 H 298.004 0.445255 0.587296 0
M  V30 3147 H 300.646 1.6177 0.99651 0
M  V30 3148 H 298.796 1.73758 3.47477 0
M  V30 3149 H 300.468 4.03472 2.23625 0
M  V30 3150 H 298.711 3.82735 2.04197 0
M  V30 3151 H 299.382 4.14595 3.64438 0
M  V30 3152 H 301.858 2.22327 3.51724 0
M  V30 3153 H 300.734 2.54781 4.86187 0
M  V30 3154 H 300.995 0.894315 4.3296 0
M  V30 3155 N 300.054 -1.07777 1.14986 0
M  V30 3156 C 301.282 -1.84018 0.945773 0
M  V30 3157 C 301.697 -1.81897 -0.505863 0
M  V30 3158 O 301.054 -1.22726 -1.35072 0
M  V30 3159 C 301.105 -3.31287 1.44677 0
M  V30 3160 O 300.826 -3.33449 2.84154 0
M  V30 3161 C 302.327 -4.24311 1.28355 0
M  V30 3162 H 299.547 -0.580716 0.336169 0
M  V30 3163 H 302.091 -1.36077 1.52654 0
M  V30 3164 H 300.246 -3.76594 0.908625 0
M  V30 3165 H 300.66 -4.25427 3.06777 0
M  V30 3166 H 302.134 -5.2573 1.68261 0
M  V30 3167 H 302.611 -4.38612 0.227184 0
M  V30 3168 H 303.217 -3.84836 1.81056 0
M  V30 3169 N 301.532 -0.945985 -1.26051 0
M  V30 3170 C 302.78 -0.594941 -1.93145 0
M  V30 3171 C 303.101 0.86953 -1.7454 0
M  V30 3172 O 302.371 1.61838 -1.10387 0
M  V30 3173 H 300.951 -0.217044 -0.714773 0
M  V30 3174 H 303.613 -1.20235 -1.53393 0
M  V30 3175 H 302.709 -0.816835 -3.01221 0
M  V30 3176 N 303.011 1.40521 -0.713556 0
M  V30 3177 C 303.941 2.33381 -0.0743864 0
M  V30 3178 C 304.922 1.52784 0.747735 0
M  V30 3179 O 306.107 1.81258 0.697071 0
M  V30 3180 C 303.237 3.36748 0.849598 0
M  V30 3181 C 302.191 4.27793 0.133247 0
M  V30 3182 C 301.517 5.21679 1.17281 0
M  V30 3183 C 302.817 5.12415 -1.01134 0
M  V30 3184 H 304.511 2.87081 -0.850007 0
M  V30 3185 H 302.057 1.38034 -0.410201 0
M  V30 3186 H 304.01 4.00648 1.30612 0
M  V30 3187 H 302.734 2.81439 1.65709 0
M  V30 3188 H 301.393 3.65342 -0.303426 0
M  V30 3189 H 301.041 4.62677 1.9733 0
M  V30 3190 H 300.741 5.83435 0.698397 0
M  V30 3191 H 302.265 5.88456 1.62947 0
M  V30 3192 H 303.679 5.69781 -0.634274 0
M  V30 3193 H 302.076 5.83203 -1.41399 0
M  V30 3194 H 303.146 4.48514 -1.84292 0
M  V30 3195 N 304.489 0.459591 1.5075 0
M  V30 3196 C 305.399 -0.34613 2.32033 0
M  V30 3197 C 306.415 -1.00686 1.41909 0
M  V30 3198 O 307.591 -0.997361 1.7497 0
M  V30 3199 C 304.656 -1.42029 3.16273 0
M  V30 3200 C 303.717 -0.777362 4.22203 0
M  V30 3201 C 302.95 -1.80034 5.02418 0
M  V30 3202 O 303.173 -3.02544 4.83553 0
M  V30 3203 O 302.107 -1.37853 5.85901 0
M  V30 3204 H 305.933 0.318054 3.0203 0
M  V30 3205 H 303.518 0.221663 1.47746 0
M  V30 3206 H 305.4 -2.04275 3.68578 0
M  V30 3207 H 304.075 -2.06815 2.49016 0
M  V30 3208 H 302.982 -0.116256 3.73919 0
M  V30 3209 H 304.315 -0.172634 4.91897 0
M  V30 3210 N 305.967 -1.56429 0.191757 0
M  V30 3211 C 306.93 -2.17707 -0.716688 0
M  V30 3212 C 307.93 -1.13061 -1.14341 0
M  V30 3213 O 309.12 -1.38464 -1.05704 0
M  V30 3214 C 306.252 -2.77644 -1.97804 0
M  V30 3215 H 307.445 -2.99342 -0.1829 0
M  V30 3216 H 304.998 -1.56193 -0.0578566 0
M  V30 3217 H 305.733 -1.99799 -2.55443 0
M  V30 3218 H 305.518 -3.54246 -1.68083 0
M  V30 3219 H 307.008 -3.24708 -2.62592 0
M  V30 3220 N 307.445 0.0818655 -1.57387 0
M  V30 3221 C 308.691 0.784074 -1.8703 0
M  V30 3222 C 309.024 1.77729 -0.782689 0
M  V30 3223 O 308.299 1.93384 0.208051 0
M  V30 3224 C 308.582 1.50105 -3.27323 0
M  V30 3225 C 308.435 0.524925 -4.46727 0
M  V30 3226 C 309.754 2.44843 -3.65705 0
M  V30 3227 H 306.873 0.283582 -0.680257 0
M  V30 3228 H 309.515 0.0474352 -1.89941 0
M  V30 3229 H 307.665 2.12897 -3.24972 0
M  V30 3230 H 309.337 -0.0970111 -4.61198 0
M  V30 3231 H 307.58 -0.160606 -4.33503 0
M  V30 3232 H 308.251 1.064 -5.41648 0
M  V30 3233 H 310.727 1.92135 -3.69085 0
M  V30 3234 H 309.603 2.92018 -4.64776 0
M  V30 3235 H 309.864 3.29197 -2.95096 0
M  V30 3236 N 308.923 1.53595 0.353017 0
M  V30 3237 C 310.339 1.43648 0.695516 0
M  V30 3238 C 310.539 0.585617 1.92802 0
M  V30 3239 O 309.595 0.0729223 2.52395 0
M  V30 3240 C 310.908 2.8701 0.896991 0
M  V30 3241 C 312.456 2.96723 0.996209 0
M  V30 3242 C 312.931 4.41173 1.23007 0
M  V30 3243 N 314.422 4.44657 1.29749 0
M  V30 3244 C 315.157 5.53547 1.49577 0
M  V30 3245 N 314.653 6.72461 1.66639 0
M  V30 3246 N 316.446 5.41145 1.52048 0
M  V30 3247 H 308.597 2.07415 -0.457481 0
M  V30 3248 H 310.86 0.9372 -0.142687 0
M  V30 3249 H 310.566 3.51644 0.0629938 0
M  V30 3250 H 310.44 3.31401 1.80148 0
M  V30 3251 H 312.827 2.32235 1.82074 0
M  V30 3252 H 312.908 2.55707 0.0688331 0
M  V30 3253 H 312.552 5.06238 0.410505 0
M  V30 3254 H 312.482 4.79772 2.17086 0
M  V30 3255 H 314.973 3.58963 1.18126 0
M  V30 3256 H 315.286 7.51214 1.81378 0
M  V30 3257 H 313.631 6.75423 1.63794 0
M  V30 3258 H 316.822 4.47205 1.38294 0
M  V30 3259 H 316.995 6.26068 1.67159 0
M  V30 3260 N 310.401 -0.613514 1.45168 0
M  V30 3261 C 311.626 -1.40437 1.52618 0
M  V30 3262 C 312.051 -1.87438 0.157707 0
M  V30 3263 O 311.409 -1.59791 -0.856537 0
M  V30 3264 C 311.457 -2.58894 2.51011 0
M  V30 3265 O 310.561 -3.59326 2.02382 0
M  V30 3266 H 309.902 -0.419506 0.514695 0
M  V30 3267 H 312.432 -0.747215 1.90467 0
M  V30 3268 H 312.442 -3.06214 2.69624 0
M  V30 3269 H 311.117 -2.24032 3.50403 0
M  V30 3270 H 309.694 -3.18695 1.93618 0
M  V30 3271 N 311.879 -1.3236 -0.855495 0
M  V30 3272 C 313.29 -1.2056 -1.42556 0
M  V30 3273 C 313.641 0.182209 -1.95352 0
M  V30 3274 O 312.766 1.08088 -1.87472 0
M  V30 3275 C 313.361 -2.1826 -2.59129 0
M  V30 3276 C 311.92 -2.10351 -3.12137 0
M  V30 3277 C 311.067 -2.06674 -1.84882 0
M  V30 3278 H 314.018 -1.442 -0.662727 0
M  V30 3279 H 314.039 -1.78064 -3.36264 0
M  V30 3280 H 313.551 -3.19257 -2.20673 0
M  V30 3281 H 311.652 -1.12599 -3.55179 0
M  V30 3282 H 311.765 -3.00135 -3.73438 0
M  V30 3283 H 310.129 -1.51901 -2.04446 0
M  V30 3284 H 310.912 -3.09451 -1.48643 0
M  V30 3285 N 313.357 1.07166 -1.15556 0
M  V30 3286 C 314.582 1.84053 -0.955988 0
M  V30 3287 C 315.007 1.81586 0.490739 0
M  V30 3288 O 314.365 1.21018 1.34997 0
M  V30 3289 C 314.413 3.28957 -1.47714 0
M  V30 3290 O 313.517 4.06795 -0.677593 0
M  V30 3291 H 312.858 0.569842 -0.340847 0
M  V30 3292 H 315.388 1.35178 -1.53584 0
M  V30 3293 H 315.398 3.79788 -1.4908 0
M  V30 3294 H 314.073 3.30068 -2.53037 0
M  V30 3295 H 312.65 3.6561 -0.733721 0
M  V30 3296 N 314.835 0.952656 1.25548 0
M  V30 3297 C 316.082 0.606373 1.93208 0
M  V30 3298 C 316.41 -0.85631 1.74636 0
M  V30 3299 O 315.665 -1.62951 1.08376 0
M  V30 3300 C 315.964 0.908818 3.45652 0
M  V30 3301 C 315.63 2.35722 3.84378 0
M  V30 3302 C 314.292 2.75312 3.9466 0
M  V30 3303 C 316.644 3.29793 4.03591 0
M  V30 3304 C 313.972 4.08047 4.21562 0
M  V30 3305 C 316.324 4.62138 4.31985 0
M  V30 3306 C 314.988 5.01528 4.40484 0
M  V30 3307 H 314.258 0.221888 0.706998 0
M  V30 3308 H 316.905 1.20132 1.49133 0
M  V30 3309 H 315.21 0.231456 3.91116 0
M  V30 3310 H 316.907 0.619498 3.96186 0
M  V30 3311 H 313.497 2.04017 3.76928 0
M  V30 3312 H 317.681 3.00397 3.95064 0
M  V30 3313 H 312.937 4.38212 4.26357 0
M  V30 3314 H 317.111 5.35012 4.45797 0
M  V30 3315 H 314.738 6.04406 4.61083 0
M  V30 3316 N 316.313 -1.40141 0.720998 0
M  V30 3317 C 317.223 -2.34486 0.0731031 0
M  V30 3318 C 318.239 -1.57587 -0.737723 0
M  V30 3319 O 319.415 -1.89949 -0.669429 0
M  V30 3320 C 316.48 -3.36528 -0.833656 0
M  V30 3321 C 315.541 -4.29298 -0.0121673 0
M  V30 3322 C 314.774 -5.26466 -0.875742 0
M  V30 3323 O 314.997 -5.29745 -2.11485 0
M  V30 3324 O 313.931 -6.01092 -0.31185 0
M  V30 3325 H 317.757 -2.9152 0.851444 0
M  V30 3326 H 315.342 -1.41427 0.481527 0
M  V30 3327 H 317.224 -3.99093 -1.35289 0
M  V30 3328 H 315.899 -2.81899 -1.59105 0
M  V30 3329 H 314.806 -3.70001 0.552262 0
M  V30 3330 H 316.139 -4.87094 0.707129 0
M  V30 3331 N 317.792 -0.46758 -1.50504 0
M  V30 3332 C 318.739 0.328413 -2.28452 0
M  V30 3333 C 319.709 0.990313 -1.33349 0
M  V30 3334 O 320.894 1.00343 -1.62284 0
M  V30 3335 C 318.034 1.40648 -3.15138 0
M  V30 3336 C 317.147 0.759709 -4.25267 0
M  V30 3337 C 316.282 1.81537 -4.99217 0
M  V30 3338 C 315.321 1.14866 -6.01226 0
M  V30 3339 N 314.458 2.14702 -6.68467 0
M  V30 3340 H 319.298 -0.342603 -2.96024 0
M  V30 3341 H 316.835 -0.180801 -1.45985 0
M  V30 3342 H 318.793 2.04315 -3.63746 0
M  V30 3343 H 317.423 2.04671 -2.49619 0
M  V30 3344 H 316.475 0.0105671 -3.80399 0
M  V30 3345 H 317.787 0.233243 -4.98254 0
M  V30 3346 H 316.941 2.52793 -5.51526 0
M  V30 3347 H 315.68 2.37564 -4.25928 0
M  V30 3348 H 314.685 0.42171 -5.4818 0
M  V30 3349 H 315.91 0.595334 -6.76485 0
M  V30 3350 H 313.856 2.69752 -5.97972 0
M  V30 3351 H 313.773 1.6703 -7.37317 0
M  V30 3352 H 315.041 2.85348 -7.25394 0
M  V30 3353 O 319.309 1.5785 -0.341429 0
M  V30 3354 H 320 1.92508 0.21453 0
M  V30 END ATOM
M  V30 BEGIN BOND
M  V30 END BOND
M  V30 END CTAB
M  END
$$$$
