drugbank_target|O95864 Fatty acid desaturase 2 (DB00132)
 OpenBabel12092120083D

  0  0  0     0  0            999 V3000
M  V30 BEGIN CTAB
M  V30 COUNTS 7355 7489 0 0 0
M  V30 BEGIN ATOM
M  V30 1 H -0.908 1.98254 -0.117106 0
M  V30 2 N 0 1.576 0 0
M  V30 3 C 0.933 2.03868 1.02534 0
M  V30 4 C 1.911 0.928543 1.3348 0
M  V30 5 O 3.095 1.19667 1.45644 0
M  V30 6 C 0.222 2.43627 2.35294 0
M  V30 7 C -0.732 3.65373 2.2001 0
M  V30 8 S 0.101 5.13292 1.52614 0
M  V30 9 C 1.257 5.56322 2.86805 0
M  V30 10 H 1.49 2.90518 0.631377 0
M  V30 11 H -0.977 1.52953 0.210867 0
M  V30 12 H 0.981 2.67203 3.11629 0
M  V30 13 H -0.358 1.57376 2.7183 0
M  V30 14 H -1.165 3.90944 3.18086 0
M  V30 15 H -1.563 3.418 1.51819 0
M  V30 16 H 0.729 5.58782 3.83104 0
M  V30 17 H 1.672 6.56266 2.65933 0
M  V30 18 H 2.08 4.83886 2.90714 0
M  V30 19 N 1.4781 -0.272755 1.55222 0
M  V30 20 C 2.7261 -1.00234 1.75492 0
M  V30 21 C 3.0471 -1.8681 0.5592 0
M  V30 22 O 2.3171 -1.91215 -0.425882 0
M  V30 23 H 0.8971 -0.373076 0.647166 0
M  V30 24 H 3.5591 -0.296926 1.92625 0
M  V30 25 H 2.6551 -1.63913 2.65592 0
M  V30 26 N 2.9562 -1.48159 -0.537278 0
M  V30 27 C 3.9032 -1.62138 -1.64256 0
M  V30 28 C 4.8732 -0.463668 -1.59497 0
M  V30 29 O 6.0582 -0.686241 -1.78032 0
M  V30 30 C 3.1982 -1.66028 -3.02537 0
M  V30 31 C 2.3112 -2.92855 -3.17585 0
M  V30 32 C 1.4462 -2.87952 -4.46382 0
M  V30 33 C 0.4852 -4.09516 -4.54932 0
M  V30 34 N -0.3778 -4.02733 -5.75109 0
M  V30 35 H 4.4622 -2.56529 -1.51647 0
M  V30 36 H 1.9992 -1.27224 -0.738414 0
M  V30 37 H 3.9572 -1.66265 -3.82638 0
M  V30 38 H 2.5872 -0.751331 -3.13934 0
M  V30 39 H 1.6392 -3.02395 -2.30784 0
M  V30 40 H 2.9512 -3.82822 -3.19764 0
M  V30 41 H 2.1052 -2.8655 -5.34765 0
M  V30 42 H 0.8442 -1.95702 -4.46712 0
M  V30 43 H -0.1508 -4.11201 -3.64957 0
M  V30 44 H 1.0742 -5.02917 -4.56346 0
M  V30 45 H -0.9798 -3.13299 -5.76351 0
M  V30 46 H -1.0628 -4.86397 -5.78752 0
M  V30 47 H 0.2052 -4.05379 -6.65799 0
M  V30 48 N 4.4343 0.785586 -1.36625 0
M  V30 49 C 5.6823 1.54057 -1.30808 0
M  V30 50 C 6.0033 1.94683 0.111157 0
M  V30 51 O 5.2733 1.65241 1.05224 0
M  V30 52 H 3.8533 0.571354 -0.481211 0
M  V30 53 H 6.5153 0.935821 -1.70963 0
M  V30 54 H 5.6113 2.44637 -1.93801 0
M  V30 55 N 5.9124 1.20967 1.01018 0
M  V30 56 C 7.1604 1.02172 1.74371 0
M  V30 57 C 7.4814 -0.446414 1.89821 0
M  V30 58 O 6.7514 -1.32234 1.44537 0
M  V30 59 H 5.3314 0.375066 0.646014 0
M  V30 60 H 7.9934 1.52187 1.21758 0
M  V30 61 H 7.0894 1.48538 2.74487 0
M  V30 62 N 7.3905 -1.2043 1.01659 0
M  V30 63 C 8.3385 -2.25249 0.580143 0
M  V30 64 C 9.3325 -1.65057 -0.381115 0
M  V30 65 O 10.5385 -1.78241 -0.251039 0
M  V30 66 H 6.9135 -0.732695 0.169299 0
M  V30 67 H 8.8845 -2.59389 1.47512 0
M  V30 68 C 7.6335 -3.47638 -0.065788 0
M  V30 69 H 6.9565 -3.94233 0.664874 0
M  V30 70 H 8.3965 -4.2268 -0.334282 0
M  V30 71 C 6.8555 -3.10447 -1.3086 0
M  V30 72 O 7.3855 -3.21981 -2.4019 0
M  V30 73 N 5.5915 -2.64996 -1.1927 0
M  V30 74 H 5.1385 -2.55811 -0.303064 0
M  V30 75 H 5.0965 -2.40482 -2.02523 0
M  V30 76 N 8.8686 -0.792821 -1.36206 0
M  V30 77 C 9.8006 -0.151469 -2.28699 0
M  V30 78 C 10.8136 0.641262 -1.49638 0
M  V30 79 O 12.0026 0.475885 -1.72039 0
M  V30 80 C 9.1026 0.808424 -3.29117 0
M  V30 81 C 8.2756 0.0650202 -4.37352 0
M  V30 82 C 7.3346 0.941358 -5.17711 0
M  V30 83 O 6.3606 0.397352 -5.67811 0
M  V30 84 N 7.5626 2.2652 -5.3448 0
M  V30 85 H 10.3276 -0.945982 -2.84379 0
M  V30 86 H 7.8886 -0.647032 -1.48409 0
M  V30 87 H 9.8806 1.3986 -3.79765 0
M  V30 88 H 8.4506 1.5038 -2.74052 0
M  V30 89 H 7.6706 -0.706255 -3.87822 0
M  V30 90 H 8.9586 -0.447847 -5.06825 0
M  V30 91 H 8.3566 2.73128 -4.95396 0
M  V30 92 H 6.9136 2.80493 -5.88359 0
M  V30 93 N 10.3467 1.47872 -0.545128 0
M  V30 94 C 11.5947 2.02093 -0.016553 0
M  V30 95 C 11.9157 1.42305 1.3332 0
M  V30 96 O 11.1857 0.593853 1.86682 0
M  V30 97 H 9.7657 0.746993 -0.00313038 0
M  V30 98 H 12.4277 1.81414 -0.712397 0
M  V30 99 H 11.5237 3.11996 0.0805422 0
M  V30 100 N 11.8248 0.280983 1.55075 0
M  V30 101 C 12.7348 -0.61388 2.26426 0
M  V30 102 C 13.7508 -1.16521 1.29224 0
M  V30 103 O 14.9268 -1.19426 1.62171 0
M  V30 104 C 11.9918 -1.7788 2.9759 0
M  V30 105 C 11.0528 -1.26355 4.10284 0
M  V30 106 C 10.2858 -2.37295 4.78045 0
M  V30 107 O 10.5088 -3.56777 4.45047 0
M  V30 108 O 9.4428 -2.05119 5.65871 0
M  V30 109 H 13.2688 -0.0356932 3.03679 0
M  V30 110 H 10.8538 0.0481686 1.49322 0
M  V30 111 H 12.7358 -2.45791 3.42293 0
M  V30 112 H 11.4108 -2.34397 2.23249 0
M  V30 113 H 10.3178 -0.550735 3.70024 0
M  V30 114 H 11.6508 -0.744065 4.86543 0
M  V30 115 N 13.3029 -1.57598 0.00835791 0
M  V30 116 C 14.5509 -1.90551 -0.6734 0
M  V30 117 C 14.8719 -0.883301 -1.73847 0
M  V30 118 O 14.1419 0.0781442 -1.95744 0
M  V30 119 H 12.7219 -0.703312 -0.251717 0
M  V30 120 H 15.3839 -1.94833 0.0512592 0
M  V30 121 H 14.4799 -2.9056 -1.13935 0
M  V30 122 N 14.781 0.264519 -1.55364 0
M  V30 123 C 15.744 1.31046 -1.88042 0
M  V30 124 C 16.744 1.41943 -0.755569 0
M  V30 125 O 17.934 1.40947 -1.02369 0
M  V30 126 C 15.066 2.69067 -2.09323 0
M  V30 127 H 16.259 1.03297 -2.81549 0
M  V30 128 H 13.812 0.502989 -1.47986 0
M  V30 129 H 14.547 3.01982 -1.18226 0
M  V30 130 H 14.332 2.62542 -2.91229 0
M  V30 131 H 15.822 3.44623 -2.35848 0
M  V30 132 N 16.2591 1.48442 0.529413 0
M  V30 133 C 17.2221 1.62524 1.61612 0
M  V30 134 C 18.2221 0.498509 1.52877 0
M  V30 135 O 19.4121 0.76431 1.56537 0
M  V30 136 C 16.5441 1.59597 3.01233 0
M  V30 137 H 17.7371 2.59423 1.50465 0
M  V30 138 H 15.2901 1.37047 0.751514 0
M  V30 139 H 16.0251 0.641781 3.17886 0
M  V30 140 H 15.8101 2.41397 3.08982 0
M  V30 141 H 17.3001 1.72646 3.80241 0
M  V30 142 N 17.7372 -0.778329 1.37039 0
M  V30 143 C 18.6472 -1.92253 1.34446 0
M  V30 144 C 19.6632 -1.72267 0.244991 0
M  V30 145 O 20.8392 -1.95615 0.479258 0
M  V30 146 C 17.9042 -3.27282 1.144 0
M  V30 147 C 16.9652 -3.59969 2.33925 0
M  V30 148 C 16.1982 -4.88555 2.14825 0
M  V30 149 O 16.4212 -5.59113 1.12912 0
M  V30 150 O 15.3552 -5.20153 3.02861 0
M  V30 151 H 19.1812 -1.97392 2.30803 0
M  V30 152 H 16.7662 -0.920154 1.17701 0
M  V30 153 H 18.6482 -4.08062 1.05182 0
M  V30 154 H 17.3232 -3.23011 0.211124 0
M  V30 155 H 16.2302 -2.7945 2.48714 0
M  V30 156 H 17.5632 -3.68976 3.25757 0
M  V30 157 N 19.2153 -1.21501 -1.00376 0
M  V30 158 C 20.6313 -0.972629 -1.26539 0
M  V30 159 C 20.8313 0.340257 -1.98606 0
M  V30 160 O 19.8873 1.06561 -2.28913 0
M  V30 161 C 21.2003 -2.16404 -2.08781 0
M  V30 162 C 22.7483 -2.20643 -2.22004 0
M  V30 163 C 23.2233 -3.39306 -3.07629 0
M  V30 164 N 24.7143 -3.39401 -3.15217 0
M  V30 165 C 25.4493 -4.27867 -3.81729 0
M  V30 166 N 24.9453 -5.26533 -4.5026 0
M  V30 167 N 26.7383 -4.15672 -3.78382 0
M  V30 168 H 18.8893 -2.05929 -0.520281 0
M  V30 169 H 21.1523 -0.901803 -0.292328 0
M  V30 170 H 20.8583 -3.11554 -1.63178 0
M  V30 171 H 20.7323 -2.15567 -3.09533 0
M  V30 172 H 23.1193 -1.26048 -2.66825 0
M  V30 173 H 23.2003 -2.25523 -1.20718 0
M  V30 174 H 22.8443 -4.34195 -2.63509 0
M  V30 175 H 22.7743 -3.31665 -4.09031 0
M  V30 176 H 25.2653 -2.67997 -2.66432 0
M  V30 177 H 25.5783 -5.90337 -4.98721 0
M  V30 178 H 23.9233 -5.30457 -4.49044 0
M  V30 179 H 27.1143 -3.3785 -3.23998 0
M  V30 180 H 27.2873 -4.84825 -4.2994 0
M  V30 181 N 20.6934 1.19889 -1.02296 0
M  V30 182 C 21.6034 2.26571 -0.608508 0
M  V30 183 C 22.6194 1.70299 0.356964 0
M  V30 184 O 23.7954 2.00235 0.216326 0
M  V30 185 C 20.8604 3.46677 0.0402814 0
M  V30 186 C 19.9214 4.18153 -0.97194 0
M  V30 187 C 19.1544 5.32525 -0.354016 0
M  V30 188 O 19.3774 5.64112 0.844604 0
M  V30 189 O 18.3114 5.92242 -1.07391 0
M  V30 190 H 22.1374 2.64251 -1.49684 0
M  V30 191 H 19.7224 1.26629 -0.792809 0
M  V30 192 H 21.6044 4.19475 0.402324 0
M  V30 193 H 20.2794 3.10858 0.902707 0
M  V30 194 H 19.1864 3.47499 -1.38546 0
M  V30 195 H 20.5194 4.57927 -1.80454 0
M  V30 196 N 22.1715 0.800033 1.35784 0
M  V30 197 C 23.4175 0.377901 1.99248 0
M  V30 198 C 23.7505 -1.05052 1.63333 0
M  V30 199 O 23.0255 -1.72768 0.893385 0
M  V30 200 C 23.3085 0.553922 3.55814 0
M  V30 201 C 23.1615 2.0268 4.01548 0
M  V30 202 C 24.4805 -0.0244802 4.40093 0
M  V30 203 H 21.5995 0.138782 0.723815 0
M  V30 204 H 24.2415 1.00835 1.61035 0
M  V30 205 H 22.3915 0.0172398 3.88496 0
M  V30 206 H 24.0635 2.62536 3.79305 0
M  V30 207 H 22.3065 2.5256 3.52698 0
M  V30 208 H 22.9775 2.10087 5.10458 0
M  V30 209 H 25.4535 0.433775 4.13833 0
M  V30 210 H 24.3295 0.128637 5.48749 0
M  V30 211 H 24.5905 -1.11758 4.27741 0
M  V30 212 N 23.6496 -1.47581 0.552962 0
M  V30 213 C 24.8746 -2.07378 0.0300593 0
M  V30 214 C 25.2996 -1.40355 -1.25229 0
M  V30 215 O 24.6576 -0.477099 -1.7491 0
M  V30 216 C 24.7056 -3.60274 -0.153231 0
M  V30 217 O 23.8096 -3.94041 -1.21678 0
M  V30 218 H 23.1506 -0.662158 0.0494182 0
M  V30 219 H 25.6806 -1.89662 0.767434 0
M  V30 220 H 25.6906 -4.0633 -0.368761 0
M  V30 221 H 24.3656 -4.08455 0.783397 0
M  V30 222 H 22.9426 -3.59735 -0.982079 0
M  V30 223 N 25.1277 -0.289203 -1.54924 0
M  V30 224 C 26.3737 0.323998 -2.00195 0
M  V30 225 C 26.7067 1.54441 -1.17735 0
M  V30 226 O 25.9817 1.92875 -0.250878 0
M  V30 227 C 26.2647 0.692276 -3.53383 0
M  V30 228 C 26.1177 -0.536457 -4.46589 0
M  V30 229 C 27.4367 1.52335 -4.12895 0
M  V30 230 H 24.5557 0.116289 -0.727768 0
M  V30 231 H 27.1977 -0.398954 -1.85764 0
M  V30 232 H 25.3477 1.30822 -3.65811 0
M  V30 233 H 27.0197 -1.17499 -4.46085 0
M  V30 234 H 25.2627 -1.17192 -4.1767 0
M  V30 235 H 25.9337 -0.234806 -5.515 0
M  V30 236 H 28.4097 1.00302 -4.0383 0
M  V30 237 H 27.2857 1.74982 -5.20262 0
M  V30 238 H 27.5467 2.50886 -3.64018 0
M  V30 239 N 26.6058 1.57591 -0.0167156 0
M  V30 240 C 28.0168 1.79201 0.523834 0
M  V30 241 C 28.3678 0.925796 1.72984 0
M  V30 242 O 27.4928 0.132792 2.15992 0
M  V30 243 C 28.0878 3.25 0.957091 0
M  V30 244 C 26.6468 3.47648 1.44283 0
M  V30 245 C 25.7938 2.74374 0.401757 0
M  V30 246 H 28.7448 1.56831 -0.242816 0
M  V30 247 H 28.7658 3.34031 1.82219 0
M  V30 248 H 28.2778 3.88019 0.0791415 0
M  V30 249 H 26.3788 2.89866 2.34113 0
M  V30 250 H 26.4918 4.56352 1.45877 0
M  V30 251 H 24.8558 2.39485 0.867121 0
M  V30 252 H 25.6388 3.40102 -0.467513 0
M  V30 253 N 28.0839 -0.256276 1.55502 0
M  V30 254 C 29.3119 -1.00342 1.8094 0
M  V30 255 C 29.7269 -1.79307 0.59114 0
M  V30 256 O 29.0839 -1.77114 -0.440081 0
M  V30 257 C 29.1349 -1.94875 3.04476 0
M  V30 258 O 28.8559 -1.19107 4.21598 0
M  V30 259 C 30.3569 -2.81266 3.42644 0
M  V30 260 H 27.5769 -0.295685 0.602338 0
M  V30 261 H 30.1209 -0.281998 2.02546 0
M  V30 262 H 28.2759 -2.62457 2.84947 0
M  V30 263 H 28.6899 -1.82969 4.91551 0
M  V30 264 H 30.1639 -3.43362 4.32211 0
M  V30 265 H 30.6409 -3.51897 2.62802 0
M  V30 266 H 31.2469 -2.1915 3.64491 0
M  V30 267 N 29.562 -1.4872 -0.521534 0
M  V30 268 C 30.809 -1.57168 -1.27689 0
M  V30 269 C 31.137 -0.249275 -1.92896 0
M  V30 270 O 30.392 0.761162 -1.80291 0
M  V30 271 C 30.691 -2.66497 -2.38148 0
M  V30 272 C 30.357 -4.08664 -1.90538 0
M  V30 273 C 29.019 -4.47357 -1.77271 0
M  V30 274 C 31.371 -4.97724 -1.54663 0
M  V30 275 C 28.699 -5.72905 -1.26478 0
M  V30 276 C 31.051 -6.2377 -1.05329 0
M  V30 277 C 29.715 -6.61311 -0.906861 0
M  V30 278 H 28.985 -0.575117 -0.467249 0
M  V30 279 H 31.632 -1.82472 -0.581051 0
M  V30 280 H 29.937 -2.35085 -3.13437 0
M  V30 281 H 31.634 -2.70246 -2.96257 0
M  V30 282 H 28.224 -3.78111 -2.01816 0
M  V30 283 H 32.408 -4.68501 -1.63768 0
M  V30 284 H 27.664 -6.00709 -1.13835 0
M  V30 285 H 31.838 -6.9217 -0.76644 0
M  V30 286 H 29.465 -7.5848 -0.511083 0
M  V30 287 N 31.0401 0.771051 -1.3745 0
M  V30 288 C 32.2651 1.56529 -1.36065 0
M  V30 289 C 32.6901 1.88029 0.0515859 0
M  V30 290 O 32.0481 1.49282 1.02882 0
M  V30 291 C 32.0961 2.85187 -2.20683 0
M  V30 292 O 31.2001 3.79593 -1.61193 0
M  V30 293 H 30.5411 0.47411 -0.464883 0
M  V30 294 H 33.0711 0.954269 -1.80983 0
M  V30 295 H 33.0811 3.34283 -2.33921 0
M  V30 296 H 31.7561 2.61588 -3.23334 0
M  V30 297 H 30.3331 3.38239 -1.56999 0
M  V30 298 N 32.5182 1.22032 0.997298 0
M  V30 299 C 33.7642 1.05382 1.73972 0
M  V30 300 C 34.1192 -0.407419 1.88037 0
M  V30 301 O 33.4122 -1.29811 1.40924 0
M  V30 302 C 33.6062 1.69345 3.14733 0
M  V30 303 C 33.4352 3.21537 3.14395 0
M  V30 304 C 32.2052 3.9062 3.20537 0
M  V30 305 C 34.4032 4.18527 2.98897 0
M  V30 306 N 32.3852 5.29935 3.09906 0
M  V30 307 C 33.7562 5.44645 2.96247 0
M  V30 308 C 35.8112 4.09476 2.83255 0
M  V30 309 C 34.5142 6.62752 2.79557 0
M  V30 310 C 36.5402 5.27228 2.67926 0
M  V30 311 C 35.9022 6.52262 2.65959 0
M  V30 312 H 32.0012 0.440018 0.646458 0
M  V30 313 H 34.5852 1.54505 1.18475 0
M  V30 314 H 32.7562 1.22778 3.68484 0
M  V30 315 H 34.4882 1.45828 3.77513 0
M  V30 316 H 31.2432 3.41592 3.28043 0
M  V30 317 H 31.6672 6.02926 3.07912 0
M  V30 318 H 36.3092 3.13598 2.83577 0
M  V30 319 H 34.0272 7.58783 2.77982 0
M  V30 320 H 37.6132 5.22053 2.56812 0
M  V30 321 H 36.4932 7.41844 2.54239 0
M  V30 322 N 33.9963 -1.19345 1.0293 0
M  V30 323 C 34.9063 -2.26245 0.620515 0
M  V30 324 C 35.9223 -1.70486 -0.347928 0
M  V30 325 O 37.0983 -2.00347 -0.205704 0
M  V30 326 C 34.1633 -3.46693 -0.0218957 0
M  V30 327 C 33.2243 -4.17632 0.994102 0
M  V30 328 C 32.4573 -5.32329 0.382253 0
M  V30 329 O 32.6803 -5.64552 -0.814676 0
M  V30 330 O 31.6143 -5.91664 1.10531 0
M  V30 331 H 35.4403 -2.63453 1.51083 0
M  V30 332 H 33.0253 -1.26207 0.799513 0
M  V30 333 H 34.9073 -4.19683 -0.380072 0
M  V30 334 H 33.5823 -3.11333 -0.886209 0
M  V30 335 H 32.4893 -3.4676 1.40387 0
M  V30 336 H 33.8223 -4.56964 1.8288 0
M  V30 337 N 35.4744 -0.807222 -1.35358 0
M  V30 338 C 36.3844 -0.219594 -2.3357 0
M  V30 339 C 37.4004 0.637734 -1.61892 0
M  V30 340 O 38.5764 0.549336 -1.93763 0
M  V30 341 C 35.6414 0.62158 -3.41083 0
M  V30 342 C 34.7024 -0.256315 -4.28534 0
M  V30 343 C 33.9354 0.544807 -5.30912 0
M  V30 344 O 34.1584 1.77944 -5.41934 0
M  V30 345 O 33.0924 -0.0646478 -6.01865 0
M  V30 346 H 36.9184 -1.03208 -2.85625 0
M  V30 347 H 34.5034 -0.569025 -1.38139 0
M  V30 348 H 36.3854 1.10067 -4.06772 0
M  V30 349 H 35.0604 1.41165 -2.91297 0
M  V30 350 H 33.9674 -0.782559 -3.65823 0
M  V30 351 H 35.3004 -1.01034 -4.81719 0
M  V30 352 N 36.9525 1.47285 -0.560781 0
M  V30 353 C 38.2015 2.01668 -0.035895 0
M  V30 354 C 38.5145 1.44021 1.32353 0
M  V30 355 O 39.7205 1.90088 1.93853 0
M  V30 356 C 38.1765 3.59897 -0.0136659 0
M  V30 357 C 37.7845 4.26536 -1.37006 0
M  V30 358 C 39.5285 4.22017 0.458425 0
M  V30 359 C 37.4355 5.76782 -1.30675 0
M  V30 360 H 36.3655 0.753938 -0.00964879 0
M  V30 361 H 39.0165 1.69243 -0.709166 0
M  V30 362 H 37.3985 3.89301 0.725325 0
M  V30 363 H 38.5725 4.0877 -2.12705 0
M  V30 364 H 36.8875 3.76419 -1.78038 0
M  V30 365 H 39.4845 5.32124 0.524247 0
M  V30 366 H 39.8275 3.89437 1.4712 0
M  V30 367 H 40.3605 3.97159 -0.225818 0
M  V30 368 H 37.0995 6.13988 -2.29564 0
M  V30 369 H 36.6195 5.96875 -0.591622 0
M  V30 370 H 38.2985 6.39063 -1.01033 0
M  V30 371 N 38.4306 0.297415 1.54768 0
M  V30 372 C 39.3626 -0.613881 2.20826 0
M  V30 373 C 40.3756 -1.10032 1.19987 0
M  V30 374 O 41.5646 -1.01839 1.46598 0
M  V30 375 C 38.6646 -1.852 2.83821 0
M  V30 376 C 37.8376 -1.50865 4.10559 0
M  V30 377 C 36.8966 -2.60154 4.57391 0
M  V30 378 O 35.9226 -2.25398 5.2267 0
M  V30 379 N 37.1246 -3.90629 4.29406 0
M  V30 380 H 39.8896 -0.048389 2.99661 0
M  V30 381 H 37.4506 0.11946 1.61459 0
M  V30 382 H 39.4426 -2.57652 3.12086 0
M  V30 383 H 38.0126 -2.32597 2.08847 0
M  V30 384 H 37.2326 -0.616925 3.89343 0
M  V30 385 H 38.5206 -1.25458 4.9309 0
M  V30 386 H 37.9186 -4.21677 3.77101 0
M  V30 387 H 36.4756 -4.59391 4.62388 0
M  V30 388 N 39.9087 -1.5758 0.0250728 0
M  V30 389 C 40.8557 -2.09973 -0.958129 0
M  V30 390 C 41.8257 -1.00085 -1.3256 0
M  V30 391 O 43.0107 -1.27481 -1.41962 0
M  V30 392 C 40.1507 -2.62812 -2.2366 0
M  V30 393 C 39.2637 -3.86693 -1.92594 0
M  V30 394 C 38.3987 -4.27941 -3.14707 0
M  V30 395 C 37.4377 -5.44591 -2.79442 0
M  V30 396 N 36.5747 -5.81014 -3.94167 0
M  V30 397 H 41.4147 -2.937 -0.504428 0
M  V30 398 H 38.9517 -1.45172 -0.237392 0
M  V30 399 H 40.9097 -2.91536 -2.98434 0
M  V30 400 H 39.5397 -1.81922 -2.66654 0
M  V30 401 H 38.5917 -3.64723 -1.0808 0
M  V30 402 H 39.9037 -4.71547 -1.62619 0
M  V30 403 H 39.0577 -4.58079 -3.97804 0
M  V30 404 H 37.7967 -3.41845 -3.4784 0
M  V30 405 H 36.8017 -5.1415 -1.94755 0
M  V30 406 H 38.0267 -6.32382 -2.47528 0
M  V30 407 H 35.9727 -4.97874 -4.2715 0
M  V30 408 H 35.8897 -6.60498 -3.67801 0
M  V30 409 H 37.1577 -6.15756 -4.7798 0
M  V30 410 N 41.3868 0.248026 -1.55636 0
M  V30 411 C 42.3368 1.30994 -1.86614 0
M  V30 412 C 43.3208 1.43543 -0.726918 0
M  V30 413 O 44.5128 1.46804 -0.988818 0
M  V30 414 C 41.6418 2.6656 -2.16335 0
M  V30 415 C 40.7278 2.58019 -3.36581 0
M  V30 416 N 41.1188 2.1911 -4.55878 0
M  V30 417 C 39.4168 2.89035 -3.39669 0
M  V30 418 C 40.1178 2.21174 -5.38012 0
M  V30 419 N 39.0938 2.60632 -4.77045 0
M  V30 420 H 42.8958 0.999583 -2.76379 0
M  V30 421 H 40.4098 0.456652 -1.55848 0
M  V30 422 H 42.4068 3.43194 -2.36692 0
M  V30 423 H 41.0668 2.98463 -1.27867 0
M  V30 424 H 42.0778 1.90672 -4.81523 0
M  V30 425 H 38.7548 3.25485 -2.61469 0
M  V30 426 H 40.1448 1.9344 -6.43452 0
M  V30 427 N 42.8649 1.48995 0.513639 0
M  V30 428 C 43.8129 1.65199 1.63744 0
M  V30 429 C 44.8069 0.51809 1.61283 0
M  V30 430 O 46.0129 0.697335 1.65943 0
M  V30 431 H 42.3879 0.52069 0.542574 0
M  V30 432 H 44.3589 2.59552 1.47226 0
M  V30 433 C 43.1079 1.72409 3.01945 0
M  V30 434 H 42.4309 2.59029 3.04539 0
M  V30 435 H 43.8709 1.87785 3.80148 0
M  V30 436 C 42.3299 0.46618 3.33659 0
M  V30 437 O 42.8599 -0.413744 3.99564 0
M  V30 438 N 41.0659 0.332931 2.88687 0
M  V30 439 H 40.6129 1.04996 2.35231 0
M  V30 440 H 40.5709 -0.507665 3.10274 0
M  V30 441 N 44.343 -0.763751 1.37857 0
M  V30 442 C 45.273 -1.89103 1.36975 0
M  V30 443 C 46.254 -1.68439 0.237152 0
M  V30 444 O 47.439 -1.8918 0.438713 0
M  V30 445 C 44.569 -3.26496 1.18395 0
M  V30 446 C 43.523 -3.61741 2.28751 0
M  V30 447 C 42.849 -4.97762 1.95286 0
M  V30 448 C 44.149 -3.67665 3.70972 0
M  V30 449 H 45.843 -1.90099 2.31307 0
M  V30 450 H 43.389 -0.91319 1.11341 0
M  V30 451 H 45.342 -4.05003 1.16406 0
M  V30 452 H 44.066 -3.25955 0.205215 0
M  V30 453 H 42.725 -2.85547 2.29909 0
M  V30 454 H 42.373 -4.93769 0.959221 0
M  V30 455 H 42.073 -5.22313 2.69189 0
M  V30 456 H 43.597 -5.7866 1.94898 0
M  V30 457 H 45.011 -4.36307 3.719 0
M  V30 458 H 43.408 -4.03718 4.43995 0
M  V30 459 H 44.478 -2.68134 4.0402 0
M  V30 460 N 45.8211 -1.22559 -0.990812 0
M  V30 461 C 47.2371 -0.985996 -1.255 0
M  V30 462 C 47.4371 0.319173 -1.98956 0
M  V30 463 O 46.4931 1.04127 -2.3003 0
M  V30 464 C 47.8061 -2.18607 -2.06474 0
M  V30 465 C 49.3541 -2.22985 -2.19651 0
M  V30 466 C 49.8291 -3.4255 -3.04012 0
M  V30 467 N 51.3201 -3.42725 -3.11599 0
M  V30 468 C 52.0551 -4.31892 -3.7717 0
M  V30 469 N 51.5511 -5.31279 -4.44651 0
M  V30 470 N 53.3441 -4.19662 -3.73952 0
M  V30 471 H 45.4951 -2.06469 -0.49841 0
M  V30 472 H 47.7581 -0.904853 -0.282747 0
M  V30 473 H 47.4641 -3.13267 -1.59865 0
M  V30 474 H 47.3381 -2.18838 -3.07229 0
M  V30 475 H 49.7251 -1.28871 -2.65474 0
M  V30 476 H 49.8061 -2.26791 -1.18319 0
M  V30 477 H 49.4501 -4.36965 -2.58889 0
M  V30 478 H 49.3801 -3.35984 -4.0549 0
M  V30 479 H 51.8711 -2.70807 -2.63575 0
M  V30 480 H 52.1841 -5.95593 -4.92431 0
M  V30 481 H 50.5291 -5.3519 -4.43392 0
M  V30 482 H 53.7201 -3.41268 -3.20396 0
M  V30 483 H 53.8931 -4.89358 -4.24774 0
M  V30 484 N 47.2992 1.18797 -1.03562 0
M  V30 485 C 48.5272 1.92599 -0.755869 0
M  V30 486 C 48.9422 1.75886 0.686271 0
M  V30 487 O 48.2992 1.08517 1.46732 0
M  V30 488 C 48.3502 3.44159 -1.10619 0
M  V30 489 O 48.0712 3.60341 -2.4917 0
M  V30 490 C 49.5722 4.3507 -0.850214 0
M  V30 491 H 46.7922 0.611587 -0.276048 0
M  V30 492 H 49.3362 1.50742 -1.38192 0
M  V30 493 H 47.4912 3.83823 -0.525194 0
M  V30 494 H 47.9052 4.54128 -2.62427 0
M  V30 495 H 49.3792 5.39989 -1.14523 0
M  V30 496 H 49.8562 4.38673 0.215176 0
M  V30 497 H 50.4622 4.01097 -1.41426 0
M  V30 498 N 48.7773 0.814389 1.34928 0
M  V30 499 C 50.0543 0.321363 1.92942 0
M  V30 500 C 50.4343 -1.19014 1.74353 0
M  V30 501 O 49.7823 -1.99328 1.11716 0
M  V30 502 C 49.9923 0.741323 3.41036 0
M  V30 503 C 51.3403 0.735266 4.18185 0
M  V30 504 O 52.3643 0.68336 3.49584 0
M  V30 505 O 51.2233 0.800703 5.40602 0
M  V30 506 H 48.3173 0.0858893 0.822528 0
M  V30 507 H 50.8633 0.898609 1.43955 0
M  V30 508 H 49.6353 1.78276 3.4833 0
M  V30 509 H 49.2583 0.139307 3.97356 0
M  V30 510 N 50.2554 -1.46986 0.568584 0
M  V30 511 C 51.6714 -1.57946 0.229189 0
M  V30 512 C 51.8714 -1.56567 -1.26843 0
M  V30 513 O 50.9274 -1.47511 -2.04931 0
M  V30 514 C 52.2404 -2.87963 0.865909 0
M  V30 515 C 53.7884 -3.01568 0.838188 0
M  V30 516 C 54.2634 -4.34301 1.45419 0
M  V30 517 N 55.7544 -4.40965 1.41788 0
M  V30 518 C 56.4894 -5.42256 1.86403 0
M  V30 519 N 55.9854 -6.50297 2.38926 0
M  V30 520 N 57.7784 -5.3337 1.77405 0
M  V30 521 H 49.9294 -1.46126 1.54146 0
M  V30 522 H 52.1924 -0.696156 0.643484 0
M  V30 523 H 51.8984 -2.94742 1.91886 0
M  V30 524 H 51.7724 -3.75423 0.365687 0
M  V30 525 H 54.1594 -2.94379 -0.206106 0
M  V30 526 H 54.2404 -2.1562 1.37629 0
M  V30 527 H 53.8844 -4.42247 2.49761 0
M  V30 528 H 53.8144 -5.19 0.891435 0
M  V30 529 H 56.3054 -3.63484 1.03381 0
M  V30 530 H 56.6184 -7.23777 2.70863 0
M  V30 531 H 54.9634 -6.51155 2.42944 0
M  V30 532 H 58.1544 -4.47865 1.3614 0
M  V30 533 H 58.3274 -6.12169 2.12492 0
M  V30 534 N 51.7335 -0.305618 -1.54608 0
M  V30 535 C 52.9795 0.295595 -2.01241 0
M  V30 536 C 53.3345 1.51171 -1.19018 0
M  V30 537 O 52.6275 1.89832 -0.259684 0
M  V30 538 C 52.8215 0.698983 -3.50498 0
M  V30 539 C 52.6505 -0.476491 -4.47168 0
M  V30 540 C 51.4205 -0.969963 -4.95903 0
M  V30 541 C 53.6185 -1.32294 -4.96994 0
M  V30 542 N 51.6005 -2.11172 -5.76437 0
M  V30 543 C 52.9715 -2.31212 -5.75275 0
M  V30 544 C 55.0265 -1.35278 -4.7917 0
M  V30 545 C 53.7295 -3.32896 -6.37631 0
M  V30 546 C 55.7555 -2.35823 -5.42348 0
M  V30 547 C 55.1175 -3.33469 -6.20466 0
M  V30 548 H 51.2165 0.0724992 -0.778632 0
M  V30 549 H 53.8005 -0.436583 -1.89742 0
M  V30 550 H 51.9715 1.40032 -3.62278 0
M  V30 551 H 53.7035 1.28013 -3.8392 0
M  V30 552 H 50.4585 -0.544178 -4.70463 0
M  V30 553 H 50.8825 -2.68714 -6.21387 0
M  V30 554 H 55.5245 -0.61157 -4.18354 0
M  V30 555 H 53.2425 -4.07933 -6.97579 0
M  V30 556 H 56.8285 -2.38911 -5.30484 0
M  V30 557 H 55.7085 -4.09996 -6.68485 0
M  V30 558 N 53.2116 1.57565 -0.0334293 0
M  V30 559 C 54.1416 2.13511 0.945265 0
M  V30 560 C 55.1226 1.05231 1.33643 0
M  V30 561 O 56.3076 1.33084 1.41429 0
M  V30 562 C 53.4376 2.6657 2.22616 0
M  V30 563 C 52.3916 3.79676 1.97561 0
M  V30 564 C 51.7176 4.1918 3.31952 0
M  V30 565 C 53.0176 5.0557 1.31135 0
M  V30 566 H 54.7116 2.95538 0.479325 0
M  V30 567 H 52.2576 1.42166 0.229115 0
M  V30 568 H 54.2106 3.04344 2.91466 0
M  V30 569 H 52.9346 1.8171 2.71384 0
M  V30 570 H 51.5936 3.42347 1.31127 0
M  V30 571 H 51.2416 3.31296 3.78487 0
M  V30 572 H 50.9416 4.95402 3.15992 0
M  V30 573 H 52.4656 4.59541 4.02063 0
M  V30 574 H 53.8796 5.40903 1.89992 0
M  V30 575 H 52.2766 5.86818 1.25559 0
M  V30 576 H 53.3466 4.84062 0.284894 0
M  V30 577 N 54.6897 -0.239769 1.55765 0
M  V30 578 C 55.9357 -0.968234 1.78194 0
M  V30 579 C 56.2687 -1.84701 0.599938 0
M  V30 580 O 55.5437 -1.9031 -0.401524 0
M  V30 581 C 55.8267 -1.8227 3.10564 0
M  V30 582 C 55.6797 -0.971633 4.3918 0
M  V30 583 C 56.9987 -2.80388 3.39221 0
M  V30 584 H 54.1177 -0.350572 0.648281 0
M  V30 585 H 56.7597 -0.238259 1.885 0
M  V30 586 H 54.9097 -2.44507 3.01908 0
M  V30 587 H 56.5817 -0.367408 4.59835 0
M  V30 588 H 54.8247 -0.276276 4.32919 0
M  V30 589 H 55.4957 -1.60346 5.28198 0
M  V30 590 H 57.9717 -2.28287 3.47885 0
M  V30 591 H 56.8477 -3.3729 4.33044 0
M  V30 592 H 57.1087 -3.57212 2.60484 0
M  V30 593 N 56.1678 -1.49265 -0.50573 0
M  V30 594 C 57.4168 -1.57761 -1.25675 0
M  V30 595 C 57.7298 -0.267371 -1.93764 0
M  V30 596 O 58.9358 -0.230827 -2.70517 0
M  V30 597 C 57.3918 -2.78332 -2.28165 0
M  V30 598 C 56.9998 -4.16096 -1.66037 0
M  V30 599 C 58.7438 -2.96155 -3.04125 0
M  V30 600 C 56.6508 -5.27895 -2.6661 0
M  V30 601 H 55.5808 -0.587391 -0.472745 0
M  V30 602 H 58.2318 -1.75644 -0.53118 0
M  V30 603 H 56.6138 -2.53934 -3.03865 0
M  V30 604 H 57.7878 -4.50612 -0.963622 0
M  V30 605 H 56.1028 -4.03591 -1.02484 0
M  V30 606 H 58.6998 -3.76849 -3.79327 0
M  V30 607 H 59.0428 -2.06534 -3.61455 0
M  V30 608 H 59.5758 -3.2057 -2.35541 0
M  V30 609 H 56.3148 -6.1956 -2.14068 0
M  V30 610 H 55.8348 -4.97839 -3.34539 0
M  V30 611 H 57.5138 -5.57031 -3.29129 0
M  V30 612 N 57.6459 0.756429 -1.3826 0
M  V30 613 C 58.9229 1.50584 -1.24835 0
M  V30 614 C 59.3029 2.10556 0.151485 0
M  V30 615 O 58.6509 1.96825 1.1607 0
M  V30 616 C 58.8609 2.57448 -2.3563 0
M  V30 617 C 60.2089 3.24429 -2.73917 0
M  V30 618 O 61.2329 2.67751 -2.34921 0
M  V30 619 O 60.0919 4.26937 -3.41156 0
M  V30 620 H 57.1859 0.667664 -0.48801 0
M  V30 621 H 59.7319 0.792083 -1.5008 0
M  V30 622 H 58.5039 2.11362 -3.29305 0
M  V30 623 H 58.1269 3.36408 -2.11933 0
M  V30 624 N 59.124 1.23083 0.984299 0
M  V30 625 C 60.54 0.992637 1.24975 0
M  V30 626 C 60.74 -0.308618 1.99123 0
M  V30 627 O 59.796 -1.02905 2.30579 0
M  V30 628 C 61.109 2.19698 2.05312 0
M  V30 629 C 62.657 2.24147 2.18465 0
M  V30 630 C 63.132 3.44157 3.02192 0
M  V30 631 N 64.623 3.44372 3.09777 0
M  V30 632 C 65.358 4.33886 3.74874 0
M  V30 633 N 64.854 5.3363 4.41827 0
M  V30 634 N 66.647 4.21639 3.71721 0
M  V30 635 H 58.798 2.06731 0.487453 0
M  V30 636 H 61.061 0.906339 0.277944 0
M  V30 637 H 60.767 3.1411 1.58201 0
M  V30 638 H 60.641 2.20465 3.06064 0
M  V30 639 H 63.028 1.30277 2.64786 0
M  V30 640 H 63.109 2.27415 1.17115 0
M  V30 641 H 62.753 4.38332 2.56568 0
M  V30 642 H 62.683 3.3813 4.03702 0
M  V30 643 H 65.174 2.72201 2.62135 0
M  V30 644 H 65.487 5.98196 4.89266 0
M  V30 645 H 63.832 5.37534 4.40548 0
M  V30 646 H 67.023 3.42962 3.18582 0
M  V30 647 H 67.196 4.91604 4.22173 0
M  V30 648 N 60.6021 -1.18246 1.0419 0
M  V30 649 C 61.5491 -2.2192 0.634037 0
M  V30 650 C 62.5191 -1.62179 -0.358765 0
M  V30 651 O 63.7041 -1.89122 -0.252466 0
M  V30 652 C 60.8441 -3.451 0.00445535 0
M  V30 653 C 59.9571 -4.19174 1.04487 0
M  V30 654 C 59.0921 -5.29813 0.383676 0
M  V30 655 C 58.1311 -5.9566 1.4091 0
M  V30 656 N 57.2681 -6.97834 0.772784 0
M  V30 657 H 62.1081 -2.56164 1.52263 0
M  V30 658 H 59.6451 -1.25843 0.761701 0
M  V30 659 H 61.6031 -4.15485 -0.377919 0
M  V30 660 H 60.2331 -3.11472 -0.847652 0
M  V30 661 H 59.2851 -3.47604 1.54518 0
M  V30 662 H 60.5971 -4.64267 1.82368 0
M  V30 663 H 59.7511 -6.06677 -0.0528366 0
M  V30 664 H 58.4901 -4.85825 -0.427208 0
M  V30 665 H 57.4951 -5.17535 1.85574 0
M  V30 666 H 58.7201 -6.4173 2.22171 0
M  V30 667 H 56.6661 -6.55998 -0.0177708 0
M  V30 668 H 56.5831 -7.41186 1.48928 0
M  V30 669 H 57.8511 -7.78665 0.36071 0
M  V30 670 N 62.0802 -0.821533 -1.34494 0
M  V30 671 C 63.3262 -0.409552 -1.98622 0
M  V30 672 C 63.6592 1.0244 -1.64984 0
M  V30 673 O 62.9342 1.71325 -0.920758 0
M  V30 674 C 63.2172 -0.610458 -3.54888 0
M  V30 675 C 63.0702 -2.09043 -3.98273 0
M  V30 676 C 64.3892 -0.0455379 -4.40076 0
M  V30 677 H 61.5082 -0.15028 -0.721516 0
M  V30 678 H 64.1502 -1.03384 -1.59411 0
M  V30 679 H 62.3002 -0.079044 -3.8842 0
M  V30 680 H 63.9722 -2.68537 -3.75081 0
M  V30 681 H 62.2152 -2.58139 -3.48635 0
M  V30 682 H 62.8862 -2.18182 -5.07051 0
M  V30 683 H 65.3622 -0.499557 -4.1309 0
M  V30 684 H 64.2382 -0.215922 -5.48475 0
M  V30 685 H 64.4992 1.04939 -4.29465 0
M  V30 686 N 63.5583 1.46682 -0.576371 0
M  V30 687 C 64.7883 2.06498 -0.0648694 0
M  V30 688 C 65.1963 1.42665 1.24271 0
M  V30 689 O 64.5393 0.523886 1.76071 0
M  V30 690 C 64.6013 3.5904 0.181816 0
M  V30 691 C 64.2653 4.45028 -1.0392 0
M  V30 692 C 65.2623 4.81959 -1.94966 0
M  V30 693 C 62.9473 4.86259 -1.25927 0
M  V30 694 C 64.9413 5.58942 -3.06371 0
M  V30 695 C 62.6283 5.63002 -2.37638 0
M  V30 696 C 63.6263 5.99257 -3.2769 0
M  V30 697 O 63.3143 6.7445 -4.37461 0
M  V30 698 H 63.0463 0.674028 -0.0515987 0
M  V30 699 H 65.6003 1.89393 -0.794951 0
M  V30 700 H 63.8303 3.74429 0.966436 0
M  V30 701 H 65.5193 4.00806 0.641047 0
M  V30 702 H 66.2853 4.50689 -1.79177 0
M  V30 703 H 62.1643 4.57494 -0.567448 0
M  V30 704 H 65.7083 5.87158 -3.76684 0
M  V30 705 H 61.6053 5.93686 -2.53392 0
M  V30 706 H 62.3733 6.92867 -4.35749 0
M  V30 707 N 65.0364 0.313813 1.54444 0
M  V30 708 C 65.9844 -0.572171 2.25453 0
M  V30 709 C 66.9784 -1.12657 1.2651 0
M  V30 710 O 68.1844 -1.07573 1.44319 0
M  V30 711 H 64.5594 -0.203146 0.724041 0
M  V30 712 H 66.5304 0.0491145 2.9836 0
M  V30 713 C 65.2794 -1.72626 3.0182 0
M  V30 714 H 64.6024 -1.30891 3.77767 0
M  V30 715 H 66.0424 -2.32199 3.54767 0
M  V30 716 C 64.5014 -2.63806 2.09542 0
M  V30 717 O 65.0314 -3.65256 1.67185 0
M  V30 718 N 63.2374 -2.31824 1.75232 0
M  V30 719 H 62.7844 -1.49368 2.09873 0
M  V30 720 H 62.7424 -2.93095 1.13767 0
M  V30 721 N 66.5145 -1.57545 0.0417849 0
M  V30 722 C 67.7635 -1.91494 -0.633492 0
M  V30 723 C 68.0765 -0.921084 -1.72556 0
M  V30 724 O 69.2825 -1.15228 -2.45835 0
M  V30 725 C 67.7385 -3.40072 -1.17808 0
M  V30 726 C 67.3465 -4.47843 -0.118633 0
M  V30 727 C 69.0905 -3.8307 -1.82915 0
M  V30 728 C 66.9975 -5.87529 -0.675578 0
M  V30 729 H 65.9275 -0.714653 -0.24039 0
M  V30 730 H 68.5785 -1.83175 0.109148 0
M  V30 731 H 66.9605 -3.43364 -1.97274 0
M  V30 732 H 68.1345 -4.56128 0.654494 0
M  V30 733 H 66.4495 -4.14128 0.434414 0
M  V30 734 H 69.0465 -4.84794 -2.25563 0
M  V30 735 H 69.3895 -3.1881 -2.67705 0
M  V30 736 H 69.9225 -3.82255 -1.10119 0
M  V30 737 H 66.6615 -6.55362 0.134475 0
M  V30 738 H 66.1815 -5.82824 -1.4169 0
M  V30 739 H 67.8605 -6.36491 -1.1614 0
M  V30 740 N 67.9926 0.231505 -1.5589 0
M  V30 741 C 69.2206 0.974505 -1.82513 0
M  V30 742 C 69.6356 1.78344 -0.619591 0
M  V30 743 O 68.9926 1.77792 0.411848 0
M  V30 744 C 69.0436 1.90007 -3.07538 0
M  V30 745 O 68.7646 1.12385 -4.2344 0
M  V30 746 C 70.2656 2.75779 -3.47075 0
M  V30 747 H 67.4856 0.286065 -0.606966 0
M  V30 748 H 70.0296 0.249739 -2.02969 0
M  V30 749 H 68.1846 2.57891 -2.89086 0
M  V30 750 H 68.5986 1.75125 -4.944 0
M  V30 751 H 70.0726 3.36443 -4.37619 0
M  V30 752 H 70.5496 3.47672 -2.68367 0
M  V30 753 H 71.1556 2.13323 -3.67931 0
M  V30 754 N 69.4707 1.49531 0.497807 0
M  V30 755 C 70.4177 1.66436 1.59899 0
M  V30 756 C 71.3877 0.505793 1.58212 0
M  V30 757 O 72.5727 0.733202 1.7615 0
M  V30 758 C 69.7127 1.7399 2.98029 0
M  V30 759 C 68.8257 3.01172 3.09708 0
M  V30 760 C 67.9607 2.99686 4.38591 0
M  V30 761 C 66.9997 4.21434 4.43914 0
M  V30 762 N 66.1367 4.1784 5.64229 0
M  V30 763 H 70.9767 2.60459 1.44793 0
M  V30 764 H 68.5137 1.29137 0.704423 0
M  V30 765 H 70.4717 1.76352 3.78095 0
M  V30 766 H 69.1017 0.834301 3.11832 0
M  V30 767 H 68.1537 3.08408 2.22685 0
M  V30 768 H 69.4657 3.91165 3.09502 0
M  V30 769 H 68.6197 3.00628 5.2698 0
M  V30 770 H 67.3587 2.07477 4.41367 0
M  V30 771 H 66.3637 4.20733 3.53926 0
M  V30 772 H 67.5887 5.14839 4.42851 0
M  V30 773 H 65.5347 3.28469 5.67841 0
M  V30 774 H 65.4517 5.01571 5.65652 0
M  V30 775 H 66.7197 4.22889 6.54817 0
M  V30 776 N 70.9488 -0.749086 1.3866 0
M  V30 777 C 72.1948 -1.50959 1.36319 0
M  V30 778 C 72.5498 -1.92347 -0.0452451 0
M  V30 779 O 71.8428 -1.6289 -1.00884 0
M  V30 780 C 72.0368 -2.7712 2.25697 0
M  V30 781 C 71.8658 -2.48067 3.7509 0
M  V30 782 C 70.6358 -2.41062 4.44091 0
M  V30 783 C 72.8338 -2.14544 4.67414 0
M  V30 784 N 70.8158 -2.04331 5.78897 0
M  V30 785 C 72.1868 -1.88141 5.90765 0
M  V30 786 C 74.2418 -2.00892 4.55573 0
M  V30 787 C 72.9448 -1.49463 7.036 0
M  V30 788 C 74.9708 -1.63616 5.68317 0
M  V30 789 C 74.3328 -1.38088 6.90732 0
M  V30 790 H 70.4318 -0.551804 0.554108 0
M  V30 791 H 73.0158 -0.871886 1.74087 0
M  V30 792 H 71.1868 -3.38693 1.9011 0
M  V30 793 H 72.9188 -3.4321 2.1445 0
M  V30 794 H 69.6738 -2.57685 3.9736 0
M  V30 795 H 70.0978 -1.88598 6.502 0
M  V30 796 H 74.7398 -2.19301 3.61479 0
M  V30 797 H 72.4578 -1.29794 7.97608 0
M  V30 798 H 76.0438 -1.53678 5.61137 0
M  V30 799 H 74.9238 -1.09674 7.76493 0
M  V30 800 N 72.4269 -1.23603 -0.977757 0
M  V30 801 C 73.6519 -1.09735 -1.75991 0
M  V30 802 C 74.0769 0.346858 -1.84874 0
M  V30 803 O 73.4349 1.25093 -1.3123 0
M  V30 804 C 73.4829 -1.73051 -3.16363 0
M  V30 805 O 72.5869 -0.994452 -4.0023 0
M  V30 806 H 71.9279 -0.384476 -0.541364 0
M  V30 807 H 74.4579 -1.6371 -1.2272 0
M  V30 808 H 74.4679 -1.78398 -3.66931 0
M  V30 809 H 73.1429 -2.78137 -3.09213 0
M  V30 810 H 71.7199 -1.01812 -3.58732 0
M  V30 811 N 73.905 1.17692 -1.04816 0
M  V30 812 C 75.154 1.87192 -0.751132 0
M  V30 813 C 75.467 1.8169 0.724441 0
M  V30 814 O 76.673 2.46625 1.13527 0
M  V30 815 C 75.129 3.35857 -1.29338 0
M  V30 816 C 74.737 3.4987 -2.79812 0
M  V30 817 C 76.481 4.10709 -1.07322 0
M  V30 818 C 74.388 4.92536 -3.27356 0
M  V30 819 H 73.318 0.701162 -0.277288 0
M  V30 820 H 75.969 1.32932 -1.26496 0
M  V30 821 H 74.351 3.89631 -0.707376 0
M  V30 822 H 75.525 3.06332 -3.44235 0
M  V30 823 H 73.84 2.88433 -3.00325 0
M  V30 824 H 76.437 5.15952 -1.4035 0
M  V30 825 H 76.78 4.16299 -0.0108001 0
M  V30 826 H 77.313 3.6313 -1.62423 0
M  V30 827 H 74.052 4.92119 -4.33012 0
M  V30 828 H 73.572 5.3676 -2.67673 0
M  V30 829 H 75.251 5.61288 -3.21815 0
M  V30 830 N 75.3831 0.828654 1.34056 0
M  V30 831 C 76.3151 0.212052 2.28217 0
M  V30 832 C 77.3281 -0.601362 1.51286 0
M  V30 833 O 78.5171 -0.430104 1.73241 0
M  V30 834 C 75.6171 -0.72088 3.31144 0
M  V30 835 C 74.7901 0.0509587 4.3737 0
M  V30 836 C 73.8491 -0.803766 5.20025 0
M  V30 837 O 72.8751 -0.246667 5.68665 0
M  V30 838 N 74.0771 -2.1227 5.40298 0
M  V30 839 H 76.8421 1.02105 2.81771 0
M  V30 840 H 74.4031 0.686153 1.46641 0
M  V30 841 H 76.3951 -1.29742 3.8334 0
M  V30 842 H 74.9651 -1.43061 2.77943 0
M  V30 843 H 74.1851 0.808831 3.85813 0
M  V30 844 H 75.4731 0.582065 5.0546 0
M  V30 845 H 74.8711 -2.59898 5.02464 0
M  V30 846 H 73.4281 -2.64796 5.95589 0
M  V30 847 N 76.8612 -1.46375 0.584142 0
M  V30 848 C 77.8112 -2.27371 -0.169232 0
M  V30 849 C 78.7952 -1.35955 -0.860523 0
M  V30 850 O 79.9872 -1.60119 -0.754382 0
M  V30 851 C 77.1162 -3.22334 -1.18134 0
M  V30 852 C 76.2022 -4.21235 -0.492088 0
M  V30 853 N 76.5932 -5.03766 0.453129 0
M  V30 854 C 74.8912 -4.39773 -0.742652 0
M  V30 855 C 75.5922 -5.75366 0.85609 0
M  V30 856 N 74.5682 -5.43214 0.204926 0
M  V30 857 H 78.3702 -2.88572 0.557097 0
M  V30 858 H 75.8842 -1.57242 0.406042 0
M  V30 859 H 77.8812 -3.79071 -1.73525 0
M  V30 860 H 76.5412 -2.62693 -1.90847 0
M  V30 861 H 77.5522 -5.11227 0.828723 0
M  V30 862 H 74.2292 -3.91279 -1.45625 0
M  V30 863 H 75.6192 -6.5172 1.63434 0
M  V30 864 N 78.3393 -0.321999 -1.54275 0
M  V30 865 C 79.7503 0.166384 -1.85957 0
M  V30 866 C 80.1013 1.51747 -1.24367 0
M  V30 867 O 79.2263 2.09317 -0.549124 0
M  V30 868 C 79.8213 0.308681 -3.37391 0
M  V30 869 C 78.3803 0.741286 -3.69028 0
M  V30 870 C 77.5273 -0.137937 -2.76957 0
M  V30 871 H 80.4783 -0.542335 -1.49146 0
M  V30 872 H 80.4993 1.13984 -3.63026 0
M  V30 873 H 80.0113 -0.674809 -3.82188 0
M  V30 874 H 78.1123 1.73458 -3.29762 0
M  V30 875 H 78.2253 0.546118 -4.75977 0
M  V30 876 H 76.5893 0.386251 -2.51754 0
M  V30 877 H 77.3723 -1.11816 -3.2458 0
M  V30 878 N 79.8174 1.5752 -0.0501392 0
M  V30 879 C 81.0654 1.9227 0.622642 0
M  V30 880 C 81.3864 0.929083 1.71444 0
M  V30 881 O 80.6564 -0.0262186 1.95882 0
M  V30 882 H 79.2364 0.709739 0.232981 0
M  V30 883 H 81.8984 1.94628 -0.102898 0
M  V30 884 H 80.9944 2.93479 1.06191 0
M  V30 885 N 81.2955 -0.223234 1.56011 0
M  V30 886 C 82.5435 -0.946003 1.78592 0
M  V30 887 C 82.8645 -1.84936 0.618349 0
M  V30 888 O 82.1345 -1.92473 -0.364833 0
M  V30 889 H 80.7145 -0.352298 0.658707 0
M  V30 890 H 83.3765 -0.235494 1.93472 0
M  V30 891 H 82.4725 -1.55381 2.70672 0
M  V30 892 N 82.7736 -1.49793 -0.48987 0
M  V30 893 C 83.7056 -1.63413 -1.60713 0
M  V30 894 C 84.7186 -0.516329 -1.54395 0
M  V30 895 O 85.9076 -0.788812 -1.60125 0
M  V30 896 C 83.0076 -1.58516 -2.99543 0
M  V30 897 C 82.1806 -2.86016 -3.30928 0
M  V30 898 C 81.2396 -2.74018 -4.49222 0
M  V30 899 O 80.2656 -3.47964 -4.50455 0
M  V30 900 N 81.4676 -1.86309 -5.4979 0
M  V30 901 H 84.2326 -2.59777 -1.49452 0
M  V30 902 H 81.7936 -1.47022 -0.677955 0
M  V30 903 H 83.7856 -1.48128 -3.76617 0
M  V30 904 H 82.3556 -0.69965 -3.0467 0
M  V30 905 H 81.5756 -3.10672 -2.42645 0
M  V30 906 H 82.8636 -3.70521 -3.487 0
M  V30 907 H 82.2616 -1.2551 -5.51601 0
M  V30 908 H 80.8186 -1.81837 -6.25922 0
M  V30 909 N 84.2517 0.741722 -1.39055 0
M  V30 910 C 85.6677 1.04638 -1.20512 0
M  V30 911 C 85.8677 2.01405 -0.0620218 0
M  V30 912 O 84.9237 2.45547 0.588457 0
M  V30 913 C 86.2367 1.6151 -2.53643 0
M  V30 914 C 87.7847 1.73623 -2.6043 0
M  V30 915 C 88.2597 2.33906 -3.93767 0
M  V30 916 N 89.7507 2.41323 -3.9537 0
M  V30 917 C 90.4857 2.88888 -4.95309 0
M  V30 918 N 89.9817 3.36401 -6.05645 0
M  V30 919 N 91.7747 2.88037 -4.82692 0
M  V30 920 H 83.9257 0.0998155 -2.12165 0
M  V30 921 H 86.1887 0.106907 -0.941953 0
M  V30 922 H 85.8947 0.978739 -3.37807 0
M  V30 923 H 85.7687 2.60411 -2.72885 0
M  V30 924 H 88.1557 2.36384 -1.76655 0
M  V30 925 H 88.2367 0.733945 -2.45045 0
M  V30 926 H 87.8807 1.71776 -4.7797 0
M  V30 927 H 87.8107 3.34799 -4.06469 0
M  V30 928 H 90.3017 2.07734 -3.15682 0
M  V30 929 H 90.6147 3.71186 -6.77821 0
M  V30 930 H 88.9597 3.34427 -6.09248 0
M  V30 931 H 92.1507 2.50237 -3.95599 0
M  V30 932 H 92.3237 3.24792 -5.60726 0
M  V30 933 N 85.7298 1.2412 0.971189 0
M  V30 934 C 86.9758 1.08041 1.71625 0
M  V30 935 C 87.3088 -0.380407 1.90438 0
M  V30 936 O 86.5838 -1.28127 1.46334 0
M  V30 937 C 86.8668 1.81682 3.10908 0
M  V30 938 C 86.7198 3.35493 2.99608 0
M  V30 939 C 88.0388 1.58671 4.10501 0
M  V30 940 H 85.1578 0.39388 0.622919 0
M  V30 941 H 87.7998 1.52743 1.13003 0
M  V30 942 H 85.9498 1.43684 3.60953 0
M  V30 943 H 87.6218 3.83068 2.57015 0
M  V30 944 H 85.8648 3.64052 2.35899 0
M  V30 945 H 86.5358 3.82217 3.98264 0
M  V30 946 H 89.0118 1.91719 3.69301 0
M  V30 947 H 87.8878 2.1266 5.06031 0
M  V30 948 H 88.1488 0.524161 4.38982 0
M  V30 949 N 87.2079 -1.17134 1.05439 0
M  V30 950 C 88.4569 -1.86791 0.761049 0
M  V30 951 C 88.7699 -1.82072 -0.714795 0
M  V30 952 O 89.9759 -2.47223 -1.12218 0
M  V30 953 C 88.4319 -3.35166 1.31117 0
M  V30 954 C 88.0399 -3.48381 2.81664 0
M  V30 955 C 89.7839 -4.10134 1.09499 0
M  V30 956 C 87.6909 -4.90793 3.29964 0
M  V30 957 H 86.6209 -0.699681 0.281002 0
M  V30 958 H 89.2719 -1.3226 1.27199 0
M  V30 959 H 87.6539 -3.8925 0.72803 0
M  V30 960 H 88.8279 -3.04502 3.45855 0
M  V30 961 H 87.1429 -2.86836 3.01851 0
M  V30 962 H 89.7399 -5.152 1.43084 0
M  V30 963 H 90.0829 -4.16287 0.0328772 0
M  V30 964 H 90.6159 -3.62264 1.64346 0
M  V30 965 H 87.3549 -4.89816 4.35616 0
M  V30 966 H 86.8749 -5.35333 2.70516 0
M  V30 967 H 88.5539 -5.59573 3.24787 0
M  V30 968 N 88.686 -0.835752 -1.33615 0
M  V30 969 C 89.934 -0.429109 -1.97492 0
M  V30 970 C 90.255 1.01433 -1.66543 0
M  V30 971 O 89.525 1.70611 -0.962744 0
M  V30 972 H 88.105 -0.155686 -0.730596 0
M  V30 973 H 90.767 -1.06802 -1.63031 0
M  V30 974 H 89.863 -0.55861 -3.0706 0
M  V30 975 N 90.1641 1.46063 -0.591896 0
M  V30 976 C 91.1141 2.27458 0.157172 0
M  V30 977 C 92.0981 1.3641 0.853301 0
M  V30 978 O 93.2901 1.60517 0.74588 0
M  V30 979 C 90.4191 3.22956 1.16423 0
M  V30 980 C 89.5051 4.2149 0.469742 0
M  V30 981 N 89.8961 5.03519 -0.479839 0
M  V30 982 C 88.1941 4.40161 0.719319 0
M  V30 983 C 88.8951 5.74904 -0.886591 0
M  V30 984 N 87.8711 5.43097 -0.233731 0
M  V30 985 H 91.6731 2.88272 -0.572392 0
M  V30 986 H 89.1871 1.57024 -0.414375 0
M  V30 987 H 91.1841 3.79986 1.71513 0
M  V30 988 H 89.8441 2.63701 1.89451 0
M  V30 989 H 90.8551 5.1078 -0.855823 0
M  V30 990 H 87.5321 3.92046 1.43548 0
M  V30 991 H 88.9221 6.50844 -1.66888 0
M  V30 992 N 91.6422 0.330177 1.54103 0
M  V30 993 C 92.8722 -0.271784 2.04805 0
M  V30 994 C 93.2802 -1.45816 1.20559 0
M  V30 995 O 92.6232 -1.82247 0.2306 0
M  V30 996 C 92.6852 -0.763238 3.51305 0
M  V30 997 C 92.3492 0.301705 4.56003 0
M  V30 998 C 93.3462 1.13999 5.07248 0
M  V30 999 C 91.0312 0.451793 5.00264 0
M  V30 1000 C 93.0252 2.11402 6.01322 0
M  V30 1001 C 90.7122 1.42924 5.94151 0
M  V30 1002 C 91.7102 2.25882 6.44567 0
M  V30 1003 O 91.3982 3.21965 7.3661 0
M  V30 1004 H 91.1302 -0.058693 0.673447 0
M  V30 1005 H 93.6842 0.476395 1.99799 0
M  V30 1006 H 91.9142 -1.56244 3.5373 0
M  V30 1007 H 93.6032 -1.28427 3.85047 0
M  V30 1008 H 94.3692 1.03505 4.73827 0
M  V30 1009 H 90.2482 -0.184044 4.60632 0
M  V30 1010 H 93.7922 2.76192 6.40596 0
M  V30 1011 H 89.6892 1.53479 6.26988 0
M  V30 1012 H 90.4572 3.17281 7.54503 0
M  V30 1013 N 93.1203 -1.57491 0.0584922 0
M  V30 1014 C 94.0833 -2.1085 -0.898617 0
M  V30 1015 C 95.0833 -1.02964 -1.23511 0
M  V30 1016 O 96.2733 -1.29007 -1.17059 0
M  V30 1017 C 93.4053 -2.59881 -2.20623 0
M  V30 1018 H 94.5983 -2.96715 -0.435936 0
M  V30 1019 H 92.1513 -1.55141 -0.190023 0
M  V30 1020 H 92.8863 -1.77431 -2.71457 0
M  V30 1021 H 92.6713 -3.38727 -1.97501 0
M  V30 1022 H 94.1613 -3.01285 -2.89166 0
M  V30 1023 N 94.5984 0.214957 -1.56127 0
M  V30 1024 C 95.8464 0.936518 -1.79091 0
M  V30 1025 C 96.1674 1.84606 -0.628148 0
M  V30 1026 O 95.4374 1.92664 0.35462 0
M  V30 1027 H 94.0174 0.3488 -0.660566 0
M  V30 1028 H 96.6794 0.22523 -1.93594 0
M  V30 1029 H 95.7754 1.53943 -2.71492 0
M  V30 1030 N 96.0765 1.50051 0.48192 0
M  V30 1031 C 96.9865 1.7089 1.60728 0
M  V30 1032 C 98.0025 0.591788 1.63627 0
M  V30 1033 O 99.1785 0.868817 1.81696 0
M  V30 1034 C 96.2435 1.78855 2.97005 0
M  V30 1035 C 95.3045 3.02537 3.04581 0
M  V30 1036 C 94.5375 3.10112 4.34357 0
M  V30 1037 O 94.7605 2.24765 5.24249 0
M  V30 1038 O 93.6945 4.02747 4.47301 0
M  V30 1039 H 97.5205 2.66264 1.46072 0
M  V30 1040 H 95.1055 1.34018 0.660264 0
M  V30 1041 H 96.9875 1.86336 3.77964 0
M  V30 1042 H 95.6625 0.866628 3.11883 0
M  V30 1043 H 94.5695 3.00563 2.22739 0
M  V30 1044 H 95.9025 3.94272 2.94636 0
M  V30 1045 N 97.5546 -0.734337 1.39446 0
M  V30 1046 C 98.8316 -1.48579 1.27215 0
M  V30 1047 C 99.2116 -2.1077 -0.117968 0
M  V30 1048 O 98.5596 -1.98646 -1.12924 0
M  V30 1049 C 98.7696 -2.53667 2.39696 0
M  V30 1050 C 100.118 -3.20031 2.79044 0
M  V30 1051 O 101.142 -2.6398 2.39151 0
M  V30 1052 O 100.001 -4.21455 3.47905 0
M  V30 1053 H 97.0946 -0.659816 0.49857 0
M  V30 1054 H 99.6406 -0.768106 1.51322 0
M  V30 1055 H 98.4126 -2.06096 3.32626 0
M  V30 1056 H 98.0356 -3.32994 2.17258 0
M  V30 1057 N 99.0327 -1.24633 -0.964593 0
M  V30 1058 C 99.9957 -1.0424 -2.04124 0
M  V30 1059 C 100.996 0.00137563 -1.608 0
M  V30 1060 O 102.186 -0.239883 -1.7254 0
M  V30 1061 C 99.3177 -0.580588 -3.3592 0
M  V30 1062 H 100.511 -1.99803 -2.23649 0
M  V30 1063 H 98.0637 -1.06899 -1.14027 0
M  V30 1064 H 98.7987 0.3781 -3.22088 0
M  V30 1065 H 98.5837 -1.33398 -3.6871 0
M  V30 1066 H 100.074 -0.459034 -4.15069 0
M  V30 1067 N 100.511 1.16574 -1.06058 0
M  V30 1068 C 101.739 1.90952 -0.796552 0
M  V30 1069 C 102.154 1.77302 0.648808 0
M  V30 1070 O 101.511 1.11605 1.44397 0
M  V30 1071 C 101.562 3.41736 -1.17894 0
M  V30 1072 O 101.283 3.54975 -2.56758 0
M  V30 1073 C 102.784 4.33169 -0.942308 0
M  V30 1074 H 100.004 0.605594 -0.288959 0
M  V30 1075 H 102.548 1.47777 -1.41358 0
M  V30 1076 H 100.703 3.82623 -0.606491 0
M  V30 1077 H 101.117 4.4846 -2.72 0
M  V30 1078 H 102.591 5.37439 -1.25952 0
M  V30 1079 H 103.068 4.3903 0.122078 0
M  V30 1080 H 103.674 3.98007 -1.49902 0
M  V30 1081 N 101.989 0.842826 1.3317 0
M  V30 1082 C 103.266 0.362216 1.92217 0
M  V30 1083 C 103.646 -1.15289 1.76838 0
M  V30 1084 O 102.994 -1.96914 1.15919 0
M  V30 1085 C 103.204 0.813495 3.39387 0
M  V30 1086 C 104.552 0.823804 4.16532 0
M  V30 1087 O 105.576 0.757358 3.48055 0
M  V30 1088 O 104.435 0.915193 5.38782 0
M  V30 1089 H 101.529 0.103317 0.820521 0
M  V30 1090 H 104.075 0.928942 1.42017 0
M  V30 1091 H 102.847 1.85624 3.4447 0
M  V30 1092 H 102.47 0.223561 3.96971 0
M  V30 1093 N 103.467 -1.45747 0.599634 0
M  V30 1094 C 104.43 -2.28917 -0.113835 0
M  V30 1095 C 105.43 -1.3933 -0.802729 0
M  V30 1096 O 106.62 -1.61534 -0.652103 0
M  V30 1097 C 103.752 -3.20152 -1.17114 0
M  V30 1098 H 104.945 -2.93478 0.617289 0
M  V30 1099 H 102.498 -1.52137 0.358327 0
M  V30 1100 H 103.233 -2.60374 -1.93329 0
M  V30 1101 H 103.018 -3.86133 -0.681468 0
M  V30 1102 H 104.508 -3.82708 -1.67105 0
M  V30 1103 N 104.945 -0.338344 -1.53925 0
M  V30 1104 C 106.192 0.259758 -2.00827 0
M  V30 1105 C 106.52 1.50973 -1.22628 0
M  V30 1106 O 105.775 1.93379 -0.300509 0
M  V30 1107 C 106.074 0.62448 -3.51902 0
M  V30 1108 C 105.74 -0.528006 -4.47798 0
M  V30 1109 C 104.402 -0.844298 -4.73735 0
M  V30 1110 C 106.754 -1.30143 -5.0469 0
M  V30 1111 C 104.082 -1.93648 -5.53821 0
M  V30 1112 C 106.434 -2.38382 -5.85967 0
M  V30 1113 C 105.098 -2.70576 -6.10201 0
M  V30 1114 H 104.368 0.0950523 -0.734878 0
M  V30 1115 H 107.015 -0.465182 -1.85764 0
M  V30 1116 H 105.32 1.43006 -3.64769 0
M  V30 1117 H 107.017 1.09905 -3.85645 0
M  V30 1118 H 103.607 -0.271421 -4.2774 0
M  V30 1119 H 107.791 -1.07033 -4.84621 0
M  V30 1120 H 103.047 -2.19021 -5.70824 0
M  V30 1121 H 107.221 -2.98746 -6.29066 0
M  V30 1122 H 104.848 -3.55333 -6.72044 0
M  V30 1123 N 106.423 1.57458 -0.0668435 0
M  V30 1124 C 107.839 1.56947 0.289772 0
M  V30 1125 C 108.039 1.07584 1.70376 0
M  V30 1126 O 107.095 0.739486 2.41429 0
M  V30 1127 C 108.408 3.0052 0.103943 0
M  V30 1128 C 109.956 3.12517 0.173857 0
M  V30 1129 C 110.431 4.57997 0.0163682 0
M  V30 1130 N 111.922 4.63144 0.0721352 0
M  V30 1131 C 112.657 5.73394 -0.0253794 0
M  V30 1132 N 112.153 6.92576 -0.176133 0
M  V30 1133 N 113.946 5.62091 0.0313305 0
M  V30 1134 H 106.097 1.87863 -0.991027 0
M  V30 1135 H 108.36 0.86583 -0.38606 0
M  V30 1136 H 108.066 3.40729 -0.871572 0
M  V30 1137 H 107.94 3.67304 0.858366 0
M  V30 1138 H 110.327 2.72197 1.13985 0
M  V30 1139 H 110.408 2.48381 -0.611586 0
M  V30 1140 H 110.052 4.99005 -0.946374 0
M  V30 1141 H 109.982 5.20158 0.821153 0
M  V30 1142 H 112.473 3.77436 0.187263 0
M  V30 1143 H 112.786 7.72418 -0.242821 0
M  V30 1144 H 111.131 6.94678 -0.211429 0
M  V30 1145 H 114.322 4.67867 0.147773 0
M  V30 1146 H 114.495 6.47982 -0.048121 0
M  V30 1147 N 107.901 -0.206675 1.56239 0
M  V30 1148 C 108.864 -1.23976 1.92776 0
M  V30 1149 C 109.864 -1.39041 0.807729 0
M  V30 1150 O 111.054 -1.37051 1.0753 0
M  V30 1151 C 108.186 -2.61112 2.19165 0
M  V30 1152 H 109.379 -0.927764 2.85189 0
M  V30 1153 H 106.932 -0.447718 1.4975 0
M  V30 1154 H 107.667 -2.97386 1.29352 0
M  V30 1155 H 107.452 -2.51552 3.00772 0
M  V30 1156 H 108.942 -3.35633 2.48476 0
M  V30 1157 N 109.379 -1.50304 -0.473955 0
M  V30 1158 C 110.626 -1.6115 -1.22625 0
M  V30 1159 C 110.954 -0.310517 -1.92005 0
M  V30 1160 O 110.209 0.703419 -1.82621 0
M  V30 1161 C 110.508 -2.73938 -2.29549 0
M  V30 1162 C 110.174 -4.14519 -1.7744 0
M  V30 1163 C 108.836 -4.5277 -1.62949 0
M  V30 1164 C 111.188 -5.02392 -1.3875 0
M  V30 1165 C 108.516 -5.76639 -1.08187 0
M  V30 1166 C 110.868 -6.26805 -0.854309 0
M  V30 1167 C 109.532 -6.63861 -0.696011 0
M  V30 1168 H 108.802 -0.589691 -0.448715 0
M  V30 1169 H 111.449 -1.84228 -0.522705 0
M  V30 1170 H 109.754 -2.44937 -3.05799 0
M  V30 1171 H 111.451 -2.79534 -2.87509 0
M  V30 1172 H 108.041 -3.8434 -1.89685 0
M  V30 1173 H 112.225 -4.73474 -1.4878 0
M  V30 1174 H 107.481 -6.04027 -0.946666 0
M  V30 1175 H 111.655 -6.94258 -0.545843 0
M  V30 1176 H 109.282 -7.59722 -0.26952 0
M  V30 1177 N 110.857 0.726932 -1.39834 0
M  V30 1178 C 111.807 1.83232 -1.35683 0
M  V30 1179 C 112.791 1.59155 -0.236295 0
M  V30 1180 O 113.983 1.70522 -0.474488 0
M  V30 1181 C 111.112 3.21246 -1.21062 0
M  V30 1182 C 110.198 3.51125 -2.37849 0
M  V30 1183 N 110.589 3.51889 -3.63329 0
M  V30 1184 C 108.887 3.81527 -2.30982 0
M  V30 1185 C 109.588 3.79791 -4.40606 0
M  V30 1186 N 108.564 3.97971 -3.70297 0
M  V30 1187 H 112.366 1.8214 -2.30656 0
M  V30 1188 H 109.88 0.925545 -1.33444 0
M  V30 1189 H 111.877 4.00387 -1.16171 0
M  V30 1190 H 110.537 3.23572 -0.270458 0
M  V30 1191 H 111.548 3.33008 -3.96643 0
M  V30 1192 H 108.225 3.91411 -1.45272 0
M  V30 1193 H 109.615 3.86783 -5.49408 0
M  V30 1194 N 112.336 1.25143 0.95797 0
M  V30 1195 C 113.747 1.08851 1.51685 0
M  V30 1196 C 114.098 -0.33687 1.93286 0
M  V30 1197 O 113.223 -1.22644 1.7829 0
M  V30 1198 C 113.818 1.96978 2.75654 0
M  V30 1199 C 112.377 1.84881 3.27866 0
M  V30 1200 C 111.524 1.91329 2.0072 0
M  V30 1201 H 114.475 1.38478 0.77522 0
M  V30 1202 H 114.496 1.5078 3.4935 0
M  V30 1203 H 114.008 3.00712 2.45345 0
M  V30 1204 H 112.109 0.840182 3.63004 0
M  V30 1205 H 112.222 2.6951 3.96107 0
M  V30 1206 H 110.586 1.35174 2.15871 0
M  V30 1207 H 111.369 2.96661 1.72764 0
M  V30 1208 N 113.814 -1.1601 1.06675 0
M  V30 1209 C 115.091 -1.82679 0.699114 0
M  V30 1210 C 115.471 -1.94559 -0.819137 0
M  V30 1211 O 114.819 -1.49169 -1.73092 0
M  V30 1212 C 115.029 -3.19445 1.40555 0
M  V30 1213 C 116.377 -3.95171 1.55323 0
M  V30 1214 O 117.401 -3.28976 1.36577 0
M  V30 1215 O 116.26 -5.13833 1.86112 0
M  V30 1216 H 113.354 -0.788954 0.247951 0
M  V30 1217 H 115.9 -1.23179 1.16726 0
M  V30 1218 H 114.672 -3.05856 2.44065 0
M  V30 1219 H 114.295 -3.86625 0.927733 0
M  V30 1220 N 115.292 -0.849877 -1.32721 0
M  V30 1221 C 116.222 -0.306308 -2.31482 0
M  V30 1222 C 117.203 0.591952 -1.59468 0
M  V30 1223 O 118.388 0.513199 -1.87296 0
M  V30 1224 C 115.518 0.510204 -3.43532 0
M  V30 1225 C 114.472 -0.293209 -4.26994 0
M  V30 1226 C 113.798 0.647743 -5.30762 0
M  V30 1227 C 115.098 -1.51634 -4.99804 0
M  V30 1228 H 116.792 -1.13153 -2.77195 0
M  V30 1229 H 114.338 -0.545553 -1.33266 0
M  V30 1230 H 116.291 0.900856 -4.11658 0
M  V30 1231 H 115.015 1.36874 -2.96535 0
M  V30 1232 H 113.674 -0.665555 -3.60508 0
M  V30 1233 H 113.322 1.50299 -4.8002 0
M  V30 1234 H 113.022 0.11422 -5.87489 0
M  V30 1235 H 114.546 1.03567 -6.01753 0
M  V30 1236 H 115.96 -1.19824 -5.60638 0
M  V30 1237 H 114.357 -1.98745 -5.66234 0
M  V30 1238 H 115.427 -2.28018 -4.27943 0
M  V30 1239 N 116.77 1.45427 -0.607355 0
M  V30 1240 C 117.68 2.34325 0.113463 0
M  V30 1241 C 118.696 1.51226 0.860617 0
M  V30 1242 O 119.872 1.84029 0.818255 0
M  V30 1243 C 116.937 3.28839 1.09844 0
M  V30 1244 C 115.998 4.27844 0.353271 0
M  V30 1245 C 115.231 5.17842 1.29133 0
M  V30 1246 O 115.454 5.11264 2.52913 0
M  V30 1247 O 114.388 5.96713 0.788523 0
M  V30 1248 H 118.214 2.97364 -0.617094 0
M  V30 1249 H 115.799 1.44807 -0.367619 0
M  V30 1250 H 117.681 3.8708 1.66575 0
M  V30 1251 H 116.356 2.68365 1.81003 0
M  V30 1252 H 115.263 3.7322 -0.256494 0
M  V30 1253 H 116.596 4.91173 -0.317822 0
M  V30 1254 N 118.248 0.346503 1.53744 0
M  V30 1255 C 119.495 -0.249104 2.00962 0
M  V30 1256 C 119.823 -1.5032 1.23426 0
M  V30 1257 O 119.078 -1.93217 0.310761 0
M  V30 1258 C 119.377 -0.605809 3.52228 0
M  V30 1259 C 119.043 0.551747 4.47512 0
M  V30 1260 C 117.705 0.86941 4.73281 0
M  V30 1261 C 120.057 1.32818 5.03993 0
M  V30 1262 C 117.385 1.96582 5.52786 0
M  V30 1263 C 119.737 2.41486 5.84694 0
M  V30 1264 C 118.401 2.73808 6.08757 0
M  V30 1265 H 117.671 -0.0911538 0.735372 0
M  V30 1266 H 120.318 0.475027 1.85515 0
M  V30 1267 H 118.623 -1.4107 3.65522 0
M  V30 1268 H 120.32 -1.07858 3.86222 0
M  V30 1269 H 116.91 0.294102 4.2759 0
M  V30 1270 H 121.094 1.09602 4.84047 0
M  V30 1271 H 116.35 2.22045 5.69654 0
M  V30 1272 H 120.524 3.02078 6.27473 0
M  V30 1273 H 118.151 3.58892 6.7015 0
M  V30 1274 N 119.726 -1.57421 0.075193 0
M  V30 1275 C 120.972 -1.93905 -0.594025 0
M  V30 1276 C 121.305 -0.955701 -1.69056 0
M  V30 1277 O 120.58 0.0145373 -1.94495 0
M  V30 1278 C 120.863 -3.40638 -1.1678 0
M  V30 1279 C 120.716 -4.49733 -0.0776792 0
M  V30 1280 C 122.035 -3.88259 -2.07228 0
M  V30 1281 H 119.154 -0.705105 -0.214466 0
M  V30 1282 H 121.796 -1.8947 0.141854 0
M  V30 1283 H 119.946 -3.44549 -1.79494 0
M  V30 1284 H 121.618 -4.57942 0.555573 0
M  V30 1285 H 119.861 -4.29751 0.591286 0
M  V30 1286 H 120.532 -5.49549 -0.519603 0
M  V30 1287 H 123.008 -3.86376 -1.54445 0
M  V30 1288 H 121.884 -4.91533 -2.44308 0
M  V30 1289 H 122.145 -3.26396 -2.98191 0
M  V30 1290 N 121.204 0.198386 -1.56346 0
M  V30 1291 C 122.452 0.91747 -1.80075 0
M  V30 1292 C 122.773 1.83929 -0.647692 0
M  V30 1293 O 122.043 1.93029 0.334166 0
M  V30 1294 H 120.623 0.341774 -0.664228 0
M  V30 1295 H 123.285 0.204684 -1.93822 0
M  V30 1296 H 122.381 1.51055 -2.7311 0
M  V30 1297 N 122.682 1.50554 0.465978 0
M  V30 1298 C 123.629 1.6979 1.56333 0
M  V30 1299 C 124.599 0.539239 1.57103 0
M  V30 1300 O 125.784 0.770401 1.74555 0
M  V30 1301 C 122.924 1.80273 2.94271 0
M  V30 1302 C 122.037 3.07674 3.0325 0
M  V30 1303 C 121.172 3.08922 4.32135 0
M  V30 1304 C 120.211 4.30755 4.34875 0
M  V30 1305 N 119.348 4.29714 5.55239 0
M  V30 1306 H 124.188 2.63472 1.39235 0
M  V30 1307 H 121.725 1.30602 0.676873 0
M  V30 1308 H 123.683 1.84332 3.74269 0
M  V30 1309 H 122.313 0.900258 3.09992 0
M  V30 1310 H 121.365 3.13062 2.16094 0
M  V30 1311 H 122.677 3.97642 3.01135 0
M  V30 1312 H 121.831 3.11738 5.20485 0
M  V30 1313 H 120.57 2.16792 4.36866 0
M  V30 1314 H 119.575 4.28146 3.44922 0
M  V30 1315 H 120.8 5.24117 4.31831 0
M  V30 1316 H 118.746 3.4044 5.60746 0
M  V30 1317 H 118.663 5.13456 5.54886 0
M  V30 1318 H 119.931 4.36683 6.457 0
M  V30 1319 N 124.16 -0.719506 1.40217 0
M  V30 1320 C 125.407 -1.47933 1.38283 0
M  V30 1321 C 125.735 -1.94493 -0.0161536 0
M  V30 1322 O 124.99 -1.68224 -0.999956 0
M  V30 1323 C 125.289 -2.72271 2.31524 0
M  V30 1324 C 124.955 -2.44496 3.78857 0
M  V30 1325 C 123.617 -2.36631 4.18998 0
M  V30 1326 C 125.969 -2.21104 4.71977 0
M  V30 1327 C 123.297 -2.03437 5.503 0
M  V30 1328 C 125.649 -1.89423 6.03574 0
M  V30 1329 C 124.313 -1.80038 6.42762 0
M  V30 1330 H 123.583 -0.541325 0.506012 0
M  V30 1331 H 126.23 -0.824502 1.72842 0
M  V30 1332 H 124.535 -3.42572 1.90137 0
M  V30 1333 H 126.232 -3.30348 2.27313 0
M  V30 1334 H 122.822 -2.51503 3.47051 0
M  V30 1335 H 127.006 -2.26139 4.41786 0
M  V30 1336 H 122.262 -1.94705 5.79569 0
M  V30 1337 H 126.436 -1.70336 6.75247 0
M  V30 1338 H 124.063 -1.54083 7.44421 0
M  V30 1339 N 125.638 -1.25649 -0.95132 0
M  V30 1340 C 126.568 -1.08808 -2.06599 0
M  V30 1341 C 127.549 0.00382547 -1.701 0
M  V30 1342 O 128.734 -0.166325 -1.93486 0
M  V30 1343 C 125.864 -0.709542 -3.39975 0
M  V30 1344 C 124.818 -1.75206 -3.90496 0
M  V30 1345 C 124.144 -1.22811 -5.20405 0
M  V30 1346 C 125.444 -3.15153 -4.16504 0
M  V30 1347 H 127.138 -2.02048 -2.20946 0
M  V30 1348 H 124.684 -0.972835 -1.06169 0
M  V30 1349 H 126.637 -0.578649 -4.17408 0
M  V30 1350 H 125.361 0.258556 -3.25575 0
M  V30 1351 H 124.02 -1.87145 -3.15234 0
M  V30 1352 H 123.668 -0.250145 -5.02378 0
M  V30 1353 H 123.368 -1.92492 -5.55176 0
M  V30 1354 H 124.892 -1.10968 -6.00432 0
M  V30 1355 H 126.306 -3.06349 -4.84586 0
M  V30 1356 H 124.703 -3.82333 -4.62538 0
M  V30 1357 H 125.773 -3.61966 -3.22658 0
M  V30 1358 N 127.117 1.15442 -1.07289 0
M  V30 1359 C 128.064 2.20161 -0.692653 0
M  V30 1360 C 129.034 1.63073 0.31564 0
M  V30 1361 O 130.219 1.89725 0.202235 0
M  V30 1362 C 127.359 3.44967 -0.0959509 0
M  V30 1363 C 126.472 4.16256 -1.15564 0
M  V30 1364 C 125.607 5.28609 -0.524011 0
M  V30 1365 C 124.646 5.91715 -1.56653 0
M  V30 1366 N 123.783 6.9554 -0.957531 0
M  V30 1367 H 128.623 2.52037 -1.59002 0
M  V30 1368 H 126.16 1.2378 -0.794798 0
M  V30 1369 H 128.118 4.16341 0.267628 0
M  V30 1370 H 126.748 3.1361 0.764772 0
M  V30 1371 H 125.8 3.43385 -1.6368 0
M  V30 1372 H 127.112 4.59268 -1.94613 0
M  V30 1373 H 126.266 6.06604 -0.108032 0
M  V30 1374 H 125.005 4.86787 0.29825 0
M  V30 1375 H 124.01 5.12433 -1.9923 0
M  V30 1376 H 125.235 6.35614 -2.39107 0
M  V30 1377 H 123.181 6.55814 -0.156162 0
M  V30 1378 H 123.098 7.36977 -1.68526 0
M  V30 1379 H 124.366 7.77435 -0.567032 0
M  V30 1380 N 128.595 0.856903 1.32268 0
M  V30 1381 C 130.006 0.515711 1.79436 0
M  V30 1382 C 130.357 -0.966586 1.70738 0
M  V30 1383 O 129.482 -1.75409 1.26731 0
M  V30 1384 C 130.077 0.929335 3.25805 0
M  V30 1385 C 128.636 0.640006 3.70919 0
M  V30 1386 C 127.783 1.12784 2.53328 0
M  V30 1387 H 130.734 1.04389 1.19535 0
M  V30 1388 H 130.755 0.246633 3.797 0
M  V30 1389 H 130.267 2.00821 3.32103 0
M  V30 1390 H 128.368 -0.428051 3.70133 0
M  V30 1391 H 128.481 1.20788 4.63624 0
M  V30 1392 H 126.845 0.548033 2.48734 0
M  V30 1393 H 127.628 2.21387 2.62379 0
M  V30 1394 N 130.073 -1.45103 0.615059 0
M  V30 1395 C 131.003 -2.33339 -0.0865619 0
M  V30 1396 C 131.984 -1.4727 -0.851209 0
M  V30 1397 O 133.169 -1.76026 -0.820281 0
M  V30 1398 C 130.299 -3.30095 -1.07956 0
M  V30 1399 C 129.253 -4.25858 -0.427628 0
M  V30 1400 C 128.579 -5.12361 -1.5294 0
M  V30 1401 C 129.879 -5.18165 0.655944 0
M  V30 1402 H 131.573 -2.92254 0.650224 0
M  V30 1403 H 129.119 -1.40532 0.314138 0
M  V30 1404 H 131.072 -3.90698 -1.57901 0
M  V30 1405 H 129.796 -2.69355 -1.84703 0
M  V30 1406 H 128.455 -3.66564 0.0510292 0
M  V30 1407 H 128.103 -4.47984 -2.28734 0
M  V30 1408 H 127.803 -5.77238 -1.09865 0
M  V30 1409 H 129.327 -5.75833 -2.03098 0
M  V30 1410 H 130.741 -5.72796 0.240257 0
M  V30 1411 H 129.138 -5.91559 1.00888 0
M  V30 1412 H 130.208 -4.60144 1.52957 0
M  V30 1413 N 131.551 -0.354651 -1.53558 0
M  V30 1414 C 132.481 0.489091 -2.2832 0
M  V30 1415 C 133.462 1.09324 -1.30316 0
M  V30 1416 O 134.647 1.11255 -1.59173 0
M  V30 1417 C 131.777 1.63456 -3.0643 0
M  V30 1418 C 130.731 1.1582 -4.12031 0
M  V30 1419 C 130.057 2.39305 -4.7816 0
M  V30 1420 C 131.357 0.250731 -5.21698 0
M  V30 1421 H 133.051 -0.134614 -2.99097 0
M  V30 1422 H 130.597 -0.0661826 -1.43848 0
M  V30 1423 H 132.55 2.23136 -3.57475 0
M  V30 1424 H 131.274 2.28533 -2.33325 0
M  V30 1425 H 129.933 0.584146 -3.61916 0
M  V30 1426 H 129.581 3.02814 -4.01637 0
M  V30 1427 H 129.281 2.08109 -5.49513 0
M  V30 1428 H 130.805 2.99691 -5.31994 0
M  V30 1429 H 132.219 0.754695 -5.68311 0
M  V30 1430 H 130.616 0.0301468 -6.00092 0
M  V30 1431 H 131.686 -0.710125 -4.79672 0
M  V30 1432 N 133.029 1.57378 -0.0835403 0
M  V30 1433 C 134.278 1.93106 0.582498 0
M  V30 1434 C 134.591 0.96651 1.70053 0
M  V30 1435 O 135.797 1.21705 2.42693 0
M  V30 1436 C 134.253 3.43076 1.08751 0
M  V30 1437 C 133.861 4.48 -0.000146404 0
M  V30 1438 C 135.605 3.87785 1.72694 0
M  V30 1439 C 133.512 5.89113 0.519568 0
M  V30 1440 H 132.442 0.720775 0.221358 0
M  V30 1441 H 135.093 1.82821 -0.157675 0
M  V30 1442 H 133.475 3.48474 1.88101 0
M  V30 1443 H 134.649 4.54233 -0.775199 0
M  V30 1444 H 132.964 4.1283 -0.54406 0
M  V30 1445 H 135.561 4.90604 2.1263 0
M  V30 1446 H 135.904 3.25796 2.59158 0
M  V30 1447 H 136.437 3.8504 0.999457 0
M  V30 1448 H 133.176 6.54775 -0.308186 0
M  V30 1449 H 132.696 5.86376 1.26188 0
M  V30 1450 H 134.375 6.39346 0.992237 0
M  V30 1451 N 134.507 -0.190092 1.56449 0
M  V30 1452 C 135.755 -0.907908 1.80559 0
M  V30 1453 C 136.076 -1.83583 0.657438 0
M  V30 1454 O 135.346 -1.93203 -0.323924 0
M  V30 1455 H 133.926 -0.338247 0.666032 0
M  V30 1456 H 136.588 -0.194403 1.93928 0
M  V30 1457 H 135.684 -1.49604 2.73907 0
M  V30 1458 N 135.985 -1.50799 -0.457987 0
M  V30 1459 C 136.895 -1.73426 -1.57989 0
M  V30 1460 C 137.911 -0.617745 -1.62665 0
M  V30 1461 O 139.087 -0.897614 -1.80291 0
M  V30 1462 C 136.152 -1.83557 -2.94122 0
M  V30 1463 C 135.213 -3.07345 -2.99729 0
M  V30 1464 C 134.446 -3.16983 -4.29368 0
M  V30 1465 O 134.669 -2.33077 -5.20607 0
M  V30 1466 O 133.603 -4.09812 -4.40837 0
M  V30 1467 H 137.429 -2.68555 -1.41817 0
M  V30 1468 H 135.014 -1.35052 -0.638859 0
M  V30 1469 H 136.896 -1.92326 -3.74952 0
M  V30 1470 H 135.571 -0.916137 -3.10465 0
M  V30 1471 H 134.478 -3.04068 -2.1793 0
M  V30 1472 H 135.811 -3.9891 -2.88326 0
M  V30 1473 N 137.463 0.71206 -1.40597 0
M  V30 1474 C 138.393 1.83889 -1.43899 0
M  V30 1475 C 139.374 1.67442 -0.299504 0
M  V30 1476 O 140.559 1.87421 -0.508624 0
M  V30 1477 C 137.689 3.21877 -1.30431 0
M  V30 1478 C 136.643 3.53002 -2.42019 0
M  V30 1479 C 135.969 4.90172 -2.13626 0
M  V30 1480 C 137.269 3.53643 -3.84362 0
M  V30 1481 H 138.963 1.81383 -2.38203 0
M  V30 1482 H 136.509 0.871237 -1.14654 0
M  V30 1483 H 138.462 4.00404 -1.31357 0
M  V30 1484 H 137.186 3.24968 -0.326049 0
M  V30 1485 H 135.845 2.76818 -2.40349 0
M  V30 1486 H 135.493 4.89869 -1.14182 0
M  V30 1487 H 135.193 5.11962 -2.88389 0
M  V30 1488 H 136.717 5.71028 -2.1624 0
M  V30 1489 H 138.131 4.22203 -3.87837 0
M  V30 1490 H 136.528 3.86961 -4.58673 0
M  V30 1491 H 137.598 2.52954 -4.13693 0
M  V30 1492 N 138.941 1.26152 0.944643 0
M  V30 1493 C 139.904 1.07474 2.0244 0
M  V30 1494 C 140.904 0.0242064 1.60782 0
M  V30 1495 O 142.094 0.267302 1.72137 0
M  V30 1496 C 139.226 0.633956 3.34953 0
M  V30 1497 H 140.419 2.03336 2.20442 0
M  V30 1498 H 137.972 1.087 1.12312 0
M  V30 1499 H 138.707 -0.326811 3.22649 0
M  V30 1500 H 138.492 1.39247 3.66542 0
M  V30 1501 H 139.982 0.52501 4.14287 0
M  V30 1502 N 140.419 -1.14872 1.07899 0
M  V30 1503 C 141.83 -1.67367 0.827363 0
M  V30 1504 C 142.181 -1.85236 -0.646693 0
M  V30 1505 O 141.306 -1.55974 -1.50004 0
M  V30 1506 C 141.901 -3.04016 1.49532 0
M  V30 1507 C 140.46 -3.53566 1.29106 0
M  V30 1508 C 139.607 -2.29161 1.56143 0
M  V30 1509 H 142.558 -0.990083 1.24028 0
M  V30 1510 H 142.579 -3.69219 0.919643 0
M  V30 1511 H 142.091 -2.90978 2.56814 0
M  V30 1512 H 140.192 -3.71835 0.238713 0
M  V30 1513 H 140.305 -4.34661 2.01511 0
M  V30 1514 H 138.669 -2.34978 0.982717 0
M  V30 1515 H 139.452 -2.18705 2.64619 0
M  V30 1516 N 141.898 -0.863906 -1.31812 0
M  V30 1517 C 142.808 -0.318461 -2.32428 0
M  V30 1518 C 143.824 0.568496 -1.64451 0
M  V30 1519 O 145 0.46666 -1.95919 0
M  V30 1520 C 142.065 0.476355 -3.43412 0
M  V30 1521 C 141.126 -0.43784 -4.27061 0
M  V30 1522 C 140.359 0.319138 -5.32745 0
M  V30 1523 O 140.582 1.54799 -5.48993 0
M  V30 1524 O 139.516 -0.319861 -6.01049 0
M  V30 1525 H 143.342 -1.15229 -2.80991 0
M  V30 1526 H 140.927 -0.627103 -1.35602 0
M  V30 1527 H 142.809 0.927156 -4.11074 0
M  V30 1528 H 141.484 1.28683 -2.97022 0
M  V30 1529 H 140.391 -0.937013 -3.62175 0
M  V30 1530 H 141.724 -1.21375 -4.77 0
M  V30 1531 N 143.376 1.44774 -0.622745 0
M  V30 1532 C 144.286 2.34433 0.0886031 0
M  V30 1533 C 145.302 1.52131 0.844529 0
M  V30 1534 O 146.478 1.84886 0.798691 0
M  V30 1535 C 143.543 3.29986 1.0635 0
M  V30 1536 C 142.604 4.28195 0.307873 0
M  V30 1537 C 141.837 5.19183 1.23633 0
M  V30 1538 O 142.06 5.13918 2.47476 0
M  V30 1539 O 140.994 5.97515 0.725189 0
M  V30 1540 H 144.82 2.96693 -0.648599 0
M  V30 1541 H 142.405 1.44408 -0.382957 0
M  V30 1542 H 144.287 3.88825 1.6246 0
M  V30 1543 H 142.962 2.70269 1.78146 0
M  V30 1544 H 141.869 3.72927 -0.296064 0
M  V30 1545 H 143.202 4.90808 -0.3699 0
M  V30 1546 N 144.854 0.36279 1.53368 0
M  V30 1547 C 146.265 -0.117022 1.86333 0
M  V30 1548 C 146.616 -1.48397 1.28347 0
M  V30 1549 O 145.741 -2.07787 0.604428 0
M  V30 1550 C 146.336 -0.21912 3.38091 0
M  V30 1551 C 144.895 -0.643184 3.70864 0
M  V30 1552 C 144.042 0.211318 2.76494 0
M  V30 1553 H 146.993 0.581687 1.47655 0
M  V30 1554 H 147.014 -1.04319 3.6592 0
M  V30 1555 H 146.526 0.775902 3.80265 0
M  V30 1556 H 144.627 -1.64654 3.34245 0
M  V30 1557 H 144.74 -0.41973 4.77258 0
M  V30 1558 H 143.104 -0.319367 2.5269 0
M  V30 1559 H 143.887 1.20383 3.21501 0
M  V30 1560 N 146.332 -1.57332 0.0918853 0
M  V30 1561 C 147.557 -1.98995 -0.584442 0
M  V30 1562 C 147.982 -0.970528 -1.61128 0
M  V30 1563 O 147.34 0.0613904 -1.81196 0
M  V30 1564 C 147.388 -3.39636 -1.21161 0
M  V30 1565 O 146.492 -3.40447 -2.32744 0
M  V30 1566 H 145.833 -0.647165 -0.148572 0
M  V30 1567 H 148.363 -2.03873 0.172347 0
M  V30 1568 H 148.373 -3.7726 -1.55367 0
M  V30 1569 H 147.048 -4.13356 -0.459313 0
M  V30 1570 H 145.625 -3.14614 -2.0018 0
M  V30 1571 N 147.81 0.181792 -1.56548 0
M  V30 1572 C 148.742 1.24956 -1.92142 0
M  V30 1573 C 149.755 1.41022 -0.813422 0
M  V30 1574 O 150.944 1.41212 -1.09186 0
M  V30 1575 C 148.044 2.61981 -2.14987 0
M  V30 1576 C 147.217 2.6735 -3.46183 0
M  V30 1577 C 146.276 3.85664 -3.5798 0
M  V30 1578 O 145.302 3.72148 -4.30691 0
M  V30 1579 N 146.504 5.01683 -2.92053 0
M  V30 1580 H 149.269 0.947329 -2.84334 0
M  V30 1581 H 146.83 0.371629 -1.57577 0
M  V30 1582 H 148.822 3.3958 -2.20154 0
M  V30 1583 H 147.392 2.84637 -1.2923 0
M  V30 1584 H 146.612 1.75925 -3.52766 0
M  V30 1585 H 147.9 2.67939 -4.32534 0
M  V30 1586 H 147.298 5.15564 -2.32832 0
M  V30 1587 H 145.855 5.77181 -3.0283 0
M  V30 1588 N 149.288 1.51039 0.449983 0
M  V30 1589 C 150.565 1.53612 1.21089 0
M  V30 1590 C 150.945 0.292997 2.09057 0
M  V30 1591 O 150.293 -0.72259 2.16774 0
M  V30 1592 C 150.503 2.84337 2.0237 0
M  V30 1593 C 151.851 3.35807 2.59843 0
M  V30 1594 O 152.875 2.85802 2.12593 0
M  V30 1595 O 151.734 4.23029 3.45989 0
M  V30 1596 H 148.828 0.617057 0.550608 0
M  V30 1597 H 151.374 1.63344 0.460082 0
M  V30 1598 H 150.146 3.66278 1.37681 0
M  V30 1599 H 149.769 2.77708 2.84542 0
M  V30 1600 N 150.766 -0.704594 1.40972 0
M  V30 1601 C 151.716 -1.81051 1.38581 0
M  V30 1602 C 152.7 -1.58759 0.261585 0
M  V30 1603 O 153.892 -1.69745 0.501556 0
M  V30 1604 C 151.021 -3.19279 1.26157 0
M  V30 1605 C 150.107 -3.47296 2.43405 0
M  V30 1606 N 150.498 -3.46064 3.68881 0
M  V30 1607 C 148.796 -3.77804 2.37023 0
M  V30 1608 C 149.497 -3.72733 4.46592 0
M  V30 1609 N 148.473 -3.9203 3.76581 0
M  V30 1610 H 152.275 -1.78448 2.33525 0
M  V30 1611 H 149.789 -0.904198 1.349 0
M  V30 1612 H 151.786 -3.98488 1.22526 0
M  V30 1613 H 150.446 -3.231 0.321902 0
M  V30 1614 H 151.457 -3.26656 4.01891 0
M  V30 1615 H 148.134 -3.8905 1.51481 0
M  V30 1616 H 149.524 -3.77993 5.55492 0
M  V30 1617 N 152.244 -1.26651 -0.937939 0
M  V30 1618 C 153.492 -1.12165 -1.68118 0
M  V30 1619 C 153.813 0.334983 -1.92101 0
M  V30 1620 O 153.083 1.23583 -1.52 0
M  V30 1621 H 151.663 -0.412093 -0.623048 0
M  V30 1622 H 154.325 -1.59027 -1.12678 0
M  V30 1623 H 153.421 -1.64289 -2.6536 0
M  V30 1624 N 153.722 1.14298 -1.08507 0
M  V30 1625 C 154.669 2.19414 -0.715965 0
M  V30 1626 C 155.639 1.63399 0.298326 0
M  V30 1627 O 156.824 1.89929 0.182101 0
M  V30 1628 C 153.964 3.44845 -0.132534 0
M  V30 1629 C 153.077 4.15007 -1.19973 0
M  V30 1630 C 152.212 5.28024 -0.580048 0
M  V30 1631 C 151.251 5.9002 -1.62921 0
M  V30 1632 N 150.388 6.94485 -1.03125 0
M  V30 1633 H 155.228 2.50336 -1.61666 0
M  V30 1634 H 152.765 1.2293 -0.807882 0
M  V30 1635 H 154.723 4.16601 0.223454 0
M  V30 1636 H 153.353 3.14403 0.731467 0
M  V30 1637 H 152.405 3.41629 -1.67313 0
M  V30 1638 H 153.717 4.57178 -1.99473 0
M  V30 1639 H 152.871 6.06455 -0.172364 0
M  V30 1640 H 151.61 4.87076 0.246603 0
M  V30 1641 H 150.615 5.10291 -2.04654 0
M  V30 1642 H 151.84 6.33042 -2.45835 0
M  V30 1643 H 149.786 6.55612 -0.225711 0
M  V30 1644 H 149.703 7.35148 -1.76334 0
M  V30 1645 H 150.971 7.7679 -0.649458 0
M  V30 1646 N 155.201 0.870884 1.31352 0
M  V30 1647 C 156.149 0.316445 2.30437 0
M  V30 1648 C 157.143 -0.568965 1.59559 0
M  V30 1649 O 158.349 -0.454964 1.74155 0
M  V30 1650 H 154.724 0.0836521 0.747333 0
M  V30 1651 H 156.695 1.16606 2.74673 0
M  V30 1652 C 155.444 -0.46635 3.44558 0
M  V30 1653 H 154.767 0.205687 3.99271 0
M  V30 1654 H 156.207 -0.819614 4.16003 0
M  V30 1655 C 154.666 -1.65797 2.9328 0
M  V30 1656 O 155.196 -2.75728 2.92125 0
M  V30 1657 N 153.402 -1.49041 2.4947 0
M  V30 1658 H 152.949 -0.59612 2.50608 0
M  V30 1659 H 152.907 -2.28911 2.15516 0
M  V30 1660 N 156.679 -1.44442 0.630414 0
M  V30 1661 C 157.904 -2.06927 0.139944 0
M  V30 1662 C 158.329 -1.46795 -1.17613 0
M  V30 1663 O 157.687 -0.569144 -1.72135 0
M  V30 1664 C 157.735 -3.6058 0.0379581 0
M  V30 1665 O 156.839 -3.99937 -1.0062 0
M  V30 1666 H 156.18 -0.658608 0.0844483 0
M  V30 1667 H 158.71 -1.85327 0.866891 0
M  V30 1668 H 158.72 -4.07714 -0.152856 0
M  V30 1669 H 157.395 -4.03728 0.998809 0
M  V30 1670 H 155.972 -3.64436 -0.79001 0
M  V30 1671 N 158.157 -0.370918 -1.53173 0
M  V30 1672 C 159.104 0.473035 -2.259 0
M  V30 1673 C 160.074 1.07311 -1.26781 0
M  V30 1674 O 161.259 1.1046 -1.55574 0
M  V30 1675 C 158.399 1.60405 -3.05556 0
M  V30 1676 C 157.512 1.02863 -4.19575 0
M  V30 1677 C 156.647 2.12918 -4.86661 0
M  V30 1678 C 155.686 1.52869 -5.92704 0
M  V30 1679 N 154.823 2.56779 -6.53459 0
M  V30 1680 H 159.663 -0.153649 -2.97604 0
M  V30 1681 H 157.2 -0.0875946 -1.46839 0
M  V30 1682 H 159.158 2.27034 -3.50016 0
M  V30 1683 H 157.788 2.20131 -2.36097 0
M  V30 1684 H 156.84 0.252465 -3.79561 0
M  V30 1685 H 158.152 0.549642 -4.95762 0
M  V30 1686 H 157.306 2.87356 -5.34333 0
M  V30 1687 H 156.045 2.6417 -4.09958 0
M  V30 1688 H 155.05 0.769479 -5.44389 0
M  V30 1689 H 156.275 1.02435 -6.7133 0
M  V30 1690 H 154.221 3.07235 -5.79606 0
M  V30 1691 H 154.138 2.13583 -7.25202 0
M  V30 1692 H 155.406 3.30903 -7.05779 0
M  V30 1693 N 159.635 1.57281 -0.100228 0
M  V30 1694 C 160.884 1.93713 0.561984 0
M  V30 1695 C 161.197 0.984492 1.69018 0
M  V30 1696 O 162.403 1.24273 2.41389 0
M  V30 1697 C 160.859 3.4421 1.05106 0
M  V30 1698 C 160.467 4.47975 -0.0476628 0
M  V30 1699 C 162.211 3.89595 1.68571 0
M  V30 1700 C 160.118 5.89631 0.457055 0
M  V30 1701 H 159.048 0.723082 0.2137 0
M  V30 1702 H 161.699 1.82644 -0.177057 0
M  V30 1703 H 160.081 3.50449 1.84395 0
M  V30 1704 H 161.255 4.53385 -0.823333 0
M  V30 1705 H 159.57 4.1223 -0.587816 0
M  V30 1706 H 162.167 4.92832 2.07414 0
M  V30 1707 H 162.51 3.28526 2.55688 0
M  V30 1708 H 163.043 3.86078 0.958562 0
M  V30 1709 H 159.782 6.54411 -0.377616 0
M  V30 1710 H 159.302 5.87681 1.19962 0
M  V30 1711 H 160.981 6.40363 0.92437 0
M  V30 1712 N 161.113 -0.173488 1.56642 0
M  V30 1713 C 162.341 -0.906095 1.86004 0
M  V30 1714 C 162.756 -1.75921 0.685355 0
M  V30 1715 O 162.113 -1.79198 -0.345578 0
M  V30 1716 C 162.164 -1.78462 3.14378 0
M  V30 1717 O 161.885 -0.965914 4.27319 0
M  V30 1718 C 163.386 -2.62707 3.57071 0
M  V30 1719 H 160.606 -0.263341 0.617165 0
M  V30 1720 H 163.15 -0.174236 2.03756 0
M  V30 1721 H 161.305 -2.46984 2.98459 0
M  V30 1722 H 161.719 -1.56655 5.00559 0
M  V30 1723 H 163.193 -3.19969 4.49804 0
M  V30 1724 H 163.67 -3.37472 2.81086 0
M  V30 1725 H 164.276 -1.99521 3.75595 0
M  V30 1726 N 162.591 -1.51276 -0.441967 0
M  V30 1727 C 163.501 -1.75092 -1.56141 0
M  V30 1728 C 164.517 -0.634963 -1.62001 0
M  V30 1729 O 165.693 -0.916686 -1.79329 0
M  V30 1730 C 162.758 -1.86666 -2.92158 0
M  V30 1731 C 161.819 -3.10506 -2.96453 0
M  V30 1732 C 161.052 -3.21519 -4.25982 0
M  V30 1733 O 161.275 -2.38586 -5.18105 0
M  V30 1734 O 160.209 -4.14465 -4.36466 0
M  V30 1735 H 164.035 -2.70044 -1.38961 0
M  V30 1736 H 161.62 -1.35722 -0.624499 0
M  V30 1737 H 163.502 -1.96292 -3.72891 0
M  V30 1738 H 162.177 -0.949014 -3.09476 0
M  V30 1739 H 161.084 -3.06363 -2.14692 0
M  V30 1740 H 162.417 -4.01945 -2.84079 0
M  V30 1741 N 164.069 0.697108 -1.41344 0
M  V30 1742 C 165.346 1.45154 -1.31109 0
M  V30 1743 C 165.726 2.11009 0.0620449 0
M  V30 1744 O 165.074 2.01571 1.07618 0
M  V30 1745 C 165.284 2.47223 -2.46337 0
M  V30 1746 C 166.632 3.1252 -2.87431 0
M  V30 1747 O 167.656 2.57547 -2.46065 0
M  V30 1748 O 166.515 4.12083 -3.58957 0
M  V30 1749 H 163.609 0.646365 -0.515889 0
M  V30 1750 H 166.155 0.727716 -1.53305 0
M  V30 1751 H 164.927 1.97204 -3.37974 0
M  V30 1752 H 164.55 3.27116 -2.2601 0
M  V30 1753 N 165.547 1.27147 0.931209 0
M  V30 1754 C 166.794 1.13278 1.67852 0
M  V30 1755 C 167.122 -0.32204 1.91815 0
M  V30 1756 O 166.377 -1.25224 1.50391 0
M  V30 1757 C 166.676 1.8579 3.05314 0
M  V30 1758 C 166.342 3.35657 3.01073 0
M  V30 1759 C 165.004 3.76536 2.99623 0
M  V30 1760 C 167.356 4.31299 2.92627 0
M  V30 1761 C 164.684 5.11426 2.87506 0
M  V30 1762 C 167.036 5.66242 2.82051 0
M  V30 1763 C 165.7 6.06418 2.7895 0
M  V30 1764 H 164.97 0.414515 0.614214 0
M  V30 1765 H 167.617 1.57712 1.08624 0
M  V30 1766 H 165.922 1.33854 3.68226 0
M  V30 1767 H 167.619 1.72491 3.62005 0
M  V30 1768 H 164.209 3.03146 3.02986 0
M  V30 1769 H 168.393 4.00692 2.92848 0
M  V30 1770 H 163.649 5.41705 2.83489 0
M  V30 1771 H 167.823 6.40026 2.74481 0
M  V30 1772 H 165.45 7.10895 2.69318 0
M  V30 1773 N 167.025 -1.13721 1.09112 0
M  V30 1774 C 168.441 -1.36914 0.820174 0
M  V30 1775 C 168.641 -1.93356 -0.567079 0
M  V30 1776 O 167.697 -2.15093 -1.32255 0
M  V30 1777 C 169.01 -2.3235 1.90877 0
M  V30 1778 C 170.558 -2.45973 1.93562 0
M  V30 1779 C 171.033 -3.44714 3.01556 0
M  V30 1780 N 172.524 -3.52263 3.00775 0
M  V30 1781 C 173.259 -4.28536 3.80978 0
M  V30 1782 N 172.755 -5.07991 4.71081 0
M  V30 1783 N 174.548 -4.23804 3.69251 0
M  V30 1784 H 166.699 -0.754348 1.98553 0
M  V30 1785 H 168.962 -0.3944 0.862063 0
M  V30 1786 H 168.668 -1.98027 2.90651 0
M  V30 1787 H 168.542 -3.32332 1.78424 0
M  V30 1788 H 170.929 -2.79584 0.944286 0
M  V30 1789 H 171.01 -1.45926 2.10093 0
M  V30 1790 H 170.654 -3.11835 4.00901 0
M  V30 1791 H 170.584 -4.44558 2.82269 0
M  V30 1792 H 173.075 -2.95567 2.35475 0
M  V30 1793 H 173.388 -5.63487 5.28869 0
M  V30 1794 H 171.733 -5.07235 4.75119 0
M  V30 1795 H 174.924 -3.60806 2.98222 0
M  V30 1796 H 175.097 -4.82995 4.31995 0
M  V30 1797 N 168.503 -0.877838 -1.30888 0
M  V30 1798 C 169.466 -0.344265 -2.266 0
M  V30 1799 C 170.466 0.50922 -1.52524 0
M  V30 1800 O 171.656 0.317398 -1.71284 0
M  V30 1801 C 168.788 0.510198 -3.37061 0
M  V30 1802 H 169.981 -1.1893 -2.7531 0
M  V30 1803 H 167.534 -0.654088 -1.41956 0
M  V30 1804 H 168.269 1.37612 -2.93655 0
M  V30 1805 H 168.054 -0.101047 -3.9197 0
M  V30 1806 H 169.544 0.875537 -4.08319 0
M  V30 1807 N 169.982 1.44106 -0.638065 0
M  V30 1808 C 170.912 2.33448 0.0494287 0
M  V30 1809 C 171.893 1.48606 0.827672 0
M  V30 1810 O 173.078 1.77308 0.792173 0
M  V30 1811 C 170.208 3.31771 1.02691 0
M  V30 1812 C 169.162 4.26485 0.359823 0
M  V30 1813 C 168.488 5.14729 1.44769 0
M  V30 1814 C 169.788 5.17056 -0.738296 0
M  V30 1815 H 171.482 2.91183 -0.696636 0
M  V30 1816 H 169.028 1.40014 -0.336456 0
M  V30 1817 H 170.981 3.93161 1.51666 0
M  V30 1818 H 169.705 2.7226 1.80395 0
M  V30 1819 H 168.364 3.66437 -0.10934 0
M  V30 1820 H 168.012 4.51566 2.21578 0
M  V30 1821 H 167.712 5.78913 1.00668 0
M  V30 1822 H 169.236 5.78991 1.93911 0
M  V30 1823 H 170.65 5.72342 -0.331354 0
M  V30 1824 H 169.047 5.89879 -1.10286 0
M  V30 1825 H 170.117 4.57652 -1.60258 0
M  V30 1826 N 171.46 0.379036 1.52974 0
M  V30 1827 C 172.876 0.0285448 1.59574 0
M  V30 1828 C 173.076 -1.45542 1.39355 0
M  V30 1829 O 172.132 -2.2187 1.20541 0
M  V30 1830 C 173.445 0.496535 2.96572 0
M  V30 1831 C 174.993 0.451909 3.0972 0
M  V30 1832 C 175.468 0.895924 4.49152 0
M  V30 1833 N 176.959 0.851522 4.55306 0
M  V30 1834 C 177.694 1.16661 5.61407 0
M  V30 1835 N 177.19 1.55166 6.752 0
M  V30 1836 N 178.983 1.08853 5.51459 0
M  V30 1837 H 171.134 1.34525 1.64367 0
M  V30 1838 H 173.397 0.550733 0.771619 0
M  V30 1839 H 173.103 1.53258 3.16552 0
M  V30 1840 H 172.977 -0.109802 3.7704 0
M  V30 1841 H 175.364 -0.575029 2.89443 0
M  V30 1842 H 175.445 1.09392 2.3123 0
M  V30 1843 H 175.089 1.92104 4.70168 0
M  V30 1844 H 175.019 0.23103 5.26093 0
M  V30 1845 H 177.51 0.568038 3.73606 0
M  V30 1846 H 177.823 1.776 7.52116 0
M  V30 1847 H 176.168 1.59044 6.76557 0
M  V30 1848 H 179.359 0.786803 4.6144 0
M  V30 1849 H 179.532 1.33742 6.34048 0
M  V30 1850 N 172.938 -1.57226 0.108567 0
M  V30 1851 C 173.885 -2.14756 -0.845481 0
M  V30 1852 C 174.855 -1.06971 -1.27068 0
M  V30 1853 O 176.04 -1.34827 -1.35005 0
M  V30 1854 C 173.18 -2.74298 -2.09415 0
M  V30 1855 C 172.293 -3.96358 -1.71826 0
M  V30 1856 C 171.428 -4.44021 -2.9158 0
M  V30 1857 C 170.467 -5.58637 -2.50181 0
M  V30 1858 N 169.604 -6.01091 -3.62814 0
M  V30 1859 H 174.444 -2.95961 -0.348035 0
M  V30 1860 H 171.981 -1.46226 -0.160106 0
M  V30 1861 H 173.939 -3.06945 -2.82561 0
M  V30 1862 H 172.569 -1.95801 -2.56636 0
M  V30 1863 H 171.621 -3.69939 -0.885947 0
M  V30 1864 H 172.933 -4.79504 -1.37394 0
M  V30 1865 H 172.087 -4.78522 -3.72963 0
M  V30 1866 H 170.826 -3.59803 -3.29231 0
M  V30 1867 H 169.831 -5.23751 -1.67228 0
M  V30 1868 H 171.056 -6.44613 -2.13659 0
M  V30 1869 H 169.002 -5.19817 -4.00158 0
M  V30 1870 H 168.919 -6.79066 -3.32273 0
M  V30 1871 H 170.187 -6.40227 -4.44668 0
M  V30 1872 N 174.416 0.165178 -1.56732 0
M  V30 1873 C 175.644 0.896218 -1.86482 0
M  V30 1874 C 176.059 1.75555 -0.694675 0
M  V30 1875 O 175.416 1.79379 0.33607 0
M  V30 1876 C 175.467 1.76792 -3.1532 0
M  V30 1877 O 175.188 0.943239 -4.27825 0
M  V30 1878 C 176.689 2.6081 -3.58459 0
M  V30 1879 H 173.909 0.260064 -0.618553 0
M  V30 1880 H 176.453 0.163428 -2.03846 0
M  V30 1881 H 174.608 2.45398 -2.99764 0
M  V30 1882 H 175.022 1.53998 -5.01383 0
M  V30 1883 H 176.496 3.17579 -4.51495 0
M  V30 1884 H 176.973 3.35977 -2.82872 0
M  V30 1885 H 177.579 1.97526 -3.76648 0
M  V30 1886 N 175.894 1.51508 0.433938 0
M  V30 1887 C 176.857 1.72473 1.50949 0
M  V30 1888 C 177.857 0.594725 1.49398 0
M  V30 1889 O 179.047 0.862315 1.5136 0
M  V30 1890 C 176.179 1.78431 2.90474 0
M  V30 1891 H 177.372 2.68467 1.33662 0
M  V30 1892 H 174.925 1.41549 0.662836 0
M  V30 1893 H 175.66 0.842645 3.13161 0
M  V30 1894 H 175.445 2.60558 2.93005 0
M  V30 1895 H 176.935 1.96479 3.68491 0
M  V30 1896 N 177.372 -0.689602 1.41712 0
M  V30 1897 C 178.282 -1.83314 1.46401 0
M  V30 1898 C 179.298 -1.7036 0.35405 0
M  V30 1899 O 180.474 -1.92171 0.602692 0
M  V30 1900 C 177.539 -3.19344 1.34982 0
M  V30 1901 C 176.6 -3.44363 2.56344 0
M  V30 1902 C 175.833 -4.73904 2.45461 0
M  V30 1903 O 176.056 -5.508 1.48241 0
M  V30 1904 O 174.99 -4.99839 3.35328 0
M  V30 1905 H 178.816 -1.82314 2.42889 0
M  V30 1906 H 176.401 -0.843438 1.23315 0
M  V30 1907 H 178.283 -4.00547 1.3092 0
M  V30 1908 H 176.958 -3.21014 0.41612 0
M  V30 1909 H 175.865 -2.63067 2.65982 0
M  V30 1910 H 177.198 -3.47512 3.48563 0
M  V30 1911 N 178.85 -1.27639 -0.924453 0
M  V30 1912 C 180.127 -1.04887 -1.651 0
M  V30 1913 C 180.507 0.415327 -2.06974 0
M  V30 1914 O 179.855 1.39923 -1.80648 0
M  V30 1915 C 180.065 -2.01348 -2.85061 0
M  V30 1916 C 181.413 -2.30899 -3.56329 0
M  V30 1917 O 182.437 -1.99348 -2.95193 0
M  V30 1918 O 181.296 -2.84699 -4.66485 0
M  V30 1919 H 178.39 -0.400083 -0.723784 0
M  V30 1920 H 180.936 -1.38916 -0.974703 0
M  V30 1921 H 179.708 -3.0008 -2.51133 0
M  V30 1922 H 179.331 -1.679 -3.6041 0
M  V30 1923 N 180.328 1.1314 -1.09713 0
M  V30 1924 C 181.261 2.17735 -0.683137 0
M  V30 1925 C 182.239 1.59582 0.311841 0
M  V30 1926 O 183.423 1.87298 0.212514 0
M  V30 1927 C 180.55 3.38699 -0.00684324 0
M  V30 1928 C 179.596 4.1546 -0.964102 0
M  V30 1929 S 180.429 4.74733 -2.47767 0
M  V30 1930 C 181.585 5.9904 -1.81387 0
M  V30 1931 H 181.818 2.52515 -1.56918 0
M  V30 1932 H 179.351 1.24484 -0.913404 0
M  V30 1933 H 181.309 4.08765 0.377044 0
M  V30 1934 H 179.97 3.02214 0.85589 0
M  V30 1935 H 179.163 5.02093 -0.43803 0
M  V30 1936 H 178.765 3.51066 -1.28953 0
M  V30 1937 H 181.057 6.67846 -1.13967 0
M  V30 1938 H 182 6.56261 -2.65947 0
M  V30 1939 H 182.408 5.4976 -1.28155 0
M  V30 1940 N 181.806 0.884767 1.30421 0
M  V30 1941 C 182.754 0.340869 2.30089 0
M  V30 1942 C 183.748 -0.55201 1.60154 0
M  V30 1943 O 184.954 -0.436467 1.74628 0
M  V30 1944 H 181.329 0.0915739 0.746404 0
M  V30 1945 H 183.3 1.19513 2.73421 0
M  V30 1946 C 182.049 -0.429779 3.45034 0
M  V30 1947 H 181.372 0.248024 3.9903 0
M  V30 1948 H 182.812 -0.775445 4.16849 0
M  V30 1949 C 181.271 -1.62677 2.95022 0
M  V30 1950 O 181.801 -2.72614 2.95033 0
M  V30 1951 N 180.007 -1.46387 2.51036 0
M  V30 1952 H 179.554 -0.569506 2.51226 0
M  V30 1953 H 179.512 -2.26612 2.17932 0
M  V30 1954 N 183.284 -1.43765 0.645699 0
M  V30 1955 C 184.214 -2.33471 -0.0370477 0
M  V30 1956 C 185.195 -1.49042 -0.819779 0
M  V30 1957 O 186.38 -1.77726 -0.782758 0
M  V30 1958 C 183.51 -3.32311 -1.0093 0
M  V30 1959 C 182.464 -4.2667 -0.337201 0
M  V30 1960 C 181.79 -5.1549 -1.42037 0
M  V30 1961 C 183.09 -5.16657 0.765706 0
M  V30 1962 H 184.784 -2.90809 0.712069 0
M  V30 1963 H 182.33 -1.39834 0.343876 0
M  V30 1964 H 184.283 -3.9396 -1.49578 0
M  V30 1965 H 183.007 -2.73213 -1.78948 0
M  V30 1966 H 181.666 -3.66374 0.128771 0
M  V30 1967 H 181.314 -4.52735 -2.1918 0
M  V30 1968 H 181.014 -5.79438 -0.975966 0
M  V30 1969 H 182.538 -5.80012 -1.90838 0
M  V30 1970 H 183.952 -5.72158 0.361702 0
M  V30 1971 H 182.349 -5.89286 1.13413 0
M  V30 1972 H 183.419 -4.56796 1.62683 0
M  V30 1973 N 184.763 -0.387143 -1.52771 0
M  V30 1974 C 186.01 0.195735 -2.01552 0
M  V30 1975 C 186.338 1.46995 -1.27369 0
M  V30 1976 O 185.593 1.92325 -0.361879 0
M  V30 1977 C 185.892 0.512209 -3.53711 0
M  V30 1978 C 185.558 -0.670202 -4.45891 0
M  V30 1979 C 184.22 -0.994586 -4.70809 0
M  V30 1980 C 186.572 -1.46134 -5.00294 0
M  V30 1981 C 183.9 -2.11169 -5.4738 0
M  V30 1982 C 186.252 -2.56903 -5.78086 0
M  V30 1983 C 184.916 -2.89852 -6.01284 0
M  V30 1984 H 184.186 0.0716246 -0.73753 0
M  V30 1985 H 186.833 -0.524046 -1.8419 0
M  V30 1986 H 185.138 1.31329 -3.69134 0
M  V30 1987 H 186.835 0.975804 -3.88946 0
M  V30 1988 H 183.425 -0.407366 -4.2666 0
M  V30 1989 H 187.609 -1.22397 -4.80971 0
M  V30 1990 H 182.865 -2.3707 -5.63567 0
M  V30 1991 H 187.039 -3.18608 -6.19243 0
M  V30 1992 H 184.666 -3.76533 -6.60399 0
M  V30 1993 N 186.241 1.57166 -0.116904 0
M  V30 1994 C 187.188 2.15202 0.83408 0
M  V30 1995 C 188.158 1.07644 1.26499 0
M  V30 1996 O 189.343 1.35541 1.34288 0
M  V30 1997 C 186.483 2.75405 2.07957 0
M  V30 1998 C 185.596 3.97264 1.69721 0
M  V30 1999 C 184.731 4.45561 2.89221 0
M  V30 2000 C 183.77 5.59956 2.47215 0
M  V30 2001 N 182.907 6.03006 3.59622 0
M  V30 2002 H 187.747 2.96141 0.332335 0
M  V30 2003 H 185.284 1.46309 0.152349 0
M  V30 2004 H 187.242 3.08439 2.80929 0
M  V30 2005 H 185.872 1.97159 2.55594 0
M  V30 2006 H 184.924 3.70404 0.866316 0
M  V30 2007 H 186.236 4.80226 1.34849 0
M  V30 2008 H 185.39 4.80493 3.7042 0
M  V30 2009 H 184.129 3.61544 3.27318 0
M  V30 2010 H 183.134 5.2463 1.64448 0
M  V30 2011 H 184.359 6.45738 2.10238 0
M  V30 2012 H 182.305 5.21931 3.97396 0
M  V30 2013 H 182.222 6.80819 3.28667 0
M  V30 2014 H 183.49 6.42576 4.41267 0
M  V30 2015 N 187.719 -0.156864 1.56817 0
M  V30 2016 C 188.947 -0.886316 1.86955 0
M  V30 2017 C 189.362 -1.75185 0.703975 0
M  V30 2018 O 188.719 -1.79555 -0.326552 0
M  V30 2019 C 188.77 -1.75117 3.16253 0
M  V30 2020 O 188.491 -0.920537 4.2832 0
M  V30 2021 C 189.992 -2.58905 3.59837 0
M  V30 2022 H 187.212 -0.25678 0.619923 0
M  V30 2023 H 189.756 -0.152615 2.0393 0
M  V30 2024 H 187.911 -2.43805 3.01062 0
M  V30 2025 H 188.325 -1.51337 5.02192 0
M  V30 2026 H 189.799 -3.1518 4.53172 0
M  V30 2027 H 190.276 -3.34472 2.84649 0
M  V30 2028 H 190.882 -1.95526 3.7769 0
M  V30 2029 N 189.197 -1.51736 -0.425897 0
M  V30 2030 C 190.145 -1.74464 -1.53834 0
M  V30 2031 C 191.139 -0.611241 -1.57988 0
M  V30 2032 O 192.345 -0.792899 -1.61596 0
M  V30 2033 H 188.72 -0.551437 -0.511293 0
M  V30 2034 H 190.691 -2.67694 -1.31843 0
M  V30 2035 C 189.44 -1.8972 -2.91379 0
M  V30 2036 H 188.763 -2.76344 -2.88919 0
M  V30 2037 H 190.203 -2.09629 -3.68553 0
M  V30 2038 C 188.662 -0.65992 -3.30374 0
M  V30 2039 O 189.192 0.180083 -4.01296 0
M  V30 2040 N 187.398 -0.500677 -2.86254 0
M  V30 2041 H 186.945 -1.18532 -2.28709 0
M  V30 2042 H 186.903 0.325903 -3.12706 0
M  V30 2043 N 190.675 0.682077 -1.42076 0
M  V30 2044 C 191.625 1.78823 -1.41444 0
M  V30 2045 C 192.609 1.58323 -0.28681 0
M  V30 2046 O 193.801 1.68926 -0.528498 0
M  V30 2047 C 190.93 3.17232 -1.3122 0
M  V30 2048 C 190.016 3.4338 -2.489 0
M  V30 2049 N 190.407 3.40152 -3.7434 0
M  V30 2050 C 188.705 3.73986 -2.43003 0
M  V30 2051 C 189.406 3.65581 -4.52466 0
M  V30 2052 N 188.382 3.85989 -3.8277 0
M  V30 2053 H 192.184 1.7471 -2.36334 0
M  V30 2054 H 189.698 0.882622 -1.36321 0
M  V30 2055 H 191.695 3.96489 -1.2885 0
M  V30 2056 H 190.355 3.22547 -0.373263 0
M  V30 2057 H 191.366 3.20221 -4.07037 0
M  V30 2058 H 188.043 3.86591 -1.57651 0
M  V30 2059 H 189.433 3.69108 -5.61435 0
M  V30 2060 N 192.153 1.28127 0.917671 0
M  V30 2061 C 193.399 1.15223 1.66888 0
M  V30 2062 C 193.732 -0.299293 1.9188 0
M  V30 2063 O 193.007 -1.21805 1.51637 0
M  V30 2064 C 193.29 1.94706 3.02922 0
M  V30 2065 C 193.143 3.47898 2.85109 0
M  V30 2066 C 194.462 1.75939 4.03402 0
M  V30 2067 H 191.581 0.419946 0.605652 0
M  V30 2068 H 194.223 1.57398 1.06423 0
M  V30 2069 H 192.373 1.58864 3.54534 0
M  V30 2070 H 194.045 3.93624 2.40537 0
M  V30 2071 H 192.288 3.7373 2.20246 0
M  V30 2072 H 192.959 3.98765 3.81694 0
M  V30 2073 H 195.435 2.07209 3.60837 0
M  V30 2074 H 194.311 2.33931 4.96556 0
M  V30 2075 H 194.572 0.709877 4.36364 0
M  V30 2076 N 193.631 -1.12557 1.10312 0
M  V30 2077 C 194.878 -1.84038 0.844759 0
M  V30 2078 C 195.206 -1.84026 -0.629668 0
M  V30 2079 O 194.461 -1.28026 -1.48013 0
M  V30 2080 C 194.76 -3.31462 1.33669 0
M  V30 2081 C 194.426 -3.51647 2.82232 0
M  V30 2082 C 193.088 -3.56864 3.22802 0
M  V30 2083 C 195.44 -3.58867 3.77974 0
M  V30 2084 C 192.768 -3.66844 4.57867 0
M  V30 2085 C 195.12 -3.70375 5.1284 0
M  V30 2086 C 193.784 -3.73848 5.52986 0
M  V30 2087 H 193.054 -0.673444 0.309119 0
M  V30 2088 H 195.701 -1.32824 1.37949 0
M  V30 2089 H 194.006 -3.85091 0.721949 0
M  V30 2090 H 195.703 -3.85236 1.11329 0
M  V30 2091 H 192.293 -3.48249 2.49842 0
M  V30 2092 H 196.477 -3.54107 3.47738 0
M  V30 2093 H 191.733 -3.67804 4.88396 0
M  V30 2094 H 195.907 -3.74904 5.86873 0
M  V30 2095 H 193.534 -3.81333 6.57639 0
M  V30 2096 N 195.109 -0.891671 -1.2995 0
M  V30 2097 C 196.356 -0.513501 -1.95881 0
M  V30 2098 C 196.684 0.938655 -1.70351 0
M  V30 2099 O 195.939 1.67936 -1.00478 0
M  V30 2100 C 196.238 -0.742868 -3.49594 0
M  V30 2101 C 195.904 -2.17114 -3.95186 0
M  V30 2102 C 194.566 -2.56169 -4.07346 0
M  V30 2103 C 196.918 -3.10162 -4.18866 0
M  V30 2104 C 194.246 -3.87469 -4.4055 0
M  V30 2105 C 196.598 -4.41001 -4.53542 0
M  V30 2106 C 195.262 -4.79941 -4.63911 0
M  V30 2107 H 194.532 -0.187903 -0.71678 0
M  V30 2108 H 197.179 -1.1288 -1.54694 0
M  V30 2109 H 195.484 -0.044586 -3.91775 0
M  V30 2110 H 197.181 -0.429767 -3.9869 0
M  V30 2111 H 193.771 -1.85801 -3.86233 0
M  V30 2112 H 197.955 -2.81206 -4.08946 0
M  V30 2113 H 193.211 -4.17371 -4.46779 0
M  V30 2114 H 197.385 -5.13133 -4.70815 0
M  V30 2115 H 195.012 -5.81719 -4.89395 0
M  V30 2116 N 196.587 1.43421 -0.653314 0
M  V30 2117 C 197.517 2.33487 0.0246656 0
M  V30 2118 C 198.498 1.49475 0.811863 0
M  V30 2119 O 199.683 1.78139 0.773322 0
M  V30 2120 C 196.813 3.32841 0.99166 0
M  V30 2121 C 195.767 4.26842 0.314568 0
M  V30 2122 C 195.093 5.16236 1.39302 0
M  V30 2123 C 196.393 5.16243 -0.793095 0
M  V30 2124 H 198.087 2.90427 -0.727481 0
M  V30 2125 H 195.633 1.39649 -0.351287 0
M  V30 2126 H 197.586 3.94747 1.47487 0
M  V30 2127 H 196.31 2.74158 1.77497 0
M  V30 2128 H 194.969 3.663 -0.148199 0
M  V30 2129 H 194.617 4.53891 2.16776 0
M  V30 2130 H 194.317 5.79948 0.945223 0
M  V30 2131 H 195.841 5.81015 1.87759 0
M  V30 2132 H 197.255 5.71958 -0.392039 0
M  V30 2133 H 195.652 5.88676 -1.16536 0
M  V30 2134 H 196.722 4.55927 -1.65103 0
M  V30 2135 N 198.065 0.39524 1.52563 0
M  V30 2136 C 198.995 -0.428384 2.29537 0
M  V30 2137 C 199.976 -1.05831 1.33169 0
M  V30 2138 O 201.161 -1.06995 1.62067 0
M  V30 2139 C 198.291 -1.55274 3.10656 0
M  V30 2140 C 197.245 -1.04855 4.14957 0
M  V30 2141 C 196.571 -2.26543 4.84337 0
M  V30 2142 C 197.871 -0.112324 5.22179 0
M  V30 2143 H 199.565 0.213867 2.98635 0
M  V30 2144 H 197.111 0.104298 1.43622 0
M  V30 2145 H 199.064 -2.1358 3.63265 0
M  V30 2146 H 197.788 -2.22266 2.39302 0
M  V30 2147 H 196.447 -0.487985 3.63338 0
M  V30 2148 H 196.095 -2.92059 4.09525 0
M  V30 2149 H 195.795 -1.93466 5.54837 0
M  V30 2150 H 197.319 -2.85481 5.39753 0
M  V30 2151 H 198.733 -0.603752 5.70112 0
M  V30 2152 H 197.13 0.128968 5.99961 0
M  V30 2153 H 198.2 0.837052 4.77621 0
M  V30 2154 N 199.544 -1.57102 0.125237 0
M  V30 2155 C 200.474 -2.18659 -0.819174 0
M  V30 2156 C 201.455 -1.12843 -1.27281 0
M  V30 2157 O 202.64 -1.41104 -1.33429 0
M  V30 2158 C 199.77 -2.79096 -2.06695 0
M  V30 2159 C 198.724 -3.90548 -1.75088 0
M  V30 2160 C 198.05 -4.37821 -3.06948 0
M  V30 2161 C 199.35 -5.12356 -1.01435 0
M  V30 2162 H 201.044 -2.9783 -0.306202 0
M  V30 2163 H 198.59 -1.4326 -0.145839 0
M  V30 2164 H 200.543 -3.2082 -2.73226 0
M  V30 2165 H 199.267 -1.97223 -2.60328 0
M  V30 2166 H 197.926 -3.49409 -1.10944 0
M  V30 2167 H 197.574 -3.52799 -3.58527 0
M  V30 2168 H 197.274 -5.12982 -2.86571 0
M  V30 2169 H 198.798 -4.822 -3.74587 0
M  V30 2170 H 200.212 -5.5106 -1.58132 0
M  V30 2171 H 198.609 -5.9314 -0.911319 0
M  V30 2172 H 199.679 -4.849 -0.00218681 0
M  V30 2173 N 201.022 0.148545 -1.56898 0
M  V30 2174 C 201.952 1.18524 -2.01182 0
M  V30 2175 C 202.933 1.4489 -0.891123 0
M  V30 2176 O 204.118 1.55836 -1.15882 0
M  V30 2177 C 201.248 2.51879 -2.39112 0
M  V30 2178 C 200.202 2.40038 -3.54353 0
M  V30 2179 C 199.528 3.78089 -3.78091 0
M  V30 2180 C 200.828 1.88577 -4.87069 0
M  V30 2181 H 202.522 0.817029 -2.88036 0
M  V30 2182 H 200.068 0.391575 -1.38574 0
M  V30 2183 H 202.021 3.24627 -2.68692 0
M  V30 2184 H 200.745 2.90532 -1.49193 0
M  V30 2185 H 199.404 1.69742 -3.24936 0
M  V30 2186 H 199.052 4.14175 -2.85426 0
M  V30 2187 H 198.752 3.71028 -4.55645 0
M  V30 2188 H 200.276 4.52387 -4.10095 0
M  V30 2189 H 201.69 2.51117 -5.15377 0
M  V30 2190 H 200.087 1.9241 -5.68417 0
M  V30 2191 H 201.157 0.84136 -4.77545 0
M  V30 2192 N 202.5 1.5196 0.417844 0
M  V30 2193 C 203.463 1.74065 1.49111 0
M  V30 2194 C 204.463 0.610537 1.48758 0
M  V30 2195 O 205.653 0.87832 1.50437 0
M  V30 2196 C 202.785 1.81502 2.88565 0
M  V30 2197 H 203.978 2.69869 1.30807 0
M  V30 2198 H 201.531 1.42244 0.647785 0
M  V30 2199 H 202.266 0.875813 3.1225 0
M  V30 2200 H 202.051 2.63651 2.90225 0
M  V30 2201 H 203.541 2.00376 3.66387 0
M  V30 2202 N 203.978 -0.674533 1.42435 0
M  V30 2203 C 204.928 -1.7807 1.4239 0
M  V30 2204 C 205.912 -1.58169 0.295202 0
M  V30 2205 O 207.104 -1.68643 0.537449 0
M  V30 2206 C 204.233 -3.16532 1.32901 0
M  V30 2207 C 203.319 -3.42055 2.50717 0
M  V30 2208 N 203.71 -3.38162 3.76139 0
M  V30 2209 C 202.008 -3.72692 2.44983 0
M  V30 2210 C 202.709 -3.63177 4.54398 0
M  V30 2211 N 201.685 -3.83954 3.84812 0
M  V30 2212 H 205.487 -1.73454 2.37257 0
M  V30 2213 H 203.001 -0.875381 1.36788 0
M  V30 2214 H 204.998 -3.958 1.30951 0
M  V30 2215 H 203.658 -3.22345 0.390363 0
M  V30 2216 H 204.669 -3.18057 4.0873 0
M  V30 2217 H 201.346 -3.85749 1.59699 0
M  V30 2218 H 202.736 -3.66125 5.63384 0
M  V30 2219 N 205.456 -1.28612 -0.910864 0
M  V30 2220 C 206.705 -1.15311 -1.65488 0
M  V30 2221 C 207.018 0.296999 -1.93332 0
M  V30 2222 O 208.224 0.551168 -2.65847 0
M  V30 2223 C 206.68 -2.01599 -2.98137 0
M  V30 2224 C 206.288 -3.51367 -2.7793 0
M  V30 2225 C 208.032 -1.96993 -3.76024 0
M  V30 2226 C 205.939 -4.29797 -4.06237 0
M  V30 2227 H 204.869 -0.42796 -0.620779 0
M  V30 2228 H 207.52 -1.53166 -1.01057 0
M  V30 2229 H 205.902 -1.56603 -3.63719 0
M  V30 2230 H 207.076 -4.0434 -2.21011 0
M  V30 2231 H 205.391 -3.57529 -2.13452 0
M  V30 2232 H 207.988 -2.52856 -4.71135 0
M  V30 2233 H 208.331 -0.94733 -4.05378 0
M  V30 2234 H 208.864 -2.39973 -3.17266 0
M  V30 2235 H 205.603 -5.32648 -3.82055 0
M  V30 2236 H 205.123 -3.81596 -4.62757 0
M  V30 2237 H 206.802 -4.39869 -4.74473 0
M  V30 2238 N 206.934 1.1197 -1.10907 0
M  V30 2239 C 208.183 1.82947 -0.849302 0
M  V30 2240 C 208.496 1.85275 0.627112 0
M  V30 2241 O 209.702 2.52296 1.00295 0
M  V30 2242 C 208.158 3.28529 -1.46959 0
M  V30 2243 C 207.766 3.34546 -2.97965 0
M  V30 2244 C 209.51 4.04443 -1.28942 0
M  V30 2245 C 207.417 4.74491 -3.53004 0
M  V30 2246 H 206.347 0.685477 -0.314065 0
M  V30 2247 H 208.998 1.2604 -1.33365 0
M  V30 2248 H 207.38 3.85333 -0.912917 0
M  V30 2249 H 208.554 2.87654 -3.59989 0
M  V30 2250 H 206.869 2.72108 -3.15192 0
M  V30 2251 H 209.466 5.07787 -1.67502 0
M  V30 2252 H 209.809 4.15656 -0.231456 0
M  V30 2253 H 210.342 3.5401 -1.81443 0
M  V30 2254 H 207.081 4.68474 -4.58489 0
M  V30 2255 H 206.601 5.21816 -2.9575 0
M  V30 2256 H 208.28 5.4344 -3.51115 0
M  V30 2257 N 208.412 0.89855 1.29475 0
M  V30 2258 C 209.375 0.380272 2.26023 0
M  V30 2259 C 210.375 -0.484891 1.53315 0
M  V30 2260 O 211.565 -0.290108 1.71767 0
M  V30 2261 C 208.697 -0.45651 3.3783 0
M  V30 2262 H 209.89 1.23295 2.73383 0
M  V30 2263 H 207.443 0.676589 1.40897 0
M  V30 2264 H 208.178 -1.32922 2.95808 0
M  V30 2265 H 207.963 0.163393 3.91759 0
M  V30 2266 H 209.453 -0.810466 4.0966 0
M  V30 2267 N 209.89 -1.43072 0.660911 0
M  V30 2268 C 210.82 -2.33497 -0.0122829 0
M  V30 2269 C 211.801 -1.49903 -0.803925 0
M  V30 2270 O 212.986 -1.78546 -0.763864 0
M  V30 2271 C 210.116 -3.33363 -0.973994 0
M  V30 2272 C 209.07 -4.27003 -0.291928 0
M  V30 2273 C 208.396 -5.16967 -1.36562 0
M  V30 2274 C 209.696 -5.15816 0.820462 0
M  V30 2275 H 211.39 -2.90038 0.742873 0
M  V30 2276 H 208.936 -1.39461 0.358688 0
M  V30 2277 H 210.889 -3.95524 -1.45392 0
M  V30 2278 H 209.613 -2.75095 -1.7604 0
M  V30 2279 H 208.272 -3.66217 0.167623 0
M  V30 2280 H 207.92 -4.55034 -2.14366 0
M  V30 2281 H 207.62 -5.80441 -0.914454 0
M  V30 2282 H 209.144 -5.82003 -1.84675 0
M  V30 2283 H 210.558 -5.71742 0.422366 0
M  V30 2284 H 208.955 -5.8805 1.19656 0
M  V30 2285 H 210.025 -4.55045 1.67518 0
M  V30 2286 N 211.368 -0.403325 -1.52352 0
M  V30 2287 C 212.278 0.432009 -2.30588 0
M  V30 2288 C 213.294 1.05884 -1.38075 0
M  V30 2289 O 214.47 1.06161 -1.71148 0
M  V30 2290 C 211.535 1.53669 -3.10784 0
M  V30 2291 C 210.596 0.933525 -4.19027 0
M  V30 2292 C 209.829 1.98557 -4.9539 0
M  V30 2293 O 210.052 3.20283 -4.71991 0
M  V30 2294 O 208.986 1.59504 -5.80381 0
M  V30 2295 H 212.812 -0.205739 -3.03002 0
M  V30 2296 H 210.397 -0.166675 -1.48467 0
M  V30 2297 H 212.279 2.17814 -3.60742 0
M  V30 2298 H 210.954 2.15915 -2.41169 0
M  V30 2299 H 209.861 0.254954 -3.7323 0
M  V30 2300 H 211.194 0.35508 -4.90918 0
M  V30 2301 N 212.846 1.57033 -0.133567 0
M  V30 2302 C 214.071 2.00475 0.531477 0
M  V30 2303 C 214.496 1.01291 1.58499 0
M  V30 2304 O 213.854 -0.0133279 1.81295 0
M  V30 2305 C 213.902 3.42729 1.12113 0
M  V30 2306 O 213.006 3.46498 2.23636 0
M  V30 2307 H 212.347 0.650876 0.131362 0
M  V30 2308 H 214.877 2.03344 -0.22634 0
M  V30 2309 H 214.887 3.81246 1.4531 0
M  V30 2310 H 213.562 4.14428 0.349557 0
M  V30 2311 H 212.139 3.19811 1.91769 0
M  V30 2312 N 214.325 -0.140222 1.56975 0
M  V30 2313 C 215.574 -0.850152 1.82908 0
M  V30 2314 C 215.887 -1.82028 0.715892 0
M  V30 2315 O 217.093 -2.57485 0.861016 0
M  V30 2316 C 215.549 -1.5625 3.24213 0
M  V30 2317 C 215.157 -0.63443 4.43485 0
M  V30 2318 C 216.901 -2.25881 3.59413 0
M  V30 2319 C 214.808 -1.34879 5.75814 0
M  V30 2320 H 213.738 -0.321221 0.682153 0
M  V30 2321 H 216.389 -0.102874 1.83211 0
M  V30 2322 H 214.771 -2.35565 3.18316 0
M  V30 2323 H 215.945 0.12398 4.60633 0
M  V30 2324 H 214.26 -0.0461836 4.16374 0
M  V30 2325 H 216.857 -2.79978 4.5554 0
M  V30 2326 H 217.2 -3.02693 2.85802 0
M  V30 2327 H 217.733 -1.53477 3.67001 0
M  V30 2328 H 214.472 -0.622385 6.52539 0
M  V30 2329 H 213.992 -2.07974 5.6259 0
M  V30 2330 H 215.671 -1.88784 6.18845 0
M  V30 2331 N 215.803 -1.52179 -0.40978 0
M  V30 2332 C 216.766 -1.74853 -1.48186 0
M  V30 2333 C 217.766 -0.618417 -1.48433 0
M  V30 2334 O 218.956 -0.886286 -1.49969 0
M  V30 2335 C 216.088 -1.8303 -2.87598 0
M  V30 2336 H 217.281 -2.70559 -1.29374 0
M  V30 2337 H 214.834 -1.42586 -0.640233 0
M  V30 2338 H 215.569 -0.89236 -3.11781 0
M  V30 2339 H 215.354 -2.65187 -2.88822 0
M  V30 2340 H 216.844 -2.02316 -3.65319 0
M  V30 2341 N 217.281 0.66697 -1.42791 0
M  V30 2342 C 218.527 1.42754 -1.44889 0
M  V30 2343 C 218.882 1.92283 -0.0669755 0
M  V30 2344 O 218.175 1.68494 0.912154 0
M  V30 2345 C 218.369 2.6349 -2.4147 0
M  V30 2346 C 218.198 2.25776 -3.88915 0
M  V30 2347 C 216.968 2.1476 -4.57391 0
M  V30 2348 C 219.166 1.86927 -4.79127 0
M  V30 2349 N 217.148 1.70232 -5.89826 0
M  V30 2350 C 218.519 1.53378 -6.00729 0
M  V30 2351 C 220.574 1.73989 -4.66511 0
M  V30 2352 C 219.277 1.08187 -7.11117 0
M  V30 2353 C 221.303 1.30203 -5.76889 0
M  V30 2354 C 220.665 0.975818 -6.97608 0
M  V30 2355 H 216.764 0.518559 -0.585338 0
M  V30 2356 H 219.348 0.768906 -1.78874 0
M  V30 2357 H 217.519 3.27033 -2.09533 0
M  V30 2358 H 219.251 3.30123 -2.34096 0
M  V30 2359 H 216.006 2.3408 -4.11708 0
M  V30 2360 H 216.43 1.50369 -6.6009 0
M  V30 2361 H 221.072 1.97853 -3.7365 0
M  V30 2362 H 218.79 0.830701 -8.03819 0
M  V30 2363 H 222.376 1.20701 -5.69142 0
M  V30 2364 H 221.256 0.642157 -7.81566 0
M  V30 2365 N 218.759 1.29093 0.90403 0
M  V30 2366 C 220.006 1.16813 1.65411 0
M  V30 2367 C 220.334 -0.28128 1.92455 0
M  V30 2368 O 219.589 -1.22006 1.53013 0
M  V30 2369 C 219.888 1.92224 3.01305 0
M  V30 2370 C 219.554 3.41968 2.93885 0
M  V30 2371 C 218.216 3.82807 2.91569 0
M  V30 2372 C 220.568 4.37409 2.83413 0
M  V30 2373 C 217.896 5.1741 2.76594 0
M  V30 2374 C 220.248 5.72097 2.69977 0
M  V30 2375 C 218.912 6.12199 2.66024 0
M  V30 2376 H 218.182 0.42745 0.605283 0
M  V30 2377 H 220.829 1.59981 1.05254 0
M  V30 2378 H 219.134 1.41635 3.65304 0
M  V30 2379 H 220.831 1.80131 3.58265 0
M  V30 2380 H 217.421 3.09504 2.96488 0
M  V30 2381 H 221.605 4.06813 2.84283 0
M  V30 2382 H 216.861 5.47596 2.71935 0
M  V30 2383 H 221.035 6.45704 2.60844 0
M  V30 2384 H 218.662 7.16448 2.54178 0
M  V30 2385 N 220.237 -1.11381 1.11499 0
M  V30 2386 C 221.465 -1.86934 0.88675 0
M  V30 2387 C 221.88 -1.80195 -0.563476 0
M  V30 2388 O 221.237 -1.18367 -1.38908 0
M  V30 2389 C 221.288 -3.35722 1.34064 0
M  V30 2390 O 221.009 -3.4232 2.73401 0
M  V30 2391 C 222.51 -4.2818 1.14791 0
M  V30 2392 H 219.73 -0.591117 0.317523 0
M  V30 2393 H 222.274 -1.40865 1.48248 0
M  V30 2394 H 220.429 -3.79294 0.788355 0
M  V30 2395 H 220.843 -4.34971 2.93087 0
M  V30 2396 H 222.317 -5.30817 1.5145 0
M  V30 2397 H 222.794 -4.39113 0.0875279 0
M  V30 2398 H 223.4 -3.90402 1.68721 0
M  V30 2399 N 221.715 -0.905404 -1.28997 0
M  V30 2400 C 222.961 -0.535039 -1.95615 0
M  V30 2401 C 223.294 0.917404 -1.71165 0
M  V30 2402 O 222.569 1.65123 -1.02785 0
M  V30 2403 C 222.852 -0.834918 -3.50287 0
M  V30 2404 C 222.705 -2.33948 -3.84172 0
M  V30 2405 C 224.024 -0.325318 -4.38896 0
M  V30 2406 H 221.143 -0.195861 -0.710498 0
M  V30 2407 H 223.785 -1.13313 -1.52513 0
M  V30 2408 H 221.935 -0.325904 -3.87131 0
M  V30 2409 H 223.607 -2.91847 -3.57243 0
M  V30 2410 H 221.85 -2.79789 -3.31513 0
M  V30 2411 H 222.521 -2.49987 -4.92149 0
M  V30 2412 H 224.997 -0.761256 -4.09077 0
M  V30 2413 H 223.873 -0.564295 -5.45992 0
M  V30 2414 H 224.134 0.774144 -4.35269 0
M  V30 2415 N 223.193 1.4272 -0.668489 0
M  V30 2416 C 224.44 2.01624 -0.18814 0
M  V30 2417 C 224.768 1.5282 1.20317 0
M  V30 2418 O 224.023 0.718323 1.8204 0
M  V30 2419 C 224.322 3.57021 -0.164499 0
M  V30 2420 C 223.988 4.25232 -1.49962 0
M  V30 2421 C 222.65 4.4358 -1.8652 0
M  V30 2422 C 225.002 4.63727 -2.37921 0
M  V30 2423 C 222.33 4.97694 -3.10674 0
M  V30 2424 C 224.682 5.19218 -3.6138 0
M  V30 2425 C 223.346 5.3578 -3.98115 0
M  V30 2426 H 222.616 0.737795 -0.0688454 0
M  V30 2427 H 225.263 1.70991 -0.862225 0
M  V30 2428 H 223.568 3.87285 0.593079 0
M  V30 2429 H 225.265 4.00372 0.224271 0
M  V30 2430 H 221.855 4.11306 -1.20522 0
M  V30 2431 H 226.039 4.4923 -2.10964 0
M  V30 2432 H 221.295 5.08702 -3.39164 0
M  V30 2433 H 225.469 5.4799 -4.29743 0
M  V30 2434 H 223.096 5.77475 -4.94395 0
M  V30 2435 N 224.671 0.411399 1.52136 0
M  V30 2436 C 225.901 -0.16284 2.05957 0
M  V30 2437 C 226.309 -1.3922 1.28119 0
M  V30 2438 O 225.652 -1.80768 0.326881 0
M  V30 2439 C 225.714 -0.575946 3.54856 0
M  V30 2440 C 225.378 0.542998 4.53763 0
M  V30 2441 C 226.375 1.40726 5.00492 0
M  V30 2442 C 224.06 0.716337 4.97166 0
M  V30 2443 C 226.054 2.4298 5.8927 0
M  V30 2444 C 223.741 1.74218 5.8574 0
M  V30 2445 C 224.739 2.59731 6.31687 0
M  V30 2446 O 224.427 3.60558 7.18507 0
M  V30 2447 H 224.159 -0.0229125 0.675612 0
M  V30 2448 H 226.713 0.581634 1.96993 0
M  V30 2449 H 224.943 -1.37274 3.61515 0
M  V30 2450 H 226.632 -1.07836 3.91313 0
M  V30 2451 H 227.398 1.28476 4.67674 0
M  V30 2452 H 223.277 0.0603857 4.6096 0
M  V30 2453 H 226.821 3.0976 6.25055 0
M  V30 2454 H 222.718 1.86498 6.17971 0
M  V30 2455 H 223.486 3.56829 7.36624 0
M  V30 2456 N 226.149 -1.5696 0.141893 0
M  V30 2457 C 227.396 -1.9596 -0.510492 0
M  V30 2458 C 227.724 -1.02648 -1.65208 0
M  V30 2459 O 226.979 -0.0546947 -1.95624 0
M  V30 2460 C 227.278 -3.41242 -1.06249 0
M  V30 2461 C 226.944 -4.50882 -0.0398791 0
M  V30 2462 C 225.606 -4.80595 0.241247 0
M  V30 2463 C 227.958 -5.17058 0.65578 0
M  V30 2464 C 225.286 -5.73792 1.22393 0
M  V30 2465 C 227.638 -6.11313 1.62724 0
M  V30 2466 C 226.302 -6.39407 1.91612 0
M  V30 2467 H 225.572 -0.717068 -0.186802 0
M  V30 2468 H 228.219 -1.90142 0.227643 0
M  V30 2469 H 226.524 -3.43866 -1.87785 0
M  V30 2470 H 228.221 -3.68742 -1.57576 0
M  V30 2471 H 224.811 -4.27754 -0.269174 0
M  V30 2472 H 228.995 -4.94239 0.451779 0
M  V30 2473 H 224.251 -5.93853 1.45424 0
M  V30 2474 H 228.425 -6.61668 2.17183 0
M  V30 2475 H 226.052 -7.11427 2.6791 0
M  V30 2476 N 227.627 0.131896 -1.57047 0
M  V30 2477 C 228.875 0.840269 -1.83804 0
M  V30 2478 C 229.196 1.81017 -0.72512 0
M  V30 2479 O 228.466 1.94272 0.251995 0
M  V30 2480 H 227.046 0.313294 -0.678127 0
M  V30 2481 H 229.708 0.122294 -1.94516 0
M  V30 2482 H 228.804 1.39335 -2.79271 0
M  V30 2483 N 229.106 1.52395 0.401703 0
M  V30 2484 C 230.054 1.7689 1.51039 0
M  V30 2485 C 231.048 0.636298 1.56996 0
M  V30 2486 O 232.254 0.818507 1.60314 0
M  V30 2487 H 228.629 0.559502 0.502456 0
M  V30 2488 H 230.6 2.69757 1.27568 0
M  V30 2489 C 229.349 1.94331 2.88324 0
M  V30 2490 H 228.672 2.80905 2.84486 0
M  V30 2491 H 230.112 2.15466 3.65172 0
M  V30 2492 C 228.571 0.712396 3.29282 0
M  V30 2493 O 229.101 -0.116218 4.01532 0
M  V30 2494 N 227.307 0.546154 2.85422 0
M  V30 2495 H 226.854 1.22156 2.26794 0
M  V30 2496 H 226.812 -0.276113 3.13185 0
M  V30 2497 N 230.584 -0.659388 1.43143 0
M  V30 2498 C 231.832 -1.41654 1.44147 0
M  V30 2499 C 232.153 -1.94893 0.0645739 0
M  V30 2500 O 231.423 -1.74044 -0.899198 0
M  V30 2501 H 230.003 -0.525708 0.530697 0
M  V30 2502 H 232.665 -0.778097 1.78694 0
M  V30 2503 H 231.761 -2.26195 2.1504 0
M  V30 2504 N 232.062 -1.29571 -0.897171 0
M  V30 2505 C 233.308 -1.18873 -1.65048 0
M  V30 2506 C 233.663 0.256707 -1.9068 0
M  V30 2507 O 232.956 1.18202 -1.50794 0
M  V30 2508 C 233.15 -1.9382 -3.00281 0
M  V30 2509 C 232.979 -3.45503 -2.8785 0
M  V30 2510 C 231.749 -4.14856 -2.88483 0
M  V30 2511 C 233.947 -4.40956 -2.64693 0
M  V30 2512 N 231.929 -5.52886 -2.66815 0
M  V30 2513 C 233.3 -5.66464 -2.5203 0
M  V30 2514 C 235.355 -4.3069 -2.49821 0
M  V30 2515 C 234.058 -6.82871 -2.26008 0
M  V30 2516 C 236.084 -5.46852 -2.25182 0
M  V30 2517 C 235.446 -6.71333 -2.13286 0
M  V30 2518 H 231.545 -0.489998 -0.609447 0
M  V30 2519 H 234.129 -1.63431 -1.05822 0
M  V30 2520 H 232.3 -1.51671 -3.57562 0
M  V30 2521 H 234.032 -1.75366 -3.64731 0
M  V30 2522 H 230.787 -3.66579 -2.99861 0
M  V30 2523 H 231.211 -6.25487 -2.59027 0
M  V30 2524 H 235.853 -3.35141 -2.5776 0
M  V30 2525 H 233.571 -7.78473 -2.16806 0
M  V30 2526 H 237.157 -5.40809 -2.14515 0
M  V30 2527 H 236.037 -7.59701 -1.94485 0
M  V30 2528 N 233.54 1.10788 -1.12088 0
M  V30 2529 C 234.789 1.82036 -0.868659 0
M  V30 2530 C 235.102 1.85929 0.607426 0
M  V30 2531 O 236.308 2.53346 0.97613 0
M  V30 2532 C 234.764 3.26951 -1.50435 0
M  V30 2533 C 234.372 3.31367 -3.01496 0
M  V30 2534 C 236.116 4.03053 -1.33225 0
M  V30 2535 C 234.023 4.7072 -3.58017 0
M  V30 2536 H 232.953 0.682108 -0.321318 0
M  V30 2537 H 235.604 1.24618 -1.34694 0
M  V30 2538 H 233.986 3.84343 -0.953735 0
M  V30 2539 H 235.16 2.83819 -3.6302 0
M  V30 2540 H 233.475 2.6875 -3.18061 0
M  V30 2541 H 236.072 5.05981 -1.72878 0
M  V30 2542 H 236.415 4.15387 -0.275529 0
M  V30 2543 H 236.948 3.52066 -1.85188 0
M  V30 2544 H 233.687 4.63585 -4.63432 0
M  V30 2545 H 233.207 5.1865 -3.01268 0
M  V30 2546 H 234.886 5.39685 -3.56859 0
M  V30 2547 N 235.018 0.912232 1.28515 0
M  V30 2548 C 236.429 0.591352 1.77087 0
M  V30 2549 C 236.78 -0.8933 1.74684 0
M  V30 2550 O 235.905 -1.69876 1.34056 0
M  V30 2551 C 236.5 1.06668 3.2157 0
M  V30 2552 C 235.059 0.79675 3.67871 0
M  V30 2553 C 234.206 1.23427 2.48316 0
M  V30 2554 H 237.157 1.09365 1.15 0
M  V30 2555 H 237.178 0.407455 3.78312 0
M  V30 2556 H 236.69 2.14726 3.23287 0
M  V30 2557 H 234.791 -0.270679 3.71616 0
M  V30 2558 H 234.904 1.40343 4.58084 0
M  V30 2559 H 233.268 0.653036 2.46186 0
M  V30 2560 H 234.051 2.32316 2.52753 0
M  V30 2561 N 236.496 -1.42363 0.676048 0
M  V30 2562 C 237.724 -2.05859 0.207268 0
M  V30 2563 C 238.139 -1.50796 -1.13605 0
M  V30 2564 O 237.496 -0.648265 -1.70598 0
M  V30 2565 C 237.547 -3.61248 0.134975 0
M  V30 2566 O 237.268 -4.1427 1.42521 0
M  V30 2567 C 238.769 -4.41859 -0.357151 0
M  V30 2568 H 235.989 -0.663431 0.100503 0
M  V30 2569 H 238.533 -1.82479 0.923136 0
M  V30 2570 H 236.688 -3.83735 -0.531588 0
M  V30 2571 H 237.102 -5.0815 1.29939 0
M  V30 2572 H 238.576 -5.50847 -0.356641 0
M  V30 2573 H 239.053 -4.16536 -1.39264 0
M  V30 2574 H 239.659 -4.24392 0.27772 0
M  V30 2575 N 237.974 -0.419461 -1.51915 0
M  V30 2576 C 238.904 0.391813 -2.30189 0
M  V30 2577 C 239.885 1.03699 -1.34836 0
M  V30 2578 O 241.07 1.04403 -1.63748 0
M  V30 2579 C 238.2 1.50312 -3.13087 0
M  V30 2580 C 237.154 0.9824 -4.16573 0
M  V30 2581 C 236.48 2.18809 -4.8788 0
M  V30 2582 C 237.78 0.0292356 -5.22292 0
M  V30 2583 H 239.474 -0.26135 -2.98257 0
M  V30 2584 H 237.02 -0.127134 -1.43438 0
M  V30 2585 H 238.973 2.07773 -3.66617 0
M  V30 2586 H 237.697 2.18431 -2.42807 0
M  V30 2587 H 236.356 0.430119 -3.64068 0
M  V30 2588 H 236.004 2.85507 -4.14119 0
M  V30 2589 H 235.704 1.84615 -5.57845 0
M  V30 2590 H 237.228 2.76858 -5.44226 0
M  V30 2591 H 238.642 0.512976 -5.71 0
M  V30 2592 H 237.039 -0.2244 -5.9968 0
M  V30 2593 H 238.109 -0.912931 -4.76228 0
M  V30 2594 N 239.452 1.56882 -0.150215 0
M  V30 2595 C 240.701 1.95403 0.500071 0
M  V30 2596 C 241.014 1.03777 1.658 0
M  V30 2597 O 242.22 1.31889 2.37313 0
M  V30 2598 C 240.676 3.4738 0.941018 0
M  V30 2599 C 240.284 4.47596 -0.190158 0
M  V30 2600 C 242.028 3.9476 1.56091 0
M  V30 2601 C 239.935 5.90787 0.269237 0
M  V30 2602 H 238.865 0.729515 0.190588 0
M  V30 2603 H 241.516 1.81988 -0.235074 0
M  V30 2604 H 239.898 3.56138 1.73152 0
M  V30 2605 H 241.072 4.50536 -0.967157 0
M  V30 2606 H 239.387 4.10151 -0.718666 0
M  V30 2607 H 241.984 4.99181 1.9163 0
M  V30 2608 H 242.327 3.36494 2.45107 0
M  V30 2609 H 242.86 3.88932 0.835249 0
M  V30 2610 H 239.599 6.52879 -0.585621 0
M  V30 2611 H 239.119 5.912 1.01204 0
M  V30 2612 H 240.798 6.42979 0.720176 0
M  V30 2613 N 240.93 -0.123565 1.57115 0
M  V30 2614 C 242.158 -0.846461 1.88793 0
M  V30 2615 C 242.573 -1.73652 0.740976 0
M  V30 2616 O 241.93 -1.80207 -0.288393 0
M  V30 2617 C 241.981 -1.6837 3.19897 0
M  V30 2618 O 241.702 -0.829477 4.30176 0
M  V30 2619 C 243.203 -2.51214 3.65248 0
M  V30 2620 H 240.423 -0.243573 0.625231 0
M  V30 2621 H 242.967 -0.109324 2.04208 0
M  V30 2622 H 241.122 -2.37364 3.06165 0
M  V30 2623 H 241.536 -1.40651 5.0529 0
M  V30 2624 H 243.01 -3.05497 4.59756 0
M  V30 2625 H 243.487 -3.28359 2.9168 0
M  V30 2626 H 244.093 -1.8747 3.81752 0
M  V30 2627 N 242.408 -1.52605 -0.393616 0
M  V30 2628 C 243.371 -1.76415 -1.46323 0
M  V30 2629 C 244.371 -0.634126 -1.47768 0
M  V30 2630 O 245.561 -0.902142 -1.4902 0
M  V30 2631 C 242.693 -1.8607 -2.85641 0
M  V30 2632 H 243.886 -2.71916 -1.26498 0
M  V30 2633 H 241.439 -1.43257 -0.625073 0
M  V30 2634 H 242.174 -0.925378 -3.10817 0
M  V30 2635 H 241.959 -2.68235 -2.85993 0
M  V30 2636 H 243.449 -2.06179 -3.63153 0
M  V30 2637 N 243.887 0.651787 -1.4349 0
M  V30 2638 C 245.134 1.41167 -1.45183 0
M  V30 2639 C 245.462 1.94349 -0.0766601 0
M  V30 2640 O 244.717 1.72804 0.918555 0
M  V30 2641 C 245.016 2.60914 -2.44251 0
M  V30 2642 C 244.682 2.26142 -3.9009 0
M  V30 2643 C 243.344 2.16371 -4.2981 0
M  V30 2644 C 245.696 1.98334 -4.81989 0
M  V30 2645 C 243.024 1.7695 -5.5938 0
M  V30 2646 C 245.376 1.6041 -6.11924 0
M  V30 2647 C 244.04 1.49166 -6.5062 0
M  V30 2648 H 243.31 0.516566 -0.531263 0
M  V30 2649 H 245.957 0.741099 -1.76579 0
M  V30 2650 H 244.262 3.3311 -2.06265 0
M  V30 2651 H 245.959 3.19127 -2.42815 0
M  V30 2652 H 242.549 2.34658 -3.58655 0
M  V30 2653 H 246.733 2.04803 -4.52072 0
M  V30 2654 H 241.989 1.66831 -5.88198 0
M  V30 2655 H 246.163 1.37925 -6.82605 0
M  V30 2656 H 243.79 1.1839 -7.50925 0
M  V30 2657 N 245.365 1.30045 0.890287 0
M  V30 2658 C 246.611 1.18737 1.64406 0
M  V30 2659 C 246.944 -0.258525 1.92472 0
M  V30 2660 O 246.219 -1.18562 1.54186 0
M  V30 2661 C 246.502 2.01087 2.98724 0
M  V30 2662 C 246.355 3.53867 2.77665 0
M  V30 2663 C 247.674 1.84457 3.9958 0
M  V30 2664 H 244.793 0.432698 0.596608 0
M  V30 2665 H 247.435 1.5962 1.0306 0
M  V30 2666 H 245.585 1.66349 3.51084 0
M  V30 2667 H 247.257 3.98637 2.32133 0
M  V30 2668 H 245.5 3.78318 2.12269 0
M  V30 2669 H 246.171 4.06772 3.7315 0
M  V30 2670 H 248.647 2.14817 3.56361 0
M  V30 2671 H 247.523 2.44411 4.91482 0
M  V30 2672 H 247.784 0.802276 4.3476 0
M  V30 2673 N 246.843 -1.10192 1.12674 0
M  V30 2674 C 247.773 -2.18652 0.819362 0
M  V30 2675 C 248.754 -1.68698 -0.217915 0
M  V30 2676 O 249.939 -1.94041 -0.0785581 0
M  V30 2677 C 247.069 -3.46202 0.27594 0
M  V30 2678 C 246.023 -4.09444 1.24656 0
M  V30 2679 C 245.349 -5.31725 0.563258 0
M  V30 2680 C 246.649 -4.52863 2.60217 0
M  V30 2681 H 248.343 -2.44622 1.72628 0
M  V30 2682 H 245.889 -1.17571 0.831451 0
M  V30 2683 H 247.842 -4.21372 0.0486149 0
M  V30 2684 H 246.566 -3.1973 -0.666331 0
M  V30 2685 H 245.225 -3.36284 1.45974 0
M  V30 2686 H 244.873 -5.0153 -0.384235 0
M  V30 2687 H 244.573 -5.74991 1.21075 0
M  V30 2688 H 246.097 -6.09624 0.34503 0
M  V30 2689 H 247.511 -5.19294 2.42913 0
M  V30 2690 H 245.908 -5.06986 3.21068 0
M  V30 2691 H 246.978 -3.65656 3.18471 0
M  V30 2692 N 248.321 -0.919034 -1.28029 0
M  V30 2693 C 249.284 -0.416182 -2.2539 0
M  V30 2694 C 250.284 0.460438 -1.54067 0
M  V30 2695 O 251.474 0.262744 -1.72207 0
M  V30 2696 C 248.606 0.402707 -3.38513 0
M  V30 2697 H 249.799 -1.27629 -2.71387 0
M  V30 2698 H 247.352 -0.698919 -1.39803 0
M  V30 2699 H 248.087 1.282 -2.97885 0
M  V30 2700 H 247.872 -0.225698 -3.9145 0
M  V30 2701 H 249.362 0.745191 -4.10897 0
M  V30 2702 N 249.799 1.42003 -0.683588 0
M  V30 2703 C 251.027 2.05746 -0.218182 0
M  V30 2704 C 251.442 1.51396 1.12804 0
M  V30 2705 O 250.799 0.657303 1.70252 0
M  V30 2706 C 250.85 3.61171 -0.154131 0
M  V30 2707 O 250.571 4.13508 -1.44716 0
M  V30 2708 C 252.072 4.42042 0.333713 0
M  V30 2709 H 249.292 0.662888 -0.10402 0
M  V30 2710 H 251.836 1.81987 -0.9328 0
M  V30 2711 H 249.991 3.84012 0.511231 0
M  V30 2712 H 250.405 5.07453 -1.32632 0
M  V30 2713 H 251.879 5.51028 0.327423 0
M  V30 2714 H 252.356 4.17269 1.37053 0
M  V30 2715 H 252.962 4.24239 -0.300222 0
M  V30 2716 N 251.277 0.427512 1.51691 0
M  V30 2717 C 252.502 -0.143601 2.06902 0
M  V30 2718 C 252.927 -1.36536 1.29382 0
M  V30 2719 O 252.285 -1.78289 0.329043 0
M  V30 2720 C 252.333 -0.454207 3.57728 0
M  V30 2721 O 251.437 -1.54228 3.82475 0
M  V30 2722 H 250.778 -0.00617128 0.663971 0
M  V30 2723 H 253.308 0.606014 1.95419 0
M  V30 2724 H 253.318 -0.707525 4.01818 0
M  V30 2725 H 251.993 0.438812 4.13579 0
M  V30 2726 H 250.57 -1.2797 3.50254 0
M  V30 2727 N 252.755 -1.56801 0.158532 0
M  V30 2728 C 253.687 -2.14488 -0.807923 0
M  V30 2729 C 254.7 -1.09721 -1.20271 0
M  V30 2730 O 255.889 -1.36956 -1.14478 0
M  V30 2731 C 252.989 -2.66217 -2.09718 0
M  V30 2732 C 252.162 -3.95507 -1.86796 0
M  V30 2733 C 251.221 -4.3243 -2.99818 0
M  V30 2734 O 250.247 -5.00543 -2.71008 0
M  V30 2735 N 251.449 -3.92947 -4.27285 0
M  V30 2736 H 254.214 -2.98042 -0.314816 0
M  V30 2737 H 251.775 -1.61881 -0.0246692 0
M  V30 2738 H 253.767 -2.87924 -2.84398 0
M  V30 2739 H 252.337 -1.87324 -2.50257 0
M  V30 2740 H 251.557 -3.82309 -0.96089 0
M  V30 2741 H 252.845 -4.79972 -1.68833 0
M  V30 2742 H 252.243 -3.38087 -4.53557 0
M  V30 2743 H 250.8 -4.19681 -4.9871 0
M  V30 2744 N 254.233 0.115231 -1.57178 0
M  V30 2745 C 255.196 1.12526 -1.99676 0
M  V30 2746 C 256.196 1.34095 -0.88742 0
M  V30 2747 O 257.386 1.30548 -1.15337 0
M  V30 2748 C 254.518 2.4789 -2.34015 0
M  V30 2749 H 255.711 0.759912 -2.90113 0
M  V30 2750 H 253.264 0.359648 -1.52106 0
M  V30 2751 H 253.999 2.89339 -1.4647 0
M  V30 2752 H 253.784 2.33588 -3.14927 0
M  V30 2753 H 255.274 3.20575 -2.67622 0
M  V30 2754 N 255.711 1.52812 0.385517 0
M  V30 2755 C 256.643 1.74096 1.49074 0
M  V30 2756 C 257.656 0.621462 1.50472 0
M  V30 2757 O 258.845 0.897245 1.54311 0
M  V30 2758 C 255.945 1.78774 2.87911 0
M  V30 2759 C 255.118 3.08134 3.10439 0
M  V30 2760 C 254.177 3.04313 4.29278 0
M  V30 2761 O 253.203 3.78168 4.25415 0
M  V30 2762 N 254.405 2.23741 5.35649 0
M  V30 2763 H 257.17 2.69455 1.31202 0
M  V30 2764 H 254.731 1.51343 0.575065 0
M  V30 2765 H 256.723 1.73721 3.65518 0
M  V30 2766 H 255.293 0.907869 2.99126 0
M  V30 2767 H 254.513 3.26649 2.20667 0
M  V30 2768 H 255.801 3.93662 3.22347 0
M  V30 2769 H 255.199 1.63211 5.41645 0
M  V30 2770 H 253.756 2.24524 6.11909 0
M  V30 2771 N 257.189 -0.644168 1.43834 0
M  V30 2772 C 258.152 -1.73857 1.49353 0
M  V30 2773 C 259.152 -1.56315 0.377112 0
M  V30 2774 O 260.342 -1.62048 0.639226 0
M  V30 2775 C 257.474 -3.12819 1.35488 0
M  V30 2776 H 258.667 -1.70342 2.46827 0
M  V30 2777 H 256.22 -0.856652 1.30733 0
M  V30 2778 H 256.955 -3.2194 0.390569 0
M  V30 2779 H 256.74 -3.26958 2.16428 0
M  V30 2780 H 258.23 -3.92606 1.42302 0
M  V30 2781 N 258.668 -1.30515 -0.883378 0
M  V30 2782 C 259.916 -1.19194 -1.63209 0
M  V30 2783 C 260.237 0.253205 -1.93349 0
M  V30 2784 O 259.507 1.17025 -1.57105 0
M  V30 2785 H 258.087 -0.438148 -0.605009 0
M  V30 2786 H 260.749 -1.63663 -1.05832 0
M  V30 2787 H 259.845 -1.75396 -2.58153 0
M  V30 2788 N 260.146 1.09593 -1.13257 0
M  V30 2789 C 261.392 1.82181 -0.904521 0
M  V30 2790 C 261.747 1.83967 0.563358 0
M  V30 2791 O 261.04 1.29566 1.41149 0
M  V30 2792 C 261.234 3.27802 -1.42411 0
M  V30 2793 C 261.063 3.40201 -2.94097 0
M  V30 2794 C 259.833 3.52104 -3.62424 0
M  V30 2795 C 262.031 3.32875 -3.92044 0
M  V30 2796 N 260.013 3.53169 -5.0214 0
M  V30 2797 C 261.384 3.40789 -5.17941 0
M  V30 2798 C 263.439 3.16531 -3.84334 0
M  V30 2799 C 262.142 3.34042 -6.37031 0
M  V30 2800 C 264.168 3.11109 -5.02956 0
M  V30 2801 C 263.53 3.19614 -6.27715 0
M  V30 2802 H 259.629 0.681015 -0.384373 0
M  V30 2803 H 262.213 1.3099 -1.44048 0
M  V30 2804 H 260.384 3.77466 -0.915086 0
M  V30 2805 H 262.116 3.88393 -1.13722 0
M  V30 2806 H 258.871 3.5548 -3.12939 0
M  V30 2807 H 259.295 3.57291 -5.75041 0
M  V30 2808 H 263.937 3.08827 -2.88766 0
M  V30 2809 H 261.655 3.4051 -7.32857 0
M  V30 2810 H 265.241 2.99601 -4.98729 0
M  V30 2811 H 264.121 3.15432 -7.17964 0
M  V30 2812 N 261.624 0.925811 1.2754 0
M  V30 2813 C 262.554 0.440748 2.29303 0
M  V30 2814 C 263.535 -0.497971 1.62648 0
M  V30 2815 O 264.72 -0.403126 1.8997 0
M  V30 2816 C 261.85 -0.309048 3.45922 0
M  V30 2817 C 260.804 0.54166 4.24559 0
M  V30 2818 C 260.13 -0.337191 5.33636 0
M  V30 2819 C 261.43 1.80516 4.90114 0
M  V30 2820 H 263.124 1.29121 2.70126 0
M  V30 2821 H 260.67 0.622323 1.29858 0
M  V30 2822 H 262.623 -0.659315 4.1621 0
M  V30 2823 H 261.347 -1.19352 3.04011 0
M  V30 2824 H 260.006 0.874609 3.56014 0
M  V30 2825 H 259.654 -1.22056 4.87966 0
M  V30 2826 H 259.354 0.228497 5.87156 0
M  V30 2827 H 260.878 -0.683072 6.06767 0
M  V30 2828 H 262.292 1.52307 5.52698 0
M  V30 2829 H 260.689 2.3142 5.53683 0
M  V30 2830 H 261.759 2.52581 4.13921 0
M  V30 2831 N 263.102 -1.41638 0.69111 0
M  V30 2832 C 264.034 -2.29194 -0.0161523 0
M  V30 2833 C 265.047 -1.44549 -0.748955 0
M  V30 2834 O 266.236 -1.681 -0.6004 0
M  V30 2835 C 263.336 -3.22325 -1.0469 0
M  V30 2836 C 262.509 -4.35706 -0.384621 0
M  V30 2837 C 261.568 -5.09443 -1.31737 0
M  V30 2838 O 260.594 -5.63386 -0.811451 0
M  V30 2839 N 261.796 -5.16487 -2.64993 0
M  V30 2840 H 264.561 -2.90534 0.735523 0
M  V30 2841 H 262.122 -1.52742 0.53679 0
M  V30 2842 H 264.114 -3.68522 -1.67252 0
M  V30 2843 H 262.684 -2.62323 -1.70015 0
M  V30 2844 H 261.904 -3.91948 0.420804 0
M  V30 2845 H 263.192 -5.08743 0.0760765 0
M  V30 2846 H 262.59 -4.741 -3.08619 0
M  V30 2847 H 261.147 -5.66276 -3.22761 0
M  V30 2848 N 264.58 -0.43555 -1.51462 0
M  V30 2849 C 265.53 0.394701 -2.24558 0
M  V30 2850 C 266.514 0.99157 -1.26715 0
M  V30 2851 O 267.706 0.910007 -1.51815 0
M  V30 2852 C 264.835 1.4963 -3.08975 0
M  V30 2853 C 263.921 0.908912 -4.14246 0
M  V30 2854 N 264.312 0.0505335 -5.05775 0
M  V30 2855 C 262.61 1.17668 -4.30198 0
M  V30 2856 C 263.311 -0.279161 -5.8103 0
M  V30 2857 N 262.287 0.336767 -5.42556 0
M  V30 2858 H 266.089 -0.267106 -2.92684 0
M  V30 2859 H 263.603 -0.247518 -1.60503 0
M  V30 2860 H 265.6 2.10394 -3.59917 0
M  V30 2861 H 264.26 2.16046 -2.42393 0
M  V30 2862 H 265.271 -0.31577 -5.16936 0
M  V30 2863 H 261.948 1.83847 -3.74842 0
M  V30 2864 H 263.338 -0.977553 -6.64751 0
M  V30 2865 N 266.058 1.56714 -0.166846 0
M  V30 2866 C 267.335 1.88412 0.525373 0
M  V30 2867 C 267.715 1.07602 1.81618 0
M  V30 2868 O 267.063 0.168621 2.27877 0
M  V30 2869 C 267.273 3.40363 0.771613 0
M  V30 2870 C 268.621 4.10007 1.1036 0
M  V30 2871 O 269.645 3.45655 0.860304 0
M  V30 2872 O 268.504 5.2369 1.56239 0
M  V30 2873 H 265.598 0.781587 0.270278 0
M  V30 2874 H 268.144 1.68458 -0.204946 0
M  V30 2875 H 266.916 3.91046 -0.141093 0
M  V30 2876 H 266.539 3.65914 1.55541 0
M  V30 2877 N 267.536 -0.106894 1.57237 0
M  V30 2878 C 268.766 -0.825191 1.89405 0
M  V30 2879 C 269.174 -1.73374 0.757496 0
M  V30 2880 O 268.517 -1.81552 -0.280115 0
M  V30 2881 C 268.579 -1.70102 3.1671 0
M  V30 2882 C 268.243 -0.965523 4.46684 0
M  V30 2883 C 269.24 -0.300741 5.19029 0
M  V30 2884 C 266.925 -0.943105 4.93367 0
M  V30 2885 C 268.919 0.376622 6.36286 0
M  V30 2886 C 266.606 -0.261949 6.10538 0
M  V30 2887 C 267.604 0.396748 6.81847 0
M  V30 2888 O 267.292 1.06701 7.96787 0
M  V30 2889 H 267.024 -0.241852 0.631255 0
M  V30 2890 H 269.578 -0.0921491 2.05193 0
M  V30 2891 H 267.808 -2.47601 2.97036 0
M  V30 2892 H 269.497 -2.29483 3.34802 0
M  V30 2893 H 270.263 -0.309599 4.84011 0
M  V30 2894 H 266.142 -1.44524 4.3776 0
M  V30 2895 H 269.686 0.891334 6.91882 0
M  V30 2896 H 265.583 -0.250896 6.45012 0
M  V30 2897 H 266.351 0.972707 8.127 0
M  V30 2898 N 269.014 -1.53014 -0.377408 0
M  V30 2899 C 270.262 -1.6829 -1.11906 0
M  V30 2900 C 270.583 -0.431206 -1.90173 0
M  V30 2901 O 269.853 0.554595 -1.87886 0
M  V30 2902 H 268.433 -0.620371 -0.416112 0
M  V30 2903 H 271.095 -1.90167 -0.426893 0
M  V30 2904 H 270.191 -2.53862 -1.8155 0
M  V30 2905 N 270.492 0.636531 -1.44174 0
M  V30 2906 C 271.442 1.74233 -1.47061 0
M  V30 2907 C 272.426 1.57331 -0.337034 0
M  V30 2908 O 273.618 1.67159 -0.581973 0
M  V30 2909 C 270.747 3.12897 -1.41246 0
M  V30 2910 C 269.833 3.35288 -2.59698 0
M  V30 2911 N 270.224 3.2807 -3.84972 0
M  V30 2912 C 268.522 3.66065 -2.54778 0
M  V30 2913 C 269.223 3.51001 -4.63867 0
M  V30 2914 N 268.199 3.73616 -3.94857 0
M  V30 2915 H 272.001 1.67103 -2.41773 0
M  V30 2916 H 269.515 0.838806 -1.3906 0
M  V30 2917 H 271.512 3.92189 -1.41398 0
M  V30 2918 H 270.172 3.21197 -0.47569 0
M  V30 2919 H 271.183 3.07109 -4.17019 0
M  V30 2920 H 267.86 3.81379 -1.6987 0
M  V30 2921 H 269.25 3.51059 -5.72894 0
M  V30 2922 N 271.97 1.30982 0.876444 0
M  V30 2923 C 272.9 1.20668 1.99903 0
M  V30 2924 C 273.881 0.095354 1.69833 0
M  V30 2925 O 275.066 0.27885 1.92188 0
M  V30 2926 C 272.196 0.90655 3.3526 0
M  V30 2927 C 271.15 1.97675 3.79617 0
M  V30 2928 C 270.476 1.52943 5.1236 0
M  V30 2929 C 271.776 3.389 3.97422 0
M  V30 2930 H 273.47 2.14586 2.0879 0
M  V30 2931 H 271.016 1.03308 1.00317 0
M  V30 2932 H 272.969 0.821025 4.13324 0
M  V30 2933 H 271.693 -0.0682969 3.26529 0
M  V30 2934 H 270.352 2.05205 3.03787 0
M  V30 2935 H 270 0.54262 5.00065 0
M  V30 2936 H 269.7 2.24532 5.43009 0
M  V30 2937 H 271.224 1.45786 5.92941 0
M  V30 2938 H 272.638 3.34081 4.659 0
M  V30 2939 H 271.035 4.0865 4.3946 0
M  V30 2940 H 272.105 3.80163 3.01006 0
M  V30 2941 N 273.449 -1.08991 1.13837 0
M  V30 2942 C 274.674 -1.85551 0.926585 0
M  V30 2943 C 275.099 -1.80782 -0.519566 0
M  V30 2944 O 274.457 -1.18855 -1.36906 0
M  V30 2945 C 274.505 -3.31266 1.42462 0
M  V30 2946 O 273.609 -4.07822 0.612789 0
M  V30 2947 H 272.95 -0.575192 0.331738 0
M  V30 2948 H 275.48 -1.37604 1.51414 0
M  V30 2949 H 275.49 -3.82112 1.43019 0
M  V30 2950 H 274.165 -3.34052 2.47754 0
M  V30 2951 H 272.742 -3.66731 0.675463 0
M  V30 2952 N 274.927 -0.932562 -1.27047 0
M  V30 2953 C 276.173 -0.576412 -1.94436 0
M  V30 2954 C 276.506 0.880891 -1.73072 0
M  V30 2955 O 275.781 1.62905 -1.06264 0
M  V30 2956 C 276.064 -0.909031 -3.48437 0
M  V30 2957 C 275.917 -2.42044 -3.79123 0
M  V30 2958 C 277.236 -0.418341 -4.38107 0
M  V30 2959 H 274.355 -0.210888 -0.706184 0
M  V30 2960 H 276.997 -1.16522 -1.50075 0
M  V30 2961 H 275.147 -0.407947 -3.86352 0
M  V30 2962 H 276.819 -2.99359 -3.50973 0
M  V30 2963 H 275.062 -2.86758 -3.25503 0
M  V30 2964 H 275.733 -2.6037 -4.86736 0
M  V30 2965 H 278.209 -0.847856 -4.0737 0
M  V30 2966 H 277.085 -0.679981 -5.44672 0
M  V30 2967 H 277.346 0.681642 -4.36814 0
M  V30 2968 N 276.405 1.4127 -0.698611 0
M  V30 2969 C 277.635 2.05205 -0.239644 0
M  V30 2970 C 278.043 1.52684 1.11733 0
M  V30 2971 O 277.386 0.671222 1.70998 0
M  V30 2972 C 277.448 3.59289 -0.123126 0
M  V30 2973 C 277.112 4.34619 -1.41263 0
M  V30 2974 C 278.109 4.63701 -2.35111 0
M  V30 2975 C 275.794 4.73837 -1.66684 0
M  V30 2976 C 277.788 5.30966 -3.52639 0
M  V30 2977 C 275.475 5.40837 -2.84498 0
M  V30 2978 C 276.473 5.69329 -3.77298 0
M  V30 2979 O 276.161 6.34949 -4.93047 0
M  V30 2980 H 275.893 0.66723 -0.108537 0
M  V30 2981 H 278.447 1.81974 -0.952602 0
M  V30 2982 H 276.677 3.81272 0.645628 0
M  V30 2983 H 278.366 4.04797 0.299056 0
M  V30 2984 H 279.132 4.33882 -2.16729 0
M  V30 2985 H 275.011 4.51039 -0.953135 0
M  V30 2986 H 278.555 5.53121 -4.25091 0
M  V30 2987 H 274.452 5.70075 -3.02795 0
M  V30 2988 H 275.22 6.53445 -4.92902 0
M  V30 2989 N 277.883 0.443576 1.51229 0
M  V30 2990 C 279.299 0.0962001 1.5931 0
M  V30 2991 C 279.499 -1.39501 1.45402 0
M  V30 2992 O 278.555 -2.16557 1.29843 0
M  V30 2993 C 279.868 0.621875 2.94199 0
M  V30 2994 C 281.416 0.582865 3.07525 0
M  V30 2995 C 281.891 1.08562 4.44948 0
M  V30 2996 N 283.382 1.04387 4.51284 0
M  V30 2997 C 284.117 1.40368 5.55954 0
M  V30 2998 N 283.613 1.83664 6.68011 0
M  V30 2999 N 285.406 1.32145 5.46346 0
M  V30 3000 H 277.557 1.41376 1.58514 0
M  V30 3001 H 279.82 0.582965 0.747567 0
M  V30 3002 H 279.526 1.66546 3.09767 0
M  V30 3003 H 279.4 0.0502125 3.77167 0
M  V30 3004 H 281.787 -0.451749 2.91622 0
M  V30 3005 H 281.868 1.191 2.26382 0
M  V30 3006 H 281.512 2.11873 4.61598 0
M  V30 3007 H 281.442 0.453956 5.2464 0
M  V30 3008 H 283.933 0.725986 3.70861 0
M  V30 3009 H 284.246 2.0934 7.43906 0
M  V30 3010 H 282.591 1.87596 6.69203 0
M  V30 3011 H 285.782 0.981808 4.57688 0
M  V30 3012 H 285.955 1.60514 6.27805 0
M  V30 3013 N 279.361 -1.56624 0.175154 0
M  V30 3014 C 280.308 -2.18149 -0.753634 0
M  V30 3015 C 281.278 -1.12265 -1.22417 0
M  V30 3016 O 282.463 -1.40432 -1.29165 0
M  V30 3017 C 279.603 -2.82933 -1.97592 0
M  V30 3018 C 278.716 -4.03289 -1.5486 0
M  V30 3019 C 277.851 -4.55988 -2.72485 0
M  V30 3020 C 276.89 -5.68746 -2.26262 0
M  V30 3021 N 276.027 -6.15938 -3.36994 0
M  V30 3022 H 280.867 -2.9717 -0.222195 0
M  V30 3023 H 278.404 -1.46774 -0.0979422 0
M  V30 3024 H 280.362 -3.18653 -2.69288 0
M  V30 3025 H 278.992 -2.06509 -2.481 0
M  V30 3026 H 278.044 -3.73364 -0.728246 0
M  V30 3027 H 279.356 -4.849 -1.16933 0
M  V30 3028 H 278.51 -4.9391 -3.52332 0
M  V30 3029 H 277.249 -3.73443 -3.13674 0
M  V30 3030 H 276.254 -5.30372 -1.44863 0
M  V30 3031 H 277.479 -6.53095 -1.86127 0
M  V30 3032 H 275.425 -5.36321 -3.77751 0
M  V30 3033 H 275.342 -6.92548 -3.03172 0
M  V30 3034 H 276.61 -6.58511 -4.17114 0
M  V30 3035 N 280.839 0.0985539 -1.57292 0
M  V30 3036 C 282.25 0.653457 -1.74891 0
M  V30 3037 C 282.601 1.7929 -0.796838 0
M  V30 3038 O 281.726 2.16385 0.0254886 0
M  V30 3039 C 282.321 1.19216 -3.17133 0
M  V30 3040 C 280.88 1.69316 -3.36168 0
M  V30 3041 C 280.027 0.601294 -2.70702 0
M  V30 3042 H 282.978 -0.127497 -1.58187 0
M  V30 3043 H 282.999 2.06154 -3.19814 0
M  V30 3044 H 282.511 0.362635 -3.86402 0
M  V30 3045 H 280.612 2.5468 -2.71972 0
M  V30 3046 H 280.725 1.78853 -4.44464 0
M  V30 3047 H 279.089 1.0399 -2.32504 0
M  V30 3048 H 279.872 -0.217592 -3.4261 0
M  V30 3049 N 282.317 1.53212 0.369288 0
M  V30 3050 C 283.264 1.79388 1.45219 0
M  V30 3051 C 284.234 0.638059 1.53356 0
M  V30 3052 O 285.419 0.879852 1.69302 0
M  V30 3053 C 282.559 1.98623 2.82211 0
M  V30 3054 C 281.672 3.26337 2.8307 0
M  V30 3055 C 280.807 3.35779 4.11614 0
M  V30 3056 C 279.846 4.5754 4.06601 0
M  V30 3057 N 278.983 4.64155 5.26787 0
M  V30 3058 H 283.823 2.71794 1.22198 0
M  V30 3059 H 281.36 1.34642 0.592444 0
M  V30 3060 H 283.318 2.07761 3.61789 0
M  V30 3061 H 281.948 1.09558 3.03639 0
M  V30 3062 H 281 3.26171 1.95747 0
M  V30 3063 H 282.312 4.15988 2.75237 0
M  V30 3064 H 281.466 3.44208 4.99606 0
M  V30 3065 H 280.205 2.44137 4.22195 0
M  V30 3066 H 279.21 4.49215 3.16996 0
M  V30 3067 H 280.435 5.50519 3.97625 0
M  V30 3068 H 278.381 3.75413 5.3796 0
M  V30 3069 H 278.298 5.47706 5.21109 0
M  V30 3070 H 279.566 4.76863 6.16621 0
M  V30 3071 N 283.795 -0.628877 1.44509 0
M  V30 3072 C 285.041 -1.38863 1.48623 0
M  V30 3073 C 285.396 -1.92038 0.117933 0
M  V30 3074 O 284.689 -1.70853 -0.86716 0
M  V30 3075 C 284.883 -2.56995 2.48371 0
M  V30 3076 C 284.712 -2.15385 3.94765 0
M  V30 3077 C 283.482 -2.02558 4.62924 0
M  V30 3078 C 285.68 -1.74158 4.83915 0
M  V30 3079 N 283.662 -1.54534 5.94132 0
M  V30 3080 C 285.033 -1.37396 6.04584 0
M  V30 3081 C 287.088 -1.61559 4.7096 0
M  V30 3082 C 285.791 -0.892948 7.13736 0
M  V30 3083 C 287.817 -1.14862 5.80139 0
M  V30 3084 C 287.179 -0.790516 6.9995 0
M  V30 3085 H 283.278 -0.502858 0.59888 0
M  V30 3086 H 285.862 -0.72121 1.8085 0
M  V30 3087 H 284.033 -3.21362 2.1813 0
M  V30 3088 H 285.765 -3.23801 2.42766 0
M  V30 3089 H 282.52 -2.23082 4.1777 0
M  V30 3090 H 282.944 -1.32815 6.63844 0
M  V30 3091 H 287.586 -1.87876 3.78764 0
M  V30 3092 H 285.304 -0.617291 8.05739 0
M  V30 3093 H 288.89 -1.05569 5.72142 0
M  V30 3094 H 287.77 -0.434713 7.82994 0
M  V30 3095 N 285.273 -1.31445 -0.869486 0
M  V30 3096 C 286.221 -1.19067 -1.99814 0
M  V30 3097 C 287.215 -0.0988569 -1.69111 0
M  V30 3098 O 288.421 -0.260781 -1.78101 0
M  V30 3099 H 284.796 -0.368677 -0.655425 0
M  V30 3100 H 286.767 -2.14555 -2.07385 0
M  V30 3101 C 285.516 -0.915323 -3.35436 0
M  V30 3102 H 284.839 -1.74759 -3.59582 0
M  V30 3103 H 286.279 -0.868895 -4.15001 0
M  V30 3104 C 284.738 0.381928 -3.34728 0
M  V30 3105 O 285.268 1.39857 -3.76567 0
M  V30 3106 N 283.474 0.398633 -2.87853 0
M  V30 3107 H 283.021 -0.429186 -2.54 0
M  V30 3108 H 282.979 1.26651 -2.87762 0
M  V30 3109 N 286.751 1.08385 -1.14413 0
M  V30 3110 C 287.701 2.13509 -0.79987 0
M  V30 3111 C 288.685 1.5951 0.211059 0
M  V30 3112 O 289.877 1.76995 0.0133694 0
M  V30 3113 C 287.006 3.42162 -0.279297 0
M  V30 3114 C 286.092 4.03042 -1.31976 0
M  V30 3115 N 286.483 4.38327 -2.52395 0
M  V30 3116 C 284.781 4.30379 -1.17004 0
M  V30 3117 C 285.482 4.86428 -3.19003 0
M  V30 3118 N 284.458 4.84547 -2.46405 0
M  V30 3119 H 288.26 2.38609 -1.7159 0
M  V30 3120 H 285.774 1.2572 -1.02802 0
M  V30 3121 H 287.771 4.16898 -0.0143688 0
M  V30 3122 H 286.431 3.18511 0.630923 0
M  V30 3123 H 287.442 4.29349 -2.89621 0
M  V30 3124 H 284.119 4.16281 -0.318854 0
M  V30 3125 H 285.509 5.23107 -4.21674 0
M  V30 3126 N 288.23 0.939286 1.26551 0
M  V30 3127 C 289.16 0.465044 2.28822 0
M  V30 3128 C 290.141 -0.480692 1.63167 0
M  V30 3129 O 291.326 -0.382955 1.90387 0
M  V30 3130 C 288.456 -0.27234 3.46231 0
M  V30 3131 C 287.41 0.58666 4.2396 0
M  V30 3132 C 286.736 -0.280573 5.33963 0
M  V30 3133 C 288.036 1.85704 4.88171 0
M  V30 3134 H 289.73 1.31979 2.68741 0
M  V30 3135 H 287.276 0.636061 1.29191 0
M  V30 3136 H 289.229 -0.615133 4.16886 0
M  V30 3137 H 287.953 -1.16121 3.0526 0
M  V30 3138 H 286.612 0.91232 3.55067 0
M  V30 3139 H 286.26 -1.16874 4.89234 0
M  V30 3140 H 285.96 0.29076 5.8688 0
M  V30 3141 H 287.484 -0.618678 6.07458 0
M  V30 3142 H 288.898 1.58161 5.51052 0
M  V30 3143 H 287.295 2.37279 5.51197 0
M  V30 3144 H 288.365 2.56957 4.11219 0
M  V30 3145 N 289.708 -1.40897 0.706093 0
M  V30 3146 C 290.954 -2.01352 0.241889 0
M  V30 3147 C 291.287 -1.55832 -1.15888 0
M  V30 3148 O 290.562 -0.774145 -1.7843 0
M  V30 3149 C 290.845 -3.58752 0.311311 0
M  V30 3150 C 290.698 -4.1437 1.74978 0
M  V30 3151 C 292.017 -4.38914 -0.322922 0
M  V30 3152 H 289.136 -0.731562 0.0893687 0
M  V30 3153 H 291.778 -1.67504 0.896802 0
M  V30 3154 H 289.928 -3.87718 -0.246302 0
M  V30 3155 H 291.6 -3.96239 2.36205 0
M  V30 3156 H 289.843 -3.69016 2.28057 0
M  V30 3157 H 290.514 -5.23532 1.74981 0
M  V30 3158 H 292.99 -4.15822 0.152089 0
M  V30 3159 H 291.866 -5.48358 -0.243855 0
M  V30 3160 H 292.127 -4.19176 -1.40513 0
M  V30 3161 N 291.186 -0.45159 -1.50991 0
M  V30 3162 C 292.136 0.370861 -2.24964 0
M  V30 3163 C 293.12 0.978074 -1.2776 0
M  V30 3164 O 294.312 0.893854 -1.52772 0
M  V30 3165 C 291.441 1.46344 -3.10545 0
M  V30 3166 C 290.527 0.864924 -4.15187 0
M  V30 3167 N 290.918 -0.00311354 -5.058 0
M  V30 3168 C 289.216 1.13099 -4.31422 0
M  V30 3169 C 289.917 -0.340772 -5.80701 0
M  V30 3170 N 288.893 0.279203 -5.42883 0
M  V30 3171 H 292.695 -0.298134 -2.92384 0
M  V30 3172 H 290.209 -0.264528 -1.60231 0
M  V30 3173 H 292.206 2.06565 -3.62128 0
M  V30 3174 H 290.866 2.13463 -2.4467 0
M  V30 3175 H 291.877 -0.37058 -5.16572 0
M  V30 3176 H 288.554 1.79861 -3.76771 0
M  V30 3177 H 289.944 -1.048 -6.63677 0
M  V30 3178 N 292.664 1.56529 -0.183458 0
M  V30 3179 C 293.611 2.18546 0.742055 0
M  V30 3180 C 294.581 1.12912 1.2182 0
M  V30 3181 O 295.766 1.41115 1.28418 0
M  V30 3182 C 292.906 2.83977 1.96089 0
M  V30 3183 C 292.019 4.04105 1.52719 0
M  V30 3184 C 291.154 4.57427 2.70063 0
M  V30 3185 C 290.193 5.69938 2.23243 0
M  V30 3186 N 289.33 6.17717 3.33722 0
M  V30 3187 H 294.17 2.97284 0.206432 0
M  V30 3188 H 291.707 1.46823 0.0901571 0
M  V30 3189 H 293.665 3.20077 2.67594 0
M  V30 3190 H 292.295 2.07822 2.47002 0
M  V30 3191 H 291.347 3.73745 0.708436 0
M  V30 3192 H 292.659 4.85513 1.1436 0
M  V30 3193 H 291.813 4.95772 3.49708 0
M  V30 3194 H 290.552 3.75101 3.11689 0
M  V30 3195 H 289.557 5.31133 1.42048 0
M  V30 3196 H 290.782 6.54073 1.82661 0
M  V30 3197 H 288.728 5.38317 3.74902 0
M  V30 3198 H 288.645 6.94146 2.99495 0
M  V30 3199 H 289.913 6.60713 4.13616 0
M  V30 3200 N 294.142 -0.090211 1.57342 0
M  V30 3201 C 295.389 -0.792807 1.86335 0
M  V30 3202 C 295.717 -1.78494 0.772662 0
M  V30 3203 O 294.972 -1.94305 -0.233258 0
M  V30 3204 C 295.271 -1.55222 3.21933 0
M  V30 3205 C 294.937 -0.701765 4.45406 0
M  V30 3206 C 293.599 -0.467334 4.78925 0
M  V30 3207 C 295.951 -0.11086 5.21082 0
M  V30 3208 C 293.279 0.367785 5.85546 0
M  V30 3209 C 295.631 0.711609 6.28585 0
M  V30 3210 C 294.295 0.956086 6.60617 0
M  V30 3211 H 293.565 -0.290109 0.681849 0
M  V30 3212 H 296.212 -0.0541332 1.91423 0
M  V30 3213 H 294.517 -2.3626 3.12551 0
M  V30 3214 H 296.214 -2.10032 3.41595 0
M  V30 3215 H 292.804 -0.894598 4.1916 0
M  V30 3216 H 296.988 -0.279129 4.95514 0
M  V30 3217 H 292.244 0.566128 6.08773 0
M  V30 3218 H 296.418 1.17632 6.86393 0
M  V30 3219 H 294.045 1.60499 7.43064 0
M  V30 3220 N 295.62 -1.53406 -0.361157 0
M  V30 3221 C 296.866 -1.70054 -1.10496 0
M  V30 3222 C 297.199 -0.453278 -1.88836 0
M  V30 3223 O 296.474 0.5495 -1.86576 0
M  V30 3224 C 296.757 -2.95317 -2.06058 0
M  V30 3225 C 296.61 -4.3021 -1.31298 0
M  V30 3226 C 297.929 -3.16193 -3.06121 0
M  V30 3227 H 295.048 -0.618799 -0.400321 0
M  V30 3228 H 297.69 -1.86052 -0.385318 0
M  V30 3229 H 295.84 -2.81809 -2.67425 0
M  V30 3230 H 297.512 -4.55538 -0.726807 0
M  V30 3231 H 295.755 -4.29421 -0.614853 0
M  V30 3232 H 296.426 -5.14 -2.01265 0
M  V30 3233 H 298.902 -3.28916 -2.5486 0
M  V30 3234 H 297.778 -4.05266 -3.70204 0
M  V30 3235 H 298.039 -2.31676 -3.76535 0
M  V30 3236 N 297.098 0.621204 -1.44841 0
M  V30 3237 C 298.347 1.37658 -1.47422 0
M  V30 3238 C 298.66 1.95264 -0.114629 0
M  V30 3239 O 299.866 2.71494 -0.0180199 0
M  V30 3240 C 298.322 2.49285 -2.59586 0
M  V30 3241 C 297.93 1.98149 -4.01797 0
M  V30 3242 C 299.674 3.26409 -2.71399 0
M  V30 3243 C 297.581 3.07178 -5.05367 0
M  V30 3244 H 296.511 0.517344 -0.548517 0
M  V30 3245 H 299.162 0.667257 -1.70938 0
M  V30 3246 H 297.544 3.22839 -2.29328 0
M  V30 3247 H 298.718 1.31395 -4.41669 0
M  V30 3248 H 297.033 1.33812 -3.94314 0
M  V30 3249 H 299.63 4.07706 -3.45948 0
M  V30 3250 H 299.973 3.76535 -1.77559 0
M  V30 3251 H 300.506 2.5995 -3.01116 0
M  V30 3252 H 297.245 2.61985 -6.00869 0
M  V30 3253 H 296.765 3.72542 -4.70077 0
M  V30 3254 H 298.444 3.71789 -5.29511 0
M  V30 3255 N 298.576 1.31904 0.862503 0
M  V30 3256 C 299.824 1.21776 1.61292 0
M  V30 3257 C 300.145 -0.222413 1.93727 0
M  V30 3258 O 299.415 -1.1451 1.58947 0
M  V30 3259 H 297.995 0.447717 0.597962 0
M  V30 3260 H 300.657 1.65326 1.03215 0
M  V30 3261 H 299.753 1.7948 2.5533 0
M  V30 3262 N 300.054 -1.07777 1.14986 0
M  V30 3263 C 301.004 -2.13082 0.811181 0
M  V30 3264 C 301.988 -1.59619 -0.202597 0
M  V30 3265 O 303.18 -1.77 -0.00398275 0
M  V30 3266 C 300.309 -3.42009 0.297439 0
M  V30 3267 C 299.395 -4.02337 1.34112 0
M  V30 3268 N 299.786 -4.36982 2.54716 0
M  V30 3269 C 298.084 -4.29752 1.19285 0
M  V30 3270 C 298.785 -4.84729 3.21578 0
M  V30 3271 N 297.761 -4.83233 2.48972 0
M  V30 3272 H 301.563 -2.37696 1.72853 0
M  V30 3273 H 299.077 -1.25173 1.03468 0
M  V30 3274 H 301.074 -4.16884 0.0364777 0
M  V30 3275 H 299.734 -3.18841 -0.614022 0
M  V30 3276 H 300.745 -4.27807 2.91894 0
M  V30 3277 H 297.422 -4.16106 0.340926 0
M  V30 3278 H 298.812 -5.20863 4.24442 0
M  V30 3279 N 301.532 -0.945985 -1.26051 0
M  V30 3280 C 302.462 -0.477172 -2.28572 0
M  V30 3281 C 303.443 0.472032 -1.63419 0
M  V30 3282 O 304.628 0.372853 -1.90587 0
M  V30 3283 C 301.758 0.253975 -3.4637 0
M  V30 3284 C 300.712 -0.609135 -4.23643 0
M  V30 3285 C 300.038 0.252252 -5.34105 0
M  V30 3286 C 301.338 -1.8829 -4.8718 0
M  V30 3287 H 303.032 -1.33402 -2.68038 0
M  V30 3288 H 300.578 -0.642904 -1.28852 0
M  V30 3289 H 302.531 0.593016 -4.17207 0
M  V30 3290 H 301.255 1.145 -3.05871 0
M  V30 3291 H 299.914 -0.931138 -3.54578 0
M  V30 3292 H 299.562 1.14278 -4.89846 0
M  V30 3293 H 299.262 -0.32188 -5.86718 0
M  V30 3294 H 300.786 0.586454 -6.07777 0
M  V30 3295 H 302.2 -1.61081 -5.50205 0
M  V30 3296 H 300.597 -2.40199 -5.49931 0
M  V30 3297 H 301.667 -2.59134 -4.09851 0
M  V30 3298 N 303.011 1.40521 -0.713556 0
M  V30 3299 C 303.958 2.30723 -0.059684 0
M  V30 3300 C 304.928 1.48079 0.752448 0
M  V30 3301 O 306.113 1.76823 0.71681 0
M  V30 3302 C 303.253 3.34274 0.857594 0
M  V30 3303 C 302.366 4.31986 0.0351536 0
M  V30 3304 C 301.501 5.22605 0.951724 0
M  V30 3305 C 300.54 6.11976 0.123253 0
M  V30 3306 N 299.677 6.9502 0.99459 0
M  V30 3307 H 304.517 2.86074 -0.834596 0
M  V30 3308 H 302.054 1.40879 -0.42326 0
M  V30 3309 H 304.012 3.92879 1.40364 0
M  V30 3310 H 302.642 2.8043 1.59871 0
M  V30 3311 H 301.694 3.7518 -0.628052 0
M  V30 3312 H 303.006 4.95101 -0.606347 0
M  V30 3313 H 302.16 5.86131 1.56638 0
M  V30 3314 H 300.899 4.59759 1.62705 0
M  V30 3315 H 299.904 5.47482 -0.50435 0
M  V30 3316 H 301.129 6.76881 -0.548539 0
M  V30 3317 H 299.075 6.34764 1.6556 0
M  V30 3318 H 298.992 7.54892 0.40908 0
M  V30 3319 H 300.26 7.62997 1.59549 0
M  V30 3320 N 304.489 0.459591 1.5075 0
M  V30 3321 C 305.737 -0.0991532 2.01857 0
M  V30 3322 C 306.058 -1.41247 1.34441 0
M  V30 3323 O 305.328 -1.89775 0.486022 0
M  V30 3324 H 303.908 -0.039633 0.745948 0
M  V30 3325 H 306.57 0.607387 1.85194 0
M  V30 3326 H 305.666 -0.258998 3.11023 0
M  V30 3327 N 305.967 -1.56429 0.191757 0
M  V30 3328 C 306.93 -2.17707 -0.716688 0
M  V30 3329 C 307.93 -1.13061 -1.14341 0
M  V30 3330 O 309.12 -1.38464 -1.05704 0
M  V30 3331 C 306.252 -2.77644 -1.97804 0
M  V30 3332 H 307.445 -2.99342 -0.1829 0
M  V30 3333 H 304.998 -1.56193 -0.0578566 0
M  V30 3334 H 305.733 -1.99799 -2.55443 0
M  V30 3335 H 305.518 -3.54246 -1.68083 0
M  V30 3336 H 307.008 -3.24708 -2.62592 0
M  V30 3337 N 307.445 0.0818655 -1.57387 0
M  V30 3338 C 308.67 0.799946 -1.91352 0
M  V30 3339 C 309.095 1.70833 -0.787258 0
M  V30 3340 O 308.453 1.79419 0.26048 0
M  V30 3341 C 308.501 1.57812 -3.24234 0
M  V30 3342 O 307.605 2.68806 -3.12757 0
M  V30 3343 H 306.946 0.21891 -0.626877 0
M  V30 3344 H 309.476 0.0531256 -2.04531 0
M  V30 3345 H 309.486 1.95952 -3.57864 0
M  V30 3346 H 308.161 0.911548 -4.05788 0
M  V30 3347 H 306.738 2.33597 -2.90666 0
M  V30 3348 N 308.923 1.53595 0.353017 0
M  V30 3349 C 309.886 1.80232 1.41594 0
M  V30 3350 C 310.886 0.673081 1.46035 0
M  V30 3351 O 312.076 0.941335 1.46576 0
M  V30 3352 C 309.208 1.93578 2.80607 0
M  V30 3353 H 310.401 2.75174 1.19244 0
M  V30 3354 H 307.954 1.44864 0.586872 0
M  V30 3355 H 308.689 1.00746 3.08254 0
M  V30 3356 H 308.474 2.75724 2.78781 0
M  V30 3357 H 309.964 2.15735 3.57558 0
M  V30 3358 N 310.401 -0.613514 1.45168 0
M  V30 3359 C 311.349 -1.74572 1.53712 0
M  V30 3360 C 312.343 -1.64426 0.407505 0
M  V30 3361 O 313.549 -1.70291 0.583176 0
M  V30 3362 H 309.924 -0.576641 0.48269 0
M  V30 3363 H 311.895 -1.64492 2.48968 0
M  V30 3364 C 310.644 -3.12943 1.51532 0
M  V30 3365 H 309.967 -3.21407 2.37776 0
M  V30 3366 H 311.407 -3.9201 1.61569 0
M  V30 3367 C 309.866 -3.36053 0.238798 0
M  V30 3368 O 310.396 -3.95837 -0.6838 0
M  V30 3369 N 308.602 -2.9028 0.136359 0
M  V30 3370 H 308.149 -2.41811 0.887999 0
M  V30 3371 H 308.107 -3.06116 -0.716944 0
M  V30 3372 N 311.879 -1.3236 -0.855495 0
M  V30 3373 C 313.125 -1.24064 -1.61182 0
M  V30 3374 C 313.48 0.195914 -1.914 0
M  V30 3375 O 312.773 1.13345 -1.54478 0
M  V30 3376 C 312.967 -2.03275 -2.93963 0
M  V30 3377 C 312.796 -3.54486 -2.76712 0
M  V30 3378 C 311.566 -4.23824 -2.75139 0
M  V30 3379 C 313.764 -4.49154 -2.50531 0
M  V30 3380 N 311.746 -5.61095 -2.4909 0
M  V30 3381 C 313.117 -5.74195 -2.3388 0
M  V30 3382 C 315.172 -4.3842 -2.35992 0
M  V30 3383 C 313.875 -6.89716 -2.04168 0
M  V30 3384 C 315.901 -5.53739 -2.0767 0
M  V30 3385 C 315.263 -6.77779 -1.9182 0
M  V30 3386 H 311.362 -0.509139 -0.59355 0
M  V30 3387 H 313.946 -1.66715 -1.00569 0
M  V30 3388 H 312.117 -1.6297 -3.52555 0
M  V30 3389 H 313.849 -1.86881 -3.58967 0
M  V30 3390 H 310.604 -3.75934 -2.88047 0
M  V30 3391 H 311.028 -6.33411 -2.38996 0
M  V30 3392 H 315.67 -3.43172 -2.46967 0
M  V30 3393 H 313.388 -7.84977 -1.9193 0
M  V30 3394 H 316.974 -5.4736 -1.97201 0
M  V30 3395 H 315.854 -7.65504 -1.70217 0
M  V30 3396 N 313.357 1.07166 -1.15556 0
M  V30 3397 C 314.603 1.80222 -0.942961 0
M  V30 3398 C 314.958 1.85121 0.524209 0
M  V30 3399 O 314.251 1.32531 1.38369 0
M  V30 3400 C 314.445 3.24707 -1.49332 0
M  V30 3401 C 314.274 3.33887 -3.01247 0
M  V30 3402 C 313.044 3.44337 -3.69811 0
M  V30 3403 C 315.242 3.24484 -3.99017 0
M  V30 3404 N 313.224 3.42439 -5.09518 0
M  V30 3405 C 314.595 3.29726 -5.25053 0
M  V30 3406 C 316.65 3.08307 -3.90962 0
M  V30 3407 C 315.353 3.20455 -6.43973 0
M  V30 3408 C 317.379 3.00371 -5.09442 0
M  V30 3409 C 316.741 3.06227 -6.34354 0
M  V30 3410 H 312.84 0.672709 -0.398731 0
M  V30 3411 H 315.424 1.27905 -1.46794 0
M  V30 3412 H 313.595 3.7544 -0.994946 0
M  V30 3413 H 315.327 3.85894 -1.21935 0
M  V30 3414 H 312.082 3.48762 -3.20409 0
M  V30 3415 H 312.506 3.45013 -5.8249 0
M  V30 3416 H 317.148 3.02633 -2.95251 0
M  V30 3417 H 314.866 3.24888 -7.39914 0
M  V30 3418 H 318.452 2.88955 -5.04971 0
M  V30 3419 H 317.332 3.00132 -7.24493 0
M  V30 3420 N 314.835 0.952656 1.25548 0
M  V30 3421 C 315.783 0.462354 2.27958 0
M  V30 3422 C 316.777 -0.46634 1.62855 0
M  V30 3423 O 317.983 -0.343287 1.76696 0
M  V30 3424 H 314.358 0.13101 0.7405 0
M  V30 3425 H 316.329 1.33839 2.66702 0
M  V30 3426 C 315.078 -0.24628 3.46827 0
M  V30 3427 H 314.401 0.459192 3.97154 0
M  V30 3428 H 315.841 -0.553393 4.20373 0
M  V30 3429 C 314.3 -1.4681 3.0323 0
M  V30 3430 O 314.83 -2.56591 3.09069 0
M  V30 3431 N 313.036 -1.32874 2.58443 0
M  V30 3432 H 312.583 -0.435536 2.53891 0
M  V30 3433 H 312.541 -2.14742 2.29637 0
M  V30 3434 N 316.313 -1.40141 0.720998 0
M  V30 3435 C 317.263 -2.27949 0.0482544 0
M  V30 3436 C 318.247 -1.43538 -0.727021 0
M  V30 3437 O 319.439 -1.6658 -0.598332 0
M  V30 3438 C 316.568 -3.32126 -0.868729 0
M  V30 3439 C 315.654 -4.24008 -0.0883515 0
M  V30 3440 N 316.045 -4.97154 0.931226 0
M  V30 3441 C 314.343 -4.4485 -0.320105 0
M  V30 3442 C 315.044 -5.64587 1.4006 0
M  V30 3443 N 314.02 -5.38787 0.721752 0
M  V30 3444 H 317.822 -2.81948 0.829609 0
M  V30 3445 H 315.336 -1.52656 0.554067 0
M  V30 3446 H 317.333 -3.93884 -1.36605 0
M  V30 3447 H 315.993 -2.79687 -1.6494 0
M  V30 3448 H 317.004 -5.01 1.31222 0
M  V30 3449 H 313.681 -4.03378 -1.07668 0
M  V30 3450 H 315.071 -6.33175 2.24808 0
M  V30 3451 N 317.792 -0.46758 -1.50504 0
M  V30 3452 C 319.208 -0.121533 -1.59137 0
M  V30 3453 C 319.408 1.3717 -1.47603 0
M  V30 3454 O 318.464 2.14464 -1.33272 0
M  V30 3455 C 319.777 -0.6686 -2.93173 0
M  V30 3456 C 321.325 -0.631716 -3.06559 0
M  V30 3457 C 321.8 -1.15627 -4.43164 0
M  V30 3458 N 323.291 -1.11553 -4.49567 0
M  V30 3459 C 324.026 -1.49195 -5.5365 0
M  V30 3460 N 323.522 -1.94269 -6.65005 0
M  V30 3461 N 325.315 -1.4082 -5.44175 0
M  V30 3462 H 317.466 -1.4388 -1.56245 0
M  V30 3463 H 319.729 -0.594784 -0.738198 0
M  V30 3464 H 319.435 -1.71453 -3.07078 0
M  V30 3465 H 319.309 -0.11021 -3.77039 0
M  V30 3466 H 321.696 0.405297 -2.92304 0
M  V30 3467 H 321.777 -1.22687 -2.24458 0
M  V30 3468 H 321.421 -2.1919 -4.58168 0
M  V30 3469 H 321.351 -0.537365 -5.23851 0
M  V30 3470 H 323.842 -0.784895 -3.69659 0
M  V30 3471 H 324.155 -2.21148 -7.40482 0
M  V30 3472 H 322.5 -1.98219 -6.66134 0
M  V30 3473 H 325.691 -1.0545 -4.56068 0
M  V30 3474 H 325.864 -1.70481 -6.25172 0
M  V30 3475 N 319.27 1.56325 -0.20005 0
M  V30 3476 C 320.22 2.15939 0.731743 0
M  V30 3477 C 321.204 1.10154 1.17281 0
M  V30 3478 O 322.396 1.36203 1.13038 0
M  V30 3479 C 319.525 2.82614 1.94895 0
M  V30 3480 C 318.611 3.95596 1.52855 0
M  V30 3481 N 319.002 4.99118 0.819418 0
M  V30 3482 C 317.3 4.07288 1.81748 0
M  V30 3483 C 318.001 5.78513 0.608053 0
M  V30 3484 N 316.977 5.31117 1.15828 0
M  V30 3485 H 320.779 2.9334 0.181285 0
M  V30 3486 H 318.293 1.624 -0.000452172 0
M  V30 3487 H 320.29 3.23718 2.62702 0
M  V30 3488 H 318.95 2.06702 2.50408 0
M  V30 3489 H 319.961 5.15723 0.47436 0
M  V30 3490 H 316.638 3.42509 2.38734 0
M  V30 3491 H 318.028 6.71885 0.0451619 0
M  V30 3492 N 320.748 -0.0735177 1.57428 0
M  V30 3493 C 321.995 -0.772999 1.87166 0
M  V30 3494 C 322.323 -1.77665 0.791551 0
M  V30 3495 O 321.578 -1.94541 -0.212636 0
M  V30 3496 C 321.877 -1.51799 3.23561 0
M  V30 3497 C 321.543 -0.654484 4.46125 0
M  V30 3498 C 320.205 -0.416511 4.79394 0
M  V30 3499 C 322.557 -0.0555862 5.2117 0
M  V30 3500 C 319.885 0.429869 5.85123 0
M  V30 3501 C 322.237 0.778239 6.27795 0
M  V30 3502 C 320.901 1.0261 6.59566 0
M  V30 3503 H 320.171 -0.282861 0.684888 0
M  V30 3504 H 322.818 -0.0338272 1.9147 0
M  V30 3505 H 321.123 -2.32932 3.1504 0
M  V30 3506 H 322.82 -2.06397 3.43804 0
M  V30 3507 H 319.41 -0.850091 4.20085 0
M  V30 3508 H 323.594 -0.226558 4.95783 0
M  V30 3509 H 318.85 0.630665 6.08139 0
M  V30 3510 H 323.024 1.24906 6.85107 0
M  V30 3511 H 320.651 1.68371 7.4132 0
M  V30 3512 N 322.226 -1.5378 -0.344866 0
M  V30 3513 C 323.158 -1.77988 -1.44406 0
M  V30 3514 C 324.171 -0.661138 -1.48771 0
M  V30 3515 O 325.36 -0.937842 -1.51877 0
M  V30 3516 C 322.46 -1.86345 -2.8307 0
M  V30 3517 C 321.633 -3.16256 -3.0216 0
M  V30 3518 C 320.692 -3.15588 -4.21059 0
M  V30 3519 O 319.718 -3.89314 -4.15239 0
M  V30 3520 N 320.92 -2.37864 -5.29529 0
M  V30 3521 H 323.685 -2.72839 -1.24012 0
M  V30 3522 H 321.246 -1.52814 -0.534737 0
M  V30 3523 H 323.238 -1.83351 -3.60783 0
M  V30 3524 H 321.808 -0.986858 -2.96614 0
M  V30 3525 H 321.028 -3.32385 -2.11929 0
M  V30 3526 H 322.316 -4.0207 -3.11797 0
M  V30 3527 H 321.714 -1.77514 -5.37127 0
M  V30 3528 H 320.271 -2.40668 -6.05741 0
M  V30 3529 N 323.704 0.605807 -1.45491 0
M  V30 3530 C 324.654 1.71074 -1.50724 0
M  V30 3531 C 325.638 1.5658 -0.37033 0
M  V30 3532 O 326.83 1.65887 -0.617299 0
M  V30 3533 C 323.959 3.0983 -1.47852 0
M  V30 3534 C 323.045 3.29704 -2.66751 0
M  V30 3535 N 323.436 3.19831 -3.91844 0
M  V30 3536 C 321.734 3.60579 -2.62486 0
M  V30 3537 C 322.435 3.41083 -4.71208 0
M  V30 3538 N 321.411 3.65157 -4.02693 0
M  V30 3539 H 325.213 1.61937 -2.45263 0
M  V30 3540 H 322.727 0.80912 -1.40808 0
M  V30 3541 H 324.724 3.89101 -1.49686 0
M  V30 3542 H 323.384 3.20115 -0.543714 0
M  V30 3543 H 324.395 2.98194 -4.23439 0
M  V30 3544 H 321.072 3.7769 -1.77922 0
M  V30 3545 H 322.462 3.38828 -5.80211 0
M  V30 3546 N 325.182 1.32811 0.848464 0
M  V30 3547 C 326.132 1.18842 1.94578 0
M  V30 3548 C 327.116 0.0937517 1.60627 0
M  V30 3549 O 328.308 0.320887 1.74067 0
M  V30 3550 C 325.437 0.91999 3.30743 0
M  V30 3551 C 324.523 2.05665 3.70894 0
M  V30 3552 N 324.914 3.30579 3.8282 0
M  V30 3553 C 323.212 1.9612 4.00566 0
M  V30 3554 C 323.913 4.05067 4.17487 0
M  V30 3555 N 322.889 3.33419 4.2934 0
M  V30 3556 H 326.691 2.13536 2.0194 0
M  V30 3557 H 324.205 1.2468 1.0406 0
M  V30 3558 H 326.202 0.800859 4.09136 0
M  V30 3559 H 324.862 -0.0185076 3.24695 0
M  V30 3560 H 325.873 3.65441 3.66978 0
M  V30 3561 H 322.55 1.09871 4.02784 0
M  V30 3562 H 323.94 5.12815 4.34131 0
M  V30 3563 N 326.66 -1.06551 1.16123 0
M  V30 3564 C 327.623 -2.12132 0.867906 0
M  V30 3565 C 328.623 -1.60224 -0.135944 0
M  V30 3566 O 329.813 -1.73943 0.0946422 0
M  V30 3567 C 326.945 -3.396 0.297419 0
M  V30 3568 H 328.138 -2.39586 1.80385 0
M  V30 3569 H 325.691 -1.22574 0.969812 0
M  V30 3570 H 326.426 -3.17794 -0.64633 0
M  V30 3571 H 326.211 -3.78581 1.02073 0
M  V30 3572 H 327.701 -4.17455 0.110052 0
M  V30 3573 N 328.138 -0.959301 -1.25041 0
M  V30 3574 C 329.085 -0.482057 -2.2571 0
M  V30 3575 C 330.055 0.467939 -1.59372 0
M  V30 3576 O 331.24 0.380159 -1.86974 0
M  V30 3577 C 328.38 0.229623 -3.44335 0
M  V30 3578 C 327.493 -0.758156 -4.25295 0
M  V30 3579 C 326.628 -0.0234403 -5.31195 0
M  V30 3580 C 325.667 -1.00184 -6.03846 0
M  V30 3581 N 324.804 -0.29769 -7.01469 0
M  V30 3582 H 329.644 -1.34538 -2.65901 0
M  V30 3583 H 327.181 -0.674592 -1.3072 0
M  V30 3584 H 329.139 0.658856 -4.11965 0
M  V30 3585 H 327.769 1.05696 -3.05005 0
M  V30 3586 H 326.821 -1.30586 -3.57284 0
M  V30 3587 H 328.133 -1.50458 -4.75567 0
M  V30 3588 H 327.287 0.464201 -6.04922 0
M  V30 3589 H 326.026 0.755741 -4.81809 0
M  V30 3590 H 325.031 -1.50044 -5.2893 0
M  V30 3591 H 326.256 -1.78133 -6.55321 0
M  V30 3592 H 324.202 0.462668 -6.54366 0
M  V30 3593 H 324.119 -0.983128 -7.4958 0
M  V30 3594 H 325.387 0.16826 -7.79318 0
M  V30 3595 N 329.616 1.39756 -0.72842 0
M  V30 3596 C 331.027 1.83498 -0.344289 0
M  V30 3597 C 331.378 1.60868 1.12321 0
M  V30 3598 O 330.503 1.09634 1.86573 0
M  V30 3599 C 331.098 3.33114 -0.618112 0
M  V30 3600 C 329.657 3.753 -0.287549 0
M  V30 3601 C 328.804 2.62831 -0.884048 0
M  V30 3602 H 331.755 1.28842 -0.926578 0
M  V30 3603 H 331.776 3.80334 0.112349 0
M  V30 3604 H 331.288 3.49553 -1.68625 0
M  V30 3605 H 329.389 3.64451 0.775012 0
M  V30 3606 H 329.502 4.72945 -0.765512 0
M  V30 3607 H 327.866 2.52792 -0.311149 0
M  V30 3608 H 328.649 2.82078 -1.95671 0
M  V30 3609 N 331.094 0.475555 1.50254 0
M  V30 3610 C 332.042 -0.330276 2.30243 0
M  V30 3611 C 333.036 -0.986306 1.37726 0
M  V30 3612 O 334.242 -0.9169 1.54897 0
M  V30 3613 H 330.617 -0.125353 0.741479 0
M  V30 3614 H 332.588 0.364702 2.96163 0
M  V30 3615 C 331.337 -1.39704 3.18399 0
M  V30 3616 H 330.66 -0.901621 3.89501 0
M  V30 3617 H 332.1 -1.93336 3.77355 0
M  V30 3618 C 330.559 -2.4014 2.36293 0
M  V30 3619 O 331.089 -3.45504 2.04914 0
M  V30 3620 N 329.295 -2.1197 1.98789 0
M  V30 3621 H 328.842 -1.2631 2.24507 0
M  V30 3622 H 328.8 -2.79403 1.44157 0
M  V30 3623 N 332.573 -1.56217 0.208337 0
M  V30 3624 C 333.822 -1.97124 -0.427204 0
M  V30 3625 C 334.135 -1.09859 -1.61835 0
M  V30 3626 O 335.341 -1.40606 -2.32255 0
M  V30 3627 C 333.797 -3.50633 -0.811442 0
M  V30 3628 C 333.405 -4.46582 0.35615 0
M  V30 3629 C 335.149 -4.00282 -1.41332 0
M  V30 3630 C 333.056 -5.91379 -0.0497852 0
M  V30 3631 H 331.986 -0.736086 -0.163381 0
M  V30 3632 H 334.637 -1.8099 0.302456 0
M  V30 3633 H 333.019 -3.62319 -1.59815 0
M  V30 3634 H 334.193 -4.46636 1.1337 0
M  V30 3635 H 332.508 -4.07202 0.870396 0
M  V30 3636 H 335.105 -5.0595 -1.72972 0
M  V30 3637 H 335.448 -3.45359 -2.32449 0
M  V30 3638 H 335.981 -3.91764 -0.690323 0
M  V30 3639 H 332.72 -6.50255 0.827529 0
M  V30 3640 H 332.24 -5.94549 -0.791926 0
M  V30 3641 H 333.919 -6.45209 -0.481042 0
M  V30 3642 N 334.051 0.0651679 -1.57465 0
M  V30 3643 C 335.298 0.763063 -1.87573 0
M  V30 3644 C 335.626 1.77242 -0.800961 0
M  V30 3645 O 334.881 1.94651 0.202316 0
M  V30 3646 C 335.18 1.50081 -3.24362 0
M  V30 3647 C 334.846 0.630816 -4.46466 0
M  V30 3648 C 333.508 0.391082 -4.79608 0
M  V30 3649 C 335.86 0.0279465 -5.21193 0
M  V30 3650 C 333.188 -0.460894 -5.84887 0
M  V30 3651 C 335.54 -0.811522 -6.27373 0
M  V30 3652 C 334.204 -1.06106 -6.59013 0
M  V30 3653 H 333.474 0.279224 -0.686378 0
M  V30 3654 H 336.121 0.0236726 -1.91485 0
M  V30 3655 H 334.426 2.31258 -3.16271 0
M  V30 3656 H 336.123 2.04571 -3.44894 0
M  V30 3657 H 332.713 0.8278 -4.2053 0
M  V30 3658 H 336.897 0.200262 -4.95896 0
M  V30 3659 H 332.153 -0.662907 -6.07796 0
M  V30 3660 H 336.327 -1.28537 -6.84435 0
M  V30 3661 H 333.954 -1.723 -7.40417 0
M  V30 3662 N 335.529 1.53961 0.336706 0
M  V30 3663 C 336.479 1.7881 1.41461 0
M  V30 3664 C 337.463 0.643561 1.47469 0
M  V30 3665 O 338.655 0.903166 1.52223 0
M  V30 3666 C 335.784 2.00722 2.78506 0
M  V30 3667 C 334.87 3.2126 2.76862 0
M  V30 3668 N 335.261 4.42588 2.44845 0
M  V30 3669 C 333.559 3.22568 3.08004 0
M  V30 3670 C 334.26 5.2447 2.51607 0
M  V30 3671 N 333.236 4.61344 2.87511 0
M  V30 3672 H 337.038 2.70205 1.15615 0
M  V30 3673 H 334.552 1.52978 0.545112 0
M  V30 3674 H 336.549 2.1666 3.5618 0
M  V30 3675 H 335.209 1.10573 3.05293 0
M  V30 3676 H 336.22 4.69819 2.17922 0
M  V30 3677 H 332.897 2.42409 3.39918 0
M  V30 3678 H 334.287 6.31324 2.29955 0
M  V30 3679 N 337.007 -0.598083 1.45811 0
M  V30 3680 C 337.954 -1.7082 1.55207 0
M  V30 3681 C 338.924 -1.61278 0.39732 0
M  V30 3682 O 340.109 -1.80717 0.612038 0
M  V30 3683 C 337.249 -3.09144 1.53376 0
M  V30 3684 C 336.362 -3.29423 2.79472 0
M  V30 3685 C 335.497 -4.57907 2.69248 0
M  V30 3686 C 334.536 -4.71476 3.90354 0
M  V30 3687 N 333.673 -5.9127 3.78608 0
M  V30 3688 H 338.513 -1.62125 2.50039 0
M  V30 3689 H 336.05 -0.790389 1.24062 0
M  V30 3690 H 338.008 -3.89186 1.50301 0
M  V30 3691 H 336.638 -3.16773 0.620876 0
M  V30 3692 H 335.69 -2.43091 2.92594 0
M  V30 3693 H 337.002 -3.3532 3.69272 0
M  V30 3694 H 336.156 -5.46157 2.64192 0
M  V30 3695 H 334.895 -4.54423 1.77063 0
M  V30 3696 H 333.9 -3.81648 3.95759 0
M  V30 3697 H 335.125 -4.76751 4.83617 0
M  V30 3698 H 333.071 -5.88813 2.89199 0
M  V30 3699 H 332.988 -5.98369 4.6205 0
M  V30 3700 H 334.256 -6.81992 3.77501 0
M  V30 3701 N 338.485 -1.33259 -0.841409 0
M  V30 3702 C 339.762 -1.15174 -1.58096 0
M  V30 3703 C 340.142 0.282858 -2.09196 0
M  V30 3704 O 339.49 1.28151 -1.89181 0
M  V30 3705 C 339.7 -2.1907 -2.71679 0
M  V30 3706 C 341.048 -2.53093 -3.40924 0
M  V30 3707 O 342.072 -2.17717 -2.81918 0
M  V30 3708 O 340.931 -3.1379 -4.47435 0
M  V30 3709 H 338.025 -0.445303 -0.696875 0
M  V30 3710 H 340.571 -1.44833 -0.884385 0
M  V30 3711 H 339.343 -3.15443 -2.31541 0
M  V30 3712 H 338.966 -1.90481 -3.49002 0
M  V30 3713 N 339.963 1.05934 -1.16686 0
M  V30 3714 C 341.374 1.60263 -0.957745 0
M  V30 3715 C 341.725 1.89789 0.49745 0
M  V30 3716 O 340.85 1.67401 1.37135 0
M  V30 3717 C 341.445 2.91172 -1.73218 0
M  V30 3718 C 340.004 3.42188 -1.56794 0
M  V30 3719 C 339.151 2.16028 -1.73859 0
M  V30 3720 H 342.102 0.888392 -1.31504 0
M  V30 3721 H 342.123 3.60744 -1.21014 0
M  V30 3722 H 341.635 2.6965 -2.79124 0
M  V30 3723 H 339.736 3.68762 -0.533437 0
M  V30 3724 H 339.849 4.17273 -2.35414 0
M  V30 3725 H 338.213 2.26426 -1.16633 0
M  V30 3726 H 338.996 1.96985 -2.81161 0
M  V30 3727 N 341.441 0.965919 1.2453 0
M  V30 3728 C 342.718 0.543777 1.87889 0
M  V30 3729 C 343.098 -0.97909 1.87021 0
M  V30 3730 O 342.446 -1.84969 1.3416 0
M  V30 3731 C 342.656 1.13327 3.30088 0
M  V30 3732 C 344.004 1.21707 4.06783 0
M  V30 3733 O 345.028 1.08566 3.39252 0
M  V30 3734 O 343.887 1.42456 5.27606 0
M  V30 3735 H 340.981 0.181054 0.806938 0
M  V30 3736 H 343.527 1.06007 1.32516 0
M  V30 3737 H 342.299 2.17612 3.25209 0
M  V30 3738 H 341.922 0.600911 3.93033 0
M  V30 3739 N 342.919 -1.39368 0.735821 0
M  V30 3740 C 344.165 -2.00794 0.284544 0
M  V30 3741 C 344.498 -1.58255 -1.12557 0
M  V30 3742 O 343.773 -0.811819 -1.76748 0
M  V30 3743 C 344.056 -3.58011 0.387337 0
M  V30 3744 C 343.909 -4.10566 1.83728 0
M  V30 3745 C 345.228 -4.395 -0.22975 0
M  V30 3746 H 342.347 -0.729501 0.104866 0
M  V30 3747 H 344.989 -1.65564 0.93213 0
M  V30 3748 H 343.139 -3.88154 -0.164006 0
M  V30 3749 H 344.811 -3.91139 2.44556 0
M  V30 3750 H 343.054 -3.64095 2.35833 0
M  V30 3751 H 343.725 -5.19702 1.86047 0
M  V30 3752 H 346.201 -4.15406 0.240257 0
M  V30 3753 H 345.077 -5.48752 -0.127485 0
M  V30 3754 H 345.338 -4.22062 -1.3159 0
M  V30 3755 N 344.397 -0.483516 -1.5 0
M  V30 3756 C 345.345 0.318061 -2.30415 0
M  V30 3757 C 346.339 0.978988 -1.38247 0
M  V30 3758 O 347.545 0.908673 -1.55381 0
M  V30 3759 H 343.92 0.121419 -0.742133 0
M  V30 3760 H 345.891 -0.380403 -2.95965 0
M  V30 3761 C 344.64 1.38013 -3.19136 0
M  V30 3762 H 343.963 0.880952 -3.89973 0
M  V30 3763 H 345.403 1.91332 -3.78375 0
M  V30 3764 C 343.862 2.38884 -2.37563 0
M  V30 3765 O 344.392 3.44412 -2.06744 0
M  V30 3766 N 342.598 2.10912 -1.99911 0
M  V30 3767 H 342.145 1.25118 -2.25174 0
M  V30 3768 H 342.103 2.78635 -1.45636 0
M  V30 3769 N 345.875 1.56104 -0.216619 0
M  V30 3770 C 346.808 2.16026 0.735395 0
M  V30 3771 C 347.786 1.1032 1.1945 0
M  V30 3772 O 348.97 1.38549 1.27814 0
M  V30 3773 C 346.097 2.73656 1.99575 0
M  V30 3774 C 345.143 3.92146 1.67702 0
M  V30 3775 S 345.976 5.29397 0.806145 0
M  V30 3776 C 347.132 5.90463 2.07617 0
M  V30 3777 H 347.365 2.96439 0.226072 0
M  V30 3778 H 344.898 1.544 -0.00136639 0
M  V30 3779 H 346.856 3.075 2.71945 0
M  V30 3780 H 345.517 1.93245 2.47619 0
M  V30 3781 H 344.71 4.30954 2.61332 0
M  V30 3782 H 344.312 3.59423 1.03398 0
M  V30 3783 H 346.604 6.06136 3.02664 0
M  V30 3784 H 347.547 6.86589 1.73207 0
M  V30 3785 H 347.955 5.19252 2.21445 0
M  V30 3786 N 347.353 -0.0568162 1.57498 0
M  V30 3787 C 348.283 -1.06593 2.0775 0
M  V30 3788 C 349.264 -1.39448 0.974082 0
M  V30 3789 O 350.449 -1.48815 1.24771 0
M  V30 3790 C 347.579 -2.37509 2.5339 0
M  V30 3791 C 346.533 -2.1897 3.67745 0
M  V30 3792 C 345.859 -3.55402 3.99492 0
M  V30 3793 C 347.159 -1.59859 4.97235 0
M  V30 3794 H 348.853 -0.647706 2.9231 0
M  V30 3795 H 346.399 -0.310116 1.40621 0
M  V30 3796 H 348.352 -3.08409 2.87162 0
M  V30 3797 H 347.076 -2.8134 1.65878 0
M  V30 3798 H 345.735 -1.50508 3.3428 0
M  V30 3799 H 345.383 -3.9683 3.09088 0
M  V30 3800 H 345.083 -3.43831 4.76502 0
M  V30 3801 H 346.607 -4.27708 4.35773 0
M  V30 3802 H 348.021 -2.20642 5.29141 0
M  V30 3803 H 346.418 -1.58942 5.78669 0
M  V30 3804 H 347.488 -0.561506 4.81638 0
M  V30 3805 N 348.832 -1.54138 -0.328536 0
M  V30 3806 C 349.782 -1.79557 -1.4051 0
M  V30 3807 C 350.766 -0.651373 -1.47126 0
M  V30 3808 O 351.958 -0.911226 -1.51742 0
M  V30 3809 C 349.087 -2.02196 -2.77438 0
M  V30 3810 C 348.173 -3.22724 -2.75155 0
M  V30 3811 N 348.564 -4.43881 -2.42494 0
M  V30 3812 C 346.862 -3.24196 -3.06289 0
M  V30 3813 C 347.563 -5.25797 -2.48822 0
M  V30 3814 N 346.539 -4.62862 -2.8506 0
M  V30 3815 H 350.341 -2.70814 -1.1418 0
M  V30 3816 H 347.855 -1.53265 -0.536991 0
M  V30 3817 H 349.852 -2.18546 -3.55026 0
M  V30 3818 H 348.512 -1.12191 -3.04702 0
M  V30 3819 H 349.523 -4.70969 -2.15428 0
M  V30 3820 H 346.2 -2.44208 -3.38627 0
M  V30 3821 H 347.59 -6.32535 -2.26603 0
M  V30 3822 N 350.31 0.590341 -1.46126 0
M  V30 3823 C 351.556 1.35082 -1.51264 0
M  V30 3824 C 351.889 1.93534 -0.160711 0
M  V30 3825 O 351.164 1.76045 0.826956 0
M  V30 3826 C 351.447 2.48588 -2.6053 0
M  V30 3827 C 351.3 1.95221 -4.05227 0
M  V30 3828 C 352.619 3.50662 -2.6594 0
M  V30 3829 H 349.738 0.489803 -0.550692 0
M  V30 3830 H 352.38 0.663887 -1.78024 0
M  V30 3831 H 350.53 3.07186 -2.37843 0
M  V30 3832 H 352.202 1.41139 -4.39178 0
M  V30 3833 H 350.445 1.26101 -4.15068 0
M  V30 3834 H 351.116 2.77121 -4.77397 0
M  V30 3835 H 353.592 3.01934 -2.86313 0
M  V30 3836 H 352.468 4.27551 -3.44226 0
M  V30 3837 H 352.729 4.07399 -1.71694 0
M  V30 3838 N 351.788 1.33704 0.83433 0
M  V30 3839 C 353.035 1.25417 1.58987 0
M  V30 3840 C 353.363 -0.178869 1.93676 0
M  V30 3841 O 352.618 -1.13723 1.59265 0
M  V30 3842 C 352.917 2.07926 2.90692 0
M  V30 3843 C 352.583 3.57066 2.75345 0
M  V30 3844 C 351.245 3.97724 2.70867 0
M  V30 3845 C 353.597 4.51817 2.59828 0
M  V30 3846 C 350.925 5.31344 2.48778 0
M  V30 3847 C 353.277 5.85604 2.39272 0
M  V30 3848 C 351.941 6.25439 2.33199 0
M  V30 3849 H 351.211 0.458934 0.581774 0
M  V30 3850 H 353.858 1.65335 0.966261 0
M  V30 3851 H 352.163 1.608 3.57282 0
M  V30 3852 H 353.86 1.98868 3.48213 0
M  V30 3853 H 350.45 3.24785 2.79665 0
M  V30 3854 H 354.634 4.21311 2.62319 0
M  V30 3855 H 349.89 5.61241 2.42526 0
M  V30 3856 H 354.064 6.58623 2.2625 0
M  V30 3857 H 351.691 7.28914 2.15843 0
M  V30 3858 N 353.266 -1.05314 1.17247 0
M  V30 3859 C 354.512 -1.78557 0.961513 0
M  V30 3860 C 354.845 -1.87419 -0.508697 0
M  V30 3861 O 354.12 -1.37307 -1.37757 0
M  V30 3862 C 354.403 -3.22514 1.60176 0
M  V30 3863 C 354.256 -3.21673 3.14399 0
M  V30 3864 C 355.575 -4.20318 1.30463 0
M  V30 3865 H 352.694 -0.6482 0.350723 0
M  V30 3866 H 355.336 -1.23102 1.44727 0
M  V30 3867 H 353.486 -3.69867 1.18871 0
M  V30 3868 H 355.158 -2.82405 3.64753 0
M  V30 3869 H 353.401 -2.60048 3.47214 0
M  V30 3870 H 354.072 -4.23271 3.54324 0
M  V30 3871 H 356.548 -3.81454 1.66229 0
M  V30 3872 H 355.424 -5.19289 1.77848 0
M  V30 3873 H 355.685 -4.41526 0.22521 0
M  V30 3874 N 354.744 -0.972509 -1.24016 0
M  V30 3875 C 355.674 -0.525548 -2.27509 0
M  V30 3876 C 356.655 0.437262 -1.64384 0
M  V30 3877 O 357.84 0.332343 -1.91335 0
M  V30 3878 C 354.97 0.180448 -3.46831 0
M  V30 3879 C 353.924 -0.698859 -4.22256 0
M  V30 3880 C 353.25 0.138903 -5.3452 0
M  V30 3881 C 354.55 -1.98582 -4.83076 0
M  V30 3882 H 356.244 -1.39058 -2.65148 0
M  V30 3883 H 353.79 -0.67009 -1.27459 0
M  V30 3884 H 355.743 0.504387 -4.18371 0
M  V30 3885 H 354.467 1.07987 -3.08231 0
M  V30 3886 H 353.126 -1.00614 -3.52523 0
M  V30 3887 H 352.774 1.03862 -4.9216 0
M  V30 3888 H 352.474 -0.446259 -5.85903 0
M  V30 3889 H 353.998 0.457404 -6.08884 0
M  V30 3890 H 355.412 -1.72715 -5.46665 0
M  V30 3891 H 353.809 -2.5181 -5.44713 0
M  V30 3892 H 354.879 -2.67769 -4.04262 0
M  V30 3893 N 356.222 1.38976 -0.743202 0
M  V30 3894 C 357.47 1.99948 -0.29417 0
M  V30 3895 C 357.791 1.59279 1.12495 0
M  V30 3896 O 357.061 0.844808 1.76748 0
M  V30 3897 H 355.641 0.739473 -0.105774 0
M  V30 3898 H 358.303 1.699 -0.954986 0
M  V30 3899 H 357.399 3.10142 -0.349056 0
M  V30 3900 N 357.7 0.491464 1.49741 0
M  V30 3901 C 358.61 -0.296835 2.32715 0
M  V30 3902 C 359.626 -0.976536 1.44013 0
M  V30 3903 O 360.802 -0.960023 1.77047 0
M  V30 3904 C 357.867 -1.35288 3.19215 0
M  V30 3905 C 356.928 -0.687632 4.23757 0
M  V30 3906 C 356.161 -1.69336 5.06123 0
M  V30 3907 O 356.384 -2.92219 4.89861 0
M  V30 3908 O 355.318 -1.25394 5.88693 0
M  V30 3909 H 359.144 0.382048 3.01287 0
M  V30 3910 H 356.729 0.252953 1.47243 0
M  V30 3911 H 358.611 -1.96411 3.72828 0
M  V30 3912 H 357.286 -2.01487 2.53347 0
M  V30 3913 H 356.193 -0.0369159 3.74082 0
M  V30 3914 H 357.526 -0.0682566 4.92153 0
M  V30 3915 N 359.178 -1.55987 0.224894 0
M  V30 3916 C 360.424 -1.99433 -0.39973 0
M  V30 3917 C 360.779 -1.11004 -1.57149 0
M  V30 3918 O 360.072 -0.160725 -1.90925 0
M  V30 3919 C 360.266 -3.46394 -0.880106 0
M  V30 3920 C 360.095 -4.4904 0.243565 0
M  V30 3921 C 358.865 -5.00272 0.711056 0
M  V30 3922 C 361.063 -5.03195 1.06299 0
M  V30 3923 N 359.045 -5.86628 1.80944 0
M  V30 3924 C 360.416 -5.86508 2.01017 0
M  V30 3925 C 362.471 -4.8555 1.10205 0
M  V30 3926 C 361.174 -6.54062 2.99324 0
M  V30 3927 C 363.2 -5.53866 2.07332 0
M  V30 3928 C 362.562 -6.3695 3.00789 0
M  V30 3929 H 358.661 -0.773815 -0.112847 0
M  V30 3930 H 361.245 -1.91754 0.337432 0
M  V30 3931 H 359.416 -3.54515 -1.58662 0
M  V30 3932 H 361.148 -3.76752 -1.47783 0
M  V30 3933 H 357.903 -4.72655 0.29906 0
M  V30 3934 H 358.327 -6.34507 2.36073 0
M  V30 3935 H 362.969 -4.20966 0.39343 0
M  V30 3936 H 360.687 -7.17827 3.71147 0
M  V30 3937 H 364.273 -5.42178 2.11032 0
M  V30 3938 H 363.153 -6.8888 3.74718 0
M  V30 3939 N 360.656 0.0484629 -1.57525 0
M  V30 3940 C 361.588 1.08222 -2.02041 0
M  V30 3941 C 362.601 1.33621 -0.930012 0
M  V30 3942 O 363.79 1.3145 -1.20761 0
M  V30 3943 C 360.89 2.42818 -2.36416 0
M  V30 3944 C 360.063 2.37049 -3.67596 0
M  V30 3945 C 359.122 3.53937 -3.89378 0
M  V30 3946 O 358.148 3.34308 -4.60681 0
M  V30 3947 N 359.35 4.75126 -3.3352 0
M  V30 3948 H 362.115 0.702946 -2.9134 0
M  V30 3949 H 359.676 0.236745 -1.6016 0
M  V30 3950 H 361.668 3.197 -2.48141 0
M  V30 3951 H 360.238 2.72661 -1.52888 0
M  V30 3952 H 359.458 1.45395 -3.66407 0
M  V30 3953 H 360.746 2.30318 -4.53686 0
M  V30 3954 H 360.144 4.93976 -2.75688 0
M  V30 3955 H 358.701 5.49439 -3.50656 0
M  V30 3956 N 362.134 1.5431 0.320358 0
M  V30 3957 C 363.545 1.63872 0.894594 0
M  V30 3958 C 363.896 0.534847 1.88769 0
M  V30 3959 O 363.021 -0.331732 2.13842 0
M  V30 3960 C 363.616 2.97049 1.62934 0
M  V30 3961 C 362.175 3.08796 2.15226 0
M  V30 3962 C 361.322 2.59456 0.978671 0
M  V30 3963 H 364.273 1.58398 0.0978544 0
M  V30 3964 H 364.294 2.87388 2.49376 0
M  V30 3965 H 363.806 3.7737 0.906302 0
M  V30 3966 H 361.907 2.33156 2.90636 0
M  V30 3967 H 362.02 4.14649 2.40006 0
M  V30 3968 H 360.384 2.1543 1.35875 0
M  V30 3969 H 361.167 3.42237 0.269895 0
M  V30 3970 N 363.613 -0.582584 1.46437 0
M  V30 3971 C 364.862 -1.337 1.5102 0
M  V30 3972 C 365.175 -1.94891 0.166359 0
M  V30 3973 O 366.381 -2.71351 0.0899954 0
M  V30 3974 C 364.837 -2.42315 2.66104 0
M  V30 3975 C 364.445 -1.87427 4.06909 0
M  V30 3976 C 366.189 -3.19099 2.79958 0
M  V30 3977 C 364.096 -2.93672 5.13333 0
M  V30 3978 H 363.026 -0.502619 0.562041 0
M  V30 3979 H 365.677 -0.621701 1.72647 0
M  V30 3980 H 364.059 -3.16645 2.37807 0
M  V30 3981 H 365.233 -1.19639 4.44998 0
M  V30 3982 H 363.548 -1.2331 3.97723 0
M  V30 3983 H 366.145 -3.9839 3.56636 0
M  V30 3984 H 366.488 -3.71695 1.87479 0
M  V30 3985 H 367.021 -2.51875 3.07902 0
M  V30 3986 H 363.76 -2.45962 6.07604 0
M  V30 3987 H 363.28 -3.59948 4.79789 0
M  V30 3988 H 364.959 -3.5762 5.39182 0
M  V30 3989 N 365.091 -1.34144 -0.827227 0
M  V30 3990 C 366.001 -1.27428 -1.96975 0
M  V30 3991 C 367.017 -0.182728 -1.73038 0
M  V30 3992 O 368.193 -0.408426 -1.97215 0
M  V30 3993 C 365.258 -1.02526 -3.31194 0
M  V30 3994 C 364.319 -2.20796 -3.68168 0
M  V30 3995 C 363.552 -1.97073 -4.95982 0
M  V30 3996 O 363.775 -0.926822 -5.6282 0
M  V30 3997 O 362.709 -2.83912 -5.30733 0
M  V30 3998 H 366.535 -2.23537 -2.05584 0
M  V30 3999 H 364.12 -1.14307 -0.961989 0
M  V30 4000 H 366.002 -0.904026 -4.11589 0
M  V30 4001 H 364.677 -0.0945389 -3.23562 0
M  V30 4002 H 363.584 -2.38477 -2.88235 0
M  V30 4003 H 364.917 -3.12243 -3.8048 0
M  V30 4004 N 366.569 1.04691 -1.17803 0
M  V30 4005 C 367.799 1.81183 -0.992788 0
M  V30 4006 C 368.207 1.8347 0.462098 0
M  V30 4007 O 367.55 1.2643 1.33271 0
M  V30 4008 C 367.612 3.28363 -1.46349 0
M  V30 4009 C 367.276 3.49749 -2.94151 0
M  V30 4010 C 368.273 3.41456 -3.92051 0
M  V30 4011 C 365.958 3.76548 -3.32441 0
M  V30 4012 C 367.952 3.59656 -5.26238 0
M  V30 4013 C 365.639 3.94396 -4.66792 0
M  V30 4014 C 366.637 3.8595 -5.635 0
M  V30 4015 O 366.325 4.03294 -6.9542 0
M  V30 4016 H 366.057 0.577622 -0.351182 0
M  V30 4017 H 368.611 1.32876 -1.5663 0
M  V30 4018 H 366.841 3.77609 -0.833574 0
M  V30 4019 H 368.53 3.86395 -1.24313 0
M  V30 4020 H 369.296 3.20723 -3.63815 0
M  V30 4021 H 365.175 3.82224 -2.57732 0
M  V30 4022 H 368.719 3.52979 -6.01707 0
M  V30 4023 H 364.616 4.14622 -4.94731 0
M  V30 4024 H 365.384 4.2049 -7.02232 0
M  V30 4025 N 368.047 0.979072 1.23499 0
M  V30 4026 C 369.295 0.645941 1.91499 0
M  V30 4027 C 369.616 -0.822948 1.76784 0
M  V30 4028 O 368.886 -1.58854 1.14639 0
M  V30 4029 H 367.466 0.235919 0.708767 0
M  V30 4030 H 370.128 1.2426 1.50152 0
M  V30 4031 H 369.224 0.896411 2.9895 0
M  V30 4032 N 369.525 -1.3858 0.750561 0
M  V30 4033 C 370.472 -2.30483 0.120835 0
M  V30 4034 C 371.442 -1.50022 -0.712923 0
M  V30 4035 O 372.627 -1.78662 -0.669676 0
M  V30 4036 C 369.767 -3.36431 -0.768666 0
M  V30 4037 C 368.88 -4.31927 0.0793922 0
M  V30 4038 C 368.015 -5.24944 -0.81283 0
M  V30 4039 C 367.054 -6.12088 0.0390447 0
M  V30 4040 N 366.191 -6.97412 -0.809969 0
M  V30 4041 H 371.031 -2.83761 0.91015 0
M  V30 4042 H 368.568 -1.39707 0.460463 0
M  V30 4043 H 370.526 -3.96462 -1.29898 0
M  V30 4044 H 369.156 -2.8457 -1.5238 0
M  V30 4045 H 368.208 -3.73382 0.727303 0
M  V30 4046 H 369.52 -4.93319 0.737401 0
M  V30 4047 H 368.674 -5.90078 -1.41042 0
M  V30 4048 H 367.413 -4.63911 -1.50458 0
M  V30 4049 H 366.418 -5.45952 0.649328 0
M  V30 4050 H 367.643 -6.75189 0.727809 0
M  V30 4051 H 365.589 -6.38931 -1.48672 0
M  V30 4052 H 365.506 -7.55712 -0.208789 0
M  V30 4053 H 366.774 -7.66959 -1.39263 0
M  V30 4054 N 371.003 -0.499398 -1.49478 0
M  V30 4055 C 371.95 0.279881 -2.29097 0
M  V30 4056 C 372.92 0.961805 -1.3542 0
M  V30 4057 O 374.105 0.968777 -1.64376 0
M  V30 4058 C 371.245 1.33932 -3.18051 0
M  V30 4059 C 370.358 0.669333 -4.26783 0
M  V30 4060 C 369.493 1.70907 -5.02955 0
M  V30 4061 C 368.532 1.02087 -6.03527 0
M  V30 4062 N 367.669 2.00474 -6.7287 0
M  V30 4063 H 372.509 -0.405317 -2.95231 0
M  V30 4064 H 370.046 -0.211726 -1.45568 0
M  V30 4065 H 372.004 1.96553 -3.67998 0
M  V30 4066 H 370.634 1.9933 -2.53904 0
M  V30 4067 H 369.686 -0.0701234 -3.80335 0
M  V30 4068 H 370.998 0.127503 -4.98637 0
M  V30 4069 H 370.152 2.41037 -5.56764 0
M  V30 4070 H 368.891 2.28476 -4.30871 0
M  V30 4071 H 367.896 0.305338 -5.48951 0
M  V30 4072 H 369.121 0.451708 -6.77596 0
M  V30 4073 H 367.067 2.57007 -6.03559 0
M  V30 4074 H 366.984 1.51353 -7.40694 0
M  V30 4075 H 368.252 2.69897 -7.31284 0
M  V30 4076 N 372.481 1.55866 -0.233164 0
M  V30 4077 C 373.428 2.20796 0.67215 0
M  V30 4078 C 374.398 1.16731 1.18166 0
M  V30 4079 O 375.583 1.45129 1.23864 0
M  V30 4080 C 372.723 2.90072 1.86955 0
M  V30 4081 C 371.836 4.08759 1.39786 0
M  V30 4082 C 370.971 4.65787 2.55374 0
M  V30 4083 C 370.01 5.76752 2.04998 0
M  V30 4084 N 369.147 6.28021 3.13901 0
M  V30 4085 H 373.987 2.9779 0.111749 0
M  V30 4086 H 371.524 1.47036 0.0434007 0
M  V30 4087 H 373.482 3.28428 2.57276 0
M  V30 4088 H 372.112 2.15575 2.40265 0
M  V30 4089 H 371.164 3.7581 0.589173 0
M  V30 4090 H 372.476 4.88906 0.98856 0
M  V30 4091 H 371.63 5.06646 3.33758 0
M  V30 4092 H 370.369 3.84828 2.99598 0
M  V30 4093 H 369.374 5.35383 1.25079 0
M  V30 4094 H 370.599 6.59553 1.61759 0
M  V30 4095 H 368.545 5.49971 3.57586 0
M  V30 4096 H 368.462 7.03323 2.7726 0
M  V30 4097 H 369.73 6.73538 3.92386 0
M  V30 4098 N 373.959 -0.0401083 1.57549 0
M  V30 4099 C 374.889 -1.04384 2.08869 0
M  V30 4100 C 375.87 -1.38407 0.988817 0
M  V30 4101 O 377.055 -1.47483 1.26342 0
M  V30 4102 C 374.185 -2.34808 2.55895 0
M  V30 4103 C 373.139 -2.15057 3.70047 0
M  V30 4104 C 372.465 -3.51145 4.03239 0
M  V30 4105 C 373.765 -1.54576 4.98902 0
M  V30 4106 H 375.459 -0.616666 2.92981 0
M  V30 4107 H 373.005 -0.295184 1.40942 0
M  V30 4108 H 374.958 -3.05346 2.90417 0
M  V30 4109 H 373.682 -2.79565 1.68853 0
M  V30 4110 H 372.341 -1.46954 3.35857 0
M  V30 4111 H 371.989 -3.93529 3.13279 0
M  V30 4112 H 371.689 -3.38758 4.80122 0
M  V30 4113 H 373.213 -4.23062 4.40285 0
M  V30 4114 H 374.627 -2.15017 5.31451 0
M  V30 4115 H 373.024 -1.52796 5.80322 0
M  V30 4116 H 374.094 -0.51039 4.82206 0
M  V30 4117 N 375.437 -1.54477 -0.31217 0
M  V30 4118 C 376.384 -1.84655 -1.38461 0
M  V30 4119 C 377.354 -0.694536 -1.50882 0
M  V30 4120 O 378.539 -0.942081 -1.6592 0
M  V30 4121 C 375.679 -2.0896 -2.74645 0
M  V30 4122 C 374.792 -3.36618 -2.70763 0
M  V30 4123 C 373.927 -3.50824 -3.98868 0
M  V30 4124 C 372.966 -4.72315 -3.89339 0
M  V30 4125 N 372.103 -4.83387 -5.09197 0
M  V30 4126 H 376.943 -2.76142 -1.12026 0
M  V30 4127 H 374.48 -1.36748 -0.542065 0
M  V30 4128 H 376.438 -2.21045 -3.53829 0
M  V30 4129 H 375.068 -1.20752 -2.99364 0
M  V30 4130 H 374.12 -3.33211 -1.83506 0
M  V30 4131 H 375.432 -4.25917 -2.59608 0
M  V30 4132 H 374.586 -3.62513 -4.86486 0
M  V30 4133 H 373.325 -2.59638 -4.12843 0
M  V30 4134 H 372.33 -4.6067 -3.00105 0
M  V30 4135 H 373.555 -5.64897 -3.76919 0
M  V30 4136 H 371.501 -3.9512 -5.23657 0
M  V30 4137 H 371.418 -5.66669 -5.00422 0
M  V30 4138 H 372.686 -4.9942 -5.98498 0
M  V30 4139 N 376.915 0.57481 -1.46744 0
M  V30 4140 C 378.145 1.35659 -1.55821 0
M  V30 4141 C 378.553 1.88129 -0.201036 0
M  V30 4142 O 377.896 1.64723 0.813134 0
M  V30 4143 C 377.958 2.57473 -2.50894 0
M  V30 4144 C 377.622 2.26415 -3.9697 0
M  V30 4145 C 378.619 1.84771 -4.85958 0
M  V30 4146 C 376.304 2.38316 -4.42166 0
M  V30 4147 C 378.298 1.55434 -6.18158 0
M  V30 4148 C 375.985 2.08591 -5.74398 0
M  V30 4149 C 376.983 1.67216 -6.62214 0
M  V30 4150 O 376.671 1.37859 -7.91991 0
M  V30 4151 H 376.403 0.420496 -0.529301 0
M  V30 4152 H 378.957 0.704967 -1.92923 0
M  V30 4153 H 377.187 3.25468 -2.08824 0
M  V30 4154 H 378.876 3.19546 -2.50291 0
M  V30 4155 H 379.642 1.75085 -4.52295 0
M  V30 4156 H 375.521 2.69483 -3.74032 0
M  V30 4157 H 379.065 1.23065 -6.86659 0
M  V30 4158 H 374.962 2.17905 -6.07608 0
M  V30 4159 H 375.73 1.51638 -8.04331 0
M  V30 4160 N 378.394 1.34581 0.820102 0
M  V30 4161 C 379.324 1.29038 1.94606 0
M  V30 4162 C 380.305 0.1673 1.69275 0
M  V30 4163 O 381.49 0.360112 1.90832 0
M  V30 4164 C 378.62 1.04793 3.31113 0
M  V30 4165 C 377.574 2.13597 3.70891 0
M  V30 4166 C 376.9 1.74537 5.05412 0
M  V30 4167 C 378.2 3.55451 3.8269 0
M  V30 4168 H 379.894 2.23248 1.99501 0
M  V30 4169 H 377.44 1.0747 0.958449 0
M  V30 4170 H 379.393 0.995592 4.0947 0
M  V30 4171 H 378.117 0.0702565 3.26524 0
M  V30 4172 H 376.776 2.17905 2.9481 0
M  V30 4173 H 376.424 0.754226 4.97313 0
M  V30 4174 H 376.124 2.47361 5.32997 0
M  V30 4175 H 377.648 1.70803 5.86224 0
M  V30 4176 H 379.062 3.5354 4.51312 0
M  V30 4177 H 377.459 4.26922 4.21732 0
M  V30 4178 H 378.529 3.92587 2.84611 0
M  V30 4179 N 379.872 -1.04064 1.18357 0
M  V30 4180 C 381.283 -1.58719 0.98312 0
M  V30 4181 C 381.634 -1.90556 -0.467193 0
M  V30 4182 O 380.759 -1.69561 -1.34454 0
M  V30 4183 C 381.354 -2.88379 1.77828 0
M  V30 4184 C 379.913 -3.3965 1.62218 0
M  V30 4185 C 379.06 -2.13235 1.77274 0
M  V30 4186 H 382.011 -0.867359 1.32901 0
M  V30 4187 H 382.032 -3.58773 1.26737 0
M  V30 4188 H 381.544 -2.65176 2.83379 0
M  V30 4189 H 379.645 -3.67866 0.592036 0
M  V30 4190 H 379.758 -4.13475 2.42023 0
M  V30 4191 H 378.122 -2.24542 1.20221 0
M  V30 4192 H 378.905 -1.92487 2.8426 0
M  V30 4193 N 381.35 -0.985608 -1.22978 0
M  V30 4194 C 382.58 -0.674603 -1.95276 0
M  V30 4195 C 382.988 0.763483 -1.73111 0
M  V30 4196 O 382.331 1.52601 -1.02268 0
M  V30 4197 C 382.393 -0.891597 -3.48268 0
M  V30 4198 C 382.057 -2.31275 -3.94158 0
M  V30 4199 C 383.054 -3.29179 -4.02415 0
M  V30 4200 C 380.739 -2.64524 -4.27004 0
M  V30 4201 C 382.733 -4.58407 -4.42879 0
M  V30 4202 C 380.42 -3.93974 -4.67149 0
M  V30 4203 C 381.418 -4.90727 -4.75053 0
M  V30 4204 O 381.106 -6.17865 -5.14294 0
M  V30 4205 H 380.838 -0.249251 -0.628371 0
M  V30 4206 H 383.392 -1.32106 -1.5728 0
M  V30 4207 H 381.622 -0.187962 -3.86243 0
M  V30 4208 H 383.311 -0.576957 -4.01779 0
M  V30 4209 H 384.077 -3.04823 -3.77237 0
M  V30 4210 H 379.956 -1.89923 -4.2006 0
M  V30 4211 H 383.5 -5.33926 -4.48964 0
M  V30 4212 H 379.397 -4.18122 -4.91777 0
M  V30 4213 H 380.165 -6.21694 -5.32389 0
M  V30 4214 N 382.828 1.3818 -0.7579 0
M  V30 4215 C 383.776 2.32277 -0.122482 0
M  V30 4216 C 384.77 1.54238 0.700505 0
M  V30 4217 O 385.976 1.69737 0.599119 0
M  V30 4218 H 382.351 0.751712 -0.0208143 0
M  V30 4219 H 384.322 2.83469 -0.932099 0
M  V30 4220 C 383.071 3.39447 0.753076 0
M  V30 4221 H 382.394 3.99591 0.129184 0
M  V30 4222 H 383.834 4.07684 1.16489 0
M  V30 4223 C 382.293 2.78375 1.8976 0
M  V30 4224 O 382.823 2.68025 2.99208 0
M  V30 4225 N 381.029 2.36121 1.69397 0
M  V30 4226 H 380.576 2.4474 0.803762 0
M  V30 4227 H 380.534 1.95602 2.46145 0
M  V30 4228 N 384.306 0.507319 1.49211 0
M  V30 4229 C 385.256 -0.287112 2.26185 0
M  V30 4230 C 386.24 -0.929983 1.31302 0
M  V30 4231 O 387.432 -0.836538 1.55984 0
M  V30 4232 C 384.561 -1.34718 3.15763 0
M  V30 4233 C 383.647 -0.710235 4.18111 0
M  V30 4234 N 384.038 0.190836 5.0544 0
M  V30 4235 C 382.336 -0.97009 4.35322 0
M  V30 4236 C 383.037 0.55606 5.79036 0
M  V30 4237 N 382.013 -0.0775232 5.43545 0
M  V30 4238 H 385.815 0.406445 2.91076 0
M  V30 4239 H 383.329 0.323814 1.59139 0
M  V30 4240 H 385.326 -1.92982 3.69545 0
M  V30 4241 H 383.986 -2.04235 2.52424 0
M  V30 4242 H 384.997 0.562047 5.14841 0
M  V30 4243 H 381.674 -1.65753 3.83187 0
M  V30 4244 H 383.064 1.2936 6.5933 0
M  V30 4245 N 385.784 -1.5574 0.241426 0
M  V30 4246 C 386.716 -2.18469 -0.693091 0
M  V30 4247 C 387.729 -1.15942 -1.14286 0
M  V30 4248 O 388.918 -1.42832 -1.07058 0
M  V30 4249 C 386.018 -2.7696 -1.95311 0
M  V30 4250 C 385.191 -4.04853 -1.65568 0
M  V30 4251 C 384.25 -4.47715 -2.76474 0
M  V30 4252 O 383.276 -5.14205 -2.44094 0
M  V30 4253 N 384.478 -4.15044 -4.05855 0
M  V30 4254 H 387.243 -2.99292 -0.156388 0
M  V30 4255 H 384.804 -1.61784 0.0611752 0
M  V30 4256 H 386.796 -3.02594 -2.68736 0
M  V30 4257 H 385.366 -2.00326 -2.39975 0
M  V30 4258 H 384.586 -3.86865 -0.756886 0
M  V30 4259 H 385.874 -4.88246 -1.43153 0
M  V30 4260 H 385.272 -3.61654 -4.34998 0
M  V30 4261 H 383.829 -4.45526 -4.75762 0
M  V30 4262 N 387.262 0.0317525 -1.57568 0
M  V30 4263 C 388.212 1.04101 -2.02847 0
M  V30 4264 C 389.196 1.3219 -0.917317 0
M  V30 4265 O 390.388 1.31819 -1.18121 0
M  V30 4266 C 387.517 2.34295 -2.5092 0
M  V30 4267 C 386.603 2.09308 -3.68851 0
M  V30 4268 N 386.994 1.5437 -4.81667 0
M  V30 4269 C 385.292 2.39604 -3.76172 0
M  V30 4270 C 385.993 1.45126 -5.63306 0
M  V30 4271 N 384.969 1.92589 -5.08341 0
M  V30 4272 H 388.771 0.610217 -2.87495 0
M  V30 4273 H 386.285 0.238108 -1.60645 0
M  V30 4274 H 388.282 3.07404 -2.81617 0
M  V30 4275 H 386.942 2.78055 -1.67677 0
M  V30 4276 H 387.953 1.22678 -5.03161 0
M  V30 4277 H 384.63 2.86457 -3.03724 0
M  V30 4278 H 386.02 1.03163 -6.63933 0
M  V30 4279 N 388.74 1.54641 0.303973 0
M  V30 4280 C 389.65 1.88439 1.39743 0
M  V30 4281 C 390.666 0.778239 1.55626 0
M  V30 4282 O 391.842 1.07442 1.70347 0
M  V30 4283 C 388.907 2.12212 2.74166 0
M  V30 4284 C 387.968 3.35936 2.67293 0
M  V30 4285 C 387.201 3.58566 3.95305 0
M  V30 4286 O 387.424 2.84263 4.9452 0
M  V30 4287 O 386.358 4.52078 3.97378 0
M  V30 4288 H 390.184 2.81458 1.14083 0
M  V30 4289 H 387.769 1.40793 0.499768 0
M  V30 4290 H 389.651 2.29067 3.53704 0
M  V30 4291 H 388.326 1.22379 2.99675 0
M  V30 4292 H 387.233 3.24448 1.86237 0
M  V30 4293 H 388.566 4.2589 2.46736 0
M  V30 4294 N 390.218 -0.567019 1.47046 0
M  V30 4295 C 391.448 -1.34831 1.56538 0
M  V30 4296 C 391.856 -1.8802 0.21101 0
M  V30 4297 O 391.199 -1.65152 -0.804387 0
M  V30 4298 C 391.261 -2.56139 2.52256 0
M  V30 4299 C 390.925 -2.24307 3.98165 0
M  V30 4300 C 391.922 -1.82192 4.86931 0
M  V30 4301 C 389.607 -2.35968 4.43423 0
M  V30 4302 C 391.601 -1.52153 6.18973 0
M  V30 4303 C 389.288 -2.05542 5.75496 0
M  V30 4304 C 390.286 -1.63701 6.63092 0
M  V30 4305 O 389.974 -1.33657 7.92711 0
M  V30 4306 H 389.706 -0.417683 0.531523 0
M  V30 4307 H 392.26 -0.694726 1.93294 0
M  V30 4308 H 390.49 -3.24356 2.10548 0
M  V30 4309 H 392.179 -3.18214 2.51982 0
M  V30 4310 H 392.945 -1.72684 4.53217 0
M  V30 4311 H 388.824 -2.67495 3.75456 0
M  V30 4312 H 392.368 -1.19421 6.87302 0
M  V30 4313 H 388.265 -2.14679 6.08755 0
M  V30 4314 H 389.033 -1.4737 8.05124 0
M  V30 4315 N 391.696 -1.35014 -0.812953 0
M  V30 4316 C 392.943 -1.27931 -1.56971 0
M  V30 4317 C 393.271 0.148034 -1.93936 0
M  V30 4318 O 392.526 1.11175 -1.61054 0
M  V30 4319 C 392.825 -2.12524 -2.87347 0
M  V30 4320 C 392.491 -3.61401 -2.6963 0
M  V30 4321 C 391.153 -4.01983 -2.64506 0
M  V30 4322 C 393.505 -4.55894 -2.52607 0
M  V30 4323 C 390.833 -5.35235 -2.40293 0
M  V30 4324 C 393.185 -5.89336 -2.29925 0
M  V30 4325 C 391.849 -6.2907 -2.23219 0
M  V30 4326 H 391.119 -0.468131 -0.574399 0
M  V30 4327 H 393.766 -1.66851 -0.939836 0
M  V30 4328 H 392.071 -1.66463 -3.54679 0
M  V30 4329 H 393.768 -2.04383 -3.45005 0
M  V30 4330 H 390.358 -3.29193 -2.74463 0
M  V30 4331 H 394.542 -4.25431 -2.55583 0
M  V30 4332 H 389.798 -5.65028 -2.33566 0
M  V30 4333 H 393.972 -6.62139 -2.15743 0
M  V30 4334 H 391.599 -7.32256 -2.04219 0
M  V30 4335 N 393.175 1.03435 -1.18907 0
M  V30 4336 C 394.422 1.76743 -0.988334 0
M  V30 4337 C 394.75 1.88447 0.481441 0
M  V30 4338 O 394.005 1.39383 1.37371 0
M  V30 4339 C 394.304 3.19792 -1.59586 0
M  V30 4340 C 393.97 3.28108 -3.09283 0
M  V30 4341 C 392.632 3.30084 -3.5014 0
M  V30 4342 C 394.984 3.27696 -4.05296 0
M  V30 4343 C 392.312 3.29299 -4.85571 0
M  V30 4344 C 394.664 3.28451 -5.4065 0
M  V30 4345 C 393.328 3.28723 -5.80946 0
M  V30 4346 H 392.598 0.64675 -0.361657 0
M  V30 4347 H 395.245 1.21442 -1.48068 0
M  V30 4348 H 393.55 3.78136 -1.02568 0
M  V30 4349 H 395.247 3.75171 -1.41589 0
M  V30 4350 H 391.837 3.27294 -2.76725 0
M  V30 4351 H 396.021 3.25354 -3.74778 0
M  V30 4352 H 391.277 3.2783 -5.16079 0
M  V30 4353 H 395.451 3.27082 -6.14809 0
M  V30 4354 H 393.078 3.27868 -6.85862 0
M  V30 4355 N 394.653 0.992116 1.22453 0
M  V30 4356 C 395.583 0.561677 2.26644 0
M  V30 4357 C 396.564 -0.411055 1.65059 0
M  V30 4358 O 397.749 -0.301861 1.9184 0
M  V30 4359 C 394.879 -0.125247 3.47074 0
M  V30 4360 C 393.833 0.765948 4.21091 0
M  V30 4361 C 393.159 -0.0538484 5.34673 0
M  V30 4362 C 394.459 2.06242 4.79856 0
M  V30 4363 H 396.153 1.43259 2.62902 0
M  V30 4364 H 393.699 0.690283 1.26377 0
M  V30 4365 H 395.652 -0.437764 4.1912 0
M  V30 4366 H 394.376 -1.03069 3.0991 0
M  V30 4367 H 393.035 1.0621 3.50878 0
M  V30 4368 H 392.683 -0.960188 4.9375 0
M  V30 4369 H 392.383 0.539415 5.85119 0
M  V30 4370 H 393.907 -0.360477 6.09535 0
M  V30 4371 H 395.321 1.8139 5.43848 0
M  V30 4372 H 393.718 2.60444 5.40638 0
M  V30 4373 H 394.788 2.74167 3.99951 0
M  V30 4374 N 396.131 -1.37776 0.765217 0
M  V30 4375 C 397.38 -1.99092 0.323307 0
M  V30 4376 C 397.693 -1.61434 -1.10446 0
M  V30 4377 O 398.899 -2.15805 -1.64743 0
M  V30 4378 C 397.355 -3.56019 0.527098 0
M  V30 4379 C 396.963 -4.0262 1.96471 0
M  V30 4380 C 398.707 -4.2424 0.148483 0
M  V30 4381 C 396.614 -5.52233 2.11644 0
M  V30 4382 H 395.544 -0.744846 0.117137 0
M  V30 4383 H 398.195 -1.57391 0.943417 0
M  V30 4384 H 396.577 -3.95667 -0.162372 0
M  V30 4385 H 397.751 -3.74234 2.68859 0
M  V30 4386 H 396.066 -3.47161 2.29931 0
M  V30 4387 H 398.663 -5.34159 0.240456 0
M  V30 4388 H 399.006 -4.06446 -0.900422 0
M  V30 4389 H 399.539 -3.89872 0.79025 0
M  V30 4390 H 396.278 -5.74945 3.1483 0
M  V30 4391 H 395.798 -5.82324 1.4373 0
M  V30 4392 H 397.477 -6.18106 1.91193 0
M  V30 4393 N 397.609 -0.515225 -1.4894 0
M  V30 4394 C 398.857 0.0241671 -2.02086 0
M  V30 4395 C 399.178 1.3616 -1.3959 0
M  V30 4396 O 398.448 1.87841 -0.556121 0
M  V30 4397 H 397.028 0.0119203 -0.746905 0
M  V30 4398 H 399.69 -0.675702 -1.82812 0
M  V30 4399 H 398.786 0.143385 -3.1177 0
M  V30 4400 N 399.087 1.5561 -0.249682 0
M  V30 4401 C 400.498 1.84979 0.252949 0
M  V30 4402 C 400.849 1.17153 1.57384 0
M  V30 4403 O 399.974 0.450884 2.11651 0
M  V30 4404 C 400.569 3.35584 0.465732 0
M  V30 4405 C 399.128 3.65169 0.912624 0
M  V30 4406 C 398.275 2.77299 -0.00859085 0
M  V30 4407 H 401.226 1.51513 -0.47217 0
M  V30 4408 H 401.247 3.57313 1.30795 0
M  V30 4409 H 400.759 3.8492 -0.49579 0
M  V30 4410 H 398.86 3.21312 1.88652 0
M  V30 4411 H 398.973 4.72912 0.767559 0
M  V30 4412 H 397.337 2.49678 0.50327 0
M  V30 4413 H 398.12 3.29442 -0.965537 0
M  V30 4414 N 400.565 -0.0233959 1.57583 0
M  V30 4415 C 401.976 -0.56927 1.77809 0
M  V30 4416 C 402.327 -1.75284 0.881472 0
M  V30 4417 O 401.452 -2.1626 0.0777805 0
M  V30 4418 C 402.047 -1.03949 3.22459 0
M  V30 4419 C 400.606 -1.53084 3.43864 0
M  V30 4420 C 399.753 -0.471454 2.73263 0
M  V30 4421 H 402.704 0.202825 1.57399 0
M  V30 4422 H 402.725 -1.90661 3.29285 0
M  V30 4423 H 402.237 -0.177865 3.87692 0
M  V30 4424 H 400.338 -2.41414 2.83814 0
M  V30 4425 H 400.451 -1.57443 4.52491 0
M  V30 4426 H 398.815 -0.927788 2.37201 0
M  V30 4427 H 399.598 0.380808 3.41181 0
M  V30 4428 N 402.043 -1.548 -0.295768 0
M  V30 4429 C 402.973 -1.89115 -1.36959 0
M  V30 4430 C 403.954 -0.75059 -1.52644 0
M  V30 4431 O 405.139 -1.00678 -1.66065 0
M  V30 4432 C 402.269 -2.14307 -2.73295 0
M  V30 4433 C 401.223 -3.30151 -2.72368 0
M  V30 4434 C 400.549 -3.40772 -4.12042 0
M  V30 4435 C 401.849 -4.67126 -2.33646 0
M  V30 4436 H 403.543 -2.79053 -1.08488 0
M  V30 4437 H 401.089 -1.34266 -0.520443 0
M  V30 4438 H 403.042 -2.36898 -3.48507 0
M  V30 4439 H 401.766 -1.21145 -3.03301 0
M  V30 4440 H 400.425 -3.0749 -1.99613 0
M  V30 4441 H 400.073 -2.45117 -4.39234 0
M  V30 4442 H 399.773 -4.18645 -4.12322 0
M  V30 4443 H 401.297 -3.6563 -4.89027 0
M  V30 4444 H 402.711 -4.89414 -2.98575 0
M  V30 4445 H 401.108 -5.47751 -2.45129 0
M  V30 4446 H 402.178 -4.67489 -1.28772 0
M  V30 4447 N 403.521 0.559213 -1.47345 0
M  V30 4448 C 404.451 1.67622 -1.62558 0
M  V30 4449 C 405.432 1.63331 -0.475087 0
M  V30 4450 O 406.617 1.80983 -0.704182 0
M  V30 4451 C 403.747 3.0626 -1.63774 0
M  V30 4452 C 402.701 3.25397 -2.7803 0
M  V30 4453 C 402.027 4.64801 -2.64318 0
M  V30 4454 C 403.327 3.10965 -4.19641 0
M  V30 4455 H 405.021 1.55146 -2.56067 0
M  V30 4456 H 402.567 0.744961 -1.23233 0
M  V30 4457 H 404.52 3.84247 -1.73008 0
M  V30 4458 H 403.244 3.1969 -0.66825 0
M  V30 4459 H 401.903 2.49817 -2.68304 0
M  V30 4460 H 401.551 4.75028 -1.65401 0
M  V30 4461 H 401.251 4.78555 -3.40968 0
M  V30 4462 H 402.775 5.44926 -2.75478 0
M  V30 4463 H 404.189 3.78772 -4.30354 0
M  V30 4464 H 402.586 3.36229 -4.97062 0
M  V30 4465 H 403.656 2.07736 -4.38148 0
M  V30 4466 N 404.999 1.35443 0.805782 0
M  V30 4467 C 406.248 1.28097 1.55801 0
M  V30 4468 C 406.561 -0.142428 1.95081 0
M  V30 4469 O 407.767 -0.33817 2.69386 0
M  V30 4470 C 406.223 2.24653 2.81174 0
M  V30 4471 C 405.831 3.72342 2.49129 0
M  V30 4472 C 407.575 2.2625 3.59181 0
M  V30 4473 C 405.482 4.60719 3.70799 0
M  V30 4474 H 404.412 0.475937 0.584808 0
M  V30 4475 H 407.063 1.60712 0.885661 0
M  V30 4476 H 405.445 1.85011 3.50124 0
M  V30 4477 H 406.619 4.20624 1.88181 0
M  V30 4478 H 404.934 3.73361 1.84366 0
M  V30 4479 H 407.531 2.89495 4.49552 0
M  V30 4480 H 407.874 1.26647 3.96568 0
M  V30 4481 H 408.407 2.64426 2.97193 0
M  V30 4482 H 405.146 5.61324 3.3852 0
M  V30 4483 H 404.666 4.17163 4.3097 0
M  V30 4484 H 406.345 4.76182 4.38018 0
M  V30 4485 N 406.477 -1.02803 1.19454 0
M  V30 4486 C 407.888 -1.57667 0.999899 0
M  V30 4487 C 408.239 -1.91041 -0.446956 0
M  V30 4488 O 407.364 -1.70978 -1.32648 0
M  V30 4489 C 407.959 -2.86477 1.80877 0
M  V30 4490 C 406.518 -3.37911 1.65811 0
M  V30 4491 C 405.665 -2.11343 1.79526 0
M  V30 4492 H 408.616 -0.853214 1.33813 0
M  V30 4493 H 408.637 -3.57408 1.30536 0
M  V30 4494 H 408.149 -2.62155 2.86175 0
M  V30 4495 H 406.25 -3.67218 0.63102 0
M  V30 4496 H 406.363 -4.10885 2.46395 0
M  V30 4497 H 404.727 -2.23254 1.22596 0
M  V30 4498 H 405.51 -1.89461 2.86285 0
M  V30 4499 N 407.956 -0.998596 -1.21925 0
M  V30 4500 C 408.889 -0.498517 -2.22688 0
M  V30 4501 C 409.867 0.444301 -1.56412 0
M  V30 4502 O 411.051 0.368518 -1.84863 0
M  V30 4503 C 408.178 0.276639 -3.37568 0
M  V30 4504 C 407.224 -0.61302 -4.22071 0
M  V30 4505 S 408.057 -2.07168 -4.93803 0
M  V30 4506 C 409.213 -1.30617 -6.12119 0
M  V30 4507 H 409.446 -1.35234 -2.64762 0
M  V30 4508 H 406.979 -0.806018 -1.31692 0
M  V30 4509 H 408.937 0.717817 -4.04175 0
M  V30 4510 H 407.598 1.10581 -2.93991 0
M  V30 4511 H 406.791 -0.0162909 -5.03997 0
M  V30 4512 H 406.393 -0.991202 -3.60626 0
M  V30 4513 H 408.685 -0.57675 -6.75041 0
M  V30 4514 H 409.628 -2.10091 -6.76215 0
M  V30 4515 H 410.036 -0.816957 -5.58557 0
M  V30 4516 N 409.434 1.37368 -0.772513 0
M  V30 4517 C 410.664 2.03647 -0.348082 0
M  V30 4518 C 411.072 1.58392 1.03482 0
M  V30 4519 O 410.415 0.760921 1.672 0
M  V30 4520 C 410.477 3.58131 -0.313404 0
M  V30 4521 C 410.141 4.2652 -1.64102 0
M  V30 4522 C 411.138 4.50587 -2.5936 0
M  V30 4523 C 408.823 4.64335 -1.91567 0
M  V30 4524 C 410.817 5.11526 -3.80289 0
M  V30 4525 C 408.504 5.24996 -3.12766 0
M  V30 4526 C 409.502 5.48529 -4.06946 0
M  V30 4527 O 409.19 6.07921 -5.26011 0
M  V30 4528 H 408.922 0.660538 -0.143753 0
M  V30 4529 H 411.476 1.76669 -1.04772 0
M  V30 4530 H 409.706 3.84159 0.442617 0
M  V30 4531 H 411.395 4.05813 0.0840613 0
M  V30 4532 H 412.161 4.21784 -2.39423 0
M  V30 4533 H 408.04 4.45353 -1.19088 0
M  V30 4534 H 411.584 5.29811 -4.53813 0
M  V30 4535 H 407.481 5.53223 -3.32588 0
M  V30 4536 H 408.249 6.26398 -5.26847 0
M  V30 4537 N 410.912 0.523116 1.48665 0
M  V30 4538 C 412.159 -0.0134763 2.02496 0
M  V30 4539 C 412.487 -1.3493 1.40086 0
M  V30 4540 O 411.742 -1.88286 0.533567 0
M  V30 4541 C 412.041 -0.191671 3.56886 0
M  V30 4542 C 411.707 1.06893 4.38046 0
M  V30 4543 C 410.369 1.41443 4.59943 0
M  V30 4544 C 412.721 1.90584 4.85106 0
M  V30 4545 C 410.049 2.59594 5.26144 0
M  V30 4546 C 412.401 3.07907 5.52609 0
M  V30 4547 C 411.065 3.42811 5.72745 0
M  V30 4548 H 410.335 -0.00493133 0.740984 0
M  V30 4549 H 412.982 0.687751 1.78724 0
M  V30 4550 H 411.287 -0.97561 3.79459 0
M  V30 4551 H 412.984 -0.621659 3.96152 0
M  V30 4552 H 409.574 0.789848 4.21259 0
M  V30 4553 H 413.758 1.65203 4.67997 0
M  V30 4554 H 409.014 2.86847 5.39934 0
M  V30 4555 H 413.188 3.73066 5.88043 0
M  V30 4556 H 410.815 4.34462 6.23816 0
M  V30 4557 N 412.39 -1.55475 0.257931 0
M  V30 4558 C 413.322 -2.19192 -0.669881 0
M  V30 4559 C 414.335 -1.17148 -1.1305 0
M  V30 4560 O 415.524 -1.43959 -1.05537 0
M  V30 4561 C 412.624 -2.79016 -1.92363 0
M  V30 4562 C 411.797 -4.06586 -1.61265 0
M  V30 4563 C 410.856 -4.50622 -2.7171 0
M  V30 4564 O 409.882 -5.16765 -2.38627 0
M  V30 4565 N 411.084 -4.19325 -4.01431 0
M  V30 4566 H 413.849 -2.99441 -0.124635 0
M  V30 4567 H 411.41 -1.6171 0.0783311 0
M  V30 4568 H 413.402 -3.05427 -2.65511 0
M  V30 4569 H 411.972 -2.0286 -2.37837 0
M  V30 4570 H 411.192 -3.87646 -0.715811 0
M  V30 4571 H 412.48 -4.89737 -1.37967 0
M  V30 4572 H 411.878 -3.66247 -4.31138 0
M  V30 4573 H 410.435 -4.50547 -4.7101 0
M  V30 4574 N 413.868 0.0150385 -1.57593 0
M  V30 4575 C 415.098 0.713359 -1.93894 0
M  V30 4576 C 415.506 1.68663 -0.857289 0
M  V30 4577 O 414.849 1.82876 0.173788 0
M  V30 4578 C 414.911 1.51348 -3.26089 0
M  V30 4579 C 414.575 0.703451 -4.51554 0
M  V30 4580 C 415.572 -0.00237924 -5.199 0
M  V30 4581 C 413.257 0.653854 -4.98026 0
M  V30 4582 C 415.251 -0.746955 -6.33008 0
M  V30 4583 C 412.938 -0.0944578 -6.11027 0
M  V30 4584 C 413.936 -0.793609 -6.78374 0
M  V30 4585 O 413.624 -1.52974 -7.89211 0
M  V30 4586 H 413.356 0.204637 -0.644282 0
M  V30 4587 H 415.91 -0.0276411 -2.05381 0
M  V30 4588 H 414.14 2.29862 -3.10967 0
M  V30 4589 H 415.829 2.09572 -3.47612 0
M  V30 4590 H 416.595 0.0268803 -4.84993 0
M  V30 4591 H 412.474 1.18756 -4.45441 0
M  V30 4592 H 416.018 -1.2932 -6.85509 0
M  V30 4593 H 411.915 -0.125591 -6.45378 0
M  V30 4594 H 412.683 -1.44488 -8.05646 0
M  V30 4595 N 415.346 1.54954 0.287554 0
M  V30 4596 C 416.278 1.83224 1.37701 0
M  V30 4597 C 417.291 0.715898 1.46215 0
M  V30 4598 O 418.48 0.993565 1.48292 0
M  V30 4599 C 415.58 1.96723 2.75959 0
M  V30 4600 C 414.753 3.27253 2.90215 0
M  V30 4601 C 413.812 3.30998 4.09056 0
M  V30 4602 O 412.838 4.04457 4.00503 0
M  V30 4603 N 414.04 2.57353 5.20336 0
M  V30 4604 H 416.805 2.77254 1.138 0
M  V30 4605 H 414.366 1.54694 0.477652 0
M  V30 4606 H 416.358 1.96615 3.5373 0
M  V30 4607 H 414.928 1.09626 2.92747 0
M  V30 4608 H 414.148 3.40022 1.99447 0
M  V30 4609 H 415.436 4.13365 2.96659 0
M  V30 4610 H 414.834 1.97327 5.30169 0
M  V30 4611 H 413.391 2.62984 5.96391 0
M  V30 4612 N 416.824 -0.551391 1.4764 0
M  V30 4613 C 418.073 -1.30467 1.53822 0
M  V30 4614 C 418.386 -1.94495 0.207661 0
M  V30 4615 O 419.592 -2.71099 0.147533 0
M  V30 4616 C 418.048 -2.36616 2.71184 0
M  V30 4617 C 417.656 -1.78754 4.10793 0
M  V30 4618 C 419.4 -3.13088 2.86663 0
M  V30 4619 C 417.307 -2.82717 5.19447 0
M  V30 4620 H 416.237 -0.490584 0.572576 0
M  V30 4621 H 418.888 -0.58494 1.73927 0
M  V30 4622 H 417.27 -3.11529 2.4447 0
M  V30 4623 H 418.444 -1.10173 4.47435 0
M  V30 4624 H 416.759 -1.14846 4.00249 0
M  V30 4625 H 419.356 -3.90736 3.65007 0
M  V30 4626 H 419.699 -3.67635 1.95321 0
M  V30 4627 H 420.232 -2.45288 3.13175 0
M  V30 4628 H 416.971 -2.33018 6.12685 0
M  V30 4629 H 416.491 -3.4969 4.87316 0
M  V30 4630 H 418.17 -3.46102 5.46646 0
M  V30 4631 N 418.302 -1.35869 -0.798587 0
M  V30 4632 C 419.551 -1.28921 -1.5512 0
M  V30 4633 C 419.864 0.13208 -1.95154 0
M  V30 4634 O 421.07 0.323879 -2.69561 0
M  V30 4635 C 419.526 -2.26141 -2.79979 0
M  V30 4636 C 419.134 -3.73658 -2.47151 0
M  V30 4637 C 420.878 -2.28152 -3.57976 0
M  V30 4638 C 418.785 -4.62679 -3.6835 0
M  V30 4639 H 417.715 -0.479031 -0.582276 0
M  V30 4640 H 420.366 -1.61179 -0.877125 0
M  V30 4641 H 418.748 -1.86865 -3.49138 0
M  V30 4642 H 419.922 -4.21616 -1.85947 0
M  V30 4643 H 418.237 -3.74333 -1.82383 0
M  V30 4644 H 420.834 -2.91875 -4.4801 0
M  V30 4645 H 421.177 -1.28748 -3.95891 0
M  V30 4646 H 421.71 -2.65998 -2.95787 0
M  V30 4647 H 418.449 -5.63111 -3.35538 0
M  V30 4648 H 417.969 -4.19442 -4.28752 0
M  V30 4649 H 419.648 -4.78498 -4.35487 0
M  V30 4650 N 419.78 1.02168 -1.19998 0
M  V30 4651 C 420.713 2.10232 -0.887558 0
M  V30 4652 C 421.691 1.61827 0.158317 0
M  V30 4653 O 422.875 1.88471 0.0330249 0
M  V30 4654 C 420.002 3.37092 -0.32964 0
M  V30 4655 C 419.048 4.0438 -1.3557 0
M  V30 4656 S 419.881 4.48956 -2.91888 0
M  V30 4657 C 421.037 5.79024 -2.37658 0
M  V30 4658 H 421.27 2.36409 -1.80272 0
M  V30 4659 H 418.803 1.15211 -1.0279 0
M  V30 4660 H 420.761 4.10498 -0.0142824 0
M  V30 4661 H 419.422 3.08996 0.563941 0
M  V30 4662 H 418.615 4.95632 -0.9146 0
M  V30 4663 H 418.217 3.37176 -1.61828 0
M  V30 4664 H 420.509 6.53942 -1.77103 0
M  V30 4665 H 421.452 6.27924 -3.27287 0
M  V30 4666 H 421.86 5.35043 -1.79971 0
M  V30 4667 N 421.258 1.00505 1.21394 0
M  V30 4668 C 422.486 0.706609 1.9446 0
M  V30 4669 C 422.901 -0.73081 1.74082 0
M  V30 4670 O 422.258 -1.49446 1.04747 0
M  V30 4671 C 422.309 1.01824 3.46863 0
M  V30 4672 O 422.03 2.39919 3.66566 0
M  V30 4673 C 423.531 0.739216 4.37093 0
M  V30 4674 H 420.751 0.260394 0.618414 0
M  V30 4675 H 423.295 1.34311 1.54211 0
M  V30 4676 H 421.45 0.427343 3.85036 0
M  V30 4677 H 421.864 2.50784 4.6066 0
M  V30 4678 H 423.338 1.00744 5.42729 0
M  V30 4679 H 423.815 -0.326746 4.37983 0
M  V30 4680 H 424.421 1.31173 4.04566 0
M  V30 4681 N 422.737 -1.36956 0.779787 0
M  V30 4682 C 423.67 -2.27896 0.117681 0
M  V30 4683 C 424.648 -1.46736 -0.700523 0
M  V30 4684 O 425.832 -1.76055 -0.673568 0
M  V30 4685 C 422.959 -3.28136 -0.839296 0
M  V30 4686 C 422.005 -4.26373 -0.10409 0
M  V30 4687 S 422.838 -5.2157 1.21348 0
M  V30 4688 C 423.994 -6.25359 0.260249 0
M  V30 4689 H 424.227 -2.83704 0.888778 0
M  V30 4690 H 421.76 -1.43352 0.57355 0
M  V30 4691 H 423.718 -3.86394 -1.38601 0
M  V30 4692 H 422.379 -2.7126 -1.58356 0
M  V30 4693 H 421.572 -4.97121 -0.82986 0
M  V30 4694 H 421.174 -3.72147 0.371858 0
M  V30 4695 H 423.466 -6.75145 -0.564435 0
M  V30 4696 H 424.409 -7.01885 0.936135 0
M  V30 4697 H 424.817 -5.64345 -0.132127 0
M  V30 4698 N 424.215 -0.530993 -1.48385 0
M  V30 4699 C 425.464 0.00474348 -2.01699 0
M  V30 4700 C 425.777 1.35227 -1.41325 0
M  V30 4701 O 426.983 1.97643 -1.86144 0
M  V30 4702 C 425.439 0.0588473 -3.59852 0
M  V30 4703 C 425.047 -1.28385 -4.2921 0
M  V30 4704 C 426.791 0.543358 -4.21008 0
M  V30 4705 C 424.698 -1.19028 -5.79298 0
M  V30 4706 H 423.628 0.00554317 -0.75398 0
M  V30 4707 H 426.279 -0.674924 -1.70637 0
M  V30 4708 H 424.661 0.803612 -3.8776 0
M  V30 4709 H 425.835 -2.04426 -4.12973 0
M  V30 4710 H 424.15 -1.70418 -3.7993 0
M  V30 4711 H 426.747 0.631351 -5.3096 0
M  V30 4712 H 427.09 1.54937 -3.86394 0
M  V30 4713 H 427.623 -0.145754 -3.97533 0
M  V30 4714 H 424.362 -2.17147 -6.18488 0
M  V30 4715 H 423.882 -0.471246 -5.97946 0
M  V30 4716 H 425.561 -0.881365 -6.40969 0
M  V30 4717 N 425.693 1.55336 -0.266172 0
M  V30 4718 C 426.939 1.99692 0.353681 0
M  V30 4719 C 427.272 1.1543 1.56172 0
M  V30 4720 O 426.547 0.222218 1.93226 0
M  V30 4721 C 426.83 3.52316 0.74466 0
M  V30 4722 C 426.683 4.47337 -0.470101 0
M  V30 4723 C 428.002 4.10588 1.58447 0
M  V30 4724 H 425.121 0.725961 0.12708 0
M  V30 4725 H 427.763 1.86336 -0.371333 0
M  V30 4726 H 425.913 3.63829 1.36239 0
M  V30 4727 H 427.585 4.4778 -1.10864 0
M  V30 4728 H 425.828 4.19364 -1.10978 0
M  V30 4729 H 426.499 5.51788 -0.15291 0
M  V30 4730 H 428.975 4.02297 1.06286 0
M  V30 4731 H 427.851 5.17607 1.82686 0
M  V30 4732 H 428.112 3.60253 2.56262 0
M  V30 4733 N 427.171 -0.0066808 1.57599 0
M  V30 4734 C 428.121 -1.0086 2.04478 0
M  V30 4735 C 429.105 -1.30714 0.938231 0
M  V30 4736 O 430.297 -1.29924 1.20203 0
M  V30 4737 C 427.426 -2.30273 2.54615 0
M  V30 4738 C 426.512 -2.03413 3.72134 0
M  V30 4739 N 426.903 -1.46688 4.84062 0
M  V30 4740 C 425.201 -2.33589 3.79937 0
M  V30 4741 C 425.902 -1.36146 5.65543 0
M  V30 4742 N 424.878 -1.84477 5.1134 0
M  V30 4743 H 428.68 -0.564402 2.8843 0
M  V30 4744 H 426.194 -0.212521 1.61003 0
M  V30 4745 H 428.191 -3.02885 2.86472 0
M  V30 4746 H 426.851 -2.75352 1.72079 0
M  V30 4747 H 427.862 -1.14658 5.05049 0
M  V30 4748 H 424.539 -2.81589 3.08243 0
M  V30 4749 H 425.929 -0.925873 6.6549 0
M  V30 4750 N 428.649 -1.55105 -0.279332 0
M  V30 4751 C 429.596 -1.8755 -1.34513 0
M  V30 4752 C 430.566 -0.726384 -1.49375 0
M  V30 4753 O 431.751 -0.977063 -1.63884 0
M  V30 4754 C 428.891 -2.14738 -2.70151 0
M  V30 4755 C 428.004 -3.42285 -2.63562 0
M  V30 4756 C 427.139 -3.59206 -3.91337 0
M  V30 4757 C 426.178 -4.80467 -3.79233 0
M  V30 4758 N 425.315 -4.94079 -4.98829 0
M  V30 4759 H 430.155 -2.78456 -1.06143 0
M  V30 4760 H 427.692 -1.37867 -0.512936 0
M  V30 4761 H 429.65 -2.28501 -3.49061 0
M  V30 4762 H 428.28 -1.27075 -2.96735 0
M  V30 4763 H 427.332 -3.37029 -1.76397 0
M  V30 4764 H 428.644 -4.31328 -2.50515 0
M  V30 4765 H 427.798 -3.72751 -4.78687 0
M  V30 4766 H 426.537 -2.68337 -4.07243 0
M  V30 4767 H 425.542 -4.66932 -2.90266 0
M  V30 4768 H 426.767 -5.72765 -3.64852 0
M  V30 4769 H 424.713 -4.06139 -5.15158 0
M  V30 4770 H 424.63 -5.77156 -4.8829 0
M  V30 4771 H 425.898 -5.12003 -5.8777 0
M  V30 4772 N 430.127 0.543554 -1.4793 0
M  V30 4773 C 431.075 1.67039 -1.61866 0
M  V30 4774 C 432.069 1.62294 -0.48549 0
M  V30 4775 O 433.275 1.67315 -0.66376 0
M  V30 4776 H 429.65 0.552954 -0.509652 0
M  V30 4777 H 431.621 1.52426 -2.56533 0
M  V30 4778 C 430.37 3.05357 -1.6629 0
M  V30 4779 H 429.693 3.09696 -2.5284 0
M  V30 4780 H 431.133 3.83855 -1.80088 0
M  V30 4781 C 429.592 3.34531 -0.398861 0
M  V30 4782 O 430.122 3.98649 0.494162 0
M  V30 4783 N 428.328 2.89299 -0.2747 0
M  V30 4784 H 427.875 2.37298 -1.00236 0
M  V30 4785 H 427.833 3.09188 0.570075 0
M  V30 4786 N 431.605 1.3629 0.791371 0
M  V30 4787 C 432.851 1.31613 1.5508 0
M  V30 4788 C 433.206 -0.104372 1.92117 0
M  V30 4789 O 432.499 -1.05845 1.5971 0
M  V30 4790 C 432.693 2.17068 2.8393 0
M  V30 4791 C 432.522 3.67285 2.59484 0
M  V30 4792 C 431.292 4.36469 2.54604 0
M  V30 4793 C 433.49 4.60595 2.28816 0
M  V30 4794 N 431.472 5.7234 2.22036 0
M  V30 4795 C 432.843 5.847 2.06218 0
M  V30 4796 C 434.898 4.4918 2.14806 0
M  V30 4797 C 433.601 6.98671 1.71028 0
M  V30 4798 C 435.627 5.63017 1.81014 0
M  V30 4799 C 434.989 6.86159 1.59263 0
M  V30 4800 H 431.088 0.536878 0.568582 0
M  V30 4801 H 433.672 1.71323 0.925007 0
M  V30 4802 H 431.843 1.79605 3.44378 0
M  V30 4803 H 433.575 2.03795 3.49642 0
M  V30 4804 H 430.33 3.89249 2.69782 0
M  V30 4805 H 430.754 6.44093 2.08503 0
M  V30 4806 H 435.396 3.54564 2.30313 0
M  V30 4807 H 433.114 7.9324 1.54259 0
M  V30 4808 H 436.7 5.56146 1.70861 0
M  V30 4809 H 435.58 7.72753 1.335 0
M  V30 4810 N 433.083 -1.0153 1.20538 0
M  V30 4811 C 434.329 -1.75408 1.01783 0
M  V30 4812 C 434.662 -1.88943 -0.448814 0
M  V30 4813 O 433.937 -1.4162 -1.33319 0
M  V30 4814 C 434.22 -3.17255 1.70356 0
M  V30 4815 C 434.073 -3.11508 3.24473 0
M  V30 4816 C 435.392 -4.15955 1.43769 0
M  V30 4817 H 432.511 -0.636713 0.371167 0
M  V30 4818 H 435.153 -1.18436 1.4857 0
M  V30 4819 H 433.303 -3.65898 1.30578 0
M  V30 4820 H 434.975 -2.70658 3.73553 0
M  V30 4821 H 433.218 -2.4887 3.55311 0
M  V30 4822 H 433.889 -4.11784 3.67611 0
M  V30 4823 H 436.365 -3.75973 1.7828 0
M  V30 4824 H 435.241 -5.13368 1.94279 0
M  V30 4825 H 435.502 -4.40586 0.365564 0
M  V30 4826 N 434.561 -1.01147 -1.20859 0
M  V30 4827 C 435.838 -0.613136 -1.85742 0
M  V30 4828 C 436.218 0.909004 -1.90526 0
M  V30 4829 O 435.566 1.79862 -1.40932 0
M  V30 4830 C 435.776 -1.255 -3.25654 0
M  V30 4831 C 437.124 -1.3672 -4.01986 0
M  V30 4832 O 438.148 -1.21082 -3.34989 0
M  V30 4833 O 437.007 -1.6194 -5.21956 0
M  V30 4834 H 434.101 -0.210878 -0.799662 0
M  V30 4835 H 436.647 -1.10853 -1.2849 0
M  V30 4836 H 435.419 -2.29532 -3.16908 0
M  V30 4837 H 435.042 -0.746369 -3.90532 0
M  V30 4838 N 436.039 1.36541 -0.78704 0
M  V30 4839 C 436.969 2.32659 -0.197992 0
M  V30 4840 C 437.95 1.56533 0.665697 0
M  V30 4841 O 439.135 1.84698 0.60001 0
M  V30 4842 C 436.265 3.40778 0.669901 0
M  V30 4843 C 435.219 4.27897 -0.0937039 0
M  V30 4844 C 434.545 5.27163 0.894629 0
M  V30 4845 C 435.845 5.06334 -1.28154 0
M  V30 4846 H 437.539 2.82171 -1.00099 0
M  V30 4847 H 435.085 1.35665 -0.482793 0
M  V30 4848 H 437.038 4.07008 1.09191 0
M  V30 4849 H 435.762 2.89827 1.50558 0
M  V30 4850 H 434.421 3.6322 -0.49666 0
M  V30 4851 H 434.069 4.72486 1.72527 0
M  V30 4852 H 433.769 5.86317 0.388149 0
M  V30 4853 H 435.293 5.96266 1.31525 0
M  V30 4854 H 436.707 5.65617 -0.93541 0
M  V30 4855 H 435.104 5.74888 -1.72115 0
M  V30 4856 H 436.174 4.38114 -2.07807 0
M  V30 4857 N 437.518 0.538854 1.48102 0
M  V30 4858 C 438.481 -0.208395 2.28251 0
M  V30 4859 C 439.481 -0.859656 1.35892 0
M  V30 4860 O 440.671 -0.71834 1.58699 0
M  V30 4861 C 437.803 -1.30252 3.15035 0
M  V30 4862 H 438.996 0.495407 2.9578 0
M  V30 4863 H 436.549 0.295112 1.53489 0
M  V30 4864 H 437.284 -2.0393 2.52157 0
M  V30 4865 H 437.069 -0.840551 3.82985 0
M  V30 4866 H 438.559 -1.82787 3.75471 0
M  V30 4867 N 438.996 -1.55193 0.274407 0
M  V30 4868 C 440.242 -2.00604 -0.33608 0
M  V30 4869 C 440.597 -1.15948 -1.53538 0
M  V30 4870 O 439.89 -0.221385 -1.90317 0
M  V30 4871 C 440.084 -3.49019 -0.769458 0
M  V30 4872 C 439.913 -4.48038 0.386301 0
M  V30 4873 C 438.683 -4.97757 0.869854 0
M  V30 4874 C 440.881 -4.99558 1.22254 0
M  V30 4875 N 438.863 -5.80575 1.99515 0
M  V30 4876 C 440.234 -5.79816 2.19575 0
M  V30 4877 C 442.289 -4.81799 1.25597 0
M  V30 4878 C 440.992 -6.44208 3.19981 0
M  V30 4879 C 443.018 -5.46989 2.24848 0
M  V30 4880 C 442.38 -6.27058 3.20901 0
M  V30 4881 H 438.479 -0.777013 -0.088172 0
M  V30 4882 H 441.063 -1.90583 0.398266 0
M  V30 4883 H 439.234 -3.59383 -1.47303 0
M  V30 4884 H 440.966 -3.81263 -1.35722 0
M  V30 4885 H 437.721 -4.71464 0.449281 0
M  V30 4886 H 438.145 -6.26675 2.5614 0
M  V30 4887 H 442.787 -4.19501 0.527158 0
M  V30 4888 H 440.505 -7.05656 3.93796 0
M  V30 4889 H 444.091 -5.35189 2.28174 0
M  V30 4890 H 442.971 -6.7661 3.96445 0
M  V30 4891 N 440.474 -0.00167713 -1.576 0
M  V30 4892 C 441.437 0.974046 -2.07473 0
M  V30 4893 C 442.437 1.27143 -0.984444 0
M  V30 4894 O 443.627 1.21633 -1.24703 0
M  V30 4895 C 440.759 2.29849 -2.51759 0
M  V30 4896 H 441.952 0.54262 -2.9495 0
M  V30 4897 H 439.505 0.245829 -1.54355 0
M  V30 4898 H 440.24 2.77677 -1.67529 0
M  V30 4899 H 440.025 2.09584 -3.31386 0
M  V30 4900 H 441.515 2.9984 -2.90664 0
M  V30 4901 N 441.952 1.55251 0.271103 0
M  V30 4902 C 443.198 1.76207 1.00394 0
M  V30 4903 C 443.531 0.562604 1.85872 0
M  V30 4904 O 442.806 -0.439785 1.89463 0
M  V30 4905 C 443.089 3.06828 1.8849 0
M  V30 4906 C 442.942 4.37134 1.05992 0
M  V30 4907 C 444.261 3.33503 2.87165 0
M  V30 4908 H 441.38 0.641086 0.363562 0
M  V30 4909 H 444.022 1.87982 0.276189 0
M  V30 4910 H 442.172 2.96921 2.5054 0
M  V30 4911 H 443.844 4.59001 0.459978 0
M  V30 4912 H 442.087 4.32275 0.363443 0
M  V30 4913 H 442.758 5.2486 1.70955 0
M  V30 4914 H 445.234 3.43215 2.3525 0
M  V30 4915 H 444.11 4.2616 3.45946 0
M  V30 4916 H 444.371 2.53235 3.62387 0
M  V30 4917 N 443.43 -0.535701 1.48216 0
M  V30 4918 C 444.655 -1.32149 1.59848 0
M  V30 4919 C 445.08 -1.86338 0.256842 0
M  V30 4920 O 444.438 -1.64107 -0.770632 0
M  V30 4921 C 444.486 -2.45224 2.64381 0
M  V30 4922 O 443.59 -3.48093 2.21144 0
M  V30 4923 H 442.931 -0.391634 0.536208 0
M  V30 4924 H 445.461 -0.645202 1.94161 0
M  V30 4925 H 445.471 -2.91491 2.85476 0
M  V30 4926 H 444.146 -2.05143 3.61786 0
M  V30 4927 H 442.723 -3.07984 2.10239 0
M  V30 4928 N 444.908 -1.36708 -0.784132 0
M  V30 4929 C 446.138 -1.34203 -1.57077 0
M  V30 4930 C 446.546 0.0774945 -1.89041 0
M  V30 4931 O 445.889 1.04628 -1.50992 0
M  V30 4932 C 445.951 -2.10351 -2.91535 0
M  V30 4933 C 445.615 -3.59405 -2.82272 0
M  V30 4934 C 446.612 -4.53545 -2.54151 0
M  V30 4935 C 444.297 -4.02362 -3.00683 0
M  V30 4936 C 446.291 -5.8862 -2.44551 0
M  V30 4937 C 443.978 -5.37526 -2.90704 0
M  V30 4938 C 444.976 -6.30468 -2.62677 0
M  V30 4939 O 444.664 -7.63149 -2.52702 0
M  V30 4940 H 444.396 -0.461791 -0.493685 0
M  V30 4941 H 446.95 -1.80475 -0.980712 0
M  V30 4942 H 445.18 -1.5875 -3.52612 0
M  V30 4943 H 446.869 -2.00636 -3.52845 0
M  V30 4944 H 447.635 -4.21669 -2.39625 0
M  V30 4945 H 443.514 -3.30389 -3.21503 0
M  V30 4946 H 447.058 -6.61133 -2.22596 0
M  V30 4947 H 442.955 -5.69008 -3.04795 0
M  V30 4948 H 443.723 -7.73331 -2.68144 0
M  V30 4949 N 446.386 1.0089 -1.21074 0
M  V30 4950 C 447.616 1.77933 -1.04993 0
M  V30 4951 C 448.024 1.84847 0.403495 0
M  V30 4952 O 447.367 1.30606 1.29181 0
M  V30 4953 C 447.429 3.23541 -1.56722 0
M  V30 4954 C 447.093 3.40214 -3.05129 0
M  V30 4955 C 448.09 3.2881 -4.02716 0
M  V30 4956 C 445.775 3.65781 -3.44252 0
M  V30 4957 C 447.769 3.42732 -5.37414 0
M  V30 4958 C 445.456 3.79346 -4.79103 0
M  V30 4959 C 446.454 3.67827 -5.75493 0
M  V30 4960 O 446.142 3.80965 -7.07899 0
M  V30 4961 H 445.874 0.566157 -0.369381 0
M  V30 4962 H 448.428 1.27826 -1.60779 0
M  V30 4963 H 446.658 3.74766 -0.953285 0
M  V30 4964 H 448.347 3.82245 -1.36543 0
M  V30 4965 H 449.113 3.08986 -3.73835 0
M  V30 4966 H 444.992 3.73831 -2.69762 0
M  V30 4967 H 448.536 3.33658 -6.12632 0
M  V30 4968 H 444.433 3.98672 -5.07672 0
M  V30 4969 H 445.201 3.97937 -7.15254 0
M  V30 4970 N 447.864 1.01787 1.20321 0
M  V30 4971 C 449.113 0.703249 1.89043 0
M  V30 4972 C 449.426 -0.770445 1.79787 0
M  V30 4973 O 450.632 -1.19767 2.43656 0
M  V30 4974 C 449.088 1.20749 3.3904 0
M  V30 4975 C 448.696 2.70817 3.56878 0
M  V30 4976 C 450.44 0.968352 4.13308 0
M  V30 4977 C 448.347 3.14716 5.00708 0
M  V30 4978 H 447.277 0.259354 0.707991 0
M  V30 4979 H 449.928 1.23072 1.36108 0
M  V30 4980 H 448.31 0.607989 3.91305 0
M  V30 4981 H 449.484 3.36327 3.14993 0
M  V30 4982 H 447.799 2.92888 2.95983 0
M  V30 4983 H 450.396 1.27173 5.19356 0
M  V30 4984 H 450.739 -0.095149 4.16191 0
M  V30 4985 H 451.272 1.53129 3.67146 0
M  V30 4986 H 448.011 4.20347 5.02979 0
M  V30 4987 H 447.531 2.53927 5.43398 0
M  V30 4988 H 449.21 3.07426 5.69296 0
M  V30 4989 N 449.342 -1.36122 0.79427 0
M  V30 4990 C 450.758 -1.5232 0.476525 0
M  V30 4991 C 450.958 -1.74685 -1.00436 0
M  V30 4992 O 450.014 -1.78115 -1.78973 0
M  V30 4993 C 451.327 -2.70607 1.31119 0
M  V30 4994 C 452.875 -2.8448 1.30537 0
M  V30 4995 C 453.35 -4.05778 2.12387 0
M  V30 4996 N 454.841 -4.12933 2.09859 0
M  V30 4997 C 455.576 -5.05876 2.69957 0
M  V30 4998 N 455.072 -6.04232 3.38934 0
M  V30 4999 N 456.865 -4.98528 2.59665 0
M  V30 5000 H 449.016 -1.1986 1.75349 0
M  V30 5001 H 451.279 -0.585418 0.745647 0
M  V30 5002 H 450.985 -2.60619 2.36158 0
M  V30 5003 H 450.859 -3.64888 0.955843 0
M  V30 5004 H 453.246 -2.93927 0.262876 0
M  V30 5005 H 453.327 -1.91093 1.70051 0
M  V30 5006 H 452.971 -3.97092 3.1667 0
M  V30 5007 H 452.901 -4.98323 1.70242 0
M  V30 5008 H 455.392 -3.42515 1.59662 0
M  V30 5009 H 455.705 -6.71724 3.82109 0
M  V30 5010 H 454.05 -6.04443 3.43036 0
M  V30 5011 H 457.241 -4.20641 2.05375 0
M  V30 5012 H 457.414 -5.70773 3.06793 0
M  V30 5013 N 450.82 -0.546701 -1.47814 0
M  V30 5014 C 452.067 -0.0187407 -2.02491 0
M  V30 5015 C 452.395 1.32685 -1.42215 0
M  V30 5016 O 451.65 1.87413 -0.563454 0
M  V30 5017 C 451.949 0.134869 -3.57145 0
M  V30 5018 C 451.615 -1.13849 -4.3629 0
M  V30 5019 C 450.277 -1.48743 -4.57634 0
M  V30 5020 C 452.629 -1.98277 -4.82012 0
M  V30 5021 C 449.957 -2.67932 -5.21948 0
M  V30 5022 C 452.309 -3.16659 -5.4764 0
M  V30 5023 C 450.973 -3.51879 -5.67219 0
M  V30 5024 H 450.243 -0.0068577 -0.740968 0
M  V30 5025 H 452.89 -0.716097 -1.77607 0
M  V30 5026 H 451.195 0.915118 -3.80963 0
M  V30 5027 H 452.892 0.558556 -3.97091 0
M  V30 5028 H 449.482 -0.856767 -4.19949 0
M  V30 5029 H 453.666 -1.72628 -4.6531 0
M  V30 5030 H 448.922 -2.95401 -5.35302 0
M  V30 5031 H 453.096 -3.82374 -5.82033 0
M  V30 5032 H 450.723 -4.44331 -6.16825 0
M  V30 5033 N 452.299 1.55045 -0.282633 0
M  V30 5034 C 453.546 1.9976 0.33199 0
M  V30 5035 C 453.874 1.17105 1.55295 0
M  V30 5036 O 453.129 0.230599 1.94337 0
M  V30 5037 C 453.428 3.49422 0.750938 0
M  V30 5038 C 453.094 4.4941 -0.366228 0
M  V30 5039 C 451.756 4.76471 -0.672964 0
M  V30 5040 C 454.108 5.09054 -1.11864 0
M  V30 5041 C 451.436 5.60442 -1.73556 0
M  V30 5042 C 453.788 5.9418 -2.17102 0
M  V30 5043 C 452.452 6.19558 -2.48402 0
M  V30 5044 H 451.722 0.730974 0.121484 0
M  V30 5045 H 454.369 1.8732 -0.39791 0
M  V30 5046 H 452.674 3.59377 1.56063 0
M  V30 5047 H 454.371 3.81432 1.23736 0
M  V30 5048 H 450.961 4.2844 -0.117041 0
M  V30 5049 H 455.145 4.88165 -0.894925 0
M  V30 5050 H 450.401 5.78349 -1.983 0
M  V30 5051 H 454.575 6.39427 -2.75873 0
M  V30 5052 H 452.202 6.84417 -3.30874 0
M  V30 5053 N 453.777 0.010035 1.57597 0
M  V30 5054 C 455.026 -0.671945 1.90178 0
M  V30 5055 C 455.339 -1.74376 0.886131 0
M  V30 5056 O 456.545 -2.48107 1.10252 0
M  V30 5057 C 455.001 -1.24636 3.3763 0
M  V30 5058 C 454.609 -0.208838 4.47513 0
M  V30 5059 C 456.353 -1.90595 3.79307 0
M  V30 5060 C 454.26 -0.793814 5.86048 0
M  V30 5061 H 453.19 -0.25474 0.709665 0
M  V30 5062 H 455.841 0.0722206 1.83358 0
M  V30 5063 H 454.223 -2.04152 3.3932 0
M  V30 5064 H 455.397 0.562463 4.57354 0
M  V30 5065 H 453.712 0.350889 4.14919 0
M  V30 5066 H 456.309 -2.35284 4.80151 0
M  V30 5067 H 456.652 -2.74074 3.13352 0
M  V30 5068 H 457.185 -1.17798 3.79958 0
M  V30 5069 H 453.924 0.00240855 6.555 0
M  V30 5070 H 453.444 -1.53404 5.79851 0
M  V30 5071 H 455.123 -1.2894 6.34022 0
M  V30 5072 N 455.255 -1.55392 -0.262866 0
M  V30 5073 C 456.483 -1.80513 -1.01108 0
M  V30 5074 C 456.898 -0.583533 -1.79556 0
M  V30 5075 O 456.255 0.447585 -1.76926 0
M  V30 5076 C 456.306 -3.03648 -1.96164 0
M  V30 5077 O 456.027 -4.2109 -1.20893 0
M  V30 5078 C 457.528 -3.41448 -2.82715 0
M  V30 5079 H 454.748 -0.601079 -0.298236 0
M  V30 5080 H 457.292 -2.02425 -0.290582 0
M  V30 5081 H 455.447 -2.83832 -2.63663 0
M  V30 5082 H 455.861 -4.90771 -1.85051 0
M  V30 5083 H 457.335 -4.30751 -3.45192 0
M  V30 5084 H 457.812 -2.61308 -3.53008 0
M  V30 5085 H 458.418 -3.63559 -2.20693 0
M  V30 5086 N 456.733 0.527833 -1.48498 0
M  V30 5087 C 457.963 1.30633 -1.60058 0
M  V30 5088 C 458.371 1.87394 -0.260786 0
M  V30 5089 O 457.714 1.67227 0.760317 0
M  V30 5090 C 457.776 2.49361 -2.58958 0
M  V30 5091 C 457.44 2.13671 -4.03972 0
M  V30 5092 C 458.437 1.69217 -4.91591 0
M  V30 5093 C 456.122 2.24129 -4.49524 0
M  V30 5094 C 458.116 1.35689 -6.2279 0
M  V30 5095 C 455.803 1.90212 -5.80743 0
M  V30 5096 C 456.801 1.46063 -6.67199 0
M  V30 5097 O 456.489 1.12593 -7.95976 0
M  V30 5098 H 456.221 0.403444 -0.54241 0
M  V30 5099 H 458.775 0.643233 -1.95068 0
M  V30 5100 H 457.005 3.18659 -2.19073 0
M  V30 5101 H 458.694 3.11421 -2.6033 0
M  V30 5102 H 459.46 1.60607 -4.57636 0
M  V30 5103 H 455.339 2.57447 -3.82416 0
M  V30 5104 H 458.883 1.01157 -6.90227 0
M  V30 5105 H 454.78 1.98464 -6.14233 0
M  V30 5106 H 455.548 1.25972 -8.08748 0
M  V30 5107 N 458.211 1.37122 0.776871 0
M  V30 5108 C 459.46 1.31373 1.53049 0
M  V30 5109 C 459.773 -0.101016 1.95339 0
M  V30 5110 O 460.979 -0.280953 2.70042 0
M  V30 5111 C 459.435 2.30567 2.76346 0
M  V30 5112 C 459.043 3.77543 2.41175 0
M  V30 5113 C 460.787 2.33818 3.54301 0
M  V30 5114 C 458.694 4.68481 3.60943 0
M  V30 5115 H 457.624 0.488234 0.574581 0
M  V30 5116 H 460.275 1.62554 0.851372 0
M  V30 5117 H 458.657 1.92396 3.46121 0
M  V30 5118 H 459.831 4.24521 1.79216 0
M  V30 5119 H 458.146 3.77187 1.76405 0
M  V30 5120 H 460.743 2.98965 4.4331 0
M  V30 5121 H 461.086 1.3503 3.93793 0
M  V30 5122 H 461.619 2.7067 2.91518 0
M  V30 5123 H 458.358 5.68378 3.26537 0
M  V30 5124 H 457.878 4.2621 4.22025 0
M  V30 5125 H 459.557 4.85366 4.27819 0
M  V30 5126 N 459.689 -1.00246 1.21608 0
M  V30 5127 C 461.1 -1.55511 1.03312 0
M  V30 5128 C 461.451 -1.91946 -0.406332 0
M  V30 5129 O 460.576 -1.73753 -1.28992 0
M  V30 5130 C 461.171 -2.82576 1.86913 0
M  V30 5131 C 459.73 -3.34318 1.72941 0
M  V30 5132 C 458.877 -2.07487 1.83968 0
M  V30 5133 H 461.828 -0.824638 1.35593 0
M  V30 5134 H 461.849 -3.54559 1.38087 0
M  V30 5135 H 461.361 -2.56026 2.91672 0
M  V30 5136 H 459.462 -3.65797 0.70877 0
M  V30 5137 H 459.575 -4.05566 2.55055 0
M  V30 5138 H 457.939 -2.20603 1.27304 0
M  V30 5139 H 458.722 -1.83346 2.9024 0
M  V30 5140 N 461.167 -1.02423 -1.1978 0
M  V30 5141 C 462.414 -0.717988 -1.89344 0
M  V30 5142 C 462.742 0.753036 -1.79331 0
M  V30 5143 O 461.997 1.56355 -1.17692 0
M  V30 5144 C 462.296 -1.1088 -3.39765 0
M  V30 5145 C 461.962 -2.57731 -3.6998 0
M  V30 5146 C 460.624 -2.97854 -3.77937 0
M  V30 5147 C 462.976 -3.52763 -3.83677 0
M  V30 5148 C 460.304 -4.31931 -3.97054 0
M  V30 5149 C 462.656 -4.86538 -4.04306 0
M  V30 5150 C 461.32 -5.26356 -4.10494 0
M  V30 5151 H 460.59 -0.26273 -0.692859 0
M  V30 5152 H 463.237 -1.28623 -1.41875 0
M  V30 5153 H 461.542 -0.459094 -3.89101 0
M  V30 5154 H 463.239 -0.849432 -3.919 0
M  V30 5155 H 459.829 -2.25646 -3.64393 0
M  V30 5156 H 464.013 -3.2292 -3.76877 0
M  V30 5157 H 459.269 -4.62324 -4.00083 0
M  V30 5158 H 463.443 -5.60093 -4.13846 0
M  V30 5159 H 461.07 -6.3026 -4.2506 0
M  V30 5160 N 462.645 1.35699 -0.801477 0
M  V30 5161 C 463.875 2.02862 -0.3912 0
M  V30 5162 C 464.283 1.60552 1.00099 0
M  V30 5163 O 463.626 0.796215 1.65548 0
M  V30 5164 C 463.688 3.57386 -0.389299 0
M  V30 5165 C 463.352 4.22943 -1.73113 0
M  V30 5166 C 464.349 4.44984 -2.68859 0
M  V30 5167 C 462.034 4.60167 -2.01373 0
M  V30 5168 C 464.028 5.03345 -3.91053 0
M  V30 5169 C 461.715 5.18243 -3.23832 0
M  V30 5170 C 462.713 5.39773 -4.1849 0
M  V30 5171 O 462.401 5.96626 -5.38788 0
M  V30 5172 H 462.133 0.657341 -0.157732 0
M  V30 5173 H 464.687 1.74407 -1.08496 0
M  V30 5174 H 462.917 3.85011 0.361031 0
M  V30 5175 H 464.606 4.059 -0.0020365 0
M  V30 5176 H 465.372 4.1661 -2.48316 0
M  V30 5177 H 461.251 4.42726 -1.28508 0
M  V30 5178 H 464.795 5.20065 -4.64949 0
M  V30 5179 H 460.692 5.46044 -3.44248 0
M  V30 5180 H 461.46 6.15082 -5.40015 0
M  V30 5181 N 464.123 0.554532 1.47522 0
M  V30 5182 C 465.371 0.0294208 2.02079 0
M  V30 5183 C 465.692 -1.32411 1.43151 0
M  V30 5184 O 464.962 -1.863 0.605728 0
M  V30 5185 H 463.542 0.00788672 0.746958 0
M  V30 5186 H 466.204 0.723934 1.80956 0
M  V30 5187 H 465.3 -0.0606745 3.12041 0
M  V30 5188 N 465.601 -1.54893 0.290851 0
M  V30 5189 C 466.85 -1.99111 -0.322113 0
M  V30 5190 C 467.163 -1.18283 -1.55784 0
M  V30 5191 O 468.369 -1.5272 -2.24475 0
M  V30 5192 C 466.825 -3.54442 -0.624438 0
M  V30 5193 C 466.433 -4.44066 0.592373 0
M  V30 5194 C 468.177 -4.07211 -1.19916 0
M  V30 5195 C 466.084 -5.90812 0.263762 0
M  V30 5196 H 465.014 -0.743712 -0.124133 0
M  V30 5197 H 467.665 -1.79132 0.39797 0
M  V30 5198 H 466.047 -3.70281 -1.40384 0
M  V30 5199 H 467.221 -4.39999 1.36886 0
M  V30 5200 H 465.536 -4.02015 1.08502 0
M  V30 5201 H 468.133 -5.14407 -1.45909 0
M  V30 5202 H 468.476 -3.57196 -2.13815 0
M  V30 5203 H 469.009 -3.94873 -0.481687 0
M  V30 5204 H 465.748 -6.44955 1.17105 0
M  V30 5205 H 465.268 -5.97911 -0.475655 0
M  V30 5206 H 466.947 -6.46852 -0.138354 0
M  V30 5207 N 467.08 -0.0183926 -1.57589 0
M  V30 5208 C 468.01 0.965596 -2.12599 0
M  V30 5209 C 468.991 1.34641 -1.0395 0
M  V30 5210 O 470.176 1.42693 -1.31729 0
M  V30 5211 C 467.306 2.25149 -2.64434 0
M  V30 5212 C 466.26 2.01175 -3.77773 0
M  V30 5213 C 465.586 3.35937 -4.15994 0
M  V30 5214 C 466.886 1.35953 -5.04296 0
M  V30 5215 H 468.58 0.507504 -2.95067 0
M  V30 5216 H 466.126 0.242671 -1.41941 0
M  V30 5217 H 468.079 2.94357 -3.01549 0
M  V30 5218 H 466.803 2.73105 -1.79112 0
M  V30 5219 H 465.462 1.34388 -3.4108 0
M  V30 5220 H 465.11 3.81631 -3.27669 0
M  V30 5221 H 464.81 3.20705 -4.92364 0
M  V30 5222 H 466.334 4.0643 -4.55683 0
M  V30 5223 H 467.748 1.95144 -5.39065 0
M  V30 5224 H 466.145 1.31152 -5.85593 0
M  V30 5225 H 467.215 0.331071 -4.83768 0
M  V30 5226 N 468.558 1.5553 0.254621 0
M  V30 5227 C 469.806 1.7665 0.981793 0
M  V30 5228 C 470.127 0.580963 1.86145 0
M  V30 5229 O 469.397 -0.403537 1.91699 0
M  V30 5230 H 467.977 0.651475 0.365498 0
M  V30 5231 H 470.639 1.92958 0.274426 0
M  V30 5232 H 469.735 2.67486 1.60802 0
M  V30 5233 N 470.036 -0.519951 1.48776 0
M  V30 5234 C 470.999 -1.60574 1.6355 0
M  V30 5235 C 471.999 -1.52557 0.508234 0
M  V30 5236 O 473.189 -1.56047 0.774262 0
M  V30 5237 C 470.321 -3.00211 1.61512 0
M  V30 5238 H 471.514 -1.4881 2.60376 0
M  V30 5239 H 469.067 -0.742772 1.37523 0
M  V30 5240 H 469.802 -3.17471 0.662009 0
M  V30 5241 H 469.587 -3.07439 2.43359 0
M  V30 5242 H 471.077 -3.79134 1.75064 0
M  V30 5243 N 471.514 -1.37532 -0.769588 0
M  V30 5244 C 472.444 -1.36172 -1.89682 0
M  V30 5245 C 473.425 -0.23001 -1.68538 0
M  V30 5246 O 474.61 -0.43069 -1.89364 0
M  V30 5247 C 471.74 -1.1701 -3.26995 0
M  V30 5248 C 470.694 -2.27216 -3.62708 0
M  V30 5249 C 470.02 -1.93174 -4.98586 0
M  V30 5250 C 471.32 -3.6941 -3.69234 0
M  V30 5251 H 473.014 -2.30499 -1.91078 0
M  V30 5252 H 470.56 -1.10953 -0.917902 0
M  V30 5253 H 472.513 -1.14688 -4.05493 0
M  V30 5254 H 471.237 -0.191395 -3.26039 0
M  V30 5255 H 469.896 -2.28697 -2.86519 0
M  V30 5256 H 469.544 -0.938281 -4.94171 0
M  V30 5257 H 469.244 -2.66973 -5.23449 0
M  V30 5258 H 470.768 -1.92443 -5.79481 0
M  V30 5259 H 472.182 -3.70047 -4.37879 0
M  V30 5260 H 470.579 -4.4228 -4.05597 0
M  V30 5261 H 471.649 -4.0288 -2.69844 0
M  V30 5262 N 472.992 0.995999 -1.22138 0
M  V30 5263 C 473.922 2.10387 -1.01289 0
M  V30 5264 C 474.903 1.69975 0.0651454 0
M  V30 5265 O 476.088 1.9396 -0.0964628 0
M  V30 5266 C 473.218 3.42312 -0.586517 0
M  V30 5267 C 472.172 3.96558 -1.61014 0
M  V30 5268 C 471.498 5.24494 -1.0397 0
M  V30 5269 C 472.798 4.27595 -2.99933 0
M  V30 5270 H 474.492 2.28086 -1.93951 0
M  V30 5271 H 472.038 1.09607 -0.933928 0
M  V30 5272 H 473.991 4.19223 -0.427793 0
M  V30 5273 H 472.715 3.24431 0.375761 0
M  V30 5274 H 471.374 3.21776 -1.75658 0
M  V30 5275 H 471.022 5.02953 -0.0688703 0
M  V30 5276 H 470.722 5.61755 -1.72352 0
M  V30 5277 H 472.246 6.04042 -0.892494 0
M  V30 5278 H 473.66 4.95315 -2.8868 0
M  V30 5279 H 472.057 4.76021 -3.6541 0
M  V30 5280 H 473.127 3.35498 -3.50099 0
M  V30 5281 N 474.47 1.03057 1.19235 0
M  V30 5282 C 475.717 0.728019 1.88961 0
M  V30 5283 C 476.045 -0.743515 1.79728 0
M  V30 5284 O 475.3 -1.55729 1.1852 0
M  V30 5285 C 475.599 1.1268 3.39172 0
M  V30 5286 C 475.265 2.5969 3.68608 0
M  V30 5287 C 473.927 2.99854 3.76352 0
M  V30 5288 C 476.279 3.54793 3.81801 0
M  V30 5289 C 473.607 4.34031 3.94758 0
M  V30 5290 C 475.959 4.88675 4.0172 0
M  V30 5291 C 474.623 5.28526 4.07697 0
M  V30 5292 H 473.893 0.266401 0.691456 0
M  V30 5293 H 476.54 1.29373 1.41191 0
M  V30 5294 H 474.845 0.479722 3.88852 0
M  V30 5295 H 476.542 0.870203 3.91444 0
M  V30 5296 H 473.132 2.27575 3.63191 0
M  V30 5297 H 477.316 3.24914 3.7516 0
M  V30 5298 H 472.572 4.6444 3.97625 0
M  V30 5299 H 476.746 5.6228 4.1087 0
M  V30 5300 H 474.373 6.32506 4.21712 0
M  V30 5301 N 475.948 -1.35272 0.808662 0
M  V30 5302 C 476.878 -2.32315 0.234981 0
M  V30 5303 C 477.859 -1.57572 -0.64071 0
M  V30 5304 O 479.044 -1.8563 -0.570551 0
M  V30 5305 C 476.174 -3.41801 -0.615601 0
M  V30 5306 C 475.128 -4.27694 0.161767 0
M  V30 5307 C 474.454 -5.28519 -0.810649 0
M  V30 5308 C 475.754 -5.04231 1.36193 0
M  V30 5309 H 477.448 -2.80543 1.04575 0
M  V30 5310 H 474.994 -1.3488 0.504315 0
M  V30 5311 H 476.947 -4.08693 -1.02702 0
M  V30 5312 H 475.671 -2.92186 -1.45928 0
M  V30 5313 H 474.33 -3.62384 0.554382 0
M  V30 5314 H 473.978 -4.75171 -1.64988 0
M  V30 5315 H 473.678 -5.8686 -0.294822 0
M  V30 5316 H 475.202 -5.98283 -1.22023 0
M  V30 5317 H 476.616 -5.64058 1.02528 0
M  V30 5318 H 475.013 -5.72077 1.81239 0
M  V30 5319 H 476.083 -4.34753 2.14751 0
M  V30 5320 N 477.426 -0.562348 -1.47226 0
M  V30 5321 C 478.374 0.195476 -2.31777 0
M  V30 5322 C 479.368 0.90433 -1.43242 0
M  V30 5323 O 480.574 0.825031 -1.59979 0
M  V30 5324 H 476.949 0.0819095 -0.747526 0
M  V30 5325 H 478.92 -0.536753 -2.93533 0
M  V30 5326 C 477.669 1.20902 -3.26003 0
M  V30 5327 H 476.992 0.672997 -3.94095 0
M  V30 5328 H 478.432 1.71006 -3.87986 0
M  V30 5329 C 476.891 2.25955 -2.49891 0
M  V30 5330 O 477.421 3.32969 -2.2471 0
M  V30 5331 N 475.627 2.00019 -2.1081 0
M  V30 5332 H 475.174 1.13006 -2.31489 0
M  V30 5333 H 475.132 2.70523 -1.60201 0
M  V30 5334 N 478.904 1.54736 -0.299062 0
M  V30 5335 C 480.151 2.00101 0.310784 0
M  V30 5336 C 480.479 1.18746 1.54045 0
M  V30 5337 O 479.734 0.251198 1.94081 0
M  V30 5338 C 480.033 3.50199 0.713835 0
M  V30 5339 C 479.699 4.48997 -0.413873 0
M  V30 5340 C 478.361 4.7573 -0.723462 0
M  V30 5341 C 480.713 5.07839 -1.17257 0
M  V30 5342 C 478.041 5.5857 -1.79491 0
M  V30 5343 C 480.393 5.91844 -2.23392 0
M  V30 5344 C 479.057 6.16889 -2.54959 0
M  V30 5345 H 478.327 0.732221 0.113724 0
M  V30 5346 H 480.974 1.86888 -0.417756 0
M  V30 5347 H 479.279 3.61012 1.52243 0
M  V30 5348 H 480.976 3.82723 1.19684 0
M  V30 5349 H 477.566 4.28292 -0.162476 0
M  V30 5350 H 481.75 4.87188 -0.946651 0
M  V30 5351 H 477.006 5.76213 -2.04423 0
M  V30 5352 H 481.18 6.36465 -2.8264 0
M  V30 5353 H 478.807 6.80869 -3.38114 0
M  V30 5354 N 480.382 0.0267497 1.57577 0
M  V30 5355 C 481.631 -0.651736 1.9088 0
M  V30 5356 C 481.944 -1.73427 0.904576 0
M  V30 5357 O 483.15 -2.46923 1.12877 0
M  V30 5358 C 481.606 -1.21048 3.38933 0
M  V30 5359 C 481.214 -0.161362 4.47709 0
M  V30 5360 C 482.958 -1.86562 3.81307 0
M  V30 5361 C 480.865 -0.731611 5.86857 0
M  V30 5362 H 479.795 -0.247198 0.712326 0
M  V30 5363 H 482.446 0.0916641 1.83271 0
M  V30 5364 H 480.828 -2.00542 3.41466 0
M  V30 5365 H 482.002 0.61094 4.56732 0
M  V30 5366 H 480.317 0.394877 4.14523 0
M  V30 5367 H 482.914 -2.30178 4.8262 0
M  V30 5368 H 483.257 -2.70735 3.16241 0
M  V30 5369 H 483.79 -1.13762 3.81186 0
M  V30 5370 H 480.529 0.0719329 6.55461 0
M  V30 5371 H 480.049 -1.47245 5.81445 0
M  V30 5372 H 481.728 -1.22208 6.35354 0
M  V30 5373 N 481.861 -1.55662 -0.24637 0
M  V30 5374 C 483.277 -1.48098 -0.594907 0
M  V30 5375 C 483.477 -0.717044 -1.8831 0
M  V30 5376 O 482.533 -0.246618 -2.51293 0
M  V30 5377 C 483.846 -2.92507 -0.697146 0
M  V30 5378 C 485.394 -3.02881 -0.789436 0
M  V30 5379 C 485.869 -4.48598 -0.923232 0
M  V30 5380 N 487.36 -4.52538 -0.988088 0
M  V30 5381 C 488.095 -5.62536 -1.11089 0
M  V30 5382 N 487.591 -6.82342 -1.19919 0
M  V30 5383 N 489.384 -5.50334 -1.14408 0
M  V30 5384 H 481.535 -2.0377 0.599278 0
M  V30 5385 H 483.798 -0.925145 0.20691 0
M  V30 5386 H 483.504 -3.51242 0.179396 0
M  V30 5387 H 483.378 -3.43024 -1.5689 0
M  V30 5388 H 485.765 -2.44226 -1.65643 0
M  V30 5389 H 485.846 -2.55574 0.107482 0
M  V30 5390 H 485.49 -5.07864 -0.0607927 0
M  V30 5391 H 485.42 -4.93587 -1.8352 0
M  V30 5392 H 487.911 -3.66248 -0.931167 0
M  V30 5393 H 488.224 -7.61924 -1.29197 0
M  V30 5394 H 486.569 -6.85102 -1.16876 0
M  V30 5395 H 489.76 -4.5567 -1.07158 0
M  V30 5396 H 489.933 -6.36096 -1.23634 0
M  V30 5397 N 483.339 0.512053 -1.4905 0
M  V30 5398 C 484.586 1.26686 -1.57978 0
M  V30 5399 C 484.914 1.92733 -0.261553 0
M  V30 5400 O 484.169 1.80772 0.749667 0
M  V30 5401 C 484.468 2.36446 -2.68008 0
M  V30 5402 C 484.134 1.87932 -4.09869 0
M  V30 5403 C 482.796 1.74419 -4.48477 0
M  V30 5404 C 485.148 1.5149 -4.98698 0
M  V30 5405 C 482.476 1.22827 -5.73699 0
M  V30 5406 C 484.828 1.01355 -6.24428 0
M  V30 5407 C 483.492 0.864735 -6.61875 0
M  V30 5408 H 482.762 0.463577 -0.578081 0
M  V30 5409 H 485.409 0.569421 -1.82838 0
M  V30 5410 H 483.714 3.11933 -2.37076 0
M  V30 5411 H 485.411 2.9453 -2.72127 0
M  V30 5412 H 482.001 1.99405 -3.79389 0
M  V30 5413 H 486.185 1.60782 -4.69535 0
M  V30 5414 H 481.441 1.10008 -6.01422 0
M  V30 5415 H 485.615 0.722351 -6.92644 0
M  V30 5416 H 483.242 0.462777 -7.5879 0
M  V30 5417 N 484.817 1.37938 0.762283 0
M  V30 5418 C 485.747 1.37176 1.88958 0
M  V30 5419 C 486.728 0.238945 1.68413 0
M  V30 5420 O 487.913 0.440726 1.89133 0
M  V30 5421 C 485.043 1.18742 3.2637 0
M  V30 5422 C 483.997 2.29136 3.61498 0
M  V30 5423 C 483.323 1.95816 4.97554 0
M  V30 5424 C 484.623 3.71363 3.6727 0
M  V30 5425 H 486.317 2.31509 1.89853 0
M  V30 5426 H 483.863 1.11438 0.912005 0
M  V30 5427 H 485.816 1.16837 4.04879 0
M  V30 5428 H 484.54 0.208683 3.25933 0
M  V30 5429 H 483.199 2.30213 2.85303 0
M  V30 5430 H 482.847 0.964475 4.93667 0
M  V30 5431 H 482.547 2.69745 5.22026 0
M  V30 5432 H 484.071 1.95513 5.78452 0
M  V30 5433 H 485.485 3.72364 4.35911 0
M  V30 5434 H 483.882 4.44425 4.03245 0
M  V30 5435 H 484.952 4.04305 2.67704 0
M  V30 5436 N 486.295 -0.989507 1.22664 0
M  V30 5437 C 487.205 -2.11449 1.01619 0
M  V30 5438 C 488.221 -1.73962 -0.036545 0
M  V30 5439 O 489.397 -2.00788 0.156924 0
M  V30 5440 C 486.462 -3.41465 0.600204 0
M  V30 5441 C 485.523 -3.93033 1.72695 0
M  V30 5442 C 484.756 -5.16844 1.33071 0
M  V30 5443 O 484.979 -5.7001 0.210975 0
M  V30 5444 O 483.913 -5.6225 2.14845 0
M  V30 5445 H 487.739 -2.32088 1.9588 0
M  V30 5446 H 485.324 -1.09823 1.01289 0
M  V30 5447 H 487.206 -4.19695 0.37873 0
M  V30 5448 H 485.881 -3.22178 -0.313511 0
M  V30 5449 H 484.788 -3.15961 2.00298 0
M  V30 5450 H 486.121 -4.16758 2.61865 0
M  V30 5451 N 487.773 -1.03688 -1.18687 0
M  V30 5452 C 488.998 -0.757819 -1.93059 0
M  V30 5453 C 489.423 0.678353 -1.75442 0
M  V30 5454 O 488.781 1.46938 -1.06203 0
M  V30 5455 C 488.829 -1.12423 -3.42627 0
M  V30 5456 O 487.933 -0.247505 -4.11657 0
M  V30 5457 H 487.274 -0.279245 -0.602427 0
M  V30 5458 H 489.804 -1.3857 -1.5053 0
M  V30 5459 H 489.814 -1.08454 -3.93322 0
M  V30 5460 H 488.489 -2.17049 -3.54771 0
M  V30 5461 H 487.066 -0.34649 -3.71287 0
M  V30 5462 N 489.251 1.34841 -0.815825 0
M  V30 5463 C 490.201 2.27075 -0.205169 0
M  V30 5464 C 491.185 1.48205 0.626414 0
M  V30 5465 O 492.377 1.70306 0.482157 0
M  V30 5466 C 489.506 3.37322 0.637871 0
M  V30 5467 C 488.592 4.23609 -0.203948 0
M  V30 5468 N 488.983 4.89558 -1.27149 0
M  V30 5469 C 487.281 4.45998 0.0128971 0
M  V30 5470 C 487.982 5.53597 -1.7862 0
M  V30 5471 N 486.958 5.32535 -1.0912 0
M  V30 5472 H 490.76 2.75563 -1.02187 0
M  V30 5473 H 488.274 1.48477 -0.657912 0
M  V30 5474 H 490.271 4.02359 1.09146 0
M  V30 5475 H 488.931 2.90385 1.45281 0
M  V30 5476 H 489.942 4.9077 -1.65423 0
M  V30 5477 H 486.619 4.09837 0.79624 0
M  V30 5478 H 488.009 6.16184 -2.67892 0
M  V30 5479 N 490.729 0.570148 1.46925 0
M  V30 5480 C 491.975 0.0593124 2.03314 0
M  V30 5481 C 492.33 -1.28139 1.43521 0
M  V30 5482 O 491.623 -1.82411 0.586245 0
M  V30 5483 C 491.817 -0.0780336 3.57315 0
M  V30 5484 C 491.646 1.2478 4.32042 0
M  V30 5485 C 490.416 1.81859 4.7144 0
M  V30 5486 C 492.614 2.16808 4.66368 0
M  V30 5487 N 490.596 3.08313 5.30864 0
M  V30 5488 C 491.967 3.27845 5.2623 0
M  V30 5489 C 494.022 2.16643 4.48297 0
M  V30 5490 C 492.725 4.38832 5.69929 0
M  V30 5491 C 494.751 3.26652 4.93004 0
M  V30 5492 C 494.113 4.36408 5.52926 0
M  V30 5493 H 490.212 0.0641804 0.779362 0
M  V30 5494 H 492.796 0.760285 1.79242 0
M  V30 5495 H 490.967 -0.748151 3.81126 0
M  V30 5496 H 492.699 -0.59211 4.00345 0
M  V30 5497 H 489.454 1.35502 4.53802 0
M  V30 5498 H 489.878 3.72802 5.65108 0
M  V30 5499 H 494.52 1.33065 4.01315 0
M  V30 5500 H 492.238 5.23162 6.15896 0
M  V30 5501 H 495.824 3.27627 4.80782 0
M  V30 5502 H 494.704 5.20127 5.86888 0
M  V30 5503 N 492.207 -1.54576 0.307264 0
M  V30 5504 C 493.454 -2.00263 -0.300167 0
M  V30 5505 C 493.782 -1.19561 -1.53413 0
M  V30 5506 O 493.037 -0.261487 -1.93945 0
M  V30 5507 C 493.336 -3.50572 -0.695253 0
M  V30 5508 C 493.002 -4.48771 0.437679 0
M  V30 5509 C 491.664 -4.7534 0.748681 0
M  V30 5510 C 494.016 -5.0721 1.19949 0
M  V30 5511 C 491.344 -5.5761 1.8245 0
M  V30 5512 C 493.696 -5.90651 2.26527 0
M  V30 5513 C 492.36 -6.15528 2.58227 0
M  V30 5514 H 491.63 -0.732814 -0.109839 0
M  V30 5515 H 494.277 -1.86664 0.427661 0
M  V30 5516 H 492.582 -3.61814 -1.50326 0
M  V30 5517 H 494.279 -3.83352 -1.17653 0
M  V30 5518 H 490.869 -4.282 0.185187 0
M  V30 5519 H 495.053 -4.86679 0.972474 0
M  V30 5520 H 490.309 -5.75121 2.07476 0
M  V30 5521 H 494.483 -6.34957 2.86011 0
M  V30 5522 H 492.11 -6.79066 3.4172 0
M  V30 5523 N 493.685 -0.035106 -1.57561 0
M  V30 5524 C 494.931 0.64318 -1.92331 0
M  V30 5525 C 495.264 1.71434 -0.912368 0
M  V30 5526 O 494.539 1.94395 0.0640303 0
M  V30 5527 C 494.822 1.25411 -3.37556 0
M  V30 5528 C 494.675 0.192109 -4.4939 0
M  V30 5529 C 495.994 2.17041 -3.82859 0
M  V30 5530 H 493.113 0.232341 -0.699419 0
M  V30 5531 H 495.755 -0.0935889 -1.89769 0
M  V30 5532 H 493.905 1.88205 -3.39869 0
M  V30 5533 H 495.577 -0.438849 -4.59208 0
M  V30 5534 H 493.82 -0.481725 -4.31117 0
M  V30 5535 H 494.491 0.659292 -5.48049 0
M  V30 5536 H 496.967 1.64228 -3.8232 0
M  V30 5537 H 495.843 2.56738 -4.85157 0
M  V30 5538 H 496.104 3.06401 -3.18702 0
M  V30 5539 N 495.163 1.55791 0.238111 0
M  V30 5540 C 496.409 1.79211 0.962035 0
M  V30 5541 C 496.764 0.605463 1.82625 0
M  V30 5542 O 496.057 -0.40104 1.87356 0
M  V30 5543 C 496.251 3.05869 1.84875 0
M  V30 5544 C 496.08 4.36739 1.07186 0
M  V30 5545 C 494.85 4.99346 0.773424 0
M  V30 5546 C 497.048 5.1237 0.445168 0
M  V30 5547 N 495.03 6.13894 -0.0266037 0
M  V30 5548 C 496.401 6.19613 -0.219023 0
M  V30 5549 C 498.456 4.96622 0.356522 0
M  V30 5550 C 497.159 7.1282 -0.963358 0
M  V30 5551 C 499.185 5.90214 -0.374304 0
M  V30 5552 C 498.547 6.96872 -1.0271 0
M  V30 5553 H 494.646 0.707627 0.332849 0
M  V30 5554 H 497.23 1.93284 0.234368 0
M  V30 5555 H 495.401 2.93108 2.54837 0
M  V30 5556 H 497.133 3.17547 2.5089 0
M  V30 5557 H 493.888 4.60948 1.08738 0
M  V30 5558 H 494.312 6.75727 -0.414968 0
M  V30 5559 H 498.954 4.14232 0.846878 0
M  V30 5560 H 496.672 7.94704 -1.46529 0
M  V30 5561 H 500.258 5.80106 -0.443678 0
M  V30 5562 H 499.138 7.68045 -1.58358 0
M  V30 5563 N 496.642 -0.504142 1.49319 0
M  V30 5564 C 497.888 -1.26033 1.58882 0
M  V30 5565 C 498.221 -1.92268 0.273274 0
M  V30 5566 O 497.496 -1.80567 -0.72291 0
M  V30 5567 C 497.779 -2.32976 2.7458 0
M  V30 5568 C 497.632 -1.71263 4.1592 0
M  V30 5569 C 498.951 -3.34561 2.85932 0
M  V30 5570 H 496.07 -0.456863 0.578312 0
M  V30 5571 H 498.712 -0.558965 1.81592 0
M  V30 5572 H 496.862 -2.92796 2.55348 0
M  V30 5573 H 498.534 -1.15294 4.4666 0
M  V30 5574 H 496.777 -1.01686 4.21714 0
M  V30 5575 H 497.448 -2.48816 4.92742 0
M  V30 5576 H 499.924 -2.84727 3.0343 0
M  V30 5577 H 498.8 -4.06754 3.68568 0
M  V30 5578 H 499.061 -3.96695 1.95154 0
M  V30 5579 N 498.12 -1.38341 -0.754957 0
M  V30 5580 C 499.348 -1.37704 -1.54419 0
M  V30 5581 C 499.763 0.0335243 -1.8877 0
M  V30 5582 O 499.12 0.999773 -1.52679 0
M  V30 5583 C 499.171 -2.23136 -2.84416 0
M  V30 5584 O 498.892 -3.58697 -2.51531 0
M  V30 5585 C 500.393 -2.30664 -3.78562 0
M  V30 5586 H 497.613 -0.471061 -0.477852 0
M  V30 5587 H 500.157 -1.81902 -0.934446 0
M  V30 5588 H 498.312 -1.82403 -3.41772 0
M  V30 5589 H 498.726 -4.03665 -3.34896 0
M  V30 5590 H 500.2 -2.9473 -4.66732 0
M  V30 5591 H 500.677 -1.3199 -4.18898 0
M  V30 5592 H 501.283 -2.71781 -3.27131 0
M  V30 5593 N 499.598 0.982988 -1.23187 0
M  V30 5594 C 500.53 2.07729 -0.968572 0
M  V30 5595 C 501.543 1.62702 0.0564821 0
M  V30 5596 O 502.732 1.77603 -0.178733 0
M  V30 5597 C 499.832 3.36071 -0.436974 0
M  V30 5598 C 499.005 4.10081 -1.52159 0
M  V30 5599 C 498.064 5.16701 -0.99532 0
M  V30 5600 O 497.09 5.43727 -1.68373 0
M  V30 5601 N 498.292 5.80226 0.178192 0
M  V30 5602 H 501.057 2.30894 -1.9107 0
M  V30 5603 H 498.618 1.14949 -1.1401 0
M  V30 5604 H 500.61 4.04639 -0.0700051 0
M  V30 5605 H 499.18 3.09893 0.410509 0
M  V30 5606 H 498.4 3.36004 -2.06144 0
M  V30 5607 H 499.688 4.56295 -2.25105 0
M  V30 5608 H 499.086 5.60651 0.754096 0
M  V30 5609 H 497.643 6.49982 0.486449 0
M  V30 5610 N 501.076 1.04316 1.18135 0
M  V30 5611 C 502.009 0.580823 2.20685 0
M  V30 5612 C 502.987 -0.385943 1.57953 0
M  V30 5613 O 504.171 -0.299654 1.86103 0
M  V30 5614 C 501.298 -0.151162 3.38363 0
M  V30 5615 C 500.344 0.769247 4.19505 0
M  V30 5616 S 501.177 2.25352 4.85774 0
M  V30 5617 C 502.333 1.53246 6.0685 0
M  V30 5618 H 502.566 1.44968 2.5956 0
M  V30 5619 H 500.099 0.85434 1.28609 0
M  V30 5620 H 502.057 -0.567315 4.06561 0
M  V30 5621 H 500.718 -0.995936 2.97892 0
M  V30 5622 H 499.911 0.203335 5.0359 0
M  V30 5623 H 499.513 1.12436 3.56699 0
M  V30 5624 H 501.805 0.82689 6.72435 0
M  V30 5625 H 502.748 2.35044 6.67952 0
M  V30 5626 H 503.156 1.0237 5.5514 0
M  V30 5627 N 502.554 -1.34406 0.822964 0
M  V30 5628 C 503.502 -2.31428 0.233165 0
M  V30 5629 C 504.496 -1.57404 -0.626118 0
M  V30 5630 O 505.702 -1.72402 -0.517453 0
M  V30 5631 H 502.077 -0.749863 0.0566557 0
M  V30 5632 H 504.048 -2.78699 1.06628 0
M  V30 5633 C 502.797 -3.42653 -0.590264 0
M  V30 5634 H 502.12 -3.99753 0.0616129 0
M  V30 5635 H 503.56 -4.12778 -0.969054 0
M  V30 5636 C 502.019 -2.87112 -1.76262 0
M  V30 5637 O 502.549 -2.81995 -2.8608 0
M  V30 5638 N 500.755 -2.43934 -1.57938 0
M  V30 5639 H 500.302 -2.48296 -0.686078 0
M  V30 5640 H 500.26 -2.07123 -2.36532 0
M  V30 5641 N 504.032 -0.577932 -1.46621 0
M  V30 5642 C 504.982 0.178869 -2.27297 0
M  V30 5643 C 505.966 0.866279 -1.35589 0
M  V30 5644 O 507.158 0.761163 -1.59798 0
M  V30 5645 C 504.287 1.19499 -3.2183 0
M  V30 5646 C 503.373 0.50994 -4.21023 0
M  V30 5647 N 503.764 -0.43177 -5.03954 0
M  V30 5648 C 502.062 0.761287 -4.39455 0
M  V30 5649 C 502.763 -0.831693 -5.75724 0
M  V30 5650 N 501.739 -0.181897 -5.43296 0
M  V30 5651 H 505.541 -0.544859 -2.88805 0
M  V30 5652 H 503.055 -0.399373 -1.57413 0
M  V30 5653 H 505.052 1.75131 -3.78332 0
M  V30 5654 H 503.712 1.91959 -2.61881 0
M  V30 5655 H 504.723 -0.807045 -5.11573 0
M  V30 5656 H 501.4 1.47282 -3.90659 0
M  V30 5657 H 502.79 -1.6067 -6.52407 0
M  V30 5658 N 505.51 1.54411 -0.315457 0
M  V30 5659 C 506.759 1.99599 0.290395 0
M  V30 5660 C 507.072 1.20746 1.53882 0
M  V30 5661 O 508.278 1.56272 2.22017 0
M  V30 5662 C 506.734 3.5539 0.56797 0
M  V30 5663 C 506.342 4.43068 -0.662945 0
M  V30 5664 C 508.086 4.09067 1.13422 0
M  V30 5665 C 505.993 5.90317 -0.357722 0
M  V30 5666 H 504.923 0.745592 0.112286 0
M  V30 5667 H 507.574 1.78477 -0.426418 0
M  V30 5668 H 505.956 3.72468 1.34476 0
M  V30 5669 H 507.13 4.37765 -1.43869 0
M  V30 5670 H 505.445 4.00238 -1.14884 0
M  V30 5671 H 508.042 5.16663 1.37707 0
M  V30 5672 H 508.385 3.60552 2.08106 0
M  V30 5673 H 508.918 3.95589 0.418805 0
M  V30 5674 H 505.657 6.4301 -1.27351 0
M  V30 5675 H 505.177 5.98592 0.380472 0
M  V30 5676 H 506.856 6.4699 0.0354284 0
M  V30 5677 N 506.988 0.0434614 1.5754 0
M  V30 5678 C 508.234 -0.632971 1.92669 0
M  V30 5679 C 508.567 -1.70947 0.921446 0
M  V30 5680 O 507.842 -1.94426 -0.0537202 0
M  V30 5681 C 508.125 -1.23619 3.38216 0
M  V30 5682 C 507.978 -0.168274 4.49485 0
M  V30 5683 C 509.297 -2.15008 3.84005 0
M  V30 5684 H 506.416 -0.228629 0.700641 0
M  V30 5685 H 509.058 0.103651 1.89717 0
M  V30 5686 H 507.208 -1.864 3.40863 0
M  V30 5687 H 508.88 0.463196 4.58969 0
M  V30 5688 H 507.123 0.504581 4.30855 0
M  V30 5689 H 507.794 -0.630218 5.48391 0
M  V30 5690 H 510.27 -1.62198 3.83185 0
M  V30 5691 H 509.146 -2.54161 4.86511 0
M  V30 5692 H 509.407 -3.04707 3.20322 0
M  V30 5693 N 508.466 -1.55915 -0.229846 0
M  V30 5694 C 509.399 -1.86734 -1.3117 0
M  V30 5695 C 510.377 -0.723947 -1.45595 0
M  V30 5696 O 511.561 -0.971462 -1.61539 0
M  V30 5697 C 508.688 -2.06707 -2.68309 0
M  V30 5698 C 507.734 -3.2938 -2.70944 0
M  V30 5699 S 508.567 -4.85547 -2.25842 0
M  V30 5700 C 509.723 -5.08546 -3.64873 0
M  V30 5701 H 509.956 -2.78204 -1.04832 0
M  V30 5702 H 507.489 -1.48243 -0.431681 0
M  V30 5703 H 509.447 -2.18898 -3.47267 0
M  V30 5704 H 508.108 -1.16049 -2.91876 0
M  V30 5705 H 507.301 -3.40374 -3.71701 0
M  V30 5706 H 506.903 -3.16004 -2.00044 0
M  V30 5707 H 509.195 -4.96935 -4.60502 0
M  V30 5708 H 510.138 -6.10465 -3.58801 0
M  V30 5709 H 510.546 -4.36314 -3.58176 0
M  V30 5710 N 509.944 0.496216 -1.49584 0
M  V30 5711 C 510.854 1.62352 -1.69349 0
M  V30 5712 C 511.87 1.64184 -0.576147 0
M  V30 5713 O 513.046 1.82517 -0.85144 0
M  V30 5714 C 510.111 2.98698 -1.76013 0
M  V30 5715 C 509.172 3.07454 -2.99617 0
M  V30 5716 C 508.405 4.37296 -3.05953 0
M  V30 5717 O 508.628 5.2637 -2.19752 0
M  V30 5718 O 507.562 4.51124 -3.9846 0
M  V30 5719 H 511.388 1.48606 -2.64859 0
M  V30 5720 H 508.973 0.673022 -1.33382 0
M  V30 5721 H 510.855 3.79725 -1.82721 0
M  V30 5722 H 509.53 3.12696 -0.836828 0
M  V30 5723 H 508.437 2.25597 -2.98424 0
M  V30 5724 H 509.77 2.98385 -3.91443 0
M  V30 5725 N 511.423 1.38739 0.74761 0
M  V30 5726 C 512.672 1.3459 1.50228 0
M  V30 5727 C 512.985 -0.0595592 1.95509 0
M  V30 5728 O 514.191 -0.22361 2.70578 0
M  V30 5729 C 512.647 2.36377 2.71393 0
M  V30 5730 C 512.255 3.82573 2.33113 0
M  V30 5731 C 513.999 2.41281 3.49262 0
M  V30 5732 C 511.906 4.76032 3.50924 0
M  V30 5733 H 510.836 0.500312 0.564096 0
M  V30 5734 H 513.487 1.64324 0.8167 0
M  V30 5735 H 511.869 1.99694 3.41962 0
M  V30 5736 H 513.043 4.28227 1.70171 0
M  V30 5737 H 511.358 3.80844 1.68365 0
M  V30 5738 H 513.955 3.08301 4.36869 0
M  V30 5739 H 514.298 1.43353 3.9084 0
M  V30 5740 H 514.831 2.76793 2.85711 0
M  V30 5741 H 511.57 5.75177 3.14408 0
M  V30 5742 H 511.09 4.35066 4.12889 0
M  V30 5743 H 512.769 4.94331 4.17427 0
M  V30 5744 N 512.901 -0.976442 1.23707 0
M  V30 5745 C 514.178 -1.69296 0.979699 0
M  V30 5746 C 514.558 -2.0508 -0.500555 0
M  V30 5747 O 513.906 -1.74708 -1.47273 0
M  V30 5748 C 514.116 -2.93143 1.89389 0
M  V30 5749 C 515.464 -3.65572 2.15968 0
M  V30 5750 O 516.488 -3.03184 1.86971 0
M  V30 5751 O 515.347 -4.77859 2.65167 0
M  V30 5752 H 512.441 -0.739708 0.369812 0
M  V30 5753 H 514.987 -1.03131 1.34767 0
M  V30 5754 H 513.759 -2.63327 2.89439 0
M  V30 5755 H 513.382 -3.67044 1.52854 0
M  V30 5756 N 514.379 -1.04941 -1.1758 0
M  V30 5757 C 515.311 -0.606174 -2.21039 0
M  V30 5758 C 516.324 0.328763 -1.59446 0
M  V30 5759 O 517.513 0.121895 -1.78083 0
M  V30 5760 C 514.613 0.133294 -3.38638 0
M  V30 5761 C 513.786 -0.811711 -4.29802 0
M  V30 5762 C 512.845 -0.113958 -5.26077 0
M  V30 5763 O 511.871 -0.747237 -5.64274 0
M  V30 5764 N 513.073 1.14953 -5.69004 0
M  V30 5765 H 515.838 -1.49606 -2.59689 0
M  V30 5766 H 513.399 -0.930997 -1.32454 0
M  V30 5767 H 515.391 0.610144 -4.00074 0
M  V30 5768 H 513.961 0.924816 -2.98607 0
M  V30 5769 H 513.181 -1.46824 -3.65837 0
M  V30 5770 H 514.469 -1.45326 -4.87604 0
M  V30 5771 H 513.867 1.68441 -5.40041 0
M  V30 5772 H 512.424 1.57049 -6.32597 0
M  V30 5773 N 515.857 1.33968 -0.830081 0
M  V30 5774 C 516.767 2.33164 -0.259207 0
M  V30 5775 C 517.783 1.62951 0.610164 0
M  V30 5776 O 518.959 1.94668 0.516369 0
M  V30 5777 C 516.024 3.42088 0.563598 0
M  V30 5778 C 515.085 4.28037 -0.329014 0
M  V30 5779 C 514.318 5.3176 0.454616 0
M  V30 5780 O 514.541 5.44876 1.6872 0
M  V30 5781 O 513.475 6.01669 -0.166794 0
M  V30 5782 H 517.301 2.83832 -1.08041 0
M  V30 5783 H 514.886 1.37154 -0.59239 0
M  V30 5784 H 516.768 4.08581 1.03147 0
M  V30 5785 H 515.443 2.93651 1.36201 0
M  V30 5786 H 514.35 3.64443 -0.844538 0
M  V30 5787 H 515.683 4.79934 -1.09196 0
M  V30 5788 N 517.335 0.585699 1.46312 0
M  V30 5789 C 518.298 -0.135673 2.28798 0
M  V30 5790 C 519.298 -0.815988 1.38558 0
M  V30 5791 O 520.488 -0.667487 1.60904 0
M  V30 5792 C 517.62 -1.20163 3.1902 0
M  V30 5793 H 518.813 0.589257 2.94054 0
M  V30 5794 H 516.366 0.343794 1.52472 0
M  V30 5795 H 517.101 -1.95804 2.58517 0
M  V30 5796 H 516.886 -0.718282 3.85465 0
M  V30 5797 H 518.376 -1.70749 3.81096 0
M  V30 5798 N 518.813 -1.54241 0.323641 0
M  V30 5799 C 520.043 -2.04687 -0.280464 0
M  V30 5800 C 520.451 -1.19939 -1.46326 0
M  V30 5801 O 519.794 -0.222872 -1.82343 0
M  V30 5802 C 519.856 -3.50978 -0.778123 0
M  V30 5803 C 519.52 -4.56127 0.282371 0
M  V30 5804 C 520.517 -5.07726 1.11847 0
M  V30 5805 C 518.202 -5.00451 0.430582 0
M  V30 5806 C 520.196 -6.02212 2.08851 0
M  V30 5807 C 517.883 -5.94752 1.40404 0
M  V30 5808 C 518.881 -6.45519 2.23147 0
M  V30 5809 O 518.569 -7.37968 3.1884 0
M  V30 5810 H 518.301 -0.673192 -0.0615473 0
M  V30 5811 H 520.855 -1.99999 0.467921 0
M  V30 5812 H 519.085 -3.53064 -1.57742 0
M  V30 5813 H 520.774 -3.84499 -1.30058 0
M  V30 5814 H 521.54 -4.74261 1.01496 0
M  V30 5815 H 517.419 -4.6055 -0.203569 0
M  V30 5816 H 520.963 -6.41761 2.73474 0
M  V30 5817 H 516.86 -6.27633 1.5082 0
M  V30 5818 H 517.628 -7.55841 3.14079 0
M  V30 5819 N 520.291 -0.0518155 -1.57515 0
M  V30 5820 C 521.707 0.304735 -1.56664 0
M  V30 5821 C 521.907 1.71395 -1.05953 0
M  V30 5822 O 520.963 2.42123 -0.716414 0
M  V30 5823 C 522.276 0.132614 -3.00407 0
M  V30 5824 C 523.824 0.20367 -3.12337 0
M  V30 5825 C 524.299 0.0600706 -4.57961 0
M  V30 5826 N 525.79 0.116326 -4.63054 0
M  V30 5827 C 526.525 0.0293363 -5.73392 0
M  V30 5828 N 526.021 -0.110038 -6.92713 0
M  V30 5829 N 527.814 0.0849651 -5.62036 0
M  V30 5830 H 519.965 -0.973056 -1.888 0
M  V30 5831 H 522.228 -0.377781 -0.869474 0
M  V30 5832 H 521.934 -0.839019 -3.41546 0
M  V30 5833 H 521.808 0.893376 -3.66468 0
M  V30 5834 H 524.195 1.16578 -2.71097 0
M  V30 5835 H 524.276 -0.587857 -2.48954 0
M  V30 5836 H 523.92 -0.898715 -4.99886 0
M  V30 5837 H 523.85 0.87075 -5.19351 0
M  V30 5838 H 526.341 0.22327 -3.7724 0
M  V30 5839 H 526.654 -0.169104 -7.72615 0
M  V30 5840 H 524.999 -0.145132 -6.94848 0
M  V30 5841 H 528.19 0.192411 -4.67704 0
M  V30 5842 H 528.363 0.0137131 -6.47999 0
M  V30 5843 N 521.769 1.56035 0.221574 0
M  V30 5844 C 523.046 1.69837 0.970301 0
M  V30 5845 C 523.426 0.599065 2.02421 0
M  V30 5846 O 522.774 -0.393929 2.25079 0
M  V30 5847 C 522.984 3.11148 1.58076 0
M  V30 5848 C 524.332 3.70555 2.07302 0
M  V30 5849 O 525.356 3.14109 1.6797 0
M  V30 5850 O 524.215 4.69562 2.79596 0
M  V30 5851 H 521.309 0.691727 0.453257 0
M  V30 5852 H 523.855 1.68353 0.213358 0
M  V30 5853 H 522.627 3.82617 0.819759 0
M  V30 5854 H 522.25 3.16749 2.40324 0
M  V30 5855 N 523.247 -0.488276 1.49845 0
M  V30 5856 C 524.493 -1.24065 1.61182 0
M  V30 5857 C 524.848 -1.9004 0.300435 0
M  V30 5858 O 524.141 -1.78341 -0.700365 0
M  V30 5859 C 524.335 -2.32152 2.71735 0
M  V30 5860 C 524.164 -1.76778 4.13497 0
M  V30 5861 C 522.934 -1.57513 4.80123 0
M  V30 5862 C 525.132 -1.27242 4.98311 0
M  V30 5863 N 523.114 -0.972015 6.06156 0
M  V30 5864 C 524.485 -0.791457 6.14928 0
M  V30 5865 C 526.54 -1.15934 4.84214 0
M  V30 5866 C 525.243 -0.208593 7.18997 0
M  V30 5867 C 527.269 -0.590436 5.88445 0
M  V30 5868 C 526.631 -0.119767 7.04298 0
M  V30 5869 H 522.73 -0.443487 0.644083 0
M  V30 5870 H 525.314 -0.545551 1.86901 0
M  V30 5871 H 523.485 -2.99108 2.47768 0
M  V30 5872 H 525.217 -2.99187 2.72523 0
M  V30 5873 H 521.972 -1.82247 4.37131 0
M  V30 5874 H 522.396 -0.689367 6.73481 0
M  V30 5875 H 527.038 -1.5092 3.94947 0
M  V30 5876 H 524.756 0.153501 8.07954 0
M  V30 5877 H 528.342 -0.505548 5.79599 0
M  V30 5878 H 527.222 0.313568 7.83573 0
M  V30 5879 N 524.725 -1.39134 -0.740242 0
M  V30 5880 C 525.972 -1.36071 -1.49969 0
M  V30 5881 C 526.3 0.0450245 -1.94448 0
M  V30 5882 O 525.555 1.02482 -1.66721 0
M  V30 5883 C 525.854 -2.27457 -2.75678 0
M  V30 5884 C 525.52 -3.75185 -2.50094 0
M  V30 5885 C 524.182 -4.15439 -2.42825 0
M  V30 5886 C 526.534 -4.68643 -2.28086 0
M  V30 5887 C 523.862 -5.4722 -2.11584 0
M  V30 5888 C 526.214 -6.00695 -1.98363 0
M  V30 5889 C 524.878 -6.40018 -1.8956 0
M  V30 5890 H 524.148 -0.497921 -0.548777 0
M  V30 5891 H 526.795 -1.71599 -0.85007 0
M  V30 5892 H 525.1 -1.8503 -3.45356 0
M  V30 5893 H 526.797 -2.22384 -3.33686 0
M  V30 5894 H 523.387 -3.43279 -2.56627 0
M  V30 5895 H 527.571 -4.3838 -2.32672 0
M  V30 5896 H 522.827 -5.76615 -2.03287 0
M  V30 5897 H 527.001 -6.72644 -1.80341 0
M  V30 5898 H 524.628 -7.42051 -1.65117 0
M  V30 5899 N 526.204 0.969867 -1.24223 0
M  V30 5900 C 527.429 1.75289 -1.10853 0
M  V30 5901 C 527.854 1.85091 0.335079 0
M  V30 5902 O 527.212 1.32024 1.24255 0
M  V30 5903 C 527.26 3.15255 -1.75062 0
M  V30 5904 O 526.364 3.99589 -1.01992 0
M  V30 5905 H 525.705 0.538904 -0.387915 0
M  V30 5906 H 528.235 1.21675 -1.64488 0
M  V30 5907 H 528.245 3.65787 -1.80731 0
M  V30 5908 H 526.92 3.07436 -2.801 0
M  V30 5909 H 525.497 3.58077 -1.04094 0
M  V30 5910 N 527.682 1.05563 1.17022 0
M  V30 5911 C 528.907 0.788437 1.91829 0
M  V30 5912 C 529.332 -0.650356 1.76499 0
M  V30 5913 O 528.69 -1.45229 1.08527 0
M  V30 5914 C 528.738 1.1786 3.40795 0
M  V30 5915 O 527.842 0.312965 4.11211 0
M  V30 5916 H 527.183 0.288794 0.597908 0
M  V30 5917 H 529.713 1.40948 1.48307 0
M  V30 5918 H 529.723 1.14697 3.91546 0
M  V30 5919 H 528.398 2.22666 3.51273 0
M  V30 5920 H 526.975 0.405515 3.70689 0
M  V30 5921 N 529.16 -1.33526 0.837174 0
M  V30 5922 C 530.092 -2.28077 0.226579 0
M  V30 5923 C 531.105 -1.51666 -0.591717 0
M  V30 5924 O 532.294 -1.73511 -0.419064 0
M  V30 5925 C 529.394 -3.31597 -0.69978 0
M  V30 5926 C 528.567 -4.37329 0.0788067 0
M  V30 5927 C 527.626 -5.20526 -0.770637 0
M  V30 5928 O 526.652 -5.68811 -0.210453 0
M  V30 5929 N 527.854 -5.41639 -2.08825 0
M  V30 5930 H 530.619 -2.81115 1.03897 0
M  V30 5931 H 528.18 -1.46201 0.695476 0
M  V30 5932 H 530.172 -3.84158 -1.27298 0
M  V30 5933 H 528.742 -2.78848 -1.41288 0
M  V30 5934 H 527.962 -3.8529 0.833381 0
M  V30 5935 H 529.25 -5.05079 0.614238 0
M  V30 5936 H 528.648 -5.04108 -2.56693 0
M  V30 5937 H 527.205 -5.97263 -2.60998 0
M  V30 5938 N 530.638 -0.59345 -1.46 0
M  V30 5939 C 531.568 0.121192 -2.33185 0
M  V30 5940 C 532.549 0.872977 -1.4599 0
M  V30 5941 O 533.734 0.846321 -1.74789 0
M  V30 5942 C 530.864 1.12844 -3.28456 0
M  V30 5943 C 529.818 0.4908 -4.25177 0
M  V30 5944 C 529.144 1.60529 -5.10034 0
M  V30 5945 C 530.444 -0.578949 -5.19081 0
M  V30 5946 H 532.138 -0.606767 -2.93187 0
M  V30 5947 H 529.684 -0.293242 -1.40983 0
M  V30 5948 H 531.637 1.63684 -3.88311 0
M  V30 5949 H 530.361 1.88681 -2.66584 0
M  V30 5950 H 529.02 0.00339328 -3.666 0
M  V30 5951 H 528.668 2.35359 -4.44539 0
M  V30 5952 H 528.368 1.18422 -5.75543 0
M  V30 5953 H 529.892 2.11623 -5.72755 0
M  V30 5954 H 531.306 -0.155199 -5.7309 0
M  V30 5955 H 529.703 -0.920947 -5.92991 0
M  V30 5956 H 530.773 -1.46109 -4.62364 0
M  V30 5957 N 532.116 1.54067 -0.331816 0
M  V30 5958 C 533.344 2.05131 0.269996 0
M  V30 5959 C 533.759 1.20749 1.45138 0
M  V30 5960 O 533.116 0.240069 1.80914 0
M  V30 5961 C 533.167 3.54728 0.696456 0
M  V30 5962 O 532.888 4.35906 -0.43794 0
M  V30 5963 C 534.389 4.21916 1.36021 0
M  V30 5964 H 531.609 0.668807 0.0542042 0
M  V30 5965 H 534.153 1.98777 -0.4804 0
M  V30 5966 H 532.308 3.61342 1.39681 0
M  V30 5967 H 532.722 5.24404 -0.100334 0
M  V30 5968 H 534.196 5.28015 1.60947 0
M  V30 5969 H 534.673 3.73538 2.31011 0
M  V30 5970 H 535.279 4.19463 0.702212 0
M  V30 5971 N 533.594 0.0601682 1.57485 0
M  V30 5972 C 534.557 -0.896373 2.10945 0
M  V30 5973 C 535.557 -1.23402 1.03095 0
M  V30 5974 O 536.747 -1.16921 1.29132 0
M  V30 5975 C 533.879 -2.20346 2.60116 0
M  V30 5976 H 535.072 -0.432778 2.96761 0
M  V30 5977 H 532.625 -0.188372 1.55161 0
M  V30 5978 H 533.36 -2.71268 1.7772 0
M  V30 5979 H 533.145 -1.9714 3.38937 0
M  V30 5980 H 534.635 -2.88846 3.01592 0
M  V30 5981 N 535.072 -1.5615 -0.213296 0
M  V30 5982 C 536.3 -1.83638 -0.953139 0
M  V30 5983 C 536.715 -0.640362 -1.77609 0
M  V30 5984 O 536.072 0.391071 -1.78261 0
M  V30 5985 C 536.123 -3.09735 -1.86405 0
M  V30 5986 O 535.844 -4.24723 -1.07435 0
M  V30 5987 C 537.345 -3.5027 -2.71709 0
M  V30 5988 H 534.565 -0.610263 -0.278962 0
M  V30 5989 H 537.109 -2.03247 -0.226035 0
M  V30 5990 H 535.264 -2.92077 -2.545 0
M  V30 5991 H 535.678 -4.9641 -1.69343 0
M  V30 5992 H 537.152 -4.41515 -3.31313 0
M  V30 5993 H 537.629 -2.72406 -3.44516 0
M  V30 5994 H 538.235 -3.70396 -2.09015 0
M  V30 5995 N 536.55 0.480323 -1.50102 0
M  V30 5996 C 537.79 1.24301 -1.62261 0
M  V30 5997 C 538.154 1.89452 -0.311758 0
M  V30 5998 O 539.355 2.67022 -0.308696 0
M  V30 5999 C 537.626 2.26588 -2.76392 0
M  V30 6000 S 539.185 3.11919 -3.08629 0
M  V30 6001 H 536.003 0.42215 -0.57211 0
M  V30 6002 H 538.605 0.541591 -1.87848 0
M  V30 6003 H 537.309 1.7729 -3.70131 0
M  V30 6004 H 536.84 3.01371 -2.52862 0
M  V30 6005 H 538.855 4.27598 -2.51742 0
M  V30 6006 N 538.028 1.39524 0.732853 0
M  V30 6007 C 538.976 1.38563 1.86824 0
M  V30 6008 C 539.97 0.268467 1.67259 0
M  V30 6009 O 541.176 0.438613 1.74574 0
M  V30 6010 H 537.551 0.432737 0.615014 0
M  V30 6011 H 539.522 2.34328 1.84751 0
M  V30 6012 C 538.271 1.2481 3.24527 0
M  V30 6013 H 537.594 2.10044 3.40179 0
M  V30 6014 H 539.034 1.28194 4.04156 0
M  V30 6015 C 537.493 -0.0432825 3.36872 0
M  V30 6016 O 538.023 -1.01268 3.88726 0
M  V30 6017 N 536.229 -0.107055 2.90403 0
M  V30 6018 H 535.776 0.682512 2.48394 0
M  V30 6019 H 535.734 -0.970618 2.99042 0
M  V30 6020 N 539.506 -0.963266 1.24736 0
M  V30 6021 C 540.752 -1.70933 1.09131 0
M  V30 6022 C 541.085 -1.90676 -0.368273 0
M  V30 6023 O 540.36 -1.47147 -1.27193 0
M  V30 6024 C 540.643 -3.09744 1.83658 0
M  V30 6025 C 540.496 -2.97465 3.37394 0
M  V30 6026 C 541.815 -4.09483 1.61282 0
M  V30 6027 H 538.934 -0.620398 0.397838 0
M  V30 6028 H 541.576 -1.12028 1.53459 0
M  V30 6029 H 539.726 -3.60031 1.4598 0
M  V30 6030 H 541.398 -2.54571 3.84696 0
M  V30 6031 H 539.641 -2.33576 3.65547 0
M  V30 6032 H 540.312 -3.95822 3.84745 0
M  V30 6033 H 542.788 -3.68073 1.94066 0
M  V30 6034 H 541.664 -5.04666 2.15878 0
M  V30 6035 H 541.925 -4.38639 0.552102 0
M  V30 6036 N 540.985 -1.06182 -1.16461 0
M  V30 6037 C 541.895 -0.682671 -2.24448 0
M  V30 6038 C 542.911 0.30078 -1.71381 0
M  V30 6039 O 544.087 0.150376 -2.00838 0
M  V30 6040 C 541.152 -0.0737202 -3.46622 0
M  V30 6041 C 540.213 -1.10889 -4.14731 0
M  V30 6042 C 539.446 -0.528908 -5.31073 0
M  V30 6043 O 539.669 0.65868 -5.66584 0
M  V30 6044 O 538.603 -1.26805 -5.88391 0
M  V30 6045 H 542.429 -1.58291 -2.59187 0
M  V30 6046 H 540.014 -0.834013 -1.23954 0
M  V30 6047 H 541.896 0.264192 -4.20571 0
M  V30 6048 H 540.571 0.800015 -3.13658 0
M  V30 6049 H 539.478 -1.49896 -3.42756 0
M  V30 6050 H 540.811 -1.95412 -4.51747 0
M  V30 6051 N 542.463 1.3308 -0.844243 0
M  V30 6052 C 543.395 2.27954 -0.238671 0
M  V30 6053 C 544.408 1.51978 0.583665 0
M  V30 6054 O 545.597 1.73731 0.409857 0
M  V30 6055 C 542.697 3.31963 0.682185 0
M  V30 6056 C 541.87 4.37281 -0.101998 0
M  V30 6057 C 540.929 5.20928 0.743022 0
M  V30 6058 O 539.955 5.68914 0.180285 0
M  V30 6059 N 541.157 5.42738 2.0595 0
M  V30 6060 H 543.922 2.8056 -1.05386 0
M  V30 6061 H 541.483 1.4583 -0.70322 0
M  V30 6062 H 543.475 3.84828 1.25259 0
M  V30 6063 H 542.045 2.79594 1.39808 0
M  V30 6064 H 541.265 3.84843 -0.853802 0
M  V30 6065 H 542.553 5.04746 -0.641015 0
M  V30 6066 H 541.951 5.05463 2.54016 0
M  V30 6067 H 540.508 5.98639 2.57827 0
M  V30 6068 N 543.941 0.601185 1.45683 0
M  V30 6069 C 545.166 0.0982245 2.07167 0
M  V30 6070 C 545.591 -1.20546 1.44396 0
M  V30 6071 O 544.949 -1.73247 0.534347 0
M  V30 6072 C 544.997 -0.0346976 3.60583 0
M  V30 6073 O 544.101 -1.08657 3.97828 0
M  V30 6074 H 543.442 0.0711618 0.660176 0
M  V30 6075 H 545.972 0.829376 1.87036 0
M  V30 6076 H 545.982 -0.234969 4.07323 0
M  V30 6077 H 544.657 0.917265 4.05659 0
M  V30 6078 H 543.234 -0.863275 3.6277 0
M  V30 6079 N 545.419 -1.53889 0.339982 0
M  V30 6080 C 546.666 -2.00855 -0.257621 0
M  V30 6081 C 546.994 -1.22788 -1.50842 0
M  V30 6082 O 546.249 -0.302567 -1.93347 0
M  V30 6083 C 546.548 -3.51968 -0.620735 0
M  V30 6084 C 546.214 -4.47741 0.532771 0
M  V30 6085 C 544.876 -4.73645 0.849339 0
M  V30 6086 C 547.228 -5.04551 1.3068 0
M  V30 6087 C 544.556 -5.53614 1.94237 0
M  V30 6088 C 546.908 -5.85713 2.39005 0
M  V30 6089 C 545.572 -6.09912 2.71225 0
M  V30 6090 H 544.842 -0.734979 -0.0942703 0
M  V30 6091 H 547.489 -1.85714 0.467159 0
M  V30 6092 H 545.794 -3.64921 -1.42618 0
M  V30 6093 H 547.491 -3.85762 -1.09495 0
M  V30 6094 H 544.081 -4.27711 0.275973 0
M  V30 6095 H 548.265 -4.84507 1.07549 0
M  V30 6096 H 543.521 -5.7059 2.19628 0
M  V30 6097 H 547.695 -6.28748 2.99415 0
M  V30 6098 H 545.322 -6.71665 3.56047 0
M  V30 6099 N 546.897 -0.0685191 -1.57451 0
M  V30 6100 C 548.144 0.601348 -1.93365 0
M  V30 6101 C 548.472 1.69816 -0.948294 0
M  V30 6102 O 547.727 1.95666 0.0366199 0
M  V30 6103 C 548.026 1.22051 -3.35914 0
M  V30 6104 C 547.692 0.250165 -4.50205 0
M  V30 6105 C 546.354 -0.0167954 -4.81197 0
M  V30 6106 C 548.706 -0.413867 -5.19554 0
M  V30 6107 C 546.034 -0.95493 -5.78876 0
M  V30 6108 C 548.386 -1.3403 -6.18238 0
M  V30 6109 C 547.05 -1.61576 -6.47649 0
M  V30 6110 H 546.32 0.220049 -0.707573 0
M  V30 6111 H 548.967 -0.138697 -1.90997 0
M  V30 6112 H 547.272 2.03622 -3.34732 0
M  V30 6113 H 548.969 1.74605 -3.6099 0
M  V30 6114 H 545.559 0.468421 -4.26033 0
M  V30 6115 H 549.743 -0.220733 -4.95809 0
M  V30 6116 H 544.999 -1.17563 -5.99991 0
M  V30 6117 H 549.173 -1.86081 -6.71079 0
M  V30 6118 H 546.8 -2.34431 -7.2315 0
M  V30 6119 N 548.375 1.56261 0.205012 0
M  V30 6120 C 549.323 1.94631 1.27364 0
M  V30 6121 C 550.317 0.830434 1.47649 0
M  V30 6122 O 551.523 1.01538 1.48627 0
M  V30 6123 H 547.898 0.618755 0.427371 0
M  V30 6124 H 549.869 2.83768 0.922941 0
M  V30 6125 C 548.618 2.29358 2.61324 0
M  V30 6126 H 547.941 3.14744 2.46528 0
M  V30 6127 H 549.381 2.60076 3.34868 0
M  V30 6128 C 547.84 1.12461 3.17575 0
M  V30 6129 O 548.37 0.394407 3.99759 0
M  V30 6130 N 546.576 0.904036 2.7618 0
M  V30 6131 H 546.123 1.49956 2.09454 0
M  V30 6132 H 546.081 0.123662 3.14157 0
M  V30 6133 N 549.853 -0.472356 1.50355 0
M  V30 6134 C 551.13 -1.23356 1.51798 0
M  V30 6135 C 551.51 -2.09469 0.26193 0
M  V30 6136 O 550.858 -2.15677 -0.754691 0
M  V30 6137 C 551.068 -2.06568 2.81302 0
M  V30 6138 C 552.416 -2.648 3.31913 0
M  V30 6139 O 553.44 -2.16812 2.82614 0
M  V30 6140 O 552.299 -3.52231 4.17846 0
M  V30 6141 H 549.393 -0.559707 0.608816 0
M  V30 6142 H 551.939 -0.48428 1.62643 0
M  V30 6143 H 550.711 -1.43103 3.64194 0
M  V30 6144 H 550.334 -2.88633 2.73454 0
M  V30 6145 N 551.331 -1.39911 -0.725443 0
M  V30 6146 C 552.577 -1.38862 -1.48624 0
M  V30 6147 C 552.932 0.0125913 -1.92396 0
M  V30 6148 O 552.225 0.981046 -1.64578 0
M  V30 6149 C 552.419 -2.30368 -2.7325 0
M  V30 6150 C 552.248 -3.79247 -2.41665 0
M  V30 6151 C 551.018 -4.48119 -2.3349 0
M  V30 6152 C 553.216 -4.70988 -2.06579 0
M  V30 6153 N 551.198 -5.82282 -1.94476 0
M  V30 6154 C 552.569 -5.93873 -1.78087 0
M  V30 6155 C 554.624 -4.58917 -1.9313 0
M  V30 6156 C 553.327 -7.06036 -1.37499 0
M  V30 6157 C 555.353 -5.71012 -1.53946 0
M  V30 6158 C 554.715 -6.92976 -1.26345 0
M  V30 6159 H 550.814 -0.563394 -0.54232 0
M  V30 6160 H 553.398 -1.75542 -0.842213 0
M  V30 6161 H 551.569 -1.95831 -3.35417 0
M  V30 6162 H 553.301 -2.20245 -3.39521 0
M  V30 6163 H 550.056 -4.01677 -2.50904 0
M  V30 6164 H 550.48 -6.53307 -1.77535 0
M  V30 6165 H 555.122 -3.65149 -2.13134 0
M  V30 6166 H 552.84 -7.99697 -1.16237 0
M  V30 6167 H 556.426 -5.63664 -1.44132 0
M  V30 6168 H 555.306 -7.78243 -0.964787 0
M  V30 6169 N 552.809 0.956637 -1.25245 0
M  V30 6170 C 554.056 1.701 -1.09874 0
M  V30 6171 C 554.384 1.91128 0.36062 0
M  V30 6172 O 553.639 1.47837 1.28229 0
M  V30 6173 C 553.938 3.08996 -1.79601 0
M  V30 6174 C 553.604 3.07774 -3.29523 0
M  V30 6175 C 552.266 3.07149 -3.70423 0
M  V30 6176 C 554.618 3.01257 -4.25316 0
M  V30 6177 C 551.946 2.97752 -5.0553 0
M  V30 6178 C 554.298 2.93403 -5.60444 0
M  V30 6179 C 552.962 2.91111 -6.00675 0
M  V30 6180 H 552.232 0.62244 -0.402056 0
M  V30 6181 H 554.879 1.1178 -1.55491 0
M  V30 6182 H 553.184 3.70848 -1.26408 0
M  V30 6183 H 554.881 3.65407 -1.65162 0
M  V30 6184 H 551.471 3.09032 -2.9698 0
M  V30 6185 H 555.655 3.00861 -3.9471 0
M  V30 6186 H 550.911 2.94346 -5.35883 0
M  V30 6187 H 555.085 2.87321 -6.34366 0
M  V30 6188 H 552.712 2.83586 -7.05325 0
M  V30 6189 N 554.287 1.06798 1.15896 0
M  V30 6190 C 555.512 0.808739 1.90982 0
M  V30 6191 C 555.937 -0.6316 1.77179 0
M  V30 6192 O 555.295 -1.4407 1.10061 0
M  V30 6193 C 555.343 1.21468 3.39526 0
M  V30 6194 O 554.447 0.356562 4.10856 0
M  V30 6195 H 553.788 0.29512 0.594811 0
M  V30 6196 H 556.318 1.42513 1.46804 0
M  V30 6197 H 556.328 1.18844 3.90308 0
M  V30 6198 H 555.003 2.26379 3.48891 0
M  V30 6199 H 553.58 0.444808 3.70238 0
M  V30 6200 N 555.766 -1.3263 0.851289 0
M  V30 6201 C 557.014 -1.96978 0.452128 0
M  V30 6202 C 557.335 -1.67715 -0.99482 0
M  V30 6203 O 556.605 -0.98259 -1.69476 0
M  V30 6204 H 555.185 -0.72873 0.164202 0
M  V30 6205 H 557.847 -1.61774 1.08698 0
M  V30 6206 H 556.943 -3.06387 0.594407 0
M  V30 6207 N 557.244 -0.608902 -1.45362 0
M  V30 6208 C 558.194 0.130616 -2.27626 0
M  V30 6209 C 559.178 0.837323 -1.37396 0
M  V30 6210 O 560.37 0.727096 -1.61376 0
M  V30 6211 C 557.499 1.12646 -3.24293 0
M  V30 6212 C 556.585 0.42052 -4.2201 0
M  V30 6213 N 556.976 -0.538569 -5.02925 0
M  V30 6214 C 555.274 0.667901 -4.40971 0
M  V30 6215 C 555.975 -0.953625 -5.7383 0
M  V30 6216 N 554.951 -0.297097 -5.42788 0
M  V30 6217 H 558.753 -0.605996 -2.87585 0
M  V30 6218 H 556.267 -0.432672 -1.5653 0
M  V30 6219 H 558.264 1.67066 -3.81961 0
M  V30 6220 H 556.924 1.86361 -2.65894 0
M  V30 6221 H 557.935 -0.915375 -5.09746 0
M  V30 6222 H 554.612 1.38963 -3.93695 0
M  V30 6223 H 556.002 -1.74473 -6.48852 0
M  V30 6224 N 558.722 1.53707 -0.348139 0
M  V30 6225 C 559.652 2.28111 0.498766 0
M  V30 6226 C 560.633 1.29851 1.09876 0
M  V30 6227 O 561.818 1.587 1.11928 0
M  V30 6228 C 558.948 3.05735 1.64753 0
M  V30 6229 C 557.902 4.11537 1.17565 0
M  V30 6230 C 557.228 4.77142 2.4133 0
M  V30 6231 C 558.528 5.21587 0.272844 0
M  V30 6232 H 560.222 2.99152 -0.121934 0
M  V30 6233 H 557.768 1.43875 -0.0600842 0
M  V30 6234 H 559.721 3.56526 2.24649 0
M  V30 6235 H 558.445 2.32354 2.2952 0
M  V30 6236 H 557.104 3.61665 0.599483 0
M  V30 6237 H 556.752 4.0035 3.04514 0
M  V30 6238 H 556.452 5.48626 2.10436 0
M  V30 6239 H 557.976 5.30719 3.01943 0
M  V30 6240 H 559.39 5.67986 0.778779 0
M  V30 6241 H 557.787 6.00074 0.0555849 0
M  V30 6242 H 558.857 4.79969 -0.689785 0
M  V30 6243 N 560.2 0.0768682 1.57412 0
M  V30 6244 C 561.148 -0.906229 2.1422 0
M  V30 6245 C 562.142 -1.30477 1.08037 0
M  V30 6246 O 563.348 -1.28143 1.2641 0
M  V30 6247 H 559.723 -0.310207 0.685037 0
M  V30 6248 H 561.694 -0.402228 2.95677 0
M  V30 6249 C 560.443 -2.16245 2.72274 0
M  V30 6250 H 559.766 -1.86463 3.53655 0
M  V30 6251 H 561.206 -2.83134 3.15613 0
M  V30 6252 C 559.665 -2.92437 1.67279 0
M  V30 6253 O 560.195 -3.86322 1.10081 0
M  V30 6254 N 558.401 -2.55637 1.38195 0
M  V30 6255 H 557.948 -1.79363 1.84897 0
M  V30 6256 H 557.906 -3.06919 0.681787 0
M  V30 6257 N 561.678 -1.56367 -0.196722 0
M  V30 6258 C 562.925 -1.80529 -0.917366 0
M  V30 6259 C 563.253 -0.649817 -1.83324 0
M  V30 6260 O 562.508 0.36451 -1.92275 0
M  V30 6261 C 562.807 -3.10663 -1.767 0
M  V30 6262 C 562.473 -4.3962 -1.00225 0
M  V30 6263 C 561.135 -4.74653 -0.791095 0
M  V30 6264 C 563.487 -5.1913 -0.464035 0
M  V30 6265 C 560.815 -5.86692 -0.0302155 0
M  V30 6266 C 563.167 -6.31964 0.283625 0
M  V30 6267 C 561.831 -6.65581 0.505813 0
M  V30 6268 H 561.101 -0.660602 -0.335688 0
M  V30 6269 H 563.748 -1.90615 -0.183844 0
M  V30 6270 H 562.053 -2.95807 -2.56915 0
M  V30 6271 H 563.75 -3.26563 -2.32718 0
M  V30 6272 H 560.34 -4.12127 -1.17684 0
M  V30 6273 H 564.524 -4.9248 -0.614575 0
M  V30 6274 H 559.78 -6.11211 0.151917 0
M  V30 6275 H 563.954 -6.92791 0.708057 0
M  V30 6276 H 561.581 -7.52239 1.0973 0
M  V30 6277 N 563.156 0.464375 -1.50603 0
M  V30 6278 C 564.088 1.57916 -1.66118 0
M  V30 6279 C 565.101 1.53497 -0.54246 0
M  V30 6280 O 566.29 1.58763 -0.815877 0
M  V30 6281 C 563.39 2.96809 -1.63577 0
M  V30 6282 C 562.563 3.26026 -2.91592 0
M  V30 6283 C 561.622 4.44506 -2.81604 0
M  V30 6284 O 560.648 4.44484 -3.55559 0
M  V30 6285 N 561.85 5.46549 -1.95614 0
M  V30 6286 H 564.615 1.45022 -2.62276 0
M  V30 6287 H 562.176 0.652903 -1.48151 0
M  V30 6288 H 564.168 3.74048 -1.54499 0
M  V30 6289 H 562.738 3.03438 -0.751262 0
M  V30 6290 H 561.958 2.37337 -3.14746 0
M  V30 6291 H 563.246 3.42361 -3.76386 0
M  V30 6292 H 562.644 5.49391 -1.34854 0
M  V30 6293 H 561.201 6.22746 -1.92435 0
M  V30 6294 N 564.634 1.40294 0.718013 0
M  V30 6295 C 565.883 1.37746 1.4734 0
M  V30 6296 C 566.196 -0.0180754 1.95592 0
M  V30 6297 O 567.402 -0.166166 2.70991 0
M  V30 6298 C 565.858 2.4208 2.66318 0
M  V30 6299 C 565.466 3.87432 2.24945 0
M  V30 6300 C 567.21 2.48635 3.44065 0
M  V30 6301 C 565.117 4.83368 3.40748 0
M  V30 6302 H 564.047 0.512165 0.553356 0
M  V30 6303 H 566.698 1.66019 0.781661 0
M  V30 6304 H 565.08 2.06903 3.3765 0
M  V30 6305 H 566.254 4.3174 1.6105 0
M  V30 6306 H 564.569 3.8433 1.60249 0
M  V30 6307 H 567.166 3.17499 4.30231 0
M  V30 6308 H 567.509 1.51611 3.87711 0
M  V30 6309 H 568.042 2.82791 2.79775 0
M  V30 6310 H 564.781 5.81716 3.02136 0
M  V30 6311 H 564.301 4.43726 4.03568 0
M  V30 6312 H 565.98 5.03074 4.06848 0
M  V30 6313 N 566.112 -0.949982 1.2575 0
M  V30 6314 C 567.022 -2.08109 1.08295 0
M  V30 6315 C 568.038 -1.7399 0.0188181 0
M  V30 6316 O 569.214 -2.00187 0.220724 0
M  V30 6317 C 566.279 -3.39383 0.708534 0
M  V30 6318 C 565.34 -3.8734 1.85111 0
M  V30 6319 C 564.573 -5.12349 1.49447 0
M  V30 6320 O 564.796 -5.6905 0.392212 0
M  V30 6321 O 563.73 -5.5513 2.32624 0
M  V30 6322 H 567.556 -2.25738 2.03165 0
M  V30 6323 H 565.141 -1.06545 1.04731 0
M  V30 6324 H 567.023 -4.18277 0.512061 0
M  V30 6325 H 565.698 -3.23013 -0.210854 0
M  V30 6326 H 564.605 -3.09429 2.10248 0
M  V30 6327 H 565.938 -4.08216 2.74991 0
M  V30 6328 N 567.59 -1.07411 -1.15328 0
M  V30 6329 C 568.54 -0.664788 -2.18093 0
M  V30 6330 C 569.524 0.310395 -1.57878 0
M  V30 6331 O 570.716 0.124026 -1.76565 0
M  V30 6332 C 567.845 -0.0647822 -3.43239 0
M  V30 6333 C 566.931 -1.06514 -4.10506 0
M  V30 6334 N 567.322 -2.24491 -4.53252 0
M  V30 6335 C 565.62 -0.898613 -4.36853 0
M  V30 6336 C 566.321 -2.8796 -5.05424 0
M  V30 6337 N 565.297 -2.15622 -4.99007 0
M  V30 6338 H 569.099 -1.56333 -2.48872 0
M  V30 6339 H 566.613 -0.947393 -1.31902 0
M  V30 6340 H 568.61 0.246363 -4.16171 0
M  V30 6341 H 567.27 0.828866 -3.13943 0
M  V30 6342 H 568.281 -2.62205 -4.46619 0
M  V30 6343 H 564.958 -0.0579118 -4.1746 0
M  V30 6344 H 566.348 -3.88137 -5.48452 0
M  V30 6345 N 569.068 1.32177 -0.85831 0
M  V30 6346 C 570.018 2.26307 -0.277307 0
M  V30 6347 C 571.002 1.50123 0.578946 0
M  V30 6348 O 572.194 1.71754 0.427731 0
M  V30 6349 C 569.323 3.39181 0.530232 0
M  V30 6350 C 568.409 4.22746 -0.338613 0
M  V30 6351 N 568.8 4.85265 -1.4266 0
M  V30 6352 C 567.098 4.45813 -0.129 0
M  V30 6353 C 567.799 5.47634 -1.96142 0
M  V30 6354 N 566.775 5.28794 -1.26007 0
M  V30 6355 H 570.577 2.72173 -1.10902 0
M  V30 6356 H 568.091 1.46308 -0.704816 0
M  V30 6357 H 570.088 4.05628 0.962904 0
M  V30 6358 H 568.748 2.9486 1.35969 0
M  V30 6359 H 569.759 4.85259 -1.80953 0
M  V30 6360 H 566.436 4.12163 0.665451 0
M  V30 6361 H 567.826 6.0735 -2.8736 0
M  V30 6362 N 570.547 0.616602 1.45037 0
M  V30 6363 C 571.477 -0.0840787 2.33349 0
M  V30 6364 C 572.458 -0.849641 1.4736 0
M  V30 6365 O 573.643 -0.818407 1.76113 0
M  V30 6366 C 570.773 -1.07604 3.3021 0
M  V30 6367 C 569.727 -0.423096 4.25904 0
M  V30 6368 C 569.053 -1.52394 5.12523 0
M  V30 6369 C 570.353 0.661457 5.18095 0
M  V30 6370 H 572.047 0.653333 2.92185 0
M  V30 6371 H 569.593 0.315634 1.40498 0
M  V30 6372 H 571.546 -1.57485 3.90866 0
M  V30 6373 H 570.27 -1.84416 2.69552 0
M  V30 6374 H 568.929 0.05493 3.66559 0
M  V30 6375 H 568.577 -2.28257 4.48227 0
M  V30 6376 H 568.277 -1.09251 5.77354 0
M  V30 6377 H 569.801 -2.02485 5.76049 0
M  V30 6378 H 571.215 0.246353 5.7277 0
M  V30 6379 H 569.612 1.01517 5.91451 0
M  V30 6380 H 570.682 1.53446 4.59981 0
M  V30 6381 N 572.025 -1.5352 0.356285 0
M  V30 6382 C 573.272 -2.01117 -0.236303 0
M  V30 6383 C 573.6 -1.24381 -1.49531 0
M  V30 6384 O 572.855 -0.323057 -1.93015 0
M  V30 6385 C 573.154 -3.52607 -0.583369 0
M  V30 6386 C 572.82 -4.47151 0.58023 0
M  V30 6387 C 571.482 -4.72718 0.899528 0
M  V30 6388 C 573.834 -5.03137 1.36024 0
M  V30 6389 C 571.162 -5.51523 2.00098 0
M  V30 6390 C 573.514 -5.83145 2.45204 0
M  V30 6391 C 572.178 -6.07001 2.77679 0
M  V30 6392 H 571.448 -0.735938 -0.0864695 0
M  V30 6393 H 574.095 -1.85209 0.48683 0
M  V30 6394 H 572.4 -3.66413 -1.38739 0
M  V30 6395 H 574.097 -3.86901 -1.05397 0
M  V30 6396 H 570.687 -4.27394 0.321322 0
M  V30 6397 H 574.871 -4.83339 1.12682 0
M  V30 6398 H 570.127 -5.68229 2.25668 0
M  V30 6399 H 574.301 -6.25537 3.06067 0
M  V30 6400 H 571.928 -6.67851 3.63151 0
M  V30 6401 N 573.503 -0.0852151 -1.57369 0
M  V30 6402 C 574.914 0.445428 -1.81309 0
M  V30 6403 C 575.265 1.68795 -1.00013 0
M  V30 6404 O 574.39 2.15211 -0.226573 0
M  V30 6405 C 574.985 0.814887 -3.28854 0
M  V30 6406 C 573.544 1.29032 -3.53592 0
M  V30 6407 C 572.691 0.282089 -2.75861 0
M  V30 6408 H 575.642 -0.310771 -1.55627 0
M  V30 6409 H 575.663 1.67524 -3.41637 0
M  V30 6410 H 575.175 -0.0896309 -3.87996 0
M  V30 6411 H 573.276 2.21289 -2.9977 0
M  V30 6412 H 573.389 1.25898 -4.62262 0
M  V30 6413 H 571.753 0.762182 -2.43029 0
M  V30 6414 H 572.536 -0.614936 -3.37748 0
M  V30 6415 N 574.981 1.5647 0.188427 0
M  V30 6416 C 576.209 1.85131 0.923803 0
M  V30 6417 C 576.624 0.668537 1.76567 0
M  V30 6418 O 575.981 -0.362662 1.7886 0
M  V30 6419 C 576.032 3.12661 1.81453 0
M  V30 6420 O 575.753 4.26378 1.00665 0
M  V30 6421 C 577.254 3.54548 2.66103 0
M  V30 6422 H 574.474 0.614624 0.269218 0
M  V30 6423 H 577.018 2.03581 0.193671 0
M  V30 6424 H 575.173 2.96088 2.49821 0
M  V30 6425 H 575.587 4.99041 1.61425 0
M  V30 6426 H 577.061 4.4673 3.24247 0
M  V30 6427 H 577.538 2.77853 3.40139 0
M  V30 6428 H 578.144 3.73674 2.03096 0
M  V30 6429 N 576.459 -0.456382 1.50847 0
M  V30 6430 C 577.392 -1.57177 1.65441 0
M  V30 6431 C 578.37 -1.54649 0.502224 0
M  V30 6432 O 579.554 -1.74057 0.723633 0
M  V30 6433 C 576.681 -2.95763 1.65052 0
M  V30 6434 C 575.727 -3.16389 2.86007 0
M  V30 6435 S 576.56 -2.94716 4.47105 0
M  V30 6436 C 577.716 -4.35617 4.49432 0
M  V30 6437 H 577.949 -1.44561 2.59787 0
M  V30 6438 H 575.482 -0.644758 1.40293 0
M  V30 6439 H 577.44 -3.75654 1.65512 0
M  V30 6440 H 576.101 -3.05756 0.719153 0
M  V30 6441 H 575.294 -4.17667 2.82081 0
M  V30 6442 H 574.896 -2.44293 2.8319 0
M  V30 6443 H 577.188 -5.28503 4.239 0
M  V30 6444 H 578.131 -4.44582 5.51137 0
M  V30 6445 H 578.539 -4.18382 3.78967 0
M  V30 6446 N 577.937 -1.40673 -0.710563 0
M  V30 6447 C 579.348 -1.34975 -1.28991 0
M  V30 6448 C 579.699 -0.0256272 -1.96183 0
M  V30 6449 O 578.824 0.876339 -1.97862 0
M  V30 6450 C 579.419 -2.44467 -2.34567 0
M  V30 6451 C 577.978 -2.42213 -2.88114 0
M  V30 6452 C 577.125 -2.25085 -1.61963 0
M  V30 6453 H 580.076 -1.50406 -0.506343 0
M  V30 6454 H 580.097 -2.12663 -3.15523 0
M  V30 6455 H 579.609 -3.40825 -1.85634 0
M  V30 6456 H 577.71 -1.49568 -3.41263 0
M  V30 6457 H 577.823 -3.37983 -3.39565 0
M  V30 6458 H 576.187 -1.72691 -1.87216 0
M  V30 6459 H 576.97 -3.23449 -1.15047 0
M  V30 6460 N 579.415 0.9433 -1.26252 0
M  V30 6461 C 580.831 1.21644 -1.03319 0
M  V30 6462 C 581.031 2.0003 0.242983 0
M  V30 6463 O 580.087 2.33838 0.952688 0
M  V30 6464 C 581.4 1.97978 -2.2633 0
M  V30 6465 C 582.948 2.10978 -2.31209 0
M  V30 6466 C 583.423 2.90713 -3.53907 0
M  V30 6467 N 584.914 2.98287 -3.54371 0
M  V30 6468 C 585.649 3.60406 -4.45976 0
M  V30 6469 N 585.145 4.24043 -5.47868 0
M  V30 6470 N 586.938 3.57658 -4.33633 0
M  V30 6471 H 579.089 0.419221 -2.08222 0
M  V30 6472 H 581.352 0.247995 -0.914988 0
M  V30 6473 H 581.058 1.47788 -3.19142 0
M  V30 6474 H 580.932 2.9865 -2.30408 0
M  V30 6475 H 583.319 2.6036 -1.38913 0
M  V30 6476 H 583.4 1.09575 -2.31143 0
M  V30 6477 H 583.044 2.42018 -4.46531 0
M  V30 6478 H 582.974 3.92367 -3.5122 0
M  V30 6479 H 585.465 2.53044 -2.80673 0
M  V30 6480 H 585.778 4.69334 -6.13959 0
M  V30 6481 H 584.123 4.22637 -5.51728 0
M  V30 6482 H 587.314 3.07134 -3.53251 0
M  V30 6483 H 587.487 4.05782 -5.05218 0
M  V30 6484 N 580.893 1.08022 1.14757 0
M  V30 6485 C 581.843 0.676345 2.17737 0
M  V30 6486 C 582.827 -0.302018 1.5804 0
M  V30 6487 O 584.019 -0.11466 1.76628 0
M  V30 6488 C 581.148 0.082984 3.432 0
M  V30 6489 C 580.234 1.0869 4.09936 0
M  V30 6490 N 580.625 2.26891 4.52055 0
M  V30 6491 C 578.923 0.921768 4.36371 0
M  V30 6492 C 579.624 2.90636 5.0389 0
M  V30 6493 N 578.6 2.18266 4.97856 0
M  V30 6494 H 582.402 1.5765 2.4804 0
M  V30 6495 H 579.916 0.954374 1.31398 0
M  V30 6496 H 581.913 -0.224289 4.16296 0
M  V30 6497 H 580.573 -0.812206 3.14378 0
M  V30 6498 H 581.584 2.6457 4.45223 0
M  V30 6499 H 578.261 0.0800499 4.17423 0
M  V30 6500 H 579.651 3.9104 5.46386 0
M  V30 6501 N 582.371 -1.3172 0.865308 0
M  V30 6502 C 583.319 -2.30569 0.306674 0
M  V30 6503 C 584.313 -1.59317 -0.575724 0
M  V30 6504 O 585.519 -1.73961 -0.462343 0
M  V30 6505 H 581.894 -0.747681 0.0804834 0
M  V30 6506 H 583.865 -2.75165 1.15441 0
M  V30 6507 C 582.614 -3.44358 -0.480952 0
M  V30 6508 H 581.937 -3.99354 0.18876 0
M  V30 6509 H 583.377 -4.15652 -0.837241 0
M  V30 6510 C 581.836 -2.92574 -1.67039 0
M  V30 6511 O 582.366 -2.90954 -2.76964 0
M  V30 6512 N 580.572 -2.48835 -1.50097 0
M  V30 6513 H 580.119 -2.50353 -0.606738 0
M  V30 6514 H 580.077 -2.14543 -2.29823 0
M  V30 6515 N 583.85 -0.624285 -1.44708 0
M  V30 6516 C 584.779 0.0717025 -2.3339 0
M  V30 6517 C 585.76 0.841814 -1.47809 0
M  V30 6518 O 586.946 0.809056 -1.76544 0
M  V30 6519 C 584.076 1.05852 -3.30776 0
M  V30 6520 C 583.029 0.400503 -4.26122 0
M  V30 6521 C 582.356 1.49674 -5.13324 0
M  V30 6522 C 583.656 -0.688924 -5.17737 0
M  V30 6523 H 585.35 -0.668819 -2.91834 0
M  V30 6524 H 582.896 -0.32308 -1.40329 0
M  V30 6525 H 584.849 1.5541 -3.91696 0
M  V30 6526 H 583.572 1.82984 -2.70526 0
M  V30 6527 H 582.231 -0.0743687 -3.66525 0
M  V30 6528 H 581.88 2.25877 -4.49431 0
M  V30 6529 H 581.58 1.06188 -5.77926 0
M  V30 6530 H 583.104 1.99427 -5.77115 0
M  V30 6531 H 584.518 -0.276724 -5.72632 0
M  V30 6532 H 582.915 -1.04652 -5.90904 0
M  V30 6533 H 583.985 -1.55884 -4.5916 0
M  V30 6534 N 585.328 1.53329 -0.364422 0
M  V30 6535 C 586.278 2.22472 0.499024 0
M  V30 6536 C 587.262 1.21952 1.0496 0
M  V30 6537 O 588.454 1.47405 0.979836 0
M  V30 6538 C 585.583 3.01659 1.6388 0
M  V30 6539 C 584.669 4.09555 1.10116 0
M  V30 6540 N 585.06 5.04988 0.286414 0
M  V30 6541 C 583.358 4.2424 1.37608 0
M  V30 6542 C 584.059 5.81699 -0.00781682 0
M  V30 6543 N 583.035 5.40394 0.589494 0
M  V30 6544 H 586.837 2.93611 -0.130284 0
M  V30 6545 H 584.351 1.61483 -0.172377 0
M  V30 6546 H 586.348 3.4971 2.26954 0
M  V30 6547 H 585.008 2.32051 2.27118 0
M  V30 6548 H 586.019 5.17847 -0.0742839 0
M  V30 6549 H 582.696 3.65858 2.01133 0
M  V30 6550 H 584.086 6.68587 -0.666394 0
M  V30 6551 N 586.806 0.0935595 1.57322 0
M  V30 6552 C 587.753 -0.865935 2.1394 0
M  V30 6553 C 588.723 -1.28083 1.05754 0
M  V30 6554 O 589.908 -1.36285 1.33533 0
M  V30 6555 C 587.048 -2.12023 2.72287 0
M  V30 6556 C 586.161 -1.756 3.94701 0
M  V30 6557 C 585.296 -2.95804 4.41218 0
M  V30 6558 C 584.335 -2.555 5.56225 0
M  V30 6559 N 583.472 -3.68534 5.97601 0
M  V30 6560 H 588.312 -0.376261 2.95615 0
M  V30 6561 H 585.849 -0.174052 1.46067 0
M  V30 6562 H 587.807 -2.85477 3.04235 0
M  V30 6563 H 586.437 -2.58492 1.93343 0
M  V30 6564 H 585.489 -0.921208 3.69077 0
M  V30 6565 H 586.801 -1.41964 4.78171 0
M  V30 6566 H 585.955 -3.77513 4.74941 0
M  V30 6567 H 584.694 -3.32649 3.56645 0
M  V30 6568 H 583.699 -1.72218 5.22131 0
M  V30 6569 H 584.924 -2.19801 6.42545 0
M  V30 6570 H 582.87 -4.051 5.15974 0
M  V30 6571 H 582.787 -3.38737 6.75865 0
M  V30 6572 H 584.055 -4.50757 6.35955 0
M  V30 6573 N 588.284 -1.56567 -0.180126 0
M  V30 6574 C 589.533 -1.80685 -0.896426 0
M  V30 6575 C 589.846 -0.669335 -1.83791 0
M  V30 6576 O 591.052 -0.795209 -2.59593 0
M  V30 6577 C 589.508 -3.20132 -1.6445 0
M  V30 6578 C 589.116 -4.41727 -0.747088 0
M  V30 6579 C 590.86 -3.53549 -2.34955 0
M  V30 6580 C 588.767 -5.72195 -1.49489 0
M  V30 6581 H 587.697 -0.673758 -0.338477 0
M  V30 6582 H 590.348 -1.8289 -0.149467 0
M  V30 6583 H 588.73 -3.12218 -2.43589 0
M  V30 6584 H 589.904 -4.608 0.00671129 0
M  V30 6585 H 588.219 -4.16122 -0.152134 0
M  V30 6586 H 590.816 -4.48267 -2.91481 0
M  V30 6587 H 591.159 -2.78006 -3.09868 0
M  V30 6588 H 591.692 -3.62976 -1.62768 0
M  V30 6589 H 588.431 -6.50743 -0.788251 0
M  V30 6590 H 587.951 -5.57115 -2.22224 0
M  V30 6591 H 589.63 -6.1384 -2.04472 0
M  V30 6592 N 589.762 0.448376 -1.51087 0
M  V30 6593 C 590.725 1.52588 -1.71025 0
M  V30 6594 C 591.725 1.49958 -0.580442 0
M  V30 6595 O 592.915 1.52176 -0.847833 0
M  V30 6596 C 590.047 2.92163 -1.75652 0
M  V30 6597 H 591.24 1.36218 -2.67179 0
M  V30 6598 H 588.793 0.676313 -1.4091 0
M  V30 6599 H 589.528 3.13951 -0.812724 0
M  V30 6600 H 589.313 2.95478 -2.57751 0
M  V30 6601 H 590.803 3.70349 -1.92953 0
M  V30 6602 N 591.24 1.41047 0.703093 0
M  V30 6603 C 592.651 1.35657 1.28274 0
M  V30 6604 C 593.002 0.0360309 1.96167 0
M  V30 6605 O 592.127 -0.865833 1.98324 0
M  V30 6606 C 592.722 2.45707 2.33267 0
M  V30 6607 C 591.281 2.43738 2.86825 0
M  V30 6608 C 590.428 2.25941 1.60767 0
M  V30 6609 H 593.379 1.50672 0.49836 0
M  V30 6610 H 593.4 2.14333 3.14391 0
M  V30 6611 H 592.912 3.41805 1.83824 0
M  V30 6612 H 591.013 1.51375 3.40465 0
M  V30 6613 H 591.126 3.39779 3.37768 0
M  V30 6614 H 589.49 1.73681 1.86298 0
M  V30 6615 H 590.273 3.24054 1.1333 0
M  V30 6616 N 592.718 -0.936591 1.26751 0
M  V30 6617 C 593.648 -2.05315 1.11212 0
M  V30 6618 C 594.629 -1.70092 0.0160262 0
M  V30 6619 O 595.814 -1.93279 0.188894 0
M  V30 6620 C 592.944 -3.39123 0.749171 0
M  V30 6621 C 591.898 -3.88425 1.79751 0
M  V30 6622 C 591.224 -5.18936 1.28876 0
M  V30 6623 C 592.524 -4.12798 3.19992 0
M  V30 6624 H 594.218 -2.18573 2.04613 0
M  V30 6625 H 591.764 -1.05027 0.985159 0
M  V30 6626 H 593.717 -4.16704 0.627323 0
M  V30 6627 H 592.441 -3.25855 -0.220543 0
M  V30 6628 H 591.1 -3.13028 1.90811 0
M  V30 6629 H 590.748 -5.02051 0.308757 0
M  V30 6630 H 590.448 -5.52892 1.98958 0
M  V30 6631 H 591.972 -5.99096 1.17967 0
M  V30 6632 H 593.386 -4.80977 3.11983 0
M  V30 6633 H 591.783 -4.58044 3.87705 0
M  V30 6634 H 592.853 -3.18412 3.65707 0
M  V30 6635 N 594.196 -1.08629 -1.14182 0
M  V30 6636 C 595.442 -0.818556 -1.85546 0
M  V30 6637 C 595.775 0.654076 -1.82854 0
M  V30 6638 O 595.05 1.48099 -1.26083 0
M  V30 6639 C 595.333 -1.34397 -3.3408 0
M  V30 6640 C 595.186 -2.8821 -3.45333 0
M  V30 6641 C 596.505 -0.971069 -4.29253 0
M  V30 6642 H 593.624 -0.298821 -0.673702 0
M  V30 6643 H 596.266 -1.34629 -1.34071 0
M  V30 6644 H 594.416 -0.895064 -3.78049 0
M  V30 6645 H 596.088 -3.41488 -3.10134 0
M  V30 6646 H 594.331 -3.25756 -2.86471 0
M  V30 6647 H 595.002 -3.20047 -4.49749 0
M  V30 6648 H 597.478 -1.35809 -3.93313 0
M  V30 6649 H 596.354 -1.36586 -5.31635 0
M  V30 6650 H 596.615 0.121659 -4.41933 0
M  V30 6651 N 595.674 1.31259 -0.872281 0
M  V30 6652 C 596.621 2.28459 -0.327857 0
M  V30 6653 C 597.591 1.55831 0.574957 0
M  V30 6654 O 598.776 1.83965 0.506101 0
M  V30 6655 C 595.916 3.41985 0.462644 0
M  V30 6656 C 595.029 4.29458 -0.467949 0
M  V30 6657 C 594.164 5.30131 0.336903 0
M  V30 6658 C 593.203 6.0925 -0.58997 0
M  V30 6659 N 592.34 7.01872 0.178775 0
M  V30 6660 H 597.18 2.74414 -1.16193 0
M  V30 6661 H 594.717 1.34994 -0.584376 0
M  V30 6662 H 596.675 4.06547 0.936759 0
M  V30 6663 H 595.305 2.97134 1.2614 0
M  V30 6664 H 594.357 3.65318 -1.06052 0
M  V30 6665 H 595.669 4.84677 -1.17856 0
M  V30 6666 H 594.823 6.0038 0.873427 0
M  V30 6667 H 593.562 4.75573 1.08079 0
M  V30 6668 H 592.567 5.37889 -1.13823 0
M  V30 6669 H 593.792 6.65894 -1.33275 0
M  V30 6670 H 591.738 6.49721 0.905435 0
M  V30 6671 H 591.655 7.54522 -0.472452 0
M  V30 6672 H 592.923 7.76382 0.696454 0
M  V30 6673 N 597.152 0.631951 1.44375 0
M  V30 6674 C 598.377 0.142146 2.06912 0
M  V30 6675 C 598.802 -1.17456 1.4692 0
M  V30 6676 O 598.16 -1.72074 0.570975 0
M  V30 6677 C 598.208 0.0417952 3.60576 0
M  V30 6678 O 597.312 -1.00194 4.00044 0
M  V30 6679 H 596.653 0.0851491 0.658518 0
M  V30 6680 H 599.183 0.868863 1.85235 0
M  V30 6681 H 599.193 -0.148517 4.0773 0
M  V30 6682 H 597.868 1.0031 4.03622 0
M  V30 6683 H 596.445 -0.786131 3.64519 0
M  V30 6684 N 598.631 -1.53133 0.372548 0
M  V30 6685 C 599.561 -2.28876 -0.462412 0
M  V30 6686 C 600.542 -1.31583 -1.07796 0
M  V30 6687 O 601.727 -1.60461 -1.09389 0
M  V30 6688 C 598.857 -3.08317 -1.59868 0
M  V30 6689 C 597.811 -4.13355 -1.11003 0
M  V30 6690 C 597.137 -4.8092 -2.33708 0
M  V30 6691 C 598.437 -5.21955 -0.18983 0
M  V30 6692 H 600.131 -2.9892 0.169511 0
M  V30 6693 H 597.677 -1.43761 0.0829658 0
M  V30 6694 H 599.63 -3.60055 -2.18949 0
M  V30 6695 H 598.354 -2.35976 -2.25794 0
M  V30 6696 H 597.013 -3.62573 -0.541869 0
M  V30 6697 H 596.661 -4.05144 -2.98106 0
M  V30 6698 H 596.361 -5.51904 -2.01682 0
M  V30 6699 H 597.885 -5.35455 -2.93462 0
M  V30 6700 H 599.299 -5.69153 -0.688319 0
M  V30 6701 H 597.696 -6.00087 0.0398887 0
M  V30 6702 H 598.766 -4.78811 0.766057 0
M  V30 6703 N 600.109 -0.101901 -1.5727 0
M  V30 6704 C 601.349 0.563489 -1.96479 0
M  V30 6705 C 601.713 1.64926 -0.983021 0
M  V30 6706 O 602.914 2.37234 -1.26386 0
M  V30 6707 C 601.185 1.09809 -3.40113 0
M  V30 6708 S 602.744 1.7744 -4.01323 0
M  V30 6709 H 599.562 0.183675 -0.686866 0
M  V30 6710 H 602.164 -0.182922 -1.94642 0
M  V30 6711 H 600.868 0.296447 -4.09328 0
M  V30 6712 H 600.399 1.88018 -3.45562 0
M  V30 6713 H 602.414 3.0591 -3.90683 0
M  V30 6714 N 601.587 1.56661 0.17182 0
M  V30 6715 C 602.55 1.9549 1.19651 0
M  V30 6716 C 603.55 0.838501 1.37207 0
M  V30 6717 O 604.74 1.10556 1.34622 0
M  V30 6718 C 601.872 2.24927 2.56166 0
M  V30 6719 H 603.065 2.87184 0.864007 0
M  V30 6720 H 600.618 1.50711 0.41425 0
M  V30 6721 H 601.353 1.35944 2.94431 0
M  V30 6722 H 601.138 3.06301 2.4479 0
M  V30 6723 H 602.628 2.55891 3.30014 0
M  V30 6724 N 603.065 -0.440357 1.51323 0
M  V30 6725 C 604.012 -1.53429 1.72419 0
M  V30 6726 C 604.982 -1.56165 0.565826 0
M  V30 6727 O 606.167 -1.73222 0.799917 0
M  V30 6728 C 603.307 -2.91169 1.85242 0
M  V30 6729 C 602.42 -2.97985 3.12777 0
M  V30 6730 C 601.555 -4.26829 3.16212 0
M  V30 6731 C 600.594 -4.27501 4.38074 0
M  V30 6732 N 599.731 -5.47866 4.39076 0
M  V30 6733 H 604.571 -1.34743 2.65797 0
M  V30 6734 H 602.108 -0.654608 1.31732 0
M  V30 6735 H 604.066 -3.71087 1.90658 0
M  V30 6736 H 602.696 -3.0842 0.952744 0
M  V30 6737 H 601.748 -2.10749 3.16685 0
M  V30 6738 H 603.06 -2.94342 4.02696 0
M  V30 6739 H 602.214 -5.15118 3.20527 0
M  V30 6740 H 600.953 -4.33124 2.24176 0
M  V30 6741 H 599.958 -3.37606 4.33938 0
M  V30 6742 H 601.183 -4.22873 5.31371 0
M  V30 6743 H 599.129 -5.54887 3.49909 0
M  V30 6744 H 599.046 -5.46091 5.22801 0
M  V30 6745 H 600.314 -6.38195 4.4758 0
M  V30 6746 N 604.543 -1.41418 -0.695603 0
M  V30 6747 C 605.493 -1.39731 -1.80165 0
M  V30 6748 C 606.477 -0.271689 -1.5859 0
M  V30 6749 O 607.669 -0.512354 -1.69422 0
M  V30 6750 C 604.798 -1.28187 -3.1847 0
M  V30 6751 C 603.884 -2.45612 -3.45739 0
M  V30 6752 N 604.275 -3.71077 -3.43708 0
M  V30 6753 C 602.573 -2.39424 -3.76288 0
M  V30 6754 C 603.274 -4.48957 -3.69882 0
M  V30 6755 N 602.25 -3.7907 -3.89624 0
M  V30 6756 H 606.052 -2.34656 -1.76957 0
M  V30 6757 H 603.566 -1.35473 -0.89559 0
M  V30 6758 H 605.563 -1.2506 -3.977 0
M  V30 6759 H 604.223 -0.342468 -3.22889 0
M  V30 6760 H 605.234 -4.03963 -3.2409 0
M  V30 6761 H 601.911 -1.53955 -3.88077 0
M  V30 6762 H 603.301 -5.57887 -3.74448 0
M  V30 6763 N 606.021 0.929856 -1.27246 0
M  V30 6764 C 607.269 1.674 -1.13233 0
M  V30 6765 C 607.59 1.92311 0.322744 0
M  V30 6766 O 606.86 1.52784 1.22612 0
M  V30 6767 H 605.44 0.620411 -0.416052 0
M  V30 6768 H 608.102 1.11663 -1.59741 0
M  V30 6769 H 607.198 2.64308 -1.65975 0
M  V30 6770 N 607.499 1.09233 1.13605 0
M  V30 6771 C 608.748 0.82205 1.84188 0
M  V30 6772 C 609.061 -0.654548 1.84323 0
M  V30 6773 O 610.267 -1.04029 2.50779 0
M  V30 6774 C 608.723 1.42066 3.30674 0
M  V30 6775 C 608.331 2.92965 3.38933 0
M  V30 6776 C 610.075 1.22924 4.06313 0
M  V30 6777 C 607.982 3.45922 4.79679 0
M  V30 6778 H 606.912 0.303854 0.690064 0
M  V30 6779 H 609.563 1.31479 1.28006 0
M  V30 6780 H 607.945 0.855613 3.86646 0
M  V30 6781 H 609.119 3.55679 2.92966 0
M  V30 6782 H 607.434 3.11118 2.76757 0
M  V30 6783 H 610.031 1.59945 5.10217 0
M  V30 6784 H 610.374 0.169726 4.15954 0
M  V30 6785 H 610.907 1.76168 3.56665 0
M  V30 6786 H 607.646 4.51484 4.75229 0
M  V30 6787 H 607.166 2.87971 5.26149 0
M  V30 6788 H 608.845 3.43009 5.48592 0
M  V30 6789 N 608.977 -1.30795 0.87923 0
M  V30 6790 C 609.887 -2.32041 0.345565 0
M  V30 6791 C 610.903 -1.65103 -0.549265 0
M  V30 6792 O 612.079 -1.9645 -0.443763 0
M  V30 6793 C 609.144 -3.43944 -0.436245 0
M  V30 6794 C 608.205 -4.26521 0.48765 0
M  V30 6795 C 607.438 -5.33081 -0.256943 0
M  V30 6796 O 607.661 -5.50762 -1.48381 0
M  V30 6797 O 606.595 -6.00635 0.389985 0
M  V30 6798 H 610.421 -2.79627 1.18501 0
M  V30 6799 H 608.006 -1.3486 0.642885 0
M  V30 6800 H 609.888 -4.12128 -0.879119 0
M  V30 6801 H 608.563 -2.98504 -1.25208 0
M  V30 6802 H 607.47 -3.61057 0.979216 0
M  V30 6803 H 608.803 -4.75551 1.26933 0
M  V30 6804 N 610.455 -0.639598 -1.44038 0
M  V30 6805 C 611.685 -0.154586 -2.06021 0
M  V30 6806 C 612.093 1.17951 -1.47933 0
M  V30 6807 O 611.436 1.73627 -0.59994 0
M  V30 6808 C 611.498 0.0255459 -3.59491 0
M  V30 6809 C 611.162 -1.2317 -4.40089 0
M  V30 6810 C 612.159 -2.15735 -4.73027 0
M  V30 6811 C 609.844 -1.46949 -4.80324 0
M  V30 6812 C 611.838 -3.30382 -5.45093 0
M  V30 6813 C 609.525 -2.61891 -5.52138 0
M  V30 6814 C 610.523 -3.53433 -5.84443 0
M  V30 6815 O 610.211 -4.6637 -6.54793 0
M  V30 6816 H 609.943 -0.0808543 -0.671147 0
M  V30 6817 H 612.497 -0.876541 -1.85758 0
M  V30 6818 H 610.727 0.802733 -3.78276 0
M  V30 6819 H 612.416 0.466184 -4.03214 0
M  V30 6820 H 613.182 -1.98602 -4.42473 0
M  V30 6821 H 609.061 -0.765815 -4.54595 0
M  V30 6822 H 612.605 -4.01856 -5.70226 0
M  V30 6823 H 608.502 -2.78964 -5.82108 0
M  V30 6824 H 609.27 -4.6546 -6.73267 0
M  V30 6825 N 611.933 1.52934 -0.380664 0
M  V30 6826 C 612.865 2.23822 0.493581 0
M  V30 6827 C 613.878 1.25761 1.03383 0
M  V30 6828 O 615.067 1.5189 0.937633 0
M  V30 6829 C 612.167 2.9342 1.69582 0
M  V30 6830 C 611.34 4.18115 1.28445 0
M  V30 6831 C 610.399 4.70788 2.35042 0
M  V30 6832 O 609.425 5.34093 1.96807 0
M  V30 6833 N 610.627 4.49899 3.66839 0
M  V30 6834 H 613.392 2.99484 -0.11371 0
M  V30 6835 H 610.953 1.60577 -0.206587 0
M  V30 6836 H 612.945 3.2556 2.40401 0
M  V30 6837 H 611.515 2.21119 2.20965 0
M  V30 6838 H 610.735 3.92109 0.405503 0
M  V30 6839 H 612.023 4.99152 0.986132 0
M  V30 6840 H 611.421 3.99349 4.0067 0
M  V30 6841 H 609.978 4.86551 4.33718 0
M  V30 6842 N 613.412 0.11024 1.57214 0
M  V30 6843 C 614.322 -0.857077 2.18383 0
M  V30 6844 C 615.338 -1.29915 1.1575 0
M  V30 6845 O 616.514 -1.36394 1.48184 0
M  V30 6846 C 613.579 -2.09264 2.76423 0
M  V30 6847 C 612.64 -1.70333 3.94063 0
M  V30 6848 C 611.873 -2.87999 4.49324 0
M  V30 6849 O 612.096 -4.0317 4.03497 0
M  V30 6850 O 611.03 -2.6559 5.40135 0
M  V30 6851 H 614.856 -0.366561 3.0148 0
M  V30 6852 H 612.441 -0.114914 1.48957 0
M  V30 6853 H 614.323 -2.81644 3.13456 0
M  V30 6854 H 612.998 -2.57339 1.96363 0
M  V30 6855 H 611.905 -0.950864 3.61814 0
M  V30 6856 H 613.238 -1.27007 4.75531 0
M  V30 6857 N 614.89 -1.56749 -0.16351 0
M  V30 6858 C 615.837 -1.97011 -1.2023 0
M  V30 6859 C 616.807 -0.835186 -1.43575 0
M  V30 6860 O 617.992 -1.09594 -1.56185 0
M  V30 6861 C 615.132 -2.34186 -2.53478 0
M  V30 6862 C 614.245 -3.60893 -2.37446 0
M  V30 6863 C 613.38 -3.87245 -3.63614 0
M  V30 6864 C 612.419 -5.07274 -3.42548 0
M  V30 6865 N 611.556 -5.29719 -4.60806 0
M  V30 6866 H 616.396 -2.85562 -0.851958 0
M  V30 6867 H 613.933 -1.41292 -0.409257 0
M  V30 6868 H 615.891 -2.53764 -3.31149 0
M  V30 6869 H 614.521 -1.48736 -2.86492 0
M  V30 6870 H 613.573 -3.49185 -1.50911 0
M  V30 6871 H 614.885 -4.48722 -2.1783 0
M  V30 6872 H 614.039 -4.07232 -4.49719 0
M  V30 6873 H 612.778 -2.97806 -3.86216 0
M  V30 6874 H 611.783 -4.87177 -2.5483 0
M  V30 6875 H 613.008 -5.98251 -3.2136 0
M  V30 6876 H 610.954 -4.43233 -4.83612 0
M  V30 6877 H 610.871 -6.11786 -4.44132 0
M  V30 6878 H 612.139 -5.54192 -5.48171 0
M  V30 6879 N 616.368 0.432326 -1.51554 0
M  V30 6880 C 617.779 1.01202 -1.56892 0
M  V30 6881 C 618.13 1.92175 -0.395394 0
M  V30 6882 O 617.255 2.10844 0.487198 0
M  V30 6883 C 617.85 1.84217 -2.8434 0
M  V30 6884 C 616.409 2.37228 -2.92233 0
M  V30 6885 C 615.556 1.16576 -2.51606 0
M  V30 6886 H 618.507 0.213407 -1.57259 0
M  V30 6887 H 618.528 2.69721 -2.68385 0
M  V30 6888 H 618.04 1.17979 -3.69733 0
M  V30 6889 H 616.141 3.06905 -2.11282 0
M  V30 6890 H 616.254 2.69682 -3.95991 0
M  V30 6891 H 614.618 1.51263 -2.04919 0
M  V30 6892 H 615.401 0.519404 -3.39348 0
M  V30 6893 N 617.846 1.41785 0.688094 0
M  V30 6894 C 618.776 1.47 1.8142 0
M  V30 6895 C 619.757 0.327881 1.6691 0
M  V30 6896 O 620.942 0.540362 1.86531 0
M  V30 6897 C 618.072 1.35876 3.19617 0
M  V30 6898 C 617.026 2.47976 3.48844 0
M  V30 6899 C 616.352 2.21915 4.86475 0
M  V30 6900 C 617.652 3.90309 3.47068 0
M  V30 6901 H 619.346 2.41247 1.77314 0
M  V30 6902 H 616.892 1.16116 0.851651 0
M  V30 6903 H 618.845 1.38134 3.98117 0
M  V30 6904 H 617.569 0.38116 3.24368 0
M  V30 6905 H 616.228 2.45013 2.72698 0
M  V30 6906 H 615.876 1.2248 4.8786 0
M  V30 6907 H 615.576 2.97037 5.06994 0
M  V30 6908 H 617.1 2.25901 5.67275 0
M  V30 6909 H 618.514 3.94947 4.1556 0
M  V30 6910 H 616.911 4.65175 3.7912 0
M  V30 6911 H 617.981 4.17927 2.45896 0
M  V30 6912 N 619.324 -0.923095 1.27737 0
M  V30 6913 C 620.254 -2.04124 1.13383 0
M  V30 6914 C 621.235 -1.70066 0.0340658 0
M  V30 6915 O 622.42 -1.93068 0.209383 0
M  V30 6916 C 619.55 -3.3831 0.785097 0
M  V30 6917 C 618.504 -3.86496 1.8386 0
M  V30 6918 C 617.83 -5.1754 1.34373 0
M  V30 6919 C 619.13 -4.09381 3.24353 0
M  V30 6920 H 620.824 -2.1639 2.06919 0
M  V30 6921 H 618.37 -1.03976 0.996243 0
M  V30 6922 H 620.323 -4.16016 0.671485 0
M  V30 6923 H 619.047 -3.2607 -0.185969 0
M  V30 6924 H 617.706 -3.10987 1.9412 0
M  V30 6925 H 617.354 -5.01696 0.361989 0
M  V30 6926 H 617.054 -5.50751 2.04811 0
M  V30 6927 H 618.578 -5.97811 1.24315 0
M  V30 6928 H 619.992 -4.77641 3.17067 0
M  V30 6929 H 618.389 -4.53906 3.92542 0
M  V30 6930 H 619.459 -3.14515 3.69064 0
M  V30 6931 N 620.802 -1.09834 -1.13024 0
M  V30 6932 C 622.218 -0.828875 -1.36388 0
M  V30 6933 C 622.418 0.554756 -1.93713 0
M  V30 6934 O 621.474 1.30882 -2.15931 0
M  V30 6935 C 622.787 -1.92352 -2.3113 0
M  V30 6936 C 624.335 -1.95124 -2.44735 0
M  V30 6937 C 624.81 -3.03745 -3.42787 0
M  V30 6938 N 626.301 -3.03012 -3.5034 0
M  V30 6939 C 627.036 -3.83699 -4.26101 0
M  V30 6940 N 626.532 -4.74306 -5.04981 0
M  V30 6941 N 628.325 -3.71942 -4.21445 0
M  V30 6942 H 620.476 -1.99029 -0.74169 0
M  V30 6943 H 622.739 -0.864557 -0.388903 0
M  V30 6944 H 622.445 -2.91906 -1.96172 0
M  V30 6945 H 622.319 -1.80536 -3.3119 0
M  V30 6946 H 624.706 -0.962069 -2.78977 0
M  V30 6947 H 624.787 -2.11018 -1.44586 0
M  V30 6948 H 624.431 -4.02878 -3.09276 0
M  V30 6949 H 624.361 -2.85094 -4.42752 0
M  V30 6950 H 626.852 -2.37352 -2.94062 0
M  V30 6951 H 627.165 -5.32446 -5.60108 0
M  V30 6952 H 625.51 -4.78339 -5.04199 0
M  V30 6953 H 628.701 -3.00513 -3.589 0
M  V30 6954 H 628.874 -4.35062 -4.80235 0
M  V30 6955 N 622.28 1.30327 -0.886154 0
M  V30 6956 C 623.243 2.26376 -0.358687 0
M  V30 6957 C 624.243 1.52845 0.499498 0
M  V30 6958 O 625.433 1.71483 0.306485 0
M  V30 6959 C 622.565 3.37379 0.488726 0
M  V30 6960 H 623.758 2.74547 -1.20681 0
M  V30 6961 H 621.311 1.41536 -0.663113 0
M  V30 6962 H 622.046 2.94526 1.35739 0
M  V30 6963 H 621.831 3.91897 -0.126003 0
M  V30 6964 H 623.321 4.08868 0.84952 0
M  V30 6965 N 623.758 0.647228 1.43697 0
M  V30 6966 C 624.688 -0.0345631 2.33474 0
M  V30 6967 C 625.669 -0.818193 1.4913 0
M  V30 6968 O 626.854 -0.780867 1.77809 0
M  V30 6969 C 623.984 -1.00576 3.32418 0
M  V30 6970 C 622.938 -0.33266 4.26705 0
M  V30 6971 C 622.264 -1.41489 5.1564 0
M  V30 6972 C 623.564 0.771204 5.16575 0
M  V30 6973 H 625.258 0.715163 2.90733 0
M  V30 6974 H 622.804 0.345364 1.39797 0
M  V30 6975 H 624.757 -1.49159 3.94119 0
M  V30 6976 H 623.481 -1.78657 2.73403 0
M  V30 6977 H 622.14 0.13267 3.6636 0
M  V30 6978 H 621.788 -2.18698 4.52968 0
M  V30 6979 H 621.488 -0.969799 5.79542 0
M  V30 6980 H 623.012 -1.9022 5.80214 0
M  V30 6981 H 624.426 0.36779 5.72119 0
M  V30 6982 H 622.823 1.1404 5.89165 0
M  V30 6983 H 623.893 1.63169 4.56622 0
M  V30 6984 N 625.236 -1.5273 0.388769 0
M  V30 6985 C 626.166 -2.29353 -0.438111 0
M  V30 6986 C 627.147 -1.32719 -1.06394 0
M  V30 6987 O 628.332 -1.61612 -1.07681 0
M  V30 6988 C 625.462 -3.09995 -1.56589 0
M  V30 6989 C 624.416 -4.14509 -1.06613 0
M  V30 6990 C 623.742 -4.83372 -2.28594 0
M  V30 6991 C 625.042 -5.22127 -0.134459 0
M  V30 6992 H 626.736 -2.98723 0.201206 0
M  V30 6993 H 624.282 -1.43665 0.0982089 0
M  V30 6994 H 626.235 -3.62357 -2.15118 0
M  V30 6995 H 624.959 -2.38357 -2.23279 0
M  V30 6996 H 623.618 -3.63128 -0.503383 0
M  V30 6997 H 623.266 -4.08283 -2.93792 0
M  V30 6998 H 622.966 -5.54012 -1.95817 0
M  V30 6999 H 624.49 -5.38538 -2.87766 0
M  V30 7000 H 625.904 -5.69851 -0.627914 0
M  V30 7001 H 624.301 -6.00011 0.103534 0
M  V30 7002 H 625.371 -4.77971 0.816798 0
M  V30 7003 N 626.714 -0.118576 -1.57153 0
M  V30 7004 C 627.991 0.583062 -1.86708 0
M  V30 7005 C 628.371 1.84841 -1.01967 0
M  V30 7006 O 627.719 2.28288 -0.0984673 0
M  V30 7007 C 627.929 0.875912 -3.3783 0
M  V30 7008 C 629.277 1.22916 -4.0642 0
M  V30 7009 O 630.301 0.966188 -3.42846 0
M  V30 7010 O 629.16 1.72269 -5.18638 0
M  V30 7011 H 626.254 0.294185 -0.772906 0
M  V30 7012 H 628.8 -0.153048 -1.69008 0
M  V30 7013 H 627.572 -0.0207776 -3.91294 0
M  V30 7014 H 627.195 1.66719 -3.60958 0
M  V30 7015 N 628.193 1.56834 0.155195 0
M  V30 7016 C 629.442 1.82088 0.867567 0
M  V30 7017 C 629.755 0.69849 1.82703 0
M  V30 7018 O 630.961 0.836407 2.58295 0
M  V30 7019 C 629.417 3.22707 1.59336 0
M  V30 7020 C 629.025 4.42859 0.676719 0
M  V30 7021 C 630.769 3.57242 2.293 0
M  V30 7022 C 628.676 5.74501 1.40367 0
M  V30 7023 H 627.606 0.679057 0.327715 0
M  V30 7024 H 630.257 1.83105 0.120351 0
M  V30 7025 H 628.639 3.16054 2.38591 0
M  V30 7026 H 629.813 4.60731 -0.0800196 0
M  V30 7027 H 628.128 4.16311 0.0859129 0
M  V30 7028 H 630.725 4.52847 2.84312 0
M  V30 7029 H 631.068 2.82901 3.05406 0
M  V30 7030 H 631.601 3.6552 1.56972 0
M  V30 7031 H 628.34 6.51915 0.684623 0
M  V30 7032 H 627.86 5.60579 2.13332 0
M  V30 7033 H 629.539 6.17016 1.94681 0
M  V30 7034 N 629.671 -0.424282 1.51781 0
M  V30 7035 C 630.92 -1.16961 1.64326 0
M  V30 7036 C 631.233 -1.92035 0.371749 0
M  V30 7037 O 632.439 -2.68873 0.37676 0
M  V30 7038 C 630.895 -2.12782 2.90262 0
M  V30 7039 C 630.503 -1.43295 4.24465 0
M  V30 7040 C 632.247 -2.87667 3.12166 0
M  V30 7041 C 630.154 -2.37676 5.41538 0
M  V30 7042 H 629.084 -0.440293 0.612093 0
M  V30 7043 H 631.735 -0.435431 1.78259 0
M  V30 7044 H 630.117 -2.8969 2.69992 0
M  V30 7045 H 631.291 -0.718564 4.55163 0
M  V30 7046 H 629.606 -0.805118 4.08542 0
M  V30 7047 H 632.203 -3.58395 3.96808 0
M  V30 7048 H 632.546 -3.49758 2.25776 0
M  V30 7049 H 633.079 -2.17863 3.32837 0
M  V30 7050 H 629.818 -1.80255 6.30229 0
M  V30 7051 H 629.338 -3.07132 5.15199 0
M  V30 7052 H 631.017 -2.98529 5.74012 0
M  V30 7053 N 631.149 -1.42148 -0.680565 0
M  V30 7054 C 632.565 -1.24947 -0.992995 0
M  V30 7055 C 632.765 -0.149527 -2.00944 0
M  V30 7056 O 631.821 0.481145 -2.47873 0
M  V30 7057 C 633.134 -2.60426 -1.5033 0
M  V30 7058 C 634.682 -2.67733 -1.62137 0
M  V30 7059 C 635.157 -4.03564 -2.16565 0
M  V30 7060 N 636.648 -4.05488 -2.23905 0
M  V30 7061 C 637.383 -5.07401 -2.67081 0
M  V30 7062 N 636.879 -6.19698 -3.09751 0
M  V30 7063 N 638.672 -4.94758 -2.66778 0
M  V30 7064 H 630.823 -2.12399 -0.0074788 0
M  V30 7065 H 633.086 -0.94571 -0.0658529 0
M  V30 7066 H 632.792 -3.41743 -0.830947 0
M  V30 7067 H 632.666 -2.83949 -2.483 0
M  V30 7068 H 635.053 -1.86765 -2.2848 0
M  V30 7069 H 635.134 -2.48004 -0.626713 0
M  V30 7070 H 634.778 -4.84987 -1.50833 0
M  V30 7071 H 634.708 -4.20641 -3.1681 0
M  V30 7072 H 637.199 -3.24415 -1.93812 0
M  V30 7073 H 637.512 -6.93318 -3.41365 0
M  V30 7074 H 635.857 -6.23212 -3.07623 0
M  V30 7075 H 639.048 -4.06105 -2.32801 0
M  V30 7076 H 639.221 -5.74317 -3.00107 0
M  V30 7077 N 632.627 0.916307 -1.28225 0
M  V30 7078 C 633.852 1.7043 -1.18188 0
M  V30 7079 C 634.277 1.86346 0.256274 0
M  V30 7080 O 633.635 1.37175 1.18544 0
M  V30 7081 C 633.683 3.07546 -1.88275 0
M  V30 7082 O 632.787 3.94904 -1.18848 0
M  V30 7083 H 632.128 0.521967 -0.410423 0
M  V30 7084 H 634.658 1.14589 -1.69501 0
M  V30 7085 H 634.668 3.57793 -1.96082 0
M  V30 7086 H 633.343 2.95279 -2.92887 0
M  V30 7087 H 631.92 3.53339 -1.19187 0
M  V30 7088 N 634.105 1.10431 1.1244 0
M  V30 7089 C 635.035 0.775143 2.20258 0
M  V30 7090 C 636.016 -0.25186 1.68225 0
M  V30 7091 O 637.201 -0.117637 1.93843 0
M  V30 7092 C 634.331 0.206133 3.46688 0
M  V30 7093 C 633.285 1.16382 4.11873 0
M  V30 7094 C 632.611 0.456014 5.32752 0
M  V30 7095 C 633.911 2.5104 4.58013 0
M  V30 7096 H 635.605 1.67665 2.4805 0
M  V30 7097 H 633.151 0.807595 1.19222 0
M  V30 7098 H 635.104 -0.036291 4.21384 0
M  V30 7099 H 633.828 -0.730614 3.18323 0
M  V30 7100 H 632.487 1.39169 3.39157 0
M  V30 7101 H 632.135 -0.485203 5.00654 0
M  V30 7102 H 631.835 1.09466 5.77314 0
M  V30 7103 H 633.359 0.222135 6.10196 0
M  V30 7104 H 634.773 2.32401 5.24083 0
M  V30 7105 H 633.17 3.10789 5.13352 0
M  V30 7106 H 634.24 3.11039 3.71998 0
M  V30 7107 N 635.583 -1.29855 0.893053 0
M  V30 7108 C 636.53 -2.27909 0.364161 0
M  V30 7109 C 637.5 -1.56726 -0.550093 0
M  V30 7110 O 638.685 -1.84747 -0.47677 0
M  V30 7111 C 635.825 -3.42678 -0.408178 0
M  V30 7112 C 634.938 -4.28659 0.536212 0
M  V30 7113 C 634.073 -5.30599 -0.252521 0
M  V30 7114 C 633.112 -6.08234 0.686822 0
M  V30 7115 N 632.249 -7.02068 -0.0670902 0
M  V30 7116 H 637.089 -2.72531 1.20544 0
M  V30 7117 H 634.626 -1.34047 0.605779 0
M  V30 7118 H 636.584 -4.07986 -0.871962 0
M  V30 7119 H 635.214 -2.99103 -1.21397 0
M  V30 7120 H 634.266 -3.63584 1.1185 0
M  V30 7121 H 635.578 -4.8274 1.25552 0
M  V30 7122 H 634.732 -6.01694 -0.777801 0
M  V30 7123 H 633.471 -4.77233 -1.005 0
M  V30 7124 H 632.476 -5.3601 1.22366 0
M  V30 7125 H 633.701 -6.63689 1.43852 0
M  V30 7126 H 631.647 -6.5108 -0.801955 0
M  V30 7127 H 631.564 -7.53675 0.59243 0
M  V30 7128 H 632.832 -7.77392 -0.572851 0
M  V30 7129 N 637.061 -0.65484 -1.43351 0
M  V30 7130 C 638.008 0.0357713 -2.30772 0
M  V30 7131 C 638.978 0.813035 -1.44841 0
M  V30 7132 O 640.163 0.789314 -1.73708 0
M  V30 7133 C 637.303 0.995084 -3.30442 0
M  V30 7134 C 636.416 0.21375 -4.31471 0
M  V30 7135 C 635.551 1.16701 -5.18222 0
M  V30 7136 C 634.59 0.376201 -6.10943 0
M  V30 7137 N 633.727 1.28113 -6.90313 0
M  V30 7138 H 638.567 -0.71559 -2.89281 0
M  V30 7139 H 636.104 -0.364645 -1.42509 0
M  V30 7140 H 638.062 1.5649 -3.86739 0
M  V30 7141 H 636.692 1.7133 -2.7358 0
M  V30 7142 H 635.744 -0.472377 -3.77456 0
M  V30 7143 H 637.056 -0.401103 -4.97185 0
M  V30 7144 H 636.21 1.8074 -5.79153 0
M  V30 7145 H 634.949 1.81577 -4.52638 0
M  V30 7146 H 633.954 -0.277534 -5.49099 0
M  V30 7147 H 635.179 -0.268178 -6.7857 0
M  V30 7148 H 633.125 1.91666 -6.27376 0
M  V30 7149 H 633.042 0.720879 -7.52555 0
M  V30 7150 H 634.31 1.90962 -7.55747 0
M  V30 7151 N 638.539 1.52521 -0.396863 0
M  V30 7152 C 639.764 2.06571 0.185258 0
M  V30 7153 C 640.189 1.26605 1.39115 0
M  V30 7154 O 639.547 0.293055 1.78916 0
M  V30 7155 C 639.595 3.5674 0.526189 0
M  V30 7156 O 638.699 3.7929 1.61903 0
M  V30 7157 H 638.04 0.663712 0.0195474 0
M  V30 7158 H 640.57 1.966 -0.566519 0
M  V30 7159 H 640.58 4.00311 0.788338 0
M  V30 7160 H 639.255 4.14379 -0.355397 0
M  V30 7161 H 637.832 3.47605 1.35 0
M  V30 7162 N 640.017 0.126909 1.57088 0
M  V30 7163 C 641.265 -0.528123 1.95078 0
M  V30 7164 C 641.586 -1.66708 1.0116 0
M  V30 7165 O 640.856 -1.95777 0.0693527 0
M  V30 7166 H 639.436 -0.198087 0.720257 0
M  V30 7167 H 642.098 0.197703 1.93895 0
M  V30 7168 H 641.194 -0.917507 2.98309 0
M  V30 7169 N 641.495 -1.56914 -0.146875 0
M  V30 7170 C 642.442 -1.98275 -1.18134 0
M  V30 7171 C 643.412 -0.850367 -1.42681 0
M  V30 7172 O 644.597 -1.11244 -1.55014 0
M  V30 7173 C 641.737 -2.36861 -2.5098 0
M  V30 7174 C 640.85 -3.63391 -2.33605 0
M  V30 7175 C 639.985 -3.91079 -3.59486 0
M  V30 7176 C 639.024 -5.10879 -3.37149 0
M  V30 7177 N 638.161 -5.34577 -4.55161 0
M  V30 7178 H 643.001 -2.8645 -0.821622 0
M  V30 7179 H 640.538 -1.41718 -0.394248 0
M  V30 7180 H 642.496 -2.57262 -3.28439 0
M  V30 7181 H 641.126 -1.51766 -2.84898 0
M  V30 7182 H 640.178 -3.50766 -1.47199 0
M  V30 7183 H 641.49 -4.51007 -2.13059 0
M  V30 7184 H 640.644 -4.11979 -4.45374 0
M  V30 7185 H 639.383 -3.01885 -3.83036 0
M  V30 7186 H 638.388 -4.89853 -2.49649 0
M  V30 7187 H 639.613 -6.01626 -3.14997 0
M  V30 7188 H 637.559 -4.48337 -4.78884 0
M  V30 7189 H 637.476 -6.16463 -4.37618 0
M  V30 7190 H 638.744 -5.59975 -5.42263 0
M  V30 7191 N 642.974 0.416227 -1.52004 0
M  V30 7192 C 643.904 1.51365 -1.77795 0
M  V30 7193 C 644.885 1.58059 -0.628601 0
M  V30 7194 O 646.07 1.73447 -0.873478 0
M  V30 7195 C 643.2 2.89256 -1.92219 0
M  V30 7196 C 642.154 2.97415 -3.0778 0
M  V30 7197 C 641.48 4.37492 -3.07417 0
M  V30 7198 C 642.78 2.69551 -4.47369 0
M  V30 7199 H 644.474 1.30033 -2.69688 0
M  V30 7200 H 642.02 0.624112 -1.29772 0
M  V30 7201 H 643.973 3.66008 -2.08845 0
M  V30 7202 H 642.697 3.11866 -0.969917 0
M  V30 7203 H 641.356 2.23107 -2.90893 0
M  V30 7204 H 641.004 4.571 -2.09925 0
M  V30 7205 H 640.704 4.43877 -3.85029 0
M  V30 7206 H 642.228 5.16188 -3.26162 0
M  V30 7207 H 643.642 3.36028 -4.64497 0
M  V30 7208 H 642.039 2.87321 -5.26846 0
M  V30 7209 H 643.109 1.65029 -4.55953 0
M  V30 7210 N 644.452 1.42507 0.673017 0
M  V30 7211 C 645.698 1.44282 1.43367 0
M  V30 7212 C 646.053 0.0588239 1.9231 0
M  V30 7213 O 645.346 -0.919288 1.68106 0
M  V30 7214 C 645.54 2.40351 2.64511 0
M  V30 7215 C 645.369 3.87955 2.27423 0
M  V30 7216 C 644.139 4.56476 2.16697 0
M  V30 7217 C 646.337 4.7833 1.88957 0
M  V30 7218 N 644.319 5.89099 1.72731 0
M  V30 7219 C 645.69 6.00073 1.55923 0
M  V30 7220 C 647.745 4.65769 1.75965 0
M  V30 7221 C 646.448 7.10652 1.112 0
M  V30 7222 C 648.474 5.76332 1.32647 0
M  V30 7223 C 647.836 6.97188 1.00538 0
M  V30 7224 H 643.935 0.583134 0.521036 0
M  V30 7225 H 646.519 1.78547 0.776481 0
M  V30 7226 H 644.69 2.08145 3.27918 0
M  V30 7227 H 646.422 2.32694 3.31113 0
M  V30 7228 H 643.177 4.10712 2.35823 0
M  V30 7229 H 643.601 6.59446 1.53166 0
M  V30 7230 H 648.243 3.72808 1.99435 0
M  V30 7231 H 645.961 8.0346 0.864768 0
M  V30 7232 H 649.547 5.68625 1.23112 0
M  V30 7233 H 648.427 7.81287 0.675283 0
M  V30 7234 N 645.93 -0.909495 1.28709 0
M  V30 7235 C 646.86 -2.0291 1.15542 0
M  V30 7236 C 647.841 -1.7002 0.0521017 0
M  V30 7237 O 649.026 -1.92835 0.229849 0
M  V30 7238 C 646.156 -3.37458 0.820935 0
M  V30 7239 C 645.11 -3.84524 1.87949 0
M  V30 7240 C 644.436 -5.16086 1.39854 0
M  V30 7241 C 645.736 -4.05918 3.28676 0
M  V30 7242 H 647.43 -2.14183 2.09203 0
M  V30 7243 H 644.976 -1.02913 1.00722 0
M  V30 7244 H 646.929 -4.1528 0.715571 0
M  V30 7245 H 645.653 -3.26249 -0.151374 0
M  V30 7246 H 644.312 -3.08911 1.97408 0
M  V30 7247 H 643.96 -5.01284 0.41518 0
M  V30 7248 H 643.66 -5.48547 2.1064 0
M  V30 7249 H 645.184 -5.96459 1.30649 0
M  V30 7250 H 646.598 -4.74252 3.22115 0
M  V30 7251 H 644.995 -4.49717 3.97334 0
M  V30 7252 H 646.065 -3.10583 3.72379 0
M  V30 7253 N 647.408 -1.11026 -1.11852 0
M  V30 7254 C 648.685 -0.768347 -1.79877 0
M  V30 7255 C 649.065 0.744261 -1.97545 0
M  V30 7256 O 648.413 1.67271 -1.55669 0
M  V30 7257 C 648.623 -1.52648 -3.13846 0
M  V30 7258 C 649.971 -1.70297 -3.88953 0
M  V30 7259 O 650.995 -1.49037 -3.23522 0
M  V30 7260 O 649.854 -2.05593 -5.06353 0
M  V30 7261 H 646.948 -0.277891 -0.778913 0
M  V30 7262 H 649.494 -1.21343 -1.18633 0
M  V30 7263 H 648.266 -2.55564 -2.96315 0
M  V30 7264 H 647.889 -1.07466 -3.82801 0
M  V30 7265 N 648.886 1.2938 -0.899927 0
M  V30 7266 C 649.849 2.25983 -0.382677 0
M  V30 7267 C 650.849 1.53366 0.483259 0
M  V30 7268 O 652.039 1.71798 0.28828 0
M  V30 7269 C 649.171 3.37878 0.452915 0
M  V30 7270 H 650.364 2.73252 -1.23586 0
M  V30 7271 H 647.917 1.40825 -0.678088 0
M  V30 7272 H 648.652 2.95949 1.32608 0
M  V30 7273 H 648.437 3.91742 -0.167562 0
M  V30 7274 H 649.927 4.09746 0.806107 0
M  V30 7275 N 650.364 0.662433 1.43002 0
M  V30 7276 C 651.594 0.187343 2.05749 0
M  V30 7277 C 652.002 -1.15582 1.49791 0
M  V30 7278 O 651.345 -1.72651 0.627487 0
M  V30 7279 C 651.407 0.0316493 3.59486 0
M  V30 7280 C 651.071 1.30156 4.38073 0
M  V30 7281 C 652.068 2.23234 4.69535 0
M  V30 7282 C 649.753 1.54572 4.77926 0
M  V30 7283 C 651.747 3.39012 5.39768 0
M  V30 7284 C 649.434 2.70641 5.47902 0
M  V30 7285 C 650.432 3.62687 5.78746 0
M  V30 7286 O 650.12 4.76728 6.47291 0
M  V30 7287 H 649.852 0.0915214 0.669776 0
M  V30 7288 H 652.406 0.905982 1.8434 0
M  V30 7289 H 650.636 -0.742451 3.79506 0
M  V30 7290 H 652.325 -0.401977 4.03905 0
M  V30 7291 H 653.091 2.05616 4.39257 0
M  V30 7292 H 648.97 0.83804 4.53319 0
M  V30 7293 H 652.514 4.10877 5.63761 0
M  V30 7294 H 648.411 2.88189 5.77596 0
M  V30 7295 H 649.179 4.76113 6.65777 0
M  V30 7296 N 651.842 -1.52309 0.404946 0
M  V30 7297 C 652.772 -2.29805 -0.41376 0
M  V30 7298 C 653.753 -1.3384 -1.0498 0
M  V30 7299 O 654.938 -1.62745 -1.05961 0
M  V30 7300 C 652.068 -3.11639 -1.53292 0
M  V30 7301 C 651.022 -4.15616 -1.02211 0
M  V30 7302 C 650.348 -4.8577 -2.23455 0
M  V30 7303 C 651.648 -5.2224 -0.0790725 0
M  V30 7304 H 653.342 -2.98493 0.232878 0
M  V30 7305 H 650.888 -1.43552 0.113441 0
M  V30 7306 H 652.841 -3.64618 -2.11262 0
M  V30 7307 H 651.565 -2.40712 -2.20738 0
M  V30 7308 H 650.224 -3.63641 -0.46484 0
M  V30 7309 H 649.872 -4.11376 -2.89445 0
M  V30 7310 H 649.572 -5.56058 -1.89929 0
M  V30 7311 H 651.096 -5.4156 -2.82038 0
M  V30 7312 H 652.51 -5.70485 -0.567438 0
M  V30 7313 H 650.907 -5.99867 0.167167 0
M  V30 7314 H 651.977 -4.77078 0.867447 0
M  V30 7315 N 653.32 -0.135238 -1.57019 0
M  V30 7316 C 654.27 0.820408 -2.12728 0
M  V30 7317 C 655.254 1.21735 -1.05211 0
M  V30 7318 O 656.446 1.18574 -1.31413 0
M  V30 7319 C 653.575 2.06414 -2.74314 0
M  V30 7320 C 652.661 1.69083 -3.88937 0
M  V30 7321 N 653.052 1.0251 -4.95303 0
M  V30 7322 C 651.35 1.98434 -3.99425 0
M  V30 7323 C 652.051 0.846749 -5.75504 0
M  V30 7324 N 651.027 1.3769 -5.25873 0
M  V30 7325 H 654.829 0.302426 -2.9234 0
M  V30 7326 H 652.343 0.0667009 -1.62263 0
M  V30 7327 H 654.34 2.75863 -3.12579 0
M  V30 7328 H 653 2.58741 -1.96171 0
M  V30 7329 H 654.011 0.687207 -5.1332 0
M  V30 7330 H 650.688 2.52693 -3.32344 0
M  V30 7331 H 652.078 0.322949 -6.71123 0
M  V30 7332 N 654.798 1.5699 0.138552 0
M  V30 7333 C 655.745 1.98899 1.17081 0
M  V30 7334 C 656.715 0.857922 1.42228 0
M  V30 7335 O 657.9 1.12065 1.54422 0
M  V30 7336 C 655.04 2.38189 2.4972 0
M  V30 7337 C 654.153 3.64624 2.31674 0
M  V30 7338 C 653.288 3.9298 3.57407 0
M  V30 7339 C 652.327 5.1266 3.34435 0
M  V30 7340 N 651.464 5.36983 4.5232 0
M  V30 7341 H 656.304 2.86881 0.80642 0
M  V30 7342 H 653.841 1.41925 0.386727 0
M  V30 7343 H 655.799 2.59 3.2707 0
M  V30 7344 H 654.429 1.53275 2.84089 0
M  V30 7345 H 653.481 3.51542 1.45337 0
M  V30 7346 H 654.793 4.52131 2.10664 0
M  V30 7347 H 653.947 4.14335 4.43183 0
M  V30 7348 H 652.686 3.03912 3.8143 0
M  V30 7349 H 651.691 4.9117 2.47048 0
M  V30 7350 H 652.916 6.03288 3.11802 0
M  V30 7351 H 650.862 4.50871 4.76499 0
M  V30 7352 H 650.779 6.18775 4.34343 0
M  V30 7353 H 652.047 5.62842 5.39285 0
M  V30 7354 O 656.315 -0.283142 1.58999 0
M  V30 7355 H 657.006 -0.92904 1.69966 0
M  V30 END ATOM
M  V30 BEGIN BOND
M  V30 END BOND
M  V30 END CTAB
M  END
$$$$
