drugbank_target|O95838 Glucagon-like peptide 2 receptor (DB00040; DB08900)
 OpenBabel12092120063D

  0  0  0     0  0            999 V3000
M  V30 BEGIN CTAB
M  V30 COUNTS 8914 9039 0 0 0
M  V30 BEGIN ATOM
M  V30 1 H -0.908 1.98254 -0.117106 0
M  V30 2 N 0 1.576 0 0
M  V30 3 C 0.933 2.03868 1.02534 0
M  V30 4 C 1.911 0.928543 1.3348 0
M  V30 5 O 3.095 1.19667 1.45644 0
M  V30 6 C 0.222 2.43627 2.35294 0
M  V30 7 C -0.732 3.65373 2.2001 0
M  V30 8 S 0.101 5.13292 1.52614 0
M  V30 9 C 1.257 5.56322 2.86805 0
M  V30 10 H 1.49 2.90518 0.631377 0
M  V30 11 H -0.977 1.52953 0.210867 0
M  V30 12 H 0.981 2.67203 3.11629 0
M  V30 13 H -0.358 1.57376 2.7183 0
M  V30 14 H -1.165 3.90944 3.18086 0
M  V30 15 H -1.563 3.418 1.51819 0
M  V30 16 H 0.729 5.58782 3.83104 0
M  V30 17 H 1.672 6.56266 2.65933 0
M  V30 18 H 2.08 4.83886 2.90714 0
M  V30 19 N 1.4781 -0.272755 1.55222 0
M  V30 20 C 2.4251 -1.33716 1.88119 0
M  V30 21 C 3.3951 -1.49066 0.73271 0
M  V30 22 O 4.5801 -1.63469 0.984002 0
M  V30 23 C 1.7201 -2.69238 2.15882 0
M  V30 24 C 0.8331 -2.62108 3.43399 0
M  V30 25 C -0.0319 -3.89811 3.60861 0
M  V30 26 C -0.9929 -3.77193 4.8207 0
M  V30 27 N -1.8559 -4.9673 4.96189 0
M  V30 28 H 2.9841 -1.04962 2.78903 0
M  V30 29 H 0.5211 -0.507088 1.38083 0
M  V30 30 H 2.4791 -3.48089 2.29978 0
M  V30 31 H 1.1091 -2.96194 1.28331 0
M  V30 32 H 0.1611 -1.74967 3.37773 0
M  V30 33 H 1.4731 -2.48685 4.32386 0
M  V30 34 H 0.6271 -4.77103 3.74777 0
M  V30 35 H -0.6339 -4.06102 2.7006 0
M  V30 36 H -1.6289 -2.88284 4.68159 0
M  V30 37 H -0.4039 -3.62421 5.74307 0
M  V30 38 H -2.4579 -5.13431 4.08319 0
M  V30 39 H -2.5409 -4.85839 5.79221 0
M  V30 40 H -1.2729 -5.85594 5.1449 0
M  V30 41 N 2.9562 -1.48159 -0.537278 0
M  V30 42 C 3.8862 -1.65029 -1.6519 0
M  V30 43 C 4.8672 -0.499281 -1.62607 0
M  V30 44 O 6.0522 -0.730972 -1.79918 0
M  V30 45 C 3.1822 -1.68303 -3.03795 0
M  V30 46 C 2.1362 -2.8283 -3.21234 0
M  V30 47 C 1.4622 -2.71189 -4.60826 0
M  V30 48 C 2.7622 -4.24211 -3.04701 0
M  V30 49 H 4.4562 -2.58341 -1.51328 0
M  V30 50 H 2.0022 -1.24325 -0.726585 0
M  V30 51 H 3.9552 -1.78693 -3.81637 0
M  V30 52 H 2.6792 -0.715635 -3.18663 0
M  V30 53 H 1.3382 -2.71983 -2.45807 0
M  V30 54 H 0.9862 -1.72435 -4.7252 0
M  V30 55 H 0.6862 -3.48035 -4.7344 0
M  V30 56 H 2.2102 -2.83537 -5.40777 0
M  V30 57 H 3.6242 -4.3593 -3.72341 0
M  V30 58 H 2.0212 -5.01998 -3.28813 0
M  V30 59 H 3.0912 -4.41184 -2.01209 0
M  V30 60 N 4.4343 0.785586 -1.36625 0
M  V30 61 C 5.6823 1.54057 -1.30808 0
M  V30 62 C 6.0033 1.94683 0.111157 0
M  V30 63 O 5.2733 1.65241 1.05224 0
M  V30 64 H 3.8533 0.571354 -0.481211 0
M  V30 65 H 6.5153 0.935821 -1.70963 0
M  V30 66 H 5.6113 2.44637 -1.93801 0
M  V30 67 N 5.9124 1.20967 1.01018 0
M  V30 68 C 7.1374 1.0503 1.78839 0
M  V30 69 C 7.5624 -0.395752 1.8389 0
M  V30 70 O 6.9204 -1.28529 1.27867 0
M  V30 71 C 6.9684 1.64602 3.2084 0
M  V30 72 O 6.0724 0.887988 4.02726 0
M  V30 73 H 5.4134 0.369987 0.551367 0
M  V30 74 H 7.9434 1.60399 1.27018 0
M  V30 75 H 7.9534 1.68607 3.71532 0
M  V30 76 H 6.6284 2.69841 3.16479 0
M  V30 77 H 5.2054 0.922648 3.61305 0
M  V30 78 N 7.3905 -1.2043 1.01659 0
M  V30 79 C 8.6155 -1.94318 0.724942 0
M  V30 80 C 9.0405 -1.74266 -0.708034 0
M  V30 81 O 8.3985 -1.03694 -1.48719 0
M  V30 82 C 8.4465 -3.44486 1.06591 0
M  V30 83 O 7.5505 -4.12017 0.177599 0
M  V30 84 H 6.8915 -0.60708 0.26898 0
M  V30 85 H 9.4215 -1.52861 1.35995 0
M  V30 86 H 9.4315 -3.95106 1.01762 0
M  V30 87 H 8.1065 -3.58404 2.10997 0
M  V30 88 H 6.6835 -3.71821 0.283421 0
M  V30 89 N 8.8686 -0.792821 -1.36206 0
M  V30 90 C 10.2846 -0.474903 -1.52371 0
M  V30 91 C 10.4846 1.00622 -1.74578 0
M  V30 92 O 9.5406 1.79162 -1.77924 0
M  V30 93 C 10.8536 -1.3083 -2.70747 0
M  V30 94 C 12.4016 -1.30234 -2.84619 0
M  V30 95 C 12.8766 -2.11956 -4.06004 0
M  V30 96 N 14.3676 -2.09419 -4.13156 0
M  V30 97 C 15.1026 -2.69419 -5.06163 0
M  V30 98 N 14.5986 -3.3829 -6.04592 0
M  V30 99 N 16.3916 -2.59134 -4.98804 0
M  V30 100 H 8.5426 -1.75222 -1.20046 0
M  V30 101 H 10.8056 -0.745024 -0.586211 0
M  V30 102 H 10.5116 -2.35881 -2.6087 0
M  V30 103 H 10.3856 -0.95196 -3.6499 0
M  V30 104 H 12.7726 -0.259748 -2.93955 0
M  V30 105 H 12.8536 -1.69847 -1.91274 0
M  V30 106 H 12.4976 -3.16248 -3.97429 0
M  V30 107 H 12.4276 -1.69711 -4.98503 0
M  V30 108 H 14.9186 -1.59297 -3.42685 0
M  V30 109 H 15.2316 -3.81394 -6.7213 0
M  V30 110 H 13.5766 -3.42393 -6.04807 0
M  V30 111 H 16.7676 -2.04927 -4.20859 0
M  V30 112 H 16.9406 -3.06185 -5.711 0
M  V30 113 N 10.3467 1.47872 -0.545128 0
M  V30 114 C 11.3097 2.28337 0.198717 0
M  V30 115 C 12.3097 1.36255 0.853888 0
M  V30 116 O 13.4997 1.59003 0.711606 0
M  V30 117 C 10.6317 3.15585 1.28915 0
M  V30 118 H 11.8247 2.95567 -0.507941 0
M  V30 119 H 9.3777 1.53362 -0.301616 0
M  V30 120 H 10.1127 2.53019 2.02859 0
M  V30 121 H 9.8977 3.83337 0.824309 0
M  V30 122 H 11.3877 3.76243 1.81194 0
M  V30 123 N 11.8248 0.280983 1.55075 0
M  V30 124 C 13.0728 -0.333455 1.9933 0
M  V30 125 C 13.3938 -1.55937 1.17085 0
M  V30 126 O 12.6638 -1.94143 0.261805 0
M  V30 127 H 11.2438 -0.126197 0.736263 0
M  V30 128 H 13.9058 0.387678 1.91005 0
M  V30 129 H 13.0018 -0.619292 3.05894 0
M  V30 130 N 13.3029 -1.57598 0.00835791 0
M  V30 131 C 14.7139 -1.7892 -0.53333 0
M  V30 132 C 15.0649 -0.916609 -1.73473 0
M  V30 133 O 14.1899 -0.121336 -2.1606 0
M  V30 134 C 14.7849 -3.24488 -0.974313 0
M  V30 135 C 13.3439 -3.46878 -1.46125 0
M  V30 136 C 12.4909 -2.74157 -0.416302 0
M  V30 137 H 15.4419 -1.56958 0.234495 0
M  V30 138 H 15.4629 -3.3306 -1.83988 0
M  V30 139 H 14.9749 -3.87972 -0.099718 0
M  V30 140 H 13.0759 -2.8862 -2.35646 0
M  V30 141 H 13.1889 -4.55572 -1.48295 0
M  V30 142 H 11.5529 -2.39022 -0.87981 0
M  V30 143 H 12.3359 -3.40345 0.44947 0
M  V30 144 N 14.781 0.264519 -1.55364 0
M  V30 145 C 16.029 0.993021 -1.76021 0
M  V30 146 C 16.35 1.86511 -0.569099 0
M  V30 147 O 15.62 1.91438 0.415735 0
M  V30 148 H 14.2 0.369639 -0.649135 0
M  V30 149 H 16.862 0.286707 -1.9278 0
M  V30 150 H 15.958 1.62502 -2.66457 0
M  V30 151 N 16.2591 1.48442 0.529413 0
M  V30 152 C 17.6751 1.34575 0.858004 0
M  V30 153 C 17.8751 0.3572 1.98309 0
M  V30 154 O 16.9311 -0.221379 2.51528 0
M  V30 155 C 18.2441 2.74617 1.22499 0
M  V30 156 C 19.7921 2.83109 1.33484 0
M  V30 157 C 20.2671 4.23854 1.73526 0
M  V30 158 N 21.7581 4.2653 1.80628 0
M  V30 159 C 22.4931 5.32372 2.12997 0
M  V30 160 N 21.9891 6.48491 2.43786 0
M  V30 161 N 23.7821 5.19766 2.14008 0
M  V30 162 H 15.9331 2.1133 -0.212925 0
M  V30 163 H 18.1961 0.947439 -0.0326199 0
M  V30 164 H 17.9021 3.4852 0.471905 0
M  V30 165 H 17.7761 3.08177 2.17501 0
M  V30 166 H 20.1631 2.09462 2.0787 0
M  V30 167 H 20.2441 2.53168 0.366027 0
M  V30 168 H 19.8881 4.98018 0.997013 0
M  V30 169 H 19.8181 4.5124 2.71459 0
M  V30 170 H 22.3091 3.42772 1.59108 0
M  V30 171 H 22.6221 7.24993 2.67592 0
M  V30 172 H 20.9671 6.51765 2.41304 0
M  V30 173 H 24.1581 4.28066 1.89412 0
M  V30 174 H 24.3311 6.02354 2.38902 0
M  V30 175 N 17.7372 -0.778329 1.37039 0
M  V30 176 C 18.9852 -1.53361 1.31623 0
M  V30 177 C 19.3062 -1.94739 -0.100831 0
M  V30 178 O 18.5762 -1.65797 -1.04347 0
M  V30 179 H 17.1562 -0.568794 0.484234 0
M  V30 180 H 19.8182 -0.926742 1.71457 0
M  V30 181 H 18.9142 -2.43606 1.95096 0
M  V30 182 N 19.2153 -1.21501 -1.00376 0
M  V30 183 C 20.4403 -1.05977 -1.78279 0
M  V30 184 C 20.8653 0.385994 -1.84097 0
M  V30 185 O 20.2233 1.27849 -1.28547 0
M  V30 186 C 20.2713 -1.66302 -3.19963 0
M  V30 187 O 19.3753 -0.909333 -4.0225 0
M  V30 188 H 18.7163 -0.372906 -0.549397 0
M  V30 189 H 21.2463 -1.6107 -1.26165 0
M  V30 190 H 21.2563 -1.70574 -3.70632 0
M  V30 191 H 19.9313 -2.71515 -3.15043 0
M  V30 192 H 18.5083 -0.941795 -3.60811 0
M  V30 193 N 20.6934 1.19889 -1.02296 0
M  V30 194 C 21.6564 2.21116 -0.603351 0
M  V30 195 C 22.6564 1.5738 0.329884 0
M  V30 196 O 23.8464 1.73802 0.117702 0
M  V30 197 C 20.9784 3.40696 0.117992 0
M  V30 198 H 22.1714 2.59754 -1.49893 0
M  V30 199 H 19.7244 1.33463 -0.813468 0
M  V30 200 H 20.4594 3.07569 1.0282 0
M  V30 201 H 20.2444 3.88188 -0.552511 0
M  V30 202 H 21.7344 4.15692 0.398696 0
M  V30 203 N 22.1715 0.800033 1.35784 0
M  V30 204 C 23.4195 0.376597 1.9856 0
M  V30 205 C 23.7405 -1.05812 1.63795 0
M  V30 206 O 23.0105 -1.73103 0.917171 0
M  V30 207 H 21.5905 0.136261 0.734467 0
M  V30 208 H 24.2525 1.02442 1.65806 0
M  V30 209 H 23.3485 0.477002 3.08433 0
M  V30 210 N 23.6496 -1.47581 0.552962 0
M  V30 211 C 24.5796 -2.32762 -0.185451 0
M  V30 212 C 25.5606 -1.43527 -0.912905 0
M  V30 213 O 26.7456 -1.72388 -0.894201 0
M  V30 214 C 23.8756 -3.25219 -1.21859 0
M  V30 215 C 22.8296 -4.23661 -0.607864 0
M  V30 216 C 22.1556 -5.05413 -1.74533 0
M  V30 217 C 23.4556 -5.20481 0.435582 0
M  V30 218 H 25.1496 -2.94749 0.525684 0
M  V30 219 H 22.6956 -1.41738 0.254251 0
M  V30 220 H 24.6486 -3.8365 -1.7433 0
M  V30 221 H 23.3726 -2.61279 -1.95961 0
M  V30 222 H 22.0316 -3.66451 -0.104489 0
M  V30 223 H 21.6796 -4.3788 -2.47529 0
M  V30 224 H 21.3796 -5.72059 -1.34249 0
M  V30 225 H 22.9036 -5.66701 -2.27338 0
M  V30 226 H 24.3176 -5.733 -0.00290157 0
M  V30 227 H 22.7146 -5.95305 0.757067 0
M  V30 228 H 23.7846 -4.66217 1.33303 0
M  V30 229 N 25.1277 -0.289203 -1.54924 0
M  V30 230 C 26.0577 0.58549 -2.2604 0
M  V30 231 C 27.0387 1.14753 -1.25562 0
M  V30 232 O 28.2237 1.17906 -1.54311 0
M  V30 233 C 25.3537 1.76305 -2.99222 0
M  V30 234 C 24.3077 1.33191 -4.06748 0
M  V30 235 C 23.6337 2.5937 -4.6758 0
M  V30 236 C 24.9337 0.471775 -5.20165 0
M  V30 237 H 26.6277 -0.00763532 -2.99399 0
M  V30 238 H 24.1737 -0.00511229 -1.43999 0
M  V30 239 H 26.1267 2.38097 -3.47689 0
M  V30 240 H 24.8507 2.38223 -2.23422 0
M  V30 241 H 23.5097 0.737121 -3.59113 0
M  V30 242 H 23.1577 3.19576 -3.88433 0
M  V30 243 H 22.8577 2.31228 -5.40192 0
M  V30 244 H 24.3817 3.21985 -5.18804 0
M  V30 245 H 25.7957 0.995056 -5.64599 0
M  V30 246 H 24.1927 0.284639 -5.99425 0
M  V30 247 H 25.2627 -0.506041 -4.82252 0
M  V30 248 N 26.6058 1.57591 -0.0167156 0
M  V30 249 C 28.0168 1.79201 0.523834 0
M  V30 250 C 28.3678 0.925796 1.72984 0
M  V30 251 O 27.4928 0.132792 2.15992 0
M  V30 252 C 28.0878 3.25 0.957091 0
M  V30 253 C 26.6468 3.47648 1.44283 0
M  V30 254 C 25.7938 2.74374 0.401757 0
M  V30 255 H 28.7448 1.56831 -0.242816 0
M  V30 256 H 28.7658 3.34031 1.82219 0
M  V30 257 H 28.2778 3.88019 0.0791415 0
M  V30 258 H 26.3788 2.89866 2.34113 0
M  V30 259 H 26.4918 4.56352 1.45877 0
M  V30 260 H 24.8558 2.39485 0.867121 0
M  V30 261 H 25.6388 3.40102 -0.467513 0
M  V30 262 N 28.0839 -0.256276 1.55502 0
M  V30 263 C 29.3319 -0.983672 1.76545 0
M  V30 264 C 29.6529 -1.86206 0.578982 0
M  V30 265 O 28.9229 -1.91656 -0.405577 0
M  V30 266 H 27.5029 -0.366191 0.651086 0
M  V30 267 H 30.1649 -0.276479 1.92929 0
M  V30 268 H 29.2609 -1.61087 2.67315 0
M  V30 269 N 29.562 -1.4872 -0.521534 0
M  V30 270 C 30.808 -1.574 -1.27879 0
M  V30 271 C 31.141 -0.250817 -1.92573 0
M  V30 272 O 30.416 0.743934 -1.79711 0
M  V30 273 C 30.699 -2.71843 -2.36164 0
M  V30 274 C 30.552 -4.13893 -1.76105 0
M  V30 275 C 31.871 -2.82008 -3.37875 0
M  V30 276 H 28.99 -0.572941 -0.463581 0
M  V30 277 H 31.632 -1.80927 -0.580119 0
M  V30 278 H 29.782 -2.51914 -2.95756 0
M  V30 279 H 31.454 -4.45284 -1.20499 0
M  V30 280 H 29.697 -4.20498 -1.06601 0
M  V30 281 H 30.368 -4.89804 -2.5455 0
M  V30 282 H 32.844 -3.00086 -2.88249 0
M  V30 283 H 31.72 -3.63796 -4.11028 0
M  V30 284 H 31.981 -1.90511 -3.98946 0
M  V30 285 N 31.0401 0.771051 -1.3745 0
M  V30 286 C 31.9901 1.87456 -1.29785 0
M  V30 287 C 32.9741 1.59827 -0.185541 0
M  V30 288 O 34.1661 1.71945 -0.419997 0
M  V30 289 C 31.2951 3.24935 -1.1078 0
M  V30 290 C 30.3811 3.58514 -2.26558 0
M  V30 291 N 30.7721 3.6327 -3.5195 0
M  V30 292 C 29.0701 3.88683 -2.18727 0
M  V30 293 C 29.7711 3.93616 -4.283 0
M  V30 294 N 28.7471 4.09551 -3.57448 0
M  V30 295 H 32.5491 1.89386 -2.24745 0
M  V30 296 H 30.0631 0.967531 -1.30432 0
M  V30 297 H 32.0601 4.03881 -1.03374 0
M  V30 298 H 30.7201 3.24268 -0.16738 0
M  V30 299 H 31.7311 3.45458 -3.85848 0
M  V30 300 H 28.4081 3.95834 -1.32746 0
M  V30 301 H 29.7981 4.04066 -5.36824 0
M  V30 302 N 32.5182 1.22032 0.997298 0
M  V30 303 C 33.4282 1.00271 2.12092 0
M  V30 304 C 34.4442 -0.047621 1.73935 0
M  V30 305 O 35.6202 0.144136 2.00884 0
M  V30 306 C 32.6852 0.578449 3.4184 0
M  V30 307 C 31.7462 1.70189 3.94125 0
M  V30 308 C 30.9792 1.29778 5.17681 0
M  V30 309 O 31.2022 0.174676 5.70132 0
M  V30 310 O 30.1362 2.11261 5.63607 0
M  V30 311 H 33.9622 1.94398 2.3333 0
M  V30 312 H 31.5472 1.00587 1.10465 0
M  V30 313 H 33.4292 0.351998 4.19927 0
M  V30 314 H 32.1042 -0.334019 3.21972 0
M  V30 315 H 31.0112 1.98282 3.1723 0
M  V30 316 H 32.3442 2.59206 4.18417 0
M  V30 317 N 33.9963 -1.19345 1.0293 0
M  V30 318 C 34.9263 -2.2481 0.631105 0
M  V30 319 C 35.9073 -1.66245 -0.360104 0
M  V30 320 O 37.0923 -1.92677 -0.242726 0
M  V30 321 C 34.2223 -3.47295 -0.0184607 0
M  V30 322 C 33.1763 -4.18536 0.895073 0
M  V30 323 C 32.5023 -5.34586 0.110592 0
M  V30 324 C 33.8023 -4.73287 2.209 0
M  V30 325 H 35.4963 -2.58372 1.51275 0
M  V30 326 H 33.0423 -1.24194 0.728818 0
M  V30 327 H 34.9953 -4.20268 -0.308675 0
M  V30 328 H 33.7193 -3.12933 -0.934907 0
M  V30 329 H 32.3783 -3.47446 1.16949 0
M  V30 330 H 32.0263 -4.96469 -0.807902 0
M  V30 331 H 31.7263 -5.83183 0.719087 0
M  V30 332 H 33.2503 -6.10355 -0.172871 0
M  V30 333 H 34.6643 -5.38013 1.98028 0
M  V30 334 H 33.0613 -5.32373 2.76946 0
M  V30 335 H 34.1313 -3.91331 2.86336 0
M  V30 336 N 35.4744 -0.807222 -1.35358 0
M  V30 337 C 36.8854 -0.44876 -1.81226 0
M  V30 338 C 37.2364 1.02929 -1.67033 0
M  V30 339 O 36.3614 1.79991 -1.20133 0
M  V30 340 C 36.9564 -0.807774 -3.2903 0
M  V30 341 C 35.5154 -0.501901 -3.73039 0
M  V30 342 C 34.6624 -1.03304 -2.57339 0
M  V30 343 H 37.6134 -0.998808 -1.23327 0
M  V30 344 H 37.6344 -0.10554 -3.80354 0
M  V30 345 H 37.1464 -1.88357 -3.39328 0
M  V30 346 H 35.2474 0.565128 -3.68289 0
M  V30 347 H 35.3604 -1.03497 -4.67787 0
M  V30 348 H 33.7244 -0.455339 -2.50597 0
M  V30 349 H 34.5074 -2.11496 -2.70415 0
M  V30 350 N 36.9525 1.47285 -0.560781 0
M  V30 351 C 37.8855 2.27009 0.232821 0
M  V30 352 C 38.8635 1.34273 0.917039 0
M  V30 353 O 40.0475 1.63659 0.935315 0
M  V30 354 C 37.1745 3.11406 1.33206 0
M  V30 355 C 36.2205 4.19746 0.756019 0
M  V30 356 S 37.0535 5.34003 -0.400165 0
M  V30 357 C 38.2095 6.21964 0.700805 0
M  V30 358 H 38.4425 2.93971 -0.443683 0
M  V30 359 H 35.9755 1.50446 -0.347181 0
M  V30 360 H 37.9335 3.60601 1.96156 0
M  V30 361 H 36.5945 2.438 1.98041 0
M  V30 362 H 35.7875 4.78541 1.5816 0
M  V30 363 H 35.3895 3.73451 0.202619 0
M  V30 364 H 37.6815 6.58529 1.59202 0
M  V30 365 H 38.6245 7.07941 0.150126 0
M  V30 366 H 39.0325 5.5566 0.995083 0
M  V30 367 N 38.4306 0.297415 1.54768 0
M  V30 368 C 39.6786 -0.312295 1.99673 0
M  V30 369 C 39.9996 -1.54686 1.18732 0
M  V30 370 O 39.2696 -1.93854 0.282382 0
M  V30 371 H 37.8496 -0.118381 0.73756 0
M  V30 372 H 40.5116 0.407915 1.90583 0
M  V30 373 H 39.6076 -0.586813 3.06534 0
M  V30 374 N 39.9087 -1.5758 0.0250728 0
M  V30 375 C 41.1577 -1.90811 -0.653767 0
M  V30 376 C 41.4707 -0.90273 -1.73523 0
M  V30 377 O 42.6767 -1.12614 -2.47043 0
M  V30 378 C 41.1327 -3.38804 -1.21409 0
M  V30 379 C 40.7407 -4.47692 -0.166126 0
M  V30 380 C 42.4847 -3.81108 -1.86967 0
M  V30 381 C 40.3917 -5.86779 -0.737856 0
M  V30 382 H 39.3217 -0.712063 -0.247956 0
M  V30 383 H 41.9727 -1.83281 0.0897137 0
M  V30 384 H 40.3547 -3.41252 -2.00905 0
M  V30 385 H 41.5287 -4.56797 0.606079 0
M  V30 386 H 39.8437 -4.14565 0.390466 0
M  V30 387 H 42.4407 -4.82375 -2.30692 0
M  V30 388 H 42.7837 -3.15953 -2.71071 0
M  V30 389 H 43.3167 -3.81065 -1.14167 0
M  V30 390 H 40.0557 -6.55468 0.0649577 0
M  V30 391 H 39.5757 -5.81288 -1.47864 0
M  V30 392 H 41.2547 -6.35223 -1.22884 0
M  V30 393 N 41.3868 0.248026 -1.55636 0
M  V30 394 C 42.7978 0.817177 -1.67866 0
M  V30 395 C 43.1488 1.86069 -0.622322 0
M  V30 396 O 42.2738 2.15157 0.231618 0
M  V30 397 C 42.8688 1.489 -3.04326 0
M  V30 398 C 41.4278 2.00587 -3.185 0
M  V30 399 C 40.5748 0.856573 -2.63739 0
M  V30 400 H 43.5258 0.0238579 -1.58682 0
M  V30 401 H 43.5468 2.35698 -2.98708 0
M  V30 402 H 43.0588 0.729279 -3.81186 0
M  V30 403 H 41.1598 2.79443 -2.4646 0
M  V30 404 H 41.2728 2.20402 -4.25393 0
M  V30 405 H 39.6368 1.25678 -2.21534 0
M  V30 406 H 40.4198 0.109953 -3.43124 0
M  V30 407 N 42.8649 1.48995 0.513639 0
M  V30 408 C 43.8279 1.64229 1.59879 0
M  V30 409 C 44.8279 0.514696 1.5234 0
M  V30 410 O 46.0179 0.78087 1.55718 0
M  V30 411 C 43.1499 1.62783 2.99524 0
M  V30 412 H 44.3429 2.61004 1.47705 0
M  V30 413 H 41.8959 1.37837 0.736936 0
M  V30 414 H 42.6309 0.675461 3.17188 0
M  V30 415 H 42.4159 2.4466 3.06404 0
M  V30 416 H 43.9059 1.76669 3.78388 0
M  V30 417 N 44.343 -0.763751 1.37857 0
M  V30 418 C 45.754 -1.3405 1.29952 0
M  V30 419 C 46.105 -1.96138 -0.0492898 0
M  V30 420 O 45.23 -1.94372 -0.951239 0
M  V30 421 C 45.825 -2.43729 2.35333 0
M  V30 422 C 44.384 -2.97151 2.31037 0
M  V30 423 C 43.531 -1.70438 2.18738 0
M  V30 424 H 46.482 -0.563396 1.48363 0
M  V30 425 H 46.503 -3.23412 2.00462 0
M  V30 426 H 46.015 -1.9851 3.33489 0
M  V30 427 H 44.116 -3.46724 1.3643 0
M  V30 428 H 44.229 -3.52221 3.24772 0
M  V30 429 H 42.593 -1.93673 1.65418 0
M  V30 430 H 43.376 -1.27312 3.18821 0
M  V30 431 N 45.8211 -1.22559 -0.990812 0
M  V30 432 C 47.0671 -1.06303 -1.73411 0
M  V30 433 C 47.4221 0.397442 -1.8825 0
M  V30 434 O 46.7151 1.29062 -1.41611 0
M  V30 435 C 46.9091 -1.71011 -3.13831 0
M  V30 436 C 46.7381 -3.232 -3.12685 0
M  V30 437 C 45.5081 -3.92314 -3.18461 0
M  V30 438 C 47.7061 -4.20107 -2.96673 0
M  V30 439 N 45.6881 -5.31571 -3.07091 0
M  V30 440 C 47.0591 -5.46208 -2.93354 0
M  V30 441 C 49.1141 -4.10973 -2.8108 0
M  V30 442 C 47.8171 -6.64225 -2.76039 0
M  V30 443 C 49.8431 -5.28642 -2.65126 0
M  V30 444 C 49.2051 -6.53663 -2.62496 0
M  V30 445 H 45.3041 -0.443441 -0.644115 0
M  V30 446 H 47.8881 -1.55131 -1.17654 0
M  V30 447 H 46.0591 -1.2473 -3.67827 0
M  V30 448 H 47.7911 -1.47828 -3.76735 0
M  V30 449 H 44.5461 -3.43326 -3.26227 0
M  V30 450 H 44.9701 -6.0455 -3.0471 0
M  V30 451 H 49.6121 -3.15098 -2.8191 0
M  V30 452 H 47.3301 -7.60246 -2.73954 0
M  V30 453 H 50.9161 -5.23407 -2.54039 0
M  V30 454 H 49.7961 -7.43182 -2.50302 0
M  V30 455 N 47.2992 1.18797 -1.03562 0
M  V30 456 C 48.5472 1.88278 -0.734569 0
M  V30 457 C 48.8682 1.8043 0.739586 0
M  V30 458 O 48.1382 1.21925 1.53333 0
M  V30 459 H 46.7182 0.696991 -0.268725 0
M  V30 460 H 49.3802 1.44192 -1.31129 0
M  V30 461 H 48.4762 2.94443 -1.03489 0
M  V30 462 N 48.7773 0.814389 1.34928 0
M  V30 463 C 50.0053 0.411136 2.02774 0
M  V30 464 C 50.4203 -0.980316 1.61354 0
M  V30 465 O 49.7773 -1.63299 0.814847 0
M  V30 466 C 49.8283 0.493865 3.58111 0
M  V30 467 O 49.5493 1.83047 3.98027 0
M  V30 468 C 51.0503 0.0844174 4.4322 0
M  V30 469 H 48.2703 0.166037 0.650133 0
M  V30 470 H 50.8143 1.10018 1.72384 0
M  V30 471 H 48.9693 -0.147006 3.87121 0
M  V30 472 H 49.3833 1.79872 4.92693 0
M  V30 473 H 50.8573 0.193404 5.51661 0
M  V30 474 H 51.3343 -0.97113 4.28329 0
M  V30 475 H 51.9403 0.69875 4.19521 0
M  V30 476 N 50.2554 -1.46986 0.568584 0
M  V30 477 C 51.4804 -2.07335 0.0520528 0
M  V30 478 C 51.9054 -1.41675 -1.23733 0
M  V30 479 O 51.2634 -0.495623 -1.74394 0
M  V30 480 C 51.3114 -3.60417 -0.11501 0
M  V30 481 O 50.4154 -3.95309 -1.17492 0
M  V30 482 H 49.7564 -0.661597 0.0564385 0
M  V30 483 H 52.2864 -1.88837 0.787507 0
M  V30 484 H 52.2964 -4.06698 -0.325644 0
M  V30 485 H 50.9714 -4.07601 0.826675 0
M  V30 486 H 49.5484 -3.60757 -0.943869 0
M  V30 487 N 51.7335 -0.305618 -1.54608 0
M  V30 488 C 53.1445 0.186098 -1.8577 0
M  V30 489 C 53.4955 1.53058 -1.22751 0
M  V30 490 O 52.6205 2.09888 -0.526893 0
M  V30 491 C 53.2155 0.344449 -3.37044 0
M  V30 492 C 51.7745 0.780384 -3.68221 0
M  V30 493 C 50.9215 -0.108554 -2.77087 0
M  V30 494 H 53.8725 -0.526485 -1.49712 0
M  V30 495 H 53.8935 1.17828 -3.61796 0
M  V30 496 H 53.4055 -0.634235 -3.82883 0
M  V30 497 H 51.5065 1.76945 -3.27904 0
M  V30 498 H 51.6195 0.596572 -4.75371 0
M  V30 499 H 49.9835 0.412931 -2.5133 0
M  V30 500 H 50.7665 -1.08368 -3.25747 0
M  V30 501 N 53.2116 1.57565 -0.0334293 0
M  V30 502 C 54.1416 2.13511 0.945265 0
M  V30 503 C 55.1226 1.05231 1.33643 0
M  V30 504 O 56.3076 1.33084 1.41429 0
M  V30 505 C 53.4376 2.6657 2.22616 0
M  V30 506 C 52.3916 3.79676 1.97561 0
M  V30 507 C 51.7176 4.1918 3.31952 0
M  V30 508 C 53.0176 5.0557 1.31135 0
M  V30 509 H 54.7116 2.95538 0.479325 0
M  V30 510 H 52.2576 1.42166 0.229115 0
M  V30 511 H 54.2106 3.04344 2.91466 0
M  V30 512 H 52.9346 1.8171 2.71384 0
M  V30 513 H 51.5936 3.42347 1.31127 0
M  V30 514 H 51.2416 3.31296 3.78487 0
M  V30 515 H 50.9416 4.95402 3.15992 0
M  V30 516 H 52.4656 4.59541 4.02063 0
M  V30 517 H 53.8796 5.40903 1.89992 0
M  V30 518 H 52.2766 5.86818 1.25559 0
M  V30 519 H 53.3466 4.84062 0.284894 0
M  V30 520 N 54.6897 -0.239769 1.55765 0
M  V30 521 C 55.9147 -0.988373 1.82335 0
M  V30 522 C 56.3397 -1.77886 0.611421 0
M  V30 523 O 55.6977 -1.75889 -0.439639 0
M  V30 524 C 55.7457 -1.89627 3.06715 0
M  V30 525 O 54.8497 -2.98904 2.84131 0
M  V30 526 H 54.1907 -0.280858 0.601677 0
M  V30 527 H 56.7207 -0.258597 2.02959 0
M  V30 528 H 56.7307 -2.30957 3.36338 0
M  V30 529 H 55.4057 -1.31511 3.9456 0
M  V30 530 H 53.9827 -2.61651 2.65694 0
M  V30 531 N 56.1678 -1.49265 -0.50573 0
M  V30 532 C 57.4148 -1.58513 -1.26015 0
M  V30 533 C 57.7428 -0.26972 -1.92621 0
M  V30 534 O 56.9978 0.741997 -1.81088 0
M  V30 535 C 57.2968 -2.69008 -2.35308 0
M  V30 536 C 56.9628 -4.10662 -1.86192 0
M  V30 537 C 55.6248 -4.49212 -1.72516 0
M  V30 538 C 57.9768 -4.99336 -1.49375 0
M  V30 539 C 55.3048 -5.74214 -1.20394 0
M  V30 540 C 57.6568 -6.24852 -0.987072 0
M  V30 541 C 56.3208 -6.62236 -0.836669 0
M  V30 542 H 55.5908 -0.580041 -0.461122 0
M  V30 543 H 58.2378 -1.83078 -0.561665 0
M  V30 544 H 56.5428 -2.38396 -3.10926 0
M  V30 545 H 58.2398 -2.73373 -2.93374 0
M  V30 546 H 54.8298 -3.8023 -1.97795 0
M  V30 547 H 59.0138 -4.70212 -1.5879 0
M  V30 548 H 54.2698 -6.01883 -1.07458 0
M  V30 549 H 58.4438 -6.92944 -0.692983 0
M  V30 550 H 56.0708 -7.58979 -0.430607 0
M  V30 551 N 57.6459 0.756429 -1.3826 0
M  V30 552 C 58.5959 1.86069 -1.31766 0
M  V30 553 C 59.5799 1.59621 -0.202483 0
M  V30 554 O 60.7719 1.7149 -0.438211 0
M  V30 555 C 57.9009 3.23742 -1.1422 0
M  V30 556 C 56.9869 3.56091 -2.30348 0
M  V30 557 N 57.3779 3.59517 -3.55783 0
M  V30 558 C 55.6759 3.86341 -2.22838 0
M  V30 559 C 56.3769 3.89052 -4.32451 0
M  V30 560 N 55.3529 4.05736 -3.61772 0
M  V30 561 H 59.1549 1.86992 -2.26741 0
M  V30 562 H 56.6689 0.953643 -1.31451 0
M  V30 563 H 58.6659 4.02761 -1.07652 0
M  V30 564 H 57.3259 3.24073 -0.201763 0
M  V30 565 H 58.3369 3.41347 -3.89491 0
M  V30 566 H 55.0139 3.94404 -1.36937 0
M  V30 567 H 56.4039 3.98349 -5.4108 0
M  V30 568 N 59.124 1.23083 0.984299 0
M  V30 569 C 60.54 0.992637 1.24975 0
M  V30 570 C 60.74 -0.308618 1.99123 0
M  V30 571 O 59.796 -1.02905 2.30579 0
M  V30 572 C 61.109 2.19698 2.05312 0
M  V30 573 C 62.657 2.24147 2.18465 0
M  V30 574 C 63.132 3.44157 3.02192 0
M  V30 575 N 64.623 3.44372 3.09777 0
M  V30 576 C 65.358 4.33886 3.74874 0
M  V30 577 N 64.854 5.3363 4.41827 0
M  V30 578 N 66.647 4.21639 3.71721 0
M  V30 579 H 58.798 2.06731 0.487453 0
M  V30 580 H 61.061 0.906339 0.277944 0
M  V30 581 H 60.767 3.1411 1.58201 0
M  V30 582 H 60.641 2.20465 3.06064 0
M  V30 583 H 63.028 1.30277 2.64786 0
M  V30 584 H 63.109 2.27415 1.17115 0
M  V30 585 H 62.753 4.38332 2.56568 0
M  V30 586 H 62.683 3.3813 4.03702 0
M  V30 587 H 65.174 2.72201 2.62135 0
M  V30 588 H 65.487 5.98196 4.89266 0
M  V30 589 H 63.832 5.37534 4.40548 0
M  V30 590 H 67.023 3.42962 3.18582 0
M  V30 591 H 67.196 4.91604 4.22173 0
M  V30 592 N 60.6021 -1.18246 1.0419 0
M  V30 593 C 61.5491 -2.2192 0.634037 0
M  V30 594 C 62.5191 -1.62179 -0.358765 0
M  V30 595 O 63.7041 -1.89122 -0.252466 0
M  V30 596 C 60.8441 -3.451 0.00445535 0
M  V30 597 C 59.9571 -4.19174 1.04487 0
M  V30 598 C 59.0921 -5.29813 0.383676 0
M  V30 599 C 58.1311 -5.9566 1.4091 0
M  V30 600 N 57.2681 -6.97834 0.772784 0
M  V30 601 H 62.1081 -2.56164 1.52263 0
M  V30 602 H 59.6451 -1.25843 0.761701 0
M  V30 603 H 61.6031 -4.15485 -0.377919 0
M  V30 604 H 60.2331 -3.11472 -0.847652 0
M  V30 605 H 59.2851 -3.47604 1.54518 0
M  V30 606 H 60.5971 -4.64267 1.82368 0
M  V30 607 H 59.7511 -6.06677 -0.0528366 0
M  V30 608 H 58.4901 -4.85825 -0.427208 0
M  V30 609 H 57.4951 -5.17535 1.85574 0
M  V30 610 H 58.7201 -6.4173 2.22171 0
M  V30 611 H 56.6661 -6.55998 -0.0177708 0
M  V30 612 H 56.5831 -7.41186 1.48928 0
M  V30 613 H 57.8511 -7.78665 0.36071 0
M  V30 614 N 62.0802 -0.821533 -1.34494 0
M  V30 615 C 63.3202 -0.414785 -2.00147 0
M  V30 616 C 63.6842 1.00299 -1.6372 0
M  V30 617 O 64.8852 1.51255 -2.22206 0
M  V30 618 C 63.1562 -0.609403 -3.52166 0
M  V30 619 S 64.7152 -0.295297 -4.37805 0
M  V30 620 H 61.5332 -0.15679 -0.693497 0
M  V30 621 H 64.1352 -1.06705 -1.63812 0
M  V30 622 H 62.8392 -1.64096 -3.76166 0
M  V30 623 H 62.3702 0.0576414 -3.93358 0
M  V30 624 H 64.3852 0.891531 -4.88125 0
M  V30 625 N 63.5583 1.46682 -0.576371 0
M  V30 626 C 64.7833 2.07304 -0.0630475 0
M  V30 627 C 65.2083 1.42329 1.2298 0
M  V30 628 O 64.5663 0.504865 1.74129 0
M  V30 629 C 64.6143 3.60472 0.095895 0
M  V30 630 O 63.7183 3.95927 1.15394 0
M  V30 631 H 63.0593 0.661288 -0.0599463 0
M  V30 632 H 65.5893 1.88417 -0.797511 0
M  V30 633 H 65.5993 4.06865 0.304071 0
M  V30 634 H 64.2743 4.07157 -0.84828 0
M  V30 635 H 62.8513 3.61252 0.924724 0
M  V30 636 N 65.0364 0.313813 1.54444 0
M  V30 637 C 65.9664 -0.549454 2.26943 0
M  V30 638 C 66.9474 -1.12741 1.27372 0
M  V30 639 O 68.1324 -1.15436 1.56167 0
M  V30 640 C 65.2624 -1.71523 3.01989 0
M  V30 641 C 64.2164 -1.26703 4.08816 0
M  V30 642 C 63.5424 -2.51898 4.71647 0
M  V30 643 C 64.8424 -0.388962 5.2085 0
M  V30 644 H 66.5364 0.0552661 2.99349 0
M  V30 645 H 64.0824 0.0280207 1.43973 0
M  V30 646 H 66.0354 -2.32535 3.51433 0
M  V30 647 H 64.7594 -2.34639 2.27183 0
M  V30 648 H 63.4184 -0.679896 3.6024 0
M  V30 649 H 63.0664 -3.13356 3.93468 0
M  V30 650 H 62.7664 -2.22605 5.43802 0
M  V30 651 H 64.2904 -3.1369 5.23861 0
M  V30 652 H 65.7044 -0.905107 5.6611 0
M  V30 653 H 64.1014 -0.18924 5.99802 0
M  V30 654 H 65.1714 0.582699 4.81386 0
M  V30 655 N 66.5145 -1.57545 0.0417849 0
M  V30 656 C 67.7605 -1.93424 -0.629168 0
M  V30 657 C 68.1155 -0.919564 -1.69002 0
M  V30 658 O 67.4085 0.0626178 -1.91498 0
M  V30 659 C 67.6025 -3.33794 -1.27735 0
M  V30 660 C 67.4315 -4.48822 -0.280806 0
M  V30 661 C 66.2015 -5.05148 0.123869 0
M  V30 662 C 68.3995 -5.12148 0.470012 0
M  V30 663 N 66.3815 -6.03703 1.11426 0
M  V30 664 C 67.7525 -6.05921 1.31377 0
M  V30 665 C 69.8075 -4.95078 0.529343 0
M  V30 666 C 68.5105 -6.84459 2.21152 0
M  V30 667 C 70.5365 -5.74235 1.41448 0
M  V30 668 C 69.8985 -6.67634 2.24598 0
M  V30 669 H 65.9975 -0.755418 -0.202158 0
M  V30 670 H 68.5815 -1.94378 0.111923 0
M  V30 671 H 66.7525 -3.33635 -1.98852 0
M  V30 672 H 68.4845 -3.56988 -1.90635 0
M  V30 673 H 65.2395 -4.72923 -0.253178 0
M  V30 674 H 65.6635 -6.57674 1.60607 0
M  V30 675 H 70.3055 -4.22683 -0.0992798 0
M  V30 676 H 68.0235 -7.56151 2.85063 0
M  V30 677 H 71.6095 -5.63057 1.46484 0
M  V30 678 H 70.4895 -7.27817 2.9198 0
M  V30 679 N 67.9926 0.231505 -1.5589 0
M  V30 680 C 68.9556 1.27028 -1.90779 0
M  V30 681 C 69.9556 1.40308 -0.785507 0
M  V30 682 O 71.1456 1.38744 -1.05336 0
M  V30 683 C 68.2776 2.64566 -2.14983 0
M  V30 684 H 69.4706 0.973017 -2.83677 0
M  V30 685 H 67.0236 0.471486 -1.49019 0
M  V30 686 H 67.7586 2.99406 -1.24604 0
M  V30 687 H 67.5436 2.56305 -2.96732 0
M  V30 688 H 69.0336 3.39543 -2.43105 0
M  V30 689 N 69.4707 1.49531 0.497807 0
M  V30 690 C 70.8817 1.52344 1.07927 0
M  V30 691 C 71.2327 0.311469 1.93712 0
M  V30 692 O 70.3577 -0.578405 2.08527 0
M  V30 693 C 70.9527 2.76062 1.96405 0
M  V30 694 C 69.5117 2.81643 2.49709 0
M  V30 695 C 68.6587 2.46299 1.27404 0
M  V30 696 H 71.6097 1.56182 0.281576 0
M  V30 697 H 71.6307 2.56405 2.81135 0
M  V30 698 H 71.1427 3.64254 1.33943 0
M  V30 699 H 69.2437 1.97739 3.15801 0
M  V30 700 H 69.3567 3.83891 2.86643 0
M  V30 701 H 67.7207 1.98148 1.60029 0
M  V30 702 H 68.5037 3.36769 0.66645 0
M  V30 703 N 70.9488 -0.749086 1.3866 0
M  V30 704 C 72.1968 -1.50535 1.34847 0
M  V30 705 C 72.5178 -1.94909 -0.0595016 0
M  V30 706 O 71.7878 -1.67973 -1.00806 0
M  V30 707 H 70.3678 -0.558395 0.49619 0
M  V30 708 H 73.0298 -0.890165 1.73384 0
M  V30 709 H 72.1258 -2.39413 2.00219 0
M  V30 710 N 72.4269 -1.23603 -0.977757 0
M  V30 711 C 73.8429 -0.999251 -1.24447 0
M  V30 712 C 74.0429 0.298053 -1.99283 0
M  V30 713 O 73.0989 1.01681 -2.31122 0
M  V30 714 C 74.4119 -2.20784 -2.04144 0
M  V30 715 C 75.9599 -2.25303 -2.17273 0
M  V30 716 C 76.4349 -3.45755 -3.00362 0
M  V30 717 N 77.9259 -3.4601 -3.07947 0
M  V30 718 C 78.6609 -4.35868 -3.72568 0
M  V30 719 N 78.1569 -5.35966 -4.38991 0
M  V30 720 N 79.9499 -4.23605 -3.6948 0
M  V30 721 H 72.1009 -2.06986 -0.476483 0
M  V30 722 H 74.3639 -0.907801 -0.273134 0
M  V30 723 H 74.0699 -3.14945 -1.56533 0
M  V30 724 H 73.9439 -2.22085 -3.04891 0
M  V30 725 H 76.3309 -1.3168 -2.64092 0
M  V30 726 H 76.4119 -2.28033 -1.15907 0
M  V30 727 H 76.0559 -4.39687 -2.5424 0
M  V30 728 H 75.9859 -3.40266 -4.01904 0
M  V30 729 H 78.4769 -2.73588 -2.60688 0
M  V30 730 H 78.7899 -6.00783 -4.86086 0
M  V30 731 H 77.1349 -5.39863 -4.37691 0
M  V30 732 H 80.3259 -3.44647 -3.16759 0
M  V30 733 H 80.4989 -4.93836 -4.1956 0
M  V30 734 N 73.905 1.17692 -1.04816 0
M  V30 735 C 75.316 1.69501 -0.782698 0
M  V30 736 C 75.667 1.83456 0.695577 0
M  V30 737 O 74.792 1.51942 1.54086 0
M  V30 738 C 75.387 3.07874 -1.41419 0
M  V30 739 C 73.946 3.56864 -1.19686 0
M  V30 740 C 73.093 2.3322 -1.50012 0
M  V30 741 H 76.044 1.02262 -1.2136 0
M  V30 742 H 76.065 3.71528 -0.821428 0
M  V30 743 H 75.577 2.97685 -2.49009 0
M  V30 744 H 73.678 3.72337 -0.140043 0
M  V30 745 H 73.791 4.39851 -1.89916 0
M  V30 746 H 72.155 2.37501 -0.920071 0
M  V30 747 H 72.938 2.25644 -2.58727 0
M  V30 748 N 75.3831 0.828654 1.34056 0
M  V30 749 C 76.6301 0.419458 1.98108 0
M  V30 750 C 76.9581 -1.01886 1.65679 0
M  V30 751 O 76.2131 -1.72539 0.923512 0
M  V30 752 C 76.5121 0.575226 3.52741 0
M  V30 753 C 76.1781 1.98012 4.05095 0
M  V30 754 C 74.8401 2.36442 4.19104 0
M  V30 755 C 77.1921 2.89824 4.33188 0
M  V30 756 C 74.5201 3.66009 4.58535 0
M  V30 757 C 76.8721 4.1886 4.74066 0
M  V30 758 C 75.5361 4.5726 4.86281 0
M  V30 759 H 74.8061 0.153491 0.724929 0
M  V30 760 H 77.4531 1.05371 1.59904 0
M  V30 761 H 75.7581 -0.142385 3.91541 0
M  V30 762 H 77.4551 0.239057 4.00287 0
M  V30 763 H 74.0451 1.67162 3.94658 0
M  V30 764 H 78.2291 2.61375 4.21897 0
M  V30 765 H 73.4851 3.95579 4.66184 0
M  V30 766 H 77.6591 4.90086 4.94761 0
M  V30 767 H 75.2861 5.57707 5.16592 0
M  V30 768 N 76.8612 -1.46375 0.584142 0
M  V30 769 C 77.7912 -2.33103 -0.136037 0
M  V30 770 C 78.7722 -1.45431 -0.882255 0
M  V30 771 O 79.9572 -1.74246 -0.857434 0
M  V30 772 C 77.0872 -3.27731 -1.14933 0
M  V30 773 C 76.0412 -4.24855 -0.517862 0
M  V30 774 C 75.3672 -5.09001 -1.63773 0
M  V30 775 C 76.6672 -5.19439 0.545886 0
M  V30 776 H 78.3612 -2.93568 0.588086 0
M  V30 777 H 75.9072 -1.41166 0.284259 0
M  V30 778 H 77.8602 -3.87261 -1.66153 0
M  V30 779 H 76.5842 -2.65377 -1.90375 0
M  V30 780 H 75.2432 -3.6659 -0.0267361 0
M  V30 781 H 74.8912 -4.43031 -2.38185 0
M  V30 782 H 74.5912 -5.74777 -1.22085 0
M  V30 783 H 76.1152 -5.71396 -2.15266 0
M  V30 784 H 77.5292 -5.73177 0.118704 0
M  V30 785 H 75.9262 -5.93566 0.88317 0
M  V30 786 H 76.9962 -4.63285 1.43162 0
M  V30 787 N 78.3393 -0.321999 -1.54275 0
M  V30 788 C 79.5673 0.283052 -2.04955 0
M  V30 789 C 79.9823 1.45904 -1.19823 0
M  V30 790 O 79.3393 1.81063 -0.228545 0
M  V30 791 C 79.3903 0.719028 -3.54277 0
M  V30 792 O 79.1113 -0.410175 -4.36176 0
M  V30 793 C 80.6123 1.38705 -4.21041 0
M  V30 794 H 77.8323 0.0584616 -0.668448 0
M  V30 795 H 80.3763 -0.467734 -1.99079 0
M  V30 796 H 78.5313 1.41979 -3.60445 0
M  V30 797 H 78.9453 -0.0669416 -5.24457 0
M  V30 798 H 80.4193 1.64306 -5.2698 0
M  V30 799 H 80.8963 2.33385 -3.72059 0
M  V30 800 H 81.5023 0.728906 -4.19007 0
M  V30 801 N 79.8174 1.5752 -0.0501392 0
M  V30 802 C 80.7474 2.14502 0.922566 0
M  V30 803 C 81.7284 1.06642 1.3252 0
M  V30 804 O 82.9134 1.34577 1.4001 0
M  V30 805 C 80.0434 2.68916 2.19776 0
M  V30 806 C 78.9974 3.8175 1.93523 0
M  V30 807 C 78.3234 4.22677 3.27487 0
M  V30 808 C 79.6234 5.06932 1.25765 0
M  V30 809 H 81.3174 2.9603 0.447952 0
M  V30 810 H 78.8634 1.42401 0.214024 0
M  V30 811 H 80.8164 3.07419 2.88222 0
M  V30 812 H 79.5404 1.84578 2.69441 0
M  V30 813 H 78.1994 3.43718 1.27489 0
M  V30 814 H 77.8474 3.35291 3.74952 0
M  V30 815 H 77.5474 4.98725 3.1072 0
M  V30 816 H 79.0714 4.63779 3.97166 0
M  V30 817 H 80.4854 5.42888 1.84244 0
M  V30 818 H 78.8824 5.88116 1.19328 0
M  V30 819 H 79.9524 4.84337 0.233536 0
M  V30 820 N 81.2955 -0.223234 1.56011 0
M  V30 821 C 82.5415 -0.949279 1.79211 0
M  V30 822 C 82.8745 -1.84054 0.619494 0
M  V30 823 O 82.1495 -1.90726 -0.381317 0
M  V30 824 C 82.4325 -1.78965 3.12479 0
M  V30 825 C 82.2855 -0.924997 4.40186 0
M  V30 826 C 83.6045 -2.76774 3.42175 0
M  V30 827 H 80.7235 -0.343676 0.651963 0
M  V30 828 H 83.3655 -0.218253 1.88742 0
M  V30 829 H 81.5155 -2.41291 3.04485 0
M  V30 830 H 83.1875 -0.318615 4.60198 0
M  V30 831 H 81.4305 -0.230344 4.33188 0
M  V30 832 H 82.1015 -1.54735 5.29869 0
M  V30 833 H 84.5775 -2.24584 3.50287 0
M  V30 834 H 83.4535 -3.32678 4.36597 0
M  V30 835 H 83.7145 -3.54429 2.64258 0
M  V30 836 N 82.7736 -1.49793 -0.48987 0
M  V30 837 C 83.7036 -1.70201 -1.59856 0
M  V30 838 C 84.6846 -0.55076 -1.60937 0
M  V30 839 O 85.8696 -0.787841 -1.77501 0
M  V30 840 C 82.9996 -1.77882 -2.98287 0
M  V30 841 C 81.9536 -2.92907 -3.12073 0
M  V30 842 C 81.2796 -2.85712 -4.51965 0
M  V30 843 C 82.5796 -4.3369 -2.91051 0
M  V30 844 H 84.2736 -2.63025 -1.43032 0
M  V30 845 H 81.8196 -1.26574 -0.686664 0
M  V30 846 H 83.7726 -1.90744 -3.75759 0
M  V30 847 H 82.4966 -0.816653 -3.16225 0
M  V30 848 H 81.1556 -2.79665 -2.37029 0
M  V30 849 H 80.8036 -1.8738 -4.66795 0
M  V30 850 H 80.5036 -3.62921 -4.62128 0
M  V30 851 H 82.0276 -3.00598 -5.31482 0
M  V30 852 H 83.4416 -4.47555 -3.58284 0
M  V30 853 H 81.8386 -5.12205 -3.12675 0
M  V30 854 H 82.9086 -4.47362 -1.87071 0
M  V30 855 N 84.2517 0.741722 -1.39055 0
M  V30 856 C 85.1817 1.869 -1.39966 0
M  V30 857 C 86.1627 1.6804 -0.26392 0
M  V30 858 O 87.3477 1.88458 -0.468755 0
M  V30 859 C 84.4777 3.24572 -1.23574 0
M  V30 860 C 83.4317 3.58056 -2.34477 0
M  V30 861 C 82.7577 4.94593 -2.0318 0
M  V30 862 C 84.0577 3.61716 -3.76774 0
M  V30 863 H 85.7517 1.86395 -2.34302 0
M  V30 864 H 83.2977 0.895361 -1.1278 0
M  V30 865 H 85.2507 4.031 -1.22834 0
M  V30 866 H 83.9747 3.25587 -0.257045 0
M  V30 867 H 82.6337 2.81854 -2.34423 0
M  V30 868 H 82.2817 4.92181 -1.03765 0
M  V30 869 H 81.9817 5.17964 -2.77465 0
M  V30 870 H 83.5057 5.75486 -2.04079 0
M  V30 871 H 84.9197 4.30335 -3.78794 0
M  V30 872 H 83.3167 3.96603 -4.50362 0
M  V30 873 H 84.3867 2.61672 -4.08235 0
M  V30 874 N 85.7298 1.2412 0.971189 0
M  V30 875 C 86.9758 1.08041 1.71625 0
M  V30 876 C 87.3088 -0.380407 1.90438 0
M  V30 877 O 86.5838 -1.28127 1.46334 0
M  V30 878 C 86.8668 1.81682 3.10908 0
M  V30 879 C 86.7198 3.35493 2.99608 0
M  V30 880 C 88.0388 1.58671 4.10501 0
M  V30 881 H 85.1578 0.39388 0.622919 0
M  V30 882 H 87.7998 1.52743 1.13003 0
M  V30 883 H 85.9498 1.43684 3.60953 0
M  V30 884 H 87.6218 3.83068 2.57015 0
M  V30 885 H 85.8648 3.64052 2.35899 0
M  V30 886 H 86.5358 3.82217 3.98264 0
M  V30 887 H 89.0118 1.91719 3.69301 0
M  V30 888 H 87.8878 2.1266 5.06031 0
M  V30 889 H 88.1488 0.524161 4.38982 0
M  V30 890 N 87.2079 -1.17134 1.05439 0
M  V30 891 C 88.4329 -1.91913 0.786396 0
M  V30 892 C 88.8579 -1.7643 -0.652234 0
M  V30 893 O 88.2159 -1.08372 -1.45345 0
M  V30 894 C 88.2639 -3.40921 1.17497 0
M  V30 895 O 87.3679 -4.11244 0.308589 0
M  V30 896 H 86.7089 -0.598215 0.288158 0
M  V30 897 H 89.2389 -1.48457 1.4079 0
M  V30 898 H 89.2489 -3.91668 1.14281 0
M  V30 899 H 87.9239 -3.5151 2.22292 0
M  V30 900 H 86.5009 -3.70731 0.40157 0
M  V30 901 N 88.686 -0.835752 -1.33615 0
M  V30 902 C 89.935 -0.426289 -1.97144 0
M  V30 903 C 90.248 1.01912 -1.66953 0
M  V30 904 O 91.454 1.53311 -2.24072 0
M  V30 905 C 89.91 -0.711321 -3.52801 0
M  V30 906 C 89.518 -2.1712 -3.91871 0
M  V30 907 C 91.262 -0.368654 -4.22896 0
M  V30 908 C 89.169 -2.40044 -5.40493 0
M  V30 909 H 88.099 -0.15567 -0.737755 0
M  V30 910 H 90.75 -1.0239 -1.52278 0
M  V30 911 H 89.132 -0.0433766 -3.95976 0
M  V30 912 H 90.306 -2.87936 -3.59763 0
M  V30 913 H 88.621 -2.47654 -3.34749 0
M  V30 914 H 91.218 -0.517601 -5.32189 0
M  V30 915 H 91.561 0.688078 -4.10574 0
M  V30 916 H 92.094 -0.991702 -3.8524 0
M  V30 917 H 88.833 -3.44271 -5.57815 0
M  V30 918 H 88.353 -1.73785 -5.74072 0
M  V30 919 H 90.032 -2.23042 -6.0734 0
M  V30 920 N 90.1641 1.46063 -0.591896 0
M  V30 921 C 91.1111 2.30399 0.136069 0
M  V30 922 C 92.0811 1.41169 0.875238 0
M  V30 923 O 93.2661 1.70112 0.86409 0
M  V30 924 C 90.4061 3.25804 1.13781 0
M  V30 925 C 89.5191 4.30134 0.401137 0
M  V30 926 C 88.6541 5.12659 1.39121 0
M  V30 927 C 87.6931 6.0873 0.641462 0
M  V30 928 N 86.8301 6.8409 1.58004 0
M  V30 929 H 91.6701 2.92118 -0.589144 0
M  V30 930 H 89.2071 1.43959 -0.302342 0
M  V30 931 H 91.1651 3.79569 1.73156 0
M  V30 932 H 89.7951 2.65872 1.83062 0
M  V30 933 H 88.8471 3.79152 -0.307826 0
M  V30 934 H 90.1591 4.98458 -0.184565 0
M  V30 935 H 89.3131 5.70747 2.05749 0
M  V30 936 H 88.0521 4.44316 2.01084 0
M  V30 937 H 87.0571 5.49786 -0.0385419 0
M  V30 938 H 88.2821 6.79095 0.0270945 0
M  V30 939 H 86.2281 6.18449 2.18761 0
M  V30 940 H 86.1451 7.48709 1.04738 0
M  V30 941 H 87.4131 7.4673 2.23639 0
M  V30 942 N 91.6422 0.330177 1.54103 0
M  V30 943 C 92.5742 -0.566902 2.22079 0
M  V30 944 C 93.5872 -1.07462 1.22294 0
M  V30 945 O 94.7762 -0.987065 1.48726 0
M  V30 946 C 91.8762 -1.79138 2.87685 0
M  V30 947 C 91.0492 -1.42123 4.13666 0
M  V30 948 C 90.1082 -2.50394 4.62806 0
M  V30 949 O 89.1342 -2.14261 5.27334 0
M  V30 950 N 90.3362 -3.81433 4.37595 0
M  V30 951 H 93.1012 0.0151844 2.99696 0
M  V30 952 H 90.6622 0.153681 1.61169 0
M  V30 953 H 92.6542 -2.50975 3.1748 0
M  V30 954 H 91.2242 -2.28115 2.13734 0
M  V30 955 H 90.4442 -0.534201 3.90564 0
M  V30 956 H 91.7322 -1.14971 4.9564 0
M  V30 957 H 91.1302 -4.13584 3.8596 0
M  V30 958 H 89.6872 -4.4948 4.72029 0
M  V30 959 N 93.1203 -1.57491 0.0584922 0
M  V30 960 C 94.3663 -1.93264 -0.614558 0
M  V30 961 C 94.6993 -0.937717 -1.7006 0
M  V30 962 O 93.9743 0.0351652 -1.94468 0
M  V30 963 C 94.2573 -3.3938 -1.20386 0
M  V30 964 C 94.1103 -4.49625 -0.125375 0
M  V30 965 C 95.4293 -3.86039 -2.11334 0
M  V30 966 H 92.5483 -0.702791 -0.221933 0
M  V30 967 H 95.1903 -1.8961 0.12175 0
M  V30 968 H 93.3403 -3.42626 -1.83139 0
M  V30 969 H 95.0123 -4.58506 0.506971 0
M  V30 970 H 93.2553 -4.30354 0.545672 0
M  V30 971 H 93.9263 -5.48967 -0.577861 0
M  V30 972 H 96.4023 -3.84716 -1.58534 0
M  V30 973 H 95.2783 -4.88914 -2.49507 0
M  V30 974 H 95.5393 -3.23215 -3.01636 0
M  V30 975 N 94.5984 0.214957 -1.56127 0
M  V30 976 C 95.8264 0.955092 -1.83536 0
M  V30 977 C 96.2414 1.77677 -0.638472 0
M  V30 978 O 95.5984 1.78219 0.392968 0
M  V30 979 C 95.6494 1.86734 -3.09536 0
M  V30 980 O 95.3704 1.07887 -4.24608 0
M  V30 981 C 96.8714 2.72082 -3.4998 0
M  V30 982 H 94.0914 0.279611 -0.609966 0
M  V30 983 H 96.6354 0.228197 -2.03223 0
M  V30 984 H 94.7904 2.5481 -2.91806 0
M  V30 985 H 95.2044 1.69872 -4.9623 0
M  V30 986 H 96.6784 3.31782 -4.41163 0
M  V30 987 H 97.1554 3.44806 -2.7204 0
M  V30 988 H 97.7614 2.09409 -3.70173 0
M  V30 989 N 96.0765 1.50051 0.48192 0
M  V30 990 C 97.3245 1.60181 1.23234 0
M  V30 991 C 97.6455 0.299176 1.92691 0
M  V30 992 O 96.9155 -0.682708 1.83619 0
M  V30 993 H 95.4955 0.590232 0.457859 0
M  V30 994 H 98.1575 1.86775 0.556881 0
M  V30 995 H 97.2535 2.40753 1.98607 0
M  V30 996 N 97.5546 -0.734337 1.39446 0
M  V30 997 C 98.7796 -1.52866 1.40167 0
M  V30 998 C 99.2046 -1.881 -0.00171513 0
M  V30 999 O 98.5626 -1.51957 -0.988879 0
M  V30 1000 C 98.6106 -2.79235 2.28167 0
M  V30 1001 O 97.7146 -3.75185 1.71201 0
M  V30 1002 H 97.0556 -0.461618 0.477289 0
M  V30 1003 H 99.5856 -0.905949 1.8345 0
M  V30 1004 H 99.5956 -3.27963 2.42702 0
M  V30 1005 H 98.2706 -2.52923 3.30156 0
M  V30 1006 H 96.8476 -3.33958 1.65912 0
M  V30 1007 N 99.0327 -1.24633 -0.964593 0
M  V30 1008 C 99.9627 -1.06611 -2.07741 0
M  V30 1009 C 100.944 0.0218666 -1.70086 0
M  V30 1010 O 102.129 -0.145793 -1.93652 0
M  V30 1011 C 99.2587 -0.673444 -3.40708 0
M  V30 1012 C 98.2127 -1.71054 -3.92332 0
M  V30 1013 C 97.5387 -1.17285 -5.21678 0
M  V30 1014 C 98.8387 -3.10718 -4.19824 0
M  V30 1015 H 100.533 -1.99693 -2.23076 0
M  V30 1016 H 98.0787 -0.96152 -1.07195 0
M  V30 1017 H 100.032 -0.534345 -4.17998 0
M  V30 1018 H 98.7557 0.293073 -3.25282 0
M  V30 1019 H 97.4147 -1.83791 -3.17201 0
M  V30 1020 H 97.0627 -0.196847 -5.02615 0
M  V30 1021 H 96.7627 -1.86592 -5.57187 0
M  V30 1022 H 98.2867 -1.04593 -6.01575 0
M  V30 1023 H 99.7007 -3.01192 -4.87808 0
M  V30 1024 H 98.0977 -3.77406 -4.66567 0
M  V30 1025 H 99.1677 -3.58524 -3.26479 0
M  V30 1026 N 100.511 1.16574 -1.06058 0
M  V30 1027 C 101.441 2.23057 -0.690488 0
M  V30 1028 C 102.422 1.67141 0.315901 0
M  V30 1029 O 103.607 1.93253 0.191556 0
M  V30 1030 C 100.737 3.47222 -0.073625 0
M  V30 1031 C 99.6908 4.16016 -1.00573 0
M  V30 1032 C 99.0168 5.34104 -0.252289 0
M  V30 1033 C 100.317 4.67264 -2.33371 0
M  V30 1034 H 102.011 2.54271 -1.58072 0
M  V30 1035 H 99.5568 1.22218 -0.76149 0
M  V30 1036 H 101.51 4.20939 0.19714 0
M  V30 1037 H 100.234 3.15302 0.85161 0
M  V30 1038 H 98.8928 3.44223 -1.2612 0
M  V30 1039 H 98.5408 4.98437 0.675988 0
M  V30 1040 H 98.2408 5.81072 -0.873455 0
M  V30 1041 H 99.7648 6.10599 0.0109857 0
M  V30 1042 H 101.179 5.32573 -2.12223 0
M  V30 1043 H 99.5758 5.24843 -2.90963 0
M  V30 1044 H 100.646 3.83602 -2.96611 0
M  V30 1045 N 101.989 0.842826 1.3317 0
M  V30 1046 C 102.899 0.281444 2.32906 0
M  V30 1047 C 103.915 -0.594587 1.63526 0
M  V30 1048 O 105.091 -0.49777 1.95152 0
M  V30 1049 C 102.156 -0.530929 3.42611 0
M  V30 1050 C 101.217 0.369843 4.27704 0
M  V30 1051 C 100.45 -0.403853 5.3217 0
M  V30 1052 O 100.673 -1.63513 5.46461 0
M  V30 1053 O 99.6069 0.224199 6.01482 0
M  V30 1054 H 103.433 1.10744 2.82789 0
M  V30 1055 H 101.018 0.60545 1.36582 0
M  V30 1056 H 102.9 -0.992437 4.09547 0
M  V30 1057 H 101.575 -1.33392 2.94938 0
M  V30 1058 H 100.482 0.879275 3.6362 0
M  V30 1059 H 101.815 1.13771 4.78871 0
M  V30 1060 N 103.467 -1.45747 0.599634 0
M  V30 1061 C 104.377 -2.34262 -0.125888 0
M  V30 1062 C 105.393 -1.50768 -0.868625 0
M  V30 1063 O 106.569 -1.83592 -0.828003 0
M  V30 1064 C 103.634 -3.28252 -1.11587 0
M  V30 1065 C 102.695 -4.27651 -0.375956 0
M  V30 1066 C 101.928 -5.1715 -1.31877 0
M  V30 1067 O 102.151 -5.09916 -2.55621 0
M  V30 1068 O 101.085 -5.96286 -0.820157 0
M  V30 1069 H 104.911 -2.97688 0.601315 0
M  V30 1070 H 102.496 -1.44999 0.359934 0
M  V30 1071 H 104.378 -3.86191 -1.68626 0
M  V30 1072 H 103.053 -2.67401 -1.82424 0
M  V30 1073 H 101.96 -3.7335 0.236698 0
M  V30 1074 H 103.293 -4.91334 0.29177 0
M  V30 1075 N 104.945 -0.338344 -1.53925 0
M  V30 1076 C 106.173 0.261298 -2.05243 0
M  V30 1077 C 106.588 1.44625 -1.21363 0
M  V30 1078 O 105.945 1.80811 -0.247736 0
M  V30 1079 C 105.996 0.681412 -3.5502 0
M  V30 1080 O 105.717 -0.456414 -4.35716 0
M  V30 1081 C 107.218 1.34232 -4.22489 0
M  V30 1082 H 104.438 0.0513685 -0.669031 0
M  V30 1083 H 106.982 -0.488822 -1.98572 0
M  V30 1084 H 105.137 1.38148 -3.61931 0
M  V30 1085 H 105.551 -0.122564 -5.24357 0
M  V30 1086 H 107.025 1.58708 -5.28693 0
M  V30 1087 H 107.502 2.29426 -3.74514 0
M  V30 1088 H 108.108 0.684424 -4.19757 0
M  V30 1089 N 106.423 1.57458 -0.0668435 0
M  V30 1090 C 107.651 1.97624 0.612565 0
M  V30 1091 C 108.066 0.94502 1.63447 0
M  V30 1092 O 107.423 -0.0689276 1.8237 0
M  V30 1093 C 107.474 3.37869 1.28555 0
M  V30 1094 O 107.195 4.3704 0.304557 0
M  V30 1095 C 108.696 3.92882 2.05325 0
M  V30 1096 H 105.916 0.650045 0.166381 0
M  V30 1097 H 108.46 2.04035 -0.137782 0
M  V30 1098 H 106.615 3.3256 1.98702 0
M  V30 1099 H 107.029 5.18565 0.786779 0
M  V30 1100 H 108.503 4.93247 2.47812 0
M  V30 1101 H 108.98 3.29156 2.9078 0
M  V30 1102 H 109.586 4.01577 1.40056 0
M  V30 1103 N 107.901 -0.206675 1.56239 0
M  V30 1104 C 109.317 -0.557025 1.49564 0
M  V30 1105 C 109.517 -1.86424 0.764735 0
M  V30 1106 O 108.573 -2.50584 0.310491 0
M  V30 1107 C 109.886 -0.622478 2.94186 0
M  V30 1108 C 111.434 -0.712099 3.04792 0
M  V30 1109 C 111.909 -0.808767 4.50803 0
M  V30 1110 N 113.4 -0.8726 4.54907 0
M  V30 1111 C 114.135 -0.967365 5.65181 0
M  V30 1112 N 113.631 -1.02515 6.85173 0
M  V30 1113 N 115.424 -1.00366 5.53067 0
M  V30 1114 H 107.575 0.650943 2.02179 0
M  V30 1115 H 109.838 0.230387 0.919579 0
M  V30 1116 H 109.544 0.268727 3.50672 0
M  V30 1117 H 109.418 -1.4811 3.46905 0
M  V30 1118 H 111.805 -1.59374 2.48363 0
M  V30 1119 H 111.886 0.172489 2.55218 0
M  V30 1120 H 111.53 0.0684754 5.07854 0
M  V30 1121 H 111.46 -1.70899 4.98098 0
M  V30 1122 H 113.951 -0.837657 3.68499 0
M  V30 1123 H 114.264 -1.09765 7.64965 0
M  V30 1124 H 112.609 -0.994026 6.87855 0
M  V30 1125 H 115.8 -0.95527 4.58249 0
M  V30 1126 H 115.973 -1.07405 6.39037 0
M  V30 1127 N 109.379 -1.50304 -0.473955 0
M  V30 1128 C 110.326 -1.68959 -1.57231 0
M  V30 1129 C 111.296 -0.530899 -1.57387 0
M  V30 1130 O 112.481 -0.761133 -1.74961 0
M  V30 1131 C 109.621 -1.7871 -2.95223 0
M  V30 1132 C 108.734 -3.06061 -3.04878 0
M  V30 1133 C 107.869 -3.06626 -4.33767 0
M  V30 1134 C 106.908 -4.28443 -4.37154 0
M  V30 1135 N 106.045 -4.26763 -5.5751 0
M  V30 1136 H 110.885 -2.6273 -1.40631 0
M  V30 1137 H 108.422 -1.30241 -0.683789 0
M  V30 1138 H 110.38 -1.82344 -3.75242 0
M  V30 1139 H 109.01 -0.883806 -3.10465 0
M  V30 1140 H 108.062 -3.11911 -2.17751 0
M  V30 1141 H 109.374 -3.96039 -3.0324 0
M  V30 1142 H 108.528 -3.08973 -5.22131 0
M  V30 1143 H 107.267 -2.14473 -4.3801 0
M  V30 1144 H 106.272 -4.2631 -3.47188 0
M  V30 1145 H 107.497 -5.2182 -4.34605 0
M  V30 1146 H 105.443 -3.37462 -5.62544 0
M  V30 1147 H 105.36 -5.10507 -5.57601 0
M  V30 1148 H 106.628 -4.33253 -6.48006 0
M  V30 1149 N 110.857 0.726932 -1.39834 0
M  V30 1150 C 112.103 1.48771 -1.38704 0
M  V30 1151 C 112.458 1.92394 0.0146387 0
M  V30 1152 O 111.751 1.64474 0.982797 0
M  V30 1153 C 111.945 2.73495 -2.30077 0
M  V30 1154 C 111.774 2.42068 -3.78989 0
M  V30 1155 C 110.544 2.33966 -4.4787 0
M  V30 1156 C 112.742 2.0708 -4.70768 0
M  V30 1157 N 110.724 1.95095 -5.82075 0
M  V30 1158 C 112.095 1.78719 -5.93683 0
M  V30 1159 C 114.15 1.93618 -4.58712 0
M  V30 1160 C 112.853 1.3825 -7.05889 0
M  V30 1161 C 114.879 1.54553 -5.70848 0
M  V30 1162 C 114.241 1.27082 -6.92842 0
M  V30 1163 H 110.34 0.542919 -0.562817 0
M  V30 1164 H 112.924 0.84408 -1.75452 0
M  V30 1165 H 111.095 3.35625 -1.95474 0
M  V30 1166 H 112.827 3.39755 -2.19883 0
M  V30 1167 H 109.582 2.51331 -4.0141 0
M  V30 1168 H 110.006 1.7823 -6.53118 0
M  V30 1169 H 114.648 2.13522 -3.64922 0
M  V30 1170 H 112.366 1.17088 -7.99572 0
M  V30 1171 H 115.952 1.44731 -5.6351 0
M  V30 1172 H 114.832 0.973069 -7.78139 0
M  V30 1173 N 112.336 1.25143 0.95797 0
M  V30 1174 C 113.299 1.05321 2.03569 0
M  V30 1175 C 114.299 0.007152 1.60798 0
M  V30 1176 O 115.489 0.24903 1.72411 0
M  V30 1177 C 112.621 0.598394 3.35607 0
M  V30 1178 H 113.814 2.00986 2.22586 0
M  V30 1179 H 111.367 1.07502 1.13459 0
M  V30 1180 H 112.102 -0.361014 3.22284 0
M  V30 1181 H 111.887 1.35351 3.67998 0
M  V30 1182 H 113.377 0.48104 4.1482 0
M  V30 1183 N 113.814 -1.1601 1.06675 0
M  V30 1184 C 114.746 -2.20115 0.638921 0
M  V30 1185 C 115.759 -1.59916 -0.305057 0
M  V30 1186 O 116.948 -1.78245 -0.0954446 0
M  V30 1187 C 114.048 -3.38798 -0.0830083 0
M  V30 1188 C 113.221 -4.2855 0.875426 0
M  V30 1189 C 112.28 -5.25849 0.192042 0
M  V30 1190 O 111.306 -5.63102 0.830921 0
M  V30 1191 N 112.508 -5.70648 -1.06493 0
M  V30 1192 H 115.273 -2.57439 1.53444 0
M  V30 1193 H 112.834 -1.31057 0.950557 0
M  V30 1194 H 114.826 -4.00936 -0.550685 0
M  V30 1195 H 113.396 -2.99947 -0.880386 0
M  V30 1196 H 112.616 -3.63617 1.52238 0
M  V30 1197 H 113.904 -4.85393 1.52548 0
M  V30 1198 H 113.302 -5.42482 -1.60405 0
M  V30 1199 H 111.859 -6.34859 -1.47641 0
M  V30 1200 N 115.292 -0.849877 -1.32721 0
M  V30 1201 C 116.522 -0.46408 -2.0132 0
M  V30 1202 C 116.93 0.94246 -1.64056 0
M  V30 1203 O 116.273 1.6257 -0.855379 0
M  V30 1204 C 116.335 -0.517887 -3.5575 0
M  V30 1205 C 115.999 -1.88248 -4.16427 0
M  V30 1206 C 116.996 -2.84726 -4.35002 0
M  V30 1207 C 114.681 -2.17832 -4.52609 0
M  V30 1208 C 116.675 -4.08945 -4.8892 0
M  V30 1209 C 114.362 -3.42304 -5.06232 0
M  V30 1210 C 115.36 -4.37677 -5.24335 0
M  V30 1211 O 115.048 -5.59946 -5.76815 0
M  V30 1212 H 114.78 -0.181327 -0.651227 0
M  V30 1213 H 117.334 -1.14713 -1.70382 0
M  V30 1214 H 115.564 0.221997 -3.86062 0
M  V30 1215 H 117.253 -0.148366 -4.05629 0
M  V30 1216 H 118.019 -2.63174 -4.07388 0
M  V30 1217 H 113.898 -1.44385 -4.37806 0
M  V30 1218 H 117.442 -4.83396 -5.02966 0
M  V30 1219 H 113.339 -3.63709 -5.33278 0
M  V30 1220 H 114.107 -5.61838 -5.95214 0
M  V30 1221 N 116.77 1.45427 -0.607355 0
M  V30 1222 C 117.717 2.3053 0.111625 0
M  V30 1223 C 118.687 1.4209 0.860216 0
M  V30 1224 O 119.872 1.71019 0.845998 0
M  V30 1225 C 117.012 3.26992 1.10319 0
M  V30 1226 C 116.125 4.30535 0.355493 0
M  V30 1227 C 115.26 5.14105 1.33676 0
M  V30 1228 C 114.299 6.09376 0.576862 0
M  V30 1229 N 113.436 6.85727 1.5074 0
M  V30 1230 H 118.276 2.91477 -0.620093 0
M  V30 1231 H 115.813 1.43631 -0.317594 0
M  V30 1232 H 117.771 3.81385 1.6912 0
M  V30 1233 H 116.401 2.67799 1.80232 0
M  V30 1234 H 115.453 3.78805 -0.348023 0
M  V30 1235 H 116.765 4.98235 -0.237423 0
M  V30 1236 H 115.919 5.72897 1.99684 0
M  V30 1237 H 114.658 4.46423 1.9636 0
M  V30 1238 H 113.663 5.49715 -0.0968519 0
M  V30 1239 H 114.888 6.79085 -0.0449341 0
M  V30 1240 H 112.834 6.20735 2.12189 0
M  V30 1241 H 112.751 7.49778 0.967913 0
M  V30 1242 H 114.019 7.4906 2.15706 0
M  V30 1243 N 118.248 0.346503 1.53744 0
M  V30 1244 C 119.18 -0.543316 2.22667 0
M  V30 1245 C 120.193 -1.06159 1.23427 0
M  V30 1246 O 121.382 -0.971235 1.49764 0
M  V30 1247 C 118.482 -1.76076 2.89569 0
M  V30 1248 C 117.655 -1.37727 4.15151 0
M  V30 1249 C 116.714 -2.45471 4.65436 0
M  V30 1250 O 115.74 -2.08655 5.29577 0
M  V30 1251 N 116.942 -3.7677 4.41616 0
M  V30 1252 H 119.707 0.0469703 2.99663 0
M  V30 1253 H 117.268 0.170766 1.60997 0
M  V30 1254 H 119.26 -2.47593 3.20125 0
M  V30 1255 H 117.83 -2.25835 2.16142 0
M  V30 1256 H 117.05 -0.492746 3.91108 0
M  V30 1257 H 118.338 -1.09708 4.96832 0
M  V30 1258 H 117.736 -4.09467 3.90325 0
M  V30 1259 H 116.293 -4.44448 4.7677 0
M  V30 1260 N 119.726 -1.57421 0.075193 0
M  V30 1261 C 120.689 -2.11791 -0.876203 0
M  V30 1262 C 121.689 -1.04268 -1.22412 0
M  V30 1263 O 122.879 -1.30242 -1.15684 0
M  V30 1264 C 120.011 -2.62207 -2.17854 0
M  V30 1265 H 121.204 -2.9716 -0.40444 0
M  V30 1266 H 118.757 -1.55333 -0.173557 0
M  V30 1267 H 119.492 -1.803 -2.6956 0
M  V30 1268 H 119.277 -3.40802 -1.93897 0
M  V30 1269 H 120.767 -3.04335 -2.85955 0
M  V30 1270 N 121.204 0.198386 -1.56346 0
M  V30 1271 C 122.444 0.92609 -1.82217 0
M  V30 1272 C 122.808 1.80584 -0.652195 0
M  V30 1273 O 124.009 2.56907 -0.790716 0
M  V30 1274 C 122.28 1.72354 -3.13096 0
M  V30 1275 S 123.839 2.50371 -3.6036 0
M  V30 1276 H 120.657 0.310677 -0.639532 0
M  V30 1277 H 123.259 0.189755 -1.94577 0
M  V30 1278 H 121.963 1.0678 -3.96265 0
M  V30 1279 H 121.494 2.50175 -3.03605 0
M  V30 1280 H 123.509 3.74488 -3.25535 0
M  V30 1281 N 122.682 1.50554 0.465978 0
M  V30 1282 C 123.612 1.72722 1.57128 0
M  V30 1283 C 124.593 0.576294 1.6004 0
M  V30 1284 O 125.778 0.81598 1.76225 0
M  V30 1285 C 122.908 1.82605 2.95419 0
M  V30 1286 C 121.862 2.97835 3.07373 0
M  V30 1287 C 121.188 2.92867 4.47363 0
M  V30 1288 C 122.488 4.38265 2.84114 0
M  V30 1289 H 124.182 2.65267 1.38829 0
M  V30 1290 H 121.728 1.2765 0.666441 0
M  V30 1291 H 123.681 1.96698 3.72677 0
M  V30 1292 H 122.405 0.866858 3.14886 0
M  V30 1293 H 121.064 2.83401 2.3255 0
M  V30 1294 H 120.712 1.94783 4.63755 0
M  V30 1295 H 120.412 3.70227 4.56296 0
M  V30 1296 H 121.936 3.09015 5.26633 0
M  V30 1297 H 123.35 4.53198 3.51118 0
M  V30 1298 H 121.747 5.17115 3.04487 0
M  V30 1299 H 122.817 4.50281 1.7993 0
M  V30 1300 N 124.16 -0.719506 1.40217 0
M  V30 1301 C 125.576 -1.02707 1.22161 0
M  V30 1302 C 125.776 -2.0128 0.0940557 0
M  V30 1303 O 124.832 -2.46452 -0.549318 0
M  V30 1304 C 126.145 -1.57454 2.56181 0
M  V30 1305 C 127.693 -1.69458 2.63159 0
M  V30 1306 C 128.168 -2.27611 3.97438 0
M  V30 1307 N 129.659 -2.35002 3.99159 0
M  V30 1308 C 130.394 -2.80972 4.99842 0
M  V30 1309 N 129.89 -3.26723 6.10921 0
M  V30 1310 N 131.683 -2.80321 4.87213 0
M  V30 1311 H 123.834 -0.0660492 2.12297 0
M  V30 1312 H 126.097 -0.0919077 0.943534 0
M  V30 1313 H 125.803 -0.924873 3.39321 0
M  V30 1314 H 125.677 -2.56036 2.76993 0
M  V30 1315 H 128.064 -2.33543 1.80393 0
M  V30 1316 H 128.145 -0.694867 2.46181 0
M  V30 1317 H 127.789 -1.6415 4.80643 0
M  V30 1318 H 127.719 -3.2829 4.11744 0
M  V30 1319 H 130.21 -2.02685 3.18947 0
M  V30 1320 H 130.523 -3.60355 6.8364 0
M  V30 1321 H 128.868 -3.24692 6.14492 0
M  V30 1322 H 132.059 -2.43912 3.9953 0
M  V30 1323 H 132.232 -3.15831 5.65822 0
M  V30 1324 N 125.638 -1.25649 -0.95132 0
M  V30 1325 C 126.915 -1.01361 -1.67288 0
M  V30 1326 C 127.295 0.459135 -2.06046 0
M  V30 1327 O 126.643 1.43723 -1.7764 0
M  V30 1328 C 126.853 -1.95256 -2.89268 0
M  V30 1329 C 128.201 -2.23289 -3.61147 0
M  V30 1330 O 129.225 -1.93041 -2.99355 0
M  V30 1331 O 128.084 -2.74741 -4.72419 0
M  V30 1332 H 125.178 -0.38464 -0.732107 0
M  V30 1333 H 127.724 -1.36817 -1.00395 0
M  V30 1334 H 126.496 -2.94685 -2.57442 0
M  V30 1335 H 126.119 -1.60218 -3.6389 0
M  V30 1336 N 127.117 1.15442 -1.07289 0
M  V30 1337 C 128.047 2.22312 -0.714107 0
M  V30 1338 C 129.028 1.67467 0.298155 0
M  V30 1339 O 130.213 1.93445 0.171048 0
M  V30 1340 C 127.343 3.47124 -0.110448 0
M  V30 1341 C 126.297 4.14926 -1.04979 0
M  V30 1342 C 125.623 5.33807 -0.308924 0
M  V30 1343 C 126.923 4.64762 -2.38314 0
M  V30 1344 H 128.617 2.5258 -1.6076 0
M  V30 1345 H 126.163 1.21404 -0.77441 0
M  V30 1346 H 128.116 4.21124 0.152482 0
M  V30 1347 H 126.84 3.16187 0.81812 0
M  V30 1348 H 125.499 3.42866 -1.29764 0
M  V30 1349 H 125.147 4.99126 0.623084 0
M  V30 1350 H 124.847 5.80113 -0.935036 0
M  V30 1351 H 126.371 6.10576 -0.0537771 0
M  V30 1352 H 127.785 5.30292 -2.1786 0
M  V30 1353 H 126.182 5.21728 -2.96514 0
M  V30 1354 H 127.252 3.80434 -3.00663 0
M  V30 1355 N 128.595 0.856903 1.32268 0
M  V30 1356 C 129.525 0.31858 2.31316 0
M  V30 1357 C 130.506 -0.583487 1.59779 0
M  V30 1358 O 131.691 -0.503259 1.87566 0
M  V30 1359 C 128.821 -0.491979 3.43798 0
M  V30 1360 C 127.775 0.315849 4.26833 0
M  V30 1361 C 127.101 -0.619586 5.31098 0
M  V30 1362 C 128.401 1.54282 4.98993 0
M  V30 1363 H 130.095 1.14621 2.76591 0
M  V30 1364 H 127.641 0.552613 1.32974 0
M  V30 1365 H 129.594 -0.879012 4.1213 0
M  V30 1366 H 128.318 -1.35299 2.97257 0
M  V30 1367 H 126.977 0.684664 3.6015 0
M  V30 1368 H 126.625 -1.47751 4.8081 0
M  V30 1369 H 126.325 -0.0830621 5.87541 0
M  V30 1370 H 127.849 -1.00375 6.02293 0
M  V30 1371 H 129.263 1.22796 5.59995 0
M  V30 1372 H 127.66 2.01745 5.65172 0
M  V30 1373 H 128.73 2.30285 4.26728 0
M  V30 1374 N 130.073 -1.45103 0.615059 0
M  V30 1375 C 131.02 -2.30586 -0.0993978 0
M  V30 1376 C 131.99 -1.42544 -0.852669 0
M  V30 1377 O 133.175 -1.71465 -0.836917 0
M  V30 1378 C 130.315 -3.27572 -1.08583 0
M  V30 1379 C 129.428 -4.30717 -0.332656 0
M  V30 1380 C 128.563 -5.14807 -1.30947 0
M  V30 1381 C 127.602 -6.09673 -0.544538 0
M  V30 1382 N 126.739 -6.86517 -1.47101 0
M  V30 1383 H 131.579 -2.91144 0.635542 0
M  V30 1384 H 129.116 -1.4346 0.325206 0
M  V30 1385 H 131.074 -3.82276 -1.67095 0
M  V30 1386 H 129.704 -2.68751 -1.78809 0
M  V30 1387 H 128.756 -3.78615 0.368107 0
M  V30 1388 H 130.068 -4.98102 0.263842 0
M  V30 1389 H 129.222 -5.73948 -1.96643 0
M  V30 1390 H 127.961 -4.47458 -1.9399 0
M  V30 1391 H 126.966 -5.49656 0.126003 0
M  V30 1392 H 128.191 -6.79052 0.080947 0
M  V30 1393 H 126.137 -6.21851 -2.08895 0
M  V30 1394 H 126.054 -7.50281 -0.928137 0
M  V30 1395 H 127.322 -7.50194 -2.11731 0
M  V30 1396 N 131.551 -0.354651 -1.53558 0
M  V30 1397 C 132.461 0.50515 -2.29097 0
M  V30 1398 C 133.477 1.10223 -1.34636 0
M  V30 1399 O 134.653 1.11553 -1.67684 0
M  V30 1400 C 131.718 1.63479 -3.05738 0
M  V30 1401 C 130.779 1.06636 -4.15845 0
M  V30 1402 C 130.012 2.14217 -4.88822 0
M  V30 1403 O 130.235 3.35137 -4.61562 0
M  V30 1404 O 129.169 1.77887 -5.75013 0
M  V30 1405 H 132.995 -0.109237 -3.03503 0
M  V30 1406 H 130.58 -0.119357 -1.48922 0
M  V30 1407 H 132.462 2.2918 -3.5363 0
M  V30 1408 H 131.137 2.23478 -2.34178 0
M  V30 1409 H 130.044 0.373565 -3.7223 0
M  V30 1410 H 131.377 0.511081 -4.89539 0
M  V30 1411 N 133.029 1.57378 -0.0835403 0
M  V30 1412 C 134.44 1.81261 0.447358 0
M  V30 1413 C 134.791 0.998331 1.68902 0
M  V30 1414 O 133.916 0.224282 2.15235 0
M  V30 1415 C 134.511 3.28767 0.818386 0
M  V30 1416 C 133.07 3.53455 1.29409 0
M  V30 1417 C 132.217 2.75831 0.285024 0
M  V30 1418 H 135.168 1.5566 -0.309115 0
M  V30 1419 H 135.189 3.41459 1.67887 0
M  V30 1420 H 134.701 3.88006 -0.0855019 0
M  V30 1421 H 132.802 2.99534 2.21608 0
M  V30 1422 H 132.915 4.62128 1.2639 0
M  V30 1423 H 131.279 2.42947 0.764767 0
M  V30 1424 H 132.062 3.37813 -0.611341 0
M  V30 1425 N 134.507 -0.190092 1.56449 0
M  V30 1426 C 135.732 -0.929864 1.85387 0
M  V30 1427 C 136.157 -1.7585 0.667704 0
M  V30 1428 O 135.515 -1.77198 -0.383459 0
M  V30 1429 C 135.563 -1.79773 3.12593 0
M  V30 1430 O 134.667 -2.89713 2.93496 0
M  V30 1431 H 134.008 -0.261574 0.610307 0
M  V30 1432 H 136.538 -0.193896 2.03679 0
M  V30 1433 H 136.548 -2.20139 3.43515 0
M  V30 1434 H 135.223 -1.18892 3.98544 0
M  V30 1435 H 133.8 -2.53065 2.73884 0
M  V30 1436 N 135.985 -1.50799 -0.457987 0
M  V30 1437 C 137.233 -1.62121 -1.2067 0
M  V30 1438 C 137.554 -0.329793 -1.92191 0
M  V30 1439 O 136.824 0.653409 -1.84682 0
M  V30 1440 H 135.404 -0.597441 -0.448411 0
M  V30 1441 H 138.066 -1.87637 -0.527096 0
M  V30 1442 H 137.162 -2.43882 -1.94751 0
M  V30 1443 N 137.463 0.71206 -1.40597 0
M  V30 1444 C 138.712 1.46754 -1.38369 0
M  V30 1445 C 139.025 1.95598 0.0097839 0
M  V30 1446 O 140.231 2.71059 0.154677 0
M  V30 1447 C 138.687 2.65289 -2.43207 0
M  V30 1448 C 138.295 2.23301 -3.88382 0
M  V30 1449 C 140.039 3.43008 -2.50091 0
M  V30 1450 C 137.946 3.38696 -4.84808 0
M  V30 1451 H 136.876 0.55118 -0.514506 0
M  V30 1452 H 139.527 0.774616 -1.66349 0
M  V30 1453 H 137.909 3.36769 -2.08332 0
M  V30 1454 H 139.083 1.59218 -4.32419 0
M  V30 1455 H 137.398 1.58618 -3.85006 0
M  V30 1456 H 139.995 4.28881 -3.1932 0
M  V30 1457 H 140.338 3.87065 -1.53253 0
M  V30 1458 H 140.871 2.78574 -2.83974 0
M  V30 1459 H 137.61 2.99668 -5.82992 0
M  V30 1460 H 137.13 4.01683 -4.45433 0
M  V30 1461 H 138.809 4.04712 -5.04794 0
M  V30 1462 N 138.941 1.26152 0.944643 0
M  V30 1463 C 140.188 1.11492 1.69044 0
M  V30 1464 C 140.516 -0.342366 1.91463 0
M  V30 1465 O 139.771 -1.26812 1.49054 0
M  V30 1466 C 140.07 1.82541 3.07268 0
M  V30 1467 C 139.736 3.32445 3.04616 0
M  V30 1468 C 138.398 3.73337 3.036 0
M  V30 1469 C 140.75 4.28171 2.97185 0
M  V30 1470 C 138.078 5.08348 2.92915 0
M  V30 1471 C 140.43 5.63218 2.88041 0
M  V30 1472 C 139.094 6.03426 2.85366 0
M  V30 1473 H 138.364 0.407977 0.618576 0
M  V30 1474 H 141.011 1.56551 1.10291 0
M  V30 1475 H 139.316 1.29941 3.69625 0
M  V30 1476 H 141.013 1.68642 3.63815 0
M  V30 1477 H 137.603 2.99915 3.06185 0
M  V30 1478 H 141.787 3.97563 2.97081 0
M  V30 1479 H 137.043 5.38667 2.89219 0
M  V30 1480 H 141.217 6.37078 2.81254 0
M  V30 1481 H 138.844 7.07999 2.76842 0
M  V30 1482 N 140.419 -1.14872 1.07899 0
M  V30 1483 C 141.659 -1.8745 0.814965 0
M  V30 1484 C 142.023 -1.80758 -0.64733 0
M  V30 1485 O 143.224 -2.48422 -1.02664 0
M  V30 1486 C 141.495 -3.32286 1.31607 0
M  V30 1487 S 143.054 -4.22537 1.18357 0
M  V30 1488 H 139.872 -0.646833 0.295174 0
M  V30 1489 H 142.474 -1.38555 1.37923 0
M  V30 1490 H 141.178 -3.34703 2.37491 0
M  V30 1491 H 140.709 -3.86238 0.747261 0
M  V30 1492 H 142.724 -4.96044 0.124586 0
M  V30 1493 N 141.898 -0.863906 -1.31812 0
M  V30 1494 C 142.846 -0.30422 -2.30602 0
M  V30 1495 C 143.84 0.577419 -1.59255 0
M  V30 1496 O 145.046 0.464194 -1.73912 0
M  V30 1497 H 141.421 -0.0796877 -0.747766 0
M  V30 1498 H 143.392 -1.15148 -2.75288 0
M  V30 1499 C 142.141 0.484617 -3.44306 0
M  V30 1500 H 141.464 -0.18451 -3.99374 0
M  V30 1501 H 142.904 0.841664 -4.15562 0
M  V30 1502 C 141.363 1.6735 -2.92396 0
M  V30 1503 O 141.893 2.77273 -2.90659 0
M  V30 1504 N 140.099 1.50362 -2.48676 0
M  V30 1505 H 139.646 0.609402 -2.50288 0
M  V30 1506 H 139.604 2.30051 -2.14299 0
M  V30 1507 N 143.376 1.44774 -0.622745 0
M  V30 1508 C 144.624 2.01721 -0.123655 0
M  V30 1509 C 144.945 1.49172 1.25589 0
M  V30 1510 O 144.215 0.691974 1.83272 0
M  V30 1511 H 142.795 0.745777 -0.0427225 0
M  V30 1512 H 145.457 1.77382 -0.807559 0
M  V30 1513 H 144.553 3.11984 -0.0849534 0
M  V30 1514 N 144.854 0.36279 1.53368 0
M  V30 1515 C 146.082 -0.228613 2.05633 0
M  V30 1516 C 146.497 -1.42676 1.23649 0
M  V30 1517 O 145.854 -1.80394 0.27647 0
M  V30 1518 C 145.905 -0.624845 3.56059 0
M  V30 1519 O 145.626 0.525675 4.34935 0
M  V30 1520 C 147.127 -1.27493 4.24571 0
M  V30 1521 H 144.347 -0.0407183 0.669763 0
M  V30 1522 H 146.891 0.520352 1.97769 0
M  V30 1523 H 145.046 -1.32373 3.64083 0
M  V30 1524 H 145.46 0.205969 5.24095 0
M  V30 1525 H 146.934 -1.50277 5.31151 0
M  V30 1526 H 147.411 -2.23439 3.78116 0
M  V30 1527 H 148.017 -0.617558 4.20792 0
M  V30 1528 N 146.332 -1.57332 0.0918853 0
M  V30 1529 C 147.579 -1.94236 -0.572577 0
M  V30 1530 C 147.907 -0.973398 -1.6839 0
M  V30 1531 O 147.162 0.00756912 -1.95699 0
M  V30 1532 C 147.461 -3.37689 -1.17051 0
M  V30 1533 C 147.127 -4.50527 -0.183304 0
M  V30 1534 C 145.789 -4.81119 0.0882276 0
M  V30 1535 C 148.141 -5.18883 0.49095 0
M  V30 1536 C 145.469 -5.77395 1.04076 0
M  V30 1537 C 147.821 -6.1618 1.43193 0
M  V30 1538 C 146.485 -6.45179 1.71173 0
M  V30 1539 H 145.755 -0.710762 -0.209521 0
M  V30 1540 H 148.402 -1.9077 0.167036 0
M  V30 1541 H 146.707 -3.37718 -1.9863 0
M  V30 1542 H 148.404 -3.63543 -1.69227 0
M  V30 1543 H 144.994 -4.26681 -0.405124 0
M  V30 1544 H 149.178 -4.95427 0.294312 0
M  V30 1545 H 144.434 -5.98179 1.26457 0
M  V30 1546 H 148.608 -6.68243 1.96023 0
M  V30 1547 H 146.235 -7.1959 2.4514 0
M  V30 1548 N 147.81 0.181792 -1.56548 0
M  V30 1549 C 149.087 0.926765 -1.72251 0
M  V30 1550 C 149.467 2.00831 -0.650386 0
M  V30 1551 O 148.815 2.26008 0.336521 0
M  V30 1552 C 149.025 1.50106 -3.1507 0
M  V30 1553 C 150.373 1.97805 -3.75711 0
M  V30 1554 O 151.397 1.59922 -3.18282 0
M  V30 1555 O 150.256 2.67555 -4.76525 0
M  V30 1556 H 147.35 0.435506 -0.703039 0
M  V30 1557 H 149.896 0.170443 -1.68842 0
M  V30 1558 H 148.668 0.72212 -3.84579 0
M  V30 1559 H 148.291 2.32186 -3.22763 0
M  V30 1560 N 149.288 1.51039 0.449983 0
M  V30 1561 C 150.22 1.67617 1.56324 0
M  V30 1562 C 151.233 0.557083 1.52972 0
M  V30 1563 O 152.422 0.830989 1.57977 0
M  V30 1564 C 149.522 1.66402 2.95235 0
M  V30 1565 C 148.695 2.9469 3.23229 0
M  V30 1566 C 147.754 2.85832 4.41799 0
M  V30 1567 O 146.78 3.59785 4.41071 0
M  V30 1568 N 147.982 2.00821 5.44657 0
M  V30 1569 H 150.747 2.63648 1.42512 0
M  V30 1570 H 148.308 1.48767 0.638737 0
M  V30 1571 H 150.3 1.58062 3.72557 0
M  V30 1572 H 148.87 0.780182 3.02708 0
M  V30 1573 H 148.09 3.16996 2.34323 0
M  V30 1574 H 149.378 3.79636 3.38754 0
M  V30 1575 H 148.776 1.40091 5.48079 0
M  V30 1576 H 147.333 1.98368 6.20881 0
M  V30 1577 N 150.766 -0.704594 1.40972 0
M  V30 1578 C 151.996 -1.49138 1.42974 0
M  V30 1579 C 152.404 -1.89175 0.0308406 0
M  V30 1580 O 151.747 -1.56734 -0.958138 0
M  V30 1581 C 151.809 -2.79016 2.26694 0
M  V30 1582 C 151.473 -2.61236 3.74973 0
M  V30 1583 C 152.47 -2.27773 4.67349 0
M  V30 1584 C 150.155 -2.77158 4.18914 0
M  V30 1585 C 152.149 -2.10457 6.01653 0
M  V30 1586 C 149.836 -2.59459 5.53285 0
M  V30 1587 C 150.834 -2.26158 6.4447 0
M  V30 1588 O 150.522 -2.08605 7.76363 0
M  V30 1589 H 150.254 -0.466443 0.489292 0
M  V30 1590 H 152.808 -0.8758 1.85793 0
M  V30 1591 H 151.038 -3.42947 1.78673 0
M  V30 1592 H 152.727 -3.40782 2.20504 0
M  V30 1593 H 153.493 -2.15095 4.34694 0
M  V30 1594 H 149.372 -3.02064 3.48251 0
M  V30 1595 H 152.916 -1.84387 6.72791 0
M  V30 1596 H 148.813 -2.71725 5.85522 0
M  V30 1597 H 149.581 -2.23439 7.87412 0
M  V30 1598 N 152.244 -1.26651 -0.937939 0
M  V30 1599 C 153.49 -1.12553 -1.687 0
M  V30 1600 C 153.823 0.329782 -1.91379 0
M  V30 1601 O 153.098 1.24202 -1.4968 0
M  V30 1602 C 153.381 -1.89862 -3.05981 0
M  V30 1603 C 153.234 -3.43318 -2.90607 0
M  V30 1604 C 154.553 -1.69499 -4.0615 0
M  V30 1605 H 151.672 -0.410257 -0.612257 0
M  V30 1606 H 154.314 -1.55685 -1.08913 0
M  V30 1607 H 152.464 -1.53204 -3.57017 0
M  V30 1608 H 154.136 -3.89747 -2.46769 0
M  V30 1609 H 152.379 -3.70179 -2.26164 0
M  V30 1610 H 153.05 -3.92642 -3.8799 0
M  V30 1611 H 155.526 -2.01442 -3.64088 0
M  V30 1612 H 154.402 -2.26002 -5.00214 0
M  V30 1613 H 154.663 -0.640365 -4.37438 0
M  V30 1614 N 153.722 1.14298 -1.08507 0
M  V30 1615 C 154.962 1.87016 -0.824894 0
M  V30 1616 C 155.326 1.81099 0.637735 0
M  V30 1617 O 156.527 2.48963 1.01345 0
M  V30 1618 C 154.798 3.31584 -1.33368 0
M  V30 1619 S 156.357 4.21903 -1.20596 0
M  V30 1620 H 153.175 0.645259 -0.2986 0
M  V30 1621 H 155.777 1.37822 -1.38656 0
M  V30 1622 H 154.481 3.33439 -2.39262 0
M  V30 1623 H 154.012 3.85836 -0.767734 0
M  V30 1624 H 156.027 4.95971 -0.150891 0
M  V30 1625 N 155.201 0.870884 1.31352 0
M  V30 1626 C 156.447 0.492314 1.97352 0
M  V30 1627 C 156.802 -0.945174 1.67583 0
M  V30 1628 O 156.095 -1.65674 0.962423 0
M  V30 1629 C 156.289 0.687157 3.50732 0
M  V30 1630 C 156.118 2.14203 3.95407 0
M  V30 1631 C 154.888 2.78382 4.21701 0
M  V30 1632 C 157.086 3.1144 4.09279 0
M  V30 1633 N 155.068 4.14611 4.52737 0
M  V30 1634 C 156.439 4.32702 4.44037 0
M  V30 1635 C 158.494 3.07418 3.91661 0
M  V30 1636 C 157.197 5.50463 4.63015 0
M  V30 1637 C 159.223 4.24438 4.11833 0
M  V30 1638 C 158.585 5.44463 4.46923 0
M  V30 1639 H 154.684 0.229206 0.747655 0
M  V30 1640 H 157.268 1.12568 1.5886 0
M  V30 1641 H 155.439 0.083384 3.8831 0
M  V30 1642 H 157.171 0.276883 4.03752 0
M  V30 1643 H 153.926 2.29326 4.14375 0
M  V30 1644 H 154.35 4.84928 4.72413 0
M  V30 1645 H 158.992 2.15732 3.6362 0
M  V30 1646 H 156.71 6.42666 4.89904 0
M  V30 1647 H 160.296 4.2278 3.99685 0
M  V30 1648 H 159.176 6.33504 4.62214 0
M  V30 1649 N 156.679 -1.44442 0.630414 0
M  V30 1650 C 158.09 -1.85434 0.217063 0
M  V30 1651 C 158.441 -1.52748 -1.23136 0
M  V30 1652 O 157.566 -0.965205 -1.93682 0
M  V30 1653 C 158.161 -3.36581 0.387168 0
M  V30 1654 C 156.72 -3.76389 0.0283297 0
M  V30 1655 C 155.867 -2.68296 0.700889 0
M  V30 1656 H 158.818 -1.34919 0.83562 0
M  V30 1657 H 158.839 -3.78657 -0.374086 0
M  V30 1658 H 158.351 -3.60339 1.44144 0
M  V30 1659 H 156.452 -3.58246 -1.02423 0
M  V30 1660 H 156.565 -4.77095 0.437892 0
M  V30 1661 H 154.929 -2.54335 0.136267 0
M  V30 1662 H 155.712 -2.94887 1.75774 0
M  V30 1663 N 158.157 -0.370918 -1.53173 0
M  V30 1664 C 159.107 0.489588 -2.22681 0
M  V30 1665 C 160.091 1.04442 -1.22395 0
M  V30 1666 O 161.283 0.973578 -1.47819 0
M  V30 1667 C 158.412 1.626 -3.02351 0
M  V30 1668 C 157.498 1.08379 -4.10018 0
M  V30 1669 N 157.889 0.265004 -5.05105 0
M  V30 1670 C 156.187 1.35809 -4.2482 0
M  V30 1671 C 156.888 -0.0324755 -5.81691 0
M  V30 1672 N 155.864 0.566581 -5.40639 0
M  V30 1673 H 159.666 -0.142729 -2.93553 0
M  V30 1674 H 157.18 -0.179221 -1.61408 0
M  V30 1675 H 159.177 2.2547 -3.50669 0
M  V30 1676 H 157.837 2.26132 -2.33011 0
M  V30 1677 H 158.848 -0.0962352 -5.17811 0
M  V30 1678 H 155.525 1.9958 -3.66707 0
M  V30 1679 H 156.915 -0.69473 -6.68299 0
M  V30 1680 N 159.635 1.57281 -0.100228 0
M  V30 1681 C 160.86 1.99302 0.573881 0
M  V30 1682 C 161.285 0.979059 1.60611 0
M  V30 1683 O 160.643 -0.0517803 1.81226 0
M  V30 1684 C 160.691 3.40274 1.19358 0
M  V30 1685 O 159.795 3.41676 2.30935 0
M  V30 1686 H 159.136 0.647944 0.145138 0
M  V30 1687 H 161.666 2.03779 -0.183156 0
M  V30 1688 H 161.676 3.78078 1.53365 0
M  V30 1689 H 160.351 4.13594 0.437385 0
M  V30 1690 H 158.928 3.15672 1.98509 0
M  V30 1691 N 161.113 -0.173488 1.56642 0
M  V30 1692 C 162.338 -0.910149 1.86363 0
M  V30 1693 C 162.763 -1.75132 0.686318 0
M  V30 1694 O 162.121 -1.77595 -0.364643 0
M  V30 1695 C 162.169 -1.76447 3.14482 0
M  V30 1696 O 161.273 -2.86584 2.96553 0
M  V30 1697 H 160.614 -0.255086 0.613047 0
M  V30 1698 H 163.144 -0.172283 2.03873 0
M  V30 1699 H 163.154 -2.16483 3.45831 0
M  V30 1700 H 161.829 -1.14658 3.99783 0
M  V30 1701 H 160.406 -2.50146 2.76553 0
M  V30 1702 N 162.591 -1.51276 -0.441967 0
M  V30 1703 C 164.002 -1.56244 -1.02199 0
M  V30 1704 C 164.353 -0.383149 -1.92422 0
M  V30 1705 O 163.478 0.500613 -2.1053 0
M  V30 1706 C 164.073 -2.83162 -1.86024 0
M  V30 1707 C 162.632 -2.90716 -2.39084 0
M  V30 1708 C 161.779 -2.50858 -1.18175 0
M  V30 1709 H 164.73 -1.5712 -0.223416 0
M  V30 1710 H 164.751 -2.66663 -2.71425 0
M  V30 1711 H 164.263 -3.68974 -1.20331 0
M  V30 1712 H 162.364 -2.09323 -3.08244 0
M  V30 1713 H 162.477 -3.94266 -2.72198 0
M  V30 1714 H 160.841 -2.03951 -1.52565 0
M  V30 1715 H 161.624 -3.3901 -0.541001 0
M  V30 1716 N 164.069 0.697108 -1.41344 0
M  V30 1717 C 165.317 1.45426 -1.40341 0
M  V30 1718 C 165.638 1.94996 -0.0128787 0
M  V30 1719 O 164.908 1.71599 0.945027 0
M  V30 1720 H 163.488 0.539594 -0.516573 0
M  V30 1721 H 166.15 0.825201 -1.76569 0
M  V30 1722 H 165.246 2.31817 -2.08967 0
M  V30 1723 N 165.547 1.27147 0.931209 0
M  V30 1724 C 166.495 1.09398 2.05268 0
M  V30 1725 C 167.489 0.0180591 1.6939 0
M  V30 1726 O 168.695 0.17551 1.79142 0
M  V30 1727 H 165.07 0.336986 0.672268 0
M  V30 1728 H 167.041 2.04416 2.17386 0
M  V30 1729 C 165.79 0.75424 3.39421 0
M  V30 1730 H 165.113 1.57404 3.67511 0
M  V30 1731 H 166.553 0.669903 4.18674 0
M  V30 1732 C 165.012 -0.541197 3.32525 0
M  V30 1733 O 165.542 -1.57664 3.69466 0
M  V30 1734 N 163.748 -0.535517 2.85623 0
M  V30 1735 H 163.295 0.307511 2.55758 0
M  V30 1736 H 163.253 -1.40236 2.81392 0
M  V30 1737 N 167.025 -1.13721 1.09112 0
M  V30 1738 C 168.271 -1.85198 0.826414 0
M  V30 1739 C 168.604 -1.83129 -0.646319 0
M  V30 1740 O 167.879 -1.2671 -1.47563 0
M  V30 1741 C 168.162 -3.33507 1.35812 0
M  V30 1742 C 168.015 -3.44108 2.89672 0
M  V30 1743 C 169.334 -4.28838 0.989256 0
M  V30 1744 H 166.453 -0.67243 0.301675 0
M  V30 1745 H 169.095 -1.33499 1.35197 0
M  V30 1746 H 167.245 -3.77666 0.911082 0
M  V30 1747 H 168.917 -3.08684 3.428 0
M  V30 1748 H 167.16 -2.85087 3.26967 0
M  V30 1749 H 167.831 -4.48388 3.21951 0
M  V30 1750 H 170.307 -3.92734 1.37475 0
M  V30 1751 H 169.183 -5.31051 1.38838 0
M  V30 1752 H 169.444 -4.4198 -0.102924 0
M  V30 1753 N 168.503 -0.877838 -1.30888 0
M  V30 1754 C 169.728 -0.506629 -2.01117 0
M  V30 1755 C 170.153 0.895564 -1.65412 0
M  V30 1756 O 169.511 1.5923 -0.866922 0
M  V30 1757 C 169.559 -0.680223 -3.54126 0
M  V30 1758 O 168.663 0.277033 -4.11468 0
M  V30 1759 H 168.004 -0.200518 -0.633 0
M  V30 1760 H 170.534 -1.18342 -1.66902 0
M  V30 1761 H 170.544 -0.5765 -4.03907 0
M  V30 1762 H 169.219 -1.70261 -3.79452 0
M  V30 1763 H 167.796 0.127606 -3.72682 0
M  V30 1764 N 169.982 1.44106 -0.638065 0
M  V30 1765 C 171.228 2.02277 -0.145546 0
M  V30 1766 C 171.561 1.50125 1.23191 0
M  V30 1767 O 170.836 0.688133 1.8192 0
M  V30 1768 C 171.119 3.59829 -0.139791 0
M  V30 1769 C 170.972 4.22247 -1.55008 0
M  V30 1770 C 172.291 4.36873 0.531966 0
M  V30 1771 H 169.41 0.734992 -0.0543632 0
M  V30 1772 H 172.052 1.71592 -0.815863 0
M  V30 1773 H 170.202 3.86102 0.431007 0
M  V30 1774 H 171.874 4.07057 -2.1703 0
M  V30 1775 H 170.117 3.79476 -2.10191 0
M  V30 1776 H 170.788 5.31284 -1.49804 0
M  V30 1777 H 173.264 4.16074 0.0464781 0
M  V30 1778 H 172.14 5.4657 0.505206 0
M  V30 1779 H 172.401 4.11995 1.60352 0
M  V30 1780 N 171.46 0.379036 1.52974 0
M  V30 1781 C 172.871 -0.0972525 1.86447 0
M  V30 1782 C 173.222 -1.47027 1.29914 0
M  V30 1783 O 172.347 -2.07135 0.626433 0
M  V30 1784 C 172.942 -0.183248 3.38304 0
M  V30 1785 C 171.501 -0.603812 3.71525 0
M  V30 1786 C 170.648 0.240632 2.76254 0
M  V30 1787 H 173.599 0.597316 1.4703 0
M  V30 1788 H 173.62 -1.00432 3.67006 0
M  V30 1789 H 173.132 0.816191 3.79421 0
M  V30 1790 H 171.233 -1.61099 3.35973 0
M  V30 1791 H 171.346 -0.369086 4.77676 0
M  V30 1792 H 169.71 -0.292548 2.53014 0
M  V30 1793 H 170.493 1.23786 3.20206 0
M  V30 1794 N 172.938 -1.57226 0.108567 0
M  V30 1795 C 174.178 -1.96717 -0.555155 0
M  V30 1796 C 174.542 -0.990003 -1.64508 0
M  V30 1797 O 175.743 -1.2739 -2.36696 0
M  V30 1798 C 174.014 -3.40575 -1.08367 0
M  V30 1799 S 175.573 -4.02072 -1.75737 0
M  V30 1800 H 172.391 -0.687638 -0.180762 0
M  V30 1801 H 174.993 -1.94563 0.191172 0
M  V30 1802 H 173.697 -4.0945 -0.279092 0
M  V30 1803 H 173.228 -3.46356 -1.86551 0
M  V30 1804 H 175.243 -3.91977 -3.04251 0
M  V30 1805 N 174.416 0.165178 -1.56732 0
M  V30 1806 C 175.827 0.727046 -1.71962 0
M  V30 1807 C 176.178 1.82508 -0.720078 0
M  V30 1808 O 175.303 2.16082 0.117242 0
M  V30 1809 C 175.898 1.32559 -3.11791 0
M  V30 1810 C 174.457 1.83422 -3.28684 0
M  V30 1811 C 173.604 0.715567 -2.67908 0
M  V30 1812 H 176.555 -0.0602896 -1.58585 0
M  V30 1813 H 176.576 2.19533 -3.10782 0
M  V30 1814 H 176.088 0.526195 -3.84516 0
M  V30 1815 H 174.189 2.65986 -2.60926 0
M  V30 1816 H 174.302 1.97543 -4.36478 0
M  V30 1817 H 172.666 1.13758 -2.27884 0
M  V30 1818 H 173.449 -0.0720836 -3.43224 0
M  V30 1819 N 175.894 1.51508 0.433938 0
M  V30 1820 C 177.119 1.68443 1.21003 0
M  V30 1821 C 177.544 0.382636 1.84167 0
M  V30 1822 O 176.902 -0.65755 1.68956 0
M  V30 1823 C 176.95 2.80405 2.26727 0
M  V30 1824 O 176.054 2.44245 3.32292 0
M  V30 1825 H 175.395 0.561536 0.354363 0
M  V30 1826 H 177.925 1.9809 0.512024 0
M  V30 1827 H 177.935 3.0459 2.71457 0
M  V30 1828 H 176.61 3.74867 1.80132 0
M  V30 1829 H 175.187 2.30644 2.93015 0
M  V30 1830 N 177.372 -0.689602 1.41712 0
M  V30 1831 C 178.602 -1.47613 1.44548 0
M  V30 1832 C 179.01 -1.89132 0.0509034 0
M  V30 1833 O 178.353 -1.57741 -0.94146 0
M  V30 1834 C 178.415 -2.76596 2.2964 0
M  V30 1835 C 178.079 -2.57245 3.77722 0
M  V30 1836 C 179.076 -2.22804 4.69739 0
M  V30 1837 C 176.761 -2.727 4.2183 0
M  V30 1838 C 178.755 -2.04064 6.03851 0
M  V30 1839 C 176.442 -2.53576 5.56006 0
M  V30 1840 C 177.44 -2.1931 6.46832 0
M  V30 1841 O 177.128 -2.00359 7.78532 0
M  V30 1842 H 176.86 -0.461227 0.494212 0
M  V30 1843 H 179.414 -0.856045 1.86711 0
M  V30 1844 H 177.644 -3.41033 1.82301 0
M  V30 1845 H 179.333 -3.38424 2.24107 0
M  V30 1846 H 180.099 -2.10473 4.36951 0
M  V30 1847 H 175.978 -2.98353 3.51435 0
M  V30 1848 H 179.522 -1.77241 6.74708 0
M  V30 1849 H 175.419 -2.65499 5.88371 0
M  V30 1850 H 176.187 -2.15075 7.89737 0
M  V30 1851 N 178.85 -1.27639 -0.924453 0
M  V30 1852 C 179.78 -1.13166 -2.04244 0
M  V30 1853 C 180.761 -0.032256 -1.70069 0
M  V30 1854 O 181.946 -0.207328 -1.9309 0
M  V30 1855 C 179.076 -0.781496 -3.38393 0
M  V30 1856 C 178.03 -1.83449 -3.86692 0
M  V30 1857 C 177.356 -1.33822 -5.17683 0
M  V30 1858 C 178.656 -3.23917 -4.09726 0
M  V30 1859 H 180.35 -2.06689 -2.1661 0
M  V30 1860 H 177.896 -0.995136 -1.04082 0
M  V30 1861 H 179.849 -0.667057 -4.16087 0
M  V30 1862 H 178.573 0.189439 -3.2605 0
M  V30 1863 H 177.232 -1.93789 -3.11193 0
M  V30 1864 H 176.88 -0.35665 -5.01734 0
M  V30 1865 H 176.58 -2.04224 -5.50968 0
M  V30 1866 H 178.104 -1.23679 -5.97943 0
M  V30 1867 H 179.518 -3.16559 -4.77978 0
M  V30 1868 H 177.915 -3.92059 -4.54324 0
M  V30 1869 H 178.985 -3.68729 -3.14908 0
M  V30 1870 N 180.328 1.1314 -1.09713 0
M  V30 1871 C 181.739 1.66029 -0.853885 0
M  V30 1872 C 182.09 1.86241 0.617142 0
M  V30 1873 O 181.215 1.5834 1.47503 0
M  V30 1874 C 181.81 3.01599 -1.5435 0
M  V30 1875 C 180.369 3.51467 -1.34714 0
M  V30 1876 C 179.516 2.26648 -1.59769 0
M  V30 1877 H 182.467 0.970226 -1.25588 0
M  V30 1878 H 182.488 3.67709 -0.978267 0
M  V30 1879 H 182 2.86856 -2.6141 0
M  V30 1880 H 180.101 3.71408 -0.297838 0
M  V30 1881 H 180.214 4.314 -2.08401 0
M  V30 1882 H 178.578 2.33385 -1.01998 0
M  V30 1883 H 179.361 2.14467 -2.68065 0
M  V30 1884 N 181.806 0.884767 1.30421 0
M  V30 1885 C 183.052 0.513218 1.96819 0
M  V30 1886 C 183.407 -0.927347 1.68577 0
M  V30 1887 O 182.7 -1.64644 0.979941 0
M  V30 1888 C 182.894 0.724318 3.49983 0
M  V30 1889 C 182.723 2.18385 3.93113 0
M  V30 1890 C 181.493 2.82839 4.18725 0
M  V30 1891 C 183.691 3.15763 4.05953 0
M  V30 1892 N 181.673 4.1939 4.48314 0
M  V30 1893 C 183.044 4.37387 4.39423 0
M  V30 1894 C 185.099 3.11555 3.88379 0
M  V30 1895 C 183.802 5.55343 4.5715 0
M  V30 1896 C 185.828 4.28782 4.07308 0
M  V30 1897 C 185.19 5.49172 4.41123 0
M  V30 1898 H 181.289 0.237123 0.745182 0
M  V30 1899 H 183.873 1.14246 1.57658 0
M  V30 1900 H 182.044 0.124565 3.882 0
M  V30 1901 H 183.776 0.31969 4.03435 0
M  V30 1902 H 180.531 2.33708 4.11919 0
M  V30 1903 H 180.955 4.89911 4.67243 0
M  V30 1904 H 185.597 2.19576 3.61312 0
M  V30 1905 H 183.315 6.47826 4.8306 0
M  V30 1906 H 186.901 4.26995 3.95179 0
M  V30 1907 H 185.781 6.38371 4.55469 0
M  V30 1908 N 183.284 -1.43765 0.645699 0
M  V30 1909 C 184.53 -2.02731 0.164844 0
M  V30 1910 C 184.885 -1.49983 -1.2051 0
M  V30 1911 O 184.178 -0.680208 -1.79119 0
M  V30 1912 C 184.372 -3.57238 0.107679 0
M  V30 1913 C 184.201 -4.24977 1.47054 0
M  V30 1914 C 182.971 -4.61356 2.06103 0
M  V30 1915 C 185.169 -4.54476 2.40741 0
M  V30 1916 N 183.151 -5.14132 3.35473 0
M  V30 1917 C 184.522 -5.08489 3.54737 0
M  V30 1918 C 186.577 -4.36438 2.39637 0
M  V30 1919 C 185.28 -5.46364 4.67845 0
M  V30 1920 C 187.306 -4.7537 3.5182 0
M  V30 1921 C 186.668 -5.2951 4.64541 0
M  V30 1922 H 182.767 -0.774976 0.104578 0
M  V30 1923 H 185.351 -1.75051 0.852367 0
M  V30 1924 H 183.522 -3.84498 -0.549165 0
M  V30 1925 H 185.254 -4.0288 -0.383351 0
M  V30 1926 H 182.009 -4.46151 1.58892 0
M  V30 1927 H 182.433 -5.4498 4.01654 0
M  V30 1928 H 187.075 -3.93861 1.53731 0
M  V30 1929 H 184.793 -5.87888 5.54448 0
M  V30 1930 H 188.379 -4.63115 3.52159 0
M  V30 1931 H 187.259 -5.59077 5.49911 0
M  V30 1932 N 184.763 -0.387143 -1.52771 0
M  V30 1933 C 185.988 0.198407 -2.06449 0
M  V30 1934 C 186.413 1.39918 -1.25716 0
M  V30 1935 O 185.771 1.79099 -0.281657 0
M  V30 1936 C 185.819 0.548893 -3.56398 0
M  V30 1937 O 184.923 1.64315 -3.78252 0
M  V30 1938 H 184.264 0.0237731 -0.663574 0
M  V30 1939 H 186.794 -0.553989 -1.96957 0
M  V30 1940 H 186.804 0.813812 -3.99801 0
M  V30 1941 H 185.479 -0.329005 -4.14597 0
M  V30 1942 H 184.056 1.37211 -3.46738 0
M  V30 1943 N 186.241 1.57166 -0.116904 0
M  V30 1944 C 187.151 2.18745 0.847812 0
M  V30 1945 C 188.167 1.163 1.29423 0
M  V30 1946 O 189.343 1.48761 1.35765 0
M  V30 1947 C 186.408 2.77307 2.0809 0
M  V30 1948 C 185.469 3.94781 1.68661 0
M  V30 1949 C 184.702 4.50541 2.86091 0
M  V30 1950 O 184.925 4.05202 4.01456 0
M  V30 1951 O 183.859 5.41256 2.63298 0
M  V30 1952 H 187.685 3.01632 0.353778 0
M  V30 1953 H 185.27 1.49005 0.108599 0
M  V30 1954 H 187.152 3.14647 2.80313 0
M  V30 1955 H 185.827 1.97452 2.56504 0
M  V30 1956 H 184.734 3.62214 0.935518 0
M  V30 1957 H 186.067 4.76065 1.24991 0
M  V30 1958 N 187.719 -0.156864 1.56817 0
M  V30 1959 C 188.629 -1.2136 2.00771 0
M  V30 1960 C 189.645 -1.47598 0.921459 0
M  V30 1961 O 190.821 -1.59462 1.2302 0
M  V30 1962 C 187.886 -2.52943 2.37109 0
M  V30 1963 C 186.947 -2.34439 3.59634 0
M  V30 1964 C 186.18 -3.59748 3.94229 0
M  V30 1965 O 186.403 -4.65526 3.29609 0
M  V30 1966 O 185.337 -3.52998 4.8752 0
M  V30 1967 H 189.163 -0.870468 2.90958 0
M  V30 1968 H 186.748 -0.36484 1.44877 0
M  V30 1969 H 188.63 -3.30538 2.61386 0
M  V30 1970 H 187.305 -2.86806 1.5008 0
M  V30 1971 H 186.212 -1.54828 3.40557 0
M  V30 1972 H 187.545 -2.05496 4.4725 0
M  V30 1973 N 189.197 -1.51736 -0.425897 0
M  V30 1974 C 190.422 -1.69082 -1.20108 0
M  V30 1975 C 190.847 -0.392398 -1.83962 0
M  V30 1976 O 190.205 0.64858 -1.69302 0
M  V30 1977 C 190.253 -2.81604 -2.25237 0
M  V30 1978 O 189.357 -2.46004 -3.30992 0
M  V30 1979 H 188.698 -0.563408 -0.35138 0
M  V30 1980 H 191.228 -1.98358 -0.501512 0
M  V30 1981 H 191.238 -3.06025 -2.69838 0
M  V30 1982 H 189.913 -3.75817 -1.78142 0
M  V30 1983 H 188.49 -2.32195 -2.91787 0
M  V30 1984 N 190.675 0.682077 -1.42076 0
M  V30 1985 C 191.9 1.47558 -1.45744 0
M  V30 1986 C 192.325 1.87977 -0.0680981 0
M  V30 1987 O 191.683 1.55522 0.9318 0
M  V30 1988 C 191.731 2.70575 -2.38373 0
M  V30 1989 O 190.835 3.68573 -1.85007 0
M  V30 1990 H 190.176 0.443585 -0.494093 0
M  V30 1991 H 192.706 0.837238 -1.86686 0
M  V30 1992 H 192.716 3.18729 -2.54707 0
M  V30 1993 H 191.391 2.40495 -3.39315 0
M  V30 1994 H 189.968 3.2757 -1.78192 0
M  V30 1995 N 192.153 1.28127 0.917671 0
M  V30 1996 C 193.401 1.14825 1.66312 0
M  V30 1997 C 193.722 -0.304379 1.9261 0
M  V30 1998 O 192.992 -1.21149 1.53947 0
M  V30 1999 H 191.572 0.421953 0.616413 0
M  V30 2000 H 194.234 1.608 1.10134 0
M  V30 2001 H 193.33 1.68489 2.62712 0
M  V30 2002 N 193.631 -1.12557 1.10312 0
M  V30 2003 C 195.047 -1.36036 0.834649 0
M  V30 2004 C 195.247 -1.93946 -0.546539 0
M  V30 2005 O 194.303 -2.16484 -1.29966 0
M  V30 2006 C 195.616 -2.30312 1.9333 0
M  V30 2007 C 197.164 -2.43906 1.9616 0
M  V30 2008 C 197.639 -3.41496 3.05195 0
M  V30 2009 N 199.13 -3.49053 3.04494 0
M  V30 2010 C 199.865 -4.24471 3.85502 0
M  V30 2011 N 199.361 -5.02966 4.76442 0
M  V30 2012 N 201.154 -4.19864 3.73725 0
M  V30 2013 H 193.305 -0.733246 1.99342 0
M  V30 2014 H 195.568 -0.385234 0.866198 0
M  V30 2015 H 195.274 -1.94933 2.92735 0
M  V30 2016 H 195.148 -3.30421 1.81939 0
M  V30 2017 H 197.535 -2.78567 0.973886 0
M  V30 2018 H 197.616 -1.4369 2.11629 0
M  V30 2019 H 197.26 -3.07565 4.04186 0
M  V30 2020 H 197.19 -4.41539 2.86968 0
M  V30 2021 H 199.681 -2.93053 2.38596 0
M  V30 2022 H 199.994 -5.57846 5.34815 0
M  V30 2023 H 198.339 -5.02167 4.80472 0
M  V30 2024 H 201.53 -3.57623 3.02032 0
M  V30 2025 H 201.703 -4.78386 4.37093 0
M  V30 2026 N 195.109 -0.891671 -1.2995 0
M  V30 2027 C 196.072 -0.36828 -2.26222 0
M  V30 2028 C 197.072 0.493014 -1.53056 0
M  V30 2029 O 198.262 0.299213 -1.71611 0
M  V30 2030 C 195.394 0.47442 -3.37583 0
M  V30 2031 H 196.587 -1.21844 -2.74033 0
M  V30 2032 H 194.14 -0.669107 -1.41254 0
M  V30 2033 H 194.875 1.34489 -2.95099 0
M  V30 2034 H 194.66 -0.142615 -3.91841 0
M  V30 2035 H 196.15 0.83218 -4.09224 0
M  V30 2036 N 196.587 1.43421 -0.653314 0
M  V30 2037 C 197.817 2.05864 -0.174238 0
M  V30 2038 C 198.225 1.49052 1.16534 0
M  V30 2039 O 197.568 0.616481 1.73047 0
M  V30 2040 C 197.63 3.59499 -0.00875873 0
M  V30 2041 C 197.294 4.38893 -1.27364 0
M  V30 2042 C 198.291 4.70947 -2.20239 0
M  V30 2043 C 195.976 4.789 -1.51525 0
M  V30 2044 C 197.97 5.41916 -3.35568 0
M  V30 2045 C 195.657 5.49614 -2.67147 0
M  V30 2046 C 196.655 5.81044 -3.58994 0
M  V30 2047 O 196.343 6.50313 -4.72597 0
M  V30 2048 H 196.075 0.670345 -0.0872549 0
M  V30 2049 H 198.629 1.84913 -0.894226 0
M  V30 2050 H 196.859 3.79025 0.7666 0
M  V30 2051 H 198.548 4.0364 0.427687 0
M  V30 2052 H 199.314 4.40558 -2.02815 0
M  V30 2053 H 195.193 4.53843 -0.809158 0
M  V30 2054 H 198.737 5.66365 -4.07279 0
M  V30 2055 H 194.634 5.79419 -2.84505 0
M  V30 2056 H 195.402 6.68795 -4.71864 0
M  V30 2057 N 198.065 0.39524 1.52563 0
M  V30 2058 C 199.481 0.0454682 1.59535 0
M  V30 2059 C 199.681 -1.44056 1.4089 0
M  V30 2060 O 198.737 -2.20579 1.22888 0
M  V30 2061 C 200.05 0.527963 2.96029 0
M  V30 2062 C 201.598 0.484733 3.09224 0
M  V30 2063 C 202.073 0.943512 4.48176 0
M  V30 2064 N 203.564 0.899765 4.54377 0
M  V30 2065 C 204.299 1.22609 5.60138 0
M  V30 2066 N 203.795 1.62319 6.73516 0
M  V30 2067 N 205.588 1.14696 5.50274 0
M  V30 2068 H 197.739 1.36261 1.62931 0
M  V30 2069 H 200.002 0.558887 0.765735 0
M  V30 2070 H 199.708 1.56607 3.14908 0
M  V30 2071 H 199.582 -0.0698056 3.77135 0
M  V30 2072 H 201.969 -0.544298 2.90037 0
M  V30 2073 H 202.05 1.11838 2.30056 0
M  V30 2074 H 201.694 1.9708 4.68104 0
M  V30 2075 H 201.624 0.286817 5.25818 0
M  V30 2076 H 204.115 0.607632 3.72983 0
M  V30 2077 H 204.428 1.85567 7.5019 0
M  V30 2078 H 202.773 1.66211 6.74833 0
M  V30 2079 H 205.964 0.835701 4.6058 0
M  V30 2080 H 206.137 1.40459 6.32594 0
M  V30 2081 N 199.544 -1.57102 0.125237 0
M  V30 2082 C 200.494 -2.12202 -0.833936 0
M  V30 2083 C 201.478 -1.04433 -1.22403 0
M  V30 2084 O 202.67 -1.30655 -1.19408 0
M  V30 2085 C 199.799 -2.72994 -2.08157 0
M  V30 2086 C 198.885 -3.87852 -1.71556 0
M  V30 2087 N 199.276 -4.9464 -1.05662 0
M  V30 2088 C 197.574 -3.98153 -2.00973 0
M  V30 2089 C 198.275 -5.74953 -0.883376 0
M  V30 2090 N 197.251 -5.24985 -1.41036 0
M  V30 2091 H 201.053 -2.92141 -0.321035 0
M  V30 2092 H 198.567 -1.62217 -0.0770315 0
M  V30 2093 H 200.564 -3.10816 -2.77847 0
M  V30 2094 H 199.224 -1.9452 -2.59985 0
M  V30 2095 H 200.235 -5.12872 -0.719878 0
M  V30 2096 H 196.912 -3.30728 -2.54804 0
M  V30 2097 H 198.302 -6.70904 -0.365675 0
M  V30 2098 N 201.022 0.148545 -1.56898 0
M  V30 2099 C 202.262 0.86765 -1.85071 0
M  V30 2100 C 202.626 1.78417 -0.709317 0
M  V30 2101 O 203.827 2.54261 -0.872049 0
M  V30 2102 C 202.098 1.62306 -3.1842 0
M  V30 2103 S 203.657 2.3878 -3.68143 0
M  V30 2104 H 200.475 0.290174 -0.649092 0
M  V30 2105 H 203.077 0.127755 -1.95082 0
M  V30 2106 H 201.781 0.941192 -3.99462 0
M  V30 2107 H 201.312 2.4039 -3.1141 0
M  V30 2108 H 203.327 3.63942 -3.37285 0
M  V30 2109 N 202.5 1.5196 0.417844 0
M  V30 2110 C 203.43 1.77634 1.51554 0
M  V30 2111 C 204.411 0.626918 1.58126 0
M  V30 2112 O 205.596 0.871632 1.7354 0
M  V30 2113 C 202.726 1.91911 2.8946 0
M  V30 2114 C 201.68 3.07463 2.97743 0
M  V30 2115 C 201.006 3.06951 4.37819 0
M  V30 2116 C 202.306 4.47082 2.70027 0
M  V30 2117 H 204 2.6955 1.3032 0
M  V30 2118 H 201.546 1.29706 0.625492 0
M  V30 2119 H 203.499 2.08455 3.6623 0
M  V30 2120 H 202.223 0.966598 3.11969 0
M  V30 2121 H 200.882 2.90656 2.23416 0
M  V30 2122 H 200.53 2.09438 4.57323 0
M  V30 2123 H 200.23 3.84556 4.44286 0
M  V30 2124 H 201.754 3.25613 5.16535 0
M  V30 2125 H 203.168 4.6414 3.36522 0
M  V30 2126 H 201.565 5.2654 2.87881 0
M  V30 2127 H 202.635 4.55777 1.65514 0
M  V30 2128 N 203.978 -0.674533 1.42435 0
M  V30 2129 C 204.941 -1.76986 1.45632 0
M  V30 2130 C 205.941 -1.5708 0.343871 0
M  V30 2131 O 207.131 -1.63367 0.604709 0
M  V30 2132 C 204.263 -3.15623 1.28822 0
M  V30 2133 H 205.456 -1.75539 2.43158 0
M  V30 2134 H 203.009 -0.884189 1.28887 0
M  V30 2135 H 203.744 -3.22696 0.322193 0
M  V30 2136 H 203.529 -3.31475 2.09444 0
M  V30 2137 H 205.019 -3.95537 1.33942 0
M  V30 2138 N 205.456 -1.28612 -0.910864 0
M  V30 2139 C 206.388 -1.08589 -2.01844 0
M  V30 2140 C 207.401 -0.0367419 -1.62759 0
M  V30 2141 O 208.59 -0.280101 -1.76289 0
M  V30 2142 C 205.69 -0.628626 -3.33019 0
M  V30 2143 C 204.863 -1.75382 -4.00699 0
M  V30 2144 C 203.922 -1.28945 -5.10156 0
M  V30 2145 O 202.948 -1.9922 -5.33198 0
M  V30 2146 N 204.15 -0.154224 -5.80295 0
M  V30 2147 H 206.915 -2.03973 -2.19579 0
M  V30 2148 H 204.476 -1.20403 -1.08234 0
M  V30 2149 H 206.468 -0.301508 -4.03575 0
M  V30 2150 H 205.038 0.232451 -3.11735 0
M  V30 2151 H 204.258 -2.25039 -3.23653 0
M  V30 2152 H 205.546 -2.50854 -4.42662 0
M  V30 2153 H 204.944 0.43194 -5.64049 0
M  V30 2154 H 203.501 0.113599 -6.51701 0
M  V30 2155 N 206.934 1.1197 -1.10907 0
M  V30 2156 C 208.182 1.83225 -0.852819 0
M  V30 2157 C 208.503 1.84769 0.623341 0
M  V30 2158 O 207.773 1.3143 1.45269 0
M  V30 2159 H 206.353 0.67849 -0.312507 0
M  V30 2160 H 209.015 1.3556 -1.40033 0
M  V30 2161 H 208.111 2.87265 -1.22005 0
M  V30 2162 N 208.412 0.89855 1.29475 0
M  V30 2163 C 209.64 0.539261 1.99749 0
M  V30 2164 C 210.055 -0.875716 1.67262 0
M  V30 2165 O 209.412 -1.57786 0.917049 0
M  V30 2166 C 209.463 0.72061 3.54245 0
M  V30 2167 O 209.184 2.07989 3.8558 0
M  V30 2168 C 210.685 0.366118 4.41786 0
M  V30 2169 H 207.905 0.207047 0.638258 0
M  V30 2170 H 210.449 1.20758 1.65039 0
M  V30 2171 H 208.604 0.0994862 3.87272 0
M  V30 2172 H 209.018 2.10841 4.80257 0
M  V30 2173 H 210.492 0.543848 5.49314 0
M  V30 2174 H 210.969 -0.696763 4.33638 0
M  V30 2175 H 211.575 0.964135 4.14228 0
M  V30 2176 N 209.89 -1.43072 0.660911 0
M  V30 2177 C 211.136 -2.02545 0.186337 0
M  V30 2178 C 211.491 -1.51253 -1.18913 0
M  V30 2179 O 210.784 -0.699167 -1.78388 0
M  V30 2180 C 210.978 -3.57103 0.145563 0
M  V30 2181 C 210.807 -4.23393 1.51554 0
M  V30 2182 C 209.577 -4.59144 2.10984 0
M  V30 2183 C 211.775 -4.51897 2.45548 0
M  V30 2184 N 209.757 -5.10545 3.40907 0
M  V30 2185 C 211.128 -5.04698 3.6011 0
M  V30 2186 C 213.183 -4.33872 2.44253 0
M  V30 2187 C 211.886 -5.41371 4.73613 0
M  V30 2188 C 213.912 -4.71612 3.56842 0
M  V30 2189 C 213.274 -5.24553 4.70131 0
M  V30 2190 H 209.373 -0.773823 0.112792 0
M  V30 2191 H 211.957 -1.74137 0.870885 0
M  V30 2192 H 210.128 -3.85059 -0.508353 0
M  V30 2193 H 211.86 -4.03264 -0.340598 0
M  V30 2194 H 208.615 -4.4444 1.63615 0
M  V30 2195 H 209.039 -5.40689 4.07411 0
M  V30 2196 H 213.681 -3.92208 1.579 0
M  V30 2197 H 211.399 -5.81975 5.60652 0
M  V30 2198 H 214.985 -4.59354 3.57051 0
M  V30 2199 H 213.865 -5.53213 5.5581 0
M  V30 2200 N 211.368 -0.403325 -1.52352 0
M  V30 2201 C 212.3 0.4603 -2.2453 0
M  V30 2202 C 213.313 1.01505 -1.27282 0
M  V30 2203 O 214.502 0.914982 -1.53266 0
M  V30 2204 C 211.602 1.65208 -2.95905 0
M  V30 2205 C 210.775 1.22224 -4.19976 0
M  V30 2206 C 209.834 2.28028 -4.74226 0
M  V30 2207 O 208.86 1.88857 -5.36956 0
M  V30 2208 N 210.062 3.6012 -4.55295 0
M  V30 2209 H 212.827 -0.158156 -2.99282 0
M  V30 2210 H 210.388 -0.230402 -1.60252 0
M  V30 2211 H 212.38 2.35541 -3.29093 0
M  V30 2212 H 210.95 2.17658 -2.24374 0
M  V30 2213 H 210.17 0.34725 -3.92668 0
M  V30 2214 H 211.458 0.911924 -5.00561 0
M  V30 2215 H 210.856 3.94698 -4.05253 0
M  V30 2216 H 209.413 4.26447 -4.92936 0
M  V30 2217 N 212.846 1.57033 -0.133567 0
M  V30 2218 C 214.074 2.00044 0.528195 0
M  V30 2219 C 214.489 1.01349 1.59291 0
M  V30 2220 O 213.846 0.00848369 1.82498 0
M  V30 2221 C 213.897 3.43018 1.1411 0
M  V30 2222 O 213.618 4.37939 0.11892 0
M  V30 2223 C 215.119 4.01237 1.88477 0
M  V30 2224 H 212.339 0.656517 0.138661 0
M  V30 2225 H 214.883 2.03267 -0.224196 0
M  V30 2226 H 213.038 3.40688 1.84418 0
M  V30 2227 H 213.452 5.21436 0.56613 0
M  V30 2228 H 214.926 5.03314 2.26669 0
M  V30 2229 H 215.403 3.41193 2.76558 0
M  V30 2230 H 216.009 4.07156 1.22898 0
M  V30 2231 N 214.325 -0.140222 1.56975 0
M  V30 2232 C 215.574 -0.850152 1.82908 0
M  V30 2233 C 215.887 -1.82028 0.715892 0
M  V30 2234 O 217.093 -2.57485 0.861016 0
M  V30 2235 C 215.549 -1.5625 3.24213 0
M  V30 2236 C 215.157 -0.63443 4.43485 0
M  V30 2237 C 216.901 -2.25881 3.59413 0
M  V30 2238 C 214.808 -1.34879 5.75814 0
M  V30 2239 H 213.738 -0.321221 0.682153 0
M  V30 2240 H 216.389 -0.102874 1.83211 0
M  V30 2241 H 214.771 -2.35565 3.18316 0
M  V30 2242 H 215.945 0.12398 4.60633 0
M  V30 2243 H 214.26 -0.0461836 4.16374 0
M  V30 2244 H 216.857 -2.79978 4.5554 0
M  V30 2245 H 217.2 -3.02693 2.85802 0
M  V30 2246 H 217.733 -1.53477 3.67001 0
M  V30 2247 H 214.472 -0.622385 6.52539 0
M  V30 2248 H 213.992 -2.07974 5.6259 0
M  V30 2249 H 215.671 -1.88784 6.18845 0
M  V30 2250 N 215.803 -1.52179 -0.40978 0
M  V30 2251 C 216.713 -1.78364 -1.52392 0
M  V30 2252 C 217.729 -0.669183 -1.60617 0
M  V30 2253 O 218.905 -0.954518 -1.77344 0
M  V30 2254 C 215.97 -1.92822 -2.88133 0
M  V30 2255 C 215.031 -3.16725 -2.898 0
M  V30 2256 C 214.264 -3.30483 -4.19067 0
M  V30 2257 O 214.487 -2.49522 -5.12928 0
M  V30 2258 O 213.421 -4.2363 -4.27576 0
M  V30 2259 H 217.247 -2.72931 -1.33201 0
M  V30 2260 H 214.832 -1.37016 -0.59557 0
M  V30 2261 H 216.714 -2.04157 -3.68643 0
M  V30 2262 H 215.389 -1.01444 -3.07393 0
M  V30 2263 H 214.296 -3.10848 -2.08146 0
M  V30 2264 H 215.629 -4.07881 -2.75489 0
M  V30 2265 N 217.281 0.66697 -1.42791 0
M  V30 2266 C 218.229 1.80157 -1.47127 0
M  V30 2267 C 219.223 1.65825 -0.346199 0
M  V30 2268 O 220.429 1.72338 -0.519572 0
M  V30 2269 H 216.804 0.594158 -0.460956 0
M  V30 2270 H 218.775 1.73619 -2.42692 0
M  V30 2271 C 217.524 3.18351 -1.39813 0
M  V30 2272 H 216.847 3.3001 -2.25684 0
M  V30 2273 H 218.287 3.97736 -1.46908 0
M  V30 2274 C 216.746 3.36707 -0.11391 0
M  V30 2275 O 217.276 3.93027 0.830241 0
M  V30 2276 N 215.482 2.90586 -0.0285295 0
M  V30 2277 H 215.029 2.4494 -0.79764 0
M  V30 2278 H 214.987 3.03245 0.830063 0
M  V30 2279 N 218.759 1.29093 0.90403 0
M  V30 2280 C 219.722 1.1386 1.98919 0
M  V30 2281 C 220.722 0.0753457 1.60623 0
M  V30 2282 O 221.912 0.321931 1.71199 0
M  V30 2283 C 219.044 0.740198 3.32767 0
M  V30 2284 H 220.237 2.10246 2.13861 0
M  V30 2285 H 217.79 1.12218 1.08797 0
M  V30 2286 H 218.525 -0.223997 3.23525 0
M  V30 2287 H 218.31 1.50838 3.61926 0
M  V30 2288 H 219.8 0.656546 4.12407 0
M  V30 2289 N 220.237 -1.11381 1.11499 0
M  V30 2290 C 221.465 -1.86934 0.88675 0
M  V30 2291 C 221.88 -1.80195 -0.563476 0
M  V30 2292 O 221.237 -1.18367 -1.38908 0
M  V30 2293 C 221.288 -3.35722 1.34064 0
M  V30 2294 O 221.009 -3.4232 2.73401 0
M  V30 2295 C 222.51 -4.2818 1.14791 0
M  V30 2296 H 219.73 -0.591117 0.317523 0
M  V30 2297 H 222.274 -1.40865 1.48248 0
M  V30 2298 H 220.429 -3.79294 0.788355 0
M  V30 2299 H 220.843 -4.34971 2.93087 0
M  V30 2300 H 222.317 -5.30817 1.5145 0
M  V30 2301 H 222.794 -4.39113 0.0875279 0
M  V30 2302 H 223.4 -3.90402 1.68721 0
M  V30 2303 N 221.715 -0.905404 -1.28997 0
M  V30 2304 C 222.992 -0.453513 -1.9027 0
M  V30 2305 C 223.372 1.06721 -1.82137 0
M  V30 2306 O 222.72 1.91159 -1.25182 0
M  V30 2307 C 222.93 -0.974494 -3.35119 0
M  V30 2308 C 224.278 -1.0216 -4.12127 0
M  V30 2309 O 225.302 -0.922557 -3.44046 0
M  V30 2310 O 224.161 -1.17121 -5.33802 0
M  V30 2311 H 221.255 -0.142347 -0.814657 0
M  V30 2312 H 223.801 -0.995642 -1.37423 0
M  V30 2313 H 222.573 -2.01848 -3.35221 0
M  V30 2314 H 222.196 -0.412706 -3.95452 0
M  V30 2315 N 223.193 1.4272 -0.668489 0
M  V30 2316 C 224.442 2.00846 -0.185389 0
M  V30 2317 C 224.755 1.53442 1.21305 0
M  V30 2318 O 225.961 2.03944 1.79218 0
M  V30 2319 C 224.417 3.58805 -0.280591 0
M  V30 2320 C 224.025 4.15198 -1.68268 0
M  V30 2321 C 225.769 4.24255 0.14412 0
M  V30 2322 C 223.676 5.655 -1.73099 0
M  V30 2323 H 222.606 0.751145 -0.0655475 0
M  V30 2324 H 225.257 1.63516 -0.832752 0
M  V30 2325 H 223.639 3.93608 0.434553 0
M  V30 2326 H 224.813 3.91866 -2.42441 0
M  V30 2327 H 223.128 3.62176 -2.05469 0
M  V30 2328 H 225.725 5.34547 0.128086 0
M  V30 2329 H 226.068 3.99277 1.17827 0
M  V30 2330 H 226.601 3.94389 -0.519798 0
M  V30 2331 H 223.34 5.95268 -2.74475 0
M  V30 2332 H 222.86 5.90842 -1.03274 0
M  V30 2333 H 224.539 6.29808 -1.48158 0
M  V30 2334 N 224.671 0.411399 1.52136 0
M  V30 2335 C 225.917 -0.156262 2.02799 0
M  V30 2336 C 226.272 -1.42613 1.29149 0
M  V30 2337 O 225.565 -1.87592 0.389839 0
M  V30 2338 C 225.759 -0.455872 3.54481 0
M  V30 2339 C 225.588 0.783404 4.42824 0
M  V30 2340 C 224.358 1.30928 4.88043 0
M  V30 2341 C 226.556 1.66217 4.86699 0
M  V30 2342 N 224.538 2.5038 5.6052 0
M  V30 2343 C 225.909 2.70292 5.5798 0
M  V30 2344 C 227.964 1.67966 4.68713 0
M  V30 2345 C 226.667 3.7603 6.13184 0
M  V30 2346 C 228.693 2.72624 5.24815 0
M  V30 2347 C 228.055 3.7542 5.9602 0
M  V30 2348 H 224.154 -0.0186886 0.781777 0
M  V30 2349 H 226.738 0.566255 1.86284 0
M  V30 2350 H 224.909 -1.14743 3.71064 0
M  V30 2351 H 226.641 -1.01261 3.91827 0
M  V30 2352 H 223.396 0.866977 4.65597 0
M  V30 2353 H 223.82 3.10881 6.014 0
M  V30 2354 H 228.462 0.898312 4.13147 0
M  V30 2355 H 226.18 4.55019 6.6782 0
M  V30 2356 H 229.766 2.74887 5.12765 0
M  V30 2357 H 228.646 4.55073 6.38654 0
M  V30 2358 N 226.149 -1.5696 0.141893 0
M  V30 2359 C 227.081 -2.13619 -0.830627 0
M  V30 2360 C 228.094 -1.08439 -1.21428 0
M  V30 2361 O 229.283 -1.35734 -1.15925 0
M  V30 2362 C 226.383 -2.63978 -2.12529 0
M  V30 2363 C 225.556 -3.93504 -1.9098 0
M  V30 2364 C 224.615 -4.29225 -3.04388 0
M  V30 2365 O 223.641 -4.97641 -2.76302 0
M  V30 2366 N 224.843 -3.88393 -4.31429 0
M  V30 2367 H 227.608 -2.97691 -0.34641 0
M  V30 2368 H 225.169 -1.61846 -0.0418375 0
M  V30 2369 H 227.161 -2.84891 -2.87436 0
M  V30 2370 H 225.731 -1.84659 -2.52229 0
M  V30 2371 H 224.951 -3.81269 -1.00139 0
M  V30 2372 H 226.239 -4.78154 -1.73914 0
M  V30 2373 H 225.637 -3.33257 -4.57117 0
M  V30 2374 H 224.194 -4.14368 -5.03133 0
M  V30 2375 N 227.627 0.131896 -1.57047 0
M  V30 2376 C 228.904 0.871495 -1.75112 0
M  V30 2377 C 229.284 1.9866 -0.713949 0
M  V30 2378 O 228.632 2.26965 0.264447 0
M  V30 2379 C 228.842 1.40007 -3.19686 0
M  V30 2380 C 230.19 1.85752 -3.81813 0
M  V30 2381 O 231.214 1.49715 -3.23209 0
M  V30 2382 O 230.073 2.5226 -4.84796 0
M  V30 2383 H 227.167 0.412919 -0.716538 0
M  V30 2384 H 229.713 0.116641 -1.69299 0
M  V30 2385 H 228.485 0.599404 -3.86682 0
M  V30 2386 H 228.108 2.218 -3.29986 0
M  V30 2387 N 229.106 1.52395 0.401703 0
M  V30 2388 C 230.383 1.57387 1.16141 0
M  V30 2389 C 230.763 0.359359 2.08019 0
M  V30 2390 O 230.111 -0.65326 2.18963 0
M  V30 2391 C 230.321 2.90631 1.93221 0
M  V30 2392 C 231.669 3.43904 2.49028 0
M  V30 2393 O 232.693 2.92421 2.03393 0
M  V30 2394 O 231.552 4.33823 3.32356 0
M  V30 2395 H 228.646 0.634262 0.530698 0
M  V30 2396 H 231.192 1.64725 0.407883 0
M  V30 2397 H 229.964 3.70473 1.25958 0
M  V30 2398 H 229.587 2.8662 2.75563 0
M  V30 2399 N 230.584 -0.659388 1.43143 0
M  V30 2400 C 231.809 -1.45221 1.48073 0
M  V30 2401 C 232.234 -1.87845 0.097995 0
M  V30 2402 O 231.592 -1.56985 -0.90694 0
M  V30 2403 C 231.64 -2.66748 2.42647 0
M  V30 2404 O 230.744 -3.65583 1.90848 0
M  V30 2405 H 230.085 -0.435669 0.501088 0
M  V30 2406 H 232.615 -0.807432 1.87994 0
M  V30 2407 H 232.625 -3.14637 2.59745 0
M  V30 2408 H 231.3 -2.35067 3.43098 0
M  V30 2409 H 229.877 -3.24693 1.83381 0
M  V30 2410 N 232.062 -1.29571 -0.897171 0
M  V30 2411 C 232.972 -1.16808 -2.03453 0
M  V30 2412 C 233.988 -0.0907471 -1.73763 0
M  V30 2413 O 235.164 -0.303312 -1.99103 0
M  V30 2414 C 232.229 -0.848264 -3.36163 0
M  V30 2415 C 231.29 -2.0097 -3.79354 0
M  V30 2416 C 230.523 -1.70505 -5.05731 0
M  V30 2417 O 230.746 -0.62718 -5.66941 0
M  V30 2418 O 229.68 -2.5538 -5.45036 0
M  V30 2419 H 233.506 -2.12325 -2.17144 0
M  V30 2420 H 231.091 -1.09047 -1.02123 0
M  V30 2421 H 232.973 -0.684581 -4.15802 0
M  V30 2422 H 231.648 0.0771071 -3.23608 0
M  V30 2423 H 230.555 -2.22863 -3.00471 0
M  V30 2424 H 231.888 -2.91636 -3.96496 0
M  V30 2425 N 233.54 1.10788 -1.12088 0
M  V30 2426 C 234.78 1.84297 -0.883974 0
M  V30 2427 C 235.144 1.83036 0.579797 0
M  V30 2428 O 236.345 2.52061 0.933734 0
M  V30 2429 C 234.616 3.27173 -1.43849 0
M  V30 2430 S 236.175 4.17853 -1.33957 0
M  V30 2431 H 232.993 0.635433 -0.318977 0
M  V30 2432 H 235.595 1.33341 -1.4297 0
M  V30 2433 H 234.299 3.25658 -2.49749 0
M  V30 2434 H 233.83 3.83198 -0.890096 0
M  V30 2435 H 235.845 4.95239 -0.308603 0
M  V30 2436 N 235.018 0.912232 1.28515 0
M  V30 2437 C 236.243 0.559774 1.99703 0
M  V30 2438 C 236.668 -0.851393 1.67729 0
M  V30 2439 O 236.026 -1.56875 0.908834 0
M  V30 2440 C 236.074 0.773874 3.52198 0
M  V30 2441 O 235.178 -0.167842 4.12058 0
M  V30 2442 H 234.519 0.21723 0.627461 0
M  V30 2443 H 237.049 1.22725 1.63706 0
M  V30 2444 H 237.059 0.683386 4.02236 0
M  V30 2445 H 235.734 1.80261 3.74805 0
M  V30 2446 H 234.311 -0.0287509 3.72889 0
M  V30 2447 N 236.496 -1.42363 0.676048 0
M  V30 2448 C 237.406 -2.346 -0.00153389 0
M  V30 2449 C 238.422 -1.5516 -0.787485 0
M  V30 2450 O 239.598 -1.87723 -0.729521 0
M  V30 2451 C 236.663 -3.33705 -0.940298 0
M  V30 2452 C 235.724 -4.29042 -0.148739 0
M  V30 2453 C 234.957 -5.23413 -1.04279 0
M  V30 2454 O 235.18 -5.22749 -2.28232 0
M  V30 2455 O 234.114 -5.99795 -0.502925 0
M  V30 2456 H 237.94 -2.94082 0.758268 0
M  V30 2457 H 235.525 -1.42888 0.436289 0
M  V30 2458 H 237.407 -3.94586 -1.47917 0
M  V30 2459 H 236.082 -2.76695 -1.67993 0
M  V30 2460 H 234.989 -3.71571 0.43427 0
M  V30 2461 H 236.322 -4.89097 0.551805 0
M  V30 2462 N 237.974 -0.419461 -1.51915 0
M  V30 2463 C 238.922 0.415502 -2.28859 0
M  V30 2464 C 239.916 1.03674 -1.3397 0
M  V30 2465 O 241.122 0.973757 -1.51387 0
M  V30 2466 H 237.497 0.152786 -0.736315 0
M  V30 2467 H 239.468 -0.254531 -2.97312 0
M  V30 2468 C 238.217 1.51425 -3.12995 0
M  V30 2469 H 237.54 1.04556 -3.85886 0
M  V30 2470 H 238.98 2.07208 -3.6992 0
M  V30 2471 C 237.439 2.48745 -2.27217 0
M  V30 2472 O 237.969 3.52871 -1.9195 0
M  V30 2473 N 236.175 2.19202 -1.90785 0
M  V30 2474 H 235.722 1.34556 -2.19664 0
M  V30 2475 H 235.68 2.84561 -1.33687 0
M  V30 2476 N 239.452 1.56882 -0.150215 0
M  V30 2477 C 240.402 2.13501 0.800071 0
M  V30 2478 C 241.386 1.06368 1.20726 0
M  V30 2479 O 242.578 1.32538 1.17314 0
M  V30 2480 C 239.707 2.76271 2.03787 0
M  V30 2481 C 238.793 3.90533 1.65364 0
M  V30 2482 N 239.184 4.96259 0.977794 0
M  V30 2483 C 237.482 4.013 1.94613 0
M  V30 2484 C 238.183 5.76286 0.791794 0
M  V30 2485 N 237.159 5.27163 1.32666 0
M  V30 2486 H 240.961 2.92615 0.274517 0
M  V30 2487 H 238.475 1.62319 0.0512144 0
M  V30 2488 H 240.472 3.15197 2.72867 0
M  V30 2489 H 239.132 1.98631 2.56857 0
M  V30 2490 H 240.143 5.13953 0.638193 0
M  V30 2491 H 236.82 3.3474 2.4951 0
M  V30 2492 H 238.21 6.71401 0.258894 0
M  V30 2493 N 240.93 -0.123565 1.57115 0
M  V30 2494 C 242.155 -0.850398 1.89164 0
M  V30 2495 C 242.58 -1.7286 0.741688 0
M  V30 2496 O 241.938 -1.78665 -0.307958 0
M  V30 2497 C 241.986 -1.66353 3.19936 0
M  V30 2498 O 241.09 -2.77004 3.0552 0
M  V30 2499 H 240.431 -0.235454 0.620852 0
M  V30 2500 H 242.961 -0.107335 2.04318 0
M  V30 2501 H 242.971 -2.05372 3.52543 0
M  V30 2502 H 241.646 -1.01881 4.03228 0
M  V30 2503 H 240.223 -2.41221 2.84371 0
M  V30 2504 N 242.408 -1.52605 -0.393616 0
M  V30 2505 C 243.655 -1.67424 -1.1391 0
M  V30 2506 C 243.983 -0.411859 -1.90089 0
M  V30 2507 O 243.238 0.605626 -1.86093 0
M  V30 2508 C 243.537 -2.85721 -2.14705 0
M  V30 2509 C 243.203 -4.23342 -1.55218 0
M  V30 2510 C 241.865 -4.60771 -1.3872 0
M  V30 2511 C 244.217 -5.09041 -1.11924 0
M  V30 2512 C 241.545 -5.81563 -0.774689 0
M  V30 2513 C 243.897 -6.30452 -0.520853 0
M  V30 2514 C 242.561 -6.66617 -0.343134 0
M  V30 2515 H 241.831 -0.612648 -0.416826 0
M  V30 2516 H 244.478 -1.8674 -0.424315 0
M  V30 2517 H 242.783 -2.60803 -2.92385 0
M  V30 2518 H 244.48 -2.94382 -2.72288 0
M  V30 2519 H 241.07 -3.93855 -1.69045 0
M  V30 2520 H 245.254 -4.80695 -1.23473 0
M  V30 2521 H 240.51 -6.08196 -0.625154 0
M  V30 2522 H 244.684 -6.96175 -0.177065 0
M  V30 2523 H 242.311 -7.60083 0.133571 0
M  V30 2524 N 243.887 0.651787 -1.4349 0
M  V30 2525 C 244.834 1.76462 -1.4876 0
M  V30 2526 C 245.804 1.62641 -0.337189 0
M  V30 2527 O 246.989 1.82864 -0.544544 0
M  V30 2528 C 244.129 3.14623 -1.41796 0
M  V30 2529 C 243.242 3.39568 -2.67053 0
M  V30 2530 C 242.377 4.67585 -2.52068 0
M  V30 2531 C 241.416 4.85639 -3.72587 0
M  V30 2532 N 240.553 6.04915 -3.56402 0
M  V30 2533 H 245.393 1.71293 -2.43849 0
M  V30 2534 H 242.93 0.835889 -1.21043 0
M  V30 2535 H 244.888 3.94496 -1.35753 0
M  V30 2536 H 243.518 3.18859 -0.50288 0
M  V30 2537 H 242.57 2.53783 -2.8337 0
M  V30 2538 H 243.882 3.48795 -3.56572 0
M  V30 2539 H 243.036 5.55586 -2.4374 0
M  V30 2540 H 241.775 4.60681 -1.60075 0
M  V30 2541 H 240.78 3.96073 -3.81321 0
M  V30 2542 H 242.005 4.94372 -4.65589 0
M  V30 2543 H 239.951 5.9914 -2.67146 0
M  V30 2544 H 239.868 6.15106 -4.39524 0
M  V30 2545 H 241.136 6.95533 -3.51929 0
M  V30 2546 N 245.365 1.30045 0.890287 0
M  V30 2547 C 246.297 1.11786 2.00091 0
M  V30 2548 C 247.31 0.0626307 1.62679 0
M  V30 2549 O 248.499 0.308112 1.75821 0
M  V30 2550 C 245.599 0.681527 3.31977 0
M  V30 2551 C 244.772 1.81735 3.97858 0
M  V30 2552 C 243.831 1.37045 5.08041 0
M  V30 2553 O 242.857 2.07677 5.29961 0
M  V30 2554 N 244.059 0.246525 5.79976 0
M  V30 2555 H 246.824 2.07441 2.16306 0
M  V30 2556 H 244.385 1.2211 1.06305 0
M  V30 2557 H 246.377 0.365675 4.03045 0
M  V30 2558 H 244.947 -0.182828 3.12065 0
M  V30 2559 H 244.167 2.30159 3.20032 0
M  V30 2560 H 245.455 2.57865 4.38615 0
M  V30 2561 H 244.853 -0.34215 5.64664 0
M  V30 2562 H 243.41 -0.00990438 6.51799 0
M  V30 2563 N 246.843 -1.10192 1.12674 0
M  V30 2564 C 247.791 -2.18694 0.792196 0
M  V30 2565 C 248.785 -1.67938 -0.222058 0
M  V30 2566 O 249.991 -1.79822 -0.0800074 0
M  V30 2567 H 246.366 -0.713223 0.238364 0
M  V30 2568 H 248.337 -2.44149 1.71564 0
M  V30 2569 C 247.086 -3.46682 0.265859 0
M  V30 2570 H 246.409 -3.86101 1.03761 0
M  V30 2571 H 247.849 -4.23942 0.0701128 0
M  V30 2572 C 246.308 -3.21506 -1.00675 0
M  V30 2573 O 246.838 -3.43408 -2.08408 0
M  V30 2574 N 245.044 -2.75158 -0.934692 0
M  V30 2575 H 244.591 -2.57535 -0.0578604 0
M  V30 2576 H 244.549 -2.58691 -1.7868 0
M  V30 2577 N 248.321 -0.919034 -1.28029 0
M  V30 2578 C 249.567 -0.555757 -1.95036 0
M  V30 2579 C 249.9 0.899198 -1.72128 0
M  V30 2580 O 249.175 1.64023 -1.04531 0
M  V30 2581 C 249.458 -0.872024 -3.49382 0
M  V30 2582 C 249.311 -2.3801 -3.81669 0
M  V30 2583 C 250.63 -0.37185 -4.38526 0
M  V30 2584 H 247.749 -0.203386 -0.708381 0
M  V30 2585 H 250.391 -1.14924 -1.51303 0
M  V30 2586 H 248.541 -0.366946 -3.86763 0
M  V30 2587 H 250.213 -2.9562 -3.54128 0
M  V30 2588 H 248.456 -2.83289 -3.28526 0
M  V30 2589 H 249.127 -2.55192 -4.8947 0
M  V30 2590 H 251.603 -0.804602 -4.08247 0
M  V30 2591 H 250.479 -0.622173 -5.45362 0
M  V30 2592 H 250.74 0.727934 -4.36066 0
M  V30 2593 N 249.799 1.42003 -0.683588 0
M  V30 2594 C 251.076 1.95112 -0.138075 0
M  V30 2595 C 251.456 1.62359 1.34918 0
M  V30 2596 O 250.804 0.924311 2.08971 0
M  V30 2597 C 251.014 3.46505 -0.416581 0
M  V30 2598 C 252.362 4.23254 -0.337834 0
M  V30 2599 O 253.386 3.54468 -0.35082 0
M  V30 2600 O 252.245 5.45743 -0.287596 0
M  V30 2601 H 249.339 0.826961 -0.00797996 0
M  V30 2602 H 251.885 1.51784 -0.758924 0
M  V30 2603 H 250.657 3.63582 -1.4465 0
M  V30 2604 H 250.28 3.969 0.235839 0
M  V30 2605 N 251.277 0.427512 1.51691 0
M  V30 2606 C 252.693 0.0792977 1.59403 0
M  V30 2607 C 252.893 -1.41035 1.43914 0
M  V30 2608 O 251.949 -2.17922 1.27539 0
M  V30 2609 C 253.262 0.590636 2.94842 0
M  V30 2610 C 254.81 0.550215 3.08126 0
M  V30 2611 C 255.285 1.03836 4.46074 0
M  V30 2612 N 256.776 0.995943 4.52366 0
M  V30 2613 C 257.511 1.34463 5.57411 0
M  V30 2614 N 257.007 1.76569 6.69922 0
M  V30 2615 N 258.8 1.26343 5.47717 0
M  V30 2616 H 250.951 1.39687 1.60004 0
M  V30 2617 H 253.214 0.575003 0.753708 0
M  V30 2618 H 252.92 1.63251 3.11516 0
M  V30 2619 H 252.794 0.0102061 3.77199 0
M  V30 2620 H 255.181 -0.482654 2.91126 0
M  V30 2621 H 255.262 1.16693 2.27632 0
M  V30 2622 H 254.906 2.06965 4.63819 0
M  V30 2623 H 254.836 0.398286 5.25092 0
M  V30 2624 H 257.327 0.68661 3.7161 0
M  V30 2625 H 257.64 2.01438 7.46085 0
M  V30 2626 H 255.985 1.80488 6.71155 0
M  V30 2627 H 259.176 0.933209 4.58703 0
M  V30 2628 H 259.349 1.53846 6.29472 0
M  V30 2629 N 252.755 -1.56801 0.158532 0
M  V30 2630 C 253.985 -2.00568 -0.495583 0
M  V30 2631 C 254.393 -1.03774 -1.58201 0
M  V30 2632 O 253.736 -0.0285797 -1.83678 0
M  V30 2633 C 253.798 -3.40768 -1.14532 0
M  V30 2634 C 253.462 -4.56553 -0.202101 0
M  V30 2635 C 254.459 -5.16714 0.574675 0
M  V30 2636 C 252.144 -5.02197 -0.101648 0
M  V30 2637 C 254.138 -6.20939 1.43924 0
M  V30 2638 C 251.825 -6.06274 0.766508 0
M  V30 2639 C 252.823 -6.65515 1.53555 0
M  V30 2640 O 252.511 -7.67575 2.38922 0
M  V30 2641 H 252.243 -0.662893 -0.13247 0
M  V30 2642 H 254.797 -2.03829 0.253559 0
M  V30 2643 H 253.027 -3.34381 -1.94233 0
M  V30 2644 H 254.716 -3.6857 -1.70033 0
M  V30 2645 H 255.482 -4.82341 0.507167 0
M  V30 2646 H 251.361 -4.55807 -0.689994 0
M  V30 2647 H 254.905 -6.67107 2.03996 0
M  V30 2648 H 250.802 -6.40073 0.835266 0
M  V30 2649 H 251.57 -7.84844 2.32296 0
M  V30 2650 N 254.233 0.115231 -1.57178 0
M  V30 2651 C 255.196 1.12526 -1.99676 0
M  V30 2652 C 256.196 1.34095 -0.88742 0
M  V30 2653 O 257.386 1.30548 -1.15337 0
M  V30 2654 C 254.518 2.4789 -2.34015 0
M  V30 2655 H 255.711 0.759912 -2.90113 0
M  V30 2656 H 253.264 0.359648 -1.52106 0
M  V30 2657 H 253.999 2.89339 -1.4647 0
M  V30 2658 H 253.784 2.33588 -3.14927 0
M  V30 2659 H 255.274 3.20575 -2.67622 0
M  V30 2660 N 255.711 1.52812 0.385517 0
M  V30 2661 C 256.641 1.80808 1.47752 0
M  V30 2662 C 257.622 0.660318 1.5676 0
M  V30 2663 O 258.807 0.908246 1.71652 0
M  V30 2664 C 255.937 1.98008 2.85324 0
M  V30 2665 C 254.891 3.13709 2.91154 0
M  V30 2666 C 254.217 3.16169 4.31209 0
M  V30 2667 C 255.517 4.52709 2.60483 0
M  V30 2668 H 257.211 2.72253 1.24573 0
M  V30 2669 H 254.757 1.31003 0.597839 0
M  V30 2670 H 256.71 2.16176 3.61726 0
M  V30 2671 H 255.434 1.03255 3.09848 0
M  V30 2672 H 254.093 2.95329 2.17201 0
M  V30 2673 H 253.741 2.19092 4.52778 0
M  V30 2674 H 253.441 3.93894 4.36029 0
M  V30 2675 H 254.965 3.36496 5.09512 0
M  V30 2676 H 256.379 4.71173 3.26602 0
M  V30 2677 H 254.776 5.32528 2.76648 0
M  V30 2678 H 255.846 4.59186 1.55809 0
M  V30 2679 N 257.189 -0.644168 1.43834 0
M  V30 2680 C 258.119 -1.76814 1.52509 0
M  V30 2681 C 259.1 -1.65823 0.379052 0
M  V30 2682 O 260.285 -1.84781 0.597466 0
M  V30 2683 C 257.415 -3.15288 1.4564 0
M  V30 2684 C 256.369 -3.41053 2.58586 0
M  V30 2685 C 255.695 -4.79421 2.36769 0
M  V30 2686 C 256.995 -3.34902 4.00797 0
M  V30 2687 H 258.689 -1.69812 2.46586 0
M  V30 2688 H 256.235 -0.815542 1.1868 0
M  V30 2689 H 258.188 -3.93681 1.50311 0
M  V30 2690 H 256.912 -3.23043 0.480725 0
M  V30 2691 H 255.571 -2.65035 2.53282 0
M  V30 2692 H 255.219 -4.83863 1.37424 0
M  V30 2693 H 254.919 -4.9762 3.12487 0
M  V30 2694 H 256.443 -5.6006 2.43238 0
M  V30 2695 H 257.857 -4.03218 4.07539 0
M  V30 2696 H 256.254 -3.64637 4.76613 0
M  V30 2697 H 257.324 -2.32928 4.25291 0
M  V30 2698 N 258.668 -1.30515 -0.883378 0
M  V30 2699 C 259.893 -1.22487 -1.67367 0
M  V30 2700 C 260.318 0.208767 -1.86938 0
M  V30 2701 O 259.676 1.15015 -1.40148 0
M  V30 2702 C 259.724 -1.96041 -3.02655 0
M  V30 2703 O 258.828 -1.28859 -3.91751 0
M  V30 2704 H 258.169 -0.423573 -0.511353 0
M  V30 2705 H 260.699 -1.72362 -1.10239 0
M  V30 2706 H 260.709 -2.05124 -3.52687 0
M  V30 2707 H 259.384 -3.00307 -2.8773 0
M  V30 2708 H 257.961 -1.28141 -3.50192 0
M  V30 2709 N 260.146 1.09593 -1.13257 0
M  V30 2710 C 261.374 1.855 -0.916378 0
M  V30 2711 C 261.789 1.81069 0.534738 0
M  V30 2712 O 261.146 1.20562 1.37007 0
M  V30 2713 C 261.197 3.33546 -1.39388 0
M  V30 2714 O 260.918 3.37927 -2.78813 0
M  V30 2715 C 262.419 4.26299 -1.21588 0
M  V30 2716 H 259.639 0.585991 -0.326887 0
M  V30 2717 H 262.183 1.38488 -1.5047 0
M  V30 2718 H 260.338 3.77992 -0.848597 0
M  V30 2719 H 260.752 4.30254 -2.9997 0
M  V30 2720 H 262.226 5.28341 -1.59876 0
M  V30 2721 H 262.703 4.38918 -0.157376 0
M  V30 2722 H 263.309 3.87668 -1.7491 0
M  V30 2723 N 261.624 0.925811 1.2754 0
M  V30 2724 C 262.554 0.440748 2.29303 0
M  V30 2725 C 263.535 -0.497971 1.62648 0
M  V30 2726 O 264.72 -0.403126 1.8997 0
M  V30 2727 C 261.85 -0.309048 3.45922 0
M  V30 2728 C 260.804 0.54166 4.24559 0
M  V30 2729 C 260.13 -0.337191 5.33636 0
M  V30 2730 C 261.43 1.80516 4.90114 0
M  V30 2731 H 263.124 1.29121 2.70126 0
M  V30 2732 H 260.67 0.622323 1.29858 0
M  V30 2733 H 262.623 -0.659315 4.1621 0
M  V30 2734 H 261.347 -1.19352 3.04011 0
M  V30 2735 H 260.006 0.874609 3.56014 0
M  V30 2736 H 259.654 -1.22056 4.87966 0
M  V30 2737 H 259.354 0.228497 5.87156 0
M  V30 2738 H 260.878 -0.683072 6.06767 0
M  V30 2739 H 262.292 1.52307 5.52698 0
M  V30 2740 H 260.689 2.3142 5.53683 0
M  V30 2741 H 261.759 2.52581 4.13921 0
M  V30 2742 N 263.102 -1.41638 0.69111 0
M  V30 2743 C 264.034 -2.29194 -0.0161523 0
M  V30 2744 C 265.047 -1.44549 -0.748955 0
M  V30 2745 O 266.236 -1.681 -0.6004 0
M  V30 2746 C 263.336 -3.22325 -1.0469 0
M  V30 2747 C 262.509 -4.35706 -0.384621 0
M  V30 2748 C 261.568 -5.09443 -1.31737 0
M  V30 2749 O 260.594 -5.63386 -0.811451 0
M  V30 2750 N 261.796 -5.16487 -2.64993 0
M  V30 2751 H 264.561 -2.90534 0.735523 0
M  V30 2752 H 262.122 -1.52742 0.53679 0
M  V30 2753 H 264.114 -3.68522 -1.67252 0
M  V30 2754 H 262.684 -2.62323 -1.70015 0
M  V30 2755 H 261.904 -3.91948 0.420804 0
M  V30 2756 H 263.192 -5.08743 0.0760765 0
M  V30 2757 H 262.59 -4.741 -3.08619 0
M  V30 2758 H 261.147 -5.66276 -3.22761 0
M  V30 2759 N 264.58 -0.43555 -1.51462 0
M  V30 2760 C 265.51 0.367376 -2.30592 0
M  V30 2761 C 266.491 1.02263 -1.35928 0
M  V30 2762 O 267.676 1.02661 -1.64847 0
M  V30 2763 C 264.806 1.46983 -3.14664 0
M  V30 2764 C 263.76 0.938161 -4.17591 0
M  V30 2765 C 263.086 2.13622 -4.90173 0
M  V30 2766 C 264.386 -0.0261621 -5.22293 0
M  V30 2767 H 266.08 -0.292969 -2.97963 0
M  V30 2768 H 263.626 -0.14234 -1.43295 0
M  V30 2769 H 265.579 2.03873 -3.688 0
M  V30 2770 H 264.303 2.15843 -2.4511 0
M  V30 2771 H 262.962 0.391481 -3.64504 0
M  V30 2772 H 262.61 2.81098 -4.17124 0
M  V30 2773 H 262.31 1.78688 -5.59772 0
M  V30 2774 H 263.834 2.7107 -5.47132 0
M  V30 2775 H 265.248 0.452384 -5.71512 0
M  V30 2776 H 263.645 -0.287992 -5.99409 0
M  V30 2777 H 264.715 -0.963391 -4.75233 0
M  V30 2778 N 266.058 1.56714 -0.166846 0
M  V30 2779 C 266.991 2.13577 0.80375 0
M  V30 2780 C 267.969 1.06464 1.22899 0
M  V30 2781 O 269.153 1.34413 1.32157 0
M  V30 2782 C 266.28 2.67168 2.0818 0
M  V30 2783 C 265.326 3.86612 1.80093 0
M  V30 2784 S 266.159 5.26565 0.97416 0
M  V30 2785 C 267.315 5.83558 2.26297 0
M  V30 2786 H 267.548 2.9557 0.320267 0
M  V30 2787 H 265.081 1.54326 0.0477555 0
M  V30 2788 H 267.039 2.98692 2.8159 0
M  V30 2789 H 265.7 1.85269 2.53642 0
M  V30 2790 H 264.893 4.22422 2.7491 0
M  V30 2791 H 264.495 3.55951 1.14781 0
M  V30 2792 H 266.787 5.962 3.21795 0
M  V30 2793 H 267.73 6.80731 1.94962 0
M  V30 2794 H 268.138 5.11944 2.37853 0
M  V30 2795 N 267.536 -0.106894 1.57237 0
M  V30 2796 C 268.766 -0.825191 1.89405 0
M  V30 2797 C 269.174 -1.73374 0.757496 0
M  V30 2798 O 268.517 -1.81552 -0.280115 0
M  V30 2799 C 268.579 -1.70102 3.1671 0
M  V30 2800 C 268.243 -0.965523 4.46684 0
M  V30 2801 C 269.24 -0.300741 5.19029 0
M  V30 2802 C 266.925 -0.943105 4.93367 0
M  V30 2803 C 268.919 0.376622 6.36286 0
M  V30 2804 C 266.606 -0.261949 6.10538 0
M  V30 2805 C 267.604 0.396748 6.81847 0
M  V30 2806 O 267.292 1.06701 7.96787 0
M  V30 2807 H 267.024 -0.241852 0.631255 0
M  V30 2808 H 269.578 -0.0921491 2.05193 0
M  V30 2809 H 267.808 -2.47601 2.97036 0
M  V30 2810 H 269.497 -2.29483 3.34802 0
M  V30 2811 H 270.263 -0.309599 4.84011 0
M  V30 2812 H 266.142 -1.44524 4.3776 0
M  V30 2813 H 269.686 0.891334 6.91882 0
M  V30 2814 H 265.583 -0.250896 6.45012 0
M  V30 2815 H 266.351 0.972707 8.127 0
M  V30 2816 N 269.014 -1.53014 -0.377408 0
M  V30 2817 C 270.242 -1.72515 -1.14219 0
M  V30 2818 C 270.657 -0.448735 -1.8339 0
M  V30 2819 O 270.014 0.577592 -1.73119 0
M  V30 2820 C 270.065 -2.8826 -2.18148 0
M  V30 2821 O 269.786 -4.10962 -1.51795 0
M  V30 2822 C 271.287 -3.19536 -3.07264 0
M  V30 2823 H 268.507 -0.577301 -0.342001 0
M  V30 2824 H 271.051 -1.99712 -0.439935 0
M  V30 2825 H 269.206 -2.63492 -2.83991 0
M  V30 2826 H 269.62 -4.75693 -2.20945 0
M  V30 2827 H 271.094 -4.03959 -3.76193 0
M  V30 2828 H 271.571 -2.34403 -3.71419 0
M  V30 2829 H 272.177 -3.46186 -2.47053 0
M  V30 2830 N 270.492 0.636531 -1.44174 0
M  V30 2831 C 271.738 1.39826 -1.4689 0
M  V30 2832 C 272.071 1.93947 -0.0990585 0
M  V30 2833 O 271.346 1.73325 0.882544 0
M  V30 2834 C 271.629 2.56751 -2.5249 0
M  V30 2835 C 271.482 2.08014 -3.98811 0
M  V30 2836 C 272.801 3.58946 -2.54649 0
M  V30 2837 H 269.92 0.507075 -0.53483 0
M  V30 2838 H 272.562 0.720188 -1.75822 0
M  V30 2839 H 270.712 3.14597 -2.2795 0
M  V30 2840 H 272.384 1.5504 -4.34466 0
M  V30 2841 H 270.627 1.39242 -4.10846 0
M  V30 2842 H 271.298 2.92169 -4.68339 0
M  V30 2843 H 273.774 3.1089 -2.76563 0
M  V30 2844 H 272.65 4.38286 -3.3045 0
M  V30 2845 H 272.911 4.12655 -1.58646 0
M  V30 2846 N 271.97 1.30982 0.876444 0
M  V30 2847 C 273.218 1.20058 1.62575 0
M  V30 2848 C 273.539 -0.242947 1.93481 0
M  V30 2849 O 272.809 -1.1619 1.57724 0
M  V30 2850 H 271.389 0.44135 0.602677 0
M  V30 2851 H 274.051 1.64222 1.04962 0
M  V30 2852 H 273.147 1.76762 2.57219 0
M  V30 2853 N 273.449 -1.08991 1.13837 0
M  V30 2854 C 274.679 -1.84743 0.924859 0
M  V30 2855 C 275.087 -1.81629 -0.529874 0
M  V30 2856 O 274.43 -1.21397 -1.37872 0
M  V30 2857 C 274.492 -3.33568 1.34061 0
M  V30 2858 C 274.156 -3.60425 2.80968 0
M  V30 2859 C 275.153 -3.55771 3.79108 0
M  V30 2860 C 272.838 -3.88627 3.18236 0
M  V30 2861 C 274.832 -3.78939 5.12527 0
M  V30 2862 C 272.519 -4.11449 4.51833 0
M  V30 2863 C 273.517 -4.06598 5.48787 0
M  V30 2864 O 273.205 -4.28826 6.79973 0
M  V30 2865 H 272.937 -0.590258 0.329502 0
M  V30 2866 H 275.491 -1.38598 1.51591 0
M  V30 2867 H 273.721 -3.80442 0.692853 0
M  V30 2868 H 275.41 -3.90743 1.09886 0
M  V30 2869 H 276.176 -3.34005 3.51661 0
M  V30 2870 H 272.055 -3.91526 2.43369 0
M  V30 2871 H 275.599 -3.75068 5.88192 0
M  V30 2872 H 271.496 -4.32698 4.79002 0
M  V30 2873 H 272.264 -4.46264 6.86142 0
M  V30 2874 N 274.927 -0.932562 -1.27047 0
M  V30 2875 C 276.152 -0.591474 -1.98787 0
M  V30 2876 C 276.577 0.824601 -1.69062 0
M  V30 2877 O 275.935 1.5541 -0.933677 0
M  V30 2878 C 275.983 -0.829808 -3.50922 0
M  V30 2879 O 275.087 0.102266 -4.12273 0
M  V30 2880 H 274.428 -0.227185 -0.623926 0
M  V30 2881 H 276.958 -1.25314 -1.61733 0
M  V30 2882 H 276.968 -0.747292 -4.01098 0
M  V30 2883 H 275.643 -1.86201 -3.7189 0
M  V30 2884 H 274.22 -0.0305761 -3.72887 0
M  V30 2885 N 276.405 1.4127 -0.698611 0
M  V30 2886 C 277.652 2.0118 -0.230865 0
M  V30 2887 C 277.98 1.55338 1.17049 0
M  V30 2888 O 277.235 0.756775 1.80475 0
M  V30 2889 C 277.534 3.56592 -0.240192 0
M  V30 2890 C 277.2 4.21955 -1.58948 0
M  V30 2891 C 275.862 4.39524 -1.95887 0
M  V30 2892 C 278.214 4.58576 -2.47704 0
M  V30 2893 C 275.542 4.90992 -3.2116 0
M  V30 2894 C 277.894 5.11435 -3.72313 0
M  V30 2895 C 276.558 5.27215 -4.0939 0
M  V30 2896 H 275.828 0.736169 -0.0844796 0
M  V30 2897 H 278.475 1.69124 -0.8983 0
M  V30 2898 H 276.78 3.88456 0.510797 0
M  V30 2899 H 278.477 4.00758 0.139296 0
M  V30 2900 H 275.067 4.08657 -1.29219 0
M  V30 2901 H 279.251 4.44654 -2.20445 0
M  V30 2902 H 274.507 5.01393 -3.49878 0
M  V30 2903 H 278.681 5.38752 -4.4127 0
M  V30 2904 H 276.308 5.66859 -5.06533 0
M  V30 2905 N 277.883 0.443576 1.51229 0
M  V30 2906 C 279.108 -0.121648 2.07043 0
M  V30 2907 C 279.533 -1.35156 1.30823 0
M  V30 2908 O 278.891 -1.7793 0.347934 0
M  V30 2909 C 278.939 -0.41624 3.5819 0
M  V30 2910 O 278.043 -1.50163 3.8409 0
M  V30 2911 H 277.384 0.000871367 0.663999 0
M  V30 2912 H 279.914 0.626706 1.94765 0
M  V30 2913 H 279.924 -0.664867 4.02546 0
M  V30 2914 H 278.599 0.482653 4.1309 0
M  V30 2915 H 277.176 -1.24248 3.51592 0
M  V30 2916 N 279.361 -1.56624 0.175154 0
M  V30 2917 C 280.291 -2.21155 -0.749195 0
M  V30 2918 C 281.272 -1.16836 -1.23626 0
M  V30 2919 O 282.457 -1.45277 -1.28873 0
M  V30 2920 C 279.587 -2.8553 -1.97711 0
M  V30 2921 C 278.541 -3.95921 -1.62575 0
M  V30 2922 C 277.867 -4.47365 -2.92864 0
M  V30 2923 C 279.167 -5.15323 -0.850838 0
M  V30 2924 H 280.861 -2.98653 -0.211295 0
M  V30 2925 H 278.407 -1.43651 -0.100188 0
M  V30 2926 H 280.36 -3.2935 -2.62881 0
M  V30 2927 H 279.084 -2.05406 -2.53921 0
M  V30 2928 H 277.743 -3.52762 -0.997719 0
M  V30 2929 H 277.391 -3.64027 -3.47122 0
M  V30 2930 H 277.091 -5.21839 -2.70106 0
M  V30 2931 H 278.615 -4.93873 -3.59056 0
M  V30 2932 H 280.029 -5.55812 -1.40521 0
M  V30 2933 H 278.426 -5.95739 -0.722154 0
M  V30 2934 H 279.496 -4.84661 0.152082 0
M  V30 2935 N 280.839 0.0985539 -1.57292 0
M  V30 2936 C 282.088 0.801358 -1.85098 0
M  V30 2937 C 282.401 1.80066 -0.763902 0
M  V30 2938 O 283.607 2.55112 -0.928981 0
M  V30 2939 C 282.063 1.47599 -3.28242 0
M  V30 2940 C 281.671 0.516624 -4.45011 0
M  V30 2941 C 283.415 2.16272 -3.65276 0
M  V30 2942 C 281.322 1.19564 -5.79188 0
M  V30 2943 H 280.252 0.303022 -0.69043 0
M  V30 2944 H 282.903 0.0542623 -1.8342 0
M  V30 2945 H 281.285 2.27042 -3.2445 0
M  V30 2946 H 282.459 -0.246065 -4.60143 0
M  V30 2947 H 280.774 -0.064227 -4.1635 0
M  V30 2948 H 283.371 2.67802 -4.62803 0
M  V30 2949 H 283.714 2.95009 -2.93727 0
M  V30 2950 H 284.247 1.43693 -3.70941 0
M  V30 2951 H 280.986 0.449157 -6.53959 0
M  V30 2952 H 280.506 1.92984 -5.67906 0
M  V30 2953 H 282.185 1.7231 -6.23633 0
M  V30 2954 N 282.317 1.53212 0.369288 0
M  V30 2955 C 283.542 1.73423 1.1375 0
M  V30 2956 C 283.967 0.460404 1.82378 0
M  V30 2957 O 283.325 -0.585298 1.71592 0
M  V30 2958 C 283.373 2.89769 2.1463 0
M  V30 2959 O 282.477 2.58119 3.21634 0
M  V30 2960 H 281.818 0.576061 0.330227 0
M  V30 2961 H 284.348 2.00083 0.427547 0
M  V30 2962 H 284.358 3.15829 2.58294 0
M  V30 2963 H 283.033 3.8217 1.64071 0
M  V30 2964 H 281.61 2.42864 2.82969 0
M  V30 2965 N 283.795 -0.628877 1.44509 0
M  V30 2966 C 284.725 -1.75187 1.54376 0
M  V30 2967 C 285.706 -1.65411 0.396618 0
M  V30 2968 O 286.891 -1.84137 0.617031 0
M  V30 2969 C 284.021 -3.13725 1.48976 0
M  V30 2970 C 282.975 -3.38291 2.62189 0
M  V30 2971 C 282.301 -4.76883 2.41841 0
M  V30 2972 C 283.601 -3.30632 4.04326 0
M  V30 2973 H 285.295 -1.67187 2.48373 0
M  V30 2974 H 282.841 -0.802909 1.19538 0
M  V30 2975 H 284.794 -3.92064 1.54478 0
M  V30 2976 H 283.518 -3.22515 0.514961 0
M  V30 2977 H 282.177 -2.62334 2.56079 0
M  V30 2978 H 281.825 -4.82378 1.42548 0
M  V30 2979 H 281.525 -4.94278 3.17747 0
M  V30 2980 H 283.049 -5.57449 2.49165 0
M  V30 2981 H 284.463 -3.98873 4.11793 0
M  V30 2982 H 282.86 -3.59561 4.80454 0
M  V30 2983 H 283.93 -2.28404 4.27738 0
M  V30 2984 N 285.273 -1.31445 -0.869486 0
M  V30 2985 C 286.52 -1.21158 -1.62256 0
M  V30 2986 C 286.848 0.230155 -1.93133 0
M  V30 2987 O 286.103 1.17906 -1.56194 0
M  V30 2988 C 286.402 -2.00145 -2.96102 0
M  V30 2989 C 286.068 -3.4964 -2.84715 0
M  V30 2990 C 284.73 -3.90403 -2.81317 0
M  V30 2991 C 287.082 -4.44769 -2.71716 0
M  V30 2992 C 284.41 -5.24561 -2.62778 0
M  V30 2993 C 286.762 -5.79054 -2.54714 0
M  V30 2994 C 285.426 -6.19037 -2.49699 0
M  V30 2995 H 284.696 -0.443348 -0.593737 0
M  V30 2996 H 287.343 -1.62715 -1.00976 0
M  V30 2997 H 285.648 -1.5127 -3.6142 0
M  V30 2998 H 287.345 -1.89566 -3.53363 0
M  V30 2999 H 283.935 -3.17256 -2.88178 0
M  V30 3000 H 288.119 -4.14208 -2.73397 0
M  V30 3001 H 283.375 -5.54613 -2.57321 0
M  V30 3002 H 287.549 -6.52393 -2.43632 0
M  V30 3003 H 285.176 -7.22935 -2.35093 0
M  V30 3004 N 286.751 1.08385 -1.14413 0
M  V30 3005 C 287.681 2.17321 -0.854044 0
M  V30 3006 C 288.662 1.69024 0.191049 0
M  V30 3007 O 289.847 1.94141 0.0476779 0
M  V30 3008 C 286.977 3.45719 -0.330983 0
M  V30 3009 C 285.931 4.07409 -1.31155 0
M  V30 3010 C 285.257 5.30762 -0.64778 0
M  V30 3011 C 286.557 4.48665 -2.67388 0
M  V30 3012 H 288.251 2.41845 -1.76498 0
M  V30 3013 H 285.797 1.16233 -0.850051 0
M  V30 3014 H 287.75 4.21241 -0.115645 0
M  V30 3015 H 286.474 3.2075 0.615381 0
M  V30 3016 H 285.133 3.33919 -1.51306 0
M  V30 3017 H 284.781 5.02078 0.304398 0
M  V30 3018 H 284.481 5.72992 -1.30207 0
M  V30 3019 H 286.005 6.08998 -0.441972 0
M  V30 3020 H 287.419 5.15364 -2.51143 0
M  V30 3021 H 285.816 5.01814 -3.29093 0
M  V30 3022 H 286.886 3.60543 -3.24248 0
M  V30 3023 N 288.23 0.939286 1.26551 0
M  V30 3024 C 289.193 0.451987 2.24699 0
M  V30 3025 C 290.193 -0.435869 1.5478 0
M  V30 3026 O 291.383 -0.235314 1.72603 0
M  V30 3027 C 288.515 -0.348801 3.39111 0
M  V30 3028 H 289.708 1.3193 2.69322 0
M  V30 3029 H 287.261 0.721072 1.38673 0
M  V30 3030 H 287.996 -1.23444 2.99887 0
M  V30 3031 H 287.781 0.287945 3.91041 0
M  V30 3032 H 289.271 -0.679726 4.12031 0
M  V30 3033 N 289.708 -1.40897 0.706093 0
M  V30 3034 C 290.638 -2.33418 0.0620085 0
M  V30 3035 C 291.619 -1.52385 -0.755827 0
M  V30 3036 O 292.804 -1.80886 -0.706674 0
M  V30 3037 C 289.934 -3.36293 -0.867445 0
M  V30 3038 C 288.888 -4.27716 -0.155932 0
M  V30 3039 C 288.214 -5.2105 -1.20046 0
M  V30 3040 C 289.514 -5.12944 0.984149 0
M  V30 3041 H 291.208 -2.87527 0.83477 0
M  V30 3042 H 288.754 -1.38249 0.402875 0
M  V30 3043 H 290.707 -3.99949 -1.32735 0
M  V30 3044 H 289.431 -2.80556 -1.67199 0
M  V30 3045 H 288.09 -3.65498 0.284047 0
M  V30 3046 H 287.738 -4.61624 -1.99781 0
M  V30 3047 H 287.438 -5.83056 -0.729328 0
M  V30 3048 H 288.962 -5.87584 -1.66066 0
M  V30 3049 H 290.376 -5.70109 0.604048 0
M  V30 3050 H 288.773 -5.83945 1.38304 0
M  V30 3051 H 289.843 -4.49485 1.81911 0
M  V30 3052 N 291.186 -0.45159 -1.50991 0
M  V30 3053 C 292.414 0.108334 -2.06616 0
M  V30 3054 C 292.829 1.35224 -1.31757 0
M  V30 3055 O 292.186 1.78475 -0.381174 0
M  V30 3056 C 292.237 0.41619 -3.59096 0
M  V30 3057 O 291.958 -0.778361 -4.3113 0
M  V30 3058 C 293.459 1.02523 -4.31282 0
M  V30 3059 H 290.679 0.00159995 -0.670998 0
M  V30 3060 H 293.223 -0.634771 -1.94399 0
M  V30 3061 H 291.378 1.10921 -3.71181 0
M  V30 3062 H 291.792 -0.511181 -5.22003 0
M  V30 3063 H 293.266 1.19053 -5.39009 0
M  V30 3064 H 293.743 2.01013 -3.905 0
M  V30 3065 H 294.349 0.371173 -4.23677 0
M  V30 3066 N 292.664 1.56529 -0.183458 0
M  V30 3067 C 293.594 2.21549 0.737456 0
M  V30 3068 C 294.575 1.17489 1.23005 0
M  V30 3069 O 295.76 1.45959 1.281 0
M  V30 3070 C 292.89 2.86575 1.96194 0
M  V30 3071 C 291.844 3.96778 1.60473 0
M  V30 3072 C 291.17 4.48911 2.90487 0
M  V30 3073 C 292.47 5.15767 0.823497 0
M  V30 3074 H 294.164 2.98761 0.195453 0
M  V30 3075 H 291.71 1.43702 0.0925686 0
M  V30 3076 H 293.663 3.30739 2.61131 0
M  V30 3077 H 292.387 2.06749 2.52828 0
M  V30 3078 H 291.046 3.53286 0.978997 0
M  V30 3079 H 290.694 3.65862 3.45186 0
M  V30 3080 H 290.394 5.23265 2.67335 0
M  V30 3081 H 291.918 4.95771 3.56432 0
M  V30 3082 H 293.332 5.56549 1.37571 0
M  V30 3083 H 291.729 5.96114 0.690551 0
M  V30 3084 H 292.799 4.84574 -0.177782 0
M  V30 3085 N 294.142 -0.090211 1.57342 0
M  V30 3086 C 295.072 -1.10976 2.05443 0
M  V30 3087 C 296.053 -1.41482 0.944284 0
M  V30 3088 O 297.238 -1.51428 1.21586 0
M  V30 3089 C 294.368 -2.42831 2.48295 0
M  V30 3090 C 293.322 -2.26721 3.63018 0
M  V30 3091 C 292.648 -3.63796 3.91863 0
M  V30 3092 C 293.948 -1.7037 4.93732 0
M  V30 3093 H 295.642 -0.709564 2.9087 0
M  V30 3094 H 293.188 -0.339874 1.39932 0
M  V30 3095 H 295.141 -3.14431 2.80555 0
M  V30 3096 H 293.865 -2.84795 1.59873 0
M  V30 3097 H 292.524 -1.57565 3.31012 0
M  V30 3098 H 292.172 -4.03297 3.00601 0
M  V30 3099 H 291.872 -3.53861 4.69101 0
M  V30 3100 H 293.396 -4.36855 4.26603 0
M  V30 3101 H 294.81 -2.31816 5.24342 0
M  V30 3102 H 293.207 -1.71181 5.75167 0
M  V30 3103 H 294.277 -0.663542 4.80339 0
M  V30 3104 N 295.62 -1.53406 -0.361157 0
M  V30 3105 C 296.55 -1.83136 -1.44857 0
M  V30 3106 C 297.531 -0.685174 -1.5569 0
M  V30 3107 O 298.716 -0.93544 -1.70186 0
M  V30 3108 C 295.846 -2.02522 -2.82138 0
M  V30 3109 C 294.8 -3.18302 -2.86126 0
M  V30 3110 C 294.126 -3.22989 -4.26125 0
M  V30 3111 C 295.426 -4.56796 -2.53248 0
M  V30 3112 H 297.12 -2.74201 -1.20226 0
M  V30 3113 H 294.666 -1.31938 -0.576922 0
M  V30 3114 H 296.619 -2.21904 -3.58241 0
M  V30 3115 H 295.343 -1.08172 -3.08166 0
M  V30 3116 H 294.002 -2.98747 -2.12475 0
M  V30 3117 H 293.65 -2.26267 -4.49235 0
M  V30 3118 H 293.35 -4.00781 -4.29708 0
M  V30 3119 H 294.874 -3.44559 -5.04094 0
M  V30 3120 H 296.288 -4.7631 -3.19064 0
M  V30 3121 H 294.685 -5.36862 -2.68141 0
M  V30 3122 H 295.755 -4.61606 -1.48484 0
M  V30 3123 N 297.098 0.621204 -1.44841 0
M  V30 3124 C 298.345 1.38055 -1.48145 0
M  V30 3125 C 298.673 1.94143 -0.117867 0
M  V30 3126 O 297.928 1.74713 0.881694 0
M  V30 3127 C 298.227 2.55675 -2.4973 0
M  V30 3128 C 297.893 2.17817 -3.94799 0
M  V30 3129 C 296.555 2.07205 -4.34303 0
M  V30 3130 C 298.907 1.88065 -4.86087 0
M  V30 3131 C 296.235 1.65045 -5.63007 0
M  V30 3132 C 298.587 1.47394 -6.15189 0
M  V30 3133 C 297.251 1.35331 -6.53637 0
M  V30 3134 H 296.521 0.505181 -0.542101 0
M  V30 3135 H 299.168 0.703477 -1.78111 0
M  V30 3136 H 297.473 3.2866 -2.13284 0
M  V30 3137 H 299.17 3.13904 -2.4953 0
M  V30 3138 H 295.76 2.26998 -3.63552 0
M  V30 3139 H 299.944 1.95168 -4.56315 0
M  V30 3140 H 295.2 1.54317 -5.91605 0
M  V30 3141 H 299.374 1.23415 -6.85377 0
M  V30 3142 H 297.001 1.02435 -7.53267 0
M  V30 3143 N 298.576 1.31904 0.862503 0
M  V30 3144 C 299.506 1.22782 1.98612 0
M  V30 3145 C 300.487 0.113362 1.69722 0
M  V30 3146 O 301.672 0.299218 1.91881 0
M  V30 3147 C 298.802 0.942058 3.34279 0
M  V30 3148 C 297.756 2.0169 3.77499 0
M  V30 3149 C 297.082 1.58369 5.10709 0
M  V30 3150 C 298.382 3.43096 3.93805 0
M  V30 3151 H 300.076 2.16788 2.06502 0
M  V30 3152 H 297.622 1.04366 0.992154 0
M  V30 3153 H 299.575 0.864818 4.1243 0
M  V30 3154 H 298.299 -0.0336603 3.26583 0
M  V30 3155 H 296.958 2.08416 3.01593 0
M  V30 3156 H 296.606 0.595628 4.99461 0
M  V30 3157 H 296.306 2.30279 5.40597 0
M  V30 3158 H 297.83 1.52067 5.91361 0
M  V30 3159 H 299.244 3.39003 4.62331 0
M  V30 3160 H 297.641 4.13288 4.35101 0
M  V30 3161 H 298.711 3.83334 2.96957 0
M  V30 3162 N 300.054 -1.07777 1.14986 0
M  V30 3163 C 301.47 -1.32373 0.891596 0
M  V30 3164 C 301.67 -1.9609 -0.463788 0
M  V30 3165 O 300.726 -2.21801 -1.20667 0
M  V30 3166 C 302.039 -2.21905 2.02925 0
M  V30 3167 C 303.587 -2.35367 2.06329 0
M  V30 3168 C 304.062 -3.28245 3.19405 0
M  V30 3169 N 305.553 -3.35824 3.19024 0
M  V30 3170 C 306.288 -4.07739 4.03158 0
M  V30 3171 N 305.784 -4.82306 4.97346 0
M  V30 3172 N 307.577 -4.03635 3.91197 0
M  V30 3173 H 299.728 -0.648039 2.02273 0
M  V30 3174 H 301.991 -0.348149 0.881757 0
M  V30 3175 H 301.697 -1.82342 3.0074 0
M  V30 3176 H 301.571 -3.22407 1.95789 0
M  V30 3177 H 303.958 -2.74186 1.09116 0
M  V30 3178 H 304.039 -1.34585 2.17533 0
M  V30 3179 H 303.683 -2.90146 4.16867 0
M  V30 3180 H 303.613 -4.28971 3.05437 0
M  V30 3181 H 306.104 -2.8267 2.50811 0
M  V30 3182 H 306.417 -5.34661 5.57994 0
M  V30 3183 H 304.762 -4.81337 5.01338 0
M  V30 3184 H 307.953 -3.44491 3.16928 0
M  V30 3185 H 308.126 -4.59417 4.5699 0
M  V30 3186 N 301.532 -0.945985 -1.26051 0
M  V30 3187 C 302.479 -0.45809 -2.26208 0
M  V30 3188 C 303.449 0.484816 -1.58867 0
M  V30 3189 O 304.634 0.399969 -1.86561 0
M  V30 3190 C 301.774 0.266131 -3.44072 0
M  V30 3191 C 300.887 -0.713005 -4.26075 0
M  V30 3192 C 300.022 0.0329013 -5.3119 0
M  V30 3193 C 299.061 -0.93774 -6.04874 0
M  V30 3194 N 298.198 -0.223274 -7.01745 0
M  V30 3195 H 303.038 -1.3171 -2.67313 0
M  V30 3196 H 300.575 -0.66069 -1.31428 0
M  V30 3197 H 302.533 0.702514 -4.11243 0
M  V30 3198 H 301.163 1.08925 -3.03867 0
M  V30 3199 H 300.215 -1.26789 -3.58648 0
M  V30 3200 H 301.527 -1.45406 -4.77136 0
M  V30 3201 H 300.681 0.528335 -6.04395 0
M  V30 3202 H 299.42 0.806801 -4.8098 0
M  V30 3203 H 298.425 -1.44425 -5.30492 0
M  V30 3204 H 299.65 -1.71172 -6.57173 0
M  V30 3205 H 297.596 0.532046 -6.53839 0
M  V30 3206 H 297.513 -0.90357 -7.50581 0
M  V30 3207 H 298.781 0.250907 -7.79096 0
M  V30 3208 N 303.011 1.40521 -0.713556 0
M  V30 3209 C 303.941 2.33381 -0.0743864 0
M  V30 3210 C 304.922 1.52784 0.747735 0
M  V30 3211 O 306.107 1.81258 0.697071 0
M  V30 3212 C 303.237 3.36748 0.849598 0
M  V30 3213 C 302.191 4.27793 0.133247 0
M  V30 3214 C 301.517 5.21679 1.17281 0
M  V30 3215 C 302.817 5.12415 -1.01134 0
M  V30 3216 H 304.511 2.87081 -0.850007 0
M  V30 3217 H 302.057 1.38034 -0.410201 0
M  V30 3218 H 304.01 4.00648 1.30612 0
M  V30 3219 H 302.734 2.81439 1.65709 0
M  V30 3220 H 301.393 3.65342 -0.303426 0
M  V30 3221 H 301.041 4.62677 1.9733 0
M  V30 3222 H 300.741 5.83435 0.698397 0
M  V30 3223 H 302.265 5.88456 1.62947 0
M  V30 3224 H 303.679 5.69781 -0.634274 0
M  V30 3225 H 302.076 5.83203 -1.41399 0
M  V30 3226 H 303.146 4.48514 -1.84292 0
M  V30 3227 N 304.489 0.459591 1.5075 0
M  V30 3228 C 305.439 -0.358926 2.25157 0
M  V30 3229 C 306.423 -0.971285 1.28276 0
M  V30 3230 O 307.615 -0.885739 1.53244 0
M  V30 3231 C 304.744 -1.44695 3.11317 0
M  V30 3232 C 303.83 -0.842894 4.15639 0
M  V30 3233 N 304.221 0.0299373 5.05791 0
M  V30 3234 C 302.519 -1.10809 4.32015 0
M  V30 3235 C 303.22 0.371563 5.80512 0
M  V30 3236 N 302.196 -0.250409 5.43023 0
M  V30 3237 H 305.998 0.313636 2.92222 0
M  V30 3238 H 303.512 0.273021 1.60089 0
M  V30 3239 H 305.509 -2.04641 3.63218 0
M  V30 3240 H 304.169 -2.12162 2.45799 0
M  V30 3241 H 305.18 0.39797 5.16369 0
M  V30 3242 H 301.857 -1.7786 3.77719 0
M  V30 3243 H 303.247 1.08319 6.63111 0
M  V30 3244 N 305.967 -1.56429 0.191757 0
M  V30 3245 C 307.207 -1.99383 -0.450099 0
M  V30 3246 C 307.571 -1.07581 -1.59029 0
M  V30 3247 O 308.772 -1.39758 -2.29611 0
M  V30 3248 C 307.043 -3.45841 -0.901611 0
M  V30 3249 S 308.602 -4.10822 -1.54177 0
M  V30 3250 H 305.42 -0.696253 -0.144057 0
M  V30 3251 H 308.022 -1.93276 0.294036 0
M  V30 3252 H 306.726 -4.10354 -0.0616596 0
M  V30 3253 H 306.257 -3.55757 -1.67929 0
M  V30 3254 H 308.272 -4.07553 -2.83046 0
M  V30 3255 N 307.445 0.0818655 -1.57387 0
M  V30 3256 C 308.673 0.796108 -1.9097 0
M  V30 3257 C 309.088 1.71626 -0.786757 0
M  V30 3258 O 308.445 1.80908 0.240513 0
M  V30 3259 C 308.496 1.59829 -3.24248 0
M  V30 3260 O 308.217 0.715131 -4.32224 0
M  V30 3261 C 309.718 2.41442 -3.7178 0
M  V30 3262 H 306.938 0.22691 -0.631469 0
M  V30 3263 H 309.482 0.0551439 -2.04426 0
M  V30 3264 H 307.637 2.29163 -3.12351 0
M  V30 3265 H 308.051 1.27205 -5.08841 0
M  V30 3266 H 309.525 2.932 -4.67694 0
M  V30 3267 H 310.002 3.2051 -3.00283 0
M  V30 3268 H 310.608 1.77283 -3.86589 0
M  V30 3269 N 308.923 1.53595 0.353017 0
M  V30 3270 C 310.339 1.43648 0.695516 0
M  V30 3271 C 310.539 0.585617 1.92802 0
M  V30 3272 O 309.595 0.0729223 2.52395 0
M  V30 3273 C 310.908 2.8701 0.896991 0
M  V30 3274 C 312.456 2.96723 0.996209 0
M  V30 3275 C 312.931 4.41173 1.23007 0
M  V30 3276 N 314.422 4.44657 1.29749 0
M  V30 3277 C 315.157 5.53547 1.49577 0
M  V30 3278 N 314.653 6.72461 1.66639 0
M  V30 3279 N 316.446 5.41145 1.52048 0
M  V30 3280 H 308.597 2.07415 -0.457481 0
M  V30 3281 H 310.86 0.9372 -0.142687 0
M  V30 3282 H 310.566 3.51644 0.0629938 0
M  V30 3283 H 310.44 3.31401 1.80148 0
M  V30 3284 H 312.827 2.32235 1.82074 0
M  V30 3285 H 312.908 2.55707 0.0688331 0
M  V30 3286 H 312.552 5.06238 0.410505 0
M  V30 3287 H 312.482 4.79772 2.17086 0
M  V30 3288 H 314.973 3.58963 1.18126 0
M  V30 3289 H 315.286 7.51214 1.81378 0
M  V30 3290 H 313.631 6.75423 1.63794 0
M  V30 3291 H 316.822 4.47205 1.38294 0
M  V30 3292 H 316.995 6.26068 1.67159 0
M  V30 3293 N 310.401 -0.613514 1.45168 0
M  V30 3294 C 311.349 -1.74572 1.53712 0
M  V30 3295 C 312.343 -1.64426 0.407505 0
M  V30 3296 O 313.549 -1.70291 0.583176 0
M  V30 3297 H 309.924 -0.576641 0.48269 0
M  V30 3298 H 311.895 -1.64492 2.48968 0
M  V30 3299 C 310.644 -3.12943 1.51532 0
M  V30 3300 H 309.967 -3.21407 2.37776 0
M  V30 3301 H 311.407 -3.9201 1.61569 0
M  V30 3302 C 309.866 -3.36053 0.238798 0
M  V30 3303 O 310.396 -3.95837 -0.6838 0
M  V30 3304 N 308.602 -2.9028 0.136359 0
M  V30 3305 H 308.149 -2.41811 0.887999 0
M  V30 3306 H 308.107 -3.06116 -0.716944 0
M  V30 3307 N 311.879 -1.3236 -0.855495 0
M  V30 3308 C 313.109 -1.25688 -1.6397 0
M  V30 3309 C 313.517 0.177592 -1.88365 0
M  V30 3310 O 312.86 1.12485 -1.45234 0
M  V30 3311 C 312.922 -1.94602 -3.02275 0
M  V30 3312 C 312.586 -3.43937 -3.00926 0
M  V30 3313 C 313.583 -4.39435 -2.77835 0
M  V30 3314 C 311.268 -3.85858 -3.21588 0
M  V30 3315 C 313.262 -5.74829 -2.75409 0
M  V30 3316 C 310.949 -5.21361 -3.18789 0
M  V30 3317 C 311.947 -6.15658 -2.95727 0
M  V30 3318 O 311.635 -7.48681 -2.928 0
M  V30 3319 H 311.367 -0.434972 -0.51747 0
M  V30 3320 H 313.921 -1.75023 -1.075 0
M  V30 3321 H 312.151 -1.39836 -3.60531 0
M  V30 3322 H 313.84 -1.81651 -3.62985 0
M  V30 3323 H 314.606 -4.08374 -2.6164 0
M  V30 3324 H 310.485 -3.12883 -3.38564 0
M  V30 3325 H 314.029 -6.48404 -2.57328 0
M  V30 3326 H 309.926 -5.52052 -3.34528 0
M  V30 3327 H 310.694 -7.5803 -3.0876 0
M  V30 3328 N 313.357 1.07166 -1.15556 0
M  V30 3329 C 314.606 1.79181 -0.926132 0
M  V30 3330 C 314.919 1.87768 0.547967 0
M  V30 3331 O 316.125 2.56323 0.895036 0
M  V30 3332 C 314.581 3.22 -1.60761 0
M  V30 3333 C 314.189 3.21607 -3.11886 0
M  V30 3334 C 315.933 3.9861 -1.4598 0
M  V30 3335 C 313.84 4.59092 -3.72812 0
M  V30 3336 H 312.77 0.67154 -0.342856 0
M  V30 3337 H 315.421 1.2027 -1.3859 0
M  V30 3338 H 313.803 3.81115 -1.07553 0
M  V30 3339 H 314.977 2.72127 -3.71865 0
M  V30 3340 H 313.292 2.58495 -3.2645 0
M  V30 3341 H 315.889 5.00225 -1.88888 0
M  V30 3342 H 316.232 4.143 -0.407541 0
M  V30 3343 H 316.765 3.45996 -1.96295 0
M  V30 3344 H 313.504 4.48606 -4.77946 0
M  V30 3345 H 313.024 5.08803 -3.17616 0
M  V30 3346 H 314.703 5.28059 -3.73848 0
M  V30 3347 N 314.835 0.952656 1.25548 0
M  V30 3348 C 315.785 0.442033 2.23674 0
M  V30 3349 C 316.769 -0.467632 1.53955 0
M  V30 3350 O 317.961 -0.301006 1.74422 0
M  V30 3351 C 315.09 -0.280816 3.4215 0
M  V30 3352 C 314.176 0.646803 4.19139 0
M  V30 3353 N 314.567 1.77759 4.73535 0
M  V30 3354 C 312.865 0.454617 4.43677 0
M  V30 3355 C 313.566 2.35658 5.31827 0
M  V30 3356 N 312.542 1.64333 5.18166 0
M  V30 3357 H 316.344 1.30505 2.63336 0
M  V30 3358 H 313.858 0.809904 1.40763 0
M  V30 3359 H 315.855 -0.663747 4.11582 0
M  V30 3360 H 314.515 -1.14046 3.04012 0
M  V30 3361 H 315.526 2.15949 4.7073 0
M  V30 3362 H 312.203 -0.362312 4.15925 0
M  V30 3363 H 313.593 3.30998 5.84713 0
M  V30 3364 N 316.313 -1.40141 0.720998 0
M  V30 3365 C 317.246 -2.2819 0.020916 0
M  V30 3366 C 318.224 -1.43633 -0.762129 0
M  V30 3367 O 319.408 -1.7304 -0.747633 0
M  V30 3368 C 316.535 -3.24281 -0.977715 0
M  V30 3369 C 315.581 -4.25548 -0.284836 0
M  V30 3370 S 316.414 -5.26247 0.991169 0
M  V30 3371 C 317.57 -6.259 -0.0052214 0
M  V30 3372 H 317.803 -2.87218 0.767649 0
M  V30 3373 H 315.336 -1.45656 0.512233 0
M  V30 3374 H 317.294 -3.80167 -1.54865 0
M  V30 3375 H 315.955 -2.643 -1.69719 0
M  V30 3376 H 315.148 -4.93154 -1.03996 0
M  V30 3377 H 314.75 -3.73389 0.213684 0
M  V30 3378 H 317.042 -6.72143 -0.850279 0
M  V30 3379 H 317.985 -7.05224 0.637599 0
M  V30 3380 H 318.393 -5.63277 -0.371366 0
M  V30 3381 N 317.792 -0.46758 -1.50504 0
M  V30 3382 C 318.74 0.342482 -2.30065 0
M  V30 3383 C 319.734 0.993596 -1.37201 0
M  V30 3384 O 320.94 0.925102 -1.54408 0
M  V30 3385 H 317.315 0.129283 -0.740803 0
M  V30 3386 H 319.286 -0.34899 -2.96352 0
M  V30 3387 C 318.035 1.4139 -3.17654 0
M  V30 3388 H 317.358 0.922264 -3.89017 0
M  V30 3389 H 318.798 1.95335 -3.76325 0
M  V30 3390 C 317.257 2.4139 -2.35016 0
M  V30 3391 O 317.787 3.46586 -2.03079 0
M  V30 3392 N 315.993 2.13021 -1.97662 0
M  V30 3393 H 315.54 1.27499 -2.23834 0
M  V30 3394 H 315.498 2.80164 -1.42673 0
M  V30 3395 N 319.27 1.56325 -0.20005 0
M  V30 3396 C 320.2 2.22318 0.713916 0
M  V30 3397 C 321.181 1.18788 1.21752 0
M  V30 3398 O 322.366 1.47309 1.26545 0
M  V30 3399 C 319.496 2.88639 1.93144 0
M  V30 3400 C 318.45 3.98457 1.56255 0
M  V30 3401 C 317.776 4.51967 2.85709 0
M  V30 3402 C 319.076 5.16612 0.768747 0
M  V30 3403 H 320.77 2.98952 0.163755 0
M  V30 3404 H 318.316 1.43792 0.0773219 0
M  V30 3405 H 320.269 3.33491 2.57608 0
M  V30 3406 H 318.993 2.09419 2.50621 0
M  V30 3407 H 317.652 3.54305 0.941471 0
M  V30 3408 H 317.3 3.69503 3.41287 0
M  V30 3409 H 317 5.26071 2.6177 0
M  V30 3410 H 318.524 4.99523 3.51154 0
M  V30 3411 H 319.938 5.57977 1.3166 0
M  V30 3412 H 318.335 5.96812 0.627286 0
M  V30 3413 H 319.405 4.84358 -0.229168 0
M  V30 3414 N 320.748 -0.0735177 1.57428 0
M  V30 3415 C 321.995 -0.772999 1.87166 0
M  V30 3416 C 322.323 -1.77665 0.791551 0
M  V30 3417 O 321.578 -1.94541 -0.212636 0
M  V30 3418 C 321.877 -1.51799 3.23561 0
M  V30 3419 C 321.543 -0.654484 4.46125 0
M  V30 3420 C 320.205 -0.416511 4.79394 0
M  V30 3421 C 322.557 -0.0555862 5.2117 0
M  V30 3422 C 319.885 0.429869 5.85123 0
M  V30 3423 C 322.237 0.778239 6.27795 0
M  V30 3424 C 320.901 1.0261 6.59566 0
M  V30 3425 H 320.171 -0.282861 0.684888 0
M  V30 3426 H 322.818 -0.0338272 1.9147 0
M  V30 3427 H 321.123 -2.32932 3.1504 0
M  V30 3428 H 322.82 -2.06397 3.43804 0
M  V30 3429 H 319.41 -0.850091 4.20085 0
M  V30 3430 H 323.594 -0.226558 4.95783 0
M  V30 3431 H 318.85 0.630665 6.08139 0
M  V30 3432 H 323.024 1.24906 6.85107 0
M  V30 3433 H 320.651 1.68371 7.4132 0
M  V30 3434 N 322.226 -1.5378 -0.344866 0
M  V30 3435 C 323.189 -1.80981 -1.40637 0
M  V30 3436 C 324.189 -0.680816 -1.45676 0
M  V30 3437 O 325.379 -0.949095 -1.46075 0
M  V30 3438 C 322.511 -1.95063 -2.79577 0
M  V30 3439 H 323.704 -2.75803 -1.17783 0
M  V30 3440 H 321.257 -1.45173 -0.579181 0
M  V30 3441 H 321.992 -1.02379 -3.07716 0
M  V30 3442 H 321.777 -2.77198 -2.77315 0
M  V30 3443 H 323.267 -2.17629 -3.56409 0
M  V30 3444 N 323.704 0.605807 -1.45491 0
M  V30 3445 C 324.929 1.39625 -1.53361 0
M  V30 3446 C 325.354 1.87351 -0.167645 0
M  V30 3447 O 324.712 1.60243 0.848051 0
M  V30 3448 C 324.76 2.57559 -2.5238 0
M  V30 3449 O 323.864 3.58248 -2.04285 0
M  V30 3450 H 323.205 0.416771 -0.516912 0
M  V30 3451 H 325.735 0.737103 -1.90861 0
M  V30 3452 H 325.745 3.0478 -2.71244 0
M  V30 3453 H 324.42 2.22171 -3.51586 0
M  V30 3454 H 322.997 3.17664 -1.95305 0
M  V30 3455 N 325.182 1.32811 0.848464 0
M  V30 3456 C 326.429 1.23724 1.60308 0
M  V30 3457 C 326.757 -0.1994 1.93475 0
M  V30 3458 O 326.012 -1.15406 1.5805 0
M  V30 3459 C 326.311 2.04831 2.92881 0
M  V30 3460 C 325.977 3.54125 2.79117 0
M  V30 3461 C 324.639 3.94829 2.7507 0
M  V30 3462 C 326.991 4.49036 2.64606 0
M  V30 3463 C 324.319 5.28675 2.544 0
M  V30 3464 C 326.671 5.83033 2.4547 0
M  V30 3465 C 325.335 6.22931 2.39819 0
M  V30 3466 H 324.605 0.452737 0.586609 0
M  V30 3467 H 327.252 1.64301 0.983743 0
M  V30 3468 H 325.557 1.57001 3.58968 0
M  V30 3469 H 327.254 1.95164 3.50303 0
M  V30 3470 H 323.844 3.21801 2.83094 0
M  V30 3471 H 328.028 4.18505 2.66772 0
M  V30 3472 H 323.284 5.58637 2.48465 0
M  V30 3473 H 327.458 6.56186 2.33222 0
M  V30 3474 H 325.085 7.26584 2.23562 0
M  V30 3475 N 326.66 -1.06551 1.16123 0
M  V30 3476 C 327.909 -1.78687 0.935622 0
M  V30 3477 C 328.222 -1.88056 -0.538001 0
M  V30 3478 O 329.428 -2.56794 -0.88143 0
M  V30 3479 C 327.884 -3.21143 1.62466 0
M  V30 3480 C 327.492 -3.19949 3.13587 0
M  V30 3481 C 329.236 -3.9783 1.48092 0
M  V30 3482 C 327.143 -4.57108 3.75241 0
M  V30 3483 H 326.073 -0.669712 0.346412 0
M  V30 3484 H 328.724 -1.19534 1.39226 0
M  V30 3485 H 327.106 -3.80539 1.09572 0
M  V30 3486 H 328.28 -2.70151 3.73303 0
M  V30 3487 H 326.595 -2.5676 3.27816 0
M  V30 3488 H 329.192 -4.99217 1.91538 0
M  V30 3489 H 329.535 -4.14078 0.429507 0
M  V30 3490 H 330.068 -3.4495 1.98127 0
M  V30 3491 H 326.807 -4.46065 4.80319 0
M  V30 3492 H 326.327 -5.07111 3.20309 0
M  V30 3493 H 328.006 -5.26069 3.76644 0
M  V30 3494 N 328.138 -0.959301 -1.25041 0
M  V30 3495 C 329.068 -0.501388 -2.28053 0
M  V30 3496 C 330.049 0.454673 -1.63911 0
M  V30 3497 O 331.234 0.352618 -1.90972 0
M  V30 3498 C 328.364 0.217224 -3.4662 0
M  V30 3499 C 327.318 -0.654034 -4.22973 0
M  V30 3500 C 326.644 0.195589 -5.34342 0
M  V30 3501 C 327.944 -1.93447 -4.85155 0
M  V30 3502 H 329.638 -1.36238 -2.66608 0
M  V30 3503 H 327.184 -0.656534 -1.28163 0
M  V30 3504 H 329.137 0.548732 -4.17812 0
M  V30 3505 H 327.861 1.1125 -3.07068 0
M  V30 3506 H 326.52 -0.968693 -3.5357 0
M  V30 3507 H 326.168 1.09076 -4.91031 0
M  V30 3508 H 325.868 -0.384091 -5.86343 0
M  V30 3509 H 327.392 0.521958 -6.08365 0
M  V30 3510 H 328.806 -1.66908 -5.48466 0
M  V30 3511 H 327.203 -2.46018 -5.47353 0
M  V30 3512 H 328.273 -2.63466 -4.07079 0
M  V30 3513 N 329.616 1.39756 -0.72842 0
M  V30 3514 C 331.032 1.5442 -0.403308 0
M  V30 3515 C 331.232 1.69694 1.08656 0
M  V30 3516 O 330.288 1.69373 1.87267 0
M  V30 3517 C 331.601 2.76555 -1.18058 0
M  V30 3518 C 333.149 2.90384 -1.16815 0
M  V30 3519 C 333.624 4.15449 -1.92785 0
M  V30 3520 N 335.115 4.22475 -1.89918 0
M  V30 3521 C 335.85 5.1818 -2.45514 0
M  V30 3522 N 335.346 6.19714 -3.09719 0
M  V30 3523 N 337.139 5.1035 -2.35584 0
M  V30 3524 H 329.29 1.28089 -1.69431 0
M  V30 3525 H 331.553 0.620327 -0.716867 0
M  V30 3526 H 331.259 2.7159 -2.23455 0
M  V30 3527 H 331.133 3.69033 -0.780662 0
M  V30 3528 H 333.52 2.94846 -0.12234 0
M  V30 3529 H 333.601 1.98988 -1.6074 0
M  V30 3530 H 333.245 4.11749 -2.97364 0
M  V30 3531 H 333.175 5.05877 -1.46272 0
M  V30 3532 H 335.666 3.49743 -1.43138 0
M  V30 3533 H 335.979 6.8919 -3.49625 0
M  V30 3534 H 334.324 6.20121 -3.13807 0
M  V30 3535 H 337.515 4.2996 -1.85072 0
M  V30 3536 H 337.688 5.84761 -2.79211 0
M  V30 3537 N 331.094 0.475555 1.50254 0
M  V30 3538 C 332.322 -0.0754493 2.06762 0
M  V30 3539 C 332.737 -1.33111 1.33891 0
M  V30 3540 O 332.094 -1.77846 0.40952 0
M  V30 3541 C 332.145 -0.359008 3.59713 0
M  V30 3542 O 331.866 0.846851 4.29837 0
M  V30 3543 C 333.367 -0.956484 4.32858 0
M  V30 3544 H 330.587 0.00907525 0.670939 0
M  V30 3545 H 333.131 0.665618 1.93364 0
M  V30 3546 H 331.286 -1.05001 3.72899 0
M  V30 3547 H 331.7 0.594162 5.21124 0
M  V30 3548 H 333.174 -1.10463 5.40834 0
M  V30 3549 H 333.651 -1.94775 3.93649 0
M  V30 3550 H 334.257 -0.303723 4.24214 0
M  V30 3551 N 332.573 -1.56217 0.208337 0
M  V30 3552 C 333.503 -2.22694 -0.702116 0
M  V30 3553 C 334.484 -1.19432 -1.2112 0
M  V30 3554 O 335.669 -1.47978 -1.25762 0
M  V30 3555 C 332.799 -2.8966 -1.9161 0
M  V30 3556 C 331.753 -3.9928 -1.5414 0
M  V30 3557 C 331.079 -4.53476 -2.83308 0
M  V30 3558 C 332.379 -5.17012 -0.741339 0
M  V30 3559 H 334.073 -2.99034 -0.147898 0
M  V30 3560 H 331.619 -1.43831 -0.0696951 0
M  V30 3561 H 333.572 -3.34852 -2.55836 0
M  V30 3562 H 332.296 -2.10746 -2.49507 0
M  V30 3563 H 330.955 -3.54799 -0.922668 0
M  V30 3564 H 330.603 -3.71308 -3.39322 0
M  V30 3565 H 330.303 -5.27451 -2.58976 0
M  V30 3566 H 331.827 -5.01378 -3.485 0
M  V30 3567 H 333.241 -5.58667 -1.28699 0
M  V30 3568 H 331.638 -5.97137 -0.595627 0
M  V30 3569 H 332.708 -4.8423 0.254851 0
M  V30 3570 N 334.051 0.0651679 -1.57465 0
M  V30 3571 C 335.014 1.06117 -2.03155 0
M  V30 3572 C 336.014 1.31204 -0.929632 0
M  V30 3573 O 337.204 1.26813 -1.19432 0
M  V30 3574 C 334.336 2.4032 -2.41783 0
M  V30 3575 H 335.529 0.667231 -2.92383 0
M  V30 3576 H 333.082 0.311075 -1.53173 0
M  V30 3577 H 333.817 2.84532 -1.55601 0
M  V30 3578 H 333.602 2.23451 -3.22199 0
M  V30 3579 H 335.092 3.11898 -2.77685 0
M  V30 3580 N 335.529 1.53961 0.336706 0
M  V30 3581 C 336.775 1.7179 1.07777 0
M  V30 3582 C 337.108 0.483263 1.88091 0
M  V30 3583 O 336.383 -0.519747 1.87427 0
M  V30 3584 C 336.666 2.98558 2.01334 0
M  V30 3585 C 336.519 4.32245 1.24437 0
M  V30 3586 C 337.838 3.21023 3.01052 0
M  V30 3587 H 334.957 0.625089 0.390426 0
M  V30 3588 H 337.599 1.86641 0.35567 0
M  V30 3589 H 335.749 2.86028 2.62908 0
M  V30 3590 H 337.421 4.56637 0.654243 0
M  V30 3591 H 335.664 4.30344 0.546458 0
M  V30 3592 H 336.335 5.17137 1.93063 0
M  V30 3593 H 338.811 3.32929 2.49595 0
M  V30 3594 H 337.687 4.11104 3.6371 0
M  V30 3595 H 337.948 2.37637 3.72802 0
M  V30 3596 N 337.007 -0.598083 1.45811 0
M  V30 3597 C 337.937 -1.71873 1.58057 0
M  V30 3598 C 338.918 -1.64533 0.431615 0
M  V30 3599 O 340.103 -1.82787 0.65595 0
M  V30 3600 C 337.233 -3.10495 1.55597 0
M  V30 3601 C 336.187 -3.32654 2.69305 0
M  V30 3602 C 335.513 -4.71646 2.51902 0
M  V30 3603 C 336.813 -3.21981 4.11248 0
M  V30 3604 H 338.507 -1.61881 2.51863 0
M  V30 3605 H 336.053 -0.777372 1.21214 0
M  V30 3606 H 338.006 -3.88699 1.6276 0
M  V30 3607 H 336.73 -3.2135 0.583255 0
M  V30 3608 H 335.389 -2.56843 2.61586 0
M  V30 3609 H 335.037 -4.79246 1.52748 0
M  V30 3610 H 334.737 -4.87426 3.2816 0
M  V30 3611 H 336.261 -5.52038 2.60933 0
M  V30 3612 H 337.675 -3.90049 4.20161 0
M  V30 3613 H 336.072 -3.49289 4.87972 0
M  V30 3614 H 337.142 -2.1928 4.32486 0
M  V30 3615 N 338.485 -1.33259 -0.841409 0
M  V30 3616 C 339.731 -1.24757 -1.59886 0
M  V30 3617 C 340.064 0.186913 -1.93298 0
M  V30 3618 O 339.339 1.12757 -1.5848 0
M  V30 3619 C 339.622 -2.12036 -2.91055 0
M  V30 3620 C 339.475 -3.63929 -2.6434 0
M  V30 3621 C 340.794 -1.9916 -3.92458 0
M  V30 3622 H 337.913 -0.454542 -0.580138 0
M  V30 3623 H 340.555 -1.63335 -0.970647 0
M  V30 3624 H 338.705 -1.79265 -3.44669 0
M  V30 3625 H 340.377 -4.06978 -2.17178 0
M  V30 3626 H 338.62 -3.85935 -1.98082 0
M  V30 3627 H 339.291 -4.20341 -3.57796 0
M  V30 3628 H 341.767 -2.27895 -3.48143 0
M  V30 3629 H 340.643 -2.62484 -4.82072 0
M  V30 3630 H 340.904 -0.963082 -4.31482 0
M  V30 3631 N 339.963 1.05934 -1.16686 0
M  V30 3632 C 340.91 2.13499 -0.876748 0
M  V30 3633 C 341.88 1.65162 0.176299 0
M  V30 3634 O 343.065 1.90757 0.0407143 0
M  V30 3635 C 340.205 3.42912 -0.387967 0
M  V30 3636 C 339.318 4.04964 -1.50426 0
M  V30 3637 C 338.453 5.22266 -0.970125 0
M  V30 3638 C 337.492 5.76309 -2.06238 0
M  V30 3639 N 336.629 6.84922 -1.54356 0
M  V30 3640 H 341.469 2.37654 -1.7979 0
M  V30 3641 H 339.006 1.16598 -0.896843 0
M  V30 3642 H 340.964 4.17111 -0.086186 0
M  V30 3643 H 339.594 3.18963 0.496235 0
M  V30 3644 H 338.646 3.28277 -1.92193 0
M  V30 3645 H 339.958 4.41122 -2.32836 0
M  V30 3646 H 339.112 6.03506 -0.621743 0
M  V30 3647 H 337.851 4.87564 -0.115377 0
M  V30 3648 H 336.856 4.93704 -2.41942 0
M  V30 3649 H 338.081 6.13062 -2.92115 0
M  V30 3650 H 336.027 6.52131 -0.711406 0
M  V30 3651 H 335.944 7.20043 -2.30379 0
M  V30 3652 H 337.212 7.69832 -1.22387 0
M  V30 3653 N 341.441 0.965919 1.2453 0
M  V30 3654 C 342.718 0.543777 1.87889 0
M  V30 3655 C 343.098 -0.97909 1.87021 0
M  V30 3656 O 342.446 -1.84969 1.3416 0
M  V30 3657 C 342.656 1.13327 3.30088 0
M  V30 3658 C 344.004 1.21707 4.06783 0
M  V30 3659 O 345.028 1.08566 3.39252 0
M  V30 3660 O 343.887 1.42456 5.27606 0
M  V30 3661 H 340.981 0.181054 0.806938 0
M  V30 3662 H 343.527 1.06007 1.32516 0
M  V30 3663 H 342.299 2.17612 3.25209 0
M  V30 3664 H 341.922 0.600911 3.93033 0
M  V30 3665 N 342.919 -1.39368 0.735821 0
M  V30 3666 C 344.165 -2.00794 0.284544 0
M  V30 3667 C 344.498 -1.58255 -1.12557 0
M  V30 3668 O 343.773 -0.811819 -1.76748 0
M  V30 3669 C 344.056 -3.58011 0.387337 0
M  V30 3670 C 343.909 -4.10566 1.83728 0
M  V30 3671 C 345.228 -4.395 -0.22975 0
M  V30 3672 H 342.347 -0.729501 0.104866 0
M  V30 3673 H 344.989 -1.65564 0.93213 0
M  V30 3674 H 343.139 -3.88154 -0.164006 0
M  V30 3675 H 344.811 -3.91139 2.44556 0
M  V30 3676 H 343.054 -3.64095 2.35833 0
M  V30 3677 H 343.725 -5.19702 1.86047 0
M  V30 3678 H 346.201 -4.15406 0.240257 0
M  V30 3679 H 345.077 -5.48752 -0.127485 0
M  V30 3680 H 345.338 -4.22062 -1.3159 0
M  V30 3681 N 344.397 -0.483516 -1.5 0
M  V30 3682 C 345.643 0.0672592 -2.02688 0
M  V30 3683 C 345.976 1.38247 -1.36387 0
M  V30 3684 O 345.251 1.88131 -0.493675 0
M  V30 3685 C 345.534 0.238109 -3.59312 0
M  V30 3686 C 345.387 -1.099 -4.36168 0
M  V30 3687 C 346.706 0.986916 -4.28892 0
M  V30 3688 H 343.825 0.0229696 -0.736642 0
M  V30 3689 H 346.467 -0.631527 -1.79197 0
M  V30 3690 H 344.617 0.8333 -3.79458 0
M  V30 3691 H 346.289 -1.73172 -4.27562 0
M  V30 3692 H 344.532 -1.69261 -3.99416 0
M  V30 3693 H 345.203 -0.932954 -5.44059 0
M  V30 3694 H 347.679 0.482302 -4.13295 0
M  V30 3695 H 346.555 1.07527 -5.38265 0
M  V30 3696 H 346.816 2.0265 -3.92919 0
M  V30 3697 N 345.875 1.56104 -0.216619 0
M  V30 3698 C 347.122 1.98172 0.416416 0
M  V30 3699 C 347.45 1.10413 1.60122 0
M  V30 3700 O 346.705 0.147967 1.9514 0
M  V30 3701 C 347.004 3.45923 0.898464 0
M  V30 3702 C 346.67 4.50559 -0.175288 0
M  V30 3703 C 345.332 4.78897 -0.470271 0
M  V30 3704 C 347.684 5.1334 -0.901728 0
M  V30 3705 C 345.012 5.67299 -1.4963 0
M  V30 3706 C 347.364 6.02853 -1.91705 0
M  V30 3707 C 346.028 6.29537 -2.21901 0
M  V30 3708 H 345.298 0.725164 0.152377 0
M  V30 3709 H 347.945 1.88839 -0.318103 0
M  V30 3710 H 346.25 3.52434 1.71165 0
M  V30 3711 H 347.947 3.75841 1.39803 0
M  V30 3712 H 344.537 4.28551 0.0647806 0
M  V30 3713 H 348.721 4.91521 -0.687072 0
M  V30 3714 H 343.977 5.86239 -1.73592 0
M  V30 3715 H 348.151 6.50552 -2.48505 0
M  V30 3716 H 345.778 6.97835 -3.01548 0
M  V30 3717 N 347.353 -0.0568162 1.57498 0
M  V30 3718 C 348.583 -0.764515 1.91934 0
M  V30 3719 C 348.991 -1.70877 0.81227 0
M  V30 3720 O 348.334 -1.82351 -0.222213 0
M  V30 3721 C 348.396 -1.5994 3.21962 0
M  V30 3722 C 348.06 -0.822925 4.4953 0
M  V30 3723 C 349.057 -0.135464 5.19723 0
M  V30 3724 C 346.742 -0.785666 4.96117 0
M  V30 3725 C 348.736 0.578861 6.34766 0
M  V30 3726 C 346.423 -0.0675784 6.11063 0
M  V30 3727 C 347.421 0.613471 6.80239 0
M  V30 3728 O 347.109 1.31996 7.92989 0
M  V30 3729 H 346.841 -0.221647 0.63863 0
M  V30 3730 H 349.395 -0.0268218 2.05382 0
M  V30 3731 H 347.625 -2.38026 3.04763 0
M  V30 3732 H 349.314 -2.18715 3.41934 0
M  V30 3733 H 350.08 -0.155458 4.84751 0
M  V30 3734 H 345.959 -1.30524 4.42136 0
M  V30 3735 H 349.503 1.111 6.88696 0
M  V30 3736 H 345.4 -0.0455636 6.45484 0
M  V30 3737 H 346.168 1.23077 8.09194 0
M  V30 3738 N 348.832 -1.54138 -0.328536 0
M  V30 3739 C 349.78 -1.83894 -1.42428 0
M  V30 3740 C 350.774 -0.710478 -1.53781 0
M  V30 3741 O 351.98 -0.894062 -1.56226 0
M  V30 3742 H 348.355 -0.582837 -0.475189 0
M  V30 3743 H 350.326 -2.75537 -1.14552 0
M  V30 3744 C 349.075 -2.07866 -2.78724 0
M  V30 3745 H 348.398 -2.94158 -2.7076 0
M  V30 3746 H 349.838 -2.32644 -3.54476 0
M  V30 3747 C 348.297 -0.868689 -3.25508 0
M  V30 3748 O 348.827 -0.0754908 -4.01629 0
M  V30 3749 N 347.033 -0.681711 -2.82491 0
M  V30 3750 H 346.58 -1.32838 -2.20708 0
M  V30 3751 H 346.538 0.126374 -3.14146 0
M  V30 3752 N 350.31 0.590341 -1.46126 0
M  V30 3753 C 351.535 1.37991 -1.54833 0
M  V30 3754 C 351.96 1.87163 -0.187506 0
M  V30 3755 O 351.318 1.61133 0.831008 0
M  V30 3756 C 351.366 2.54867 -2.55098 0
M  V30 3757 O 350.47 3.56061 -2.08073 0
M  V30 3758 H 349.811 0.411265 -0.521303 0
M  V30 3759 H 352.341 0.716819 -1.91632 0
M  V30 3760 H 352.351 3.01886 -2.74461 0
M  V30 3761 H 351.026 2.18429 -3.53923 0
M  V30 3762 H 349.603 3.15574 -1.98664 0
M  V30 3763 N 351.788 1.33704 0.83433 0
M  V30 3764 C 353.018 1.28281 1.6195 0
M  V30 3765 C 353.426 -0.147603 1.88623 0
M  V30 3766 O 352.769 -1.1016 1.47005 0
M  V30 3767 C 352.831 1.99386 2.99141 0
M  V30 3768 C 352.495 3.48681 2.95416 0
M  V30 3769 C 353.492 4.438 2.70809 0
M  V30 3770 C 351.177 3.90925 3.15409 0
M  V30 3771 C 353.171 5.79138 2.66229 0
M  V30 3772 C 350.858 5.26366 3.10454 0
M  V30 3773 C 351.856 6.20284 2.85895 0
M  V30 3774 O 351.544 7.53245 2.80852 0
M  V30 3775 H 351.276 0.44315 0.510484 0
M  V30 3776 H 353.83 1.76711 1.04702 0
M  V30 3777 H 352.06 1.45554 3.58261 0
M  V30 3778 H 353.749 1.87403 3.60049 0
M  V30 3779 H 354.515 4.12485 2.5511 0
M  V30 3780 H 350.394 3.18229 3.33543 0
M  V30 3781 H 353.938 6.52416 2.4698 0
M  V30 3782 H 349.835 5.57304 3.25703 0
M  V30 3783 H 350.603 7.62846 2.96661 0
M  V30 3784 N 353.266 -1.05314 1.17247 0
M  V30 3785 C 354.491 -1.82509 0.985148 0
M  V30 3786 C 354.916 -1.82343 -0.461788 0
M  V30 3787 O 354.274 -1.23151 -1.33055 0
M  V30 3788 C 354.322 -3.26566 1.52929 0
M  V30 3789 O 353.426 -4.05666 0.742225 0
M  V30 3790 H 352.767 -0.564347 0.349869 0
M  V30 3791 H 355.297 -1.32718 1.55715 0
M  V30 3792 H 355.307 -3.77369 1.55103 0
M  V30 3793 H 353.982 -3.26001 2.58256 0
M  V30 3794 H 352.559 -3.64397 0.791794 0
M  V30 3795 N 354.744 -0.972509 -1.24016 0
M  V30 3796 C 355.691 -0.505969 -2.25186 0
M  V30 3797 C 356.661 0.451009 -1.5986 0
M  V30 3798 O 357.846 0.360307 -1.87367 0
M  V30 3799 C 354.986 0.193089 -3.44559 0
M  V30 3800 C 354.099 -0.803222 -4.24467 0
M  V30 3801 C 353.234 -0.0797793 -5.3114 0
M  V30 3802 C 352.273 -1.06583 -6.02749 0
M  V30 3803 N 351.41 -0.372074 -7.01113 0
M  V30 3804 H 356.25 -1.37351 -2.64459 0
M  V30 3805 H 353.787 -0.688419 -1.29997 0
M  V30 3806 H 355.745 0.615125 -4.1264 0
M  V30 3807 H 354.375 1.02455 -3.06109 0
M  V30 3808 H 353.427 -1.34368 -3.55878 0
M  V30 3809 H 354.739 -1.55494 -4.73944 0
M  V30 3810 H 353.893 0.400015 -6.0538 0
M  V30 3811 H 352.632 0.704597 -4.82583 0
M  V30 3812 H 351.637 -1.55645 -5.27309 0
M  V30 3813 H 352.862 -1.85074 -6.53395 0
M  V30 3814 H 350.808 0.393238 -6.5482 0
M  V30 3815 H 350.725 -1.06258 -7.48495 0
M  V30 3816 H 351.993 0.0855932 -7.79453 0
M  V30 3817 N 356.222 1.38976 -0.743202 0
M  V30 3818 C 357.638 1.53984 -0.419664 0
M  V30 3819 C 357.838 1.70837 1.0685 0
M  V30 3820 O 356.894 1.7135 1.8546 0
M  V30 3821 C 358.207 2.75287 -1.20985 0
M  V30 3822 C 359.755 2.89129 -1.19889 0
M  V30 3823 C 360.23 4.13381 -1.97181 0
M  V30 3824 N 361.721 4.20437 -1.94389 0
M  V30 3825 C 362.456 5.15547 -2.50996 0
M  V30 3826 N 361.952 6.16395 -3.16274 0
M  V30 3827 N 363.745 5.07822 -2.40984 0
M  V30 3828 H 355.896 1.26285 -1.7078 0
M  V30 3829 H 358.159 0.612689 -0.723406 0
M  V30 3830 H 357.865 2.69204 -2.26323 0
M  V30 3831 H 357.739 3.68184 -0.819759 0
M  V30 3832 H 360.126 2.947 -0.153606 0
M  V30 3833 H 360.207 1.97272 -1.62841 0
M  V30 3834 H 359.851 4.08572 -3.01714 0
M  V30 3835 H 359.781 5.04298 -1.51629 0
M  V30 3836 H 362.272 3.48205 -1.46839 0
M  V30 3837 H 362.585 6.85443 -3.56915 0
M  V30 3838 H 360.93 6.16758 -3.20367 0
M  V30 3839 H 364.121 4.27973 -1.89622 0
M  V30 3840 H 364.294 5.81767 -2.85397 0
M  V30 3841 N 357.7 0.491464 1.49741 0
M  V30 3842 C 359.111 0.0413169 1.86654 0
M  V30 3843 C 359.462 -1.36985 1.40462 0
M  V30 3844 O 358.587 -2.01917 0.778354 0
M  V30 3845 C 359.182 0.0682023 3.38731 0
M  V30 3846 C 357.741 -0.32656 3.74981 0
M  V30 3847 C 356.888 0.444888 2.73708 0
M  V30 3848 H 359.839 0.704733 1.42194 0
M  V30 3849 H 359.86 -0.729322 3.73445 0
M  V30 3850 H 359.372 1.09539 3.72321 0
M  V30 3851 H 357.473 -1.35734 3.46997 0
M  V30 3852 H 357.586 -0.013741 4.79098 0
M  V30 3853 H 355.95 -0.104062 2.54487 0
M  V30 3854 H 356.733 1.47197 3.10142 0
M  V30 3855 N 359.178 -1.55987 0.224894 0
M  V30 3856 C 360.455 -1.90232 -0.455083 0
M  V30 3857 C 360.835 -1.14269 -1.77499 0
M  V30 3858 O 360.183 -0.253079 -2.27094 0
M  V30 3859 C 360.393 -3.42993 -0.644758 0
M  V30 3860 C 361.741 -4.13821 -0.950669 0
M  V30 3861 O 362.765 -3.4861 -0.731423 0
M  V30 3862 O 361.624 -5.29128 -1.36695 0
M  V30 3863 H 358.718 -0.79108 -0.241084 0
M  V30 3864 H 361.264 -1.67581 0.267327 0
M  V30 3865 H 360.036 -3.90252 0.28613 0
M  V30 3866 H 359.659 -3.71434 -1.41853 0
M  V30 3867 N 360.656 0.0484629 -1.57525 0
M  V30 3868 C 361.604 1.07359 -2.06341 0
M  V30 3869 C 362.598 1.3865 -0.973269 0
M  V30 3870 O 363.804 1.37783 -1.15827 0
M  V30 3871 H 360.179 0.363662 -0.65822 0
M  V30 3872 H 362.15 0.635916 -2.91545 0
M  V30 3873 C 360.899 2.37198 -2.54229 0
M  V30 3874 H 360.222 2.13977 -3.37719 0
M  V30 3875 H 361.662 3.07319 -2.92115 0
M  V30 3876 C 360.121 3.04805 -1.43511 0
M  V30 3877 O 360.651 3.93848 -0.79034 0
M  V30 3878 N 358.857 2.65811 -1.17444 0
M  V30 3879 H 358.404 1.93488 -1.70059 0
M  V30 3880 H 358.362 3.11366 -0.435737 0
M  V30 3881 N 362.134 1.5431 0.320358 0
M  V30 3882 C 363.044 1.86946 1.41734 0
M  V30 3883 C 364.06 0.761689 1.56443 0
M  V30 3884 O 365.236 1.05629 1.71477 0
M  V30 3885 C 362.301 2.09293 2.76401 0
M  V30 3886 C 361.362 3.33082 2.70841 0
M  V30 3887 C 360.595 3.54353 3.99086 0
M  V30 3888 O 360.818 2.79002 4.97508 0
M  V30 3889 O 359.752 4.47838 4.0215 0
M  V30 3890 H 363.578 2.80232 1.17062 0
M  V30 3891 H 361.163 1.40255 0.514673 0
M  V30 3892 H 363.045 2.25303 3.56113 0
M  V30 3893 H 361.72 1.19194 3.00956 0
M  V30 3894 H 360.627 3.22454 1.89668 0
M  V30 3895 H 361.96 4.23249 2.5124 0
M  V30 3896 N 363.613 -0.582584 1.46437 0
M  V30 3897 C 364.561 -1.71272 1.5738 0
M  V30 3898 C 365.555 -1.63524 0.44229 0
M  V30 3899 O 366.761 -1.69016 0.619166 0
M  V30 3900 H 363.136 -0.566273 0.494813 0
M  V30 3901 H 365.107 -1.59174 2.52401 0
M  V30 3902 C 363.856 -3.09658 1.58136 0
M  V30 3903 H 363.179 -3.16291 2.44541 0
M  V30 3904 H 364.619 -3.88494 1.69847 0
M  V30 3905 C 363.078 -3.3547 0.310026 0
M  V30 3906 O 363.608 -3.97199 -0.599683 0
M  V30 3907 N 361.814 -2.89925 0.197901 0
M  V30 3908 H 361.361 -2.39873 0.93909 0
M  V30 3909 H 361.319 -3.07568 -0.65185 0
M  V30 3910 N 365.091 -1.34144 -0.827227 0
M  V30 3911 C 366.339 -1.26009 -1.58007 0
M  V30 3912 C 366.66 0.170971 -1.94249 0
M  V30 3913 O 365.93 1.10256 -1.61927 0
M  V30 3914 H 364.51 -0.463414 -0.585881 0
M  V30 3915 H 367.172 -1.68005 -0.987951 0
M  V30 3916 H 366.268 -1.86187 -2.50481 0
M  V30 3917 N 366.569 1.04691 -1.17803 0
M  V30 3918 C 367.815 1.78181 -0.980977 0
M  V30 3919 C 368.17 1.86191 0.484825 0
M  V30 3920 O 367.463 1.35436 1.35527 0
M  V30 3921 C 367.657 3.21467 -1.56186 0
M  V30 3922 C 367.486 3.27422 -3.08261 0
M  V30 3923 C 366.256 3.36415 -3.77032 0
M  V30 3924 C 368.454 3.15947 -4.0581 0
M  V30 3925 N 366.436 3.31554 -5.16667 0
M  V30 3926 C 367.807 3.18514 -5.31929 0
M  V30 3927 C 369.862 2.99945 -3.97413 0
M  V30 3928 C 368.565 3.06723 -6.50625 0
M  V30 3929 C 370.591 2.89497 -5.15699 0
M  V30 3930 C 369.953 2.92702 -6.40706 0
M  V30 3931 H 366.052 0.6641 -0.412911 0
M  V30 3932 H 368.636 1.24762 -1.49474 0
M  V30 3933 H 366.807 3.73245 -1.07436 0
M  V30 3934 H 368.539 3.8322 -1.30093 0
M  V30 3935 H 365.294 3.41887 -3.27735 0
M  V30 3936 H 365.718 3.3258 -5.89678 0
M  V30 3937 H 370.36 2.96302 -3.01604 0
M  V30 3938 H 368.078 3.0912 -7.46639 0
M  V30 3939 H 371.664 2.78179 -5.10987 0
M  V30 3940 H 370.544 2.84697 -7.30696 0
M  V30 3941 N 368.047 0.979072 1.23499 0
M  V30 3942 C 368.98 0.463027 2.23453 0
M  V30 3943 C 369.958 -0.469128 1.55685 0
M  V30 3944 O 371.142 -0.397882 1.84253 0
M  V30 3945 C 368.269 -0.330308 3.37086 0
M  V30 3946 C 367.315 0.545795 4.22993 0
M  V30 3947 S 368.148 1.99285 4.97037 0
M  V30 3948 C 369.304 1.20862 6.1412 0
M  V30 3949 H 369.537 1.31005 2.6688 0
M  V30 3950 H 367.07 0.784965 1.32957 0
M  V30 3951 H 369.028 -0.782027 4.02982 0
M  V30 3952 H 367.689 -1.15244 2.92194 0
M  V30 3953 H 366.882 -0.0638928 5.03959 0
M  V30 3954 H 366.484 0.933705 3.62157 0
M  V30 3955 H 368.776 0.469284 6.75873 0
M  V30 3956 H 369.719 1.99307 6.79472 0
M  V30 3957 H 370.127 0.727992 5.59786 0
M  V30 3958 N 369.525 -1.3858 0.750561 0
M  V30 3959 C 370.75 -2.04997 0.314812 0
M  V30 3960 C 371.175 -1.56235 -1.04749 0
M  V30 3961 O 370.533 -0.712981 -1.66692 0
M  V30 3962 C 370.581 -3.58961 0.343415 0
M  V30 3963 O 369.685 -4.07025 -0.663628 0
M  V30 3964 H 369.026 -0.649081 0.139962 0
M  V30 3965 H 371.556 -1.77313 1.02084 0
M  V30 3966 H 371.566 -4.07542 0.193233 0
M  V30 3967 H 370.241 -3.93811 1.33738 0
M  V30 3968 H 368.818 -3.6982 -0.478307 0
M  V30 3969 N 371.003 -0.499398 -1.49478 0
M  V30 3970 C 372.233 0.0424839 -2.06556 0
M  V30 3971 C 372.641 1.31514 -1.36018 0
M  V30 3972 O 371.984 1.78555 -0.431718 0
M  V30 3973 C 372.046 0.368074 -3.57611 0
M  V30 3974 C 371.71 -0.806631 -4.49825 0
M  V30 3975 C 372.707 -1.69667 -4.91436 0
M  V30 3976 C 370.392 -1.00498 -4.92144 0
M  V30 3977 C 372.386 -2.76923 -5.74101 0
M  V30 3978 C 370.073 -2.08072 -5.74586 0
M  V30 3979 C 371.071 -2.96119 -6.15469 0
M  V30 3980 O 370.759 -4.01836 -6.96264 0
M  V30 3981 H 370.491 -0.0165165 -0.675798 0
M  V30 3982 H 373.045 -0.695497 -1.93267 0
M  V30 3983 H 371.275 1.15963 -3.68903 0
M  V30 3984 H 372.964 0.848381 -3.96935 0
M  V30 3985 H 373.73 -1.55524 -4.59388 0
M  V30 3986 H 369.609 -0.329036 -4.59824 0
M  V30 3987 H 373.153 -3.45676 -6.05932 0
M  V30 3988 H 369.05 -2.22211 -6.06047 0
M  V30 3989 H 369.818 -3.9917 -7.14567 0
M  V30 3990 N 372.481 1.55866 -0.233164 0
M  V30 3991 C 373.411 2.23783 0.666599 0
M  V30 3992 C 374.392 1.21343 1.19205 0
M  V30 3993 O 375.577 1.4996 1.23392 0
M  V30 3994 C 372.707 2.92671 1.86978 0
M  V30 3995 C 371.661 4.01682 1.47768 0
M  V30 3996 C 370.987 4.57926 2.76058 0
M  V30 3997 C 372.287 5.18126 0.658993 0
M  V30 3998 H 373.981 2.99232 0.100306 0
M  V30 3999 H 371.527 1.43924 0.046804 0
M  V30 4000 H 373.48 3.3888 2.50476 0
M  V30 4001 H 372.204 2.14688 2.46123 0
M  V30 4002 H 370.863 3.56222 0.866106 0
M  V30 4003 H 370.511 3.76659 3.33372 0
M  V30 4004 H 370.211 5.31505 2.50552 0
M  V30 4005 H 371.735 5.06859 3.40479 0
M  V30 4006 H 373.149 5.60644 1.19795 0
M  V30 4007 H 371.546 5.98009 0.500552 0
M  V30 4008 H 372.616 4.83763 -0.331856 0
M  V30 4009 N 373.959 -0.0401083 1.57549 0
M  V30 4010 C 375.184 -0.748931 1.93406 0
M  V30 4011 C 375.609 -1.68686 0.832274 0
M  V30 4012 O 374.967 -1.80047 -0.212818 0
M  V30 4013 C 375.015 -1.4916 3.28304 0
M  V30 4014 O 374.119 -2.6042 3.19774 0
M  V30 4015 H 373.46 -0.202212 0.63246 0
M  V30 4016 H 375.99 0.00112086 2.046 0
M  V30 4017 H 376 -1.86395 3.62934 0
M  V30 4018 H 374.675 -0.80364 4.08062 0
M  V30 4019 H 373.252 -2.25808 2.96758 0
M  V30 4020 N 375.437 -1.54477 -0.31217 0
M  V30 4021 C 376.347 -1.87695 -1.4074 0
M  V30 4022 C 377.363 -0.769975 -1.56036 0
M  V30 4023 O 378.539 -1.06537 -1.70915 0
M  V30 4024 C 375.604 -2.10755 -2.75287 0
M  V30 4025 C 374.665 -3.34514 -2.69071 0
M  V30 4026 C 373.898 -3.56465 -3.97201 0
M  V30 4027 O 374.121 -2.81637 -4.96021 0
M  V30 4028 O 373.055 -4.49964 -3.9977 0
M  V30 4029 H 376.881 -2.80849 -1.15574 0
M  V30 4030 H 374.466 -1.40526 -0.507228 0
M  V30 4031 H 376.348 -2.27188 -3.54913 0
M  V30 4032 H 375.023 -1.20788 -3.0032 0
M  V30 4033 H 373.93 -3.23456 -1.87955 0
M  V30 4034 H 375.263 -4.24575 -2.48992 0
M  V30 4035 N 376.915 0.57481 -1.46744 0
M  V30 4036 C 377.848 1.69827 -1.52427 0
M  V30 4037 C 378.826 1.58151 -0.377744 0
M  V30 4038 O 380.01 1.79257 -0.58303 0
M  V30 4039 C 377.137 3.07943 -1.41027 0
M  V30 4040 C 376.183 3.38116 -2.59961 0
M  V30 4041 S 377.016 3.29313 -4.22272 0
M  V30 4042 C 378.172 4.69953 -4.13394 0
M  V30 4043 H 378.405 1.64748 -2.47478 0
M  V30 4044 H 375.938 0.754203 -1.34726 0
M  V30 4045 H 377.896 3.87619 -1.35137 0
M  V30 4046 H 376.557 3.10504 -0.473909 0
M  V30 4047 H 375.75 4.38762 -2.47999 0
M  V30 4048 H 375.352 2.66024 -2.62882 0
M  V30 4049 H 377.644 5.60517 -3.80562 0
M  V30 4050 H 378.587 4.86972 -5.14066 0
M  V30 4051 H 378.995 4.47174 -3.44522 0
M  V30 4052 N 378.394 1.34581 0.820102 0
M  V30 4053 C 379.619 1.30333 1.61332 0
M  V30 4054 C 380.044 -0.119339 1.87721 0
M  V30 4055 O 379.402 -1.08197 1.45475 0
M  V30 4056 C 379.45 2.10258 2.92957 0
M  V30 4057 O 378.554 1.47404 3.85157 0
M  V30 4058 H 377.895 0.447488 0.490561 0
M  V30 4059 H 380.425 1.77425 1.01889 0
M  V30 4060 H 380.435 2.21718 3.42498 0
M  V30 4061 H 379.11 3.13693 2.73074 0
M  V30 4062 H 377.687 1.44703 3.43679 0
M  V30 4063 N 379.872 -1.04064 1.18357 0
M  V30 4064 C 381.1 -1.80916 1.00384 0
M  V30 4065 C 381.515 -1.83414 -0.447738 0
M  V30 4066 O 380.872 -1.26962 -1.31099 0
M  V30 4067 C 380.923 -3.26516 1.55144 0
M  V30 4068 O 380.644 -3.2424 2.94618 0
M  V30 4069 C 382.145 -4.20013 1.41789 0
M  V30 4070 H 379.365 -0.569728 0.354474 0
M  V30 4071 H 381.909 -1.31151 1.56906 0
M  V30 4072 H 380.064 -3.73512 1.02798 0
M  V30 4073 H 380.478 -4.15452 3.20156 0
M  V30 4074 H 381.952 -5.20111 1.84901 0
M  V30 4075 H 382.429 -4.37667 0.36661 0
M  V30 4076 H 383.035 -3.78881 1.93207 0
M  V30 4077 N 381.35 -0.985608 -1.22978 0
M  V30 4078 C 382.575 -0.675254 -1.961 0
M  V30 4079 C 383 0.752154 -1.72407 0
M  V30 4080 O 382.358 1.5131 -0.998751 0
M  V30 4081 C 382.406 -0.977899 -3.47087 0
M  V30 4082 O 381.51 -0.072685 -4.12336 0
M  V30 4083 H 380.851 -0.253443 -0.613728 0
M  V30 4084 H 383.381 -1.32061 -1.56272 0
M  V30 4085 H 383.391 -0.916739 -3.97567 0
M  V30 4086 H 382.066 -2.01807 -3.63657 0
M  V30 4087 H 380.643 -0.188703 -3.72422 0
M  V30 4088 N 382.828 1.3818 -0.7579 0
M  V30 4089 C 384.068 2.01864 -0.320968 0
M  V30 4090 C 384.432 1.58863 1.07827 0
M  V30 4091 O 385.633 2.14908 1.61456 0
M  V30 4092 C 383.904 3.54626 -0.44446 0
M  V30 4093 S 385.463 4.38706 -0.0907467 0
M  V30 4094 H 382.281 0.700056 -0.124268 0
M  V30 4095 H 384.883 1.68611 -0.989468 0
M  V30 4096 H 383.587 3.83411 -1.4637 0
M  V30 4097 H 383.118 3.92661 0.241073 0
M  V30 4098 H 385.133 4.83435 1.11826 0
M  V30 4099 N 384.306 0.507319 1.49211 0
M  V30 4100 C 385.722 0.163682 1.58758 0
M  V30 4101 C 385.922 -1.33208 1.51188 0
M  V30 4102 O 384.978 -2.10855 1.38911 0
M  V30 4103 C 386.291 0.746095 2.91297 0
M  V30 4104 C 387.839 0.712773 3.04776 0
M  V30 4105 C 388.314 1.27336 4.39943 0
M  V30 4106 N 389.805 1.23433 4.46451 0
M  V30 4107 C 390.54 1.63821 5.495 0
M  V30 4108 N 390.036 2.11832 6.5962 0
M  V30 4109 N 391.829 1.55198 5.4025 0
M  V30 4110 H 383.98 1.47972 1.52375 0
M  V30 4111 H 386.243 0.614147 0.722168 0
M  V30 4112 H 385.949 1.79534 3.02424 0
M  V30 4113 H 385.823 0.210137 3.76614 0
M  V30 4114 H 388.21 -0.327656 2.93275 0
M  V30 4115 H 388.291 1.28595 2.21127 0
M  V30 4116 H 387.935 2.3126 4.52196 0
M  V30 4117 H 387.865 0.676066 5.22242 0
M  V30 4118 H 390.356 0.882627 3.67448 0
M  V30 4119 H 390.669 2.40703 7.34358 0
M  V30 4120 H 389.014 2.1581 6.60644 0
M  V30 4121 H 392.205 1.17505 4.53112 0
M  V30 4122 H 392.378 1.86997 6.20432 0
M  V30 4123 N 385.784 -1.5574 0.241426 0
M  V30 4124 C 387.009 -2.0366 -0.392111 0
M  V30 4125 C 387.434 -1.11969 -1.51144 0
M  V30 4126 O 386.792 -0.111594 -1.80956 0
M  V30 4127 C 386.84 -3.49638 -0.882371 0
M  V30 4128 O 385.944 -3.6108 -1.99235 0
M  V30 4129 H 385.285 -0.658379 -0.0862122 0
M  V30 4130 H 387.815 -2.01302 0.365881 0
M  V30 4131 H 387.825 -3.90351 -1.18702 0
M  V30 4132 H 386.5 -4.15852 -0.0632361 0
M  V30 4133 H 385.077 -3.32262 -1.69282 0
M  V30 4134 N 387.262 0.0317525 -1.57568 0
M  V30 4135 C 388.508 0.724175 -1.8943 0
M  V30 4136 C 388.841 1.75149 -0.838836 0
M  V30 4137 O 388.116 1.93948 0.146422 0
M  V30 4138 C 388.399 1.39615 -3.31933 0
M  V30 4139 C 388.252 0.382537 -4.4817 0
M  V30 4140 C 389.571 2.33084 -3.73309 0
M  V30 4141 H 386.69 0.261797 -0.688935 0
M  V30 4142 H 389.332 -0.013017 -1.89996 0
M  V30 4143 H 387.482 2.02451 -3.31581 0
M  V30 4144 H 389.154 -0.243689 -4.60656 0
M  V30 4145 H 387.397 -0.29844 -4.32772 0
M  V30 4146 H 388.068 0.891145 -5.44759 0
M  V30 4147 H 390.544 1.80295 -3.7501 0
M  V30 4148 H 389.42 2.77084 -4.73831 0
M  V30 4149 H 389.681 3.19643 -3.05419 0
M  V30 4150 N 388.74 1.54641 0.303973 0
M  V30 4151 C 389.672 1.81754 1.39636 0
M  V30 4152 C 390.685 0.70035 1.46966 0
M  V30 4153 O 391.874 0.97778 1.49338 0
M  V30 4154 C 388.974 1.93785 2.7803 0
M  V30 4155 C 388.147 3.24156 2.93669 0
M  V30 4156 C 387.206 3.26641 4.12544 0
M  V30 4157 O 386.232 4.00187 4.04771 0
M  V30 4158 N 387.434 2.5182 5.23036 0
M  V30 4159 H 390.199 2.76031 1.16734 0
M  V30 4160 H 387.76 1.54178 0.494033 0
M  V30 4161 H 389.752 1.92852 3.55795 0
M  V30 4162 H 388.322 1.06515 2.93893 0
M  V30 4163 H 387.542 3.37887 2.03042 0
M  V30 4164 H 388.83 4.10195 3.01027 0
M  V30 4165 H 388.228 1.91692 5.32232 0
M  V30 4166 H 386.785 2.56644 5.99147 0
M  V30 4167 N 390.218 -0.567019 1.47046 0
M  V30 4168 C 391.464 -1.32658 1.53394 0
M  V30 4169 C 391.797 -1.93254 0.19148 0
M  V30 4170 O 391.072 -1.77338 -0.798844 0
M  V30 4171 C 391.355 -2.44412 2.64452 0
M  V30 4172 C 391.208 -1.88749 4.08282 0
M  V30 4173 C 392.527 -3.46387 2.71485 0
M  V30 4174 H 389.646 -0.48098 0.558415 0
M  V30 4175 H 392.288 -0.635481 1.79058 0
M  V30 4176 H 390.438 -3.03363 2.427 0
M  V30 4177 H 392.11 -1.34134 4.41368 0
M  V30 4178 H 390.353 -1.19481 4.17021 0
M  V30 4179 H 391.024 -2.69491 4.81745 0
M  V30 4180 H 393.5 -2.9734 2.91081 0
M  V30 4181 H 392.376 -4.2202 3.50985 0
M  V30 4182 H 392.637 -4.04616 1.78153 0
M  V30 4183 N 391.696 -1.35014 -0.812953 0
M  V30 4184 C 392.626 -1.30069 -1.93919 0
M  V30 4185 C 393.607 -0.176275 -1.69184 0
M  V30 4186 O 394.792 -0.370227 -1.90638 0
M  V30 4187 C 391.922 -1.06547 -3.30552 0
M  V30 4188 C 390.876 -2.15561 -3.69753 0
M  V30 4189 C 390.202 -1.77214 -5.04479 0
M  V30 4190 C 391.502 -3.57476 -3.808 0
M  V30 4191 H 393.196 -2.24303 -1.98314 0
M  V30 4192 H 390.742 -1.07977 -0.952736 0
M  V30 4193 H 392.695 -1.01729 -4.08937 0
M  V30 4194 H 391.419 -0.0875719 -3.26483 0
M  V30 4195 H 390.078 -2.19466 -2.9365 0
M  V30 4196 H 389.726 -0.780589 -4.96906 0
M  V30 4197 H 389.426 -2.50184 -5.31678 0
M  V30 4198 H 390.95 -1.7391 -5.8531 0
M  V30 4199 H 392.364 -3.55929 -4.4943 0
M  V30 4200 H 390.761 -4.29152 -4.19462 0
M  V30 4201 H 391.831 -3.94091 -2.82525 0
M  V30 4202 N 393.175 1.03435 -1.18907 0
M  V30 4203 C 394.105 2.13503 -0.945448 0
M  V30 4204 C 395.086 1.69682 0.119189 0
M  V30 4205 O 396.271 1.94169 -0.034707 0
M  V30 4206 C 393.401 3.44004 -0.477316 0
M  V30 4207 C 392.355 4.0148 -1.48316 0
M  V30 4208 C 391.681 5.27537 -0.872311 0
M  V30 4209 C 392.981 4.36921 -2.86177 0
M  V30 4210 H 394.675 2.34141 -1.86597 0
M  V30 4211 H 392.221 1.12523 -0.898584 0
M  V30 4212 H 394.174 4.20372 -0.294204 0
M  V30 4213 H 392.898 3.23072 0.478786 0
M  V30 4214 H 391.557 3.27201 -1.65332 0
M  V30 4215 H 391.205 5.02917 0.0911752 0
M  V30 4216 H 390.905 5.66954 -1.54393 0
M  V30 4217 H 392.429 6.06576 -0.699871 0
M  V30 4218 H 393.843 5.04248 -2.72776 0
M  V30 4219 H 392.24 4.87405 -3.50081 0
M  V30 4220 H 393.31 3.46466 -3.39248 0
M  V30 4221 N 394.653 0.992116 1.22453 0
M  V30 4222 C 395.603 0.512969 2.22155 0
M  V30 4223 C 396.587 -0.418416 1.55364 0
M  V30 4224 O 397.779 -0.245363 1.75291 0
M  V30 4225 C 394.908 -0.171822 3.4287 0
M  V30 4226 C 393.994 0.779822 4.16869 0
M  V30 4227 N 394.385 1.92734 4.6764 0
M  V30 4228 C 392.683 0.59554 4.42006 0
M  V30 4229 C 393.384 2.52458 5.24061 0
M  V30 4230 N 392.36 1.80735 5.12675 0
M  V30 4231 H 396.162 1.38817 2.5905 0
M  V30 4232 H 393.676 0.854277 1.38115 0
M  V30 4233 H 395.673 -0.532469 4.13486 0
M  V30 4234 H 394.333 -1.04317 3.07487 0
M  V30 4235 H 395.344 2.30816 4.63621 0
M  V30 4236 H 392.021 -0.229805 4.16867 0
M  V30 4237 H 393.411 3.49433 5.73887 0
M  V30 4238 N 396.131 -1.37776 0.765217 0
M  V30 4239 C 397.361 -2.03828 0.337277 0
M  V30 4240 C 397.769 -1.57841 -1.04321 0
M  V30 4241 O 397.112 -0.752043 -1.67601 0
M  V30 4242 C 397.174 -3.58292 0.294407 0
M  V30 4243 C 396.838 -4.27384 1.61838 0
M  V30 4244 C 397.835 -4.51956 2.56967 0
M  V30 4245 C 395.52 -4.65345 1.89102 0
M  V30 4246 C 397.514 -5.13536 3.77571 0
M  V30 4247 C 395.201 -5.26647 3.09978 0
M  V30 4248 C 396.199 -5.50679 4.04032 0
M  V30 4249 O 395.887 -6.10702 5.2278 0
M  V30 4250 H 395.619 -0.661292 0.140248 0
M  V30 4251 H 398.173 -1.77222 1.03834 0
M  V30 4252 H 396.403 -3.83918 -0.462983 0
M  V30 4253 H 398.092 -4.05763 -0.105581 0
M  V30 4254 H 398.858 -4.23048 2.37183 0
M  V30 4255 H 394.737 -4.45978 1.16725 0
M  V30 4256 H 398.281 -5.3221 4.50997 0
M  V30 4257 H 394.178 -5.54979 3.29649 0
M  V30 4258 H 394.946 -6.29183 5.23517 0
M  V30 4259 N 397.609 -0.515225 -1.4894 0
M  V30 4260 C 398.856 0.024215 -2.02486 0
M  V30 4261 C 399.184 1.35671 -1.39368 0
M  V30 4262 O 398.439 1.88566 -0.523574 0
M  V30 4263 C 398.738 0.210595 -3.56779 0
M  V30 4264 C 398.404 -1.04569 -4.38607 0
M  V30 4265 C 397.066 -1.39002 -4.60686 0
M  V30 4266 C 399.418 -1.88008 -4.86109 0
M  V30 4267 C 396.746 -2.568 -5.27514 0
M  V30 4268 C 399.098 -3.04972 -5.54234 0
M  V30 4269 C 397.762 -3.39768 -5.74555 0
M  V30 4270 H 397.032 0.00886088 -0.740947 0
M  V30 4271 H 399.679 -0.678263 -1.79086 0
M  V30 4272 H 397.984 0.99572 -3.78936 0
M  V30 4273 H 399.681 0.642659 -3.95817 0
M  V30 4274 H 396.271 -0.767497 -4.21672 0
M  V30 4275 H 400.455 -1.62719 -4.68867 0
M  V30 4276 H 395.711 -2.8398 -5.41447 0
M  V30 4277 H 399.885 -3.69943 -5.90013 0
M  V30 4278 H 397.512 -4.31148 -6.26112 0
M  V30 4279 N 399.087 1.5561 -0.249682 0
M  V30 4280 C 400.333 1.99306 0.374841 0
M  V30 4281 C 400.666 1.13767 1.57387 0
M  V30 4282 O 399.941 0.201711 1.93451 0
M  V30 4283 C 400.224 3.51507 0.781986 0
M  V30 4284 C 400.077 4.4781 -0.422629 0
M  V30 4285 C 401.396 4.08884 1.62793 0
M  V30 4286 H 398.515 0.724572 0.134773 0
M  V30 4287 H 401.157 1.86719 -0.351549 0
M  V30 4288 H 399.307 3.62363 1.4009 0
M  V30 4289 H 400.979 4.48931 -1.06108 0
M  V30 4290 H 399.222 4.20518 -1.06524 0
M  V30 4291 H 399.893 5.51919 -0.0943766 0
M  V30 4292 H 402.369 4.01147 1.10547 0
M  V30 4293 H 401.245 5.1564 1.88166 0
M  V30 4294 H 401.506 3.57515 2.60068 0
M  V30 4295 N 400.565 -0.0233959 1.57583 0
M  V30 4296 C 401.813 -0.711654 1.89156 0
M  V30 4297 C 402.134 -1.75591 0.848096 0
M  V30 4298 O 401.404 -1.95547 -0.117566 0
M  V30 4299 H 399.984 -0.265835 0.698098 0
M  V30 4300 H 402.646 0.0119948 1.94896 0
M  V30 4301 H 401.742 -1.19766 2.88206 0
M  V30 4302 N 402.043 -1.548 -0.295768 0
M  V30 4303 C 403.006 -1.85363 -1.34808 0
M  V30 4304 C 404.006 -0.726817 -1.43436 0
M  V30 4305 O 405.196 -0.995088 -1.42981 0
M  V30 4306 C 402.328 -2.03859 -2.73229 0
M  V30 4307 H 403.521 -2.7941 -1.08949 0
M  V30 4308 H 401.074 -1.46942 -0.532702 0
M  V30 4309 H 401.809 -1.12117 -3.04303 0
M  V30 4310 H 401.594 -2.8588 -2.68356 0
M  V30 4311 H 403.084 -2.28857 -3.49305 0
M  V30 4312 N 403.521 0.559213 -1.47345 0
M  V30 4313 C 404.469 1.68747 -1.60085 0
M  V30 4314 C 405.463 1.628 -0.46825 0
M  V30 4315 O 406.669 1.68009 -0.645977 0
M  V30 4316 H 403.044 0.558329 -0.503759 0
M  V30 4317 H 405.015 1.55138 -2.54902 0
M  V30 4318 C 403.764 3.07103 -1.63042 0
M  V30 4319 H 403.087 3.12361 -2.49541 0
M  V30 4320 H 404.527 3.85743 -1.76006 0
M  V30 4321 C 402.986 3.34935 -0.363357 0
M  V30 4322 O 403.516 3.98102 0.536416 0
M  V30 4323 N 401.722 2.89574 -0.244 0
M  V30 4324 H 401.269 2.38348 -0.977133 0
M  V30 4325 H 401.227 3.08566 0.602836 0
M  V30 4326 N 404.999 1.35443 0.805782 0
M  V30 4327 C 406.229 1.31687 1.59192 0
M  V30 4328 C 406.637 -0.10756 1.88894 0
M  V30 4329 O 405.98 -1.07017 1.49309 0
M  V30 4330 C 406.042 2.05686 2.94845 0
M  V30 4331 C 405.706 3.54868 2.87954 0
M  V30 4332 C 406.703 4.49444 2.61335 0
M  V30 4333 C 404.388 3.97528 3.07046 0
M  V30 4334 C 406.382 5.84655 2.53885 0
M  V30 4335 C 404.069 5.32833 2.99219 0
M  V30 4336 C 405.067 6.26209 2.72674 0
M  V30 4337 O 404.755 7.59032 2.64811 0
M  V30 4338 H 404.487 0.453878 0.50097 0
M  V30 4339 H 407.041 1.78892 1.0093 0
M  V30 4340 H 405.271 1.5312 3.55093 0
M  V30 4341 H 406.96 1.94998 3.55993 0
M  V30 4342 H 407.726 4.17804 2.46303 0
M  V30 4343 H 403.605 3.25233 3.26718 0
M  V30 4344 H 407.149 6.57508 2.33086 0
M  V30 4345 H 403.046 5.64087 3.13809 0
M  V30 4346 H 403.814 7.68967 2.80413 0
M  V30 4347 N 406.477 -1.02803 1.19454 0
M  V30 4348 C 407.407 -2.12999 0.956758 0
M  V30 4349 C 408.388 -1.69743 -0.110188 0
M  V30 4350 O 409.573 -1.94148 0.0450038 0
M  V30 4351 C 406.703 -3.43746 0.495553 0
M  V30 4352 C 405.657 -4.00688 1.50443 0
M  V30 4353 C 404.983 -5.27067 0.900275 0
M  V30 4354 C 406.283 -4.35397 2.8849 0
M  V30 4355 H 407.977 -2.33148 1.87836 0
M  V30 4356 H 405.523 -1.12045 0.904539 0
M  V30 4357 H 407.476 -4.2021 0.316493 0
M  V30 4358 H 406.2 -3.23321 -0.461646 0
M  V30 4359 H 404.859 -3.2632 1.67065 0
M  V30 4360 H 404.507 -5.02959 -0.064503 0
M  V30 4361 H 404.207 -5.66127 1.57397 0
M  V30 4362 H 405.731 -6.06196 0.73203 0
M  V30 4363 H 407.145 -5.02795 2.75446 0
M  V30 4364 H 405.542 -4.85541 3.52661 0
M  V30 4365 H 406.612 -3.44662 3.41081 0
M  V30 4366 N 407.956 -0.998596 -1.21925 0
M  V30 4367 C 409.202 -0.688337 -1.91399 0
M  V30 4368 C 409.557 0.771805 -1.76241 0
M  V30 4369 O 408.85 1.55153 -1.1242 0
M  V30 4370 C 409.044 -1.03648 -3.42041 0
M  V30 4371 C 408.873 -2.52892 -3.71855 0
M  V30 4372 C 407.643 -3.19389 -3.91559 0
M  V30 4373 C 409.841 -3.5103 -3.75875 0
M  V30 4374 N 407.823 -4.5805 -4.08734 0
M  V30 4375 C 409.194 -4.75174 -3.98259 0
M  V30 4376 C 411.249 -3.45257 -3.58751 0
M  V30 4377 C 409.952 -5.94247 -4.05294 0
M  V30 4378 C 411.978 -4.63712 -3.67049 0
M  V30 4379 C 411.34 -5.86658 -3.89887 0
M  V30 4380 H 407.439 -0.303251 -0.720807 0
M  V30 4381 H 410.023 -1.27977 -1.46731 0
M  V30 4382 H 408.194 -0.473569 -3.85502 0
M  V30 4383 H 409.926 -0.681619 -3.98919 0
M  V30 4384 H 406.681 -2.69846 -3.89205 0
M  V30 4385 H 407.105 -5.29989 -4.21237 0
M  V30 4386 H 411.747 -2.51215 -3.40075 0
M  V30 4387 H 409.465 -6.88687 -4.22772 0
M  V30 4388 H 413.051 -4.6084 -3.5513 0
M  V30 4389 H 411.931 -6.76786 -3.96144 0
M  V30 4390 N 409.434 1.37368 -0.772513 0
M  V30 4391 C 410.364 2.32856 -0.173304 0
M  V30 4392 C 411.345 1.55818 0.682262 0
M  V30 4393 O 412.53 1.84052 0.619566 0
M  V30 4394 C 409.66 3.40048 0.706007 0
M  V30 4395 C 408.614 4.27973 -0.0483144 0
M  V30 4396 C 407.94 5.26184 0.950491 0
M  V30 4397 C 409.24 5.07665 -1.22776 0
M  V30 4398 H 410.934 2.83217 -0.971002 0
M  V30 4399 H 408.48 1.3617 -0.468377 0
M  V30 4400 H 410.433 4.05827 1.13501 0
M  V30 4401 H 409.157 2.88214 1.53623 0
M  V30 4402 H 407.816 3.63726 -0.458107 0
M  V30 4403 H 407.464 4.7063 1.77529 0
M  V30 4404 H 407.164 5.85872 0.450314 0
M  V30 4405 H 408.688 5.94838 1.37842 0
M  V30 4406 H 410.102 5.66578 -0.875366 0
M  V30 4407 H 408.499 5.76681 -1.66007 0
M  V30 4408 H 409.569 4.40294 -2.03149 0
M  V30 4409 N 410.912 0.523116 1.48665 0
M  V30 4410 C 411.842 -0.23231 2.32342 0
M  V30 4411 C 412.823 -0.941637 1.41659 0
M  V30 4412 O 414.008 -0.928751 1.70552 0
M  V30 4413 C 411.138 -1.28387 3.22698 0
M  V30 4414 C 410.092 -0.693098 4.22351 0
M  V30 4415 C 409.418 -1.8468 5.01794 0
M  V30 4416 C 410.718 0.33063 5.21252 0
M  V30 4417 H 412.412 0.466192 2.95748 0
M  V30 4418 H 409.958 0.225643 1.42221 0
M  V30 4419 H 411.911 -1.82024 3.80059 0
M  V30 4420 H 410.635 -2.01186 2.57278 0
M  V30 4421 H 409.294 -0.178299 3.66166 0
M  V30 4422 H 408.942 -2.56301 4.32804 0
M  V30 4423 H 408.642 -1.45747 5.69238 0
M  V30 4424 H 410.166 -2.38709 5.62006 0
M  V30 4425 H 411.58 -0.118407 5.73178 0
M  V30 4426 H 409.977 0.636974 5.9671 0
M  V30 4427 H 411.047 1.23883 4.68808 0
M  V30 4428 N 412.39 -1.55475 0.257931 0
M  V30 4429 C 413.636 -1.99502 -0.364266 0
M  V30 4430 C 413.969 -1.146 -1.56782 0
M  V30 4431 O 413.244 -0.211968 -1.93342 0
M  V30 4432 C 413.527 -3.51917 -0.763333 0
M  V30 4433 C 413.38 -4.4758 0.446371 0
M  V30 4434 C 414.699 -4.09742 -1.60623 0
M  V30 4435 H 411.818 -0.725277 -0.130929 0
M  V30 4436 H 414.46 -1.8653 0.361446 0
M  V30 4437 H 412.61 -3.63101 -1.38166 0
M  V30 4438 H 414.282 -4.48362 1.08487 0
M  V30 4439 H 412.525 -4.19947 1.08753 0
M  V30 4440 H 413.196 -5.51862 0.123645 0
M  V30 4441 H 415.672 -4.01727 -1.08418 0
M  V30 4442 H 414.548 -5.16631 -1.85429 0
M  V30 4443 H 414.809 -3.58889 -2.58169 0
M  V30 4444 N 413.868 0.0150385 -1.57593 0
M  V30 4445 C 414.778 1.02791 -2.10882 0
M  V30 4446 C 415.794 1.38702 -1.0506 0
M  V30 4447 O 416.97 1.47739 -1.36877 0
M  V30 4448 C 414.035 2.30568 -2.58919 0
M  V30 4449 C 413.096 2.01108 -3.79281 0
M  V30 4450 C 412.329 3.22794 -4.25018 0
M  V30 4451 O 412.552 4.33959 -3.70183 0
M  V30 4452 O 411.486 3.07672 -5.17322 0
M  V30 4453 H 415.312 0.604973 -2.97613 0
M  V30 4454 H 412.897 0.23292 -1.47573 0
M  V30 4455 H 414.779 3.05662 -2.90084 0
M  V30 4456 H 413.454 2.72129 -1.75293 0
M  V30 4457 H 412.361 1.23537 -3.53114 0
M  V30 4458 H 413.694 1.64394 -4.63935 0
M  V30 4459 N 415.346 1.54954 0.287554 0
M  V30 4460 C 416.594 1.74528 1.01904 0
M  V30 4461 C 416.915 0.541349 1.87335 0
M  V30 4462 O 416.185 -0.444108 1.908 0
M  V30 4463 H 414.765 0.643576 0.379235 0
M  V30 4464 H 417.427 1.92333 0.315294 0
M  V30 4465 H 416.523 2.64015 1.6644 0
M  V30 4466 N 416.824 -0.551391 1.4764 0
M  V30 4467 C 417.754 -1.66757 1.63445 0
M  V30 4468 C 418.735 -1.63077 0.483742 0
M  V30 4469 O 419.92 -1.80607 0.71377 0
M  V30 4470 C 417.05 -3.05387 1.65396 0
M  V30 4471 C 416.004 -3.23918 2.79752 0
M  V30 4472 C 415.33 -4.63393 2.66779 0
M  V30 4473 C 416.63 -3.08735 4.21284 0
M  V30 4474 H 418.324 -1.53786 2.56886 0
M  V30 4475 H 415.87 -0.738415 1.23626 0
M  V30 4476 H 417.823 -3.83325 1.75043 0
M  V30 4477 H 416.547 -3.19332 0.685195 0
M  V30 4478 H 415.206 -2.48391 2.69625 0
M  V30 4479 H 414.854 -4.74144 1.67918 0
M  V30 4480 H 414.554 -4.7674 3.43501 0
M  V30 4481 H 416.078 -5.43458 2.78364 0
M  V30 4482 H 417.492 -3.76484 4.32357 0
M  V30 4483 H 415.889 -3.33588 4.98838 0
M  V30 4484 H 416.959 -2.0541 4.39243 0
M  V30 4485 N 418.302 -1.35869 -0.798587 0
M  V30 4486 C 419.532 -1.32529 -1.58491 0
M  V30 4487 C 419.94 0.0975405 -1.88948 0
M  V30 4488 O 419.283 1.06224 -1.49874 0
M  V30 4489 C 419.345 -2.07247 -2.9375 0
M  V30 4490 C 419.009 -3.56391 -2.86068 0
M  V30 4491 C 420.006 -4.50824 -2.58947 0
M  V30 4492 C 417.691 -3.9915 -3.04933 0
M  V30 4493 C 419.685 -5.85993 -2.5078 0
M  V30 4494 C 417.372 -5.34413 -2.96389 0
M  V30 4495 C 418.37 -6.27646 -2.69349 0
M  V30 4496 O 418.058 -7.60426 -2.60782 0
M  V30 4497 H 417.79 -0.456529 -0.498556 0
M  V30 4498 H 420.344 -1.79425 -0.999799 0
M  V30 4499 H 418.574 -1.55001 -3.54276 0
M  V30 4500 H 420.263 -1.96883 -3.54954 0
M  V30 4501 H 421.029 -4.19104 -2.44084 0
M  V30 4502 H 416.908 -3.26961 -3.24989 0
M  V30 4503 H 420.452 -6.58735 -2.29595 0
M  V30 4504 H 416.349 -5.65743 -3.10813 0
M  V30 4505 H 417.117 -7.70444 -2.76331 0
M  V30 4506 N 419.78 1.02168 -1.19998 0
M  V30 4507 C 420.71 2.12488 -0.96804 0
M  V30 4508 C 421.691 1.69799 0.101185 0
M  V30 4509 O 422.876 1.94121 -0.0552993 0
M  V30 4510 C 420.006 3.43479 -0.513776 0
M  V30 4511 C 418.96 3.99884 -1.52566 0
M  V30 4512 C 418.286 5.26582 -0.928214 0
M  V30 4513 C 419.586 4.33861 -2.90795 0
M  V30 4514 H 421.28 2.32149 -1.89069 0
M  V30 4515 H 418.826 1.11564 -0.910468 0
M  V30 4516 H 420.779 4.20036 -0.338774 0
M  V30 4517 H 419.503 3.23561 0.444493 0
M  V30 4518 H 418.162 3.25429 -1.68794 0
M  V30 4519 H 417.81 5.02986 0.0378289 0
M  V30 4520 H 417.51 5.65284 -1.60397 0
M  V30 4521 H 419.034 6.05799 -0.764167 0
M  V30 4522 H 420.448 5.01327 -2.78109 0
M  V30 4523 H 418.845 4.83664 -3.55231 0
M  V30 4524 H 419.915 3.42848 -3.42904 0
M  V30 4525 N 421.258 1.00505 1.21394 0
M  V30 4526 C 422.208 0.536503 2.21598 0
M  V30 4527 C 423.192 -0.401914 1.55799 0
M  V30 4528 O 424.384 -0.226757 1.75541 0
M  V30 4529 C 421.513 -0.135446 3.43033 0
M  V30 4530 C 420.599 0.823992 4.16018 0
M  V30 4531 N 420.99 1.97683 4.6557 0
M  V30 4532 C 419.288 0.642387 4.4135 0
M  V30 4533 C 419.989 2.58003 5.21354 0
M  V30 4534 N 418.965 1.86162 5.1073 0
M  V30 4535 H 422.767 1.41557 2.57563 0
M  V30 4536 H 420.281 0.868878 1.37202 0
M  V30 4537 H 422.278 -0.488584 4.14027 0
M  V30 4538 H 420.938 -1.01049 3.08576 0
M  V30 4539 H 421.949 2.3572 4.61147 0
M  V30 4540 H 418.626 -0.185578 4.17087 0
M  V30 4541 H 420.016 3.555 5.70149 0
M  V30 4542 N 422.737 -1.36956 0.779787 0
M  V30 4543 C 423.965 -2.03755 0.359398 0
M  V30 4544 C 424.38 -1.58807 -1.02106 0
M  V30 4545 O 423.737 -0.773024 -1.6532 0
M  V30 4546 C 423.788 -3.59251 0.402568 0
M  V30 4547 O 423.509 -4.02557 1.72858 0
M  V30 4548 C 425.01 -4.43291 -0.0284068 0
M  V30 4549 H 422.23 -0.654148 0.149437 0
M  V30 4550 H 424.774 -1.75128 1.05595 0
M  V30 4551 H 422.929 -3.86621 -0.245478 0
M  V30 4552 H 423.343 -4.97111 1.67275 0
M  V30 4553 H 424.817 -5.51975 0.0529466 0
M  V30 4554 H 425.294 -4.25719 -1.07982 0
M  V30 4555 H 425.9 -4.21163 0.591758 0
M  V30 4556 N 424.215 -0.530993 -1.48385 0
M  V30 4557 C 425.145 0.219985 -2.32461 0
M  V30 4558 C 426.126 0.934111 -1.42156 0
M  V30 4559 O 427.311 0.919694 -1.71042 0
M  V30 4560 C 424.441 1.26674 -3.23375 0
M  V30 4561 C 423.395 0.67069 -4.22712 0
M  V30 4562 C 422.721 1.82017 -5.02766 0
M  V30 4563 C 424.021 -0.358268 -5.2107 0
M  V30 4564 H 425.715 -0.48187 -2.95497 0
M  V30 4565 H 423.261 -0.233182 -1.42099 0
M  V30 4566 H 425.214 1.80006 -3.81019 0
M  V30 4567 H 423.938 1.99818 -2.58341 0
M  V30 4568 H 422.597 0.158878 -3.66256 0
M  V30 4569 H 422.245 2.54002 -4.34157 0
M  V30 4570 H 421.945 1.42727 -5.70003 0
M  V30 4571 H 423.469 2.35725 -5.63264 0
M  V30 4572 H 424.883 0.0880081 -5.73232 0
M  V30 4573 H 423.28 -0.66861 -5.96364 0
M  V30 4574 H 424.35 -1.26367 -4.68145 0
M  V30 4575 N 425.693 1.55336 -0.266172 0
M  V30 4576 C 426.623 2.25146 0.618981 0
M  V30 4577 C 427.604 1.23845 1.16604 0
M  V30 4578 O 428.789 1.52544 1.20183 0
M  V30 4579 C 425.919 2.96572 1.80728 0
M  V30 4580 C 424.873 4.04726 1.39215 0
M  V30 4581 C 424.199 4.63678 2.66283 0
M  V30 4582 C 425.499 5.19407 0.548942 0
M  V30 4583 H 427.193 2.99377 0.0368116 0
M  V30 4584 H 424.739 1.43991 0.0162651 0
M  V30 4585 H 426.692 3.44116 2.43232 0
M  V30 4586 H 425.416 2.19861 2.41514 0
M  V30 4587 H 424.075 3.57979 0.790351 0
M  V30 4588 H 423.723 3.83646 3.25308 0
M  V30 4589 H 423.423 5.367 2.39222 0
M  V30 4590 H 424.947 5.13967 3.29651 0
M  V30 4591 H 426.361 5.63059 1.07876 0
M  V30 4592 H 424.758 5.98936 0.373593 0
M  V30 4593 H 425.828 4.8295 -0.434394 0
M  V30 4594 N 427.171 -0.0066808 1.57599 0
M  V30 4595 C 428.081 -1.01671 2.11424 0
M  V30 4596 C 429.097 -1.38143 1.05795 0
M  V30 4597 O 430.273 -1.47011 1.37658 0
M  V30 4598 C 427.338 -2.29192 2.60139 0
M  V30 4599 C 426.399 -1.99094 3.80342 0
M  V30 4600 C 425.632 -3.20535 4.26724 0
M  V30 4601 O 425.855 -4.3199 3.72479 0
M  V30 4602 O 424.789 -3.04924 5.18946 0
M  V30 4603 H 428.615 -0.589181 2.9793 0
M  V30 4604 H 426.2 -0.225091 1.47695 0
M  V30 4605 H 428.082 -3.0412 2.917 0
M  V30 4606 H 426.757 -2.71195 1.76733 0
M  V30 4607 H 425.664 -1.21663 3.53764 0
M  V30 4608 H 426.997 -1.61931 4.648 0
M  V30 4609 N 428.649 -1.55105 -0.279332 0
M  V30 4610 C 430.06 -1.66186 -0.850832 0
M  V30 4611 C 430.411 -0.584707 -1.87285 0
M  V30 4612 O 429.536 0.274919 -2.14647 0
M  V30 4613 C 430.131 -3.01264 -1.55001 0
M  V30 4614 C 428.69 -3.14394 -2.06963 0
M  V30 4615 C 427.837 -2.61959 -0.909536 0
M  V30 4616 H 430.788 -1.58602 -0.0558235 0
M  V30 4617 H 430.809 -2.93899 -2.41669 0
M  V30 4618 H 430.321 -3.7964 -0.805931 0
M  V30 4619 H 428.422 -2.4078 -2.84352 0
M  V30 4620 H 428.535 -4.20867 -2.28928 0
M  V30 4621 H 426.899 -2.18957 -1.30116 0
M  V30 4622 H 427.682 -3.42833 -0.179062 0
M  V30 4623 N 430.127 0.543554 -1.4793 0
M  V30 4624 C 431.355 1.32516 -1.58894 0
M  V30 4625 C 431.77 1.87215 -0.244131 0
M  V30 4626 O 431.127 1.65709 0.764652 0
M  V30 4627 C 431.178 2.48554 -2.62494 0
M  V30 4628 O 430.899 1.96112 -3.91755 0
M  V30 4629 C 432.4 3.40572 -2.8377 0
M  V30 4630 H 429.62 0.403472 -0.536145 0
M  V30 4631 H 432.164 0.657106 -1.93655 0
M  V30 4632 H 430.319 3.1127 -2.30629 0
M  V30 4633 H 430.733 2.71967 -4.4848 0
M  V30 4634 H 432.207 4.18375 -3.60093 0
M  V30 4635 H 432.684 3.94965 -1.92092 0
M  V30 4636 H 433.29 2.8366 -3.16887 0
M  V30 4637 N 431.605 1.3629 0.791371 0
M  V30 4638 C 432.851 1.30605 1.55146 0
M  V30 4639 C 433.184 -0.115042 1.93859 0
M  V30 4640 O 432.459 -1.06798 1.62556 0
M  V30 4641 C 432.742 2.22692 2.82985 0
M  V30 4642 C 432.595 3.73489 2.50651 0
M  V30 4643 C 433.914 2.13588 3.84796 0
M  V30 4644 H 431.033 0.475761 0.562868 0
M  V30 4645 H 433.675 1.66825 0.909358 0
M  V30 4646 H 431.825 1.91933 3.37778 0
M  V30 4647 H 433.497 4.14758 2.01924 0
M  V30 4648 H 431.74 3.93021 1.83622 0
M  V30 4649 H 432.411 4.3333 3.41949 0
M  V30 4650 H 434.887 2.40659 3.39445 0
M  V30 4651 H 433.763 2.80195 4.71998 0
M  V30 4652 H 434.024 1.12256 4.27611 0
M  V30 4653 N 433.083 -1.0153 1.20538 0
M  V30 4654 C 434.013 -2.11972 0.979295 0
M  V30 4655 C 434.994 -1.6985 -0.0921787 0
M  V30 4656 O 436.179 -1.94089 0.0655932 0
M  V30 4657 C 433.309 -3.43201 0.531984 0
M  V30 4658 C 432.263 -3.9907 1.54685 0
M  V30 4659 C 431.589 -5.26082 0.956127 0
M  V30 4660 C 432.889 -4.32313 2.93092 0
M  V30 4661 H 434.583 -2.31143 1.90298 0
M  V30 4662 H 432.129 -1.11079 0.916372 0
M  V30 4663 H 434.082 -4.1985 0.361044 0
M  V30 4664 H 432.806 -3.23792 -0.427327 0
M  V30 4665 H 431.465 -3.2453 1.70517 0
M  V30 4666 H 431.113 -5.02999 -0.0111538 0
M  V30 4667 H 430.813 -5.64426 1.63393 0
M  V30 4668 H 432.337 -6.05386 0.796284 0
M  V30 4669 H 433.751 -4.99845 2.80763 0
M  V30 4670 H 432.148 -4.81774 3.57791 0
M  V30 4671 H 433.218 -3.41025 3.44717 0
M  V30 4672 N 434.561 -1.01147 -1.20859 0
M  V30 4673 C 435.972 -0.730205 -1.71828 0
M  V30 4674 C 436.323 0.751662 -1.8123 0
M  V30 4675 O 435.448 1.58686 -1.47132 0
M  V30 4676 C 436.043 -1.31885 -3.12077 0
M  V30 4677 C 434.602 -1.08656 -3.60376 0
M  V30 4678 C 433.749 -1.42769 -2.37723 0
M  V30 4679 H 436.7 -1.18158 -1.05945 0
M  V30 4680 H 436.721 -0.706793 -3.73878 0
M  V30 4681 H 436.233 -2.39737 -3.05201 0
M  V30 4682 H 434.334 -0.0254814 -3.72591 0
M  V30 4683 H 434.447 -1.76301 -4.45483 0
M  V30 4684 H 432.811 -0.846603 -2.40218 0
M  V30 4685 H 433.594 -2.51666 -2.33493 0
M  V30 4686 N 436.039 1.36541 -0.78704 0
M  V30 4687 C 436.949 2.3387 -0.184896 0
M  V30 4688 C 437.965 1.60927 0.661697 0
M  V30 4689 O 439.141 1.92927 0.57804 0
M  V30 4690 C 436.206 3.40122 0.672145 0
M  V30 4691 C 435.267 4.28867 -0.19267 0
M  V30 4692 C 434.5 5.30045 0.623561 0
M  V30 4693 O 434.723 5.39232 1.8597 0
M  V30 4694 O 433.657 6.01895 0.0247068 0
M  V30 4695 H 437.483 2.87126 -0.989562 0
M  V30 4696 H 435.068 1.38969 -0.548455 0
M  V30 4697 H 436.95 4.05093 1.16094 0
M  V30 4698 H 435.625 2.89169 1.45474 0
M  V30 4699 H 434.532 3.66945 -0.728166 0
M  V30 4700 H 435.865 4.83165 -0.938722 0
M  V30 4701 N 437.518 0.538854 1.48102 0
M  V30 4702 C 438.934 0.19732 1.58376 0
M  V30 4703 C 439.134 -1.29971 1.5398 0
M  V30 4704 O 438.19 -2.07861 1.43352 0
M  V30 4705 C 439.503 0.807716 2.89649 0
M  V30 4706 C 441.051 0.77726 3.03196 0
M  V30 4707 C 441.526 1.36639 4.37143 0
M  V30 4708 N 443.017 1.32875 4.43732 0
M  V30 4709 C 443.752 1.7544 5.45901 0
M  V30 4710 N 443.248 2.25776 6.54979 0
M  V30 4711 N 445.041 1.66623 5.36836 0
M  V30 4712 H 437.192 1.5117 1.49202 0
M  V30 4713 H 439.455 0.629327 0.708979 0
M  V30 4714 H 439.161 1.85909 2.98548 0
M  V30 4715 H 439.035 0.289975 3.76084 0
M  V30 4716 H 441.422 -0.265374 2.93904 0
M  V30 4717 H 441.503 1.33256 2.18349 0
M  V30 4718 H 441.147 2.408 4.47189 0
M  V30 4719 H 441.077 0.786689 5.20691 0
M  V30 4720 H 443.568 0.96037 3.65493 0
M  V30 4721 H 443.881 2.56226 7.29087 0
M  V30 4722 H 442.226 2.29775 6.55918 0
M  V30 4723 H 445.417 1.27089 4.50517 0
M  V30 4724 H 445.59 2.00115 6.16326 0
M  V30 4725 N 438.996 -1.55193 0.274407 0
M  V30 4726 C 440.412 -1.59401 -0.0797543 0
M  V30 4727 C 440.612 -1.29162 -1.54659 0
M  V30 4728 O 439.668 -1.05215 -2.29534 0
M  V30 4729 C 440.981 -2.99257 0.294238 0
M  V30 4730 C 442.529 -3.12072 0.240796 0
M  V30 4731 C 443.004 -4.54194 0.589218 0
M  V30 4732 N 444.495 -4.60033 0.540744 0
M  V30 4733 C 445.23 -5.68027 0.783147 0
M  V30 4734 N 444.726 -6.8417 1.09013 0
M  V30 4735 N 446.519 -5.57572 0.711993 0
M  V30 4736 H 438.67 -1.73113 1.23067 0
M  V30 4737 H 440.933 -0.807197 0.497129 0
M  V30 4738 H 440.639 -3.26217 1.31435 0
M  V30 4739 H 440.513 -3.75427 -0.365281 0
M  V30 4740 H 442.9 -2.84877 -0.770024 0
M  V30 4741 H 442.981 -2.38117 0.934563 0
M  V30 4742 H 442.625 -4.82115 1.59772 0
M  V30 4743 H 442.555 -5.26448 -0.126331 0
M  V30 4744 H 445.046 -3.76599 0.313327 0
M  V30 4745 H 445.359 -7.6243 1.26178 0
M  V30 4746 H 443.704 -6.85787 1.12789 0
M  V30 4747 H 446.895 -4.65714 0.472014 0
M  V30 4748 H 447.068 -6.41659 0.90429 0
M  V30 4749 N 440.474 -0.00167713 -1.576 0
M  V30 4750 C 441.404 0.988091 -2.11563 0
M  V30 4751 C 442.385 1.35736 -1.02517 0
M  V30 4752 O 443.57 1.44082 -1.30208 0
M  V30 4753 C 440.7 2.27941 -2.62031 0
M  V30 4754 C 439.654 2.0517 -3.75619 0
M  V30 4755 C 438.98 3.4033 -4.12407 0
M  V30 4756 C 440.28 1.41294 -5.02825 0
M  V30 4757 H 441.974 0.538771 -2.94513 0
M  V30 4758 H 439.52 0.257712 -1.41675 0
M  V30 4759 H 441.473 2.97539 -2.9841 0
M  V30 4760 H 440.197 2.74989 -1.76205 0
M  V30 4761 H 438.856 1.37998 -3.39635 0
M  V30 4762 H 438.504 3.85085 -3.23603 0
M  V30 4763 H 438.204 3.25909 -4.88935 0
M  V30 4764 H 439.728 4.1124 -4.51347 0
M  V30 4765 H 441.142 2.00851 -5.36965 0
M  V30 4766 H 439.539 1.37356 -5.84169 0
M  V30 4767 H 440.609 0.382362 -4.8339 0
M  V30 4768 N 441.952 1.55251 0.271103 0
M  V30 4769 C 443.198 1.7713 0.999832 0
M  V30 4770 C 443.553 0.56659 1.83868 0
M  V30 4771 O 442.846 -0.44069 1.86463 0
M  V30 4772 C 443.04 3.01879 1.91321 0
M  V30 4773 C 442.869 4.34368 1.16426 0
M  V30 4774 C 441.639 4.97593 0.879169 0
M  V30 4775 C 443.837 5.1131 0.553749 0
M  V30 4776 N 441.819 6.13813 0.103618 0
M  V30 4777 C 443.19 6.19938 -0.0875442 0
M  V30 4778 C 445.245 4.95754 0.461782 0
M  V30 4779 C 443.948 7.14703 -0.811942 0
M  V30 4780 C 445.974 5.90875 -0.249027 0
M  V30 4781 C 445.336 6.98893 -0.879051 0
M  V30 4782 H 441.435 0.700407 0.347784 0
M  V30 4783 H 444.019 1.92744 0.275314 0
M  V30 4784 H 442.19 2.87637 2.60997 0
M  V30 4785 H 443.922 3.12154 2.57569 0
M  V30 4786 H 440.677 4.58538 1.18491 0
M  V30 4787 H 441.101 6.76455 -0.271543 0
M  V30 4788 H 445.743 4.12342 0.934552 0
M  V30 4789 H 443.461 7.97634 -1.29639 0
M  V30 4790 H 447.047 5.80916 -0.320529 0
M  V30 4791 H 445.927 7.71231 -1.42031 0
M  V30 4792 N 443.43 -0.535701 1.48216 0
M  V30 4793 C 444.841 -1.11769 1.49548 0
M  V30 4794 C 445.192 -1.94442 0.26207 0
M  V30 4795 O 444.317 -2.06987 -0.631287 0
M  V30 4796 C 444.912 -2.03367 2.70975 0
M  V30 4797 C 443.471 -2.56795 2.75196 0
M  V30 4798 C 442.618 -1.33631 2.42977 0
M  V30 4799 H 445.569 -0.321232 1.55415 0
M  V30 4800 H 445.59 -2.87569 2.49167 0
M  V30 4801 H 445.102 -1.43169 3.60727 0
M  V30 4802 H 443.203 -3.20731 1.89638 0
M  V30 4803 H 443.316 -2.9632 3.76472 0
M  V30 4804 H 441.68 -1.6502 1.94012 0
M  V30 4805 H 442.463 -0.75194 3.34964 0
M  V30 4806 N 444.908 -1.36708 -0.784132 0
M  V30 4807 C 446.324 -1.17237 -1.08294 0
M  V30 4808 C 446.524 -5.93947e-05 -2.015 0
M  V30 4809 O 445.58 0.663686 -2.43622 0
M  V30 4810 C 446.893 -2.48557 -1.69233 0
M  V30 4811 C 448.441 -2.54968 -1.8155 0
M  V30 4812 C 448.916 -3.86388 -2.45904 0
M  V30 4813 N 450.407 -3.87762 -2.53367 0
M  V30 4814 C 451.142 -4.86191 -3.03983 0
M  V30 4815 N 450.638 -5.95015 -3.54866 0
M  V30 4816 N 452.431 -4.73606 -3.02743 0
M  V30 4817 H 444.582 -2.11758 -0.16501 0
M  V30 4818 H 446.845 -0.93822 -0.135822 0
M  V30 4819 H 446.551 -3.34638 -1.08215 0
M  V30 4820 H 446.425 -2.64748 -2.68679 0
M  V30 4821 H 448.812 -1.69302 -2.41704 0
M  V30 4822 H 448.893 -2.42672 -0.80895 0
M  V30 4823 H 448.537 -4.72462 -1.86392 0
M  V30 4824 H 448.467 -3.95982 -3.4714 0
M  V30 4825 H 450.958 -3.09145 -2.17343 0
M  V30 4826 H 451.271 -6.66086 -3.91854 0
M  V30 4827 H 449.616 -5.98676 -3.53003 0
M  V30 4828 H 452.807 -3.87717 -2.62284 0
M  V30 4829 H 452.98 -5.50473 -3.41881 0
M  V30 4830 N 446.386 1.0089 -1.21074 0
M  V30 4831 C 447.616 1.77933 -1.04993 0
M  V30 4832 C 448.024 1.84847 0.403495 0
M  V30 4833 O 447.367 1.30606 1.29181 0
M  V30 4834 C 447.429 3.23541 -1.56722 0
M  V30 4835 C 447.093 3.40214 -3.05129 0
M  V30 4836 C 448.09 3.2881 -4.02716 0
M  V30 4837 C 445.775 3.65781 -3.44252 0
M  V30 4838 C 447.769 3.42732 -5.37414 0
M  V30 4839 C 445.456 3.79346 -4.79103 0
M  V30 4840 C 446.454 3.67827 -5.75493 0
M  V30 4841 O 446.142 3.80965 -7.07899 0
M  V30 4842 H 445.874 0.566157 -0.369381 0
M  V30 4843 H 448.428 1.27826 -1.60779 0
M  V30 4844 H 446.658 3.74766 -0.953285 0
M  V30 4845 H 448.347 3.82245 -1.36543 0
M  V30 4846 H 449.113 3.08986 -3.73835 0
M  V30 4847 H 444.992 3.73831 -2.69762 0
M  V30 4848 H 448.536 3.33658 -6.12632 0
M  V30 4849 H 444.433 3.98672 -5.07672 0
M  V30 4850 H 445.201 3.97937 -7.15254 0
M  V30 4851 N 447.864 1.01787 1.20321 0
M  V30 4852 C 448.794 0.609625 2.25401 0
M  V30 4853 C 449.775 -0.375951 1.65893 0
M  V30 4854 O 450.96 -0.261101 1.92437 0
M  V30 4855 C 448.09 -0.0515995 3.47262 0
M  V30 4856 C 447.044 0.855095 4.19371 0
M  V30 4857 C 446.37 0.0595757 5.34667 0
M  V30 4858 C 447.67 2.16374 4.75373 0
M  V30 4859 H 449.364 1.48803 2.59804 0
M  V30 4860 H 446.91 0.716934 1.24884 0
M  V30 4861 H 448.863 -0.348764 4.19954 0
M  V30 4862 H 447.587 -0.964726 3.12027 0
M  V30 4863 H 446.246 1.13628 3.48546 0
M  V30 4864 H 445.894 -0.85524 4.95676 0
M  V30 4865 H 445.594 0.663406 5.83843 0
M  V30 4866 H 447.118 -0.231105 6.10162 0
M  V30 4867 H 448.532 1.92885 5.39878 0
M  V30 4868 H 446.929 2.71853 5.34991 0
M  V30 4869 H 447.999 2.82589 3.94045 0
M  V30 4870 N 449.342 -1.36122 0.79427 0
M  V30 4871 C 450.272 -2.32551 0.210328 0
M  V30 4872 C 451.253 -1.56884 -0.657386 0
M  V30 4873 O 452.438 -1.85014 -0.590207 0
M  V30 4874 C 449.568 -3.41128 -0.651819 0
M  V30 4875 C 448.522 -4.27842 0.116395 0
M  V30 4876 C 447.848 -5.2763 -0.86666 0
M  V30 4877 C 449.148 -5.05647 1.30837 0
M  V30 4878 H 450.842 -2.81636 1.01594 0
M  V30 4879 H 448.388 -1.35407 0.489981 0
M  V30 4880 H 450.341 -4.07581 -1.07031 0
M  V30 4881 H 449.065 -2.90622 -1.49019 0
M  V30 4882 H 447.724 -3.62952 0.515915 0
M  V30 4883 H 447.372 -4.73395 -1.70019 0
M  V30 4884 H 447.072 -5.86514 -0.35705 0
M  V30 4885 H 448.596 -5.96955 -1.28361 0
M  V30 4886 H 450.01 -5.65113 0.965393 0
M  V30 4887 H 448.407 -5.73967 1.75161 0
M  V30 4888 H 449.477 -4.37006 2.10128 0
M  V30 4889 N 450.82 -0.546701 -1.47814 0
M  V30 4890 C 451.75 0.195317 -2.32682 0
M  V30 4891 C 452.731 0.918981 -1.43139 0
M  V30 4892 O 453.916 0.901501 -1.72008 0
M  V30 4893 C 451.046 1.23237 -3.247 0
M  V30 4894 C 450 0.625818 -4.234 0
M  V30 4895 C 449.326 1.76674 -5.04669 0
M  V30 4896 C 450.626 -0.413515 -5.2066 0
M  V30 4897 H 452.32 -0.513184 -2.94969 0
M  V30 4898 H 449.866 -0.248241 -1.41844 0
M  V30 4899 H 451.819 1.75955 -3.82907 0
M  V30 4900 H 450.543 1.97067 -2.60446 0
M  V30 4901 H 449.202 0.120023 -3.66403 0
M  V30 4902 H 448.85 2.49383 -4.36826 0
M  V30 4903 H 448.55 1.36673 -5.71484 0
M  V30 4904 H 450.074 2.29738 -5.65732 0
M  V30 4905 H 451.488 0.0272042 -5.73294 0
M  V30 4906 H 449.885 -0.731825 -5.95621 0
M  V30 4907 H 450.955 -1.31325 -4.66778 0
M  V30 4908 N 452.299 1.55045 -0.282633 0
M  V30 4909 C 453.547 1.99365 0.331334 0
M  V30 4910 C 453.868 1.1725 1.55812 0
M  V30 4911 O 453.138 0.263871 1.94115 0
M  V30 4912 H 451.718 0.736397 0.125414 0
M  V30 4913 H 454.38 1.90964 -0.389711 0
M  V30 4914 H 453.476 3.0596 0.616036 0
M  V30 4915 N 453.777 0.010035 1.57597 0
M  V30 4916 C 455.023 -0.668011 1.92118 0
M  V30 4917 C 455.378 -1.70821 0.885328 0
M  V30 4918 O 454.671 -1.91333 -0.101187 0
M  V30 4919 C 454.865 -1.34434 3.31153 0
M  V30 4920 C 454.694 -0.371176 4.48166 0
M  V30 4921 C 453.464 0.0220686 5.05295 0
M  V30 4922 C 455.662 0.366731 5.12991 0
M  V30 4923 N 453.644 0.9924 6.05826 0
M  V30 4924 C 455.015 1.19142 6.08445 0
M  V30 4925 C 457.07 0.429489 4.96044 0
M  V30 4926 C 455.773 2.07317 6.88776 0
M  V30 4927 C 457.799 1.2985 5.76969 0
M  V30 4928 C 457.161 2.11101 6.72023 0
M  V30 4929 H 453.26 -0.217337 0.751192 0
M  V30 4930 H 455.844 0.0727375 1.94564 0
M  V30 4931 H 454.015 -2.05533 3.29561 0
M  V30 4932 H 455.747 -1.97789 3.53075 0
M  V30 4933 H 452.502 -0.348409 4.72317 0
M  V30 4934 H 452.926 1.47324 6.60776 0
M  V30 4935 H 457.568 -0.18442 4.22398 0
M  V30 4936 H 455.286 2.69771 7.61741 0
M  V30 4937 H 458.872 1.3511 5.65894 0
M  V30 4938 H 457.752 2.77257 7.33552 0
M  V30 4939 N 455.255 -1.55392 -0.262866 0
M  V30 4940 C 456.218 -1.88181 -1.30846 0
M  V30 4941 C 457.218 -0.757079 -1.41862 0
M  V30 4942 O 458.408 -1.02519 -1.40838 0
M  V30 4943 C 455.54 -2.09609 -2.68844 0
M  V30 4944 H 456.733 -2.81659 -1.02997 0
M  V30 4945 H 454.286 -1.48039 -0.501414 0
M  V30 4946 H 455.021 -1.18547 -3.01856 0
M  V30 4947 H 454.806 -2.91508 -2.62231 0
M  V30 4948 H 456.296 -2.36215 -3.44372 0
M  V30 4949 N 456.733 0.527833 -1.48498 0
M  V30 4950 C 457.98 1.28354 -1.56625 0
M  V30 4951 C 458.308 1.93 -0.241096 0
M  V30 4952 O 457.563 1.79967 0.768798 0
M  V30 4953 C 457.862 2.39275 -2.65485 0
M  V30 4954 C 457.528 1.92268 -4.07853 0
M  V30 4955 C 456.19 1.79166 -4.46602 0
M  V30 4956 C 458.542 1.56771 -4.97064 0
M  V30 4957 C 455.87 1.28905 -5.72364 0
M  V30 4958 C 458.222 1.07972 -6.23318 0
M  V30 4959 C 456.886 0.934887 -6.60921 0
M  V30 4960 H 456.156 0.469682 -0.573131 0
M  V30 4961 H 458.803 0.588781 -1.82224 0
M  V30 4962 H 457.108 3.1443 -2.33754 0
M  V30 4963 H 458.805 2.974 -2.68988 0
M  V30 4964 H 455.395 2.03417 -3.77252 0
M  V30 4965 H 459.579 1.65753 -4.67803 0
M  V30 4966 H 454.835 1.16381 -6.00221 0
M  V30 4967 H 459.009 0.795775 -6.91838 0
M  V30 4968 H 456.636 0.543231 -7.58257 0
M  V30 4969 N 458.211 1.37122 0.776871 0
M  V30 4970 C 459.622 1.28667 1.35284 0
M  V30 4971 C 459.973 -0.0680035 1.96082 0
M  V30 4972 O 459.098 -0.969743 1.93455 0
M  V30 4973 C 459.693 2.32997 2.45963 0
M  V30 4974 C 458.252 2.28191 2.99342 0
M  V30 4975 C 457.399 2.17101 1.72517 0
M  V30 4976 H 460.35 1.47819 0.577527 0
M  V30 4977 H 460.371 1.97366 3.2531 0
M  V30 4978 H 459.883 3.3158 2.01684 0
M  V30 4979 H 457.984 1.33115 3.4801 0
M  V30 4980 H 458.097 3.21397 3.55304 0
M  V30 4981 H 456.461 1.63562 1.95242 0
M  V30 4982 H 457.244 3.17591 1.30348 0
M  V30 4983 N 459.689 -1.00246 1.21608 0
M  V30 4984 C 460.935 -1.74319 1.03638 0
M  V30 4985 C 461.268 -1.89408 -0.428749 0
M  V30 4986 O 460.543 -1.43026 -1.3181 0
M  V30 4987 C 460.826 -3.15431 1.73711 0
M  V30 4988 C 460.679 -3.08049 3.27759 0
M  V30 4989 C 461.998 -4.14407 1.48173 0
M  V30 4990 H 459.117 -0.632741 0.377899 0
M  V30 4991 H 461.759 -1.16853 1.49818 0
M  V30 4992 H 459.909 -3.64493 1.34452 0
M  V30 4993 H 461.581 -2.66681 3.76403 0
M  V30 4994 H 459.824 -2.45088 3.57931 0
M  V30 4995 H 460.495 -4.07862 3.71958 0
M  V30 4996 H 462.971 -3.74061 1.82258 0
M  V30 4997 H 461.847 -5.11279 1.99713 0
M  V30 4998 H 462.108 -4.40174 0.412273 0
M  V30 4999 N 461.167 -1.02423 -1.1978 0
M  V30 5000 C 462.097 -0.62157 -2.25075 0
M  V30 5001 C 463.078 0.367148 -1.6609 0
M  V30 5002 O 464.263 0.250892 -1.92573 0
M  V30 5003 C 461.393 0.0331826 -3.47284 0
M  V30 5004 C 460.347 -0.877323 -4.18912 0
M  V30 5005 C 459.673 -0.0879296 -5.34628 0
M  V30 5006 C 460.973 -2.18892 -4.74219 0
M  V30 5007 H 462.667 -1.50179 -2.59011 0
M  V30 5008 H 460.213 -0.723547 -1.24502 0
M  V30 5009 H 462.166 0.326488 -4.20133 0
M  V30 5010 H 460.89 0.948164 -3.12534 0
M  V30 5011 H 459.549 -1.15475 -3.47938 0
M  V30 5012 H 459.197 0.828941 -4.96123 0
M  V30 5013 H 458.897 -0.694359 -5.83483 0
M  V30 5014 H 460.421 0.198743 -6.10276 0
M  V30 5015 H 461.835 -1.95746 -5.38847 0
M  V30 5016 H 460.232 -2.74686 -5.33542 0
M  V30 5017 H 461.302 -2.84674 -3.92541 0
M  V30 5018 N 462.645 1.35699 -0.801477 0
M  V30 5019 C 463.892 1.98913 -0.379459 0
M  V30 5020 C 464.22 1.63592 1.05204 0
M  V30 5021 O 463.475 0.888563 1.74365 0
M  V30 5022 C 463.774 3.53828 -0.504041 0
M  V30 5023 C 463.44 4.09002 -1.8981 0
M  V30 5024 C 462.102 4.23783 -2.27951 0
M  V30 5025 C 464.454 4.38939 -2.81038 0
M  V30 5026 C 461.782 4.65816 -3.56696 0
M  V30 5027 C 464.134 4.82409 -4.09224 0
M  V30 5028 C 462.798 4.95395 -4.4737 0
M  V30 5029 H 462.068 0.727874 -0.138854 0
M  V30 5030 H 464.715 1.61994 -1.02128 0
M  V30 5031 H 463.02 3.91175 0.221242 0
M  V30 5032 H 464.717 4.00687 -0.158361 0
M  V30 5033 H 461.307 3.97946 -1.59176 0
M  V30 5034 H 465.491 4.27077 -2.52821 0
M  V30 5035 H 460.747 4.74059 -3.86106 0
M  V30 5036 H 464.921 5.04535 -4.80018 0
M  V30 5037 H 462.548 5.27724 -5.47185 0
M  V30 5038 N 464.123 0.554532 1.47522 0
M  V30 5039 C 465.369 0.0295227 2.02779 0
M  V30 5040 C 465.702 -1.31582 1.42828 0
M  V30 5041 O 464.977 -1.85561 0.582872 0
M  V30 5042 C 465.26 -0.0664057 3.60039 0
M  V30 5043 C 465.113 1.30585 4.30427 0
M  V30 5044 C 466.432 -0.781162 4.33112 0
M  V30 5045 H 463.551 0.0122027 0.736899 0
M  V30 5046 H 466.193 0.716305 1.7598 0
M  V30 5047 H 464.343 -0.651307 3.83002 0
M  V30 5048 H 466.015 1.93374 4.18813 0
M  V30 5049 H 464.258 1.88125 3.90886 0
M  V30 5050 H 464.929 1.19147 5.38988 0
M  V30 5051 H 467.405 -0.284565 4.15126 0
M  V30 5052 H 466.281 -0.817237 5.42782 0
M  V30 5053 H 466.542 -1.83672 4.0214 0
M  V30 5054 N 465.601 -1.54893 0.290851 0
M  V30 5055 C 466.847 -2.0023 -0.321867 0
M  V30 5056 C 467.18 -1.179 -1.54316 0
M  V30 5057 O 466.455 -0.25293 -1.92848 0
M  V30 5058 C 466.738 -3.53456 -0.688515 0
M  V30 5059 C 466.591 -4.46532 0.541209 0
M  V30 5060 C 467.91 -4.13057 -1.51895 0
M  V30 5061 H 465.029 -0.727891 -0.115515 0
M  V30 5062 H 467.671 -1.85722 0.400931 0
M  V30 5063 H 465.821 -3.6595 -1.30433 0
M  V30 5064 H 467.493 -4.4596 1.17973 0
M  V30 5065 H 465.736 -4.17545 1.17636 0
M  V30 5066 H 466.407 -5.51475 0.240675 0
M  V30 5067 H 468.883 -4.03937 -0.99872 0
M  V30 5068 H 467.759 -5.20448 -1.74429 0
M  V30 5069 H 468.02 -3.64284 -2.50498 0
M  V30 5070 N 467.08 -0.0183926 -1.57589 0
M  V30 5071 C 468.491 0.521927 -1.79256 0
M  V30 5072 C 468.842 1.72885 -0.927636 0
M  V30 5073 O 467.967 2.15978 -0.135091 0
M  V30 5074 C 468.562 0.953632 -3.25102 0
M  V30 5075 C 467.121 1.43913 -3.47801 0
M  V30 5076 C 466.268 0.398837 -2.74417 0
M  V30 5077 H 469.219 -0.244485 -1.56805 0
M  V30 5078 H 469.24 1.81863 -3.34224 0
M  V30 5079 H 468.752 0.0750123 -3.88028 0
M  V30 5080 H 466.853 2.33804 -2.90115 0
M  V30 5081 H 466.966 1.45391 -4.56507 0
M  V30 5082 H 465.33 0.864572 -2.39577 0
M  V30 5083 H 466.113 -0.471132 -3.40052 0
M  V30 5084 N 468.558 1.5553 0.254621 0
M  V30 5085 C 469.804 1.7818 0.980989 0
M  V30 5086 C 470.159 0.586059 1.83257 0
M  V30 5087 O 469.452 -0.420889 1.8692 0
M  V30 5088 C 469.646 3.03891 1.88109 0
M  V30 5089 C 469.475 4.35578 1.11812 0
M  V30 5090 C 468.245 4.98497 0.826343 0
M  V30 5091 C 470.443 5.11869 0.499486 0
M  V30 5092 N 468.425 6.13888 0.0385095 0
M  V30 5093 C 469.796 6.1981 -0.153292 0
M  V30 5094 C 471.851 4.96216 0.409175 0
M  V30 5095 C 470.554 7.13801 -0.8877 0
M  V30 5096 C 472.58 5.90578 -0.311683 0
M  V30 5097 C 471.942 6.97922 -0.953129 0
M  V30 5098 H 468.041 0.704057 0.340335 0
M  V30 5099 H 470.625 1.93025 0.254855 0
M  V30 5100 H 468.796 2.90389 2.57932 0
M  V30 5101 H 470.528 3.14869 2.54244 0
M  V30 5102 H 467.283 4.59769 1.13621 0
M  V30 5103 H 467.707 6.76129 -0.343275 0
M  V30 5104 H 472.349 4.1331 0.890765 0
M  V30 5105 H 470.067 7.96214 -1.38092 0
M  V30 5106 H 473.653 5.80544 -0.382125 0
M  V30 5107 H 472.533 7.69681 -1.50203 0
M  V30 5108 N 470.036 -0.519951 1.48776 0
M  V30 5109 C 471.284 -1.2727 1.56993 0
M  V30 5110 C 471.605 -1.9339 0.25004 0
M  V30 5111 O 470.875 -1.81822 -0.729216 0
M  V30 5112 H 469.455 -0.472732 0.578389 0
M  V30 5113 H 472.117 -0.604234 1.85297 0
M  V30 5114 H 471.213 -2.04669 2.3562 0
M  V30 5115 N 471.514 -1.37532 -0.769588 0
M  V30 5116 C 472.761 -1.3286 -1.52822 0
M  V30 5117 C 473.089 0.0862597 -1.94309 0
M  V30 5118 O 472.344 1.05995 -1.6451 0
M  V30 5119 C 472.643 -2.21558 -2.8044 0
M  V30 5120 C 472.309 -3.69796 -2.57996 0
M  V30 5121 C 470.971 -4.10194 -2.51583 0
M  V30 5122 C 473.323 -4.63699 -2.37976 0
M  V30 5123 C 470.651 -5.42608 -2.23144 0
M  V30 5124 C 473.003 -5.96353 -2.1106 0
M  V30 5125 C 471.667 -6.35853 -2.03093 0
M  V30 5126 H 470.937 -0.486168 -0.559215 0
M  V30 5127 H 473.584 -1.69757 -0.886277 0
M  V30 5128 H 471.889 -1.77663 -3.49204 0
M  V30 5129 H 473.586 -2.15256 -3.38328 0
M  V30 5130 H 470.176 -3.37759 -2.63851 0
M  V30 5131 H 474.36 -4.33346 -2.41919 0
M  V30 5132 H 469.616 -5.72173 -2.15472 0
M  V30 5133 H 473.79 -6.68667 -1.94568 0
M  V30 5134 H 471.417 -7.38382 -1.8082 0
M  V30 5135 N 472.992 0.995999 -1.22138 0
M  V30 5136 C 473.955 2.06711 -0.990109 0
M  V30 5137 C 474.955 1.60744 0.0422978 0
M  V30 5138 O 476.145 1.73095 -0.195895 0
M  V30 5139 C 473.277 3.37288 -0.49491 0
M  V30 5140 H 474.47 2.28661 -1.94047 0
M  V30 5141 H 472.023 1.16711 -1.03963 0
M  V30 5142 H 472.758 3.21022 0.459948 0
M  V30 5143 H 472.543 3.71986 -1.23971 0
M  V30 5144 H 474.033 4.16103 -0.353253 0
M  V30 5145 N 474.47 1.03057 1.19235 0
M  V30 5146 C 475.886 0.747947 1.40989 0
M  V30 5147 C 476.086 -0.666752 1.90149 0
M  V30 5148 O 475.142 -1.43249 2.07933 0
M  V30 5149 C 476.455 1.7855 2.41951 0
M  V30 5150 C 478.003 1.80524 2.55695 0
M  V30 5151 C 478.478 2.83243 3.59913 0
M  V30 5152 N 479.969 2.8207 3.67411 0
M  V30 5153 C 480.704 3.58204 4.47747 0
M  V30 5154 N 480.2 4.44057 5.31775 0
M  V30 5155 N 481.993 3.46738 4.42413 0
M  V30 5156 H 474.144 1.94367 0.856468 0
M  V30 5157 H 476.407 0.840412 0.438647 0
M  V30 5158 H 476.113 2.79973 2.12857 0
M  V30 5159 H 475.987 1.6092 3.41152 0
M  V30 5160 H 478.374 0.79778 2.84112 0
M  V30 5161 H 478.455 2.02229 1.56643 0
M  V30 5162 H 478.099 3.84161 3.32239 0
M  V30 5163 H 478.029 2.58795 4.5862 0
M  V30 5164 H 480.52 2.19803 3.074 0
M  V30 5165 H 480.833 4.98884 5.90199 0
M  V30 5166 H 479.178 4.48129 5.3123 0
M  V30 5167 H 482.369 2.79077 3.75811 0
M  V30 5168 H 482.542 4.06322 5.04783 0
M  V30 5169 N 475.948 -1.35272 0.808662 0
M  V30 5170 C 476.911 -2.28082 0.226093 0
M  V30 5171 C 477.911 -1.49673 -0.587762 0
M  V30 5172 O 479.101 -1.69404 -0.405943 0
M  V30 5173 C 476.233 -3.33955 -0.684596 0
M  V30 5174 H 477.426 -2.81116 1.04469 0
M  V30 5175 H 474.979 -1.45162 0.579466 0
M  V30 5176 H 475.714 -2.86111 -1.5268 0
M  V30 5177 H 475.499 -3.91965 -0.102699 0
M  V30 5178 H 476.989 -4.03219 -1.08646 0
M  V30 5179 N 477.426 -0.562348 -1.47226 0
M  V30 5180 C 478.376 0.202967 -2.27095 0
M  V30 5181 C 479.36 0.880611 -1.34663 0
M  V30 5182 O 480.552 0.778069 -1.58981 0
M  V30 5183 C 477.681 1.22906 -3.20545 0
M  V30 5184 C 476.767 0.554566 -4.20459 0
M  V30 5185 N 477.158 -0.378295 -5.04383 0
M  V30 5186 C 475.456 0.807854 -4.38623 0
M  V30 5187 C 476.157 -0.770583 -5.76573 0
M  V30 5188 N 475.133 -0.124263 -5.43458 0
M  V30 5189 H 478.935 -0.514196 -2.89367 0
M  V30 5190 H 476.449 -0.382655 -1.57827 0
M  V30 5191 H 478.446 1.79134 -3.76453 0
M  V30 5192 H 477.106 1.94726 -2.59831 0
M  V30 5193 H 478.117 -0.75274 -5.124 0
M  V30 5194 H 474.794 1.51418 -3.89075 0
M  V30 5195 H 476.184 -1.53742 -6.54074 0
M  V30 5196 N 478.904 1.54736 -0.299062 0
M  V30 5197 C 479.834 2.26409 0.571085 0
M  V30 5198 C 480.815 1.2629 1.13951 0
M  V30 5199 O 482 1.55059 1.16921 0
M  V30 5200 C 479.13 3.00338 1.74396 0
M  V30 5201 C 478.084 4.07588 1.30599 0
M  V30 5202 C 477.41 4.69222 2.56387 0
M  V30 5203 C 478.71 5.20455 0.438645 0
M  V30 5204 H 480.404 2.99388 -0.0266991 0
M  V30 5205 H 477.95 1.43993 -0.0142812 0
M  V30 5206 H 479.903 3.49198 2.35878 0
M  V30 5207 H 478.627 2.24934 2.36796 0
M  V30 5208 H 477.286 3.59575 0.71424 0
M  V30 5209 H 476.934 3.9046 3.17097 0
M  V30 5210 H 476.634 5.41653 2.27784 0
M  V30 5211 H 478.158 5.20844 3.18675 0
M  V30 5212 H 479.572 5.65221 0.959085 0
M  V30 5213 H 477.969 5.99594 0.246466 0
M  V30 5214 H 479.039 4.8192 -0.536738 0
M  V30 5215 N 480.382 0.0267497 1.57577 0
M  V30 5216 C 481.292 -0.971633 2.13533 0
M  V30 5217 C 482.308 -1.35868 1.08701 0
M  V30 5218 O 483.484 -1.44058 1.40746 0
M  V30 5219 C 480.549 -2.23622 2.64941 0
M  V30 5220 C 479.61 -1.90982 3.8448 0
M  V30 5221 C 478.843 -3.11411 4.33427 0
M  V30 5222 O 479.066 -4.23992 3.81558 0
M  V30 5223 O 478 -2.93848 5.25297 0
M  V30 5224 H 481.826 -0.525853 2.99113 0
M  V30 5225 H 479.411 -0.193712 1.48139 0
M  V30 5226 H 481.293 -2.97864 2.98086 0
M  V30 5227 H 479.968 -2.67386 1.82446 0
M  V30 5228 H 478.875 -1.14132 3.56265 0
M  V30 5229 H 480.208 -1.52036 4.6813 0
M  V30 5230 N 481.861 -1.55662 -0.24637 0
M  V30 5231 C 482.809 -1.91186 -1.3248 0
M  V30 5232 C 483.803 -0.790996 -1.49799 0
M  V30 5233 O 485.009 -0.975617 -1.51267 0
M  V30 5234 H 481.384 -0.607207 -0.443626 0
M  V30 5235 H 483.355 -2.81221 -0.997853 0
M  V30 5236 C 482.104 -2.22349 -2.67313 0
M  V30 5237 H 481.427 -3.08097 -2.54786 0
M  V30 5238 H 482.867 -2.51107 -3.41645 0
M  V30 5239 C 481.326 -1.04001 -3.20446 0
M  V30 5240 O 481.856 -0.28828 -4.00664 0
M  V30 5241 N 480.062 -0.830494 -2.7848 0
M  V30 5242 H 479.609 -1.4435 -2.13356 0
M  V30 5243 H 479.567 -0.0403258 -3.14374 0
M  V30 5244 N 483.339 0.512053 -1.4905 0
M  V30 5245 C 484.567 1.29116 -1.61669 0
M  V30 5246 C 484.982 1.86655 -0.283787 0
M  V30 5247 O 484.339 1.67293 0.729331 0
M  V30 5248 C 484.39 2.4293 -2.67707 0
M  V30 5249 O 484.111 1.87758 -3.95826 0
M  V30 5250 C 485.612 3.34476 -2.90931 0
M  V30 5251 H 482.832 0.392009 -0.544583 0
M  V30 5252 H 485.376 0.615881 -1.95006 0
M  V30 5253 H 483.531 3.06308 -2.37179 0
M  V30 5254 H 483.945 2.62393 -4.54148 0
M  V30 5255 H 485.419 4.10642 -3.68886 0
M  V30 5256 H 485.896 3.90801 -2.00427 0
M  V30 5257 H 486.502 2.76874 -3.22832 0
M  V30 5258 N 484.817 1.37938 0.762283 0
M  V30 5259 C 486.065 1.33404 1.51815 0
M  V30 5260 C 486.386 -0.0780975 1.94844 0
M  V30 5261 O 485.656 -1.02405 1.67003 0
M  V30 5262 H 484.236 0.490839 0.563104 0
M  V30 5263 H 486.898 1.72527 0.906669 0
M  V30 5264 H 485.994 1.97926 2.41313 0
M  V30 5265 N 486.295 -0.989507 1.22664 0
M  V30 5266 C 487.535 -1.7447 1.06488 0
M  V30 5267 C 487.899 -1.8794 -0.392737 0
M  V30 5268 O 489.1 -2.60175 -0.675446 0
M  V30 5269 C 487.371 -3.11043 1.76031 0
M  V30 5270 S 488.93 -4.02258 1.7531 0
M  V30 5271 H 485.748 -0.600123 0.381278 0
M  V30 5272 H 488.35 -1.18283 1.55658 0
M  V30 5273 H 487.054 -2.98884 2.81241 0
M  V30 5274 H 486.585 -3.72301 1.27105 0
M  V30 5275 H 488.6 -4.89623 0.805208 0
M  V30 5276 N 487.773 -1.03688 -1.18687 0
M  V30 5277 C 489.019 -0.74888 -1.89112 0
M  V30 5278 C 489.374 0.715345 -1.78607 0
M  V30 5279 O 488.667 1.51498 -1.17299 0
M  V30 5280 C 488.861 -1.14477 -3.3857 0
M  V30 5281 C 488.69 -2.64594 -3.63621 0
M  V30 5282 C 487.46 -3.31685 -3.812 0
M  V30 5283 C 489.658 -3.62811 -3.64517 0
M  V30 5284 N 487.64 -4.70822 -3.93955 0
M  V30 5285 C 489.011 -4.87603 -3.8294 0
M  V30 5286 C 491.066 -3.56495 -3.47585 0
M  V30 5287 C 489.769 -6.0684 -3.86184 0
M  V30 5288 C 491.795 -4.75155 -3.52111 0
M  V30 5289 C 491.157 -5.98765 -3.71026 0
M  V30 5290 H 487.256 -0.32603 -0.710794 0
M  V30 5291 H 489.84 -1.3258 -1.42586 0
M  V30 5292 H 488.011 -0.595974 -3.838 0
M  V30 5293 H 489.743 -0.808187 -3.96548 0
M  V30 5294 H 486.498 -2.82091 -3.80423 0
M  V30 5295 H 486.922 -5.43122 -4.04163 0
M  V30 5296 H 491.564 -2.61907 -3.31911 0
M  V30 5297 H 489.282 -7.01788 -4.00648 0
M  V30 5298 H 492.868 -4.71905 -3.40289 0
M  V30 5299 H 491.748 -6.89047 -3.74412 0
M  V30 5300 N 489.251 1.34841 -0.815825 0
M  V30 5301 C 490.479 2.0273 -0.413294 0
M  V30 5302 C 490.894 1.61459 0.978599 0
M  V30 5303 O 490.251 0.816584 1.63212 0
M  V30 5304 C 490.302 3.58058 -0.497676 0
M  V30 5305 O 490.023 3.97832 -1.8347 0
M  V30 5306 C 491.524 4.4321 -0.0891339 0
M  V30 5307 H 488.744 0.649956 -0.166728 0
M  V30 5308 H 491.288 1.72267 -1.10201 0
M  V30 5309 H 489.443 3.87136 0.142886 0
M  V30 5310 H 489.857 4.92501 -1.80396 0
M  V30 5311 H 491.331 5.5164 -0.199274 0
M  V30 5312 H 491.808 4.28432 0.966571 0
M  V30 5313 H 492.414 4.19446 -0.703214 0
M  V30 5314 N 490.729 0.570148 1.46925 0
M  V30 5315 C 491.957 0.0561966 2.06824 0
M  V30 5316 C 492.372 -1.24326 1.42086 0
M  V30 5317 O 491.729 -1.74882 0.521794 0
M  V30 5318 C 491.78 -0.129517 3.61268 0
M  V30 5319 O 491.501 1.1185 4.23581 0
M  V30 5320 C 493.002 -0.679266 4.38065 0
M  V30 5321 H 490.222 0.0517261 0.669003 0
M  V30 5322 H 492.766 0.787243 1.8874 0
M  V30 5323 H 490.921 -0.810739 3.78822 0
M  V30 5324 H 491.335 0.924375 5.1629 0
M  V30 5325 H 492.809 -0.758445 5.46765 0
M  V30 5326 H 493.286 -1.69346 4.05239 0
M  V30 5327 H 493.892 -0.0333237 4.25287 0
M  V30 5328 N 492.207 -1.54576 0.307264 0
M  V30 5329 C 493.155 -2.25208 -0.581723 0
M  V30 5330 C 494.149 -1.26031 -1.13192 0
M  V30 5331 O 495.355 -1.43862 -1.08184 0
M  V30 5332 H 491.73 -0.723173 -0.206214 0
M  V30 5333 H 493.701 -2.98378 0.0364663 0
M  V30 5334 C 492.45 -3.01086 -1.73904 0
M  V30 5335 H 491.773 -3.77208 -1.32491 0
M  V30 5336 H 493.213 -3.5378 -2.33701 0
M  V30 5337 C 491.672 -2.08422 -2.64692 0
M  V30 5338 O 492.202 -1.65636 -3.65961 0
M  V30 5339 N 490.408 -1.74247 -2.32564 0
M  V30 5340 H 489.955 -2.09238 -1.50257 0
M  V30 5341 H 489.913 -1.12524 -2.93574 0
M  V30 5342 N 493.685 -0.035106 -1.57561 0
M  V30 5343 C 494.933 0.64096 -1.91667 0
M  V30 5344 C 495.254 1.72323 -0.912681 0
M  V30 5345 O 494.524 1.95849 0.0449089 0
M  V30 5346 H 493.104 0.239743 -0.707483 0
M  V30 5347 H 495.766 -0.084321 -1.94718 0
M  V30 5348 H 494.862 1.08987 -2.92452 0
M  V30 5349 N 495.163 1.55791 0.238111 0
M  V30 5350 C 496.111 1.91885 1.31464 0
M  V30 5351 C 497.105 0.798929 1.49377 0
M  V30 5352 O 498.311 0.983626 1.50747 0
M  V30 5353 H 494.686 0.609551 0.440399 0
M  V30 5354 H 496.657 2.81747 0.982925 0
M  V30 5355 C 495.406 2.23763 2.6613 0
M  V30 5356 H 494.729 3.09444 2.53149 0
M  V30 5357 H 496.169 2.52915 3.40309 0
M  V30 5358 C 494.628 1.05699 3.1989 0
M  V30 5359 O 495.158 0.309524 4.00506 0
M  V30 5360 N 493.364 0.845251 2.78036 0
M  V30 5361 H 492.911 1.4548 2.12588 0
M  V30 5362 H 492.869 0.0569973 3.14348 0
M  V30 5363 N 496.642 -0.504142 1.49319 0
M  V30 5364 C 497.589 -1.60603 1.65756 0
M  V30 5365 C 498.559 -1.58425 0.499082 0
M  V30 5366 O 499.744 -1.76459 0.725728 0
M  V30 5367 C 496.884 -2.98764 1.72726 0
M  V30 5368 C 495.997 -3.10982 2.99857 0
M  V30 5369 C 495.132 -4.39857 2.97824 0
M  V30 5370 C 494.171 -4.45697 4.19548 0
M  V30 5371 N 493.308 -5.65995 4.15444 0
M  V30 5372 H 498.148 -1.45895 2.59843 0
M  V30 5373 H 495.685 -0.709891 1.28837 0
M  V30 5374 H 497.643 -3.78839 1.74747 0
M  V30 5375 H 496.273 -3.12183 0.821075 0
M  V30 5376 H 495.325 -2.23991 3.07461 0
M  V30 5377 H 496.637 -3.11157 3.89849 0
M  V30 5378 H 495.791 -5.2825 2.98391 0
M  V30 5379 H 494.53 -4.42242 2.05604 0
M  V30 5380 H 493.535 -3.55707 4.19229 0
M  V30 5381 H 494.76 -4.4503 5.12957 0
M  V30 5382 H 492.706 -5.69229 3.26059 0
M  V30 5383 H 492.623 -5.67773 4.99169 0
M  V30 5384 H 493.891 -6.56604 4.20109 0
M  V30 5385 N 498.12 -1.38341 -0.754957 0
M  V30 5386 C 499.067 -1.3546 -1.86867 0
M  V30 5387 C 500.037 -0.217369 -1.64672 0
M  V30 5388 O 501.222 -0.409383 -1.86356 0
M  V30 5389 C 498.362 -1.18413 -3.24149 0
M  V30 5390 C 497.475 -2.41511 -3.58185 0
M  V30 5391 C 496.61 -2.17205 -4.84763 0
M  V30 5392 C 495.649 -3.36081 -5.11582 0
M  V30 5393 N 494.786 -3.11219 -6.29354 0
M  V30 5394 H 499.626 -2.30672 -1.88664 0
M  V30 5395 H 497.163 -1.14607 -0.922154 0
M  V30 5396 H 499.121 -1.06545 -4.03366 0
M  V30 5397 H 497.751 -0.268397 -3.21682 0
M  V30 5398 H 496.803 -2.64056 -2.73822 0
M  V30 5399 H 498.115 -3.30115 -3.73932 0
M  V30 5400 H 497.269 -2.02465 -5.7192 0
M  V30 5401 H 496.008 -1.25964 -4.71152 0
M  V30 5402 H 495.013 -3.51341 -4.22894 0
M  V30 5403 H 496.238 -4.28196 -5.27091 0
M  V30 5404 H 494.184 -2.22624 -6.17069 0
M  V30 5405 H 494.101 -3.93373 -6.45596 0
M  V30 5406 H 495.369 -3.00132 -7.19403 0
M  V30 5407 N 499.598 0.982988 -1.23187 0
M  V30 5408 C 500.847 1.71817 -1.05649 0
M  V30 5409 C 501.16 1.91315 0.407176 0
M  V30 5410 O 502.366 2.62256 0.702436 0
M  V30 5411 C 500.822 3.09188 -1.84203 0
M  V30 5412 C 500.43 2.97586 -3.34882 0
M  V30 5413 C 502.174 3.86684 -1.75146 0
M  V30 5414 C 500.081 4.30173 -4.05839 0
M  V30 5415 H 499.011 0.644258 -0.391724 0
M  V30 5416 H 501.662 1.09659 -1.4713 0
M  V30 5417 H 500.044 3.72087 -1.35527 0
M  V30 5418 H 501.218 2.43793 -3.91026 0
M  V30 5419 H 499.533 2.33567 -3.44725 0
M  V30 5420 H 502.13 4.84836 -2.25473 0
M  V30 5421 H 502.473 4.10136 -0.713737 0
M  V30 5422 H 503.006 3.30482 -2.21419 0
M  V30 5423 H 499.745 4.11918 -5.09906 0
M  V30 5424 H 499.265 4.83841 -3.54482 0
M  V30 5425 H 500.944 4.98873 -4.11989 0
M  V30 5426 N 501.076 1.04316 1.18135 0
M  V30 5427 C 502.322 0.758899 1.88712 0
M  V30 5428 C 502.677 -0.705863 1.78984 0
M  V30 5429 O 501.97 -1.50874 1.18101 0
M  V30 5430 C 502.164 1.16271 3.37958 0
M  V30 5431 C 501.993 2.66518 3.62213 0
M  V30 5432 C 500.763 3.33702 3.79436 0
M  V30 5433 C 502.961 3.64739 3.62588 0
M  V30 5434 N 500.943 4.72904 3.91452 0
M  V30 5435 C 502.314 4.89627 3.80348 0
M  V30 5436 C 504.369 3.58333 3.4569 0
M  V30 5437 C 503.072 6.08879 3.8296 0
M  V30 5438 C 505.098 4.77016 3.49586 0
M  V30 5439 C 504.46 6.00724 3.67845 0
M  V30 5440 H 500.559 0.329795 0.709055 0
M  V30 5441 H 503.143 1.33334 1.4188 0
M  V30 5442 H 501.314 0.616319 3.83479 0
M  V30 5443 H 503.046 0.829205 3.96114 0
M  V30 5444 H 499.801 2.84105 3.78921 0
M  V30 5445 H 500.225 5.45258 4.01277 0
M  V30 5446 H 504.867 2.63663 3.30517 0
M  V30 5447 H 502.585 7.03903 3.96921 0
M  V30 5448 H 506.171 4.73703 3.37782 0
M  V30 5449 H 505.051 6.91022 3.70753 0
M  V30 5450 N 502.554 -1.34406 0.822964 0
M  V30 5451 C 503.8 -1.98999 0.420847 0
M  V30 5452 C 504.155 -1.64067 -1.00498 0
M  V30 5453 O 503.448 -0.902071 -1.69036 0
M  V30 5454 C 503.642 -3.52981 0.560268 0
M  V30 5455 C 503.471 -4.02873 1.99809 0
M  V30 5456 C 502.241 -4.31463 2.62998 0
M  V30 5457 C 504.439 -4.20241 2.96483 0
M  V30 5458 N 502.421 -4.6739 3.9802 0
M  V30 5459 C 503.792 -4.59348 4.16413 0
M  V30 5460 C 505.847 -4.02489 2.93098 0
M  V30 5461 C 504.55 -4.82559 5.33413 0
M  V30 5462 C 506.576 -4.26866 4.09315 0
M  V30 5463 C 505.938 -4.6626 5.27997 0
M  V30 5464 H 502.037 -0.755432 0.202104 0
M  V30 5465 H 504.621 -1.62815 1.06767 0
M  V30 5466 H 502.792 -3.88359 -0.0566596 0
M  V30 5467 H 504.524 -4.04487 0.131146 0
M  V30 5468 H 501.279 -4.22373 2.14238 0
M  V30 5469 H 501.703 -4.89588 4.67582 0
M  V30 5470 H 506.345 -3.71161 2.02483 0
M  V30 5471 H 504.063 -5.12754 6.24587 0
M  V30 5472 H 507.649 -4.14667 4.08096 0
M  V30 5473 H 506.529 -4.84752 6.16429 0
M  V30 5474 N 504.032 -0.577932 -1.46621 0
M  V30 5475 C 505.281 -0.0594281 -2.01612 0
M  V30 5476 C 505.594 1.30663 -1.45556 0
M  V30 5477 O 506.8 1.91621 -1.92337 0
M  V30 5478 C 505.256 -0.0556666 -3.59857 0
M  V30 5479 C 504.864 -1.41975 -4.24908 0
M  V30 5480 C 506.608 0.409143 -4.22524 0
M  V30 5481 C 504.515 -1.37397 -5.75218 0
M  V30 5482 H 503.445 -0.0184469 -0.753774 0
M  V30 5483 H 506.096 -0.728869 -1.68404 0
M  V30 5484 H 504.478 0.679843 -3.90121 0
M  V30 5485 H 505.652 -2.17461 -4.0626 0
M  V30 5486 H 503.967 -1.82419 -3.74316 0
M  V30 5487 H 506.564 0.46211 -5.32699 0
M  V30 5488 H 506.907 1.42565 -3.91128 0
M  V30 5489 H 507.44 -0.272152 -3.96868 0
M  V30 5490 H 504.179 -2.36714 -6.11267 0
M  V30 5491 H 503.699 -0.661239 -5.96144 0
M  V30 5492 H 505.378 -1.08484 -6.3784 0
M  V30 5493 N 505.51 1.54411 -0.315457 0
M  V30 5494 C 506.759 1.99599 0.290395 0
M  V30 5495 C 507.072 1.20746 1.53882 0
M  V30 5496 O 508.278 1.56272 2.22017 0
M  V30 5497 C 506.734 3.5539 0.56797 0
M  V30 5498 C 506.342 4.43068 -0.662945 0
M  V30 5499 C 508.086 4.09067 1.13422 0
M  V30 5500 C 505.993 5.90317 -0.357722 0
M  V30 5501 H 504.923 0.745592 0.112286 0
M  V30 5502 H 507.574 1.78477 -0.426418 0
M  V30 5503 H 505.956 3.72468 1.34476 0
M  V30 5504 H 507.13 4.37765 -1.43869 0
M  V30 5505 H 505.445 4.00238 -1.14884 0
M  V30 5506 H 508.042 5.16663 1.37707 0
M  V30 5507 H 508.385 3.60552 2.08106 0
M  V30 5508 H 508.918 3.95589 0.418805 0
M  V30 5509 H 505.657 6.4301 -1.27351 0
M  V30 5510 H 505.177 5.98592 0.380472 0
M  V30 5511 H 506.856 6.4699 0.0354284 0
M  V30 5512 N 506.988 0.0434614 1.5754 0
M  V30 5513 C 508.404 -0.313039 1.565 0
M  V30 5514 C 508.604 -1.71954 1.05043 0
M  V30 5515 O 507.66 -2.425 0.703564 0
M  V30 5516 C 508.973 -0.148544 3.00333 0
M  V30 5517 C 510.521 -0.220231 3.12224 0
M  V30 5518 C 510.996 -0.0843565 4.57922 0
M  V30 5519 N 512.487 -0.140881 4.62986 0
M  V30 5520 C 513.222 -0.0597443 5.73369 0
M  V30 5521 N 512.718 0.0733004 6.92761 0
M  V30 5522 N 514.511 -0.11477 5.61983 0
M  V30 5523 H 506.662 0.96303 1.89313 0
M  V30 5524 H 508.925 0.373164 0.871466 0
M  V30 5525 H 508.631 0.820894 3.41986 0
M  V30 5526 H 508.505 -0.912798 3.65989 0
M  V30 5527 H 510.892 -1.18014 2.70475 0
M  V30 5528 H 510.973 0.574646 2.49262 0
M  V30 5529 H 510.617 0.872192 5.00355 0
M  V30 5530 H 510.547 -0.898281 5.18882 0
M  V30 5531 H 513.038 -0.243273 3.77116 0
M  V30 5532 H 513.351 0.128128 7.72694 0
M  V30 5533 H 511.696 0.10828 6.94916 0
M  V30 5534 H 514.887 -0.217212 4.67596 0
M  V30 5535 H 515.06 -0.0480779 6.47982 0
M  V30 5536 N 508.466 -1.55915 -0.229846 0
M  V30 5537 C 509.714 -1.7819 -0.953565 0
M  V30 5538 C 510.035 -0.610504 -1.85197 0
M  V30 5539 O 509.305 0.372988 -1.92316 0
M  V30 5540 H 507.885 -0.657208 -0.355087 0
M  V30 5541 H 510.547 -1.9337 -0.243693 0
M  V30 5542 H 509.643 -2.70011 -1.56527 0
M  V30 5543 N 509.944 0.496216 -1.49584 0
M  V30 5544 C 511.355 1.07765 -1.52459 0
M  V30 5545 C 511.706 1.93679 -0.31353 0
M  V30 5546 O 510.831 2.08588 0.576186 0
M  V30 5547 C 511.426 1.96111 -2.76271 0
M  V30 5548 C 509.985 2.49409 -2.81908 0
M  V30 5549 C 509.132 1.27142 -2.46435 0
M  V30 5550 H 512.083 0.279914 -1.56212 0
M  V30 5551 H 512.104 2.80862 -2.56704 0
M  V30 5552 H 511.616 1.33555 -3.64396 0
M  V30 5553 H 509.717 3.1559 -1.98074 0
M  V30 5554 H 509.83 2.86234 -3.84196 0
M  V30 5555 H 508.194 1.59818 -1.98319 0
M  V30 5556 H 508.977 0.662866 -3.3684 0
M  V30 5557 N 511.423 1.38739 0.74761 0
M  V30 5558 C 512.356 1.3083 1.86972 0
M  V30 5559 C 513.334 0.184229 1.61553 0
M  V30 5560 O 514.518 0.36256 1.8498 0
M  V30 5561 C 511.645 1.02854 3.22705 0
M  V30 5562 C 510.691 2.17281 3.67003 0
M  V30 5563 S 511.524 3.79468 3.77842 0
M  V30 5564 C 512.68 3.53692 5.16385 0
M  V30 5565 H 512.913 2.258 1.93395 0
M  V30 5566 H 510.446 1.24646 0.911199 0
M  V30 5567 H 512.404 0.87397 4.01089 0
M  V30 5568 H 511.065 0.0959295 3.13953 0
M  V30 5569 H 510.258 1.93267 4.65472 0
M  V30 5570 H 509.86 2.28876 2.9579 0
M  V30 5571 H 512.152 3.10176 6.02327 0
M  V30 5572 H 513.095 4.51576 5.45422 0
M  V30 5573 H 513.503 2.8807 4.85464 0
M  V30 5574 N 512.901 -0.976442 1.23707 0
M  V30 5575 C 513.834 -2.06793 0.964973 0
M  V30 5576 C 514.812 -1.62304 -0.0981472 0
M  V30 5577 O 515.996 -1.88464 0.0369477 0
M  V30 5578 C 513.123 -3.35636 0.454522 0
M  V30 5579 C 512.169 -3.99069 1.50485 0
M  V30 5580 S 513.002 -4.37814 3.0835 0
M  V30 5581 C 514.158 -5.69805 2.58985 0
M  V30 5582 H 514.391 -2.29556 1.88922 0
M  V30 5583 H 511.924 -1.11317 1.06995 0
M  V30 5584 H 513.882 -4.10162 0.166626 0
M  V30 5585 H 512.543 -3.10876 -0.448871 0
M  V30 5586 H 511.736 -4.91896 1.09792 0
M  V30 5587 H 511.338 -3.30938 1.7423 0
M  V30 5588 H 513.63 -6.46919 2.01252 0
M  V30 5589 H 514.573 -6.15345 3.50366 0
M  V30 5590 H 514.981 -5.27994 1.99705 0
M  V30 5591 N 514.379 -1.04941 -1.1758 0
M  V30 5592 C 515.309 -0.669172 -2.23706 0
M  V30 5593 C 516.29 0.331835 -1.66832 0
M  V30 5594 O 517.475 0.209988 -1.93061 0
M  V30 5595 C 514.605 -0.0404889 -3.47276 0
M  V30 5596 C 513.559 -0.965983 -4.16957 0
M  V30 5597 C 512.885 -0.201312 -5.34321 0
M  V30 5598 C 514.185 -2.28902 -4.69469 0
M  V30 5599 H 515.879 -1.55639 -2.55767 0
M  V30 5600 H 513.425 -0.749793 -1.22939 0
M  V30 5601 H 515.378 0.237298 -4.20731 0
M  V30 5602 H 514.102 0.881658 -3.14475 0
M  V30 5603 H 512.761 -1.22829 -3.45411 0
M  V30 5604 H 512.409 0.723519 -4.97769 0
M  V30 5605 H 512.109 -0.817968 -5.81879 0
M  V30 5606 H 513.633 0.0692499 -6.10561 0
M  V30 5607 H 515.047 -2.07132 -5.34574 0
M  V30 5608 H 513.444 -2.85942 -5.27596 0
M  V30 5609 H 514.514 -2.92937 -3.86414 0
M  V30 5610 N 515.857 1.33968 -0.830081 0
M  V30 5611 C 517.097 1.99879 -0.427521 0
M  V30 5612 C 517.461 1.64355 0.992546 0
M  V30 5613 O 518.662 2.23164 1.49837 0
M  V30 5614 C 516.933 3.51771 -0.631815 0
M  V30 5615 S 518.492 4.37608 -0.323168 0
M  V30 5616 H 515.31 0.692485 -0.161202 0
M  V30 5617 H 517.912 1.63129 -1.07745 0
M  V30 5618 H 516.616 3.75113 -1.66488 0
M  V30 5619 H 516.147 3.93386 0.0325936 0
M  V30 5620 H 518.162 4.88683 0.860432 0
M  V30 5621 N 517.335 0.585699 1.46312 0
M  V30 5622 C 518.581 0.0725284 2.0267 0
M  V30 5623 C 518.914 -1.28523 1.45586 0
M  V30 5624 O 518.189 -1.84283 0.622101 0
M  V30 5625 C 518.472 0.0099788 3.60099 0
M  V30 5626 C 518.325 1.39685 4.27561 0
M  V30 5627 C 519.644 -0.689117 4.34671 0
M  V30 5628 H 516.763 0.0278307 0.736474 0
M  V30 5629 H 519.405 0.753472 1.74421 0
M  V30 5630 H 517.555 -0.56992 3.84297 0
M  V30 5631 H 519.227 2.02215 4.14617 0
M  V30 5632 H 517.47 1.96374 3.86807 0
M  V30 5633 H 518.141 1.30553 5.36339 0
M  V30 5634 H 520.617 -0.196446 4.15636 0
M  V30 5635 H 519.493 -0.701921 5.44393 0
M  V30 5636 H 519.754 -1.75101 4.05946 0
M  V30 5637 N 518.813 -1.54241 0.323641 0
M  V30 5638 C 520.041 -2.04985 -0.280871 0
M  V30 5639 C 520.456 -1.19978 -1.45777 0
M  V30 5640 O 519.813 -0.230471 -1.81039 0
M  V30 5641 C 519.864 -3.54353 -0.715258 0
M  V30 5642 O 519.585 -4.36132 0.414817 0
M  V30 5643 C 521.086 -4.21189 -1.38257 0
M  V30 5644 H 518.306 -0.66851 -0.0577502 0
M  V30 5645 H 520.85 -1.99029 0.469852 0
M  V30 5646 H 519.005 -3.60596 -1.41596 0
M  V30 5647 H 519.419 -5.2445 0.0725227 0
M  V30 5648 H 520.893 -5.27154 -1.63745 0
M  V30 5649 H 521.37 -3.72307 -2.32989 0
M  V30 5650 H 521.976 -4.19085 -0.724447 0
M  V30 5651 N 520.291 -0.0518155 -1.57515 0
M  V30 5652 C 521.537 0.622745 -1.93002 0
M  V30 5653 C 521.87 1.70456 -0.930499 0
M  V30 5654 O 521.145 1.94452 0.0434086 0
M  V30 5655 C 521.428 1.21824 -3.38867 0
M  V30 5656 C 521.281 0.144434 -4.49568 0
M  V30 5657 C 522.6 2.12968 -3.8514 0
M  V30 5658 H 519.719 0.22491 -0.701844 0
M  V30 5659 H 522.361 -0.113711 -1.89659 0
M  V30 5660 H 520.511 1.8459 -3.41846 0
M  V30 5661 H 522.183 -0.48753 -4.58717 0
M  V30 5662 H 520.426 -0.527424 -4.30582 0
M  V30 5663 H 521.097 0.601127 -5.48717 0
M  V30 5664 H 523.573 1.60163 -3.8404 0
M  V30 5665 H 522.449 2.51578 -4.87852 0
M  V30 5666 H 522.71 3.03004 -3.21934 0
M  V30 5667 N 521.769 1.56035 0.221574 0
M  V30 5668 C 522.717 1.93269 1.29421 0
M  V30 5669 C 523.711 0.814727 1.48521 0
M  V30 5670 O 524.917 0.999559 1.49696 0
M  V30 5671 H 521.292 0.614188 0.43391 0
M  V30 5672 H 523.263 2.82773 0.952987 0
M  V30 5673 C 522.012 2.26573 2.63742 0
M  V30 5674 H 521.335 3.12112 2.49853 0
M  V30 5675 H 522.775 2.5651 3.37607 0
M  V30 5676 C 521.234 1.09086 3.1875 0
M  V30 5677 O 521.764 0.351985 4.00155 0
M  V30 5678 N 519.97 0.874693 2.77124 0
M  V30 5679 H 519.517 1.47726 2.11033 0
M  V30 5680 H 519.475 0.0903349 3.1427 0
M  V30 5681 N 523.247 -0.488276 1.49845 0
M  V30 5682 C 524.494 -1.24157 1.59973 0
M  V30 5683 C 524.822 -1.92293 0.292182 0
M  V30 5684 O 524.077 -1.81942 -0.720813 0
M  V30 5685 C 524.376 -2.32152 2.71735 0
M  V30 5686 C 524.042 -1.81387 4.12807 0
M  V30 5687 C 522.704 -1.67262 4.51195 0
M  V30 5688 C 525.056 -1.43537 5.01045 0
M  V30 5689 C 522.384 -1.13685 5.7558 0
M  V30 5690 C 524.736 -0.914081 6.25961 0
M  V30 5691 C 523.4 -0.759327 6.63167 0
M  V30 5692 H 522.67 -0.454322 0.585383 0
M  V30 5693 H 525.317 -0.540261 1.83721 0
M  V30 5694 H 523.622 -3.08122 2.42008 0
M  V30 5695 H 525.319 -2.90164 2.76778 0
M  V30 5696 H 521.909 -1.93344 3.82513 0
M  V30 5697 H 526.093 -1.53292 4.72033 0
M  V30 5698 H 521.349 -1.00426 6.03096 0
M  V30 5699 H 525.523 -0.612066 6.93705 0
M  V30 5700 H 523.15 -0.342002 7.5943 0
M  V30 5701 N 524.725 -1.39134 -0.740242 0
M  V30 5702 C 525.972 -1.36071 -1.49969 0
M  V30 5703 C 526.3 0.0450245 -1.94448 0
M  V30 5704 O 525.555 1.02482 -1.66721 0
M  V30 5705 C 525.854 -2.27457 -2.75678 0
M  V30 5706 C 525.52 -3.75185 -2.50094 0
M  V30 5707 C 524.182 -4.15439 -2.42825 0
M  V30 5708 C 526.534 -4.68643 -2.28086 0
M  V30 5709 C 523.862 -5.4722 -2.11584 0
M  V30 5710 C 526.214 -6.00695 -1.98363 0
M  V30 5711 C 524.878 -6.40018 -1.8956 0
M  V30 5712 H 524.148 -0.497921 -0.548777 0
M  V30 5713 H 526.795 -1.71599 -0.85007 0
M  V30 5714 H 525.1 -1.8503 -3.45356 0
M  V30 5715 H 526.797 -2.22384 -3.33686 0
M  V30 5716 H 523.387 -3.43279 -2.56627 0
M  V30 5717 H 527.571 -4.3838 -2.32672 0
M  V30 5718 H 522.827 -5.76615 -2.03287 0
M  V30 5719 H 527.001 -6.72644 -1.80341 0
M  V30 5720 H 524.628 -7.42051 -1.65117 0
M  V30 5721 N 526.204 0.969867 -1.24223 0
M  V30 5722 C 527.453 1.70687 -1.07466 0
M  V30 5723 C 527.766 1.91736 0.386861 0
M  V30 5724 O 528.972 2.62986 0.674581 0
M  V30 5725 C 527.428 3.07217 -1.87472 0
M  V30 5726 C 527.036 2.94018 -3.3802 0
M  V30 5727 C 528.78 3.84804 -1.79237 0
M  V30 5728 C 526.687 4.25844 -4.10379 0
M  V30 5729 H 525.617 0.640067 -0.398536 0
M  V30 5730 H 528.268 1.08092 -1.48285 0
M  V30 5731 H 526.65 3.70628 -1.39466 0
M  V30 5732 H 527.824 2.39632 -3.9359 0
M  V30 5733 H 526.139 2.29898 -3.47183 0
M  V30 5734 H 528.736 4.82417 -2.30603 0
M  V30 5735 H 529.079 4.09356 -0.757197 0
M  V30 5736 H 529.612 3.28115 -2.24912 0
M  V30 5737 H 526.351 4.06486 -5.14246 0
M  V30 5738 H 525.871 4.80054 -3.59594 0
M  V30 5739 H 527.55 4.94475 -4.17257 0
M  V30 5740 N 527.682 1.05563 1.17022 0
M  V30 5741 C 528.929 0.767937 1.87374 0
M  V30 5742 C 529.257 -0.705224 1.81265 0
M  V30 5743 O 528.512 -1.5318 1.21796 0
M  V30 5744 C 528.811 1.19849 3.36706 0
M  V30 5745 C 528.477 2.6745 3.63017 0
M  V30 5746 C 527.139 3.0777 3.69907 0
M  V30 5747 C 529.491 3.62811 3.74189 0
M  V30 5748 C 526.819 4.42307 3.85463 0
M  V30 5749 C 529.171 4.97087 3.91264 0
M  V30 5750 C 527.835 5.37055 3.96394 0
M  V30 5751 H 527.105 0.281008 0.68565 0
M  V30 5752 H 529.752 1.32339 1.38415 0
M  V30 5753 H 528.057 0.562096 3.87747 0
M  V30 5754 H 529.754 0.953038 3.8951 0
M  V30 5755 H 526.344 2.35228 3.58282 0
M  V30 5756 H 530.528 3.32798 3.68183 0
M  V30 5757 H 525.784 4.72769 3.87684 0
M  V30 5758 H 529.958 5.70869 3.9885 0
M  V30 5759 H 527.585 6.41308 4.082 0
M  V30 5760 N 529.16 -1.33526 0.837174 0
M  V30 5761 C 530.09 -2.31764 0.284206 0
M  V30 5762 C 531.071 -1.58896 -0.607142 0
M  V30 5763 O 532.256 -1.86798 -0.531047 0
M  V30 5764 C 529.386 -3.43029 -0.542962 0
M  V30 5765 C 528.34 -4.27255 0.252451 0
M  V30 5766 C 527.666 -5.3012 -0.69836 0
M  V30 5767 C 528.966 -5.01229 1.46858 0
M  V30 5768 H 530.66 -2.78262 1.10502 0
M  V30 5769 H 528.206 -1.3378 0.532812 0
M  V30 5770 H 530.159 -4.1078 -0.940096 0
M  V30 5771 H 528.883 -2.95216 -1.39697 0
M  V30 5772 H 527.542 -3.61127 0.631124 0
M  V30 5773 H 527.19 -4.78564 -1.54872 0
M  V30 5774 H 526.89 -5.87353 -0.170274 0
M  V30 5775 H 528.414 -6.00737 -1.09305 0
M  V30 5776 H 529.828 -5.61756 1.14469 0
M  V30 5777 H 528.225 -5.68104 1.93333 0
M  V30 5778 H 529.295 -4.301 2.23924 0
M  V30 5779 N 530.638 -0.59345 -1.46 0
M  V30 5780 C 531.585 0.133618 -2.30413 0
M  V30 5781 C 532.555 0.873736 -1.41262 0
M  V30 5782 O 533.74 0.862279 -1.70204 0
M  V30 5783 C 530.88 1.13434 -3.25924 0
M  V30 5784 C 529.993 0.39656 -4.30176 0
M  V30 5785 C 529.128 1.38575 -5.12806 0
M  V30 5786 C 528.167 0.634984 -6.08797 0
M  V30 5787 N 527.304 1.57276 -6.84258 0
M  V30 5788 H 532.144 -0.592252 -2.92055 0
M  V30 5789 H 529.681 -0.303874 -1.43927 0
M  V30 5790 H 531.639 1.72752 -3.79753 0
M  V30 5791 H 530.269 1.82779 -2.66067 0
M  V30 5792 H 529.321 -0.311861 -3.79119 0
M  V30 5793 H 530.633 -0.189869 -4.98438 0
M  V30 5794 H 529.787 2.05141 -5.70966 0
M  V30 5795 H 528.526 2.00611 -4.44529 0
M  V30 5796 H 527.531 -0.0443925 -5.49782 0
M  V30 5797 H 528.756 0.0198678 -6.79097 0
M  V30 5798 H 526.702 2.18103 -6.18682 0
M  V30 5799 H 526.619 1.03941 -7.48821 0
M  V30 5800 H 527.887 2.22844 -7.46968 0
M  V30 5801 N 532.116 1.54067 -0.331816 0
M  V30 5802 C 533.365 1.99895 0.269209 0
M  V30 5803 C 533.678 1.22371 1.52593 0
M  V30 5804 O 534.884 1.58618 2.20347 0
M  V30 5805 C 533.34 3.55972 0.530244 0
M  V30 5806 C 532.948 4.4234 -0.709901 0
M  V30 5807 C 534.692 4.10247 1.09077 0
M  V30 5808 C 532.599 5.89905 -0.420312 0
M  V30 5809 H 531.529 0.746741 0.104371 0
M  V30 5810 H 534.18 1.78014 -0.445324 0
M  V30 5811 H 532.562 3.73873 1.30518 0
M  V30 5812 H 533.736 4.36215 -1.48504 0
M  V30 5813 H 532.051 3.98997 -1.19123 0
M  V30 5814 H 534.648 5.18095 1.32219 0
M  V30 5815 H 534.991 3.62739 2.0427 0
M  V30 5816 H 535.524 3.96011 0.376824 0
M  V30 5817 H 532.263 6.41623 -1.34164 0
M  V30 5818 H 531.783 5.98962 0.316962 0
M  V30 5819 H 533.462 6.46991 -0.0331956 0
M  V30 5820 N 533.594 0.0601682 1.57485 0
M  V30 5821 C 534.524 -0.90889 2.15085 0
M  V30 5822 C 535.505 -1.31838 1.07484 0
M  V30 5823 O 536.69 -1.3915 1.35466 0
M  V30 5824 C 533.82 -2.18059 2.7031 0
M  V30 5825 C 532.774 -1.91088 3.82974 0
M  V30 5826 C 532.1 -3.24789 4.24754 0
M  V30 5827 C 533.4 -1.22535 5.07723 0
M  V30 5828 H 535.094 -0.429093 2.96309 0
M  V30 5829 H 532.64 -0.204952 1.42534 0
M  V30 5830 H 534.593 -2.86258 3.09248 0
M  V30 5831 H 533.317 -2.6826 1.8629 0
M  V30 5832 H 531.976 -1.25297 3.44523 0
M  V30 5833 H 531.624 -3.72809 3.37672 0
M  V30 5834 H 531.324 -3.07538 5.00694 0
M  V30 5835 H 532.848 -3.94205 4.66299 0
M  V30 5836 H 534.262 -1.80783 5.4405 0
M  V30 5837 H 532.659 -1.1558 5.88864 0
M  V30 5838 H 533.729 -0.202692 4.84476 0
M  V30 5839 N 535.072 -1.5615 -0.213296 0
M  V30 5840 C 536.019 -1.93086 -1.26437 0
M  V30 5841 C 536.989 -0.789086 -1.4616 0
M  V30 5842 O 538.174 -1.04569 -1.59593 0
M  V30 5843 C 535.314 -2.26003 -2.608 0
M  V30 5844 C 534.427 -3.53156 -2.48807 0
M  V30 5845 C 533.562 -3.7548 -3.7575 0
M  V30 5846 C 532.601 -4.96119 -3.58514 0
M  V30 5847 N 531.738 -5.14791 -4.77425 0
M  V30 5848 H 536.578 -2.82707 -0.942376 0
M  V30 5849 H 534.115 -1.39919 -0.454001 0
M  V30 5850 H 536.073 -2.431 -3.39055 0
M  V30 5851 H 534.703 -1.39546 -2.91079 0
M  V30 5852 H 533.755 -3.44207 -1.61944 0
M  V30 5853 H 535.067 -4.41565 -2.31996 0
M  V30 5854 H 534.221 -3.92718 -4.62447 0
M  V30 5855 H 532.96 -2.85368 -3.95495 0
M  V30 5856 H 531.965 -4.78823 -2.70201 0
M  V30 5857 H 533.19 -5.87724 -3.40231 0
M  V30 5858 H 531.136 -4.27623 -4.97468 0
M  V30 5859 H 531.053 -5.97347 -4.63371 0
M  V30 5860 H 532.321 -5.36471 -5.65525 0
M  V30 5861 N 536.55 0.480323 -1.50102 0
M  V30 5862 C 537.48 1.58769 -1.71215 0
M  V30 5863 C 538.461 1.60583 -0.560997 0
M  V30 5864 O 539.646 1.76996 -0.799127 0
M  V30 5865 C 536.776 2.97148 -1.79778 0
M  V30 5866 C 535.73 3.10201 -2.94888 0
M  V30 5867 C 535.056 4.50137 -2.88584 0
M  V30 5868 C 536.356 2.88283 -4.35534 0
M  V30 5869 H 538.05 1.41354 -2.6393 0
M  V30 5870 H 535.596 0.678591 -1.27008 0
M  V30 5871 H 537.549 3.74536 -1.93133 0
M  V30 5872 H 536.273 3.15699 -0.836772 0
M  V30 5873 H 534.932 2.35244 -2.81169 0
M  V30 5874 H 534.58 4.65593 -1.90349 0
M  V30 5875 H 534.28 4.59808 -3.65856 0
M  V30 5876 H 535.804 5.29558 -3.03976 0
M  V30 5877 H 537.218 3.55427 -4.49827 0
M  V30 5878 H 535.615 3.09408 -5.14186 0
M  V30 5879 H 536.685 1.84219 -4.48544 0
M  V30 5880 N 538.028 1.39524 0.732853 0
M  V30 5881 C 538.958 1.41153 1.86005 0
M  V30 5882 C 539.939 0.274614 1.67869 0
M  V30 5883 O 541.124 0.480745 1.88155 0
M  V30 5884 C 538.254 1.25638 3.23778 0
M  V30 5885 C 537.208 2.36752 3.56556 0
M  V30 5886 C 536.534 2.06326 4.93289 0
M  V30 5887 C 537.834 3.79069 3.5931 0
M  V30 5888 H 539.528 2.35484 1.84899 0
M  V30 5889 H 537.074 1.13348 0.888162 0
M  V30 5890 H 539.027 1.25398 4.0231 0
M  V30 5891 H 537.751 0.277772 3.25417 0
M  V30 5892 H 536.41 2.36213 2.80355 0
M  V30 5893 H 536.058 1.06897 4.9151 0
M  V30 5894 H 535.758 2.80757 5.16187 0
M  V30 5895 H 537.282 2.07739 5.74175 0
M  V30 5896 H 538.696 3.81526 4.27914 0
M  V30 5897 H 537.093 4.52878 3.93728 0
M  V30 5898 H 538.163 4.09893 2.59068 0
M  V30 5899 N 539.506 -0.963266 1.24736 0
M  V30 5900 C 540.755 -1.70115 1.08369 0
M  V30 5901 C 541.068 -1.91939 -0.376688 0
M  V30 5902 O 542.274 -2.6334 -0.660624 0
M  V30 5903 C 540.73 -3.06218 1.89099 0
M  V30 5904 C 540.338 -2.92221 3.39574 0
M  V30 5905 C 542.082 -3.83848 1.81275 0
M  V30 5906 C 539.989 -4.23662 4.12631 0
M  V30 5907 H 538.919 -0.637944 0.401924 0
M  V30 5908 H 541.57 -1.07304 1.48856 0
M  V30 5909 H 539.952 -3.69884 1.41429 0
M  V30 5910 H 541.126 -2.37541 3.94856 0
M  V30 5911 H 539.441 -2.28054 3.48397 0
M  V30 5912 H 542.038 -4.81188 2.33158 0
M  V30 5913 H 542.381 -4.08949 0.778895 0
M  V30 5914 H 542.914 -3.26918 2.26649 0
M  V30 5915 H 539.653 -4.03753 5.16395 0
M  V30 5916 H 539.173 -4.78141 3.62135 0
M  V30 5917 H 540.852 -4.92256 4.19873 0
M  V30 5918 N 540.985 -1.06182 -1.16461 0
M  V30 5919 C 542.21 -0.798599 -1.91408 0
M  V30 5920 C 542.635 0.640987 -1.76842 0
M  V30 5921 O 541.993 1.44652 -1.09296 0
M  V30 5922 C 542.041 -1.19665 -3.40165 0
M  V30 5923 O 541.145 -0.334768 -4.11039 0
M  V30 5924 H 540.486 -0.291961 -0.596368 0
M  V30 5925 H 543.016 -1.41732 -1.47557 0
M  V30 5926 H 543.026 -1.16772 -3.90933 0
M  V30 5927 H 541.701 -2.24526 -3.50087 0
M  V30 5928 H 540.278 -0.425168 -3.70468 0
M  V30 5929 N 542.463 1.3308 -0.844243 0
M  V30 5930 C 543.41 2.29104 -0.279323 0
M  V30 5931 C 544.38 1.54577 0.607882 0
M  V30 5932 O 545.565 1.8285 0.545009 0
M  V30 5933 C 542.705 3.40927 0.53508 0
M  V30 5934 C 541.818 4.30354 -0.376749 0
M  V30 5935 C 540.953 5.29297 0.449276 0
M  V30 5936 C 539.992 6.10365 -0.460606 0
M  V30 5937 N 539.129 7.01335 0.327612 0
M  V30 5938 H 543.969 2.76817 -1.10346 0
M  V30 5939 H 541.506 1.36203 -0.555611 0
M  V30 5940 H 543.464 4.04469 1.02278 0
M  V30 5941 H 542.094 2.94391 1.32414 0
M  V30 5942 H 541.146 3.67485 -0.982791 0
M  V30 5943 H 542.458 4.87067 -1.07549 0
M  V30 5944 H 541.612 5.98392 1.00058 0
M  V30 5945 H 540.351 4.73174 1.18143 0
M  V30 5946 H 539.356 5.40182 -1.02388 0
M  V30 5947 H 540.581 6.68571 -1.1912 0
M  V30 5948 H 538.527 6.47655 1.04305 0
M  V30 5949 H 538.444 7.55355 -0.3123 0
M  V30 5950 H 539.712 7.74731 0.86098 0
M  V30 5951 N 543.941 0.601185 1.45683 0
M  V30 5952 C 544.871 -0.108824 2.33246 0
M  V30 5953 C 545.852 -0.865223 1.46451 0
M  V30 5954 O 547.037 -0.83704 1.75235 0
M  V30 5955 C 544.167 -1.11101 3.2905 0
M  V30 5956 C 543.121 -0.468244 4.25431 0
M  V30 5957 C 542.447 -1.57822 5.10878 0
M  V30 5958 C 543.747 0.606469 5.18767 0
M  V30 5959 H 545.441 0.622306 2.92861 0
M  V30 5960 H 542.987 0.300714 1.40825 0
M  V30 5961 H 544.94 -1.61622 3.89174 0
M  V30 5962 H 543.664 -1.87265 2.67581 0
M  V30 5963 H 542.323 0.0160484 3.66596 0
M  V30 5964 H 541.971 -2.32998 4.45781 0
M  V30 5965 H 541.671 -1.15369 5.76163 0
M  V30 5966 H 543.195 -2.08583 5.73869 0
M  V30 5967 H 544.609 0.185589 5.73 0
M  V30 5968 H 543.006 0.952381 5.92494 0
M  V30 5969 H 544.076 1.48559 4.61582 0
M  V30 5970 N 545.419 -1.53889 0.339982 0
M  V30 5971 C 546.366 -2.24902 -0.518452 0
M  V30 5972 C 547.336 -1.24593 -1.09844 0
M  V30 5973 O 548.521 -1.53317 -1.13572 0
M  V30 5974 C 545.661 -3.02262 -1.66529 0
M  V30 5975 C 544.774 -4.17418 -1.11295 0
M  V30 5976 C 543.909 -4.82273 -2.2268 0
M  V30 5977 C 542.948 -5.89503 -1.6478 0
M  V30 5978 N 542.085 -6.48153 -2.69893 0
M  V30 5979 H 546.925 -2.97853 0.0936579 0
M  V30 5980 H 544.462 -1.46986 0.0579924 0
M  V30 5981 H 546.42 -3.45371 -2.3404 0
M  V30 5982 H 545.05 -2.31614 -2.24844 0
M  V30 5983 H 544.102 -3.78976 -0.328886 0
M  V30 5984 H 545.414 -4.94554 -0.649414 0
M  V30 5985 H 544.568 -5.28435 -2.98063 0
M  V30 5986 H 543.307 -4.04552 -2.72376 0
M  V30 5987 H 542.312 -5.42728 -0.879004 0
M  V30 5988 H 543.537 -6.6913 -1.1594 0
M  V30 5989 H 541.483 -5.73298 -3.1885 0
M  V30 5990 H 541.4 -7.20752 -2.28151 0
M  V30 5991 H 542.668 -6.98968 -3.45056 0
M  V30 5992 N 546.897 -0.0685191 -1.57451 0
M  V30 5993 C 547.86 0.885173 -2.11417 0
M  V30 5994 C 548.86 1.22853 -1.03748 0
M  V30 5995 O 550.05 1.16235 -1.2975 0
M  V30 5996 C 547.182 2.18964 -2.61281 0
M  V30 5997 H 548.375 0.417034 -2.96986 0
M  V30 5998 H 545.928 0.18014 -1.55258 0
M  V30 5999 H 546.663 2.70321 -1.79156 0
M  V30 6000 H 546.448 1.9534 -3.39977 0
M  V30 6001 H 547.938 2.87242 -3.0312 0
M  V30 6002 N 548.375 1.56261 0.205012 0
M  V30 6003 C 549.325 1.90155 1.25798 0
M  V30 6004 C 550.309 0.766227 1.41484 0
M  V30 6005 O 551.501 1.02893 1.44021 0
M  V30 6006 C 548.63 2.23603 2.60493 0
M  V30 6007 C 547.716 3.43568 2.48639 0
M  V30 6008 N 548.107 4.61747 2.06455 0
M  V30 6009 C 546.405 3.4751 2.79558 0
M  V30 6010 C 547.106 5.43907 2.06253 0
M  V30 6011 N 546.082 4.84051 2.47377 0
M  V30 6012 H 549.884 2.79031 0.922986 0
M  V30 6013 H 547.398 1.57048 0.413501 0
M  V30 6014 H 549.395 2.46067 3.36537 0
M  V30 6015 H 548.055 1.36049 2.94823 0
M  V30 6016 H 549.066 4.86598 1.77321 0
M  V30 6017 H 545.743 2.70345 3.18151 0
M  V30 6018 H 547.133 6.48542 1.75622 0
M  V30 6019 N 549.853 -0.472356 1.50355 0
M  V30 6020 C 550.785 -1.58795 1.65278 0
M  V30 6021 C 551.798 -1.53782 0.534313 0
M  V30 6022 O 552.987 -1.59193 0.807446 0
M  V30 6023 C 550.087 -2.97672 1.62001 0
M  V30 6024 C 549.26 -3.27568 2.89859 0
M  V30 6025 C 548.319 -4.45993 2.79242 0
M  V30 6026 O 547.345 -4.46364 3.53197 0
M  V30 6027 N 548.547 -5.47578 1.92713 0
M  V30 6028 H 551.312 -1.46411 2.61503 0
M  V30 6029 H 548.873 -0.660751 1.47803 0
M  V30 6030 H 550.865 -3.74862 1.52513 0
M  V30 6031 H 549.435 -3.03832 0.735159 0
M  V30 6032 H 548.655 -2.39003 3.13483 0
M  V30 6033 H 549.943 -3.44352 3.74565 0
M  V30 6034 H 549.341 -5.50099 1.31939 0
M  V30 6035 H 547.898 -6.23757 1.8913 0
M  V30 6036 N 551.331 -1.39911 -0.725443 0
M  V30 6037 C 552.264 -1.33788 -1.84867 0
M  V30 6038 C 553.242 -0.209907 -1.61239 0
M  V30 6039 O 554.426 -0.391943 -1.8438 0
M  V30 6040 C 551.553 -1.07975 -3.21028 0
M  V30 6041 C 550.599 -2.23092 -3.635 0
M  V30 6042 S 551.432 -3.85431 -3.71757 0
M  V30 6043 C 552.588 -3.61862 -5.10692 0
M  V30 6044 H 552.821 -2.28848 -1.89779 0
M  V30 6045 H 550.354 -1.26079 -0.891254 0
M  V30 6046 H 552.312 -0.937669 -3.99647 0
M  V30 6047 H 550.973 -0.145865 -3.13761 0
M  V30 6048 H 550.166 -2.00647 -4.62338 0
M  V30 6049 H 549.768 -2.33553 -2.92112 0
M  V30 6050 H 552.06 -3.19719 -5.97316 0
M  V30 6051 H 553.003 -4.60196 -5.38169 0
M  V30 6052 H 553.411 -2.95757 -4.8082 0
M  V30 6053 N 552.809 0.956637 -1.25245 0
M  V30 6054 C 554.049 1.71585 -1.11076 0
M  V30 6055 C 554.413 1.88916 0.34277 0
M  V30 6056 O 555.614 2.61875 0.606227 0
M  V30 6057 C 553.885 3.06267 -1.84215 0
M  V30 6058 S 555.444 3.97469 -1.85914 0
M  V30 6059 H 552.262 0.589803 -0.397055 0
M  V30 6060 H 554.864 1.14114 -1.58739 0
M  V30 6061 H 553.568 2.91322 -2.89067 0
M  V30 6062 H 553.099 3.688 -1.36931 0
M  V30 6063 H 555.114 4.87316 -0.93474 0
M  V30 6064 N 554.287 1.06798 1.15896 0
M  V30 6065 C 555.534 0.787767 1.86549 0
M  V30 6066 C 555.862 -0.685959 1.82002 0
M  V30 6067 O 555.117 -1.5188 1.23414 0
M  V30 6068 C 555.416 1.23414 3.35416 0
M  V30 6069 C 555.082 2.71285 3.6016 0
M  V30 6070 C 553.744 3.11676 3.66622 0
M  V30 6071 C 556.096 3.6676 3.7032 0
M  V30 6072 C 553.424 4.4637 3.8075 0
M  V30 6073 C 555.776 5.01209 3.8597 0
M  V30 6074 C 554.44 5.41229 3.90676 0
M  V30 6075 H 553.71 0.288264 0.682631 0
M  V30 6076 H 556.357 1.338 1.37003 0
M  V30 6077 H 554.662 0.60319 3.87129 0
M  V30 6078 H 556.359 0.994298 3.88477 0
M  V30 6079 H 552.949 2.39015 3.55767 0
M  V30 6080 H 557.133 3.36685 3.64633 0
M  V30 6081 H 552.389 4.76855 3.82648 0
M  V30 6082 H 556.563 5.75067 3.92773 0
M  V30 6083 H 554.19 6.45602 4.01375 0
M  V30 6084 N 555.766 -1.3263 0.851289 0
M  V30 6085 C 557.182 -1.50162 0.5407 0
M  V30 6086 C 557.382 -1.78788 -0.929369 0
M  V30 6087 O 556.438 -1.85545 -1.71258 0
M  V30 6088 C 557.751 -2.64803 1.42478 0
M  V30 6089 C 559.299 -2.78688 1.42485 0
M  V30 6090 C 559.774 -3.96405 2.29407 0
M  V30 6091 N 561.265 -4.0366 2.27184 0
M  V30 6092 C 562 -4.93971 2.9117 0
M  V30 6093 N 561.496 -5.89313 3.64256 0
M  V30 6094 N 563.289 -4.87066 2.80576 0
M  V30 6095 H 555.44 -1.12315 1.80275 0
M  V30 6096 H 557.703 -0.553266 0.769806 0
M  V30 6097 H 557.409 -2.50368 2.46999 0
M  V30 6098 H 557.283 -3.60506 1.10974 0
M  V30 6099 H 559.67 -2.92547 0.387304 0
M  V30 6100 H 559.751 -1.83708 1.78002 0
M  V30 6101 H 559.395 -3.83304 3.33228 0
M  V30 6102 H 559.325 -4.90654 1.91224 0
M  V30 6103 H 561.816 -3.35435 1.74045 0
M  V30 6104 H 562.129 -6.54913 4.10255 0
M  V30 6105 H 560.474 -5.8935 3.68364 0
M  V30 6106 H 563.665 -4.11552 2.23031 0
M  V30 6107 H 563.838 -5.57248 3.30725 0
M  V30 6108 N 557.244 -0.608902 -1.45362 0
M  V30 6109 C 558.521 -0.0365378 -1.95566 0
M  V30 6110 C 558.901 1.43169 -1.55131 0
M  V30 6111 O 558.249 2.1349 -0.814513 0
M  V30 6112 C 558.459 -0.236026 -3.48201 0
M  V30 6113 C 559.807 -0.117518 -4.24437 0
M  V30 6114 O 560.831 -0.166217 -3.55812 0
M  V30 6115 O 559.69 -0.00372127 -5.465 0
M  V30 6116 H 556.784 0.0349874 -0.82626 0
M  V30 6117 H 559.33 -0.679055 -1.55521 0
M  V30 6118 H 558.102 -1.25569 -3.70605 0
M  V30 6119 H 557.725 0.441691 -3.95139 0
M  V30 6120 N 558.722 1.53707 -0.348139 0
M  V30 6121 C 559.952 2.05108 0.247864 0
M  V30 6122 C 560.36 1.22252 1.44399 0
M  V30 6123 O 559.703 0.251853 1.81965 0
M  V30 6124 C 559.765 3.52171 0.722187 0
M  V30 6125 C 559.429 4.5562 -0.354902 0
M  V30 6126 C 560.426 5.05883 -1.19911 0
M  V30 6127 C 558.111 4.99703 -0.510145 0
M  V30 6128 C 560.105 5.98814 -2.18406 0
M  V30 6129 C 557.792 5.92443 -1.49848 0
M  V30 6130 C 558.79 6.41887 -2.33389 0
M  V30 6131 O 558.478 7.32802 -3.3054 0
M  V30 6132 H 558.21 0.674086 0.0508296 0
M  V30 6133 H 560.764 1.99229 -0.49968 0
M  V30 6134 H 558.994 3.55529 1.52105 0
M  V30 6135 H 560.683 3.8652 1.23925 0
M  V30 6136 H 561.449 4.72586 -1.09028 0
M  V30 6137 H 557.328 4.60816 0.130274 0
M  V30 6138 H 560.872 6.3733 -2.83649 0
M  V30 6139 H 556.769 6.25155 -1.60786 0
M  V30 6140 H 557.537 7.50749 -3.26064 0
M  V30 6141 N 560.2 0.0768682 1.57412 0
M  V30 6142 C 561.147 -0.888577 2.13009 0
M  V30 6143 C 562.117 -1.29198 1.0439 0
M  V30 6144 O 563.302 -1.37694 1.3208 0
M  V30 6145 C 560.442 -2.14899 2.70023 0
M  V30 6146 C 559.555 -1.79777 3.92816 0
M  V30 6147 C 558.69 -3.00467 4.38056 0
M  V30 6148 C 557.729 -2.61385 5.53484 0
M  V30 6149 N 556.866 -3.74851 5.93659 0
M  V30 6150 H 561.706 -0.407593 2.95199 0
M  V30 6151 H 559.243 -0.189534 1.45874 0
M  V30 6152 H 561.201 -2.88688 3.0119 0
M  V30 6153 H 559.831 -2.60529 1.9059 0
M  V30 6154 H 558.883 -0.960301 3.68079 0
M  V30 6155 H 560.195 -1.47027 4.76639 0
M  V30 6156 H 559.349 -3.82529 4.7091 0
M  V30 6157 H 558.088 -3.36413 3.53097 0
M  V30 6158 H 557.093 -1.77746 5.20275 0
M  V30 6159 H 558.318 -2.26603 6.40178 0
M  V30 6160 H 556.264 -4.1055 5.11649 0
M  V30 6161 H 556.181 -3.45887 6.72234 0
M  V30 6162 H 557.449 -4.57477 6.31138 0
M  V30 6163 N 561.678 -1.56367 -0.196722 0
M  V30 6164 C 562.908 -1.84371 -0.932254 0
M  V30 6165 C 563.316 -0.657013 -1.77426 0
M  V30 6166 O 562.659 0.383576 -1.79651 0
M  V30 6167 C 562.721 -3.06454 -1.87952 0
M  V30 6168 C 562.385 -4.40425 -1.21962 0
M  V30 6169 C 563.382 -5.16457 -0.597343 0
M  V30 6170 C 561.067 -4.8716 -1.22396 0
M  V30 6171 C 563.061 -6.37399 0.0117913 0
M  V30 6172 C 560.748 -6.08038 -0.610995 0
M  V30 6173 C 561.746 -6.83 0.00580487 0
M  V30 6174 O 561.434 -8.01589 0.609173 0
M  V30 6175 H 561.166 -0.616377 -0.277589 0
M  V30 6176 H 563.72 -2.04329 -0.209452 0
M  V30 6177 H 561.95 -2.82377 -2.64197 0
M  V30 6178 H 563.639 -3.21118 -2.48271 0
M  V30 6179 H 564.405 -4.81445 -0.586142 0
M  V30 6180 H 560.284 -4.2877 -1.69345 0
M  V30 6181 H 563.828 -6.9585 0.493836 0
M  V30 6182 H 559.725 -6.42519 -0.619693 0
M  V30 6183 H 560.493 -8.16935 0.505919 0
M  V30 6184 N 563.156 0.464375 -1.50603 0
M  V30 6185 C 564.572 0.798684 -1.38178 0
M  V30 6186 C 564.772 1.96568 -0.44308 0
M  V30 6187 O 563.828 2.52252 0.111814 0
M  V30 6188 C 565.141 1.10444 -2.79683 0
M  V30 6189 C 566.689 1.2105 -2.88645 0
M  V30 6190 C 567.164 1.54934 -4.30998 0
M  V30 6191 N 568.655 1.61913 -4.3398 0
M  V30 6192 C 569.39 1.8965 -5.41129 0
M  V30 6193 N 568.886 2.15361 -6.58477 0
M  V30 6194 N 570.679 1.91207 -5.28579 0
M  V30 6195 H 562.83 -0.304603 -2.10204 0
M  V30 6196 H 565.093 -0.0737804 -0.945125 0
M  V30 6197 H 564.799 0.319934 -3.50242 0
M  V30 6198 H 564.673 2.03896 -3.17342 0
M  V30 6199 H 567.06 1.98567 -2.18301 0
M  V30 6200 H 567.141 0.255613 -2.5452 0
M  V30 6201 H 566.785 0.779549 -5.01882 0
M  V30 6202 H 566.715 2.51584 -4.62615 0
M  V30 6203 H 569.206 1.44055 -3.49366 0
M  V30 6204 H 569.519 2.35818 -7.35941 0
M  V30 6205 H 567.864 2.1274 -6.6164 0
M  V30 6206 H 571.055 1.70622 -4.35897 0
M  V30 6207 H 571.228 2.12488 -6.12171 0
M  V30 6208 N 564.634 1.40294 0.718013 0
M  V30 6209 C 565.564 1.43118 1.84498 0
M  V30 6210 C 566.545 0.292403 1.67568 0
M  V30 6211 O 567.73 0.500675 1.87635 0
M  V30 6212 C 564.86 1.29065 3.22427 0
M  V30 6213 C 563.814 2.40521 3.54025 0
M  V30 6214 C 563.14 2.11546 4.91073 0
M  V30 6215 C 564.44 3.82859 3.55269 0
M  V30 6216 H 566.134 2.37432 1.82391 0
M  V30 6217 H 563.68 1.14283 0.87609 0
M  V30 6218 H 565.633 1.29658 4.00957 0
M  V30 6219 H 564.357 0.312271 3.25104 0
M  V30 6220 H 563.016 2.39173 2.77834 0
M  V30 6221 H 562.664 1.12104 4.90348 0
M  V30 6222 H 562.364 2.86216 5.1318 0
M  V30 6223 H 563.888 2.13817 5.71939 0
M  V30 6224 H 565.302 3.86044 4.23843 0
M  V30 6225 H 563.699 4.57029 3.88902 0
M  V30 6226 H 564.769 4.12617 2.54706 0
M  V30 6227 N 566.112 -0.949982 1.2575 0
M  V30 6228 C 567.075 -2.02894 1.06615 0
M  V30 6229 C 568.075 -1.60791 0.0173905 0
M  V30 6230 O 569.265 -1.72249 0.260003 0
M  V30 6231 C 566.397 -3.35219 0.619751 0
M  V30 6232 H 567.59 -2.21302 2.02399 0
M  V30 6233 H 565.143 -1.12772 1.08223 0
M  V30 6234 H 565.878 -3.22508 -0.340486 0
M  V30 6235 H 565.663 -3.67129 1.37692 0
M  V30 6236 H 567.153 -4.14505 0.507443 0
M  V30 6237 N 567.59 -1.07411 -1.15328 0
M  V30 6238 C 568.537 -0.694995 -2.20087 0
M  V30 6239 C 569.507 0.313904 -1.63107 0
M  V30 6240 O 570.692 0.200216 -1.89747 0
M  V30 6241 C 567.832 -0.0996218 -3.44956 0
M  V30 6242 C 566.945 -1.16007 -4.16133 0
M  V30 6243 C 566.08 -0.529636 -5.28553 0
M  V30 6244 C 565.119 -1.57283 -5.91548 0
M  V30 6245 N 564.256 -0.964932 -6.95438 0
M  V30 6246 H 569.096 -1.5927 -2.51867 0
M  V30 6247 H 566.633 -0.796115 -1.23695 0
M  V30 6248 H 568.591 0.263197 -4.16369 0
M  V30 6249 H 567.221 0.761435 -3.13691 0
M  V30 6250 H 566.273 -1.64045 -3.4321 0
M  V30 6251 H 567.585 -1.95101 -4.59061 0
M  V30 6252 H 566.739 -0.114487 -6.06592 0
M  V30 6253 H 565.478 0.29307 -4.86819 0
M  V30 6254 H 564.483 -1.99775 -5.12221 0
M  V30 6255 H 565.708 -2.39783 -6.35359 0
M  V30 6256 H 563.654 -0.16314 -6.55797 0
M  V30 6257 H 563.571 -1.69311 -7.36797 0
M  V30 6258 H 564.839 -0.575305 -7.77374 0
M  V30 6259 N 569.068 1.32177 -0.85831 0
M  V30 6260 C 570.293 2.01847 -0.476718 0
M  V30 6261 C 570.718 1.64065 0.920021 0
M  V30 6262 O 570.076 0.843189 1.60499 0
M  V30 6263 C 570.124 3.55097 -0.627578 0
M  V30 6264 O 569.228 4.11012 0.338086 0
M  V30 6265 H 568.569 0.635907 -0.191099 0
M  V30 6266 H 571.099 1.68641 -1.15851 0
M  V30 6267 H 571.109 4.04718 -0.516476 0
M  V30 6268 H 569.784 3.81938 -1.64609 0
M  V30 6269 H 568.361 3.72451 0.182917 0
M  V30 6270 N 570.547 0.616602 1.45037 0
M  V30 6271 C 571.775 0.121968 2.0654 0
M  V30 6272 C 572.19 -1.19743 1.45969 0
M  V30 6273 O 571.547 -1.73133 0.577168 0
M  V30 6274 C 571.598 -0.0145171 3.61497 0
M  V30 6275 O 571.319 1.25269 4.19809 0
M  V30 6276 C 572.82 -0.539555 4.40004 0
M  V30 6277 H 570.04 0.0729837 0.667019 0
M  V30 6278 H 572.584 0.846891 1.8614 0
M  V30 6279 H 570.739 -0.689809 3.81209 0
M  V30 6280 H 571.153 1.08816 5.13088 0
M  V30 6281 H 572.627 -0.584112 5.48901 0
M  V30 6282 H 573.104 -1.56368 4.10421 0
M  V30 6283 H 573.71 0.101995 4.25178 0
M  V30 6284 N 572.025 -1.5352 0.356285 0
M  V30 6285 C 572.955 -2.28372 -0.486661 0
M  V30 6286 C 573.936 -1.30432 -1.09185 0
M  V30 6287 O 575.121 -1.59291 -1.11085 0
M  V30 6288 C 572.251 -3.06604 -1.63129 0
M  V30 6289 C 571.205 -4.12154 -1.15381 0
M  V30 6290 C 570.531 -4.78415 -2.38796 0
M  V30 6291 C 571.831 -5.21724 -0.245179 0
M  V30 6292 H 573.525 -2.99083 0.137797 0
M  V30 6293 H 571.071 -1.43841 0.0677134 0
M  V30 6294 H 573.024 -3.57712 -2.22755 0
M  V30 6295 H 571.748 -2.33568 -2.28284 0
M  V30 6296 H 570.407 -3.61978 -0.580294 0
M  V30 6297 H 570.055 -4.01959 -3.02387 0
M  V30 6298 H 569.755 -5.49734 -2.07524 0
M  V30 6299 H 571.279 -5.32313 -2.99125 0
M  V30 6300 H 572.693 -5.68391 -0.748646 0
M  V30 6301 H 571.09 -6.00095 -0.0237608 0
M  V30 6302 H 572.16 -4.79596 0.715229 0
M  V30 6303 N 573.503 -0.0852151 -1.57369 0
M  V30 6304 C 574.749 0.581666 -1.94279 0
M  V30 6305 C 575.082 1.68444 -0.966446 0
M  V30 6306 O 574.357 1.945 0.00215277 0
M  V30 6307 C 574.64 1.14609 -3.41375 0
M  V30 6308 C 574.493 0.0490414 -4.49773 0
M  V30 6309 C 575.812 2.04751 -3.8957 0
M  V30 6310 H 572.931 0.209972 -0.706456 0
M  V30 6311 H 575.573 -0.153915 -1.89376 0
M  V30 6312 H 573.723 1.77297 -3.45685 0
M  V30 6313 H 575.395 -0.584721 -4.57579 0
M  V30 6314 H 573.638 -0.618638 -4.29366 0
M  V30 6315 H 574.309 0.484601 -5.49869 0
M  V30 6316 H 576.785 1.51981 -3.87351 0
M  V30 6317 H 575.661 2.41173 -4.93079 0
M  V30 6318 H 575.922 2.96107 -3.28288 0
M  V30 6319 N 574.981 1.5647 0.188427 0
M  V30 6320 C 575.911 1.98101 1.23606 0
M  V30 6321 C 576.892 0.853961 1.47111 0
M  V30 6322 O 578.077 1.11879 1.58735 0
M  V30 6323 C 575.207 2.32624 2.57882 0
M  V30 6324 C 574.161 3.48129 2.48978 0
M  V30 6325 C 573.487 3.68347 3.87588 0
M  V30 6326 C 574.787 4.82112 2.00911 0
M  V30 6327 H 576.481 2.85864 0.890068 0
M  V30 6328 H 574.027 1.37532 0.426714 0
M  V30 6329 H 575.98 2.60343 3.3136 0
M  V30 6330 H 574.704 1.41751 2.94235 0
M  V30 6331 H 573.363 3.20511 1.77956 0
M  V30 6332 H 573.011 2.74793 4.21305 0
M  V30 6333 H 572.711 4.46055 3.82503 0
M  V30 6334 H 574.235 3.98449 4.62678 0
M  V30 6335 H 575.649 5.08819 2.64151 0
M  V30 6336 H 574.046 5.63337 2.06814 0
M  V30 6337 H 575.116 4.75249 0.96262 0
M  V30 6338 N 576.459 -0.456382 1.50847 0
M  V30 6339 C 577.708 -1.2042 1.61808 0
M  V30 6340 C 578.021 -1.9278 0.330932 0
M  V30 6341 O 579.227 -2.69612 0.319643 0
M  V30 6342 C 577.683 -2.18891 2.85683 0
M  V30 6343 C 577.291 -1.52267 4.2133 0
M  V30 6344 C 579.035 -2.94224 3.05994 0
M  V30 6345 C 576.942 -2.4911 5.36375 0
M  V30 6346 H 575.872 -0.453177 0.602616 0
M  V30 6347 H 578.523 -0.473144 1.77295 0
M  V30 6348 H 576.905 -2.95351 2.63787 0
M  V30 6349 H 578.079 -0.814949 4.53536 0
M  V30 6350 H 576.394 -0.891594 4.06743 0
M  V30 6351 H 578.991 -3.66732 3.89117 0
M  V30 6352 H 579.334 -3.54469 2.18306 0
M  V30 6353 H 579.867 -2.24874 3.28141 0
M  V30 6354 H 576.606 -1.93582 6.26264 0
M  V30 6355 H 576.126 -3.17991 5.08569 0
M  V30 6356 H 577.805 -3.10637 5.67551 0
M  V30 6357 N 577.937 -1.40673 -0.710563 0
M  V30 6358 C 579.348 -1.34975 -1.28991 0
M  V30 6359 C 579.699 -0.0256272 -1.96183 0
M  V30 6360 O 578.824 0.876339 -1.97862 0
M  V30 6361 C 579.419 -2.44467 -2.34567 0
M  V30 6362 C 577.978 -2.42213 -2.88114 0
M  V30 6363 C 577.125 -2.25085 -1.61963 0
M  V30 6364 H 580.076 -1.50406 -0.506343 0
M  V30 6365 H 580.097 -2.12663 -3.15523 0
M  V30 6366 H 579.609 -3.40825 -1.85634 0
M  V30 6367 H 577.71 -1.49568 -3.41263 0
M  V30 6368 H 577.823 -3.37983 -3.39565 0
M  V30 6369 H 576.187 -1.72691 -1.87216 0
M  V30 6370 H 576.97 -3.23449 -1.15047 0
M  V30 6371 N 579.415 0.9433 -1.26252 0
M  V30 6372 C 580.345 2.05902 -1.10122 0
M  V30 6373 C 581.326 1.70099 -0.00700552 0
M  V30 6374 O 582.511 1.93377 -0.178641 0
M  V30 6375 C 579.641 3.39516 -0.731175 0
M  V30 6376 C 578.595 3.89372 -1.77688 0
M  V30 6377 C 577.921 5.19613 -1.26122 0
M  V30 6378 C 579.221 4.14489 -3.17799 0
M  V30 6379 H 580.915 2.19655 -2.03451 0
M  V30 6380 H 578.461 1.05548 -0.979576 0
M  V30 6381 H 580.414 4.17031 -0.605215 0
M  V30 6382 H 579.138 3.25733 0.23782 0
M  V30 6383 H 577.797 3.14036 -1.89148 0
M  V30 6384 H 577.445 5.02208 -0.282128 0
M  V30 6385 H 577.145 5.53939 -1.96023 0
M  V30 6386 H 578.669 5.99713 -1.14789 0
M  V30 6387 H 580.083 4.82625 -3.09428 0
M  V30 6388 H 578.48 4.60094 -3.85271 0
M  V30 6389 H 579.55 3.20347 -3.64014 0
M  V30 6390 N 580.893 1.08022 1.14757 0
M  V30 6391 C 581.823 0.728248 2.21853 0
M  V30 6392 C 582.804 -0.287486 1.67653 0
M  V30 6393 O 583.989 -0.158727 1.9355 0
M  V30 6394 C 581.119 0.132549 3.47047 0
M  V30 6395 C 580.073 1.07619 4.14249 0
M  V30 6396 C 579.399 0.342907 5.33599 0
M  V30 6397 C 580.699 2.41268 4.63235 0
M  V30 6398 H 582.393 1.62365 2.51551 0
M  V30 6399 H 579.939 0.782125 1.20908 0
M  V30 6400 H 581.892 -0.125665 4.21213 0
M  V30 6401 H 580.616 -0.797971 3.16702 0
M  V30 6402 H 579.275 1.31944 3.42033 0
M  V30 6403 H 578.923 -0.59129 4.99513 0
M  V30 6404 H 578.623 0.971955 5.79506 0
M  V30 6405 H 580.147 0.0926538 6.1053 0
M  V30 6406 H 581.561 2.21232 5.28894 0
M  V30 6407 H 579.958 2.9983 5.19829 0
M  V30 6408 H 581.028 3.03079 3.78512 0
M  V30 6409 N 582.371 -1.3172 0.865308 0
M  V30 6410 C 583.619 -1.96487 0.472995 0
M  V30 6411 C 583.94 -1.68761 -0.976975 0
M  V30 6412 O 583.21 -1.00051 -1.68424 0
M  V30 6413 H 581.79 -0.726947 0.171922 0
M  V30 6414 H 584.452 -1.60612 1.10407 0
M  V30 6415 H 583.548 -3.0574 0.62687 0
M  V30 6416 N 583.85 -0.624285 -1.44708 0
M  V30 6417 C 585.096 -0.126237 -2.02407 0
M  V30 6418 C 585.428 1.24618 -1.48943 0
M  V30 6419 O 584.704 1.82569 -0.670742 0
M  V30 6420 C 584.986 -0.105449 -3.59946 0
M  V30 6421 C 584.84 -1.50972 -4.23707 0
M  V30 6422 C 586.159 0.573629 -4.36346 0
M  V30 6423 H 583.278 -0.0473472 -0.735478 0
M  V30 6424 H 585.92 -0.799452 -1.72362 0
M  V30 6425 H 584.07 0.46783 -3.85673 0
M  V30 6426 H 585.742 -2.13136 -4.0911 0
M  V30 6427 H 583.985 -2.0656 -3.81465 0
M  V30 6428 H 584.656 -1.44727 -5.32689 0
M  V30 6429 H 587.132 0.0861787 -4.16011 0
M  V30 6430 H 586.008 0.557338 -5.46063 0
M  V30 6431 H 586.269 1.64276 -4.10446 0
M  V30 6432 N 585.328 1.53329 -0.364422 0
M  V30 6433 C 586.278 2.22472 0.499024 0
M  V30 6434 C 587.262 1.21952 1.0496 0
M  V30 6435 O 588.454 1.47405 0.979836 0
M  V30 6436 C 585.583 3.01659 1.6388 0
M  V30 6437 C 584.669 4.09555 1.10116 0
M  V30 6438 N 585.06 5.04988 0.286414 0
M  V30 6439 C 583.358 4.2424 1.37608 0
M  V30 6440 C 584.059 5.81699 -0.00781682 0
M  V30 6441 N 583.035 5.40394 0.589494 0
M  V30 6442 H 586.837 2.93611 -0.130284 0
M  V30 6443 H 584.351 1.61483 -0.172377 0
M  V30 6444 H 586.348 3.4971 2.26954 0
M  V30 6445 H 585.008 2.32051 2.27118 0
M  V30 6446 H 586.019 5.17847 -0.0742839 0
M  V30 6447 H 582.696 3.65858 2.01133 0
M  V30 6448 H 584.086 6.68587 -0.666394 0
M  V30 6449 N 586.806 0.0935595 1.57322 0
M  V30 6450 C 587.716 -0.880192 2.17462 0
M  V30 6451 C 588.732 -1.31135 1.14366 0
M  V30 6452 O 589.908 -1.37958 1.46729 0
M  V30 6453 C 586.973 -2.12184 2.74188 0
M  V30 6454 C 586.034 -1.74503 3.92234 0
M  V30 6455 C 585.267 -2.92748 4.46245 0
M  V30 6456 O 585.49 -4.07427 3.99198 0
M  V30 6457 O 584.424 -2.71303 5.37288 0
M  V30 6458 H 588.25 -0.398516 3.01074 0
M  V30 6459 H 585.835 -0.130707 1.48827 0
M  V30 6460 H 587.717 -2.84953 3.10451 0
M  V30 6461 H 586.392 -2.59407 1.93623 0
M  V30 6462 H 585.299 -0.989186 3.60785 0
M  V30 6463 H 586.632 -1.32044 4.74157 0
M  V30 6464 N 588.284 -1.56567 -0.180126 0
M  V30 6465 C 589.533 -1.80685 -0.896426 0
M  V30 6466 C 589.846 -0.669335 -1.83791 0
M  V30 6467 O 591.052 -0.795209 -2.59593 0
M  V30 6468 C 589.508 -3.20132 -1.6445 0
M  V30 6469 C 589.116 -4.41727 -0.747088 0
M  V30 6470 C 590.86 -3.53549 -2.34955 0
M  V30 6471 C 588.767 -5.72195 -1.49489 0
M  V30 6472 H 587.697 -0.673758 -0.338477 0
M  V30 6473 H 590.348 -1.8289 -0.149467 0
M  V30 6474 H 588.73 -3.12218 -2.43589 0
M  V30 6475 H 589.904 -4.608 0.00671129 0
M  V30 6476 H 588.219 -4.16122 -0.152134 0
M  V30 6477 H 590.816 -4.48267 -2.91481 0
M  V30 6478 H 591.159 -2.78006 -3.09868 0
M  V30 6479 H 591.692 -3.62976 -1.62768 0
M  V30 6480 H 588.431 -6.50743 -0.788251 0
M  V30 6481 H 587.951 -5.57115 -2.22224 0
M  V30 6482 H 589.63 -6.1384 -2.04472 0
M  V30 6483 N 589.762 0.448376 -1.51087 0
M  V30 6484 C 590.692 1.55102 -1.74544 0
M  V30 6485 C 591.673 1.59357 -0.594932 0
M  V30 6486 O 592.858 1.75261 -0.836491 0
M  V30 6487 C 589.988 2.93268 -1.86041 0
M  V30 6488 C 588.942 3.03877 -3.01402 0
M  V30 6489 C 588.268 4.43914 -2.98068 0
M  V30 6490 C 589.568 2.7898 -4.41551 0
M  V30 6491 H 591.262 1.35724 -2.66869 0
M  V30 6492 H 588.808 0.651498 -1.28419 0
M  V30 6493 H 590.761 3.70356 -2.01034 0
M  V30 6494 H 589.485 3.13853 -0.903548 0
M  V30 6495 H 588.144 2.29227 -2.86096 0
M  V30 6496 H 587.792 4.6145 -2.00182 0
M  V30 6497 H 587.492 4.51944 -3.75527 0
M  V30 6498 H 589.016 5.22991 -3.1514 0
M  V30 6499 H 590.43 3.45805 -4.57265 0
M  V30 6500 H 588.827 2.98431 -5.20633 0
M  V30 6501 H 589.897 1.74663 -4.5235 0
M  V30 6502 N 591.24 1.41047 0.703093 0
M  V30 6503 C 592.487 1.4 1.46309 0
M  V30 6504 C 592.815 0.00654574 1.94499 0
M  V30 6505 O 592.07 -0.980255 1.6938 0
M  V30 6506 C 592.369 2.34686 2.6955 0
M  V30 6507 C 592.035 3.81684 2.40058 0
M  V30 6508 C 590.697 4.21731 2.31725 0
M  V30 6509 C 593.049 4.74525 2.15581 0
M  V30 6510 C 590.377 5.52637 1.97001 0
M  V30 6511 C 592.729 6.05744 1.82366 0
M  V30 6512 C 591.393 6.44819 1.72524 0
M  V30 6513 H 590.663 0.512295 0.535382 0
M  V30 6514 H 593.31 1.73792 0.804275 0
M  V30 6515 H 591.615 1.94122 3.40329 0
M  V30 6516 H 593.312 2.31152 3.27673 0
M  V30 6517 H 589.902 3.49963 2.47435 0
M  V30 6518 H 594.086 4.44395 2.20968 0
M  V30 6519 H 589.342 5.81802 1.87928 0
M  V30 6520 H 593.516 6.77189 1.62444 0
M  V30 6521 H 591.143 7.46168 1.45385 0
M  V30 6522 N 592.718 -0.936591 1.26751 0
M  V30 6523 C 593.943 -1.72288 1.15462 0
M  V30 6524 C 594.368 -1.85915 -0.285887 0
M  V30 6525 O 593.726 -1.35272 -1.20711 0
M  V30 6526 C 593.774 -3.10503 1.83359 0
M  V30 6527 O 592.878 -3.96745 1.1255 0
M  V30 6528 H 592.219 -0.52843 0.402067 0
M  V30 6529 H 594.749 -1.17271 1.67656 0
M  V30 6530 H 594.759 -3.60867 1.90365 0
M  V30 6531 H 593.434 -2.99901 2.88153 0
M  V30 6532 H 592.011 -3.55191 1.13551 0
M  V30 6533 N 594.196 -1.08629 -1.14182 0
M  V30 6534 C 595.443 -0.817345 -1.85272 0
M  V30 6535 C 595.771 0.656917 -1.83071 0
M  V30 6536 O 595.026 1.49897 -1.25815 0
M  V30 6537 C 595.325 -1.28734 -3.3341 0
M  V30 6538 C 594.991 -2.76981 -3.55798 0
M  V30 6539 C 593.653 -3.17469 -3.61617 0
M  V30 6540 C 596.005 -3.72605 -3.64438 0
M  V30 6541 C 593.333 -4.52371 -3.736 0
M  V30 6542 C 595.685 -5.07286 -3.77947 0
M  V30 6543 C 594.349 -5.47376 -3.82016 0
M  V30 6544 H 593.619 -0.299088 -0.677958 0
M  V30 6545 H 596.266 -1.35962 -1.34857 0
M  V30 6546 H 594.571 -0.664702 -3.8612 0
M  V30 6547 H 596.268 -1.05598 -3.86846 0
M  V30 6548 H 592.858 -2.44644 -3.51919 0
M  V30 6549 H 597.042 -3.42443 -3.5923 0
M  V30 6550 H 592.298 -4.82882 -3.75013 0
M  V30 6551 H 596.472 -5.81243 -3.83575 0
M  V30 6552 H 594.099 -6.51906 -3.91054 0
M  V30 6553 N 595.674 1.31259 -0.872281 0
M  V30 6554 C 596.923 1.95893 -0.480493 0
M  V30 6555 C 597.236 1.697 0.972688 0
M  V30 6556 O 598.442 2.28214 1.47073 0
M  V30 6557 C 596.898 3.50705 -0.808342 0
M  V30 6558 C 596.506 3.85735 -2.27844 0
M  V30 6559 C 598.25 4.21719 -0.485136 0
M  V30 6560 C 596.157 5.33668 -2.54858 0
M  V30 6561 H 595.087 0.733182 -0.175955 0
M  V30 6562 H 597.738 1.49396 -1.0655 0
M  V30 6563 H 596.12 3.95706 -0.152558 0
M  V30 6564 H 597.294 3.51686 -2.97748 0
M  V30 6565 H 595.609 3.27792 -2.56791 0
M  V30 6566 H 598.206 5.30559 -0.664166 0
M  V30 6567 H 598.549 4.12316 0.574592 0
M  V30 6568 H 599.082 3.82359 -1.09756 0
M  V30 6569 H 595.821 5.48109 -3.59523 0
M  V30 6570 H 595.341 5.69061 -1.8955 0
M  V30 6571 H 597.02 6.00958 -2.39706 0
M  V30 6572 N 597.152 0.631951 1.44375 0
M  V30 6573 C 598.38 0.143867 2.06399 0
M  V30 6574 C 598.795 -1.18188 1.47231 0
M  V30 6575 O 598.152 -1.72511 0.595498 0
M  V30 6576 C 598.203 0.0238253 3.61492 0
M  V30 6577 O 597.924 1.29715 4.18456 0
M  V30 6578 C 599.425 -0.492856 4.40552 0
M  V30 6579 H 596.645 0.0800542 0.666207 0
M  V30 6580 H 599.189 0.866586 1.85231 0
M  V30 6581 H 597.344 -0.649338 3.81919 0
M  V30 6582 H 597.758 1.14252 5.11905 0
M  V30 6583 H 599.232 -0.525861 5.49489 0
M  V30 6584 H 599.709 -1.52006 4.12057 0
M  V30 6585 H 600.315 0.147085 4.25046 0
M  V30 6586 N 598.631 -1.53133 0.372548 0
M  V30 6587 C 599.908 -1.93704 -0.271693 0
M  V30 6588 C 600.288 -1.30667 -1.65799 0
M  V30 6589 O 599.636 -0.46838 -2.23648 0
M  V30 6590 C 599.846 -3.47576 -0.314903 0
M  V30 6591 C 601.194 -4.20998 -0.551912 0
M  V30 6592 O 602.218 -3.53994 -0.39582 0
M  V30 6593 O 601.077 -5.39748 -0.85639 0
M  V30 6594 H 598.171 -0.810457 -0.164586 0
M  V30 6595 H 600.717 -1.6427 0.425838 0
M  V30 6596 H 599.489 -3.85749 0.656792 0
M  V30 6597 H 599.112 -3.83264 -1.05804 0
M  V30 6598 N 600.109 -0.101901 -1.5727 0
M  V30 6599 C 601.386 0.602832 -1.86079 0
M  V30 6600 C 601.766 1.85912 -1 0
M  V30 6601 O 601.114 2.28379 -0.0742488 0
M  V30 6602 C 601.324 0.911694 -3.36881 0
M  V30 6603 C 602.672 1.2722 -4.05093 0
M  V30 6604 O 603.696 1.0025 -3.41802 0
M  V30 6605 O 602.555 1.7776 -5.16782 0
M  V30 6606 H 599.649 0.302366 -0.769743 0
M  V30 6607 H 602.195 -0.135113 -1.69161 0
M  V30 6608 H 600.967 0.0207256 -3.91295 0
M  V30 6609 H 600.59 1.70538 -3.59169 0
M  V30 6610 N 601.587 1.56661 0.17182 0
M  V30 6611 C 602.519 1.92934 1.2373 0
M  V30 6612 C 603.532 0.822385 1.40502 0
M  V30 6613 O 604.721 1.10083 1.40514 0
M  V30 6614 C 601.821 2.16651 2.60607 0
M  V30 6615 C 600.994 3.47878 2.6514 0
M  V30 6616 C 600.053 3.60429 3.83377 0
M  V30 6617 O 599.079 4.33051 3.69398 0
M  V30 6618 N 600.281 2.95241 4.99813 0
M  V30 6619 H 603.046 2.84931 0.929205 0
M  V30 6620 H 600.607 1.5781 0.361588 0
M  V30 6621 H 602.599 2.22312 3.38171 0
M  V30 6622 H 601.169 1.3104 2.83809 0
M  V30 6623 H 600.389 3.53879 1.73675 0
M  V30 6624 H 601.677 4.34232 2.6518 0
M  V30 6625 H 601.075 2.3611 5.14071 0
M  V30 6626 H 599.632 3.06499 5.75241 0
M  V30 6627 N 603.065 -0.440357 1.51323 0
M  V30 6628 C 604.311 -1.19181 1.64085 0
M  V30 6629 C 604.644 -1.90936 0.354575 0
M  V30 6630 O 603.919 -1.8347 -0.645675 0
M  V30 6631 C 604.202 -2.2112 2.84215 0
M  V30 6632 C 604.055 -1.53468 4.22809 0
M  V30 6633 C 605.374 -3.22133 2.99864 0
M  V30 6634 H 602.493 -0.431924 0.597169 0
M  V30 6635 H 605.135 -0.481443 1.83799 0
M  V30 6636 H 603.285 -2.81703 2.67537 0
M  V30 6637 H 604.957 -0.962455 4.51148 0
M  V30 6638 H 603.2 -0.837086 4.25647 0
M  V30 6639 H 603.871 -2.27694 5.02852 0
M  V30 6640 H 606.347 -2.71601 3.15233 0
M  V30 6641 H 605.223 -3.90756 3.85488 0
M  V30 6642 H 605.484 -3.88061 2.11804 0
M  V30 6643 N 604.543 -1.41418 -0.695603 0
M  V30 6644 C 605.453 -1.45622 -1.83933 0
M  V30 6645 C 606.469 -0.346825 -1.70508 0
M  V30 6646 O 607.645 -0.59454 -1.92424 0
M  V30 6647 C 604.71 -1.33627 -3.19914 0
M  V30 6648 C 603.771 -2.54882 -3.45447 0
M  V30 6649 C 603.004 -2.43449 -4.7494 0
M  V30 6650 O 603.227 -1.45905 -5.51424 0
M  V30 6651 O 602.161 -3.33206 -5.01256 0
M  V30 6652 H 605.987 -2.42114 -1.83342 0
M  V30 6653 H 603.572 -1.22956 -0.848658 0
M  V30 6654 H 605.454 -1.29221 -4.01098 0
M  V30 6655 H 604.129 -0.402508 -3.21188 0
M  V30 6656 H 603.036 -2.64865 -2.64192 0
M  V30 6657 H 604.369 -3.47087 -3.48987 0
M  V30 6658 N 606.021 0.929856 -1.27246 0
M  V30 6659 C 607.269 1.674 -1.13233 0
M  V30 6660 C 607.59 1.92311 0.322744 0
M  V30 6661 O 606.86 1.52784 1.22612 0
M  V30 6662 H 605.44 0.620411 -0.416052 0
M  V30 6663 H 608.102 1.11663 -1.59741 0
M  V30 6664 H 607.198 2.64308 -1.65975 0
M  V30 6665 N 607.499 1.09233 1.13605 0
M  V30 6666 C 608.746 0.827159 1.84836 0
M  V30 6667 C 609.074 -0.647199 1.83416 0
M  V30 6668 O 608.329 -1.49228 1.26608 0
M  V30 6669 C 608.628 1.305 3.32723 0
M  V30 6670 C 608.294 2.78864 3.54325 0
M  V30 6671 C 606.956 3.19382 3.59928 0
M  V30 6672 C 609.308 3.74532 3.62457 0
M  V30 6673 C 606.636 4.54346 3.71196 0
M  V30 6674 C 608.988 5.09283 3.75252 0
M  V30 6675 C 607.652 5.49394 3.79108 0
M  V30 6676 H 606.922 0.302679 0.676363 0
M  V30 6677 H 609.569 1.36676 1.34134 0
M  V30 6678 H 607.874 0.68517 3.85762 0
M  V30 6679 H 609.571 1.07648 3.86281 0
M  V30 6680 H 606.161 2.46507 3.50617 0
M  V30 6681 H 610.345 3.44343 3.57409 0
M  V30 6682 H 605.601 4.84864 3.72447 0
M  V30 6683 H 609.775 5.83269 3.80487 0
M  V30 6684 H 607.402 6.5397 3.87591 0
M  V30 6685 N 608.977 -1.30795 0.87923 0
M  V30 6686 C 609.94 -2.26563 0.346676 0
M  V30 6687 C 610.94 -1.52578 -0.507597 0
M  V30 6688 O 612.13 -1.71318 -0.315575 0
M  V30 6689 C 609.262 -3.37115 -0.506611 0
M  V30 6690 H 610.455 -2.75183 1.19223 0
M  V30 6691 H 608.008 -1.41886 0.655598 0
M  V30 6692 H 608.743 -2.93802 -1.37299 0
M  V30 6693 H 608.528 -3.91959 0.105218 0
M  V30 6694 H 610.018 -4.08412 -0.871192 0
M  V30 6695 N 610.455 -0.639598 -1.44038 0
M  V30 6696 C 611.402 0.0602458 -2.30721 0
M  V30 6697 C 612.372 0.828352 -1.43971 0
M  V30 6698 O 613.557 0.807693 -1.72861 0
M  V30 6699 C 610.697 1.03008 -3.29368 0
M  V30 6700 C 609.81 0.259502 -4.3122 0
M  V30 6701 C 608.945 1.22191 -5.16955 0
M  V30 6702 C 607.984 0.440978 -6.10509 0
M  V30 6703 N 607.121 1.35428 -6.88915 0
M  V30 6704 H 611.961 -0.684867 -2.90023 0
M  V30 6705 H 609.498 -0.349509 -1.42888 0
M  V30 6706 H 611.456 1.60583 -3.85057 0
M  V30 6707 H 610.086 1.74222 -2.71747 0
M  V30 6708 H 609.138 -0.432317 -3.77935 0
M  V30 6709 H 610.45 -0.348347 -4.97582 0
M  V30 6710 H 609.604 1.86873 -5.77203 0
M  V30 6711 H 608.343 1.86367 -4.50687 0
M  V30 6712 H 607.348 -0.219279 -5.49363 0
M  V30 6713 H 608.573 -0.196192 -6.78817 0
M  V30 6714 H 606.519 1.9831 -6.25307 0
M  V30 6715 H 606.436 0.800657 -7.51748 0
M  V30 6716 H 607.704 1.98967 -7.53679 0
M  V30 6717 N 611.933 1.52934 -0.380664 0
M  V30 6718 C 612.863 2.29118 0.450268 0
M  V30 6719 C 613.844 1.32153 1.07096 0
M  V30 6720 O 615.029 1.61038 1.08537 0
M  V30 6721 C 612.159 3.09161 1.58231 0
M  V30 6722 C 611.113 4.13938 1.0881 0
M  V30 6723 C 610.439 4.82153 2.31155 0
M  V30 6724 C 611.739 5.22048 0.162146 0
M  V30 6725 H 613.433 2.98826 -0.185361 0
M  V30 6726 H 610.979 1.43715 -0.0905886 0
M  V30 6727 H 612.932 3.61211 2.17036 0
M  V30 6728 H 611.656 2.3717 2.2454 0
M  V30 6729 H 610.315 3.62855 0.522633 0
M  V30 6730 H 609.963 4.06719 2.95953 0
M  V30 6731 H 609.663 5.52966 1.98752 0
M  V30 6732 H 611.187 5.37004 2.90618 0
M  V30 6733 H 612.601 5.6951 0.658126 0
M  V30 6734 H 610.998 6.00057 -0.0717122 0
M  V30 6735 H 612.068 4.78398 -0.791438 0
M  V30 6736 N 613.412 0.11024 1.57214 0
M  V30 6737 C 614.661 -0.549638 1.94067 0
M  V30 6738 C 614.974 -1.68388 0.995234 0
M  V30 6739 O 616.18 -2.40593 1.25807 0
M  V30 6740 C 614.636 -1.02912 3.44873 0
M  V30 6741 C 614.244 0.0761861 4.47935 0
M  V30 6742 C 615.988 -1.66087 3.9066 0
M  V30 6743 C 613.895 -0.419502 5.8991 0
M  V30 6744 H 612.825 -0.209092 0.724428 0
M  V30 6745 H 615.476 0.188683 1.82527 0
M  V30 6746 H 613.858 -1.82159 3.51616 0
M  V30 6747 H 615.032 0.852185 4.52851 0
M  V30 6748 H 613.347 0.614052 4.11847 0
M  V30 6749 H 615.944 -2.04272 4.94143 0
M  V30 6750 H 616.287 -2.53591 3.30148 0
M  V30 6751 H 616.82 -0.933959 3.86681 0
M  V30 6752 H 613.559 0.419277 6.54158 0
M  V30 6753 H 613.079 -1.16217 5.88433 0
M  V30 6754 H 614.758 -0.883577 6.40938 0
M  V30 6755 N 614.89 -1.56749 -0.16351 0
M  V30 6756 C 616.306 -1.51043 -0.515567 0
M  V30 6757 C 616.506 -0.815855 -1.84245 0
M  V30 6758 O 615.562 -0.379477 -2.49632 0
M  V30 6759 C 616.875 -2.95791 -0.541114 0
M  V30 6760 C 618.423 -3.0664 -0.627776 0
M  V30 6761 C 618.898 -4.52861 -0.684141 0
M  V30 6762 N 620.389 -4.5714 -0.746818 0
M  V30 6763 C 621.124 -5.67634 -0.811137 0
M  V30 6764 N 620.62 -6.8774 -0.835811 0
M  V30 6765 N 622.413 -5.55624 -0.850756 0
M  V30 6766 H 614.564 -2.00307 0.70645 0
M  V30 6767 H 616.827 -0.912876 0.255659 0
M  V30 6768 H 616.533 -3.49797 0.365329 0
M  V30 6769 H 616.407 -3.50858 -1.38487 0
M  V30 6770 H 618.794 -2.52663 -1.52464 0
M  V30 6771 H 618.875 -2.54645 0.242805 0
M  V30 6772 H 618.519 -5.07472 0.2085 0
M  V30 6773 H 618.449 -5.02621 -1.57098 0
M  V30 6774 H 620.94 -3.70669 -0.735717 0
M  V30 6775 H 621.253 -7.67701 -0.886279 0
M  V30 6776 H 619.598 -6.90334 -0.803958 0
M  V30 6777 H 622.789 -4.60709 -0.828535 0
M  V30 6778 H 622.962 -6.41756 -0.897418 0
M  V30 6779 N 616.368 0.432326 -1.51554 0
M  V30 6780 C 617.298 1.53242 -1.76179 0
M  V30 6781 C 618.279 1.58717 -0.611801 0
M  V30 6782 O 619.464 1.74364 -0.855033 0
M  V30 6783 C 616.594 2.91278 -1.89141 0
M  V30 6784 C 615.548 3.00663 -3.04608 0
M  V30 6785 C 614.874 4.40728 -3.02759 0
M  V30 6786 C 616.174 2.74281 -4.44485 0
M  V30 6787 H 617.868 1.32886 -2.68294 0
M  V30 6788 H 615.414 0.637841 -1.29103 0
M  V30 6789 H 617.367 3.68203 -2.04951 0
M  V30 6790 H 616.091 3.12877 -0.936785 0
M  V30 6791 H 614.75 2.26179 -2.88511 0
M  V30 6792 H 614.398 4.59301 -2.05065 0
M  V30 6793 H 614.098 4.47936 -3.80299 0
M  V30 6794 H 615.622 5.19619 -3.20669 0
M  V30 6795 H 617.036 3.40936 -4.60907 0
M  V30 6796 H 615.433 2.92893 -5.23769 0
M  V30 6797 H 616.503 1.69856 -4.54177 0
M  V30 6798 N 617.846 1.41785 0.688094 0
M  V30 6799 C 619.093 1.41544 1.44816 0
M  V30 6800 C 619.421 0.0271746 1.94481 0
M  V30 6801 O 618.676 -0.962235 1.7041 0
M  V30 6802 C 618.975 2.37532 2.67046 0
M  V30 6803 C 618.641 3.84209 2.35996 0
M  V30 6804 C 617.303 4.24165 2.27239 0
M  V30 6805 C 619.655 4.76785 2.10536 0
M  V30 6806 C 616.983 5.54695 1.91128 0
M  V30 6807 C 619.335 6.07644 1.75931 0
M  V30 6808 C 617.999 6.46613 1.65675 0
M  V30 6809 H 617.269 0.517945 0.529919 0
M  V30 6810 H 619.916 1.74635 0.785797 0
M  V30 6811 H 618.221 1.9772 3.38251 0
M  V30 6812 H 619.918 2.34615 3.25203 0
M  V30 6813 H 616.508 3.52567 2.4371 0
M  V30 6814 H 620.692 4.46714 2.16242 0
M  V30 6815 H 615.948 5.83762 1.81746 0
M  V30 6816 H 620.122 6.78874 1.55252 0
M  V30 6817 H 617.749 7.47668 1.37463 0
M  V30 6818 N 619.324 -0.923095 1.27737 0
M  V30 6819 C 620.573 -1.66581 1.13727 0
M  V30 6820 C 620.886 -1.9304 -0.315433 0
M  V30 6821 O 622.092 -2.65309 -0.57651 0
M  V30 6822 C 620.548 -3.00047 1.98745 0
M  V30 6823 C 620.156 -2.8127 3.48699 0
M  V30 6824 C 621.9 -3.77887 1.93395 0
M  V30 6825 C 619.807 -4.1032 4.25901 0
M  V30 6826 H 618.737 -0.624834 0.422017 0
M  V30 6827 H 621.388 -1.02514 1.52194 0
M  V30 6828 H 619.77 -3.65197 1.53125 0
M  V30 6829 H 620.944 -2.24859 4.02213 0
M  V30 6830 H 619.259 -2.16854 3.55476 0
M  V30 6831 H 621.856 -4.73526 2.48348 0
M  V30 6832 H 622.199 -4.06264 0.908605 0
M  V30 6833 H 622.732 -3.19541 2.36935 0
M  V30 6834 H 619.471 -3.8712 5.28978 0
M  V30 6835 H 618.991 -4.66377 3.77163 0
M  V30 6836 H 620.67 -4.78648 4.35321 0
M  V30 6837 N 620.802 -1.09834 -1.13024 0
M  V30 6838 C 621.734 -0.699379 -2.18269 0
M  V30 6839 C 622.747 0.260841 -1.60697 0
M  V30 6840 O 623.936 0.0462538 -1.7844 0
M  V30 6841 C 621.036 -0.0104537 -3.38898 0
M  V30 6842 C 620.209 -0.993275 -4.25973 0
M  V30 6843 C 619.268 -0.336982 -5.2512 0
M  V30 6844 O 618.294 -0.985892 -5.60597 0
M  V30 6845 N 619.496 0.90716 -5.73368 0
M  V30 6846 H 622.261 -1.60486 -2.5311 0
M  V30 6847 H 619.822 -0.986337 -1.28386 0
M  V30 6848 H 621.814 0.43991 -4.02302 0
M  V30 6849 H 620.384 0.797335 -3.0226 0
M  V30 6850 H 619.604 -1.62208 -3.5928 0
M  V30 6851 H 620.892 -1.65876 -4.81002 0
M  V30 6852 H 620.29 1.45384 -5.46699 0
M  V30 6853 H 618.847 1.30077 -6.38689 0
M  V30 6854 N 622.28 1.30327 -0.886154 0
M  V30 6855 C 623.21 2.30549 -0.370028 0
M  V30 6856 C 624.191 1.61039 0.547751 0
M  V30 6857 O 625.376 1.8864 0.461353 0
M  V30 6858 C 622.506 3.44808 0.415275 0
M  V30 6859 C 621.46 4.26024 -0.41085 0
M  V30 6860 C 620.786 5.32347 0.501128 0
M  V30 6861 C 622.086 4.95433 -1.65359 0
M  V30 6862 H 623.78 2.73969 -1.20754 0
M  V30 6863 H 621.326 1.3171 -0.582097 0
M  V30 6864 H 623.279 4.13986 0.78699 0
M  V30 6865 H 622.003 3.00197 1.28644 0
M  V30 6866 H 620.662 3.58535 -0.764719 0
M  V30 6867 H 620.31 4.83982 1.37004 0
M  V30 6868 H 620.01 5.87581 -0.0478356 0
M  V30 6869 H 621.534 6.0438 0.869333 0
M  V30 6870 H 622.948 5.5712 -1.35239 0
M  V30 6871 H 621.345 5.60537 -2.14284 0
M  V30 6872 H 622.415 4.21493 -2.39733 0
M  V30 6873 N 623.758 0.647228 1.43697 0
M  V30 6874 C 624.986 0.16575 2.06235 0
M  V30 6875 C 625.401 -1.1662 1.48476 0
M  V30 6876 O 624.758 -1.7187 0.613762 0
M  V30 6877 C 624.809 0.0621651 3.61447 0
M  V30 6878 O 624.53 1.34146 4.17057 0
M  V30 6879 C 626.031 -0.446102 4.4105 0
M  V30 6880 H 623.251 0.0871158 0.665321 0
M  V30 6881 H 625.795 0.886183 1.84301 0
M  V30 6882 H 623.95 -0.608794 3.82587 0
M  V30 6883 H 624.364 1.19675 5.10664 0
M  V30 6884 H 625.838 -0.46755 5.50016 0
M  V30 6885 H 626.315 -1.47627 4.13646 0
M  V30 6886 H 626.921 0.192159 4.24866 0
M  V30 6887 N 625.236 -1.5273 0.388769 0
M  V30 6888 C 626.166 -2.29353 -0.438111 0
M  V30 6889 C 627.147 -1.32719 -1.06394 0
M  V30 6890 O 628.332 -1.61612 -1.07681 0
M  V30 6891 C 625.462 -3.09995 -1.56589 0
M  V30 6892 C 624.416 -4.14509 -1.06613 0
M  V30 6893 C 623.742 -4.83372 -2.28594 0
M  V30 6894 C 625.042 -5.22127 -0.134459 0
M  V30 6895 H 626.736 -2.98723 0.201206 0
M  V30 6896 H 624.282 -1.43665 0.0982089 0
M  V30 6897 H 626.235 -3.62357 -2.15118 0
M  V30 6898 H 624.959 -2.38357 -2.23279 0
M  V30 6899 H 623.618 -3.63128 -0.503383 0
M  V30 6900 H 623.266 -4.08283 -2.93792 0
M  V30 6901 H 622.966 -5.54012 -1.95817 0
M  V30 6902 H 624.49 -5.38538 -2.87766 0
M  V30 6903 H 625.904 -5.69851 -0.627914 0
M  V30 6904 H 624.301 -6.00011 0.103534 0
M  V30 6905 H 625.371 -4.77971 0.816798 0
M  V30 6906 N 626.714 -0.118576 -1.57153 0
M  V30 6907 C 627.939 0.550582 -1.99958 0
M  V30 6908 C 628.364 1.59458 -0.997736 0
M  V30 6909 O 627.722 1.81274 0.0306269 0
M  V30 6910 C 627.77 1.15379 -3.41643 0
M  V30 6911 O 626.874 2.26932 -3.44348 0
M  V30 6912 H 626.215 0.137567 -0.649593 0
M  V30 6913 H 628.745 -0.206926 -2.03551 0
M  V30 6914 H 628.755 1.48942 -3.79843 0
M  V30 6915 H 627.43 0.389087 -4.14076 0
M  V30 6916 H 626.007 1.94812 -3.17967 0
M  V30 6917 N 628.193 1.56834 0.155195 0
M  V30 6918 C 629.418 1.87412 0.888337 0
M  V30 6919 C 629.843 0.70671 1.74319 0
M  V30 6920 O 629.201 -0.343892 1.78009 0
M  V30 6921 C 629.249 3.1652 1.72765 0
M  V30 6922 O 628.353 2.99877 2.83103 0
M  V30 6923 H 627.694 0.615983 0.247914 0
M  V30 6924 H 630.224 2.04061 0.148478 0
M  V30 6925 H 630.234 3.48334 2.12433 0
M  V30 6926 H 628.909 4.01094 1.09985 0
M  V30 6927 H 627.486 2.79453 2.46902 0
M  V30 6928 N 629.671 -0.424282 1.51781 0
M  V30 6929 C 630.918 -1.1726 1.65095 0
M  V30 6930 C 631.246 -1.90881 0.373477 0
M  V30 6931 O 630.501 -1.84835 -0.642997 0
M  V30 6932 C 630.8 -2.20418 2.81337 0
M  V30 6933 C 630.466 -1.63715 4.20129 0
M  V30 6934 C 629.128 -1.47975 4.57883 0
M  V30 6935 C 631.48 -1.22157 5.06682 0
M  V30 6936 C 628.808 -0.891703 5.79884 0
M  V30 6937 C 631.16 -0.647767 6.29275 0
M  V30 6938 C 629.824 -0.477371 6.65791 0
M  V30 6939 H 629.094 -0.429085 0.604125 0
M  V30 6940 H 631.741 -0.461852 1.85847 0
M  V30 6941 H 630.046 -2.97581 2.54859 0
M  V30 6942 H 631.743 -2.78163 2.88836 0
M  V30 6943 H 628.333 -1.76946 3.90369 0
M  V30 6944 H 632.517 -1.33133 4.7811 0
M  V30 6945 H 627.773 -0.747563 6.06813 0
M  V30 6946 H 631.947 -0.317291 6.95677 0
M  V30 6947 H 629.574 -0.0195936 7.60197 0
M  V30 6948 N 631.149 -1.42148 -0.680565 0
M  V30 6949 C 632.099 -1.41634 -1.78672 0
M  V30 6950 C 633.083 -0.288494 -1.58293 0
M  V30 6951 O 634.275 -0.530295 -1.68869 0
M  V30 6952 C 631.404 -1.31558 -3.17092 0
M  V30 6953 C 630.49 -2.49265 -3.43115 0
M  V30 6954 N 630.881 -3.74702 -3.39753 0
M  V30 6955 C 629.179 -2.43401 -3.73727 0
M  V30 6956 C 629.88 -4.52854 -3.651 0
M  V30 6957 N 628.856 -3.83181 -3.85582 0
M  V30 6958 H 632.658 -2.3652 -1.74458 0
M  V30 6959 H 630.172 -1.36415 -0.881171 0
M  V30 6960 H 632.169 -1.29272 -3.96351 0
M  V30 6961 H 630.829 -0.376696 -3.22508 0
M  V30 6962 H 631.84 -4.07378 -3.19787 0
M  V30 6963 H 628.517 -1.58062 -3.86423 0
M  V30 6964 H 629.907 -5.61827 -3.6851 0
M  V30 6965 N 632.627 0.916307 -1.28225 0
M  V30 6966 C 633.875 1.6619 -1.15002 0
M  V30 6967 C 634.196 1.92642 0.302329 0
M  V30 6968 O 633.466 1.54076 1.20985 0
M  V30 6969 H 632.046 0.615964 -0.422608 0
M  V30 6970 H 634.708 1.09963 -1.60917 0
M  V30 6971 H 633.804 2.62533 -1.68769 0
M  V30 6972 N 634.105 1.10431 1.1244 0
M  V30 6973 C 635.352 0.846717 1.83948 0
M  V30 6974 C 635.68 -0.627709 1.84093 0
M  V30 6975 O 634.935 -1.47876 1.28184 0
M  V30 6976 C 635.234 1.34022 3.3132 0
M  V30 6977 C 634.9 2.82606 3.51347 0
M  V30 6978 C 633.562 3.23182 3.56521 0
M  V30 6979 C 635.914 3.78356 3.58464 0
M  V30 6980 C 633.242 4.58258 3.66356 0
M  V30 6981 C 635.594 5.13234 3.69829 0
M  V30 6982 C 634.258 5.53384 3.73259 0
M  V30 6983 H 633.528 0.309836 0.673114 0
M  V30 6984 H 636.175 1.38091 1.32677 0
M  V30 6985 H 634.48 0.726047 3.85014 0
M  V30 6986 H 636.177 1.11739 3.85118 0
M  V30 6987 H 632.767 2.50212 3.47983 0
M  V30 6988 H 636.951 3.48115 3.53737 0
M  V30 6989 H 632.207 4.88787 3.67284 0
M  V30 6990 H 636.381 5.87272 3.74279 0
M  V30 6991 H 634.008 6.58045 3.80633 0
M  V30 6992 N 635.583 -1.29855 0.893053 0
M  V30 6993 C 636.513 -2.3035 0.382249 0
M  V30 6994 C 637.494 -1.61328 -0.539203 0
M  V30 6995 O 638.679 -1.88882 -0.451342 0
M  V30 6996 C 635.809 -3.45024 -0.396983 0
M  V30 6997 C 634.763 -4.258 0.433437 0
M  V30 6998 C 634.089 -5.32605 -0.472889 0
M  V30 6999 C 635.389 -4.94549 1.67984 0
M  V30 7000 H 637.083 -2.73325 1.22205 0
M  V30 7001 H 634.629 -1.314 0.589073 0
M  V30 7002 H 636.582 -4.14398 -0.765024 0
M  V30 7003 H 635.306 -3.00875 -1.2705 0
M  V30 7004 H 633.965 -3.58125 0.783723 0
M  V30 7005 H 633.613 -4.84702 -1.34435 0
M  V30 7006 H 633.313 -5.87547 0.0789958 0
M  V30 7007 H 634.837 -6.04832 -0.837269 0
M  V30 7008 H 636.251 -5.56395 1.38192 0
M  V30 7009 H 634.648 -5.59393 2.17254 0
M  V30 7010 H 635.718 -4.20215 2.41965 0
M  V30 7011 N 637.061 -0.65484 -1.43351 0
M  V30 7012 C 638.307 -0.169142 -2.02093 0
M  V30 7013 C 638.64 1.21431 -1.51553 0
M  V30 7014 O 637.915 1.81105 -0.709317 0
M  V30 7015 C 638.198 -0.181775 -3.59641 0
M  V30 7016 C 638.051 -1.59926 -4.20409 0
M  V30 7017 C 639.37 0.480945 -4.37464 0
M  V30 7018 H 636.489 -0.0629371 -0.734308 0
M  V30 7019 H 639.131 -0.835833 -1.70628 0
M  V30 7020 H 637.281 0.385918 -3.86578 0
M  V30 7021 H 638.953 -2.21766 -4.04497 0
M  V30 7022 H 637.196 -2.14605 -3.76998 0
M  V30 7023 H 637.867 -1.55994 -5.295 0
M  V30 7024 H 640.343 -0.00208273 -4.161 0
M  V30 7025 H 639.219 0.441384 -5.47122 0
M  V30 7026 H 639.48 1.55533 -4.13838 0
M  V30 7027 N 638.539 1.52521 -0.396863 0
M  V30 7028 C 639.502 2.2527 0.422604 0
M  V30 7029 C 640.502 1.27184 0.983913 0
M  V30 7030 O 641.692 1.51222 0.864723 0
M  V30 7031 C 638.824 3.01356 1.59365 0
M  V30 7032 H 640.017 2.99133 -0.214416 0
M  V30 7033 H 637.57 1.55587 -0.149128 0
M  V30 7034 H 638.305 2.31813 2.26789 0
M  V30 7035 H 638.09 3.73357 1.19779 0
M  V30 7036 H 639.58 3.56571 2.17363 0
M  V30 7037 N 640.017 0.126909 1.57088 0
M  V30 7038 C 640.947 -0.816847 2.18746 0
M  V30 7039 C 641.928 -1.27161 1.12979 0
M  V30 7040 O 643.113 -1.33279 1.41246 0
M  V30 7041 C 640.243 -2.06398 2.79315 0
M  V30 7042 C 639.197 -1.74673 3.90735 0
M  V30 7043 C 638.523 -3.06482 4.38147 0
M  V30 7044 C 639.823 -1.0089 5.12463 0
M  V30 7045 H 641.517 -0.303032 2.97863 0
M  V30 7046 H 639.063 -0.144314 1.43275 0
M  V30 7047 H 641.016 -2.72885 3.2111 0
M  V30 7048 H 639.74 -2.60118 1.975 0
M  V30 7049 H 638.399 -1.10572 3.49527 0
M  V30 7050 H 638.047 -3.58152 3.5318 0
M  V30 7051 H 637.747 -2.86025 5.13287 0
M  V30 7052 H 639.271 -3.74073 4.82599 0
M  V30 7053 H 640.685 -1.57546 5.51228 0
M  V30 7054 H 639.082 -0.905006 5.93237 0
M  V30 7055 H 640.152 0.00297335 4.849 0
M  V30 7056 N 641.495 -1.56914 -0.146875 0
M  V30 7057 C 642.427 -1.94878 -1.20645 0
M  V30 7058 C 643.44 -0.844633 -1.39175 0
M  V30 7059 O 644.629 -1.12304 -1.38744 0
M  V30 7060 C 641.729 -2.20769 -2.57127 0
M  V30 7061 C 640.902 -3.52053 -2.59572 0
M  V30 7062 C 639.961 -3.66482 -3.77594 0
M  V30 7063 O 638.987 -4.38873 -3.62462 0
M  V30 7064 N 640.189 -3.03156 -4.95052 0
M  V30 7065 H 642.954 -2.86374 -0.883757 0
M  V30 7066 H 640.515 -1.58366 -0.336436 0
M  V30 7067 H 642.507 -2.27664 -3.34591 0
M  V30 7068 H 641.077 -1.35538 -2.81688 0
M  V30 7069 H 640.297 -3.56598 -1.68023 0
M  V30 7070 H 641.585 -4.38396 -2.58238 0
M  V30 7071 H 640.983 -2.44258 -5.10249 0
M  V30 7072 H 639.54 -3.15611 -5.70292 0
M  V30 7073 N 642.974 0.416227 -1.52004 0
M  V30 7074 C 644.204 1.18401 -1.69307 0
M  V30 7075 C 644.612 1.84943 -0.399072 0
M  V30 7076 O 643.955 1.72406 0.634177 0
M  V30 7077 C 644.017 2.29465 -2.76742 0
M  V30 7078 C 643.681 1.83117 -4.18709 0
M  V30 7079 C 644.678 1.32286 -5.02789 0
M  V30 7080 C 642.363 1.90167 -4.64911 0
M  V30 7081 C 644.357 0.891178 -6.31139 0
M  V30 7082 C 642.044 1.4661 -5.93253 0
M  V30 7083 C 643.042 0.961696 -6.76196 0
M  V30 7084 O 642.73 0.532388 -8.02135 0
M  V30 7085 H 642.462 0.362098 -0.570843 0
M  V30 7086 H 645.016 0.496764 -1.99302 0
M  V30 7087 H 643.246 3.01531 -2.42107 0
M  V30 7088 H 644.935 2.91252 -2.82713 0
M  V30 7089 H 645.701 1.26218 -4.68288 0
M  V30 7090 H 641.58 2.28371 -4.00459 0
M  V30 7091 H 645.124 0.496788 -6.95829 0
M  V30 7092 H 641.021 1.52355 -6.27263 0
M  V30 7093 H 641.789 0.656339 -8.15864 0
M  V30 7094 N 644.452 1.42507 0.673017 0
M  V30 7095 C 645.7 1.42789 1.43023 0
M  V30 7096 C 646.021 0.0459738 1.94946 0
M  V30 7097 O 645.291 -0.915765 1.73178 0
M  V30 7098 H 643.871 0.525657 0.530748 0
M  V30 7099 H 646.533 1.77944 0.795113 0
M  V30 7100 H 645.629 2.12872 2.28237 0
M  V30 7101 N 645.93 -0.909495 1.28709 0
M  V30 7102 C 647.177 -1.65905 1.16111 0
M  V30 7103 C 647.505 -1.92334 -0.289436 0
M  V30 7104 O 646.76 -1.52495 -1.22653 0
M  V30 7105 C 647.059 -3.02117 1.90945 0
M  V30 7106 C 646.725 -2.95332 3.40719 0
M  V30 7107 C 645.387 -2.93189 3.81567 0
M  V30 7108 C 647.739 -2.85264 4.36204 0
M  V30 7109 C 645.067 -2.78784 5.16233 0
M  V30 7110 C 647.419 -2.724 5.70948 0
M  V30 7111 C 646.083 -2.68617 6.11066 0
M  V30 7112 H 645.353 -0.60709 0.42488 0
M  V30 7113 H 648 -1.05932 1.59533 0
M  V30 7114 H 646.305 -3.65901 1.40085 0
M  V30 7115 H 648.002 -3.59026 1.7861 0
M  V30 7116 H 644.592 -2.97797 3.08245 0
M  V30 7117 H 648.776 -2.86005 4.05605 0
M  V30 7118 H 644.032 -2.74254 5.46438 0
M  V30 7119 H 648.206 -2.63579 6.44592 0
M  V30 7120 H 645.833 -2.57213 7.15364 0
M  V30 7121 N 647.408 -1.11026 -1.11852 0
M  V30 7122 C 648.371 -0.768006 -2.1595 0
M  V30 7123 C 649.371 0.210538 -1.59416 0
M  V30 7124 O 650.561 -0.0133978 -1.74195 0
M  V30 7125 C 647.693 -0.138678 -3.40618 0
M  V30 7126 H 648.886 -1.69012 -2.4774 0
M  V30 7127 H 646.439 -0.911578 -1.26964 0
M  V30 7128 H 647.174 0.793872 -3.14433 0
M  V30 7129 H 646.959 -0.843012 -3.8293 0
M  V30 7130 H 648.449 0.0848039 -4.17514 0
M  V30 7131 N 648.886 1.2938 -0.899927 0
M  V30 7132 C 649.834 2.29675 -0.367698 0
M  V30 7133 C 650.828 1.60787 0.533282 0
M  V30 7134 O 652.034 1.75126 0.416058 0
M  V30 7135 H 648.409 0.745284 -0.100279 0
M  V30 7136 H 650.38 2.72008 -1.22696 0
M  V30 7137 C 649.129 3.45512 0.389483 0
M  V30 7138 H 648.452 3.98713 -0.294575 0
M  V30 7139 H 649.892 4.17725 0.726744 0
M  V30 7140 C 648.351 2.969 1.59223 0
M  V30 7141 O 648.881 2.98195 2.69152 0
M  V30 7142 N 647.087 2.52728 1.43447 0
M  V30 7143 H 646.634 2.51873 0.540148 0
M  V30 7144 H 646.592 2.20561 2.24054 0
M  V30 7145 N 650.364 0.662433 1.43002 0
M  V30 7146 C 651.612 0.179237 2.01304 0
M  V30 7147 C 651.933 -1.21428 1.52579 0
M  V30 7148 O 651.203 -1.81294 0.742252 0
M  V30 7149 H 649.783 0.0632725 0.744316 0
M  V30 7150 H 652.445 0.856169 1.75088 0
M  V30 7151 H 651.541 0.170957 3.11631 0
M  V30 7152 N 651.842 -1.52309 0.404946 0
M  V30 7153 C 652.752 -2.30634 -0.429555 0
M  V30 7154 C 653.768 -1.38187 -1.05737 0
M  V30 7155 O 654.944 -1.71261 -1.05979 0
M  V30 7156 C 652.009 -3.10947 -1.53339 0
M  V30 7157 C 651.07 -4.19126 -0.929065 0
M  V30 7158 C 650.303 -4.95601 -1.9803 0
M  V30 7159 O 650.526 -4.72331 -3.1978 0
M  V30 7160 O 649.46 -5.80551 -1.58886 0
M  V30 7161 H 653.286 -3.0298 0.208963 0
M  V30 7162 H 650.871 -1.4845 0.168255 0
M  V30 7163 H 652.753 -3.60974 -2.1743 0
M  V30 7164 H 651.428 -2.41399 -2.15658 0
M  V30 7165 H 650.335 -3.73257 -0.250982 0
M  V30 7166 H 651.668 -4.90955 -0.349855 0
M  V30 7167 N 653.32 -0.135238 -1.57019 0
M  V30 7168 C 654.566 0.519563 -1.96032 0
M  V30 7169 C 654.899 1.65284 -1.01955 0
M  V30 7170 O 654.174 1.94408 -0.059727 0
M  V30 7171 C 654.457 1.0369 -3.44848 0
M  V30 7172 C 654.31 -0.0940754 -4.49702 0
M  V30 7173 C 655.629 1.92254 -3.95887 0
M  V30 7174 H 652.748 0.18739 -0.712779 0
M  V30 7175 H 655.39 -0.214086 -1.8879 0
M  V30 7176 H 653.54 1.66209 -3.5115 0
M  V30 7177 H 655.212 -0.73 -4.55487 0
M  V30 7178 H 653.455 -0.754924 -4.27181 0
M  V30 7179 H 654.126 0.309419 -5.51132 0
M  V30 7180 H 656.602 1.39581 -3.9199 0
M  V30 7181 H 655.478 2.25364 -5.00502 0
M  V30 7182 H 655.739 2.85513 -3.37543 0
M  V30 7183 N 654.798 1.5699 0.138552 0
M  V30 7184 C 655.745 1.98899 1.17081 0
M  V30 7185 C 656.715 0.857922 1.42228 0
M  V30 7186 O 657.9 1.12065 1.54422 0
M  V30 7187 C 655.04 2.38189 2.4972 0
M  V30 7188 C 654.153 3.64624 2.31674 0
M  V30 7189 C 653.288 3.9298 3.57407 0
M  V30 7190 C 652.327 5.1266 3.34435 0
M  V30 7191 N 651.464 5.36983 4.5232 0
M  V30 7192 H 656.304 2.86881 0.80642 0
M  V30 7193 H 653.841 1.41925 0.386727 0
M  V30 7194 H 655.799 2.59 3.2707 0
M  V30 7195 H 654.429 1.53275 2.84089 0
M  V30 7196 H 653.481 3.51542 1.45337 0
M  V30 7197 H 654.793 4.52131 2.10664 0
M  V30 7198 H 653.947 4.14335 4.43183 0
M  V30 7199 H 652.686 3.03912 3.8143 0
M  V30 7200 H 651.691 4.9117 2.47048 0
M  V30 7201 H 652.916 6.03288 3.11802 0
M  V30 7202 H 650.862 4.50871 4.76499 0
M  V30 7203 H 650.779 6.18775 4.34343 0
M  V30 7204 H 652.047 5.62842 5.39285 0
M  V30 7205 N 656.276 -0.40816 1.52223 0
M  V30 7206 C 657.239 -1.48 1.7501 0
M  V30 7207 C 658.239 -1.48367 0.619996 0
M  V30 7208 O 659.429 -1.49874 0.887881 0
M  V30 7209 C 656.561 -2.87403 1.83336 0
M  V30 7210 H 657.754 -1.29086 2.70697 0
M  V30 7211 H 655.307 -0.638715 1.42654 0
M  V30 7212 H 656.042 -3.11686 0.895677 0
M  V30 7213 H 655.827 -2.8854 2.65494 0
M  V30 7214 H 657.317 -3.65103 2.02705 0
M  V30 7215 N 657.755 -1.42862 -0.66545 0
M  V30 7216 C 658.665 -1.49491 -1.80803 0
M  V30 7217 C 659.681 -0.382914 -1.69734 0
M  V30 7218 O 660.857 -0.635223 -1.9112 0
M  V30 7219 C 657.922 -1.40383 -3.17007 0
M  V30 7220 C 656.983 -2.62152 -3.39963 0
M  V30 7221 C 656.216 -2.53469 -4.69669 0
M  V30 7222 O 656.439 -1.57568 -5.48205 0
M  V30 7223 O 655.373 -3.43763 -4.94075 0
M  V30 7224 H 659.199 -2.45949 -1.78165 0
M  V30 7225 H 656.784 -1.24728 -0.822387 0
M  V30 7226 H 658.666 -1.377 -3.98267 0
M  V30 7227 H 657.341 -0.470546 -3.20262 0
M  V30 7228 H 656.248 -2.70409 -2.58515 0
M  V30 7229 H 657.581 -3.54411 -3.41546 0
M  V30 7230 N 659.233 0.902656 -1.29189 0
M  V30 7231 C 660.163 2.02294 -1.16616 0
M  V30 7232 C 661.144 1.6999 -0.0611175 0
M  V30 7233 O 662.329 1.9271 -0.240072 0
M  V30 7234 C 659.459 3.37018 -0.83882 0
M  V30 7235 C 658.413 3.83522 -1.89986 0
M  V30 7236 C 657.739 5.15337 -1.42589 0
M  V30 7237 C 659.039 4.04169 -3.30824 0
M  V30 7238 H 660.733 2.13071 -2.10336 0
M  V30 7239 H 658.279 1.02378 -1.01266 0
M  V30 7240 H 660.232 4.14895 -0.737584 0
M  V30 7241 H 658.956 3.26325 0.134071 0
M  V30 7242 H 657.615 3.07859 -1.99043 0
M  V30 7243 H 657.263 5.01056 -0.441759 0
M  V30 7244 H 656.963 5.47423 -2.13547 0
M  V30 7245 H 658.487 5.95758 -1.3381 0
M  V30 7246 H 659.901 4.72537 -3.24626 0
M  V30 7247 H 658.298 4.47604 -3.99713 0
M  V30 7248 H 659.368 3.08604 -3.74021 0
M  V30 7249 N 660.711 1.11618 1.11262 0
M  V30 7250 C 662.127 0.850468 1.35053 0
M  V30 7251 C 662.327 -0.523868 1.94571 0
M  V30 7252 O 661.383 -1.2743 2.17986 0
M  V30 7253 C 662.696 1.96005 2.28041 0
M  V30 7254 C 664.244 1.98993 2.416 0
M  V30 7255 C 664.719 3.0916 3.37911 0
M  V30 7256 N 666.21 3.08547 3.45475 0
M  V30 7257 C 666.945 3.9043 4.19943 0
M  V30 7258 N 666.441 4.8228 4.97371 0
M  V30 7259 N 668.234 3.786 4.15474 0
M  V30 7260 H 660.385 2.00184 0.709932 0
M  V30 7261 H 662.648 0.870635 0.375099 0
M  V30 7262 H 662.354 2.9499 1.91503 0
M  V30 7263 H 662.228 1.85782 3.28275 0
M  V30 7264 H 664.615 1.00633 2.77411 0
M  V30 7265 H 664.696 2.13292 1.4121 0
M  V30 7266 H 664.34 4.07748 3.02827 0
M  V30 7267 H 664.27 2.92102 4.3816 0
M  V30 7268 H 666.761 2.42 2.90249 0
M  V30 7269 H 667.074 5.41289 5.51567 0
M  V30 7270 H 665.419 4.863 4.96525 0
M  V30 7271 H 668.61 3.06185 3.54074 0
M  V30 7272 H 668.783 4.42647 4.73253 0
M  V30 7273 N 662.189 -1.289 0.906776 0
M  V30 7274 C 663.136 -2.2751 0.388313 0
M  V30 7275 C 664.106 -1.57301 -0.533439 0
M  V30 7276 O 665.291 -1.85243 -0.457148 0
M  V30 7277 C 662.431 -3.43091 -0.37181 0
M  V30 7278 C 661.544 -4.28066 0.581647 0
M  V30 7279 C 660.679 -5.30837 -0.19623 0
M  V30 7280 C 659.718 -6.07472 0.751294 0
M  V30 7281 N 658.855 -7.021 0.00737727 0
M  V30 7282 H 663.695 -2.71237 1.23428 0
M  V30 7283 H 661.232 -1.33397 0.619962 0
M  V30 7284 H 663.19 -4.08888 -0.828641 0
M  V30 7285 H 661.82 -3.00374 -1.18218 0
M  V30 7286 H 660.872 -3.62378 1.157 0
M  V30 7287 H 662.184 -4.81382 1.30665 0
M  V30 7288 H 661.338 -6.02485 -0.71394 0
M  V30 7289 H 660.077 -4.78272 -0.954324 0
M  V30 7290 H 659.082 -5.34682 1.28044 0
M  V30 7291 H 660.307 -6.62126 1.50883 0
M  V30 7292 H 658.253 -6.51894 -0.732854 0
M  V30 7293 H 658.17 -7.53004 0.672334 0
M  V30 7294 H 659.438 -7.77956 -0.490365 0
M  V30 7295 N 663.667 -0.670007 -1.42649 0
M  V30 7296 C 664.897 -0.198252 -2.05647 0
M  V30 7297 C 665.305 1.14786 -1.50402 0
M  V30 7298 O 664.648 1.72316 -0.636634 0
M  V30 7299 C 664.71 -0.0507132 -3.59464 0
M  V30 7300 C 664.374 -1.32478 -4.37377 0
M  V30 7301 C 665.371 -2.2572 -4.68344 0
M  V30 7302 C 663.056 -1.57104 -4.77099 0
M  V30 7303 C 665.05 -3.4187 -5.37963 0
M  V30 7304 C 662.737 -2.73543 -5.46459 0
M  V30 7305 C 663.735 -3.65751 -5.76815 0
M  V30 7306 O 663.423 -4.80154 -6.44753 0
M  V30 7307 H 663.155 -0.0950721 -0.669281 0
M  V30 7308 H 665.709 -0.915745 -1.83857 0
M  V30 7309 H 663.939 0.722314 -3.79894 0
M  V30 7310 H 665.628 0.380552 -4.04112 0
M  V30 7311 H 666.394 -2.07943 -4.38161 0
M  V30 7312 H 662.273 -0.862069 -4.52868 0
M  V30 7313 H 665.817 -4.13861 -5.61574 0
M  V30 7314 H 661.714 -2.91248 -5.7606 0
M  V30 7315 H 662.482 -4.79637 -6.63243 0
M  V30 7316 N 665.145 1.52092 -0.413018 0
M  V30 7317 C 666.391 2.02815 0.154104 0
M  V30 7318 C 666.746 1.293 1.42475 0
M  V30 7319 O 666.039 0.391835 1.87551 0
M  V30 7320 C 666.233 3.54529 0.4521 0
M  V30 7321 C 666.062 4.4274 -0.788116 0
M  V30 7322 C 664.832 4.87903 -1.31447 0
M  V30 7323 C 667.03 4.86522 -1.66735 0
M  V30 7324 N 665.012 5.60254 -2.50976 0
M  V30 7325 C 666.383 5.57692 -2.70886 0
M  V30 7326 C 668.438 4.68534 -1.68465 0
M  V30 7327 C 667.141 6.12783 -3.76682 0
M  V30 7328 C 669.167 5.24524 -2.73182 0
M  V30 7329 C 668.529 5.9562 -3.76054 0
M  V30 7330 H 664.628 0.781796 0.0178567 0
M  V30 7331 H 667.212 1.86223 -0.568237 0
M  V30 7332 H 665.383 3.71186 1.14348 0
M  V30 7333 H 667.115 3.91934 1.00844 0
M  V30 7334 H 663.87 4.65504 -0.871931 0
M  V30 7335 H 664.294 6.01069 -3.11521 0
M  V30 7336 H 668.936 4.13051 -0.902708 0
M  V30 7337 H 666.654 6.67335 -4.55729 0
M  V30 7338 H 670.24 5.12473 -2.75433 0
M  V30 7339 H 669.12 6.38169 -4.55752 0
M  V30 7340 N 666.623 0.143563 1.56945 0
M  V30 7341 C 667.869 -0.50916 1.96304 0
M  V30 7342 C 668.202 -1.64741 1.0283 0
M  V30 7343 O 667.477 -1.94374 0.0700361 0
M  V30 7344 C 667.76 -1.0186 3.45393 0
M  V30 7345 C 667.613 0.117923 4.49645 0
M  V30 7346 C 668.932 -1.90151 3.96901 0
M  V30 7347 H 666.051 -0.183608 0.713763 0
M  V30 7348 H 668.693 0.224095 1.88674 0
M  V30 7349 H 666.843 -1.64345 3.52027 0
M  V30 7350 H 668.515 0.754145 4.55094 0
M  V30 7351 H 666.758 0.777568 4.26774 0
M  V30 7352 H 667.429 -0.280187 5.51288 0
M  V30 7353 H 669.905 -1.375 3.92725 0
M  V30 7354 H 668.781 -2.22707 5.0169 0
M  V30 7355 H 669.042 -2.83718 3.39052 0
M  V30 7356 N 668.101 -1.57061 -0.130224 0
M  V30 7357 C 669.517 -1.52103 -0.483413 0
M  V30 7358 C 669.717 -0.854752 -1.82473 0
M  V30 7359 O 668.773 -0.432342 -2.48771 0
M  V30 7360 C 670.086 -2.96872 -0.47825 0
M  V30 7361 C 671.634 -3.07902 -0.562592 0
M  V30 7362 C 672.109 -4.54211 -0.587929 0
M  V30 7363 N 673.6 -4.58621 -0.649684 0
M  V30 7364 C 674.335 -5.69227 -0.690551 0
M  V30 7365 N 673.831 -6.89358 -0.689743 0
M  V30 7366 N 675.624 -5.57304 -0.732708 0
M  V30 7367 H 667.775 -1.98764 0.748779 0
M  V30 7368 H 670.038 -0.907248 0.274965 0
M  V30 7369 H 669.744 -3.48944 0.439444 0
M  V30 7370 H 669.618 -3.53716 -1.31013 0
M  V30 7371 H 672.005 -2.5584 -1.47071 0
M  V30 7372 H 672.086 -2.54073 0.296764 0
M  V30 7373 H 671.73 -5.06915 0.316096 0
M  V30 7374 H 671.66 -5.0584 -1.46401 0
M  V30 7375 H 674.151 -3.72146 -0.656927 0
M  V30 7376 H 674.464 -7.69408 -0.723239 0
M  V30 7377 H 672.809 -6.91884 -0.657347 0
M  V30 7378 H 676 -4.62363 -0.730625 0
M  V30 7379 H 676.173 -6.43515 -0.76109 0
M  V30 7380 N 669.579 0.400081 -1.52437 0
M  V30 7381 C 670.826 1.14619 -1.6694 0
M  V30 7382 C 671.154 1.90262 -0.403797 0
M  V30 7383 O 670.409 1.85835 0.61351 0
M  V30 7384 C 670.708 2.15914 -2.84808 0
M  V30 7385 C 670.374 1.57011 -4.2268 0
M  V30 7386 C 669.036 1.40672 -4.60179 0
M  V30 7387 C 671.388 1.14081 -5.08562 0
M  V30 7388 C 668.716 0.799335 -5.81229 0
M  V30 7389 C 671.068 0.547573 -6.30226 0
M  V30 7390 C 669.732 0.371389 -6.66466 0
M  V30 7391 H 669.002 0.419419 -0.610875 0
M  V30 7392 H 671.649 0.432227 -1.86558 0
M  V30 7393 H 669.954 2.93488 -2.59561 0
M  V30 7394 H 671.651 2.73533 -2.93225 0
M  V30 7395 H 668.241 1.70713 -3.93135 0
M  V30 7396 H 672.425 1.2551 -4.80168 0
M  V30 7397 H 667.681 0.65093 -6.07925 0
M  V30 7398 H 671.855 0.206575 -6.96094 0
M  V30 7399 H 669.482 -0.10135 -7.60132 0
M  V30 7400 N 671.057 1.43213 0.657864 0
M  V30 7401 C 671.987 1.50815 1.78262 0
M  V30 7402 C 672.968 0.363211 1.66177 0
M  V30 7403 O 674.153 0.579806 1.85343 0
M  V30 7404 C 671.283 1.42625 3.16663 0
M  V30 7405 C 670.237 2.5532 3.43505 0
M  V30 7406 C 669.563 2.32184 4.81658 0
M  V30 7407 C 670.863 3.97583 3.38711 0
M  V30 7408 H 672.557 2.44954 1.72157 0
M  V30 7409 H 670.103 1.17896 0.82683 0
M  V30 7410 H 672.056 1.46548 3.95097 0
M  V30 7411 H 670.78 0.449877 3.23487 0
M  V30 7412 H 669.439 2.50742 2.6744 0
M  V30 7413 H 669.087 1.32801 4.85153 0
M  V30 7414 H 668.787 3.07724 5.00579 0
M  V30 7415 H 670.311 2.37883 5.62356 0
M  V30 7416 H 671.725 4.03673 4.07089 0
M  V30 7417 H 670.122 4.73112 3.69168 0
M  V30 7418 H 671.192 4.23049 2.36976 0
M  V30 7419 N 672.536 -0.895792 1.29666 0
M  V30 7420 C 673.466 -2.01673 1.17688 0
M  V30 7421 C 674.447 -1.69955 0.0701317 0
M  V30 7422 O 675.632 -1.9258 0.250289 0
M  V30 7423 C 672.762 -3.36568 0.856681 0
M  V30 7424 C 671.716 -3.82509 1.92017 0
M  V30 7425 C 671.042 -5.14574 1.4532 0
M  V30 7426 C 672.342 -4.02409 3.32963 0
M  V30 7427 H 674.036 -2.11953 2.11463 0
M  V30 7428 H 671.582 -1.01839 1.01807 0
M  V30 7429 H 673.535 -4.14498 0.759577 0
M  V30 7430 H 672.259 -3.26391 -0.116763 0
M  V30 7431 H 670.918 -3.068 2.00673 0
M  V30 7432 H 670.566 -5.00815 0.468325 0
M  V30 7433 H 670.266 -5.46283 2.16447 0
M  V30 7434 H 671.79 -5.9504 1.36968 0
M  V30 7435 H 673.204 -4.70808 3.27127 0
M  V30 7436 H 671.601 -4.45478 4.02082 0
M  V30 7437 H 672.671 -3.06616 3.75652 0
M  V30 7438 N 674.014 -1.12206 -1.10668 0
M  V30 7439 C 674.977 -0.790867 -2.15123 0
M  V30 7440 C 675.977 0.193618 -1.5963 0
M  V30 7441 O 677.167 -0.0318728 -1.74171 0
M  V30 7442 C 674.299 -0.174797 -3.40452 0
M  V30 7443 H 675.492 -1.7163 -2.45933 0
M  V30 7444 H 673.045 -0.924993 -1.2599 0
M  V30 7445 H 673.78 0.760478 -3.15257 0
M  V30 7446 H 673.565 -0.88358 -3.82015 0
M  V30 7447 H 675.055 0.0405162 -4.1758 0
M  V30 7448 N 675.492 1.28418 -0.913599 0
M  V30 7449 C 676.908 1.47411 -0.611728 0
M  V30 7450 C 677.108 1.83018 0.843008 0
M  V30 7451 O 676.164 1.93505 1.6221 0
M  V30 7452 C 677.477 2.57703 -1.5495 0
M  V30 7453 C 679.025 2.71572 -1.5562 0
M  V30 7454 C 679.5 3.85008 -2.48058 0
M  V30 7455 N 680.991 3.92361 -2.46184 0
M  V30 7456 C 681.726 4.79516 -3.14407 0
M  V30 7457 N 681.222 5.71262 -3.91958 0
M  V30 7458 N 683.015 4.73125 -3.03495 0
M  V30 7459 H 675.166 1.03585 -1.85429 0
M  V30 7460 H 677.429 0.515907 -0.795326 0
M  V30 7461 H 677.135 2.38298 -2.58663 0
M  V30 7462 H 677.009 3.54801 -1.28048 0
M  V30 7463 H 679.396 2.90366 -0.526441 0
M  V30 7464 H 679.477 1.75006 -1.86565 0
M  V30 7465 H 679.121 3.66969 -3.51136 0
M  V30 7466 H 679.051 4.80971 -2.14416 0
M  V30 7467 H 681.542 3.26749 -1.89851 0
M  V30 7468 H 681.855 6.34593 -4.41034 0
M  V30 7469 H 680.2 5.71103 -3.96063 0
M  V30 7470 H 683.391 4.00442 -2.42413 0
M  V30 7471 H 683.564 5.40834 -3.56935 0
M  V30 7472 N 676.97 0.677563 1.42291 0
M  V30 7473 C 677.92 -0.0218641 2.2799 0
M  V30 7474 C 678.904 -0.770816 1.41235 0
M  V30 7475 O 680.096 -0.649273 1.64662 0
M  V30 7476 C 677.225 -0.970449 3.29298 0
M  V30 7477 C 676.311 -0.218695 4.23536 0
M  V30 7478 N 676.702 0.777908 4.99782 0
M  V30 7479 C 675 -0.456748 4.43655 0
M  V30 7480 C 675.701 1.22632 5.68627 0
M  V30 7481 N 674.677 0.55573 5.40752 0
M  V30 7482 H 678.479 0.742516 2.84366 0
M  V30 7483 H 675.993 0.506862 1.54288 0
M  V30 7484 H 677.99 -1.48652 3.89497 0
M  V30 7485 H 676.65 -1.73463 2.74483 0
M  V30 7486 H 677.661 1.15754 5.04798 0
M  V30 7487 H 674.338 -1.20021 3.99877 0
M  V30 7488 H 675.728 2.05231 6.39789 0
M  V30 7489 N 678.448 -1.51871 0.421078 0
M  V30 7490 C 679.673 -2.0684 -0.152371 0
M  V30 7491 C 680.098 -1.28802 -1.37083 0
M  V30 7492 O 679.456 -0.321482 -1.78427 0
M  V30 7493 C 679.504 -3.57532 -0.469368 0
M  V30 7494 O 678.608 -3.81818 -1.55848 0
M  V30 7495 H 677.949 -0.663939 -0.00898586 0
M  V30 7496 H 680.479 -1.95674 0.597724 0
M  V30 7497 H 680.489 -4.01515 -0.724553 0
M  V30 7498 H 679.164 -4.13761 0.421276 0
M  V30 7499 H 677.741 -3.49709 -1.29453 0
M  V30 7500 N 679.926 -0.151884 -1.56866 0
M  V30 7501 C 681.174 0.497021 -1.95893 0
M  V30 7502 C 681.495 1.65078 -1.03799 0
M  V30 7503 O 680.765 1.95642 -0.10049 0
M  V30 7504 H 679.345 0.186603 -0.723318 0
M  V30 7505 H 682.007 -0.228525 -1.93556 0
M  V30 7506 H 681.103 0.869933 -2.99731 0
M  V30 7507 N 681.404 1.57128 0.121893 0
M  V30 7508 C 682.644 1.86517 0.836113 0
M  V30 7509 C 683.008 0.739497 1.77188 0
M  V30 7510 O 684.209 0.91508 2.52744 0
M  V30 7511 C 682.48 3.21129 1.56878 0
M  V30 7512 S 684.039 3.72143 2.32497 0
M  V30 7513 H 680.857 0.653923 0.279115 0
M  V30 7514 H 683.459 1.95271 0.0946254 0
M  V30 7515 H 682.163 4.01002 0.873255 0
M  V30 7516 H 681.694 3.15446 2.35069 0
M  V30 7517 H 683.709 3.43413 3.58164 0
M  V30 7518 N 682.882 -0.391992 1.52647 0
M  V30 7519 C 684.298 -0.731848 1.41831 0
M  V30 7520 C 684.498 -1.9423 0.536361 0
M  V30 7521 O 683.554 -2.52499 0.00866571 0
M  V30 7522 C 684.867 -0.969743 2.84634 0
M  V30 7523 C 686.415 -1.0714 2.94092 0
M  V30 7524 C 686.89 -1.34195 4.37899 0
M  V30 7525 N 688.381 -1.41023 4.41211 0
M  V30 7526 C 689.116 -1.63616 5.49561 0
M  V30 7527 N 688.612 -1.83699 6.68002 0
M  V30 7528 N 690.405 -1.65771 5.371 0
M  V30 7529 H 682.556 0.404547 2.08512 0
M  V30 7530 H 684.819 0.11879 0.940528 0
M  V30 7531 H 684.525 -0.152465 3.51369 0
M  V30 7532 H 684.399 -1.88523 3.26709 0
M  V30 7533 H 686.786 -1.87925 2.27526 0
M  V30 7534 H 686.867 -0.133887 2.55449 0
M  V30 7535 H 686.511 -0.539207 5.0503 0
M  V30 7536 H 686.441 -2.29226 4.74092 0
M  V30 7537 H 688.932 -1.27223 3.55841 0
M  V30 7538 H 689.245 -2.00437 7.46354 0
M  V30 7539 H 687.59 -1.8093 6.71036 0
M  V30 7540 H 690.781 -1.4963 4.43541 0
M  V30 7541 H 690.954 -1.83038 6.21612 0
M  V30 7542 N 684.36 -1.4356 -0.65026 0
M  V30 7543 C 685.323 -1.48615 -1.74489 0
M  V30 7544 C 686.323 -0.370483 -1.56474 0
M  V30 7545 O 687.513 -0.632351 -1.62317 0
M  V30 7546 C 684.645 -1.34161 -3.13391 0
M  V30 7547 H 685.838 -2.46103 -1.71387 0
M  V30 7548 H 683.391 -1.30369 -0.862186 0
M  V30 7549 H 684.126 -0.376918 -3.22102 0
M  V30 7550 H 683.911 -2.1504 -3.27872 0
M  V30 7551 H 685.401 -1.40637 -3.93206 0
M  V30 7552 N 685.838 0.888903 -1.30139 0
M  V30 7553 C 687.078 1.65456 -1.20015 0
M  V30 7554 C 687.442 1.90467 0.242148 0
M  V30 7555 O 688.643 2.6472 0.466561 0
M  V30 7556 C 686.914 2.96071 -2.00191 0
M  V30 7557 S 688.473 3.87055 -2.06721 0
M  V30 7558 H 685.291 0.567927 -0.427761 0
M  V30 7559 H 687.893 1.05539 -1.64565 0
M  V30 7560 H 686.597 2.7559 -3.04103 0
M  V30 7561 H 686.128 3.61023 -1.56288 0
M  V30 7562 H 688.143 4.81676 -1.19174 0
M  V30 7563 N 687.317 1.12792 1.10072 0
M  V30 7564 C 688.563 0.886857 1.82381 0
M  V30 7565 C 688.896 -0.58576 1.85155 0
M  V30 7566 O 688.171 -1.43317 1.31493 0
M  V30 7567 C 688.454 1.46703 3.28862 0
M  V30 7568 C 688.307 3.00829 3.34398 0
M  V30 7569 C 689.626 1.12971 4.25353 0
M  V30 7570 H 686.745 0.32362 0.662148 0
M  V30 7571 H 689.387 1.39513 1.28982 0
M  V30 7572 H 687.537 1.03476 3.74466 0
M  V30 7573 H 689.209 3.52764 2.97247 0
M  V30 7574 H 687.452 3.36164 2.74183 0
M  V30 7575 H 688.123 3.36519 4.3756 0
M  V30 7576 H 690.599 1.50313 3.88001 0
M  V30 7577 H 689.475 1.56223 5.26199 0
M  V30 7578 H 689.736 0.0424452 4.4208 0
M  V30 7579 N 688.795 -1.27931 0.920396 0
M  V30 7580 C 689.725 -2.29487 0.431024 0
M  V30 7581 C 690.706 -1.62435 -0.504861 0
M  V30 7582 O 691.891 -1.89797 -0.411176 0
M  V30 7583 C 689.021 -3.45788 -0.323709 0
M  V30 7584 C 687.975 -4.24784 0.523658 0
M  V30 7585 C 687.301 -5.33488 -0.359809 0
M  V30 7586 C 688.601 -4.90874 1.78437 0
M  V30 7587 H 690.295 -2.70671 1.27975 0
M  V30 7588 H 687.841 -1.30121 0.616813 0
M  V30 7589 H 689.794 -4.15927 -0.676952 0
M  V30 7590 H 688.518 -3.03502 -1.2064 0
M  V30 7591 H 687.177 -3.56382 0.85951 0
M  V30 7592 H 686.825 -4.87445 -1.24124 0
M  V30 7593 H 686.525 -5.87247 0.203605 0
M  V30 7594 H 688.049 -6.06472 -0.708787 0
M  V30 7595 H 689.463 -5.53339 1.49963 0
M  V30 7596 H 687.86 -5.54659 2.29071 0
M  V30 7597 H 688.93 -4.14988 2.50824 0
M  V30 7598 N 690.273 -0.685099 -1.4193 0
M  V30 7599 C 691.521 -0.21124 -2.00993 0
M  V30 7600 C 691.842 1.18985 -1.54491 0
M  V30 7601 O 691.112 1.8009 -0.771 0
M  V30 7602 H 689.692 -0.0751059 -0.743215 0
M  V30 7603 H 692.354 -0.883915 -1.73704 0
M  V30 7604 H 691.45 -0.220513 -3.1132 0
M  V30 7605 N 691.751 1.51645 -0.429126 0
M  V30 7606 C 692.698 2.27542 0.386446 0
M  V30 7607 C 693.668 1.30786 1.02393 0
M  V30 7608 O 694.853 1.59678 1.0444 0
M  V30 7609 C 691.993 3.11457 1.48623 0
M  V30 7610 C 691.106 4.23196 0.867691 0
M  V30 7611 C 690.241 4.94435 1.94183 0
M  V30 7612 C 689.28 5.98108 1.30129 0
M  V30 7613 N 688.417 6.62786 2.31644 0
M  V30 7614 H 693.257 2.968 -0.267155 0
M  V30 7615 H 690.794 1.46397 -0.143591 0
M  V30 7616 H 692.752 3.58429 2.13506 0
M  V30 7617 H 691.382 2.44329 2.10957 0
M  V30 7618 H 690.434 3.80248 0.107373 0
M  V30 7619 H 691.746 4.97499 0.35997 0
M  V30 7620 H 690.9 5.44914 2.66747 0
M  V30 7621 H 689.639 4.19744 2.48326 0
M  V30 7622 H 688.644 5.4693 0.561082 0
M  V30 7623 H 689.869 6.74751 0.767303 0
M  V30 7624 H 687.815 5.90913 2.84883 0
M  V30 7625 H 687.732 7.32828 1.85741 0
M  V30 7626 H 689 7.17897 3.03717 0
M  V30 7627 N 693.229 0.160201 1.56784 0
M  V30 7628 C 694.506 -0.533355 1.88188 0
M  V30 7629 C 694.886 -1.82072 1.06831 0
M  V30 7630 O 694.234 -2.27946 0.158959 0
M  V30 7631 C 694.444 -0.786034 3.40033 0
M  V30 7632 C 695.792 -1.12097 4.09536 0
M  V30 7633 O 696.816 -0.874949 3.45287 0
M  V30 7634 O 695.675 -1.58457 5.23023 0
M  V30 7635 H 692.769 -0.273589 0.780434 0
M  V30 7636 H 695.315 0.197803 1.68543 0
M  V30 7637 H 694.087 0.124515 3.91102 0
M  V30 7638 H 693.71 -1.57091 3.65251 0
M  V30 7639 N 694.707 -1.5719 -0.113559 0
M  V30 7640 C 695.954 -1.85138 -0.820382 0
M  V30 7641 C 696.282 -0.74608 -1.79622 0
M  V30 7642 O 695.537 0.262077 -1.93937 0
M  V30 7643 C 695.836 -3.19593 -1.59984 0
M  V30 7644 C 695.502 -4.44315 -0.767809 0
M  V30 7645 C 694.164 -4.78179 -0.538379 0
M  V30 7646 C 696.516 -5.2086 -0.188203 0
M  V30 7647 C 693.844 -5.86028 0.28082 0
M  V30 7648 C 696.196 -6.29572 0.618217 0
M  V30 7649 C 694.86 -6.61964 0.857912 0
M  V30 7650 H 694.13 -0.677467 -0.300199 0
M  V30 7651 H 696.777 -1.91322 -0.0825443 0
M  V30 7652 H 695.082 -3.0901 -2.40874 0
M  V30 7653 H 696.779 -3.3844 -2.1508 0
M  V30 7654 H 693.369 -4.17786 -0.956724 0
M  V30 7655 H 697.553 -4.95045 -0.352658 0
M  V30 7656 H 692.809 -6.09547 0.475693 0
M  V30 7657 H 696.983 -6.88064 1.0743 0
M  V30 7658 H 694.61 -7.45365 1.49451 0
M  V30 7659 N 696.185 0.383891 -1.52853 0
M  V30 7660 C 697.601 0.724316 -1.42218 0
M  V30 7661 C 697.801 1.93943 -0.546654 0
M  V30 7662 O 696.857 2.5249 -0.0220562 0
M  V30 7663 C 698.17 0.954635 -2.85144 0
M  V30 7664 C 699.718 1.05579 -2.94656 0
M  V30 7665 C 700.193 1.3187 -4.38605 0
M  V30 7666 N 701.684 1.38681 -4.41952 0
M  V30 7667 C 702.419 1.60699 -5.50421 0
M  V30 7668 N 701.915 1.80154 -6.68967 0
M  V30 7669 N 703.708 1.6292 -5.37972 0
M  V30 7670 H 695.859 -0.4156 -2.08294 0
M  V30 7671 H 698.122 -0.123776 -0.939885 0
M  V30 7672 H 697.828 0.133829 -3.51445 0
M  V30 7673 H 697.702 1.86788 -3.27704 0
M  V30 7674 H 700.089 1.86716 -2.2852 0
M  V30 7675 H 700.17 0.120338 -2.55517 0
M  V30 7676 H 699.814 0.512416 -5.05309 0
M  V30 7677 H 699.744 2.26708 -4.75301 0
M  V30 7678 H 702.235 1.25334 -3.56511 0
M  V30 7679 H 702.548 1.96476 -7.47407 0
M  V30 7680 H 700.893 1.77368 -6.71986 0
M  V30 7681 H 704.084 1.47276 -4.44328 0
M  V30 7682 H 704.257 1.79739 -6.22574 0
M  V30 7683 N 697.663 1.43903 0.642637 0
M  V30 7684 C 698.91 1.46079 1.40239 0
M  V30 7685 C 699.238 0.0890335 1.94296 0
M  V30 7686 O 698.493 -0.907533 1.73385 0
M  V30 7687 C 698.792 2.45907 2.59354 0
M  V30 7688 C 698.458 3.91522 2.23654 0
M  V30 7689 C 697.12 4.31179 2.1363 0
M  V30 7690 C 699.472 4.83242 1.95261 0
M  V30 7691 C 696.8 5.60495 1.73384 0
M  V30 7692 C 699.152 6.12933 1.56511 0
M  V30 7693 C 697.816 6.51556 1.4502 0
M  V30 7694 H 697.086 0.534542 0.513172 0
M  V30 7695 H 699.733 1.77047 0.72984 0
M  V30 7696 H 698.038 2.08381 3.3179 0
M  V30 7697 H 699.735 2.44842 3.17574 0
M  V30 7698 H 696.325 3.60142 2.32369 0
M  V30 7699 H 700.509 4.53367 2.0192 0
M  V30 7700 H 695.765 5.89249 1.63082 0
M  V30 7701 H 699.939 6.83469 1.33576 0
M  V30 7702 H 697.566 7.51663 1.13606 0
M  V30 7703 N 699.141 -0.881989 1.30609 0
M  V30 7704 C 700.071 -2.00413 1.1982 0
M  V30 7705 C 701.052 -1.69871 0.0881538 0
M  V30 7706 O 702.237 -1.92304 0.2707 0
M  V30 7707 C 699.367 -3.35641 0.89233 0
M  V30 7708 C 698.321 -3.80451 1.96064 0
M  V30 7709 C 697.647 -5.13003 1.5077 0
M  V30 7710 C 698.947 -3.98855 3.37213 0
M  V30 7711 H 700.641 -2.09698 2.13699 0
M  V30 7712 H 698.187 -1.00754 1.02882 0
M  V30 7713 H 700.14 -4.13669 0.803497 0
M  V30 7714 H 698.864 -3.26497 -0.0821381 0
M  V30 7715 H 697.523 -3.04654 2.03916 0
M  V30 7716 H 697.171 -5.0029 0.521417 0
M  V30 7717 H 696.871 -5.43956 2.22229 0
M  V30 7718 H 698.395 -5.93554 1.43271 0
M  V30 7719 H 699.809 -4.67312 3.32103 0
M  V30 7720 H 698.206 -4.41188 4.06784 0
M  V30 7721 H 699.276 -3.02614 3.78883 0
M  V30 7722 N 700.619 -1.13374 -1.09472 0
M  V30 7723 C 701.867 -0.893422 -1.8128 0
M  V30 7724 C 702.188 0.582029 -1.86111 0
M  V30 7725 O 701.458 1.42305 -1.34633 0
M  V30 7726 H 700.038 -0.327543 -0.67136 0
M  V30 7727 H 702.7 -1.43018 -1.32408 0
M  V30 7728 H 701.796 -1.28374 -2.84476 0
M  V30 7729 N 702.098 1.27442 -0.927168 0
M  V30 7730 C 703.045 2.26863 -0.424459 0
M  V30 7731 C 704.015 1.5813 0.508346 0
M  V30 7732 O 705.2 1.85946 0.42762 0
M  V30 7733 C 702.34 3.43639 0.31718 0
M  V30 7734 C 701.453 4.27087 -0.649675 0
M  V30 7735 C 700.588 5.31082 0.111753 0
M  V30 7736 C 699.627 6.062 -0.847843 0
M  V30 7737 N 698.764 7.01999 -0.119074 0
M  V30 7738 H 703.604 2.69239 -1.27728 0
M  V30 7739 H 701.141 1.32394 -0.641106 0
M  V30 7740 H 703.099 4.10155 0.763486 0
M  V30 7741 H 701.729 3.02217 1.13424 0
M  V30 7742 H 700.781 3.60491 -1.21451 0
M  V30 7743 H 702.093 4.79242 -1.38307 0
M  V30 7744 H 701.247 6.03544 0.618 0
M  V30 7745 H 699.986 4.7973 0.878114 0
M  V30 7746 H 698.991 5.32577 -1.36534 0
M  V30 7747 H 700.216 6.59642 -1.61398 0
M  V30 7748 H 698.162 6.52977 0.629051 0
M  V30 7749 H 698.079 7.5184 -0.792046 0
M  V30 7750 H 699.347 7.78638 0.366537 0
M  V30 7751 N 703.576 0.692616 1.41565 0
M  V30 7752 C 704.816 0.226453 2.03142 0
M  V30 7753 C 705.18 -1.1512 1.5366 0
M  V30 7754 O 706.381 -1.71305 2.07143 0
M  V30 7755 C 704.652 0.27855 3.56313 0
M  V30 7756 S 706.211 -0.114001 4.38652 0
M  V30 7757 H 703.029 0.0914767 0.705091 0
M  V30 7758 H 705.631 0.909737 1.73043 0
M  V30 7759 H 704.335 1.28325 3.89821 0
M  V30 7760 H 703.866 -0.423981 3.91109 0
M  V30 7761 H 705.881 -1.34256 4.77692 0
M  V30 7762 N 705.054 -1.51416 0.437162 0
M  V30 7763 C 706.465 -1.86682 -0.0260005 0
M  V30 7764 C 706.816 -1.35432 -1.4196 0
M  V30 7765 O 705.941 -0.705055 -2.04592 0
M  V30 7766 C 706.536 -3.38757 -0.0539577 0
M  V30 7767 C 705.095 -3.7356 -0.461532 0
M  V30 7768 C 704.242 -2.75134 0.345924 0
M  V30 7769 H 707.193 -1.44642 0.653013 0
M  V30 7770 H 707.214 -3.70573 -0.863478 0
M  V30 7771 H 706.726 -3.76028 0.96045 0
M  V30 7772 H 704.827 -3.41878 -1.48155 0
M  V30 7773 H 704.94 -4.78737 -0.186451 0
M  V30 7774 H 703.304 -2.53947 -0.195739 0
M  V30 7775 H 704.087 -3.15247 1.35921 0
M  V30 7776 N 706.532 -0.168513 -1.56696 0
M  V30 7777 C 707.479 0.762875 -2.17828 0
M  V30 7778 C 708.449 1.22892 -1.11745 0
M  V30 7779 O 709.634 1.29759 -1.39883 0
M  V30 7780 C 706.774 1.9879 -2.82093 0
M  V30 7781 C 705.887 1.56568 -4.02629 0
M  V30 7782 C 705.022 2.74416 -4.54829 0
M  V30 7783 C 704.061 2.28671 -5.67782 0
M  V30 7784 N 703.198 3.39602 -6.14504 0
M  V30 7785 H 708.038 0.23479 -2.97074 0
M  V30 7786 H 705.575 0.104163 -1.46731 0
M  V30 7787 H 707.533 2.70636 -3.17509 0
M  V30 7788 H 706.163 2.48973 -2.05456 0
M  V30 7789 H 705.215 0.744067 -3.73052 0
M  V30 7790 H 706.527 1.18988 -4.844 0
M  V30 7791 H 705.681 3.54423 -4.92412 0
M  V30 7792 H 704.42 3.15254 -3.7211 0
M  V30 7793 H 703.425 1.4711 -5.29753 0
M  V30 7794 H 704.65 1.88894 -6.52301 0
M  V30 7795 H 702.596 3.80021 -5.34715 0
M  V30 7796 H 702.513 3.06105 -6.91257 0
M  V30 7797 H 703.781 4.19902 -6.56737 0
M  V30 7798 N 708.01 1.57248 0.105221 0
M  V30 7799 C 708.957 2.01338 1.12835 0
M  V30 7800 C 709.927 0.887897 1.40377 0
M  V30 7801 O 711.112 1.15315 1.5201 0
M  V30 7802 C 708.252 2.43432 2.44611 0
M  V30 7803 C 707.365 3.69457 2.23888 0
M  V30 7804 C 706.5 4.00473 3.48991 0
M  V30 7805 C 705.539 5.19638 3.23485 0
M  V30 7806 N 704.676 5.46457 4.40828 0
M  V30 7807 H 709.516 2.88527 0.745386 0
M  V30 7808 H 707.053 1.42714 0.356535 0
M  V30 7809 H 709.011 2.65879 3.21503 0
M  V30 7810 H 707.641 1.59266 2.80774 0
M  V30 7811 H 706.693 3.54545 1.37847 0
M  V30 7812 H 708.005 4.56497 2.01026 0
M  V30 7813 H 707.159 4.23642 4.34295 0
M  V30 7814 H 705.898 3.11935 3.74897 0
M  V30 7815 H 704.903 4.96299 2.36574 0
M  V30 7816 H 706.128 6.09766 2.98935 0
M  V30 7817 H 704.074 4.60876 4.66829 0
M  V30 7818 H 703.991 6.27849 4.2112 0
M  V30 7819 H 705.259 5.74155 5.27225 0
M  V30 7820 N 709.488 -0.375779 1.53054 0
M  V30 7821 C 710.418 -1.46598 1.81745 0
M  V30 7822 C 711.399 -1.56337 0.670286 0
M  V30 7823 O 712.584 -1.71071 0.919158 0
M  V30 7824 C 709.714 -2.84058 1.99821 0
M  V30 7825 C 708.668 -2.8915 3.15557 0
M  V30 7826 C 707.994 -4.29187 3.18908 0
M  V30 7827 C 709.294 -2.57595 4.54359 0
M  V30 7828 H 710.988 -1.22837 2.73041 0
M  V30 7829 H 708.534 -0.589485 1.31381 0
M  V30 7830 H 710.487 -3.60342 2.18475 0
M  V30 7831 H 709.211 -3.09184 1.05226 0
M  V30 7832 H 707.87 -2.15316 2.96706 0
M  V30 7833 H 707.518 -4.51374 2.2197 0
M  V30 7834 H 707.218 -4.33512 3.96662 0
M  V30 7835 H 708.742 -5.07359 3.39734 0
M  V30 7836 H 710.156 -3.23595 4.73243 0
M  V30 7837 H 708.553 -2.73252 5.34279 0
M  V30 7838 H 709.623 -1.52882 4.60169 0
M  V30 7839 N 710.966 -1.44241 -0.634997 0
M  V30 7840 C 712.191 -1.50516 -1.42687 0
M  V30 7841 C 712.616 -0.129864 -1.87651 0
M  V30 7842 O 711.974 0.880164 -1.58502 0
M  V30 7843 C 712.022 -2.4714 -2.62591 0
M  V30 7844 O 711.126 -1.97025 -3.62291 0
M  V30 7845 H 710.467 -0.50841 -0.427101 0
M  V30 7846 H 712.997 -1.89337 -0.775408 0
M  V30 7847 H 713.007 -2.65048 -3.10183 0
M  V30 7848 H 711.682 -3.47039 -2.29209 0
M  V30 7849 H 710.259 -1.88866 -3.21534 0
M  V30 7850 N 712.444 0.87505 -1.31075 0
M  V30 7851 C 713.354 2.01441 -1.20244 0
M  V30 7852 C 714.37 1.73584 -0.120227 0
M  V30 7853 O 715.546 1.98559 -0.337063 0
M  V30 7854 C 712.611 3.34675 -0.905199 0
M  V30 7855 C 711.672 3.75889 -2.0738 0
M  V30 7856 C 710.905 5.02764 -1.79064 0
M  V30 7857 O 711.128 5.65795 -0.723318 0
M  V30 7858 O 710.062 5.40623 -2.64594 0
M  V30 7859 H 713.888 2.13509 -2.1598 0
M  V30 7860 H 711.473 1.00257 -1.10765 0
M  V30 7861 H 713.355 4.1458 -0.755057 0
M  V30 7862 H 712.03 3.23692 0.0221695 0
M  V30 7863 H 710.937 2.96645 -2.27931 0
M  V30 7864 H 712.27 3.91489 -2.98324 0
M  V30 7865 N 713.922 1.13953 1.08869 0
M  V30 7866 C 715.17 0.903023 1.80803 0
M  V30 7867 C 715.491 -0.572151 1.86417 0
M  V30 7868 O 714.761 -1.41589 1.35386 0
M  V30 7869 H 713.341 0.331099 0.669614 0
M  V30 7870 H 716.003 1.43719 1.31647 0
M  V30 7871 H 715.099 1.29881 2.83791 0
M  V30 7872 N 715.4 -1.26948 0.933913 0
M  V30 7873 C 716.677 -1.89212 0.495784 0
M  V30 7874 C 717.057 -1.84469 -1.02637 0
M  V30 7875 O 716.405 -1.29409 -1.88323 0
M  V30 7876 C 716.615 -3.32865 1.0489 0
M  V30 7877 C 717.963 -4.09749 1.11315 0
M  V30 7878 O 718.987 -3.41905 0.998966 0
M  V30 7879 O 717.846 -5.31061 1.28983 0
M  V30 7880 H 714.94 -0.811284 0.160459 0
M  V30 7881 H 717.486 -1.35171 1.02601 0
M  V30 7882 H 716.258 -3.30642 2.09265 0
M  V30 7883 H 715.881 -3.94435 0.500692 0
M  V30 7884 N 716.879 -0.700114 -1.41195 0
M  V30 7885 C 718.127 -0.232546 -2.00758 0
M  V30 7886 C 718.448 1.1734 -1.55745 0
M  V30 7887 O 717.718 1.79262 -0.790058 0
M  V30 7888 H 716.298 -0.0829845 -0.742376 0
M  V30 7889 H 718.96 -0.902289 -1.72756 0
M  V30 7890 H 718.056 -0.253521 -3.11069 0
M  V30 7891 N 718.357 1.51182 -0.445186 0
M  V30 7892 C 719.32 2.26501 0.350722 0
M  V30 7893 C 720.32 1.3025 0.942952 0
M  V30 7894 O 721.51 1.53897 0.816175 0
M  V30 7895 C 718.642 3.06274 1.49697 0
M  V30 7896 H 719.835 2.98299 -0.309474 0
M  V30 7897 H 717.388 1.55034 -0.198551 0
M  V30 7898 H 718.123 2.38911 2.19299 0
M  V30 7899 H 717.908 3.76979 1.0784 0
M  V30 7900 H 719.398 3.63306 2.05909 0
M  V30 7901 N 719.835 0.176821 1.56605 0
M  V30 7902 C 720.745 -0.763682 2.21822 0
M  V30 7903 C 721.761 -1.24889 1.21156 0
M  V30 7904 O 722.937 -1.29987 1.53836 0
M  V30 7905 C 720.002 -1.97352 2.8505 0
M  V30 7906 C 719.063 -1.53466 4.00932 0
M  V30 7907 C 718.296 -2.68682 4.61135 0
M  V30 7908 O 718.519 -3.85694 4.20234 0
M  V30 7909 O 717.453 -2.42442 5.50913 0
M  V30 7910 H 721.279 -0.238363 3.02763 0
M  V30 7911 H 718.864 -0.0516331 1.49311 0
M  V30 7912 H 720.746 -2.68096 3.25119 0
M  V30 7913 H 719.421 -2.48779 2.07101 0
M  V30 7914 H 718.328 -0.796551 3.65521 0
M  V30 7915 H 719.661 -1.06724 4.8049 0
M  V30 7916 N 721.313 -1.57302 -0.09688 0
M  V30 7917 C 722.26 -2.01933 -1.11766 0
M  V30 7918 C 723.23 -0.895329 -1.39904 0
M  V30 7919 O 724.415 -1.16119 -1.51397 0
M  V30 7920 C 721.555 -2.44726 -2.43317 0
M  V30 7921 C 720.668 -3.70639 -2.21925 0
M  V30 7922 C 719.803 -4.02318 -3.46862 0
M  V30 7923 C 718.842 -5.21346 -3.20725 0
M  V30 7924 N 717.979 -5.48787 -4.37924 0
M  V30 7925 H 722.819 -2.88919 -0.730075 0
M  V30 7926 H 720.356 -1.42901 -0.348962 0
M  V30 7927 H 722.314 -2.6758 -3.20088 0
M  V30 7928 H 720.944 -1.60753 -2.79926 0
M  V30 7929 H 719.996 -3.55271 -1.35965 0
M  V30 7930 H 721.308 -4.57557 -1.98603 0
M  V30 7931 H 720.462 -4.25939 -4.32042 0
M  V30 7932 H 719.201 -3.13918 -3.73238 0
M  V30 7933 H 718.206 -4.97547 -2.33938 0
M  V30 7934 H 719.431 -6.11343 -2.95697 0
M  V30 7935 H 717.377 -4.63346 -4.64378 0
M  V30 7936 H 717.294 -6.30073 -4.17785 0
M  V30 7937 H 718.562 -5.76943 -5.24173 0
M  V30 7938 N 722.791 0.367657 -1.53252 0
M  V30 7939 C 723.721 1.45632 -1.8252 0
M  V30 7940 C 724.702 1.55979 -0.678568 0
M  V30 7941 O 725.887 1.70581 -0.928217 0
M  V30 7942 C 723.017 2.82994 -2.01325 0
M  V30 7943 C 721.971 2.87473 -3.17086 0
M  V30 7944 C 721.297 4.2749 -3.21179 0
M  V30 7945 C 722.597 2.55182 -4.55719 0
M  V30 7946 H 724.291 1.21387 -2.73689 0
M  V30 7947 H 721.837 0.58251 -1.31692 0
M  V30 7948 H 723.79 3.59179 -2.20383 0
M  V30 7949 H 722.514 3.08622 -1.06864 0
M  V30 7950 H 721.173 2.13739 -2.97844 0
M  V30 7951 H 720.821 4.5019 -2.24361 0
M  V30 7952 H 720.521 4.31403 -3.98955 0
M  V30 7953 H 722.045 5.0555 -3.42419 0
M  V30 7954 H 723.459 3.21081 -4.74953 0
M  V30 7955 H 721.856 2.70414 -5.3572 0
M  V30 7956 H 722.926 1.5044 -4.60973 0
M  V30 7957 N 724.269 1.44576 0.627338 0
M  V30 7958 C 725.685 1.28546 0.945938 0
M  V30 7959 C 725.885 0.224003 2.00251 0
M  V30 7960 O 724.941 -0.388817 2.49488 0
M  V30 7961 C 726.254 2.65825 1.40561 0
M  V30 7962 C 727.802 2.73566 1.52088 0
M  V30 7963 C 728.277 4.11323 2.01438 0
M  V30 7964 N 729.768 4.13519 2.08702 0
M  V30 7965 C 730.503 5.16964 2.48065 0
M  V30 7966 N 729.999 6.30768 2.86538 0
M  V30 7967 N 731.792 5.04319 2.48232 0
M  V30 7968 H 723.943 2.1228 -0.0713567 0
M  V30 7969 H 726.206 0.947503 0.0307081 0
M  V30 7970 H 725.912 3.44591 0.703539 0
M  V30 7971 H 725.786 2.92969 2.37591 0
M  V30 7972 H 728.173 1.95116 2.21391 0
M  V30 7973 H 728.254 2.50159 0.534237 0
M  V30 7974 H 727.898 4.9025 1.32729 0
M  V30 7975 H 727.828 4.32109 3.0098 0
M  V30 7976 H 730.319 3.31385 1.81638 0
M  V30 7977 H 730.632 7.0551 3.15398 0
M  V30 7978 H 728.977 6.342 2.84281 0
M  V30 7979 H 732.168 4.14465 2.17569 0
M  V30 7980 H 732.341 5.85059 2.78585 0
M  V30 7981 N 725.747 -0.868086 1.31537 0
M  V30 7982 C 726.694 -1.97548 1.19346 0
M  V30 7983 C 727.664 -1.65913 0.0787922 0
M  V30 7984 O 728.849 -1.89129 0.251985 0
M  V30 7985 C 725.989 -3.32922 0.908692 0
M  V30 7986 C 725.102 -3.77141 2.10687 0
M  V30 7987 C 724.237 -5.01241 1.75873 0
M  V30 7988 C 723.276 -5.37914 2.92088 0
M  V30 7989 N 722.413 -6.53192 2.57457 0
M  V30 7990 H 727.253 -2.07307 2.14074 0
M  V30 7991 H 724.79 -1.01483 1.06487 0
M  V30 7992 H 726.748 -4.10867 0.724138 0
M  V30 7993 H 725.378 -3.228 -0.0017611 0
M  V30 7994 H 724.43 -2.94961 2.40213 0
M  V30 7995 H 725.742 -4.00248 2.97663 0
M  V30 7996 H 724.896 -5.86858 1.53891 0
M  V30 7997 H 723.635 -4.80041 0.86091 0
M  V30 7998 H 722.64 -4.50814 3.14717 0
M  V30 7999 H 723.865 -5.61077 3.82582 0
M  V30 8000 H 721.811 -6.33536 1.702 0
M  V30 8001 H 721.728 -6.76252 3.37963 0
M  V30 8002 H 722.996 -7.41997 2.38873 0
M  V30 8003 N 727.225 -1.14528 -1.08264 0
M  V30 8004 C 728.155 -0.856356 -2.1723 0
M  V30 8005 C 729.136 0.189251 -1.69044 0
M  V30 8006 O 730.321 0.0456119 -1.94146 0
M  V30 8007 C 727.451 -0.334662 -3.45684 0
M  V30 8008 C 726.405 -1.31588 -4.0727 0
M  V30 8009 C 725.731 -0.653428 -5.30692 0
M  V30 8010 C 727.031 -2.67866 -4.48381 0
M  V30 8011 H 728.725 -1.76755 -2.41657 0
M  V30 8012 H 726.271 -0.851287 -1.16143 0
M  V30 8013 H 728.224 -0.120128 -4.21229 0
M  V30 8014 H 726.948 0.611967 -3.20815 0
M  V30 8015 H 725.607 -1.51661 -3.33758 0
M  V30 8016 H 725.255 0.299054 -5.0211 0
M  V30 8017 H 724.955 -1.30817 -5.72853 0
M  V30 8018 H 726.479 -0.448453 -6.08951 0
M  V30 8019 H 727.893 -2.51692 -5.15096 0
M  V30 8020 H 726.29 -3.29627 -5.01464 0
M  V30 8021 H 727.36 -3.24632 -3.60198 0
M  V30 8022 N 728.703 1.26451 -0.940633 0
M  V30 8023 C 729.635 2.25556 -0.407104 0
M  V30 8024 C 730.648 1.55888 0.469324 0
M  V30 8025 O 731.837 1.76292 0.279858 0
M  V30 8026 C 728.937 3.36109 0.434064 0
M  V30 8027 C 728.11 4.3532 -0.426082 0
M  V30 8028 C 727.169 5.25004 0.354563 0
M  V30 8029 O 726.195 5.68684 -0.242219 0
M  V30 8030 N 727.397 5.5652 1.65123 0
M  V30 8031 H 730.162 2.7197 -1.25907 0
M  V30 8032 H 727.723 1.40212 -0.809456 0
M  V30 8033 H 729.715 3.93059 0.963684 0
M  V30 8034 H 728.285 2.89194 1.18683 0
M  V30 8035 H 727.505 3.77449 -1.13692 0
M  V30 8036 H 728.793 4.986 -1.01366 0
M  V30 8037 H 728.191 5.22912 2.15822 0
M  V30 8038 H 726.748 6.16115 2.12711 0
M  V30 8039 N 730.181 0.707592 1.40822 0
M  V30 8040 C 731.592 0.317011 1.83989 0
M  V30 8041 C 731.943 -1.14697 1.59182 0
M  V30 8042 O 731.068 -1.8818 1.06852 0
M  V30 8043 C 731.663 0.568593 3.33995 0
M  V30 8044 C 730.222 0.231804 3.75686 0
M  V30 8045 C 729.369 0.844933 2.64114 0
M  V30 8046 H 732.32 0.907349 1.30203 0
M  V30 8047 H 732.341 -0.168798 3.80125 0
M  V30 8048 H 731.853 1.63417 3.52018 0
M  V30 8049 H 729.954 -0.82903 3.6326 0
M  V30 8050 H 730.067 0.695219 4.74029 0
M  V30 8051 H 728.431 0.273588 2.53226 0
M  V30 8052 H 729.214 1.91462 2.84951 0
M  V30 8053 N 731.66 -1.50943 0.453197 0
M  V30 8054 C 732.885 -2.07116 -0.108463 0
M  V30 8055 C 733.31 -1.31681 -1.3432 0
M  V30 8056 O 732.668 -0.359256 -1.77705 0
M  V30 8057 C 732.716 -3.58447 -0.393424 0
M  V30 8058 O 731.82 -3.85038 -1.47714 0
M  V30 8059 H 731.161 -0.66398 0.0050993 0
M  V30 8060 H 733.691 -1.94362 0.639095 0
M  V30 8061 H 733.701 -4.02961 -0.639222 0
M  V30 8062 H 732.376 -4.12774 0.508946 0
M  V30 8063 H 730.953 -3.52376 -1.22006 0
M  V30 8064 N 733.138 -0.185124 -1.56509 0
M  V30 8065 C 734.068 0.735098 -2.21627 0
M  V30 8066 C 735.049 1.2288 -1.1762 0
M  V30 8067 O 736.234 1.27945 -1.46095 0
M  V30 8068 C 733.364 1.95889 -2.86783 0
M  V30 8069 C 732.318 1.6005 -3.96948 0
M  V30 8070 C 731.644 2.90009 -4.4922 0
M  V30 8071 C 732.944 0.818008 -5.15855 0
M  V30 8072 H 734.638 0.192274 -2.98782 0
M  V30 8073 H 732.184 0.0910393 -1.43712 0
M  V30 8074 H 734.137 2.60779 -3.31017 0
M  V30 8075 H 732.861 2.52608 -2.07018 0
M  V30 8076 H 731.52 0.975237 -3.5339 0
M  V30 8077 H 731.168 3.44797 -3.6623 0
M  V30 8078 H 730.868 2.66778 -5.23549 0
M  V30 8079 H 732.392 3.55904 -4.9615 0
M  V30 8080 H 733.806 1.36979 -5.56695 0
M  V30 8081 H 732.203 0.684207 -5.96187 0
M  V30 8082 H 733.273 -0.182939 -4.84555 0
M  V30 8083 N 734.616 1.57351 0.0885366 0
M  V30 8084 C 735.564 2.03542 1.12576 0
M  V30 8085 C 736.558 0.937668 1.41082 0
M  V30 8086 O 737.764 1.12283 1.40686 0
M  V30 8087 H 734.139 0.648752 0.380296 0
M  V30 8088 H 736.11 2.89833 0.709906 0
M  V30 8089 C 734.859 2.4811 2.43591 0
M  V30 8090 H 734.182 3.32164 2.22502 0
M  V30 8091 H 735.622 2.842 3.14653 0
M  V30 8092 C 734.081 1.35708 3.08359 0
M  V30 8093 O 734.611 0.689852 3.95732 0
M  V30 8094 N 732.817 1.10641 2.68713 0
M  V30 8095 H 732.364 1.6508 1.97753 0
M  V30 8096 H 732.322 0.356355 3.12374 0
M  V30 8097 N 736.094 -0.359525 1.53444 0
M  V30 8098 C 737.319 -1.12644 1.74144 0
M  V30 8099 C 737.744 -1.82082 0.472007 0
M  V30 8100 O 737.102 -1.71962 -0.57436 0
M  V30 8101 C 737.15 -2.12781 2.9113 0
M  V30 8102 O 736.254 -3.19984 2.60162 0
M  V30 8103 H 735.595 -0.326553 0.578152 0
M  V30 8104 H 738.125 -0.414798 2.00351 0
M  V30 8105 H 738.135 -2.56278 3.17467 0
M  V30 8106 H 736.81 -1.61634 3.83207 0
M  V30 8107 H 735.387 -2.81417 2.44661 0
M  V30 8108 N 737.572 -1.44907 -0.619662 0
M  V30 8109 C 738.82 -1.47999 -1.37625 0
M  V30 8110 C 739.141 -0.118295 -1.94641 0
M  V30 8111 O 738.411 0.85086 -1.76457 0
M  V30 8112 H 736.991 -0.544993 -0.510873 0
M  V30 8113 H 739.653 -1.80772 -0.728522 0
M  V30 8114 H 738.749 -2.21196 -2.20179 0
M  V30 8115 N 739.05 0.861098 -1.31996 0
M  V30 8116 C 740.466 1.14827 -1.10846 0
M  V30 8117 C 740.666 2.0117 0.11528 0
M  V30 8118 O 739.722 2.39423 0.802048 0
M  V30 8119 C 741.035 1.83183 -2.38462 0
M  V30 8120 C 742.583 1.95847 -2.44158 0
M  V30 8121 C 743.058 2.67617 -3.71679 0
M  V30 8122 N 744.549 2.75147 -3.72624 0
M  V30 8123 C 745.284 3.31314 -4.67994 0
M  V30 8124 N 744.78 3.88343 -5.73726 0
M  V30 8125 N 746.573 3.29356 -4.55501 0
M  V30 8126 H 738.724 0.285951 -2.10466 0
M  V30 8127 H 740.987 0.189303 -0.928907 0
M  V30 8128 H 740.693 1.27193 -3.27895 0
M  V30 8129 H 740.567 2.83393 -2.48935 0
M  V30 8130 H 742.954 2.50999 -1.55189 0
M  V30 8131 H 743.035 0.94653 -2.37644 0
M  V30 8132 H 742.679 2.13131 -4.61018 0
M  V30 8133 H 742.609 3.69237 -3.75462 0
M  V30 8134 H 745.1 2.34682 -2.96197 0
M  V30 8135 H 745.413 4.29338 -6.42564 0
M  V30 8136 H 743.758 3.86693 -5.77489 0
M  V30 8137 H 746.949 2.84047 -3.72069 0
M  V30 8138 H 747.122 3.7283 -5.30001 0
M  V30 8139 N 740.528 1.15101 1.07655 0
M  V30 8140 C 741.458 0.867864 2.16773 0
M  V30 8141 C 742.439 -0.180283 1.69142 0
M  V30 8142 O 743.624 -0.0353152 1.94168 0
M  V30 8143 C 740.754 0.35299 3.45501 0
M  V30 8144 C 739.708 1.33746 4.06566 0
M  V30 8145 C 739.034 0.681562 5.30338 0
M  V30 8146 C 740.334 2.7024 4.46954 0
M  V30 8147 H 742.028 1.78034 2.40716 0
M  V30 8148 H 739.574 0.857435 1.15689 0
M  V30 8149 H 741.527 0.142465 4.21159 0
M  V30 8150 H 740.251 -0.594945 3.21135 0
M  V30 8151 H 738.91 1.53429 3.32949 0
M  V30 8152 H 738.558 -0.272422 5.02262 0
M  V30 8153 H 738.258 1.33853 5.72151 0
M  V30 8154 H 739.782 0.48074 6.08705 0
M  V30 8155 H 741.196 2.5442 5.13754 0
M  V30 8156 H 739.593 3.32282 4.99709 0
M  V30 8157 H 740.663 3.26537 3.58471 0
M  V30 8158 N 742.006 -1.2595 0.947325 0
M  V30 8159 C 742.936 -2.28521 0.479604 0
M  V30 8160 C 743.917 -1.63469 -0.470293 0
M  V30 8161 O 745.102 -1.90627 -0.370824 0
M  V30 8162 C 742.232 -3.46397 -0.250289 0
M  V30 8163 C 741.186 -4.23578 0.613643 0
M  V30 8164 C 740.512 -5.34131 -0.246568 0
M  V30 8165 C 741.812 -4.86979 1.88809 0
M  V30 8166 H 743.506 -2.67895 1.33688 0
M  V30 8167 H 741.052 -1.28783 0.644274 0
M  V30 8168 H 743.005 -4.17269 -0.588576 0
M  V30 8169 H 741.729 -3.05993 -1.14175 0
M  V30 8170 H 740.388 -3.54478 0.93491 0
M  V30 8171 H 740.036 -4.89968 -1.13756 0
M  V30 8172 H 739.736 -5.86683 0.328123 0
M  V30 8173 H 741.26 -6.07839 -0.579986 0
M  V30 8174 H 742.674 -5.50034 1.61666 0
M  V30 8175 H 741.071 -5.49675 2.40784 0
M  V30 8176 H 742.141 -4.09575 2.5957 0
M  V30 8177 N 743.484 -0.715051 -1.40445 0
M  V30 8178 C 744.434 -0.038591 -2.27967 0
M  V30 8179 C 745.418 0.733099 -1.43229 0
M  V30 8180 O 746.61 0.605388 -1.66325 0
M  V30 8181 C 743.739 0.882801 -3.31755 0
M  V30 8182 C 742.825 0.106325 -4.23967 0
M  V30 8183 N 743.216 -0.910143 -4.97544 0
M  V30 8184 C 741.514 0.33896 -4.4471 0
M  V30 8185 C 742.215 -1.37665 -5.65175 0
M  V30 8186 N 741.191 -0.698905 -5.39088 0
M  V30 8187 H 744.993 -0.81765 -2.82297 0
M  V30 8188 H 742.507 -0.547591 -1.5289 0
M  V30 8189 H 744.504 1.38273 -3.93302 0
M  V30 8190 H 743.164 1.66124 -2.78985 0
M  V30 8191 H 744.175 -1.29097 -5.01552 0
M  V30 8192 H 740.852 1.09377 -4.02918 0
M  V30 8193 H 742.242 -2.22122 -6.34123 0
M  V30 8194 N 744.962 1.50701 -0.461195 0
M  V30 8195 C 745.892 2.31182 0.328184 0
M  V30 8196 C 746.873 1.37644 0.999408 0
M  V30 8197 O 748.058 1.66565 0.99848 0
M  V30 8198 C 745.188 3.17113 1.41621 0
M  V30 8199 C 744.142 4.19124 0.867148 0
M  V30 8200 C 743.468 4.93728 2.05272 0
M  V30 8201 C 744.768 5.22174 -0.114808 0
M  V30 8202 H 746.462 2.97423 -0.343501 0
M  V30 8203 H 744.008 1.43033 -0.166641 0
M  V30 8204 H 745.961 3.72208 1.97584 0
M  V30 8205 H 744.685 2.48739 2.11652 0
M  V30 8206 H 743.344 3.65116 0.329557 0
M  V30 8207 H 742.992 4.21835 2.73978 0
M  V30 8208 H 742.692 5.62724 1.69161 0
M  V30 8209 H 744.216 5.51654 2.61744 0
M  V30 8210 H 745.63 5.72198 0.355316 0
M  V30 8211 H 744.027 5.98833 -0.389689 0
M  V30 8212 H 745.097 4.7353 -1.04391 0
M  V30 8213 N 746.441 0.193421 1.56409 0
M  V30 8214 C 747.404 -0.714371 2.17783 0
M  V30 8215 C 748.404 -1.1422 1.13183 0
M  V30 8216 O 749.594 -1.05557 1.38576 0
M  V30 8217 C 746.726 -1.97509 2.77855 0
M  V30 8218 H 747.919 -0.179714 2.99361 0
M  V30 8219 H 745.472 -0.0561944 1.56199 0
M  V30 8220 H 746.207 -2.5523 2.0007 0
M  V30 8221 H 745.992 -1.67706 3.54425 0
M  V30 8222 H 747.482 -2.62246 3.24987 0
M  V30 8223 N 747.919 -1.57396 -0.0801906 0
M  V30 8224 C 748.852 -1.98386 -1.12774 0
M  V30 8225 C 749.83 -0.859423 -1.38031 0
M  V30 8226 O 751.014 -1.12101 -1.51544 0
M  V30 8227 C 748.141 -2.3134 -2.47386 0
M  V30 8228 C 747.187 -3.53706 -2.38316 0
M  V30 8229 S 748.02 -5.04862 -1.78534 0
M  V30 8230 C 749.176 -5.41008 -3.1474 0
M  V30 8231 H 749.409 -2.86929 -0.778382 0
M  V30 8232 H 746.942 -1.51682 -0.28842 0
M  V30 8233 H 748.9 -2.51 -3.24822 0
M  V30 8234 H 747.561 -1.4334 -2.79486 0
M  V30 8235 H 746.754 -3.74253 -3.37566 0
M  V30 8236 H 746.356 -3.33632 -1.69014 0
M  V30 8237 H 748.648 -5.38565 -4.1104 0
M  V30 8238 H 749.591 -6.41885 -2.98981 0
M  V30 8239 H 749.999 -4.68467 -3.14958 0
M  V30 8240 N 749.397 0.351382 -1.53633 0
M  V30 8241 C 750.813 0.693987 -1.43722 0
M  V30 8242 C 751.013 1.9274 -0.587669 0
M  V30 8243 O 750.069 2.52387 -0.0756082 0
M  V30 8244 C 751.382 0.893937 -2.87105 0
M  V30 8245 C 752.93 0.993051 -2.96829 0
M  V30 8246 C 753.405 1.22537 -4.41303 0
M  V30 8247 N 754.896 1.29275 -4.44795 0
M  V30 8248 C 755.631 1.48988 -5.53706 0
M  V30 8249 N 755.127 1.65924 -6.72637 0
M  V30 8250 N 756.92 1.51472 -5.41306 0
M  V30 8251 H 749.071 -0.459688 -2.07366 0
M  V30 8252 H 751.334 -0.143684 -0.937048 0
M  V30 8253 H 751.04 0.0592517 -3.5165 0
M  V30 8254 H 750.914 1.79795 -3.31592 0
M  V30 8255 H 753.301 1.81827 -2.32429 0
M  V30 8256 H 753.382 0.0661119 -2.55715 0
M  V30 8257 H 753.026 0.405117 -5.06282 0
M  V30 8258 H 752.956 2.16575 -4.80003 0
M  V30 8259 H 755.447 1.17743 -3.59089 0
M  V30 8260 H 755.76 1.80578 -7.51406 0
M  V30 8261 H 754.105 1.63075 -6.75597 0
M  V30 8262 H 757.296 1.37818 -4.47352 0
M  V30 8263 H 757.469 1.66493 -6.26246 0
M  V30 8264 N 750.875 1.45233 0.611969 0
M  V30 8265 C 752.123 1.48727 1.36838 0
M  V30 8266 C 752.444 0.128616 1.94575 0
M  V30 8267 O 751.714 -0.84149 1.76906 0
M  V30 8268 H 750.294 0.547695 0.507976 0
M  V30 8269 H 752.956 1.81156 0.718925 0
M  V30 8270 H 752.052 2.2236 2.19003 0
M  V30 8271 N 752.353 -0.854086 1.3245 0
M  V30 8272 C 753.283 -1.97827 1.24044 0
M  V30 8273 C 754.264 -1.69646 0.124166 0
M  V30 8274 O 755.449 -1.91687 0.31143 0
M  V30 8275 C 752.579 -3.33673 0.963324 0
M  V30 8276 C 751.533 -3.76207 2.04089 0
M  V30 8277 C 750.859 -5.0969 1.61618 0
M  V30 8278 C 752.159 -3.91612 3.45597 0
M  V30 8279 H 753.853 -2.05118 2.18099 0
M  V30 8280 H 751.399 -0.985489 1.04996 0
M  V30 8281 H 753.352 -4.11871 0.891061 0
M  V30 8282 H 752.076 -3.26597 -0.0128649 0
M  V30 8283 H 750.735 -3.0026 2.10332 0
M  V30 8284 H 750.383 -4.99072 0.627418 0
M  V30 8285 H 750.083 -5.3912 2.33717 0
M  V30 8286 H 751.607 -5.90381 1.55829 0
M  V30 8287 H 753.021 -4.60163 3.4194 0
M  V30 8288 H 751.418 -4.3246 4.16051 0
M  V30 8289 H 752.488 -2.9451 3.85217 0
M  V30 8290 N 753.831 -1.1567 -1.07043 0
M  V30 8291 C 755.079 -0.931673 -1.79344 0
M  V30 8292 C 755.4 0.542421 -1.87304 0
M  V30 8293 O 754.67 1.39418 -1.37621 0
M  V30 8294 H 753.25 -0.34171 -0.664262 0
M  V30 8295 H 755.912 -1.45795 -1.29344 0
M  V30 8296 H 755.008 -1.34379 -2.81689 0
M  V30 8297 N 755.309 1.25446 -0.953992 0
M  V30 8298 C 756.219 2.29632 -0.480264 0
M  V30 8299 C 757.235 1.68025 0.452071 0
M  V30 8300 O 758.411 1.98703 0.328472 0
M  V30 8301 C 755.476 3.45903 0.234974 0
M  V30 8302 C 754.537 4.22953 -0.735495 0
M  V30 8303 C 753.77 5.33672 -0.0542957 0
M  V30 8304 O 753.993 5.58477 1.16018 0
M  V30 8305 O 752.927 5.9734 -0.739509 0
M  V30 8306 H 756.753 2.72242 -1.34602 0
M  V30 8307 H 754.338 1.30883 -0.720419 0
M  V30 8308 H 756.22 4.16552 0.637341 0
M  V30 8309 H 754.895 3.05296 1.07592 0
M  V30 8310 H 753.802 3.54734 -1.18806 0
M  V30 8311 H 755.135 4.67341 -1.54444 0
M  V30 8312 N 756.787 0.722489 1.40064 0
M  V30 8313 C 757.717 0.0892452 2.33329 0
M  V30 8314 C 758.698 -0.737992 1.53257 0
M  V30 8315 O 759.883 -0.685516 1.81698 0
M  V30 8316 C 757.013 -0.828139 3.37282 0
M  V30 8317 C 755.967 -0.106005 4.27869 0
M  V30 8318 C 755.293 -1.13957 5.22415 0
M  V30 8319 C 756.593 1.04395 5.11761 0
M  V30 8320 H 758.287 0.868269 2.86534 0
M  V30 8321 H 755.833 0.418982 1.3777 0
M  V30 8322 H 757.786 -1.28058 4.01471 0
M  V30 8323 H 756.51 -1.63914 2.82489 0
M  V30 8324 H 755.169 0.326683 3.65142 0
M  V30 8325 H 754.817 -1.9438 4.63924 0
M  V30 8326 H 754.517 -0.661233 5.83868 0
M  V30 8327 H 756.041 -1.59197 5.89482 0
M  V30 8328 H 757.455 0.670541 5.69365 0
M  V30 8329 H 755.852 1.4511 5.82291 0
M  V30 8330 H 756.922 1.87144 4.47331 0
M  V30 8331 N 758.265 -1.50454 0.469181 0
M  V30 8332 C 759.513 -2.01916 -0.0862982 0
M  V30 8333 C 759.834 -1.35337 -1.40388 0
M  V30 8334 O 759.104 -0.498096 -1.89462 0
M  V30 8335 H 757.684 -0.746185 -0.0348825 0
M  V30 8336 H 760.346 -1.84804 0.619167 0
M  V30 8337 H 759.442 -3.11182 -0.239189 0
M  V30 8338 N 759.743 -0.201713 -1.56304 0
M  V30 8339 C 760.706 0.702811 -2.18159 0
M  V30 8340 C 761.706 1.13619 -1.13787 0
M  V30 8341 O 762.896 1.0482 -1.39134 0
M  V30 8342 C 760.028 1.96032 -2.78898 0
M  V30 8343 H 761.221 0.163836 -2.99452 0
M  V30 8344 H 758.774 0.04791 -1.56227 0
M  V30 8345 H 759.509 2.54165 -2.01421 0
M  V30 8346 H 759.294 1.65824 -3.55309 0
M  V30 8347 H 760.784 2.60519 -3.26373 0
M  V30 8348 N 761.222 1.57436 0.0718424 0
M  V30 8349 C 762.154 2.00412 1.1121 0
M  V30 8350 C 763.167 0.910074 1.34987 0
M  V30 8351 O 764.356 1.18796 1.33228 0
M  V30 8352 C 761.456 2.32786 2.46301 0
M  V30 8353 C 760.629 3.64036 2.4248 0
M  V30 8354 C 759.688 3.8408 3.59679 0
M  V30 8355 O 758.714 4.55667 3.4111 0
M  V30 8356 N 759.916 3.2643 4.80025 0
M  V30 8357 H 762.681 2.90264 0.746118 0
M  V30 8358 H 760.242 1.59791 0.260495 0
M  V30 8359 H 762.234 2.43368 3.23348 0
M  V30 8360 H 760.804 1.48824 2.74901 0
M  V30 8361 H 760.024 3.64208 1.50818 0
M  V30 8362 H 761.312 4.50217 2.37027 0
M  V30 8363 H 760.71 2.68325 4.98014 0
M  V30 8364 H 759.267 3.42461 5.54584 0
M  V30 8365 N 762.7 -0.34323 1.53817 0
M  V30 8366 C 764.111 -0.918823 1.62525 0
M  V30 8367 C 764.462 -1.89542 0.506765 0
M  V30 8368 O 763.587 -2.13326 -0.363441 0
M  V30 8369 C 764.182 -1.67326 2.94597 0
M  V30 8370 C 762.741 -2.19786 3.05567 0
M  V30 8371 C 761.888 -1.01708 2.57974 0
M  V30 8372 H 764.839 -0.121358 1.58235 0
M  V30 8373 H 764.86 -2.53615 2.83654 0
M  V30 8374 H 764.372 -0.962223 3.75983 0
M  V30 8375 H 762.473 -2.94065 2.28816 0
M  V30 8376 H 762.586 -2.46135 4.1104 0
M  V30 8377 H 760.95 -1.39058 2.13389 0
M  V30 8378 H 761.733 -0.320671 3.41799 0
M  V30 8379 N 764.178 -1.45556 -0.604258 0
M  V30 8380 C 765.11 -1.50494 -1.72871 0
M  V30 8381 C 766.123 -0.395368 -1.57926 0
M  V30 8382 O 767.312 -0.662603 -1.65746 0
M  V30 8383 C 764.412 -1.34874 -3.10906 0
M  V30 8384 C 763.585 -2.59564 -3.52058 0
M  V30 8385 C 762.644 -2.38453 -4.6907 0
M  V30 8386 O 761.67 -3.12082 -4.76018 0
M  V30 8387 N 762.872 -1.43229 -5.62553 0
M  V30 8388 H 765.637 -2.4744 -1.69097 0
M  V30 8389 H 763.198 -1.41338 -0.789636 0
M  V30 8390 H 765.19 -1.18556 -3.86945 0
M  V30 8391 H 763.76 -0.461913 -3.09168 0
M  V30 8392 H 762.98 -2.90974 -2.65946 0
M  V30 8393 H 764.268 -3.42441 -3.76313 0
M  V30 8394 H 763.666 -0.824714 -5.59656 0
M  V30 8395 H 762.223 -1.32882 -6.38111 0
M  V30 8396 N 765.656 0.84705 -1.32902 0
M  V30 8397 C 766.588 1.96308 -1.18304 0
M  V30 8398 C 767.601 1.62386 -0.116082 0
M  V30 8399 O 768.79 1.74713 -0.365751 0
M  V30 8400 C 765.89 3.29556 -0.790305 0
M  V30 8401 C 765.063 3.91668 -1.94717 0
M  V30 8402 C 764.122 5.0326 -1.53674 0
M  V30 8403 O 763.148 5.22847 -2.24989 0
M  V30 8404 N 764.35 5.78852 -0.437075 0
M  V30 8405 H 767.115 2.09369 -2.14441 0
M  V30 8406 H 764.676 1.02233 -1.25539 0
M  V30 8407 H 766.668 4.01624 -0.49799 0
M  V30 8408 H 765.238 3.12497 0.0801286 0
M  V30 8409 H 764.458 3.12292 -2.40557 0
M  V30 8410 H 765.746 4.299 -2.72146 0
M  V30 8411 H 765.144 5.65484 0.156316 0
M  V30 8412 H 763.701 6.51479 -0.204399 0
M  V30 8413 N 767.134 1.16236 1.06428 0
M  V30 8414 C 768.411 0.853294 1.76006 0
M  V30 8415 C 768.791 -0.649162 2.00871 0
M  V30 8416 O 768.139 -1.59653 1.63472 0
M  V30 8417 C 768.349 1.67448 3.06206 0
M  V30 8418 C 769.697 1.8866 3.80385 0
M  V30 8419 O 770.721 1.64303 3.16043 0
M  V30 8420 O 769.58 2.29518 4.95968 0
M  V30 8421 H 766.674 0.314737 0.764767 0
M  V30 8422 H 769.22 1.26865 1.12709 0
M  V30 8423 H 767.992 2.69411 2.83784 0
M  V30 8424 H 767.615 1.25608 3.77238 0
M  V30 8425 N 768.612 -1.24939 0.960631 0
M  V30 8426 C 769.562 -2.23388 0.456266 0
M  V30 8427 C 770.546 -1.54249 -0.45782 0
M  V30 8428 O 771.738 -1.7461 -0.289894 0
M  V30 8429 C 768.867 -3.42321 -0.259024 0
M  V30 8430 C 767.953 -4.18718 0.673478 0
M  V30 8431 N 768.344 -4.72394 1.8077 0
M  V30 8432 C 766.642 -4.43378 0.482859 0
M  V30 8433 C 767.343 -5.30316 2.3904 0
M  V30 8434 N 766.319 -5.17109 1.67629 0
M  V30 8435 H 770.121 -2.62499 1.32179 0
M  V30 8436 H 767.635 -1.40245 0.818851 0
M  V30 8437 H 769.632 -4.11997 -0.637527 0
M  V30 8438 H 768.292 -3.04732 -1.12108 0
M  V30 8439 H 769.303 -4.69345 2.18942 0
M  V30 8440 H 765.98 -4.16147 -0.335821 0
M  V30 8441 H 767.37 -5.82594 3.34715 0
M  V30 8442 N 770.09 -0.729906 -1.39679 0
M  V30 8443 C 771.053 -0.0951668 -2.29002 0
M  V30 8444 C 772.053 0.672471 -1.46063 0
M  V30 8445 O 773.243 0.502245 -1.66803 0
M  V30 8446 C 770.375 0.874631 -3.29489 0
M  V30 8447 H 771.568 -0.882062 -2.86635 0
M  V30 8448 H 769.121 -0.495424 -1.4824 0
M  V30 8449 H 769.856 1.68807 -2.76902 0
M  V30 8450 H 769.641 0.326893 -3.90735 0
M  V30 8451 H 771.131 1.31548 -3.96339 0
M  V30 8452 N 771.568 1.50203 -0.477153 0
M  V30 8453 C 772.984 1.59056 -0.131663 0
M  V30 8454 C 773.184 1.48473 1.36227 0
M  V30 8455 O 772.24 1.34635 2.13611 0
M  V30 8456 C 773.553 2.92741 -0.687254 0
M  V30 8457 C 775.101 3.0615 -0.651223 0
M  V30 8458 C 775.576 4.42419 -1.18446 0
M  V30 8459 N 777.067 4.48847 -1.14413 0
M  V30 8460 C 777.802 5.52689 -1.52717 0
M  V30 8461 N 777.298 6.63754 -1.98499 0
M  V30 8462 N 779.091 5.43267 -1.44282 0
M  V30 8463 H 771.242 1.55325 -1.44872 0
M  V30 8464 H 773.505 0.734395 -0.599473 0
M  V30 8465 H 773.211 3.0598 -1.73405 0
M  V30 8466 H 773.085 3.76961 -0.134215 0
M  V30 8467 H 775.472 2.92556 0.386677 0
M  V30 8468 H 775.553 2.23673 -1.24114 0
M  V30 8469 H 775.197 4.56763 -2.22103 0
M  V30 8470 H 775.127 5.23498 -0.570709 0
M  V30 8471 H 777.618 3.69152 -0.808416 0
M  V30 8472 H 777.931 7.39059 -2.25859 0
M  V30 8473 H 776.276 6.64858 -2.02456 0
M  V30 8474 H 779.467 4.55387 -1.08352 0
M  V30 8475 H 779.64 6.24074 -1.74459 0
M  V30 8476 N 773.046 0.209999 1.56195 0
M  V30 8477 C 774.292 -0.418742 1.99043 0
M  V30 8478 C 774.647 -1.58201 1.095 0
M  V30 8479 O 773.94 -1.91069 0.1425 0
M  V30 8480 C 774.134 -0.91312 3.45539 0
M  V30 8481 C 773.963 0.200706 4.49252 0
M  V30 8482 C 772.733 0.663287 5.00928 0
M  V30 8483 C 774.931 1.01493 5.04186 0
M  V30 8484 N 772.913 1.75338 5.88328 0
M  V30 8485 C 774.284 1.95411 5.884 0
M  V30 8486 C 776.339 1.05567 4.8658 0
M  V30 8487 C 775.042 2.93069 6.56889 0
M  V30 8488 C 777.068 2.02037 5.55819 0
M  V30 8489 C 776.43 2.94697 6.39791 0
M  V30 8490 H 772.529 -0.120226 0.772703 0
M  V30 8491 H 775.113 0.319119 1.92067 0
M  V30 8492 H 773.284 -1.62038 3.52985 0
M  V30 8493 H 775.016 -1.51371 3.75325 0
M  V30 8494 H 771.771 0.253945 4.72919 0
M  V30 8495 H 772.195 2.30007 6.3673 0
M  V30 8496 H 776.837 0.353242 4.21322 0
M  V30 8497 H 774.555 3.6428 7.21336 0
M  V30 8498 H 778.141 2.05849 5.44167 0
M  V30 8499 H 777.021 3.68128 6.92425 0
M  V30 8500 N 774.524 -1.57472 -0.0634922 0
M  V30 8501 C 775.935 -1.76303 -0.614337 0
M  V30 8502 C 776.286 -0.836578 -1.77471 0
M  V30 8503 O 775.411 -0.0227184 -2.16388 0
M  V30 8504 C 776.006 -3.19709 -1.12122 0
M  V30 8505 C 774.565 -3.39856 -1.61786 0
M  V30 8506 C 773.712 -2.71975 -0.540845 0
M  V30 8507 H 776.663 -1.57864 0.162702 0
M  V30 8508 H 776.684 -3.24326 -1.98979 0
M  V30 8509 H 776.196 -3.87114 -0.276472 0
M  V30 8510 H 774.297 -2.77578 -2.48558 0
M  V30 8511 H 774.41 -4.48338 -1.68908 0
M  V30 8512 H 772.774 -2.34763 -0.987854 0
M  V30 8513 H 773.557 -3.4204 0.293856 0
M  V30 8514 N 776.003 0.335068 -1.53997 0
M  V30 8515 C 777.419 0.678704 -1.4445 0
M  V30 8516 C 777.619 1.92106 -0.608078 0
M  V30 8517 O 776.675 2.52292 -0.102373 0
M  V30 8518 C 777.988 0.863435 -2.88037 0
M  V30 8519 C 779.536 0.961513 -2.97866 0
M  V30 8520 C 780.011 1.1785 -4.42578 0
M  V30 8521 N 781.502 1.2455 -4.46141 0
M  V30 8522 C 782.237 1.43106 -5.55255 0
M  V30 8523 N 781.733 1.5878 -6.74359 0
M  V30 8524 N 783.526 1.45722 -5.42883 0
M  V30 8525 H 775.677 -0.481656 -2.06867 0
M  V30 8526 H 777.94 -0.153615 -0.935471 0
M  V30 8527 H 777.646 0.0219511 -3.51693 0
M  V30 8528 H 777.52 1.76268 -3.33481 0
M  V30 8529 H 779.907 1.79351 -2.34344 0
M  V30 8530 H 779.988 0.0389862 -2.5577 0
M  V30 8531 H 779.632 0.351397 -5.06683 0
M  V30 8532 H 779.562 2.11472 -4.82273 0
M  V30 8533 H 782.053 1.13928 -3.60318 0
M  V30 8534 H 782.366 1.72599 -7.53279 0
M  V30 8535 H 780.711 1.559 -6.77289 0
M  V30 8536 H 783.902 1.33065 -4.48789 0
M  V30 8537 H 784.075 1.59841 -6.27977 0
M  V30 8538 N 777.481 1.45874 0.596531 0
M  V30 8539 C 778.729 1.5017 1.35253 0
M  V30 8540 C 779.05 0.149246 1.94428 0
M  V30 8541 O 778.32 -0.82268 1.77789 0
M  V30 8542 H 776.9 0.553052 0.502138 0
M  V30 8543 H 779.562 1.81908 0.699671 0
M  V30 8544 H 778.658 2.24671 2.16632 0
M  V30 8545 N 778.959 -0.83999 1.33349 0
M  V30 8546 C 780.184 -1.63249 1.27924 0
M  V30 8547 C 780.609 -1.87523 -0.147193 0
M  V30 8548 O 779.967 -1.43853 -1.10345 0
M  V30 8549 C 780.015 -2.96046 2.05886 0
M  V30 8550 O 779.119 -3.87303 1.4167 0
M  V30 8551 H 778.46 -0.49715 0.440157 0
M  V30 8552 H 780.99 -1.04512 1.75893 0
M  V30 8553 H 781 -3.45752 2.16609 0
M  V30 8554 H 779.675 -2.77701 3.09605 0
M  V30 8555 H 778.252 -3.45789 1.39585 0
M  V30 8556 N 780.437 -1.16799 -1.0581 0
M  V30 8557 C 781.662 -0.977402 -1.82925 0
M  V30 8558 C 782.087 0.469514 -1.82146 0
M  V30 8559 O 781.445 1.33576 -1.22585 0
M  V30 8560 C 781.493 -1.51543 -3.27211 0
M  V30 8561 O 780.597 -0.725021 -4.05977 0
M  V30 8562 H 779.938 -0.347474 -0.565825 0
M  V30 8563 H 782.468 -1.55151 -1.33376 0
M  V30 8564 H 782.478 -1.53502 -3.78023 0
M  V30 8565 H 781.153 -2.56872 -3.27093 0
M  V30 8566 H 779.73 -0.77634 -3.64729 0
M  V30 8567 N 781.915 1.24427 -0.967243 0
M  V30 8568 C 782.845 2.2773 -0.515899 0
M  V30 8569 C 783.826 1.64197 0.444227 0
M  V30 8570 O 785.011 1.91193 0.340451 0
M  V30 8571 C 782.141 3.46751 0.195149 0
M  V30 8572 C 781.095 4.22548 -0.680953 0
M  V30 8573 C 780.421 5.34456 0.161561 0
M  V30 8574 C 781.721 4.83914 -1.96532 0
M  V30 8575 H 783.415 2.65735 -1.37933 0
M  V30 8576 H 780.961 1.27742 -0.664681 0
M  V30 8577 H 782.914 4.18153 0.522117 0
M  V30 8578 H 781.638 3.07771 1.09292 0
M  V30 8579 H 780.297 3.52946 -0.991186 0
M  V30 8580 H 779.945 4.91716 1.05947 0
M  V30 8581 H 779.645 5.86087 -0.421418 0
M  V30 8582 H 781.169 6.08685 0.483211 0
M  V30 8583 H 782.583 5.47392 -1.70396 0
M  V30 8584 H 780.98 5.45775 -2.49499 0
M  V30 8585 H 782.05 4.05393 -2.66053 0
M  V30 8586 N 783.393 0.737304 1.3929 0
M  V30 8587 C 784.618 0.295237 2.05288 0
M  V30 8588 C 785.043 -1.06235 1.55228 0
M  V30 8589 O 784.401 -1.67365 0.697043 0
M  V30 8590 C 784.449 0.309146 3.59272 0
M  V30 8591 O 783.553 -0.702437 4.06374 0
M  V30 8592 H 782.894 0.133762 0.650387 0
M  V30 8593 H 785.424 1.00387 1.78279 0
M  V30 8594 H 785.434 0.154336 4.07708 0
M  V30 8595 H 784.109 1.29974 3.95069 0
M  V30 8596 H 782.686 -0.513574 3.69346 0
M  V30 8597 N 784.871 -1.49948 0.485112 0
M  V30 8598 C 785.781 -2.32587 -0.306697 0
M  V30 8599 C 786.797 -1.43598 -0.982632 0
M  V30 8600 O 787.973 -1.76638 -0.967519 0
M  V30 8601 C 785.038 -3.18638 -1.3664 0
M  V30 8602 C 784.099 -4.23462 -0.705589 0
M  V30 8603 C 783.332 -5.05401 -1.7148 0
M  V30 8604 O 783.555 -4.88618 -2.94293 0
M  V30 8605 O 782.489 -5.88157 -1.27889 0
M  V30 8606 H 786.315 -3.01447 0.369272 0
M  V30 8607 H 783.9 -1.47349 0.246709 0
M  V30 8608 H 785.782 -3.71992 -1.9799 0
M  V30 8609 H 784.457 -2.52491 -2.02559 0
M  V30 8610 H 783.364 -3.74063 -0.0527733 0
M  V30 8611 H 784.697 -4.92119 -0.0891187 0
M  V30 8612 N 786.349 -0.21828 -1.56081 0
M  V30 8613 C 787.589 0.416193 -2.00118 0
M  V30 8614 C 787.953 1.5718 -1.10265 0
M  V30 8615 O 789.154 2.27206 -1.43635 0
M  V30 8616 C 787.425 0.842781 -3.47321 0
M  V30 8617 S 788.984 1.47182 -4.1338 0
M  V30 8618 H 785.802 0.132219 -0.698598 0
M  V30 8619 H 788.404 -0.326799 -1.92749 0
M  V30 8620 H 787.108 -0.00799925 -4.10399 0
M  V30 8621 H 786.639 1.61867 -3.58556 0
M  V30 8622 H 788.654 2.76087 -4.12299 0
M  V30 8623 N 787.827 1.57504 0.0551401 0
M  V30 8624 C 789.052 1.92682 0.767352 0
M  V30 8625 C 789.477 0.81614 1.69472 0
M  V30 8626 O 788.835 -0.229989 1.79835 0
M  V30 8627 C 788.883 3.26866 1.52286 0
M  V30 8628 O 787.987 3.17274 2.63459 0
M  V30 8629 H 787.328 0.630502 0.208238 0
M  V30 8630 H 789.858 2.04592 0.0184026 0
M  V30 8631 H 789.868 3.61138 1.8985 0
M  V30 8632 H 788.543 4.07276 0.842541 0
M  V30 8633 H 787.12 2.94589 2.2863 0
M  V30 8634 N 789.305 -0.326896 1.54172 0
M  V30 8635 C 790.215 -1.42525 1.86343 0
M  V30 8636 C 791.231 -1.56764 0.75505 0
M  V30 8637 O 792.407 -1.71924 1.04901 0
M  V30 8638 C 789.472 -2.77286 2.08119 0
M  V30 8639 C 788.533 -2.7225 3.31931 0
M  V30 8640 C 787.766 -4.00584 3.52659 0
M  V30 8641 O 787.989 -4.98686 2.76891 0
M  V30 8642 O 786.923 -4.04045 4.46129 0
M  V30 8643 H 790.749 -1.18249 2.79734 0
M  V30 8644 H 788.334 -0.520614 1.40036 0
M  V30 8645 H 790.216 -3.57065 2.23791 0
M  V30 8646 H 788.891 -3.01459 1.17917 0
M  V30 8647 H 787.798 -1.91033 3.21647 0
M  V30 8648 H 789.131 -2.53032 4.2218 0
M  V30 8649 N 790.784 -1.46188 -0.588786 0
M  V30 8650 C 792.032 -1.50885 -1.34455 0
M  V30 8651 C 792.353 -0.159555 -1.94346 0
M  V30 8652 O 791.623 0.813239 -1.78222 0
M  V30 8653 H 790.203 -0.555707 -0.499198 0
M  V30 8654 H 792.865 -1.82277 -0.690014 0
M  V30 8655 H 791.961 -2.25816 -2.15438 0
M  V30 8656 N 792.262 0.832906 -1.33792 0
M  V30 8657 C 793.539 1.57359 -1.16178 0
M  V30 8658 C 793.919 2.09372 0.269532 0
M  V30 8659 O 793.267 1.89993 1.26944 0
M  V30 8660 C 793.477 2.70279 -2.20795 0
M  V30 8661 C 794.825 3.39305 -2.55259 0
M  V30 8662 O 795.849 2.80526 -2.19508 0
M  V30 8663 O 794.708 4.45428 -3.16632 0
M  V30 8664 H 791.802 0.694025 -0.449731 0
M  V30 8665 H 794.348 0.875144 -1.45394 0
M  V30 8666 H 793.12 2.29527 -3.16911 0
M  V30 8667 H 792.743 3.47782 -1.927 0
M  V30 8668 N 793.74 1.17359 1.05189 0
M  V30 8669 C 794.986 0.963413 1.78455 0
M  V30 8670 C 795.319 -0.506703 1.87473 0
M  V30 8671 O 794.594 -1.37611 1.37453 0
M  V30 8672 C 794.877 1.60519 3.22344 0
M  V30 8673 C 794.73 3.14741 3.21338 0
M  V30 8674 C 796.049 1.3091 4.20179 0
M  V30 8675 H 793.168 0.351412 0.647826 0
M  V30 8676 H 795.81 1.44858 1.22948 0
M  V30 8677 H 793.96 1.19265 3.69741 0
M  V30 8678 H 795.632 3.65053 2.82017 0
M  V30 8679 H 793.875 3.4749 2.59679 0
M  V30 8680 H 794.546 3.54775 4.22894 0
M  V30 8681 H 797.022 1.66635 3.81277 0
M  V30 8682 H 795.898 1.784 5.191 0
M  V30 8683 H 796.159 0.229908 4.41502 0
M  V30 8684 N 795.218 -1.23913 0.973828 0
M  V30 8685 C 796.446 -1.96195 0.656891 0
M  V30 8686 C 796.861 -1.72166 -0.774876 0
M  V30 8687 O 796.218 -1.0091 -1.52064 0
M  V30 8688 C 796.269 -3.49342 0.929638 0
M  V30 8689 O 795.99 -3.72553 2.30512 0
M  V30 8690 C 797.491 -4.38833 0.627739 0
M  V30 8691 H 794.711 -0.624841 0.244572 0
M  V30 8692 H 797.255 -1.57579 1.30343 0
M  V30 8693 H 795.41 -3.85999 0.329216 0
M  V30 8694 H 795.824 -4.66893 2.3898 0
M  V30 8695 H 797.298 -5.45117 0.868991 0
M  V30 8696 H 797.775 -4.37009 -0.438104 0
M  V30 8697 H 798.381 -4.07773 1.20834 0
M  V30 8698 N 796.696 -0.74468 -1.38897 0
M  V30 8699 C 797.629 -0.0596441 -2.28122 0
M  V30 8700 C 798.607 0.73764 -1.44906 0
M  V30 8701 O 799.791 0.718155 -1.74284 0
M  V30 8702 C 796.918 0.922533 -3.25894 0
M  V30 8703 C 795.964 0.212566 -4.2597 0
M  V30 8704 S 796.797 -1.08035 -5.24489 0
M  V30 8705 C 797.953 -0.101014 -6.25818 0
M  V30 8706 H 798.186 -0.816289 -2.85874 0
M  V30 8707 H 795.719 -0.536882 -1.44765 0
M  V30 8708 H 797.677 1.4839 -3.82741 0
M  V30 8709 H 796.338 1.65209 -2.67142 0
M  V30 8710 H 795.531 0.956106 -4.94848 0
M  V30 8711 H 795.133 -0.277029 -3.72973 0
M  V30 8712 H 797.425 0.736072 -6.7349 0
M  V30 8713 H 798.368 -0.757206 -7.0404 0
M  V30 8714 H 798.776 0.275706 -5.63826 0
M  V30 8715 N 798.174 1.49689 -0.493057 0
M  V30 8716 C 799.137 2.27502 0.278485 0
M  V30 8717 C 800.137 1.33184 0.901037 0
M  V30 8718 O 801.327 1.56415 0.766801 0
M  V30 8719 C 798.459 3.10881 1.39878 0
M  V30 8720 H 799.652 2.97163 -0.404219 0
M  V30 8721 H 797.205 1.54324 -0.247774 0
M  V30 8722 H 797.94 2.45767 2.11587 0
M  V30 8723 H 797.725 3.80219 0.957924 0
M  V30 8724 H 799.215 3.69673 1.94247 0
M  V30 8725 N 799.652 0.226554 1.55963 0
M  V30 8726 C 800.6 -0.697922 2.21882 0
M  V30 8727 C 801.594 -1.19586 1.19981 0
M  V30 8728 O 802.8 -1.15511 1.38048 0
M  V30 8729 H 799.175 -0.243501 0.711485 0
M  V30 8730 H 801.146 -0.118576 2.98164 0
M  V30 8731 C 799.895 -1.89309 2.91646 0
M  V30 8732 H 799.218 -1.51906 3.69817 0
M  V30 8733 H 800.658 -2.51762 3.41162 0
M  V30 8734 C 799.117 -2.75162 1.94391 0
M  V30 8735 O 799.647 -3.74071 1.46402 0
M  V30 8736 N 797.853 -2.41302 1.61932 0
M  V30 8737 H 797.4 -1.60923 2.01151 0
M  V30 8738 H 797.358 -2.99023 0.971219 0
M  V30 8739 N 801.13 -1.57531 -0.0467866 0
M  V30 8740 C 802.358 -1.92696 -0.753371 0
M  V30 8741 C 802.773 -0.824792 -1.69831 0
M  V30 8742 O 802.13 0.200155 -1.81399 0
M  V30 8743 C 802.181 -3.27728 -1.52566 0
M  V30 8744 O 801.902 -4.3371 -0.618674 0
M  V30 8745 C 803.403 -3.77066 -2.33101 0
M  V30 8746 H 800.623 -0.636367 -0.212788 0
M  V30 8747 H 803.167 -2.04498 -0.00959361 0
M  V30 8748 H 801.322 -3.17378 -2.22148 0
M  V30 8749 H 801.736 -5.11548 -1.15839 0
M  V30 8750 H 803.21 -4.74109 -2.82709 0
M  V30 8751 H 803.687 -3.07348 -3.13741 0
M  V30 8752 H 804.293 -3.90442 -1.68628 0
M  V30 8753 N 802.608 0.318715 -1.54344 0
M  V30 8754 C 803.541 1.41644 -1.7892 0
M  V30 8755 C 804.519 1.495 -0.639421 0
M  V30 8756 O 805.703 1.66835 -0.877404 0
M  V30 8757 C 802.83 2.79701 -1.9101 0
M  V30 8758 C 801.876 2.89354 -3.13331 0
M  V30 8759 S 802.709 2.53264 -4.71824 0
M  V30 8760 C 803.865 3.93384 -4.86826 0
M  V30 8761 H 804.098 1.20585 -2.71747 0
M  V30 8762 H 801.631 0.515828 -1.45529 0
M  V30 8763 H 803.589 3.59227 -1.98661 0
M  V30 8764 H 802.25 2.9804 -0.991516 0
M  V30 8765 H 801.443 3.90574 -3.1854 0
M  V30 8766 H 801.045 2.17805 -3.04035 0
M  V30 8767 H 803.337 4.88191 -4.69761 0
M  V30 8768 H 804.28 3.93156 -5.88926 0
M  V30 8769 H 804.688 3.82564 -4.15097 0
M  V30 8770 N 804.086 1.46499 0.581025 0
M  V30 8771 C 804.996 1.59778 1.71779 0
M  V30 8772 C 806.012 0.481223 1.67213 0
M  V30 8773 O 807.188 0.74557 1.87091 0
M  V30 8774 C 804.253 1.58626 3.08283 0
M  V30 8775 C 803.314 2.81527 3.241 0
M  V30 8776 C 802.547 2.80421 4.54092 0
M  V30 8777 O 802.77 1.89262 5.38085 0
M  V30 8778 O 801.704 3.71984 4.73193 0
M  V30 8779 H 805.53 2.55918 1.63523 0
M  V30 8780 H 803.115 1.29311 0.748267 0
M  V30 8781 H 804.997 1.60686 3.89561 0
M  V30 8782 H 803.672 0.656467 3.16973 0
M  V30 8783 H 802.579 2.85021 2.42309 0
M  V30 8784 H 803.912 3.73721 3.20302 0
M  V30 8785 N 805.565 -0.825799 1.34232 0
M  V30 8786 C 806.475 -1.9684 1.27638 0
M  V30 8787 C 807.491 -1.73018 0.184569 0
M  V30 8788 O 808.667 -1.97172 0.410525 0
M  V30 8789 C 805.732 -3.31084 1.02879 0
M  V30 8790 C 804.793 -3.67933 2.21188 0
M  V30 8791 C 804.026 -4.95772 1.976 0
M  V30 8792 O 804.249 -5.62721 0.93281 0
M  V30 8793 O 803.183 -5.30431 2.84477 0
M  V30 8794 H 807.009 -2.05346 2.23756 0
M  V30 8795 H 804.594 -0.960772 1.1441 0
M  V30 8796 H 806.476 -4.11492 0.908406 0
M  V30 8797 H 805.151 -3.23552 0.0979821 0
M  V30 8798 H 804.058 -2.87981 2.38784 0
M  V30 8799 H 805.391 -3.80147 3.12648 0
M  V30 8800 N 807.043 -1.17915 -1.04565 0
M  V30 8801 C 808.292 -0.965816 -1.77073 0
M  V30 8802 C 808.605 0.506005 -1.88942 0
M  V30 8803 O 809.811 0.837717 -2.58253 0
M  V30 8804 C 808.267 -1.67894 -3.18339 0
M  V30 8805 C 807.875 -3.18972 -3.1458 0
M  V30 8806 C 809.619 -1.54823 -3.9526 0
M  V30 8807 C 807.526 -3.82946 -4.50674 0
M  V30 8808 H 806.456 -0.357729 -0.663736 0
M  V30 8809 H 809.107 -1.41235 -1.17153 0
M  V30 8810 H 807.489 -1.16016 -3.78624 0
M  V30 8811 H 808.663 -3.77835 -2.63776 0
M  V30 8812 H 806.978 -3.32127 -2.51159 0
M  V30 8813 H 809.575 -1.99984 -4.95894 0
M  V30 8814 H 809.918 -0.499727 -4.1329 0
M  V30 8815 H 810.451 -2.03953 -3.41538 0
M  V30 8816 H 807.19 -4.8782 -4.37849 0
M  V30 8817 H 806.71 -3.2887 -5.01602 0
M  V30 8818 H 808.389 -3.85518 -5.196 0
M  V30 8819 N 808.521 1.23394 -0.980386 0
M  V30 8820 C 809.451 2.2717 -0.540024 0
M  V30 8821 C 810.432 1.64659 0.426787 0
M  V30 8822 O 811.617 1.91543 0.320153 0
M  V30 8823 C 808.747 3.46939 0.15836 0
M  V30 8824 C 807.701 4.21802 -0.725732 0
M  V30 8825 C 807.027 5.34597 0.104866 0
M  V30 8826 C 808.327 4.81802 -2.01654 0
M  V30 8827 H 810.021 2.64257 -1.40743 0
M  V30 8828 H 807.567 1.2703 -0.678193 0
M  V30 8829 H 809.52 4.18683 0.477737 0
M  V30 8830 H 808.244 3.08912 1.06022 0
M  V30 8831 H 806.903 3.51875 -1.02857 0
M  V30 8832 H 806.551 4.92812 1.00726 0
M  V30 8833 H 806.251 5.85607 -0.483557 0
M  V30 8834 H 807.775 6.09163 0.418624 0
M  V30 8835 H 809.189 5.45554 -1.76193 0
M  V30 8836 H 807.586 5.43098 -2.55273 0
M  V30 8837 H 808.656 4.02549 -2.70338 0
M  V30 8838 N 809.999 0.752036 1.385 0
M  V30 8839 C 810.909 0.125318 2.34265 0
M  V30 8840 C 811.925 -0.702437 1.59191 0
M  V30 8841 O 813.101 -0.626951 1.91393 0
M  V30 8842 C 810.166 -0.758486 3.38301 0
M  V30 8843 C 809.227 0.0834636 4.29219 0
M  V30 8844 C 808.46 -0.758252 5.28286 0
M  V30 8845 O 808.683 -1.99632 5.34325 0
M  V30 8846 O 807.617 -0.177878 6.01637 0
M  V30 8847 H 811.443 0.91617 2.89551 0
M  V30 8848 H 809.028 0.512911 1.4032 0
M  V30 8849 H 810.91 -1.26365 4.02007 0
M  V30 8850 H 809.585 -1.52786 2.85374 0
M  V30 8851 H 808.492 0.634545 3.68679 0
M  V30 8852 H 809.825 0.815455 4.85398 0
M  V30 8853 N 811.477 -1.49425 0.500989 0
M  V30 8854 C 812.387 -2.32899 -0.282011 0
M  V30 8855 C 813.403 -1.44632 -0.967346 0
M  V30 8856 O 814.579 -1.77654 -0.94873 0
M  V30 8857 C 811.644 -3.20069 -1.33253 0
M  V30 8858 C 810.705 -4.24186 -0.660636 0
M  V30 8859 C 809.938 -5.07191 -1.6611 0
M  V30 8860 O 810.161 -4.91712 -2.89094 0
M  V30 8861 O 809.095 -5.8948 -1.21643 0
M  V30 8862 H 812.921 -3.01038 0.401224 0
M  V30 8863 H 810.506 -1.47079 0.262323 0
M  V30 8864 H 812.388 -3.74071 -1.94033 0
M  V30 8865 H 811.063 -2.54625 -1.9987 0
M  V30 8866 H 809.97 -3.74098 -0.0130959 0
M  V30 8867 H 811.303 -4.92186 -0.0369179 0
M  V30 8868 N 812.955 -0.234822 -1.55841 0
M  V30 8869 C 814.18 0.400741 -2.03492 0
M  V30 8870 C 814.605 1.51618 -1.11327 0
M  V30 8871 O 813.963 1.81002 -0.103922 0
M  V30 8872 C 814.011 0.897184 -3.49261 0
M  V30 8873 O 813.115 2.00764 -3.60233 0
M  V30 8874 H 812.456 0.0890023 -0.658008 0
M  V30 8875 H 814.986 -0.357345 -2.01455 0
M  V30 8876 H 814.996 1.20356 -3.89844 0
M  V30 8877 H 813.671 0.0808639 -4.15821 0
M  V30 8878 H 812.248 1.70689 -3.31541 0
M  V30 8879 N 814.433 1.57553 0.0384317 0
M  V30 8880 C 815.343 2.09333 1.0591 0
M  V30 8881 C 816.359 1.0299 1.40247 0
M  V30 8882 O 817.535 1.34669 1.49754 0
M  V30 8883 C 814.6 2.55468 2.34386 0
M  V30 8884 C 813.661 3.76254 2.06716 0
M  V30 8885 C 812.894 4.20179 3.29067 0
M  V30 8886 O 813.117 3.637 4.39407 0
M  V30 8887 O 812.051 5.12697 3.15317 0
M  V30 8888 H 815.877 2.96683 0.649087 0
M  V30 8889 H 813.462 1.47211 0.254802 0
M  V30 8890 H 815.344 2.85514 3.09935 0
M  V30 8891 H 814.019 1.71234 2.74701 0
M  V30 8892 H 812.926 3.51241 1.28766 0
M  V30 8893 H 814.259 4.61443 1.71263 0
M  V30 8894 N 815.911 -0.310526 1.54511 0
M  V30 8895 C 817.16 -1.0445 1.72549 0
M  V30 8896 C 817.473 -1.88748 0.513172 0
M  V30 8897 O 818.679 -2.65338 0.575165 0
M  V30 8898 C 817.135 -1.90665 3.05246 0
M  V30 8899 C 816.743 -1.11415 4.33925 0
M  V30 8900 C 818.487 -2.63719 3.32645 0
M  V30 8901 C 816.394 -1.96852 5.57677 0
M  V30 8902 H 815.324 -0.393676 0.643067 0
M  V30 8903 H 817.975 -0.302003 1.80998 0
M  V30 8904 H 816.357 -2.68864 2.90737 0
M  V30 8905 H 817.531 -0.378956 4.59239 0
M  V30 8906 H 815.846 -0.499853 4.13389 0
M  V30 8907 H 818.443 -3.27974 4.223 0
M  V30 8908 H 818.786 -3.32047 2.51098 0
M  V30 8909 H 819.319 -1.92574 3.48081 0
M  V30 8910 H 816.058 -1.33009 6.41864 0
M  V30 8911 H 815.578 -2.68069 5.36562 0
M  V30 8912 H 817.257 -2.55127 5.94575 0
M  V30 8913 O 817.428 -1.54915 -0.456448 0
M  V30 8914 H 818.119 -1.58706 -1.11049 0
M  V30 END ATOM
M  V30 BEGIN BOND
M  V30 END BOND
M  V30 END CTAB
M  END
$$$$
