drugbank_target|O95865 N(G),N(G)-dimethylarginine dimethylaminohydrolase 2 (DB00155)
 OpenBabel12092119353D

  0  0  0     0  0            999 V3000
M  V30 BEGIN CTAB
M  V30 COUNTS 4191 4231 0 0 0
M  V30 BEGIN ATOM
M  V30 1 H -0.908 1.98254 -0.117106 0
M  V30 2 N 0 1.576 0 0
M  V30 3 C 0.933 2.03868 1.02534 0
M  V30 4 C 1.911 0.928543 1.3348 0
M  V30 5 O 3.095 1.19667 1.45644 0
M  V30 6 C 0.222 2.43627 2.35294 0
M  V30 7 C -0.732 3.65373 2.2001 0
M  V30 8 S 0.101 5.13292 1.52614 0
M  V30 9 C 1.257 5.56322 2.86805 0
M  V30 10 H 1.49 2.90518 0.631377 0
M  V30 11 H -0.977 1.52953 0.210867 0
M  V30 12 H 0.981 2.67203 3.11629 0
M  V30 13 H -0.358 1.57376 2.7183 0
M  V30 14 H -1.165 3.90944 3.18086 0
M  V30 15 H -1.563 3.418 1.51819 0
M  V30 16 H 0.729 5.58782 3.83104 0
M  V30 17 H 1.672 6.56266 2.65933 0
M  V30 18 H 2.08 4.83886 2.90714 0
M  V30 19 N 1.4781 -0.272755 1.55222 0
M  V30 20 C 2.7261 -1.00234 1.75492 0
M  V30 21 C 3.0471 -1.8681 0.5592 0
M  V30 22 O 2.3171 -1.91215 -0.425882 0
M  V30 23 H 0.8971 -0.373076 0.647166 0
M  V30 24 H 3.5591 -0.296926 1.92625 0
M  V30 25 H 2.6551 -1.63913 2.65592 0
M  V30 26 N 2.9562 -1.48159 -0.537278 0
M  V30 27 C 4.1842 -1.59454 -1.31841 0
M  V30 28 C 4.5992 -0.252065 -1.8711 0
M  V30 29 O 3.9562 0.757621 -1.66031 0
M  V30 30 C 4.0072 -2.63546 -2.47439 0
M  V30 31 O 3.7282 -3.92583 -1.94449 0
M  V30 32 C 5.2292 -2.85212 -3.39366 0
M  V30 33 H 2.4492 -0.53785 -0.401196 0
M  V30 34 H 4.9932 -1.93932 -0.648891 0
M  V30 35 H 3.1482 -2.31946 -3.1029 0
M  V30 36 H 3.5622 -4.49629 -2.70063 0
M  V30 37 H 5.0362 -3.61863 -4.16844 0
M  V30 38 H 5.5132 -1.93765 -3.94147 0
M  V30 39 H 6.1192 -3.18086 -2.82314 0
M  V30 40 N 4.4343 0.785586 -1.36625 0
M  V30 41 C 5.8453 1.36101 -1.27803 0
M  V30 42 C 6.1963 1.96035 0.0804875 0
M  V30 43 O 5.3213 1.92834 0.982042 0
M  V30 44 C 5.9163 2.47442 -2.31426 0
M  V30 45 C 4.4753 3.00789 -2.26281 0
M  V30 46 C 3.6223 1.73896 -2.15999 0
M  V30 47 H 6.5733 0.586928 -1.47448 0
M  V30 48 H 6.5943 3.2656 -1.95291 0
M  V30 49 H 6.1063 2.03791 -3.30289 0
M  V30 50 H 4.2073 3.48851 -1.30896 0
M  V30 51 H 4.3203 3.57343 -3.19128 0
M  V30 52 H 2.6843 1.9628 -1.62316 0
M  V30 53 H 3.4673 1.32368 -3.16755 0
M  V30 54 N 5.9124 1.20967 1.01018 0
M  V30 55 C 7.1604 1.02172 1.74371 0
M  V30 56 C 7.4814 -0.446414 1.89821 0
M  V30 57 O 6.7514 -1.32234 1.44537 0
M  V30 58 H 5.3314 0.375066 0.646014 0
M  V30 59 H 7.9934 1.52187 1.21758 0
M  V30 60 H 7.0894 1.48538 2.74487 0
M  V30 61 N 7.3905 -1.2043 1.01659 0
M  V30 62 C 8.3005 -2.2689 0.596484 0
M  V30 63 C 9.3165 -1.70107 -0.36599 0
M  V30 64 O 10.4925 -2.00117 -0.226942 0
M  V30 65 C 7.5575 -3.4665 -0.0586659 0
M  V30 66 C 6.6185 -4.18662 0.949751 0
M  V30 67 C 5.8515 -5.32705 0.32577 0
M  V30 68 O 6.0745 -5.63656 -0.874509 0
M  V30 69 O 5.0085 -5.92803 1.04249 0
M  V30 70 H 8.8345 -2.65041 1.4828 0
M  V30 71 H 6.4195 -1.27048 0.786082 0
M  V30 72 H 8.3015 -4.19256 -0.424564 0
M  V30 73 H 6.9765 -3.10375 -0.91918 0
M  V30 74 H 5.8835 -3.48229 1.36702 0
M  V30 75 H 7.2165 -4.58878 1.78023 0
M  V30 76 N 8.8686 -0.792821 -1.36206 0
M  V30 77 C 10.1166 -0.366062 -1.98757 0
M  V30 78 C 10.4376 1.0668 -1.63231 0
M  V30 79 O 9.7076 1.73587 -0.907978 0
M  V30 80 H 8.2876 -0.132364 -0.735179 0
M  V30 81 H 10.9496 -1.01562 -1.66347 0
M  V30 82 H 10.0456 -0.460638 -3.08682 0
M  V30 83 N 10.3467 1.47872 -0.545128 0
M  V30 84 C 11.2767 2.32661 0.197793 0
M  V30 85 C 12.2577 1.43041 0.920504 0
M  V30 86 O 13.4427 1.71912 0.90333 0
M  V30 87 C 10.5727 3.24569 1.23582 0
M  V30 88 C 9.5267 4.23333 0.630323 0
M  V30 89 C 8.8527 5.0448 1.77211 0
M  V30 90 C 10.1527 5.20704 -0.407974 0
M  V30 91 H 11.8467 2.95024 -0.510045 0
M  V30 92 H 9.3927 1.4187 -0.246731 0
M  V30 93 H 11.3457 3.8272 1.76362 0
M  V30 94 H 10.0697 2.60236 1.97344 0
M  V30 95 H 8.7287 3.6639 0.123922 0
M  V30 96 H 8.3767 4.36561 2.49847 0
M  V30 97 H 8.0767 5.71339 1.37281 0
M  V30 98 H 9.6007 5.65487 2.3034 0
M  V30 99 H 11.0147 5.7329 0.033305 0
M  V30 100 H 9.4117 5.95699 -0.725486 0
M  V30 101 H 10.4817 4.66917 -1.30828 0
M  V30 102 N 11.8248 0.280983 1.55075 0
M  V30 103 C 13.0728 -0.333455 1.9933 0
M  V30 104 C 13.3938 -1.55937 1.17085 0
M  V30 105 O 12.6638 -1.94143 0.261805 0
M  V30 106 H 11.2438 -0.126197 0.736263 0
M  V30 107 H 13.9058 0.387678 1.91005 0
M  V30 108 H 13.0018 -0.619292 3.05894 0
M  V30 109 N 13.3029 -1.57598 0.00835791 0
M  V30 110 C 14.7189 -1.55764 -0.347822 0
M  V30 111 C 14.9189 -1.01186 -1.74252 0
M  V30 112 O 13.9749 -0.649371 -2.44007 0
M  V30 113 C 15.2879 -2.99927 -0.215407 0
M  V30 114 C 16.8359 -3.11656 -0.289725 0
M  V30 115 C 17.3109 -4.57621 -0.18634 0
M  V30 116 N 18.8019 -4.62557 -0.243978 0
M  V30 117 C 19.5369 -5.73094 -0.18745 0
M  V30 118 N 19.0329 -6.92753 -0.0810331 0
M  V30 119 N 20.8259 -5.61588 -0.239925 0
M  V30 120 H 12.9769 -1.91411 0.92062 0
M  V30 121 H 15.2399 -0.879562 0.353659 0
M  V30 122 H 14.9459 -3.43729 0.744512 0
M  V30 123 H 14.8199 -3.63865 -0.994097 0
M  V30 124 H 17.2069 -2.67779 -1.24009 0
M  V30 125 H 17.2879 -2.5048 0.51898 0
M  V30 126 H 16.9319 -5.02174 0.760519 0
M  V30 127 H 16.8619 -5.16752 -1.01364 0
M  V30 128 H 19.3529 -3.76481 -0.327217 0
M  V30 129 H 19.6659 -7.72787 -0.0440241 0
M  V30 130 H 18.0109 -6.94984 -0.0465419 0
M  V30 131 H 21.2019 -4.66996 -0.321317 0
M  V30 132 H 21.3749 -6.47714 -0.192407 0
M  V30 133 N 14.781 0.264519 -1.55364 0
M  V30 134 C 16.021 1.00254 -1.78125 0
M  V30 135 C 16.385 1.83187 -0.575017 0
M  V30 136 O 17.586 2.60029 -0.681042 0
M  V30 137 C 15.857 1.85478 -3.05504 0
M  V30 138 S 17.416 2.6543 -3.49417 0
M  V30 139 H 14.234 0.337522 -0.625779 0
M  V30 140 H 16.836 0.272111 -1.93597 0
M  V30 141 H 15.54 1.23491 -3.9138 0
M  V30 142 H 15.071 2.62827 -2.92721 0
M  V30 143 H 17.086 3.87958 -3.09359 0
M  V30 144 N 16.2591 1.48442 0.529413 0
M  V30 145 C 17.4841 1.60406 1.31471 0
M  V30 146 C 17.9091 0.264738 1.86228 0
M  V30 147 O 17.2671 -0.763668 1.64432 0
M  V30 148 C 17.3151 2.65419 2.44101 0
M  V30 149 O 16.4191 2.22618 3.47153 0
M  V30 150 H 15.7601 0.537863 0.389357 0
M  V30 151 H 18.2901 1.94432 0.636965 0
M  V30 152 H 18.3001 2.86709 2.90279 0
M  V30 153 H 16.9751 3.62652 2.03608 0
M  V30 154 H 15.5521 2.11543 3.0709 0
M  V30 155 N 17.7372 -0.778329 1.37039 0
M  V30 156 C 18.6872 -1.88142 1.28789 0
M  V30 157 C 19.6712 -1.59923 0.177063 0
M  V30 158 O 20.8632 -1.72165 0.410873 0
M  V30 159 C 17.9922 -3.25518 1.09055 0
M  V30 160 C 17.0782 -3.5971 2.24654 0
M  V30 161 N 17.4692 -3.65131 3.50018 0
M  V30 162 C 15.7672 -3.89837 2.16663 0
M  V30 163 C 16.4682 -3.95882 4.26207 0
M  V30 164 N 15.4442 -4.11441 3.55271 0
M  V30 165 H 19.2462 -1.90575 2.23737 0
M  V30 166 H 16.7602 -0.974435 1.29917 0
M  V30 167 H 18.7572 -4.04423 1.0123 0
M  V30 168 H 17.4172 -3.24353 0.15018 0
M  V30 169 H 18.4282 -3.475 3.84011 0
M  V30 170 H 15.1052 -3.96533 1.30645 0
M  V30 171 H 16.4952 -4.06907 5.34674 0
M  V30 172 N 19.2153 -1.21501 -1.00376 0
M  V30 173 C 20.1783 -0.976927 -2.07337 0
M  V30 174 C 21.1783 0.0525322 -1.60714 0
M  V30 175 O 22.3683 -0.184869 -1.73216 0
M  V30 176 C 19.5003 -0.473423 -3.37597 0
M  V30 177 H 20.6933 -1.92587 -2.29892 0
M  V30 178 H 18.2463 -1.03217 -1.17371 0
M  V30 179 H 18.9813 0.480379 -3.20722 0
M  V30 180 H 18.7663 -1.216 -3.72768 0
M  V30 181 H 20.2563 -0.32675 -4.1632 0
M  V30 182 N 20.6934 1.19889 -1.02296 0
M  V30 183 C 21.6234 2.25141 -0.619174 0
M  V30 184 C 22.6044 1.66051 0.368915 0
M  V30 185 O 23.7894 1.92546 0.252941 0
M  V30 186 C 20.9194 3.4728 0.0368783 0
M  V30 187 C 19.8734 4.19005 -0.872865 0
M  V30 188 C 19.1994 5.34637 -0.0822402 0
M  V30 189 C 20.4994 4.74452 -2.18387 0
M  V30 190 H 22.1934 2.59171 -1.49903 0
M  V30 191 H 19.7394 1.24579 -0.722222 0
M  V30 192 H 21.6924 4.20098 0.330958 0
M  V30 193 H 20.4164 3.12433 0.95149 0
M  V30 194 H 19.0754 3.48061 -1.15105 0
M  V30 195 H 18.7234 4.96034 0.83422 0
M  V30 196 H 18.4234 5.83557 -0.688149 0
M  V30 197 H 19.9474 6.10255 0.205238 0
M  V30 198 H 21.3614 5.39055 -1.95172 0
M  V30 199 H 19.7584 5.33834 -2.74119 0
M  V30 200 H 20.8284 3.92844 -2.84257 0
M  V30 201 N 22.1715 0.800033 1.35784 0
M  V30 202 C 23.4205 0.37387 1.98205 0
M  V30 203 C 23.7335 -1.06302 1.64193 0
M  V30 204 O 24.9395 -1.59198 2.19928 0
M  V30 205 C 23.3955 0.617532 3.54562 0
M  V30 206 C 23.0035 2.06654 3.9749 0
M  V30 207 C 24.7475 0.256401 4.23725 0
M  V30 208 C 22.6545 2.2563 5.46667 0
M  V30 209 H 21.5845 0.136055 0.741623 0
M  V30 210 H 24.2355 0.983166 1.54939 0
M  V30 211 H 22.6175 -0.0616248 3.95952 0
M  V30 212 H 23.7915 2.78296 3.67271 0
M  V30 213 H 22.1065 2.38691 3.41197 0
M  V30 214 H 24.7035 0.376318 5.33374 0
M  V30 215 H 25.0465 -0.796692 4.08606 0
M  V30 216 H 25.5795 0.889214 3.87734 0
M  V30 217 H 22.3185 3.2936 5.66747 0
M  V30 218 H 21.8385 1.58504 5.78478 0
M  V30 219 H 23.5175 2.06861 6.1304 0
M  V30 220 N 23.6496 -1.47581 0.552962 0
M  V30 221 C 25.0656 -1.5818 0.212424 0
M  V30 222 C 25.2656 -1.55213 -1.28496 0
M  V30 223 O 24.3216 -1.45329 -2.06484 0
M  V30 224 C 25.6346 -2.88865 0.835318 0
M  V30 225 C 27.1826 -3.0244 0.806156 0
M  V30 226 C 27.6576 -4.35819 1.40804 0
M  V30 227 N 29.1486 -4.42444 1.37103 0
M  V30 228 C 29.8836 -5.44202 1.80641 0
M  V30 229 N 29.3796 -6.52795 2.32015 0
M  V30 230 N 31.1726 -5.35222 1.71738 0
M  V30 231 H 23.3236 -1.47753 1.52587 0
M  V30 232 H 25.5866 -0.702941 0.636064 0
M  V30 233 H 25.2926 -2.9676 1.88749 0
M  V30 234 H 25.1666 -3.7579 0.325848 0
M  V30 235 H 27.5536 -2.94144 -0.237317 0
M  V30 236 H 27.6346 -2.17068 1.35334 0
M  V30 237 H 27.2786 -4.44871 2.45056 0
M  V30 238 H 27.2086 -5.19916 0.836338 0
M  V30 239 H 29.6996 -3.6456 0.995202 0
M  V30 240 H 30.0126 -7.26609 2.63171 0
M  V30 241 H 28.3576 -6.53696 2.36023 0
M  V30 242 H 31.5486 -4.49284 1.31382 0
M  V30 243 H 31.7216 -6.14389 2.05987 0
M  V30 244 N 25.1277 -0.289203 -1.54924 0
M  V30 245 C 26.3757 0.322879 -1.99504 0
M  V30 246 C 26.6967 1.55313 -1.1791 0
M  V30 247 O 25.9667 1.94001 -0.272097 0
M  V30 248 H 24.5467 0.122291 -0.736922 0
M  V30 249 H 27.2087 -0.397802 -1.90797 0
M  V30 250 H 26.3047 0.603061 -3.06218 0
M  V30 251 N 26.6058 1.57591 -0.0167156 0
M  V30 252 C 27.8518 1.91567 0.665582 0
M  V30 253 C 28.1848 0.892298 1.72487 0
M  V30 254 O 27.4598 -0.0867127 1.94307 0
M  V30 255 C 27.7428 3.36069 1.29342 0
M  V30 256 C 27.5958 4.49135 0.244541 0
M  V30 257 C 28.9148 3.803 2.21495 0
M  V30 258 H 26.0338 0.69666 0.240488 0
M  V30 259 H 28.6758 1.89866 -0.0714356 0
M  V30 260 H 26.8258 3.3765 1.92158 0
M  V30 261 H 28.4978 4.59689 -0.385228 0
M  V30 262 H 26.7408 4.3165 -0.431379 0
M  V30 263 H 27.4118 5.47242 0.723207 0
M  V30 264 H 29.8878 3.80377 1.68678 0
M  V30 265 H 28.7638 4.82127 2.62382 0
M  V30 266 H 29.0248 3.15104 3.101 0
M  V30 267 N 28.0839 -0.256276 1.55502 0
M  V30 268 C 29.4949 -0.826068 1.67431 0
M  V30 269 C 29.8459 -1.86396 0.612446 0
M  V30 270 O 28.9709 -2.15031 -0.243025 0
M  V30 271 C 29.5659 -1.50512 3.03532 0
M  V30 272 C 28.1249 -2.02273 3.17431 0
M  V30 273 C 27.2719 -0.870548 2.63281 0
M  V30 274 H 30.2229 -0.0322728 1.58667 0
M  V30 275 H 30.2439 -2.37279 2.97454 0
M  V30 276 H 29.7559 -0.749484 3.80794 0
M  V30 277 H 27.8569 -2.80746 2.44974 0
M  V30 278 H 27.9699 -2.22655 4.24219 0
M  V30 279 H 26.3339 -1.26851 2.20864 0
M  V30 280 H 27.1169 -0.128149 3.43061 0
M  V30 281 N 29.562 -1.4872 -0.521534 0
M  V30 282 C 30.472 -1.66569 -1.65203 0
M  V30 283 C 31.488 -0.548197 -1.65139 0
M  V30 284 O 32.664 -0.820339 -1.83936 0
M  V30 285 C 29.729 -1.70917 -3.01642 0
M  V30 286 C 28.79 -2.94356 -3.12495 0
M  V30 287 C 28.023 -2.98487 -4.42426 0
M  V30 288 O 28.246 -2.10786 -5.30024 0
M  V30 289 O 27.18 -3.90746 -4.57822 0
M  V30 290 H 31.006 -2.62298 -1.5308 0
M  V30 291 H 28.591 -1.3222 -0.695565 0
M  V30 292 H 30.473 -1.7625 -3.82771 0
M  V30 293 H 29.148 -0.783633 -3.14071 0
M  V30 294 H 28.055 -2.94552 -2.3063 0
M  V30 295 H 29.388 -3.86322 -3.04986 0
M  V30 296 N 31.0401 0.771051 -1.3745 0
M  V30 297 C 32.2651 1.56529 -1.36065 0
M  V30 298 C 32.6901 1.88029 0.0515859 0
M  V30 299 O 32.0481 1.49282 1.02882 0
M  V30 300 C 32.0961 2.85187 -2.20683 0
M  V30 301 O 31.2001 3.79593 -1.61193 0
M  V30 302 H 30.5411 0.47411 -0.464883 0
M  V30 303 H 33.0711 0.954269 -1.80983 0
M  V30 304 H 33.0811 3.34283 -2.33921 0
M  V30 305 H 31.7561 2.61588 -3.23334 0
M  V30 306 H 30.3331 3.38239 -1.56999 0
M  V30 307 N 32.5182 1.22032 0.997298 0
M  V30 308 C 33.4482 1.01065 2.10495 0
M  V30 309 C 34.4292 -0.0669542 1.69968 0
M  V30 310 O 35.6142 0.0943987 1.9397 0
M  V30 311 C 32.7442 0.582874 3.42374 0
M  V30 312 C 31.6982 1.60592 3.96729 0
M  V30 313 C 31.0242 1.03412 5.24605 0
M  V30 314 C 32.3242 2.99478 4.27914 0
M  V30 315 H 34.0182 1.93708 2.28292 0
M  V30 316 H 31.5642 0.932761 1.09707 0
M  V30 317 H 33.5172 0.423332 4.19268 0
M  V30 318 H 32.2412 -0.379213 3.24391 0
M  V30 319 H 30.9002 1.75316 3.21963 0
M  V30 320 H 30.5482 0.063518 5.0296 0
M  V30 321 H 30.2482 1.71754 5.61938 0
M  V30 322 H 31.7722 0.886066 6.04137 0
M  V30 323 H 33.1862 2.88153 4.95622 0
M  V30 324 H 31.5832 3.64903 4.76409 0
M  V30 325 H 32.6532 3.49742 3.3587 0
M  V30 326 N 33.9963 -1.19345 1.0293 0
M  V30 327 C 34.9593 -2.20793 0.615069 0
M  V30 328 C 35.9593 -1.57553 -0.321533 0
M  V30 329 O 37.1493 -1.73862 -0.108483 0
M  V30 330 C 34.2813 -3.40754 -0.0999222 0
M  V30 331 H 35.4743 -2.58955 1.51269 0
M  V30 332 H 33.0273 -1.3303 0.820534 0
M  V30 333 H 33.7623 -3.0811 -1.01187 0
M  V30 334 H 33.5473 -3.87889 0.57309 0
M  V30 335 H 35.0373 -4.15898 -0.376645 0
M  V30 336 N 35.4744 -0.807222 -1.35358 0
M  V30 337 C 36.6994 -0.399309 -2.0352 0
M  V30 338 C 37.1244 0.981986 -1.60433 0
M  V30 339 O 36.4824 1.63601 -0.781299 0
M  V30 340 C 36.5304 -0.491552 -3.57234 0
M  V30 341 O 35.6344 0.494754 -4.09421 0
M  V30 342 H 34.9754 -0.166682 -0.642739 0
M  V30 343 H 37.5054 -1.09328 -1.72941 0
M  V30 344 H 37.5154 -0.361588 -4.06395 0
M  V30 345 H 36.1904 -1.49907 -3.87944 0
M  V30 346 H 34.7674 0.324977 -3.71481 0
M  V30 347 N 36.9525 1.47285 -0.560781 0
M  V30 348 C 38.2005 2.02064 -0.0379868 0
M  V30 349 C 38.5215 1.43711 1.31803 0
M  V30 350 O 37.7915 0.61362 1.86042 0
M  V30 351 H 36.3715 0.746918 -0.0110531 0
M  V30 352 H 39.0335 1.80648 -0.731598 0
M  V30 353 H 38.1295 3.12064 0.0474463 0
M  V30 354 N 38.4306 0.297415 1.54768 0
M  V30 355 C 39.3406 -0.58983 2.27064 0
M  V30 356 C 40.3566 -1.15144 1.30453 0
M  V30 357 O 41.5326 -1.17699 1.63428 0
M  V30 358 C 38.5976 -1.74714 2.9946 0
M  V30 359 C 37.6586 -1.21997 4.11601 0
M  V30 360 C 36.8916 -2.32212 4.80535 0
M  V30 361 O 37.1146 -3.52036 4.48806 0
M  V30 362 O 36.0486 -1.99106 5.68014 0
M  V30 363 H 39.8746 -0.00348199 3.037 0
M  V30 364 H 37.4596 0.0640035 1.49263 0
M  V30 365 H 39.3416 -2.42147 3.44881 0
M  V30 366 H 38.0166 -2.32016 2.25722 0
M  V30 367 H 36.9236 -0.511458 3.70587 0
M  V30 368 H 38.2566 -0.692419 4.87305 0
M  V30 369 N 39.9087 -1.5758 0.0250728 0
M  V30 370 C 41.1567 -1.91255 -0.653151 0
M  V30 371 C 41.4777 -0.901691 -1.729 0
M  V30 372 O 40.7477 0.0573785 -1.95816 0
M  V30 373 H 39.3277 -0.705942 -0.244243 0
M  V30 374 H 41.9897 -1.94767 0.0719209 0
M  V30 375 H 41.0857 -2.91752 -1.10847 0
M  V30 376 N 41.3868 0.248026 -1.55636 0
M  V30 377 C 42.3498 1.29044 -1.89421 0
M  V30 378 C 43.3498 1.41134 -0.770581 0
M  V30 379 O 44.5398 1.39854 -1.03858 0
M  V30 380 C 41.6718 2.66831 -2.12165 0
M  V30 381 H 42.8648 1.00305 -2.82629 0
M  V30 382 H 40.4178 0.487265 -1.48511 0
M  V30 383 H 41.1528 3.00711 -1.21422 0
M  V30 384 H 40.9378 2.59438 -2.93997 0
M  V30 385 H 42.4278 3.42103 -2.3949 0
M  V30 386 N 42.8649 1.48995 0.513639 0
M  V30 387 C 44.1129 1.57531 1.26604 0
M  V30 388 C 44.4339 0.258236 1.93283 0
M  V30 389 O 43.7039 -0.721502 1.8213 0
M  V30 390 H 42.2839 0.580387 0.470276 0
M  V30 391 H 44.9459 1.85552 0.596373 0
M  V30 392 H 44.0419 2.36486 2.03669 0
M  V30 393 N 44.343 -0.763751 1.37857 0
M  V30 394 C 45.306 -1.85889 1.34081 0
M  V30 395 C 46.306 -1.58949 0.243277 0
M  V30 396 O 47.496 -1.66882 0.499589 0
M  V30 397 C 44.628 -3.23176 1.08489 0
M  V30 398 H 45.821 -1.90648 2.31502 0
M  V30 399 H 43.374 -0.964367 1.23003 0
M  V30 400 H 44.109 -3.24091 0.116318 0
M  V30 401 H 43.894 -3.44124 1.8794 0
M  V30 402 H 45.384 -4.03254 1.08517 0
M  V30 403 N 45.8211 -1.22559 -0.990812 0
M  V30 404 C 47.0691 -1.04933 -1.72724 0
M  V30 405 C 47.3901 0.416158 -1.90508 0
M  V30 406 O 46.6601 1.29918 -1.46622 0
M  V30 407 H 45.2401 -0.385296 -0.639965 0
M  V30 408 H 47.9021 -1.54105 -1.19322 0
M  V30 409 H 46.9981 -1.52886 -2.72089 0
M  V30 410 N 47.2992 1.18797 -1.03562 0
M  V30 411 C 48.2292 2.24472 -0.643019 0
M  V30 412 C 49.2102 1.66433 0.351283 0
M  V30 413 O 50.3952 1.92803 0.232505 0
M  V30 414 C 47.5252 3.473 4.24935e-05 0
M  V30 415 C 46.4792 4.18055 -0.917257 0
M  V30 416 C 45.8052 5.34519 -0.138941 0
M  V30 417 C 47.1052 4.72109 -2.23407 0
M  V30 418 H 48.7992 2.57566 -1.52643 0
M  V30 419 H 46.3452 1.23806 -0.735394 0
M  V30 420 H 48.2982 4.20426 0.286383 0
M  V30 421 H 47.0222 3.13424 0.918299 0
M  V30 422 H 45.6812 3.46821 -1.1879 0
M  V30 423 H 45.3292 4.96891 0.781562 0
M  V30 424 H 45.0292 5.82794 -0.750005 0
M  V30 425 H 46.5532 6.10438 0.1405 0
M  V30 426 H 47.9672 5.36955 -2.00879 0
M  V30 427 H 46.3642 5.30897 -2.79765 0
M  V30 428 H 47.4342 3.89807 -2.88407 0
M  V30 429 N 48.7773 0.814389 1.34928 0
M  V30 430 C 50.1883 0.458364 1.80986 0
M  V30 431 C 50.5393 -1.02042 1.67577 0
M  V30 432 O 49.6643 -1.79352 1.21086 0
M  V30 433 C 50.2593 0.825212 3.28597 0
M  V30 434 C 48.8183 0.521677 3.72767 0
M  V30 435 C 47.9653 1.04668 2.56788 0
M  V30 436 H 50.9163 1.00533 1.22795 0
M  V30 437 H 50.9373 0.12571 3.80292 0
M  V30 438 H 50.4493 1.90154 3.38324 0
M  V30 439 H 48.5503 -0.545589 3.68584 0
M  V30 440 H 48.6633 1.05977 4.67232 0
M  V30 441 H 47.0273 0.468622 2.50352 0
M  V30 442 H 47.8103 2.12927 2.6929 0
M  V30 443 N 50.2554 -1.46986 0.568584 0
M  V30 444 C 51.2184 -2.28624 -0.162366 0
M  V30 445 C 52.2184 -1.37596 -0.832103 0
M  V30 446 O 53.4084 -1.60115 -0.68622 0
M  V30 447 C 50.5404 -3.17596 -1.23878 0
M  V30 448 H 51.7334 -2.94722 0.554899 0
M  V30 449 H 49.2864 -1.52863 0.325976 0
M  V30 450 H 50.0214 -2.56214 -1.98808 0
M  V30 451 H 49.8064 -3.846 -0.763219 0
M  V30 452 H 51.2964 -3.79078 -1.75185 0
M  V30 453 N 51.7335 -0.305618 -1.54608 0
M  V30 454 C 52.6635 0.561482 -2.26649 0
M  V30 455 C 53.6445 1.13415 -1.26772 0
M  V30 456 O 54.8295 1.16262 -1.55553 0
M  V30 457 C 51.9595 1.73122 -3.01075 0
M  V30 458 C 50.9135 1.2887 -4.08138 0
M  V30 459 C 50.2395 2.54396 -4.70305 0
M  V30 460 C 51.5395 0.416578 -5.20636 0
M  V30 461 H 53.2335 -0.0393902 -2.99374 0
M  V30 462 H 50.7795 -0.020385 -1.43986 0
M  V30 463 H 52.7325 2.34396 -3.50195 0
M  V30 464 H 51.4565 2.3584 -2.25936 0
M  V30 465 H 50.1155 0.698991 -3.59875 0
M  V30 466 H 49.7635 3.15439 -3.918 0
M  V30 467 H 49.4635 2.25486 -5.42614 0
M  V30 468 H 50.9875 3.16464 -5.2219 0
M  V30 469 H 52.4015 0.935116 -5.65622 0
M  V30 470 H 50.7985 0.221046 -5.99693 0
M  V30 471 H 51.8685 -0.557162 -4.81688 0
M  V30 472 N 53.2116 1.57565 -0.0334293 0
M  V30 473 C 54.4886 1.83282 0.683163 0
M  V30 474 C 54.8686 0.91823 1.90084 0
M  V30 475 O 54.2166 -0.025113 2.28486 0
M  V30 476 C 54.4266 3.32599 1.0573 0
M  V30 477 C 55.7746 3.99179 1.44711 0
M  V30 478 O 56.7986 3.3712 1.15015 0
M  V30 479 O 55.6576 5.08565 2.0006 0
M  V30 480 H 52.7516 0.755869 0.335546 0
M  V30 481 H 55.2976 1.69589 -0.0614402 0
M  V30 482 H 54.0696 3.90834 0.190828 0
M  V30 483 H 53.6926 3.51415 1.85993 0
M  V30 484 N 54.6897 -0.239769 1.55765 0
M  V30 485 C 55.6197 -1.30052 1.9393 0
M  V30 486 C 56.6007 -1.49839 0.805132 0
M  V30 487 O 57.7857 -1.62328 1.06599 0
M  V30 488 C 54.9157 -2.65391 2.2402 0
M  V30 489 C 53.8697 -2.60289 3.39755 0
M  V30 490 C 53.1957 -3.99489 3.55405 0
M  V30 491 C 54.4957 -2.16654 4.75246 0
M  V30 492 H 56.1897 -0.983573 2.82783 0
M  V30 493 H 53.7357 -0.471701 1.36055 0
M  V30 494 H 55.6887 -3.3974 2.49308 0
M  V30 495 H 54.4127 -2.98736 1.32 0
M  V30 496 H 53.0717 -1.88398 3.14487 0
M  V30 497 H 52.7197 -4.30112 2.60793 0
M  V30 498 H 52.4197 -3.96962 4.33238 0
M  V30 499 H 53.9437 -4.75528 3.83022 0
M  V30 500 H 55.3577 -2.80737 4.99859 0
M  V30 501 H 53.7547 -2.25223 5.56232 0
M  V30 502 H 54.8247 -1.11835 4.71827 0
M  V30 503 N 56.1678 -1.49265 -0.50573 0
M  V30 504 C 57.1308 -1.65075 -1.59006 0
M  V30 505 C 58.1308 -0.522768 -1.52065 0
M  V30 506 O 59.3208 -0.789117 -1.55302 0
M  V30 507 C 56.4528 -1.64369 -2.98656 0
M  V30 508 H 57.6458 -2.61784 -1.46319 0
M  V30 509 H 55.1988 -1.38226 -0.729616 0
M  V30 510 H 55.9338 -0.692272 -3.16825 0
M  V30 511 H 55.7188 -2.46282 -3.05103 0
M  V30 512 H 57.2088 -1.78674 -3.77446 0
M  V30 513 N 57.6459 0.756429 -1.3826 0
M  V30 514 C 58.5929 1.87011 -1.35261 0
M  V30 515 C 59.5629 1.64695 -0.215616 0
M  V30 516 O 60.7479 1.864 -0.407399 0
M  V30 517 C 57.8879 3.24275 -1.18068 0
M  V30 518 C 57.0009 3.58442 -2.41129 0
M  V30 519 C 56.1359 4.84994 -2.16689 0
M  V30 520 C 55.1749 5.11939 -3.35537 0
M  V30 521 N 54.3119 6.29685 -3.10549 0
M  V30 522 H 59.1519 1.8891 -2.30472 0
M  V30 523 H 56.6889 0.923373 -1.14509 0
M  V30 524 H 58.6469 4.03479 -1.06116 0
M  V30 525 H 57.2769 3.21711 -0.264973 0
M  V30 526 H 56.3289 2.74103 -2.63764 0
M  V30 527 H 57.6409 3.74283 -3.29717 0
M  V30 528 H 56.7949 5.72135 -2.01857 0
M  V30 529 H 55.5339 4.71286 -1.25462 0
M  V30 530 H 54.5389 4.23268 -3.50891 0
M  V30 531 H 55.7639 5.27546 -4.27635 0
M  V30 532 H 53.7099 6.17306 -2.21967 0
M  V30 533 H 53.6269 6.46014 -3.92686 0
M  V30 534 H 54.8949 7.19722 -2.99367 0
M  V30 535 N 59.124 1.23083 0.984299 0
M  V30 536 C 60.087 1.00979 2.05757 0
M  V30 537 C 61.087 -0.0269573 1.60777 0
M  V30 538 O 62.277 0.212403 1.729 0
M  V30 539 C 59.409 0.527072 3.36801 0
M  V30 540 H 60.602 1.9622 2.26799 0
M  V30 541 H 58.155 1.05072 1.15714 0
M  V30 542 H 58.89 -0.429294 3.21446 0
M  V30 543 H 58.675 1.27515 3.70786 0
M  V30 544 H 60.165 0.392942 4.15747 0
M  V30 545 N 60.6021 -1.18246 1.0419 0
M  V30 546 C 61.5341 -2.2142 0.592088 0
M  V30 547 C 62.5471 -1.59233 -0.338909 0
M  V30 548 O 63.7361 -1.78002 -0.133231 0
M  V30 549 C 60.8361 -3.38546 -0.154854 0
M  V30 550 C 60.0091 -4.3031 0.784328 0
M  V30 551 C 59.0681 -5.26138 0.0804583 0
M  V30 552 O 58.0941 -5.64738 0.711292 0
M  V30 553 N 59.2961 -5.68261 -1.18574 0
M  V30 554 H 62.0611 -2.60636 1.47949 0
M  V30 555 H 59.6221 -1.33044 0.922544 0
M  V30 556 H 61.6141 -3.99678 -0.635606 0
M  V30 557 H 60.1841 -2.98012 -0.943811 0
M  V30 558 H 59.4041 -3.66764 1.44491 0
M  V30 559 H 60.6921 -4.8852 1.42218 0
M  V30 560 H 60.0901 -5.38957 -1.71876 0
M  V30 561 H 58.6471 -6.31584 -1.61074 0
M  V30 562 N 62.0802 -0.821533 -1.34494 0
M  V30 563 C 63.4962 -0.507117 -1.51329 0
M  V30 564 C 63.6962 0.968964 -1.76673 0
M  V30 565 O 62.7522 1.75348 -1.81685 0
M  V30 566 C 64.0652 -1.36544 -2.67911 0
M  V30 567 C 65.6132 -1.36242 -2.81793 0
M  V30 568 C 66.0882 -2.2052 -4.01416 0
M  V30 569 N 67.5792 -2.18136 -4.08621 0
M  V30 570 C 68.3142 -2.80095 -5.00334 0
M  V30 571 N 67.8102 -3.51039 -5.9728 0
M  V30 572 N 69.6032 -2.69656 -4.93196 0
M  V30 573 H 61.7542 -1.77729 -1.16302 0
M  V30 574 H 64.0172 -0.757291 -0.570276 0
M  V30 575 H 63.7232 -2.41361 -2.55808 0
M  V30 576 H 63.5972 -1.02917 -3.62888 0
M  V30 577 H 65.9842 -0.322041 -2.93338 0
M  V30 578 H 66.0652 -1.73866 -1.87628 0
M  V30 579 H 65.7092 -3.24607 -3.90631 0
M  V30 580 H 65.6392 -1.80247 -4.94791 0
M  V30 581 H 68.1302 -1.6653 -3.39229 0
M  V30 582 H 68.4432 -3.95565 -6.63889 0
M  V30 583 H 66.7882 -3.55145 -5.97409 0
M  V30 584 H 69.9792 -2.13808 -4.16418 0
M  V30 585 H 70.1522 -3.1823 -5.64476 0
M  V30 586 N 63.5583 1.46682 -0.576371 0
M  V30 587 C 64.4683 2.34032 0.163141 0
M  V30 588 C 65.4843 1.49367 0.892501 0
M  V30 589 O 66.6603 1.82252 0.857106 0
M  V30 590 C 63.7253 3.26435 1.16795 0
M  V30 591 C 62.7863 4.26998 0.443944 0
M  V30 592 C 62.0193 5.14986 1.40088 0
M  V30 593 O 62.2423 5.05785 2.637 0
M  V30 594 O 61.1763 5.94906 0.914917 0
M  V30 595 H 65.0023 2.98607 -0.55388 0
M  V30 596 H 62.5873 1.45554 -0.336821 0
M  V30 597 H 64.4693 3.83459 1.74748 0
M  V30 598 H 63.1443 2.64465 1.86655 0
M  V30 599 H 62.0513 3.7368 -0.177271 0
M  V30 600 H 63.3843 4.91736 -0.213566 0
M  V30 601 N 65.0364 0.313813 1.54444 0
M  V30 602 C 65.9864 -0.571898 2.20711 0
M  V30 603 C 66.9704 -1.08913 1.18435 0
M  V30 604 O 68.1624 -1.02777 1.44104 0
M  V30 605 C 65.2914 -1.7371 2.96108 0
M  V30 606 C 64.3774 -1.23522 4.05713 0
M  V30 607 N 64.7684 -0.452288 5.03774 0
M  V30 608 C 63.0664 -1.51482 4.19487 0
M  V30 609 C 63.7674 -0.183438 5.81411 0
M  V30 610 N 62.7434 -0.766845 5.38164 0
M  V30 611 H 66.5454 0.0336802 2.93881 0
M  V30 612 H 64.0594 0.119192 1.61962 0
M  V30 613 H 66.0564 -2.38329 3.4206 0
M  V30 614 H 64.7164 -2.34625 2.24458 0
M  V30 615 H 65.7274 -0.0960131 5.17811 0
M  V30 616 H 62.4044 -2.13053 3.59047 0
M  V30 617 H 63.7944 0.446216 6.70417 0
M  V30 618 N 66.5145 -1.57545 0.0417849 0
M  V30 619 C 67.7625 -1.91937 -0.632829 0
M  V30 620 C 68.0835 -0.919978 -1.71934 0
M  V30 621 O 67.3535 0.0366064 -1.95866 0
M  V30 622 H 65.9335 -0.708493 -0.236742 0
M  V30 623 H 68.5955 -1.9468 0.0925745 0
M  V30 624 H 67.6915 -2.92912 -1.07746 0
M  V30 625 N 67.9926 0.231505 -1.5589 0
M  V30 626 C 69.2386 0.95877 -1.78705 0
M  V30 627 C 69.5716 1.8438 -0.609725 0
M  V30 628 O 68.8466 1.90521 0.391426 0
M  V30 629 C 69.1296 1.8062 -3.11526 0
M  V30 630 C 68.9826 0.948328 -4.39689 0
M  V30 631 C 70.3016 2.78585 -3.40703 0
M  V30 632 H 67.4206 0.347129 -0.650131 0
M  V30 633 H 70.0626 0.228259 -1.88624 0
M  V30 634 H 68.2126 2.42902 -3.03201 0
M  V30 635 H 69.8846 0.343016 -4.60023 0
M  V30 636 H 68.1276 0.253314 -4.3306 0
M  V30 637 H 68.7986 1.57543 -5.29041 0
M  V30 638 H 71.2746 2.26439 -3.49091 0
M  V30 639 H 70.1506 3.34988 -4.34826 0
M  V30 640 H 70.4116 3.55825 -2.62375 0
M  V30 641 N 69.4707 1.49531 0.497807 0
M  V30 642 C 70.4007 1.6935 1.60757 0
M  V30 643 C 71.3817 0.542218 1.61227 0
M  V30 644 O 72.5667 0.778417 1.77917 0
M  V30 645 C 69.6967 1.76298 2.99226 0
M  V30 646 C 68.6507 2.91248 3.13622 0
M  V30 647 C 67.9767 2.83312 4.53474 0
M  V30 648 C 69.2767 4.3214 2.93346 0
M  V30 649 H 70.9707 2.62263 1.44425 0
M  V30 650 H 68.5167 1.26208 0.693367 0
M  V30 651 H 70.4697 1.88749 3.76765 0
M  V30 652 H 69.1937 0.799871 3.16654 0
M  V30 653 H 67.8527 2.78404 2.38509 0
M  V30 654 H 67.5007 1.84902 4.67782 0
M  V30 655 H 67.2007 3.60465 4.64046 0
M  V30 656 H 68.7247 2.97775 5.33069 0
M  V30 657 H 70.1387 4.45649 3.60652 0
M  V30 658 H 68.5357 5.1054 3.15387 0
M  V30 659 H 69.6057 4.46363 1.89441 0
M  V30 660 N 70.9488 -0.749086 1.3866 0
M  V30 661 C 72.1968 -1.50535 1.34847 0
M  V30 662 C 72.5178 -1.94909 -0.0595016 0
M  V30 663 O 71.7878 -1.67973 -1.00806 0
M  V30 664 H 70.3678 -0.558395 0.49619 0
M  V30 665 H 73.0298 -0.890165 1.73384 0
M  V30 666 H 72.1258 -2.39413 2.00219 0
M  V30 667 N 72.4269 -1.23603 -0.977757 0
M  V30 668 C 73.6749 -1.06759 -1.71601 0
M  V30 669 C 73.9959 0.395929 -1.90938 0
M  V30 670 O 73.2659 1.28356 -1.47992 0
M  V30 671 H 71.8459 -0.392062 -0.635843 0
M  V30 672 H 74.5079 -1.55362 -1.1768 0
M  V30 673 H 73.6039 -1.55763 -2.70452 0
M  V30 674 N 73.905 1.17692 -1.04816 0
M  V30 675 C 74.852 2.21581 -0.645797 0
M  V30 676 C 75.822 1.62367 0.350159 0
M  V30 677 O 77.007 1.89254 0.242433 0
M  V30 678 C 74.147 3.45092 -0.0227568 0
M  V30 679 C 73.26 4.18613 -1.06709 0
M  V30 680 C 72.395 5.29602 -0.411767 0
M  V30 681 C 71.434 5.94904 -1.44067 0
M  V30 682 N 70.571 6.97414 -0.809781 0
M  V30 683 H 75.411 2.55353 -1.5362 0
M  V30 684 H 72.948 1.25438 -0.768364 0
M  V30 685 H 74.906 4.15679 0.35588 0
M  V30 686 H 73.536 3.11917 0.831122 0
M  V30 687 H 72.588 3.46779 -1.5636 0
M  V30 688 H 73.9 4.63293 -1.84827 0
M  V30 689 H 73.054 6.06696 0.0206623 0
M  V30 690 H 71.793 4.86045 0.401438 0
M  V30 691 H 70.798 5.16544 -1.88316 0
M  V30 692 H 72.023 6.40542 -2.25571 0
M  V30 693 H 69.969 6.55998 -0.0170186 0
M  V30 694 H 69.886 7.40386 -1.52856 0
M  V30 695 H 71.154 7.78463 -0.401999 0
M  V30 696 N 75.3831 0.828654 1.34056 0
M  V30 697 C 76.3131 0.269443 2.3194 0
M  V30 698 C 77.2941 -0.617247 1.58506 0
M  V30 699 O 78.4791 -0.542931 1.86456 0
M  V30 700 C 75.6091 -0.564793 3.42677 0
M  V30 701 C 74.5631 0.225241 4.27407 0
M  V30 702 C 73.8891 -0.7321 5.29664 0
M  V30 703 C 75.1891 1.43663 5.02154 0
M  V30 704 H 76.8831 1.08728 2.7896 0
M  V30 705 H 74.4291 0.524283 1.34117 0
M  V30 706 H 76.3821 -0.966233 4.10173 0
M  V30 707 H 75.1061 -1.41574 2.9432 0
M  V30 708 H 73.7651 0.608117 3.61521 0
M  V30 709 H 73.4131 -1.57916 4.77568 0
M  V30 710 H 73.1131 -0.20767 5.87233 0
M  V30 711 H 74.6371 -1.13128 6.00029 0
M  V30 712 H 76.0511 1.1089 5.62473 0
M  V30 713 H 74.4481 1.89711 5.69324 0
M  V30 714 H 75.5181 2.21181 4.31517 0
M  V30 715 N 76.8612 -1.46375 0.584142 0
M  V30 716 C 78.2772 -1.57694 0.245929 0
M  V30 717 C 78.4772 -1.57903 -1.25175 0
M  V30 718 O 77.5332 -1.49676 -2.03355 0
M  V30 719 C 78.8462 -2.87028 0.896402 0
M  V30 720 C 80.3942 -3.00662 0.870127 0
M  V30 721 C 80.8692 -4.32734 1.50017 0
M  V30 722 N 82.3602 -4.39436 1.46458 0
M  V30 723 C 83.0952 -5.40248 1.92144 0
M  V30 724 N 82.5912 -6.47726 2.4581 0
M  V30 725 N 84.3842 -5.31459 1.83052 0
M  V30 726 H 76.5352 -1.44483 1.55687 0
M  V30 727 H 78.7982 -0.689291 0.650831 0
M  V30 728 H 78.5042 -2.9269 1.95002 0
M  V30 729 H 78.3782 -3.75014 0.405486 0
M  V30 730 H 80.7652 -2.94581 -0.174871 0
M  V30 731 H 80.8462 -2.14148 1.39908 0
M  V30 732 H 80.4902 -4.39573 2.54437 0
M  V30 733 H 80.4202 -5.18025 0.946432 0
M  V30 734 H 82.9112 -3.62367 1.07231 0
M  V30 735 H 83.2242 -7.20863 2.78525 0
M  V30 736 H 81.5692 -6.48542 2.49836 0
M  V30 737 H 84.7602 -4.46396 1.40883 0
M  V30 738 H 84.9332 -6.09881 2.18973 0
M  V30 739 N 78.3393 -0.321999 -1.54275 0
M  V30 740 C 79.2713 0.578671 -2.21775 0
M  V30 741 C 80.2843 1.08109 -1.21722 0
M  V30 742 O 81.4733 0.994938 -1.482 0
M  V30 743 C 78.5733 1.80661 -2.86731 0
M  V30 744 C 77.7463 1.44314 -4.12907 0
M  V30 745 C 76.8053 2.52845 -4.61472 0
M  V30 746 O 75.8313 2.17054 -5.2619 0
M  V30 747 N 77.0333 3.83748 -4.35566 0
M  V30 748 H 79.7983 0.000709447 -2.997 0
M  V30 749 H 77.3593 -0.145132 -1.61248 0
M  V30 750 H 79.3513 2.52655 -3.16145 0
M  V30 751 H 77.9213 2.29245 -2.12521 0
M  V30 752 H 77.1413 0.554906 -3.90275 0
M  V30 753 H 78.4293 1.17598 -4.95023 0
M  V30 754 H 77.8273 4.15625 -3.83761 0
M  V30 755 H 76.3843 4.51977 -4.69638 0
M  V30 756 N 79.8174 1.5752 -0.0501392 0
M  V30 757 C 81.2334 1.56631 0.306402 0
M  V30 758 C 81.4334 1.0577 1.71508 0
M  V30 759 O 80.4894 0.713837 2.422 0
M  V30 760 C 81.8024 3.00393 0.135811 0
M  V30 761 C 83.3504 3.12315 0.206993 0
M  V30 762 C 83.8254 4.57954 0.064944 0
M  V30 763 N 85.3164 4.63041 0.121254 0
M  V30 764 C 86.0514 5.73389 0.0354381 0
M  V30 765 N 85.5474 6.92724 -0.102666 0
M  V30 766 N 87.3404 5.62026 0.090946 0
M  V30 767 H 79.4914 1.88903 -0.971046 0
M  V30 768 H 81.7544 0.869876 -0.376855 0
M  V30 769 H 81.4604 3.41635 -0.835384 0
M  V30 770 H 81.3344 3.66373 0.897275 0
M  V30 771 H 83.7214 2.70973 1.16866 0
M  V30 772 H 83.8024 2.49016 -0.585208 0
M  V30 773 H 83.4464 4.99981 -0.893394 0
M  V30 774 H 83.3764 5.19258 0.876277 0
M  V30 775 H 85.8674 3.77216 0.227284 0
M  V30 776 H 86.1804 7.72633 -0.160882 0
M  V30 777 H 84.5254 6.94864 -0.137737 0
M  V30 778 H 87.7164 4.67684 0.197388 0
M  V30 779 H 87.8894 6.47997 0.0206089 0
M  V30 780 N 81.2955 -0.223234 1.56011 0
M  V30 781 C 82.2255 -1.27988 1.95298 0
M  V30 782 C 83.2065 -1.48976 0.820979 0
M  V30 783 O 84.3915 -1.61188 1.08315 0
M  V30 784 C 81.5215 -2.63 2.26822 0
M  V30 785 C 80.4755 -2.56671 3.42497 0
M  V30 786 C 79.8015 -3.95697 3.59622 0
M  V30 787 C 81.1015 -2.11601 4.77517 0
M  V30 788 H 82.7955 -0.953525 2.8381 0
M  V30 789 H 80.3415 -0.457244 1.36548 0
M  V30 790 H 82.2945 -3.37077 2.52898 0
M  V30 791 H 81.0185 -2.9732 1.35161 0
M  V30 792 H 79.6775 -1.85051 3.16467 0
M  V30 793 H 79.3255 -4.27322 2.6534 0
M  V30 794 H 79.0255 -3.92345 4.37424 0
M  V30 795 H 80.5495 -4.71438 3.88044 0
M  V30 796 H 81.9635 -2.7542 5.02809 0
M  V30 797 H 80.3605 -2.19311 5.5859 0
M  V30 798 H 81.4305 -1.06824 4.72987 0
M  V30 799 N 82.7736 -1.49793 -0.48987 0
M  V30 800 C 84.0216 -1.59525 -1.24081 0
M  V30 801 C 84.3426 -0.288953 -1.92847 0
M  V30 802 O 83.6126 0.692436 -1.83254 0
M  V30 803 H 82.1926 -0.587796 -0.460983 0
M  V30 804 H 84.8546 -1.86477 -0.566778 0
M  V30 805 H 83.9506 -2.39696 -1.99881 0
M  V30 806 N 84.2517 0.741722 -1.39055 0
M  V30 807 C 85.1817 1.869 -1.39966 0
M  V30 808 C 86.1627 1.6804 -0.26392 0
M  V30 809 O 87.3477 1.88458 -0.468755 0
M  V30 810 C 84.4777 3.24572 -1.23574 0
M  V30 811 C 83.4317 3.58056 -2.34477 0
M  V30 812 C 82.7577 4.94593 -2.0318 0
M  V30 813 C 84.0577 3.61716 -3.76774 0
M  V30 814 H 85.7517 1.86395 -2.34302 0
M  V30 815 H 83.2977 0.895361 -1.1278 0
M  V30 816 H 85.2507 4.031 -1.22834 0
M  V30 817 H 83.9747 3.25587 -0.257045 0
M  V30 818 H 82.6337 2.81854 -2.34423 0
M  V30 819 H 82.2817 4.92181 -1.03765 0
M  V30 820 H 81.9817 5.17964 -2.77465 0
M  V30 821 H 83.5057 5.75486 -2.04079 0
M  V30 822 H 84.9197 4.30335 -3.78794 0
M  V30 823 H 83.3167 3.96603 -4.50362 0
M  V30 824 H 84.3867 2.61672 -4.08235 0
M  V30 825 N 85.7298 1.2412 0.971189 0
M  V30 826 C 86.6618 0.988349 2.06795 0
M  V30 827 C 87.6748 -0.0409541 1.62748 0
M  V30 828 O 88.8638 0.195673 1.77424 0
M  V30 829 C 85.9638 0.469023 3.35639 0
M  V30 830 C 85.1368 1.56065 4.08611 0
M  V30 831 C 84.1958 1.04458 5.15728 0
M  V30 832 O 83.2218 1.73553 5.42096 0
M  V30 833 N 84.4238 -0.122817 5.8037 0
M  V30 834 H 87.1888 1.93265 2.29061 0
M  V30 835 H 84.7498 1.15102 1.13856 0
M  V30 836 H 86.7418 0.108613 4.04554 0
M  V30 837 H 85.3118 -0.380919 3.1027 0
M  V30 838 H 84.5318 2.09341 3.34021 0
M  V30 839 H 85.8198 2.29449 4.54126 0
M  V30 840 H 85.2178 -0.700563 5.61345 0
M  V30 841 H 83.7748 -0.424404 6.50417 0
M  V30 842 N 87.2079 -1.17134 1.05439 0
M  V30 843 C 88.1379 -2.2342 0.678649 0
M  V30 844 C 89.1189 -1.66971 -0.32476 0
M  V30 845 O 90.3039 -1.93149 -0.201802 0
M  V30 846 C 87.4339 -3.47256 0.0552099 0
M  V30 847 C 86.3879 -4.16543 0.98365 0
M  V30 848 C 85.7139 -5.34231 0.223961 0
M  V30 849 C 87.0139 -4.68495 2.3089 0
M  V30 850 H 88.7079 -2.55105 1.56722 0
M  V30 851 H 86.2539 -1.2262 0.754998 0
M  V30 852 H 88.2069 -4.20828 -0.21946 0
M  V30 853 H 86.9309 -3.14846 -0.868319 0
M  V30 854 H 85.5899 -3.44887 1.24293 0
M  V30 855 H 85.2379 -4.98071 -0.702412 0
M  V30 856 H 84.9379 -5.81527 0.842627 0
M  V30 857 H 86.4619 -6.10585 -0.0433671 0
M  V30 858 H 87.8759 -5.33691 2.09396 0
M  V30 859 H 86.2729 -5.26379 2.88176 0
M  V30 860 H 87.3429 -3.85169 2.94572 0
M  V30 861 N 88.686 -0.835752 -1.33615 0
M  V30 862 C 89.616 -0.281739 -2.31794 0
M  V30 863 C 90.597 0.608833 -1.58831 0
M  V30 864 O 91.782 0.533035 -1.86741 0
M  V30 865 C 88.912 0.546612 -3.42971 0
M  V30 866 C 87.866 -0.247904 -4.27281 0
M  V30 867 C 87.192 0.704001 -5.30045 0
M  V30 868 C 88.492 -1.46324 -5.01385 0
M  V30 869 H 90.186 -1.10206 -2.78379 0
M  V30 870 H 87.732 -0.531388 -1.33837 0
M  V30 871 H 89.685 0.944467 -4.1068 0
M  V30 872 H 88.409 1.40011 -2.95067 0
M  V30 873 H 87.068 -0.627281 -3.61194 0
M  V30 874 H 86.716 1.55381 -4.78399 0
M  V30 875 H 86.416 0.176524 -5.87335 0
M  V30 876 H 87.94 1.09944 -6.0062 0
M  V30 877 H 89.354 -1.13871 -5.61877 0
M  V30 878 H 87.751 -1.92728 -5.6831 0
M  V30 879 H 88.821 -2.23467 -4.30338 0
M  V30 880 N 90.1641 1.46063 -0.591896 0
M  V30 881 C 91.0741 2.34192 0.13831 0
M  V30 882 C 92.0901 1.50305 0.876608 0
M  V30 883 O 93.2661 1.8315 0.837728 0
M  V30 884 C 90.3311 3.27656 1.13326 0
M  V30 885 C 89.3921 4.27445 0.39863 0
M  V30 886 C 88.6251 5.16443 1.34618 0
M  V30 887 O 88.8481 5.08553 2.58321 0
M  V30 888 O 87.7821 5.95843 0.851768 0
M  V30 889 H 91.6081 2.98002 -0.58552 0
M  V30 890 H 89.1931 1.45188 -0.352239 0
M  V30 891 H 91.0751 3.85291 1.70671 0
M  V30 892 H 89.7501 2.6643 1.83839 0
M  V30 893 H 88.6571 3.73471 -0.216895 0
M  V30 894 H 89.9901 4.91482 -0.265709 0
M  V30 895 N 91.6422 0.330177 1.54103 0
M  V30 896 C 92.5722 -0.525353 2.27513 0
M  V30 897 C 93.5532 -1.11383 1.2856 0
M  V30 898 O 94.7382 -1.13773 1.57383 0
M  V30 899 C 91.8682 -1.6831 3.03791 0
M  V30 900 C 90.8222 -1.2236 4.10137 0
M  V30 901 C 90.1482 -2.46882 4.74293 0
M  V30 902 C 91.4482 -0.333697 5.21233 0
M  V30 903 H 93.1422 0.087013 2.99274 0
M  V30 904 H 90.6882 0.0432893 1.43935 0
M  V30 905 H 92.6412 -2.28795 3.5388 0
M  V30 906 H 91.3652 -2.32216 2.29659 0
M  V30 907 H 90.0242 -0.64165 3.60941 0
M  V30 908 H 89.6722 -3.09165 3.96769 0
M  V30 909 H 89.3722 -2.16825 5.46133 0
M  V30 910 H 90.8962 -3.08117 5.27159 0
M  V30 911 H 92.3102 -0.845013 5.67038 0
M  V30 912 H 90.7072 -0.125612 5.99969 0
M  V30 913 H 91.7772 0.633724 4.80741 0
M  V30 914 N 93.1203 -1.57491 0.0584922 0
M  V30 915 C 94.5313 -1.80526 -0.476138 0
M  V30 916 C 94.8823 -0.971334 -1.70469 0
M  V30 917 O 94.0073 -0.190012 -2.15564 0
M  V30 918 C 94.6023 -3.27424 -0.870587 0
M  V30 919 C 93.1613 -3.51351 -1.35015 0
M  V30 920 C 92.3083 -2.75343 -0.32887 0
M  V30 921 H 95.2593 -1.56133 0.284312 0
M  V30 922 H 95.2803 -3.38745 -1.73299 0
M  V30 923 H 94.7923 -3.88093 0.0237627 0
M  V30 924 H 92.8933 -2.95971 -2.26345 0
M  V30 925 H 93.0063 -4.60059 -1.33726 0
M  V30 926 H 91.3703 -2.417 -0.803321 0
M  V30 927 H 92.1533 -3.38743 0.557521 0
M  V30 928 N 94.5984 0.214957 -1.56127 0
M  V30 929 C 96.0094 0.781386 -1.69562 0
M  V30 930 C 96.3604 1.84707 -0.66165 0
M  V30 931 O 95.4854 2.156 0.185927 0
M  V30 932 C 96.0804 1.42411 -3.07416 0
M  V30 933 C 94.6394 1.93786 -3.22683 0
M  V30 934 C 93.7864 0.800438 -2.65496 0
M  V30 935 H 96.7374 -0.00980633 -1.58697 0
M  V30 936 H 96.7584 2.29309 -3.0364 0
M  V30 937 H 96.2704 0.64826 -3.82648 0
M  V30 938 H 94.3714 2.74152 -2.52332 0
M  V30 939 H 94.4844 2.1133 -4.29973 0
M  V30 940 H 92.8484 1.2095 -2.2415 0
M  V30 941 H 93.6314 0.0371471 -3.4328 0
M  V30 942 N 96.0765 1.50051 0.48192 0
M  V30 943 C 96.9865 1.7089 1.60728 0
M  V30 944 C 98.0025 0.591788 1.63627 0
M  V30 945 O 99.1785 0.868817 1.81696 0
M  V30 946 C 96.2435 1.78855 2.97005 0
M  V30 947 C 95.3045 3.02537 3.04581 0
M  V30 948 C 94.5375 3.10112 4.34357 0
M  V30 949 O 94.7605 2.24765 5.24249 0
M  V30 950 O 93.6945 4.02747 4.47301 0
M  V30 951 H 97.5205 2.66264 1.46072 0
M  V30 952 H 95.1055 1.34018 0.660264 0
M  V30 953 H 96.9875 1.86336 3.77964 0
M  V30 954 H 95.6625 0.866628 3.11883 0
M  V30 955 H 94.5695 3.00563 2.22739 0
M  V30 956 H 95.9025 3.94272 2.94636 0
M  V30 957 N 97.5546 -0.734337 1.39446 0
M  V30 958 C 98.4646 -1.87879 1.40495 0
M  V30 959 C 99.4806 -1.714 0.299672 0
M  V30 960 O 100.657 -1.93991 0.541249 0
M  V30 961 C 97.7216 -3.23477 1.24754 0
M  V30 962 C 96.7826 -3.52344 2.45259 0
M  V30 963 C 96.0156 -4.81473 2.30259 0
M  V30 964 O 96.2386 -5.55237 1.30643 0
M  V30 965 O 95.1726 -5.10254 3.19256 0
M  V30 966 H 98.9986 -1.89949 2.36966 0
M  V30 967 H 96.5836 -0.882243 1.20569 0
M  V30 968 H 98.4656 -4.04509 1.18111 0
M  V30 969 H 97.1406 -3.22176 0.313781 0
M  V30 970 H 96.0476 -2.71396 2.57478 0
M  V30 971 H 97.3806 -3.58426 3.37331 0
M  V30 972 N 99.0327 -1.24633 -0.964593 0
M  V30 973 C 100.258 -1.11596 -1.74818 0
M  V30 974 C 100.683 0.32723 -1.85232 0
M  V30 975 O 100.041 1.23695 -1.32549 0
M  V30 976 C 100.089 -1.76397 -3.1451 0
M  V30 977 O 99.1927 -1.03685 -3.99153 0
M  V30 978 H 98.5337 -0.390196 -0.537255 0
M  V30 979 H 101.064 -1.65002 -1.20977 0
M  V30 980 H 101.074 -1.8228 -3.65018 0
M  V30 981 H 99.7487 -2.81401 -3.06246 0
M  V30 982 H 98.3257 -1.05611 -3.57632 0
M  V30 983 N 100.511 1.16574 -1.06058 0
M  V30 984 C 101.441 2.23057 -0.690488 0
M  V30 985 C 102.422 1.67141 0.315901 0
M  V30 986 O 103.607 1.93253 0.191556 0
M  V30 987 C 100.737 3.47222 -0.073625 0
M  V30 988 C 99.6908 4.16016 -1.00573 0
M  V30 989 C 99.0168 5.34104 -0.252289 0
M  V30 990 C 100.317 4.67264 -2.33371 0
M  V30 991 H 102.011 2.54271 -1.58072 0
M  V30 992 H 99.5568 1.22218 -0.76149 0
M  V30 993 H 101.51 4.20939 0.19714 0
M  V30 994 H 100.234 3.15302 0.85161 0
M  V30 995 H 98.8928 3.44223 -1.2612 0
M  V30 996 H 98.5408 4.98437 0.675988 0
M  V30 997 H 98.2408 5.81072 -0.873455 0
M  V30 998 H 99.7648 6.10599 0.0109857 0
M  V30 999 H 101.179 5.32573 -2.12223 0
M  V30 1000 H 99.5758 5.24843 -2.90963 0
M  V30 1001 H 100.646 3.83602 -2.96611 0
M  V30 1002 N 101.989 0.842826 1.3317 0
M  V30 1003 C 103.4 0.496651 1.79973 0
M  V30 1004 C 103.751 -0.984641 1.69703 0
M  V30 1005 O 102.876 -1.76743 1.24863 0
M  V30 1006 C 103.471 0.894727 3.26772 0
M  V30 1007 C 102.03 0.600629 3.71577 0
M  V30 1008 C 101.177 1.10091 2.5451 0
M  V30 1009 H 104.128 1.03116 1.20635 0
M  V30 1010 H 104.149 0.206347 3.7994 0
M  V30 1011 H 103.661 1.97287 3.34215 0
M  V30 1012 H 101.762 -0.467284 3.69658 0
M  V30 1013 H 101.875 1.15863 4.64879 0
M  V30 1014 H 100.239 0.52162 2.49301 0
M  V30 1015 H 101.022 2.18591 2.64713 0
M  V30 1016 N 103.467 -1.45747 0.599634 0
M  V30 1017 C 104.397 -2.33235 -0.111306 0
M  V30 1018 C 105.378 -1.46359 -0.866781 0
M  V30 1019 O 106.563 -1.75146 -0.838904 0
M  V30 1020 C 103.693 -3.28932 -1.11451 0
M  V30 1021 C 102.647 -4.25381 -0.472772 0
M  V30 1022 C 101.973 -5.1071 -1.58365 0
M  V30 1023 C 103.273 -5.18831 0.600948 0
M  V30 1024 H 104.967 -2.92927 0.61919 0
M  V30 1025 H 102.513 -1.40857 0.299215 0
M  V30 1026 H 104.466 -3.89002 -1.62036 0
M  V30 1027 H 103.19 -2.67381 -1.8755 0
M  V30 1028 H 101.849 -3.66598 0.0121472 0
M  V30 1029 H 101.497 -4.45533 -2.33473 0
M  V30 1030 H 101.197 -5.7604 -1.15982 0
M  V30 1031 H 102.721 -5.73647 -2.09194 0
M  V30 1032 H 104.135 -5.73019 0.179491 0
M  V30 1033 H 102.532 -5.92595 0.946076 0
M  V30 1034 H 103.602 -4.6174 1.48068 0
M  V30 1035 N 104.945 -0.338344 -1.53925 0
M  V30 1036 C 106.193 0.259245 -2.0043 0
M  V30 1037 C 106.514 1.51484 -1.22791 0
M  V30 1038 O 105.784 1.93037 -0.33368 0
M  V30 1039 H 104.364 0.0987845 -0.740439 0
M  V30 1040 H 107.026 -0.458302 -1.89435 0
M  V30 1041 H 106.122 0.505334 -3.07982 0
M  V30 1042 N 106.423 1.57458 -0.0668435 0
M  V30 1043 C 107.834 1.80776 0.466558 0
M  V30 1044 C 108.185 0.980361 1.69951 0
M  V30 1045 O 107.31 0.201441 2.1546 0
M  V30 1046 C 107.905 3.27881 0.85321 0
M  V30 1047 C 106.464 3.52062 1.3315 0
M  V30 1048 C 105.611 2.75513 0.314264 0
M  V30 1049 H 108.562 1.5598 -0.292588 0
M  V30 1050 H 108.583 3.39659 1.715 0
M  V30 1051 H 108.095 3.88075 -0.0443439 0
M  V30 1052 H 106.196 2.97167 2.24772 0
M  V30 1053 H 106.309 4.60762 1.31285 0
M  V30 1054 H 104.673 2.42123 0.790492 0
M  V30 1055 H 105.456 3.38442 -0.575477 0
M  V30 1056 N 107.901 -0.206675 1.56239 0
M  V30 1057 C 108.831 -1.25909 1.96645 0
M  V30 1058 C 109.812 -1.48097 0.836734 0
M  V30 1059 O 110.997 -1.6003 1.10019 0
M  V30 1060 C 108.127 -2.6058 2.29599 0
M  V30 1061 C 107.081 -2.53024 3.452 0
M  V30 1062 C 106.407 -3.91861 3.63798 0
M  V30 1063 C 107.707 -2.06524 4.79734 0
M  V30 1064 H 109.401 -0.923369 2.84806 0
M  V30 1065 H 106.947 -0.442735 1.37025 0
M  V30 1066 H 108.9 -3.34375 2.56459 0
M  V30 1067 H 107.624 -2.95869 1.38307 0
M  V30 1068 H 106.283 -1.81684 3.18412 0
M  V30 1069 H 105.931 -4.24483 2.69857 0
M  V30 1070 H 105.631 -3.87683 4.4156 0
M  V30 1071 H 107.155 -4.67296 3.93022 0
M  V30 1072 H 108.569 -2.70072 5.05702 0
M  V30 1073 H 106.966 -2.13374 5.60885 0
M  V30 1074 H 108.036 -1.01802 4.74093 0
M  V30 1075 N 109.379 -1.50304 -0.473955 0
M  V30 1076 C 110.309 -1.71886 -1.58042 0
M  V30 1077 C 111.29 -0.567799 -1.60344 0
M  V30 1078 O 112.475 -0.806623 -1.76656 0
M  V30 1079 C 109.605 -1.81036 -2.96384 0
M  V30 1080 C 108.559 -2.962 -3.08949 0
M  V30 1081 C 107.885 -2.9049 -4.48909 0
M  V30 1082 C 109.185 -4.36752 -2.86434 0
M  V30 1083 H 110.879 -2.64527 -1.40234 0
M  V30 1084 H 108.425 -1.27295 -0.673201 0
M  V30 1085 H 110.378 -1.94719 -3.73714 0
M  V30 1086 H 109.102 -0.850147 -3.15341 0
M  V30 1087 H 107.761 -2.82164 -2.3405 0
M  V30 1088 H 107.409 -1.92321 -4.64781 0
M  V30 1089 H 107.109 -3.67802 -4.58253 0
M  V30 1090 H 108.633 -3.06218 -5.28264 0
M  V30 1091 H 110.047 -4.5133 -3.53517 0
M  V30 1092 H 108.444 -5.15493 -3.07225 0
M  V30 1093 H 109.514 -4.49321 -1.82316 0
M  V30 1094 N 110.857 0.726932 -1.39834 0
M  V30 1095 C 112.105 1.4837 -1.37225 0
M  V30 1096 C 112.426 1.94979 0.0284857 0
M  V30 1097 O 111.696 1.69555 0.981213 0
M  V30 1098 H 110.276 0.55043 -0.505011 0
M  V30 1099 H 112.938 0.862468 -1.74778 0
M  V30 1100 H 112.034 2.36198 -2.04003 0
M  V30 1101 N 112.336 1.25143 0.95797 0
M  V30 1102 C 113.613 1.00472 1.67823 0
M  V30 1103 C 113.993 -0.470056 2.058 0
M  V30 1104 O 113.341 -1.44663 1.76875 0
M  V30 1105 C 113.551 1.9372 2.90299 0
M  V30 1106 C 114.899 2.21371 3.62326 0
M  V30 1107 O 115.923 1.91451 3.00375 0
M  V30 1108 O 114.782 2.72231 4.7387 0
M  V30 1109 H 111.876 0.380752 0.734137 0
M  V30 1110 H 114.422 1.36283 1.01119 0
M  V30 1111 H 113.194 2.93316 2.59001 0
M  V30 1112 H 112.817 1.58286 3.64735 0
M  V30 1113 N 113.814 -1.1601 1.06675 0
M  V30 1114 C 115.042 -1.90527 0.806667 0
M  V30 1115 C 115.457 -1.77643 -0.639396 0
M  V30 1116 O 114.814 -1.12369 -1.43803 0
M  V30 1117 C 114.865 -3.41106 1.19705 0
M  V30 1118 O 114.586 -3.53608 2.58636 0
M  V30 1119 C 116.087 -4.32663 0.965266 0
M  V30 1120 H 113.307 -0.604053 0.292166 0
M  V30 1121 H 115.851 -1.47026 1.4214 0
M  V30 1122 H 114.006 -3.82296 0.626774 0
M  V30 1123 H 114.42 -4.47011 2.74375 0
M  V30 1124 H 115.894 -5.36763 1.288 0
M  V30 1125 H 116.371 -4.39089 -0.0987936 0
M  V30 1126 H 116.977 -3.97206 1.52011 0
M  V30 1127 N 115.292 -0.849877 -1.32721 0
M  V30 1128 C 116.255 -0.296122 -2.27279 0
M  V30 1129 C 117.255 0.541458 -1.5141 0
M  V30 1130 O 118.445 0.353658 -1.70572 0
M  V30 1131 C 115.577 0.581579 -3.35902 0
M  V30 1132 H 116.77 -1.13064 -2.77771 0
M  V30 1133 H 114.323 -0.62383 -1.43311 0
M  V30 1134 H 115.058 1.43809 -2.9067 0
M  V30 1135 H 114.843 -0.0178814 -3.92096 0
M  V30 1136 H 116.333 0.961951 -4.0637 0
M  V30 1137 N 116.77 1.45427 -0.607355 0
M  V30 1138 C 118.016 2.0254 -0.102607 0
M  V30 1139 C 118.349 1.47478 1.26348 0
M  V30 1140 O 117.624 0.64939 1.83339 0
M  V30 1141 C 117.907 3.60044 -0.0634347 0
M  V30 1142 C 117.76 4.2544 -1.46017 0
M  V30 1143 C 119.079 4.35646 0.624514 0
M  V30 1144 H 116.198 0.73598 -0.0387607 0
M  V30 1145 H 118.84 1.73284 -0.779282 0
M  V30 1146 H 116.99 3.85101 0.512808 0
M  V30 1147 H 118.662 4.11569 -2.08347 0
M  V30 1148 H 116.905 3.83849 -2.02094 0
M  V30 1149 H 117.576 5.34342 -1.385 0
M  V30 1150 H 120.052 4.15882 0.134723 0
M  V30 1151 H 118.928 5.45376 0.621028 0
M  V30 1152 H 119.189 4.08501 1.69055 0
M  V30 1153 N 118.248 0.346503 1.53744 0
M  V30 1154 C 119.497 -0.250122 2.00143 0
M  V30 1155 C 119.81 -1.51418 1.23822 0
M  V30 1156 O 121.016 -2.18823 1.60713 0
M  V30 1157 C 119.472 -0.496252 3.56462 0
M  V30 1158 C 119.08 0.752077 4.41642 0
M  V30 1159 C 120.824 -1.05157 4.11269 0
M  V30 1160 C 118.731 0.476583 5.89477 0
M  V30 1161 H 117.661 -0.0972409 0.747703 0
M  V30 1162 H 120.312 0.46229 1.77581 0
M  V30 1163 H 118.694 -1.26944 3.75102 0
M  V30 1164 H 119.868 1.5266 4.34778 0
M  V30 1165 H 118.183 1.22925 3.97842 0
M  V30 1166 H 120.78 -1.27269 5.19333 0
M  V30 1167 H 121.123 -2.00799 3.64672 0
M  V30 1168 H 121.656 -0.339019 3.96353 0
M  V30 1169 H 118.395 1.4028 6.40314 0
M  V30 1170 H 117.915 -0.259794 5.99237 0
M  V30 1171 H 119.594 0.0949315 6.4693 0
M  V30 1172 N 119.726 -1.57421 0.075193 0
M  V30 1173 C 120.658 -2.09904 -0.920483 0
M  V30 1174 C 121.671 -1.03191 -1.25918 0
M  V30 1175 O 122.86 -1.30695 -1.21577 0
M  V30 1176 C 119.96 -2.54726 -2.23534 0
M  V30 1177 C 119.133 -3.8505 -2.07498 0
M  V30 1178 C 118.192 -4.15929 -3.22319 0
M  V30 1179 O 117.218 -4.85474 -2.9716 0
M  V30 1180 N 118.42 -3.69745 -4.47514 0
M  V30 1181 H 121.185 -2.95954 -0.472359 0
M  V30 1182 H 118.746 -1.61523 -0.110444 0
M  V30 1183 H 120.738 -2.72443 -2.9926 0
M  V30 1184 H 119.308 -1.73795 -2.59835 0
M  V30 1185 H 118.528 -3.76679 -1.16219 0
M  V30 1186 H 119.816 -4.70348 -1.94038 0
M  V30 1187 H 119.214 -3.13569 -4.7084 0
M  V30 1188 H 117.771 -3.92655 -5.20255 0
M  V30 1189 N 121.204 0.198386 -1.56346 0
M  V30 1190 C 122.452 0.91747 -1.80075 0
M  V30 1191 C 122.773 1.83929 -0.647692 0
M  V30 1192 O 122.043 1.93029 0.334166 0
M  V30 1193 H 120.623 0.341774 -0.664228 0
M  V30 1194 H 123.285 0.204684 -1.93822 0
M  V30 1195 H 122.381 1.51055 -2.7311 0
M  V30 1196 N 122.682 1.50554 0.465978 0
M  V30 1197 C 123.959 1.5232 1.22712 0
M  V30 1198 C 124.339 0.270807 2.09356 0
M  V30 1199 O 123.687 -0.745541 2.15995 0
M  V30 1200 C 123.897 2.82175 2.05374 0
M  V30 1201 C 125.245 3.33033 2.6339 0
M  V30 1202 O 126.269 2.83531 2.15612 0
M  V30 1203 O 125.128 4.19336 3.50456 0
M  V30 1204 H 122.222 0.611183 0.557122 0
M  V30 1205 H 124.768 1.62847 0.477381 0
M  V30 1206 H 123.54 3.64797 1.41558 0
M  V30 1207 H 123.163 2.74675 2.87471 0
M  V30 1208 N 124.16 -0.719506 1.40217 0
M  V30 1209 C 125.388 -1.50864 1.41589 0
M  V30 1210 C 125.803 -1.88794 0.0145275 0
M  V30 1211 O 125.16 -1.55174 -0.960594 0
M  V30 1212 C 125.211 -2.78646 2.30302 0
M  V30 1213 O 124.932 -2.42321 3.64983 0
M  V30 1214 C 126.433 -3.72569 2.40224 0
M  V30 1215 H 123.653 -0.465709 0.48307 0
M  V30 1216 H 126.197 -0.88785 1.84221 0
M  V30 1217 H 124.352 -3.37019 1.91042 0
M  V30 1218 H 124.766 -3.24514 4.12057 0
M  V30 1219 H 126.24 -4.5908 3.06512 0
M  V30 1220 H 126.717 -4.15403 1.42608 0
M  V30 1221 H 127.323 -3.20109 2.80019 0
M  V30 1222 N 125.638 -1.25649 -0.95132 0
M  V30 1223 C 126.601 -1.06399 -2.03007 0
M  V30 1224 C 127.601 -0.0156794 -1.60792 0
M  V30 1225 O 128.791 -0.25817 -1.72276 0
M  V30 1226 C 125.923 -0.616184 -3.35285 0
M  V30 1227 H 127.116 -2.02164 -2.21517 0
M  V30 1228 H 124.669 -1.08103 -1.12887 0
M  V30 1229 H 125.404 0.343917 -3.22471 0
M  V30 1230 H 125.189 -1.37301 -3.67275 0
M  V30 1231 H 126.679 -0.503032 -4.14559 0
M  V30 1232 N 127.117 1.15442 -1.07289 0
M  V30 1233 C 128.047 2.22312 -0.714107 0
M  V30 1234 C 129.028 1.67467 0.298155 0
M  V30 1235 O 130.213 1.93445 0.171048 0
M  V30 1236 C 127.343 3.47124 -0.110448 0
M  V30 1237 C 126.297 4.14926 -1.04979 0
M  V30 1238 C 125.623 5.33807 -0.308924 0
M  V30 1239 C 126.923 4.64762 -2.38314 0
M  V30 1240 H 128.617 2.5258 -1.6076 0
M  V30 1241 H 126.163 1.21404 -0.77441 0
M  V30 1242 H 128.116 4.21124 0.152482 0
M  V30 1243 H 126.84 3.16187 0.81812 0
M  V30 1244 H 125.499 3.42866 -1.29764 0
M  V30 1245 H 125.147 4.99126 0.623084 0
M  V30 1246 H 124.847 5.80113 -0.935036 0
M  V30 1247 H 126.371 6.10576 -0.0537771 0
M  V30 1248 H 127.785 5.30292 -2.1786 0
M  V30 1249 H 126.182 5.21728 -2.96514 0
M  V30 1250 H 127.252 3.80434 -3.00663 0
M  V30 1251 N 128.595 0.856903 1.32268 0
M  V30 1252 C 129.844 0.457599 1.96441 0
M  V30 1253 C 130.157 -0.992426 1.68553 0
M  V30 1254 O 131.363 -1.49727 2.26482 0
M  V30 1255 C 129.819 0.767358 3.51624 0
M  V30 1256 C 129.427 2.23326 3.88367 0
M  V30 1257 C 131.171 0.435887 4.22256 0
M  V30 1258 C 129.078 2.48613 5.36606 0
M  V30 1259 H 128.008 0.167387 0.735185 0
M  V30 1260 H 130.659 1.048 1.5063 0
M  V30 1261 H 129.041 0.106367 3.95857 0
M  V30 1262 H 130.215 2.93623 3.55137 0
M  V30 1263 H 128.53 2.52948 3.30766 0
M  V30 1264 H 131.127 0.602202 5.31298 0
M  V30 1265 H 131.47 -0.622672 4.11617 0
M  V30 1266 H 132.003 1.05286 3.83614 0
M  V30 1267 H 128.742 3.53101 5.52268 0
M  V30 1268 H 128.262 1.82896 5.71235 0
M  V30 1269 H 129.941 2.32676 6.03714 0
M  V30 1270 N 130.073 -1.45103 0.615059 0
M  V30 1271 C 131.301 -2.06553 0.11977 0
M  V30 1272 C 131.716 -1.45842 -1.19898 0
M  V30 1273 O 131.073 -0.575325 -1.73194 0
M  V30 1274 C 131.124 -3.61495 -0.018364 0
M  V30 1275 O 130.845 -4.19942 1.24822 0
M  V30 1276 C 132.346 -4.39947 -0.544237 0
M  V30 1277 H 129.566 -0.667096 0.0722739 0
M  V30 1278 H 132.11 -1.8623 0.84491 0
M  V30 1279 H 130.265 -3.81135 -0.693865 0
M  V30 1280 H 130.679 -5.13204 1.0827 0
M  V30 1281 H 132.153 -5.48838 -0.589953 0
M  V30 1282 H 132.63 -4.10255 -1.56805 0
M  V30 1283 H 133.236 -4.25188 0.0974703 0
M  V30 1284 N 131.551 -0.354651 -1.53558 0
M  V30 1285 C 132.967 -0.00315426 -1.596 0
M  V30 1286 C 133.167 1.47741 -1.37021 0
M  V30 1287 O 132.223 2.23759 -1.16996 0
M  V30 1288 C 133.536 -0.44929 -2.97325 0
M  V30 1289 C 135.084 -0.402578 -3.104 0
M  V30 1290 C 135.559 -0.824355 -4.5052 0
M  V30 1291 N 137.05 -0.778979 -4.56603 0
M  V30 1292 C 137.785 -1.07715 -5.63192 0
M  V30 1293 N 137.281 -1.44405 -6.77583 0
M  V30 1294 N 139.074 -1.00066 -5.53121 0
M  V30 1295 H 131.225 -1.31893 -1.66487 0
M  V30 1296 H 133.488 -0.538388 -0.780284 0
M  V30 1297 H 133.194 -1.48202 -3.1895 0
M  V30 1298 H 133.068 0.169772 -3.76818 0
M  V30 1299 H 135.455 0.621004 -2.88492 0
M  V30 1300 H 135.536 -1.05699 -2.32941 0
M  V30 1301 H 135.18 -1.846 -4.73165 0
M  V30 1302 H 135.11 -0.147304 -5.26394 0
M  V30 1303 H 137.601 -0.508528 -3.74463 0
M  V30 1304 H 137.914 -1.65612 -7.54846 0
M  V30 1305 H 136.259 -1.4826 -6.79002 0
M  V30 1306 H 139.45 -0.713293 -4.62633 0
M  V30 1307 H 139.623 -1.23638 -6.36096 0
M  V30 1308 N 133.029 1.57378 -0.0835403 0
M  V30 1309 C 134.44 1.81261 0.447358 0
M  V30 1310 C 134.791 0.998331 1.68902 0
M  V30 1311 O 133.916 0.224282 2.15235 0
M  V30 1312 C 134.511 3.28767 0.818386 0
M  V30 1313 C 133.07 3.53455 1.29409 0
M  V30 1314 C 132.217 2.75831 0.285024 0
M  V30 1315 H 135.168 1.5566 -0.309115 0
M  V30 1316 H 135.189 3.41459 1.67887 0
M  V30 1317 H 134.701 3.88006 -0.0855019 0
M  V30 1318 H 132.802 2.99534 2.21608 0
M  V30 1319 H 132.915 4.62128 1.2639 0
M  V30 1320 H 131.279 2.42947 0.764767 0
M  V30 1321 H 132.062 3.37813 -0.611341 0
M  V30 1322 N 134.507 -0.190092 1.56449 0
M  V30 1323 C 135.753 -0.906472 1.82084 0
M  V30 1324 C 136.108 -1.80677 0.661335 0
M  V30 1325 O 135.401 -1.88501 -0.343237 0
M  V30 1326 C 135.595 -1.75382 3.1141 0
M  V30 1327 C 135.424 -0.937053 4.39829 0
M  V30 1328 C 134.194 -0.619507 5.01488 0
M  V30 1329 C 136.392 -0.2874 5.13496 0
M  V30 1330 N 134.374 0.215367 6.13522 0
M  V30 1331 C 135.745 0.409454 6.18646 0
M  V30 1332 C 137.8 -0.203639 4.97483 0
M  V30 1333 C 136.503 1.1821 7.0952 0
M  V30 1334 C 138.529 0.555622 5.88784 0
M  V30 1335 C 137.891 1.24091 6.93384 0
M  V30 1336 H 133.99 -0.310931 0.717528 0
M  V30 1337 H 136.574 -0.174821 1.93914 0
M  V30 1338 H 134.745 -2.45703 3.00806 0
M  V30 1339 H 136.477 -2.41006 3.25112 0
M  V30 1340 H 133.232 -0.945126 4.64074 0
M  V30 1341 H 133.656 0.622562 6.74131 0
M  V30 1342 H 138.298 -0.719099 4.1664 0
M  V30 1343 H 136.016 1.70897 7.89823 0
M  V30 1344 H 139.602 0.621854 5.78467 0
M  V30 1345 H 138.482 1.81901 7.62812 0
M  V30 1346 N 135.985 -1.50799 -0.457987 0
M  V30 1347 C 137.21 -1.66496 -1.23668 0
M  V30 1348 C 137.635 -0.353288 -1.84752 0
M  V30 1349 O 136.993 0.684346 -1.67888 0
M  V30 1350 C 137.041 -2.76763 -2.3116 0
M  V30 1351 O 136.145 -2.38928 -3.36136 0
M  V30 1352 H 135.486 -0.555828 -0.363252 0
M  V30 1353 H 138.016 -1.9725 -0.543474 0
M  V30 1354 H 138.026 -3.00232 -2.76269 0
M  V30 1355 H 136.701 -3.71954 -1.86073 0
M  V30 1356 H 135.278 -2.25953 -2.96647 0
M  V30 1357 N 137.463 0.71206 -1.40597 0
M  V30 1358 C 138.874 1.29135 -1.34837 0
M  V30 1359 C 139.225 1.96186 -0.0235395 0
M  V30 1360 O 138.35 1.97768 0.878444 0
M  V30 1361 C 138.945 2.34827 -2.44217 0
M  V30 1362 C 137.504 2.88371 -2.41907 0
M  V30 1363 C 136.651 1.62202 -2.24913 0
M  V30 1364 H 139.602 0.507944 -1.50352 0
M  V30 1365 H 139.623 3.15749 -2.12327 0
M  V30 1366 H 139.135 1.85996 -3.40627 0
M  V30 1367 H 137.236 3.41422 -1.49204 0
M  V30 1368 H 137.349 3.39925 -3.37621 0
M  V30 1369 H 135.713 1.874 -1.72492 0
M  V30 1370 H 136.496 1.15391 -3.23326 0
M  V30 1371 N 138.941 1.26152 0.944643 0
M  V30 1372 C 139.904 1.07474 2.0244 0
M  V30 1373 C 140.904 0.0242064 1.60782 0
M  V30 1374 O 142.094 0.267302 1.72137 0
M  V30 1375 C 139.226 0.633956 3.34953 0
M  V30 1376 H 140.419 2.03336 2.20442 0
M  V30 1377 H 137.972 1.087 1.12312 0
M  V30 1378 H 138.707 -0.326811 3.22649 0
M  V30 1379 H 138.492 1.39247 3.66542 0
M  V30 1380 H 139.982 0.52501 4.14287 0
M  V30 1381 N 140.419 -1.14872 1.07899 0
M  V30 1382 C 141.835 -1.37776 0.805606 0
M  V30 1383 C 142.035 -1.92743 -0.587555 0
M  V30 1384 O 141.091 -2.13678 -1.34528 0
M  V30 1385 C 142.404 -2.34361 1.88402 0
M  V30 1386 C 143.952 -2.48012 1.90942 0
M  V30 1387 C 144.427 -3.47893 2.97883 0
M  V30 1388 N 145.918 -3.55433 2.97021 0
M  V30 1389 C 146.653 -4.32553 3.76412 0
M  V30 1390 N 146.149 -5.12959 4.65666 0
M  V30 1391 N 147.942 -4.27697 3.64735 0
M  V30 1392 H 140.093 -0.775365 1.97742 0
M  V30 1393 H 142.356 -0.403521 0.857831 0
M  V30 1394 H 142.062 -2.01098 2.88535 0
M  V30 1395 H 141.936 -3.34206 1.74889 0
M  V30 1396 H 144.323 -2.8057 0.914579 0
M  V30 1397 H 144.404 -1.48147 2.08534 0
M  V30 1398 H 144.048 -3.16069 3.97571 0
M  V30 1399 H 143.978 -4.47527 2.77538 0
M  V30 1400 H 146.469 -2.98048 2.32326 0
M  V30 1401 H 146.782 -5.69065 5.22862 0
M  V30 1402 H 145.127 -5.12245 4.69712 0
M  V30 1403 H 148.318 -3.63949 2.94378 0
M  V30 1404 H 148.491 -4.8755 4.26848 0
M  V30 1405 N 141.898 -0.863906 -1.31812 0
M  V30 1406 C 143.314 -0.555004 -1.49639 0
M  V30 1407 C 143.514 0.912266 -1.79666 0
M  V30 1408 O 142.57 1.69479 -1.87171 0
M  V30 1409 C 143.883 -1.44998 -2.63431 0
M  V30 1410 C 145.431 -1.45138 -2.77316 0
M  V30 1411 C 145.906 -2.33179 -3.94197 0
M  V30 1412 N 147.397 -2.31025 -4.01474 0
M  V30 1413 C 148.132 -2.95871 -4.9117 0
M  V30 1414 N 147.628 -3.69863 -5.8581 0
M  V30 1415 N 149.421 -2.85211 -4.84367 0
M  V30 1416 H 141.572 -1.81339 -1.10589 0
M  V30 1417 H 143.835 -0.77505 -0.545895 0
M  V30 1418 H 143.541 -2.49377 -2.48 0
M  V30 1419 H 143.415 -1.14409 -3.59431 0
M  V30 1420 H 145.802 -0.415201 -2.92164 0
M  V30 1421 H 145.883 -1.79747 -1.82001 0
M  V30 1422 H 145.527 -3.3687 -3.80107 0
M  V30 1423 H 145.457 -1.95897 -4.88807 0
M  V30 1424 H 147.948 -1.77238 -3.33759 0
M  V30 1425 H 148.261 -4.16486 -6.50968 0
M  V30 1426 H 146.606 -3.73971 -5.85808 0
M  V30 1427 H 149.797 -2.26948 -4.09405 0
M  V30 1428 H 149.97 -3.36027 -5.54066 0
M  V30 1429 N 143.376 1.44774 -0.622745 0
M  V30 1430 C 144.787 1.85546 -0.207226 0
M  V30 1431 C 145.138 1.52093 1.23944 0
M  V30 1432 O 144.263 0.95492 1.94191 0
M  V30 1433 C 144.858 3.36781 -0.369313 0
M  V30 1434 C 143.417 3.76399 -0.00836847 0
M  V30 1435 C 142.564 2.68664 -0.686651 0
M  V30 1436 H 145.515 1.3536 -0.828454 0
M  V30 1437 H 145.536 3.78453 0.394162 0
M  V30 1438 H 145.048 3.61098 -1.42231 0
M  V30 1439 H 143.149 3.57698 1.04322 0
M  V30 1440 H 143.262 4.7732 -0.412584 0
M  V30 1441 H 141.626 2.54404 -0.122777 0
M  V30 1442 H 142.409 2.95815 -1.74208 0
M  V30 1443 N 144.854 0.36279 1.53368 0
M  V30 1444 C 145.764 -0.492994 2.29362 0
M  V30 1445 C 146.78 -1.09507 1.35219 0
M  V30 1446 O 147.956 -1.10662 1.68273 0
M  V30 1447 C 145.021 -1.61855 3.066 0
M  V30 1448 C 144.082 -1.04429 4.16405 0
M  V30 1449 C 143.315 -2.11621 4.89951 0
M  V30 1450 O 143.538 -3.32684 4.63333 0
M  V30 1451 O 142.472 -1.74835 5.75948 0
M  V30 1452 H 146.298 0.125331 3.03441 0
M  V30 1453 H 143.883 0.127253 1.48857 0
M  V30 1454 H 145.765 -2.27302 3.54841 0
M  V30 1455 H 144.44 -2.22233 2.3536 0
M  V30 1456 H 143.347 -0.353819 3.72423 0
M  V30 1457 H 144.68 -0.485113 4.89804 0
M  V30 1458 N 146.332 -1.57332 0.0918853 0
M  V30 1459 C 147.578 -1.94524 -0.573425 0
M  V30 1460 C 147.911 -0.973578 -1.68033 0
M  V30 1461 O 147.186 -0.00609226 -1.94499 0
M  V30 1462 C 147.469 -3.41858 -1.13161 0
M  V30 1463 C 147.322 -4.4979 -0.0299747 0
M  V30 1464 C 148.641 -3.90435 -2.03098 0
M  V30 1465 H 145.76 -0.70734 -0.206975 0
M  V30 1466 H 148.402 -1.89309 0.161942 0
M  V30 1467 H 146.552 -3.46433 -1.7583 0
M  V30 1468 H 148.224 -4.57327 0.604112 0
M  V30 1469 H 146.467 -4.291 0.636833 0
M  V30 1470 H 147.138 -5.50069 -0.461287 0
M  V30 1471 H 149.614 -3.87992 -1.50338 0
M  V30 1472 H 148.49 -4.94097 -2.39081 0
M  V30 1473 H 148.751 -3.29541 -2.94712 0
M  V30 1474 N 147.81 0.181792 -1.56548 0
M  V30 1475 C 149.087 0.926765 -1.72251 0
M  V30 1476 C 149.467 2.00831 -0.650386 0
M  V30 1477 O 148.815 2.26008 0.336521 0
M  V30 1478 C 149.025 1.50106 -3.1507 0
M  V30 1479 C 150.373 1.97805 -3.75711 0
M  V30 1480 O 151.397 1.59922 -3.18282 0
M  V30 1481 O 150.256 2.67555 -4.76525 0
M  V30 1482 H 147.35 0.435506 -0.703039 0
M  V30 1483 H 149.896 0.170443 -1.68842 0
M  V30 1484 H 148.668 0.72212 -3.84579 0
M  V30 1485 H 148.291 2.32186 -3.22763 0
M  V30 1486 N 149.288 1.51039 0.449983 0
M  V30 1487 C 150.536 1.62759 1.19808 0
M  V30 1488 C 150.857 0.339981 1.92013 0
M  V30 1489 O 150.127 -0.643606 1.85026 0
M  V30 1490 H 148.707 0.599811 0.445237 0
M  V30 1491 H 151.369 1.87914 0.517138 0
M  V30 1492 H 150.465 2.44911 1.93455 0
M  V30 1493 N 150.766 -0.704594 1.40972 0
M  V30 1494 C 152.012 -1.46675 1.40051 0
M  V30 1495 C 152.345 -1.94199 0.00641102 0
M  V30 1496 O 151.62 -1.68916 -0.964235 0
M  V30 1497 C 151.903 -2.68505 2.39952 0
M  V30 1498 C 151.756 -2.26805 3.88432 0
M  V30 1499 C 153.075 -3.70686 2.37233 0
M  V30 1500 H 150.194 -0.532015 0.510028 0
M  V30 1501 H 152.836 -0.803255 1.72185 0
M  V30 1502 H 150.986 -3.25114 2.1268 0
M  V30 1503 H 152.658 -1.75592 4.26574 0
M  V30 1504 H 150.901 -1.58685 4.03734 0
M  V30 1505 H 151.572 -3.14181 4.53866 0
M  V30 1506 H 154.048 -3.23731 2.61415 0
M  V30 1507 H 152.924 -4.53553 3.09162 0
M  V30 1508 H 153.185 -4.19754 1.38777 0
M  V30 1509 N 152.244 -1.26651 -0.937939 0
M  V30 1510 C 153.66 -1.03834 -1.21205 0
M  V30 1511 C 153.86 0.234502 -2.00131 0
M  V30 1512 O 152.916 0.942767 -2.3424 0
M  V30 1513 C 154.229 -2.27167 -1.97017 0
M  V30 1514 C 155.777 -2.32101 -2.09996 0
M  V30 1515 C 156.252 -3.55136 -2.8921 0
M  V30 1516 N 157.743 -3.55632 -2.96783 0
M  V30 1517 C 158.478 -4.475 -3.58512 0
M  V30 1518 N 157.974 -5.4966 -4.21717 0
M  V30 1519 N 159.767 -4.35145 -3.55816 0
M  V30 1520 H 151.918 -2.08398 -0.410391 0
M  V30 1521 H 154.181 -0.916031 -0.244114 0
M  V30 1522 H 153.887 -3.19765 -1.46434 0
M  V30 1523 H 153.761 -2.31672 -2.97671 0
M  V30 1524 H 156.148 -1.40015 -2.59769 0
M  V30 1525 H 156.229 -2.31605 -1.08594 0
M  V30 1526 H 155.873 -4.47553 -2.40123 0
M  V30 1527 H 155.803 -3.5288 -3.90875 0
M  V30 1528 H 158.294 -2.81743 -2.51852 0
M  V30 1529 H 158.607 -6.15943 -4.66727 0
M  V30 1530 H 156.952 -5.53514 -4.20294 0
M  V30 1531 H 160.143 -3.5455 -3.05634 0
M  V30 1532 H 160.316 -5.06934 -4.03636 0
M  V30 1533 N 153.722 1.14298 -1.08507 0
M  V30 1534 C 154.669 2.19414 -0.715965 0
M  V30 1535 C 155.639 1.63399 0.298326 0
M  V30 1536 O 156.824 1.89929 0.182101 0
M  V30 1537 C 153.964 3.44845 -0.132534 0
M  V30 1538 C 153.077 4.15007 -1.19973 0
M  V30 1539 C 152.212 5.28024 -0.580048 0
M  V30 1540 C 151.251 5.9002 -1.62921 0
M  V30 1541 N 150.388 6.94485 -1.03125 0
M  V30 1542 H 155.228 2.50336 -1.61666 0
M  V30 1543 H 152.765 1.2293 -0.807882 0
M  V30 1544 H 154.723 4.16601 0.223454 0
M  V30 1545 H 153.353 3.14403 0.731467 0
M  V30 1546 H 152.405 3.41629 -1.67313 0
M  V30 1547 H 153.717 4.57178 -1.99473 0
M  V30 1548 H 152.871 6.06455 -0.172364 0
M  V30 1549 H 151.61 4.87076 0.246603 0
M  V30 1550 H 150.615 5.10291 -2.04654 0
M  V30 1551 H 151.84 6.33042 -2.45835 0
M  V30 1552 H 149.786 6.55612 -0.225711 0
M  V30 1553 H 149.703 7.35148 -1.76334 0
M  V30 1554 H 150.971 7.7679 -0.649458 0
M  V30 1555 N 155.201 0.870884 1.31352 0
M  V30 1556 C 156.164 0.332243 2.26779 0
M  V30 1557 C 157.164 -0.517302 1.52252 0
M  V30 1558 O 158.354 -0.326477 1.71113 0
M  V30 1559 C 155.486 -0.528066 3.36785 0
M  V30 1560 H 156.679 1.17469 2.75937 0
M  V30 1561 H 154.232 0.64655 1.423 0
M  V30 1562 H 154.967 -1.39167 2.92922 0
M  V30 1563 H 154.752 0.0802582 3.92018 0
M  V30 1564 H 156.242 -0.897179 4.07849 0
M  V30 1565 N 156.679 -1.44442 0.630414 0
M  V30 1566 C 157.609 -2.33418 -0.0618083 0
M  V30 1567 C 158.59 -1.48165 -0.835541 0
M  V30 1568 O 159.775 -1.76886 -0.801564 0
M  V30 1569 C 156.905 -3.31222 -1.04449 0
M  V30 1570 C 155.859 -4.26288 -0.382436 0
M  V30 1571 C 155.185 -5.13954 -1.47497 0
M  V30 1572 C 156.485 -5.1744 0.710865 0
M  V30 1573 H 158.179 -2.91548 0.681184 0
M  V30 1574 H 155.725 -1.40191 0.329026 0
M  V30 1575 H 157.678 -3.92351 -1.53748 0
M  V30 1576 H 156.402 -2.71299 -1.81836 0
M  V30 1577 H 155.061 -3.6649 0.0899054 0
M  V30 1578 H 154.709 -4.50385 -2.2397 0
M  V30 1579 H 154.409 -5.7837 -1.03737 0
M  V30 1580 H 155.933 -5.77955 -1.96979 0
M  V30 1581 H 157.347 -5.72509 0.300996 0
M  V30 1582 H 155.744 -5.90455 1.07156 0
M  V30 1583 H 156.814 -4.58496 1.57829 0
M  V30 1584 N 158.157 -0.370918 -1.53173 0
M  V30 1585 C 159.089 0.507823 -2.23503 0
M  V30 1586 C 160.102 1.04182 -1.251 0
M  V30 1587 O 161.291 0.947286 -1.5129 0
M  V30 1588 C 158.391 1.71447 -2.92334 0
M  V30 1589 C 157.564 1.31105 -4.17289 0
M  V30 1590 C 156.623 2.38035 -4.69282 0
M  V30 1591 O 155.649 2.00204 -5.32829 0
M  V30 1592 N 156.851 3.69697 -4.47554 0
M  V30 1593 H 159.616 -0.0946382 -2.99551 0
M  V30 1594 H 157.177 -0.196358 -1.60705 0
M  V30 1595 H 159.169 2.42469 -3.24023 0
M  V30 1596 H 157.739 2.22368 -2.19707 0
M  V30 1597 H 156.959 0.430462 -3.91843 0
M  V30 1598 H 158.247 1.0179 -4.98514 0
M  V30 1599 H 157.645 4.03205 -3.9679 0
M  V30 1600 H 156.202 4.36807 -4.8378 0
M  V30 1601 N 159.635 1.57281 -0.100228 0
M  V30 1602 C 160.912 1.86014 0.604812 0
M  V30 1603 C 161.292 0.998025 1.86018 0
M  V30 1604 O 160.64 0.0718184 2.28387 0
M  V30 1605 C 160.85 3.36784 0.915278 0
M  V30 1606 C 162.198 4.04957 1.27651 0
M  V30 1607 O 163.222 3.41695 1.00613 0
M  V30 1608 O 162.081 5.16593 1.7831 0
M  V30 1609 H 159.175 0.76942 0.303185 0
M  V30 1610 H 161.721 1.69176 -0.133313 0
M  V30 1611 H 160.493 3.91292 0.0248896 0
M  V30 1612 H 160.116 3.58987 1.70921 0
M  V30 1613 N 161.113 -0.173488 1.56642 0
M  V30 1614 C 162.043 -1.2171 1.99271 0
M  V30 1615 C 163.024 -1.46289 0.867959 0
M  V30 1616 O 164.209 -1.5766 1.13388 0
M  V30 1617 C 161.339 -2.55651 2.35074 0
M  V30 1618 C 160.293 -2.45645 3.50489 0
M  V30 1619 C 159.619 -3.84056 3.72028 0
M  V30 1620 C 160.919 -1.96302 4.84007 0
M  V30 1621 H 162.613 -0.86275 2.867 0
M  V30 1622 H 160.159 -0.413571 1.37933 0
M  V30 1623 H 162.112 -3.2886 2.63494 0
M  V30 1624 H 160.836 -2.92869 1.44552 0
M  V30 1625 H 159.495 -1.7489 3.22194 0
M  V30 1626 H 159.143 -4.18664 2.788 0
M  V30 1627 H 158.843 -3.7823 4.49684 0
M  V30 1628 H 160.367 -4.58854 4.02846 0
M  V30 1629 H 161.781 -2.59284 5.11317 0
M  V30 1630 H 160.178 -2.01429 5.65284 0
M  V30 1631 H 161.248 -0.917226 4.76146 0
M  V30 1632 N 162.591 -1.51276 -0.441967 0
M  V30 1633 C 163.839 -1.63392 -1.18943 0
M  V30 1634 C 164.16 -0.350159 -1.9183 0
M  V30 1635 O 163.43 0.633784 -1.85364 0
M  V30 1636 H 162.01 -0.602164 -0.442049 0
M  V30 1637 H 164.672 -1.88186 -0.507165 0
M  V30 1638 H 163.768 -2.45934 -1.92154 0
M  V30 1639 N 164.069 0.697108 -1.41344 0
M  V30 1640 C 164.999 1.82353 -1.45841 0
M  V30 1641 C 165.98 1.67115 -0.317247 0
M  V30 1642 O 167.165 1.86871 -0.528474 0
M  V30 1643 C 164.295 3.20476 -1.33838 0
M  V30 1644 C 163.249 3.50415 -2.4575 0
M  V30 1645 C 162.575 4.87878 -2.18813 0
M  V30 1646 C 163.875 3.49546 -3.88091 0
M  V30 1647 H 165.569 1.78846 -2.40113 0
M  V30 1648 H 163.115 0.859028 -1.15571 0
M  V30 1649 H 165.068 3.98988 -1.35596 0
M  V30 1650 H 163.792 3.24604 -0.360498 0
M  V30 1651 H 162.451 2.74253 -2.43271 0
M  V30 1652 H 162.099 4.8863 -1.19371 0
M  V30 1653 H 161.799 5.08875 -2.93803 0
M  V30 1654 H 163.323 5.68702 -2.22284 0
M  V30 1655 H 164.737 4.18066 -3.92293 0
M  V30 1656 H 163.134 3.82075 -4.62751 0
M  V30 1657 H 164.204 2.48552 -4.16353 0
M  V30 1658 N 165.547 1.27147 0.931209 0
M  V30 1659 C 166.963 1.04475 1.20653 0
M  V30 1660 C 167.163 -0.223885 2.00252 0
M  V30 1661 O 166.219 -0.930332 2.34736 0
M  V30 1662 C 167.532 2.28209 1.95809 0
M  V30 1663 C 169.08 2.33211 2.08762 0
M  V30 1664 C 169.555 3.56665 2.87323 0
M  V30 1665 N 171.046 3.57201 2.94892 0
M  V30 1666 C 171.781 4.49395 3.56134 0
M  V30 1667 N 171.277 5.51889 4.18796 0
M  V30 1668 N 173.07 4.37026 3.53504 0
M  V30 1669 H 165.221 2.08612 0.399333 0
M  V30 1670 H 167.484 0.917312 0.239253 0
M  V30 1671 H 167.19 3.20538 1.44736 0
M  V30 1672 H 167.064 2.33247 2.96438 0
M  V30 1673 H 169.451 1.41391 2.59023 0
M  V30 1674 H 169.532 2.32178 1.07364 0
M  V30 1675 H 169.176 4.4882 2.37746 0
M  V30 1676 H 169.106 3.54948 3.88998 0
M  V30 1677 H 171.597 2.83074 2.50354 0
M  V30 1678 H 171.91 6.18409 4.63454 0
M  V30 1679 H 170.255 5.55735 4.17353 0
M  V30 1680 H 173.446 3.56166 3.03749 0
M  V30 1681 H 173.619 5.09067 4.00942 0
M  V30 1682 N 167.025 -1.13721 1.09112 0
M  V30 1683 C 168.274 -1.84275 0.82009 0
M  V30 1684 C 168.587 -1.84253 -0.656509 0
M  V30 1685 O 169.793 -2.50668 -1.04296 0
M  V30 1686 C 168.249 -3.30825 1.41714 0
M  V30 1687 C 167.857 -3.39244 2.92605 0
M  V30 1688 C 169.601 -4.06443 1.22492 0
M  V30 1689 C 167.508 -4.80047 3.45411 0
M  V30 1690 H 166.438 -0.690387 0.30312 0
M  V30 1691 H 169.089 -1.28146 1.31343 0
M  V30 1692 H 167.471 -3.86737 0.851498 0
M  V30 1693 H 168.645 -2.93344 3.55367 0
M  V30 1694 H 166.96 -2.77088 3.10823 0
M  V30 1695 H 169.557 -5.10387 1.59402 0
M  V30 1696 H 169.9 -4.15972 0.165299 0
M  V30 1697 H 170.433 -3.56852 1.75788 0
M  V30 1698 H 167.172 -4.75709 4.50978 0
M  V30 1699 H 166.692 -5.26455 2.87411 0
M  V30 1700 H 168.371 -5.48957 3.42425 0
M  V30 1701 N 168.503 -0.877838 -1.30888 0
M  V30 1702 C 169.749 -0.493426 -1.96706 0
M  V30 1703 C 170.082 0.953504 -1.6918 0
M  V30 1704 O 169.357 1.67266 -0.992594 0
M  V30 1705 C 169.64 -0.760429 -3.51979 0
M  V30 1706 C 169.493 -2.25747 -3.89048 0
M  V30 1707 C 170.812 -0.232148 -4.39487 0
M  V30 1708 H 167.931 -0.180746 -0.714493 0
M  V30 1709 H 170.573 -1.10052 -1.54882 0
M  V30 1710 H 168.723 -0.243715 -3.87735 0
M  V30 1711 H 170.395 -2.84204 -3.63354 0
M  V30 1712 H 168.638 -2.72694 -3.37373 0
M  V30 1713 H 169.309 -2.39491 -4.97341 0
M  V30 1714 H 171.785 -0.674314 -4.106 0
M  V30 1715 H 170.661 -0.448355 -5.47066 0
M  V30 1716 H 170.922 0.866297 -4.33529 0
M  V30 1717 N 169.982 1.44106 -0.638065 0
M  V30 1718 C 170.892 2.34513 0.0637334 0
M  V30 1719 C 171.908 1.53018 0.828346 0
M  V30 1720 O 173.084 1.85723 0.779036 0
M  V30 1721 C 170.149 3.31095 1.02844 0
M  V30 1722 C 169.21 4.28497 0.26244 0
M  V30 1723 C 168.443 5.20465 1.1812 0
M  V30 1724 O 168.666 5.16514 2.42011 0
M  V30 1725 O 167.6 5.98251 0.661774 0
M  V30 1726 H 171.426 2.95989 -0.68003 0
M  V30 1727 H 169.011 1.43994 -0.398252 0
M  V30 1728 H 170.893 3.90526 1.58327 0
M  V30 1729 H 169.568 2.72144 1.7527 0
M  V30 1730 H 168.475 3.72592 -0.335602 0
M  V30 1731 H 169.808 4.90388 -0.421936 0
M  V30 1732 N 171.46 0.379036 1.52974 0
M  V30 1733 C 172.709 -0.207612 2.00629 0
M  V30 1734 C 173.022 -1.48758 1.27006 0
M  V30 1735 O 174.228 -2.15365 1.65318 0
M  V30 1736 C 172.684 -0.42053 3.57435 0
M  V30 1737 C 172.292 0.845587 4.39948 0
M  V30 1738 C 174.036 -0.964102 4.13407 0
M  V30 1739 C 171.943 0.601513 5.88333 0
M  V30 1740 H 170.873 -0.0813591 0.749598 0
M  V30 1741 H 173.524 0.499853 1.76561 0
M  V30 1742 H 171.906 -1.18959 3.7771 0
M  V30 1743 H 173.08 1.61848 4.31442 0
M  V30 1744 H 171.395 1.31336 3.95145 0
M  V30 1745 H 173.992 -1.16225 5.21916 0
M  V30 1746 H 174.335 -1.93019 3.68849 0
M  V30 1747 H 174.868 -0.25487 3.96983 0
M  V30 1748 H 171.607 1.53831 6.37194 0
M  V30 1749 H 171.127 -0.132628 5.99653 0
M  V30 1750 H 172.806 0.232134 6.46583 0
M  V30 1751 N 172.938 -1.57226 0.108567 0
M  V30 1752 C 174.186 -1.94448 -0.550853 0
M  V30 1753 C 174.507 -0.992074 -1.67878 0
M  V30 1754 O 173.777 -0.0465 -1.95845 0
M  V30 1755 H 172.357 -0.717897 -0.206479 0
M  V30 1756 H 175.019 -1.94112 0.175062 0
M  V30 1757 H 174.115 -2.97218 -0.952259 0
M  V30 1758 N 174.416 0.165178 -1.56732 0
M  V30 1759 C 175.693 0.908443 -1.73224 0
M  V30 1760 C 176.073 2.0013 -0.67165 0
M  V30 1761 O 175.421 2.26353 0.31253 0
M  V30 1762 C 175.631 1.46756 -3.16644 0
M  V30 1763 C 176.979 1.93809 -3.77787 0
M  V30 1764 O 178.003 1.56537 -3.1996 0
M  V30 1765 O 176.862 2.62486 -4.79336 0
M  V30 1766 H 173.956 0.428025 -0.707618 0
M  V30 1767 H 176.502 0.152526 -1.69013 0
M  V30 1768 H 175.274 0.68129 -3.85323 0
M  V30 1769 H 174.897 2.28749 -3.25207 0
M  V30 1770 N 175.894 1.51508 0.433938 0
M  V30 1771 C 176.804 1.75917 1.5521 0
M  V30 1772 C 177.82 0.643545 1.61662 0
M  V30 1773 O 178.996 0.926183 1.7884 0
M  V30 1774 C 176.061 1.88213 2.91164 0
M  V30 1775 C 175.122 3.12074 2.94802 0
M  V30 1776 C 174.355 3.23774 4.24271 0
M  V30 1777 O 174.578 2.4133 5.16833 0
M  V30 1778 O 173.512 4.16774 4.34262 0
M  V30 1779 H 177.338 2.70777 1.37527 0
M  V30 1780 H 174.923 1.36051 0.617293 0
M  V30 1781 H 176.805 1.98267 3.71845 0
M  V30 1782 H 175.48 0.965413 3.08968 0
M  V30 1783 H 174.387 3.07497 2.13065 0
M  V30 1784 H 175.72 4.03446 2.81943 0
M  V30 1785 N 177.372 -0.689602 1.41712 0
M  V30 1786 C 178.32 -1.82475 1.44242 0
M  V30 1787 C 179.314 -1.66354 0.319774 0
M  V30 1788 O 180.52 -1.73143 0.492089 0
M  V30 1789 H 176.895 -0.601416 0.451445 0
M  V30 1790 H 178.866 -1.77458 2.39899 0
M  V30 1791 C 177.615 -3.20535 1.3473 0
M  V30 1792 H 176.938 -3.33559 2.20405 0
M  V30 1793 H 178.378 -4.00023 1.40562 0
M  V30 1794 C 176.837 -3.36846 0.0603281 0
M  V30 1795 O 177.367 -3.91656 -0.892663 0
M  V30 1796 N 175.573 -2.90595 -0.0177039 0
M  V30 1797 H 175.12 -2.46178 0.758572 0
M  V30 1798 H 175.078 -3.01886 -0.878201 0
M  V30 1799 N 178.85 -1.27639 -0.924453 0
M  V30 1800 C 179.813 -1.10681 -2.00705 0
M  V30 1801 C 180.813 -0.0497823 -1.60723 0
M  V30 1802 O 182.003 -0.294654 -1.7169 0
M  V30 1803 C 179.135 -0.687164 -3.33902 0
M  V30 1804 H 180.328 -2.06817 -2.17179 0
M  V30 1805 H 177.881 -1.10473 -1.10569 0
M  V30 1806 H 178.616 0.275439 -3.23128 0
M  V30 1807 H 178.401 -1.45061 -3.6428 0
M  V30 1808 H 179.891 -0.590853 -4.13399 0
M  V30 1809 N 180.328 1.1314 -1.09713 0
M  V30 1810 C 181.556 1.88321 -0.856898 0
M  V30 1811 C 181.971 1.79276 0.592073 0
M  V30 1812 O 181.328 1.16142 1.40774 0
M  V30 1813 C 181.379 3.37812 -1.28706 0
M  V30 1814 O 181.1 3.46627 -2.67921 0
M  V30 1815 C 182.601 4.29952 -1.07964 0
M  V30 1816 H 179.821 0.596094 -0.308079 0
M  V30 1817 H 182.365 1.43205 -1.45988 0
M  V30 1818 H 180.52 3.805 -0.727912 0
M  V30 1819 H 180.934 4.39579 -2.8613 0
M  V30 1820 H 182.408 5.33159 -1.42986 0
M  V30 1821 H 182.885 4.39196 -0.0176577 0
M  V30 1822 H 183.491 3.93036 -1.62489 0
M  V30 1823 N 181.806 0.884767 1.30421 0
M  V30 1824 C 182.736 0.367574 2.30589 0
M  V30 1825 C 183.717 -0.549464 1.60981 0
M  V30 1826 O 184.902 -0.46336 1.88591 0
M  V30 1827 C 182.032 -0.418944 3.44764 0
M  V30 1828 C 180.986 0.406316 4.26067 0
M  V30 1829 C 180.312 -0.506793 5.32293 0
M  V30 1830 C 181.612 1.64832 4.95608 0
M  V30 1831 H 183.306 1.20462 2.74097 0
M  V30 1832 H 180.852 0.580695 1.31772 0
M  V30 1833 H 182.805 -0.791395 4.13902 0
M  V30 1834 H 181.529 -1.28964 3.0006 0
M  V30 1835 H 180.188 0.760903 3.58617 0
M  V30 1836 H 179.836 -1.37519 4.83836 0
M  V30 1837 H 179.536 0.0415828 5.87585 0
M  V30 1838 H 181.06 -0.875764 6.04287 0
M  V30 1839 H 182.474 1.34646 5.57264 0
M  V30 1840 H 180.871 2.13688 5.60765 0
M  V30 1841 H 181.941 2.39284 4.21748 0
M  V30 1842 N 183.284 -1.43765 0.645699 0
M  V30 1843 C 184.561 -1.9541 0.0862963 0
M  V30 1844 C 184.941 -1.58725 -1.39175 0
M  V30 1845 O 184.289 -0.868581 -2.11348 0
M  V30 1846 C 184.499 -3.47488 0.324565 0
M  V30 1847 C 185.847 -4.24001 0.225497 0
M  V30 1848 O 186.871 -3.55274 0.256715 0
M  V30 1849 O 185.73 -5.46313 0.142801 0
M  V30 1850 H 182.824 -0.826882 -0.0139483 0
M  V30 1851 H 185.37 -1.53743 0.718415 0
M  V30 1852 H 184.142 -3.67289 1.3496 0
M  V30 1853 H 183.765 -3.96135 -0.340987 0
M  V30 1854 N 184.763 -0.387143 -1.52771 0
M  V30 1855 C 186.011 0.195349 -2.01154 0
M  V30 1856 C 186.332 1.475 -1.27549 0
M  V30 1857 O 185.602 1.91878 -0.394924 0
M  V30 1858 H 184.182 0.075178 -0.743207 0
M  V30 1859 H 186.844 -0.518337 -1.87881 0
M  V30 1860 H 185.94 0.407096 -3.09434 0
M  V30 1861 N 186.241 1.57166 -0.116904 0
M  V30 1862 C 187.469 1.99473 0.549383 0
M  V30 1863 C 187.884 0.996541 1.60357 0
M  V30 1864 O 187.241 -0.0108731 1.82497 0
M  V30 1865 C 187.292 3.41788 1.17741 0
M  V30 1866 O 187.013 4.37788 0.165362 0
M  V30 1867 C 188.514 3.99216 1.92722 0
M  V30 1868 H 185.734 0.655009 0.145616 0
M  V30 1869 H 188.278 2.03494 -0.202625 0
M  V30 1870 H 186.433 3.38713 1.88021 0
M  V30 1871 H 186.847 5.20806 0.621403 0
M  V30 1872 H 188.321 5.00882 2.31995 0
M  V30 1873 H 188.798 3.3824 2.80161 0
M  V30 1874 H 189.404 4.0583 1.27209 0
M  V30 1875 N 187.719 -0.156864 1.56817 0
M  V30 1876 C 188.996 -0.899244 1.73704 0
M  V30 1877 C 189.376 -1.99771 0.682254 0
M  V30 1878 O 188.724 -2.26515 -0.300522 0
M  V30 1879 C 188.934 -1.45075 3.17418 0
M  V30 1880 C 190.282 -1.91802 3.7881 0
M  V30 1881 O 191.306 -1.54838 3.20786 0
M  V30 1882 O 190.165 -2.5994 4.80722 0
M  V30 1883 H 187.259 -0.424267 0.709878 0
M  V30 1884 H 189.805 -0.143561 1.69092 0
M  V30 1885 H 188.577 -0.660846 3.85679 0
M  V30 1886 H 188.2 -2.27021 3.26416 0
M  V30 1887 N 189.197 -1.51736 -0.425897 0
M  V30 1888 C 190.443 -1.65214 -1.1761 0
M  V30 1889 C 190.776 -0.372778 -1.90589 0
M  V30 1890 O 190.051 0.628139 -1.84078 0
M  V30 1891 C 190.334 -2.86312 -2.18398 0
M  V30 1892 C 190.187 -4.24254 -1.49426 0
M  V30 1893 C 191.506 -3.02925 -3.19256 0
M  V30 1894 H 188.625 -0.601263 -0.426206 0
M  V30 1895 H 191.267 -1.8425 -0.463882 0
M  V30 1896 H 189.417 -2.70213 -2.79137 0
M  V30 1897 H 191.089 -4.52046 -0.919362 0
M  V30 1898 H 189.332 -4.26426 -0.796432 0
M  V30 1899 H 190.003 -5.05001 -2.22885 0
M  V30 1900 H 192.479 -3.1781 -2.68581 0
M  V30 1901 H 191.355 -3.89199 -3.8706 0
M  V30 1902 H 191.616 -2.15497 -3.86023 0
M  V30 1903 N 190.675 0.682077 -1.42076 0
M  V30 1904 C 191.605 1.80796 -1.47767 0
M  V30 1905 C 192.586 1.6677 -0.334954 0
M  V30 1906 O 193.771 1.863 -0.548264 0
M  V30 1907 C 190.901 3.19038 -1.37229 0
M  V30 1908 C 189.855 3.47789 -2.49453 0
M  V30 1909 C 189.181 4.8553 -2.23975 0
M  V30 1910 C 190.481 3.45411 -3.91776 0
M  V30 1911 H 192.175 1.7629 -2.41997 0
M  V30 1912 H 189.721 0.846721 -1.16476 0
M  V30 1913 H 191.674 3.97528 -1.39821 0
M  V30 1914 H 190.398 3.24204 -0.394907 0
M  V30 1915 H 189.057 2.71657 -2.46166 0
M  V30 1916 H 188.705 4.87337 -1.24547 0
M  V30 1917 H 188.405 5.0573 -2.99184 0
M  V30 1918 H 189.929 5.66312 -2.28304 0
M  V30 1919 H 191.343 4.13882 -3.96705 0
M  V30 1920 H 189.74 3.77145 -4.66778 0
M  V30 1921 H 190.81 2.44122 -4.18966 0
M  V30 1922 N 192.153 1.28127 0.917671 0
M  V30 1923 C 193.4 1.15052 1.66641 0
M  V30 1924 C 193.728 -0.301677 1.92146 0
M  V30 1925 O 192.983 -1.23622 1.51711 0
M  V30 1926 C 193.282 1.89018 3.03327 0
M  V30 1927 C 192.948 3.38832 2.97496 0
M  V30 1928 C 191.61 3.79693 2.95613 0
M  V30 1929 C 193.962 4.34378 2.88036 0
M  V30 1930 C 191.29 5.14447 2.82066 0
M  V30 1931 C 193.642 5.69201 2.7603 0
M  V30 1932 C 192.306 6.09343 2.72502 0
M  V30 1933 H 191.576 0.421006 0.609783 0
M  V30 1934 H 194.223 1.58855 1.06945 0
M  V30 1935 H 192.528 1.37752 3.66785 0
M  V30 1936 H 194.225 1.76321 3.60156 0
M  V30 1937 H 190.815 3.06342 2.99754 0
M  V30 1938 H 194.999 4.03775 2.88581 0
M  V30 1939 H 190.255 5.44681 2.77728 0
M  V30 1940 H 194.429 6.42901 2.67678 0
M  V30 1941 H 192.056 7.13712 2.61762 0
M  V30 1942 N 193.631 -1.12557 1.10312 0
M  V30 1943 C 194.859 -1.87864 0.866873 0
M  V30 1944 C 195.274 -1.79588 -0.582557 0
M  V30 1945 O 194.631 -1.16887 -1.40156 0
M  V30 1946 C 194.682 -3.37125 1.30496 0
M  V30 1947 O 194.403 -3.45201 2.69755 0
M  V30 1948 C 195.904 -4.29373 1.10243 0
M  V30 1949 H 193.124 -0.594452 0.311236 0
M  V30 1950 H 195.668 -1.42429 1.46745 0
M  V30 1951 H 193.823 -3.80109 0.748081 0
M  V30 1952 H 194.237 -4.38056 2.88457 0
M  V30 1953 H 195.711 -5.32394 1.45811 0
M  V30 1954 H 196.188 -4.39181 0.0409492 0
M  V30 1955 H 196.794 -3.92169 1.64571 0
M  V30 1956 N 195.109 -0.891671 -1.2995 0
M  V30 1957 C 196.357 -0.512486 -1.95494 0
M  V30 1958 C 196.678 0.942776 -1.70695 0
M  V30 1959 O 195.948 1.66374 -1.03424 0
M  V30 1960 H 194.528 -0.186533 -0.723336 0
M  V30 1961 H 197.19 -1.13621 -1.58355 0
M  V30 1962 H 196.286 -0.688342 -3.04415 0
M  V30 1963 N 196.587 1.43421 -0.653314 0
M  V30 1964 C 198.003 1.56341 -0.320886 0
M  V30 1965 C 198.203 1.63696 1.17499 0
M  V30 1966 O 197.259 1.59208 1.95982 0
M  V30 1967 C 198.572 2.82424 -1.03233 0
M  V30 1968 C 200.12 2.96168 -1.01259 0
M  V30 1969 C 200.595 4.25084 -1.70492 0
M  V30 1970 N 202.086 4.31948 -1.67257 0
M  V30 1971 C 202.821 5.30466 -2.17701 0
M  V30 1972 N 202.317 6.35261 -2.76434 0
M  V30 1973 N 204.11 5.2212 -2.082 0
M  V30 1974 H 196.261 1.3689 -1.62403 0
M  V30 1975 H 198.524 0.657455 -0.682977 0
M  V30 1976 H 198.23 2.83053 -2.08744 0
M  V30 1977 H 198.104 3.72653 -0.583948 0
M  V30 1978 H 200.491 2.9508 0.0341235 0
M  V30 1979 H 200.572 2.07229 -1.49966 0
M  V30 1980 H 200.216 4.26932 -2.7512 0
M  V30 1981 H 200.146 5.1292 -1.19251 0
M  V30 1982 H 202.637 3.56838 -1.24398 0
M  V30 1983 H 202.95 7.06754 -3.12601 0
M  V30 1984 H 201.295 6.35884 -2.80495 0
M  V30 1985 H 204.486 4.39166 -1.62021 0
M  V30 1986 H 204.659 5.98739 -2.47822 0
M  V30 1987 N 198.065 0.39524 1.52563 0
M  V30 1988 C 198.975 -0.444232 2.30356 0
M  V30 1989 C 199.991 -1.06615 1.37511 0
M  V30 1990 O 201.167 -1.07067 1.70583 0
M  V30 1991 C 198.232 -1.55315 3.09964 0
M  V30 1992 C 197.293 -0.955734 4.18526 0
M  V30 1993 C 196.526 -2.01181 4.9433 0
M  V30 1994 O 196.749 -3.22781 4.70285 0
M  V30 1995 O 195.683 -1.62579 5.79527 0
M  V30 1996 H 199.509 0.189667 3.03107 0
M  V30 1997 H 197.094 0.1588 1.48554 0
M  V30 1998 H 198.976 -2.19724 3.59582 0
M  V30 1999 H 197.651 -2.17191 2.4002 0
M  V30 2000 H 196.558 -0.274743 3.7309 0
M  V30 2001 H 197.891 -0.381109 4.90722 0
M  V30 2002 N 199.544 -1.57102 0.125237 0
M  V30 2003 C 200.791 -1.95407 -0.531248 0
M  V30 2004 C 201.119 -1.0089 -1.66287 0
M  V30 2005 O 200.374 -0.0339431 -1.95671 0
M  V30 2006 C 200.673 -3.40096 -1.09862 0
M  V30 2007 C 200.339 -4.50815 -0.0876989 0
M  V30 2008 C 199.001 -4.80824 0.19026 0
M  V30 2009 C 201.353 -5.17724 0.600902 0
M  V30 2010 C 198.681 -5.75058 1.163 0
M  V30 2011 C 201.033 -6.13005 1.56231 0
M  V30 2012 C 199.697 -6.41403 1.8482 0
M  V30 2013 H 198.967 -0.715046 -0.194397 0
M  V30 2014 H 201.614 -1.90373 0.207463 0
M  V30 2015 H 199.919 -3.41855 -1.91422 0
M  V30 2016 H 201.616 -3.6705 -1.61478 0
M  V30 2017 H 198.206 -4.27444 -0.314528 0
M  V30 2018 H 202.39 -4.94691 0.399333 0
M  V30 2019 H 197.646 -5.95362 1.39117 0
M  V30 2020 H 201.82 -6.63934 2.10153 0
M  V30 2021 H 199.447 -7.14229 2.60349 0
M  V30 2022 N 201.022 0.148545 -1.56898 0
M  V30 2023 C 202.269 0.861418 -1.83264 0
M  V30 2024 C 202.597 1.81239 -0.705883 0
M  V30 2025 O 201.852 1.93305 0.305212 0
M  V30 2026 C 202.151 1.67064 -3.1595 0
M  V30 2027 C 201.817 0.866591 -4.42494 0
M  V30 2028 C 200.479 0.644762 -4.76861 0
M  V30 2029 C 202.831 0.30418 -5.20312 0
M  V30 2030 C 200.159 -0.15021 -5.86508 0
M  V30 2031 C 202.511 -0.477824 -6.30793 0
M  V30 2032 C 201.175 -0.710244 -6.63711 0
M  V30 2033 H 200.445 0.315215 -0.670612 0
M  V30 2034 H 203.092 0.125142 -1.91091 0
M  V30 2035 H 201.397 2.47698 -3.03567 0
M  V30 2036 H 203.094 2.22566 -3.33565 0
M  V30 2037 H 199.684 1.04955 -4.15551 0
M  V30 2038 H 203.868 0.462844 -4.94137 0
M  V30 2039 H 199.124 -0.339796 -6.10455 0
M  V30 2040 H 203.298 -0.92076 -6.90286 0
M  V30 2041 H 200.925 -1.3281 -7.48509 0
M  V30 2042 N 202.5 1.5196 0.417844 0
M  V30 2043 C 203.746 1.65836 1.16732 0
M  V30 2044 C 204.079 0.382881 1.90388 0
M  V30 2045 O 203.354 -0.618368 1.84408 0
M  V30 2046 C 203.637 2.87466 2.16876 0
M  V30 2047 C 203.49 4.25041 1.47174 0
M  V30 2048 C 204.809 3.04613 3.17646 0
M  V30 2049 H 201.928 0.603515 0.423011 0
M  V30 2050 H 204.57 1.84494 0.454105 0
M  V30 2051 H 202.72 2.71689 2.777 0
M  V30 2052 H 204.392 4.52527 0.895376 0
M  V30 2053 H 202.635 4.26843 0.773806 0
M  V30 2054 H 203.306 5.06176 2.20204 0
M  V30 2055 H 205.782 3.1923 2.66892 0
M  V30 2056 H 204.658 3.91247 3.8499 0
M  V30 2057 H 204.919 2.17541 3.84874 0
M  V30 2058 N 203.978 -0.674533 1.42435 0
M  V30 2059 C 205.226 -1.43175 1.42637 0
M  V30 2060 C 205.547 -1.94951 0.0438992 0
M  V30 2061 O 204.817 -1.7308 -0.917607 0
M  V30 2062 H 203.397 -0.531307 0.525092 0
M  V30 2063 H 206.059 -0.797006 1.77859 0
M  V30 2064 H 205.155 -2.28463 2.12629 0
M  V30 2065 N 205.456 -1.28612 -0.910864 0
M  V30 2066 C 206.386 -1.15326 -2.03032 0
M  V30 2067 C 207.367 -0.0502924 -1.70026 0
M  V30 2068 O 208.552 -0.227797 -1.92859 0
M  V30 2069 C 205.682 -0.817343 -3.37545 0
M  V30 2070 C 204.636 -1.8754 -3.84724 0
M  V30 2071 C 203.962 -1.39305 -5.16235 0
M  V30 2072 C 205.262 -3.28244 -4.06267 0
M  V30 2073 H 206.956 -2.08975 -2.14406 0
M  V30 2074 H 204.502 -1.00612 -1.03021 0
M  V30 2075 H 206.455 -0.711151 -4.15356 0
M  V30 2076 H 205.179 0.154846 -3.26233 0
M  V30 2077 H 203.838 -1.97079 -3.09121 0
M  V30 2078 H 203.486 -0.409846 -5.01328 0
M  V30 2079 H 203.186 -2.10057 -5.48771 0
M  V30 2080 H 204.71 -1.30014 -5.96598 0
M  V30 2081 H 206.124 -3.21611 -4.74594 0
M  V30 2082 H 204.521 -3.96855 -4.5014 0
M  V30 2083 H 205.591 -3.72048 -3.10979 0
M  V30 2084 N 206.934 1.1197 -1.10907 0
M  V30 2085 C 208.159 1.87942 -0.877064 0
M  V30 2086 C 208.584 1.79341 0.567314 0
M  V30 2087 O 207.942 1.15184 1.40009 0
M  V30 2088 C 207.99 3.34926 -1.33629 0
M  V30 2089 O 207.094 4.09303 -0.504447 0
M  V30 2090 H 206.435 0.583785 -0.316371 0
M  V30 2091 H 208.965 1.4157 -1.47712 0
M  V30 2092 H 208.975 3.8577 -1.32837 0
M  V30 2093 H 207.65 3.40504 -2.3881 0
M  V30 2094 H 206.227 3.68393 -0.577993 0
M  V30 2095 N 208.412 0.89855 1.29475 0
M  V30 2096 C 209.359 0.373819 2.27753 0
M  V30 2097 C 210.329 -0.543444 1.56958 0
M  V30 2098 O 211.514 -0.468934 1.84948 0
M  V30 2099 C 208.654 -0.393648 3.42848 0
M  V30 2100 C 207.767 0.554379 4.28428 0
M  V30 2101 C 206.902 -0.230026 5.30702 0
M  V30 2102 C 205.941 0.712599 6.07938 0
M  V30 2103 N 205.078 -0.0373283 7.0209 0
M  V30 2104 H 209.918 1.21699 2.72017 0
M  V30 2105 H 207.455 0.611456 1.33789 0
M  V30 2106 H 209.413 -0.85466 4.08352 0
M  V30 2107 H 208.043 -1.20128 2.99615 0
M  V30 2108 H 207.095 1.13391 3.63107 0
M  V30 2109 H 208.407 1.27597 4.82204 0
M  V30 2110 H 207.561 -0.752288 6.02018 0
M  V30 2111 H 206.3 -0.984758 4.77654 0
M  V30 2112 H 205.305 1.24637 5.35486 0
M  V30 2113 H 206.53 1.46664 6.63074 0
M  V30 2114 H 204.476 -0.774348 6.51414 0
M  V30 2115 H 204.393 0.624374 7.53417 0
M  V30 2116 H 205.661 -0.539891 7.77628 0
M  V30 2117 N 209.89 -1.43072 0.660911 0
M  V30 2118 C 211.136 -2.02545 0.186337 0
M  V30 2119 C 211.491 -1.51253 -1.18913 0
M  V30 2120 O 210.784 -0.699167 -1.78388 0
M  V30 2121 C 210.978 -3.57103 0.145563 0
M  V30 2122 C 210.807 -4.23393 1.51554 0
M  V30 2123 C 209.577 -4.59144 2.10984 0
M  V30 2124 C 211.775 -4.51897 2.45548 0
M  V30 2125 N 209.757 -5.10545 3.40907 0
M  V30 2126 C 211.128 -5.04698 3.6011 0
M  V30 2127 C 213.183 -4.33872 2.44253 0
M  V30 2128 C 211.886 -5.41371 4.73613 0
M  V30 2129 C 213.912 -4.71612 3.56842 0
M  V30 2130 C 213.274 -5.24553 4.70131 0
M  V30 2131 H 209.373 -0.773823 0.112792 0
M  V30 2132 H 211.957 -1.74137 0.870885 0
M  V30 2133 H 210.128 -3.85059 -0.508353 0
M  V30 2134 H 211.86 -4.03264 -0.340598 0
M  V30 2135 H 208.615 -4.4444 1.63615 0
M  V30 2136 H 209.039 -5.40689 4.07411 0
M  V30 2137 H 213.681 -3.92208 1.579 0
M  V30 2138 H 211.399 -5.81975 5.60652 0
M  V30 2139 H 214.985 -4.59354 3.57051 0
M  V30 2140 H 213.865 -5.53213 5.5581 0
M  V30 2141 N 211.368 -0.403325 -1.52352 0
M  V30 2142 C 212.596 0.174012 -2.06167 0
M  V30 2143 C 213.011 1.39347 -1.27388 0
M  V30 2144 O 212.368 1.79597 -0.324201 0
M  V30 2145 C 212.419 0.530223 -3.5759 0
M  V30 2146 O 212.14 -0.640806 -4.33388 0
M  V30 2147 C 213.641 1.16192 -4.27802 0
M  V30 2148 H 210.861 0.0229464 -0.670608 0
M  V30 2149 H 213.405 -0.572604 -1.9632 0
M  V30 2150 H 211.56 1.22673 -3.67464 0
M  V30 2151 H 211.974 -0.344851 -5.23365 0
M  V30 2152 H 213.448 1.36141 -5.34948 0
M  V30 2153 H 213.925 2.13335 -3.83907 0
M  V30 2154 H 214.531 0.505775 -4.22282 0
M  V30 2155 N 212.846 1.57033 -0.133567 0
M  V30 2156 C 213.794 2.17348 0.828412 0
M  V30 2157 C 214.788 1.12671 1.26498 0
M  V30 2158 O 215.994 1.30947 1.23502 0
M  V30 2159 H 212.369 0.695775 0.285309 0
M  V30 2160 H 214.34 2.96935 0.295372 0
M  V30 2161 C 213.089 2.79893 2.06289 0
M  V30 2162 H 212.412 3.60147 1.73592 0
M  V30 2163 H 213.852 3.25615 2.71572 0
M  V30 2164 C 212.311 1.77713 2.86216 0
M  V30 2165 O 212.841 1.23937 3.82103 0
M  V30 2166 N 211.047 1.47321 2.50489 0
M  V30 2167 H 210.594 1.91243 1.7258 0
M  V30 2168 H 210.552 0.79199 3.04261 0
M  V30 2169 N 214.325 -0.140222 1.56975 0
M  V30 2170 C 215.275 -1.17827 1.95194 0
M  V30 2171 C 216.259 -1.38195 0.824075 0
M  V30 2172 O 217.451 -1.39643 1.0876 0
M  V30 2173 C 214.58 -2.51024 2.34184 0
M  V30 2174 C 213.666 -2.3422 3.53556 0
M  V30 2175 N 214.057 -1.87185 4.69889 0
M  V30 2176 C 212.355 -2.64949 3.58773 0
M  V30 2177 C 213.056 -1.83586 5.5197 0
M  V30 2178 N 212.032 -2.2715 4.93866 0
M  V30 2179 H 215.834 -0.806817 2.82609 0
M  V30 2180 H 213.348 -0.348208 1.58623 0
M  V30 2181 H 215.345 -3.26074 2.59772 0
M  V30 2182 H 214.005 -2.88945 1.48124 0
M  V30 2183 H 215.016 -1.57048 4.93514 0
M  V30 2184 H 211.693 -3.067 2.8327 0
M  V30 2185 H 213.083 -1.48655 6.55249 0
M  V30 2186 N 215.803 -1.52179 -0.40978 0
M  V30 2187 C 217.219 -1.40968 -0.74835 0
M  V30 2188 C 217.419 -0.513657 -1.94843 0
M  V30 2189 O 216.475 0.0208026 -2.52491 0
M  V30 2190 C 217.788 -2.83483 -1.0029 0
M  V30 2191 C 219.336 -2.92821 -1.10565 0
M  V30 2192 C 219.811 -4.36303 -1.39296 0
M  V30 2193 N 221.302 -4.39535 -1.46162 0
M  V30 2194 C 222.037 -5.47614 -1.70018 0
M  V30 2195 N 221.533 -6.65812 -1.91483 0
M  V30 2196 N 223.326 -5.35129 -1.72027 0
M  V30 2197 H 215.477 -2.0897 0.380186 0
M  V30 2198 H 217.74 -0.94185 0.107805 0
M  V30 2199 H 217.446 -3.51168 -0.193461 0
M  V30 2200 H 217.32 -3.24487 -1.92323 0
M  V30 2201 H 219.707 -2.25318 -1.90568 0
M  V30 2202 H 219.788 -2.55276 -0.16369 0
M  V30 2203 H 219.432 -5.04366 -0.598109 0
M  V30 2204 H 219.362 -4.71385 -2.34743 0
M  V30 2205 H 221.853 -3.54332 -1.31367 0
M  V30 2206 H 222.166 -7.43964 -2.09134 0
M  V30 2207 H 220.511 -6.68879 -1.88749 0
M  V30 2208 H 223.702 -4.41764 -1.54796 0
M  V30 2209 H 223.875 -6.19433 -1.9028 0
M  V30 2210 N 217.281 0.66697 -1.42791 0
M  V30 2211 C 218.529 1.42417 -1.43394 0
M  V30 2212 C 218.85 1.94925 -0.0542373 0
M  V30 2213 O 218.12 1.73564 0.908415 0
M  V30 2214 H 216.7 0.528515 -0.527902 0
M  V30 2215 H 219.362 0.787562 -1.78279 0
M  V30 2216 H 218.458 2.27333 -2.13837 0
M  V30 2217 N 218.759 1.29093 0.90403 0
M  V30 2218 C 219.722 1.1386 1.98919 0
M  V30 2219 C 220.722 0.0753457 1.60623 0
M  V30 2220 O 221.912 0.321931 1.71199 0
M  V30 2221 C 219.044 0.740198 3.32767 0
M  V30 2222 H 220.237 2.10246 2.13861 0
M  V30 2223 H 217.79 1.12218 1.08797 0
M  V30 2224 H 218.525 -0.223997 3.23525 0
M  V30 2225 H 218.31 1.50838 3.61926 0
M  V30 2226 H 219.8 0.656546 4.12407 0
M  V30 2227 N 220.237 -1.11381 1.11499 0
M  V30 2228 C 221.147 -2.21019 0.786628 0
M  V30 2229 C 222.163 -1.72597 -0.220507 0
M  V30 2230 O 223.339 -2.01321 -0.0565251 0
M  V30 2231 C 220.404 -3.459 0.235333 0
M  V30 2232 C 219.465 -4.09107 1.30115 0
M  V30 2233 C 218.698 -5.28027 0.776068 0
M  V30 2234 O 218.921 -5.6904 -0.393661 0
M  V30 2235 O 217.855 -5.81835 1.54114 0
M  V30 2236 H 221.681 -2.51521 1.70209 0
M  V30 2237 H 219.266 -1.19928 0.890928 0
M  V30 2238 H 221.148 -4.21346 -0.067715 0
M  V30 2239 H 219.823 -3.17049 -0.652828 0
M  V30 2240 H 218.73 -3.35391 1.65722 0
M  V30 2241 H 220.063 -4.42139 2.16273 0
M  V30 2242 N 221.715 -0.905404 -1.28997 0
M  V30 2243 C 222.964 -0.530191 -1.94607 0
M  V30 2244 C 223.277 0.929185 -1.72121 0
M  V30 2245 O 224.483 1.41218 -2.31883 0
M  V30 2246 C 222.939 -0.897333 -3.48534 0
M  V30 2247 C 222.547 -2.37587 -3.79811 0
M  V30 2248 C 224.291 -0.592304 -4.20347 0
M  V30 2249 C 222.198 -2.68357 -5.27009 0
M  V30 2250 H 221.128 -0.194558 -0.728466 0
M  V30 2251 H 223.779 -1.10318 -1.46636 0
M  V30 2252 H 222.161 -0.253214 -3.9519 0
M  V30 2253 H 223.335 -3.06602 -3.43994 0
M  V30 2254 H 221.65 -2.6505 -3.2115 0
M  V30 2255 H 224.247 -0.798975 -5.28697 0
M  V30 2256 H 224.59 0.469474 -4.13644 0
M  V30 2257 H 225.123 -1.19452 -3.79442 0
M  V30 2258 H 221.862 -3.73355 -5.38782 0
M  V30 2259 H 221.382 -2.03971 -5.64053 0
M  V30 2260 H 223.061 -2.54922 -5.94663 0
M  V30 2261 N 223.193 1.4272 -0.668489 0
M  V30 2262 C 224.439 2.01923 -0.188419 0
M  V30 2263 C 224.772 1.52704 1.19979 0
M  V30 2264 O 224.047 0.726566 1.8042 0
M  V30 2265 C 224.33 3.59451 -0.216085 0
M  V30 2266 C 224.183 4.18864 -1.6393 0
M  V30 2267 C 225.502 4.37903 0.439179 0
M  V30 2268 H 222.621 0.733674 -0.0699412 0
M  V30 2269 H 225.263 1.69822 -0.852076 0
M  V30 2270 H 223.413 3.86929 0.349012 0
M  V30 2271 H 225.085 4.02362 -2.25616 0
M  V30 2272 H 223.328 3.74933 -2.18193 0
M  V30 2273 H 223.999 5.27987 -1.61039 0
M  V30 2274 H 226.475 4.16079 -0.0417878 0
M  V30 2275 H 225.351 5.47519 0.389157 0
M  V30 2276 H 225.612 4.15303 1.51577 0
M  V30 2277 N 224.671 0.411399 1.52136 0
M  V30 2278 C 225.634 -0.401089 2.25663 0
M  V30 2279 C 226.634 -0.971732 1.28117 0
M  V30 2280 O 227.824 -0.850254 1.52041 0
M  V30 2281 C 224.956 -1.56483 3.02863 0
M  V30 2282 H 226.149 0.24295 2.98914 0
M  V30 2283 H 223.702 0.163968 1.55438 0
M  V30 2284 H 224.437 -2.24567 2.33967 0
M  V30 2285 H 224.222 -1.16211 3.74483 0
M  V30 2286 H 225.712 -2.13951 3.58629 0
M  V30 2287 N 226.149 -1.5696 0.141893 0
M  V30 2288 C 227.426 -1.87553 -0.555281 0
M  V30 2289 C 227.806 -1.04699 -1.83306 0
M  V30 2290 O 227.154 -0.132346 -2.28116 0
M  V30 2291 C 227.364 -3.39093 -0.825664 0
M  V30 2292 C 228.712 -4.08199 -1.16869 0
M  V30 2293 O 229.736 -3.44242 -0.915185 0
M  V30 2294 O 228.595 -5.21139 -1.6455 0
M  V30 2295 H 225.689 -0.777188 -0.282679 0
M  V30 2296 H 228.235 -1.68763 0.17812 0
M  V30 2297 H 227.007 -3.91221 0.0788633 0
M  V30 2298 H 226.63 -3.63393 -1.61343 0
M  V30 2299 N 227.627 0.131896 -1.57047 0
M  V30 2300 C 228.855 0.856461 -1.88341 0
M  V30 2301 C 229.27 1.74042 -0.731757 0
M  V30 2302 O 228.627 1.80051 0.297945 0
M  V30 2303 C 228.678 1.70064 -3.18999 0
M  V30 2304 O 228.399 0.852278 -4.2973 0
M  V30 2305 C 229.9 2.53148 -3.63911 0
M  V30 2306 H 227.12 0.246885 -0.62393 0
M  V30 2307 H 229.664 0.120152 -2.04147 0
M  V30 2308 H 227.819 2.38984 -3.04902 0
M  V30 2309 H 228.233 1.43329 -5.04537 0
M  V30 2310 H 229.707 3.07931 -4.58129 0
M  V30 2311 H 230.184 3.29901 -2.89935 0
M  V30 2312 H 230.79 1.89492 -3.80753 0
M  V30 2313 N 229.106 1.52395 0.401703 0
M  V30 2314 C 230.353 1.66817 1.14796 0
M  V30 2315 C 230.681 0.401772 1.90305 0
M  V30 2316 O 229.936 -0.615487 1.85769 0
M  V30 2317 C 230.235 2.84578 2.16217 0
M  V30 2318 C 229.901 4.22513 1.5746 0
M  V30 2319 C 228.563 4.60029 1.41161 0
M  V30 2320 C 230.915 5.0844 1.14622 0
M  V30 2321 C 228.243 5.81144 0.80552 0
M  V30 2322 C 230.595 6.30167 0.55428 0
M  V30 2323 C 229.259 6.66426 0.378482 0
M  V30 2324 H 228.529 0.610428 0.420069 0
M  V30 2325 H 231.176 1.86512 0.434212 0
M  V30 2326 H 229.481 2.59248 2.93764 0
M  V30 2327 H 231.178 2.92933 2.73845 0
M  V30 2328 H 227.768 3.92953 1.71132 0
M  V30 2329 H 231.952 4.80034 1.26021 0
M  V30 2330 H 227.208 6.07855 0.657399 0
M  V30 2331 H 231.382 6.96071 0.213983 0
M  V30 2332 H 229.009 7.60143 -0.0932606 0
M  V30 2333 N 230.584 -0.659388 1.43143 0
M  V30 2334 C 232 -0.974337 1.26407 0
M  V30 2335 C 232.2 -2.007 0.179341 0
M  V30 2336 O 231.256 -2.4856 -0.444295 0
M  V30 2337 C 232.569 -1.46447 2.62628 0
M  V30 2338 C 234.117 -1.58144 2.7011 0
M  V30 2339 C 234.592 -2.1055 4.06734 0
M  V30 2340 N 236.083 -2.17861 4.08767 0
M  V30 2341 C 236.818 -2.59519 5.1131 0
M  V30 2342 N 236.314 -3.00518 6.24228 0
M  V30 2343 N 238.107 -2.59404 4.98664 0
M  V30 2344 H 230.258 0.0240528 2.12386 0
M  V30 2345 H 232.521 -0.0518065 0.946583 0
M  V30 2346 H 232.227 -0.780123 3.42939 0
M  V30 2347 H 232.101 -2.44058 2.87603 0
M  V30 2348 H 234.488 -2.25682 1.90136 0
M  V30 2349 H 234.569 -0.589828 2.48907 0
M  V30 2350 H 234.213 -1.43616 4.87172 0
M  V30 2351 H 234.143 -3.10531 4.25298 0
M  V30 2352 H 236.634 -1.88975 3.27257 0
M  V30 2353 H 236.947 -3.31036 6.98309 0
M  V30 2354 H 235.292 -2.98337 6.2771 0
M  V30 2355 H 238.483 -2.26747 4.09516 0
M  V30 2356 H 238.656 -2.91548 5.78709 0
M  V30 2357 N 232.062 -1.29571 -0.897171 0
M  V30 2358 C 233.339 -1.08365 -1.62839 0
M  V30 2359 C 233.719 0.371331 -2.07808 0
M  V30 2360 O 233.067 1.3606 -1.83576 0
M  V30 2361 C 233.277 -2.0735 -2.80726 0
M  V30 2362 C 234.625 -2.38406 -3.51351 0
M  V30 2363 O 235.649 -2.05564 -2.90898 0
M  V30 2364 O 234.508 -2.9453 -4.60341 0
M  V30 2365 H 231.602 -0.415345 -0.715134 0
M  V30 2366 H 234.148 -1.40952 -0.945018 0
M  V30 2367 H 232.92 -3.05339 -2.44711 0
M  V30 2368 H 232.543 -1.75507 -3.56767 0
M  V30 2369 N 233.54 1.10788 -1.12088 0
M  V30 2370 C 234.787 1.82671 -0.873931 0
M  V30 2371 C 235.115 1.85004 0.600311 0
M  V30 2372 O 234.37 1.30365 1.45957 0
M  V30 2373 C 234.669 3.29294 -1.38926 0
M  V30 2374 C 234.335 3.47113 -2.87791 0
M  V30 2375 C 232.997 3.51684 -3.28439 0
M  V30 2376 C 235.349 3.52808 -3.83635 0
M  V30 2377 C 232.677 3.59513 -4.63646 0
M  V30 2378 C 235.029 3.62169 -5.18668 0
M  V30 2379 C 233.693 3.65003 -5.58864 0
M  V30 2380 H 232.963 0.668441 -0.319794 0
M  V30 2381 H 235.61 1.30613 -1.40045 0
M  V30 2382 H 233.915 3.83894 -0.783122 0
M  V30 2383 H 235.612 3.83416 -1.17443 0
M  V30 2384 H 232.202 3.4423 -2.5535 0
M  V30 2385 H 236.386 3.4853 -3.53328 0
M  V30 2386 H 231.642 3.59987 -4.94185 0
M  V30 2387 H 235.816 3.6552 -5.92763 0
M  V30 2388 H 233.443 3.70822 -6.63623 0
M  V30 2389 N 235.018 0.912232 1.28515 0
M  V30 2390 C 235.981 0.404223 2.25607 0
M  V30 2391 C 236.981 -0.468602 1.53821 0
M  V30 2392 O 238.171 -0.271873 1.72065 0
M  V30 2393 C 235.303 -0.420653 3.38295 0
M  V30 2394 H 236.496 1.26188 2.7206 0
M  V30 2395 H 234.049 0.691495 1.40171 0
M  V30 2396 H 234.784 -1.29777 2.97201 0
M  V30 2397 H 234.569 0.204935 3.91564 0
M  V30 2398 H 236.059 -0.766971 4.10496 0
M  V30 2399 N 236.496 -1.42363 0.676048 0
M  V30 2400 C 237.742 -2.0182 0.199125 0
M  V30 2401 C 238.075 -1.53339 -1.19168 0
M  V30 2402 O 237.35 -0.736124 -1.80032 0
M  V30 2403 C 237.633 -3.59331 0.235144 0
M  V30 2404 C 237.486 -4.17989 1.66149 0
M  V30 2405 C 238.805 -4.3813 -0.41595 0
M  V30 2406 H 235.924 -0.733293 0.0738311 0
M  V30 2407 H 238.566 -1.69368 0.86107 0
M  V30 2408 H 236.716 -3.87109 -0.328487 0
M  V30 2409 H 238.388 -4.0116 2.27747 0
M  V30 2410 H 236.631 -3.7377 2.20178 0
M  V30 2411 H 237.302 -5.27126 1.63837 0
M  V30 2412 H 239.778 -4.16051 0.0638529 0
M  V30 2413 H 238.654 -5.47717 -0.360115 0
M  V30 2414 H 238.915 -4.16101 -1.49373 0
M  V30 2415 N 237.974 -0.419461 -1.51915 0
M  V30 2416 C 239.199 0.154572 -2.06823 0
M  V30 2417 C 239.624 1.3722 -1.28656 0
M  V30 2418 O 238.982 1.78461 -0.319583 0
M  V30 2419 C 239.03 0.473172 -3.57482 0
M  V30 2420 O 238.134 1.56255 -3.81652 0
M  V30 2421 H 237.475 0.0096924 -0.663929 0
M  V30 2422 H 240.005 -0.595642 -1.95738 0
M  V30 2423 H 240.015 0.728825 -4.01438 0
M  V30 2424 H 238.69 -0.416873 -4.13805 0
M  V30 2425 H 237.267 1.29825 -3.49571 0
M  V30 2426 N 239.452 1.56882 -0.150215 0
M  V30 2427 C 240.68 2.00593 0.506948 0
M  V30 2428 C 241.095 1.03033 1.58208 0
M  V30 2429 O 240.452 0.0278396 1.82479 0
M  V30 2430 C 240.503 3.44209 1.10465 0
M  V30 2431 O 240.224 4.3804 0.0724636 0
M  V30 2432 C 241.725 4.03214 1.84211 0
M  V30 2433 H 238.945 0.65795 0.13169 0
M  V30 2434 H 241.489 2.03018 -0.245743 0
M  V30 2435 H 239.644 3.42625 1.80795 0
M  V30 2436 H 240.058 5.22007 0.510793 0
M  V30 2437 H 241.532 5.0569 2.21318 0
M  V30 2438 H 242.009 3.44107 2.72923 0
M  V30 2439 H 242.615 4.08437 1.18572 0
M  V30 2440 N 240.93 -0.123565 1.57115 0
M  V30 2441 C 242.176 -0.833386 1.84885 0
M  V30 2442 C 242.509 -1.79742 0.735292 0
M  V30 2443 O 241.784 -1.92764 -0.25925 0
M  V30 2444 C 242.067 -1.5873 3.23228 0
M  V30 2445 C 241.92 -0.643183 4.45178 0
M  V30 2446 C 243.239 -2.54453 3.59085 0
M  V30 2447 H 240.358 -0.301518 0.6725 0
M  V30 2448 H 243 -0.097778 1.89748 0
M  V30 2449 H 241.15 -2.21438 3.19214 0
M  V30 2450 H 242.822 -0.0253015 4.61293 0
M  V30 2451 H 241.065 0.0456139 4.33776 0
M  V30 2452 H 241.736 -1.20724 5.38637 0
M  V30 2453 H 244.212 -2.01853 3.63861 0
M  V30 2454 H 243.088 -3.04238 4.5687 0
M  V30 2455 H 243.349 -3.36906 2.86264 0
M  V30 2456 N 242.408 -1.52605 -0.393616 0
M  V30 2457 C 243.819 -1.59417 -0.971761 0
M  V30 2458 C 244.17 -0.444173 -1.91106 0
M  V30 2459 O 243.295 0.433382 -2.12016 0
M  V30 2460 C 243.89 -2.88936 -1.76921 0
M  V30 2461 C 242.449 -2.98175 -2.29714 0
M  V30 2462 C 241.596 -2.54491 -1.10135 0
M  V30 2463 H 244.547 -1.57751 -0.173317 0
M  V30 2464 H 244.568 -2.75163 -2.62804 0
M  V30 2465 H 244.08 -3.72616 -1.08532 0
M  V30 2466 H 242.181 -2.19024 -3.01429 0
M  V30 2467 H 242.294 -4.02726 -2.59517 0
M  V30 2468 H 240.658 -2.08702 -1.45999 0
M  V30 2469 H 241.441 -3.4056 -0.432874 0
M  V30 2470 N 243.887 0.651787 -1.4349 0
M  V30 2471 C 245.133 1.41376 -1.45398 0
M  V30 2472 C 245.466 1.94041 -0.0784823 0
M  V30 2473 O 244.741 1.72379 0.900878 0
M  V30 2474 C 245.024 2.59414 -2.49752 0
M  V30 2475 C 244.877 2.12232 -3.96582 0
M  V30 2476 C 246.196 3.61626 -2.50827 0
M  V30 2477 H 243.315 0.512719 -0.529422 0
M  V30 2478 H 245.957 0.738796 -1.75048 0
M  V30 2479 H 244.107 3.16997 -2.246 0
M  V30 2480 H 245.779 1.59639 -4.32797 0
M  V30 2481 H 244.022 1.43592 -4.09346 0
M  V30 2482 H 244.693 2.9712 -4.65214 0
M  V30 2483 H 247.169 3.13805 -2.7325 0
M  V30 2484 H 246.045 4.41766 -3.25783 0
M  V30 2485 H 246.306 4.14314 -1.5426 0
M  V30 2486 N 245.365 1.30045 0.890287 0
M  V30 2487 C 246.59 1.21598 1.68014 0
M  V30 2488 C 247.015 -0.218678 1.86825 0
M  V30 2489 O 246.373 -1.15756 1.39536 0
M  V30 2490 C 246.421 1.94434 3.03691 0
M  V30 2491 O 245.525 1.2678 3.92429 0
M  V30 2492 H 244.866 0.420856 0.513592 0
M  V30 2493 H 247.396 1.71775 1.11151 0
M  V30 2494 H 247.406 2.03251 3.5377 0
M  V30 2495 H 246.081 2.98777 2.89318 0
M  V30 2496 H 244.658 1.26282 3.50866 0
M  V30 2497 N 246.843 -1.10192 1.12674 0
M  V30 2498 C 248.091 -1.81845 0.881861 0
M  V30 2499 C 248.412 -1.85737 -0.593867 0
M  V30 2500 O 247.682 -1.33724 -1.4316 0
M  V30 2501 H 246.262 -0.673432 0.323261 0
M  V30 2502 H 248.924 -1.33316 1.42172 0
M  V30 2503 H 248.02 -2.85288 1.2656 0
M  V30 2504 N 248.321 -0.919034 -1.28029 0
M  V30 2505 C 249.732 -0.600735 -1.76771 0
M  V30 2506 C 250.083 0.884024 -1.75156 0
M  V30 2507 O 249.208 1.69163 -1.34956 0
M  V30 2508 C 249.803 -1.08372 -3.21 0
M  V30 2509 C 248.362 -0.816248 -3.67443 0
M  V30 2510 C 247.509 -1.24742 -2.47658 0
M  V30 2511 H 250.46 -1.09974 -1.14418 0
M  V30 2512 H 250.481 -0.427512 -3.78091 0
M  V30 2513 H 249.993 -2.16437 -3.22144 0
M  V30 2514 H 248.094 0.250968 -3.71754 0
M  V30 2515 H 248.207 -1.4277 -4.57333 0
M  V30 2516 H 246.571 -0.666083 -2.45836 0
M  V30 2517 H 247.354 -2.33653 -2.51518 0
M  V30 2518 N 249.799 1.42003 -0.683588 0
M  V30 2519 C 251.024 2.06265 -0.216647 0
M  V30 2520 C 251.449 1.51059 1.12083 0
M  V30 2521 O 250.807 0.632638 1.69904 0
M  V30 2522 C 250.855 3.60191 -0.171759 0
M  V30 2523 O 249.959 4.03396 0.857069 0
M  V30 2524 H 249.3 0.65502 -0.108834 0
M  V30 2525 H 251.83 1.81982 -0.935077 0
M  V30 2526 H 251.84 4.08 0.0014303 0
M  V30 2527 H 250.515 3.99743 -1.14796 0
M  V30 2528 H 249.092 3.67117 0.654208 0
M  V30 2529 N 251.277 0.427512 1.51691 0
M  V30 2530 C 252.227 -0.406604 2.24345 0
M  V30 2531 C 253.211 -0.998276 1.26187 0
M  V30 2532 O 254.403 -0.918045 1.51331 0
M  V30 2533 C 251.532 -1.51266 3.08177 0
M  V30 2534 C 250.618 -0.930868 4.13758 0
M  V30 2535 N 251.009 -0.0773552 5.05741 0
M  V30 2536 C 249.307 -1.19948 4.29568 0
M  V30 2537 C 250.008 0.248344 5.8117 0
M  V30 2538 N 248.984 -0.365535 5.4237 0
M  V30 2539 H 252.786 0.251581 2.92821 0
M  V30 2540 H 250.3 0.239003 1.60632 0
M  V30 2541 H 252.297 -2.123 3.58796 0
M  V30 2542 H 250.957 -2.17328 2.41244 0
M  V30 2543 H 251.968 0.288351 5.17097 0
M  V30 2544 H 248.645 -1.85832 3.73862 0
M  V30 2545 H 250.035 0.942286 6.6526 0
M  V30 2546 N 252.755 -1.56801 0.158532 0
M  V30 2547 C 253.685 -2.20347 -0.772609 0
M  V30 2548 C 254.666 -1.15518 -1.24859 0
M  V30 2549 O 255.851 -1.43902 -1.30406 0
M  V30 2550 C 252.981 -2.83417 -2.00729 0
M  V30 2551 C 251.935 -3.94174 -1.66765 0
M  V30 2552 C 251.261 -4.44233 -2.97592 0
M  V30 2553 C 252.561 -5.14392 -0.905447 0
M  V30 2554 H 254.255 -2.98413 -0.242959 0
M  V30 2555 H 251.801 -1.43537 -0.115419 0
M  V30 2556 H 253.754 -3.26543 -2.6636 0
M  V30 2557 H 252.478 -2.02701 -2.56086 0
M  V30 2558 H 251.137 -3.51684 -1.03508 0
M  V30 2559 H 250.785 -3.60325 -3.50963 0
M  V30 2560 H 250.485 -5.18945 -2.75626 0
M  V30 2561 H 252.009 -4.90037 -3.64274 0
M  V30 2562 H 253.423 -5.5429 -1.46408 0
M  V30 2563 H 251.82 -5.9494 -0.7853 0
M  V30 2564 H 252.89 -4.84795 0.100668 0
M  V30 2565 N 254.233 0.115231 -1.57178 0
M  V30 2566 C 255.649 0.468877 -1.52557 0
M  V30 2567 C 255.849 1.81649 -0.872125 0
M  V30 2568 O 254.905 2.48347 -0.45606 0
M  V30 2569 C 256.218 0.4499 -2.97315 0
M  V30 2570 C 257.766 0.533185 -3.08425 0
M  V30 2571 C 258.241 0.54456 -4.54751 0
M  V30 2572 N 259.732 0.605892 -4.5922 0
M  V30 2573 C 260.467 0.636203 -5.6986 0
M  V30 2574 N 259.963 0.623931 -6.89985 0
M  V30 2575 N 261.756 0.679496 -5.57978 0
M  V30 2576 H 253.907 -0.767712 -1.9804 0
M  V30 2577 H 256.17 -0.283609 -0.904583 0
M  V30 2578 H 255.876 -0.472721 -3.48509 0
M  V30 2579 H 255.75 1.27632 -3.5495 0
M  V30 2580 H 258.137 1.44623 -2.57232 0
M  V30 2581 H 258.218 -0.320995 -2.53778 0
M  V30 2582 H 257.862 -0.364452 -5.06591 0
M  V30 2583 H 257.792 1.41568 -5.07214 0
M  V30 2584 H 260.283 0.621386 -3.72756 0
M  V30 2585 H 260.596 0.649787 -7.70063 0
M  V30 2586 H 258.941 0.591296 -6.9248 0
M  V30 2587 H 262.132 0.686472 -4.63039 0
M  V30 2588 H 262.305 0.69965 -6.44212 0
M  V30 2589 N 255.711 1.52812 0.385517 0
M  V30 2590 C 256.959 1.67694 1.12797 0
M  V30 2591 C 257.28 0.421115 1.90399 0
M  V30 2592 O 256.55 -0.564551 1.87589 0
M  V30 2593 H 255.13 0.618155 0.419396 0
M  V30 2594 H 257.792 1.89938 0.436972 0
M  V30 2595 H 256.888 2.52896 1.82894 0
M  V30 2596 N 257.189 -0.644168 1.43834 0
M  V30 2597 C 258.119 -1.76814 1.52509 0
M  V30 2598 C 259.1 -1.65823 0.379052 0
M  V30 2599 O 260.285 -1.84781 0.597466 0
M  V30 2600 C 257.415 -3.15288 1.4564 0
M  V30 2601 C 256.369 -3.41053 2.58586 0
M  V30 2602 C 255.695 -4.79421 2.36769 0
M  V30 2603 C 256.995 -3.34902 4.00797 0
M  V30 2604 H 258.689 -1.69812 2.46586 0
M  V30 2605 H 256.235 -0.815542 1.1868 0
M  V30 2606 H 258.188 -3.93681 1.50311 0
M  V30 2607 H 256.912 -3.23043 0.480725 0
M  V30 2608 H 255.571 -2.65035 2.53282 0
M  V30 2609 H 255.219 -4.83863 1.37424 0
M  V30 2610 H 254.919 -4.9762 3.12487 0
M  V30 2611 H 256.443 -5.6006 2.43238 0
M  V30 2612 H 257.857 -4.03218 4.07539 0
M  V30 2613 H 256.254 -3.64637 4.76613 0
M  V30 2614 H 257.324 -2.32928 4.25291 0
M  V30 2615 N 258.668 -1.30515 -0.883378 0
M  V30 2616 C 259.908 -1.20716 -1.64946 0
M  V30 2617 C 260.272 0.234072 -1.90568 0
M  V30 2618 O 261.473 0.455335 -2.64915 0
M  V30 2619 C 259.744 -2.01444 -2.9522 0
M  V30 2620 S 261.303 -2.0836 -3.86175 0
M  V30 2621 H 258.121 -0.430165 -0.566109 0
M  V30 2622 H 260.723 -1.65011 -1.04841 0
M  V30 2623 H 259.427 -3.05268 -2.74298 0
M  V30 2624 H 258.958 -1.57817 -3.60357 0
M  V30 2625 H 260.973 -1.21215 -4.81167 0
M  V30 2626 N 260.146 1.09593 -1.13257 0
M  V30 2627 C 261.394 1.81375 -0.891492 0
M  V30 2628 C 261.715 1.86049 0.584009 0
M  V30 2629 O 260.985 1.34481 1.42449 0
M  V30 2630 H 259.565 0.671708 -0.326828 0
M  V30 2631 H 262.227 1.3256 -1.42877 0
M  V30 2632 H 261.323 2.84612 -1.28071 0
M  V30 2633 N 261.624 0.925811 1.2754 0
M  V30 2634 C 262.557 0.367836 2.25216 0
M  V30 2635 C 263.535 -0.534738 1.53556 0
M  V30 2636 O 264.719 -0.475672 1.824 0
M  V30 2637 C 261.846 -0.47298 3.35381 0
M  V30 2638 C 260.892 0.365898 4.24928 0
M  V30 2639 S 261.725 1.78025 5.05042 0
M  V30 2640 C 262.881 0.947068 6.18693 0
M  V30 2641 H 263.114 1.19568 2.72196 0
M  V30 2642 H 260.647 0.727867 1.36167 0
M  V30 2643 H 262.605 -0.952242 3.99303 0
M  V30 2644 H 261.266 -1.27533 2.87044 0
M  V30 2645 H 260.459 -0.277582 5.03235 0
M  V30 2646 H 260.061 0.779261 3.65792 0
M  V30 2647 H 262.353 0.182201 6.77255 0
M  V30 2648 H 263.296 1.70309 6.87314 0
M  V30 2649 H 263.704 0.489913 5.6237 0
M  V30 2650 N 263.102 -1.41638 0.69111 0
M  V30 2651 C 264.35 -2.00902 0.219758 0
M  V30 2652 C 264.671 -1.54994 -1.18329 0
M  V30 2653 O 263.941 -0.778628 -1.79762 0
M  V30 2654 H 262.521 -0.74289 0.0782558 0
M  V30 2655 H 265.183 -1.73327 0.891271 0
M  V30 2656 H 264.279 -3.11224 0.233708 0
M  V30 2657 N 264.58 -0.43555 -1.51462 0
M  V30 2658 C 265.828 0.131254 -2.01673 0
M  V30 2659 C 266.149 1.43368 -1.32177 0
M  V30 2660 O 265.419 1.90524 -0.455769 0
M  V30 2661 H 263.999 0.0514954 -0.745223 0
M  V30 2662 H 266.661 -0.577847 -1.86137 0
M  V30 2663 H 265.757 0.308446 -3.10572 0
M  V30 2664 N 266.058 1.56714 -0.166846 0
M  V30 2665 C 267.469 1.83378 0.350646 0
M  V30 2666 C 267.82 1.08646 1.63372 0
M  V30 2667 O 266.945 0.338058 2.13743 0
M  V30 2668 C 267.54 3.32643 0.642963 0
M  V30 2669 C 266.099 3.59818 1.10491 0
M  V30 2670 C 265.246 2.76954 0.138411 0
M  V30 2671 H 268.197 1.53803 -0.391193 0
M  V30 2672 H 268.218 3.49878 1.49551 0
M  V30 2673 H 267.73 3.87007 -0.291055 0
M  V30 2674 H 265.831 3.1086 2.05418 0
M  V30 2675 H 265.944 4.68178 1.01716 0
M  V30 2676 H 264.308 2.4666 0.634911 0
M  V30 2677 H 265.091 3.34097 -0.789549 0
M  V30 2678 N 267.536 -0.106894 1.57237 0
M  V30 2679 C 268.952 -0.46078 1.52804 0
M  V30 2680 C 269.152 -1.81184 0.881746 0
M  V30 2681 O 268.208 -2.48102 0.469224 0
M  V30 2682 C 269.521 -0.434127 2.9755 0
M  V30 2683 C 271.069 -0.516821 3.08704 0
M  V30 2684 C 271.544 -0.520436 4.55033 0
M  V30 2685 N 273.035 -0.58153 4.59535 0
M  V30 2686 C 273.77 -0.605973 5.70189 0
M  V30 2687 N 273.266 -0.587331 6.90306 0
M  V30 2688 N 275.059 -0.649895 5.5833 0
M  V30 2689 H 267.21 0.778203 1.9763 0
M  V30 2690 H 269.473 0.288403 0.903066 0
M  V30 2691 H 269.179 0.491197 3.48253 0
M  V30 2692 H 269.053 -1.25748 3.55622 0
M  V30 2693 H 271.44 -1.43256 2.57995 0
M  V30 2694 H 271.521 0.334449 2.53604 0
M  V30 2695 H 271.165 0.391313 5.0639 0
M  V30 2696 H 271.095 -1.38876 5.07958 0
M  V30 2697 H 273.586 -0.60161 3.73081 0
M  V30 2698 H 273.899 -0.60894 7.70397 0
M  V30 2699 H 272.244 -0.554564 6.92784 0
M  V30 2700 H 275.435 -0.661907 4.63397 0
M  V30 2701 H 275.608 -0.665476 6.44574 0
M  V30 2702 N 269.014 -1.53014 -0.377408 0
M  V30 2703 C 270.242 -1.72515 -1.14219 0
M  V30 2704 C 270.657 -0.448735 -1.8339 0
M  V30 2705 O 270.014 0.577592 -1.73119 0
M  V30 2706 C 270.065 -2.8826 -2.18148 0
M  V30 2707 O 269.786 -4.10962 -1.51795 0
M  V30 2708 C 271.287 -3.19536 -3.07264 0
M  V30 2709 H 268.507 -0.577301 -0.342001 0
M  V30 2710 H 271.051 -1.99712 -0.439935 0
M  V30 2711 H 269.206 -2.63492 -2.83991 0
M  V30 2712 H 269.62 -4.75693 -2.20945 0
M  V30 2713 H 271.094 -4.03959 -3.76193 0
M  V30 2714 H 271.571 -2.34403 -3.71419 0
M  V30 2715 H 272.177 -3.46186 -2.47053 0
M  V30 2716 N 270.492 0.636531 -1.44174 0
M  V30 2717 C 271.738 1.39826 -1.4689 0
M  V30 2718 C 272.071 1.93947 -0.0990585 0
M  V30 2719 O 271.346 1.73325 0.882544 0
M  V30 2720 C 271.629 2.56751 -2.5249 0
M  V30 2721 C 271.482 2.08014 -3.98811 0
M  V30 2722 C 272.801 3.58946 -2.54649 0
M  V30 2723 H 269.92 0.507075 -0.53483 0
M  V30 2724 H 272.562 0.720188 -1.75822 0
M  V30 2725 H 270.712 3.14597 -2.2795 0
M  V30 2726 H 272.384 1.5504 -4.34466 0
M  V30 2727 H 270.627 1.39242 -4.10846 0
M  V30 2728 H 271.298 2.92169 -4.68339 0
M  V30 2729 H 273.774 3.1089 -2.76563 0
M  V30 2730 H 272.65 4.38286 -3.3045 0
M  V30 2731 H 272.911 4.12655 -1.58646 0
M  V30 2732 N 271.97 1.30982 0.876444 0
M  V30 2733 C 273.216 1.20474 1.63138 0
M  V30 2734 C 273.549 -0.238096 1.92735 0
M  V30 2735 O 272.824 -1.1692 1.55435 0
M  V30 2736 C 273.107 2.04244 2.96574 0
M  V30 2737 C 272.96 3.56793 2.73896 0
M  V30 2738 C 274.279 1.88684 3.97601 0
M  V30 2739 H 271.398 0.439001 0.591985 0
M  V30 2740 H 274.04 1.60704 1.01361 0
M  V30 2741 H 272.19 1.70063 3.493 0
M  V30 2742 H 273.862 4.01077 2.27892 0
M  V30 2743 H 272.105 3.80548 2.08245 0
M  V30 2744 H 272.776 4.10706 3.68815 0
M  V30 2745 H 275.252 2.18584 3.54062 0
M  V30 2746 H 274.128 2.4961 4.88862 0
M  V30 2747 H 274.389 0.848343 4.33884 0
M  V30 2748 N 273.449 -1.08991 1.13837 0
M  V30 2749 C 274.412 -2.13925 0.822715 0
M  V30 2750 C 275.412 -1.599 -0.1699 0
M  V30 2751 O 276.602 -1.74104 0.0577251 0
M  V30 2752 C 273.734 -3.40155 0.225318 0
M  V30 2753 H 274.927 -2.43358 1.75262 0
M  V30 2754 H 272.48 -1.24603 0.943594 0
M  V30 2755 H 273.215 -3.16352 -0.713594 0
M  V30 2756 H 273 -3.80661 0.940193 0
M  V30 2757 H 274.49 -4.17594 0.0214784 0
M  V30 2758 N 274.927 -0.932562 -1.27047 0
M  V30 2759 C 276.175 -0.574422 -1.93765 0
M  V30 2760 C 276.496 0.887993 -1.73608 0
M  V30 2761 O 275.766 1.62999 -1.08665 0
M  V30 2762 H 274.346 -0.209451 -0.717035 0
M  V30 2763 H 277.008 -1.18601 -1.5466 0
M  V30 2764 H 276.104 -0.784841 -3.02071 0
M  V30 2765 N 276.405 1.4127 -0.698611 0
M  V30 2766 C 277.63 2.06024 -0.238512 0
M  V30 2767 C 278.055 1.5224 1.10475 0
M  V30 2768 O 277.413 0.650623 1.69223 0
M  V30 2769 C 277.461 3.59988 -0.209952 0
M  V30 2770 O 276.565 4.04282 0.814235 0
M  V30 2771 H 275.906 0.653829 -0.115775 0
M  V30 2772 H 278.436 1.8098 -0.954326 0
M  V30 2773 H 278.446 4.07979 -0.0418436 0
M  V30 2774 H 277.121 3.98503 -1.1903 0
M  V30 2775 H 275.698 3.6779 0.615234 0
M  V30 2776 N 277.883 0.443576 1.51229 0
M  V30 2777 C 279.108 -0.121648 2.07043 0
M  V30 2778 C 279.533 -1.35156 1.30823 0
M  V30 2779 O 278.891 -1.7793 0.347934 0
M  V30 2780 C 278.939 -0.41624 3.5819 0
M  V30 2781 O 278.043 -1.50163 3.8409 0
M  V30 2782 H 277.384 0.000871367 0.663999 0
M  V30 2783 H 279.914 0.626706 1.94765 0
M  V30 2784 H 279.924 -0.664867 4.02546 0
M  V30 2785 H 278.599 0.482653 4.1309 0
M  V30 2786 H 277.176 -1.24248 3.51592 0
M  V30 2787 N 279.361 -1.56624 0.175154 0
M  V30 2788 C 280.638 -1.88688 -0.515373 0
M  V30 2789 C 281.018 -1.08564 -1.81044 0
M  V30 2790 O 280.366 -0.180703 -2.27784 0
M  V30 2791 C 280.576 -3.40768 -0.753552 0
M  V30 2792 C 281.924 -4.10587 -1.08184 0
M  V30 2793 O 282.948 -3.46106 -0.841961 0
M  V30 2794 O 281.807 -5.24512 -1.53459 0
M  V30 2795 H 278.901 -0.78301 -0.26613 0
M  V30 2796 H 281.447 -1.68347 0.213877 0
M  V30 2797 H 280.219 -3.90965 0.161829 0
M  V30 2798 H 279.842 -3.66733 -1.53598 0
M  V30 2799 N 280.839 0.0985539 -1.57292 0
M  V30 2800 C 281.802 1.10402 -2.00858 0
M  V30 2801 C 282.802 1.33146 -0.901593 0
M  V30 2802 O 283.992 1.29318 -1.16716 0
M  V30 2803 C 281.124 2.45394 -2.36632 0
M  V30 2804 H 282.317 0.729099 -2.90902 0
M  V30 2805 H 279.87 0.343495 -1.52479 0
M  V30 2806 H 280.605 2.87769 -1.49531 0
M  V30 2807 H 280.39 2.30235 -3.17387 0
M  V30 2808 H 281.88 3.17718 -2.71007 0
M  V30 2809 N 282.317 1.53212 0.369288 0
M  V30 2810 C 283.28 1.7872 1.43498 0
M  V30 2811 C 284.28 0.657554 1.46741 0
M  V30 2812 O 285.47 0.925736 1.47566 0
M  V30 2813 C 282.602 1.90591 2.82645 0
M  V30 2814 H 283.795 2.73894 1.22156 0
M  V30 2815 H 281.348 1.44233 0.602203 0
M  V30 2816 H 282.083 0.974709 3.09306 0
M  V30 2817 H 281.868 2.72751 2.8169 0
M  V30 2818 H 283.358 2.11931 3.59826 0
M  V30 2819 N 283.795 -0.628877 1.44509 0
M  V30 2820 C 284.727 -1.754 1.47538 0
M  V30 2821 C 285.74 -1.58575 0.368506 0
M  V30 2822 O 286.929 -1.66847 0.634376 0
M  V30 2823 C 284.029 -3.1315 1.29577 0
M  V30 2824 C 283.202 -3.56413 2.53551 0
M  V30 2825 C 282.261 -4.7305 2.30457 0
M  V30 2826 O 281.287 -4.81247 3.03957 0
M  V30 2827 N 282.489 -5.64903 1.3366 0
M  V30 2828 H 285.254 -1.73272 2.44534 0
M  V30 2829 H 282.815 -0.813512 1.39977 0
M  V30 2830 H 284.807 -3.88902 1.11971 0
M  V30 2831 H 283.377 -3.09908 0.409371 0
M  V30 2832 H 282.597 -2.70847 2.86419 0
M  V30 2833 H 283.885 -3.82071 3.36005 0
M  V30 2834 H 283.283 -5.60975 0.729604 0
M  V30 2835 H 281.84 -6.40275 1.22032 0
M  V30 2836 N 285.273 -1.31445 -0.869486 0
M  V30 2837 C 286.22 -1.19135 -1.97675 0
M  V30 2838 C 287.19 -0.0770266 -1.65921 0
M  V30 2839 O 288.375 -0.249972 -1.89155 0
M  V30 2840 C 285.515 -0.905149 -3.33018 0
M  V30 2841 C 284.628 -2.10285 -3.77365 0
M  V30 2842 C 283.763 -1.75339 -5.01427 0
M  V30 2843 C 282.802 -2.91515 -5.38224 0
M  V30 2844 N 281.939 -2.56762 -6.53466 0
M  V30 2845 H 286.779 -2.13853 -2.07535 0
M  V30 2846 H 284.316 -1.06379 -1.01597 0
M  V30 2847 H 286.274 -0.719765 -4.10944 0
M  V30 2848 H 284.904 0.00519624 -3.228 0
M  V30 2849 H 283.956 -2.39899 -2.95216 0
M  V30 2850 H 285.268 -2.97237 -4.00564 0
M  V30 2851 H 284.422 -1.53266 -5.87022 0
M  V30 2852 H 283.161 -0.855801 -4.80133 0
M  V30 2853 H 282.166 -3.14237 -4.51149 0
M  V30 2854 H 283.391 -3.81985 -5.61484 0
M  V30 2855 H 281.337 -1.69526 -6.33717 0
M  V30 2856 H 281.254 -3.37243 -6.76612 0
M  V30 2857 H 282.522 -2.38083 -7.42251 0
M  V30 2858 N 286.751 1.08385 -1.14413 0
M  V30 2859 C 287.714 2.13486 -0.834048 0
M  V30 2860 C 288.714 1.59988 0.161418 0
M  V30 2861 O 289.904 1.74071 -0.0669575 0
M  V30 2862 C 287.036 3.4003 -0.243354 0
M  V30 2863 H 288.229 2.42425 -1.7655 0
M  V30 2864 H 285.782 1.24101 -0.950189 0
M  V30 2865 H 286.517 3.16726 0.696807 0
M  V30 2866 H 286.302 3.80157 -0.960367 0
M  V30 2867 H 287.792 4.17577 -0.0436242 0
M  V30 2868 N 288.23 0.939286 1.26551 0
M  V30 2869 C 289.476 0.586715 1.94128 0
M  V30 2870 C 289.809 -0.8717 1.73537 0
M  V30 2871 O 289.084 -1.62339 1.07127 0
M  V30 2872 C 289.367 0.927497 3.4795 0
M  V30 2873 C 289.22 2.44052 3.77834 0
M  V30 2874 C 290.539 0.441569 4.37879 0
M  V30 2875 H 287.658 0.21463 0.705055 0
M  V30 2876 H 290.3 1.17316 1.49455 0
M  V30 2877 H 288.45 0.428431 3.8613 0
M  V30 2878 H 290.122 3.01216 3.4938 0
M  V30 2879 H 288.365 2.8848 3.23978 0
M  V30 2880 H 289.036 2.62947 4.85348 0
M  V30 2881 H 291.512 0.869448 4.06915 0
M  V30 2882 H 290.388 0.708856 5.44304 0
M  V30 2883 H 290.649 -0.658467 4.37169 0
M  V30 2884 N 289.708 -1.40897 0.706093 0
M  V30 2885 C 291.124 -1.55042 0.37869 0
M  V30 2886 C 291.324 -1.67944 -1.11342 0
M  V30 2887 O 290.38 -1.66372 -1.89938 0
M  V30 2888 C 291.693 -2.78398 1.13643 0
M  V30 2889 C 293.241 -2.92206 1.12181 0
M  V30 2890 C 293.716 -4.18463 1.86152 0
M  V30 2891 N 295.207 -4.25443 1.83173 0
M  V30 2892 C 295.942 -5.2202 2.37239 0
M  V30 2893 N 295.438 -6.24563 2.99821 0
M  V30 2894 N 297.231 -5.14033 2.27435 0
M  V30 2895 H 289.382 -1.30769 1.67372 0
M  V30 2896 H 291.645 -0.631653 0.706907 0
M  V30 2897 H 291.351 -2.7511 2.19106 0
M  V30 2898 H 291.225 -3.70228 0.721853 0
M  V30 2899 H 293.612 -2.95004 0.0754171 0
M  V30 2900 H 293.693 -2.01521 1.57554 0
M  V30 2901 H 293.337 -4.16427 2.90776 0
M  V30 2902 H 293.267 -5.08141 1.38206 0
M  V30 2903 H 295.758 -3.51976 1.37556 0
M  V30 2904 H 296.071 -6.94665 3.38616 0
M  V30 2905 H 294.416 -6.25035 3.03902 0
M  V30 2906 H 297.607 -4.3285 1.78208 0
M  V30 2907 H 297.78 -5.89129 2.69873 0
M  V30 2908 N 291.186 -0.45159 -1.50991 0
M  V30 2909 C 292.149 0.341117 -2.26647 0
M  V30 2910 C 293.149 0.937422 -1.30649 0
M  V30 2911 O 294.339 0.809644 -1.54241 0
M  V30 2912 C 291.471 1.48398 -3.06905 0
M  V30 2913 H 292.664 -0.322117 -2.98165 0
M  V30 2914 H 290.217 -0.205122 -1.54948 0
M  V30 2915 H 290.952 2.18284 -2.39838 0
M  V30 2916 H 290.737 1.06241 -3.77432 0
M  V30 2917 H 292.227 2.04367 -3.64176 0
M  V30 2918 N 292.664 1.56529 -0.183458 0
M  V30 2919 C 293.597 2.14417 0.781052 0
M  V30 2920 C 294.575 1.07761 1.21763 0
M  V30 2921 O 295.759 1.35807 1.30724 0
M  V30 2922 C 292.886 2.69361 2.05335 0
M  V30 2923 C 291.932 3.885 1.75982 0
M  V30 2924 S 292.765 5.27568 0.918256 0
M  V30 2925 C 293.921 5.85926 2.20095 0
M  V30 2926 H 294.154 2.95893 0.2889 0
M  V30 2927 H 291.687 1.54368 0.0313844 0
M  V30 2928 H 293.645 3.01662 2.78406 0
M  V30 2929 H 292.306 1.87949 2.51663 0
M  V30 2930 H 291.499 4.25314 2.70415 0
M  V30 2931 H 291.101 3.57149 1.10999 0
M  V30 2932 H 293.393 5.99579 3.15453 0
M  V30 2933 H 294.336 6.82761 1.87731 0
M  V30 2934 H 294.744 5.14438 2.32409 0
M  V30 2935 N 294.142 -0.090211 1.57342 0
M  V30 2936 C 295.105 -1.09335 2.01441 0
M  V30 2937 C 296.105 -1.32666 0.908641 0
M  V30 2938 O 297.295 -1.28697 1.174 0
M  V30 2939 C 294.427 -2.44136 2.3793 0
M  V30 2940 H 295.62 -0.713662 2.91285 0
M  V30 2941 H 293.173 -0.335404 1.52659 0
M  V30 2942 H 293.908 -2.86972 1.51055 0
M  V30 2943 H 293.693 -2.28548 3.18603 0
M  V30 2944 H 295.183 -3.16277 2.72688 0
M  V30 2945 N 295.62 -1.53406 -0.361157 0
M  V30 2946 C 296.866 -1.70054 -1.10496 0
M  V30 2947 C 297.199 -0.453278 -1.88836 0
M  V30 2948 O 296.474 0.5495 -1.86576 0
M  V30 2949 C 296.757 -2.95317 -2.06058 0
M  V30 2950 C 296.61 -4.3021 -1.31298 0
M  V30 2951 C 297.929 -3.16193 -3.06121 0
M  V30 2952 H 295.048 -0.618799 -0.400321 0
M  V30 2953 H 297.69 -1.86052 -0.385318 0
M  V30 2954 H 295.84 -2.81809 -2.67425 0
M  V30 2955 H 297.512 -4.55538 -0.726807 0
M  V30 2956 H 295.755 -4.29421 -0.614853 0
M  V30 2957 H 296.426 -5.14 -2.01265 0
M  V30 2958 H 298.902 -3.28916 -2.5486 0
M  V30 2959 H 297.778 -4.05266 -3.70204 0
M  V30 2960 H 298.039 -2.31676 -3.76535 0
M  V30 2961 N 297.098 0.621204 -1.44841 0
M  V30 2962 C 298.028 1.74366 -1.55303 0
M  V30 2963 C 299.009 1.65199 -0.405385 0
M  V30 2964 O 300.194 1.83807 -0.626787 0
M  V30 2965 C 297.324 3.12931 -1.50637 0
M  V30 2966 C 296.278 3.36896 -2.63979 0
M  V30 2967 C 295.604 4.75594 -2.44366 0
M  V30 2968 C 296.904 3.28483 -4.06074 0
M  V30 2969 H 298.598 1.65867 -2.49256 0
M  V30 2970 H 296.144 0.796558 -1.19962 0
M  V30 2971 H 298.097 3.9124 -1.56555 0
M  V30 2972 H 296.821 3.22237 -0.532057 0
M  V30 2973 H 295.48 2.60972 -2.57467 0
M  V30 2974 H 295.128 4.81616 -1.45105 0
M  V30 2975 H 294.828 4.92586 -3.20364 0
M  V30 2976 H 296.352 5.5612 -2.52117 0
M  V30 2977 H 297.766 3.96684 -4.13902 0
M  V30 2978 H 296.163 3.57008 -4.82354 0
M  V30 2979 H 297.233 2.26133 -4.28943 0
M  V30 2980 N 298.576 1.31904 0.862503 0
M  V30 2981 C 299.804 1.24998 1.64873 0
M  V30 2982 C 300.219 -0.183425 1.87907 0
M  V30 2983 O 299.576 -1.11794 1.44251 0
M  V30 2984 C 299.627 1.99829 3.01248 0
M  V30 2985 O 299.348 3.37575 2.79239 0
M  V30 2986 C 300.849 1.99852 3.95694 0
M  V30 2987 H 298.069 0.431599 0.513773 0
M  V30 2988 H 300.613 1.73901 1.07604 0
M  V30 2989 H 298.768 1.54668 3.55185 0
M  V30 2990 H 299.182 3.75776 3.65914 0
M  V30 2991 H 300.656 2.56709 4.88676 0
M  V30 2992 H 301.133 0.982852 4.28062 0
M  V30 2993 H 301.739 2.44926 3.47694 0
M  V30 2994 N 300.054 -1.07777 1.14986 0
M  V30 2995 C 301.331 -1.7699 0.832695 0
M  V30 2996 C 301.711 -2.001 -0.672561 0
M  V30 2997 O 301.059 -1.61598 -1.6155 0
M  V30 2998 C 301.269 -3.08139 1.63863 0
M  V30 2999 C 302.617 -3.8256 1.84208 0
M  V30 3000 O 303.641 -3.17939 1.60603 0
M  V30 3001 O 302.5 -4.98612 2.23714 0
M  V30 3002 H 299.594 -0.768389 0.305791 0
M  V30 3003 H 302.14 -1.14182 1.25541 0
M  V30 3004 H 300.912 -2.86909 2.6608 0
M  V30 3005 H 300.535 -3.78678 1.21197 0
M  V30 3006 N 301.532 -0.945985 -1.26051 0
M  V30 3007 C 302.482 -0.430164 -2.23905 0
M  V30 3008 C 303.466 0.47579 -1.53704 0
M  V30 3009 O 304.658 0.310252 -1.7426 0
M  V30 3010 C 301.787 0.298957 -3.41996 0
M  V30 3011 C 300.873 -0.624566 -4.19476 0
M  V30 3012 N 301.264 -1.75245 -4.74471 0
M  V30 3013 C 299.562 -0.431082 -4.43912 0
M  V30 3014 C 300.263 -2.32834 -5.3307 0
M  V30 3015 N 299.239 -1.61583 -5.1903 0
M  V30 3016 H 303.041 -1.29107 -2.64024 0
M  V30 3017 H 300.555 -0.802428 -1.41191 0
M  V30 3018 H 302.552 0.685565 -4.11225 0
M  V30 3019 H 301.212 1.15657 -3.03403 0
M  V30 3020 H 302.223 -2.13449 -4.71868 0
M  V30 3021 H 298.9 0.384364 -4.15727 0
M  V30 3022 H 300.29 -3.27893 -5.86461 0
M  V30 3023 N 303.011 1.40521 -0.713556 0
M  V30 3024 C 304.422 1.83853 -0.324807 0
M  V30 3025 C 304.773 1.59667 1.14021 0
M  V30 3026 O 303.898 1.07649 1.87725 0
M  V30 3027 C 304.493 3.33751 -0.582746 0
M  V30 3028 C 303.052 3.75584 -0.247727 0
M  V30 3029 C 302.199 2.63753 -0.856121 0
M  V30 3030 H 305.15 1.29817 -0.91286 0
M  V30 3031 H 305.171 3.80194 0.152682 0
M  V30 3032 H 304.683 3.51322 -1.64908 0
M  V30 3033 H 302.784 3.63608 0.813624 0
M  V30 3034 H 302.897 4.7373 -0.715307 0
M  V30 3035 H 301.261 2.53108 -0.28432 0
M  V30 3036 H 302.044 2.84137 -1.92668 0
M  V30 3037 N 304.489 0.459591 1.5075 0
M  V30 3038 C 305.719 -0.0972338 2.06371 0
M  V30 3039 C 306.127 -1.35074 1.32483 0
M  V30 3040 O 305.47 -1.79637 0.384226 0
M  V30 3041 C 305.532 -0.462759 3.56509 0
M  V30 3042 C 305.196 0.687084 4.51805 0
M  V30 3043 C 306.193 1.56578 4.95761 0
M  V30 3044 C 303.878 0.874144 4.94635 0
M  V30 3045 C 305.872 2.61604 5.81242 0
M  V30 3046 C 303.559 1.92765 5.79901 0
M  V30 3047 C 304.557 2.79697 6.23104 0
M  V30 3048 O 304.245 3.83235 7.06673 0
M  V30 3049 H 303.977 -0.00140687 0.675999 0
M  V30 3050 H 306.531 0.644011 1.95043 0
M  V30 3051 H 304.761 -1.25703 3.65699 0
M  V30 3052 H 306.45 -0.953323 3.94546 0
M  V30 3053 H 307.216 1.4329 4.6335 0
M  V30 3054 H 303.095 0.207006 4.60535 0
M  V30 3055 H 306.639 3.29489 6.14884 0
M  V30 3056 H 302.536 2.06064 6.11725 0
M  V30 3057 H 303.304 3.80084 7.24899 0
M  V30 3058 N 305.967 -1.56429 0.191757 0
M  V30 3059 C 306.93 -2.17707 -0.716688 0
M  V30 3060 C 307.93 -1.13061 -1.14341 0
M  V30 3061 O 309.12 -1.38464 -1.05704 0
M  V30 3062 C 306.252 -2.77644 -1.97804 0
M  V30 3063 H 307.445 -2.99342 -0.1829 0
M  V30 3064 H 304.998 -1.56193 -0.0578566 0
M  V30 3065 H 305.733 -1.99799 -2.55443 0
M  V30 3066 H 305.518 -3.54246 -1.68083 0
M  V30 3067 H 307.008 -3.24708 -2.62592 0
M  V30 3068 N 307.445 0.0818655 -1.57387 0
M  V30 3069 C 308.67 0.799946 -1.91352 0
M  V30 3070 C 309.095 1.70833 -0.787258 0
M  V30 3071 O 308.453 1.79419 0.26048 0
M  V30 3072 C 308.501 1.57812 -3.24234 0
M  V30 3073 O 307.605 2.68806 -3.12757 0
M  V30 3074 H 306.946 0.21891 -0.626877 0
M  V30 3075 H 309.476 0.0531256 -2.04531 0
M  V30 3076 H 309.486 1.95952 -3.57864 0
M  V30 3077 H 308.161 0.911548 -4.05788 0
M  V30 3078 H 306.738 2.33597 -2.90666 0
M  V30 3079 N 308.923 1.53595 0.353017 0
M  V30 3080 C 309.853 1.83902 1.43883 0
M  V30 3081 C 310.834 0.693421 1.55324 0
M  V30 3082 O 312.019 0.944452 1.69687 0
M  V30 3083 C 309.149 2.04016 2.8106 0
M  V30 3084 C 308.103 3.19814 2.84434 0
M  V30 3085 C 307.429 3.25244 4.24406 0
M  V30 3086 C 308.729 4.58133 2.50822 0
M  V30 3087 H 310.423 2.74835 1.1877 0
M  V30 3088 H 307.969 1.32242 0.569917 0
M  V30 3089 H 309.922 2.238 3.57059 0
M  V30 3090 H 308.646 1.09804 3.07588 0
M  V30 3091 H 307.305 2.9987 2.10887 0
M  V30 3092 H 306.953 2.28646 4.48029 0
M  V30 3093 H 306.653 4.03054 4.27576 0
M  V30 3094 H 308.177 3.47228 5.0226 0
M  V30 3095 H 309.591 4.77995 3.16534 0
M  V30 3096 H 307.988 5.38276 2.6529 0
M  V30 3097 H 309.058 4.62387 1.46034 0
M  V30 3098 N 310.401 -0.613514 1.45168 0
M  V30 3099 C 311.629 -1.39946 1.5239 0
M  V30 3100 C 312.044 -1.88167 0.154531 0
M  V30 3101 O 311.401 -1.61872 -0.842843 0
M  V30 3102 C 311.452 -2.60795 2.50337 0
M  V30 3103 O 311.173 -2.1458 3.81952 0
M  V30 3104 C 312.674 -3.53723 2.67198 0
M  V30 3105 H 309.894 -0.428593 0.516284 0
M  V30 3106 H 312.438 -0.748753 1.903 0
M  V30 3107 H 310.593 -3.21919 2.15515 0
M  V30 3108 H 311.007 -2.93055 4.34993 0
M  V30 3109 H 312.481 -4.35079 3.39721 0
M  V30 3110 H 312.958 -4.0368 1.73029 0
M  V30 3111 H 313.564 -2.98456 3.02992 0
M  V30 3112 N 311.879 -1.3236 -0.855495 0
M  V30 3113 C 312.809 -1.23833 -1.97958 0
M  V30 3114 C 313.79 -0.122361 -1.69659 0
M  V30 3115 O 314.975 -0.30939 -1.9172 0
M  V30 3116 C 312.105 -0.959772 -3.33775 0
M  V30 3117 C 311.059 -2.03689 -3.76424 0
M  V30 3118 C 310.385 -1.61075 -5.09862 0
M  V30 3119 C 311.685 -3.4518 -3.9198 0
M  V30 3120 H 313.379 -2.1788 -2.0535 0
M  V30 3121 H 310.925 -1.04891 -0.986605 0
M  V30 3122 H 312.878 -0.886678 -4.11966 0
M  V30 3123 H 311.602 0.0163404 -3.26596 0
M  V30 3124 H 310.261 -2.10012 -3.00484 0
M  V30 3125 H 309.909 -0.622107 -4.99138 0
M  V30 3126 H 309.609 -2.33143 -5.39368 0
M  V30 3127 H 311.133 -1.55201 -5.90546 0
M  V30 3128 H 312.547 -3.4145 -4.60526 0
M  V30 3129 H 310.944 -4.1559 -4.32903 0
M  V30 3130 H 312.014 -3.84903 -2.94919 0
M  V30 3131 N 313.357 1.07166 -1.15556 0
M  V30 3132 C 314.768 1.6127 -0.940693 0
M  V30 3133 C 315.119 1.89251 0.517551 0
M  V30 3134 O 314.244 1.65937 1.38903 0
M  V30 3135 C 314.839 2.92993 -1.7012 0
M  V30 3136 C 313.398 3.43832 -1.53156 0
M  V30 3137 C 312.545 2.1786 -1.71558 0
M  V30 3138 H 315.496 0.90229 -1.30554 0
M  V30 3139 H 315.517 3.62007 -1.17181 0
M  V30 3140 H 315.029 2.72596 -2.76248 0
M  V30 3141 H 313.13 3.69307 -0.494294 0
M  V30 3142 H 313.243 4.19747 -2.30975 0
M  V30 3143 H 311.607 2.2765 -1.14225 0
M  V30 3144 H 312.39 1.99956 -2.79056 0
M  V30 3145 N 314.835 0.952656 1.25548 0
M  V30 3146 C 316.112 0.523818 1.88456 0
M  V30 3147 C 316.492 -0.998871 1.85973 0
M  V30 3148 O 315.84 -1.86381 1.3219 0
M  V30 3149 C 316.05 1.0982 3.31271 0
M  V30 3150 C 317.398 1.17385 4.08051 0
M  V30 3151 O 318.422 1.04961 3.40384 0
M  V30 3152 O 317.281 1.36852 5.29088 0
M  V30 3153 H 314.375 0.172485 0.808813 0
M  V30 3154 H 316.921 1.04596 1.33633 0
M  V30 3155 H 315.693 2.1415 3.27499 0
M  V30 3156 H 315.316 0.559191 3.93648 0
M  V30 3157 N 316.313 -1.40141 0.720998 0
M  V30 3158 C 317.59 -1.94677 0.189757 0
M  V30 3159 C 317.97 -1.65879 -1.30566 0
M  V30 3160 O 317.318 -0.979391 -2.06447 0
M  V30 3161 C 317.528 -3.45279 0.508304 0
M  V30 3162 C 318.876 -4.22209 0.449934 0
M  V30 3163 O 319.9 -3.53413 0.444677 0
M  V30 3164 O 318.759 -5.44788 0.432189 0
M  V30 3165 H 315.853 -0.826459 0.0299026 0
M  V30 3166 H 318.399 -1.49719 0.7989 0
M  V30 3167 H 317.171 -3.59619 1.54239 0
M  V30 3168 H 316.794 -3.97386 -0.130525 0
M  V30 3169 N 317.792 -0.46758 -1.50504 0
M  V30 3170 C 318.755 0.317059 -2.26996 0
M  V30 3171 C 319.755 0.923513 -1.31635 0
M  V30 3172 O 320.945 0.793239 -1.55091 0
M  V30 3173 C 318.077 1.45134 -3.08462 0
M  V30 3174 H 319.27 -0.353723 -2.97807 0
M  V30 3175 H 316.823 -0.221545 -1.54722 0
M  V30 3176 H 317.558 2.15728 -2.4214 0
M  V30 3177 H 317.343 1.02232 -3.78538 0
M  V30 3178 H 318.833 2.00493 -3.66323 0
M  V30 3179 N 319.27 1.56325 -0.20005 0
M  V30 3180 C 320.233 2.18084 0.705132 0
M  V30 3181 C 321.233 1.13666 1.1374 0
M  V30 3182 O 322.423 1.39023 1.04968 0
M  V30 3183 C 319.555 2.78689 1.96329 0
M  V30 3184 H 320.748 2.99435 0.167023 0
M  V30 3185 H 318.301 1.56221 0.0495725 0
M  V30 3186 H 319.036 2.0115 2.5438 0
M  V30 3187 H 318.821 3.55133 1.66202 0
M  V30 3188 H 320.311 3.26096 2.60866 0
M  V30 3189 N 320.748 -0.0735177 1.57428 0
M  V30 3190 C 321.711 -1.07192 2.02589 0
M  V30 3191 C 322.711 -1.31695 0.922661 0
M  V30 3192 O 323.901 -1.27445 1.18758 0
M  V30 3193 C 321.033 -2.41599 2.40506 0
M  V30 3194 H 322.226 -0.682727 2.92025 0
M  V30 3195 H 319.779 -0.319193 1.53006 0
M  V30 3196 H 320.514 -2.85354 1.5409 0
M  V30 3197 H 320.299 -2.25156 3.21009 0
M  V30 3198 H 321.789 -3.13367 2.76027 0
M  V30 3199 N 322.226 -1.5378 -0.344866 0
M  V30 3200 C 323.503 -1.61589 -1.10219 0
M  V30 3201 C 323.883 -0.436316 -2.06542 0
M  V30 3202 O 323.231 0.571543 -2.21237 0
M  V30 3203 C 323.441 -2.97602 -1.82301 0
M  V30 3204 C 324.789 -3.5291 -2.36093 0
M  V30 3205 O 325.813 -2.99768 -1.924 0
M  V30 3206 O 324.672 -4.45859 -3.16026 0
M  V30 3207 H 321.766 -0.653522 -0.506792 0
M  V30 3208 H 324.312 -1.66126 -0.346465 0
M  V30 3209 H 323.084 -3.74893 -1.12121 0
M  V30 3210 H 322.707 -2.9665 -2.64735 0
M  V30 3211 N 323.704 0.605807 -1.45491 0
M  V30 3212 C 324.944 1.37606 -1.51142 0
M  V30 3213 C 325.308 1.91413 -0.150075 0
M  V30 3214 O 326.509 2.68677 -0.0812828 0
M  V30 3215 C 324.78 2.49197 -2.56195 0
M  V30 3216 S 326.339 3.36953 -2.81083 0
M  V30 3217 H 323.157 0.469118 -0.534275 0
M  V30 3218 H 325.759 0.698845 -1.82583 0
M  V30 3219 H 324.463 2.0802 -3.53773 0
M  V30 3220 H 323.994 3.21717 -2.26411 0
M  V30 3221 H 326.009 4.47395 -2.14598 0
M  V30 3222 N 325.182 1.32811 0.848464 0
M  V30 3223 C 326.112 1.24882 1.97299 0
M  V30 3224 C 327.093 0.131357 1.69592 0
M  V30 3225 O 328.278 0.319553 1.91553 0
M  V30 3226 C 325.408 0.97746 3.33261 0
M  V30 3227 C 324.362 2.05682 3.75338 0
M  V30 3228 C 323.688 1.63777 5.09 0
M  V30 3229 C 324.988 3.47254 3.90144 0
M  V30 3230 H 326.682 2.18966 2.04191 0
M  V30 3231 H 324.228 1.05413 0.981029 0
M  V30 3232 H 326.181 0.908513 4.1149 0
M  V30 3233 H 324.905 0.000980011 3.266 0
M  V30 3234 H 323.564 2.11603 2.99366 0
M  V30 3235 H 323.212 0.648569 4.98801 0
M  V30 3236 H 322.912 2.36 5.38124 0
M  V30 3237 H 324.436 1.5833 5.89715 0
M  V30 3238 H 325.85 3.43888 4.58709 0
M  V30 3239 H 324.247 4.1788 4.30693 0
M  V30 3240 H 325.317 3.86462 2.92874 0
M  V30 3241 N 326.66 -1.06551 1.16123 0
M  V30 3242 C 327.907 -1.79302 0.941126 0
M  V30 3243 C 328.235 -1.87105 -0.531235 0
M  V30 3244 O 327.49 -1.35692 -1.41018 0
M  V30 3245 C 327.789 -3.23911 1.51052 0
M  V30 3246 C 327.455 -3.36193 3.00475 0
M  V30 3247 C 326.117 -3.39252 3.41265 0
M  V30 3248 C 328.469 -3.38326 3.96465 0
M  V30 3249 C 325.797 -3.42057 4.76669 0
M  V30 3250 C 328.149 -3.4267 5.31752 0
M  V30 3251 C 326.813 -3.4401 5.72026 0
M  V30 3252 H 326.083 -0.656111 0.344382 0
M  V30 3253 H 328.73 -1.25325 1.44796 0
M  V30 3254 H 327.035 -3.80723 0.925063 0
M  V30 3255 H 328.732 -3.78793 1.31593 0
M  V30 3256 H 325.322 -3.34516 2.6795 0
M  V30 3257 H 329.506 -3.35176 3.6602 0
M  V30 3258 H 324.762 -3.41398 5.07206 0
M  V30 3259 H 328.936 -3.43268 6.05921 0
M  V30 3260 H 326.563 -3.45937 6.76928 0
M  V30 3261 N 328.138 -0.959301 -1.25041 0
M  V30 3262 C 329.068 -0.501388 -2.28053 0
M  V30 3263 C 330.049 0.454673 -1.63911 0
M  V30 3264 O 331.234 0.352618 -1.90972 0
M  V30 3265 C 328.364 0.217224 -3.4662 0
M  V30 3266 C 327.318 -0.654034 -4.22973 0
M  V30 3267 C 326.644 0.195589 -5.34342 0
M  V30 3268 C 327.944 -1.93447 -4.85155 0
M  V30 3269 H 329.638 -1.36238 -2.66608 0
M  V30 3270 H 327.184 -0.656534 -1.28163 0
M  V30 3271 H 329.137 0.548732 -4.17812 0
M  V30 3272 H 327.861 1.1125 -3.07068 0
M  V30 3273 H 326.52 -0.968693 -3.5357 0
M  V30 3274 H 326.168 1.09076 -4.91031 0
M  V30 3275 H 325.868 -0.384091 -5.86343 0
M  V30 3276 H 327.392 0.521958 -6.08365 0
M  V30 3277 H 328.806 -1.66908 -5.48466 0
M  V30 3278 H 327.203 -2.46018 -5.47353 0
M  V30 3279 H 328.273 -2.63466 -4.07079 0
M  V30 3280 N 329.616 1.39756 -0.72842 0
M  V30 3281 C 331.032 1.5442 -0.403308 0
M  V30 3282 C 331.232 1.69694 1.08656 0
M  V30 3283 O 330.288 1.69373 1.87267 0
M  V30 3284 C 331.601 2.76555 -1.18058 0
M  V30 3285 C 333.149 2.90384 -1.16815 0
M  V30 3286 C 333.624 4.15449 -1.92785 0
M  V30 3287 N 335.115 4.22475 -1.89918 0
M  V30 3288 C 335.85 5.1818 -2.45514 0
M  V30 3289 N 335.346 6.19714 -3.09719 0
M  V30 3290 N 337.139 5.1035 -2.35584 0
M  V30 3291 H 329.29 1.28089 -1.69431 0
M  V30 3292 H 331.553 0.620327 -0.716867 0
M  V30 3293 H 331.259 2.7159 -2.23455 0
M  V30 3294 H 331.133 3.69033 -0.780662 0
M  V30 3295 H 333.52 2.94846 -0.12234 0
M  V30 3296 H 333.601 1.98988 -1.6074 0
M  V30 3297 H 333.245 4.11749 -2.97364 0
M  V30 3298 H 333.175 5.05877 -1.46272 0
M  V30 3299 H 335.666 3.49743 -1.43138 0
M  V30 3300 H 335.979 6.8919 -3.49625 0
M  V30 3301 H 334.324 6.20121 -3.13807 0
M  V30 3302 H 337.515 4.2996 -1.85072 0
M  V30 3303 H 337.688 5.84761 -2.79211 0
M  V30 3304 N 331.094 0.475555 1.50254 0
M  V30 3305 C 332.505 0.0215174 1.86688 0
M  V30 3306 C 332.856 -1.38467 1.39001 0
M  V30 3307 O 331.981 -2.02732 0.756894 0
M  V30 3308 C 332.576 0.0322715 3.38785 0
M  V30 3309 C 331.135 -0.366314 3.74613 0
M  V30 3310 C 330.282 0.415832 2.74164 0
M  V30 3311 H 333.233 0.689612 1.42934 0
M  V30 3312 H 333.254 -0.76889 3.7265 0
M  V30 3313 H 332.766 1.05584 3.73462 0
M  V30 3314 H 330.867 -1.39406 3.45538 0
M  V30 3315 H 330.98 -0.064555 4.79057 0
M  V30 3316 H 329.344 -0.131048 2.54363 0
M  V30 3317 H 330.127 1.43899 3.11686 0
M  V30 3318 N 332.573 -1.56217 0.208337 0
M  V30 3319 C 333.821 -1.97558 -0.426076 0
M  V30 3320 C 334.142 -1.09683 -1.61229 0
M  V30 3321 O 333.412 -0.170956 -1.95153 0
M  V30 3322 H 331.992 -0.729575 -0.160405 0
M  V30 3323 H 334.654 -1.92606 0.298155 0
M  V30 3324 H 333.75 -3.02672 -0.761312 0
M  V30 3325 N 334.051 0.0651679 -1.57465 0
M  V30 3326 C 334.981 1.07693 -2.07182 0
M  V30 3327 C 335.962 1.39962 -0.966673 0
M  V30 3328 O 337.147 1.49475 -1.2398 0
M  V30 3329 C 334.277 2.3885 -2.52127 0
M  V30 3330 C 333.231 2.20917 -3.66579 0
M  V30 3331 C 332.557 3.57515 -3.97601 0
M  V30 3332 C 333.857 1.62493 -4.9638 0
M  V30 3333 H 335.551 0.663199 -2.91962 0
M  V30 3334 H 333.097 0.317569 -1.40455 0
M  V30 3335 H 335.05 3.09928 -2.85522 0
M  V30 3336 H 333.774 2.82215 -1.64384 0
M  V30 3337 H 332.433 1.52279 -3.33477 0
M  V30 3338 H 332.081 3.98463 -3.06979 0
M  V30 3339 H 331.781 3.46353 -4.74672 0
M  V30 3340 H 333.305 4.30013 -4.33499 0
M  V30 3341 H 334.719 2.23445 -5.27963 0
M  V30 3342 H 333.116 1.62009 -5.77818 0
M  V30 3343 H 334.186 0.587041 -4.81333 0
M  V30 3344 N 335.529 1.53961 0.336706 0
M  V30 3345 C 336.94 1.62914 0.911925 0
M  V30 3346 C 337.291 0.514795 1.89326 0
M  V30 3347 O 336.416 -0.354395 2.13478 0
M  V30 3348 C 337.011 2.95304 1.66076 0
M  V30 3349 C 335.57 3.06496 2.18489 0
M  V30 3350 C 334.717 2.58403 1.00613 0
M  V30 3351 H 337.668 1.58285 0.114649 0
M  V30 3352 H 337.689 2.84727 2.5241 0
M  V30 3353 H 337.201 3.76387 0.946276 0
M  V30 3354 H 335.302 2.3006 2.93092 0
M  V30 3355 H 335.415 4.1208 2.44391 0
M  V30 3356 H 333.779 2.13977 1.38152 0
M  V30 3357 H 334.562 3.41932 0.306179 0
M  V30 3358 N 337.007 -0.598083 1.45811 0
M  V30 3359 C 338.255 -1.35413 1.50026 0
M  V30 3360 C 338.576 -1.94444 0.147177 0
M  V30 3361 O 337.846 -1.77701 -0.824571 0
M  V30 3362 H 336.426 -0.502727 0.552517 0
M  V30 3363 H 339.088 -0.701606 1.81834 0
M  V30 3364 H 338.184 -2.16871 2.2444 0
M  V30 3365 N 338.485 -1.33259 -0.841409 0
M  V30 3366 C 339.731 -1.24757 -1.59886 0
M  V30 3367 C 340.064 0.186913 -1.93298 0
M  V30 3368 O 339.339 1.12757 -1.5848 0
M  V30 3369 C 339.622 -2.12036 -2.91055 0
M  V30 3370 C 339.475 -3.63929 -2.6434 0
M  V30 3371 C 340.794 -1.9916 -3.92458 0
M  V30 3372 H 337.913 -0.454542 -0.580138 0
M  V30 3373 H 340.555 -1.63335 -0.970647 0
M  V30 3374 H 338.705 -1.79265 -3.44669 0
M  V30 3375 H 340.377 -4.06978 -2.17178 0
M  V30 3376 H 338.62 -3.85935 -1.98082 0
M  V30 3377 H 339.291 -4.20341 -3.57796 0
M  V30 3378 H 341.767 -2.27895 -3.48143 0
M  V30 3379 H 340.643 -2.62484 -4.82072 0
M  V30 3380 H 340.904 -0.963082 -4.31482 0
M  V30 3381 N 339.963 1.05934 -1.16686 0
M  V30 3382 C 341.374 1.60263 -0.957745 0
M  V30 3383 C 341.725 1.89789 0.49745 0
M  V30 3384 O 340.85 1.67401 1.37135 0
M  V30 3385 C 341.445 2.91172 -1.73218 0
M  V30 3386 C 340.004 3.42188 -1.56794 0
M  V30 3387 C 339.151 2.16028 -1.73859 0
M  V30 3388 H 342.102 0.888392 -1.31504 0
M  V30 3389 H 342.123 3.60744 -1.21014 0
M  V30 3390 H 341.635 2.6965 -2.79124 0
M  V30 3391 H 339.736 3.68762 -0.533437 0
M  V30 3392 H 339.849 4.17273 -2.35414 0
M  V30 3393 H 338.213 2.26426 -1.16633 0
M  V30 3394 H 338.996 1.96985 -2.81161 0
M  V30 3395 N 341.441 0.965919 1.2453 0
M  V30 3396 C 342.852 0.665929 1.7442 0
M  V30 3397 C 343.203 -0.818407 1.78316 0
M  V30 3398 O 342.328 -1.64037 1.41141 0
M  V30 3399 C 342.923 1.20211 3.16757 0
M  V30 3400 C 341.482 0.952059 3.6416 0
M  V30 3401 C 340.629 1.33848 2.42858 0
M  V30 3402 H 343.58 1.14144 1.10258 0
M  V30 3403 H 343.601 0.567544 3.76244 0
M  V30 3404 H 343.113 2.28244 3.13889 0
M  V30 3405 H 341.214 -0.112821 3.72429 0
M  V30 3406 H 341.327 1.59645 4.51719 0
M  V30 3407 H 339.691 0.756864 2.43195 0
M  V30 3408 H 340.474 2.42827 2.42673 0
M  V30 3409 N 342.919 -1.39368 0.735821 0
M  V30 3410 C 344.166 -2.00497 0.284123 0
M  V30 3411 C 344.494 -1.58387 -1.12889 0
M  V30 3412 O 343.749 -0.804359 -1.78406 0
M  V30 3413 C 344.048 -3.5583 0.334651 0
M  V30 3414 C 343.714 -4.17593 1.7008 0
M  V30 3415 C 342.376 -4.34176 2.07472 0
M  V30 3416 C 344.728 -4.51848 2.59775 0
M  V30 3417 C 342.056 -4.82304 3.34065 0
M  V30 3418 C 344.408 -5.01384 3.85741 0
M  V30 3419 C 343.072 -5.16175 4.23225 0
M  V30 3420 H 342.342 -0.73367 0.103968 0
M  V30 3421 H 344.989 -1.66683 0.942825 0
M  V30 3422 H 343.294 -3.89674 -0.407625 0
M  V30 3423 H 344.991 -4.00986 -0.0329927 0
M  V30 3424 H 341.581 -4.05087 1.40008 0
M  V30 3425 H 345.765 -4.38653 2.32157 0
M  V30 3426 H 341.021 -4.91941 3.63049 0
M  V30 3427 H 345.195 -5.26863 4.55399 0
M  V30 3428 H 342.822 -5.5323 5.21384 0
M  V30 3429 N 344.397 -0.483516 -1.5 0
M  V30 3430 C 345.327 0.293829 -2.31644 0
M  V30 3431 C 346.308 0.978864 -1.39112 0
M  V30 3432 O 347.493 0.973644 -1.68029 0
M  V30 3433 C 344.623 1.36897 -3.19181 0
M  V30 3434 C 343.577 0.804833 -4.20365 0
M  V30 3435 C 342.903 1.9792 -4.96721 0
M  V30 3436 C 344.203 -0.192313 -5.21946 0
M  V30 3437 H 345.897 -0.387616 -2.9688 0
M  V30 3438 H 343.443 -0.187856 -1.42769 0
M  V30 3439 H 345.396 1.92037 -3.751 0
M  V30 3440 H 344.12 2.07936 -2.51853 0
M  V30 3441 H 342.779 0.275319 -3.65565 0
M  V30 3442 H 342.427 2.67686 -4.25856 0
M  V30 3443 H 342.127 1.60789 -5.65173 0
M  V30 3444 H 343.651 2.53526 -5.55479 0
M  V30 3445 H 345.065 0.270333 -5.72662 0
M  V30 3446 H 343.462 -0.478543 -5.98189 0
M  V30 3447 H 344.532 -1.11409 -4.71928 0
M  V30 3448 N 345.875 1.56104 -0.216619 0
M  V30 3449 C 346.805 2.23063 0.690296 0
M  V30 3450 C 347.786 1.20072 1.20485 0
M  V30 3451 O 348.971 1.48643 1.24976 0
M  V30 3452 C 346.101 2.90672 1.90072 0
M  V30 3453 C 345.055 4.00092 1.5202 0
M  V30 3454 C 344.381 4.54972 2.80899 0
M  V30 3455 C 345.681 5.17398 0.71391 0
M  V30 3456 H 347.375 2.99109 0.132038 0
M  V30 3457 H 344.921 1.43866 0.0620664 0
M  V30 3458 H 346.874 3.36204 2.54057 0
M  V30 3459 H 345.598 2.12066 2.48386 0
M  V30 3460 H 344.257 3.55283 0.903839 0
M  V30 3461 H 343.905 3.73102 3.37348 0
M  V30 3462 H 343.605 5.28817 2.56176 0
M  V30 3463 H 345.129 5.0322 3.45836 0
M  V30 3464 H 346.543 5.59342 1.25735 0
M  V30 3465 H 344.94 5.97444 0.563951 0
M  V30 3466 H 346.01 4.84088 -0.280527 0
M  V30 3467 N 347.353 -0.0568162 1.57498 0
M  V30 3468 C 348.303 -1.07315 2.01166 0
M  V30 3469 C 349.287 -1.33632 0.896171 0
M  V30 3470 O 350.479 -1.33682 1.16009 0
M  V30 3471 C 347.608 -2.38257 2.47161 0
M  V30 3472 C 346.694 -2.1515 3.65474 0
M  V30 3473 N 347.085 -1.62014 4.7915 0
M  V30 3474 C 345.383 -2.45559 3.72313 0
M  V30 3475 C 346.084 -1.54069 5.60926 0
M  V30 3476 N 345.06 -2.00652 5.05213 0
M  V30 3477 H 348.862 -0.655878 2.86488 0
M  V30 3478 H 346.376 -0.263635 1.60246 0
M  V30 3479 H 348.373 -3.11845 2.76691 0
M  V30 3480 H 347.033 -2.80687 1.63232 0
M  V30 3481 H 348.044 -1.30667 5.01145 0
M  V30 3482 H 344.721 -2.91253 2.99129 0
M  V30 3483 H 346.111 -1.13712 6.62208 0
M  V30 3484 N 348.832 -1.54138 -0.328536 0
M  V30 3485 C 350.248 -1.44736 -0.672574 0
M  V30 3486 C 350.448 -0.616217 -1.91846 0
M  V30 3487 O 349.504 -0.113067 -2.52247 0
M  V30 3488 C 350.817 -2.884 -0.851217 0
M  V30 3489 C 352.365 -2.98271 -0.948877 0
M  V30 3490 C 352.84 -4.43074 -1.15973 0
M  V30 3491 N 354.331 -4.46665 -1.22658 0
M  V30 3492 C 355.066 -5.55857 -1.40751 0
M  V30 3493 N 354.562 -6.75026 -1.5592 0
M  V30 3494 N 356.355 -5.43495 -1.4342 0
M  V30 3495 H 348.506 -2.06661 0.490421 0
M  V30 3496 H 350.769 -0.934812 0.157579 0
M  V30 3497 H 350.475 -3.51699 -0.00704236 0
M  V30 3498 H 350.349 -3.34225 -1.74853 0
M  V30 3499 H 352.736 -2.35102 -1.78356 0
M  V30 3500 H 352.817 -2.55785 -0.0281435 0
M  V30 3501 H 352.461 -5.06827 -0.329915 0
M  V30 3502 H 352.391 -4.83165 -2.09426 0
M  V30 3503 H 354.882 -3.60797 -1.124 0
M  V30 3504 H 355.195 -7.54004 -1.69404 0
M  V30 3505 H 353.54 -6.77944 -1.53027 0
M  V30 3506 H 356.731 -4.49349 -1.31162 0
M  V30 3507 H 356.904 -6.28649 -1.57178 0
M  V30 3508 N 350.31 0.590341 -1.46126 0
M  V30 3509 C 351.558 1.34616 -1.50742 0
M  V30 3510 C 351.879 1.94363 -0.157486 0
M  V30 3511 O 351.149 1.78136 0.815136 0
M  V30 3512 H 349.729 0.499789 -0.555175 0
M  V30 3513 H 352.391 0.691953 -1.82203 0
M  V30 3514 H 351.487 2.15678 -2.25587 0
M  V30 3515 N 351.788 1.33704 0.83433 0
M  V30 3516 C 353.036 1.25169 1.58673 0
M  V30 3517 C 353.357 -0.18127 1.94156 0
M  V30 3518 O 352.627 -1.11113 1.6134 0
M  V30 3519 H 351.207 0.4603 0.58833 0
M  V30 3520 H 353.869 1.67478 0.996847 0
M  V30 3521 H 352.965 1.84856 2.51465 0
M  V30 3522 N 353.266 -1.05314 1.17247 0
M  V30 3523 C 354.514 -1.77941 0.958194 0
M  V30 3524 C 354.835 -1.88089 -0.514556 0
M  V30 3525 O 354.105 -1.39676 -1.37359 0
M  V30 3526 H 352.685 -0.659116 0.351533 0
M  V30 3527 H 355.347 -1.27166 1.47699 0
M  V30 3528 H 354.443 -2.79663 1.38546 0
M  V30 3529 N 354.744 -0.972509 -1.24016 0
M  V30 3530 C 356.021 -0.553733 -1.87598 0
M  V30 3531 C 356.401 0.969158 -1.87538 0
M  V30 3532 O 355.749 1.84255 -1.35139 0
M  V30 3533 C 355.959 -1.15076 -3.29482 0
M  V30 3534 C 357.307 -1.23862 -4.06132 0
M  V30 3535 O 358.331 -1.10363 -3.38672 0
M  V30 3536 O 357.19 -1.45252 -5.26844 0
M  V30 3537 H 354.284 -0.185331 -0.805966 0
M  V30 3538 H 356.83 -1.06709 -1.31952 0
M  V30 3539 H 355.602 -2.19333 -3.2405 0
M  V30 3540 H 355.225 -0.621746 -3.92709 0
M  V30 3541 N 356.222 1.38976 -0.743202 0
M  V30 3542 C 357.152 2.33171 -0.123873 0
M  V30 3543 C 358.133 1.54336 0.71516 0
M  V30 3544 O 359.318 1.82696 0.658467 0
M  V30 3545 C 356.448 3.38474 0.777978 0
M  V30 3546 C 355.402 4.27979 0.0424758 0
M  V30 3547 C 354.728 5.2405 1.06189 0
M  V30 3548 C 356.028 5.10155 -1.1198 0
M  V30 3549 H 357.722 2.85213 -0.910709 0
M  V30 3550 H 355.268 1.37133 -0.439388 0
M  V30 3551 H 357.221 4.03328 1.22084 0
M  V30 3552 H 355.945 2.84891 1.59702 0
M  V30 3553 H 354.604 3.64616 -0.380853 0
M  V30 3554 H 354.252 4.66758 1.87472 0
M  V30 3555 H 353.952 5.84785 0.574485 0
M  V30 3556 H 355.476 5.9178 1.50428 0
M  V30 3557 H 356.89 5.68307 -0.75499 0
M  V30 3558 H 355.287 5.80073 -1.53738 0
M  V30 3559 H 356.357 4.44504 -1.93764 0
M  V30 3560 N 357.7 0.491464 1.49741 0
M  V30 3561 C 359.111 0.0413169 1.86654 0
M  V30 3562 C 359.462 -1.36985 1.40462 0
M  V30 3563 O 358.587 -2.01917 0.778354 0
M  V30 3564 C 359.182 0.0682023 3.38731 0
M  V30 3565 C 357.741 -0.32656 3.74981 0
M  V30 3566 C 356.888 0.444888 2.73708 0
M  V30 3567 H 359.839 0.704733 1.42194 0
M  V30 3568 H 359.86 -0.729322 3.73445 0
M  V30 3569 H 359.372 1.09539 3.72321 0
M  V30 3570 H 357.473 -1.35734 3.46997 0
M  V30 3571 H 357.586 -0.013741 4.79098 0
M  V30 3572 H 355.95 -0.104062 2.54487 0
M  V30 3573 H 356.733 1.47197 3.10142 0
M  V30 3574 N 359.178 -1.55987 0.224894 0
M  V30 3575 C 360.126 -2.21808 -0.700283 0
M  V30 3576 C 361.12 -1.19854 -1.19714 0
M  V30 3577 O 362.326 -1.37925 -1.15658 0
M  V30 3578 H 358.701 -0.711226 -0.244258 0
M  V30 3579 H 360.672 -2.98152 -0.121749 0
M  V30 3580 C 359.421 -2.91444 -1.8962 0
M  V30 3581 H 358.744 -3.69655 -1.52299 0
M  V30 3582 H 360.184 -3.40894 -2.52125 0
M  V30 3583 C 358.643 -1.94098 -2.75368 0
M  V30 3584 O 359.173 -1.46004 -3.74227 0
M  V30 3585 N 357.379 -1.61675 -2.41474 0
M  V30 3586 H 356.926 -2.00979 -1.61137 0
M  V30 3587 H 356.884 -0.968036 -2.99126 0
M  V30 3588 N 360.656 0.0484629 -1.57525 0
M  V30 3589 C 361.881 0.759177 -1.93006 0
M  V30 3590 C 362.306 1.69125 -0.823317 0
M  V30 3591 O 361.664 1.79931 0.222364 0
M  V30 3592 C 361.712 1.50899 -3.27509 0
M  V30 3593 O 360.816 2.62112 -3.18388 0
M  V30 3594 H 360.157 0.205564 -0.631379 0
M  V30 3595 H 362.687 0.00972959 -2.04598 0
M  V30 3596 H 362.697 1.88317 -3.6194 0
M  V30 3597 H 361.372 0.825269 -4.0763 0
M  V30 3598 H 359.949 2.27379 -2.95556 0
M  V30 3599 N 362.134 1.5431 0.320358 0
M  V30 3600 C 363.066 1.80262 1.41556 0
M  V30 3601 C 364.079 0.684723 1.477 0
M  V30 3602 O 365.268 0.961886 1.50366 0
M  V30 3603 C 362.368 1.90825 2.8007 0
M  V30 3604 C 361.541 3.21023 2.97091 0
M  V30 3605 C 360.6 3.22247 4.15985 0
M  V30 3606 O 359.626 3.95871 4.08992 0
M  V30 3607 N 360.828 2.46258 5.25678 0
M  V30 3608 H 363.593 2.74778 1.19655 0
M  V30 3609 H 361.154 1.53646 0.510358 0
M  V30 3610 H 363.146 1.89067 3.57821 0
M  V30 3611 H 361.716 1.03392 2.95006 0
M  V30 3612 H 360.936 3.35715 2.06614 0
M  V30 3613 H 362.224 4.0698 3.05361 0
M  V30 3614 H 361.622 1.86037 5.34235 0
M  V30 3615 H 360.179 2.50275 6.01835 0
M  V30 3616 N 363.613 -0.582584 1.46437 0
M  V30 3617 C 364.523 -1.71949 1.59595 0
M  V30 3618 C 365.539 -1.67264 0.479443 0
M  V30 3619 O 366.715 -1.87171 0.743579 0
M  V30 3620 C 363.78 -3.08452 1.58298 0
M  V30 3621 C 362.841 -3.244 2.81182 0
M  V30 3622 C 362.074 -4.54391 2.79937 0
M  V30 3623 O 362.297 -5.38287 1.8869 0
M  V30 3624 O 361.231 -4.73588 3.71481 0
M  V30 3625 H 365.057 -1.63795 2.55744 0
M  V30 3626 H 362.642 -0.749643 1.29231 0
M  V30 3627 H 364.524 -3.89732 1.60271 0
M  V30 3628 H 363.199 -3.17043 0.653094 0
M  V30 3629 H 362.106 -2.42613 2.84763 0
M  V30 3630 H 363.439 -3.20699 3.7338 0
M  V30 3631 N 365.091 -1.34144 -0.827227 0
M  V30 3632 C 366.054 -1.25264 -1.91942 0
M  V30 3633 C 367.054 -0.168866 -1.59911 0
M  V30 3634 O 368.244 -0.421198 -1.69031 0
M  V30 3635 C 365.376 -0.932952 -3.27885 0
M  V30 3636 H 366.569 -2.22357 -2.0124 0
M  V30 3637 H 364.122 -1.1837 -1.0207 0
M  V30 3638 H 364.857 0.0349917 -3.24281 0
M  V30 3639 H 364.642 -1.71682 -3.52516 0
M  V30 3640 H 366.132 -0.895874 -4.07877 0
M  V30 3641 N 366.569 1.04691 -1.17803 0
M  V30 3642 C 367.499 2.14494 -0.92275 0
M  V30 3643 C 368.48 1.69546 0.137179 0
M  V30 3644 O 369.665 1.94195 -0.0141108 0
M  V30 3645 C 366.795 3.44491 -0.440803 0
M  V30 3646 C 365.749 4.03031 -1.4405 0
M  V30 3647 C 365.075 5.28432 -0.81631 0
M  V30 3648 C 366.375 4.39932 -2.81527 0
M  V30 3649 H 368.069 2.36107 -1.84103 0
M  V30 3650 H 365.615 1.1347 -0.886599 0
M  V30 3651 H 367.568 4.2066 -0.249602 0
M  V30 3652 H 366.292 3.22546 0.513025 0
M  V30 3653 H 364.951 3.28937 -1.61853 0
M  V30 3654 H 364.599 5.02792 0.144511 0
M  V30 3655 H 364.299 5.68559 -1.48371 0
M  V30 3656 H 365.823 6.07284 -0.635496 0
M  V30 3657 H 367.237 5.07113 -2.67412 0
M  V30 3658 H 365.634 4.9109 -3.44892 0
M  V30 3659 H 366.704 3.50045 -3.35554 0
M  V30 3660 N 368.047 0.979072 1.23499 0
M  V30 3661 C 368.979 0.476271 2.24197 0
M  V30 3662 C 369.992 -0.421166 1.57258 0
M  V30 3663 O 371.181 -0.225515 1.7707 0
M  V30 3664 C 368.281 -0.330503 3.37285 0
M  V30 3665 C 367.454 0.559744 4.33804 0
M  V30 3666 C 366.513 -0.192954 5.25846 0
M  V30 3667 O 365.539 0.416978 5.67671 0
M  V30 3668 N 366.741 -1.47932 5.61334 0
M  V30 3669 H 369.506 1.34211 2.67969 0
M  V30 3670 H 367.067 0.852189 1.37657 0
M  V30 3671 H 369.059 -0.842361 3.95836 0
M  V30 3672 H 367.629 -1.09734 2.92707 0
M  V30 3673 H 366.849 1.25245 3.73775 0
M  V30 3674 H 368.137 1.1665 4.95248 0
M  V30 3675 H 367.535 -1.9964 5.29302 0
M  V30 3676 H 366.092 -1.93664 6.22364 0
M  V30 3677 N 369.525 -1.3858 0.750561 0
M  V30 3678 C 370.472 -2.30483 0.120835 0
M  V30 3679 C 371.442 -1.50022 -0.712923 0
M  V30 3680 O 372.627 -1.78662 -0.669676 0
M  V30 3681 C 369.767 -3.36431 -0.768666 0
M  V30 3682 C 368.88 -4.31927 0.0793922 0
M  V30 3683 C 368.015 -5.24944 -0.81283 0
M  V30 3684 C 367.054 -6.12088 0.0390447 0
M  V30 3685 N 366.191 -6.97412 -0.809969 0
M  V30 3686 H 371.031 -2.83761 0.91015 0
M  V30 3687 H 368.568 -1.39707 0.460463 0
M  V30 3688 H 370.526 -3.96462 -1.29898 0
M  V30 3689 H 369.156 -2.8457 -1.5238 0
M  V30 3690 H 368.208 -3.73382 0.727303 0
M  V30 3691 H 369.52 -4.93319 0.737401 0
M  V30 3692 H 368.674 -5.90078 -1.41042 0
M  V30 3693 H 367.413 -4.63911 -1.50458 0
M  V30 3694 H 366.418 -5.45952 0.649328 0
M  V30 3695 H 367.643 -6.75189 0.727809 0
M  V30 3696 H 365.589 -6.38931 -1.48672 0
M  V30 3697 H 365.506 -7.55712 -0.208789 0
M  V30 3698 H 366.774 -7.66959 -1.39263 0
M  V30 3699 N 371.003 -0.499398 -1.49478 0
M  V30 3700 C 371.933 0.269244 -2.31943 0
M  V30 3701 C 372.914 0.964054 -1.40143 0
M  V30 3702 O 374.099 0.955767 -1.69052 0
M  V30 3703 C 371.229 1.33504 -3.20615 0
M  V30 3704 C 370.183 0.760202 -4.21195 0
M  V30 3705 C 369.509 1.9264 -4.98792 0
M  V30 3706 C 370.809 -0.247661 -5.21712 0
M  V30 3707 H 372.503 -0.419082 -2.96452 0
M  V30 3708 H 370.049 -0.202988 -1.42562 0
M  V30 3709 H 372.002 1.88048 -3.77115 0
M  V30 3710 H 370.726 2.05253 -2.54045 0
M  V30 3711 H 369.385 0.23653 -3.65836 0
M  V30 3712 H 369.033 2.63154 -4.28671 0
M  V30 3713 H 368.733 1.54785 -5.66847 0
M  V30 3714 H 370.257 2.4762 -5.58137 0
M  V30 3715 H 371.671 0.209579 -5.72917 0
M  V30 3716 H 370.068 -0.541962 -5.97648 0
M  V30 3717 H 371.138 -1.16409 -4.7072 0
M  V30 3718 N 372.481 1.55866 -0.233164 0
M  V30 3719 C 373.706 2.03449 0.402906 0
M  V30 3720 C 374.131 1.11166 1.51736 0
M  V30 3721 O 373.489 0.101996 1.81013 0
M  V30 3722 C 373.537 3.49165 0.9009 0
M  V30 3723 O 372.641 3.60019 2.01147 0
M  V30 3724 H 371.982 0.657913 0.0897025 0
M  V30 3725 H 374.512 2.01493 -0.355201 0
M  V30 3726 H 374.522 3.89716 1.2077 0
M  V30 3727 H 373.197 4.15813 0.0852889 0
M  V30 3728 H 371.774 3.3136 1.71042 0
M  V30 3729 N 373.959 -0.0401083 1.57549 0
M  V30 3730 C 375.236 -0.767917 1.79896 0
M  V30 3731 C 375.616 -1.9416 0.82856 0
M  V30 3732 O 374.964 -2.2812 -0.131671 0
M  V30 3733 C 375.174 -1.2113 3.27305 0
M  V30 3734 C 376.522 -1.63175 3.91994 0
M  V30 3735 O 377.546 -1.30616 3.31388 0
M  V30 3736 O 376.405 -2.23565 4.98679 0
M  V30 3737 H 373.499 -0.370441 0.739393 0
M  V30 3738 H 376.045 -0.017737 1.69691 0
M  V30 3739 H 374.817 -0.372937 3.89519 0
M  V30 3740 H 374.44 -2.02183 3.42356 0
M  V30 3741 N 375.437 -1.54477 -0.31217 0
M  V30 3742 C 376.683 -1.73483 -1.0503 0
M  V30 3743 C 377.016 -0.513125 -1.87298 0
M  V30 3744 O 376.291 0.489864 -1.8823 0
M  V30 3745 C 376.574 -3.01723 -1.96558 0
M  V30 3746 C 376.427 -4.3417 -1.17545 0
M  V30 3747 C 377.746 -3.25772 -2.95907 0
M  V30 3748 H 374.865 -0.631222 -0.380432 0
M  V30 3749 H 377.507 -1.87184 -0.325932 0
M  V30 3750 H 375.657 -2.90174 -2.58324 0
M  V30 3751 H 377.329 -4.5762 -0.581513 0
M  V30 3752 H 375.572 -4.31159 -0.477925 0
M  V30 3753 H 376.243 -5.20143 -1.84811 0
M  V30 3754 H 378.719 -3.36857 -2.44267 0
M  V30 3755 H 377.595 -4.16838 -3.57123 0
M  V30 3756 H 377.856 -2.43537 -3.68974 0
M  V30 3757 N 376.915 0.57481 -1.46744 0
M  V30 3758 C 378.143 1.35856 -1.56047 0
M  V30 3759 C 378.558 1.87691 -0.204365 0
M  V30 3760 O 377.915 1.64049 0.79963 0
M  V30 3761 C 377.966 2.54066 -2.57163 0
M  V30 3762 O 377.687 2.04377 -3.87507 0
M  V30 3763 C 379.188 3.46514 -2.76483 0
M  V30 3764 H 376.408 0.414754 -0.527466 0
M  V30 3765 H 378.952 0.698035 -1.92218 0
M  V30 3766 H 377.107 3.16092 -2.23974 0
M  V30 3767 H 377.521 2.81419 -4.4261 0
M  V30 3768 H 378.995 4.25919 -3.51137 0
M  V30 3769 H 379.472 3.98951 -1.83671 0
M  V30 3770 H 380.078 2.90318 -3.10799 0
M  V30 3771 N 378.394 1.34581 0.820102 0
M  V30 3772 C 379.324 1.29038 1.94606 0
M  V30 3773 C 380.305 0.1673 1.69275 0
M  V30 3774 O 381.49 0.360112 1.90832 0
M  V30 3775 C 378.62 1.04793 3.31113 0
M  V30 3776 C 377.574 2.13597 3.70891 0
M  V30 3777 C 376.9 1.74537 5.05412 0
M  V30 3778 C 378.2 3.55451 3.8269 0
M  V30 3779 H 379.894 2.23248 1.99501 0
M  V30 3780 H 377.44 1.0747 0.958449 0
M  V30 3781 H 379.393 0.995592 4.0947 0
M  V30 3782 H 378.117 0.0702565 3.26524 0
M  V30 3783 H 376.776 2.17905 2.9481 0
M  V30 3784 H 376.424 0.754226 4.97313 0
M  V30 3785 H 376.124 2.47361 5.32997 0
M  V30 3786 H 377.648 1.70803 5.86224 0
M  V30 3787 H 379.062 3.5354 4.51312 0
M  V30 3788 H 377.459 4.26922 4.21732 0
M  V30 3789 H 378.529 3.92587 2.84611 0
M  V30 3790 N 379.872 -1.04064 1.18357 0
M  V30 3791 C 381.118 -1.77528 0.980397 0
M  V30 3792 C 381.451 -1.87948 -0.48879 0
M  V30 3793 O 380.726 -1.3876 -1.36293 0
M  V30 3794 C 381.009 -3.20797 1.63588 0
M  V30 3795 C 380.862 -3.1832 3.17793 0
M  V30 3796 C 382.181 -4.18911 1.34914 0
M  V30 3797 H 379.3 -0.644443 0.357578 0
M  V30 3798 H 381.942 -1.2156 1.46024 0
M  V30 3799 H 380.092 -3.68586 1.22788 0
M  V30 3800 H 381.764 -2.78521 3.67728 0
M  V30 3801 H 380.007 -2.56351 3.49952 0
M  V30 3802 H 380.678 -4.19489 3.58794 0
M  V30 3803 H 383.154 -3.7967 1.70265 0
M  V30 3804 H 382.03 -5.17374 1.83346 0
M  V30 3805 H 382.291 -4.41262 0.272027 0
M  V30 3806 N 381.35 -0.985608 -1.22978 0
M  V30 3807 C 382.761 -0.693593 -1.73338 0
M  V30 3808 C 383.112 0.789935 -1.79595 0
M  V30 3809 O 382.237 1.61771 -1.43733 0
M  V30 3810 C 382.832 -1.25235 -3.14804 0
M  V30 3811 C 381.391 -1.00987 -3.626 0
M  V30 3812 C 380.538 -1.37695 -2.40698 0
M  V30 3813 H 383.489 -1.15884 -1.08428 0
M  V30 3814 H 383.51 -0.627329 -3.75293 0
M  V30 3815 H 383.022 -2.33209 -3.10218 0
M  V30 3816 H 381.123 0.0535565 -3.72562 0
M  V30 3817 H 381.236 -1.66812 -4.49122 0
M  V30 3818 H 379.6 -0.795459 -2.4196 0
M  V30 3819 H 380.383 -2.46657 -2.38779 0
M  V30 3820 N 382.828 1.3818 -0.7579 0
M  V30 3821 C 384.074 2.00316 -0.316453 0
M  V30 3822 C 384.407 1.60026 1.10025 0
M  V30 3823 O 383.682 0.839835 1.75434 0
M  V30 3824 C 383.965 3.57349 -0.444245 0
M  V30 3825 C 383.818 4.07591 -1.90236 0
M  V30 3826 C 385.137 4.3981 0.1598 0
M  V30 3827 H 382.256 0.727741 -0.116459 0
M  V30 3828 H 384.898 1.6406 -0.958352 0
M  V30 3829 H 383.048 3.88365 0.102233 0
M  V30 3830 H 384.72 3.87199 -2.50748 0
M  V30 3831 H 382.963 3.60297 -2.41595 0
M  V30 3832 H 383.634 5.16677 -1.94291 0
M  V30 3833 H 386.11 4.14971 -0.306314 0
M  V30 3834 H 384.986 5.48885 0.0401675 0
M  V30 3835 H 385.247 4.24102 1.24859 0
M  V30 3836 N 384.306 0.507319 1.49211 0
M  V30 3837 C 385.531 -0.033725 2.07373 0
M  V30 3838 C 385.956 -1.29485 1.36437 0
M  V30 3839 O 385.314 -1.76294 0.423087 0
M  V30 3840 C 385.362 -0.263945 3.59633 0
M  V30 3841 O 384.466 -1.33737 3.90113 0
M  V30 3842 H 383.807 0.0290331 0.663365 0
M  V30 3843 H 386.337 0.708749 1.91932 0
M  V30 3844 H 386.347 -0.493536 4.05004 0
M  V30 3845 H 385.022 0.657424 4.10671 0
M  V30 3846 H 383.599 -1.09224 3.56545 0
M  V30 3847 N 385.784 -1.5574 0.241426 0
M  V30 3848 C 387.024 -2.00714 -0.38644 0
M  V30 3849 C 387.388 -1.12586 -1.55526 0
M  V30 3850 O 388.589 -1.46992 -2.25048 0
M  V30 3851 C 386.86 -3.48534 -0.791128 0
M  V30 3852 S 388.419 -4.15519 -1.41029 0
M  V30 3853 H 385.237 -0.700484 -0.121834 0
M  V30 3854 H 387.839 -1.92243 0.355377 0
M  V30 3855 H 386.543 -4.10342 0.0689225 0
M  V30 3856 H 386.074 -3.6092 -1.56526 0
M  V30 3857 H 388.089 -4.16352 -2.69936 0
M  V30 3858 N 387.262 0.0317525 -1.57568 0
M  V30 3859 C 388.487 0.738664 -1.938 0
M  V30 3860 C 388.912 1.68242 -0.841208 0
M  V30 3861 O 388.27 1.80157 0.203267 0
M  V30 3862 C 388.318 1.47417 -3.29091 0
M  V30 3863 O 387.422 2.5872 -3.2115 0
M  V30 3864 H 386.763 0.198856 -0.633524 0
M  V30 3865 H 389.293 -0.0119713 -2.04596 0
M  V30 3866 H 389.303 1.84468 -3.63917 0
M  V30 3867 H 387.978 0.781988 -4.08482 0
M  V30 3868 H 386.555 2.24231 -2.97951 0
M  V30 3869 N 388.74 1.54641 0.303973 0
M  V30 3870 C 389.65 1.88439 1.39743 0
M  V30 3871 C 390.666 0.778239 1.55626 0
M  V30 3872 O 391.842 1.07442 1.70347 0
M  V30 3873 C 388.907 2.12212 2.74166 0
M  V30 3874 C 387.968 3.35936 2.67293 0
M  V30 3875 C 387.201 3.58566 3.95305 0
M  V30 3876 O 387.424 2.84263 4.9452 0
M  V30 3877 O 386.358 4.52078 3.97378 0
M  V30 3878 H 390.184 2.81458 1.14083 0
M  V30 3879 H 387.769 1.40793 0.499768 0
M  V30 3880 H 389.651 2.29067 3.53704 0
M  V30 3881 H 388.326 1.22379 2.99675 0
M  V30 3882 H 387.233 3.24448 1.86237 0
M  V30 3883 H 388.566 4.2589 2.46736 0
M  V30 3884 N 390.218 -0.567019 1.47046 0
M  V30 3885 C 391.148 -1.68482 1.61667 0
M  V30 3886 C 392.129 -1.6358 0.466418 0
M  V30 3887 O 393.314 -1.81354 0.694574 0
M  V30 3888 C 390.444 -3.07124 1.62148 0
M  V30 3889 C 389.398 -3.26867 2.76301 0
M  V30 3890 C 388.724 -4.66196 2.61849 0
M  V30 3891 C 390.024 -3.13186 4.17986 0
M  V30 3892 H 391.718 -1.56502 2.5524 0
M  V30 3893 H 389.264 -0.751486 1.22836 0
M  V30 3894 H 391.217 -3.8516 1.70968 0
M  V30 3895 H 389.941 -3.2004 0.651287 0
M  V30 3896 H 388.6 -2.51237 2.66975 0
M  V30 3897 H 388.248 -4.75898 1.62879 0
M  V30 3898 H 387.948 -4.80356 3.38425 0
M  V30 3899 H 389.472 -5.46379 2.72584 0
M  V30 3900 H 390.886 -3.81049 4.2834 0
M  V30 3901 H 389.283 -3.3886 4.95272 0
M  V30 3902 H 390.353 -2.10057 4.3704 0
M  V30 3903 N 391.696 -1.35014 -0.812953 0
M  V30 3904 C 392.606 -1.2951 -1.95613 0
M  V30 3905 C 393.622 -0.20107 -1.72834 0
M  V30 3906 O 394.798 -0.42932 -1.96771 0
M  V30 3907 C 391.863 -1.06033 -3.30088 0
M  V30 3908 C 390.924 -2.24688 -3.65805 0
M  V30 3909 C 390.157 -2.02322 -4.93864 0
M  V30 3910 O 390.38 -0.986464 -5.61805 0
M  V30 3911 O 389.314 -2.89525 -5.27692 0
M  V30 3912 H 393.14 -2.25705 -2.03202 0
M  V30 3913 H 390.725 -1.15321 -0.949811 0
M  V30 3914 H 392.607 -0.94763 -4.10607 0
M  V30 3915 H 391.282 -0.128852 -3.23443 0
M  V30 3916 H 390.189 -2.41521 -2.85689 0
M  V30 3917 H 391.522 -3.16261 -3.77147 0
M  V30 3918 N 393.175 1.03435 -1.18907 0
M  V30 3919 C 394.122 2.11591 -0.921837 0
M  V30 3920 C 395.092 1.65499 0.141226 0
M  V30 3921 O 396.277 1.908 0.000242829 0
M  V30 3922 C 393.417 3.42012 -0.460616 0
M  V30 3923 C 392.53 4.01682 -1.58982 0
M  V30 3924 C 391.665 5.20091 -1.08069 0
M  V30 3925 C 390.704 5.71805 -2.18416 0
M  V30 3926 N 389.841 6.81494 -1.68849 0
M  V30 3927 H 394.681 2.33787 -1.8479 0
M  V30 3928 H 392.218 1.1467 -0.921373 0
M  V30 3929 H 394.176 4.16834 -0.174642 0
M  V30 3930 H 392.806 3.19944 0.428467 0
M  V30 3931 H 391.858 3.24127 -1.99113 0
M  V30 3932 H 393.17 4.36084 -2.4214 0
M  V30 3933 H 392.324 6.02051 -0.749615 0
M  V30 3934 H 391.063 4.87209 -0.218771 0
M  V30 3935 H 390.068 4.88461 -2.5236 0
M  V30 3936 H 391.293 6.06728 -3.05054 0
M  V30 3937 H 389.239 6.50475 -0.849572 0
M  V30 3938 H 389.156 7.14994 -2.45601 0
M  V30 3939 H 390.424 7.67063 -1.38689 0
M  V30 3940 N 394.653 0.992116 1.22453 0
M  V30 3941 C 395.616 0.546883 2.2258 0
M  V30 3942 C 396.616 -0.369829 1.56489 0
M  V30 3943 O 397.806 -0.161896 1.73446 0
M  V30 3944 C 394.938 -0.204659 3.40285 0
M  V30 3945 H 396.131 1.43234 2.63484 0
M  V30 3946 H 393.684 0.779239 1.3549 0
M  V30 3947 H 394.419 -1.10614 3.04853 0
M  V30 3948 H 394.204 0.45354 3.89468 0
M  V30 3949 H 395.694 -0.504358 4.14543 0
M  V30 3950 N 396.131 -1.37776 0.765217 0
M  V30 3951 C 397.379 -1.99454 0.325943 0
M  V30 3952 C 397.7 -1.61049 -1.09947 0
M  V30 3953 O 396.97 -0.872821 -1.75381 0
M  V30 3954 H 395.55 -0.737697 0.117525 0
M  V30 3955 H 398.212 -1.68359 0.981895 0
M  V30 3956 H 397.308 -3.09547 0.398353 0
M  V30 3957 N 397.609 -0.515225 -1.4894 0
M  V30 3958 C 398.572 0.244681 -2.2789 0
M  V30 3959 C 399.572 0.881166 -1.34507 0
M  V30 3960 O 400.762 0.743497 -1.57537 0
M  V30 3961 C 397.894 1.35247 -3.12923 0
M  V30 3962 H 399.087 -0.448289 -2.96531 0
M  V30 3963 H 396.64 -0.270656 -1.53939 0
M  V30 3964 H 397.375 2.07916 -2.48881 0
M  V30 3965 H 397.16 0.901374 -3.81599 0
M  V30 3966 H 398.65 1.88737 -3.72516 0
M  V30 3967 N 399.087 1.5561 -0.249682 0
M  V30 3968 C 400.335 1.98618 0.373548 0
M  V30 3969 C 400.656 1.13919 1.58264 0
M  V30 3970 O 399.926 0.222637 1.94631 0
M  V30 3971 H 398.506 0.733571 0.141006 0
M  V30 3972 H 401.168 1.91748 -0.349117 0
M  V30 3973 H 400.264 3.04584 0.680796 0
M  V30 3974 N 400.565 -0.0233959 1.57583 0
M  V30 3975 C 401.495 -1.02162 2.09965 0
M  V30 3976 C 402.476 -1.3735 1.00344 0
M  V30 3977 O 403.661 -1.46135 1.27899 0
M  V30 3978 C 400.791 -2.32081 2.58371 0
M  V30 3979 C 399.745 -2.1112 3.72307 0
M  V30 3980 C 399.071 -3.46848 4.06941 0
M  V30 3981 C 400.371 -1.49276 5.00514 0
M  V30 3982 H 402.065 -0.585557 2.93618 0
M  V30 3983 H 399.611 -0.280218 1.41247 0
M  V30 3984 H 401.564 -3.02249 2.93639 0
M  V30 3985 H 400.288 -2.77758 1.71808 0
M  V30 3986 H 398.947 -1.43384 3.37397 0
M  V30 3987 H 398.595 -3.90184 3.17436 0
M  V30 3988 H 398.295 -3.33646 4.83688 0
M  V30 3989 H 399.819 -4.18369 4.44747 0
M  V30 3990 H 401.233 -2.09368 5.33702 0
M  V30 3991 H 399.63 -1.46632 5.8191 0
M  V30 3992 H 400.7 -0.459217 4.82721 0
M  V30 3993 N 402.043 -1.548 -0.295768 0
M  V30 3994 C 403.268 -1.78653 -1.05346 0
M  V30 3995 C 403.693 -0.546894 -1.79974 0
M  V30 3996 O 403.051 0.502763 -1.7419 0
M  V30 3997 C 403.099 -2.99679 -2.00561 0
M  V30 3998 O 402.203 -2.7317 -3.08953 0
M  V30 3999 H 401.544 -0.59116 -0.302367 0
M  V30 4000 H 404.074 -2.01895 -0.331598 0
M  V30 4001 H 404.084 -3.27793 -2.42932 0
M  V30 4002 H 402.759 -3.89562 -1.4565 0
M  V30 4003 H 401.336 -2.56089 -2.71059 0
M  V30 4004 N 403.521 0.559213 -1.47345 0
M  V30 4005 C 404.746 1.34676 -1.57725 0
M  V30 4006 C 405.171 1.86723 -0.227164 0
M  V30 4007 O 404.529 1.6286 0.796642 0
M  V30 4008 C 404.577 2.49399 -2.60447 0
M  V30 4009 O 403.681 3.51567 -2.15578 0
M  V30 4010 H 403.022 0.400115 -0.52991 0
M  V30 4011 H 405.552 0.676009 -1.93109 0
M  V30 4012 H 405.562 2.95996 -2.80803 0
M  V30 4013 H 404.237 2.10873 -3.58477 0
M  V30 4014 H 402.814 3.11289 -2.05313 0
M  V30 4015 N 404.999 1.35443 0.805782 0
M  V30 4016 C 405.929 1.31095 1.93226 0
M  V30 4017 C 406.91 0.185244 1.69088 0
M  V30 4018 O 408.095 0.380332 1.90439 0
M  V30 4019 C 405.225 1.08299 3.29983 0
M  V30 4020 C 404.179 2.17519 3.68605 0
M  V30 4021 C 403.505 1.79887 5.03532 0
M  V30 4022 C 404.805 3.5949 3.78898 0
M  V30 4023 H 406.499 2.25352 1.97122 0
M  V30 4024 H 404.045 1.0848 0.946996 0
M  V30 4025 H 405.998 1.03897 4.08391 0
M  V30 4026 H 404.722 0.104885 3.26432 0
M  V30 4027 H 403.381 2.2102 2.92482 0
M  V30 4028 H 403.029 0.80693 4.96485 0
M  V30 4029 H 402.729 2.53001 5.30344 0
M  V30 4030 H 404.253 1.77011 5.84379 0
M  V30 4031 H 405.667 3.58307 4.47536 0
M  V30 4032 H 404.064 4.31371 4.1718 0
M  V30 4033 H 405.134 3.95584 2.80431 0
M  V30 4034 N 406.477 -1.02803 1.19454 0
M  V30 4035 C 407.717 -1.77769 1.00883 0
M  V30 4036 C 408.081 -1.86596 -0.45233 0
M  V30 4037 O 409.282 -2.57895 -0.757877 0
M  V30 4038 C 407.553 -3.16486 1.66046 0
M  V30 4039 S 409.112 -4.07632 1.62424 0
M  V30 4040 H 405.93 -0.611949 0.361993 0
M  V30 4041 H 408.532 -1.23175 1.51816 0
M  V30 4042 H 407.236 -3.0768 2.7159 0
M  V30 4043 H 406.767 -3.76156 1.15196 0
M  V30 4044 H 408.782 -4.91937 0.64903 0
M  V30 4045 N 407.956 -0.998596 -1.21925 0
M  V30 4046 C 408.886 -0.573688 -2.26343 0
M  V30 4047 C 409.867 0.402296 -1.65274 0
M  V30 4048 O 411.052 0.291683 -1.91997 0
M  V30 4049 C 408.182 0.106839 -3.47136 0
M  V30 4050 C 407.136 -0.788269 -4.20678 0
M  V30 4051 C 406.462 0.0254927 -5.34694 0
M  V30 4052 C 407.762 -2.08784 -4.78755 0
M  V30 4053 H 409.456 -1.44651 -2.62138 0
M  V30 4054 H 407.002 -0.696975 -1.26009 0
M  V30 4055 H 408.955 0.415531 -4.19346 0
M  V30 4056 H 407.679 1.01424 -3.10452 0
M  V30 4057 H 406.338 -1.08069 -3.50309 0
M  V30 4058 H 405.986 0.933989 -4.94253 0
M  V30 4059 H 405.686 -0.570437 -5.84825 0
M  V30 4060 H 407.21 0.328147 -6.09718 0
M  V30 4061 H 408.624 -1.84272 -5.42878 0
M  V30 4062 H 407.021 -2.63307 -5.39249 0
M  V30 4063 H 408.091 -2.76284 -3.98491 0
M  V30 4064 N 409.434 1.37368 -0.772513 0
M  V30 4065 C 410.68 1.99969 -0.337681 0
M  V30 4066 C 411.013 1.61184 1.08321 0
M  V30 4067 O 410.288 0.858395 1.74533 0
M  V30 4068 C 410.571 3.56858 -0.482121 0
M  V30 4069 C 410.424 4.0555 -1.94549 0
M  V30 4070 C 411.743 4.39955 0.113143 0
M  V30 4071 H 408.862 0.726464 -0.124171 0
M  V30 4072 H 411.504 1.63034 -0.975699 0
M  V30 4073 H 409.654 3.88452 0.0610361 0
M  V30 4074 H 411.326 3.84518 -2.54841 0
M  V30 4075 H 409.569 3.57715 -2.45403 0
M  V30 4076 H 410.24 5.14587 -1.9976 0
M  V30 4077 H 412.716 4.14623 -0.35031 0
M  V30 4078 H 411.592 5.48897 -0.0180514 0
M  V30 4079 H 411.853 4.25403 1.20354 0
M  V30 4080 N 410.912 0.523116 1.48665 0
M  V30 4081 C 411.842 -0.23231 2.32342 0
M  V30 4082 C 412.823 -0.941637 1.41659 0
M  V30 4083 O 414.008 -0.928751 1.70552 0
M  V30 4084 C 411.138 -1.28387 3.22698 0
M  V30 4085 C 410.092 -0.693098 4.22351 0
M  V30 4086 C 409.418 -1.8468 5.01794 0
M  V30 4087 C 410.718 0.33063 5.21252 0
M  V30 4088 H 412.412 0.466192 2.95748 0
M  V30 4089 H 409.958 0.225643 1.42221 0
M  V30 4090 H 411.911 -1.82024 3.80059 0
M  V30 4091 H 410.635 -2.01186 2.57278 0
M  V30 4092 H 409.294 -0.178299 3.66166 0
M  V30 4093 H 408.942 -2.56301 4.32804 0
M  V30 4094 H 408.642 -1.45747 5.69238 0
M  V30 4095 H 410.166 -2.38709 5.62006 0
M  V30 4096 H 411.58 -0.118407 5.73178 0
M  V30 4097 H 409.977 0.636974 5.9671 0
M  V30 4098 H 411.047 1.23883 4.68808 0
M  V30 4099 N 412.39 -1.55475 0.257931 0
M  V30 4100 C 413.615 -2.04064 -0.370488 0
M  V30 4101 C 414.04 -1.13565 -1.49948 0
M  V30 4102 O 413.398 -0.130781 -1.80828 0
M  V30 4103 C 413.446 -3.50554 -0.845237 0
M  V30 4104 O 412.55 -3.63173 -1.95394 0
M  V30 4105 H 411.891 -0.659257 -0.0792243 0
M  V30 4106 H 414.421 -2.00903 0.387212 0
M  V30 4107 H 414.431 -3.91588 -1.14555 0
M  V30 4108 H 413.106 -4.15896 -0.0191259 0
M  V30 4109 H 411.683 -3.34039 -1.65748 0
M  V30 4110 N 413.868 0.0150385 -1.57593 0
M  V30 4111 C 415.096 0.714395 -1.94175 0
M  V30 4112 C 415.511 1.68135 -0.858841 0
M  V30 4113 O 414.868 1.81766 0.163567 0
M  V30 4114 C 414.919 1.45933 -3.30735 0
M  V30 4115 O 414.64 0.531167 -4.34868 0
M  V30 4116 C 416.141 2.25456 -3.81686 0
M  V30 4117 H 413.361 0.199923 -0.640525 0
M  V30 4118 H 415.905 -0.0316096 -2.04476 0
M  V30 4119 H 414.06 2.15709 -3.21789 0
M  V30 4120 H 414.474 1.05509 -5.13778 0
M  V30 4121 H 415.948 2.731 -4.79709 0
M  V30 4122 H 416.425 3.07485 -3.13607 0
M  V30 4123 H 417.031 1.60727 -3.9376 0
M  V30 4124 N 415.346 1.54954 0.287554 0
M  V30 4125 C 416.762 1.46469 0.633964 0
M  V30 4126 C 416.962 0.666865 1.90145 0
M  V30 4127 O 416.018 0.179906 2.51858 0
M  V30 4128 C 417.331 2.90556 0.774454 0
M  V30 4129 C 418.879 3.00681 0.869462 0
M  V30 4130 C 419.354 4.45993 1.04184 0
M  V30 4131 N 420.845 4.4976 1.10772 0
M  V30 4132 C 421.58 5.59393 1.25964 0
M  V30 4133 N 421.076 6.78923 1.37968 0
M  V30 4134 N 422.869 5.47107 1.28959 0
M  V30 4135 H 415.02 2.05288 -0.545041 0
M  V30 4136 H 417.283 0.930305 -0.182308 0
M  V30 4137 H 416.989 3.51594 -0.086207 0
M  V30 4138 H 416.863 3.38743 1.6593 0
M  V30 4139 H 419.25 2.39749 1.7206 0
M  V30 4140 H 419.331 2.55769 -0.0396831 0
M  V30 4141 H 418.975 5.07524 0.195422 0
M  V30 4142 H 418.905 4.88548 1.96542 0
M  V30 4143 H 421.396 3.63651 1.02794 0
M  V30 4144 H 421.709 7.58231 1.49353 0
M  V30 4145 H 420.054 6.81763 1.34999 0
M  V30 4146 H 423.245 4.52668 1.19202 0
M  V30 4147 H 423.418 6.32595 1.40455 0
M  V30 4148 N 416.824 -0.551391 1.4764 0
M  V30 4149 C 418.235 -1.13349 1.48354 0
M  V30 4150 C 418.586 -1.94709 0.241432 0
M  V30 4151 O 417.711 -2.06306 -0.653205 0
M  V30 4152 C 418.306 -2.0623 2.68802 0
M  V30 4153 C 416.865 -2.597 2.72457 0
M  V30 4154 C 416.012 -1.36201 2.41546 0
M  V30 4155 H 418.963 -0.337698 1.55065 0
M  V30 4156 H 418.984 -2.90196 2.46103 0
M  V30 4157 H 418.496 -1.46987 3.59188 0
M  V30 4158 H 416.597 -3.22724 1.86225 0
M  V30 4159 H 416.71 -3.00296 3.73308 0
M  V30 4160 H 415.074 -1.67068 1.9225 0
M  V30 4161 H 415.857 -0.787425 3.34147 0
M  V30 4162 N 418.302 -1.35869 -0.798587 0
M  V30 4163 C 419.252 -1.25982 -1.90033 0
M  V30 4164 C 420.236 -0.153303 -1.60168 0
M  V30 4165 O 421.428 -0.38527 -1.72756 0
M  V30 4166 C 418.557 -1.04211 -3.27101 0
M  V30 4167 C 417.643 -2.19289 -3.63006 0
M  V30 4168 N 418.034 -3.44559 -3.70287 0
M  V30 4169 C 416.332 -2.10852 -3.93011 0
M  V30 4170 C 417.033 -4.20283 -4.02166 0
M  V30 4171 N 416.009 -3.49124 -4.16669 0
M  V30 4172 H 419.811 -2.20883 -1.93876 0
M  V30 4173 H 417.325 -1.28457 -0.993614 0
M  V30 4174 H 419.322 -0.952155 -4.05881 0
M  V30 4175 H 417.982 -0.102013 -3.2454 0
M  V30 4176 H 418.993 -3.7881 -3.53162 0
M  V30 4177 H 415.67 -1.24744 -3.98428 0
M  V30 4178 H 417.06 -5.28575 -4.14799 0
M  V30 4179 N 419.78 1.02168 -1.19998 0
M  V30 4180 C 421.005 1.79833 -1.03319 0
M  V30 4181 C 421.43 1.83504 0.413281 0
M  V30 4182 O 420.788 1.26635 1.29743 0
M  V30 4183 C 420.836 3.22396 -1.61533 0
M  V30 4184 O 419.94 4.03555 -0.849519 0
M  V30 4185 H 419.281 0.554872 -0.364709 0
M  V30 4186 H 421.811 1.28542 -1.59179 0
M  V30 4187 H 421.821 3.73124 -1.65054 0
M  V30 4188 H 420.496 3.19039 -2.66809 0
M  V30 4189 H 419.073 3.62169 -0.888129 0
M  V30 4190 O 421.297 1.13266 1.15122 0
M  V30 4191 H 421.988 0.848237 1.7414 0
M  V30 END ATOM
M  V30 BEGIN BOND
M  V30 END BOND
M  V30 END CTAB
M  END
$$$$
