drugbank_target|O95831 Apoptosis-inducing factor 1, mitochondrial (DB03147; DB05282)
 OpenBabel12092119443D

  0  0  0     0  0            999 V3000
M  V30 BEGIN CTAB
M  V30 COUNTS 9482 9572 0 0 0
M  V30 BEGIN ATOM
M  V30 1 H -0.908 1.98254 -0.117106 0
M  V30 2 N 0 1.576 0 0
M  V30 3 C 0.933 2.03868 1.02534 0
M  V30 4 C 1.911 0.928543 1.3348 0
M  V30 5 O 3.095 1.19667 1.45644 0
M  V30 6 C 0.222 2.43627 2.35294 0
M  V30 7 C -0.732 3.65373 2.2001 0
M  V30 8 S 0.101 5.13292 1.52614 0
M  V30 9 C 1.257 5.56322 2.86805 0
M  V30 10 H 1.49 2.90518 0.631377 0
M  V30 11 H -0.977 1.52953 0.210867 0
M  V30 12 H 0.981 2.67203 3.11629 0
M  V30 13 H -0.358 1.57376 2.7183 0
M  V30 14 H -1.165 3.90944 3.18086 0
M  V30 15 H -1.563 3.418 1.51819 0
M  V30 16 H 0.729 5.58782 3.83104 0
M  V30 17 H 1.672 6.56266 2.65933 0
M  V30 18 H 2.08 4.83886 2.90714 0
M  V30 19 N 1.4781 -0.272755 1.55222 0
M  V30 20 C 2.7251 -1.00433 1.7584 0
M  V30 21 C 3.0531 -1.86275 0.559629 0
M  V30 22 O 2.3081 -1.90269 -0.457857 0
M  V30 23 C 2.6071 -1.91642 3.01675 0
M  V30 24 C 2.2731 -1.21548 4.34208 0
M  V30 25 C 0.9351 -1.02166 4.70229 0
M  V30 26 C 3.2871 -0.716684 5.16249 0
M  V30 27 C 0.6151 -0.316334 5.85847 0
M  V30 28 C 2.9671 -0.0249476 6.32595 0
M  V30 29 C 1.6311 0.180579 6.67256 0
M  V30 30 H 0.9011 -0.367509 0.643443 0
M  V30 31 H 3.5481 -0.276596 1.89492 0
M  V30 32 H 1.8531 -2.71037 2.82924 0
M  V30 33 H 3.5501 -2.48369 3.14824 0
M  V30 34 H 0.1401 -1.37645 4.05896 0
M  V30 35 H 4.3241 -0.854047 4.88896 0
M  V30 36 H -0.4199 -0.146378 6.11225 0
M  V30 37 H 3.7541 0.369311 6.9542 0
M  V30 38 H 1.3811 0.729098 7.56696 0
M  V30 39 N 2.9562 -1.48159 -0.537278 0
M  V30 40 C 4.3722 -1.34118 -0.865129 0
M  V30 41 C 4.5722 -0.346678 -1.98495 0
M  V30 42 O 3.6282 0.234715 -2.51407 0
M  V30 43 C 4.9412 -2.73963 -1.23954 0
M  V30 44 C 6.4892 -2.82397 -1.34984 0
M  V30 45 C 6.9642 -4.22928 -1.75772 0
M  V30 46 N 8.4552 -4.25566 -1.82887 0
M  V30 47 C 9.1902 -5.31235 -2.15817 0
M  V30 48 N 8.6862 -6.47189 -2.47222 0
M  V30 49 N 10.4792 -5.18624 -2.16761 0
M  V30 50 H 2.6302 -2.1144 0.201715 0
M  V30 51 H 4.8932 -0.947598 0.0275949 0
M  V30 52 H 4.5992 -3.48264 -0.490381 0
M  V30 53 H 4.4732 -3.0702 -2.19132 0
M  V30 54 H 6.8602 -2.08356 -2.08978 0
M  V30 55 H 6.9412 -2.5297 -0.379448 0
M  V30 56 H 6.5852 -4.97482 -1.02341 0
M  V30 57 H 6.5152 -4.49794 -2.73848 0
M  V30 58 H 9.0062 -3.41924 -1.60924 0
M  V30 59 H 9.3192 -7.23564 -2.71433 0
M  V30 60 H 7.6642 -6.50476 -2.44757 0
M  V30 61 H 10.8552 -4.27056 -1.91679 0
M  V30 62 H 11.0282 -6.01078 -2.42093 0
M  V30 63 N 4.4343 0.785586 -1.36625 0
M  V30 64 C 5.6743 1.55678 -1.32453 0
M  V30 65 C 6.0383 1.91769 0.0941089 0
M  V30 66 O 7.2393 2.67536 0.26042 0
M  V30 67 C 5.5103 2.79701 -2.22491 0
M  V30 68 S 7.0693 3.69907 -2.36038 0
M  V30 69 H 3.8873 0.533141 -0.470405 0
M  V30 70 H 6.4893 0.924953 -1.72235 0
M  V30 71 H 5.1933 2.51244 -3.24507 0
M  V30 72 H 4.7243 3.47854 -1.83742 0
M  V30 73 H 6.7393 4.71016 -1.56072 0
M  V30 74 N 5.9124 1.20967 1.01018 0
M  V30 75 C 7.1604 1.02172 1.74371 0
M  V30 76 C 7.4814 -0.446414 1.89821 0
M  V30 77 O 6.7514 -1.32234 1.44537 0
M  V30 78 H 5.3314 0.375066 0.646014 0
M  V30 79 H 7.9934 1.52187 1.21758 0
M  V30 80 H 7.0894 1.48538 2.74487 0
M  V30 81 N 7.3905 -1.2043 1.01659 0
M  V30 82 C 8.6385 -1.89423 0.704522 0
M  V30 83 C 8.9595 -1.79231 -0.768197 0
M  V30 84 O 8.2295 -1.1947 -1.55254 0
M  V30 85 H 6.8095 -0.701178 0.257602 0
M  V30 86 H 9.4715 -1.4626 1.28818 0
M  V30 87 H 8.5675 -2.96052 0.987916 0
M  V30 88 N 8.8686 -0.792821 -1.36206 0
M  V30 89 C 9.7986 -0.207853 -2.32573 0
M  V30 90 C 10.7796 0.659055 -1.56813 0
M  V30 91 O 11.9646 0.592176 -1.84951 0
M  V30 92 C 9.0946 0.655449 -3.41059 0
M  V30 93 C 8.0486 -0.111842 -4.27854 0
M  V30 94 C 7.3746 0.872274 -5.27537 0
M  V30 95 C 8.6746 -1.30299 -5.05786 0
M  V30 96 H 10.3686 -1.01294 -2.81744 0
M  V30 97 H 7.9146 -0.48854 -1.3546 0
M  V30 98 H 9.8676 1.07464 -4.07467 0
M  V30 99 H 8.5916 1.49328 -2.90463 0
M  V30 100 H 7.2506 -0.512053 -3.63006 0
M  V30 101 H 6.8986 1.70523 -4.73214 0
M  V30 102 H 6.5986 0.363291 -5.86476 0
M  V30 103 H 8.1226 1.28996 -5.96818 0
M  V30 104 H 9.5366 -0.959379 -5.65216 0
M  V30 105 H 7.9336 -1.7455 -5.74154 0
M  V30 106 H 9.0036 -2.09663 -4.37229 0
M  V30 107 N 10.3467 1.47872 -0.545128 0
M  V30 108 C 11.3097 2.28337 0.198717 0
M  V30 109 C 12.3097 1.36255 0.853888 0
M  V30 110 O 13.4997 1.59003 0.711606 0
M  V30 111 C 10.6317 3.15585 1.28915 0
M  V30 112 H 11.8247 2.95567 -0.507941 0
M  V30 113 H 9.3777 1.53362 -0.301616 0
M  V30 114 H 10.1127 2.53019 2.02859 0
M  V30 115 H 9.8977 3.83337 0.824309 0
M  V30 116 H 11.3877 3.76243 1.81194 0
M  V30 117 N 11.8248 0.280983 1.55075 0
M  V30 118 C 12.7878 -0.590896 2.21452 0
M  V30 119 C 13.7878 -1.07682 1.19421 0
M  V30 120 O 14.9778 -0.97605 1.44288 0
M  V30 121 C 12.1098 -1.81587 2.88511 0
M  V30 122 H 13.3028 -0.0112554 2.99898 0
M  V30 123 H 10.8558 0.0316438 1.56268 0
M  V30 124 H 11.5908 -2.43587 2.14093 0
M  V30 125 H 11.3758 -1.4753 3.63287 0
M  V30 126 H 12.8658 -2.43575 3.39206 0
M  V30 127 N 13.3029 -1.57598 0.00835791 0
M  V30 128 C 14.5509 -1.90551 -0.6734 0
M  V30 129 C 14.8719 -0.883301 -1.73847 0
M  V30 130 O 14.1419 0.0781442 -1.95744 0
M  V30 131 H 12.7219 -0.703312 -0.251717 0
M  V30 132 H 15.3839 -1.94833 0.0512592 0
M  V30 133 H 14.4799 -2.9056 -1.13935 0
M  V30 134 N 14.781 0.264519 -1.55364 0
M  V30 135 C 15.744 1.31046 -1.88042 0
M  V30 136 C 16.744 1.41943 -0.755569 0
M  V30 137 O 17.934 1.40947 -1.02369 0
M  V30 138 C 15.066 2.69067 -2.09323 0
M  V30 139 H 16.259 1.03297 -2.81549 0
M  V30 140 H 13.812 0.502989 -1.47986 0
M  V30 141 H 14.547 3.01982 -1.18226 0
M  V30 142 H 14.332 2.62542 -2.91229 0
M  V30 143 H 15.822 3.44623 -2.35848 0
M  V30 144 N 16.2591 1.48442 0.529413 0
M  V30 145 C 17.1891 1.65902 1.64313 0
M  V30 146 C 18.1701 0.507897 1.6234 0
M  V30 147 O 19.3551 0.740503 1.79528 0
M  V30 148 C 16.4851 1.69911 3.02898 0
M  V30 149 C 15.4391 2.8453 3.19729 0
M  V30 150 C 14.7651 2.73629 4.59381 0
M  V30 151 C 16.0651 4.25821 3.02447 0
M  V30 152 H 17.7591 2.5914 1.49955 0
M  V30 153 H 15.3051 1.24709 0.719982 0
M  V30 154 H 17.2581 1.80715 3.80684 0
M  V30 155 H 15.9821 0.732524 3.18279 0
M  V30 156 H 14.6411 2.73283 2.44361 0
M  V30 157 H 14.2891 1.74938 4.71599 0
M  V30 158 H 13.9891 3.50541 4.71588 0
M  V30 159 H 15.5131 2.86401 5.39265 0
M  V30 160 H 16.9271 4.37898 3.70024 0
M  V30 161 H 15.3241 5.03735 3.26146 0
M  V30 162 H 16.3941 4.42244 1.98867 0
M  V30 163 N 17.7372 -0.778329 1.37039 0
M  V30 164 C 18.6842 -1.89139 1.32269 0
M  V30 165 C 19.6542 -1.65017 0.189387 0
M  V30 166 O 20.8392 -1.87024 0.377693 0
M  V30 167 C 17.9792 -3.26112 1.12894 0
M  V30 168 C 17.0922 -3.62233 2.35396 0
M  V30 169 C 16.2272 -4.8838 2.08946 0
M  V30 170 C 15.2662 -5.17212 3.2735 0
M  V30 171 N 14.4032 -6.34546 3.00492 0
M  V30 172 H 19.2432 -1.92552 2.27437 0
M  V30 173 H 16.7802 -0.941473 1.13025 0
M  V30 174 H 18.7382 -4.05116 0.996835 0
M  V30 175 H 17.3682 -3.22091 0.213758 0
M  V30 176 H 16.4202 -2.78265 2.5937 0
M  V30 177 H 17.7322 -3.79481 3.23721 0
M  V30 178 H 16.8862 -5.75274 1.92729 0
M  V30 179 H 15.6252 -4.73222 1.17949 0
M  V30 180 H 14.6302 -4.28796 3.44113 0
M  V30 181 H 15.8552 -5.34283 4.19188 0
M  V30 182 H 13.8012 -6.20759 2.12118 0
M  V30 183 H 13.7182 -6.52179 3.82358 0
M  V30 184 H 14.9862 -7.24394 2.87879 0
M  V30 185 N 19.2153 -1.21501 -1.00376 0
M  V30 186 C 20.1473 -0.933174 -2.09343 0
M  V30 187 C 21.1603 0.0840896 -1.62583 0
M  V30 188 O 22.3493 -0.148563 -1.77881 0
M  V30 189 C 19.4493 -0.379869 -3.36764 0
M  V30 190 C 18.6223 -1.45176 -4.12605 0
M  V30 191 C 17.6813 -0.907476 -5.18316 0
M  V30 192 O 16.7073 -1.5912 -5.46507 0
M  V30 193 N 17.9093 0.276649 -5.7984 0
M  V30 194 H 20.6743 -1.87124 -2.34104 0
M  V30 195 H 18.2353 -1.12043 -1.16867 0
M  V30 196 H 20.2273 -0.00131488 -4.047 0
M  V30 197 H 18.7973 0.463048 -3.09151 0
M  V30 198 H 18.0173 -2.00411 -3.39454 0
M  V30 199 H 19.3053 -2.17328 -4.6005 0
M  V30 200 H 18.7033 0.849147 -5.59291 0
M  V30 201 H 17.2603 0.596702 -6.49063 0
M  V30 202 N 20.6934 1.19889 -1.02296 0
M  V30 203 C 21.6404 2.22901 -0.598651 0
M  V30 204 C 22.6104 1.61588 0.384521 0
M  V30 205 O 23.7954 1.88697 0.282522 0
M  V30 206 C 20.9354 3.45063 0.0504476 0
M  V30 207 C 20.0484 4.20783 -0.978053 0
M  V30 208 C 19.1834 5.30356 -0.299338 0
M  V30 209 C 18.2224 5.97826 -1.31416 0
M  V30 210 N 17.3594 6.98975 -0.661667 0
M  V30 211 H 22.1994 2.58554 -1.48169 0
M  V30 212 H 19.7364 1.27039 -0.741584 0
M  V30 213 H 21.6944 4.14831 0.443971 0
M  V30 214 H 20.3244 3.10084 0.897097 0
M  V30 215 H 19.3764 3.50018 -1.48969 0
M  V30 216 H 20.6884 4.67109 -1.74958 0
M  V30 217 H 19.8424 6.06516 0.149347 0
M  V30 218 H 18.5814 4.85084 0.504445 0
M  V30 219 H 17.5864 5.20422 -1.77317 0
M  V30 220 H 18.8114 6.45183 -2.11933 0
M  V30 221 H 16.7574 6.55886 0.122132 0
M  V30 222 H 16.6744 7.43461 -1.37117 0
M  V30 223 H 17.9424 7.7914 -0.236785 0
M  V30 224 N 22.1715 0.800033 1.35784 0
M  V30 225 C 23.1015 0.220184 2.3246 0
M  V30 226 C 24.0825 -0.65073 1.57161 0
M  V30 227 O 25.2675 -0.582359 1.85263 0
M  V30 228 C 22.3975 -0.637353 3.41402 0
M  V30 229 C 21.3515 0.134531 4.27789 0
M  V30 230 C 20.6775 -0.844285 5.27992 0
M  V30 231 C 21.9775 1.32979 5.05088 0
M  V30 232 H 23.6715 1.02787 2.81203 0
M  V30 233 H 21.2175 0.495717 1.35199 0
M  V30 234 H 23.1705 -1.05302 4.08031 0
M  V30 235 H 21.8945 -1.47785 2.91251 0
M  V30 236 H 20.5535 0.531296 3.6273 0
M  V30 237 H 20.2015 -1.68011 4.74111 0
M  V30 238 H 19.9015 -0.332184 5.8666 0
M  V30 239 H 21.4255 -1.2583 5.97494 0
M  V30 240 H 22.8395 0.98934 5.64699 0
M  V30 241 H 21.2365 1.77593 5.7322 0
M  V30 242 H 22.3065 2.11978 4.36111 0
M  V30 243 N 23.6496 -1.47581 0.552962 0
M  V30 244 C 24.8956 -2.02782 0.0273648 0
M  V30 245 C 25.2286 -1.42687 -1.31734 0
M  V30 246 O 24.5036 -0.580897 -1.85623 0
M  V30 247 C 24.7866 -3.60031 -0.0702371 0
M  V30 248 C 24.6396 -4.30566 1.30126 0
M  V30 249 C 25.9586 -4.33028 -0.785771 0
M  V30 250 H 23.0776 -0.736912 0.0114185 0
M  V30 251 H 25.7196 -1.76056 0.714432 0
M  V30 252 H 23.8696 -3.82932 -0.655382 0
M  V30 253 H 25.5416 -4.19018 1.92929 0
M  V30 254 H 23.7846 -3.91086 1.87709 0
M  V30 255 H 24.4556 -5.39114 1.18573 0
M  V30 256 H 26.9316 -4.15095 -0.288982 0
M  V30 257 H 25.8076 -5.42695 -0.823013 0
M  V30 258 H 26.0686 -4.01945 -1.841 0
M  V30 259 N 25.1277 -0.289203 -1.54924 0
M  V30 260 C 26.5387 0.205791 -1.85562 0
M  V30 261 C 26.8897 1.54351 -1.2112 0
M  V30 262 O 26.0147 2.10435 -0.504601 0
M  V30 263 C 26.6097 0.380177 -3.3666 0
M  V30 264 C 25.1687 0.819395 -3.67373 0
M  V30 265 C 24.3157 -0.079159 -2.77187 0
M  V30 266 H 27.2667 -0.510577 -1.50262 0
M  V30 267 H 27.2877 1.21659 -3.60526 0
M  V30 268 H 26.7997 -0.593589 -3.83534 0
M  V30 269 H 24.9007 1.80413 -3.26009 0
M  V30 270 H 25.0137 0.646957 -4.74712 0
M  V30 271 H 23.3777 0.439565 -2.50878 0
M  V30 272 H 24.1607 -1.04906 -3.26878 0
M  V30 273 N 26.6058 1.57591 -0.0167156 0
M  V30 274 C 27.5358 2.12496 0.967858 0
M  V30 275 C 28.5168 1.03807 1.34752 0
M  V30 276 O 29.7018 1.31577 1.42833 0
M  V30 277 C 26.8318 2.64194 2.25431 0
M  V30 278 C 25.7858 3.77559 2.01576 0
M  V30 279 C 25.1118 4.15636 3.36379 0
M  V30 280 C 26.4118 5.04151 1.36489 0
M  V30 281 H 28.1058 2.95013 0.510643 0
M  V30 282 H 25.6518 1.41915 0.244181 0
M  V30 283 H 27.6048 3.01236 2.94678 0
M  V30 284 H 26.3288 1.78821 2.73296 0
M  V30 285 H 24.9878 3.40937 1.34751 0
M  V30 286 H 24.6358 3.27263 3.81979 0
M  V30 287 H 24.3358 4.92022 3.21229 0
M  V30 288 H 25.8598 4.5525 4.06915 0
M  V30 289 H 27.2738 5.38857 1.95718 0
M  V30 290 H 25.6708 5.85453 1.31776 0
M  V30 291 H 26.7408 4.83733 0.336219 0
M  V30 292 N 28.0839 -0.256276 1.55502 0
M  V30 293 C 29.3299 -0.987079 1.77157 0
M  V30 294 C 29.6629 -1.85327 0.580315 0
M  V30 295 O 28.9379 -1.89874 -0.421686 0
M  V30 296 C 29.2209 -1.85553 3.08613 0
M  V30 297 C 29.0739 -1.01816 4.38125 0
M  V30 298 C 30.3929 -2.8397 3.36228 0
M  V30 299 H 27.5119 -0.357428 0.644526 0
M  V30 300 H 30.1539 -0.258239 1.88237 0
M  V30 301 H 28.3039 -2.47695 2.99298 0
M  V30 302 H 29.9759 -0.416159 4.59419 0
M  V30 303 H 28.2189 -0.322178 4.32602 0
M  V30 304 H 28.8899 -1.65939 5.26468 0
M  V30 305 H 31.3659 -2.31964 3.45445 0
M  V30 306 H 30.2419 -3.41864 4.29442 0
M  V30 307 H 30.5029 -3.59955 2.56681 0
M  V30 308 N 29.562 -1.4872 -0.521534 0
M  V30 309 C 30.978 -1.35028 -0.850855 0
M  V30 310 C 31.178 -0.367712 -1.98116 0
M  V30 311 O 30.234 0.208037 -2.51642 0
M  V30 312 C 31.547 -2.75263 -1.21041 0
M  V30 313 C 33.095 -2.83813 -1.31981 0
M  V30 314 C 33.57 -4.24769 -1.71276 0
M  V30 315 N 35.061 -4.27482 -1.78363 0
M  V30 316 C 35.796 -5.33494 -2.1017 0
M  V30 317 N 35.292 -6.49775 -2.40343 0
M  V30 318 N 37.085 -5.20894 -2.11248 0
M  V30 319 H 29.236 -2.11214 0.22413 0
M  V30 320 H 31.499 -0.947252 0.0376439 0
M  V30 321 H 31.205 -3.48765 -0.453415 0
M  V30 322 H 31.079 -3.09327 -2.15863 0
M  V30 323 H 33.466 -2.10561 -2.06756 0
M  V30 324 H 33.547 -2.53358 -0.352596 0
M  V30 325 H 33.191 -4.9854 -0.970588 0
M  V30 326 H 33.121 -4.52673 -2.69062 0
M  V30 327 H 35.612 -3.43611 -1.57288 0
M  V30 328 H 35.925 -7.26402 -2.63743 0
M  V30 329 H 34.27 -6.53035 -2.37844 0
M  V30 330 H 37.461 -4.29065 -1.87139 0
M  V30 331 H 37.634 -6.03612 -2.35704 0
M  V30 332 N 31.0401 0.771051 -1.3745 0
M  V30 333 C 32.2681 1.56015 -1.35893 0
M  V30 334 C 32.6831 1.88718 0.0555523 0
M  V30 335 O 32.0401 1.51502 1.01752 0
M  V30 336 C 32.0911 2.87001 -2.19801 0
M  V30 337 O 31.8121 2.557 -3.55738 0
M  V30 338 C 33.3131 3.81228 -2.26231 0
M  V30 339 H 30.5331 0.483317 -0.465453 0
M  V30 340 H 33.0771 0.955611 -1.80799 0
M  V30 341 H 31.2321 3.43877 -1.78402 0
M  V30 342 H 31.6461 3.39584 -3.99729 0
M  V30 343 H 33.1201 4.70139 -2.89263 0
M  V30 344 H 33.5971 4.20409 -1.27093 0
M  V30 345 H 34.2031 3.30281 -2.67945 0
M  V30 346 N 32.5182 1.22032 0.997298 0
M  V30 347 C 33.7642 1.04376 1.73878 0
M  V30 348 C 34.0972 -0.420716 1.89588 0
M  V30 349 O 33.3722 -1.31202 1.43583 0
M  V30 350 C 33.6552 1.75047 3.14691 0
M  V30 351 C 33.5082 3.29062 3.06656 0
M  V30 352 C 34.8272 1.49928 4.13775 0
M  V30 353 H 31.9462 0.380578 0.631133 0
M  V30 354 H 34.5882 1.50312 1.16217 0
M  V30 355 H 32.7382 1.35996 3.63919 0
M  V30 356 H 34.4102 3.7753 2.65083 0
M  V30 357 H 32.6532 3.58967 2.43568 0
M  V30 358 H 33.3242 3.73683 4.06282 0
M  V30 359 H 35.8002 1.83842 3.73285 0
M  V30 360 H 34.6762 2.01878 5.10428 0
M  V30 361 H 34.9372 0.430929 4.39995 0
M  V30 362 N 33.9963 -1.19345 1.0293 0
M  V30 363 C 35.2363 -1.90738 0.734727 0
M  V30 364 C 35.6003 -1.7785 -0.723414 0
M  V30 365 O 36.8013 -2.43844 -1.13108 0
M  V30 366 C 35.0723 -3.37569 1.17396 0
M  V30 367 S 36.6313 -4.27176 1.00329 0
M  V30 368 H 33.4493 -0.658771 0.267474 0
M  V30 369 H 36.0513 -1.4428 1.31922 0
M  V30 370 H 34.7553 -3.44475 2.23081 0
M  V30 371 H 34.2863 -3.8906 0.582772 0
M  V30 372 H 36.3013 -4.96126 -0.0859152 0
M  V30 373 N 35.4744 -0.807222 -1.35358 0
M  V30 374 C 36.7204 -0.388463 -1.99045 0
M  V30 375 C 37.0534 1.04184 -1.63888 0
M  V30 376 O 36.3284 1.72292 -0.902535 0
M  V30 377 C 36.6114 -0.572783 -3.55515 0
M  V30 378 C 36.4644 -2.04807 -4.00468 0
M  V30 379 C 37.7834 0.00114064 -4.401 0
M  V30 380 H 34.9024 -0.142619 -0.723069 0
M  V30 381 H 37.5444 -1.01687 -1.60498 0
M  V30 382 H 35.6944 -0.0378425 -3.88482 0
M  V30 383 H 37.3664 -2.64544 -3.77908 0
M  V30 384 H 35.6094 -2.54427 -3.51353 0
M  V30 385 H 36.2804 -2.12792 -5.09337 0
M  V30 386 H 38.7564 -0.455716 -4.13597 0
M  V30 387 H 37.6324 -0.157737 -5.48673 0
M  V30 388 H 37.8934 1.09488 -4.28328 0
M  V30 389 N 36.9525 1.47285 -0.560781 0
M  V30 390 C 38.3685 1.58065 -0.22081 0
M  V30 391 C 38.5685 1.55892 1.27671 0
M  V30 392 O 37.6245 1.46422 2.0571 0
M  V30 393 C 38.9375 2.88418 -0.850625 0
M  V30 394 C 40.4855 3.02009 -0.822184 0
M  V30 395 C 40.9605 4.35066 -1.43113 0
M  V30 396 N 42.4515 4.41711 -1.39448 0
M  V30 397 C 43.1865 5.43237 -1.83525 0
M  V30 398 N 42.6825 6.51555 -2.35474 0
M  V30 399 N 44.4755 5.34304 -1.74574 0
M  V30 400 H 36.6265 1.46941 -1.53369 0
M  V30 401 H 38.8895 0.699558 -0.639783 0
M  V30 402 H 38.5955 2.95755 -1.9032 0
M  V30 403 H 38.4695 3.75612 -0.345773 0
M  V30 404 H 40.8565 2.94266 0.221714 0
M  V30 405 H 40.9375 2.16347 -1.36483 0
M  V30 406 H 40.5815 4.43565 -2.47412 0
M  V30 407 H 40.5115 5.19465 -0.863899 0
M  V30 408 H 43.0025 3.64027 -1.01452 0
M  V30 409 H 43.3155 7.25203 -2.67021 0
M  V30 410 H 41.6605 6.52435 -2.39487 0
M  V30 411 H 44.8515 4.48581 -1.33763 0
M  V30 412 H 45.0245 6.13288 -2.09242 0
M  V30 413 N 38.4306 0.297415 1.54768 0
M  V30 414 C 39.6556 -0.318435 2.04941 0
M  V30 415 C 40.0806 -1.4701 1.17345 0
M  V30 416 O 39.4386 -1.80436 0.176758 0
M  V30 417 C 39.4866 -0.755749 3.52592 0
M  V30 418 O 38.5906 -1.86088 3.68028 0
M  V30 419 H 37.9316 -0.062421 0.661059 0
M  V30 420 H 40.4616 0.438215 1.99852 0
M  V30 421 H 40.4716 -1.04552 3.94376 0
M  V30 422 H 39.1466 0.0867233 4.1581 0
M  V30 423 H 37.7236 -1.57193 3.38149 0
M  V30 424 N 39.9087 -1.5758 0.0250728 0
M  V30 425 C 41.3197 -1.79476 -0.514323 0
M  V30 426 C 41.6707 -0.934956 -1.72491 0
M  V30 427 O 40.7957 -0.144245 -2.15919 0
M  V30 428 C 41.3907 -3.25503 -0.939842 0
M  V30 429 C 39.9497 -3.48408 -1.42438 0
M  V30 430 C 39.0967 -2.74583 -0.387201 0
M  V30 431 H 42.0477 -1.567 0.25113 0
M  V30 432 H 42.0687 -3.34992 -1.80445 0
M  V30 433 H 41.5807 -3.88056 -0.0585628 0
M  V30 434 H 39.6817 -2.91103 -2.32572 0
M  V30 435 H 39.7947 -4.57119 -1.43455 0
M  V30 436 H 38.1587 -2.39942 -0.854409 0
M  V30 437 H 38.9417 -3.39849 0.485543 0
M  V30 438 N 41.3868 0.248026 -1.55636 0
M  V30 439 C 42.8028 0.596483 -1.48035 0
M  V30 440 C 43.0028 1.88386 -0.715039 0
M  V30 441 O 42.0588 2.51319 -0.243944 0
M  V30 442 C 43.3718 0.700258 -2.92433 0
M  V30 443 C 44.9198 0.792659 -3.02797 0
M  V30 444 C 45.3948 0.928005 -4.485 0
M  V30 445 N 46.8858 0.992903 -4.52433 0
M  V30 446 C 47.6208 1.11687 -5.62418 0
M  V30 447 N 47.1168 1.20645 -6.82214 0
M  V30 448 N 48.9098 1.14994 -5.50212 0
M  V30 449 H 41.0608 -0.597109 -2.03834 0
M  V30 450 H 43.3238 -0.205925 -0.925364 0
M  V30 451 H 43.0298 -0.175658 -3.51261 0
M  V30 452 H 42.9038 1.57255 -3.42857 0
M  V30 453 H 45.2908 1.65903 -2.4405 0
M  V30 454 H 45.3718 -0.104762 -2.55585 0
M  V30 455 H 45.0158 0.0661971 -5.07857 0
M  V30 456 H 44.9458 1.84045 -4.93391 0
M  V30 457 H 47.4368 0.935064 -3.66149 0
M  V30 458 H 47.7498 1.30008 -7.61786 0
M  V30 459 H 46.0948 1.17605 -6.84977 0
M  V30 460 H 49.2858 1.07643 -4.55555 0
M  V30 461 H 49.4588 1.24311 -6.35965 0
M  V30 462 N 42.8649 1.48995 0.513639 0
M  V30 463 C 43.7969 1.60836 1.63293 0
M  V30 464 C 44.8099 0.491701 1.55197 0
M  V30 465 O 45.9989 0.763238 1.6136 0
M  V30 466 C 43.0989 1.53731 3.02027 0
M  V30 467 C 42.2719 2.80715 3.35437 0
M  V30 468 C 41.3309 2.66837 4.53525 0
M  V30 469 O 40.3569 3.40753 4.55934 0
M  V30 470 N 41.5589 1.77539 5.52684 0
M  V30 471 H 44.3239 2.57366 1.53566 0
M  V30 472 H 41.8849 1.45925 0.701259 0
M  V30 473 H 43.8769 1.42118 3.78926 0
M  V30 474 H 42.4469 0.651092 3.05744 0
M  V30 475 H 41.6669 3.06772 2.47557 0
M  V30 476 H 42.9549 3.64927 3.54551 0
M  V30 477 H 42.3529 1.16719 5.53528 0
M  V30 478 H 40.9099 1.71856 6.28736 0
M  V30 479 N 44.343 -0.763751 1.37857 0
M  V30 480 C 45.759 -1.06542 1.18832 0
M  V30 481 C 45.959 -2.01478 0.0299722 0
M  V30 482 O 45.015 -2.4458 -0.627447 0
M  V30 483 C 46.328 -1.65525 2.51042 0
M  V30 484 C 47.876 -1.77745 2.57635 0
M  V30 485 C 48.351 -2.4014 3.89996 0
M  V30 486 N 49.842 -2.47582 3.91481 0
M  V30 487 C 50.577 -2.96732 4.9065 0
M  V30 488 N 50.073 -3.45993 6.00217 0
M  V30 489 N 51.866 -2.95679 4.78048 0
M  V30 490 H 44.017 -0.133556 2.1198 0
M  V30 491 H 46.28 -0.121879 0.940133 0
M  V30 492 H 45.986 -1.03236 3.36207 0
M  V30 493 H 45.86 -2.64719 2.68707 0
M  V30 494 H 48.247 -2.39164 1.72872 0
M  V30 495 H 48.328 -0.772836 2.43846 0
M  V30 496 H 47.972 -1.79358 4.75177 0
M  V30 497 H 47.902 -3.41223 4.01092 0
M  V30 498 H 50.393 -2.1273 3.12337 0
M  V30 499 H 50.706 -3.81922 6.7183 0
M  V30 500 H 49.051 -3.44077 6.03851 0
M  V30 501 H 52.242 -2.56499 3.91568 0
M  V30 502 H 52.415 -3.33672 5.55488 0
M  V30 503 N 45.8211 -1.22559 -0.990812 0
M  V30 504 C 46.7691 -0.994798 -2.10253 0
M  V30 505 C 47.7631 0.0627798 -1.69284 0
M  V30 506 O 48.9691 -0.0898392 -1.79776 0
M  V30 507 H 45.3441 -0.304527 -0.687581 0
M  V30 508 H 47.3151 -1.93812 -2.26891 0
M  V30 509 C 46.0641 -0.591439 -3.42633 0
M  V30 510 H 45.3871 -1.3969 -3.74602 0
M  V30 511 H 46.8271 -0.469385 -4.21394 0
M  V30 512 C 45.2861 0.699232 -3.29564 0
M  V30 513 O 45.8161 1.75112 -3.61523 0
M  V30 514 N 44.0221 0.671182 -2.82743 0
M  V30 515 H 43.5691 -0.185136 -2.56934 0
M  V30 516 H 43.5271 1.53502 -2.7438 0
M  V30 517 N 47.2992 1.18797 -1.03562 0
M  V30 518 C 48.7152 1.40671 -0.753917 0
M  V30 519 C 48.9152 1.9043 0.658686 0
M  V30 520 O 47.9712 2.08538 1.42366 0
M  V30 521 C 49.2842 2.41192 -1.79574 0
M  V30 522 C 50.8322 2.54928 -1.81606 0
M  V30 523 C 51.3072 3.58709 -2.84766 0
M  V30 524 N 52.7982 3.66212 -2.83625 0
M  V30 525 C 53.5332 4.46225 -3.60098 0
M  V30 526 N 53.0292 5.29888 -4.46308 0
M  V30 527 N 54.8222 4.40939 -3.4861 0
M  V30 528 H 46.9732 0.848221 -1.94728 0
M  V30 529 H 49.2362 0.435081 -0.842264 0
M  V30 530 H 48.9422 2.11669 -2.80872 0
M  V30 531 H 48.8162 3.40467 -1.62365 0
M  V30 532 H 51.2032 2.83771 -0.809817 0
M  V30 533 H 51.2842 1.55784 -2.02891 0
M  V30 534 H 50.9282 3.30607 -3.85566 0
M  V30 535 H 50.8582 4.57519 -2.60737 0
M  V30 536 H 53.3492 3.06466 -2.21105 0
M  V30 537 H 53.6622 5.88078 -5.01382 0
M  V30 538 H 52.0072 5.29326 -4.50377 0
M  V30 539 H 55.1982 3.74624 -2.80668 0
M  V30 540 H 55.3712 5.03056 -4.08459 0
M  V30 541 N 48.7773 0.814389 1.34928 0
M  V30 542 C 49.7073 0.244827 2.32213 0
M  V30 543 C 50.6883 -0.634024 1.57842 0
M  V30 544 O 51.8733 -0.562676 1.8587 0
M  V30 545 C 49.0033 -0.601106 3.42058 0
M  V30 546 C 47.9573 0.179896 4.27622 0
M  V30 547 C 47.2833 -0.788237 5.28858 0
M  V30 548 C 48.5833 1.38329 5.03649 0
M  V30 549 H 50.2773 1.05763 2.80097 0
M  V30 550 H 47.8233 0.510029 1.34665 0
M  V30 551 H 49.7763 -1.00968 4.09125 0
M  V30 552 H 48.5003 -1.44688 2.92802 0
M  V30 553 H 47.1593 0.569739 3.62146 0
M  V30 554 H 46.8073 -1.62973 4.75866 0
M  V30 555 H 46.5073 -0.269942 5.8698 0
M  V30 556 H 48.0313 -1.19485 5.98795 0
M  V30 557 H 49.4453 1.04918 5.63618 0
M  V30 558 H 47.8423 1.83662 5.71304 0
M  V30 559 H 48.9123 2.16592 4.33839 0
M  V30 560 N 50.2554 -1.46986 0.568584 0
M  V30 561 C 51.6664 -1.86188 0.138219 0
M  V30 562 C 52.0174 -1.47388 -1.29504 0
M  V30 563 O 51.1424 -0.88219 -1.97602 0
M  V30 564 C 51.7374 -3.3792 0.244065 0
M  V30 565 C 50.2964 -3.76171 -0.131335 0
M  V30 566 C 49.4434 -2.71027 0.586465 0
M  V30 567 H 52.3944 -1.38342 0.777645 0
M  V30 568 H 52.4154 -3.76729 -0.534351 0
M  V30 569 H 51.9274 -3.66128 1.28731 0
M  V30 570 H 50.0284 -3.5358 -1.17526 0
M  V30 571 H 50.1414 -4.78523 0.235146 0
M  V30 572 H 48.5054 -2.54684 0.0282722 0
M  V30 573 H 49.2884 -3.02077 1.63109 0
M  V30 574 N 51.7335 -0.305618 -1.54608 0
M  V30 575 C 52.9815 0.301701 -1.99835 0
M  V30 576 C 53.3025 1.54054 -1.19551 0
M  V30 577 O 52.5725 1.93702 -0.292658 0
M  V30 578 H 51.1525 0.114468 -0.738178 0
M  V30 579 H 53.8145 -0.418016 -1.90364 0
M  V30 580 H 52.9105 0.570548 -3.06841 0
M  V30 581 N 53.2116 1.57565 -0.0334293 0
M  V30 582 C 54.1596 2.1164 0.96496 0
M  V30 583 C 55.1536 1.04398 1.33407 0
M  V30 584 O 56.3596 1.22828 1.3158 0
M  V30 585 H 52.7346 0.676222 0.32898 0
M  V30 586 H 54.7056 2.94455 0.483614 0
M  V30 587 C 53.4546 2.66207 2.23672 0
M  V30 588 H 52.7776 3.48378 1.96145 0
M  V30 589 H 54.2176 3.07685 2.9173 0
M  V30 590 C 52.6766 1.59151 2.96939 0
M  V30 591 O 53.2066 0.993858 3.89211 0
M  V30 592 N 51.4126 1.31093 2.59351 0
M  V30 593 H 50.9596 1.7988 1.84393 0
M  V30 594 H 50.9176 0.596889 3.08682 0
M  V30 595 N 54.6897 -0.239769 1.55765 0
M  V30 596 C 55.6197 -1.30052 1.9393 0
M  V30 597 C 56.6007 -1.49839 0.805132 0
M  V30 598 O 57.7857 -1.62328 1.06599 0
M  V30 599 C 54.9157 -2.65391 2.2402 0
M  V30 600 C 53.8697 -2.60289 3.39755 0
M  V30 601 C 53.1957 -3.99489 3.55405 0
M  V30 602 C 54.4957 -2.16654 4.75246 0
M  V30 603 H 56.1897 -0.983573 2.82783 0
M  V30 604 H 53.7357 -0.471701 1.36055 0
M  V30 605 H 55.6887 -3.3974 2.49308 0
M  V30 606 H 54.4127 -2.98736 1.32 0
M  V30 607 H 53.0717 -1.88398 3.14487 0
M  V30 608 H 52.7197 -4.30112 2.60793 0
M  V30 609 H 52.4197 -3.96962 4.33238 0
M  V30 610 H 53.9437 -4.75528 3.83022 0
M  V30 611 H 55.3577 -2.80737 4.99859 0
M  V30 612 H 53.7547 -2.25223 5.56232 0
M  V30 613 H 54.8247 -1.11835 4.71827 0
M  V30 614 N 56.1678 -1.49265 -0.50573 0
M  V30 615 C 57.4148 -1.58513 -1.26015 0
M  V30 616 C 57.7428 -0.26972 -1.92621 0
M  V30 617 O 56.9978 0.741997 -1.81088 0
M  V30 618 C 57.2968 -2.69008 -2.35308 0
M  V30 619 C 56.9628 -4.10662 -1.86192 0
M  V30 620 C 55.6248 -4.49212 -1.72516 0
M  V30 621 C 57.9768 -4.99336 -1.49375 0
M  V30 622 C 55.3048 -5.74214 -1.20394 0
M  V30 623 C 57.6568 -6.24852 -0.987072 0
M  V30 624 C 56.3208 -6.62236 -0.836669 0
M  V30 625 H 55.5908 -0.580041 -0.461122 0
M  V30 626 H 58.2378 -1.83078 -0.561665 0
M  V30 627 H 56.5428 -2.38396 -3.10926 0
M  V30 628 H 58.2398 -2.73373 -2.93374 0
M  V30 629 H 54.8298 -3.8023 -1.97795 0
M  V30 630 H 59.0138 -4.70212 -1.5879 0
M  V30 631 H 54.2698 -6.01883 -1.07458 0
M  V30 632 H 58.4438 -6.92944 -0.692983 0
M  V30 633 H 56.0708 -7.58979 -0.430607 0
M  V30 634 N 57.6459 0.756429 -1.3826 0
M  V30 635 C 58.5779 1.87971 -1.31147 0
M  V30 636 C 59.5909 1.61248 -0.224239 0
M  V30 637 O 60.7799 1.71881 -0.481581 0
M  V30 638 C 57.8799 3.23545 -1.00857 0
M  V30 639 C 57.0529 3.77794 -2.20432 0
M  V30 640 C 56.1119 4.91877 -1.86931 0
M  V30 641 O 55.1379 5.06659 -2.59395 0
M  V30 642 N 56.3399 5.74643 -0.822568 0
M  V30 643 H 59.1049 1.94585 -2.2794 0
M  V30 644 H 56.6659 0.936234 -1.32084 0
M  V30 645 H 58.6579 3.97403 -0.765021 0
M  V30 646 H 57.2279 3.12335 -0.128687 0
M  V30 647 H 56.4479 2.95534 -2.6087 0
M  V30 648 H 57.7359 4.10771 -3.00241 0
M  V30 649 H 57.1339 5.65266 -0.221575 0
M  V30 650 H 55.6909 6.48661 -0.638899 0
M  V30 651 N 59.124 1.23083 0.984299 0
M  V30 652 C 60.54 0.992637 1.24975 0
M  V30 653 C 60.74 -0.308618 1.99123 0
M  V30 654 O 59.796 -1.02905 2.30579 0
M  V30 655 C 61.109 2.19698 2.05312 0
M  V30 656 C 62.657 2.24147 2.18465 0
M  V30 657 C 63.132 3.44157 3.02192 0
M  V30 658 N 64.623 3.44372 3.09777 0
M  V30 659 C 65.358 4.33886 3.74874 0
M  V30 660 N 64.854 5.3363 4.41827 0
M  V30 661 N 66.647 4.21639 3.71721 0
M  V30 662 H 58.798 2.06731 0.487453 0
M  V30 663 H 61.061 0.906339 0.277944 0
M  V30 664 H 60.767 3.1411 1.58201 0
M  V30 665 H 60.641 2.20465 3.06064 0
M  V30 666 H 63.028 1.30277 2.64786 0
M  V30 667 H 63.109 2.27415 1.17115 0
M  V30 668 H 62.753 4.38332 2.56568 0
M  V30 669 H 62.683 3.3813 4.03702 0
M  V30 670 H 65.174 2.72201 2.62135 0
M  V30 671 H 65.487 5.98196 4.89266 0
M  V30 672 H 63.832 5.37534 4.40548 0
M  V30 673 H 67.023 3.42962 3.18582 0
M  V30 674 H 67.196 4.91604 4.22173 0
M  V30 675 N 60.6021 -1.18246 1.0419 0
M  V30 676 C 61.8481 -1.88793 0.75689 0
M  V30 677 C 62.2031 -1.78909 -0.707767 0
M  V30 678 O 61.4961 -1.1794 -1.50999 0
M  V30 679 C 61.6901 -3.38082 1.15911 0
M  V30 680 C 61.5191 -3.62496 2.66133 0
M  V30 681 C 60.2891 -3.7979 3.33298 0
M  V30 682 C 62.4871 -3.62976 3.64353 0
M  V30 683 N 60.4691 -3.91955 4.72487 0
M  V30 684 C 61.8401 -3.80869 4.89222 0
M  V30 685 C 63.8951 -3.46071 3.57965 0
M  V30 686 C 62.5981 -3.83608 6.08471 0
M  V30 687 C 64.6241 -3.50093 4.76643 0
M  V30 688 C 63.9861 -3.68484 6.00332 0
M  V30 689 H 60.0851 -0.709406 0.32904 0
M  V30 690 H 62.6691 -1.42022 1.33183 0
M  V30 691 H 60.8401 -3.83544 0.612238 0
M  V30 692 H 62.5721 -3.96202 0.824989 0
M  V30 693 H 59.3271 -3.79224 2.83701 0
M  V30 694 H 59.7511 -4.01857 5.44831 0
M  V30 695 H 64.3931 -3.30797 2.63311 0
M  V30 696 H 62.1111 -3.97669 7.0348 0
M  V30 697 H 65.6971 -3.38285 4.73344 0
M  V30 698 H 64.5771 -3.71488 6.90627 0
M  V30 699 N 62.0802 -0.821533 -1.34494 0
M  V30 700 C 63.0302 -0.214793 -2.26986 0
M  V30 701 C 64.0142 0.620125 -1.4847 0
M  V30 702 O 65.2062 0.474933 -1.70509 0
M  V30 703 C 62.3352 0.623566 -3.37589 0
M  V30 704 C 61.4212 -0.221904 -4.23519 0
M  V30 705 N 61.8122 -1.29223 -4.89014 0
M  V30 706 C 60.1102 -0.00600922 -4.46 0
M  V30 707 C 60.8112 -1.80965 -5.52835 0
M  V30 708 N 59.7872 -1.11376 -5.32068 0
M  V30 709 H 63.5892 -1.03354 -2.75128 0
M  V30 710 H 61.1032 -0.6642 -1.48196 0
M  V30 711 H 63.1002 1.0744 -4.02818 0
M  V30 712 H 61.7602 1.44049 -2.90998 0
M  V30 713 H 62.7712 -1.67502 -4.90065 0
M  V30 714 H 59.4482 0.77886 -4.10171 0
M  V30 715 H 60.8382 -2.70502 -6.15043 0
M  V30 716 N 63.5583 1.46682 -0.576371 0
M  V30 717 C 64.8043 2.02712 -0.0596221 0
M  V30 718 C 65.1373 1.44765 1.29448 0
M  V30 719 O 64.4123 0.610355 1.84675 0
M  V30 720 C 64.6953 3.60098 0.0129503 0
M  V30 721 C 64.5483 4.28441 -1.3696 0
M  V30 722 C 65.8673 4.34224 0.71678 0
M  V30 723 H 62.9863 0.736637 -0.0231407 0
M  V30 724 H 65.6283 1.74898 -0.742351 0
M  V30 725 H 63.7783 3.83926 0.594378 0
M  V30 726 H 65.4503 4.15896 -1.9957 0
M  V30 727 H 63.6933 3.8805 -1.93907 0
M  V30 728 H 64.3643 5.3716 -1.27135 0
M  V30 729 H 66.8403 4.15503 0.222908 0
M  V30 730 H 65.7163 5.43936 0.73657 0
M  V30 731 H 65.9773 4.04823 1.77682 0
M  V30 732 N 65.0364 0.313813 1.54444 0
M  V30 733 C 66.4474 -0.176243 1.85866 0
M  V30 734 C 66.7984 -1.52405 1.23561 0
M  V30 735 O 65.9234 -2.09605 0.538016 0
M  V30 736 C 66.5184 -0.32657 3.37222 0
M  V30 737 C 65.0774 -0.760846 3.6863 0
M  V30 738 C 64.2244 0.123247 2.77026 0
M  V30 739 H 67.1754 0.534418 1.49431 0
M  V30 740 H 67.1964 -1.15908 3.62416 0
M  V30 741 H 66.7084 0.654531 3.82541 0
M  V30 742 H 64.8094 -1.75204 3.28838 0
M  V30 743 H 64.9224 -0.571353 4.75681 0
M  V30 744 H 63.2864 -0.399597 2.51546 0
M  V30 745 H 64.0694 1.10094 3.25168 0
M  V30 746 N 66.5145 -1.57545 0.0417849 0
M  V30 747 C 67.4445 -2.14009 -0.933929 0
M  V30 748 C 68.4255 -1.05938 -1.33083 0
M  V30 749 O 69.6105 -1.33833 -1.40721 0
M  V30 750 C 66.7405 -2.67747 -2.21199 0
M  V30 751 C 65.6945 -3.80718 -1.95544 0
M  V30 752 C 65.0205 -4.20935 -3.29724 0
M  V30 753 C 66.3205 -5.06258 -1.28452 0
M  V30 754 H 68.0145 -2.95788 -0.463645 0
M  V30 755 H 65.5605 -1.42285 -0.221573 0
M  V30 756 H 67.5135 -3.05886 -2.89848 0
M  V30 757 H 66.2375 -1.83147 -2.70416 0
M  V30 758 H 64.8965 -3.43037 -1.2931 0
M  V30 759 H 64.5445 -3.33298 -3.76724 0
M  V30 760 H 64.2445 -4.9707 -3.13361 0
M  V30 761 H 65.7685 -4.61666 -3.9962 0
M  V30 762 H 67.1825 -5.41903 -1.8712 0
M  V30 763 H 65.5795 -5.87475 -1.22445 0
M  V30 764 H 66.6495 -4.84207 -0.259219 0
M  V30 765 N 67.9926 0.231505 -1.5589 0
M  V30 766 C 68.9026 1.308 -1.94752 0
M  V30 767 C 69.9186 1.51826 -0.849989 0
M  V30 768 O 71.0946 1.6515 -1.15271 0
M  V30 769 C 68.1596 2.63968 -2.24771 0
M  V30 770 C 67.2206 2.51331 -3.48039 0
M  V30 771 C 66.4536 3.78148 -3.76616 0
M  V30 772 O 66.6766 4.80722 -3.07022 0
M  V30 773 O 65.6106 3.75857 -4.70123 0
M  V30 774 H 69.4366 1.0083 -2.86474 0
M  V30 775 H 67.0216 0.433547 -1.42971 0
M  V30 776 H 68.9036 3.42633 -2.45318 0
M  V30 777 H 67.5786 2.9364 -1.36225 0
M  V30 778 H 66.4856 1.709 -3.32782 0
M  V30 779 H 67.8186 2.26601 -4.36936 0
M  V30 780 N 69.4707 1.49531 0.497807 0
M  V30 781 C 70.4007 1.6935 1.60757 0
M  V30 782 C 71.3817 0.542218 1.61227 0
M  V30 783 O 72.5667 0.778417 1.77917 0
M  V30 784 C 69.6967 1.76298 2.99226 0
M  V30 785 C 68.6507 2.91248 3.13622 0
M  V30 786 C 67.9767 2.83312 4.53474 0
M  V30 787 C 69.2767 4.3214 2.93346 0
M  V30 788 H 70.9707 2.62263 1.44425 0
M  V30 789 H 68.5167 1.26208 0.693367 0
M  V30 790 H 70.4697 1.88749 3.76765 0
M  V30 791 H 69.1937 0.799871 3.16654 0
M  V30 792 H 67.8527 2.78404 2.38509 0
M  V30 793 H 67.5007 1.84902 4.67782 0
M  V30 794 H 67.2007 3.60465 4.64046 0
M  V30 795 H 68.7247 2.97775 5.33069 0
M  V30 796 H 70.1387 4.45649 3.60652 0
M  V30 797 H 68.5357 5.1054 3.15387 0
M  V30 798 H 69.6057 4.46363 1.89441 0
M  V30 799 N 70.9488 -0.749086 1.3866 0
M  V30 800 C 71.8808 -1.87273 1.32142 0
M  V30 801 C 72.8938 -1.61127 0.232787 0
M  V30 802 O 74.0828 -1.71623 0.49069 0
M  V30 803 C 71.1828 -3.23005 1.02571 0
M  V30 804 C 70.3558 -3.7662 2.22433 0
M  V30 805 C 69.4148 -4.90879 1.89537 0
M  V30 806 O 68.4408 -5.05276 2.62078 0
M  V30 807 N 69.6428 -5.74198 0.853031 0
M  V30 808 H 72.4078 -1.93373 2.28969 0
M  V30 809 H 69.9688 -0.929216 1.32579 0
M  V30 810 H 71.9608 -3.96992 0.786085 0
M  V30 811 H 70.5308 -3.12262 0.145249 0
M  V30 812 H 69.7508 -2.94147 2.62434 0
M  V30 813 H 71.0388 -4.09173 3.02415 0
M  V30 814 H 70.4368 -5.6514 0.25155 0
M  V30 815 H 68.9938 -6.48313 0.67329 0
M  V30 816 N 72.4269 -1.23603 -0.977757 0
M  V30 817 C 73.3599 -0.962772 -2.06896 0
M  V30 818 C 74.3379 0.0998743 -1.62293 0
M  V30 819 O 75.5219 -0.0349421 -1.88468 0
M  V30 820 C 72.6489 -0.45095 -3.35685 0
M  V30 821 C 71.6949 -1.50061 -3.99229 0
M  V30 822 S 72.5279 -3.07884 -4.38142 0
M  V30 823 C 73.6839 -2.58378 -5.7008 0
M  V30 824 H 73.9169 -1.88677 -2.29757 0
M  V30 825 H 71.4499 -1.06876 -1.11431 0
M  V30 826 H 73.4079 -0.162261 -4.10179 0
M  V30 827 H 72.0689 0.452179 -3.10828 0
M  V30 828 H 71.2619 -1.09269 -4.92013 0
M  V30 829 H 70.8639 -1.73878 -3.31123 0
M  V30 830 H 73.1559 -2.00563 -6.47133 0
M  V30 831 H 74.0989 -3.49711 -6.15717 0
M  V30 832 H 74.5069 -1.99143 -5.28207 0
M  V30 833 N 73.905 1.17692 -1.04816 0
M  V30 834 C 75.133 1.91786 -0.776254 0
M  V30 835 C 75.548 1.76604 0.667577 0
M  V30 836 O 74.905 1.10067 1.45573 0
M  V30 837 C 74.956 3.42967 -1.14263 0
M  V30 838 O 74.677 3.57678 -2.52978 0
M  V30 839 C 76.178 4.34144 -0.896311 0
M  V30 840 H 73.398 0.608624 -0.282519 0
M  V30 841 H 75.942 1.49268 -1.39783 0
M  V30 842 H 74.097 3.83245 -0.565874 0
M  V30 843 H 74.511 4.51319 -2.67229 0
M  V30 844 H 75.985 5.38744 -1.20244 0
M  V30 845 H 76.462 4.38876 0.168636 0
M  V30 846 H 77.068 3.99574 -1.45672 0
M  V30 847 N 75.3831 0.828654 1.34056 0
M  V30 848 C 76.7991 0.515135 1.51058 0
M  V30 849 C 76.9991 -0.959581 1.77184 0
M  V30 850 O 76.0551 -1.74382 1.82612 0
M  V30 851 C 77.3681 1.37963 2.67183 0
M  V30 852 C 78.9161 1.37735 2.81066 0
M  V30 853 C 79.3911 2.22645 4.00241 0
M  V30 854 N 80.8821 2.203 4.07458 0
M  V30 855 C 81.6171 2.82744 4.98842 0
M  V30 856 N 81.1131 3.54201 5.9541 0
M  V30 857 N 82.9061 2.72268 4.91759 0
M  V30 858 H 75.0571 1.78343 1.15358 0
M  V30 859 H 77.3201 0.760304 0.566252 0
M  V30 860 H 77.0261 2.42714 2.54525 0
M  V30 861 H 76.9001 1.0484 3.62338 0
M  V30 862 H 79.2871 0.337593 2.93163 0
M  V30 863 H 79.3681 1.74859 1.86703 0
M  V30 864 H 79.0121 3.26674 3.88905 0
M  V30 865 H 78.9421 1.82869 4.93829 0
M  V30 866 H 81.4331 1.68327 3.38341 0
M  V30 867 H 81.7461 3.9908 6.61782 0
M  V30 868 H 80.0911 3.58308 5.95517 0
M  V30 869 H 83.2821 2.16014 4.15278 0
M  V30 870 H 83.4551 3.21219 5.62781 0
M  V30 871 N 76.8612 -1.46375 0.584142 0
M  V30 872 C 77.7932 -2.28443 -0.186119 0
M  V30 873 C 78.8062 -1.38596 -0.854115 0
M  V30 874 O 79.9952 -1.63183 -0.723438 0
M  V30 875 C 77.0952 -3.13671 -1.28311 0
M  V30 876 C 76.2682 -4.31652 -0.706758 0
M  V30 877 C 75.3272 -4.98267 -1.69163 0
M  V30 878 O 74.3532 -5.55815 -1.22712 0
M  V30 879 N 75.5552 -4.95408 -3.02575 0
M  V30 880 H 78.3202 -2.9519 0.517986 0
M  V30 881 H 75.8812 -1.56303 0.42201 0
M  V30 882 H 77.8732 -3.55101 -1.94128 0
M  V30 883 H 76.4432 -2.48989 -1.89005 0
M  V30 884 H 75.6632 -3.93989 0.128908 0
M  V30 885 H 76.9512 -5.07906 -0.301506 0
M  V30 886 H 76.3492 -4.49902 -3.42936 0
M  V30 887 H 74.9062 -5.40774 -3.63877 0
M  V30 888 N 78.3393 -0.321999 -1.54275 0
M  V30 889 C 79.2723 0.58718 -2.20516 0
M  V30 890 C 80.2503 1.11693 -1.18167 0
M  V30 891 O 81.4343 1.18122 -1.46899 0
M  V30 892 C 78.5613 1.80554 -2.86562 0
M  V30 893 C 77.6073 1.40718 -4.02617 0
M  V30 894 S 78.4403 0.445218 -5.33646 0
M  V30 895 C 79.5963 1.6709 -6.03185 0
M  V30 896 H 79.8293 0.0244875 -2.9729 0
M  V30 897 H 77.3623 -0.106087 -1.54035 0
M  V30 898 H 79.3203 2.50462 -3.25237 0
M  V30 899 H 77.9813 2.33942 -2.09595 0
M  V30 900 H 77.1743 2.31501 -4.47687 0
M  V30 901 H 76.7763 0.78782 -3.65608 0
M  V30 902 H 79.0683 2.60856 -6.25268 0
M  V30 903 H 80.0113 1.26239 -6.96756 0
M  V30 904 H 80.4193 1.85716 -5.33076 0
M  V30 905 N 79.8174 1.5752 -0.0501392 0
M  V30 906 C 80.7804 2.1037 0.909786 0
M  V30 907 C 81.7804 1.02308 1.24056 0
M  V30 908 O 82.9704 1.28385 1.17741 0
M  V30 909 C 80.1024 2.58708 2.21998 0
M  V30 910 H 81.2954 2.96479 0.451665 0
M  V30 911 H 78.8484 1.55038 0.198248 0
M  V30 912 H 79.5834 1.75989 2.72394 0
M  V30 913 H 79.3684 3.37675 1.99295 0
M  V30 914 H 80.8584 2.99747 2.9076 0
M  V30 915 N 81.2955 -0.223234 1.56011 0
M  V30 916 C 82.5205 -0.968978 1.83373 0
M  V30 917 C 82.9455 -1.77227 0.630254 0
M  V30 918 O 82.3035 -1.76345 -0.420959 0
M  V30 919 C 82.3515 -1.86363 3.08709 0
M  V30 920 O 81.4555 -2.95873 2.87285 0
M  V30 921 H 80.7965 -0.274461 0.604622 0
M  V30 922 H 83.3265 -0.237056 2.03222 0
M  V30 923 H 83.3365 -2.27376 3.38768 0
M  V30 924 H 82.0115 -1.27319 3.95933 0
M  V30 925 H 80.5885 -2.58818 2.68454 0
M  V30 926 N 82.7736 -1.49793 -0.48987 0
M  V30 927 C 83.9986 -1.63836 -1.27172 0
M  V30 928 C 84.4236 -0.31402 -1.8546 0
M  V30 929 O 83.7816 0.719803 -1.66399 0
M  V30 930 C 83.8296 -2.71797 -2.36978 0
M  V30 931 O 82.9336 -2.31744 -3.41128 0
M  V30 932 H 82.2746 -0.547997 -0.37496 0
M  V30 933 H 84.8046 -1.96053 -0.585191 0
M  V30 934 H 84.8146 -2.94305 -2.82575 0
M  V30 935 H 83.4896 -3.67923 -1.93921 0
M  V30 936 H 82.0666 -2.1961 -3.01373 0
M  V30 937 N 84.2517 0.741722 -1.39055 0
M  V30 938 C 85.4997 1.49818 -1.35643 0
M  V30 939 C 85.8207 1.94938 0.0491642 0
M  V30 940 O 85.0907 1.68505 0.999141 0
M  V30 941 H 83.6707 0.555755 -0.499144 0
M  V30 942 H 86.3327 0.880957 -1.73854 0
M  V30 943 H 85.4287 2.38348 -2.01486 0
M  V30 944 N 85.7298 1.2412 0.971189 0
M  V30 945 C 86.6928 1.03156 2.04674 0
M  V30 946 C 87.6928 -0.00990322 1.60797 0
M  V30 947 O 88.8828 0.230729 1.72665 0
M  V30 948 C 86.0148 0.562765 3.36223 0
M  V30 949 H 87.2078 1.98614 2.24705 0
M  V30 950 H 84.7608 1.06293 1.14593 0
M  V30 951 H 85.4958 -0.395176 3.21883 0
M  V30 952 H 85.2808 1.31441 3.69413 0
M  V30 953 H 86.7708 0.437015 4.15307 0
M  V30 954 N 87.2079 -1.17134 1.05439 0
M  V30 955 C 88.4329 -1.91913 0.786396 0
M  V30 956 C 88.8579 -1.7643 -0.652234 0
M  V30 957 O 88.2159 -1.08372 -1.45345 0
M  V30 958 C 88.2639 -3.40921 1.17497 0
M  V30 959 O 87.3679 -4.11244 0.308589 0
M  V30 960 H 86.7089 -0.598215 0.288158 0
M  V30 961 H 89.2389 -1.48457 1.4079 0
M  V30 962 H 89.2489 -3.91668 1.14281 0
M  V30 963 H 87.9239 -3.5151 2.22292 0
M  V30 964 H 86.5009 -3.70731 0.40157 0
M  V30 965 N 88.686 -0.835752 -1.33615 0
M  V30 966 C 89.934 -0.429109 -1.97492 0
M  V30 967 C 90.255 1.01433 -1.66543 0
M  V30 968 O 89.525 1.70611 -0.962744 0
M  V30 969 H 88.105 -0.155686 -0.730596 0
M  V30 970 H 90.767 -1.06802 -1.63031 0
M  V30 971 H 89.863 -0.55861 -3.0706 0
M  V30 972 N 90.1641 1.46063 -0.591896 0
M  V30 973 C 91.4121 2.01938 -0.0808391 0
M  V30 974 C 91.7331 1.46475 1.28725 0
M  V30 975 O 91.0031 0.652944 1.84698 0
M  V30 976 H 89.5831 0.746516 -0.0268938 0
M  V30 977 H 92.2451 1.79055 -0.769752 0
M  V30 978 H 91.3411 3.12094 -0.0187578 0
M  V30 979 N 91.6422 0.330177 1.54103 0
M  V30 980 C 92.5892 -0.532762 2.24567 0
M  V30 981 C 93.5592 -1.10635 1.23892 0
M  V30 982 O 94.7442 -1.14546 1.5259 0
M  V30 983 C 91.8842 -1.6845 3.01195 0
M  V30 984 C 90.9972 -1.13951 4.167 0
M  V30 985 C 90.1322 -2.25746 4.80845 0
M  V30 986 C 89.1712 -1.6853 5.88442 0
M  V30 987 N 88.3082 -2.74014 6.46421 0
M  V30 988 H 93.1482 0.0746905 2.97906 0
M  V30 989 H 90.6852 0.048632 1.4702 0
M  V30 990 H 92.6432 -2.36234 3.43874 0
M  V30 991 H 91.2732 -2.26314 2.30178 0
M  V30 992 H 90.3252 -0.35301 3.78758 0
M  V30 993 H 91.6372 -0.680892 4.94131 0
M  V30 994 H 90.7912 -3.01422 5.26526 0
M  V30 995 H 89.5302 -2.74947 4.0281 0
M  V30 996 H 88.5352 -0.913543 5.42157 0
M  V30 997 H 89.7602 -1.20198 6.68378 0
M  V30 998 H 87.7062 -3.22494 5.71256 0
M  V30 999 H 87.6232 -2.32735 7.19285 0
M  V30 1000 H 88.8912 -3.49499 6.96757 0
M  V30 1001 N 93.1203 -1.57491 0.0584922 0
M  V30 1002 C 94.3693 -1.92155 -0.613146 0
M  V30 1003 C 94.6823 -0.939334 -1.71569 0
M  V30 1004 O 95.8883 -1.17829 -2.44599 0
M  V30 1005 C 94.3443 -3.41303 -1.14195 0
M  V30 1006 C 93.9523 -4.47944 -0.0711265 0
M  V30 1007 C 95.6963 -3.84988 -1.78841 0
M  V30 1008 C 93.6033 -5.88212 -0.613225 0
M  V30 1009 H 92.5333 -0.717162 -0.232796 0
M  V30 1010 H 95.1843 -1.83049 0.12857 0
M  V30 1011 H 93.5663 -3.45437 -1.93621 0
M  V30 1012 H 94.7403 -4.55408 0.702836 0
M  V30 1013 H 93.0553 -4.13644 0.478313 0
M  V30 1014 H 95.6523 -4.87159 -2.20408 0
M  V30 1015 H 95.9953 -3.21632 -2.64308 0
M  V30 1016 H 96.5283 -3.83401 -1.06059 0
M  V30 1017 H 93.2673 -6.55183 0.203978 0
M  V30 1018 H 92.7873 -5.84294 -1.35501 0
M  V30 1019 H 94.4663 -6.37687 -1.09383 0
M  V30 1020 N 94.5984 0.214957 -1.56127 0
M  V30 1021 C 95.8754 0.963093 -1.70247 0
M  V30 1022 C 96.2554 2.02166 -0.60764 0
M  V30 1023 O 95.6034 2.25244 0.384385 0
M  V30 1024 C 95.8134 1.56756 -3.11815 0
M  V30 1025 C 97.1614 2.0573 -3.7143 0
M  V30 1026 O 98.1854 1.66637 -3.14818 0
M  V30 1027 O 97.0444 2.77603 -4.70743 0
M  V30 1028 H 94.1384 0.450321 -0.693643 0
M  V30 1029 H 96.6844 0.206219 -1.68442 0
M  V30 1030 H 95.4564 0.803533 -3.82961 0
M  V30 1031 H 95.0794 2.3898 -3.17765 0
M  V30 1032 N 96.0765 1.50051 0.48192 0
M  V30 1033 C 97.0245 1.68635 1.60203 0
M  V30 1034 C 98.0185 0.552184 1.60148 0
M  V30 1035 O 99.2245 0.732377 1.64427 0
M  V30 1036 H 95.5995 0.532081 0.531407 0
M  V30 1037 H 97.5705 2.62616 1.41688 0
M  V30 1038 C 96.3195 1.78775 2.9822 0
M  V30 1039 H 95.6425 2.6543 2.98976 0
M  V30 1040 H 97.0825 1.95806 3.7608 0
M  V30 1041 C 95.5415 0.536849 3.32595 0
M  V30 1042 O 96.0715 -0.328897 4.00351 0
M  V30 1043 N 94.2775 0.394091 2.87915 0
M  V30 1044 H 93.8245 1.09962 2.32951 0
M  V30 1045 H 93.7825 -0.441737 3.11281 0
M  V30 1046 N 97.5546 -0.734337 1.39446 0
M  V30 1047 C 98.7796 -1.52866 1.40167 0
M  V30 1048 C 99.2046 -1.881 -0.00171513 0
M  V30 1049 O 98.5626 -1.51957 -0.988879 0
M  V30 1050 C 98.6106 -2.79235 2.28167 0
M  V30 1051 O 97.7146 -3.75185 1.71201 0
M  V30 1052 H 97.0556 -0.461618 0.477289 0
M  V30 1053 H 99.5856 -0.905949 1.8345 0
M  V30 1054 H 99.5956 -3.27963 2.42702 0
M  V30 1055 H 98.2706 -2.52923 3.30156 0
M  V30 1056 H 96.8476 -3.33958 1.65912 0
M  V30 1057 N 99.0327 -1.24633 -0.964593 0
M  V30 1058 C 100.279 -1.08949 -1.71049 0
M  V30 1059 C 100.612 0.370302 -1.90637 0
M  V30 1060 O 99.8867 1.27349 -1.47011 0
M  V30 1061 C 100.17 -1.83329 -3.0994 0
M  V30 1062 C 100.023 -3.37077 -2.97824 0
M  V30 1063 C 101.342 -1.60846 -4.09654 0
M  V30 1064 H 98.4607 -0.397178 -0.620821 0
M  V30 1065 H 101.103 -1.5334 -1.12191 0
M  V30 1066 H 99.2527 -1.45597 -3.60186 0
M  V30 1067 H 100.925 -3.84425 -2.5498 0
M  V30 1068 H 99.1677 -3.65298 -2.33965 0
M  V30 1069 H 99.8387 -3.84324 -3.96231 0
M  V30 1070 H 102.315 -1.93674 -3.68279 0
M  V30 1071 H 101.191 -2.1534 -5.04896 0
M  V30 1072 H 101.452 -0.547434 -4.38698 0
M  V30 1073 N 100.511 1.16574 -1.06058 0
M  V30 1074 C 101.441 2.23057 -0.690488 0
M  V30 1075 C 102.422 1.67141 0.315901 0
M  V30 1076 O 103.607 1.93253 0.191556 0
M  V30 1077 C 100.737 3.47222 -0.073625 0
M  V30 1078 C 99.6908 4.16016 -1.00573 0
M  V30 1079 C 99.0168 5.34104 -0.252289 0
M  V30 1080 C 100.317 4.67264 -2.33371 0
M  V30 1081 H 102.011 2.54271 -1.58072 0
M  V30 1082 H 99.5568 1.22218 -0.76149 0
M  V30 1083 H 101.51 4.20939 0.19714 0
M  V30 1084 H 100.234 3.15302 0.85161 0
M  V30 1085 H 98.8928 3.44223 -1.2612 0
M  V30 1086 H 98.5408 4.98437 0.675988 0
M  V30 1087 H 98.2408 5.81072 -0.873455 0
M  V30 1088 H 99.7648 6.10599 0.0109857 0
M  V30 1089 H 101.179 5.32573 -2.12223 0
M  V30 1090 H 99.5758 5.24843 -2.90963 0
M  V30 1091 H 100.646 3.83602 -2.96611 0
M  V30 1092 N 101.989 0.842826 1.3317 0
M  V30 1093 C 103.235 0.441099 1.97945 0
M  V30 1094 C 103.568 -0.998024 1.66593 0
M  V30 1095 O 102.843 -1.69839 0.947898 0
M  V30 1096 C 103.126 0.666841 3.53872 0
M  V30 1097 C 102.979 2.15352 3.94897 0
M  V30 1098 C 104.298 0.115544 4.39948 0
M  V30 1099 H 101.417 0.161739 0.719034 0
M  V30 1100 H 104.059 1.05907 1.57746 0
M  V30 1101 H 102.209 0.140828 3.88245 0
M  V30 1102 H 103.881 2.7447 3.70761 0
M  V30 1103 H 102.124 2.63653 3.44484 0
M  V30 1104 H 102.795 2.26221 5.03516 0
M  V30 1105 H 105.271 0.565213 4.12243 0
M  V30 1106 H 104.147 0.303152 5.48062 0
M  V30 1107 H 104.408 -0.980935 4.3108 0
M  V30 1108 N 103.467 -1.45747 0.599634 0
M  V30 1109 C 104.397 -2.33235 -0.111306 0
M  V30 1110 C 105.378 -1.46359 -0.866781 0
M  V30 1111 O 106.563 -1.75146 -0.838904 0
M  V30 1112 C 103.693 -3.28932 -1.11451 0
M  V30 1113 C 102.647 -4.25381 -0.472772 0
M  V30 1114 C 101.973 -5.1071 -1.58365 0
M  V30 1115 C 103.273 -5.18831 0.600948 0
M  V30 1116 H 104.967 -2.92927 0.61919 0
M  V30 1117 H 102.513 -1.40857 0.299215 0
M  V30 1118 H 104.466 -3.89002 -1.62036 0
M  V30 1119 H 103.19 -2.67381 -1.8755 0
M  V30 1120 H 101.849 -3.66598 0.0121472 0
M  V30 1121 H 101.497 -4.45533 -2.33473 0
M  V30 1122 H 101.197 -5.7604 -1.15982 0
M  V30 1123 H 102.721 -5.73647 -2.09194 0
M  V30 1124 H 104.135 -5.73019 0.179491 0
M  V30 1125 H 102.532 -5.92595 0.946076 0
M  V30 1126 H 103.602 -4.6174 1.48068 0
M  V30 1127 N 104.945 -0.338344 -1.53925 0
M  V30 1128 C 106.194 0.260732 -2.00008 0
M  V30 1129 C 106.507 1.52073 -1.23017 0
M  V30 1130 O 107.713 2.19672 -1.5955 0
M  V30 1131 C 106.169 0.51515 -3.56194 0
M  V30 1132 C 105.777 -0.728645 -4.42035 0
M  V30 1133 C 107.521 1.07337 -4.10706 0
M  V30 1134 C 105.428 -0.445315 -5.89721 0
M  V30 1135 H 104.358 0.101205 -0.747177 0
M  V30 1136 H 107.009 -0.452866 -1.77824 0
M  V30 1137 H 105.391 1.28932 -3.74423 0
M  V30 1138 H 106.565 -1.50352 -4.35581 0
M  V30 1139 H 104.88 -1.20813 -3.98489 0
M  V30 1140 H 107.477 1.30022 -5.18651 0
M  V30 1141 H 107.82 2.0273 -3.63602 0
M  V30 1142 H 108.353 0.360034 -3.96167 0
M  V30 1143 H 105.092 -1.36883 -6.41049 0
M  V30 1144 H 104.612 0.291569 -5.99091 0
M  V30 1145 H 106.291 -0.0606218 -6.46972 0
M  V30 1146 N 106.423 1.57458 -0.0668435 0
M  V30 1147 C 107.669 1.93587 0.6043 0
M  V30 1148 C 108.002 0.946722 1.69561 0
M  V30 1149 O 107.277 -0.0248516 1.94484 0
M  V30 1150 C 107.56 3.40014 1.18585 0
M  V30 1151 C 107.413 4.49685 0.101529 0
M  V30 1152 C 108.732 3.87154 2.09284 0
M  V30 1153 H 105.851 0.703958 0.218202 0
M  V30 1154 H 108.493 1.89542 -0.131804 0
M  V30 1155 H 106.643 3.43592 1.81319 0
M  V30 1156 H 108.315 4.5823 -0.531279 0
M  V30 1157 H 106.558 4.30059 -0.568487 0
M  V30 1158 H 107.229 5.49266 0.54874 0
M  V30 1159 H 109.705 3.85551 1.56491 0
M  V30 1160 H 108.581 4.90231 2.46911 0
M  V30 1161 H 108.842 3.2481 2.99918 0
M  V30 1162 N 107.901 -0.206675 1.56239 0
M  V30 1163 C 109.149 -0.927007 1.79586 0
M  V30 1164 C 109.47 -1.8427 0.637929 0
M  V30 1165 O 108.74 -1.92849 -0.344398 0
M  V30 1166 H 107.32 -0.345292 0.662407 0
M  V30 1167 H 109.982 -0.21496 1.93711 0
M  V30 1168 H 109.078 -1.52501 2.72305 0
M  V30 1169 N 109.379 -1.50304 -0.473955 0
M  V30 1170 C 110.309 -1.71886 -1.58042 0
M  V30 1171 C 111.29 -0.567799 -1.60344 0
M  V30 1172 O 112.475 -0.806623 -1.76656 0
M  V30 1173 C 109.605 -1.81036 -2.96384 0
M  V30 1174 C 108.559 -2.962 -3.08949 0
M  V30 1175 C 107.885 -2.9049 -4.48909 0
M  V30 1176 C 109.185 -4.36752 -2.86434 0
M  V30 1177 H 110.879 -2.64527 -1.40234 0
M  V30 1178 H 108.425 -1.27295 -0.673201 0
M  V30 1179 H 110.378 -1.94719 -3.73714 0
M  V30 1180 H 109.102 -0.850147 -3.15341 0
M  V30 1181 H 107.761 -2.82164 -2.3405 0
M  V30 1182 H 107.409 -1.92321 -4.64781 0
M  V30 1183 H 107.109 -3.67802 -4.58253 0
M  V30 1184 H 108.633 -3.06218 -5.28264 0
M  V30 1185 H 110.047 -4.5133 -3.53517 0
M  V30 1186 H 108.444 -5.15493 -3.07225 0
M  V30 1187 H 109.514 -4.49321 -1.82316 0
M  V30 1188 N 110.857 0.726932 -1.39834 0
M  V30 1189 C 112.082 1.52121 -1.40976 0
M  V30 1190 C 112.507 1.88098 -0.00826029 0
M  V30 1191 O 111.865 1.52479 0.980807 0
M  V30 1192 C 111.913 2.78021 -2.29644 0
M  V30 1193 O 111.017 3.74272 -1.73188 0
M  V30 1194 H 110.358 0.45908 -0.479731 0
M  V30 1195 H 112.888 0.896207 -1.83927 0
M  V30 1196 H 112.898 3.26671 -2.44438 0
M  V30 1197 H 111.573 2.51169 -3.31492 0
M  V30 1198 H 110.15 3.33073 -1.6768 0
M  V30 1199 N 112.336 1.25143 0.95797 0
M  V30 1200 C 113.564 1.12424 1.73691 0
M  V30 1201 C 113.979 -0.322304 1.86029 0
M  V30 1202 O 113.336 -1.22186 1.35561 0
M  V30 1203 C 113.387 1.76933 3.15241 0
M  V30 1204 O 113.108 3.15932 3.03511 0
M  V30 1205 C 114.609 1.6995 4.09429 0
M  V30 1206 H 111.829 0.3923 0.544373 0
M  V30 1207 H 114.373 1.6544 1.20207 0
M  V30 1208 H 112.528 1.27895 3.6568 0
M  V30 1209 H 112.942 3.47598 3.9278 0
M  V30 1210 H 114.416 2.19753 5.06372 0
M  V30 1211 H 114.893 0.662619 4.34173 0
M  V30 1212 H 115.499 2.18461 3.64904 0
M  V30 1213 N 113.814 -1.1601 1.06675 0
M  V30 1214 C 115.06 -1.86909 0.786945 0
M  V30 1215 C 115.393 -1.81717 -0.685018 0
M  V30 1216 O 114.668 -1.23551 -1.50218 0
M  V30 1217 C 114.951 -3.36313 1.28707 0
M  V30 1218 C 114.804 -3.50175 2.82308 0
M  V30 1219 C 116.123 -4.3084 0.898071 0
M  V30 1220 H 113.242 -0.678677 0.287343 0
M  V30 1221 H 115.884 -1.36336 1.32334 0
M  V30 1222 H 114.034 -3.79513 0.830768 0
M  V30 1223 H 115.706 -3.15886 3.36175 0
M  V30 1224 H 113.949 -2.91959 3.20847 0
M  V30 1225 H 114.62 -4.55116 3.12368 0
M  V30 1226 H 117.096 -3.95561 1.29114 0
M  V30 1227 H 115.972 -5.33876 1.27543 0
M  V30 1228 H 116.233 -4.41662 -0.196651 0
M  V30 1229 N 115.292 -0.849877 -1.32721 0
M  V30 1230 C 116.54 -0.450032 -1.97026 0
M  V30 1231 C 116.861 0.996604 -1.67609 0
M  V30 1232 O 116.131 1.6958 -0.980786 0
M  V30 1233 H 114.711 -0.163426 -0.728904 0
M  V30 1234 H 117.373 -1.08526 -1.6189 0
M  V30 1235 H 116.469 -0.591146 -3.0645 0
M  V30 1236 N 116.77 1.45427 -0.607355 0
M  V30 1237 C 117.733 2.28974 0.101693 0
M  V30 1238 C 118.733 1.39754 0.795329 0
M  V30 1239 O 119.923 1.61878 0.643527 0
M  V30 1240 C 117.055 3.20768 1.15414 0
M  V30 1241 H 118.248 2.93147 -0.632844 0
M  V30 1242 H 115.801 1.51945 -0.366391 0
M  V30 1243 H 116.536 2.61395 1.91945 0
M  V30 1244 H 116.321 3.86489 0.66098 0
M  V30 1245 H 117.811 3.83589 1.65073 0
M  V30 1246 N 118.248 0.346503 1.53744 0
M  V30 1247 C 119.496 -0.248612 2.00565 0
M  V30 1248 C 119.817 -1.5083 1.23593 0
M  V30 1249 O 119.087 -1.92858 0.343912 0
M  V30 1250 H 117.667 -0.0948564 0.740953 0
M  V30 1251 H 120.329 0.468341 1.89189 0
M  V30 1252 H 119.425 -0.488994 3.08245 0
M  V30 1253 N 119.726 -1.57421 0.075193 0
M  V30 1254 C 120.689 -2.11791 -0.876203 0
M  V30 1255 C 121.689 -1.04268 -1.22412 0
M  V30 1256 O 122.879 -1.30242 -1.15684 0
M  V30 1257 C 120.011 -2.62207 -2.17854 0
M  V30 1258 H 121.204 -2.9716 -0.40444 0
M  V30 1259 H 118.757 -1.55333 -0.173557 0
M  V30 1260 H 119.492 -1.803 -2.6956 0
M  V30 1261 H 119.277 -3.40802 -1.93897 0
M  V30 1262 H 120.767 -3.04335 -2.85955 0
M  V30 1263 N 121.204 0.198386 -1.56346 0
M  V30 1264 C 122.434 0.934215 -1.84271 0
M  V30 1265 C 122.842 1.77496 -0.655125 0
M  V30 1266 O 122.185 1.7961 0.385488 0
M  V30 1267 C 122.247 1.88278 -3.06254 0
M  V30 1268 C 121.911 1.22431 -4.40295 0
M  V30 1269 C 122.908 0.602839 -5.16393 0
M  V30 1270 C 120.593 1.22915 -4.87029 0
M  V30 1271 C 122.587 -0.0050083 -6.374 0
M  V30 1272 C 120.274 0.617465 -6.07973 0
M  V30 1273 C 121.272 0.00146341 -6.83 0
M  V30 1274 O 120.96 -0.600642 -8.01653 0
M  V30 1275 H 120.692 0.278245 -0.616081 0
M  V30 1276 H 123.246 0.211626 -2.04307 0
M  V30 1277 H 121.476 2.64498 -2.82095 0
M  V30 1278 H 123.165 2.48612 -3.20853 0
M  V30 1279 H 123.931 0.591265 -4.81382 0
M  V30 1280 H 119.81 1.69801 -4.28589 0
M  V30 1281 H 123.354 -0.48643 -6.95902 0
M  V30 1282 H 119.251 0.62653 -6.42452 0
M  V30 1283 H 120.019 -0.497225 -8.16988 0
M  V30 1284 N 122.682 1.50554 0.465978 0
M  V30 1285 C 123.645 1.69233 1.54574 0
M  V30 1286 C 124.645 0.562901 1.50626 0
M  V30 1287 O 125.835 0.830016 1.53155 0
M  V30 1288 C 122.967 1.7223 2.94193 0
M  V30 1289 H 124.16 2.65571 1.39327 0
M  V30 1290 H 121.713 1.40111 0.692711 0
M  V30 1291 H 122.448 0.77603 3.14878 0
M  V30 1292 H 122.233 2.54285 2.98466 0
M  V30 1293 H 123.723 1.88618 3.72576 0
M  V30 1294 N 124.16 -0.719506 1.40217 0
M  V30 1295 C 125.39 -1.50646 1.41384 0
M  V30 1296 C 125.798 -1.89197 0.0107743 0
M  V30 1297 O 125.141 -1.55709 -0.974708 0
M  V30 1298 C 125.203 -2.81405 2.23722 0
M  V30 1299 C 124.867 -2.65199 3.72181 0
M  V30 1300 C 125.864 -2.32717 4.64907 0
M  V30 1301 C 123.549 -2.81586 4.1595 0
M  V30 1302 C 125.543 -2.16827 5.99387 0
M  V30 1303 C 123.23 -2.65313 5.50502 0
M  V30 1304 C 124.228 -2.32981 6.42035 0
M  V30 1305 O 123.916 -2.16827 7.74107 0
M  V30 1306 H 123.648 -0.471606 0.484318 0
M  V30 1307 H 126.202 -0.895456 1.84853 0
M  V30 1308 H 124.432 -3.44823 1.75026 0
M  V30 1309 H 126.121 -3.43102 2.16878 0
M  V30 1310 H 126.887 -2.19694 4.32388 0
M  V30 1311 H 122.766 -3.0574 3.45027 0
M  V30 1312 H 126.31 -1.91513 6.70797 0
M  V30 1313 H 122.207 -2.7792 5.82607 0
M  V30 1314 H 122.975 -2.31778 7.84998 0
M  V30 1315 N 125.638 -1.25649 -0.95132 0
M  V30 1316 C 126.585 -1.06323 -2.04851 0
M  V30 1317 C 127.555 0.0286491 -1.66075 0
M  V30 1318 O 128.74 -0.12917 -1.90362 0
M  V30 1319 C 125.88 -0.691529 -3.381 0
M  V30 1320 C 124.993 -1.85861 -3.89974 0
M  V30 1321 C 124.128 -1.43096 -5.11563 0
M  V30 1322 C 123.167 -2.56696 -5.55674 0
M  V30 1323 N 122.304 -2.14684 -6.68472 0
M  V30 1324 H 127.144 -2.00222 -2.20715 0
M  V30 1325 H 124.681 -0.997027 -1.08156 0
M  V30 1326 H 126.639 -0.456963 -4.1469 0
M  V30 1327 H 125.269 0.210474 -3.22113 0
M  V30 1328 H 124.321 -2.20639 -3.09875 0
M  V30 1329 H 125.633 -2.71161 -4.18657 0
M  V30 1330 H 124.787 -1.15624 -5.9558 0
M  V30 1331 H 123.526 -0.548722 -4.84603 0
M  V30 1332 H 122.531 -2.84909 -4.7022 0
M  V30 1333 H 123.756 -3.45503 -5.8464 0
M  V30 1334 H 121.702 -1.28881 -6.43215 0
M  V30 1335 H 121.619 -2.9353 -6.96689 0
M  V30 1336 H 122.887 -1.90397 -7.5589 0
M  V30 1337 N 127.117 1.15442 -1.07289 0
M  V30 1338 C 128.345 1.90096 -0.81676 0
M  V30 1339 C 128.76 1.7798 0.629966 0
M  V30 1340 O 128.117 1.1313 1.43206 0
M  V30 1341 C 128.168 3.40466 -1.21512 0
M  V30 1342 O 127.889 3.52232 -2.60508 0
M  V30 1343 C 129.39 4.32145 -0.988198 0
M  V30 1344 H 126.61 0.602495 -0.295366 0
M  V30 1345 H 129.154 1.4627 -1.42918 0
M  V30 1346 H 127.309 3.81958 -0.647039 0
M  V30 1347 H 127.723 4.45549 -2.76742 0
M  V30 1348 H 129.197 5.36072 -1.31645 0
M  V30 1349 H 129.674 4.39135 0.0755063 0
M  V30 1350 H 130.28 3.96395 -1.54115 0
M  V30 1351 N 128.595 0.856903 1.32268 0
M  V30 1352 C 129.528 0.247937 2.26849 0
M  V30 1353 C 130.506 -0.615382 1.50505 0
M  V30 1354 O 131.69 -0.571689 1.79622 0
M  V30 1355 C 128.817 -0.650093 3.32403 0
M  V30 1356 C 127.863 0.140138 4.2627 0
M  V30 1357 S 128.696 1.51004 5.13769 0
M  V30 1358 C 129.852 0.61778 6.22844 0
M  V30 1359 H 130.085 1.04971 2.78152 0
M  V30 1360 H 127.618 0.654665 1.39834 0
M  V30 1361 H 129.576 -1.16256 3.93694 0
M  V30 1362 H 128.237 -1.4257 2.7988 0
M  V30 1363 H 127.43 -0.543945 5.01056 0
M  V30 1364 H 127.032 0.584267 3.69408 0
M  V30 1365 H 129.324 -0.177053 6.77269 0
M  V30 1366 H 130.267 1.33636 6.95375 0
M  V30 1367 H 130.675 0.191124 5.64176 0
M  V30 1368 N 130.073 -1.45103 0.615059 0
M  V30 1369 C 131.02 -2.30586 -0.0993978 0
M  V30 1370 C 131.99 -1.42544 -0.852669 0
M  V30 1371 O 133.175 -1.71465 -0.836917 0
M  V30 1372 C 130.315 -3.27572 -1.08583 0
M  V30 1373 C 129.428 -4.30717 -0.332656 0
M  V30 1374 C 128.563 -5.14807 -1.30947 0
M  V30 1375 C 127.602 -6.09673 -0.544538 0
M  V30 1376 N 126.739 -6.86517 -1.47101 0
M  V30 1377 H 131.579 -2.91144 0.635542 0
M  V30 1378 H 129.116 -1.4346 0.325206 0
M  V30 1379 H 131.074 -3.82276 -1.67095 0
M  V30 1380 H 129.704 -2.68751 -1.78809 0
M  V30 1381 H 128.756 -3.78615 0.368107 0
M  V30 1382 H 130.068 -4.98102 0.263842 0
M  V30 1383 H 129.222 -5.73948 -1.96643 0
M  V30 1384 H 127.961 -4.47458 -1.9399 0
M  V30 1385 H 126.966 -5.49656 0.126003 0
M  V30 1386 H 128.191 -6.79052 0.080947 0
M  V30 1387 H 126.137 -6.21851 -2.08895 0
M  V30 1388 H 126.054 -7.50281 -0.928137 0
M  V30 1389 H 127.322 -7.50194 -2.11731 0
M  V30 1390 N 131.551 -0.354651 -1.53558 0
M  V30 1391 C 132.461 0.50515 -2.29097 0
M  V30 1392 C 133.477 1.10223 -1.34636 0
M  V30 1393 O 134.653 1.11553 -1.67684 0
M  V30 1394 C 131.718 1.63479 -3.05738 0
M  V30 1395 C 130.779 1.06636 -4.15845 0
M  V30 1396 C 130.012 2.14217 -4.88822 0
M  V30 1397 O 130.235 3.35137 -4.61562 0
M  V30 1398 O 129.169 1.77887 -5.75013 0
M  V30 1399 H 132.995 -0.109237 -3.03503 0
M  V30 1400 H 130.58 -0.119357 -1.48922 0
M  V30 1401 H 132.462 2.2918 -3.5363 0
M  V30 1402 H 131.137 2.23478 -2.34178 0
M  V30 1403 H 130.044 0.373565 -3.7223 0
M  V30 1404 H 131.377 0.511081 -4.89539 0
M  V30 1405 N 133.029 1.57378 -0.0835403 0
M  V30 1406 C 134.306 1.85363 0.624507 0
M  V30 1407 C 134.686 0.978239 1.87066 0
M  V30 1408 O 134.034 0.0475908 2.2845 0
M  V30 1409 C 134.244 3.35795 0.950947 0
M  V30 1410 C 135.592 4.03581 1.31939 0
M  V30 1411 O 136.616 3.40609 1.04232 0
M  V30 1412 O 135.475 5.14672 1.83779 0
M  V30 1413 H 132.569 0.766162 0.311329 0
M  V30 1414 H 135.115 1.69307 -0.115362 0
M  V30 1415 H 133.887 3.91244 0.0663899 0
M  V30 1416 H 133.51 3.57154 1.74719 0
M  V30 1417 N 134.507 -0.190092 1.56449 0
M  V30 1418 C 135.417 -1.25591 1.98152 0
M  V30 1419 C 136.433 -1.49519 0.889944 0
M  V30 1420 O 137.609 -1.62036 1.19609 0
M  V30 1421 C 134.674 -2.57916 2.3169 0
M  V30 1422 C 133.735 -2.42015 3.5458 0
M  V30 1423 C 132.968 -3.6803 3.8651 0
M  V30 1424 O 133.191 -4.72413 3.1966 0
M  V30 1425 O 132.125 -3.6326 4.79923 0
M  V30 1426 H 135.951 -0.931988 2.89046 0
M  V30 1427 H 133.536 -0.395488 1.4407 0
M  V30 1428 H 135.418 -3.36008 2.54316 0
M  V30 1429 H 134.093 -2.89925 1.43963 0
M  V30 1430 H 133 -1.62017 3.37196 0
M  V30 1431 H 134.333 -2.14937 4.4279 0
M  V30 1432 N 135.985 -1.50799 -0.457987 0
M  V30 1433 C 136.932 -1.70617 -1.5543 0
M  V30 1434 C 137.902 -0.547562 -1.56815 0
M  V30 1435 O 139.087 -0.779647 -1.74144 0
M  V30 1436 C 136.227 -1.81831 -2.93311 0
M  V30 1437 C 135.34 -3.09278 -3.01615 0
M  V30 1438 C 134.475 -3.11209 -4.30491 0
M  V30 1439 C 133.514 -4.33055 -4.32585 0
M  V30 1440 N 132.651 -4.32652 -5.52952 0
M  V30 1441 H 137.491 -2.64207 -1.37836 0
M  V30 1442 H 135.028 -1.30959 -0.669937 0
M  V30 1443 H 136.986 -1.86314 -3.73287 0
M  V30 1444 H 135.616 -0.916685 -3.0951 0
M  V30 1445 H 134.668 -3.14203 -2.1443 0
M  V30 1446 H 135.98 -3.99233 -2.99022 0
M  V30 1447 H 135.134 -3.14494 -5.18824 0
M  V30 1448 H 133.873 -2.19106 -4.35711 0
M  V30 1449 H 132.878 -4.29969 -3.42647 0
M  V30 1450 H 134.103 -5.264 -4.29046 0
M  V30 1451 H 132.049 -3.43409 -5.58933 0
M  V30 1452 H 131.966 -5.16392 -5.52155 0
M  V30 1453 H 133.234 -4.40101 -6.43375 0
M  V30 1454 N 137.463 0.71206 -1.40597 0
M  V30 1455 C 138.879 1.02058 -1.22704 0
M  V30 1456 C 139.079 2.01228 -0.104729 0
M  V30 1457 O 138.135 2.4674 0.53624 0
M  V30 1458 C 139.448 1.56094 -2.57012 0
M  V30 1459 C 140.996 1.6806 -2.64054 0
M  V30 1460 C 141.471 2.25501 -3.9864 0
M  V30 1461 N 142.962 2.32882 -4.004 0
M  V30 1462 C 143.697 2.78317 -5.01325 0
M  V30 1463 N 143.193 3.23478 -6.12645 0
M  V30 1464 N 144.986 2.77733 -4.88693 0
M  V30 1465 H 137.137 0.0547896 -2.12329 0
M  V30 1466 H 139.4 0.0869027 -0.944008 0
M  V30 1467 H 139.106 0.906865 -3.39807 0
M  V30 1468 H 138.98 2.54564 -2.78347 0
M  V30 1469 H 141.367 2.32583 -1.81629 0
M  V30 1470 H 141.448 0.681802 -2.46546 0
M  V30 1471 H 141.092 1.61598 -4.81506 0
M  V30 1472 H 141.022 3.26102 -4.13479 0
M  V30 1473 H 143.513 2.00991 -3.20017 0
M  V30 1474 H 143.826 3.56725 -6.85542 0
M  V30 1475 H 142.171 3.21429 -6.16205 0
M  V30 1476 H 145.362 2.4179 -4.00818 0
M  V30 1477 H 145.535 3.12826 -5.67489 0
M  V30 1478 N 138.941 1.26152 0.944643 0
M  V30 1479 C 140.171 1.14094 1.72239 0
M  V30 1480 C 140.579 -0.306931 1.86694 0
M  V30 1481 O 139.922 -1.22222 1.3714 0
M  V30 1482 C 139.984 1.73316 3.14963 0
M  V30 1483 C 139.648 3.2239 3.23904 0
M  V30 1484 C 140.645 4.19252 3.07447 0
M  V30 1485 C 138.33 3.62788 3.47405 0
M  V30 1486 C 140.324 5.54491 3.14353 0
M  V30 1487 C 138.011 4.98162 3.53947 0
M  V30 1488 C 139.009 5.93823 3.37436 0
M  V30 1489 O 138.697 7.26732 3.43679 0
M  V30 1490 H 138.429 0.398292 0.546205 0
M  V30 1491 H 140.983 1.67201 1.19301 0
M  V30 1492 H 139.213 1.14667 3.69308 0
M  V30 1493 H 140.902 1.56214 3.74636 0
M  V30 1494 H 141.668 3.8938 2.8915 0
M  V30 1495 H 137.547 2.88816 3.59313 0
M  V30 1496 H 141.091 6.29137 3.01384 0
M  V30 1497 H 136.988 5.27695 3.71763 0
M  V30 1498 H 137.756 7.3496 3.60245 0
M  V30 1499 N 140.419 -1.14872 1.07899 0
M  V30 1500 C 141.367 -2.21857 0.698727 0
M  V30 1501 C 142.361 -1.66845 -0.293086 0
M  V30 1502 O 143.567 -1.79321 -0.156204 0
M  V30 1503 H 139.942 -0.722691 0.207899 0
M  V30 1504 H 141.913 -2.51205 1.61054 0
M  V30 1505 C 140.662 -3.47498 0.11858 0
M  V30 1506 H 139.985 -3.90154 0.872914 0
M  V30 1507 H 141.425 -4.23858 -0.109759 0
M  V30 1508 C 139.884 -3.16947 -1.1422 0
M  V30 1509 O 140.414 -3.3426 -2.22785 0
M  V30 1510 N 138.62 -2.70946 -1.05055 0
M  V30 1511 H 138.167 -2.57058 -0.167038 0
M  V30 1512 H 138.125 -2.50879 -1.89491 0
M  V30 1513 N 141.898 -0.863906 -1.31812 0
M  V30 1514 C 142.808 -0.318461 -2.32428 0
M  V30 1515 C 143.824 0.568496 -1.64451 0
M  V30 1516 O 145 0.46666 -1.95919 0
M  V30 1517 C 142.065 0.476355 -3.43412 0
M  V30 1518 C 141.126 -0.43784 -4.27061 0
M  V30 1519 C 140.359 0.319138 -5.32745 0
M  V30 1520 O 140.582 1.54799 -5.48993 0
M  V30 1521 O 139.516 -0.319861 -6.01049 0
M  V30 1522 H 143.342 -1.15229 -2.80991 0
M  V30 1523 H 140.927 -0.627103 -1.35602 0
M  V30 1524 H 142.809 0.927156 -4.11074 0
M  V30 1525 H 141.484 1.28683 -2.97022 0
M  V30 1526 H 140.391 -0.937013 -3.62175 0
M  V30 1527 H 141.724 -1.21375 -4.77 0
M  V30 1528 N 143.376 1.44774 -0.622745 0
M  V30 1529 C 144.792 1.56986 -0.287652 0
M  V30 1530 C 144.992 1.61167 1.20944 0
M  V30 1531 O 144.048 1.55015 1.99315 0
M  V30 1532 C 145.361 2.84551 -0.972188 0
M  V30 1533 C 146.909 2.9825 -0.949536 0
M  V30 1534 C 147.384 4.28605 -1.61437 0
M  V30 1535 N 148.875 4.35399 -1.58057 0
M  V30 1536 C 149.61 5.34964 -2.064 0
M  V30 1537 N 149.106 6.40981 -2.62897 0
M  V30 1538 N 150.899 5.26419 -1.97078 0
M  V30 1539 H 143.05 1.40304 -1.59463 0
M  V30 1540 H 145.313 0.671794 -0.668878 0
M  V30 1541 H 145.019 2.87417 -2.02693 0
M  V30 1542 H 144.893 3.73807 -0.504771 0
M  V30 1543 H 147.28 2.94941 0.0967067 0
M  V30 1544 H 147.361 2.10364 -1.45536 0
M  V30 1545 H 147.005 4.32672 -2.66002 0
M  V30 1546 H 146.935 5.15334 -1.08344 0
M  V30 1547 H 149.426 3.59397 -1.16801 0
M  V30 1548 H 149.739 7.13225 -2.97539 0
M  V30 1549 H 148.084 6.4169 -2.66943 0
M  V30 1550 H 151.275 4.42504 -1.52669 0
M  V30 1551 H 151.448 6.03861 -2.35066 0
M  V30 1552 N 144.854 0.36279 1.53368 0
M  V30 1553 C 146.103 -0.22888 2.00397 0
M  V30 1554 C 146.416 -1.50096 1.25421 0
M  V30 1555 O 147.622 -2.17106 1.63025 0
M  V30 1556 C 146.078 -0.458417 3.56969 0
M  V30 1557 C 145.686 0.798877 4.4082 0
M  V30 1558 C 147.43 -1.00789 4.12361 0
M  V30 1559 C 145.337 0.539078 5.88938 0
M  V30 1560 H 144.267 -0.089305 0.748693 0
M  V30 1561 H 146.918 0.481099 1.77081 0
M  V30 1562 H 145.3 -1.22959 3.76427 0
M  V30 1563 H 146.474 1.57262 4.33134 0
M  V30 1564 H 144.789 1.27137 3.96516 0
M  V30 1565 H 147.386 -1.21754 5.20653 0
M  V30 1566 H 147.729 -1.9692 3.66781 0
M  V30 1567 H 148.262 -0.296961 3.9669 0
M  V30 1568 H 145.001 1.47064 6.3879 0
M  V30 1569 H 144.521 -0.196222 5.99479 0
M  V30 1570 H 146.2 0.163542 6.46793 0
M  V30 1571 N 146.332 -1.57332 0.0918853 0
M  V30 1572 C 147.557 -1.98995 -0.584442 0
M  V30 1573 C 147.982 -0.970528 -1.61128 0
M  V30 1574 O 147.34 0.0613904 -1.81196 0
M  V30 1575 C 147.388 -3.39636 -1.21161 0
M  V30 1576 O 146.492 -3.40447 -2.32744 0
M  V30 1577 H 145.833 -0.647165 -0.148572 0
M  V30 1578 H 148.363 -2.03873 0.172347 0
M  V30 1579 H 148.373 -3.7726 -1.55367 0
M  V30 1580 H 147.048 -4.13356 -0.459313 0
M  V30 1581 H 145.625 -3.14614 -2.0018 0
M  V30 1582 N 147.81 0.181792 -1.56548 0
M  V30 1583 C 149.058 0.89832 -1.81038 0
M  V30 1584 C 149.379 1.83232 -0.667164 0
M  V30 1585 O 148.649 1.93372 0.313673 0
M  V30 1586 H 147.229 0.33471 -0.667816 0
M  V30 1587 H 149.891 0.184116 -1.94028 0
M  V30 1588 H 148.987 1.4815 -2.74696 0
M  V30 1589 N 149.288 1.51039 0.449983 0
M  V30 1590 C 150.218 1.74379 1.55288 0
M  V30 1591 C 151.199 0.593236 1.5942 0
M  V30 1592 O 152.384 0.834625 1.7535 0
M  V30 1593 C 149.514 1.85728 2.93466 0
M  V30 1594 C 148.468 3.01078 3.04197 0
M  V30 1595 C 147.794 2.97595 4.44231 0
M  V30 1596 C 149.094 4.41254 2.7945 0
M  V30 1597 H 150.788 2.66725 1.36008 0
M  V30 1598 H 148.334 1.2835 0.652864 0
M  V30 1599 H 150.287 2.0064 3.70569 0
M  V30 1600 H 149.011 0.900207 3.13949 0
M  V30 1601 H 147.67 2.85851 2.29531 0
M  V30 1602 H 147.318 1.99691 4.61663 0
M  V30 1603 H 147.018 3.75046 4.52343 0
M  V30 1604 H 148.542 3.14583 5.23326 0
M  V30 1605 H 149.956 4.56897 3.46292 0
M  V30 1606 H 148.353 5.20315 2.98985 0
M  V30 1607 H 149.423 4.52164 1.75144 0
M  V30 1608 N 150.766 -0.704594 1.40972 0
M  V30 1609 C 152.014 -1.46169 1.39568 0
M  V30 1610 C 152.335 -1.95 0.00253745 0
M  V30 1611 O 151.605 -1.71095 -0.954114 0
M  V30 1612 H 150.185 -0.542326 0.513704 0
M  V30 1613 H 152.847 -0.834553 1.76128 0
M  V30 1614 H 151.943 -2.32922 2.07735 0
M  V30 1615 N 152.244 -1.26651 -0.937939 0
M  V30 1616 C 153.174 -1.10993 -2.05433 0
M  V30 1617 C 154.155 -0.0142161 -1.70094 0
M  V30 1618 O 155.34 -0.186837 -1.93299 0
M  V30 1619 C 152.47 -0.745561 -3.39203 0
M  V30 1620 C 151.424 -1.79337 -3.88616 0
M  V30 1621 C 150.75 -1.28324 -5.19073 0
M  V30 1622 C 152.05 -3.19553 -4.13138 0
M  V30 1623 H 153.744 -2.0438 -2.1879 0
M  V30 1624 H 151.29 -0.984041 -1.05131 0
M  V30 1625 H 153.243 -0.622888 -4.16771 0
M  V30 1626 H 151.967 0.22401 -3.25831 0
M  V30 1627 H 150.626 -1.90477 -3.13231 0
M  V30 1628 H 150.274 -0.303414 -5.02084 0
M  V30 1629 H 149.974 -1.98369 -5.53103 0
M  V30 1630 H 151.498 -1.1733 -5.99221 0
M  V30 1631 H 152.912 -3.11471 -4.81309 0
M  V30 1632 H 151.309 -3.87218 -4.58457 0
M  V30 1633 H 152.379 -3.65368 -3.18801 0
M  V30 1634 N 153.722 1.14298 -1.08507 0
M  V30 1635 C 154.95 1.89219 -0.836876 0
M  V30 1636 C 155.365 1.78638 0.611054 0
M  V30 1637 O 154.722 1.14643 1.41998 0
M  V30 1638 C 154.773 3.39158 -1.25116 0
M  V30 1639 O 154.494 3.49449 -2.64229 0
M  V30 1640 C 155.995 4.31073 -1.03398 0
M  V30 1641 H 153.215 0.599328 -0.301739 0
M  V30 1642 H 155.759 1.44746 -1.44461 0
M  V30 1643 H 153.914 3.81251 -0.687514 0
M  V30 1644 H 154.328 4.42589 -2.81452 0
M  V30 1645 H 155.802 5.34646 -1.37323 0
M  V30 1646 H 156.279 4.3919 0.0289259 0
M  V30 1647 H 156.885 3.94738 -1.58311 0
M  V30 1648 N 155.201 0.870884 1.31352 0
M  V30 1649 C 156.612 0.534714 1.78879 0
M  V30 1650 C 156.963 -0.948423 1.71754 0
M  V30 1651 O 156.088 -1.74055 1.28584 0
M  V30 1652 C 156.683 0.963839 3.24801 0
M  V30 1653 C 155.242 0.679311 3.70219 0
M  V30 1654 C 154.389 1.15465 2.52117 0
M  V30 1655 H 157.34 1.05651 1.18421 0
M  V30 1656 H 157.361 0.286892 3.79417 0
M  V30 1657 H 156.873 2.04332 3.29955 0
M  V30 1658 H 154.974 -0.388769 3.70566 0
M  V30 1659 H 155.087 1.25698 4.62317 0
M  V30 1660 H 153.451 0.574383 2.48139 0
M  V30 1661 H 154.234 2.24157 2.60016 0
M  V30 1662 N 156.679 -1.44442 0.630414 0
M  V30 1663 C 157.589 -2.34476 -0.0761693 0
M  V30 1664 C 158.605 -1.52576 -0.836449 0
M  V30 1665 O 159.781 -1.85307 -0.788874 0
M  V30 1666 C 156.846 -3.30545 -1.04599 0
M  V30 1667 C 155.907 -4.28352 -0.28516 0
M  V30 1668 C 155.14 -5.19831 -1.20878 0
M  V30 1669 O 155.363 -5.15223 -2.44747 0
M  V30 1670 O 154.297 -5.97892 -0.693491 0
M  V30 1671 H 158.123 -2.96345 0.664324 0
M  V30 1672 H 155.708 -1.44203 0.39061 0
M  V30 1673 H 157.59 -3.89681 -1.60396 0
M  V30 1674 H 156.265 -2.7121 -1.76711 0
M  V30 1675 H 155.172 -3.72764 0.315837 0
M  V30 1676 H 156.505 -4.90605 0.395924 0
M  V30 1677 N 158.157 -0.370918 -1.53173 0
M  V30 1678 C 159.089 0.507823 -2.23503 0
M  V30 1679 C 160.102 1.04182 -1.251 0
M  V30 1680 O 161.291 0.947286 -1.5129 0
M  V30 1681 C 158.391 1.71447 -2.92334 0
M  V30 1682 C 157.564 1.31105 -4.17289 0
M  V30 1683 C 156.623 2.38035 -4.69282 0
M  V30 1684 O 155.649 2.00204 -5.32829 0
M  V30 1685 N 156.851 3.69697 -4.47554 0
M  V30 1686 H 159.616 -0.0946382 -2.99551 0
M  V30 1687 H 157.177 -0.196358 -1.60705 0
M  V30 1688 H 159.169 2.42469 -3.24023 0
M  V30 1689 H 157.739 2.22368 -2.19707 0
M  V30 1690 H 156.959 0.430462 -3.91843 0
M  V30 1691 H 158.247 1.0179 -4.98514 0
M  V30 1692 H 157.645 4.03205 -3.9679 0
M  V30 1693 H 156.202 4.36807 -4.8378 0
M  V30 1694 N 159.635 1.57281 -0.100228 0
M  V30 1695 C 160.582 2.14305 0.856858 0
M  V30 1696 C 161.552 1.06296 1.27634 0
M  V30 1697 O 162.737 1.34109 1.35718 0
M  V30 1698 C 159.877 2.73184 2.10866 0
M  V30 1699 C 158.99 3.95442 1.73925 0
M  V30 1700 C 158.125 4.42468 2.93931 0
M  V30 1701 C 157.164 5.57303 2.5314 0
M  V30 1702 N 156.301 5.99158 3.65997 0
M  V30 1703 H 161.141 2.95772 0.363726 0
M  V30 1704 H 158.678 1.46139 0.167858 0
M  V30 1705 H 160.636 3.05442 2.84185 0
M  V30 1706 H 159.266 1.94437 2.57671 0
M  V30 1707 H 158.318 3.69464 0.905554 0
M  V30 1708 H 159.63 4.78769 1.39935 0
M  V30 1709 H 158.784 4.76537 3.75496 0
M  V30 1710 H 157.523 3.58052 3.31134 0
M  V30 1711 H 156.528 5.22857 1.70003 0
M  V30 1712 H 157.753 6.43471 2.17075 0
M  V30 1713 H 155.699 5.17687 4.02909 0
M  V30 1714 H 155.616 6.77295 3.35869 0
M  V30 1715 H 156.884 6.3786 4.48057 0
M  V30 1716 N 161.113 -0.173488 1.56642 0
M  V30 1717 C 162.045 -1.23935 1.92802 0
M  V30 1718 C 163.058 -1.40589 0.820889 0
M  V30 1719 O 164.247 -1.40631 1.09933 0
M  V30 1720 C 161.347 -2.60837 2.16373 0
M  V30 1721 C 160.52 -2.6551 3.47596 0
M  V30 1722 C 159.579 -3.8376 3.60021 0
M  V30 1723 O 158.605 -3.69859 4.32658 0
M  V30 1724 N 159.807 -5.00127 2.94709 0
M  V30 1725 H 162.572 -0.932236 2.84832 0
M  V30 1726 H 160.133 -0.363268 1.57772 0
M  V30 1727 H 162.125 -3.38407 2.21952 0
M  V30 1728 H 160.695 -2.83948 1.30738 0
M  V30 1729 H 159.915 -1.74052 3.53694 0
M  V30 1730 H 161.203 -2.65641 4.33949 0
M  V30 1731 H 160.601 -5.14322 2.35563 0
M  V30 1732 H 159.158 -5.75567 3.05886 0
M  V30 1733 N 162.591 -1.51276 -0.441967 0
M  V30 1734 C 163.538 -1.72256 -1.53612 0
M  V30 1735 C 164.508 -0.564164 -1.56225 0
M  V30 1736 O 165.693 -0.798074 -1.73307 0
M  V30 1737 C 162.833 -1.84932 -2.91366 0
M  V30 1738 C 161.946 -3.12459 -2.98317 0
M  V30 1739 C 161.081 -3.15758 -4.27166 0
M  V30 1740 C 160.12 -4.37619 -4.27967 0
M  V30 1741 N 159.257 -4.38493 -5.48333 0
M  V30 1742 H 164.097 -2.65654 -1.35026 0
M  V30 1743 H 161.634 -1.31662 -0.656009 0
M  V30 1744 H 163.592 -1.90263 -3.7129 0
M  V30 1745 H 162.222 -0.949461 -3.08521 0
M  V30 1746 H 161.274 -3.1646 -2.11086 0
M  V30 1747 H 162.586 -4.02382 -2.94771 0
M  V30 1748 H 161.74 -3.19979 -5.15459 0
M  V30 1749 H 160.479 -2.23715 -4.33362 0
M  V30 1750 H 159.484 -4.33579 -3.38067 0
M  V30 1751 H 160.709 -5.30921 -4.23438 0
M  V30 1752 H 158.655 -3.49318 -5.55259 0
M  V30 1753 H 158.572 -5.22219 -5.46647 0
M  V30 1754 H 159.84 -4.469 -6.38671 0
M  V30 1755 N 164.069 0.697108 -1.41344 0
M  V30 1756 C 165.016 1.81106 -1.43071 0
M  V30 1757 C 165.986 1.63632 -0.285275 0
M  V30 1758 O 167.171 1.84504 -0.486091 0
M  V30 1759 C 164.311 3.18975 -1.31715 0
M  V30 1760 C 163.424 3.47892 -2.56115 0
M  V30 1761 C 162.559 4.75367 -2.37064 0
M  V30 1762 C 161.598 4.97247 -3.56948 0
M  V30 1763 N 160.735 6.15947 -3.36977 0
M  V30 1764 H 165.575 1.78965 -2.38276 0
M  V30 1765 H 163.112 0.873975 -1.18322 0
M  V30 1766 H 165.07 3.98615 -1.23133 0
M  V30 1767 H 163.7 3.20297 -0.401183 0
M  V30 1768 H 162.752 2.62669 -2.75153 0
M  V30 1769 H 164.064 3.59962 -3.45295 0
M  V30 1770 H 163.218 5.63059 -2.25941 0
M  V30 1771 H 161.957 4.65541 -1.45338 0
M  V30 1772 H 160.962 4.08004 -3.68527 0
M  V30 1773 H 162.187 5.08934 -4.49626 0
M  V30 1774 H 160.133 6.07336 -2.47949 0
M  V30 1775 H 160.05 6.28777 -4.19732 0
M  V30 1776 H 161.318 7.06377 -3.29623 0
M  V30 1777 N 165.547 1.27147 0.931209 0
M  V30 1778 C 166.51 1.09615 2.01289 0
M  V30 1779 C 167.51 0.0412581 1.60747 0
M  V30 1780 O 168.7 0.285545 1.71844 0
M  V30 1781 C 165.832 0.669447 3.34262 0
M  V30 1782 H 167.025 2.05662 2.18273 0
M  V30 1783 H 164.578 1.09885 1.11153 0
M  V30 1784 H 165.313 -0.292572 3.22978 0
M  V30 1785 H 165.098 1.43127 3.65044 0
M  V30 1786 H 166.588 0.568921 4.13706 0
M  V30 1787 N 167.025 -1.13721 1.09112 0
M  V30 1788 C 167.988 -2.17222 0.731241 0
M  V30 1789 C 168.988 -1.59035 -0.237566 0
M  V30 1790 O 170.178 -1.74192 -0.0161704 0
M  V30 1791 C 167.31 -3.40804 0.0808443 0
M  V30 1792 H 168.503 -2.50573 1.64783 0
M  V30 1793 H 166.056 -1.28493 0.889897 0
M  V30 1794 H 166.791 -3.1304 -0.847127 0
M  V30 1795 H 166.576 -3.84306 0.777896 0
M  V30 1796 H 168.066 -4.1731 -0.155657 0
M  V30 1797 N 168.503 -0.877838 -1.30888 0
M  V30 1798 C 169.433 -0.35534 -2.3078 0
M  V30 1799 C 170.414 0.557994 -1.60687 0
M  V30 1800 O 171.599 0.473355 -1.88343 0
M  V30 1801 C 168.729 0.437221 -3.44537 0
M  V30 1802 C 167.683 -0.383715 -4.26276 0
M  V30 1803 C 167.009 0.535014 -5.32017 0
M  V30 1804 C 168.309 -1.62201 -4.96476 0
M  V30 1805 H 170.003 -1.19007 -2.74732 0
M  V30 1806 H 167.549 -0.573698 -1.32078 0
M  V30 1807 H 169.502 0.813334 -4.13477 0
M  V30 1808 H 168.226 1.30553 -2.99372 0
M  V30 1809 H 166.885 -0.741874 -3.59015 0
M  V30 1810 H 166.533 1.40083 -4.831 0
M  V30 1811 H 166.233 -0.0104211 -5.87599 0
M  V30 1812 H 167.757 0.907799 -6.03814 0
M  V30 1813 H 169.171 -1.31689 -5.5797 0
M  V30 1814 H 167.568 -2.10711 -5.61891 0
M  V30 1815 H 168.638 -2.37044 -4.23011 0
M  V30 1816 N 169.982 1.44106 -0.638065 0
M  V30 1817 C 171.207 2.0685 -0.150916 0
M  V30 1818 C 171.632 1.47417 1.16833 0
M  V30 1819 O 170.99 0.578264 1.71831 0
M  V30 1820 C 171.038 3.60555 -0.05708 0
M  V30 1821 O 170.142 4.00465 0.984972 0
M  V30 1822 H 169.483 0.658151 -0.0879399 0
M  V30 1823 H 172.013 1.84865 -0.876707 0
M  V30 1824 H 172.023 4.07789 0.131232 0
M  V30 1825 H 170.698 4.03193 -1.02021 0
M  V30 1826 H 169.275 3.64849 0.770672 0
M  V30 1827 N 171.46 0.379036 1.52974 0
M  V30 1828 C 172.423 -0.448865 2.24762 0
M  V30 1829 C 173.423 -0.998689 1.26027 0
M  V30 1830 O 174.613 -0.882313 1.50203 0
M  V30 1831 C 171.745 -1.62872 2.99476 0
M  V30 1832 H 172.938 0.179491 2.99362 0
M  V30 1833 H 170.491 0.13096 1.5575 0
M  V30 1834 H 171.226 -2.29479 2.29151 0
M  V30 1835 H 171.011 -1.24128 3.71934 0
M  V30 1836 H 172.501 -2.2151 3.5401 0
M  V30 1837 N 172.938 -1.57226 0.108567 0
M  V30 1838 C 174.163 -1.99604 -0.563303 0
M  V30 1839 C 174.588 -0.987563 -1.6009 0
M  V30 1840 O 173.946 0.0421687 -1.81251 0
M  V30 1841 C 173.994 -3.40902 -1.17552 0
M  V30 1842 O 173.098 -3.42896 -2.2912 0
M  V30 1843 H 172.439 -0.648704 -0.1417 0
M  V30 1844 H 174.969 -2.03679 0.193961 0
M  V30 1845 H 174.979 -3.78886 -1.51357 0
M  V30 1846 H 173.654 -4.1382 -0.415445 0
M  V30 1847 H 172.231 -3.1672 -1.96832 0
M  V30 1848 N 174.416 0.165178 -1.56732 0
M  V30 1849 C 175.326 1.22423 -2.00125 0
M  V30 1850 C 176.342 1.48084 -0.913619 0
M  V30 1851 O 177.518 1.60112 -1.22172 0
M  V30 1852 C 174.583 2.54197 -2.35764 0
M  V30 1853 C 173.644 2.36343 -3.58386 0
M  V30 1854 C 172.877 3.61834 -3.92316 0
M  V30 1855 O 173.1 4.67267 -3.27135 0
M  V30 1856 O 172.034 3.55579 -4.85641 0
M  V30 1857 H 175.86 0.885886 -2.90492 0
M  V30 1858 H 173.445 0.372518 -1.44681 0
M  V30 1859 H 175.327 3.3192 -2.59629 0
M  V30 1860 H 174.002 2.87598 -1.48557 0
M  V30 1861 H 172.909 1.56632 -3.39731 0
M  V30 1862 H 174.242 2.07865 -4.46154 0
M  V30 1863 N 175.894 1.51508 0.433938 0
M  V30 1864 C 177.142 1.6402 1.18075 0
M  V30 1865 C 177.463 0.360328 1.91642 0
M  V30 1866 O 176.733 -0.623945 1.85698 0
M  V30 1867 H 175.313 0.6045 0.43885 0
M  V30 1868 H 177.975 1.88452 0.497178 0
M  V30 1869 H 177.071 2.46949 1.90847 0
M  V30 1870 N 177.372 -0.689602 1.41712 0
M  V30 1871 C 178.282 -1.83314 1.46401 0
M  V30 1872 C 179.298 -1.7036 0.35405 0
M  V30 1873 O 180.474 -1.92171 0.602692 0
M  V30 1874 C 177.539 -3.19344 1.34982 0
M  V30 1875 C 176.6 -3.44363 2.56344 0
M  V30 1876 C 175.833 -4.73904 2.45461 0
M  V30 1877 O 176.056 -5.508 1.48241 0
M  V30 1878 O 174.99 -4.99839 3.35328 0
M  V30 1879 H 178.816 -1.82314 2.42889 0
M  V30 1880 H 176.401 -0.843438 1.23315 0
M  V30 1881 H 178.283 -4.00547 1.3092 0
M  V30 1882 H 176.958 -3.21014 0.41612 0
M  V30 1883 H 175.865 -2.63067 2.65982 0
M  V30 1884 H 177.198 -3.47512 3.48563 0
M  V30 1885 N 178.85 -1.27639 -0.924453 0
M  V30 1886 C 179.76 -1.12466 -2.05885 0
M  V30 1887 C 180.776 -0.053869 -1.73917 0
M  V30 1888 O 181.952 -0.261012 -1.99702 0
M  V30 1889 C 179.017 -0.776768 -3.37886 0
M  V30 1890 C 178.078 -1.92878 -3.83532 0
M  V30 1891 C 177.311 -1.59739 -5.09234 0
M  V30 1892 O 177.534 -0.506782 -5.68144 0
M  V30 1893 O 176.468 -2.43761 -5.50331 0
M  V30 1894 H 180.294 -2.07671 -2.21599 0
M  V30 1895 H 177.879 -1.06857 -1.04413 0
M  V30 1896 H 179.761 -0.596229 -4.17161 0
M  V30 1897 H 178.436 0.145732 -3.23372 0
M  V30 1898 H 177.343 -2.1644 -3.0513 0
M  V30 1899 H 178.676 -2.8316 -4.02593 0
M  V30 1900 N 180.328 1.1314 -1.09713 0
M  V30 1901 C 181.574 1.84757 -0.836224 0
M  V30 1902 C 181.907 1.8347 0.636598 0
M  V30 1903 O 181.182 1.27491 1.46889 0
M  V30 1904 C 181.465 3.32782 -1.37578 0
M  V30 1905 C 181.318 3.42567 -2.91493 0
M  V30 1906 C 182.637 4.28307 -1.01198 0
M  V30 1907 H 179.756 0.67082 -0.305236 0
M  V30 1908 H 182.398 1.3278 -1.35903 0
M  V30 1909 H 180.548 3.77177 -0.931097 0
M  V30 1910 H 182.22 3.06862 -3.44432 0
M  V30 1911 H 180.463 2.83349 -3.28475 0
M  V30 1912 H 181.134 4.46674 -3.24324 0
M  V30 1913 H 183.61 3.91999 -1.39556 0
M  V30 1914 H 182.486 5.30307 -1.41653 0
M  V30 1915 H 182.747 4.42029 0.0794833 0
M  V30 1916 N 181.806 0.884767 1.30421 0
M  V30 1917 C 183.217 0.553656 1.78302 0
M  V30 1918 C 183.568 -0.930153 1.7275 0
M  V30 1919 O 182.693 -1.72681 1.30423 0
M  V30 1920 C 183.288 0.998234 3.2376 0
M  V30 1921 C 181.847 0.71854 3.69478 0
M  V30 1922 C 180.994 1.18132 2.50879 0
M  V30 1923 H 183.945 1.06901 1.17294 0
M  V30 1924 H 183.966 0.327118 3.79091 0
M  V30 1925 H 183.478 2.0782 3.27769 0
M  V30 1926 H 181.579 -0.349444 3.70958 0
M  V30 1927 H 181.692 1.30595 4.60958 0
M  V30 1928 H 180.056 0.600669 2.47516 0
M  V30 1929 H 180.839 2.26902 2.57624 0
M  V30 1930 N 183.284 -1.43765 0.645699 0
M  V30 1931 C 184.216 -2.29027 -0.0890605 0
M  V30 1932 C 185.229 -1.42093 -0.794563 0
M  V30 1933 O 186.418 -1.66104 -0.653575 0
M  V30 1934 C 183.518 -3.18831 -1.14891 0
M  V30 1935 C 182.691 -4.34261 -0.523043 0
M  V30 1936 C 181.75 -5.04994 -1.47878 0
M  V30 1937 O 180.776 -5.6052 -0.990277 0
M  V30 1938 N 181.978 -5.07795 -2.81291 0
M  V30 1939 H 184.743 -2.92727 0.64272 0
M  V30 1940 H 182.304 -1.54373 0.487924 0
M  V30 1941 H 184.296 -3.63015 -1.78892 0
M  V30 1942 H 182.866 -2.56782 -1.78275 0
M  V30 1943 H 182.086 -3.93088 0.295896 0
M  V30 1944 H 183.374 -5.08728 -0.0858147 0
M  V30 1945 H 182.772 -4.64042 -3.23546 0
M  V30 1946 H 181.329 -5.55721 -3.40614 0
M  V30 1947 N 184.763 -0.387143 -1.52771 0
M  V30 1948 C 186.04 0.253197 -1.93954 0
M  V30 1949 C 186.42 1.64545 -1.32243 0
M  V30 1950 O 185.768 2.23191 -0.489699 0
M  V30 1951 C 185.978 0.281722 -3.47861 0
M  V30 1952 C 187.326 0.511715 -4.21505 0
M  V30 1953 O 188.35 0.362023 -3.54356 0
M  V30 1954 O 187.209 0.804847 -5.40541 0
M  V30 1955 H 184.303 0.156845 -0.811991 0
M  V30 1956 H 186.849 -0.441494 -1.63856 0
M  V30 1957 H 185.621 -0.693571 -3.85104 0
M  V30 1958 H 185.244 1.02142 -3.84256 0
M  V30 1959 N 186.241 1.57166 -0.116904 0
M  V30 1960 C 187.188 2.15202 0.83408 0
M  V30 1961 C 188.158 1.07644 1.26499 0
M  V30 1962 O 189.343 1.35541 1.34288 0
M  V30 1963 C 186.483 2.75405 2.07957 0
M  V30 1964 C 185.596 3.97264 1.69721 0
M  V30 1965 C 184.731 4.45561 2.89221 0
M  V30 1966 C 183.77 5.59956 2.47215 0
M  V30 1967 N 182.907 6.03006 3.59622 0
M  V30 1968 H 187.747 2.96141 0.332335 0
M  V30 1969 H 185.284 1.46309 0.152349 0
M  V30 1970 H 187.242 3.08439 2.80929 0
M  V30 1971 H 185.872 1.97159 2.55594 0
M  V30 1972 H 184.924 3.70404 0.866316 0
M  V30 1973 H 186.236 4.80226 1.34849 0
M  V30 1974 H 185.39 4.80493 3.7042 0
M  V30 1975 H 184.129 3.61544 3.27318 0
M  V30 1976 H 183.134 5.2463 1.64448 0
M  V30 1977 H 184.359 6.45738 2.10238 0
M  V30 1978 H 182.305 5.21931 3.97396 0
M  V30 1979 H 182.222 6.80819 3.28667 0
M  V30 1980 H 183.49 6.42576 4.41267 0
M  V30 1981 N 187.719 -0.156864 1.56817 0
M  V30 1982 C 188.682 -1.17781 1.96622 0
M  V30 1983 C 189.682 -1.36401 0.851555 0
M  V30 1984 O 190.872 -1.33561 1.11836 0
M  V30 1985 C 188.004 -2.54008 2.27361 0
M  V30 1986 H 189.197 -0.836564 2.87996 0
M  V30 1987 H 186.75 -0.39985 1.51099 0
M  V30 1988 H 187.485 -2.9312 1.38748 0
M  V30 1989 H 187.27 -2.41856 3.08623 0
M  V30 1990 H 188.76 -3.27558 2.59029 0
M  V30 1991 N 189.197 -1.51736 -0.425897 0
M  V30 1992 C 190.608 -1.5732 -1.00536 0
M  V30 1993 C 190.959 -0.403537 -1.92005 0
M  V30 1994 O 190.084 0.478256 -2.11049 0
M  V30 1995 C 190.679 -2.85119 -1.8301 0
M  V30 1996 C 189.238 -2.93236 -2.35987 0
M  V30 1997 C 188.385 -2.52098 -1.15508 0
M  V30 1998 H 191.336 -1.57348 -0.206739 0
M  V30 1999 H 191.357 -2.69526 -2.68581 0
M  V30 2000 H 190.869 -3.7023 -1.16411 0
M  V30 2001 H 188.97 -2.12581 -3.06007 0
M  V30 2002 H 189.083 -3.9713 -2.68001 0
M  V30 2003 H 187.447 -2.05558 -1.50393 0
M  V30 2004 H 188.23 -3.39565 -0.505014 0
M  V30 2005 N 190.675 0.682077 -1.42076 0
M  V30 2006 C 191.9 1.47558 -1.45744 0
M  V30 2007 C 192.325 1.87977 -0.0680981 0
M  V30 2008 O 191.683 1.55522 0.9318 0
M  V30 2009 C 191.731 2.70575 -2.38373 0
M  V30 2010 O 190.835 3.68573 -1.85007 0
M  V30 2011 H 190.176 0.443585 -0.494093 0
M  V30 2012 H 192.706 0.837238 -1.86686 0
M  V30 2013 H 192.716 3.18729 -2.54707 0
M  V30 2014 H 191.391 2.40495 -3.39315 0
M  V30 2015 H 189.968 3.2757 -1.78192 0
M  V30 2016 N 192.153 1.28127 0.917671 0
M  V30 2017 C 193.103 1.08361 2.00604 0
M  V30 2018 C 194.087 0.00847518 1.60898 0
M  V30 2019 O 195.279 0.228167 1.75523 0
M  V30 2020 C 192.408 0.743376 3.35155 0
M  V30 2021 C 191.494 1.85716 3.81275 0
M  V30 2022 N 191.885 3.09822 3.99805 0
M  V30 2023 C 190.183 1.74612 4.10398 0
M  V30 2024 C 190.884 3.82368 4.38372 0
M  V30 2025 N 189.86 3.10192 4.4641 0
M  V30 2026 H 193.662 2.02531 2.12975 0
M  V30 2027 H 191.176 1.18989 1.10523 0
M  V30 2028 H 193.173 0.582859 4.12805 0
M  V30 2029 H 191.833 -0.190595 3.2414 0
M  V30 2030 H 192.844 3.45475 3.85833 0
M  V30 2031 H 189.521 0.883657 4.08041 0
M  V30 2032 H 190.911 4.89082 4.60704 0
M  V30 2033 N 193.631 -1.12557 1.10312 0
M  V30 2034 C 194.877 -1.84311 0.846011 0
M  V30 2035 C 195.21 -1.83805 -0.626859 0
M  V30 2036 O 194.485 -1.28268 -1.46211 0
M  V30 2037 C 194.768 -3.32048 1.39341 0
M  V30 2038 C 194.621 -3.41016 2.93305 0
M  V30 2039 C 195.94 -4.27764 1.03468 0
M  V30 2040 H 193.059 -0.669192 0.30879 0
M  V30 2041 H 195.701 -1.32057 1.36605 0
M  V30 2042 H 193.851 -3.76678 0.951087 0
M  V30 2043 H 195.523 -3.05031 3.46055 0
M  V30 2044 H 193.766 -2.81603 3.29973 0
M  V30 2045 H 194.437 -4.44948 3.26689 0
M  V30 2046 H 196.913 -3.91253 1.41633 0
M  V30 2047 H 195.789 -5.29549 1.44463 0
M  V30 2048 H 196.05 -4.42064 -0.0560404 0
M  V30 2049 N 195.109 -0.891671 -1.2995 0
M  V30 2050 C 196.52 -0.563104 -1.78006 0
M  V30 2051 C 196.871 0.920978 -1.73241 0
M  V30 2052 O 195.996 1.71987 -1.31337 0
M  V30 2053 C 196.591 -1.01539 -3.23226 0
M  V30 2054 C 195.15 -0.738124 -3.69092 0
M  V30 2055 C 194.297 -1.19461 -2.50249 0
M  V30 2056 H 197.248 -1.07522 -1.16725 0
M  V30 2057 H 197.269 -0.347217 -3.78912 0
M  V30 2058 H 196.781 -2.09555 -3.26662 0
M  V30 2059 H 194.882 0.329766 -3.71138 0
M  V30 2060 H 194.995 -1.33037 -4.60259 0
M  V30 2061 H 193.359 -0.613787 -2.47194 0
M  V30 2062 H 194.142 -2.28265 -2.56417 0
M  V30 2063 N 196.587 1.43421 -0.653314 0
M  V30 2064 C 197.834 2.01812 -0.166745 0
M  V30 2065 C 198.162 1.51535 1.21931 0
M  V30 2066 O 197.417 0.698975 1.82792 0
M  V30 2067 C 197.716 3.57176 -0.126623 0
M  V30 2068 C 197.382 4.26798 -1.45444 0
M  V30 2069 C 196.044 4.45534 -1.81805 0
M  V30 2070 C 198.396 4.66225 -2.32989 0
M  V30 2071 C 195.724 5.00961 -3.05377 0
M  V30 2072 C 198.076 5.23021 -3.55853 0
M  V30 2073 C 196.74 5.39973 -3.9241 0
M  V30 2074 H 196.01 0.738484 -0.0610162 0
M  V30 2075 H 198.657 1.71896 -0.84404 0
M  V30 2076 H 196.962 3.86634 0.634123 0
M  V30 2077 H 198.659 4.00112 0.266723 0
M  V30 2078 H 195.249 4.12561 -1.16153 0
M  V30 2079 H 199.433 4.51443 -2.06187 0
M  V30 2080 H 194.689 5.12271 -3.3375 0
M  V30 2081 H 198.863 5.52518 -4.23907 0
M  V30 2082 H 196.49 5.82687 -4.88242 0
M  V30 2083 N 198.065 0.39524 1.52563 0
M  V30 2084 C 198.995 -0.428384 2.29537 0
M  V30 2085 C 199.976 -1.05831 1.33169 0
M  V30 2086 O 201.161 -1.06995 1.62067 0
M  V30 2087 C 198.291 -1.55274 3.10656 0
M  V30 2088 C 197.245 -1.04855 4.14957 0
M  V30 2089 C 196.571 -2.26543 4.84337 0
M  V30 2090 C 197.871 -0.112324 5.22179 0
M  V30 2091 H 199.565 0.213867 2.98635 0
M  V30 2092 H 197.111 0.104298 1.43622 0
M  V30 2093 H 199.064 -2.1358 3.63265 0
M  V30 2094 H 197.788 -2.22266 2.39302 0
M  V30 2095 H 196.447 -0.487985 3.63338 0
M  V30 2096 H 196.095 -2.92059 4.09525 0
M  V30 2097 H 195.795 -1.93466 5.54837 0
M  V30 2098 H 197.319 -2.85481 5.39753 0
M  V30 2099 H 198.733 -0.603752 5.70112 0
M  V30 2100 H 197.13 0.128968 5.99961 0
M  V30 2101 H 198.2 0.837052 4.77621 0
M  V30 2102 N 199.544 -1.57102 0.125237 0
M  V30 2103 C 200.474 -2.18659 -0.819174 0
M  V30 2104 C 201.455 -1.12843 -1.27281 0
M  V30 2105 O 202.64 -1.41104 -1.33429 0
M  V30 2106 C 199.77 -2.79096 -2.06695 0
M  V30 2107 C 198.724 -3.90548 -1.75088 0
M  V30 2108 C 198.05 -4.37821 -3.06948 0
M  V30 2109 C 199.35 -5.12356 -1.01435 0
M  V30 2110 H 201.044 -2.9783 -0.306202 0
M  V30 2111 H 198.59 -1.4326 -0.145839 0
M  V30 2112 H 200.543 -3.2082 -2.73226 0
M  V30 2113 H 199.267 -1.97223 -2.60328 0
M  V30 2114 H 197.926 -3.49409 -1.10944 0
M  V30 2115 H 197.574 -3.52799 -3.58527 0
M  V30 2116 H 197.274 -5.12982 -2.86571 0
M  V30 2117 H 198.798 -4.822 -3.74587 0
M  V30 2118 H 200.212 -5.5106 -1.58132 0
M  V30 2119 H 198.609 -5.9314 -0.911319 0
M  V30 2120 H 199.679 -4.849 -0.00218681 0
M  V30 2121 N 201.022 0.148545 -1.56898 0
M  V30 2122 C 202.271 0.85984 -1.82454 0
M  V30 2123 C 202.584 1.82406 -0.706229 0
M  V30 2124 O 203.79 2.57938 -0.847349 0
M  V30 2125 C 202.246 1.57967 -3.2338 0
M  V30 2126 C 201.854 0.65794 -4.43142 0
M  V30 2127 C 203.598 2.27784 -3.58211 0
M  V30 2128 C 201.505 1.3793 -5.75091 0
M  V30 2129 H 200.435 0.324834 -0.68044 0
M  V30 2130 H 203.086 0.112588 -1.83154 0
M  V30 2131 H 201.468 2.37249 -3.17063 0
M  V30 2132 H 202.642 -0.0995497 -4.60692 0
M  V30 2133 H 200.957 0.0682643 -4.16344 0
M  V30 2134 H 203.554 2.8239 -4.54048 0
M  V30 2135 H 203.897 3.04204 -2.84193 0
M  V30 2136 H 204.43 1.55421 -3.66182 0
M  V30 2137 H 201.169 0.656982 -6.52199 0
M  V30 2138 H 200.689 2.10954 -5.61479 0
M  V30 2139 H 202.368 1.92063 -6.17835 0
M  V30 2140 N 202.5 1.5196 0.417844 0
M  V30 2141 C 203.748 1.65263 1.16329 0
M  V30 2142 C 204.069 0.380634 1.91249 0
M  V30 2143 O 203.339 -0.604214 1.86349 0
M  V30 2144 H 201.919 0.60912 0.432414 0
M  V30 2145 H 204.581 1.88969 0.477162 0
M  V30 2146 H 203.677 2.4896 1.88217 0
M  V30 2147 N 203.978 -0.674533 1.42435 0
M  V30 2148 C 205.226 -1.43175 1.42637 0
M  V30 2149 C 205.547 -1.94951 0.0438992 0
M  V30 2150 O 204.817 -1.7308 -0.917607 0
M  V30 2151 H 203.397 -0.531307 0.525092 0
M  V30 2152 H 206.059 -0.797006 1.77859 0
M  V30 2153 H 205.155 -2.28463 2.12629 0
M  V30 2154 N 205.456 -1.28612 -0.910864 0
M  V30 2155 C 206.704 -1.15705 -1.65701 0
M  V30 2156 C 207.025 0.29416 -1.92769 0
M  V30 2157 O 206.295 1.20331 -1.54588 0
M  V30 2158 H 204.875 -0.425216 -0.614167 0
M  V30 2159 H 207.537 -1.61381 -1.0928 0
M  V30 2160 H 206.633 -1.6988 -2.61815 0
M  V30 2161 N 206.934 1.1197 -1.10907 0
M  V30 2162 C 208.162 1.87402 -0.876824 0
M  V30 2163 C 208.577 1.79894 0.573025 0
M  V30 2164 O 207.934 1.17629 1.39534 0
M  V30 2165 C 207.985 3.36428 -1.32282 0
M  V30 2166 O 207.706 3.43765 -2.71582 0
M  V30 2167 C 209.207 4.28783 -1.12518 0
M  V30 2168 H 206.427 0.592793 -0.314384 0
M  V30 2169 H 208.971 1.41649 -1.47499 0
M  V30 2170 H 207.126 3.79706 -0.768229 0
M  V30 2171 H 207.54 4.3652 -2.90776 0
M  V30 2172 H 209.014 5.31613 -1.48633 0
M  V30 2173 H 209.491 4.39153 -0.0642394 0
M  V30 2174 H 210.097 3.91291 -1.66648 0
M  V30 2175 N 208.412 0.89855 1.29475 0
M  V30 2176 C 209.375 0.380272 2.26023 0
M  V30 2177 C 210.375 -0.484891 1.53315 0
M  V30 2178 O 211.565 -0.290108 1.71767 0
M  V30 2179 C 208.697 -0.45651 3.3783 0
M  V30 2180 H 209.89 1.23295 2.73383 0
M  V30 2181 H 207.443 0.676589 1.40897 0
M  V30 2182 H 208.178 -1.32922 2.95808 0
M  V30 2183 H 207.963 0.163393 3.91759 0
M  V30 2184 H 209.453 -0.810466 4.0966 0
M  V30 2185 N 209.89 -1.43072 0.660911 0
M  V30 2186 C 210.853 -2.29194 -0.0166406 0
M  V30 2187 C 211.853 -1.42609 -0.742912 0
M  V30 2188 O 213.043 -1.64155 -0.583004 0
M  V30 2189 C 210.175 -3.24831 -1.0343 0
M  V30 2190 H 211.368 -2.90596 0.741208 0
M  V30 2191 H 208.921 -1.5048 0.422532 0
M  V30 2192 H 209.656 -2.68339 -1.82111 0
M  V30 2193 H 209.441 -3.88676 -0.517082 0
M  V30 2194 H 210.931 -3.89451 -1.50723 0
M  V30 2195 N 211.368 -0.403325 -1.52352 0
M  V30 2196 C 212.615 0.174347 -2.01748 0
M  V30 2197 C 212.943 1.45636 -1.2892 0
M  V30 2198 O 212.198 1.9193 -0.382258 0
M  V30 2199 C 212.497 0.474665 -3.54234 0
M  V30 2200 C 212.163 -0.717458 -4.45155 0
M  V30 2201 C 210.825 -1.04447 -4.69728 0
M  V30 2202 C 213.177 -1.51432 -4.98716 0
M  V30 2203 C 210.505 -2.16963 -5.45109 0
M  V30 2204 C 212.857 -2.6302 -5.75329 0
M  V30 2205 C 211.521 -2.96213 -5.98175 0
M  V30 2206 H 210.791 0.0637981 -0.738248 0
M  V30 2207 H 213.438 -0.543553 -1.83624 0
M  V30 2208 H 211.743 1.27406 -3.70506 0
M  V30 2209 H 213.44 0.934496 -3.89959 0
M  V30 2210 H 210.03 -0.452596 -4.26204 0
M  V30 2211 H 214.214 -1.27491 -4.79645 0
M  V30 2212 H 209.47 -2.43034 -5.61021 0
M  V30 2213 H 213.644 -3.25158 -6.15829 0
M  V30 2214 H 211.271 -3.83516 -6.56368 0
M  V30 2215 N 212.846 1.57033 -0.133567 0
M  V30 2216 C 213.809 2.14897 0.796995 0
M  V30 2217 C 214.809 1.0874 1.18458 0
M  V30 2218 O 215.999 1.34446 1.1077 0
M  V30 2219 C 213.131 2.70112 2.07973 0
M  V30 2220 H 214.324 2.98457 0.293873 0
M  V30 2221 H 211.877 1.55871 0.115787 0
M  V30 2222 H 212.612 1.9018 2.62682 0
M  V30 2223 H 212.397 3.47764 1.81115 0
M  V30 2224 H 213.887 3.14738 2.74462 0
M  V30 2225 N 214.325 -0.140222 1.56975 0
M  V30 2226 C 215.288 -1.15689 1.97861 0
M  V30 2227 C 216.288 -1.3549 0.865974 0
M  V30 2228 O 217.478 -1.32367 1.13246 0
M  V30 2229 C 214.61 -2.51582 2.30042 0
M  V30 2230 H 215.803 -0.805971 2.88867 0
M  V30 2231 H 213.356 -0.383801 1.51515 0
M  V30 2232 H 214.091 -2.91632 1.41849 0
M  V30 2233 H 213.876 -2.38569 3.11171 0
M  V30 2234 H 215.366 -3.24792 2.62488 0
M  V30 2235 N 215.803 -1.52179 -0.40978 0
M  V30 2236 C 216.766 -1.74853 -1.48186 0
M  V30 2237 C 217.766 -0.618417 -1.48433 0
M  V30 2238 O 218.956 -0.886286 -1.49969 0
M  V30 2239 C 216.088 -1.8303 -2.87598 0
M  V30 2240 H 217.281 -2.70559 -1.29374 0
M  V30 2241 H 214.834 -1.42586 -0.640233 0
M  V30 2242 H 215.569 -0.89236 -3.11781 0
M  V30 2243 H 215.354 -2.65187 -2.88822 0
M  V30 2244 H 216.844 -2.02316 -3.65319 0
M  V30 2245 N 217.281 0.66697 -1.42791 0
M  V30 2246 C 218.697 0.981027 -1.25889 0
M  V30 2247 C 218.897 2.00793 -0.168695 0
M  V30 2248 O 217.953 2.48321 0.45747 0
M  V30 2249 C 219.266 1.47838 -2.61848 0
M  V30 2250 C 220.814 1.59575 -2.69267 0
M  V30 2251 C 221.289 2.12704 -4.05612 0
M  V30 2252 N 222.78 2.20026 -4.07606 0
M  V30 2253 C 223.515 2.62227 -5.09926 0
M  V30 2254 N 223.011 3.03824 -6.22626 0
M  V30 2255 N 224.804 2.62045 -4.97281 0
M  V30 2256 H 216.955 -0.0127891 -2.12396 0
M  V30 2257 H 219.218 0.0568258 -0.946295 0
M  V30 2258 H 218.924 0.798299 -3.4252 0
M  V30 2259 H 218.798 2.45579 -2.86305 0
M  V30 2260 H 221.185 2.26687 -1.88936 0
M  V30 2261 H 221.266 0.60302 -2.48591 0
M  V30 2262 H 220.91 1.46198 -4.86404 0
M  V30 2263 H 220.84 3.12782 -4.23645 0
M  V30 2264 H 223.331 1.90708 -3.2625 0
M  V30 2265 H 223.644 3.34734 -6.96544 0
M  V30 2266 H 221.989 3.01662 -6.26119 0
M  V30 2267 H 225.18 2.28916 -4.08308 0
M  V30 2268 H 225.353 2.94613 -5.77154 0
M  V30 2269 N 218.759 1.29093 0.90403 0
M  V30 2270 C 219.984 1.19809 1.69294 0
M  V30 2271 C 220.409 -0.238481 1.86582 0
M  V30 2272 O 219.767 -1.1723 1.383 0
M  V30 2273 C 219.815 1.91202 3.05736 0
M  V30 2274 O 218.919 1.22611 3.93752 0
M  V30 2275 H 218.26 0.415385 0.518027 0
M  V30 2276 H 220.79 1.70586 1.12967 0
M  V30 2277 H 220.8 1.99487 3.55906 0
M  V30 2278 H 219.475 2.95692 2.92471 0
M  V30 2279 H 218.052 1.22554 3.52186 0
M  V30 2280 N 220.237 -1.11381 1.11499 0
M  V30 2281 C 221.486 -1.82494 0.858993 0
M  V30 2282 C 221.799 -1.85605 -0.617278 0
M  V30 2283 O 223.005 -2.52824 -0.989552 0
M  V30 2284 C 221.461 -3.27745 1.48699 0
M  V30 2285 C 221.069 -3.32961 2.99735 0
M  V30 2286 C 222.813 -4.03754 1.31085 0
M  V30 2287 C 220.72 -4.72612 3.55516 0
M  V30 2288 H 219.65 -0.683802 0.317696 0
M  V30 2289 H 222.301 -1.25331 1.34031 0
M  V30 2290 H 220.683 -3.84844 0.933339 0
M  V30 2291 H 221.857 -2.85741 3.61509 0
M  V30 2292 H 220.172 -2.70433 3.16631 0
M  V30 2293 H 222.769 -5.06891 1.70192 0
M  V30 2294 H 223.112 -4.15527 0.253496 0
M  V30 2295 H 223.645 -3.53043 1.83318 0
M  V30 2296 H 220.384 -4.66036 4.60967 0
M  V30 2297 H 219.904 -5.2024 2.98513 0
M  V30 2298 H 221.583 -5.4157 3.53992 0
M  V30 2299 N 221.715 -0.905404 -1.28997 0
M  V30 2300 C 223.131 -0.60233 -1.47798 0
M  V30 2301 C 223.331 0.854645 -1.82478 0
M  V30 2302 O 222.387 1.63439 -1.92468 0
M  V30 2303 C 223.7 -1.53306 -2.58685 0
M  V30 2304 C 225.248 -1.53887 -2.72558 0
M  V30 2305 C 225.723 -2.45602 -3.86579 0
M  V30 2306 N 227.214 -2.43681 -3.93921 0
M  V30 2307 C 227.949 -3.11347 -4.81509 0
M  V30 2308 N 227.445 -3.88313 -5.73746 0
M  V30 2309 N 229.238 -3.00476 -4.75048 0
M  V30 2310 H 221.389 -1.84765 -1.04764 0
M  V30 2311 H 223.652 -0.792025 -0.520961 0
M  V30 2312 H 223.358 -2.57141 -2.39941 0
M  V30 2313 H 223.232 -1.25787 -3.55609 0
M  V30 2314 H 225.619 -0.507941 -2.90696 0
M  V30 2315 H 225.7 -1.85447 -1.76191 0
M  V30 2316 H 225.344 -3.48792 -3.69197 0
M  V30 2317 H 225.274 -2.11349 -4.82327 0
M  V30 2318 H 227.765 -1.87767 -3.27951 0
M  V30 2319 H 228.078 -4.36985 -6.37389 0
M  V30 2320 H 226.423 -3.92419 -5.73614 0
M  V30 2321 H 229.614 -2.39858 -4.01977 0
M  V30 2322 H 229.787 -3.53485 -5.43095 0
M  V30 2323 N 223.193 1.4272 -0.668489 0
M  V30 2324 C 224.156 2.292 0.00448567 0
M  V30 2325 C 225.156 1.43001 0.735339 0
M  V30 2326 O 226.346 1.64461 0.57429 0
M  V30 2327 C 223.478 3.25375 1.01705 0
M  V30 2328 H 224.671 2.90199 -0.756608 0
M  V30 2329 H 222.224 1.50254 -0.430506 0
M  V30 2330 H 222.959 2.69301 1.80686 0
M  V30 2331 H 222.744 3.88944 0.496463 0
M  V30 2332 H 224.234 3.90245 1.48655 0
M  V30 2333 N 224.671 0.411399 1.52136 0
M  V30 2334 C 226.087 0.0623865 1.59478 0
M  V30 2335 C 226.287 -1.42554 1.4241 0
M  V30 2336 O 225.343 -2.19263 1.2522 0
M  V30 2337 C 226.656 0.559331 2.95452 0
M  V30 2338 C 228.204 0.517503 3.08692 0
M  V30 2339 C 228.679 0.990994 4.4715 0
M  V30 2340 N 230.17 0.947908 4.53397 0
M  V30 2341 C 230.905 1.28544 5.58806 0
M  V30 2342 N 230.401 1.69454 6.71757 0
M  V30 2343 N 232.194 1.20526 5.49026 0
M  V30 2344 H 224.345 1.37982 1.61477 0
M  V30 2345 H 226.608 0.566977 0.759764 0
M  V30 2346 H 226.314 1.59938 3.1323 0
M  V30 2347 H 226.188 -0.0298014 3.77188 0
M  V30 2348 H 228.575 -0.513505 2.90598 0
M  V30 2349 H 228.656 1.14272 2.28857 0
M  V30 2350 H 228.3 2.02034 4.65988 0
M  V30 2351 H 228.23 0.34257 5.25485 0
M  V30 2352 H 230.721 0.647157 3.72317 0
M  V30 2353 H 231.034 1.93513 7.48179 0
M  V30 2354 H 229.379 1.73359 6.73032 0
M  V30 2355 H 232.57 0.884505 4.59667 0
M  V30 2356 H 232.743 1.47161 6.31069 0
M  V30 2357 N 226.149 -1.5696 0.141893 0
M  V30 2358 C 227.426 -1.87553 -0.555281 0
M  V30 2359 C 227.806 -1.04699 -1.83306 0
M  V30 2360 O 227.154 -0.132346 -2.28116 0
M  V30 2361 C 227.364 -3.39093 -0.825664 0
M  V30 2362 C 228.712 -4.08199 -1.16869 0
M  V30 2363 O 229.736 -3.44242 -0.915185 0
M  V30 2364 O 228.595 -5.21139 -1.6455 0
M  V30 2365 H 225.689 -0.777188 -0.282679 0
M  V30 2366 H 228.235 -1.68763 0.17812 0
M  V30 2367 H 227.007 -3.91221 0.0788633 0
M  V30 2368 H 226.63 -3.63393 -1.61343 0
M  V30 2369 N 227.627 0.131896 -1.57047 0
M  V30 2370 C 229.038 0.690407 -1.73465 0
M  V30 2371 C 229.389 1.8094 -0.758629 0
M  V30 2372 O 228.514 2.16282 0.0713813 0
M  V30 2373 C 229.109 1.25916 -3.14532 0
M  V30 2374 C 227.668 1.76409 -3.32501 0
M  V30 2375 C 226.815 0.658579 -2.69366 0
M  V30 2376 H 229.766 -0.0939144 -1.58422 0
M  V30 2377 H 229.787 2.12892 -3.15369 0
M  V30 2378 H 229.299 0.444515 -3.85546 0
M  V30 2379 H 227.4 2.60391 -2.66509 0
M  V30 2380 H 227.513 1.88241 -4.4057 0
M  V30 2381 H 225.877 1.08899 -2.30246 0
M  V30 2382 H 226.66 -0.14487 -3.42994 0
M  V30 2383 N 229.106 1.52395 0.401703 0
M  V30 2384 C 230.354 1.66488 1.14569 0
M  V30 2385 C 230.675 0.400897 1.90835 0
M  V30 2386 O 229.945 -0.584415 1.8698 0
M  V30 2387 H 228.525 0.613672 0.425929 0
M  V30 2388 H 231.187 1.89464 0.457093 0
M  V30 2389 H 230.283 2.50942 1.85566 0
M  V30 2390 N 230.584 -0.659388 1.43143 0
M  V30 2391 C 231.547 -1.75432 1.47501 0
M  V30 2392 C 232.547 -1.56707 0.360512 0
M  V30 2393 O 233.737 -1.62717 0.622002 0
M  V30 2394 C 230.869 -3.14239 1.32162 0
M  V30 2395 H 232.062 -1.7295 2.45006 0
M  V30 2396 H 229.615 -0.870469 1.29817 0
M  V30 2397 H 230.35 -3.22336 0.356401 0
M  V30 2398 H 230.135 -3.29235 2.12948 0
M  V30 2399 H 231.625 -3.94094 1.3813 0
M  V30 2400 N 232.062 -1.29571 -0.897171 0
M  V30 2401 C 233.478 -1.07637 -1.17841 0
M  V30 2402 C 233.678 0.170713 -2.00776 0
M  V30 2403 O 232.734 0.867768 -2.3712 0
M  V30 2404 C 234.047 -2.3332 -1.8969 0
M  V30 2405 C 235.595 -2.38664 -2.02505 0
M  V30 2406 C 236.07 -3.64157 -2.77765 0
M  V30 2407 N 237.561 -3.64894 -2.85318 0
M  V30 2408 C 238.296 -4.58679 -3.44094 0
M  V30 2409 N 237.792 -5.62799 -4.04017 0
M  V30 2410 N 239.585 -4.46245 -3.41793 0
M  V30 2411 H 231.736 -2.09598 -0.343883 0
M  V30 2412 H 233.999 -0.923333 -0.214848 0
M  V30 2413 H 233.705 -3.24262 -1.36187 0
M  V30 2414 H 233.579 -2.41025 -2.9015 0
M  V30 2415 H 235.966 -1.48208 -2.55183 0
M  V30 2416 H 236.047 -2.34943 -1.01171 0
M  V30 2417 H 235.691 -4.54965 -2.25763 0
M  V30 2418 H 235.621 -3.65137 -3.7945 0
M  V30 2419 H 238.112 -2.89613 -2.42761 0
M  V30 2420 H 238.425 -6.3048 -4.46895 0
M  V30 2421 H 236.77 -5.66605 -4.02472 0
M  V30 2422 H 239.961 -3.64094 -2.94199 0
M  V30 2423 H 240.134 -5.19518 -3.87304 0
M  V30 2424 N 233.54 1.10788 -1.12088 0
M  V30 2425 C 234.786 1.82942 -0.875226 0
M  V30 2426 C 235.119 1.84779 0.597538 0
M  V30 2427 O 234.394 1.30578 1.44152 0
M  V30 2428 C 234.677 3.29789 -1.44606 0
M  V30 2429 C 234.53 3.36307 -2.98693 0
M  V30 2430 C 235.849 4.26064 -1.10261 0
M  V30 2431 H 232.968 0.664195 -0.319397 0
M  V30 2432 H 235.61 1.29867 -1.38689 0
M  V30 2433 H 233.76 3.75118 -1.01089 0
M  V30 2434 H 235.432 2.99487 -3.50864 0
M  V30 2435 H 233.675 2.76318 -3.34411 0
M  V30 2436 H 234.346 4.39694 -3.33726 0
M  V30 2437 H 236.822 3.88951 -1.4784 0
M  V30 2438 H 235.698 5.27183 -1.52869 0
M  V30 2439 H 235.959 4.42098 -0.0142953 0
M  V30 2440 N 235.018 0.912232 1.28515 0
M  V30 2441 C 235.948 0.416403 2.29757 0
M  V30 2442 C 236.929 -0.515194 1.6211 0
M  V30 2443 O 238.114 -0.423253 1.89532 0
M  V30 2444 C 235.244 -0.34572 3.45575 0
M  V30 2445 C 234.198 0.496599 4.25109 0
M  V30 2446 C 233.524 -0.393771 5.33248 0
M  V30 2447 C 234.824 1.75307 4.92001 0
M  V30 2448 H 236.518 1.26249 2.7148 0
M  V30 2449 H 234.064 0.608515 1.30511 0
M  V30 2450 H 236.017 -0.703422 4.15488 0
M  V30 2451 H 234.741 -1.2257 3.02728 0
M  V30 2452 H 233.4 0.8368 3.56922 0
M  V30 2453 H 233.048 -1.27225 4.86644 0
M  V30 2454 H 232.748 0.166209 5.87365 0
M  V30 2455 H 234.272 -0.747389 6.06009 0
M  V30 2456 H 235.686 1.46437 5.54283 0
M  V30 2457 H 234.083 2.25534 5.56106 0
M  V30 2458 H 235.153 2.48176 4.16577 0
M  V30 2459 N 236.496 -1.42363 0.676048 0
M  V30 2460 C 237.745 -2.00745 0.196037 0
M  V30 2461 C 238.058 -1.54083 -1.20489 0
M  V30 2462 O 239.264 -2.04891 -1.78134 0
M  V30 2463 C 237.72 -3.58651 0.299616 0
M  V30 2464 C 237.328 -4.143 1.70468 0
M  V30 2465 C 239.072 -4.24326 -0.121619 0
M  V30 2466 C 236.979 -5.64574 1.76096 0
M  V30 2467 H 235.909 -0.750787 0.0695301 0
M  V30 2468 H 238.56 -1.63072 0.841412 0
M  V30 2469 H 236.942 -3.93833 -0.413673 0
M  V30 2470 H 238.116 -3.90575 2.44515 0
M  V30 2471 H 236.431 -3.61081 2.07387 0
M  V30 2472 H 239.028 -5.34607 -0.0997362 0
M  V30 2473 H 239.371 -3.99897 -1.15708 0
M  V30 2474 H 239.904 -3.94108 0.540706 0
M  V30 2475 H 236.643 -5.93804 2.77628 0
M  V30 2476 H 236.163 -5.90286 1.06406 0
M  V30 2477 H 237.842 -6.29013 1.51496 0
M  V30 2478 N 237.974 -0.419461 -1.51915 0
M  V30 2479 C 239.22 0.153166 -2.02221 0
M  V30 2480 C 239.553 1.43907 -1.30401 0
M  V30 2481 O 238.828 1.90055 -0.413438 0
M  V30 2482 C 239.111 0.390291 -3.57979 0
M  V30 2483 C 238.964 -0.913014 -4.40436 0
M  V30 2484 C 240.283 1.16794 -4.2432 0
M  V30 2485 H 237.402 0.0541924 -0.735005 0
M  V30 2486 H 240.044 -0.554955 -1.81715 0
M  V30 2487 H 238.194 0.993491 -3.75582 0
M  V30 2488 H 239.866 -1.54882 -4.34522 0
M  V30 2489 H 238.109 -1.52168 -4.06236 0
M  V30 2490 H 238.78 -0.701361 -5.47526 0
M  V30 2491 H 241.256 0.657161 -4.10878 0
M  V30 2492 H 240.132 1.3026 -5.3322 0
M  V30 2493 H 240.393 2.19132 -3.83971 0
M  V30 2494 N 239.452 1.56882 -0.150215 0
M  V30 2495 C 240.677 2.01027 0.510184 0
M  V30 2496 C 241.102 1.02966 1.57415 0
M  V30 2497 O 240.46 0.00590158 1.81299 0
M  V30 2498 C 240.508 3.43899 1.08472 0
M  V30 2499 O 239.612 3.4885 2.19948 0
M  V30 2500 H 238.953 0.652233 0.124451 0
M  V30 2501 H 241.483 2.03093 -0.247894 0
M  V30 2502 H 241.493 3.82766 1.41259 0
M  V30 2503 H 240.168 4.14776 0.305582 0
M  V30 2504 H 238.745 3.21827 1.88366 0
M  V30 2505 N 240.93 -0.123565 1.57115 0
M  V30 2506 C 241.84 -1.17074 2.033 0
M  V30 2507 C 242.856 -1.4561 0.952559 0
M  V30 2508 O 244.032 -1.56817 1.26374 0
M  V30 2509 C 241.097 -2.47857 2.42421 0
M  V30 2510 C 240.158 -2.26758 3.64526 0
M  V30 2511 C 239.391 -3.51305 4.01771 0
M  V30 2512 O 239.614 -4.5843 3.39409 0
M  V30 2513 O 238.548 -3.42578 4.94898 0
M  V30 2514 H 242.374 -0.808555 2.92739 0
M  V30 2515 H 239.959 -0.334027 1.45618 0
M  V30 2516 H 241.841 -3.2492 2.68338 0
M  V30 2517 H 240.516 -2.83558 1.5613 0
M  V30 2518 H 239.423 -1.47569 3.43765 0
M  V30 2519 H 240.756 -1.95963 4.51508 0
M  V30 2520 N 242.408 -1.52605 -0.393616 0
M  V30 2521 C 243.685 -1.58001 -1.15304 0
M  V30 2522 C 244.065 -0.370385 -2.07825 0
M  V30 2523 O 243.413 0.641638 -2.19306 0
M  V30 2524 C 243.623 -2.91652 -1.91677 0
M  V30 2525 C 244.971 -3.4522 -2.47201 0
M  V30 2526 O 245.995 -2.93495 -2.01839 0
M  V30 2527 O 244.854 -4.35579 -3.3005 0
M  V30 2528 H 241.948 -0.637068 -0.527327 0
M  V30 2529 H 244.494 -1.64939 -0.399141 0
M  V30 2530 H 243.266 -3.71136 -1.23992 0
M  V30 2531 H 242.889 -2.88077 -2.74039 0
M  V30 2532 N 243.887 0.651787 -1.4349 0
M  V30 2533 C 245.298 1.233 -1.40193 0
M  V30 2534 C 245.649 1.9591 -0.106727 0
M  V30 2535 O 244.774 2.01316 0.793773 0
M  V30 2536 C 245.369 2.24257 -2.53957 0
M  V30 2537 C 243.928 2.77852 -2.5392 0
M  V30 2538 C 243.075 1.52517 -2.3159 0
M  V30 2539 H 246.026 0.443717 -1.52371 0
M  V30 2540 H 246.047 3.0646 -2.25528 0
M  V30 2541 H 245.559 1.71382 -3.4821 0
M  V30 2542 H 243.66 3.34786 -1.63551 0
M  V30 2543 H 243.773 3.25299 -3.51735 0
M  V30 2544 H 242.137 1.79915 -1.80285 0
M  V30 2545 H 242.92 1.01574 -3.27929 0
M  V30 2546 N 245.365 1.30045 0.890287 0
M  V30 2547 C 246.275 1.17885 2.02831 0
M  V30 2548 C 247.291 0.0999609 1.73713 0
M  V30 2549 O 248.467 0.313867 1.98939 0
M  V30 2550 C 245.532 0.866079 3.35708 0
M  V30 2551 C 244.593 2.02979 3.78283 0
M  V30 2552 C 243.826 1.73184 5.0482 0
M  V30 2553 O 244.049 0.657237 5.66601 0
M  V30 2554 O 242.983 2.58267 5.43674 0
M  V30 2555 H 246.809 2.13474 2.16015 0
M  V30 2556 H 244.394 1.09587 1.01543 0
M  V30 2557 H 246.276 0.706623 4.15433 0
M  V30 2558 H 244.951 -0.0599443 3.23644 0
M  V30 2559 H 243.858 2.24454 2.99285 0
M  V30 2560 H 245.191 2.93734 3.94944 0
M  V30 2561 N 246.843 -1.10192 1.12674 0
M  V30 2562 C 247.773 -2.18652 0.819362 0
M  V30 2563 C 248.754 -1.68698 -0.217915 0
M  V30 2564 O 249.939 -1.94041 -0.0785581 0
M  V30 2565 C 247.069 -3.46202 0.27594 0
M  V30 2566 C 246.023 -4.09444 1.24656 0
M  V30 2567 C 245.349 -5.31725 0.563258 0
M  V30 2568 C 246.649 -4.52863 2.60217 0
M  V30 2569 H 248.343 -2.44622 1.72628 0
M  V30 2570 H 245.889 -1.17571 0.831451 0
M  V30 2571 H 247.842 -4.21372 0.0486149 0
M  V30 2572 H 246.566 -3.1973 -0.666331 0
M  V30 2573 H 245.225 -3.36284 1.45974 0
M  V30 2574 H 244.873 -5.0153 -0.384235 0
M  V30 2575 H 244.573 -5.74991 1.21075 0
M  V30 2576 H 246.097 -6.09624 0.34503 0
M  V30 2577 H 247.511 -5.19294 2.42913 0
M  V30 2578 H 245.908 -5.06986 3.21068 0
M  V30 2579 H 246.978 -3.65656 3.18471 0
M  V30 2580 N 248.321 -0.919034 -1.28029 0
M  V30 2581 C 249.732 -0.600735 -1.76771 0
M  V30 2582 C 250.083 0.884024 -1.75156 0
M  V30 2583 O 249.208 1.69163 -1.34956 0
M  V30 2584 C 249.803 -1.08372 -3.21 0
M  V30 2585 C 248.362 -0.816248 -3.67443 0
M  V30 2586 C 247.509 -1.24742 -2.47658 0
M  V30 2587 H 250.46 -1.09974 -1.14418 0
M  V30 2588 H 250.481 -0.427512 -3.78091 0
M  V30 2589 H 249.993 -2.16437 -3.22144 0
M  V30 2590 H 248.094 0.250968 -3.71754 0
M  V30 2591 H 248.207 -1.4277 -4.57333 0
M  V30 2592 H 246.571 -0.666083 -2.45836 0
M  V30 2593 H 247.354 -2.33653 -2.51518 0
M  V30 2594 N 249.799 1.42003 -0.683588 0
M  V30 2595 C 251.029 2.05448 -0.217866 0
M  V30 2596 C 251.437 1.51491 1.13346 0
M  V30 2597 O 250.78 0.653048 1.717 0
M  V30 2598 C 250.842 3.59399 -0.0850118 0
M  V30 2599 C 250.506 4.36093 -1.36645 0
M  V30 2600 C 251.503 4.66169 -2.30179 0
M  V30 2601 C 249.188 4.75578 -1.61649 0
M  V30 2602 C 251.182 5.34676 -3.46988 0
M  V30 2603 C 248.869 5.43824 -2.78745 0
M  V30 2604 C 249.867 5.73299 -3.71238 0
M  V30 2605 O 249.555 6.40142 -4.86285 0
M  V30 2606 H 249.287 0.668344 -0.101454 0
M  V30 2607 H 251.841 1.82974 -0.933248 0
M  V30 2608 H 250.071 3.80566 0.686031 0
M  V30 2609 H 251.76 4.04457 0.341973 0
M  V30 2610 H 252.526 4.36156 -2.12115 0
M  V30 2611 H 248.405 4.52025 -0.905243 0
M  V30 2612 H 251.949 5.57599 -4.19201 0
M  V30 2613 H 247.846 5.73254 -2.96732 0
M  V30 2614 H 248.614 6.58636 -4.85944 0
M  V30 2615 N 251.277 0.427512 1.51691 0
M  V30 2616 C 252.21 -0.433876 2.24037 0
M  V30 2617 C 253.188 -1.03287 1.25581 0
M  V30 2618 O 254.372 -1.07722 1.54688 0
M  V30 2619 C 251.499 -1.60385 2.98319 0
M  V30 2620 C 250.545 -1.12648 4.11355 0
M  V30 2621 S 251.378 -0.076543 5.35445 0
M  V30 2622 C 252.534 -1.25141 6.13262 0
M  V30 2623 H 252.767 0.180367 2.96752 0
M  V30 2624 H 250.3 0.211946 1.52938 0
M  V30 2625 H 252.258 -2.27462 3.41718 0
M  V30 2626 H 250.919 -2.18948 2.25213 0
M  V30 2627 H 250.112 -2.0011 4.62571 0
M  V30 2628 H 249.714 -0.534088 3.70167 0
M  V30 2629 H 252.006 -2.17162 6.41753 0
M  V30 2630 H 252.949 -0.779411 7.03797 0
M  V30 2631 H 253.357 -1.48553 5.44603 0
M  V30 2632 N 252.755 -1.56801 0.158532 0
M  V30 2633 C 254.171 -1.5837 -0.197774 0
M  V30 2634 C 254.371 -1.17334 -1.63814 0
M  V30 2635 O 253.427 -0.878988 -2.36707 0
M  V30 2636 C 254.74 -3.00615 0.0714459 0
M  V30 2637 C 256.288 -3.12999 0.00864533 0
M  V30 2638 C 256.763 -4.57313 0.250685 0
M  V30 2639 N 258.254 -4.62777 0.198014 0
M  V30 2640 C 258.989 -5.72271 0.359642 0
M  V30 2641 N 258.485 -6.90371 0.579625 0
M  V30 2642 N 260.278 -5.61318 0.296438 0
M  V30 2643 H 252.429 -1.81765 1.09887 0
M  V30 2644 H 254.692 -0.841849 0.435884 0
M  V30 2645 H 254.398 -3.35068 1.06874 0
M  V30 2646 H 254.272 -3.71683 -0.642757 0
M  V30 2647 H 256.659 -2.7838 -0.979217 0
M  V30 2648 H 256.74 -2.44393 0.755359 0
M  V30 2649 H 256.384 -4.92639 1.2357 0
M  V30 2650 H 256.314 -5.24061 -0.516489 0
M  V30 2651 H 258.805 -3.77885 0.0331115 0
M  V30 2652 H 259.118 -7.69689 0.69275 0
M  V30 2653 H 257.463 -6.92264 0.616087 0
M  V30 2654 H 260.654 -4.67932 0.125258 0
M  V30 2655 H 260.827 -6.46599 0.425831 0
M  V30 2656 N 254.233 0.115231 -1.57178 0
M  V30 2657 C 255.644 0.67197 -1.74188 0
M  V30 2658 C 255.995 1.80125 -0.777777 0
M  V30 2659 O 255.12 2.16346 0.0484376 0
M  V30 2660 C 255.715 1.22573 -3.1585 0
M  V30 2661 C 254.274 1.72872 -3.34353 0
M  V30 2662 C 253.421 0.629972 -2.70049 0
M  V30 2663 H 256.372 -0.110712 -1.58313 0
M  V30 2664 H 256.393 2.09535 -3.17609 0
M  V30 2665 H 255.905 0.403598 -3.85996 0
M  V30 2666 H 254.006 2.5755 -2.69256 0
M  V30 2667 H 254.119 1.83557 -4.42542 0
M  V30 2668 H 252.483 1.0645 -2.31388 0
M  V30 2669 H 253.266 -0.181241 -3.42821 0
M  V30 2670 N 255.711 1.52812 0.385517 0
M  V30 2671 C 257.122 1.5993 0.963293 0
M  V30 2672 C 257.473 0.454302 1.90868 0
M  V30 2673 O 256.598 -0.422132 2.12243 0
M  V30 2674 C 257.193 2.89871 1.75387 0
M  V30 2675 C 255.752 2.99389 2.28129 0
M  V30 2676 C 254.899 2.55071 1.08783 0
M  V30 2677 H 257.85 1.5784 0.164948 0
M  V30 2678 H 257.871 2.76553 2.61341 0
M  V30 2679 H 257.383 3.73186 1.06554 0
M  V30 2680 H 255.484 2.20619 3.00263 0
M  V30 2681 H 255.597 4.04096 2.57377 0
M  V30 2682 H 253.961 2.09473 1.4489 0
M  V30 2683 H 254.744 3.40785 0.414807 0
M  V30 2684 N 257.189 -0.644168 1.43834 0
M  V30 2685 C 258.119 -1.76814 1.52509 0
M  V30 2686 C 259.1 -1.65823 0.379052 0
M  V30 2687 O 260.285 -1.84781 0.597466 0
M  V30 2688 C 257.415 -3.15288 1.4564 0
M  V30 2689 C 256.369 -3.41053 2.58586 0
M  V30 2690 C 255.695 -4.79421 2.36769 0
M  V30 2691 C 256.995 -3.34902 4.00797 0
M  V30 2692 H 258.689 -1.69812 2.46586 0
M  V30 2693 H 256.235 -0.815542 1.1868 0
M  V30 2694 H 258.188 -3.93681 1.50311 0
M  V30 2695 H 256.912 -3.23043 0.480725 0
M  V30 2696 H 255.571 -2.65035 2.53282 0
M  V30 2697 H 255.219 -4.83863 1.37424 0
M  V30 2698 H 254.919 -4.9762 3.12487 0
M  V30 2699 H 256.443 -5.6006 2.43238 0
M  V30 2700 H 257.857 -4.03218 4.07539 0
M  V30 2701 H 256.254 -3.64637 4.76613 0
M  V30 2702 H 257.324 -2.32928 4.25291 0
M  V30 2703 N 258.668 -1.30515 -0.883378 0
M  V30 2704 C 259.893 -1.22487 -1.67367 0
M  V30 2705 C 260.318 0.208767 -1.86938 0
M  V30 2706 O 259.676 1.15015 -1.40148 0
M  V30 2707 C 259.724 -1.96041 -3.02655 0
M  V30 2708 O 258.828 -1.28859 -3.91751 0
M  V30 2709 H 258.169 -0.423573 -0.511353 0
M  V30 2710 H 260.699 -1.72362 -1.10239 0
M  V30 2711 H 260.709 -2.05124 -3.52687 0
M  V30 2712 H 259.384 -3.00307 -2.8773 0
M  V30 2713 H 257.961 -1.28141 -3.50192 0
M  V30 2714 N 260.146 1.09593 -1.13257 0
M  V30 2715 C 261.093 2.1618 -0.808381 0
M  V30 2716 C 262.063 1.64517 0.228754 0
M  V30 2717 O 263.248 1.9053 0.101381 0
M  V30 2718 C 260.388 3.43973 -0.278675 0
M  V30 2719 C 259.501 4.09545 -1.37466 0
M  V30 2720 C 258.636 5.25088 -0.803479 0
M  V30 2721 C 257.675 5.82579 -1.87799 0
M  V30 2722 N 256.812 6.89486 -1.32488 0
M  V30 2723 H 261.652 2.43254 -1.72138 0
M  V30 2724 H 259.189 1.19392 -0.859294 0
M  V30 2725 H 261.147 4.17174 0.0465583 0
M  V30 2726 H 259.777 3.17223 0.597459 0
M  V30 2727 H 258.829 3.34226 -1.81652 0
M  V30 2728 H 260.141 4.48307 -2.18684 0
M  V30 2729 H 259.295 6.05178 -0.429427 0
M  V30 2730 H 258.034 4.87684 0.0397956 0
M  V30 2731 H 257.039 5.01152 -2.26113 0
M  V30 2732 H 258.264 6.22045 -2.72463 0
M  V30 2733 H 256.21 6.54064 -0.503575 0
M  V30 2734 H 256.127 7.27007 -2.07355 0
M  V30 2735 H 257.395 7.73336 -0.978336 0
M  V30 2736 N 261.624 0.925811 1.2754 0
M  V30 2737 C 262.534 0.428993 2.30644 0
M  V30 2738 C 263.55 -0.489387 1.66976 0
M  V30 2739 O 264.726 -0.372653 1.97922 0
M  V30 2740 C 261.791 -0.311967 3.45294 0
M  V30 2741 C 260.852 0.641098 4.24486 0
M  V30 2742 C 260.085 -0.0645955 5.33661 0
M  V30 2743 O 260.308 -1.28429 5.55754 0
M  V30 2744 O 259.242 0.606265 5.98839 0
M  V30 2745 H 263.068 1.28504 2.75173 0
M  V30 2746 H 260.653 0.691086 1.32455 0
M  V30 2747 H 262.535 -0.729972 4.15029 0
M  V30 2748 H 261.21 -1.14365 3.02824 0
M  V30 2749 H 260.117 1.10874 3.57292 0
M  V30 2750 H 261.45 1.43995 4.70666 0
M  V30 2751 N 263.102 -1.41638 0.69111 0
M  V30 2752 C 264.032 -2.3347 0.037248 0
M  V30 2753 C 265.013 -1.51575 -0.771947 0
M  V30 2754 O 266.198 -1.80126 -0.72582 0
M  V30 2755 C 263.328 -3.35354 -0.903064 0
M  V30 2756 C 262.282 -4.27526 -0.201288 0
M  V30 2757 C 261.608 -5.19747 -1.25565 0
M  V30 2758 C 262.908 -5.13959 0.929689 0
M  V30 2759 H 264.602 -2.88397 0.804227 0
M  V30 2760 H 262.148 -1.38669 0.388189 0
M  V30 2761 H 264.101 -3.98519 -1.36969 0
M  V30 2762 H 262.825 -2.78767 -1.70166 0
M  V30 2763 H 261.484 -3.65779 0.245265 0
M  V30 2764 H 261.132 -4.59479 -2.04666 0
M  V30 2765 H 260.832 -5.8225 -0.791128 0
M  V30 2766 H 262.356 -5.85789 -1.72288 0
M  V30 2767 H 263.77 -5.70718 0.543546 0
M  V30 2768 H 262.167 -5.85379 1.32103 0
M  V30 2769 H 263.237 -4.51389 1.77133 0
M  V30 2770 N 264.58 -0.43555 -1.51462 0
M  V30 2771 C 265.826 0.123979 -2.03022 0
M  V30 2772 C 266.181 1.4054 -1.31401 0
M  V30 2773 O 265.474 1.86948 -0.419634 0
M  V30 2774 C 265.668 0.39942 -3.55161 0
M  V30 2775 C 265.497 -0.853754 -4.41521 0
M  V30 2776 C 264.267 -1.38675 -4.85898 0
M  V30 2777 C 266.465 -1.73939 -4.83994 0
M  V30 2778 N 264.447 -2.59265 -5.56466 0
M  V30 2779 C 265.818 -2.79135 -5.5361 0
M  V30 2780 C 267.873 -1.75402 -4.65981 0
M  V30 2781 C 266.576 -3.85737 -6.07124 0
M  V30 2782 C 268.602 -2.80938 -5.20411 0
M  V30 2783 C 267.964 -3.84854 -5.89972 0
M  V30 2784 H 264.063 0.00624887 -0.781975 0
M  V30 2785 H 266.647 -0.59582 -1.85359 0
M  V30 2786 H 264.818 1.08825 -3.72843 0
M  V30 2787 H 266.55 0.95015 -3.93388 0
M  V30 2788 H 263.305 -0.94094 -4.64159 0
M  V30 2789 H 263.729 -3.2041 -5.96378 0
M  V30 2790 H 268.371 -0.963926 -4.11665 0
M  V30 2791 H 266.089 -4.65586 -6.60496 0
M  V30 2792 H 269.675 -2.8301 -5.08327 0
M  V30 2793 H 268.555 -4.65176 -6.31333 0
M  V30 2794 N 266.058 1.56714 -0.166846 0
M  V30 2795 C 267.305 1.96747 0.479252 0
M  V30 2796 C 267.633 1.05263 1.63554 0
M  V30 2797 O 266.888 0.0858098 1.95512 0
M  V30 2798 C 267.187 3.42889 1.00806 0
M  V30 2799 C 266.853 4.50889 -0.0318574 0
M  V30 2800 C 265.515 4.8015 -0.317675 0
M  V30 2801 C 267.867 5.15949 -0.737956 0
M  V30 2802 C 265.195 5.71772 -1.31506 0
M  V30 2803 C 267.547 6.08647 -1.72429 0
M  V30 2804 C 266.211 6.36277 -2.0176 0
M  V30 2805 H 265.481 0.719949 0.175371 0
M  V30 2806 H 268.128 1.89756 -0.257864 0
M  V30 2807 H 266.433 3.4681 1.82291 0
M  V30 2808 H 268.13 3.71203 1.51689 0
M  V30 2809 H 264.72 4.28128 0.201088 0
M  V30 2810 H 268.904 4.93458 -0.530351 0
M  V30 2811 H 264.16 5.91465 -1.54853 0
M  V30 2812 H 268.334 6.58129 -2.27682 0
M  V30 2813 H 265.961 7.07075 -2.79194 0
M  V30 2814 N 267.536 -0.106894 1.57237 0
M  V30 2815 C 268.761 -0.830287 1.90055 0
M  V30 2816 C 269.186 -1.72064 0.75998 0
M  V30 2817 O 268.544 -1.78982 -0.288991 0
M  V30 2818 C 268.592 -1.6295 3.21683 0
M  V30 2819 O 267.696 -2.73748 3.08441 0
M  V30 2820 H 267.037 -0.228855 0.623315 0
M  V30 2821 H 269.567 -0.085658 2.04421 0
M  V30 2822 H 269.577 -2.01621 3.54701 0
M  V30 2823 H 268.252 -0.975989 4.04286 0
M  V30 2824 H 266.829 -2.38192 2.86913 0
M  V30 2825 N 269.014 -1.53014 -0.377408 0
M  V30 2826 C 270.291 -1.59215 -1.13622 0
M  V30 2827 C 270.671 -0.392407 -2.07421 0
M  V30 2828 O 270.019 0.618342 -2.19975 0
M  V30 2829 C 270.229 -2.93669 -1.88573 0
M  V30 2830 C 271.577 -3.47822 -2.43526 0
M  V30 2831 O 272.601 -2.9562 -1.98715 0
M  V30 2832 O 271.46 -4.39055 -3.25412 0
M  V30 2833 H 268.554 -0.642625 -0.52054 0
M  V30 2834 H 271.1 -1.65353 -0.381625 0
M  V30 2835 H 269.872 -3.7243 -1.20048 0
M  V30 2836 H 269.495 -2.90968 -2.70968 0
M  V30 2837 N 270.492 0.636531 -1.44174 0
M  V30 2838 C 271.769 1.39463 -1.37148 0
M  V30 2839 C 272.149 2.11082 -0.027507 0
M  V30 2840 O 271.497 2.05954 0.989716 0
M  V30 2841 C 271.707 2.36552 -2.56601 0
M  V30 2842 C 273.055 3.00048 -3.00427 0
M  V30 2843 O 274.079 2.46878 -2.56767 0
M  V30 2844 O 272.938 3.96488 -3.76111 0
M  V30 2845 H 270.032 0.623903 -0.542839 0
M  V30 2846 H 272.578 0.662039 -1.56253 0
M  V30 2847 H 271.35 1.82692 -3.46034 0
M  V30 2848 H 270.973 3.17236 -2.39681 0
M  V30 2849 N 271.97 1.30982 0.876444 0
M  V30 2850 C 273.381 1.18277 1.44456 0
M  V30 2851 C 273.732 -0.213265 1.95037 0
M  V30 2852 O 272.857 -1.11057 1.85729 0
M  V30 2853 C 273.452 2.1411 2.62569 0
M  V30 2854 C 272.011 2.05358 3.15444 0
M  V30 2855 C 271.158 2.03706 1.88146 0
M  V30 2856 H 274.109 1.43127 0.685584 0
M  V30 2857 H 274.13 1.72692 3.39054 0
M  V30 2858 H 273.642 3.15706 2.25724 0
M  V30 2859 H 271.743 1.06934 3.56926 0
M  V30 2860 H 271.856 2.94156 3.78166 0
M  V30 2861 H 270.22 1.48629 2.06837 0
M  V30 2862 H 271.003 3.07047 1.53547 0
M  V30 2863 N 273.449 -1.08991 1.13837 0
M  V30 2864 C 274.397 -2.17841 0.815347 0
M  V30 2865 C 275.391 -1.68164 -0.204233 0
M  V30 2866 O 276.597 -1.79897 -0.0609304 0
M  V30 2867 H 272.972 -0.710654 0.245915 0
M  V30 2868 H 274.943 -2.42315 1.74143 0
M  V30 2869 C 273.692 -3.46381 0.302614 0
M  V30 2870 H 273.015 -3.84979 1.0785 0
M  V30 2871 H 274.455 -4.23844 0.115074 0
M  V30 2872 C 272.914 -3.22556 -0.972591 0
M  V30 2873 O 273.444 -3.45599 -2.04754 0
M  V30 2874 N 271.65 -2.76134 -0.905455 0
M  V30 2875 H 271.197 -2.57582 -0.0305421 0
M  V30 2876 H 271.155 -2.60571 -1.75926 0
M  V30 2877 N 274.927 -0.932562 -1.27047 0
M  V30 2878 C 276.173 -0.576412 -1.94436 0
M  V30 2879 C 276.506 0.880891 -1.73072 0
M  V30 2880 O 275.781 1.62905 -1.06264 0
M  V30 2881 C 276.064 -0.909031 -3.48437 0
M  V30 2882 C 275.917 -2.42044 -3.79123 0
M  V30 2883 C 277.236 -0.418341 -4.38107 0
M  V30 2884 H 274.355 -0.210888 -0.706184 0
M  V30 2885 H 276.997 -1.16522 -1.50075 0
M  V30 2886 H 275.147 -0.407947 -3.86352 0
M  V30 2887 H 276.819 -2.99359 -3.50973 0
M  V30 2888 H 275.062 -2.86758 -3.25503 0
M  V30 2889 H 275.733 -2.6037 -4.86736 0
M  V30 2890 H 278.209 -0.847856 -4.0737 0
M  V30 2891 H 277.085 -0.679981 -5.44672 0
M  V30 2892 H 277.346 0.681642 -4.36814 0
M  V30 2893 N 276.405 1.4127 -0.698611 0
M  V30 2894 C 277.633 2.05503 -0.239992 0
M  V30 2895 C 278.048 1.52584 1.11191 0
M  V30 2896 O 277.405 0.675323 1.69545 0
M  V30 2897 C 277.456 3.60987 -0.192429 0
M  V30 2898 O 277.177 4.1195 -1.49094 0
M  V30 2899 C 278.678 4.42371 0.28681 0
M  V30 2900 H 275.898 0.661748 -0.111045 0
M  V30 2901 H 278.442 1.80987 -0.95205 0
M  V30 2902 H 276.597 3.84533 0.470472 0
M  V30 2903 H 277.011 5.06018 -1.38007 0
M  V30 2904 H 278.485 5.51344 0.26896 0
M  V30 2905 H 278.962 4.18699 1.32619 0
M  V30 2906 H 279.568 4.23897 -0.345201 0
M  V30 2907 N 277.883 0.443576 1.51229 0
M  V30 2908 C 278.83 -0.364716 2.279 0
M  V30 2909 C 279.8 -1.0114 1.31757 0
M  V30 2910 O 280.985 -1.02912 1.60667 0
M  V30 2911 C 278.125 -1.45644 3.12861 0
M  V30 2912 C 277.238 -0.827269 4.24005 0
M  V30 2913 C 276.373 -1.89456 4.96266 0
M  V30 2914 C 275.412 -1.24416 5.99322 0
M  V30 2915 N 274.549 -2.25309 6.64966 0
M  V30 2916 H 279.389 0.295464 2.96532 0
M  V30 2917 H 276.926 0.157554 1.46254 0
M  V30 2918 H 278.884 -2.10076 3.6045 0
M  V30 2919 H 277.514 -2.08616 2.46331 0
M  V30 2920 H 276.566 -0.0710839 3.80334 0
M  V30 2921 H 277.878 -0.312481 4.9782 0
M  V30 2922 H 277.032 -2.61535 5.47434 0
M  V30 2923 H 275.771 -2.4431 4.22095 0
M  V30 2924 H 274.776 -0.508868 5.4744 0
M  V30 2925 H 276.001 -0.702882 6.75453 0
M  V30 2926 H 273.947 -2.79231 5.93604 0
M  V30 2927 H 273.864 -1.78739 7.34567 0
M  V30 2928 H 275.132 -2.96853 7.20763 0
M  V30 2929 N 279.361 -1.56624 0.175154 0
M  V30 2930 C 280.589 -2.01374 -0.474971 0
M  V30 2931 C 281.004 -1.05537 -1.56548 0
M  V30 2932 O 280.361 -0.0568668 -1.82411 0
M  V30 2933 C 280.412 -3.45923 -1.04975 0
M  V30 2934 O 280.133 -4.381 -0.00276605 0
M  V30 2935 C 281.634 -4.06093 -1.77773 0
M  V30 2936 H 278.854 -0.659962 -0.121206 0
M  V30 2937 H 281.398 -2.02601 0.27801 0
M  V30 2938 H 279.553 -3.45458 -1.75321 0
M  V30 2939 H 279.967 -5.22753 -0.427681 0
M  V30 2940 H 281.441 -5.09147 -2.13245 0
M  V30 2941 H 281.918 -3.48405 -2.67414 0
M  V30 2942 H 282.524 -4.10272 -1.12059 0
M  V30 2943 N 280.839 0.0985539 -1.57292 0
M  V30 2944 C 281.769 1.12064 -2.04851 0
M  V30 2945 C 282.75 1.41981 -0.936767 0
M  V30 2946 O 283.935 1.52071 -1.20781 0
M  V30 2947 C 281.065 2.44144 -2.47004 0
M  V30 2948 C 280.019 2.28643 -3.6181 0
M  V30 2949 C 279.345 3.65869 -3.89929 0
M  V30 2950 C 280.645 1.72986 -4.92822 0
M  V30 2951 H 282.339 0.724979 -2.9049 0
M  V30 2952 H 279.885 0.34729 -1.39749 0
M  V30 2953 H 281.838 3.15914 -2.78884 0
M  V30 2954 H 280.562 2.85639 -1.5836 0
M  V30 2955 H 279.221 1.59318 -3.30172 0
M  V30 2956 H 278.869 4.04885 -2.98458 0
M  V30 2957 H 278.569 3.56344 -4.67218 0
M  V30 2958 H 280.093 4.39112 -4.2428 0
M  V30 2959 H 281.507 2.34593 -5.23105 0
M  V30 2960 H 279.904 1.74229 -5.74251 0
M  V30 2961 H 280.974 0.689007 -4.7998 0
M  V30 2962 N 282.317 1.53212 0.369288 0
M  V30 2963 C 283.733 1.42902 0.710712 0
M  V30 2964 C 283.933 0.565135 1.93413 0
M  V30 2965 O 282.989 0.0461484 2.52458 0
M  V30 2966 C 284.302 2.86042 0.927382 0
M  V30 2967 C 285.85 2.9565 1.02762 0
M  V30 2968 C 286.325 4.39843 1.27679 0
M  V30 2969 N 287.816 4.43256 1.34457 0
M  V30 2970 C 288.551 5.51929 1.55439 0
M  V30 2971 N 288.047 6.70655 1.73762 0
M  V30 2972 N 289.84 5.39502 1.57779 0
M  V30 2973 H 281.991 2.07888 -0.435457 0
M  V30 2974 H 284.254 0.938661 -0.132739 0
M  V30 2975 H 283.96 3.51557 0.100287 0
M  V30 2976 H 283.834 3.29472 1.83653 0
M  V30 2977 H 286.221 2.30291 1.84527 0
M  V30 2978 H 286.302 2.5562 0.0959504 0
M  V30 2979 H 285.946 5.05774 0.464175 0
M  V30 2980 H 285.876 4.77443 2.22162 0
M  V30 2981 H 288.367 3.5769 1.21926 0
M  V30 2982 H 288.68 7.49248 1.89335 0
M  V30 2983 H 287.025 6.73648 1.70948 0
M  V30 2984 H 290.216 4.45713 1.43029 0
M  V30 2985 H 290.389 6.2426 1.7379 0
M  V30 2986 N 283.795 -0.628877 1.44509 0
M  V30 2987 C 285.042 -1.38839 1.47411 0
M  V30 2988 C 285.37 -1.94202 0.10757 0
M  V30 2989 O 284.625 -1.74243 -0.890947 0
M  V30 2990 C 284.924 -2.56995 2.48371 0
M  V30 2991 C 284.59 -2.19908 3.93639 0
M  V30 2992 C 283.252 -2.09506 4.33198 0
M  V30 2993 C 285.604 -1.9064 4.85083 0
M  V30 2994 C 282.932 -1.68028 5.62124 0
M  V30 2995 C 285.284 -1.50655 6.14399 0
M  V30 2996 C 283.948 -1.38796 6.5291 0
M  V30 2997 H 283.218 -0.508048 0.539414 0
M  V30 2998 H 285.865 -0.712913 1.77735 0
M  V30 2999 H 284.17 -3.29786 2.11538 0
M  V30 3000 H 285.867 -3.15223 2.47861 0
M  V30 3001 H 282.457 -2.28922 3.62343 0
M  V30 3002 H 286.641 -1.97585 4.55273 0
M  V30 3003 H 281.897 -1.57452 5.90778 0
M  V30 3004 H 286.071 -1.27048 6.84713 0
M  V30 3005 H 283.698 -1.06429 7.52713 0
M  V30 3006 N 285.273 -1.31445 -0.869486 0
M  V30 3007 C 286.22 -1.19135 -1.97675 0
M  V30 3008 C 287.19 -0.0770266 -1.65921 0
M  V30 3009 O 288.375 -0.249972 -1.89155 0
M  V30 3010 C 285.515 -0.905149 -3.33018 0
M  V30 3011 C 284.628 -2.10285 -3.77365 0
M  V30 3012 C 283.763 -1.75339 -5.01427 0
M  V30 3013 C 282.802 -2.91515 -5.38224 0
M  V30 3014 N 281.939 -2.56762 -6.53466 0
M  V30 3015 H 286.779 -2.13853 -2.07535 0
M  V30 3016 H 284.316 -1.06379 -1.01597 0
M  V30 3017 H 286.274 -0.719765 -4.10944 0
M  V30 3018 H 284.904 0.00519624 -3.228 0
M  V30 3019 H 283.956 -2.39899 -2.95216 0
M  V30 3020 H 285.268 -2.97237 -4.00564 0
M  V30 3021 H 284.422 -1.53266 -5.87022 0
M  V30 3022 H 283.161 -0.855801 -4.80133 0
M  V30 3023 H 282.166 -3.14237 -4.51149 0
M  V30 3024 H 283.391 -3.81985 -5.61484 0
M  V30 3025 H 281.337 -1.69526 -6.33717 0
M  V30 3026 H 281.254 -3.37243 -6.76612 0
M  V30 3027 H 282.522 -2.38083 -7.42251 0
M  V30 3028 N 286.751 1.08385 -1.14413 0
M  V30 3029 C 287.683 2.1519 -0.789036 0
M  V30 3030 C 288.696 1.61638 0.19417 0
M  V30 3031 O 289.885 1.78479 -0.0275711 0
M  V30 3032 C 286.985 3.38565 -0.15058 0
M  V30 3033 C 286.158 4.21501 -1.16857 0
M  V30 3034 C 285.217 5.23277 -0.553832 0
M  V30 3035 O 284.243 5.56041 -1.21686 0
M  V30 3036 N 285.445 5.76629 0.669296 0
M  V30 3037 H 288.21 2.46257 -1.70814 0
M  V30 3038 H 285.771 1.24198 -1.03858 0
M  V30 3039 H 287.763 4.03777 0.273181 0
M  V30 3040 H 286.333 3.05299 0.671667 0
M  V30 3041 H 285.553 3.52265 -1.76926 0
M  V30 3042 H 286.841 4.73731 -1.85624 0
M  V30 3043 H 286.239 5.52243 1.22654 0
M  V30 3044 H 284.796 6.43521 1.03556 0
M  V30 3045 N 288.23 0.939286 1.26551 0
M  V30 3046 C 289.476 0.596234 1.94465 0
M  V30 3047 C 289.831 -0.855013 1.72358 0
M  V30 3048 O 289.124 -1.6034 1.04889 0
M  V30 3049 C 289.318 0.872106 3.46596 0
M  V30 3050 C 289.147 2.34862 3.83497 0
M  V30 3051 C 287.917 3.00344 4.06352 0
M  V30 3052 C 290.115 3.32697 3.92195 0
M  V30 3053 N 288.097 4.38027 4.30123 0
M  V30 3054 C 289.468 4.55631 4.20476 0
M  V30 3055 C 291.523 3.27747 3.74815 0
M  V30 3056 C 290.226 5.74233 4.33185 0
M  V30 3057 C 292.252 4.45672 3.88755 0
M  V30 3058 C 291.614 5.67388 4.17433 0
M  V30 3059 H 287.713 0.268515 0.734455 0
M  V30 3060 H 290.297 1.2083 1.5267 0
M  V30 3061 H 288.468 0.289102 3.87323 0
M  V30 3062 H 290.2 0.490513 4.01716 0
M  V30 3063 H 286.955 2.50969 4.01636 0
M  V30 3064 H 287.379 5.09288 4.46044 0
M  V30 3065 H 292.021 2.34703 3.51673 0
M  V30 3066 H 289.739 6.67731 4.55149 0
M  V30 3067 H 293.325 4.43372 3.76713 0
M  V30 3068 H 292.205 6.57115 4.27983 0
M  V30 3069 N 289.708 -1.40897 0.706093 0
M  V30 3070 C 290.656 -2.32572 0.0361893 0
M  V30 3071 C 291.65 -1.51532 -0.757266 0
M  V30 3072 O 292.856 -1.67396 -0.661703 0
M  V30 3073 H 289.231 -0.751966 -0.00709935 0
M  V30 3074 H 291.202 -2.86733 0.826249 0
M  V30 3075 C 289.951 -3.36418 -0.87854 0
M  V30 3076 H 289.274 -3.98836 -0.277401 0
M  V30 3077 H 290.714 -4.0308 -1.3154 0
M  V30 3078 C 289.173 -2.71141 -1.99961 0
M  V30 3079 O 289.703 -2.56735 -3.0895 0
M  V30 3080 N 287.909 -2.29671 -1.78043 0
M  V30 3081 H 287.456 -2.41588 -0.894042 0
M  V30 3082 H 287.414 -1.86332 -2.53235 0
M  V30 3083 N 291.186 -0.45159 -1.50991 0
M  V30 3084 C 292.434 0.109857 -2.01801 0
M  V30 3085 C 292.755 1.41958 -1.3369 0
M  V30 3086 O 292.025 1.9003 -0.475951 0
M  V30 3087 H 290.605 0.0435884 -0.745727 0
M  V30 3088 H 293.267 -0.597557 -1.85514 0
M  V30 3089 H 292.363 0.275489 -3.10882 0
M  V30 3090 N 292.664 1.56529 -0.183458 0
M  V30 3091 C 293.611 2.18546 0.742055 0
M  V30 3092 C 294.581 1.12912 1.2182 0
M  V30 3093 O 295.766 1.41115 1.28418 0
M  V30 3094 C 292.906 2.83977 1.96089 0
M  V30 3095 C 292.019 4.04105 1.52719 0
M  V30 3096 C 291.154 4.57427 2.70063 0
M  V30 3097 C 290.193 5.69938 2.23243 0
M  V30 3098 N 289.33 6.17717 3.33722 0
M  V30 3099 H 294.17 2.97284 0.206432 0
M  V30 3100 H 291.707 1.46823 0.0901571 0
M  V30 3101 H 293.665 3.20077 2.67594 0
M  V30 3102 H 292.295 2.07822 2.47002 0
M  V30 3103 H 291.347 3.73745 0.708436 0
M  V30 3104 H 292.659 4.85513 1.1436 0
M  V30 3105 H 291.813 4.95772 3.49708 0
M  V30 3106 H 290.552 3.75101 3.11689 0
M  V30 3107 H 289.557 5.31133 1.42048 0
M  V30 3108 H 290.782 6.54073 1.82661 0
M  V30 3109 H 288.728 5.38317 3.74902 0
M  V30 3110 H 288.645 6.94146 2.99495 0
M  V30 3111 H 289.913 6.60713 4.13616 0
M  V30 3112 N 294.142 -0.090211 1.57342 0
M  V30 3113 C 295.052 -1.12735 2.05738 0
M  V30 3114 C 296.068 -1.43557 0.983231 0
M  V30 3115 O 297.244 -1.54101 1.29672 0
M  V30 3116 C 294.309 -2.42659 2.47624 0
M  V30 3117 C 293.37 -2.18975 3.69254 0
M  V30 3118 C 292.603 -3.42704 4.09133 0
M  V30 3119 O 292.826 -4.51127 3.49057 0
M  V30 3120 O 291.76 -3.32003 5.02053 0
M  V30 3121 H 295.586 -0.746279 2.94388 0
M  V30 3122 H 293.171 -0.303064 1.46294 0
M  V30 3123 H 295.053 -3.19155 2.7517 0
M  V30 3124 H 293.728 -2.80182 1.62109 0
M  V30 3125 H 292.635 -1.40244 3.46818 0
M  V30 3126 H 293.968 -1.86342 4.55563 0
M  V30 3127 N 295.62 -1.53406 -0.361157 0
M  V30 3128 C 297.036 -1.43277 -0.703124 0
M  V30 3129 C 297.236 -0.575384 -1.9311 0
M  V30 3130 O 296.292 -0.0595362 -2.5243 0
M  V30 3131 C 297.605 -2.8653 -0.9122 0
M  V30 3132 C 299.153 -2.96191 -1.01193 0
M  V30 3133 C 299.628 -4.40514 -1.25345 0
M  V30 3134 N 301.119 -4.43962 -1.32105 0
M  V30 3135 C 301.854 -5.52746 -1.5251 0
M  V30 3136 N 301.35 -6.71567 -1.70203 0
M  V30 3137 N 303.143 -5.40331 -1.54916 0
M  V30 3138 H 295.294 -2.07654 0.446475 0
M  V30 3139 H 297.557 -0.937944 0.137715 0
M  V30 3140 H 297.263 -3.51605 -0.0816414 0
M  V30 3141 H 297.137 -3.30441 -1.81903 0
M  V30 3142 H 299.524 -2.31266 -1.83303 0
M  V30 3143 H 299.605 -2.55667 -0.0823929 0
M  V30 3144 H 299.249 -5.06014 -0.437346 0
M  V30 3145 H 299.179 -4.78614 -2.19627 0
M  V30 3146 H 301.67 -3.58332 -1.20028 0
M  V30 3147 H 301.983 -7.50241 -1.85359 0
M  V30 3148 H 300.328 -6.74545 -1.67373 0
M  V30 3149 H 303.519 -4.46465 -1.40663 0
M  V30 3150 H 303.692 -6.25173 -1.70477 0
M  V30 3151 N 297.098 0.621204 -1.44841 0
M  V30 3152 C 298.323 1.41244 -1.51871 0
M  V30 3153 C 298.748 1.87519 -0.147764 0
M  V30 3154 O 298.106 1.59334 0.865 0
M  V30 3155 C 298.154 2.60221 -2.49634 0
M  V30 3156 O 297.258 3.60395 -2.00473 0
M  V30 3157 H 296.599 0.42223 -0.512463 0
M  V30 3158 H 299.129 0.757305 -1.90069 0
M  V30 3159 H 299.139 3.0764 -2.67996 0
M  V30 3160 H 297.814 2.25887 -3.4921 0
M  V30 3161 H 296.391 3.19717 -1.91925 0
M  V30 3162 N 298.576 1.31904 0.862503 0
M  V30 3163 C 299.825 1.21373 1.61094 0
M  V30 3164 C 300.138 -0.22504 1.94301 0
M  V30 3165 O 301.344 -0.452121 2.67709 0
M  V30 3166 C 299.8 2.12525 2.9045 0
M  V30 3167 C 299.408 3.61441 2.64697 0
M  V30 3168 C 301.152 2.10813 3.68454 0
M  V30 3169 C 299.059 4.44578 3.90006 0
M  V30 3170 H 297.989 0.450705 0.604468 0
M  V30 3171 H 300.64 1.56811 0.953027 0
M  V30 3172 H 299.022 1.69994 3.57656 0
M  V30 3173 H 300.196 4.12264 2.05851 0
M  V30 3174 H 298.511 3.65205 2.00036 0
M  V30 3175 H 301.108 2.70167 4.61426 0
M  V30 3176 H 301.451 1.09713 4.01583 0
M  V30 3177 H 301.984 2.51583 3.08141 0
M  V30 3178 H 298.723 5.46461 3.62023 0
M  V30 3179 H 298.243 3.98508 4.48276 0
M  V30 3180 H 299.922 4.57176 4.5782 0
M  V30 3181 N 300.054 -1.07777 1.14986 0
M  V30 3182 C 301.284 -1.83752 0.944402 0
M  V30 3183 C 301.692 -1.8218 -0.51058 0
M  V30 3184 O 301.035 -1.22852 -1.36576 0
M  V30 3185 C 301.097 -3.32128 1.37592 0
M  V30 3186 C 300.761 -3.57425 2.84775 0
M  V30 3187 C 301.758 -3.5173 3.8286 0
M  V30 3188 C 299.443 -3.8523 3.2234 0
M  V30 3189 C 301.437 -3.73482 5.16517 0
M  V30 3190 C 299.124 -4.06634 4.56171 0
M  V30 3191 C 300.122 -4.00754 5.53069 0
M  V30 3192 O 299.81 -4.2159 6.84483 0
M  V30 3193 H 299.542 -0.58673 0.335744 0
M  V30 3194 H 302.096 -1.36982 1.53052 0
M  V30 3195 H 300.326 -3.79686 0.733165 0
M  V30 3196 H 302.015 -3.89555 1.14024 0
M  V30 3197 H 302.781 -3.30256 3.55184 0
M  V30 3198 H 298.66 -3.88923 2.47508 0
M  V30 3199 H 302.204 -3.68808 5.92137 0
M  V30 3200 H 298.101 -4.27593 4.83564 0
M  V30 3201 H 298.869 -4.38961 6.90837 0
M  V30 3202 N 301.532 -0.945985 -1.26051 0
M  V30 3203 C 302.779 -0.596118 -1.93527 0
M  V30 3204 C 303.107 0.865559 -1.74179 0
M  V30 3205 O 302.362 1.63524 -1.0751 0
M  V30 3206 C 302.661 -0.890475 -3.46129 0
M  V30 3207 C 302.327 -2.3368 -3.85622 0
M  V30 3208 C 300.989 -2.73216 -3.96114 0
M  V30 3209 C 303.341 -3.27648 -4.05334 0
M  V30 3210 C 300.669 -4.05806 -4.2372 0
M  V30 3211 C 303.021 -4.59841 -4.3443 0
M  V30 3212 C 301.685 -4.99185 -4.43137 0
M  V30 3213 H 300.955 -0.218135 -0.708165 0
M  V30 3214 H 303.602 -1.1934 -1.49768 0
M  V30 3215 H 301.907 -0.210711 -3.91233 0
M  V30 3216 H 303.604 -0.598478 -3.96509 0
M  V30 3217 H 300.194 -2.02015 -3.78005 0
M  V30 3218 H 304.378 -2.98298 -3.96651 0
M  V30 3219 H 299.634 -4.35945 -4.28675 0
M  V30 3220 H 303.808 -5.32641 -4.48628 0
M  V30 3221 H 301.435 -6.01952 -4.64282 0
M  V30 3222 N 303.011 1.40521 -0.713556 0
M  V30 3223 C 303.943 2.29191 -0.0203126 0
M  V30 3224 C 304.956 1.45723 0.725864 0
M  V30 3225 O 306.145 1.69033 0.573581 0
M  V30 3226 C 303.245 3.2395 0.995486 0
M  V30 3227 C 302.418 4.36262 0.315256 0
M  V30 3228 C 301.477 5.11474 1.23616 0
M  V30 3229 O 300.503 5.64606 0.721719 0
M  V30 3230 N 301.705 5.20638 2.56743 0
M  V30 3231 H 304.47 2.89327 -0.781652 0
M  V30 3232 H 302.031 1.51869 -0.561022 0
M  V30 3233 H 304.023 3.71137 1.61368 0
M  V30 3234 H 302.593 2.64995 1.6582 0
M  V30 3235 H 301.813 3.91228 -0.483106 0
M  V30 3236 H 303.101 5.08558 -0.157004 0
M  V30 3237 H 302.499 4.7895 3.01037 0
M  V30 3238 H 301.056 5.71339 3.13712 0
M  V30 3239 N 304.489 0.459591 1.5075 0
M  V30 3240 C 305.9 0.00171547 1.867 0
M  V30 3241 C 306.251 -1.39934 1.37525 0
M  V30 3242 O 305.376 -2.03523 0.735349 0
M  V30 3243 C 305.971 -0.00366298 3.388 0
M  V30 3244 C 304.53 -0.406026 3.74204 0
M  V30 3245 C 303.677 0.38673 2.7459 0
M  V30 3246 H 306.628 0.674413 1.43657 0
M  V30 3247 H 306.649 -0.808371 3.71814 0
M  V30 3248 H 306.161 1.01617 3.74561 0
M  V30 3249 H 304.262 -1.43063 3.4404 0
M  V30 3250 H 304.375 -0.115362 4.78961 0
M  V30 3251 H 302.739 -0.158019 2.54209 0
M  V30 3252 H 303.522 1.40585 3.13194 0
M  V30 3253 N 305.967 -1.56429 0.191757 0
M  V30 3254 C 307.378 -1.83912 -0.321428 0
M  V30 3255 C 307.729 -1.11231 -1.61623 0
M  V30 3256 O 306.854 -0.37202 -2.13178 0
M  V30 3257 C 307.449 -3.33624 -0.589961 0
M  V30 3258 C 306.008 -3.6153 -1.04753 0
M  V30 3259 C 305.155 -2.7714 -0.0943327 0
M  V30 3260 H 308.106 -1.53161 0.415612 0
M  V30 3261 H 308.127 -3.52213 -1.43966 0
M  V30 3262 H 307.639 -3.86495 0.352588 0
M  V30 3263 H 305.74 -3.14089 -2.00447 0
M  V30 3264 H 305.853 -4.69737 -0.942549 0
M  V30 3265 H 304.217 -2.47638 -0.595589 0
M  V30 3266 H 305 -3.32799 0.842601 0
M  V30 3267 N 307.445 0.0818655 -1.57387 0
M  V30 3268 C 308.67 0.799946 -1.91352 0
M  V30 3269 C 309.095 1.70833 -0.787258 0
M  V30 3270 O 308.453 1.79419 0.26048 0
M  V30 3271 C 308.501 1.57812 -3.24234 0
M  V30 3272 O 307.605 2.68806 -3.12757 0
M  V30 3273 H 306.946 0.21891 -0.626877 0
M  V30 3274 H 309.476 0.0531256 -2.04531 0
M  V30 3275 H 309.486 1.95952 -3.57864 0
M  V30 3276 H 308.161 0.911548 -4.05788 0
M  V30 3277 H 306.738 2.33597 -2.90666 0
M  V30 3278 N 308.923 1.53595 0.353017 0
M  V30 3279 C 310.17 1.70385 1.09431 0
M  V30 3280 C 310.498 0.462113 1.88931 0
M  V30 3281 O 309.753 -0.556074 1.87633 0
M  V30 3282 C 310.052 2.91313 2.07054 0
M  V30 3283 C 309.718 4.27308 1.43939 0
M  V30 3284 C 308.38 4.64287 1.26454 0
M  V30 3285 C 310.732 5.11829 0.983883 0
M  V30 3286 C 308.06 5.83412 0.620226 0
M  V30 3287 C 310.412 6.31611 0.353516 0
M  V30 3288 C 309.076 6.67293 0.166272 0
M  V30 3289 H 308.346 0.623484 0.400436 0
M  V30 3290 H 310.993 1.87799 0.374655 0
M  V30 3291 H 309.298 2.68463 2.85368 0
M  V30 3292 H 310.995 3.01497 2.64387 0
M  V30 3293 H 307.585 3.98198 1.58543 0
M  V30 3294 H 311.769 4.838 1.10685 0
M  V30 3295 H 307.025 6.09639 0.463681 0
M  V30 3296 H 311.199 6.964 -0.00757555 0
M  V30 3297 H 308.826 7.59461 -0.335047 0
M  V30 3298 N 310.401 -0.613514 1.45168 0
M  V30 3299 C 311.631 -1.39743 1.52169 0
M  V30 3300 C 312.039 -1.88596 0.151086 0
M  V30 3301 O 311.382 -1.6251 -0.856521 0
M  V30 3302 C 311.444 -2.64035 2.43979 0
M  V30 3303 C 311.108 -2.36861 3.90827 0
M  V30 3304 C 312.105 -1.97591 4.80889 0
M  V30 3305 C 309.79 -2.49956 4.35692 0
M  V30 3306 C 311.784 -1.71768 6.1382 0
M  V30 3307 C 309.471 -2.23747 5.68665 0
M  V30 3308 C 310.469 -1.84714 6.57548 0
M  V30 3309 O 310.157 -1.58809 7.88058 0
M  V30 3310 H 309.889 -0.434382 0.517966 0
M  V30 3311 H 312.443 -0.75587 1.90986 0
M  V30 3312 H 310.673 -3.3089 2.00122 0
M  V30 3313 H 312.362 -3.26069 2.41731 0
M  V30 3314 H 313.128 -1.87015 4.47493 0
M  V30 3315 H 309.007 -2.79305 3.66756 0
M  V30 3316 H 312.551 -1.41227 6.83155 0
M  V30 3317 H 308.448 -2.33938 6.01617 0
M  V30 3318 H 309.216 -1.7291 8.00028 0
M  V30 3319 N 311.879 -1.3236 -0.855495 0
M  V30 3320 C 313.125 -1.23054 -1.612 0
M  V30 3321 C 313.458 0.207404 -1.93089 0
M  V30 3322 O 312.733 1.14432 -1.57275 0
M  V30 3323 C 313.016 -2.08937 -2.93287 0
M  V30 3324 C 312.869 -3.61105 -2.68185 0
M  V30 3325 C 314.188 -1.94986 -3.94549 0
M  V30 3326 H 311.307 -0.448364 -0.584926 0
M  V30 3327 H 313.949 -1.62297 -0.987917 0
M  V30 3328 H 312.099 -1.75599 -3.46551 0
M  V30 3329 H 313.771 -4.04652 -2.21483 0
M  V30 3330 H 312.014 -3.83813 -2.02164 0
M  V30 3331 H 312.685 -4.16522 -3.62234 0
M  V30 3332 H 315.161 -2.24189 -3.5054 0
M  V30 3333 H 314.037 -2.57356 -4.84829 0
M  V30 3334 H 314.298 -0.917263 -4.3248 0
M  V30 3335 N 313.357 1.07166 -1.15556 0
M  V30 3336 C 314.582 1.84053 -0.955988 0
M  V30 3337 C 315.007 1.81586 0.490739 0
M  V30 3338 O 314.365 1.21018 1.34997 0
M  V30 3339 C 314.413 3.28957 -1.47714 0
M  V30 3340 O 313.517 4.06795 -0.677593 0
M  V30 3341 H 312.858 0.569842 -0.340847 0
M  V30 3342 H 315.388 1.35178 -1.53584 0
M  V30 3343 H 315.398 3.79788 -1.4908 0
M  V30 3344 H 314.073 3.30068 -2.53037 0
M  V30 3345 H 312.65 3.6561 -0.733721 0
M  V30 3346 N 314.835 0.952656 1.25548 0
M  V30 3347 C 315.798 0.475794 2.24207 0
M  V30 3348 C 316.798 -0.419428 1.55234 0
M  V30 3349 O 317.988 -0.216994 1.72843 0
M  V30 3350 C 315.12 -0.312814 3.39462 0
M  V30 3351 H 316.313 1.34779 2.67908 0
M  V30 3352 H 313.866 0.735739 1.37901 0
M  V30 3353 H 314.601 -1.20257 3.01179 0
M  V30 3354 H 314.386 0.329404 3.90714 0
M  V30 3355 H 315.876 -0.635986 4.12729 0
M  V30 3356 N 316.313 -1.40141 0.720998 0
M  V30 3357 C 317.245 -2.29177 0.0324669 0
M  V30 3358 C 318.258 -1.46105 -0.718126 0
M  V30 3359 O 319.447 -1.69335 -0.564608 0
M  V30 3360 C 316.547 -3.24473 -0.978292 0
M  V30 3361 C 315.72 -4.36423 -0.292115 0
M  V30 3362 C 314.779 -5.12122 -1.20901 0
M  V30 3363 O 313.805 -5.64981 -0.691766 0
M  V30 3364 N 315.007 -5.21992 -2.53978 0
M  V30 3365 H 317.772 -2.88909 0.796984 0
M  V30 3366 H 315.333 -1.51569 0.569068 0
M  V30 3367 H 317.325 -3.71987 -1.59398 0
M  V30 3368 H 315.895 -2.65871 -1.64413 0
M  V30 3369 H 315.115 -3.90967 0.503847 0
M  V30 3370 H 316.403 -5.08467 0.183971 0
M  V30 3371 H 315.801 -4.8054 -2.98493 0
M  V30 3372 H 314.358 -5.72995 -3.10677 0
M  V30 3373 N 317.792 -0.46758 -1.50504 0
M  V30 3374 C 319.069 0.15003 -1.95024 0
M  V30 3375 C 319.449 1.57304 -1.40779 0
M  V30 3376 O 318.797 2.20281 -0.607319 0
M  V30 3377 C 319.007 0.0969324 -3.48865 0
M  V30 3378 C 320.355 0.287565 -4.23625 0
M  V30 3379 O 321.379 0.173678 -3.55776 0
M  V30 3380 O 320.238 0.517186 -5.44047 0
M  V30 3381 H 317.332 0.113582 -0.819163 0
M  V30 3382 H 319.878 -0.52773 -1.61286 0
M  V30 3383 H 318.65 -0.896732 -3.80886 0
M  V30 3384 H 318.273 0.816303 -3.8913 0
M  V30 3385 N 319.27 1.56325 -0.20005 0
M  V30 3386 C 320.2 2.22318 0.713916 0
M  V30 3387 C 321.181 1.18788 1.21752 0
M  V30 3388 O 322.366 1.47309 1.26545 0
M  V30 3389 C 319.496 2.88639 1.93144 0
M  V30 3390 C 318.45 3.98457 1.56255 0
M  V30 3391 C 317.776 4.51967 2.85709 0
M  V30 3392 C 319.076 5.16612 0.768747 0
M  V30 3393 H 320.77 2.98952 0.163755 0
M  V30 3394 H 318.316 1.43792 0.0773219 0
M  V30 3395 H 320.269 3.33491 2.57608 0
M  V30 3396 H 318.993 2.09419 2.50621 0
M  V30 3397 H 317.652 3.54305 0.941471 0
M  V30 3398 H 317.3 3.69503 3.41287 0
M  V30 3399 H 317 5.26071 2.6177 0
M  V30 3400 H 318.524 4.99523 3.51154 0
M  V30 3401 H 319.938 5.57977 1.3166 0
M  V30 3402 H 318.335 5.96812 0.627286 0
M  V30 3403 H 319.405 4.84358 -0.229168 0
M  V30 3404 N 320.748 -0.0735177 1.57428 0
M  V30 3405 C 322.159 -0.625551 1.75908 0
M  V30 3406 C 322.51 -1.78 0.825261 0
M  V30 3407 O 321.635 -2.16398 0.00893964 0
M  V30 3408 C 322.23 -1.14155 3.18989 0
M  V30 3409 C 320.789 -1.63946 3.38819 0
M  V30 3410 C 319.936 -0.558151 2.71625 0
M  V30 3411 H 322.887 0.152647 1.57964 0
M  V30 3412 H 322.908 -2.0104 3.23053 0
M  V30 3413 H 322.42 -0.301116 3.8693 0
M  V30 3414 H 320.521 -2.50321 2.7599 0
M  V30 3415 H 320.634 -1.71759 4.47253 0
M  V30 3416 H 318.998 -1.00278 2.34129 0
M  V30 3417 H 319.781 0.272071 3.4222 0
M  V30 3418 N 322.226 -1.5378 -0.344866 0
M  V30 3419 C 323.176 -1.78057 -1.42407 0
M  V30 3420 C 324.16 -0.635732 -1.47808 0
M  V30 3421 O 325.352 -0.89508 -1.527 0
M  V30 3422 C 322.481 -1.99242 -2.79566 0
M  V30 3423 C 321.567 -3.19787 -2.78562 0
M  V30 3424 N 321.958 -4.41284 -2.47189 0
M  V30 3425 C 320.256 -3.2093 -3.0971 0
M  V30 3426 C 320.957 -5.23128 -2.54385 0
M  V30 3427 N 319.933 -4.59813 -2.89953 0
M  V30 3428 H 323.735 -2.69588 -1.17046 0
M  V30 3429 H 321.249 -1.52687 -0.553217 0
M  V30 3430 H 323.246 -2.14768 -3.57324 0
M  V30 3431 H 321.906 -1.08953 -3.05875 0
M  V30 3432 H 322.917 -4.68657 -2.20411 0
M  V30 3433 H 319.594 -2.40603 -3.41199 0
M  V30 3434 H 320.984 -6.30096 -2.333 0
M  V30 3435 N 323.704 0.605807 -1.45491 0
M  V30 3436 C 324.953 1.36086 -1.48874 0
M  V30 3437 C 325.266 1.95131 -0.135333 0
M  V30 3438 O 326.472 2.7146 -0.0468144 0
M  V30 3439 C 324.928 2.46518 -2.62215 0
M  V30 3440 C 324.536 1.93877 -4.03876 0
M  V30 3441 C 326.28 3.23512 -2.74846 0
M  V30 3442 C 324.187 3.01801 -5.08596 0
M  V30 3443 H 323.117 0.511497 -0.553974 0
M  V30 3444 H 325.768 0.649089 -1.71636 0
M  V30 3445 H 324.15 3.20388 -2.32739 0
M  V30 3446 H 325.324 1.26704 -4.43038 0
M  V30 3447 H 323.639 1.29622 -3.95711 0
M  V30 3448 H 326.236 4.04013 -3.50253 0
M  V30 3449 H 326.579 3.74631 -1.81542 0
M  V30 3450 H 327.112 2.56742 -3.03856 0
M  V30 3451 H 323.851 2.55597 -6.03614 0
M  V30 3452 H 323.371 3.67535 -4.74002 0
M  V30 3453 H 325.05 3.66152 -5.33424 0
M  V30 3454 N 325.182 1.32811 0.848464 0
M  V30 3455 C 326.092 1.24278 1.98978 0
M  V30 3456 C 327.108 0.155176 1.73307 0
M  V30 3457 O 328.284 0.376999 1.9784 0
M  V30 3458 C 325.349 0.972444 3.32783 0
M  V30 3459 C 324.41 2.14911 3.71634 0
M  V30 3460 C 323.643 1.89157 4.99054 0
M  V30 3461 O 323.866 0.837165 5.64223 0
M  V30 3462 O 322.8 2.75433 5.35183 0
M  V30 3463 H 326.626 2.20238 2.09115 0
M  V30 3464 H 324.211 1.12762 0.980052 0
M  V30 3465 H 326.093 0.838432 4.12975 0
M  V30 3466 H 324.768 0.043051 3.23671 0
M  V30 3467 H 323.675 2.33862 2.91992 0
M  V30 3468 H 325.008 3.06151 3.85399 0
M  V30 3469 N 326.66 -1.06551 1.16123 0
M  V30 3470 C 327.608 -2.16063 0.861371 0
M  V30 3471 C 328.602 -1.6856 -0.168517 0
M  V30 3472 O 329.808 -1.79986 -0.0227579 0
M  V30 3473 H 326.183 -0.705278 0.260934 0
M  V30 3474 H 328.154 -2.38567 1.79244 0
M  V30 3475 C 326.903 -3.45661 0.376018 0
M  V30 3476 H 326.226 -3.82604 1.15992 0
M  V30 3477 H 327.666 -4.23504 0.204951 0
M  V30 3478 C 326.125 -3.24546 -0.903954 0
M  V30 3479 O 326.655 -3.49865 -1.97377 0
M  V30 3480 N 324.861 -2.77992 -0.846679 0
M  V30 3481 H 324.408 -2.57589 0.0241017 0
M  V30 3482 H 324.366 -2.64244 -1.70359 0
M  V30 3483 N 328.138 -0.959301 -1.25041 0
M  V30 3484 C 329.386 -0.615393 -1.92503 0
M  V30 3485 C 329.707 0.850969 -1.75452 0
M  V30 3486 O 328.977 1.60658 -1.12098 0
M  V30 3487 H 327.557 -0.224613 -0.712431 0
M  V30 3488 H 330.219 -1.21855 -1.5211 0
M  V30 3489 H 329.315 -0.848738 -3.00338 0
M  V30 3490 N 329.616 1.39756 -0.72842 0
M  V30 3491 C 330.864 2.00248 -0.272946 0
M  V30 3492 C 331.185 1.58077 1.14178 0
M  V30 3493 O 330.455 0.826014 1.77634 0
M  V30 3494 H 329.035 0.740554 -0.0979247 0
M  V30 3495 H 331.697 1.70903 -0.936912 0
M  V30 3496 H 330.793 3.10495 -0.316142 0
M  V30 3497 N 331.094 0.475555 1.50254 0
M  V30 3498 C 332.34 -0.0780073 2.0265 0
M  V30 3499 C 332.673 -1.38968 1.35652 0
M  V30 3500 O 331.948 -1.8839 0.483691 0
M  V30 3501 C 332.231 -0.257161 3.59181 0
M  V30 3502 C 332.084 1.07585 4.36744 0
M  V30 3503 C 333.403 -1.00965 4.28362 0
M  V30 3504 H 330.522 -0.0268758 0.73651 0
M  V30 3505 H 333.164 0.622015 1.7953 0
M  V30 3506 H 331.314 -0.853412 3.79011 0
M  V30 3507 H 332.986 1.70902 4.28474 0
M  V30 3508 H 331.229 1.6714 4.00308 0
M  V30 3509 H 331.9 0.904088 5.44546 0
M  V30 3510 H 334.376 -0.504214 4.13034 0
M  V30 3511 H 333.252 -1.10381 5.37687 0
M  V30 3512 H 333.513 -2.04731 3.91839 0
M  V30 3513 N 332.573 -1.56217 0.208337 0
M  V30 3514 C 333.536 -2.18455 -0.693557 0
M  V30 3515 C 334.536 -1.14268 -1.13135 0
M  V30 3516 O 335.726 -1.39577 -1.0423 0
M  V30 3517 C 332.858 -2.79727 -1.94848 0
M  V30 3518 H 334.051 -2.99519 -0.15114 0
M  V30 3519 H 331.604 -1.56245 -0.041287 0
M  V30 3520 H 332.339 -2.02497 -2.53309 0
M  V30 3521 H 332.124 -3.56009 -1.64316 0
M  V30 3522 H 333.614 -3.27475 -2.59133 0
M  V30 3523 N 334.051 0.0651679 -1.57465 0
M  V30 3524 C 335.297 0.764193 -1.87851 0
M  V30 3525 C 335.63 1.76889 -0.801495 0
M  V30 3526 O 334.905 1.93594 0.187528 0
M  V30 3527 C 335.188 1.46625 -3.28897 0
M  V30 3528 C 335.041 0.477515 -4.47258 0
M  V30 3529 C 336.36 2.4095 -3.68281 0
M  V30 3530 H 333.479 0.276351 -0.683227 0
M  V30 3531 H 336.121 0.0272868 -1.8998 0
M  V30 3532 H 334.271 2.09438 -3.27212 0
M  V30 3533 H 335.943 -0.145922 -4.61069 0
M  V30 3534 H 334.186 -0.206576 -4.33308 0
M  V30 3535 H 334.857 1.0065 -5.42746 0
M  V30 3536 H 337.333 1.88209 -3.71102 0
M  V30 3537 H 336.209 2.87072 -4.67847 0
M  V30 3538 H 336.47 3.26049 -2.98571 0
M  V30 3539 N 335.529 1.53961 0.336706 0
M  V30 3540 C 336.459 1.85417 1.41925 0
M  V30 3541 C 337.44 0.709856 1.5458 0
M  V30 3542 O 338.625 0.962396 1.68676 0
M  V30 3543 C 335.755 2.06985 2.78881 0
M  V30 3544 C 334.709 3.22813 2.81026 0
M  V30 3545 C 334.035 3.29727 4.20932 0
M  V30 3546 C 335.335 4.60767 2.45949 0
M  V30 3547 H 337.029 2.76079 1.15848 0
M  V30 3548 H 334.575 1.32839 0.555859 0
M  V30 3549 H 336.528 2.27575 3.54665 0
M  V30 3550 H 335.252 1.13061 3.06406 0
M  V30 3551 H 333.911 3.0209 2.07695 0
M  V30 3552 H 333.559 2.33385 4.45579 0
M  V30 3553 H 333.259 4.07566 4.23277 0
M  V30 3554 H 334.783 3.52536 4.98549 0
M  V30 3555 H 336.197 4.81325 3.11446 0
M  V30 3556 H 334.594 5.4106 2.59566 0
M  V30 3557 H 335.664 4.6391 1.41122 0
M  V30 3558 N 337.007 -0.598083 1.45811 0
M  V30 3559 C 338.235 -1.38322 1.53866 0
M  V30 3560 C 338.65 -1.87992 0.174479 0
M  V30 3561 O 338.007 -1.62756 -0.825627 0
M  V30 3562 C 338.058 -2.58125 2.53089 0
M  V30 3563 O 337.779 -2.10516 3.84206 0
M  V30 3564 C 339.28 -3.50869 2.70935 0
M  V30 3565 H 336.5 -0.423093 0.520801 0
M  V30 3566 H 339.044 -0.728527 1.91083 0
M  V30 3567 H 337.199 -3.19615 2.18917 0
M  V30 3568 H 337.613 -2.88425 4.38077 0
M  V30 3569 H 339.087 -4.31451 3.44317 0
M  V30 3570 H 339.564 -4.01822 1.77301 0
M  V30 3571 H 340.17 -2.95225 3.06141 0
M  V30 3572 N 338.485 -1.33259 -0.841409 0
M  V30 3573 C 339.733 -1.24326 -1.59334 0
M  V30 3574 C 340.054 0.191564 -1.94057 0
M  V30 3575 O 339.324 1.11967 -1.60749 0
M  V30 3576 H 337.904 -0.457174 -0.590763 0
M  V30 3577 H 340.566 -1.66947 -1.00571 0
M  V30 3578 H 339.662 -1.8352 -2.52442 0
M  V30 3579 N 339.963 1.05934 -1.16686 0
M  V30 3580 C 340.91 2.13499 -0.876748 0
M  V30 3581 C 341.88 1.65162 0.176299 0
M  V30 3582 O 343.065 1.90757 0.0407143 0
M  V30 3583 C 340.205 3.42912 -0.387967 0
M  V30 3584 C 339.318 4.04964 -1.50426 0
M  V30 3585 C 338.453 5.22266 -0.970125 0
M  V30 3586 C 337.492 5.76309 -2.06238 0
M  V30 3587 N 336.629 6.84922 -1.54356 0
M  V30 3588 H 341.469 2.37654 -1.7979 0
M  V30 3589 H 339.006 1.16598 -0.896843 0
M  V30 3590 H 340.964 4.17111 -0.086186 0
M  V30 3591 H 339.594 3.18963 0.496235 0
M  V30 3592 H 338.646 3.28277 -1.92193 0
M  V30 3593 H 339.958 4.41122 -2.32836 0
M  V30 3594 H 339.112 6.03506 -0.621743 0
M  V30 3595 H 337.851 4.87564 -0.115377 0
M  V30 3596 H 336.856 4.93704 -2.41942 0
M  V30 3597 H 338.081 6.13062 -2.92115 0
M  V30 3598 H 336.027 6.52131 -0.711406 0
M  V30 3599 H 335.944 7.20043 -2.30379 0
M  V30 3600 H 337.212 7.69832 -1.22387 0
M  V30 3601 N 341.441 0.965919 1.2453 0
M  V30 3602 C 342.388 0.49402 2.25451 0
M  V30 3603 C 343.358 -0.45948 1.59618 0
M  V30 3604 O 344.543 -0.370238 1.87173 0
M  V30 3605 C 341.683 -0.211359 3.44452 0
M  V30 3606 C 340.796 0.7807 4.24887 0
M  V30 3607 C 339.931 0.0516105 5.31175 0
M  V30 3608 C 338.97 1.03385 6.03306 0
M  V30 3609 N 338.107 0.334887 7.01301 0
M  V30 3610 H 342.947 1.35946 2.65184 0
M  V30 3611 H 340.484 0.681515 1.3036 0
M  V30 3612 H 342.442 -0.637 4.12308 0
M  V30 3613 H 341.072 -1.04077 3.05562 0
M  V30 3614 H 340.124 1.32479 3.56586 0
M  V30 3615 H 341.436 1.52978 4.74762 0
M  V30 3616 H 340.59 -0.432114 6.05159 0
M  V30 3617 H 339.329 -0.730179 4.82203 0
M  V30 3618 H 338.334 1.52847 5.28127 0
M  V30 3619 H 339.559 1.81606 6.54367 0
M  V30 3620 H 337.505 -0.427959 6.54603 0
M  V30 3621 H 337.422 1.02287 7.49048 0
M  V30 3622 H 338.69 -0.126928 7.79397 0
M  V30 3623 N 342.919 -1.39368 0.735821 0
M  V30 3624 C 344.165 -2.00794 0.284544 0
M  V30 3625 C 344.498 -1.58255 -1.12557 0
M  V30 3626 O 343.773 -0.811819 -1.76748 0
M  V30 3627 C 344.056 -3.58011 0.387337 0
M  V30 3628 C 343.909 -4.10566 1.83728 0
M  V30 3629 C 345.228 -4.395 -0.22975 0
M  V30 3630 H 342.347 -0.729501 0.104866 0
M  V30 3631 H 344.989 -1.65564 0.93213 0
M  V30 3632 H 343.139 -3.88154 -0.164006 0
M  V30 3633 H 344.811 -3.91139 2.44556 0
M  V30 3634 H 343.054 -3.64095 2.35833 0
M  V30 3635 H 343.725 -5.19702 1.86047 0
M  V30 3636 H 346.201 -4.15406 0.240257 0
M  V30 3637 H 345.077 -5.48752 -0.127485 0
M  V30 3638 H 345.338 -4.22062 -1.3159 0
M  V30 3639 N 344.397 -0.483516 -1.5 0
M  V30 3640 C 345.643 0.0672592 -2.02688 0
M  V30 3641 C 345.976 1.38247 -1.36387 0
M  V30 3642 O 345.251 1.88131 -0.493675 0
M  V30 3643 C 345.534 0.238109 -3.59312 0
M  V30 3644 C 345.387 -1.099 -4.36168 0
M  V30 3645 C 346.706 0.986916 -4.28892 0
M  V30 3646 H 343.825 0.0229696 -0.736642 0
M  V30 3647 H 346.467 -0.631527 -1.79197 0
M  V30 3648 H 344.617 0.8333 -3.79458 0
M  V30 3649 H 346.289 -1.73172 -4.27562 0
M  V30 3650 H 344.532 -1.69261 -3.99416 0
M  V30 3651 H 345.203 -0.932954 -5.44059 0
M  V30 3652 H 347.679 0.482302 -4.13295 0
M  V30 3653 H 346.555 1.07527 -5.38265 0
M  V30 3654 H 346.816 2.0265 -3.92919 0
M  V30 3655 N 345.875 1.56104 -0.216619 0
M  V30 3656 C 346.807 2.17339 0.72776 0
M  V30 3657 C 347.82 1.14109 1.16116 0
M  V30 3658 O 349.009 1.4111 1.09317 0
M  V30 3659 C 346.109 2.73818 1.99693 0
M  V30 3660 C 345.282 4.02168 1.71988 0
M  V30 3661 C 344.341 4.43259 2.83562 0
M  V30 3662 O 343.367 5.10257 2.52244 0
M  V30 3663 N 344.569 4.08535 4.12407 0
M  V30 3664 H 347.334 2.99005 0.203983 0
M  V30 3665 H 344.895 1.61861 -0.0354289 0
M  V30 3666 H 346.887 2.9828 2.73516 0
M  V30 3667 H 345.457 1.96483 2.43132 0
M  V30 3668 H 344.677 3.85612 0.818337 0
M  V30 3669 H 345.965 4.85907 1.50903 0
M  V30 3670 H 345.363 3.54687 4.40696 0
M  V30 3671 H 343.92 4.37901 4.8279 0
M  V30 3672 N 347.353 -0.0568162 1.57498 0
M  V30 3673 C 348.283 -1.06593 2.0775 0
M  V30 3674 C 349.264 -1.39448 0.974082 0
M  V30 3675 O 350.449 -1.48815 1.24771 0
M  V30 3676 C 347.579 -2.37509 2.5339 0
M  V30 3677 C 346.533 -2.1897 3.67745 0
M  V30 3678 C 345.859 -3.55402 3.99492 0
M  V30 3679 C 347.159 -1.59859 4.97235 0
M  V30 3680 H 348.853 -0.647706 2.9231 0
M  V30 3681 H 346.399 -0.310116 1.40621 0
M  V30 3682 H 348.352 -3.08409 2.87162 0
M  V30 3683 H 347.076 -2.8134 1.65878 0
M  V30 3684 H 345.735 -1.50508 3.3428 0
M  V30 3685 H 345.383 -3.9683 3.09088 0
M  V30 3686 H 345.083 -3.43831 4.76502 0
M  V30 3687 H 346.607 -4.27708 4.35773 0
M  V30 3688 H 348.021 -2.20642 5.29141 0
M  V30 3689 H 346.418 -1.58942 5.78669 0
M  V30 3690 H 347.488 -0.561506 4.81638 0
M  V30 3691 N 348.832 -1.54138 -0.328536 0
M  V30 3692 C 350.109 -1.62749 -1.08499 0
M  V30 3693 C 350.489 -0.458198 -2.06067 0
M  V30 3694 O 349.837 0.548046 -2.2183 0
M  V30 3695 C 350.047 -2.99519 -1.79135 0
M  V30 3696 C 351.395 -3.55394 -2.32337 0
M  V30 3697 O 352.419 -3.01792 -1.89209 0
M  V30 3698 O 351.278 -4.49186 -3.11279 0
M  V30 3699 H 348.372 -0.65886 -0.499832 0
M  V30 3700 H 350.918 -1.66484 -0.328826 0
M  V30 3701 H 349.69 -3.76061 -1.08139 0
M  V30 3702 H 349.313 -2.99441 -2.61574 0
M  V30 3703 N 350.31 0.590341 -1.46126 0
M  V30 3704 C 351.556 1.35082 -1.51264 0
M  V30 3705 C 351.889 1.93534 -0.160711 0
M  V30 3706 O 351.164 1.76045 0.826956 0
M  V30 3707 C 351.447 2.48588 -2.6053 0
M  V30 3708 C 351.3 1.95221 -4.05227 0
M  V30 3709 C 352.619 3.50662 -2.6594 0
M  V30 3710 H 349.738 0.489803 -0.550692 0
M  V30 3711 H 352.38 0.663887 -1.78024 0
M  V30 3712 H 350.53 3.07186 -2.37843 0
M  V30 3713 H 352.202 1.41139 -4.39178 0
M  V30 3714 H 350.445 1.26101 -4.15068 0
M  V30 3715 H 351.116 2.77121 -4.77397 0
M  V30 3716 H 353.592 3.01934 -2.86313 0
M  V30 3717 H 352.468 4.27551 -3.44226 0
M  V30 3718 H 352.729 4.07399 -1.71694 0
M  V30 3719 N 351.788 1.33704 0.83433 0
M  V30 3720 C 353.204 1.13137 1.12571 0
M  V30 3721 C 353.404 -0.0747261 2.01361 0
M  V30 3722 O 352.46 -0.753647 2.4099 0
M  V30 3723 C 353.773 2.42105 1.78342 0
M  V30 3724 C 355.321 2.48054 1.90888 0
M  V30 3725 C 355.796 3.76995 2.60075 0
M  V30 3726 N 357.287 3.78092 2.67584 0
M  V30 3727 C 358.022 4.74574 3.21818 0
M  V30 3728 N 357.518 5.81434 3.76705 0
M  V30 3729 N 359.311 4.62044 3.20112 0
M  V30 3730 H 351.462 2.11 0.243489 0
M  V30 3731 H 353.725 0.932532 0.17055 0
M  V30 3732 H 353.431 3.30391 1.20561 0
M  V30 3733 H 353.305 2.54594 2.7832 0
M  V30 3734 H 355.692 1.60215 2.47821 0
M  V30 3735 H 355.773 2.39502 0.898459 0
M  V30 3736 H 355.417 4.65219 2.03799 0
M  V30 3737 H 355.347 3.82825 3.61597 0
M  V30 3738 H 357.838 3.00865 2.28667 0
M  V30 3739 H 358.151 6.51084 4.16305 0
M  V30 3740 H 356.496 5.85163 3.7498 0
M  V30 3741 H 359.687 3.77716 2.76493 0
M  V30 3742 H 359.86 5.37406 3.62076 0
M  V30 3743 N 353.266 -1.05314 1.17247 0
M  V30 3744 C 354.543 -1.75184 0.87005 0
M  V30 3745 C 354.923 -2.01481 -0.629965 0
M  V30 3746 O 354.271 -1.64988 -1.58086 0
M  V30 3747 C 354.481 -3.04594 1.70363 0
M  V30 3748 C 355.829 -3.78567 1.92281 0
M  V30 3749 O 356.853 -3.14461 1.67311 0
M  V30 3750 O 355.712 -4.93755 2.3424 0
M  V30 3751 H 352.806 -0.761729 0.322021 0
M  V30 3752 H 355.352 -1.11493 1.27935 0
M  V30 3753 H 354.124 -2.81201 2.72106 0
M  V30 3754 H 353.747 -3.76022 1.29202 0
M  V30 3755 N 354.744 -0.972509 -1.24016 0
M  V30 3756 C 355.692 -0.498562 -2.27194 0
M  V30 3757 C 356.686 0.440372 -1.63576 0
M  V30 3758 O 357.892 0.315133 -1.7722 0
M  V30 3759 H 354.267 -0.142775 -0.738322 0
M  V30 3760 H 356.238 -1.38065 -2.64539 0
M  V30 3761 C 354.987 0.191072 -3.47175 0
M  V30 3762 H 354.31 -0.522318 -3.96373 0
M  V30 3763 H 355.75 0.486445 -4.212 0
M  V30 3764 C 354.209 1.41967 -3.05527 0
M  V30 3765 O 354.739 2.51642 -3.13112 0
M  V30 3766 N 352.945 1.28746 -2.60524 0
M  V30 3767 H 352.492 0.395089 -2.54552 0
M  V30 3768 H 352.45 2.11061 -2.33025 0
M  V30 3769 N 356.222 1.38976 -0.743202 0
M  V30 3770 C 357.155 2.28128 -0.0572165 0
M  V30 3771 C 358.133 1.44827 0.739182 0
M  V30 3772 O 359.317 1.74207 0.720009 0
M  V30 3773 C 356.444 3.25796 0.926001 0
M  V30 3774 C 355.49 4.25947 0.217099 0
M  V30 3775 S 356.323 5.24604 -1.07477 0
M  V30 3776 C 357.479 6.25829 -0.0943545 0
M  V30 3777 H 357.712 2.85961 -0.813246 0
M  V30 3778 H 355.245 1.44822 -0.535341 0
M  V30 3779 H 357.203 3.82583 1.48797 0
M  V30 3780 H 355.864 2.66966 1.65493 0
M  V30 3781 H 355.057 4.94746 0.961372 0
M  V30 3782 H 354.659 3.73002 -0.273059 0
M  V30 3783 H 356.951 6.73411 0.743239 0
M  V30 3784 H 357.894 7.0412 -0.749713 0
M  V30 3785 H 358.302 5.63797 0.281706 0
M  V30 3786 N 357.7 0.491464 1.49741 0
M  V30 3787 C 358.946 -0.0565092 2.02721 0
M  V30 3788 C 359.279 -1.37522 1.37118 0
M  V30 3789 O 358.554 -1.87866 0.503645 0
M  V30 3790 C 358.837 -0.219051 3.59433 0
M  V30 3791 C 358.69 1.12211 4.35579 0
M  V30 3792 C 360.009 -0.964157 4.29409 0
M  V30 3793 H 357.128 -0.0190627 0.736753 0
M  V30 3794 H 359.77 0.641021 1.7886 0
M  V30 3795 H 357.92 -0.813165 3.79895 0
M  V30 3796 H 359.592 1.75437 4.26637 0
M  V30 3797 H 357.835 1.71377 3.98513 0
M  V30 3798 H 358.506 0.961794 5.43556 0
M  V30 3799 H 360.982 -0.460378 4.13545 0
M  V30 3800 H 359.858 -1.04671 5.38828 0
M  V30 3801 H 360.119 -2.00563 3.93988 0
M  V30 3802 N 359.178 -1.55987 0.224894 0
M  V30 3803 C 360.125 -2.20436 -0.68385 0
M  V30 3804 C 361.095 -1.16102 -1.18783 0
M  V30 3805 O 362.28 -1.4447 -1.24632 0
M  V30 3806 C 359.42 -2.89076 -1.88491 0
M  V30 3807 C 358.533 -4.08012 -1.41951 0
M  V30 3808 C 357.668 -4.64426 -2.5784 0
M  V30 3809 C 356.707 -5.75656 -2.08053 0
M  V30 3810 N 355.844 -6.26347 -3.17227 0
M  V30 3811 H 360.684 -2.97727 -0.12754 0
M  V30 3812 H 358.221 -1.47011 -0.0511978 0
M  V30 3813 H 360.179 -3.27059 -2.59014 0
M  V30 3814 H 358.809 -2.14298 -2.41405 0
M  V30 3815 H 357.861 -3.75492 -0.609095 0
M  V30 3816 H 359.173 -4.88375 -1.01447 0
M  V30 3817 H 358.327 -5.04869 -3.3644 0
M  V30 3818 H 357.066 -3.83233 -3.01635 0
M  V30 3819 H 356.071 -5.34712 -1.27916 0
M  V30 3820 H 357.296 -6.58686 -1.65255 0
M  V30 3821 H 355.242 -5.48067 -3.60497 0
M  V30 3822 H 355.159 -7.01843 -2.80986 0
M  V30 3823 H 356.427 -6.71447 -3.95953 0
M  V30 3824 N 360.656 0.0484629 -1.57525 0
M  V30 3825 C 361.586 1.0549 -2.08313 0
M  V30 3826 C 362.567 1.38929 -0.981463 0
M  V30 3827 O 363.752 1.48151 -1.25558 0
M  V30 3828 C 360.882 2.36162 -2.54646 0
M  V30 3829 C 359.836 2.17016 -3.68901 0
M  V30 3830 C 359.162 3.53278 -4.01371 0
M  V30 3831 C 360.462 1.57219 -4.98076 0
M  V30 3832 H 362.156 0.632195 -2.92649 0
M  V30 3833 H 359.702 0.302654 -1.40784 0
M  V30 3834 H 361.655 3.06882 -2.88793 0
M  V30 3835 H 360.379 2.80456 -1.67368 0
M  V30 3836 H 359.038 1.48733 -3.35073 0
M  V30 3837 H 358.686 3.95185 -3.11188 0
M  V30 3838 H 358.386 3.41299 -4.78318 0
M  V30 3839 H 359.91 4.25391 -4.38035 0
M  V30 3840 H 361.324 2.17832 -5.30304 0
M  V30 3841 H 359.721 1.55871 -5.79503 0
M  V30 3842 H 360.791 0.535956 -4.81929 0
M  V30 3843 N 362.134 1.5431 0.320358 0
M  V30 3844 C 363.082 1.84647 1.4145 0
M  V30 3845 C 364.076 0.718624 1.53402 0
M  V30 3846 O 365.282 0.902335 1.5575 0
M  V30 3847 H 361.657 0.585349 0.472091 0
M  V30 3848 H 363.628 2.7614 1.13089 0
M  V30 3849 C 362.377 2.09341 2.77617 0
M  V30 3850 H 361.7 2.9559 2.69196 0
M  V30 3851 H 363.14 2.3452 3.53237 0
M  V30 3852 C 361.599 0.885939 3.25043 0
M  V30 3853 O 362.129 0.0967891 4.01583 0
M  V30 3854 N 360.335 0.696682 2.82125 0
M  V30 3855 H 359.882 1.34006 2.2 0
M  V30 3856 H 359.84 -0.109712 3.14209 0
M  V30 3857 N 363.613 -0.582584 1.46437 0
M  V30 3858 C 364.89 -1.34276 1.4223 0
M  V30 3859 C 365.27 -2.10835 0.10583 0
M  V30 3860 O 364.618 -2.09485 -0.912596 0
M  V30 3861 C 364.828 -2.26865 2.65204 0
M  V30 3862 C 366.176 -2.88691 3.11356 0
M  V30 3863 O 367.2 -2.37178 2.65753 0
M  V30 3864 O 366.059 -3.82255 3.90568 0
M  V30 3865 H 363.153 -0.603326 0.565621 0
M  V30 3866 H 365.699 -0.603591 1.58603 0
M  V30 3867 H 364.471 -1.69724 3.52576 0
M  V30 3868 H 364.094 -3.08122 2.5129 0
M  V30 3869 N 365.091 -1.34144 -0.827227 0
M  V30 3870 C 366.339 -1.26009 -1.58007 0
M  V30 3871 C 366.66 0.170971 -1.94249 0
M  V30 3872 O 365.93 1.10256 -1.61927 0
M  V30 3873 H 364.51 -0.463414 -0.585881 0
M  V30 3874 H 367.172 -1.68005 -0.987951 0
M  V30 3875 H 366.268 -1.86187 -2.50481 0
M  V30 3876 N 366.569 1.04691 -1.17803 0
M  V30 3877 C 367.794 1.81984 -0.994813 0
M  V30 3878 C 368.219 1.82586 0.452112 0
M  V30 3879 O 367.577 1.23854 1.324 0
M  V30 3880 C 367.625 3.2575 -1.54659 0
M  V30 3881 O 366.729 4.05267 -0.763728 0
M  V30 3882 H 366.07 0.562483 -0.352857 0
M  V30 3883 H 368.6 1.3189 -1.56417 0
M  V30 3884 H 368.61 3.76541 -1.57102 0
M  V30 3885 H 367.285 3.24627 -2.59981 0
M  V30 3886 H 365.862 3.63972 -0.811108 0
M  V30 3887 N 368.047 0.979072 1.23499 0
M  V30 3888 C 368.979 0.476271 2.24197 0
M  V30 3889 C 369.992 -0.421166 1.57258 0
M  V30 3890 O 371.181 -0.225515 1.7707 0
M  V30 3891 C 368.281 -0.330503 3.37285 0
M  V30 3892 C 367.454 0.559744 4.33804 0
M  V30 3893 C 366.513 -0.192954 5.25846 0
M  V30 3894 O 365.539 0.416978 5.67671 0
M  V30 3895 N 366.741 -1.47932 5.61334 0
M  V30 3896 H 369.506 1.34211 2.67969 0
M  V30 3897 H 367.067 0.852189 1.37657 0
M  V30 3898 H 369.059 -0.842361 3.95836 0
M  V30 3899 H 367.629 -1.09734 2.92707 0
M  V30 3900 H 366.849 1.25245 3.73775 0
M  V30 3901 H 368.137 1.1665 4.95248 0
M  V30 3902 H 367.535 -1.9964 5.29302 0
M  V30 3903 H 366.092 -1.93664 6.22364 0
M  V30 3904 N 369.525 -1.3858 0.750561 0
M  V30 3905 C 370.774 -1.99424 0.302172 0
M  V30 3906 C 371.087 -1.60254 -1.12152 0
M  V30 3907 O 372.293 -2.14046 -1.67023 0
M  V30 3908 C 370.749 -3.56558 0.489307 0
M  V30 3909 C 370.357 -4.04682 1.92189 0
M  V30 3910 C 372.101 -4.24374 0.103478 0
M  V30 3911 C 370.008 -5.54446 2.05775 0
M  V30 3912 H 368.938 -0.746046 0.10923 0
M  V30 3913 H 371.589 -1.58383 0.92667 0
M  V30 3914 H 369.971 -3.95472 -0.204329 0
M  V30 3915 H 371.145 -3.77065 2.64875 0
M  V30 3916 H 369.46 -3.4958 2.26236 0
M  V30 3917 H 372.057 -5.34384 0.183787 0
M  V30 3918 H 372.4 -4.05468 -0.943481 0
M  V30 3919 H 372.933 -3.90688 0.748854 0
M  V30 3920 H 369.672 -5.78252 3.08714 0
M  V30 3921 H 369.192 -5.83816 1.37546 0
M  V30 3922 H 370.871 -6.20099 1.84626 0
M  V30 3923 N 371.003 -0.499398 -1.49478 0
M  V30 3924 C 372.231 0.0425456 -2.06856 0
M  V30 3925 C 372.646 1.30964 -1.35992 0
M  V30 3926 O 372.003 1.77172 -0.437762 0
M  V30 3927 C 372.054 0.301735 -3.60239 0
M  V30 3928 O 371.775 -0.915127 -4.28436 0
M  V30 3929 C 373.276 0.887499 -4.34325 0
M  V30 3930 H 370.496 -0.0197482 -0.670709 0
M  V30 3931 H 373.04 -0.696297 -1.92281 0
M  V30 3932 H 371.195 0.990556 -3.74522 0
M  V30 3933 H 371.609 -0.676993 -5.20113 0
M  V30 3934 H 373.083 1.01845 -5.42523 0
M  V30 3935 H 373.56 1.88488 -3.96698 0
M  V30 3936 H 374.166 0.236196 -4.24644 0
M  V30 3937 N 372.481 1.55866 -0.233164 0
M  V30 3938 C 373.711 2.02704 0.399325 0
M  V30 3939 C 374.119 1.11204 1.53069 0
M  V30 3940 O 373.462 0.116182 1.83332 0
M  V30 3941 C 373.524 3.45844 0.981429 0
M  V30 3942 C 373.188 4.56997 -0.0159561 0
M  V30 3943 C 374.185 5.13384 -0.820552 0
M  V30 3944 C 371.87 5.0211 -0.138072 0
M  V30 3945 C 373.864 6.13365 -1.73386 0
M  V30 3946 C 371.551 6.01926 -1.0549 0
M  V30 3947 C 372.549 6.57431 -1.85132 0
M  V30 3948 O 372.237 7.55302 -2.75272 0
M  V30 3949 H 371.969 0.668459 0.100692 0
M  V30 3950 H 374.523 2.02387 -0.35052 0
M  V30 3951 H 372.753 3.43267 1.78058 0
M  V30 3952 H 374.442 3.76262 1.52255 0
M  V30 3953 H 375.208 4.79372 -0.736721 0
M  V30 3954 H 371.087 4.5858 0.471737 0
M  V30 3955 H 374.631 6.56614 -2.35592 0
M  V30 3956 H 370.528 6.35359 -1.1397 0
M  V30 3957 H 371.296 7.72867 -2.69477 0
M  V30 3958 N 373.959 -0.0401083 1.57549 0
M  V30 3959 C 374.869 -1.06133 2.0922 0
M  V30 3960 C 375.885 -1.40356 1.0284 0
M  V30 3961 O 377.061 -1.49897 1.34509 0
M  V30 3962 C 374.126 -2.34658 2.55218 0
M  V30 3963 C 373.187 -2.07117 3.76033 0
M  V30 3964 C 372.42 -3.29514 4.19829 0
M  V30 3965 O 372.643 -4.39794 3.63232 0
M  V30 3966 O 371.577 -3.15863 5.12362 0
M  V30 3967 H 375.403 -0.652244 2.96613 0
M  V30 3968 H 372.988 -0.256368 1.47184 0
M  V30 3969 H 374.87 -3.10239 2.85184 0
M  V30 3970 H 373.545 -2.74883 1.70941 0
M  V30 3971 H 372.452 -1.29139 3.51104 0
M  V30 3972 H 373.785 -1.71754 4.61261 0
M  V30 3973 N 375.437 -1.54477 -0.31217 0
M  V30 3974 C 376.384 -1.84655 -1.38461 0
M  V30 3975 C 377.354 -0.694536 -1.50882 0
M  V30 3976 O 378.539 -0.942081 -1.6592 0
M  V30 3977 C 375.679 -2.0896 -2.74645 0
M  V30 3978 C 374.792 -3.36618 -2.70763 0
M  V30 3979 C 373.927 -3.50824 -3.98868 0
M  V30 3980 C 372.966 -4.72315 -3.89339 0
M  V30 3981 N 372.103 -4.83387 -5.09197 0
M  V30 3982 H 376.943 -2.76142 -1.12026 0
M  V30 3983 H 374.48 -1.36748 -0.542065 0
M  V30 3984 H 376.438 -2.21045 -3.53829 0
M  V30 3985 H 375.068 -1.20752 -2.99364 0
M  V30 3986 H 374.12 -3.33211 -1.83506 0
M  V30 3987 H 375.432 -4.25917 -2.59608 0
M  V30 3988 H 374.586 -3.62513 -4.86486 0
M  V30 3989 H 373.325 -2.59638 -4.12843 0
M  V30 3990 H 372.33 -4.6067 -3.00105 0
M  V30 3991 H 373.555 -5.64897 -3.76919 0
M  V30 3992 H 371.501 -3.9512 -5.23657 0
M  V30 3993 H 371.418 -5.66669 -5.00422 0
M  V30 3994 H 372.686 -4.9942 -5.98498 0
M  V30 3995 N 376.915 0.57481 -1.46744 0
M  V30 3996 C 378.155 1.34369 -1.54027 0
M  V30 3997 C 378.519 1.91051 -0.190642 0
M  V30 3998 O 379.72 2.68444 -0.138255 0
M  V30 3999 C 377.991 2.43706 -2.61423 0
M  V30 4000 S 379.55 3.30915 -2.88167 0
M  V30 4001 H 376.368 0.45768 -0.544105 0
M  V30 4002 H 378.97 0.659959 -1.84024 0
M  V30 4003 H 377.674 2.0047 -3.58106 0
M  V30 4004 H 377.205 3.16842 -2.33184 0
M  V30 4005 H 379.22 4.42742 -2.24039 0
M  V30 4006 N 378.394 1.34581 0.820102 0
M  V30 4007 C 379.324 1.29038 1.94606 0
M  V30 4008 C 380.305 0.1673 1.69275 0
M  V30 4009 O 381.49 0.360112 1.90832 0
M  V30 4010 C 378.62 1.04793 3.31113 0
M  V30 4011 C 377.574 2.13597 3.70891 0
M  V30 4012 C 376.9 1.74537 5.05412 0
M  V30 4013 C 378.2 3.55451 3.8269 0
M  V30 4014 H 379.894 2.23248 1.99501 0
M  V30 4015 H 377.44 1.0747 0.958449 0
M  V30 4016 H 379.393 0.995592 4.0947 0
M  V30 4017 H 378.117 0.0702565 3.26524 0
M  V30 4018 H 376.776 2.17905 2.9481 0
M  V30 4019 H 376.424 0.754226 4.97313 0
M  V30 4020 H 376.124 2.47361 5.32997 0
M  V30 4021 H 377.648 1.70803 5.86224 0
M  V30 4022 H 379.062 3.5354 4.51312 0
M  V30 4023 H 377.459 4.26922 4.21732 0
M  V30 4024 H 378.529 3.92587 2.84611 0
M  V30 4025 N 379.872 -1.04064 1.18357 0
M  V30 4026 C 381.121 -1.76662 0.973313 0
M  V30 4027 C 381.434 -1.89154 -0.497991 0
M  V30 4028 O 382.64 -2.58606 -0.826762 0
M  V30 4029 C 381.096 -3.17624 1.69242 0
M  V30 4030 C 380.704 -3.13225 3.20303 0
M  V30 4031 C 382.448 -3.946 1.56497 0
M  V30 4032 C 380.355 -4.49046 3.84853 0
M  V30 4033 H 379.285 -0.662214 0.36054 0
M  V30 4034 H 381.936 -1.16553 1.41731 0
M  V30 4035 H 380.318 -3.78129 1.1762 0
M  V30 4036 H 381.492 -2.62172 3.78949 0
M  V30 4037 H 379.807 -2.49749 3.33189 0
M  V30 4038 H 382.404 -4.95042 2.02084 0
M  V30 4039 H 382.747 -4.13074 0.517243 0
M  V30 4040 H 383.28 -3.4067 2.05399 0
M  V30 4041 H 380.019 -4.35777 4.89672 0
M  V30 4042 H 379.539 -5.00203 3.30994 0
M  V30 4043 H 381.218 -5.17961 3.87718 0
M  V30 4044 N 381.35 -0.985608 -1.22978 0
M  V30 4045 C 382.313 -0.535071 -2.22867 0
M  V30 4046 C 383.313 0.378123 -1.56291 0
M  V30 4047 O 384.503 0.171092 -1.73358 0
M  V30 4048 C 381.635 0.222702 -3.40172 0
M  V30 4049 H 382.828 -1.41835 -2.6424 0
M  V30 4050 H 380.381 -0.772042 -1.35901 0
M  V30 4051 H 381.116 1.12229 -3.04262 0
M  V30 4052 H 380.901 -0.43288 -3.89703 0
M  V30 4053 H 382.391 0.526335 -4.1427 0
M  V30 4054 N 382.828 1.3818 -0.7579 0
M  V30 4055 C 384.056 2.04301 -0.326937 0
M  V30 4056 C 384.471 1.57163 1.0462 0
M  V30 4057 O 383.828 0.746626 1.66529 0
M  V30 4058 C 383.879 3.59846 -0.345363 0
M  V30 4059 O 383.6 4.05256 -1.66432 0
M  V30 4060 C 385.101 4.4319 0.098927 0
M  V30 4061 H 382.321 0.656443 -0.139012 0
M  V30 4062 H 384.865 1.76786 -1.02796 0
M  V30 4063 H 383.02 3.86182 0.306955 0
M  V30 4064 H 383.434 4.99709 -1.59345 0
M  V30 4065 H 384.908 5.51989 0.0348745 0
M  V30 4066 H 385.385 4.23947 1.14741 0
M  V30 4067 H 385.991 4.22051 -0.52468 0
M  V30 4068 N 384.306 0.507319 1.49211 0
M  V30 4069 C 385.554 -0.0348839 2.0207 0
M  V30 4070 C 385.875 -1.36898 1.38866 0
M  V30 4071 O 385.145 -1.88133 0.546151 0
M  V30 4072 H 383.725 -0.0158812 0.746831 0
M  V30 4073 H 386.387 0.665998 1.83168 0
M  V30 4074 H 385.483 -0.159917 3.1169 0
M  V30 4075 N 385.784 -1.5574 0.241426 0
M  V30 4076 C 387.032 -1.98417 -0.384075 0
M  V30 4077 C 387.353 -1.13078 -1.58866 0
M  V30 4078 O 386.623 -0.212312 -1.94746 0
M  V30 4079 H 385.203 -0.732813 -0.144894 0
M  V30 4080 H 387.865 -1.9193 0.338943 0
M  V30 4081 H 386.961 -3.04219 -0.696939 0
M  V30 4082 N 387.262 0.0317525 -1.57568 0
M  V30 4083 C 388.49 0.734949 -1.93407 0
M  V30 4084 C 388.905 1.69036 -0.84096 0
M  V30 4085 O 388.262 1.81582 0.182836 0
M  V30 4086 C 388.313 1.49432 -3.29169 0
M  V30 4087 O 388.034 0.577261 -4.3428 0
M  V30 4088 C 389.535 2.29492 -3.79273 0
M  V30 4089 H 386.755 0.206706 -0.638368 0
M  V30 4090 H 389.299 -0.00992046 -2.04498 0
M  V30 4091 H 387.454 2.1911 -3.19483 0
M  V30 4092 H 387.868 1.10952 -5.1263 0
M  V30 4093 H 389.342 2.78172 -4.76785 0
M  V30 4094 H 389.819 3.10794 -3.10328 0
M  V30 4095 H 390.425 1.64894 -3.92033 0
M  V30 4096 N 388.74 1.54641 0.303973 0
M  V30 4097 C 390.151 1.64811 0.877163 0
M  V30 4098 C 390.502 0.554838 1.88191 0
M  V30 4099 O 389.627 -0.309033 2.14182 0
M  V30 4100 C 390.222 2.9876 1.59775 0
M  V30 4101 C 388.781 3.11061 2.11938 0
M  V30 4102 C 387.928 2.60479 0.951097 0
M  V30 4103 H 390.879 1.58493 0.0810486 0
M  V30 4104 H 390.9 2.90017 2.46314 0
M  V30 4105 H 390.412 3.7831 0.866226 0
M  V30 4106 H 388.513 2.36225 2.88146 0
M  V30 4107 H 388.626 4.17171 2.35595 0
M  V30 4108 H 386.99 2.16859 1.33583 0
M  V30 4109 H 387.773 3.42504 0.233581 0
M  V30 4110 N 390.218 -0.567019 1.47046 0
M  V30 4111 C 391.634 -0.891975 1.32348 0
M  V30 4112 C 391.834 -1.99154 0.306616 0
M  V30 4113 O 390.89 -2.50883 -0.28532 0
M  V30 4114 C 392.203 -1.29449 2.7141 0
M  V30 4115 C 393.751 -1.40646 2.79621 0
M  V30 4116 C 394.226 -1.84257 4.19301 0
M  V30 4117 N 395.717 -1.91424 4.21795 0
M  V30 4118 C 396.452 -2.26476 5.26779 0
M  V30 4119 N 395.948 -2.60211 6.42077 0
M  V30 4120 N 397.741 -2.27166 5.14152 0
M  V30 4121 H 389.892 0.159074 2.11803 0
M  V30 4122 H 392.155 0.00849752 0.947962 0
M  V30 4123 H 391.861 -0.560448 3.47206 0
M  V30 4124 H 391.735 -2.25273 3.02542 0
M  V30 4125 H 394.122 -2.13133 2.04104 0
M  V30 4126 H 394.203 -0.430339 2.52154 0
M  V30 4127 H 393.847 -1.12343 4.95319 0
M  V30 4128 H 393.777 -2.82855 4.44185 0
M  V30 4129 H 396.268 -1.6778 3.38612 0
M  V30 4130 H 396.581 -2.85956 7.17948 0
M  V30 4131 H 394.926 -2.57813 6.45413 0
M  V30 4132 H 398.117 -2.00244 4.23107 0
M  V30 4133 H 398.29 -2.54154 5.96079 0
M  V30 4134 N 391.696 -1.35014 -0.812953 0
M  V30 4135 C 392.921 -1.31187 -1.60639 0
M  V30 4136 C 393.346 0.109382 -1.87782 0
M  V30 4137 O 392.704 1.07424 -1.46047 0
M  V30 4138 C 392.752 -2.11809 -2.91838 0
M  V30 4139 O 391.856 -1.49444 -3.8437 0
M  V30 4140 H 391.197 -0.450084 -0.488181 0
M  V30 4141 H 393.727 -1.77963 -1.00947 0
M  V30 4142 H 393.737 -2.23531 -3.41318 0
M  V30 4143 H 392.412 -3.15137 -2.71407 0
M  V30 4144 H 390.989 -1.46524 -3.42907 0
M  V30 4145 N 393.175 1.03435 -1.18907 0
M  V30 4146 C 394.105 2.13503 -0.945448 0
M  V30 4147 C 395.086 1.69682 0.119189 0
M  V30 4148 O 396.271 1.94169 -0.034707 0
M  V30 4149 C 393.401 3.44004 -0.477316 0
M  V30 4150 C 392.355 4.0148 -1.48316 0
M  V30 4151 C 391.681 5.27537 -0.872311 0
M  V30 4152 C 392.981 4.36921 -2.86177 0
M  V30 4153 H 394.675 2.34141 -1.86597 0
M  V30 4154 H 392.221 1.12523 -0.898584 0
M  V30 4155 H 394.174 4.20372 -0.294204 0
M  V30 4156 H 392.898 3.23072 0.478786 0
M  V30 4157 H 391.557 3.27201 -1.65332 0
M  V30 4158 H 391.205 5.02917 0.0911752 0
M  V30 4159 H 390.905 5.66954 -1.54393 0
M  V30 4160 H 392.429 6.06576 -0.699871 0
M  V30 4161 H 393.843 5.04248 -2.72776 0
M  V30 4162 H 392.24 4.87405 -3.50081 0
M  V30 4163 H 393.31 3.46466 -3.39248 0
M  V30 4164 N 394.653 0.992116 1.22453 0
M  V30 4165 C 395.878 0.685644 1.95739 0
M  V30 4166 C 396.303 -0.743 1.72804 0
M  V30 4167 O 395.661 -1.50778 1.00676 0
M  V30 4168 C 395.709 0.996293 3.46564 0
M  V30 4169 O 394.813 0.0945512 4.12292 0
M  V30 4170 H 394.154 0.256694 0.612376 0
M  V30 4171 H 396.684 1.32888 1.5557 0
M  V30 4172 H 396.694 0.93781 3.97076 0
M  V30 4173 H 395.369 2.03733 3.62582 0
M  V30 4174 H 393.946 0.208451 3.72317 0
M  V30 4175 N 396.131 -1.37776 0.765217 0
M  V30 4176 C 397.094 -2.28686 0.153416 0
M  V30 4177 C 398.094 -1.47727 -0.635081 0
M  V30 4178 O 399.284 -1.68027 -0.459632 0
M  V30 4179 C 396.416 -3.31608 -0.790495 0
M  V30 4180 H 397.609 -2.84297 0.954723 0
M  V30 4181 H 395.162 -1.46932 0.53299 0
M  V30 4182 H 395.897 -2.81109 -1.61705 0
M  V30 4183 H 395.682 -3.9144 -0.227348 0
M  V30 4184 H 397.172 -3.99559 -1.21419 0
M  V30 4185 N 397.609 -0.515225 -1.4894 0
M  V30 4186 C 398.858 0.0261361 -2.01683 0
M  V30 4187 C 399.171 1.36719 -1.39883 0
M  V30 4188 O 400.377 1.99606 -1.84037 0
M  V30 4189 C 398.833 0.0970111 -3.59769 0
M  V30 4190 C 398.441 -1.23825 -4.30548 0
M  V30 4191 C 400.185 0.587981 -4.20408 0
M  V30 4192 C 398.092 -1.12877 -5.80528 0
M  V30 4193 H 397.022 0.0135398 -0.753878 0
M  V30 4194 H 399.673 -0.656787 -1.71343 0
M  V30 4195 H 398.055 0.844694 -3.86886 0
M  V30 4196 H 399.229 -2.00034 -4.15118 0
M  V30 4197 H 397.544 -1.66379 -3.81716 0
M  V30 4198 H 400.141 0.68763 -5.3026 0
M  V30 4199 H 400.484 1.59026 -3.84729 0
M  V30 4200 H 401.017 -0.103582 -3.97665 0
M  V30 4201 H 397.756 -2.10575 -6.20756 0
M  V30 4202 H 397.276 -0.407799 -5.98412 0
M  V30 4203 H 398.955 -0.813332 -6.41868 0
M  V30 4204 N 399.087 1.5561 -0.249682 0
M  V30 4205 C 400.364 1.90932 0.424761 0
M  V30 4206 C 400.744 1.17078 1.75658 0
M  V30 4207 O 400.092 0.289176 2.26663 0
M  V30 4208 C 400.302 3.43975 0.590109 0
M  V30 4209 C 401.65 4.15281 0.884714 0
M  V30 4210 O 402.674 3.49729 0.67587 0
M  V30 4211 O 401.533 5.31236 1.28259 0
M  V30 4212 H 398.627 0.794815 0.228468 0
M  V30 4213 H 401.173 1.67135 -0.293954 0
M  V30 4214 H 399.945 3.89748 -0.34818 0
M  V30 4215 H 399.568 3.73644 1.35926 0
M  V30 4216 N 400.565 -0.0233959 1.57583 0
M  V30 4217 C 401.981 -0.379134 1.55031 0
M  V30 4218 C 402.181 -1.76255 0.976548 0
M  V30 4219 O 401.237 -2.45266 0.600078 0
M  V30 4220 C 402.55 -0.275792 2.99433 0
M  V30 4221 C 404.098 -0.352458 3.11009 0
M  V30 4222 C 404.573 -0.278501 4.57152 0
M  V30 4223 N 406.064 -0.337123 4.61972 0
M  V30 4224 C 406.799 -0.302876 5.726 0
M  V30 4225 N 406.295 -0.220589 6.92449 0
M  V30 4226 N 408.088 -0.353023 5.6099 0
M  V30 4227 H 400.239 0.881869 1.93227 0
M  V30 4228 H 402.502 0.335867 0.886509 0
M  V30 4229 H 402.208 0.675108 3.4516 0
M  V30 4230 H 402.082 -1.06721 3.61788 0
M  V30 4231 H 404.469 -1.29379 2.65226 0
M  V30 4232 H 404.55 0.468409 2.51475 0
M  V30 4233 H 404.194 0.659189 5.03604 0
M  V30 4234 H 404.124 -1.11755 5.14605 0
M  V30 4235 H 406.615 -0.403002 3.75745 0
M  V30 4236 H 406.928 -0.199713 7.72542 0
M  V30 4237 H 405.273 -0.186555 6.9475 0
M  V30 4238 H 408.464 -0.415339 4.66254 0
M  V30 4239 H 408.637 -0.322866 6.47195 0
M  V30 4240 N 402.043 -1.548 -0.295768 0
M  V30 4241 C 403.006 -1.85363 -1.34808 0
M  V30 4242 C 404.006 -0.726817 -1.43436 0
M  V30 4243 O 405.196 -0.995088 -1.42981 0
M  V30 4244 C 402.328 -2.03859 -2.73229 0
M  V30 4245 H 403.521 -2.7941 -1.08949 0
M  V30 4246 H 401.074 -1.46942 -0.532702 0
M  V30 4247 H 401.809 -1.12117 -3.04303 0
M  V30 4248 H 401.594 -2.8588 -2.68356 0
M  V30 4249 H 403.084 -2.28857 -3.49305 0
M  V30 4250 N 403.521 0.559213 -1.47345 0
M  V30 4251 C 404.769 1.31388 -1.53563 0
M  V30 4252 C 405.09 1.93985 -0.198678 0
M  V30 4253 O 404.36 1.79825 0.777167 0
M  V30 4254 H 402.94 0.487901 -0.565652 0
M  V30 4255 H 405.602 0.65315 -1.8363 0
M  V30 4256 H 404.698 2.10844 -2.30111 0
M  V30 4257 N 404.999 1.35443 0.805782 0
M  V30 4258 C 405.962 1.28301 1.89925 0
M  V30 4259 C 406.962 0.194285 1.59622 0
M  V30 4260 O 408.152 0.448036 1.6834 0
M  V30 4261 C 405.284 0.984997 3.2636 0
M  V30 4262 H 406.477 2.2553 1.97677 0
M  V30 4263 H 404.03 1.19979 1.00173 0
M  V30 4264 H 404.765 0.016603 3.24296 0
M  V30 4265 H 404.55 1.77269 3.4974 0
M  V30 4266 H 406.04 0.960651 4.064 0
M  V30 4267 N 406.477 -1.02803 1.19454 0
M  V30 4268 C 407.387 -2.14575 0.948408 0
M  V30 4269 C 408.403 -1.73757 -0.091871 0
M  V30 4270 O 409.579 -2.01185 0.0929654 0
M  V30 4271 C 406.644 -3.43202 0.491265 0
M  V30 4272 C 405.705 -3.98328 1.60103 0
M  V30 4273 C 404.938 -5.20816 1.16561 0
M  V30 4274 O 405.161 -5.70392 0.0295238 0
M  V30 4275 O 404.095 -5.68801 1.96849 0
M  V30 4276 H 407.921 -2.38202 1.88397 0
M  V30 4277 H 405.506 -1.12989 0.977433 0
M  V30 4278 H 407.388 -4.20687 0.245015 0
M  V30 4279 H 406.063 -3.21018 -0.415851 0
M  V30 4280 H 404.97 -3.22174 1.90144 0
M  V30 4281 H 406.303 -4.24879 2.48473 0
M  V30 4282 N 407.956 -0.998596 -1.21925 0
M  V30 4283 C 409.202 -0.678667 -1.91107 0
M  V30 4284 C 409.535 0.78791 -1.77498 0
M  V30 4285 O 408.81 1.57043 -1.1475 0
M  V30 4286 C 409.093 -1.09245 -3.43129 0
M  V30 4287 C 408.946 -2.61801 -3.6576 0
M  V30 4288 C 410.265 -0.649984 -4.35274 0
M  V30 4289 H 407.384 -0.248025 -0.694012 0
M  V30 4290 H 410.026 -1.24314 -1.43688 0
M  V30 4291 H 408.176 -0.612171 -3.83647 0
M  V30 4292 H 409.848 -3.17543 -3.34611 0
M  V30 4293 H 408.091 -3.03609 -3.09845 0
M  V30 4294 H 408.762 -2.85804 -4.7225 0
M  V30 4295 H 411.238 -1.0626 -4.02303 0
M  V30 4296 H 410.114 -0.967743 -5.40302 0
M  V30 4297 H 410.375 0.449139 -4.39813 0
M  V30 4298 N 409.434 1.37368 -0.772513 0
M  V30 4299 C 410.381 2.30262 -0.157488 0
M  V30 4300 C 411.351 1.51137 0.688965 0
M  V30 4301 O 412.536 1.79704 0.641168 0
M  V30 4302 C 409.676 3.37611 0.715045 0
M  V30 4303 C 408.789 4.31746 -0.148098 0
M  V30 4304 C 407.924 5.26171 0.729213 0
M  V30 4305 C 406.963 6.11948 -0.136418 0
M  V30 4306 N 406.1 6.98613 0.698914 0
M  V30 4307 H 410.94 2.82277 -0.955179 0
M  V30 4308 H 408.477 1.38957 -0.482631 0
M  V30 4309 H 410.435 3.98479 1.23575 0
M  V30 4310 H 409.065 2.86959 1.47833 0
M  V30 4311 H 408.117 3.72178 -0.786613 0
M  V30 4312 H 409.429 4.92084 -0.81579 0
M  V30 4313 H 408.583 5.92247 1.31637 0
M  V30 4314 H 407.322 4.66246 1.43059 0
M  V30 4315 H 406.327 5.4485 -0.736102 0
M  V30 4316 H 407.552 6.73945 -0.835134 0
M  V30 4317 H 405.498 6.41215 1.38489 0
M  V30 4318 H 405.415 7.55948 0.0885358 0
M  V30 4319 H 406.683 7.69077 1.27044 0
M  V30 4320 N 410.912 0.523116 1.48665 0
M  V30 4321 C 412.137 -0.0117284 2.07397 0
M  V30 4322 C 412.562 -1.28031 1.37803 0
M  V30 4323 O 411.92 -1.75836 0.441762 0
M  V30 4324 C 411.968 -0.225786 3.59892 0
M  V30 4325 O 411.072 -1.29592 3.91509 0
M  V30 4326 H 410.413 0.0360673 0.66302 0
M  V30 4327 H 412.943 0.729066 1.9117 0
M  V30 4328 H 412.953 -0.450552 4.05505 0
M  V30 4329 H 411.628 0.700944 4.09951 0
M  V30 4330 H 410.205 -1.05436 3.57684 0
M  V30 4331 N 412.39 -1.55475 0.257931 0
M  V30 4332 C 413.806 -1.59307 -0.0966563 0
M  V30 4333 C 414.006 -1.27514 -1.5602 0
M  V30 4334 O 413.062 -1.02774 -2.30637 0
M  V30 4335 C 414.375 -2.99552 0.262481 0
M  V30 4336 C 415.923 -3.1231 0.207683 0
M  V30 4337 C 416.398 -4.54793 0.541012 0
M  V30 4338 N 417.889 -4.6058 0.491921 0
M  V30 4339 C 418.624 -5.68825 0.722857 0
M  V30 4340 N 418.12 -6.85287 1.0175 0
M  V30 4341 N 419.913 -5.58296 0.652815 0
M  V30 4342 H 412.064 -1.74409 1.21224 0
M  V30 4343 H 414.327 -0.812424 0.48854 0
M  V30 4344 H 414.033 -3.27593 1.27967 0
M  V30 4345 H 413.907 -3.75019 -0.40508 0
M  V30 4346 H 416.294 -2.84044 -0.800195 0
M  V30 4347 H 416.375 -2.39095 0.909255 0
M  V30 4348 H 416.019 -4.83783 1.5465 0
M  V30 4349 H 415.949 -5.26285 -0.18216 0
M  V30 4350 H 418.44 -3.7691 0.273366 0
M  V30 4351 H 418.753 -7.63725 1.18084 0
M  V30 4352 H 417.098 -6.86945 1.05509 0
M  V30 4353 H 420.289 -4.66189 0.422592 0
M  V30 4354 H 420.462 -6.42582 0.836182 0
M  V30 4355 N 413.868 0.0150385 -1.57593 0
M  V30 4356 C 415.096 0.714395 -1.94175 0
M  V30 4357 C 415.511 1.68135 -0.858841 0
M  V30 4358 O 414.868 1.81766 0.163567 0
M  V30 4359 C 414.919 1.45933 -3.30735 0
M  V30 4360 O 414.64 0.531167 -4.34868 0
M  V30 4361 C 416.141 2.25456 -3.81686 0
M  V30 4362 H 413.361 0.199923 -0.640525 0
M  V30 4363 H 415.905 -0.0316096 -2.04476 0
M  V30 4364 H 414.06 2.15709 -3.21789 0
M  V30 4365 H 414.474 1.05509 -5.13778 0
M  V30 4366 H 415.948 2.731 -4.79709 0
M  V30 4367 H 416.425 3.07485 -3.13607 0
M  V30 4368 H 417.031 1.60727 -3.9376 0
M  V30 4369 N 415.346 1.54954 0.287554 0
M  V30 4370 C 416.574 1.78881 1.03967 0
M  V30 4371 C 416.989 0.554894 1.80462 0
M  V30 4372 O 416.346 -0.475676 1.76192 0
M  V30 4373 C 416.397 3.00488 2.0097 0
M  V30 4374 O 416.118 4.19113 1.27577 0
M  V30 4375 C 417.619 3.36907 2.88112 0
M  V30 4376 H 414.839 0.596259 0.307761 0
M  V30 4377 H 417.383 2.01937 0.322749 0
M  V30 4378 H 415.538 2.79601 2.68145 0
M  V30 4379 H 415.952 4.87765 1.92835 0
M  V30 4380 H 417.426 4.25205 3.52001 0
M  V30 4381 H 417.903 2.55659 3.57121 0
M  V30 4382 H 418.509 3.60001 2.26449 0
M  V30 4383 N 416.824 -0.551391 1.4764 0
M  V30 4384 C 417.754 -1.66757 1.63445 0
M  V30 4385 C 418.735 -1.63077 0.483742 0
M  V30 4386 O 419.92 -1.80607 0.71377 0
M  V30 4387 C 417.05 -3.05387 1.65396 0
M  V30 4388 C 416.004 -3.23918 2.79752 0
M  V30 4389 C 415.33 -4.63393 2.66779 0
M  V30 4390 C 416.63 -3.08735 4.21284 0
M  V30 4391 H 418.324 -1.53786 2.56886 0
M  V30 4392 H 415.87 -0.738415 1.23626 0
M  V30 4393 H 417.823 -3.83325 1.75043 0
M  V30 4394 H 416.547 -3.19332 0.685195 0
M  V30 4395 H 415.206 -2.48391 2.69625 0
M  V30 4396 H 414.854 -4.74144 1.67918 0
M  V30 4397 H 414.554 -4.7674 3.43501 0
M  V30 4398 H 416.078 -5.43458 2.78364 0
M  V30 4399 H 417.492 -3.76484 4.32357 0
M  V30 4400 H 415.889 -3.33588 4.98838 0
M  V30 4401 H 416.959 -2.0541 4.39243 0
M  V30 4402 N 418.302 -1.35869 -0.798587 0
M  V30 4403 C 419.549 -1.29588 -1.55606 0
M  V30 4404 C 419.877 0.127456 -1.94082 0
M  V30 4405 O 419.132 1.09461 -1.62225 0
M  V30 4406 C 419.431 -2.1556 -2.85077 0
M  V30 4407 C 419.097 -3.6424 -2.65781 0
M  V30 4408 C 417.759 -4.04766 -2.60227 0
M  V30 4409 C 420.111 -4.58547 -2.47758 0
M  V30 4410 C 417.439 -5.37753 -2.34603 0
M  V30 4411 C 419.791 -5.91742 -2.23662 0
M  V30 4412 C 418.455 -6.31402 -2.16534 0
M  V30 4413 H 417.725 -0.474197 -0.569402 0
M  V30 4414 H 420.372 -1.67839 -0.922086 0
M  V30 4415 H 418.677 -1.70216 -3.52893 0
M  V30 4416 H 420.374 -2.08031 -3.42818 0
M  V30 4417 H 416.964 -3.32086 -2.70956 0
M  V30 4418 H 421.148 -4.28117 -2.51056 0
M  V30 4419 H 416.404 -5.67474 -2.2756 0
M  V30 4420 H 420.578 -6.6439 -2.08708 0
M  V30 4421 H 418.205 -7.34381 -1.96441 0
M  V30 4422 N 419.78 1.02168 -1.19998 0
M  V30 4423 C 421.196 1.27969 -0.953737 0
M  V30 4424 C 421.396 1.98079 0.369703 0
M  V30 4425 O 420.452 2.27306 1.09947 0
M  V30 4426 C 421.765 2.11971 -2.13281 0
M  V30 4427 C 423.313 2.25255 -2.17323 0
M  V30 4428 C 423.788 3.12632 -3.34702 0
M  V30 4429 N 425.279 3.2022 -3.34684 0
M  V30 4430 C 426.014 3.88039 -4.22153 0
M  V30 4431 N 425.51 4.58027 -5.19791 0
M  V30 4432 N 427.303 3.84511 -4.10009 0
M  V30 4433 H 419.454 0.550794 -2.05134 0
M  V30 4434 H 421.717 0.305683 -0.897364 0
M  V30 4435 H 421.423 1.67785 -3.09097 0
M  V30 4436 H 421.297 3.12699 -2.10949 0
M  V30 4437 H 423.684 2.68667 -1.22073 0
M  V30 4438 H 423.765 1.24053 -2.23706 0
M  V30 4439 H 423.409 2.69926 -4.30235 0
M  V30 4440 H 423.339 4.13909 -3.25556 0
M  V30 4441 H 425.83 2.70382 -2.64012 0
M  V30 4442 H 426.143 5.07429 -5.82868 0
M  V30 4443 H 424.488 4.56869 -5.23733 0
M  V30 4444 H 427.679 3.28978 -3.33003 0
M  V30 4445 H 427.852 4.3709 -4.78389 0
M  V30 4446 N 421.258 1.00505 1.21394 0
M  V30 4447 C 422.205 0.565496 2.23765 0
M  V30 4448 C 423.175 -0.408466 1.60999 0
M  V30 4449 O 424.36 -0.310503 1.88257 0
M  V30 4450 C 421.5 -0.101667 3.4495 0
M  V30 4451 C 420.613 0.915479 4.22188 0
M  V30 4452 C 419.748 0.220574 5.30742 0
M  V30 4453 C 418.787 1.22527 5.99711 0
M  V30 4454 N 417.924 0.557831 6.9988 0
M  V30 4455 H 422.764 1.44314 2.60725 0
M  V30 4456 H 420.301 0.722643 1.28126 0
M  V30 4457 H 422.259 -0.505504 4.14126 0
M  V30 4458 H 420.889 -0.94303 3.08718 0
M  V30 4459 H 419.941 1.43756 3.52191 0
M  V30 4460 H 421.253 1.68005 4.69655 0
M  V30 4461 H 420.407 -0.239368 6.06228 0
M  V30 4462 H 419.146 -0.576401 4.84282 0
M  V30 4463 H 418.151 1.69571 5.22997 0
M  V30 4464 H 419.376 2.02332 6.48258 0
M  V30 4465 H 417.322 -0.219486 6.55633 0
M  V30 4466 H 417.239 1.26065 7.45415 0
M  V30 4467 H 418.507 0.121095 7.79406 0
M  V30 4468 N 422.737 -1.36956 0.779787 0
M  V30 4469 C 423.986 -1.98738 0.344405 0
M  V30 4470 C 424.299 -1.62596 -1.08728 0
M  V30 4471 O 425.505 -2.1754 -1.62445 0
M  V30 4472 C 423.961 -3.5544 0.564829 0
M  V30 4473 C 423.569 -4.00514 2.0073 0
M  V30 4474 C 425.313 -4.24059 0.193471 0
M  V30 4475 C 423.22 -5.49957 2.17489 0
M  V30 4476 H 422.15 -0.743561 0.12503 0
M  V30 4477 H 424.801 -1.56381 0.960057 0
M  V30 4478 H 423.183 -3.95817 -0.120397 0
M  V30 4479 H 424.357 -3.71362 2.72814 0
M  V30 4480 H 422.672 -3.44703 2.336 0
M  V30 4481 H 425.269 -5.33874 0.297097 0
M  V30 4482 H 425.612 -4.07378 -0.857263 0
M  V30 4483 H 426.145 -3.89012 0.831556 0
M  V30 4484 H 422.884 -5.71574 3.2091 0
M  V30 4485 H 422.404 -5.80767 1.49899 0
M  V30 4486 H 424.083 -6.16043 1.97738 0
M  V30 4487 N 424.215 -0.530993 -1.48385 0
M  V30 4488 C 425.463 0.00273189 -2.021 0
M  V30 4489 C 425.784 1.34672 -1.41027 0
M  V30 4490 O 425.054 1.8724 -0.576012 0
M  V30 4491 H 423.634 0.00399774 -0.746989 0
M  V30 4492 H 426.296 -0.695054 -1.82085 0
M  V30 4493 H 425.392 0.11031 -3.11905 0
M  V30 4494 N 425.693 1.55336 -0.266172 0
M  V30 4495 C 426.97 1.91372 0.404486 0
M  V30 4496 C 427.35 1.18935 1.74407 0
M  V30 4497 O 426.698 0.3132 2.26343 0
M  V30 4498 C 426.908 3.44581 0.553593 0
M  V30 4499 C 428.256 4.16196 0.840618 0
M  V30 4500 O 429.28 3.50426 0.638739 0
M  V30 4501 O 428.139 5.32567 1.22618 0
M  V30 4502 H 425.233 0.797194 0.220025 0
M  V30 4503 H 427.779 1.66813 -0.311664 0
M  V30 4504 H 426.551 3.89357 -0.389498 0
M  V30 4505 H 426.174 3.75065 1.31955 0
M  V30 4506 N 427.171 -0.0066808 1.57599 0
M  V30 4507 C 428.418 -0.69292 1.90276 0
M  V30 4508 C 428.746 -1.74148 0.866192 0
M  V30 4509 O 428.001 -1.95268 -0.129933 0
M  V30 4510 C 428.3 -1.37939 3.29708 0
M  V30 4511 C 427.966 -0.464679 4.48499 0
M  V30 4512 C 426.628 -0.212809 4.80729 0
M  V30 4513 C 428.98 0.16551 5.20937 0
M  V30 4514 C 426.308 0.677653 5.82773 0
M  V30 4515 C 428.66 1.04381 6.23929 0
M  V30 4516 C 427.324 1.30492 6.54621 0
M  V30 4517 H 426.594 -0.253558 0.696268 0
M  V30 4518 H 429.241 0.0474123 1.91441 0
M  V30 4519 H 427.546 -2.1936 3.24636 0
M  V30 4520 H 429.243 -1.9163 3.52249 0
M  V30 4521 H 425.833 -0.671153 4.23313 0
M  V30 4522 H 430.017 -0.0160756 4.96297 0
M  V30 4523 H 425.273 0.88803 6.04917 0
M  V30 4524 H 429.447 1.53851 6.79193 0
M  V30 4525 H 427.074 1.99662 7.33512 0
M  V30 4526 N 428.649 -1.55105 -0.279332 0
M  V30 4527 C 430.065 -1.46803 -0.626187 0
M  V30 4528 C 430.265 -0.676939 -1.89789 0
M  V30 4529 O 429.321 -0.19326 -2.51759 0
M  V30 4530 C 430.634 -2.90962 -0.759034 0
M  V30 4531 C 432.182 -3.01138 -0.853504 0
M  V30 4532 C 432.657 -4.46539 -1.01818 0
M  V30 4533 N 434.148 -4.50341 -1.08386 0
M  V30 4534 C 434.883 -5.60053 -1.22996 0
M  V30 4535 N 434.379 -6.79645 -1.34366 0
M  V30 4536 N 436.172 -5.47783 -1.26056 0
M  V30 4537 H 428.323 -2.04996 0.555921 0
M  V30 4538 H 430.586 -0.929325 0.187239 0
M  V30 4539 H 430.292 -3.51544 0.104852 0
M  V30 4540 H 430.166 -3.39619 -1.64131 0
M  V30 4541 H 432.553 -2.40658 -1.70786 0
M  V30 4542 H 432.634 -2.55745 0.0532466 0
M  V30 4543 H 432.278 -5.0762 -0.168504 0
M  V30 4544 H 432.208 -4.89583 -1.93948 0
M  V30 4545 H 434.699 -3.64191 -1.00864 0
M  V30 4546 H 435.012 -7.59012 -1.4533 0
M  V30 4547 H 433.357 -6.82469 -1.31382 0
M  V30 4548 H 436.548 -4.53294 -1.168 0
M  V30 4549 H 436.721 -6.33331 -1.37098 0
M  V30 4550 N 430.127 0.543554 -1.4793 0
M  V30 4551 C 431.352 1.32995 -1.59145 0
M  V30 4552 C 431.777 1.86472 -0.246956 0
M  V30 4553 O 431.135 1.63696 0.779324 0
M  V30 4554 C 431.183 2.46623 -2.63077 0
M  V30 4555 O 430.287 3.49261 -2.19295 0
M  V30 4556 H 429.628 0.394472 -0.534124 0
M  V30 4557 H 432.158 0.655489 -1.93816 0
M  V30 4558 H 432.168 2.93001 -2.83926 0
M  V30 4559 H 430.843 2.07059 -3.60693 0
M  V30 4560 H 429.42 3.09094 -2.08603 0
M  V30 4561 N 431.605 1.3629 0.791371 0
M  V30 4562 C 432.535 1.33137 1.91825 0
M  V30 4563 C 433.516 0.203168 1.68882 0
M  V30 4564 O 434.701 0.400509 1.90025 0
M  V30 4565 C 431.831 1.11793 3.28816 0
M  V30 4566 C 430.785 2.21417 3.66277 0
M  V30 4567 C 430.111 1.85218 5.01596 0
M  V30 4568 C 431.411 3.63489 3.75064 0
M  V30 4569 H 433.105 2.2743 1.9472 0
M  V30 4570 H 430.651 1.09479 0.935437 0
M  V30 4571 H 432.604 1.08222 4.07266 0
M  V30 4572 H 431.328 0.139501 3.26302 0
M  V30 4573 H 429.987 2.2411 2.90121 0
M  V30 4574 H 429.635 0.859544 4.95602 0
M  V30 4575 H 429.335 2.58611 5.27631 0
M  V30 4576 H 430.859 1.832 5.82469 0
M  V30 4577 H 432.273 3.63034 4.43711 0
M  V30 4578 H 430.67 4.35771 4.12582 0
M  V30 4579 H 431.74 3.98536 2.76219 0
M  V30 4580 N 433.083 -1.0153 1.20538 0
M  V30 4581 C 433.993 -2.13557 0.971113 0
M  V30 4582 C 435.009 -1.73845 -0.0734366 0
M  V30 4583 O 436.185 -2.01075 0.114299 0
M  V30 4584 C 433.25 -3.42661 0.527639 0
M  V30 4585 C 432.311 -3.96608 1.64319 0
M  V30 4586 C 431.544 -5.1955 1.22078 0
M  V30 4587 O 431.767 -5.70329 0.0900198 0
M  V30 4588 O 430.701 -5.66681 2.02871 0
M  V30 4589 H 434.527 -2.3619 1.90913 0
M  V30 4590 H 432.112 -1.11946 0.989362 0
M  V30 4591 H 433.994 -4.20404 0.289621 0
M  V30 4592 H 432.669 -3.21441 -0.381779 0
M  V30 4593 H 431.576 -3.20139 1.93551 0
M  V30 4594 H 432.909 -4.22219 2.52966 0
M  V30 4595 N 434.561 -1.01147 -1.20859 0
M  V30 4596 C 435.508 -0.577354 -2.23462 0
M  V30 4597 C 436.478 0.399922 -1.61214 0
M  V30 4598 O 437.663 0.300515 -1.88419 0
M  V30 4599 C 434.803 0.083372 -3.44999 0
M  V30 4600 C 433.916 -0.937856 -4.21697 0
M  V30 4601 C 433.051 -0.248717 -5.30617 0
M  V30 4602 C 432.09 -1.25705 -5.99053 0
M  V30 4603 N 431.227 -0.594939 -6.99575 0
M  V30 4604 H 436.067 -1.45695 -2.59956 0
M  V30 4605 H 433.604 -0.729428 -1.27741 0
M  V30 4606 H 435.562 0.483535 -4.14388 0
M  V30 4607 H 434.192 0.926645 -3.09214 0
M  V30 4608 H 433.244 -1.45622 -3.51423 0
M  V30 4609 H 434.556 -1.70493 -4.68757 0
M  V30 4610 H 433.71 0.207215 -6.06346 0
M  V30 4611 H 432.449 0.55071 -4.84581 0
M  V30 4612 H 431.454 -1.72343 -5.2209 0
M  V30 4613 H 432.679 -2.05767 -6.47176 0
M  V30 4614 H 430.625 0.184713 -6.5574 0
M  V30 4615 H 430.542 -1.30017 -7.44736 0
M  V30 4616 H 431.81 -0.162427 -7.79331 0
M  V30 4617 N 436.039 1.36541 -0.78704 0
M  V30 4618 C 437.288 1.98552 -0.35494 0
M  V30 4619 C 437.601 1.63171 1.07864 0
M  V30 4620 O 438.807 2.18399 1.61289 0
M  V30 4621 C 437.263 3.55136 -0.583671 0
M  V30 4622 C 436.871 3.99444 -2.02851 0
M  V30 4623 C 438.615 4.2395 -0.215957 0
M  V30 4624 C 436.522 5.48796 -2.20403 0
M  V30 4625 H 435.452 0.742888 -0.128972 0
M  V30 4626 H 438.103 1.5587 -0.968337 0
M  V30 4627 H 436.485 3.95875 0.0994046 0
M  V30 4628 H 437.659 3.6991 -2.74779 0
M  V30 4629 H 435.974 3.43459 -2.35425 0
M  V30 4630 H 438.571 5.33709 -0.325405 0
M  V30 4631 H 438.914 4.07827 0.835646 0
M  V30 4632 H 439.447 3.88565 -0.852175 0
M  V30 4633 H 436.186 5.69864 -3.23937 0
M  V30 4634 H 435.706 5.79964 -1.52977 0
M  V30 4635 H 437.385 6.14986 -2.01002 0
M  V30 4636 N 437.518 0.538854 1.48102 0
M  V30 4637 C 438.743 0.0102694 2.07397 0
M  V30 4638 C 439.168 -1.26562 1.39153 0
M  V30 4639 O 438.526 -1.75357 0.460387 0
M  V30 4640 C 438.574 -0.187602 3.60112 0
M  V30 4641 O 437.678 -1.25432 3.92862 0
M  V30 4642 H 437.019 0.0430975 0.6626 0
M  V30 4643 H 439.549 0.749301 1.90385 0
M  V30 4644 H 439.559 -0.407517 4.0596 0
M  V30 4645 H 438.234 0.744386 4.09184 0
M  V30 4646 H 436.811 -1.01636 3.58782 0
M  V30 4647 N 438.996 -1.55193 0.274407 0
M  V30 4648 C 440.412 -1.59401 -0.0797543 0
M  V30 4649 C 440.612 -1.29162 -1.54659 0
M  V30 4650 O 439.668 -1.05215 -2.29534 0
M  V30 4651 C 440.981 -2.99257 0.294238 0
M  V30 4652 C 442.529 -3.12072 0.240796 0
M  V30 4653 C 443.004 -4.54194 0.589218 0
M  V30 4654 N 444.495 -4.60033 0.540744 0
M  V30 4655 C 445.23 -5.68027 0.783147 0
M  V30 4656 N 444.726 -6.8417 1.09013 0
M  V30 4657 N 446.519 -5.57572 0.711993 0
M  V30 4658 H 438.67 -1.73113 1.23067 0
M  V30 4659 H 440.933 -0.807197 0.497129 0
M  V30 4660 H 440.639 -3.26217 1.31435 0
M  V30 4661 H 440.513 -3.75427 -0.365281 0
M  V30 4662 H 442.9 -2.84877 -0.770024 0
M  V30 4663 H 442.981 -2.38117 0.934563 0
M  V30 4664 H 442.625 -4.82115 1.59772 0
M  V30 4665 H 442.555 -5.26448 -0.126331 0
M  V30 4666 H 445.046 -3.76599 0.313327 0
M  V30 4667 H 445.359 -7.6243 1.26178 0
M  V30 4668 H 443.704 -6.85787 1.12789 0
M  V30 4669 H 446.895 -4.65714 0.472014 0
M  V30 4670 H 447.068 -6.41659 0.90429 0
M  V30 4671 N 440.474 -0.00167713 -1.576 0
M  V30 4672 C 441.384 1.00548 -2.1196 0
M  V30 4673 C 442.4 1.3758 -1.06526 0
M  V30 4674 O 443.576 1.46278 -1.38436 0
M  V30 4675 C 440.641 2.27809 -2.6135 0
M  V30 4676 C 439.702 1.97074 -3.81393 0
M  V30 4677 C 438.935 3.18267 -4.28417 0
M  V30 4678 O 439.158 4.30009 -3.74765 0
M  V30 4679 O 438.092 3.02167 -5.20556 0
M  V30 4680 H 441.918 0.573373 -2.98238 0
M  V30 4681 H 439.503 0.217255 -1.47812 0
M  V30 4682 H 441.385 3.02568 -2.93309 0
M  V30 4683 H 440.06 2.70254 -1.78169 0
M  V30 4684 H 438.967 1.19785 -3.54404 0
M  V30 4685 H 440.3 1.59464 -4.65652 0
M  V30 4686 N 441.952 1.55251 0.271103 0
M  V30 4687 C 443.198 1.76207 1.00394 0
M  V30 4688 C 443.531 0.562604 1.85872 0
M  V30 4689 O 442.806 -0.439785 1.89463 0
M  V30 4690 C 443.089 3.06828 1.8849 0
M  V30 4691 C 442.942 4.37134 1.05992 0
M  V30 4692 C 444.261 3.33503 2.87165 0
M  V30 4693 H 441.38 0.641086 0.363562 0
M  V30 4694 H 444.022 1.87982 0.276189 0
M  V30 4695 H 442.172 2.96921 2.5054 0
M  V30 4696 H 443.844 4.59001 0.459978 0
M  V30 4697 H 442.087 4.32275 0.363443 0
M  V30 4698 H 442.758 5.2486 1.70955 0
M  V30 4699 H 445.234 3.43215 2.3525 0
M  V30 4700 H 444.11 4.2616 3.45946 0
M  V30 4701 H 444.371 2.53235 3.62387 0
M  V30 4702 N 443.43 -0.535701 1.48216 0
M  V30 4703 C 444.377 -1.64083 1.62312 0
M  V30 4704 C 445.347 -1.59448 0.465365 0
M  V30 4705 O 446.532 -1.77959 0.688135 0
M  V30 4706 C 443.672 -3.0236 1.66349 0
M  V30 4707 C 442.785 -3.17273 2.93193 0
M  V30 4708 C 441.92 -4.46075 2.88427 0
M  V30 4709 C 440.959 -4.54496 4.1 0
M  V30 4710 N 440.096 -5.7468 4.03345 0
M  V30 4711 H 444.936 -1.51374 2.5669 0
M  V30 4712 H 442.473 -0.737059 1.27302 0
M  V30 4713 H 444.431 -3.82461 1.66672 0
M  V30 4714 H 443.061 -3.13854 0.754672 0
M  V30 4715 H 442.113 -2.30462 3.02641 0
M  V30 4716 H 443.425 -3.19357 3.83162 0
M  V30 4717 H 442.579 -5.3446 2.87119 0
M  V30 4718 H 441.318 -4.46504 1.96177 0
M  V30 4719 H 440.323 -3.64519 4.11589 0
M  V30 4720 H 441.548 -4.5581 5.03402 0
M  V30 4721 H 439.494 -5.76017 3.13912 0
M  V30 4722 H 439.411 -5.78234 4.87013 0
M  V30 4723 H 440.679 -6.65367 4.06087 0
M  V30 4724 N 444.908 -1.36708 -0.784132 0
M  V30 4725 C 446.133 -1.34565 -1.5782 0
M  V30 4726 C 446.558 0.0695257 -1.87971 0
M  V30 4727 O 445.916 1.04302 -1.48293 0
M  V30 4728 C 445.964 -2.17952 -2.87279 0
M  V30 4729 O 445.068 -1.57563 -3.81114 0
M  V30 4730 H 444.409 -0.460337 -0.478524 0
M  V30 4731 H 446.939 -1.80064 -0.971495 0
M  V30 4732 H 446.949 -2.30721 -3.365 0
M  V30 4733 H 445.624 -3.20823 -2.64661 0
M  V30 4734 H 444.201 -1.53764 -3.39722 0
M  V30 4735 N 446.386 1.0089 -1.21074 0
M  V30 4736 C 447.635 1.74019 -1.01981 0
M  V30 4737 C 447.948 1.90408 0.447665 0
M  V30 4738 O 449.154 2.60707 0.757906 0
M  V30 4739 C 447.61 3.13026 -1.77603 0
M  V30 4740 C 447.218 3.04623 -3.28495 0
M  V30 4741 C 448.962 3.90312 -1.66904 0
M  V30 4742 C 446.869 4.38685 -3.96623 0
M  V30 4743 H 445.799 0.652422 -0.377971 0
M  V30 4744 H 448.45 1.12755 -1.44771 0
M  V30 4745 H 446.832 3.74878 -1.27604 0
M  V30 4746 H 448.006 2.52032 -3.85767 0
M  V30 4747 H 446.321 2.40827 -3.39693 0
M  V30 4748 H 448.918 4.8951 -2.15138 0
M  V30 4749 H 449.261 4.11558 -0.62658 0
M  V30 4750 H 449.794 3.35104 -2.14359 0
M  V30 4751 H 446.533 4.22641 -5.01054 0
M  V30 4752 H 446.053 4.91252 -3.4414 0
M  V30 4753 H 447.732 5.075 -4.01314 0
M  V30 4754 N 447.864 1.01787 1.20321 0
M  V30 4755 C 449.092 0.727194 1.937 0
M  V30 4756 C 449.507 -0.712305 1.74848 0
M  V30 4757 O 448.864 -1.48327 1.06327 0
M  V30 4758 C 448.915 1.05497 3.45764 0
M  V30 4759 O 448.636 2.43794 3.64 0
M  V30 4760 C 450.137 0.785534 4.36285 0
M  V30 4761 H 447.357 0.266939 0.615617 0
M  V30 4762 H 449.901 1.35939 1.52777 0
M  V30 4763 H 448.056 0.468158 3.84561 0
M  V30 4764 H 448.47 2.55656 4.57974 0
M  V30 4765 H 449.944 1.06495 5.4163 0
M  V30 4766 H 450.421 -0.280273 4.38305 0
M  V30 4767 H 451.027 1.35456 4.03152 0
M  V30 4768 N 449.342 -1.36122 0.79427 0
M  V30 4769 C 450.591 -1.98361 0.365464 0
M  V30 4770 C 450.904 -1.6374 -1.06997 0
M  V30 4771 O 452.11 -2.19251 -1.60129 0
M  V30 4772 C 450.566 -3.54821 0.602496 0
M  V30 4773 C 450.174 -3.98362 2.04967 0
M  V30 4774 C 451.918 -4.2383 0.238437 0
M  V30 4775 C 449.825 -5.47619 2.2331 0
M  V30 4776 H 448.755 -0.742193 0.13291 0
M  V30 4777 H 451.406 -1.55354 0.976589 0
M  V30 4778 H 449.788 -3.95922 -0.078409 0
M  V30 4779 H 450.962 -3.68447 2.76737 0
M  V30 4780 H 449.277 -3.42206 2.37243 0
M  V30 4781 H 451.874 -5.33529 0.353705 0
M  V30 4782 H 452.217 -4.08264 -0.814006 0
M  V30 4783 H 452.75 -3.88108 0.872769 0
M  V30 4784 H 449.489 -5.68138 3.26955 0
M  V30 4785 H 449.009 -5.79145 1.5605 0
M  V30 4786 H 450.688 -6.13911 2.0426 0
M  V30 4787 N 450.82 -0.546701 -1.47814 0
M  V30 4788 C 452.069 -0.0166497 -2.01693 0
M  V30 4789 C 452.382 1.33721 -1.42752 0
M  V30 4790 O 453.588 1.95658 -1.8823 0
M  V30 4791 C 452.044 0.0206769 -3.59894 0
M  V30 4792 C 451.652 -1.3293 -4.27824 0
M  V30 4793 C 453.396 0.498674 -4.21561 0
M  V30 4794 C 451.303 -1.25165 -5.78003 0
M  V30 4795 H 450.233 -0.0024541 -0.753996 0
M  V30 4796 H 452.884 -0.692984 -1.69912 0
M  V30 4797 H 451.266 0.76244 -3.88591 0
M  V30 4798 H 452.44 -2.08795 -4.10781 0
M  V30 4799 H 450.755 -1.74438 -3.78101 0
M  V30 4800 H 453.352 0.575 -5.31599 0
M  V30 4801 H 453.695 1.5083 -3.88016 0
M  V30 4802 H 454.228 -0.18791 -3.97356 0
M  V30 4803 H 450.967 -2.23695 -6.1615 0
M  V30 4804 H 450.487 -0.53464 -5.97412 0
M  V30 4805 H 452.166 -0.949299 -6.39998 0
M  V30 4806 N 452.299 1.55045 -0.282633 0
M  V30 4807 C 453.547 1.99365 0.331334 0
M  V30 4808 C 453.868 1.1725 1.55812 0
M  V30 4809 O 453.138 0.263871 1.94115 0
M  V30 4810 H 451.718 0.736397 0.125414 0
M  V30 4811 H 454.38 1.90964 -0.389711 0
M  V30 4812 H 453.476 3.0596 0.616036 0
M  V30 4813 N 453.777 0.010035 1.57597 0
M  V30 4814 C 455.025 -0.671371 1.90623 0
M  V30 4815 C 455.346 -1.73753 0.885151 0
M  V30 4816 O 454.616 -1.95752 -0.0760611 0
M  V30 4817 H 453.196 -0.250968 0.703579 0
M  V30 4818 H 455.858 0.0533325 1.94827 0
M  V30 4819 H 454.954 -1.13626 2.90681 0
M  V30 4820 N 455.255 -1.55392 -0.262866 0
M  V30 4821 C 456.503 -1.76127 -0.991147 0
M  V30 4822 C 456.824 -0.571083 -1.8645 0
M  V30 4823 O 456.094 0.413698 -1.91482 0
M  V30 4824 H 454.674 -0.649528 -0.368948 0
M  V30 4825 H 457.336 -1.9281 -0.284655 0
M  V30 4826 H 456.432 -2.6663 -1.62219 0
M  V30 4827 N 456.733 0.527833 -1.48498 0
M  V30 4828 C 457.98 1.28354 -1.56625 0
M  V30 4829 C 458.308 1.93 -0.241096 0
M  V30 4830 O 457.563 1.79967 0.768798 0
M  V30 4831 C 457.862 2.39275 -2.65485 0
M  V30 4832 C 457.528 1.92268 -4.07853 0
M  V30 4833 C 456.19 1.79166 -4.46602 0
M  V30 4834 C 458.542 1.56771 -4.97064 0
M  V30 4835 C 455.87 1.28905 -5.72364 0
M  V30 4836 C 458.222 1.07972 -6.23318 0
M  V30 4837 C 456.886 0.934887 -6.60921 0
M  V30 4838 H 456.156 0.469682 -0.573131 0
M  V30 4839 H 458.803 0.588781 -1.82224 0
M  V30 4840 H 457.108 3.1443 -2.33754 0
M  V30 4841 H 458.805 2.974 -2.68988 0
M  V30 4842 H 455.395 2.03417 -3.77252 0
M  V30 4843 H 459.579 1.65753 -4.67803 0
M  V30 4844 H 454.835 1.16381 -6.00221 0
M  V30 4845 H 459.009 0.795775 -6.91838 0
M  V30 4846 H 456.636 0.543231 -7.58257 0
M  V30 4847 N 458.211 1.37122 0.776871 0
M  V30 4848 C 459.141 1.35164 1.90402 0
M  V30 4849 C 460.122 0.221069 1.68657 0
M  V30 4850 O 461.307 0.420642 1.8959 0
M  V30 4851 C 458.437 1.15274 3.27611 0
M  V30 4852 C 457.391 2.25289 3.63908 0
M  V30 4853 C 456.717 1.90527 4.99603 0
M  V30 4854 C 458.017 3.67446 3.71188 0
M  V30 4855 H 459.711 2.29482 1.92297 0
M  V30 4856 H 457.257 1.10465 0.923773 0
M  V30 4857 H 459.21 1.12536 4.06096 0
M  V30 4858 H 457.934 0.174102 3.26136 0
M  V30 4859 H 456.593 2.27174 2.87728 0
M  V30 4860 H 456.241 0.91206 4.94662 0
M  V30 4861 H 455.941 2.64193 5.24858 0
M  V30 4862 H 457.465 1.89367 5.80493 0
M  V30 4863 H 458.879 3.67719 4.39836 0
M  V30 4864 H 457.276 4.40123 4.07936 0
M  V30 4865 H 458.346 4.01443 2.71977 0
M  V30 4866 N 459.689 -1.00246 1.21608 0
M  V30 4867 C 460.937 -1.73717 1.0328 0
M  V30 4868 C 461.258 -1.90102 -0.434318 0
M  V30 4869 O 460.528 -1.45376 -1.31311 0
M  V30 4870 H 459.108 -0.643613 0.379172 0
M  V30 4871 H 461.77 -1.20787 1.52959 0
M  V30 4872 H 460.866 -2.73535 1.50283 0
M  V30 4873 N 461.167 -1.02423 -1.1978 0
M  V30 4874 C 462.392 -0.7373 -1.93852 0
M  V30 4875 C 462.817 0.696923 -1.74713 0
M  V30 4876 O 462.175 1.48056 -1.04638 0
M  V30 4877 C 462.223 -1.08783 -3.438 0
M  V30 4878 O 461.327 -0.20383 -4.11896 0
M  V30 4879 H 460.668 -0.27284 -0.605355 0
M  V30 4880 H 463.198 -1.36966 -1.51992 0
M  V30 4881 H 463.208 -1.04276 -3.9445 0
M  V30 4882 H 461.883 -2.13274 -3.57053 0
M  V30 4883 H 460.46 -0.307091 -3.71633 0
M  V30 4884 N 462.645 1.35699 -0.801477 0
M  V30 4885 C 463.555 2.33661 -0.209691 0
M  V30 4886 C 464.571 1.6162 0.644591 0
M  V30 4887 O 465.747 1.93529 0.557545 0
M  V30 4888 C 462.812 3.40816 0.636033 0
M  V30 4889 C 461.873 4.28639 -0.238147 0
M  V30 4890 C 461.106 5.30676 0.567307 0
M  V30 4891 O 461.329 5.41174 1.8024 0
M  V30 4892 O 460.263 6.01887 -0.0391336 0
M  V30 4893 H 464.089 2.8606 -1.01996 0
M  V30 4894 H 461.674 1.38379 -0.563164 0
M  V30 4895 H 463.556 4.06301 1.11791 0
M  V30 4896 H 462.231 2.90696 1.42399 0
M  V30 4897 H 461.138 3.66152 -0.767044 0
M  V30 4898 H 462.471 4.82143 -0.989915 0
M  V30 4899 N 464.123 0.554532 1.47522 0
M  V30 4900 C 465.053 -0.182974 2.32782 0
M  V30 4901 C 466.034 -0.911377 1.43624 0
M  V30 4902 O 467.219 -0.892366 1.72483 0
M  V30 4903 C 464.349 -1.21513 3.25349 0
M  V30 4904 C 463.303 -0.603355 4.23726 0
M  V30 4905 C 462.629 -1.73995 5.05598 0
M  V30 4906 C 463.929 0.441121 5.20434 0
M  V30 4907 H 465.623 0.52882 2.94693 0
M  V30 4908 H 463.169 0.255759 1.41711 0
M  V30 4909 H 465.122 -1.73922 3.83835 0
M  V30 4910 H 463.846 -1.95683 2.61487 0
M  V30 4911 H 462.505 -0.10059 3.66462 0
M  V30 4912 H 462.153 -2.47063 4.38143 0
M  V30 4913 H 461.853 -1.3364 5.72201 0
M  V30 4914 H 463.377 -2.26735 5.66942 0
M  V30 4915 H 464.791 0.00319931 5.733 0
M  V30 4916 H 463.188 0.763402 5.95224 0
M  V30 4917 H 464.258 1.33799 4.66075 0
M  V30 4918 N 465.601 -1.54893 0.290851 0
M  V30 4919 C 466.564 -2.21824 -0.576784 0
M  V30 4920 C 467.564 -1.20104 -1.06919 0
M  V30 4921 O 468.754 -1.44906 -0.966843 0
M  V30 4922 C 465.886 -2.89662 -1.79747 0
M  V30 4923 H 467.079 -2.99899 0.00784051 0
M  V30 4924 H 464.632 -1.56245 0.0415934 0
M  V30 4925 H 465.367 -2.15639 -2.42219 0
M  V30 4926 H 465.152 -3.64219 -1.45214 0
M  V30 4927 H 466.642 -3.4075 -2.4141 0
M  V30 4928 N 467.08 -0.0183926 -1.57589 0
M  V30 4929 C 468.32 0.666846 -1.93216 0
M  V30 4930 C 468.684 1.69905 -0.894215 0
M  V30 4931 O 469.885 2.436 -1.13633 0
M  V30 4932 C 468.156 1.27684 -3.33814 0
M  V30 4933 S 469.715 1.98464 -3.91353 0
M  V30 4934 H 466.533 0.219826 -0.676164 0
M  V30 4935 H 469.135 -0.0794893 -1.95338 0
M  V30 4936 H 467.839 0.513006 -4.07181 0
M  V30 4937 H 467.37 2.06071 -3.3511 0
M  V30 4938 H 469.385 3.26189 -3.73918 0
M  V30 4939 N 468.558 1.5553 0.254621 0
M  V30 4940 C 469.521 1.88872 1.29846 0
M  V30 4941 C 470.521 0.764591 1.41459 0
M  V30 4942 O 471.711 1.03265 1.40293 0
M  V30 4943 C 468.843 2.11032 2.67728 0
M  V30 4944 H 470.036 2.82201 1.01502 0
M  V30 4945 H 467.589 1.48303 0.493556 0
M  V30 4946 H 468.324 1.20146 3.01223 0
M  V30 4947 H 468.109 2.92895 2.60682 0
M  V30 4948 H 469.599 2.38038 3.43115 0
M  V30 4949 N 470.036 -0.519951 1.48776 0
M  V30 4950 C 470.966 -1.63253 1.66945 0
M  V30 4951 C 471.947 -1.62014 0.518224 0
M  V30 4952 O 473.132 -1.79053 0.751919 0
M  V30 4953 C 470.262 -3.0181 1.71836 0
M  V30 4954 C 469.216 -3.17911 2.8656 0
M  V30 4955 C 468.542 -4.5763 2.76548 0
M  V30 4956 C 469.842 -2.99729 4.27738 0
M  V30 4957 H 471.536 -1.48302 2.6009 0
M  V30 4958 H 469.082 -0.712026 1.25165 0
M  V30 4959 H 471.035 -3.79525 1.83135 0
M  V30 4960 H 469.759 -3.17806 0.752775 0
M  V30 4961 H 468.418 -2.42616 2.74833 0
M  V30 4962 H 468.066 -4.70476 1.77937 0
M  V30 4963 H 467.766 -4.69346 3.53536 0
M  V30 4964 H 469.29 -5.37431 2.89828 0
M  V30 4965 H 470.704 -3.67228 4.40246 0
M  V30 4966 H 469.101 -3.22932 5.05801 0
M  V30 4967 H 470.171 -1.96047 4.43502 0
M  V30 4968 N 471.514 -1.37532 -0.769588 0
M  V30 4969 C 472.762 -1.32597 -1.5252 0
M  V30 4970 C 473.083 0.0884294 -1.94799 0
M  V30 4971 O 472.353 1.03289 -1.66458 0
M  V30 4972 H 470.933 -0.487846 -0.565699 0
M  V30 4973 H 473.595 -1.72044 -0.915806 0
M  V30 4974 H 472.691 -1.96643 -2.42359 0
M  V30 4975 N 472.992 0.995999 -1.22138 0
M  V30 4976 C 474.408 1.25917 -0.980667 0
M  V30 4977 C 474.608 1.98819 0.327604 0
M  V30 4978 O 473.664 2.29587 1.05101 0
M  V30 4979 C 474.977 2.07399 -2.17729 0
M  V30 4980 C 476.525 2.20594 -2.22052 0
M  V30 4981 C 477 3.05462 -3.41258 0
M  V30 4982 N 478.491 3.13049 -3.41401 0
M  V30 4983 C 479.226 3.78997 -4.30289 0
M  V30 4984 N 478.722 4.46899 -5.2939 0
M  V30 4985 N 480.515 3.75728 -4.18073 0
M  V30 4986 H 472.666 0.507158 -2.06256 0
M  V30 4987 H 474.929 0.28658 -0.903646 0
M  V30 4988 H 474.635 1.61191 -3.12586 0
M  V30 4989 H 474.509 3.08154 -2.17534 0
M  V30 4990 H 476.896 2.66017 -1.27745 0
M  V30 4991 H 476.977 1.1928 -2.26287 0
M  V30 4992 H 476.621 2.60739 -4.35864 0
M  V30 4993 H 476.551 4.06911 -3.34262 0
M  V30 4994 H 479.042 2.64721 -2.69688 0
M  V30 4995 H 479.355 4.94952 -5.935 0
M  V30 4996 H 477.7 4.45657 -5.33306 0
M  V30 4997 H 480.891 3.2184 -3.39907 0
M  V30 4998 H 481.064 4.26845 -4.87553 0
M  V30 4999 N 474.47 1.03057 1.19235 0
M  V30 5000 C 475.417 0.612832 2.22515 0
M  V30 5001 C 476.387 -0.374224 1.61829 0
M  V30 5002 O 477.572 -0.270501 1.88873 0
M  V30 5003 C 474.712 -0.028475 3.45088 0
M  V30 5004 C 473.825 1.00483 4.20151 0
M  V30 5005 C 472.96 0.333102 5.30155 0
M  V30 5006 C 471.999 1.3522 5.96977 0
M  V30 5007 N 471.136 0.70616 6.9854 0
M  V30 5008 H 475.976 1.49812 2.57605 0
M  V30 5009 H 473.513 0.749658 1.26564 0
M  V30 5010 H 475.471 -0.417548 4.15105 0
M  V30 5011 H 474.101 -0.877334 3.10649 0
M  V30 5012 H 473.153 1.51194 3.49062 0
M  V30 5013 H 474.465 1.77929 4.65986 0
M  V30 5014 H 473.619 -0.110725 6.06599 0
M  V30 5015 H 472.358 -0.473547 4.85396 0
M  V30 5016 H 471.363 1.80627 5.19282 0
M  V30 5017 H 472.588 2.16037 6.4382 0
M  V30 5018 H 470.534 -0.0803667 6.55951 0
M  V30 5019 H 470.451 1.41848 7.42573 0
M  V30 5020 H 471.719 0.286391 7.78974 0
M  V30 5021 N 475.948 -1.35272 0.808662 0
M  V30 5022 C 476.911 -2.28082 0.226093 0
M  V30 5023 C 477.911 -1.49673 -0.587762 0
M  V30 5024 O 479.101 -1.69404 -0.405943 0
M  V30 5025 C 476.233 -3.33955 -0.684596 0
M  V30 5026 H 477.426 -2.81116 1.04469 0
M  V30 5027 H 474.979 -1.45162 0.579466 0
M  V30 5028 H 475.714 -2.86111 -1.5268 0
M  V30 5029 H 475.499 -3.91965 -0.102699 0
M  V30 5030 H 476.989 -4.03219 -1.08646 0
M  V30 5031 N 477.426 -0.562348 -1.47226 0
M  V30 5032 C 478.842 -0.222492 -1.58042 0
M  V30 5033 C 479.042 1.27505 -1.56028 0
M  V30 5034 O 478.098 2.05555 -1.46641 0
M  V30 5035 C 479.411 -0.853694 -2.88327 0
M  V30 5036 C 480.959 -0.825397 -3.01921 0
M  V30 5037 C 481.434 -1.43576 -4.34914 0
M  V30 5038 N 482.925 -1.39918 -4.41562 0
M  V30 5039 C 483.66 -1.84103 -5.43041 0
M  V30 5040 N 483.156 -2.36167 -6.51304 0
M  V30 5041 N 484.949 -1.75142 -5.34118 0
M  V30 5042 H 477.1 -1.53525 -1.46778 0
M  V30 5043 H 479.363 -0.640527 -0.698877 0
M  V30 5044 H 479.069 -1.90635 -2.95552 0
M  V30 5045 H 478.943 -0.34977 -3.75575 0
M  V30 5046 H 481.33 0.218583 -2.94289 0
M  V30 5047 H 481.411 -1.36713 -2.16202 0
M  V30 5048 H 481.055 -2.47884 -4.43301 0
M  V30 5049 H 480.985 -0.869427 -5.19373 0
M  V30 5050 H 483.476 -1.0184 -3.63919 0
M  V30 5051 H 483.789 -2.67793 -7.24919 0
M  V30 5052 H 482.134 -2.40181 -6.52179 0
M  V30 5053 H 485.325 -1.34241 -4.48439 0
M  V30 5054 H 485.498 -2.09895 -6.13065 0
M  V30 5055 N 478.904 1.54736 -0.299062 0
M  V30 5056 C 479.867 2.22127 0.565012 0
M  V30 5057 C 480.867 1.20669 1.06281 0
M  V30 5058 O 482.057 1.45417 0.959145 0
M  V30 5059 C 479.189 2.90611 1.78208 0
M  V30 5060 H 480.382 2.99891 -0.0237448 0
M  V30 5061 H 477.935 1.5622 -0.0498788 0
M  V30 5062 H 478.67 2.16921 2.41072 0
M  V30 5063 H 478.455 3.64984 1.43281 0
M  V30 5064 H 479.945 3.42026 2.396 0
M  V30 5065 N 480.382 0.0267497 1.57577 0
M  V30 5066 C 481.312 -0.954308 2.13108 0
M  V30 5067 C 482.293 -1.34088 1.04663 0
M  V30 5068 O 483.478 -1.41992 1.32484 0
M  V30 5069 C 480.608 -2.23744 2.65624 0
M  V30 5070 C 479.562 -1.99168 3.78835 0
M  V30 5071 C 478.888 -3.33726 4.17769 0
M  V30 5072 C 480.188 -1.33277 5.0501 0
M  V30 5073 H 481.882 -0.491848 2.95332 0
M  V30 5074 H 479.428 -0.23514 1.42067 0
M  V30 5075 H 481.381 -2.92754 3.03106 0
M  V30 5076 H 480.105 -2.72151 1.80558 0
M  V30 5077 H 478.764 -1.32577 3.41788 0
M  V30 5078 H 478.412 -3.79888 3.29688 0
M  V30 5079 H 478.112 -3.18089 4.94058 0
M  V30 5080 H 479.636 -4.04008 4.57832 0
M  V30 5081 H 481.05 -1.92283 5.40093 0
M  V30 5082 H 479.447 -1.28045 5.8628 0
M  V30 5083 H 480.517 -0.305411 4.83937 0
M  V30 5084 N 481.861 -1.55662 -0.24637 0
M  V30 5085 C 483.109 -1.77168 -0.972411 0
M  V30 5086 C 483.43 -0.590827 -1.85834 0
M  V30 5087 O 482.7 0.393365 -1.9191 0
M  V30 5088 H 481.28 -0.653405 -0.362038 0
M  V30 5089 H 483.942 -1.93101 -0.264189 0
M  V30 5090 H 483.038 -2.68335 -1.59382 0
M  V30 5091 N 483.339 0.512053 -1.4905 0
M  V30 5092 C 484.567 1.29116 -1.61669 0
M  V30 5093 C 484.982 1.86655 -0.283787 0
M  V30 5094 O 484.339 1.67293 0.729331 0
M  V30 5095 C 484.39 2.4293 -2.67707 0
M  V30 5096 O 484.111 1.87758 -3.95826 0
M  V30 5097 C 485.612 3.34476 -2.90931 0
M  V30 5098 H 482.832 0.392009 -0.544583 0
M  V30 5099 H 485.376 0.615881 -1.95006 0
M  V30 5100 H 483.531 3.06308 -2.37179 0
M  V30 5101 H 483.945 2.62393 -4.54148 0
M  V30 5102 H 485.419 4.10642 -3.68886 0
M  V30 5103 H 485.896 3.90801 -2.00427 0
M  V30 5104 H 486.502 2.76874 -3.22832 0
M  V30 5105 N 484.817 1.37938 0.762283 0
M  V30 5106 C 485.727 1.36681 1.90671 0
M  V30 5107 C 486.743 0.265078 1.71969 0
M  V30 5108 O 487.919 0.502055 1.95042 0
M  V30 5109 C 484.984 1.18211 3.25925 0
M  V30 5110 C 484.045 2.3811 3.57214 0
M  V30 5111 C 483.278 2.20512 4.86014 0
M  V30 5112 O 483.501 1.19429 5.57757 0
M  V30 5113 O 482.435 3.08911 5.16583 0
M  V30 5114 H 486.261 2.33091 1.94685 0
M  V30 5115 H 483.846 1.18767 0.906356 0
M  V30 5116 H 485.728 1.09937 4.06807 0
M  V30 5117 H 484.403 0.248807 3.22742 0
M  V30 5118 H 483.31 2.51958 2.76529 0
M  V30 5119 H 484.643 3.30041 3.65149 0
M  V30 5120 N 486.295 -0.989507 1.22664 0
M  V30 5121 C 487.541 -1.7321 1.05481 0
M  V30 5122 C 487.874 -1.89852 -0.408635 0
M  V30 5123 O 487.149 -1.44416 -1.30285 0
M  V30 5124 C 487.432 -3.1357 1.77047 0
M  V30 5125 C 487.285 -3.04555 3.31008 0
M  V30 5126 C 488.604 -4.12812 1.5256 0
M  V30 5127 H 485.723 -0.628697 0.384589 0
M  V30 5128 H 488.365 -1.15258 1.51049 0
M  V30 5129 H 486.515 -3.63046 1.3831 0
M  V30 5130 H 488.187 -2.62674 3.7921 0
M  V30 5131 H 486.43 -2.41278 3.6051 0
M  V30 5132 H 487.101 -4.03894 3.76263 0
M  V30 5133 H 489.577 -3.72106 1.86215 0
M  V30 5134 H 488.453 -5.09132 2.05124 0
M  V30 5135 H 488.714 -4.39711 0.458936 0
M  V30 5136 N 487.773 -1.03688 -1.18687 0
M  V30 5137 C 489.022 -0.733235 -1.879 0
M  V30 5138 C 489.335 0.741745 -1.8099 0
M  V30 5139 O 490.541 1.15875 -2.4553 0
M  V30 5140 C 488.997 -1.26127 -3.37076 0
M  V30 5141 C 488.605 -2.76461 -3.52524 0
M  V30 5142 C 490.349 -1.03398 -4.11715 0
M  V30 5143 C 488.256 -3.22642 -4.95637 0
M  V30 5144 H 487.186 -0.270584 -0.703776 0
M  V30 5145 H 489.837 -1.25222 -1.34133 0
M  V30 5146 H 488.219 -0.670165 -3.90288 0
M  V30 5147 H 489.393 -3.41296 -3.09602 0
M  V30 5148 H 487.708 -2.97559 -2.91286 0
M  V30 5149 H 490.305 -1.3542 -5.17267 0
M  V30 5150 H 490.648 0.0289246 -4.1629 0
M  V30 5151 H 491.181 -1.5895 -3.64664 0
M  V30 5152 H 487.92 -4.28296 -4.96228 0
M  V30 5153 H 487.44 -2.62539 -5.39289 0
M  V30 5154 H 489.119 -3.16444 -5.64333 0
M  V30 5155 N 489.251 1.34841 -0.815825 0
M  V30 5156 C 490.183 2.28409 -0.190265 0
M  V30 5157 C 491.196 1.50705 0.615771 0
M  V30 5158 O 492.385 1.72822 0.446616 0
M  V30 5159 C 489.485 3.30441 0.752446 0
M  V30 5160 C 488.658 4.37399 -0.00922152 0
M  V30 5161 C 487.717 5.19234 0.853351 0
M  V30 5162 O 486.743 5.68404 0.300919 0
M  V30 5163 N 487.945 5.38248 2.17416 0
M  V30 5164 H 490.71 2.82732 -0.994114 0
M  V30 5165 H 488.271 1.47289 -0.672129 0
M  V30 5166 H 490.263 3.82084 1.33394 0
M  V30 5167 H 488.833 2.76565 1.45707 0
M  V30 5168 H 488.053 3.86567 -0.771979 0
M  V30 5169 H 489.341 5.05992 -0.533807 0
M  V30 5170 H 488.739 4.99961 2.6468 0
M  V30 5171 H 487.296 5.93035 2.70467 0
M  V30 5172 N 490.729 0.570148 1.46925 0
M  V30 5173 C 491.659 -0.158274 2.32963 0
M  V30 5174 C 492.64 -0.896093 1.44583 0
M  V30 5175 O 493.825 -0.874022 1.7342 0
M  V30 5176 C 490.955 -1.18055 3.26619 0
M  V30 5177 C 489.909 -0.558379 4.24342 0
M  V30 5178 C 489.235 -1.68623 5.07415 0
M  V30 5179 C 490.535 0.496295 5.19937 0
M  V30 5180 H 492.229 0.560046 2.94115 0
M  V30 5181 H 489.775 0.270775 1.41431 0
M  V30 5182 H 491.728 -1.69841 3.85658 0
M  V30 5183 H 490.452 -1.92899 2.63548 0
M  V30 5184 H 489.111 -0.0617157 3.66548 0
M  V30 5185 H 488.759 -2.42402 4.40738 0
M  V30 5186 H 488.459 -1.27564 5.73586 0
M  V30 5187 H 489.983 -2.20709 5.69315 0
M  V30 5188 H 491.397 0.0640052 5.73264 0
M  V30 5189 H 489.794 0.82649 5.94381 0
M  V30 5190 H 490.864 1.38735 4.6463 0
M  V30 5191 N 492.207 -1.54576 0.307264 0
M  V30 5192 C 493.454 -2.00263 -0.300167 0
M  V30 5193 C 493.782 -1.19561 -1.53413 0
M  V30 5194 O 493.037 -0.261487 -1.93945 0
M  V30 5195 C 493.336 -3.50572 -0.695253 0
M  V30 5196 C 493.002 -4.48771 0.437679 0
M  V30 5197 C 491.664 -4.7534 0.748681 0
M  V30 5198 C 494.016 -5.0721 1.19949 0
M  V30 5199 C 491.344 -5.5761 1.8245 0
M  V30 5200 C 493.696 -5.90651 2.26527 0
M  V30 5201 C 492.36 -6.15528 2.58227 0
M  V30 5202 H 491.63 -0.732814 -0.109839 0
M  V30 5203 H 494.277 -1.86664 0.427661 0
M  V30 5204 H 492.582 -3.61814 -1.50326 0
M  V30 5205 H 494.279 -3.83352 -1.17653 0
M  V30 5206 H 490.869 -4.282 0.185187 0
M  V30 5207 H 495.053 -4.86679 0.972474 0
M  V30 5208 H 490.309 -5.75121 2.07476 0
M  V30 5209 H 494.483 -6.34957 2.86011 0
M  V30 5210 H 492.11 -6.79066 3.4172 0
M  V30 5211 N 493.685 -0.035106 -1.57561 0
M  V30 5212 C 495.096 0.502885 -1.798 0
M  V30 5213 C 495.447 1.71892 -0.945921 0
M  V30 5214 O 494.572 2.15822 -0.157991 0
M  V30 5215 C 495.167 0.919097 -3.26095 0
M  V30 5216 C 493.726 1.40216 -3.49308 0
M  V30 5217 C 492.873 0.369709 -2.74824 0
M  V30 5218 H 495.824 -0.261102 -1.56537 0
M  V30 5219 H 495.845 1.78308 -3.36135 0
M  V30 5220 H 495.357 0.0338526 -3.88085 0
M  V30 5221 H 493.458 2.30714 -2.92578 0
M  V30 5222 H 493.571 1.40541 -4.58023 0
M  V30 5223 H 491.935 0.839113 -2.40481 0
M  V30 5224 H 492.718 -0.507173 -3.39533 0
M  V30 5225 N 495.163 1.55791 0.238111 0
M  V30 5226 C 496.073 1.94196 1.31625 0
M  V30 5227 C 497.089 0.843545 1.52185 0
M  V30 5228 O 498.265 1.1457 1.65637 0
M  V30 5229 C 495.33 2.2365 2.64918 0
M  V30 5230 C 494.391 3.46971 2.52804 0
M  V30 5231 C 493.624 3.7501 3.79741 0
M  V30 5232 O 493.847 3.04982 4.82019 0
M  V30 5233 O 492.781 4.68525 3.77846 0
M  V30 5234 H 496.607 2.86044 1.02043 0
M  V30 5235 H 494.192 1.42786 0.439603 0
M  V30 5236 H 496.074 2.43863 3.4367 0
M  V30 5237 H 494.749 1.34979 2.94215 0
M  V30 5238 H 493.656 3.32055 1.72309 0
M  V30 5239 H 494.989 4.35971 2.28451 0
M  V30 5240 N 496.642 -0.504142 1.49319 0
M  V30 5241 C 497.589 -1.60603 1.65756 0
M  V30 5242 C 498.559 -1.58425 0.499082 0
M  V30 5243 O 499.744 -1.76459 0.725728 0
M  V30 5244 C 496.884 -2.98764 1.72726 0
M  V30 5245 C 495.997 -3.10982 2.99857 0
M  V30 5246 C 495.132 -4.39857 2.97824 0
M  V30 5247 C 494.171 -4.45697 4.19548 0
M  V30 5248 N 493.308 -5.65995 4.15444 0
M  V30 5249 H 498.148 -1.45895 2.59843 0
M  V30 5250 H 495.685 -0.709891 1.28837 0
M  V30 5251 H 497.643 -3.78839 1.74747 0
M  V30 5252 H 496.273 -3.12183 0.821075 0
M  V30 5253 H 495.325 -2.23991 3.07461 0
M  V30 5254 H 496.637 -3.11157 3.89849 0
M  V30 5255 H 495.791 -5.2825 2.98391 0
M  V30 5256 H 494.53 -4.42242 2.05604 0
M  V30 5257 H 493.535 -3.55707 4.19229 0
M  V30 5258 H 494.76 -4.4503 5.12957 0
M  V30 5259 H 492.706 -5.69229 3.26059 0
M  V30 5260 H 492.623 -5.67773 4.99169 0
M  V30 5261 H 493.891 -6.56604 4.20109 0
M  V30 5262 N 498.12 -1.38341 -0.754957 0
M  V30 5263 C 499.368 -1.34208 -1.51105 0
M  V30 5264 C 499.689 0.0677634 -1.94882 0
M  V30 5265 O 498.959 1.01517 -1.67544 0
M  V30 5266 H 497.539 -0.493819 -0.560493 0
M  V30 5267 H 500.201 -1.73005 -0.897507 0
M  V30 5268 H 499.297 -1.99203 -2.4026 0
M  V30 5269 N 499.598 0.982988 -1.23187 0
M  V30 5270 C 500.546 2.09616 -1.00817 0
M  V30 5271 C 501.54 1.6932 0.0519995 0
M  V30 5272 O 502.746 1.79715 -0.101284 0
M  V30 5273 H 499.121 0.685628 -0.308899 0
M  V30 5274 H 501.092 2.25652 -1.95253 0
M  V30 5275 C 499.841 3.42249 -0.613243 0
M  V30 5276 H 499.164 3.73705 -1.42073 0
M  V30 5277 H 500.604 4.21086 -0.496208 0
M  V30 5278 C 499.063 3.30002 0.678233 0
M  V30 5279 O 499.593 3.6263 1.72807 0
M  V30 5280 N 497.799 2.83164 0.653165 0
M  V30 5281 H 497.346 2.56811 -0.201492 0
M  V30 5282 H 497.304 2.75352 1.51752 0
M  V30 5283 N 501.076 1.04316 1.18135 0
M  V30 5284 C 502.009 0.580823 2.20685 0
M  V30 5285 C 502.987 -0.385943 1.57953 0
M  V30 5286 O 504.171 -0.299654 1.86103 0
M  V30 5287 C 501.298 -0.151162 3.38363 0
M  V30 5288 C 500.344 0.769247 4.19505 0
M  V30 5289 S 501.177 2.25352 4.85774 0
M  V30 5290 C 502.333 1.53246 6.0685 0
M  V30 5291 H 502.566 1.44968 2.5956 0
M  V30 5292 H 500.099 0.85434 1.28609 0
M  V30 5293 H 502.057 -0.567315 4.06561 0
M  V30 5294 H 500.718 -0.995936 2.97892 0
M  V30 5295 H 499.911 0.203335 5.0359 0
M  V30 5296 H 499.513 1.12436 3.56699 0
M  V30 5297 H 501.805 0.82689 6.72435 0
M  V30 5298 H 502.748 2.35044 6.67952 0
M  V30 5299 H 503.156 1.0237 5.5514 0
M  V30 5300 N 502.554 -1.34406 0.822964 0
M  V30 5301 C 503.802 -1.97892 0.410245 0
M  V30 5302 C 504.123 -1.65567 -1.03017 0
M  V30 5303 O 503.393 -0.94642 -1.71522 0
M  V30 5304 H 501.973 -0.732049 0.148707 0
M  V30 5305 H 504.635 -1.64043 1.05242 0
M  V30 5306 H 503.731 -3.07579 0.529284 0
M  V30 5307 N 504.032 -0.577932 -1.46621 0
M  V30 5308 C 504.979 0.158048 -2.30258 0
M  V30 5309 C 505.949 0.888669 -1.40328 0
M  V30 5310 O 507.134 0.880283 -1.6928 0
M  V30 5311 C 504.274 1.16884 -3.24703 0
M  V30 5312 C 503.387 0.442163 -4.29731 0
M  V30 5313 C 502.522 1.44007 -5.11308 0
M  V30 5314 C 501.561 0.69952 -6.0809 0
M  V30 5315 N 500.698 1.64525 -6.82551 0
M  V30 5316 H 505.538 -0.561242 -2.92667 0
M  V30 5317 H 503.075 -0.288591 -1.44241 0
M  V30 5318 H 505.033 1.7677 -3.779 0
M  V30 5319 H 503.663 1.85591 -2.64113 0
M  V30 5320 H 502.715 -0.271632 -3.79429 0
M  V30 5321 H 504.027 -0.136992 -4.98612 0
M  V30 5322 H 503.181 2.11186 -5.68758 0
M  V30 5323 H 501.92 2.05315 -4.42377 0
M  V30 5324 H 500.925 0.0139217 -5.49798 0
M  V30 5325 H 502.15 0.091894 -6.79038 0
M  V30 5326 H 500.096 2.24653 -6.16334 0
M  V30 5327 H 500.013 1.11878 -7.47676 0
M  V30 5328 H 501.281 2.30754 -7.44562 0
M  V30 5329 N 505.51 1.54411 -0.315457 0
M  V30 5330 C 506.759 1.99599 0.290395 0
M  V30 5331 C 507.072 1.20746 1.53882 0
M  V30 5332 O 508.278 1.56272 2.22017 0
M  V30 5333 C 506.734 3.5539 0.56797 0
M  V30 5334 C 506.342 4.43068 -0.662945 0
M  V30 5335 C 508.086 4.09067 1.13422 0
M  V30 5336 C 505.993 5.90317 -0.357722 0
M  V30 5337 H 504.923 0.745592 0.112286 0
M  V30 5338 H 507.574 1.78477 -0.426418 0
M  V30 5339 H 505.956 3.72468 1.34476 0
M  V30 5340 H 507.13 4.37765 -1.43869 0
M  V30 5341 H 505.445 4.00238 -1.14884 0
M  V30 5342 H 508.042 5.16663 1.37707 0
M  V30 5343 H 508.385 3.60552 2.08106 0
M  V30 5344 H 508.918 3.95589 0.418805 0
M  V30 5345 H 505.657 6.4301 -1.27351 0
M  V30 5346 H 505.177 5.98592 0.380472 0
M  V30 5347 H 506.856 6.4699 0.0354284 0
M  V30 5348 N 506.988 0.0434614 1.5754 0
M  V30 5349 C 507.918 -0.931651 2.14109 0
M  V30 5350 C 508.899 -1.32971 1.06079 0
M  V30 5351 O 510.084 -1.40579 1.33982 0
M  V30 5352 C 507.214 -2.20914 2.67982 0
M  V30 5353 C 506.168 -1.95139 3.80926 0
M  V30 5354 C 505.494 -3.29276 4.21285 0
M  V30 5355 C 506.794 -1.27913 5.06395 0
M  V30 5356 H 508.488 -0.460497 2.95837 0
M  V30 5357 H 506.034 -0.220058 1.42309 0
M  V30 5358 H 507.987 -2.89522 3.06194 0
M  V30 5359 H 506.711 -2.70221 1.83434 0
M  V30 5360 H 505.37 -1.28945 3.43175 0
M  V30 5361 H 505.018 -3.76369 3.33699 0
M  V30 5362 H 504.718 -3.12831 4.97404 0
M  V30 5363 H 506.242 -3.99129 4.62091 0
M  V30 5364 H 507.656 -1.86544 5.42102 0
M  V30 5365 H 506.053 -1.2182 5.87605 0
M  V30 5366 H 507.123 -0.254066 4.84234 0
M  V30 5367 N 508.466 -1.55915 -0.229846 0
M  V30 5368 C 509.877 -1.68809 -0.797531 0
M  V30 5369 C 510.228 -0.643995 -1.8533 0
M  V30 5370 O 509.353 0.206492 -2.15413 0
M  V30 5371 C 509.948 -3.06043 -1.45338 0
M  V30 5372 C 508.507 -3.20819 -1.96856 0
M  V30 5373 C 507.654 -2.6472 -0.825736 0
M  V30 5374 H 510.605 -1.58699 -0.00533733 0
M  V30 5375 H 510.626 -3.01438 -2.32196 0
M  V30 5376 H 510.138 -3.82012 -0.684743 0
M  V30 5377 H 508.239 -2.49704 -2.76548 0
M  V30 5378 H 508.352 -4.27937 -2.15423 0
M  V30 5379 H 506.716 -2.22985 -1.23084 0
M  V30 5380 H 507.499 -3.43229 -0.0699019 0
M  V30 5381 N 509.944 0.496216 -1.49584 0
M  V30 5382 C 510.854 1.62352 -1.69349 0
M  V30 5383 C 511.87 1.64184 -0.576147 0
M  V30 5384 O 513.046 1.82517 -0.85144 0
M  V30 5385 C 510.111 2.98698 -1.76013 0
M  V30 5386 C 509.172 3.07454 -2.99617 0
M  V30 5387 C 508.405 4.37296 -3.05953 0
M  V30 5388 O 508.628 5.2637 -2.19752 0
M  V30 5389 O 507.562 4.51124 -3.9846 0
M  V30 5390 H 511.388 1.48606 -2.64859 0
M  V30 5391 H 508.973 0.673022 -1.33382 0
M  V30 5392 H 510.855 3.79725 -1.82721 0
M  V30 5393 H 509.53 3.12696 -0.836828 0
M  V30 5394 H 508.437 2.25597 -2.98424 0
M  V30 5395 H 509.77 2.98385 -3.91443 0
M  V30 5396 N 511.423 1.38739 0.74761 0
M  V30 5397 C 512.653 1.3832 1.53464 0
M  V30 5398 C 513.061 -0.0273464 1.8918 0
M  V30 5399 O 512.404 -1.00588 1.53713 0
M  V30 5400 C 512.466 2.18007 2.85855 0
M  V30 5401 C 512.13 3.66762 2.72644 0
M  V30 5402 C 513.127 4.60124 2.42037 0
M  V30 5403 C 510.812 4.10193 2.89909 0
M  V30 5404 C 512.806 5.94897 2.28859 0
M  V30 5405 C 510.493 5.45045 2.7635 0
M  V30 5406 C 511.491 6.37211 2.45869 0
M  V30 5407 O 511.179 7.69581 2.3238 0
M  V30 5408 H 510.911 0.474718 0.481268 0
M  V30 5409 H 513.465 1.83012 0.932518 0
M  V30 5410 H 511.695 1.68043 3.48279 0
M  V30 5411 H 513.384 2.09921 3.47402 0
M  V30 5412 H 514.15 4.27874 2.28361 0
M  V30 5413 H 510.029 3.38797 3.1263 0
M  V30 5414 H 513.573 6.66802 2.04989 0
M  V30 5415 H 509.47 5.76889 2.89601 0
M  V30 5416 H 510.238 7.80169 2.47546 0
M  V30 5417 N 512.901 -0.976442 1.23707 0
M  V30 5418 C 513.831 -2.08749 1.04624 0
M  V30 5419 C 514.812 -1.70057 -0.0380956 0
M  V30 5420 O 515.997 -1.93782 0.127308 0
M  V30 5421 C 513.127 -3.41335 0.640902 0
M  V30 5422 C 512.081 -3.93947 1.67302 0
M  V30 5423 C 511.407 -5.22774 1.12301 0
M  V30 5424 C 512.707 -4.22769 3.06697 0
M  V30 5425 H 514.401 -2.24972 1.97555 0
M  V30 5426 H 511.947 -1.08108 0.951247 0
M  V30 5427 H 513.9 -4.18489 0.494434 0
M  V30 5428 H 512.624 -3.24988 -0.324099 0
M  V30 5429 H 511.283 -3.18941 1.80755 0
M  V30 5430 H 510.931 -5.0278 0.148877 0
M  V30 5431 H 510.631 -5.58942 1.81267 0
M  V30 5432 H 512.155 -6.02546 0.988479 0
M  V30 5433 H 513.569 -4.90659 2.96524 0
M  V30 5434 H 511.966 -4.70147 3.72937 0
M  V30 5435 H 513.036 -3.29885 3.55392 0
M  V30 5436 N 514.379 -1.04941 -1.1758 0
M  V30 5437 C 515.604 -0.778253 -1.92245 0
M  V30 5438 C 516.029 0.659707 -1.76152 0
M  V30 5439 O 515.387 1.45803 -1.07755 0
M  V30 5440 C 515.435 -1.16051 -3.41416 0
M  V30 5441 O 514.539 -0.291153 -4.11371 0
M  V30 5442 H 513.88 -0.285619 -0.599431 0
M  V30 5443 H 516.41 -1.40159 -1.49052 0
M  V30 5444 H 516.42 -1.12619 -3.92149 0
M  V30 5445 H 515.095 -2.208 -3.52449 0
M  V30 5446 H 513.672 -0.385851 -3.70898 0
M  V30 5447 N 515.857 1.33968 -0.830081 0
M  V30 5448 C 516.805 2.31301 -0.245435 0
M  V30 5449 C 517.799 1.57734 0.617762 0
M  V30 5450 O 519.005 1.72674 0.508303 0
M  V30 5451 H 515.38 0.749552 -0.0606316 0
M  V30 5452 H 517.351 2.78129 -1.08105 0
M  V30 5453 C 516.1 3.42961 0.572084 0
M  V30 5454 H 515.423 3.99714 -0.0828118 0
M  V30 5455 H 516.863 4.13286 0.94715 0
M  V30 5456 C 515.322 2.88043 1.74737 0
M  V30 5457 O 515.852 2.83508 2.8458 0
M  V30 5458 N 514.058 2.44768 1.56642 0
M  V30 5459 H 513.605 2.48656 0.672901 0
M  V30 5460 H 513.563 2.08375 2.3543 0
M  V30 5461 N 517.335 0.585699 1.46312 0
M  V30 5462 C 518.581 0.0808731 2.03239 0
M  V30 5463 C 518.936 -1.26609 1.44872 0
M  V30 5464 O 518.229 -1.81779 0.60556 0
M  V30 5465 C 518.423 -0.0401312 3.57377 0
M  V30 5466 C 518.252 1.29356 4.30694 0
M  V30 5467 C 517.022 1.86849 4.69484 0
M  V30 5468 C 519.22 2.21742 4.64042 0
M  V30 5469 N 517.202 3.13926 5.27564 0
M  V30 5470 C 518.573 3.33408 5.22723 0
M  V30 5471 C 520.628 2.21386 4.45974 0
M  V30 5472 C 519.331 4.44852 5.65242 0
M  V30 5473 C 521.357 3.31862 4.89511 0
M  V30 5474 C 520.719 4.42248 5.48266 0
M  V30 5475 H 516.818 0.072443 0.778637 0
M  V30 5476 H 519.402 0.779254 1.78426 0
M  V30 5477 H 517.573 -0.707686 3.81898 0
M  V30 5478 H 519.305 -0.549615 4.00951 0
M  V30 5479 H 516.06 1.40307 4.52339 0
M  V30 5480 H 516.484 3.78775 5.61122 0
M  V30 5481 H 521.126 1.37314 3.99881 0
M  V30 5482 H 518.844 5.29665 6.10312 0
M  V30 5483 H 522.43 3.32708 4.7728 0
M  V30 5484 H 521.31 5.26323 5.81338 0
M  V30 5485 N 518.813 -1.54241 0.323641 0
M  V30 5486 C 520.041 -2.04985 -0.280871 0
M  V30 5487 C 520.456 -1.19978 -1.45777 0
M  V30 5488 O 519.813 -0.230471 -1.81039 0
M  V30 5489 C 519.864 -3.54353 -0.715258 0
M  V30 5490 O 519.585 -4.36132 0.414817 0
M  V30 5491 C 521.086 -4.21189 -1.38257 0
M  V30 5492 H 518.306 -0.66851 -0.0577502 0
M  V30 5493 H 520.85 -1.99029 0.469852 0
M  V30 5494 H 519.005 -3.60596 -1.41596 0
M  V30 5495 H 519.419 -5.2445 0.0725227 0
M  V30 5496 H 520.893 -5.27154 -1.63745 0
M  V30 5497 H 521.37 -3.72307 -2.32989 0
M  V30 5498 H 521.976 -4.19085 -0.724447 0
M  V30 5499 N 520.291 -0.0518155 -1.57515 0
M  V30 5500 C 521.224 0.957758 -2.07129 0
M  V30 5501 C 522.202 1.30355 -0.971927 0
M  V30 5502 O 523.386 1.41631 -1.2439 0
M  V30 5503 C 520.513 2.27157 -2.51232 0
M  V30 5504 C 519.559 2.07879 -3.72409 0
M  V30 5505 S 520.392 1.35656 -5.18033 0
M  V30 5506 C 521.548 2.68359 -5.65451 0
M  V30 5507 H 521.781 0.53552 -2.92437 0
M  V30 5508 H 519.314 0.160465 -1.53564 0
M  V30 5509 H 521.272 3.02676 -2.77304 0
M  V30 5510 H 519.933 2.66509 -1.66228 0
M  V30 5511 H 519.126 3.05061 -4.01191 0
M  V30 5512 H 518.728 1.40499 -3.46606 0
M  V30 5513 H 521.02 3.64526 -5.71076 0
M  V30 5514 H 521.963 2.44213 -6.64654 0
M  V30 5515 H 522.371 2.74647 -4.93183 0
M  V30 5516 N 521.769 1.56035 0.221574 0
M  V30 5517 C 522.679 1.95581 1.29558 0
M  V30 5518 C 523.695 0.859639 1.51282 0
M  V30 5519 O 524.871 1.16321 1.64413 0
M  V30 5520 C 521.936 2.26447 2.62531 0
M  V30 5521 C 520.997 3.49632 2.4911 0
M  V30 5522 C 520.23 3.79017 3.75742 0
M  V30 5523 O 520.453 3.10077 4.78757 0
M  V30 5524 O 519.387 4.72507 3.72855 0
M  V30 5525 H 523.213 2.8711 0.990035 0
M  V30 5526 H 520.798 1.43244 0.424434 0
M  V30 5527 H 522.68 2.47494 3.41064 0
M  V30 5528 H 521.355 1.38092 2.92766 0
M  V30 5529 H 520.262 3.33864 1.68777 0
M  V30 5530 H 521.595 4.3837 2.23814 0
M  V30 5531 N 523.247 -0.488276 1.49845 0
M  V30 5532 C 524.194 -1.58836 1.67451 0
M  V30 5533 C 525.164 -1.57886 0.515857 0
M  V30 5534 O 526.349 -1.75679 0.744403 0
M  V30 5535 C 523.489 -2.96915 1.75885 0
M  V30 5536 C 522.602 -3.07784 3.03138 0
M  V30 5537 C 521.737 -4.36673 3.02473 0
M  V30 5538 C 520.776 -4.41222 4.24252 0
M  V30 5539 N 519.913 -5.61557 4.21424 0
M  V30 5540 H 524.753 -1.43131 2.61376 0
M  V30 5541 H 522.29 -0.696186 1.29583 0
M  V30 5542 H 524.248 -3.76965 1.78755 0
M  V30 5543 H 522.878 -3.11295 0.85414 0
M  V30 5544 H 521.93 -2.20717 3.09819 0
M  V30 5545 H 523.242 -3.07005 3.93128 0
M  V30 5546 H 522.396 -5.25055 3.03977 0
M  V30 5547 H 521.135 -4.40037 2.10283 0
M  V30 5548 H 520.14 -3.5124 4.22978 0
M  V30 5549 H 521.365 -4.39564 5.17649 0
M  V30 5550 H 519.311 -5.65738 3.32078 0
M  V30 5551 H 519.228 -5.62447 5.05163 0
M  V30 5552 H 520.496 -6.52111 4.2705 0
M  V30 5553 N 524.725 -1.39134 -0.740242 0
M  V30 5554 C 525.971 -1.36273 -1.50192 0
M  V30 5555 C 526.304 0.0430136 -1.94152 0
M  V30 5556 O 525.579 1.00691 -1.66408 0
M  V30 5557 C 525.862 -2.33041 -2.74525 0
M  V30 5558 C 525.715 -3.82535 -2.36617 0
M  V30 5559 C 527.034 -2.27723 -3.76604 0
M  V30 5560 H 524.153 -0.496323 -0.544823 0
M  V30 5561 H 526.795 -1.70085 -0.846815 0
M  V30 5562 H 524.945 -2.04337 -3.30422 0
M  V30 5563 H 526.617 -4.21967 -1.86391 0
M  V30 5564 H 524.86 -3.99565 -1.68909 0
M  V30 5565 H 525.531 -4.45723 -3.2563 0
M  V30 5566 H 528.007 -2.53091 -3.30279 0
M  V30 5567 H 526.883 -2.97519 -4.61274 0
M  V30 5568 H 527.144 -1.28049 -4.2315 0
M  V30 5569 N 526.204 0.969867 -1.24223 0
M  V30 5570 C 527.62 1.23809 -1.00716 0
M  V30 5571 C 527.82 1.99469 0.285358 0
M  V30 5572 O 526.876 2.31764 1.00207 0
M  V30 5573 C 528.189 2.02734 -2.2208 0
M  V30 5574 C 529.737 2.15834 -2.26681 0
M  V30 5575 C 530.212 2.98154 -3.47661 0
M  V30 5576 N 531.703 3.05737 -3.47964 0
M  V30 5577 C 532.438 3.69785 -4.38231 0
M  V30 5578 N 531.934 4.35569 -5.3875 0
M  V30 5579 N 533.727 3.66775 -4.25949 0
M  V30 5580 H 525.878 0.463294 -2.07286 0
M  V30 5581 H 528.141 0.267348 -0.909521 0
M  V30 5582 H 527.847 1.54524 -3.15935 0
M  V30 5583 H 527.721 3.0347 -2.24021 0
M  V30 5584 H 530.108 2.63248 -1.33359 0
M  V30 5585 H 530.189 1.14453 -2.28767 0
M  V30 5586 H 529.833 2.51435 -4.41297 0
M  V30 5587 H 529.763 3.99729 -3.42818 0
M  V30 5588 H 532.254 2.58941 -2.75242 0
M  V30 5589 H 532.567 4.82251 -6.03866 0
M  V30 5590 H 530.912 4.34244 -5.42639 0
M  V30 5591 H 534.103 3.14558 -3.46657 0
M  V30 5592 H 534.276 4.16407 -4.96497 0
M  V30 5593 N 527.682 1.05563 1.17022 0
M  V30 5594 C 529.098 0.777684 1.39371 0
M  V30 5595 C 529.298 -0.626269 1.91521 0
M  V30 5596 O 528.354 -1.38806 2.10924 0
M  V30 5597 C 529.667 1.83642 2.3811 0
M  V30 5598 C 531.215 1.85907 2.51809 0
M  V30 5599 C 531.69 2.90813 3.53824 0
M  V30 5600 N 533.181 2.898 3.61345 0
M  V30 5601 C 533.916 3.6762 4.40049 0
M  V30 5602 N 533.412 4.55237 5.22237 0
M  V30 5603 N 535.205 3.56044 4.34959 0
M  V30 5604 H 527.356 1.9614 0.815047 0
M  V30 5605 H 529.619 0.849527 0.420722 0
M  V30 5606 H 529.325 2.84425 2.06871 0
M  V30 5607 H 529.199 1.6812 3.37662 0
M  V30 5608 H 531.586 0.857865 2.82356 0
M  V30 5609 H 531.667 2.05506 1.52318 0
M  V30 5610 H 531.311 3.91122 3.24015 0
M  V30 5611 H 531.241 2.68465 4.53028 0
M  V30 5612 H 533.732 2.26274 3.02669 0
M  V30 5613 H 534.045 5.11291 5.79484 0
M  V30 5614 H 532.39 4.59296 5.21605 0
M  V30 5615 H 535.581 2.86986 3.69806 0
M  V30 5616 H 535.754 4.16938 4.96051 0
M  V30 5617 N 529.16 -1.33526 0.837174 0
M  V30 5618 C 530.07 -2.33023 0.271568 0
M  V30 5619 C 531.086 -1.63272 -0.601514 0
M  V30 5620 O 532.262 -1.94939 -0.506038 0
M  V30 5621 C 529.327 -3.42382 -0.545448 0
M  V30 5622 C 528.388 -4.27857 0.351709 0
M  V30 5623 C 527.621 -5.31994 -0.426409 0
M  V30 5624 O 527.844 -5.45763 -1.65828 0
M  V30 5625 O 526.778 -6.01572 0.1987 0
M  V30 5626 H 530.604 -2.83256 1.09545 0
M  V30 5627 H 528.189 -1.36837 0.599655 0
M  V30 5628 H 530.071 -4.09122 -1.00979 0
M  V30 5629 H 528.746 -2.94369 -1.34641 0
M  V30 5630 H 527.653 -3.6399 0.863853 0
M  V30 5631 H 528.986 -4.79349 1.1174 0
M  V30 5632 N 530.638 -0.59345 -1.46 0
M  V30 5633 C 531.886 -0.082988 -2.0193 0
M  V30 5634 C 532.207 1.28569 -1.46612 0
M  V30 5635 O 531.477 1.84629 -0.654909 0
M  V30 5636 H 530.057 -0.0276882 -0.746487 0
M  V30 5637 H 532.719 -0.771657 -1.78973 0
M  V30 5638 H 531.815 -0.022079 -3.12092 0
M  V30 5639 N 532.116 1.54067 -0.331816 0
M  V30 5640 C 533.362 2.01012 0.268667 0
M  V30 5641 C 533.695 1.2195 1.51136 0
M  V30 5642 O 532.97 0.303972 1.9211 0
M  V30 5643 C 533.253 3.55158 0.59456 0
M  V30 5644 C 533.106 4.4494 -0.659409 0
M  V30 5645 C 534.425 4.16939 1.4089 0
M  V30 5646 H 531.544 0.730698 0.0961756 0
M  V30 5647 H 534.186 1.84593 -0.450031 0
M  V30 5648 H 532.336 3.6928 1.20685 0
M  V30 5649 H 534.008 4.42675 -1.29756 0
M  V30 5650 H 532.251 4.1428 -1.28665 0
M  V30 5651 H 532.922 5.50643 -0.386804 0
M  V30 5652 H 535.398 4.06443 0.891272 0
M  V30 5653 H 534.274 5.24889 1.60569 0
M  V30 5654 H 534.535 3.70798 2.40752 0
M  V30 5655 N 533.594 0.0601682 1.57485 0
M  V30 5656 C 534.541 -0.91112 2.12055 0
M  V30 5657 C 535.511 -1.30298 1.03013 0
M  V30 5658 O 536.696 -1.39087 1.30612 0
M  V30 5659 C 533.836 -2.1775 2.67729 0
M  V30 5660 C 532.949 -1.83933 3.90887 0
M  V30 5661 C 532.084 -3.05096 4.34845 0
M  V30 5662 C 531.123 -2.67241 5.5068 0
M  V30 5663 N 530.26 -3.81127 5.8965 0
M  V30 5664 H 535.1 -0.43888 2.9475 0
M  V30 5665 H 532.637 -0.204995 1.45665 0
M  V30 5666 H 534.595 -2.91866 2.98111 0
M  V30 5667 H 533.225 -2.62535 1.87816 0
M  V30 5668 H 532.277 -0.999287 3.6704 0
M  V30 5669 H 533.589 -1.52074 4.75052 0
M  V30 5670 H 532.743 -3.87502 4.66827 0
M  V30 5671 H 531.482 -3.40139 3.49509 0
M  V30 5672 H 530.487 -1.83254 5.18361 0
M  V30 5673 H 531.712 -2.3338 6.37738 0
M  V30 5674 H 529.658 -4.15954 5.07266 0
M  V30 5675 H 529.575 -3.52997 6.68528 0
M  V30 5676 H 530.843 -4.64145 6.2625 0
M  V30 5677 N 535.072 -1.5615 -0.213296 0
M  V30 5678 C 536.318 -1.79812 -0.937849 0
M  V30 5679 C 536.651 -0.631201 -1.83656 0
M  V30 5680 O 535.926 0.369165 -1.90964 0
M  V30 5681 C 536.209 -3.13613 -1.76972 0
M  V30 5682 C 536.062 -4.40766 -0.89695 0
M  V30 5683 C 537.381 -3.43931 -2.7459 0
M  V30 5684 H 534.5 -0.654138 -0.339518 0
M  V30 5685 H 537.142 -1.88877 -0.20623 0
M  V30 5686 H 535.292 -3.06015 -2.39347 0
M  V30 5687 H 536.964 -4.60392 -0.289306 0
M  V30 5688 H 535.207 -4.33326 -0.202756 0
M  V30 5689 H 535.878 -5.30843 -1.51358 0
M  V30 5690 H 538.354 -3.5171 -2.22349 0
M  V30 5691 H 537.23 -4.38706 -3.29891 0
M  V30 5692 H 537.491 -2.6651 -3.52739 0
M  V30 5693 N 536.55 0.480323 -1.50102 0
M  V30 5694 C 537.483 1.59789 -1.62919 0
M  V30 5695 C 538.461 1.55429 -0.477557 0
M  V30 5696 O 539.645 1.75186 -0.695851 0
M  V30 5697 C 536.772 2.98351 -1.60325 0
M  V30 5698 C 535.818 3.20899 -2.80938 0
M  V30 5699 S 536.651 3.01791 -4.4236 0
M  V30 5700 C 537.807 4.42712 -4.42444 0
M  V30 5701 H 538.04 1.48676 -2.57454 0
M  V30 5702 H 535.573 0.666996 -1.3925 0
M  V30 5703 H 537.531 3.7824 -1.59514 0
M  V30 5704 H 536.192 3.06862 -0.670419 0
M  V30 5705 H 535.385 4.22102 -2.75401 0
M  V30 5706 H 534.987 2.48768 -2.79268 0
M  V30 5707 H 537.279 5.3518 -4.15438 0
M  V30 5708 H 538.222 4.53294 -5.43995 0
M  V30 5709 H 538.63 4.24359 -3.72263 0
M  V30 5710 N 538.028 1.39524 0.732853 0
M  V30 5711 C 539.439 1.32905 1.31122 0
M  V30 5712 C 539.79 -0.00558708 1.96199 0
M  V30 5713 O 538.915 -0.907706 1.96443 0
M  V30 5714 C 539.51 2.40704 2.38426 0
M  V30 5715 C 538.069 2.37599 2.91931 0
M  V30 5716 C 537.216 2.2248 1.65523 0
M  V30 5717 H 540.167 1.49581 0.530207 0
M  V30 5718 H 540.188 2.07616 3.18867 0
M  V30 5719 H 539.7 3.37829 1.91033 0
M  V30 5720 H 537.801 1.44119 3.43599 0
M  V30 5721 H 537.914 3.32538 3.44899 0
M  V30 5722 H 536.278 1.69691 1.8994 0
M  V30 5723 H 537.061 3.21577 1.20178 0
M  V30 5724 N 539.506 -0.963266 1.24736 0
M  V30 5725 C 540.454 -2.07985 1.04139 0
M  V30 5726 C 541.448 -1.69381 -0.0250556 0
M  V30 5727 O 542.654 -1.79531 0.129863 0
M  V30 5728 H 539.029 -0.680627 0.319768 0
M  V30 5729 H 541 -2.22517 1.98818 0
M  V30 5730 C 539.749 -3.4123 0.667615 0
M  V30 5731 H 539.072 -3.71397 1.48 0
M  V30 5732 H 540.512 -4.20244 0.563136 0
M  V30 5733 C 538.971 -3.3104 -0.625647 0
M  V30 5734 O 539.501 -3.65334 -1.67016 0
M  V30 5735 N 537.707 -2.84168 -0.608033 0
M  V30 5736 H 537.254 -2.56458 0.242323 0
M  V30 5737 H 537.212 -2.77732 -1.47352 0
M  V30 5738 N 540.985 -1.06182 -1.16461 0
M  V30 5739 C 541.948 -0.675723 -2.19013 0
M  V30 5740 C 542.948 0.277963 -1.58379 0
M  V30 5741 O 544.138 0.0604962 -1.74095 0
M  V30 5742 C 541.27 0.00591459 -3.40899 0
M  V30 5743 H 542.463 -1.58353 -2.54685 0
M  V30 5744 H 540.016 -0.856908 -1.30716 0
M  V30 5745 H 540.751 0.92652 -3.10783 0
M  V30 5746 H 540.536 -0.67984 -3.86161 0
M  V30 5747 H 542.026 0.26181 -4.16778 0
M  V30 5748 N 542.463 1.3308 -0.844243 0
M  V30 5749 C 543.712 1.96868 -0.438833 0
M  V30 5750 C 544.025 1.67599 1.00846 0
M  V30 5751 O 545.231 2.25043 1.51881 0
M  V30 5752 C 543.687 3.5234 -0.73377 0
M  V30 5753 C 543.295 3.90481 -2.1961 0
M  V30 5754 C 545.039 4.22653 -0.395574 0
M  V30 5755 C 542.946 5.38954 -2.43481 0
M  V30 5756 H 541.876 0.736749 -0.160364 0
M  V30 5757 H 544.527 1.51623 -1.03358 0
M  V30 5758 H 542.909 3.95941 -0.068589 0
M  V30 5759 H 544.083 3.57922 -2.90221 0
M  V30 5760 H 542.398 3.33165 -2.4978 0
M  V30 5761 H 544.995 5.31848 -0.551477 0
M  V30 5762 H 545.338 4.11004 0.661921 0
M  V30 5763 H 545.871 3.84601 -1.01621 0
M  V30 5764 H 542.61 5.55612 -3.47816 0
M  V30 5765 H 542.13 5.72954 -1.77437 0
M  V30 5766 H 543.809 6.05907 -2.26905 0
M  V30 5767 N 543.941 0.601185 1.45683 0
M  V30 5768 C 545.187 0.0940202 2.02582 0
M  V30 5769 C 545.52 -1.26972 1.46941 0
M  V30 5770 O 544.795 -1.83613 0.641612 0
M  V30 5771 C 545.078 0.0481715 3.60068 0
M  V30 5772 C 544.931 1.44212 4.26055 0
M  V30 5773 C 546.25 -0.642975 4.35378 0
M  V30 5774 H 543.369 0.0356404 0.736138 0
M  V30 5775 H 546.011 0.771929 1.73612 0
M  V30 5776 H 544.161 -0.529128 3.8488 0
M  V30 5777 H 545.833 2.06601 4.12449 0
M  V30 5778 H 544.076 2.00465 3.84703 0
M  V30 5779 H 544.747 1.36234 5.34925 0
M  V30 5780 H 547.223 -0.152351 4.15821 0
M  V30 5781 H 546.099 -0.644141 5.45107 0
M  V30 5782 H 546.36 -1.70785 4.0778 0
M  V30 5783 N 545.419 -1.53889 0.339982 0
M  V30 5784 C 546.351 -2.22435 -0.55275 0
M  V30 5785 C 547.364 -1.22975 -1.06681 0
M  V30 5786 O 548.553 -1.49351 -0.977575 0
M  V30 5787 C 545.653 -2.8882 -1.77302 0
M  V30 5788 C 544.826 -4.14563 -1.39486 0
M  V30 5789 C 543.885 -4.64391 -2.47442 0
M  V30 5790 O 542.911 -5.28687 -2.10899 0
M  V30 5791 N 544.113 -4.40015 -3.78639 0
M  V30 5792 H 546.878 -2.9968 0.0342669 0
M  V30 5793 H 544.439 -1.61068 0.16394 0
M  V30 5794 H 546.431 -3.19072 -2.48948 0
M  V30 5795 H 545.001 -2.15182 -2.26749 0
M  V30 5796 H 544.221 -3.90896 -0.509321 0
M  V30 5797 H 545.509 -4.96362 -1.11813 0
M  V30 5798 H 544.907 -3.88586 -4.11118 0
M  V30 5799 H 543.464 -4.74881 -4.46465 0
M  V30 5800 N 546.897 -0.0685191 -1.57451 0
M  V30 5801 C 548.122 0.613919 -1.98106 0
M  V30 5802 C 548.547 1.62551 -0.946501 0
M  V30 5803 O 547.905 1.81085 0.0882824 0
M  V30 5804 C 547.953 1.26189 -3.378 0
M  V30 5805 O 547.057 2.37773 -3.36954 0
M  V30 5806 H 546.398 0.158163 -0.644888 0
M  V30 5807 H 548.928 -0.142063 -2.04106 0
M  V30 5808 H 548.938 1.60951 -3.74912 0
M  V30 5809 H 547.613 0.520625 -4.12629 0
M  V30 5810 H 546.19 2.04829 -3.11608 0
M  V30 5811 N 548.375 1.56261 0.205012 0
M  V30 5812 C 549.621 1.80306 0.9283 0
M  V30 5813 C 549.954 0.640932 1.83319 0
M  V30 5814 O 549.229 -0.359032 1.91158 0
M  V30 5815 C 549.512 3.14547 1.75306 0
M  V30 5816 C 549.365 4.41236 0.873562 0
M  V30 5817 C 550.684 3.45382 2.72762 0
M  V30 5818 H 547.803 0.655929 0.336044 0
M  V30 5819 H 550.445 1.88984 0.196211 0
M  V30 5820 H 548.595 3.0728 2.37721 0
M  V30 5821 H 550.267 4.60539 0.264887 0
M  V30 5822 H 548.51 4.33427 0.179773 0
M  V30 5823 H 549.181 5.31639 1.48541 0
M  V30 5824 H 551.657 3.52884 2.20481 0
M  V30 5825 H 550.533 4.40449 3.2756 0
M  V30 5826 H 550.794 2.68377 3.51321 0
M  V30 5827 N 549.853 -0.472356 1.50355 0
M  V30 5828 C 551.101 -1.22211 1.60962 0
M  V30 5829 C 551.422 -1.92497 0.311439 0
M  V30 5830 O 550.692 -1.8405 -0.671002 0
M  V30 5831 H 549.272 -0.454092 0.593135 0
M  V30 5832 H 551.934 -0.544977 1.87126 0
M  V30 5833 H 551.03 -1.9707 2.42012 0
M  V30 5834 N 551.331 -1.39911 -0.725443 0
M  V30 5835 C 552.577 -1.37858 -1.48738 0
M  V30 5836 C 552.91 0.0224187 -1.94187 0
M  V30 5837 O 552.185 0.989204 -1.67466 0
M  V30 5838 C 552.468 -2.3594 -2.72038 0
M  V30 5839 C 552.321 -3.85023 -2.32546 0
M  V30 5840 C 553.64 -2.31704 -3.74167 0
M  V30 5841 H 550.759 -0.502074 -0.539528 0
M  V30 5842 H 553.401 -1.70974 -0.828728 0
M  V30 5843 H 551.551 -2.0783 -3.28236 0
M  V30 5844 H 553.223 -4.2392 -1.81905 0
M  V30 5845 H 551.466 -4.01334 -1.64661 0
M  V30 5846 H 552.137 -4.49152 -3.20884 0
M  V30 5847 H 554.613 -2.5658 -3.27576 0
M  V30 5848 H 553.489 -3.02395 -4.58092 0
M  V30 5849 H 553.75 -1.3253 -4.21768 0
M  V30 5850 N 552.809 0.956637 -1.25245 0
M  V30 5851 C 554.034 1.74104 -1.12706 0
M  V30 5852 C 554.459 1.85436 0.315429 0
M  V30 5853 O 553.817 1.33334 1.22848 0
M  V30 5854 C 553.865 3.1338 -1.78396 0
M  V30 5855 O 552.969 3.98485 -1.06224 0
M  V30 5856 H 552.31 0.53476 -0.393609 0
M  V30 5857 H 554.84 1.19924 -1.65769 0
M  V30 5858 H 554.85 3.6385 -1.846 0
M  V30 5859 H 553.525 3.04448 -2.83345 0
M  V30 5860 H 552.102 3.56952 -1.07886 0
M  V30 5861 N 554.287 1.06798 1.15896 0
M  V30 5862 C 555.512 0.808739 1.90982 0
M  V30 5863 C 555.937 -0.6316 1.77179 0
M  V30 5864 O 555.295 -1.4407 1.10061 0
M  V30 5865 C 555.343 1.21468 3.39526 0
M  V30 5866 O 554.447 0.356562 4.10856 0
M  V30 5867 H 553.788 0.29512 0.594811 0
M  V30 5868 H 556.318 1.42513 1.46804 0
M  V30 5869 H 556.328 1.18844 3.90308 0
M  V30 5870 H 555.003 2.26379 3.48891 0
M  V30 5871 H 553.58 0.444808 3.70238 0
M  V30 5872 N 555.766 -1.3263 0.851289 0
M  V30 5873 C 557.014 -1.96978 0.452128 0
M  V30 5874 C 557.335 -1.67715 -0.99482 0
M  V30 5875 O 556.605 -0.98259 -1.69476 0
M  V30 5876 H 555.185 -0.72873 0.164202 0
M  V30 5877 H 557.847 -1.61774 1.08698 0
M  V30 5878 H 556.943 -3.06387 0.594407 0
M  V30 5879 N 557.244 -0.608902 -1.45362 0
M  V30 5880 C 558.191 0.109172 -2.30542 0
M  V30 5881 C 559.161 0.858704 -1.42181 0
M  V30 5882 O 560.346 0.844178 -1.71109 0
M  V30 5883 C 557.486 1.09971 -3.27109 0
M  V30 5884 C 556.599 0.350911 -4.30572 0
M  V30 5885 C 555.734 1.33129 -5.14247 0
M  V30 5886 C 554.773 0.570377 -6.09437 0
M  V30 5887 N 553.91 1.5001 -6.85887 0
M  V30 5888 H 558.75 -0.623195 -2.91411 0
M  V30 5889 H 556.287 -0.319122 -1.43597 0
M  V30 5890 H 558.245 1.68714 -3.81564 0
M  V30 5891 H 556.875 1.79947 -2.67991 0
M  V30 5892 H 555.927 -0.352054 -3.78767 0
M  V30 5893 H 557.239 -0.242725 -4.98209 0
M  V30 5894 H 556.393 1.99074 -5.73109 0
M  V30 5895 H 555.132 1.95885 -4.46632 0
M  V30 5896 H 554.137 -0.102702 -5.49704 0
M  V30 5897 H 555.362 -0.0521607 -6.7908 0
M  V30 5898 H 553.308 2.11529 -6.2096 0
M  V30 5899 H 553.225 0.959934 -7.49881 0
M  V30 5900 H 554.493 2.14909 -7.49289 0
M  V30 5901 N 558.722 1.53707 -0.348139 0
M  V30 5902 C 559.652 2.28111 0.498766 0
M  V30 5903 C 560.633 1.29851 1.09876 0
M  V30 5904 O 561.818 1.587 1.11928 0
M  V30 5905 C 558.948 3.05735 1.64753 0
M  V30 5906 C 557.902 4.11537 1.17565 0
M  V30 5907 C 557.228 4.77142 2.4133 0
M  V30 5908 C 558.528 5.21587 0.272844 0
M  V30 5909 H 560.222 2.99152 -0.121934 0
M  V30 5910 H 557.768 1.43875 -0.0600842 0
M  V30 5911 H 559.721 3.56526 2.24649 0
M  V30 5912 H 558.445 2.32354 2.2952 0
M  V30 5913 H 557.104 3.61665 0.599483 0
M  V30 5914 H 556.752 4.0035 3.04514 0
M  V30 5915 H 556.452 5.48626 2.10436 0
M  V30 5916 H 557.976 5.30719 3.01943 0
M  V30 5917 H 559.39 5.67986 0.778779 0
M  V30 5918 H 557.787 6.00074 0.0555849 0
M  V30 5919 H 558.857 4.79969 -0.689785 0
M  V30 5920 N 560.2 0.0768682 1.57412 0
M  V30 5921 C 561.13 -0.886026 2.16037 0
M  V30 5922 C 562.111 -1.30691 1.08876 0
M  V30 5923 O 563.296 -1.37705 1.36934 0
M  V30 5924 C 560.426 -2.1518 2.72608 0
M  V30 5925 C 559.38 -1.87015 3.8498 0
M  V30 5926 C 558.706 -3.20266 4.28175 0
M  V30 5927 C 560.006 -1.17143 5.08994 0
M  V30 5928 H 561.7 -0.397642 2.96748 0
M  V30 5929 H 559.246 -0.189823 1.42743 0
M  V30 5930 H 561.199 -2.82962 3.12266 0
M  V30 5931 H 559.923 -2.66269 1.89125 0
M  V30 5932 H 558.582 -1.21636 3.45833 0
M  V30 5933 H 558.23 -3.69207 3.41607 0
M  V30 5934 H 557.93 -3.0221 5.03927 0
M  V30 5935 H 559.454 -3.89237 4.70454 0
M  V30 5936 H 560.868 -1.75003 5.45937 0
M  V30 5937 H 559.265 -1.09328 5.90057 0
M  V30 5938 H 560.335 -0.151295 4.84664 0
M  V30 5939 N 561.678 -1.56367 -0.196722 0
M  V30 5940 C 562.927 -1.79724 -0.915539 0
M  V30 5941 C 563.24 -0.649804 -1.84491 0
M  V30 5942 O 564.446 -0.767631 -2.60422 0
M  V30 5943 C 562.902 -3.18369 -1.67836 0
M  V30 5944 C 562.51 -4.4091 -0.793897 0
M  V30 5945 C 564.254 -3.51037 -2.38691 0
M  V30 5946 C 562.161 -5.70577 -1.55549 0
M  V30 5947 H 561.091 -0.67013 -0.345604 0
M  V30 5948 H 563.742 -1.82721 -0.168856 0
M  V30 5949 H 562.124 -3.09617 -2.46887 0
M  V30 5950 H 563.298 -4.60781 -0.042163 0
M  V30 5951 H 561.613 -4.15937 -0.19626 0
M  V30 5952 H 564.21 -4.4515 -2.96219 0
M  V30 5953 H 564.553 -2.74704 -3.12799 0
M  V30 5954 H 565.086 -3.61229 -1.66608 0
M  V30 5955 H 561.825 -6.49871 -0.857226 0
M  V30 5956 H 561.345 -5.54726 -2.2812 0
M  V30 5957 H 563.024 -6.11637 -2.10971 0
M  V30 5958 N 563.156 0.464375 -1.50603 0
M  V30 5959 C 564.103 1.56152 -1.69956 0
M  V30 5960 C 565.073 1.57046 -0.54091 0
M  V30 5961 O 566.258 1.74473 -0.772258 0
M  V30 5962 C 563.398 2.94079 -1.80586 0
M  V30 5963 C 562.511 3.02923 -3.07996 0
M  V30 5964 C 561.646 4.31806 -3.09382 0
M  V30 5965 C 560.685 4.34417 -4.31218 0
M  V30 5966 N 559.822 5.54782 -4.30304 0
M  V30 5967 H 564.662 1.38955 -2.6362 0
M  V30 5968 H 562.199 0.675482 -1.30674 0
M  V30 5969 H 564.157 3.74073 -1.8473 0
M  V30 5970 H 562.787 3.09896 -0.903556 0
M  V30 5971 H 561.839 2.1576 -3.13292 0
M  V30 5972 H 563.151 3.00712 -3.97962 0
M  V30 5973 H 562.305 5.20153 -3.12292 0
M  V30 5974 H 561.044 4.36636 -2.17257 0
M  V30 5975 H 560.049 3.44467 -4.28512 0
M  V30 5976 H 561.274 4.31273 -5.24576 0
M  V30 5977 H 559.22 5.60384 -3.41037 0
M  V30 5978 H 559.137 5.54339 -5.14047 0
M  V30 5979 H 560.405 6.45235 -4.3737 0
M  V30 5980 N 564.634 1.40294 0.718013 0
M  V30 5981 C 565.564 1.43118 1.84498 0
M  V30 5982 C 566.545 0.292403 1.67568 0
M  V30 5983 O 567.73 0.500675 1.87635 0
M  V30 5984 C 564.86 1.29065 3.22427 0
M  V30 5985 C 563.814 2.40521 3.54025 0
M  V30 5986 C 563.14 2.11546 4.91073 0
M  V30 5987 C 564.44 3.82859 3.55269 0
M  V30 5988 H 566.134 2.37432 1.82391 0
M  V30 5989 H 563.68 1.14283 0.87609 0
M  V30 5990 H 565.633 1.29658 4.00957 0
M  V30 5991 H 564.357 0.312271 3.25104 0
M  V30 5992 H 563.016 2.39173 2.77834 0
M  V30 5993 H 562.664 1.12104 4.90348 0
M  V30 5994 H 562.364 2.86216 5.1318 0
M  V30 5995 H 563.888 2.13817 5.71939 0
M  V30 5996 H 565.302 3.86044 4.23843 0
M  V30 5997 H 563.699 4.57029 3.88902 0
M  V30 5998 H 564.769 4.12617 2.54706 0
M  V30 5999 N 566.112 -0.949982 1.2575 0
M  V30 6000 C 567.059 -2.04738 1.06541 0
M  V30 6001 C 568.029 -1.66078 -0.0268818 0
M  V30 6002 O 569.214 -1.90348 0.131196 0
M  V30 6003 C 566.354 -3.38027 0.695127 0
M  V30 6004 C 565.467 -3.89776 1.86276 0
M  V30 6005 C 564.602 -5.11411 1.4364 0
M  V30 6006 C 563.641 -5.554 2.57287 0
M  V30 6007 N 562.778 -6.68244 2.15395 0
M  V30 6008 H 567.618 -2.20502 2.00457 0
M  V30 6009 H 565.155 -1.0805 0.998178 0
M  V30 6010 H 567.113 -4.14641 0.461375 0
M  V30 6011 H 565.743 -3.22135 -0.207046 0
M  V30 6012 H 564.795 -3.0964 2.20969 0
M  V30 6013 H 566.107 -4.18368 2.71606 0
M  V30 6014 H 565.261 -5.95457 1.16257 0
M  V30 6015 H 564 -4.84545 0.553879 0
M  V30 6016 H 563.005 -4.69916 2.85409 0
M  V30 6017 H 564.23 -5.84272 3.46125 0
M  V30 6018 H 562.176 -6.43078 1.29565 0
M  V30 6019 H 562.093 -6.96377 2.94272 0
M  V30 6020 H 563.361 -7.55687 1.91201 0
M  V30 6021 N 567.59 -1.07411 -1.15328 0
M  V30 6022 C 568.867 -0.710732 -1.82231 0
M  V30 6023 C 569.247 0.806732 -1.95077 0
M  V30 6024 O 568.595 1.72139 -1.50268 0
M  V30 6025 C 568.805 -1.42586 -3.18544 0
M  V30 6026 C 570.153 -1.57836 -3.94174 0
M  V30 6027 O 571.177 -1.38669 -3.281 0
M  V30 6028 O 570.036 -1.8938 -5.12638 0
M  V30 6029 H 567.13 -0.25297 -0.78736 0
M  V30 6030 H 569.676 -1.17508 -1.22434 0
M  V30 6031 H 568.448 -2.46008 -3.04296 0
M  V30 6032 H 568.071 -0.952332 -3.86026 0
M  V30 6033 N 569.068 1.32177 -0.85831 0
M  V30 6034 C 570.316 1.96735 -0.462568 0
M  V30 6035 C 570.637 1.6824 0.985911 0
M  V30 6036 O 569.907 0.991564 1.68952 0
M  V30 6037 H 568.487 0.727849 -0.168064 0
M  V30 6038 H 571.149 1.61195 -1.09554 0
M  V30 6039 H 570.245 3.06068 -0.610647 0
M  V30 6040 N 570.547 0.616602 1.45037 0
M  V30 6041 C 571.963 0.280994 1.57107 0
M  V30 6042 C 572.163 -1.21627 1.60653 0
M  V30 6043 O 571.219 -1.9997 1.54169 0
M  V30 6044 C 572.532 0.960116 2.8496 0
M  V30 6045 C 574.08 0.936884 2.98649 0
M  V30 6046 C 574.555 1.59619 4.29285 0
M  V30 6047 N 576.046 1.5621 4.36065 0
M  V30 6048 C 576.781 2.04131 5.35834 0
M  V30 6049 N 576.277 2.60177 6.4209 0
M  V30 6050 N 578.07 1.94845 5.27249 0
M  V30 6051 H 570.221 1.58867 1.40979 0
M  V30 6052 H 572.484 0.666024 0.674623 0
M  V30 6053 H 572.19 2.01473 2.88273 0
M  V30 6054 H 572.064 0.488921 3.74018 0
M  V30 6055 H 574.451 -0.109209 2.94898 0
M  V30 6056 H 574.532 1.44643 2.10979 0
M  V30 6057 H 574.176 2.64166 4.33796 0
M  V30 6058 H 574.106 1.06159 5.15789 0
M  V30 6059 H 576.597 1.15276 3.59889 0
M  V30 6060 H 576.91 2.94513 7.1448 0
M  V30 6061 H 575.255 2.64221 6.42816 0
M  V30 6062 H 578.446 1.50792 4.43147 0
M  V30 6063 H 578.619 2.32504 6.04852 0
M  V30 6064 N 572.025 -1.5352 0.356285 0
M  V30 6065 C 572.972 -2.25439 -0.494569 0
M  V30 6066 C 573.942 -1.25752 -1.08516 0
M  V30 6067 O 575.127 -1.54513 -1.1194 0
M  V30 6068 C 572.267 -3.04011 -1.63313 0
M  V30 6069 C 571.38 -4.18574 -1.06862 0
M  V30 6070 C 570.515 -4.84607 -2.17552 0
M  V30 6071 C 569.554 -5.91218 -1.58518 0
M  V30 6072 N 568.691 -6.50979 -2.63003 0
M  V30 6073 H 573.531 -2.97737 0.125244 0
M  V30 6074 H 571.068 -1.46916 0.0735789 0
M  V30 6075 H 573.026 -3.47834 -2.30363 0
M  V30 6076 H 571.656 -2.33986 -2.22374 0
M  V30 6077 H 570.708 -3.79303 -0.288672 0
M  V30 6078 H 572.02 -4.95215 -0.596924 0
M  V30 6079 H 571.174 -5.31566 -2.92442 0
M  V30 6080 H 569.913 -4.07418 -2.6807 0
M  V30 6081 H 568.918 -5.4363 -0.821391 0
M  V30 6082 H 570.143 -6.70322 -1.08836 0
M  V30 6083 H 568.089 -5.76648 -3.12751 0
M  V30 6084 H 568.006 -7.23131 -2.20493 0
M  V30 6085 H 569.274 -7.02589 -3.37623 0
M  V30 6086 N 573.503 -0.0852151 -1.57369 0
M  V30 6087 C 574.749 0.581666 -1.94279 0
M  V30 6088 C 575.082 1.68444 -0.966446 0
M  V30 6089 O 574.357 1.945 0.00215277 0
M  V30 6090 C 574.64 1.14609 -3.41375 0
M  V30 6091 C 574.493 0.0490414 -4.49773 0
M  V30 6092 C 575.812 2.04751 -3.8957 0
M  V30 6093 H 572.931 0.209972 -0.706456 0
M  V30 6094 H 575.573 -0.153915 -1.89376 0
M  V30 6095 H 573.723 1.77297 -3.45685 0
M  V30 6096 H 575.395 -0.584721 -4.57579 0
M  V30 6097 H 573.638 -0.618638 -4.29366 0
M  V30 6098 H 574.309 0.484601 -5.49869 0
M  V30 6099 H 576.785 1.51981 -3.87351 0
M  V30 6100 H 575.661 2.41173 -4.93079 0
M  V30 6101 H 575.922 2.96107 -3.28288 0
M  V30 6102 N 574.981 1.5647 0.188427 0
M  V30 6103 C 575.891 1.98285 1.2538 0
M  V30 6104 C 576.907 0.891535 1.49424 0
M  V30 6105 O 578.083 1.19782 1.61908 0
M  V30 6106 C 575.148 2.31965 2.57669 0
M  V30 6107 C 574.209 3.54838 2.41638 0
M  V30 6108 C 573.442 3.86901 3.67618 0
M  V30 6109 O 573.665 3.20163 4.72072 0
M  V30 6110 O 572.599 4.80309 3.62749 0
M  V30 6111 H 576.425 2.89145 0.928912 0
M  V30 6112 H 574.01 1.44112 0.393955 0
M  V30 6113 H 575.892 2.54673 3.35737 0
M  V30 6114 H 574.567 1.44271 2.89771 0
M  V30 6115 H 573.474 3.37369 1.61658 0
M  V30 6116 H 574.807 4.43019 2.14465 0
M  V30 6117 N 576.459 -0.456382 1.50847 0
M  V30 6118 C 577.687 -1.23026 1.66349 0
M  V30 6119 C 578.102 -1.85473 0.352868 0
M  V30 6120 O 577.459 -1.69885 -0.666739 0
M  V30 6121 C 577.51 -2.32827 2.76539 0
M  V30 6122 O 577.231 -1.72938 4.02522 0
M  V30 6123 C 578.732 -3.23448 3.03144 0
M  V30 6124 H 575.952 -0.371527 0.558756 0
M  V30 6125 H 578.496 -0.543082 1.97157 0
M  V30 6126 H 576.651 -2.97294 2.48384 0
M  V30 6127 H 577.065 -2.45357 4.63573 0
M  V30 6128 H 578.539 -3.96669 3.83872 0
M  V30 6129 H 579.016 -3.83094 2.14793 0
M  V30 6130 H 579.622 -2.64702 3.32886 0
M  V30 6131 N 577.937 -1.40673 -0.710563 0
M  V30 6132 C 579.214 -1.29718 -1.46398 0
M  V30 6133 C 579.594 0.082177 -2.1094 0
M  V30 6134 O 578.942 1.09536 -2.00534 0
M  V30 6135 C 579.152 -2.43967 -2.49562 0
M  V30 6136 C 580.5 -2.84436 -3.15248 0
M  V30 6137 O 581.524 -2.43597 -2.59883 0
M  V30 6138 O 580.383 -3.55008 -4.1549 0
M  V30 6139 H 577.477 -0.509697 -0.651258 0
M  V30 6140 H 580.023 -1.52603 -0.742312 0
M  V30 6141 H 578.795 -3.36076 -2.0042 0
M  V30 6142 H 578.418 -2.22879 -3.29258 0
M  V30 6143 N 579.415 0.9433 -1.26252 0
M  V30 6144 C 580.365 2.02746 -1.04297 0
M  V30 6145 C 581.349 1.60882 0.0239435 0
M  V30 6146 O 582.541 1.75947 -0.192757 0
M  V30 6147 C 579.67 3.36585 -0.6757 0
M  V30 6148 C 578.756 3.84939 -1.77996 0
M  V30 6149 N 579.147 4.05966 -3.01704 0
M  V30 6150 C 577.445 4.13833 -1.66308 0
M  V30 6151 C 578.146 4.45987 -3.73458 0
M  V30 6152 N 577.122 4.52569 -3.01135 0
M  V30 6153 H 580.924 2.17012 -1.98199 0
M  V30 6154 H 578.438 1.12898 -1.16738 0
M  V30 6155 H 580.435 4.13896 -0.499571 0
M  V30 6156 H 579.095 3.2369 0.255863 0
M  V30 6157 H 580.106 3.92716 -3.37631 0
M  V30 6158 H 576.783 4.09739 -0.801267 0
M  V30 6159 H 578.173 4.70465 -4.79701 0
M  V30 6160 N 580.893 1.08022 1.14757 0
M  V30 6161 C 582.142 0.802468 1.8505 0
M  V30 6162 C 582.455 -0.674061 1.83619 0
M  V30 6163 O 583.661 -1.06683 2.49662 0
M  V30 6164 C 582.117 1.38551 3.32162 0
M  V30 6165 C 581.725 2.89354 3.42021 0
M  V30 6166 C 583.469 1.18608 4.07594 0
M  V30 6167 C 581.376 3.40815 4.83321 0
M  V30 6168 H 580.306 0.296518 0.693248 0
M  V30 6169 H 582.957 1.30114 1.29393 0
M  V30 6170 H 581.339 0.814556 3.87532 0
M  V30 6171 H 582.513 3.52552 2.96722 0
M  V30 6172 H 580.828 3.08165 2.80041 0
M  V30 6173 H 583.425 1.54525 5.11885 0
M  V30 6174 H 583.768 0.125599 4.1611 0
M  V30 6175 H 584.301 1.72375 3.58513 0
M  V30 6176 H 581.04 4.46418 4.79991 0
M  V30 6177 H 580.56 2.82374 5.29174 0
M  V30 6178 H 582.239 3.37171 5.522 0
M  V30 6179 N 582.371 -1.3172 0.865308 0
M  V30 6180 C 583.617 -1.97168 0.474633 0
M  V30 6181 C 583.95 -1.68263 -0.969604 0
M  V30 6182 O 583.225 -0.976588 -1.68205 0
M  V30 6183 C 583.508 -3.52689 0.726808 0
M  V30 6184 C 583.361 -3.91185 2.22024 0
M  V30 6185 C 584.68 -4.39689 0.190201 0
M  V30 6186 H 581.799 -0.716185 0.17392 0
M  V30 6187 H 584.441 -1.55925 1.08569 0
M  V30 6188 H 582.591 -3.8795 0.206705 0
M  V30 6189 H 584.263 -3.66049 2.80724 0
M  V30 6190 H 582.506 -3.3996 2.69462 0
M  V30 6191 H 583.177 -4.99604 2.34735 0
M  V30 6192 H 585.653 -4.11225 0.635103 0
M  V30 6193 H 584.529 -5.47469 0.396132 0
M  V30 6194 H 584.79 -4.32683 -0.907625 0
M  V30 6195 N 583.85 -0.624285 -1.44708 0
M  V30 6196 C 584.812 0.0749638 -2.29077 0
M  V30 6197 C 585.812 0.778965 -1.40673 0
M  V30 6198 O 587.003 0.624591 -1.62618 0
M  V30 6199 C 584.135 1.11663 -3.22094 0
M  V30 6200 H 585.327 -0.667013 -2.92388 0
M  V30 6201 H 582.88 -0.384098 -1.51507 0
M  V30 6202 H 583.615 1.88881 -2.63618 0
M  V30 6203 H 583.401 0.61583 -3.87234 0
M  V30 6204 H 584.891 1.60585 -3.8549 0
M  V30 6205 N 585.328 1.53329 -0.364422 0
M  V30 6206 C 586.291 2.24323 0.470292 0
M  V30 6207 C 587.291 1.25068 1.01067 0
M  V30 6208 O 588.481 1.49354 0.896605 0
M  V30 6209 C 585.613 2.97908 1.65722 0
M  V30 6210 H 586.806 2.9952 -0.150917 0
M  V30 6211 H 584.359 1.55868 -0.116092 0
M  V30 6212 H 585.094 2.2695 2.31655 0
M  V30 6213 H 584.879 3.70732 1.27671 0
M  V30 6214 H 586.369 3.5188 2.24878 0
M  V30 6215 N 586.806 0.0935595 1.57322 0
M  V30 6216 C 588.052 -0.571355 1.94585 0
M  V30 6217 C 588.385 -1.67929 0.975366 0
M  V30 6218 O 587.66 -1.94498 0.00816206 0
M  V30 6219 C 587.943 -1.12797 3.41978 0
M  V30 6220 C 587.796 -0.0251881 4.49793 0
M  V30 6221 C 589.115 -2.02682 3.90651 0
M  V30 6222 H 586.234 -0.206223 0.70756 0
M  V30 6223 H 588.876 0.163956 1.89291 0
M  V30 6224 H 587.026 -1.75461 3.4662 0
M  V30 6225 H 588.698 0.608979 4.57263 0
M  V30 6226 H 586.941 0.641399 4.29032 0
M  V30 6227 H 587.612 -0.455433 5.50118 0
M  V30 6228 H 590.088 -1.49925 3.88152 0
M  V30 6229 H 588.964 -2.38555 4.94351 0
M  V30 6230 H 589.225 -2.94362 3.29854 0
M  V30 6231 N 588.284 -1.56567 -0.180126 0
M  V30 6232 C 589.532 -1.81133 -0.896392 0
M  V30 6233 C 589.853 -0.669114 -1.83161 0
M  V30 6234 O 589.123 0.311616 -1.93406 0
M  V30 6235 H 587.703 -0.668172 -0.333999 0
M  V30 6236 H 590.365 -1.94048 -0.182051 0
M  V30 6237 H 589.461 -2.74854 -1.47857 0
M  V30 6238 N 589.762 0.448376 -1.51087 0
M  V30 6239 C 590.692 1.55102 -1.74544 0
M  V30 6240 C 591.673 1.59357 -0.594932 0
M  V30 6241 O 592.858 1.75261 -0.836491 0
M  V30 6242 C 589.988 2.93268 -1.86041 0
M  V30 6243 C 588.942 3.03877 -3.01402 0
M  V30 6244 C 588.268 4.43914 -2.98068 0
M  V30 6245 C 589.568 2.7898 -4.41551 0
M  V30 6246 H 591.262 1.35724 -2.66869 0
M  V30 6247 H 588.808 0.651498 -1.28419 0
M  V30 6248 H 590.761 3.70356 -2.01034 0
M  V30 6249 H 589.485 3.13853 -0.903548 0
M  V30 6250 H 588.144 2.29227 -2.86096 0
M  V30 6251 H 587.792 4.6145 -2.00182 0
M  V30 6252 H 587.492 4.51944 -3.75527 0
M  V30 6253 H 589.016 5.22991 -3.1514 0
M  V30 6254 H 590.43 3.45805 -4.57265 0
M  V30 6255 H 588.827 2.98431 -5.20633 0
M  V30 6256 H 589.897 1.74663 -4.5235 0
M  V30 6257 N 591.24 1.41047 0.703093 0
M  V30 6258 C 592.15 1.44645 1.84703 0
M  V30 6259 C 593.166 0.337778 1.7069 0
M  V30 6260 O 594.342 0.584327 1.92737 0
M  V30 6261 C 591.407 1.31928 3.20618 0
M  V30 6262 C 590.468 2.53047 3.46794 0
M  V30 6263 C 589.701 2.40927 4.76224 0
M  V30 6264 O 589.924 1.42978 5.5219 0
M  V30 6265 O 588.858 3.30543 5.03016 0
M  V30 6266 H 592.684 2.41139 1.84624 0
M  V30 6267 H 590.269 1.22504 0.855167 0
M  V30 6268 H 592.151 1.27092 4.01778 0
M  V30 6269 H 590.826 0.385469 3.21397 0
M  V30 6270 H 589.733 2.6346 2.65593 0
M  V30 6271 H 591.066 3.45231 3.50822 0
M  V30 6272 N 592.718 -0.936591 1.26751 0
M  V30 6273 C 594.129 -1.49816 1.1141 0
M  V30 6274 C 594.48 -1.9383 -0.304015 0
M  V30 6275 O 593.605 -1.80346 -1.196 0
M  V30 6276 C 594.2 -2.72271 2.01629 0
M  V30 6277 C 592.759 -3.2468 1.9042 0
M  V30 6278 C 591.906 -1.97444 1.94708 0
M  V30 6279 H 594.857 -0.751604 1.39773 0
M  V30 6280 H 594.878 -3.46741 1.56688 0
M  V30 6281 H 594.39 -2.40205 3.04833 0
M  V30 6282 H 592.491 -3.61525 0.901674 0
M  V30 6283 H 592.604 -3.91476 2.76195 0
M  V30 6284 H 590.968 -2.13545 1.38818 0
M  V30 6285 H 591.751 -1.67703 2.9955 0
M  V30 6286 N 594.196 -1.08629 -1.14182 0
M  V30 6287 C 595.144 -0.71284 -2.21408 0
M  V30 6288 C 596.138 0.282457 -1.67029 0
M  V30 6289 O 597.344 0.144783 -1.79417 0
M  V30 6290 H 593.719 -0.212497 -0.721352 0
M  V30 6291 H 595.69 -1.6265 -2.50175 0
M  V30 6292 C 594.439 -0.140704 -3.47415 0
M  V30 6293 H 593.762 -0.897739 -3.8959 0
M  V30 6294 H 595.202 0.0827677 -4.23919 0
M  V30 6295 C 593.661 1.122 -3.17668 0
M  V30 6296 O 594.191 2.20652 -3.35672 0
M  V30 6297 N 592.397 1.03328 -2.71609 0
M  V30 6298 H 591.944 0.150666 -2.57159 0
M  V30 6299 H 591.902 1.8789 -2.52081 0
M  V30 6300 N 595.674 1.31259 -0.872281 0
M  V30 6301 C 596.92 1.96913 -0.485083 0
M  V30 6302 C 597.253 1.68774 0.960667 0
M  V30 6303 O 596.528 0.985495 1.67685 0
M  V30 6304 C 596.811 3.52299 -0.745502 0
M  V30 6305 C 596.664 3.90002 -2.24095 0
M  V30 6306 C 597.983 4.39582 -0.213516 0
M  V30 6307 H 595.102 0.715252 -0.177716 0
M  V30 6308 H 597.744 1.55347 -1.09395 0
M  V30 6309 H 595.894 3.87835 -0.227276 0
M  V30 6310 H 597.566 3.64555 -2.82661 0
M  V30 6311 H 595.809 3.38526 -2.71261 0
M  V30 6312 H 596.48 4.98352 -2.37381 0
M  V30 6313 H 598.956 4.10882 -0.656902 0
M  V30 6314 H 597.832 5.47251 -0.42516 0
M  V30 6315 H 598.093 4.33158 0.884666 0
M  V30 6316 N 597.152 0.631951 1.44375 0
M  V30 6317 C 598.062 -0.073674 2.34484 0
M  V30 6318 C 599.078 -0.834825 1.52665 0
M  V30 6319 O 600.254 -0.786902 1.85391 0
M  V30 6320 C 597.319 -1.04247 3.30656 0
M  V30 6321 C 596.38 -0.280602 4.28382 0
M  V30 6322 C 595.613 -1.20325 5.19959 0
M  V30 6323 O 595.836 -2.44199 5.15484 0
M  V30 6324 O 594.77 -0.687128 5.97965 0
M  V30 6325 H 598.596 0.667477 2.96274 0
M  V30 6326 H 596.181 0.392144 1.44162 0
M  V30 6327 H 598.063 -1.59981 3.89851 0
M  V30 6328 H 596.738 -1.76422 2.71398 0
M  V30 6329 H 595.645 0.319804 3.72731 0
M  V30 6330 H 596.978 0.401144 4.90563 0
M  V30 6331 N 598.631 -1.53133 0.372548 0
M  V30 6332 C 599.561 -2.28876 -0.462412 0
M  V30 6333 C 600.542 -1.31583 -1.07796 0
M  V30 6334 O 601.727 -1.60461 -1.09389 0
M  V30 6335 C 598.857 -3.08317 -1.59868 0
M  V30 6336 C 597.811 -4.13355 -1.11003 0
M  V30 6337 C 597.137 -4.8092 -2.33708 0
M  V30 6338 C 598.437 -5.21955 -0.18983 0
M  V30 6339 H 600.131 -2.9892 0.169511 0
M  V30 6340 H 597.677 -1.43761 0.0829658 0
M  V30 6341 H 599.63 -3.60055 -2.18949 0
M  V30 6342 H 598.354 -2.35976 -2.25794 0
M  V30 6343 H 597.013 -3.62573 -0.541869 0
M  V30 6344 H 596.661 -4.05144 -2.98106 0
M  V30 6345 H 596.361 -5.51904 -2.01682 0
M  V30 6346 H 597.885 -5.35455 -2.93462 0
M  V30 6347 H 599.299 -5.69153 -0.688319 0
M  V30 6348 H 597.696 -6.00087 0.0398887 0
M  V30 6349 H 598.766 -4.78811 0.766057 0
M  V30 6350 N 600.109 -0.101901 -1.5727 0
M  V30 6351 C 601.072 0.840129 -2.13247 0
M  V30 6352 C 602.072 1.20625 -1.06331 0
M  V30 6353 O 603.262 1.13456 -1.32186 0
M  V30 6354 C 600.394 2.13372 -2.65867 0
M  V30 6355 H 601.587 0.353945 -2.97804 0
M  V30 6356 H 599.14 0.147167 -1.55606 0
M  V30 6357 H 599.875 2.66461 -1.84849 0
M  V30 6358 H 599.66 1.88085 -3.44044 0
M  V30 6359 H 601.15 2.80748 -3.09145 0
M  V30 6360 N 601.587 1.56661 0.17182 0
M  V30 6361 C 602.534 1.96371 1.21273 0
M  V30 6362 C 603.504 0.82756 1.44016 0
M  V30 6363 O 604.689 1.08764 1.56764 0
M  V30 6364 C 601.829 2.32838 2.54716 0
M  V30 6365 C 600.942 3.59628 2.39356 0
M  V30 6366 C 600.077 3.85311 3.65662 0
M  V30 6367 C 599.116 5.0545 3.45234 0
M  V30 6368 N 598.253 5.27268 4.63608 0
M  V30 6369 H 603.093 2.85106 0.86709 0
M  V30 6370 H 600.63 1.41073 0.416744 0
M  V30 6371 H 602.588 2.52004 3.3249 0
M  V30 6372 H 601.218 1.47214 2.87277 0
M  V30 6373 H 600.27 3.4838 1.52761 0
M  V30 6374 H 601.582 4.4756 2.20207 0
M  V30 6375 H 600.736 4.04841 4.51872 0
M  V30 6376 H 599.475 2.95753 3.8779 0
M  V30 6377 H 598.48 4.85819 2.5741 0
M  V30 6378 H 599.705 5.96538 3.24529 0
M  V30 6379 H 597.651 4.40662 4.85956 0
M  V30 6380 H 597.568 6.09422 4.4737 0
M  V30 6381 H 598.836 5.51277 5.51103 0
M  V30 6382 N 603.065 -0.440357 1.51323 0
M  V30 6383 C 604.293 -1.21255 1.67645 0
M  V30 6384 C 604.708 -1.85088 0.37252 0
M  V30 6385 O 604.065 -1.70582 -0.648683 0
M  V30 6386 C 604.116 -2.29881 2.78993 0
M  V30 6387 O 603.837 -1.68659 4.04334 0
M  V30 6388 C 605.338 -3.20214 3.06558 0
M  V30 6389 H 602.558 -0.36558 0.562666 0
M  V30 6390 H 605.102 -0.52214 1.97722 0
M  V30 6391 H 603.257 -2.94643 2.51524 0
M  V30 6392 H 603.671 -2.40426 4.6615 0
M  V30 6393 H 605.145 -3.92575 3.88058 0
M  V30 6394 H 605.622 -3.80794 2.18844 0
M  V30 6395 H 606.228 -2.61156 3.35675 0
M  V30 6396 N 604.543 -1.41418 -0.695603 0
M  V30 6397 C 605.791 -1.40496 -1.45277 0
M  V30 6398 C 606.112 -0.0149538 -1.94994 0
M  V30 6399 O 605.382 0.9432 -1.71699 0
M  V30 6400 H 603.962 -0.517147 -0.539044 0
M  V30 6401 H 606.624 -1.76656 -0.823321 0
M  V30 6402 H 605.72 -2.09214 -2.31595 0
M  V30 6403 N 606.021 0.929856 -1.27246 0
M  V30 6404 C 607.269 1.674 -1.13233 0
M  V30 6405 C 607.59 1.92311 0.322744 0
M  V30 6406 O 606.86 1.52784 1.22612 0
M  V30 6407 H 605.44 0.620411 -0.416052 0
M  V30 6408 H 608.102 1.11663 -1.59741 0
M  V30 6409 H 607.198 2.64308 -1.65975 0
M  V30 6410 N 607.499 1.09233 1.13605 0
M  V30 6411 C 608.429 0.751738 2.21068 0
M  V30 6412 C 609.41 -0.269688 1.67948 0
M  V30 6413 O 610.595 -0.13819 1.93708 0
M  V30 6414 C 607.725 0.16935 3.46887 0
M  V30 6415 C 606.679 1.12007 4.13084 0
M  V30 6416 C 606.005 0.399483 5.33206 0
M  V30 6417 C 607.305 2.46168 4.6065 0
M  V30 6418 H 608.999 1.65024 2.49815 0
M  V30 6419 H 606.545 0.794905 1.20072 0
M  V30 6420 H 608.498 -0.0809824 4.21322 0
M  V30 6421 H 607.222 -0.764335 3.1753 0
M  V30 6422 H 605.881 1.35564 3.40614 0
M  V30 6423 H 605.529 -0.538277 5.00112 0
M  V30 6424 H 605.229 1.03337 5.78442 0
M  V30 6425 H 606.753 0.157403 6.10397 0
M  V30 6426 H 608.167 2.26829 5.26518 0
M  V30 6427 H 606.564 3.05326 5.1662 0
M  V30 6428 H 607.634 3.07076 3.75276 0
M  V30 6429 N 608.977 -1.30795 0.87923 0
M  V30 6430 C 609.887 -2.32041 0.345565 0
M  V30 6431 C 610.903 -1.65103 -0.549265 0
M  V30 6432 O 612.079 -1.9645 -0.443763 0
M  V30 6433 C 609.144 -3.43944 -0.436245 0
M  V30 6434 C 608.205 -4.26521 0.48765 0
M  V30 6435 C 607.438 -5.33081 -0.256943 0
M  V30 6436 O 607.661 -5.50762 -1.48381 0
M  V30 6437 O 606.595 -6.00635 0.389985 0
M  V30 6438 H 610.421 -2.79627 1.18501 0
M  V30 6439 H 608.006 -1.3486 0.642885 0
M  V30 6440 H 609.888 -4.12128 -0.879119 0
M  V30 6441 H 608.563 -2.98504 -1.25208 0
M  V30 6442 H 607.47 -3.61057 0.979216 0
M  V30 6443 H 608.803 -4.75551 1.26933 0
M  V30 6444 N 610.455 -0.639598 -1.44038 0
M  V30 6445 C 611.704 -0.144885 -2.01179 0
M  V30 6446 C 612.017 1.24372 -1.50967 0
M  V30 6447 O 613.223 1.83291 -2.00292 0
M  V30 6448 C 611.679 -0.208244 -3.59297 0
M  V30 6449 C 611.287 -1.59869 -4.18504 0
M  V30 6450 C 613.031 0.229568 -4.23879 0
M  V30 6451 C 610.938 -1.61671 -5.68873 0
M  V30 6452 H 609.868 -0.0504005 -0.752314 0
M  V30 6453 H 612.519 -0.799639 -1.65161 0
M  V30 6454 H 610.901 0.513767 -3.92653 0
M  V30 6455 H 612.075 -2.34496 -3.96671 0
M  V30 6456 H 610.39 -1.98131 -3.66242 0
M  V30 6457 H 612.987 0.235758 -5.3418 0
M  V30 6458 H 613.33 1.25848 -3.96822 0
M  V30 6459 H 613.863 -0.440233 -3.95357 0
M  V30 6460 H 610.602 -2.62427 -6.00677 0
M  V30 6461 H 610.122 -0.913489 -5.92803 0
M  V30 6462 H 611.801 -1.35439 -6.32665 0
M  V30 6463 N 611.933 1.52934 -0.380664 0
M  V30 6464 C 613.21 1.93845 0.261417 0
M  V30 6465 C 613.59 1.31544 1.65104 0
M  V30 6466 O 612.938 0.480234 2.23397 0
M  V30 6467 C 613.148 3.47739 0.296466 0
M  V30 6468 C 614.496 4.21284 0.529578 0
M  V30 6469 O 615.52 3.54199 0.377041 0
M  V30 6470 O 614.379 5.40195 0.827753 0
M  V30 6471 H 611.473 0.811318 0.160285 0
M  V30 6472 H 614.019 1.64042 -0.434544 0
M  V30 6473 H 612.791 3.85395 -0.67724 0
M  V30 6474 H 612.414 3.8382 1.0377 0
M  V30 6475 N 613.412 0.11024 1.57214 0
M  V30 6476 C 614.637 -0.561179 1.99664 0
M  V30 6477 C 615.062 -1.59985 0.989266 0
M  V30 6478 O 614.42 -1.81255 -0.0402399 0
M  V30 6479 C 614.468 -1.17189 3.41027 0
M  V30 6480 O 613.572 -2.28755 3.4314 0
M  V30 6481 H 612.913 -0.14101 0.648855 0
M  V30 6482 H 615.443 0.196128 2.03658 0
M  V30 6483 H 615.453 -1.50954 3.79047 0
M  V30 6484 H 614.128 -0.411041 4.13864 0
M  V30 6485 H 612.705 -1.96495 3.16929 0
M  V30 6486 N 614.89 -1.56749 -0.16351 0
M  V30 6487 C 616.167 -1.73321 -0.906599 0
M  V30 6488 C 616.547 -0.673779 -2.00059 0
M  V30 6489 O 615.895 0.310121 -2.26386 0
M  V30 6490 C 616.105 -3.168 -1.46419 0
M  V30 6491 C 617.453 -3.77993 -1.93407 0
M  V30 6492 O 618.477 -3.20127 -1.56196 0
M  V30 6493 O 617.336 -4.79615 -2.61976 0
M  V30 6494 H 614.43 -0.708073 -0.427272 0
M  V30 6495 H 616.976 -1.69029 -0.150727 0
M  V30 6496 H 615.748 -3.85396 -0.677189 0
M  V30 6497 H 615.371 -3.2545 -2.28403 0
M  V30 6498 N 616.368 0.432326 -1.51554 0
M  V30 6499 C 617.615 1.18134 -1.64471 0
M  V30 6500 C 617.943 1.91076 -0.363349 0
M  V30 6501 O 617.198 1.84492 0.65279 0
M  V30 6502 C 617.497 2.21907 -2.80164 0
M  V30 6503 C 617.163 1.65941 -4.19255 0
M  V30 6504 C 615.825 1.50401 -4.57092 0
M  V30 6505 C 618.177 1.24843 -5.06027 0
M  V30 6506 C 615.505 0.922443 -5.79403 0
M  V30 6507 C 617.857 0.68113 -6.28922 0
M  V30 6508 C 616.521 0.512673 -6.65528 0
M  V30 6509 H 615.791 0.432283 -0.601841 0
M  V30 6510 H 618.438 0.471701 -1.856 0
M  V30 6511 H 616.743 2.98928 -2.53277 0
M  V30 6512 H 618.44 2.79691 -2.87357 0
M  V30 6513 H 615.03 1.79014 -3.89425 0
M  V30 6514 H 619.214 1.35667 -4.77397 0
M  V30 6515 H 614.47 0.779733 -6.06408 0
M  V30 6516 H 618.644 0.35418 -6.95499 0
M  V30 6517 H 616.271 0.0599084 -7.60176 0
M  V30 6518 N 617.846 1.41785 0.688094 0
M  V30 6519 C 619.094 1.41264 1.4453 0
M  V30 6520 C 619.415 0.0252946 1.94984 0
M  V30 6521 O 618.685 -0.934081 1.72197 0
M  V30 6522 H 617.265 0.519998 0.536294 0
M  V30 6523 H 619.927 1.7709 0.813941 0
M  V30 6524 H 619.023 2.10439 2.30482 0
M  V30 6525 N 619.324 -0.923095 1.27737 0
M  V30 6526 C 620.572 -1.66797 1.14119 0
M  V30 6527 C 620.893 -1.92479 -0.312541 0
M  V30 6528 O 620.163 -1.53432 -1.218 0
M  V30 6529 H 618.743 -0.618196 0.419336 0
M  V30 6530 H 621.405 -1.10815 1.60331 0
M  V30 6531 H 620.501 -2.63424 1.67374 0
M  V30 6532 N 620.802 -1.09834 -1.13024 0
M  V30 6533 C 622.049 -0.83695 -1.84395 0
M  V30 6534 C 622.377 0.637463 -1.83757 0
M  V30 6535 O 621.632 1.48554 -1.27398 0
M  V30 6536 C 621.931 -1.32263 -3.32026 0
M  V30 6537 C 621.597 -2.80739 -3.52841 0
M  V30 6538 C 620.259 -3.21286 -3.5823 0
M  V30 6539 C 622.611 -3.76449 -3.60466 0
M  V30 6540 C 619.939 -4.56308 -3.68781 0
M  V30 6541 C 622.291 -5.11266 -3.72546 0
M  V30 6542 C 620.955 -5.51397 -3.76189 0
M  V30 6543 H 620.225 -0.306262 -0.674748 0
M  V30 6544 H 622.872 -1.37385 -1.33408 0
M  V30 6545 H 621.177 -0.705618 -3.85394 0
M  V30 6546 H 622.874 -1.09695 -3.85705 0
M  V30 6547 H 619.464 -2.48363 -3.49305 0
M  V30 6548 H 623.648 -3.46234 -3.55578 0
M  V30 6549 H 618.904 -4.86832 -3.69871 0
M  V30 6550 H 623.078 -5.85279 -3.77388 0
M  V30 6551 H 620.705 -6.56017 -3.84117 0
M  V30 6552 N 622.28 1.30327 -0.886154 0
M  V30 6553 C 623.696 1.48676 -0.580323 0
M  V30 6554 C 623.896 1.81189 0.881639 0
M  V30 6555 O 622.952 1.90021 1.66278 0
M  V30 6556 C 624.265 2.60932 -1.49449 0
M  V30 6557 C 625.813 2.74812 -1.49824 0
M  V30 6558 C 626.288 3.90183 -2.39836 0
M  V30 6559 N 627.779 3.97495 -2.37806 0
M  V30 6560 C 628.514 4.86078 -3.04165 0
M  V30 6561 N 628.01 5.79448 -3.79753 0
M  V30 6562 N 629.803 4.79456 -2.93391 0
M  V30 6563 H 621.954 1.07495 -1.8319 0
M  V30 6564 H 624.217 0.532661 -0.784204 0
M  V30 6565 H 623.923 2.43731 -2.5355 0
M  V30 6566 H 623.797 3.57437 -1.20494 0
M  V30 6567 H 626.184 2.91418 -0.464731 0
M  V30 6568 H 626.265 1.78924 -1.82811 0
M  V30 6569 H 625.909 3.74334 -3.43273 0
M  V30 6570 H 625.839 4.85411 -2.04166 0
M  V30 6571 H 628.33 3.30703 -1.82877 0
M  V30 6572 H 628.643 6.43805 -4.27475 0
M  V30 6573 H 626.988 5.79376 -3.8386 0
M  V30 6574 H 630.179 4.05494 -2.33864 0
M  V30 6575 H 630.352 5.48283 -3.45383 0
M  V30 6576 N 623.758 0.647228 1.43697 0
M  V30 6577 C 625.004 0.158422 2.0218 0
M  V30 6578 C 625.337 -1.22233 1.50907 0
M  V30 6579 O 624.612 -1.81478 0.699702 0
M  V30 6580 C 624.895 0.1627 3.59732 0
M  V30 6581 C 624.748 1.57694 4.21251 0
M  V30 6582 C 626.067 -0.504138 4.37203 0
M  V30 6583 H 623.186 0.059042 0.734631 0
M  V30 6584 H 625.828 0.826772 1.71069 0
M  V30 6585 H 623.978 -0.406414 3.86368 0
M  V30 6586 H 625.65 2.19618 4.05667 0
M  V30 6587 H 623.893 2.12603 3.7813 0
M  V30 6588 H 624.564 1.53183 5.3032 0
M  V30 6589 H 627.04 -0.0199841 4.16095 0
M  V30 6590 H 625.916 -0.470394 5.46881 0
M  V30 6591 H 626.177 -1.57726 4.13007 0
M  V30 6592 N 625.236 -1.5273 0.388769 0
M  V30 6593 C 626.184 -2.27975 -0.461527 0
M  V30 6594 C 627.178 -1.31854 -1.06352 0
M  V30 6595 O 628.384 -1.49394 -1.00406 0
M  V30 6596 H 624.759 -0.733088 -0.16759 0
M  V30 6597 H 626.73 -2.97765 0.194579 0
M  V30 6598 C 625.479 -3.09881 -1.577 0
M  V30 6599 H 624.802 -3.83701 -1.12309 0
M  V30 6600 H 626.242 -3.6567 -2.14619 0
M  V30 6601 C 624.701 -2.22159 -2.53272 0
M  V30 6602 O 625.231 -1.84802 -3.56667 0
M  V30 6603 N 623.437 -1.8633 -2.23001 0
M  V30 6604 H 622.984 -2.16909 -1.38954 0
M  V30 6605 H 622.942 -1.27927 -2.87197 0
M  V30 6606 N 626.714 -0.118576 -1.57153 0
M  V30 6607 C 627.677 0.817464 -2.14127 0
M  V30 6608 C 628.677 1.1949 -1.07604 0
M  V30 6609 O 629.867 1.12048 -1.33382 0
M  V30 6610 C 626.999 2.10541 -2.68115 0
M  V30 6611 H 628.192 0.322339 -2.98163 0
M  V30 6612 H 625.745 0.130655 -1.55753 0
M  V30 6613 H 626.48 2.64485 -1.87665 0
M  V30 6614 H 626.265 1.84425 -3.4602 0
M  V30 6615 H 627.755 2.77453 -3.12105 0
M  V30 6616 N 628.193 1.56834 0.155195 0
M  V30 6617 C 629.103 2.009 1.21146 0
M  V30 6618 C 630.119 0.923029 1.475 0
M  V30 6619 O 631.295 1.23189 1.59331 0
M  V30 6620 C 628.36 2.37378 2.52691 0
M  V30 6621 C 627.421 3.59883 2.34057 0
M  V30 6622 C 626.654 3.94612 3.59329 0
M  V30 6623 O 626.877 3.30104 4.65175 0
M  V30 6624 O 625.811 4.87895 3.52479 0
M  V30 6625 H 629.637 2.9105 0.867371 0
M  V30 6626 H 627.222 1.44916 0.363298 0
M  V30 6627 H 629.104 2.61737 3.3026 0
M  V30 6628 H 627.779 1.50385 2.86646 0
M  V30 6629 H 626.686 3.40722 1.54465 0
M  V30 6630 H 628.019 4.47468 2.0502 0
M  V30 6631 N 629.671 -0.424282 1.51781 0
M  V30 6632 C 630.601 -1.52305 1.7699 0
M  V30 6633 C 631.582 -1.5839 0.620209 0
M  V30 6634 O 632.767 -1.73908 0.864268 0
M  V30 6635 C 629.897 -2.90271 1.90683 0
M  V30 6636 C 628.851 -2.99043 3.06198 0
M  V30 6637 C 628.177 -4.39116 3.05092 0
M  V30 6638 C 629.477 -2.7192 4.45934 0
M  V30 6639 H 631.171 -1.31461 2.68995 0
M  V30 6640 H 628.717 -0.630985 1.29439 0
M  V30 6641 H 630.67 -3.6711 2.06901 0
M  V30 6642 H 629.394 -3.12376 0.953365 0
M  V30 6643 H 628.053 -2.24646 2.89706 0
M  V30 6644 H 627.701 -4.58207 2.07498 0
M  V30 6645 H 627.401 -4.45912 3.82669 0
M  V30 6646 H 628.925 -5.17911 3.2342 0
M  V30 6647 H 630.339 -3.38487 4.62709 0
M  V30 6648 H 628.736 -2.90111 5.25315 0
M  V30 6649 H 629.806 -1.67445 4.55072 0
M  V30 6650 N 631.149 -1.42148 -0.680565 0
M  V30 6651 C 632.081 -1.41119 -1.80605 0
M  V30 6652 C 633.094 -0.311099 -1.598 0
M  V30 6653 O 634.283 -0.573813 -1.69026 0
M  V30 6654 C 631.383 -1.18204 -3.17618 0
M  V30 6655 C 630.556 -2.40537 -3.65322 0
M  V30 6656 C 629.615 -2.13254 -4.8105 0
M  V30 6657 O 628.641 -2.8641 -4.91892 0
M  V30 6658 N 629.843 -1.13208 -5.69354 0
M  V30 6659 H 632.608 -2.38128 -1.81975 0
M  V30 6660 H 630.169 -1.36953 -0.863446 0
M  V30 6661 H 632.161 -0.97878 -3.92686 0
M  V30 6662 H 630.731 -0.29738 -3.11182 0
M  V30 6663 H 629.951 -2.76468 -2.80996 0
M  V30 6664 H 631.239 -3.22012 -3.93936 0
M  V30 6665 H 630.637 -0.526893 -5.63241 0
M  V30 6666 H 629.194 -0.988699 -6.44258 0
M  V30 6667 N 632.627 0.916307 -1.28225 0
M  V30 6668 C 633.59 1.99996 -1.11957 0
M  V30 6669 C 634.59 1.60688 -0.0600152 0
M  V30 6670 O 635.78 1.71499 -0.30558 0
M  V30 6671 C 632.912 3.33458 -0.708411 0
M  V30 6672 H 634.105 2.15858 -2.08196 0
M  V30 6673 H 631.658 1.09863 -1.11175 0
M  V30 6674 H 632.393 3.23297 0.254859 0
M  V30 6675 H 632.178 3.63349 -1.47377 0
M  V30 6676 H 633.668 4.13014 -0.617164 0
M  V30 6677 N 634.105 1.10431 1.1244 0
M  V30 6678 C 635.521 0.836096 1.35947 0
M  V30 6679 C 635.721 -0.544475 1.94004 0
M  V30 6680 O 634.777 -1.29735 2.16622 0
M  V30 6681 C 636.09 1.93575 2.30107 0
M  V30 6682 C 637.638 1.9642 2.43697 0
M  V30 6683 C 638.113 3.05559 3.41171 0
M  V30 6684 N 639.604 3.04865 3.48728 0
M  V30 6685 C 640.339 3.85954 4.24061 0
M  V30 6686 N 639.835 4.76977 5.02458 0
M  V30 6687 N 641.628 3.74172 4.19466 0
M  V30 6688 H 633.779 1.9942 0.731124 0
M  V30 6689 H 636.042 0.866607 0.384312 0
M  V30 6690 H 635.748 2.92943 1.94621 0
M  V30 6691 H 635.622 1.8229 3.30227 0
M  V30 6692 H 638.009 0.97685 2.78463 0
M  V30 6693 H 638.09 2.11782 1.43465 0
M  V30 6694 H 637.734 4.04513 3.07135 0
M  V30 6695 H 637.664 2.87438 4.41234 0
M  V30 6696 H 640.155 2.38908 2.92799 0
M  V30 6697 H 640.468 5.35409 5.57277 0
M  V30 6698 H 638.813 4.81006 5.01655 0
M  V30 6699 H 642.004 3.02412 3.57302 0
M  V30 6700 H 642.177 4.37602 4.77921 0
M  V30 6701 N 635.583 -1.29855 0.893053 0
M  V30 6702 C 636.808 -2.00512 0.530066 0
M  V30 6703 C 637.233 -1.66446 -0.876199 0
M  V30 6704 O 636.591 -0.885446 -1.58207 0
M  V30 6705 C 636.639 -3.53308 0.721505 0
M  V30 6706 O 635.743 -4.11764 -0.228994 0
M  V30 6707 H 635.084 -0.630617 0.207891 0
M  V30 6708 H 637.614 -1.6551 1.20282 0
M  V30 6709 H 637.624 -4.03206 0.623599 0
M  V30 6710 H 636.299 -3.77439 1.74678 0
M  V30 6711 H 634.876 -3.72805 -0.0841034 0
M  V30 6712 N 637.061 -0.65484 -1.43351 0
M  V30 6713 C 638.009 0.0476784 -2.32551 0
M  V30 6714 C 639.003 0.811403 -1.48703 0
M  V30 6715 O 640.209 0.721621 -1.64902 0
M  V30 6716 H 636.584 0.0342038 -0.751222 0
M  V30 6717 H 638.555 -0.722342 -2.89525 0
M  V30 6718 C 637.304 0.999251 -3.33032 0
M  V30 6719 H 636.627 0.421005 -3.97577 0
M  V30 6720 H 638.067 1.45986 -3.98076 0
M  V30 6721 C 636.526 2.09606 -2.63756 0
M  V30 6722 O 637.056 3.18004 -2.4543 0
M  V30 6723 N 635.262 1.86207 -2.23103 0
M  V30 6724 H 634.809 0.980555 -2.38208 0
M  V30 6725 H 634.767 2.59787 -1.77081 0
M  V30 6726 N 638.539 1.52521 -0.396863 0
M  V30 6727 C 639.788 2.00857 0.184184 0
M  V30 6728 C 640.101 1.28733 1.47265 0
M  V30 6729 O 641.307 1.67821 2.13421 0
M  V30 6730 C 639.763 3.57901 0.378787 0
M  V30 6731 C 639.371 4.38931 -0.896873 0
M  V30 6732 C 641.115 4.14504 0.915789 0
M  V30 6733 C 639.022 5.87591 -0.670133 0
M  V30 6734 H 637.952 0.750496 0.0726055 0
M  V30 6735 H 640.603 1.75965 -0.520425 0
M  V30 6736 H 638.985 3.79072 1.14543 0
M  V30 6737 H 640.159 4.29524 -1.66872 0
M  V30 6738 H 638.474 3.93586 -1.35938 0
M  V30 6739 H 641.071 5.23236 1.10126 0
M  V30 6740 H 641.414 3.71076 1.88701 0
M  V30 6741 H 641.947 3.97253 0.208523 0
M  V30 6742 H 638.686 6.35355 -1.61257 0
M  V30 6743 H 638.206 5.99767 0.0626368 0
M  V30 6744 H 639.885 6.46268 -0.307577 0
M  V30 6745 N 640.017 0.126909 1.57088 0
M  V30 6746 C 641.263 -0.523662 1.96543 0
M  V30 6747 C 641.618 -1.63783 1.0096 0
M  V30 6748 O 640.911 -1.91556 0.0410175 0
M  V30 6749 C 641.105 -1.095 3.40212 0
M  V30 6750 C 640.934 -0.037715 4.49684 0
M  V30 6751 C 639.704 0.396823 5.03739 0
M  V30 6752 C 641.902 0.746245 5.08857 0
M  V30 6753 N 639.884 1.43905 5.96795 0
M  V30 6754 C 641.255 1.63947 5.97931 0
M  V30 6755 C 643.31 0.796259 4.91492 0
M  V30 6756 C 642.013 2.57837 6.715 0
M  V30 6757 C 644.039 1.7229 5.65747 0
M  V30 6758 C 643.401 2.60369 6.54513 0
M  V30 6759 H 639.5 -0.161016 0.765244 0
M  V30 6760 H 642.084 0.21686 1.93489 0
M  V30 6761 H 640.255 -1.80521 3.43899 0
M  V30 6762 H 641.987 -1.71054 3.66773 0
M  V30 6763 H 638.742 0.00290406 4.736 0
M  V30 6764 H 639.166 1.95932 6.48027 0
M  V30 6765 H 643.808 0.129412 4.22602 0
M  V30 6766 H 641.526 3.25532 7.39631 0
M  V30 6767 H 645.112 1.76715 5.54313 0
M  V30 6768 H 643.992 3.30906 7.10965 0
M  V30 6769 N 641.495 -1.56914 -0.146875 0
M  V30 6770 C 642.741 -1.83628 -0.860741 0
M  V30 6771 C 643.074 -0.708528 -1.80813 0
M  V30 6772 O 642.349 0.287838 -1.92358 0
M  V30 6773 C 642.632 -3.20836 -1.63511 0
M  V30 6774 C 642.485 -4.44174 -0.709199 0
M  V30 6775 C 643.804 -3.55268 -2.59756 0
M  V30 6776 H 640.923 -0.667949 -0.311468 0
M  V30 6777 H 643.565 -1.89582 -0.125936 0
M  V30 6778 H 641.715 -3.15891 -2.26153 0
M  V30 6779 H 643.387 -4.61205 -0.0937781 0
M  V30 6780 H 641.63 -4.33796 -0.0187856 0
M  V30 6781 H 642.301 -5.36785 -1.28707 0
M  V30 6782 H 644.777 -3.60824 -2.07232 0
M  V30 6783 H 643.653 -4.52303 -3.10987 0
M  V30 6784 H 643.914 -2.81231 -3.41118 0
M  V30 6785 N 642.974 0.416227 -1.52004 0
M  V30 6786 C 643.937 1.48926 -1.74223 0
M  V30 6787 C 644.937 1.48693 -0.612119 0
M  V30 6788 O 646.127 1.50343 -0.879921 0
M  V30 6789 C 643.259 2.88372 -1.81809 0
M  V30 6790 H 644.452 1.3052 -2.70008 0
M  V30 6791 H 642.005 0.646271 -1.42313 0
M  V30 6792 H 642.74 3.12157 -0.879135 0
M  V30 6793 H 642.525 2.89944 -2.6396 0
M  V30 6794 H 644.015 3.66173 -2.00766 0
M  V30 6795 N 644.452 1.42507 0.673017 0
M  V30 6796 C 645.7 1.42789 1.43023 0
M  V30 6797 C 646.021 0.0459738 1.94946 0
M  V30 6798 O 645.291 -0.915765 1.73178 0
M  V30 6799 H 643.871 0.525657 0.530748 0
M  V30 6800 H 646.533 1.77944 0.795113 0
M  V30 6801 H 645.629 2.12872 2.28237 0
M  V30 6802 N 645.93 -0.909495 1.28709 0
M  V30 6803 C 647.207 -1.63865 1.06806 0
M  V30 6804 C 647.587 -2.07445 -0.391143 0
M  V30 6805 O 646.935 -1.82269 -1.37805 0
M  V30 6806 C 647.145 -2.82692 2.04661 0
M  V30 6807 C 648.493 -3.5361 2.35042 0
M  V30 6808 O 649.517 -2.92847 2.02779 0
M  V30 6809 O 648.376 -4.63131 2.90124 0
M  V30 6810 H 645.47 -0.719065 0.408502 0
M  V30 6811 H 648.016 -0.958424 1.40044 0
M  V30 6812 H 646.788 -2.47614 3.0299 0
M  V30 6813 H 646.411 -3.58426 1.72095 0
M  V30 6814 N 647.408 -1.11026 -1.11852 0
M  V30 6815 C 648.371 -0.768006 -2.1595 0
M  V30 6816 C 649.371 0.210538 -1.59416 0
M  V30 6817 O 650.561 -0.0133978 -1.74195 0
M  V30 6818 C 647.693 -0.138678 -3.40618 0
M  V30 6819 H 648.886 -1.69012 -2.4774 0
M  V30 6820 H 646.439 -0.911578 -1.26964 0
M  V30 6821 H 647.174 0.793872 -3.14433 0
M  V30 6822 H 646.959 -0.843012 -3.8293 0
M  V30 6823 H 648.449 0.0848039 -4.17514 0
M  V30 6824 N 648.886 1.2938 -0.899927 0
M  V30 6825 C 649.849 2.25983 -0.382677 0
M  V30 6826 C 650.849 1.53366 0.483259 0
M  V30 6827 O 652.039 1.71798 0.28828 0
M  V30 6828 C 649.171 3.37878 0.452915 0
M  V30 6829 H 650.364 2.73252 -1.23586 0
M  V30 6830 H 647.917 1.40825 -0.678088 0
M  V30 6831 H 648.652 2.95949 1.32608 0
M  V30 6832 H 648.437 3.91742 -0.167562 0
M  V30 6833 H 649.927 4.09746 0.806107 0
M  V30 6834 N 650.364 0.662433 1.43002 0
M  V30 6835 C 651.604 0.183312 2.03576 0
M  V30 6836 C 651.968 -1.18354 1.51183 0
M  V30 6837 O 653.169 -1.7566 2.03462 0
M  V30 6838 C 651.44 0.202908 3.56824 0
M  V30 6839 S 652.999 -0.20702 4.38311 0
M  V30 6840 H 649.817 0.0765001 0.706872 0
M  V30 6841 H 652.419 0.872827 1.74934 0
M  V30 6842 H 651.123 1.20028 3.92456 0
M  V30 6843 H 650.654 -0.506845 3.90121 0
M  V30 6844 H 652.669 -1.44358 4.74737 0
M  V30 6845 N 651.842 -1.52309 0.404946 0
M  V30 6846 C 653.089 -2.01767 -0.1722 0
M  V30 6847 C 653.417 -1.29075 -1.45498 0
M  V30 6848 O 652.672 -0.3843 -1.9189 0
M  V30 6849 C 652.971 -3.54284 -0.470895 0
M  V30 6850 C 652.637 -4.45079 0.722194 0
M  V30 6851 C 651.299 -4.69617 1.04946 0
M  V30 6852 C 653.651 -4.98555 1.51962 0
M  V30 6853 C 650.979 -5.44878 2.17543 0
M  V30 6854 C 653.331 -5.75049 2.63632 0
M  V30 6855 C 651.995 -5.9786 2.9685 0
M  V30 6856 H 651.265 -0.738316 -0.0630125 0
M  V30 6857 H 653.912 -1.83566 0.545506 0
M  V30 6858 H 652.217 -3.70642 -1.27012 0
M  V30 6859 H 653.914 -3.90058 -0.930346 0
M  V30 6860 H 650.504 -4.26155 0.457131 0
M  V30 6861 H 654.688 -4.79509 1.28002 0
M  V30 6862 H 649.944 -5.60762 2.43631 0
M  V30 6863 H 654.118 -6.15483 3.25813 0
M  V30 6864 H 651.745 -6.5596 3.84215 0
M  V30 6865 N 653.32 -0.135238 -1.57019 0
M  V30 6866 C 654.55 0.525303 -1.9981 0
M  V30 6867 C 654.958 1.59724 -1.01415 0
M  V30 6868 O 654.301 1.837 -0.00130938 0
M  V30 6869 C 654.363 1.19578 -3.3903 0
M  V30 6870 C 654.027 0.269855 -4.56203 0
M  V30 6871 C 655.024 -0.497905 -5.1751 0
M  V30 6872 C 652.709 0.176188 -5.01991 0
M  V30 6873 C 654.703 -1.3469 -6.23007 0
M  V30 6874 C 652.39 -0.676422 -6.07345 0
M  V30 6875 C 653.388 -1.43658 -6.67721 0
M  V30 6876 O 653.076 -2.27501 -7.71037 0
M  V30 6877 H 652.808 0.142296 -0.660854 0
M  V30 6878 H 655.362 -0.223272 -2.04183 0
M  V30 6879 H 653.592 1.99176 -3.3146 0
M  V30 6880 H 655.281 1.75486 -3.66005 0
M  V30 6881 H 656.047 -0.435507 -4.83041 0
M  V30 6882 H 651.926 0.757583 -4.54733 0
M  V30 6883 H 655.47 -1.9407 -6.70062 0
M  V30 6884 H 651.367 -0.740154 -6.41243 0
M  V30 6885 H 652.135 -2.20619 -7.88206 0
M  V30 6886 N 654.798 1.5699 0.138552 0
M  V30 6887 C 656.075 1.74741 0.87891 0
M  V30 6888 C 656.455 0.705522 1.98961 0
M  V30 6889 O 655.803 -0.274066 2.2685 0
M  V30 6890 C 656.013 3.1909 1.4136 0
M  V30 6891 C 657.361 3.81023 1.87368 0
M  V30 6892 O 658.385 3.22571 1.51084 0
M  V30 6893 O 657.244 4.83722 2.54312 0
M  V30 6894 H 654.338 0.714781 0.415953 0
M  V30 6895 H 656.884 1.69248 0.123817 0
M  V30 6896 H 655.656 3.86424 0.61579 0
M  V30 6897 H 655.279 3.29043 2.23196 0
M  V30 6898 N 656.276 -0.40816 1.52223 0
M  V30 6899 C 657.525 -1.15212 1.65557 0
M  V30 6900 C 657.838 -1.9163 0.392096 0
M  V30 6901 O 659.044 -2.68458 0.405256 0
M  V30 6902 C 657.5 -2.09691 2.92502 0
M  V30 6903 C 657.108 -1.38785 4.25961 0
M  V30 6904 C 658.852 -2.8434 3.152 0
M  V30 6905 C 656.759 -2.31919 5.44029 0
M  V30 6906 H 655.689 -0.433776 0.616729 0
M  V30 6907 H 658.34 -0.4165 1.78711 0
M  V30 6908 H 656.722 -2.8681 2.7305 0
M  V30 6909 H 657.896 -0.670248 4.55899 0
M  V30 6910 H 656.211 -0.761741 4.09373 0
M  V30 6911 H 658.808 -3.54166 4.00587 0
M  V30 6912 H 659.151 -3.47344 2.29473 0
M  V30 6913 H 659.684 -2.14321 3.35129 0
M  V30 6914 H 656.423 -1.7356 6.32105 0
M  V30 6915 H 655.943 -3.0165 5.18428 0
M  V30 6916 H 657.622 -2.92424 5.77146 0
M  V30 6917 N 657.755 -1.42862 -0.66545 0
M  V30 6918 C 658.702 -1.4707 -1.77874 0
M  V30 6919 C 659.672 -0.321654 -1.62956 0
M  V30 6920 O 660.857 -0.52707 -1.83376 0
M  V30 6921 C 657.997 -1.38788 -3.15962 0
M  V30 6922 C 657.11 -2.63801 -3.42101 0
M  V30 6923 C 656.245 -2.47594 -4.69969 0
M  V30 6924 C 655.284 -3.67936 -4.89172 0
M  V30 6925 N 654.421 -3.50614 -6.08288 0
M  V30 6926 H 659.261 -2.42204 -1.73613 0
M  V30 6927 H 656.798 -1.20239 -0.847401 0
M  V30 6928 H 658.756 -1.31982 -3.95773 0
M  V30 6929 H 657.386 -0.472431 -3.19324 0
M  V30 6930 H 656.438 -2.80935 -2.56475 0
M  V30 6931 H 657.75 -3.53228 -3.52181 0
M  V30 6932 H 656.904 -2.38427 -5.57886 0
M  V30 6933 H 655.643 -1.55672 -4.62188 0
M  V30 6934 H 654.648 -3.77525 -3.99694 0
M  V30 6935 H 655.873 -4.60851 -4.98792 0
M  V30 6936 H 653.819 -2.61417 -6.01662 0
M  V30 6937 H 653.736 -4.33634 -6.19272 0
M  V30 6938 H 655.004 -3.45276 -6.98859 0
M  V30 6939 N 659.233 0.902656 -1.29189 0
M  V30 6940 C 660.163 2.02294 -1.16616 0
M  V30 6941 C 661.144 1.6999 -0.0611175 0
M  V30 6942 O 662.329 1.9271 -0.240072 0
M  V30 6943 C 659.459 3.37018 -0.83882 0
M  V30 6944 C 658.413 3.83522 -1.89986 0
M  V30 6945 C 657.739 5.15337 -1.42589 0
M  V30 6946 C 659.039 4.04169 -3.30824 0
M  V30 6947 H 660.733 2.13071 -2.10336 0
M  V30 6948 H 658.279 1.02378 -1.01266 0
M  V30 6949 H 660.232 4.14895 -0.737584 0
M  V30 6950 H 658.956 3.26325 0.134071 0
M  V30 6951 H 657.615 3.07859 -1.99043 0
M  V30 6952 H 657.263 5.01056 -0.441759 0
M  V30 6953 H 656.963 5.47423 -2.13547 0
M  V30 6954 H 658.487 5.95758 -1.3381 0
M  V30 6955 H 659.901 4.72537 -3.24626 0
M  V30 6956 H 658.298 4.47604 -3.99713 0
M  V30 6957 H 659.368 3.08604 -3.74021 0
M  V30 6958 N 660.711 1.11618 1.11262 0
M  V30 6959 C 661.959 0.864469 1.82678 0
M  V30 6960 C 662.28 -0.611564 1.85162 0
M  V30 6961 O 661.55 -1.44429 1.32352 0
M  V30 6962 H 660.13 0.316821 0.676486 0
M  V30 6963 H 662.792 1.40894 1.34666 0
M  V30 6964 H 661.888 1.23832 2.86482 0
M  V30 6965 N 662.189 -1.289 0.906776 0
M  V30 6966 C 663.605 -1.47733 0.603902 0
M  V30 6967 C 663.805 -1.82568 -0.852702 0
M  V30 6968 O 662.861 -1.92642 -1.63234 0
M  V30 6969 C 664.174 -2.58522 1.53581 0
M  V30 6970 C 665.722 -2.72394 1.54177 0
M  V30 6971 C 666.197 -3.86318 2.46013 0
M  V30 6972 N 667.688 -3.93661 2.441 0
M  V30 6973 C 668.423 -4.81177 3.11859 0
M  V30 6974 N 667.919 -5.73333 3.88923 0
M  V30 6975 N 669.712 -4.74728 3.00981 0
M  V30 6976 H 661.863 -1.04567 1.84877 0
M  V30 6977 H 664.126 -0.520118 0.792579 0
M  V30 6978 H 663.832 -2.39667 2.57396 0
M  V30 6979 H 663.706 -3.55475 1.26165 0
M  V30 6980 H 666.093 -2.90641 0.511034 0
M  V30 6981 H 666.174 -1.75993 1.85634 0
M  V30 6982 H 665.818 -3.68826 3.49185 0
M  V30 6983 H 665.748 -4.82102 2.11862 0
M  V30 6984 H 668.239 -3.27751 1.88115 0
M  V30 6985 H 668.552 -6.36923 4.37663 0
M  V30 6986 H 666.897 -5.73196 3.93029 0
M  V30 6987 H 670.088 -4.01722 2.40286 0
M  V30 6988 H 670.261 -5.42719 3.54062 0
M  V30 6989 N 663.667 -0.670007 -1.42649 0
M  V30 6990 C 665.083 -0.33911 -1.55956 0
M  V30 6991 C 665.283 1.1558 -1.65056 0
M  V30 6992 O 664.339 1.94111 -1.61485 0
M  V30 6993 C 665.652 -1.06522 -2.812 0
M  V30 6994 C 667.2 -1.04708 -2.94966 0
M  V30 6995 C 667.675 -1.75442 -4.23065 0
M  V30 6996 N 669.166 -1.72286 -4.29967 0
M  V30 6997 C 669.901 -2.23877 -5.27889 0
M  V30 6998 N 669.397 -2.83829 -6.31991 0
M  V30 6999 N 671.19 -2.14279 -5.19654 0
M  V30 7000 H 663.341 -1.6399 -1.34986 0
M  V30 7001 H 665.604 -0.690603 -0.649439 0
M  V30 7002 H 665.31 -2.12033 -2.80597 0
M  V30 7003 H 665.184 -0.627398 -3.71946 0
M  V30 7004 H 667.571 -0.000315966 -2.951 0
M  V30 7005 H 667.652 -1.52374 -2.05465 0
M  V30 7006 H 667.296 -2.80084 -4.23693 0
M  V30 7007 H 667.226 -1.25229 -5.11493 0
M  V30 7008 H 669.717 -1.28554 -3.55362 0
M  V30 7009 H 670.03 -3.20827 -7.03057 0
M  V30 7010 H 668.375 -2.87896 -6.32567 0
M  V30 7011 H 671.566 -1.67135 -4.37245 0
M  V30 7012 H 671.739 -2.54792 -5.95806 0
M  V30 7013 N 665.145 1.52092 -0.413018 0
M  V30 7014 C 666.561 1.59471 -0.0640836 0
M  V30 7015 C 666.761 1.42562 1.42402 0
M  V30 7016 O 665.817 1.25453 2.19129 0
M  V30 7017 C 667.13 2.95392 -0.562474 0
M  V30 7018 C 668.678 3.08637 -0.520788 0
M  V30 7019 C 669.153 4.47044 -0.995752 0
M  V30 7020 N 670.644 4.53296 -0.952732 0
M  V30 7021 C 671.379 5.58669 -1.29138 0
M  V30 7022 N 670.875 6.71576 -1.70168 0
M  V30 7023 N 672.668 5.48898 -1.2111 0
M  V30 7024 H 664.819 1.6133 -1.38153 0
M  V30 7025 H 667.082 0.75916 -0.567785 0
M  V30 7026 H 666.788 3.13059 -1.60271 0
M  V30 7027 H 666.662 3.77191 0.0257875 0
M  V30 7028 H 669.049 2.90652 0.510412 0
M  V30 7029 H 669.13 2.28735 -1.14515 0
M  V30 7030 H 668.774 4.65773 -2.0253 0
M  V30 7031 H 668.704 5.25448 -0.348162 0
M  V30 7032 H 671.195 3.72248 -0.651119 0
M  V30 7033 H 671.508 7.47973 -1.9431 0
M  V30 7034 H 669.853 6.72847 -1.74075 0
M  V30 7035 H 673.044 4.59573 -0.889396 0
M  V30 7036 H 673.217 6.30912 -1.47833 0
M  V30 7037 N 666.623 0.143563 1.56945 0
M  V30 7038 C 667.869 -0.50916 1.96304 0
M  V30 7039 C 668.202 -1.64741 1.0283 0
M  V30 7040 O 667.477 -1.94374 0.0700361 0
M  V30 7041 C 667.76 -1.0186 3.45393 0
M  V30 7042 C 667.613 0.117923 4.49645 0
M  V30 7043 C 668.932 -1.90151 3.96901 0
M  V30 7044 H 666.051 -0.183608 0.713763 0
M  V30 7045 H 668.693 0.224095 1.88674 0
M  V30 7046 H 666.843 -1.64345 3.52027 0
M  V30 7047 H 668.515 0.754145 4.55094 0
M  V30 7048 H 666.758 0.777568 4.26774 0
M  V30 7049 H 667.429 -0.280187 5.51288 0
M  V30 7050 H 669.905 -1.375 3.92725 0
M  V30 7051 H 668.781 -2.22707 5.0169 0
M  V30 7052 H 669.042 -2.83718 3.39052 0
M  V30 7053 N 668.101 -1.57061 -0.130224 0
M  V30 7054 C 669.011 -2.02802 -1.17934 0
M  V30 7055 C 670.027 -0.946378 -1.46013 0
M  V30 7056 O 671.203 -1.25708 -1.57351 0
M  V30 7057 C 668.268 -2.41368 -2.48882 0
M  V30 7058 C 667.329 -3.63561 -2.28301 0
M  V30 7059 C 666.562 -4.00279 -3.53005 0
M  V30 7060 O 666.785 -3.37463 -4.59864 0
M  V30 7061 O 665.719 -4.93441 -3.44673 0
M  V30 7062 H 669.545 -2.92394 -0.820958 0
M  V30 7063 H 667.13 -1.45475 -0.340197 0
M  V30 7064 H 669.012 -2.66958 -3.26054 0
M  V30 7065 H 667.687 -1.54926 -2.84217 0
M  V30 7066 H 666.594 -3.43136 -1.49025 0
M  V30 7067 H 667.927 -4.50673 -1.97875 0
M  V30 7068 N 669.579 0.400081 -1.52437 0
M  V30 7069 C 670.529 1.48734 -1.72807 0
M  V30 7070 C 671.513 1.50004 -0.582032 0
M  V30 7071 O 672.705 1.55828 -0.839449 0
M  V30 7072 C 669.834 2.86568 -1.89034 0
M  V30 7073 C 668.92 2.8991 -3.09537 0
M  V30 7074 N 669.311 2.62937 -4.32086 0
M  V30 7075 C 667.609 3.21078 -3.09556 0
M  V30 7076 C 668.31 2.73079 -5.13617 0
M  V30 7077 N 667.286 3.06342 -4.49061 0
M  V30 7078 H 671.088 1.26689 -2.65193 0
M  V30 7079 H 668.602 0.607902 -1.50593 0
M  V30 7080 H 670.599 3.64834 -2.01746 0
M  V30 7081 H 669.259 3.09604 -0.978547 0
M  V30 7082 H 670.27 2.37163 -4.60406 0
M  V30 7083 H 666.947 3.49651 -2.28146 0
M  V30 7084 H 668.337 2.55863 -6.21276 0
M  V30 7085 N 671.057 1.43213 0.657864 0
M  V30 7086 C 672.007 1.44459 1.76396 0
M  V30 7087 C 672.991 0.313641 1.57814 0
M  V30 7088 O 674.183 0.557094 1.68004 0
M  V30 7089 C 671.312 1.36586 3.14959 0
M  V30 7090 C 670.398 2.54692 3.39106 0
M  V30 7091 N 670.789 3.80059 3.33749 0
M  V30 7092 C 669.087 2.49316 3.69807 0
M  V30 7093 C 669.788 4.58606 3.57849 0
M  V30 7094 N 668.764 3.89267 3.79437 0
M  V30 7095 H 672.566 2.39265 1.70673 0
M  V30 7096 H 670.08 1.378 0.859357 0
M  V30 7097 H 672.077 1.35561 3.94245 0
M  V30 7098 H 670.737 0.427956 3.21867 0
M  V30 7099 H 671.748 4.12414 3.13266 0
M  V30 7100 H 668.425 1.6419 3.83859 0
M  V30 7101 H 669.815 5.67619 3.59525 0
M  V30 7102 N 672.536 -0.895792 1.29666 0
M  V30 7103 C 673.813 -1.62723 1.08538 0
M  V30 7104 C 674.193 -2.07848 -0.369119 0
M  V30 7105 O 673.541 -1.8372 -1.35864 0
M  V30 7106 C 673.751 -2.80505 2.07648 0
M  V30 7107 C 675.099 -3.51098 2.3878 0
M  V30 7108 O 676.123 -2.90679 2.05874 0
M  V30 7109 O 674.982 -4.60028 2.9502 0
M  V30 7110 H 672.076 -0.714692 0.416106 0
M  V30 7111 H 674.622 -0.943517 1.41053 0
M  V30 7112 H 673.394 -2.44386 3.05599 0
M  V30 7113 H 673.017 -3.5658 1.75887 0
M  V30 7114 N 674.014 -1.12206 -1.10668 0
M  V30 7115 C 674.964 -0.75669 -2.15077 0
M  V30 7116 C 675.948 0.243154 -1.59052 0
M  V30 7117 O 677.14 0.0490268 -1.76932 0
M  V30 7118 C 674.269 -0.210303 -3.42655 0
M  V30 7119 C 673.355 -1.23829 -4.05619 0
M  V30 7120 N 673.746 -2.43513 -4.43323 0
M  V30 7121 C 672.044 -1.08309 -4.32649 0
M  V30 7122 C 672.745 -3.09138 -4.92756 0
M  V30 7123 N 671.721 -2.36593 -4.89413 0
M  V30 7124 H 675.523 -1.66747 -2.42018 0
M  V30 7125 H 673.037 -1.00248 -1.27765 0
M  V30 7126 H 675.034 0.0696287 -4.16842 0
M  V30 7127 H 673.694 0.694967 -3.17176 0
M  V30 7128 H 674.705 -2.80912 -4.35097 0
M  V30 7129 H 671.382 -0.234919 -4.16839 0
M  V30 7130 H 672.772 -4.11049 -5.31496 0
M  V30 7131 N 675.492 1.28418 -0.913599 0
M  V30 7132 C 676.455 2.25564 -0.406624 0
M  V30 7133 C 677.455 1.5387 0.466965 0
M  V30 7134 O 678.645 1.72094 0.270042 0
M  V30 7135 C 675.777 3.38339 0.417053 0
M  V30 7136 H 676.97 2.71926 -1.26477 0
M  V30 7137 H 674.523 1.40098 -0.692986 0
M  V30 7138 H 675.258 2.97339 1.29461 0
M  V30 7139 H 675.043 3.91542 -0.209102 0
M  V30 7140 H 676.533 4.10578 0.762602 0
M  V30 7141 N 676.97 0.677563 1.42291 0
M  V30 7142 C 678.216 0.201272 2.01799 0
M  V30 7143 C 678.549 -1.19004 1.53465 0
M  V30 7144 O 677.824 -1.79953 0.738039 0
M  V30 7145 C 678.107 0.238968 3.59306 0
M  V30 7146 C 677.96 1.66594 4.17812 0
M  V30 7147 C 679.279 -0.411287 4.38174 0
M  V30 7148 H 676.398 0.0746114 0.733214 0
M  V30 7149 H 679.04 0.862872 1.69276 0
M  V30 7150 H 677.19 -0.324368 3.87144 0
M  V30 7151 H 678.862 2.28173 4.00917 0
M  V30 7152 H 677.105 2.20576 3.73536 0
M  V30 7153 H 677.776 1.64398 5.26951 0
M  V30 7154 H 680.252 0.0682804 4.16044 0
M  V30 7155 H 679.128 -0.354286 5.47755 0
M  V30 7156 H 679.389 -1.4893 4.1626 0
M  V30 7157 N 678.448 -1.51871 0.421078 0
M  V30 7158 C 679.694 -2.02237 -0.151014 0
M  V30 7159 C 680.027 -1.30554 -1.43768 0
M  V30 7160 O 679.302 -0.41546 -1.90011 0
M  V30 7161 C 679.585 -3.5802 -0.386482 0
M  V30 7162 C 679.438 -4.40339 0.9177 0
M  V30 7163 C 680.757 -4.24444 -1.16342 0
M  V30 7164 H 677.876 -0.735062 -0.0534102 0
M  V30 7165 H 680.518 -1.81656 0.556888 0
M  V30 7166 H 678.668 -3.75688 -0.989494 0
M  V30 7167 H 680.34 -4.34357 1.55344 0
M  V30 7168 H 678.583 -4.06073 1.526 0
M  V30 7169 H 679.254 -5.47451 0.707187 0
M  V30 7170 H 681.73 -4.10948 -0.652788 0
M  V30 7171 H 680.606 -5.33358 -1.29693 0
M  V30 7172 H 680.867 -3.84204 -2.18724 0
M  V30 7173 N 679.926 -0.151884 -1.56866 0
M  V30 7174 C 681.151 0.508044 -2.01081 0
M  V30 7175 C 681.576 1.57306 -1.03134 0
M  V30 7176 O 680.934 1.81298 -0.0078309 0
M  V30 7177 C 680.982 1.08106 -3.44014 0
M  V30 7178 O 680.086 2.19577 -3.49084 0
M  V30 7179 H 679.427 0.123757 -0.652365 0
M  V30 7180 H 681.957 -0.250055 -2.03066 0
M  V30 7181 H 681.967 1.40851 -3.82916 0
M  V30 7182 H 680.642 0.301168 -4.14808 0
M  V30 7183 H 679.219 1.88023 -3.22027 0
M  V30 7184 N 681.404 1.57128 0.121893 0
M  V30 7185 C 682.652 1.84335 0.828548 0
M  V30 7186 C 682.973 0.736632 1.80551 0
M  V30 7187 O 682.243 -0.23962 1.94429 0
M  V30 7188 H 680.823 0.680108 0.30897 0
M  V30 7189 H 683.485 1.9459 0.109906 0
M  V30 7190 H 682.581 2.80152 1.37554 0
M  V30 7191 N 682.882 -0.391992 1.52647 0
M  V30 7192 C 684.298 -0.731848 1.41831 0
M  V30 7193 C 684.498 -1.9423 0.536361 0
M  V30 7194 O 683.554 -2.52499 0.00866571 0
M  V30 7195 C 684.867 -0.969743 2.84634 0
M  V30 7196 C 686.415 -1.0714 2.94092 0
M  V30 7197 C 686.89 -1.34195 4.37899 0
M  V30 7198 N 688.381 -1.41023 4.41211 0
M  V30 7199 C 689.116 -1.63616 5.49561 0
M  V30 7200 N 688.612 -1.83699 6.68002 0
M  V30 7201 N 690.405 -1.65771 5.371 0
M  V30 7202 H 682.556 0.404547 2.08512 0
M  V30 7203 H 684.819 0.11879 0.940528 0
M  V30 7204 H 684.525 -0.152465 3.51369 0
M  V30 7205 H 684.399 -1.88523 3.26709 0
M  V30 7206 H 686.786 -1.87925 2.27526 0
M  V30 7207 H 686.867 -0.133887 2.55449 0
M  V30 7208 H 686.511 -0.539207 5.0503 0
M  V30 7209 H 686.441 -2.29226 4.74092 0
M  V30 7210 H 688.932 -1.27223 3.55841 0
M  V30 7211 H 689.245 -2.00437 7.46354 0
M  V30 7212 H 687.59 -1.8093 6.71036 0
M  V30 7213 H 690.781 -1.4963 4.43541 0
M  V30 7214 H 690.954 -1.83038 6.21612 0
M  V30 7215 N 684.36 -1.4356 -0.65026 0
M  V30 7216 C 685.29 -1.51758 -1.77459 0
M  V30 7217 C 686.271 -0.372019 -1.65982 0
M  V30 7218 O 687.456 -0.589627 -1.85033 0
M  V30 7219 C 684.586 -1.44302 -3.15902 0
M  V30 7220 C 683.54 -2.57138 -3.42146 0
M  V30 7221 C 682.866 -2.34735 -4.8042 0
M  V30 7222 C 684.166 -3.99373 -3.36598 0
M  V30 7223 H 685.86 -2.45863 -1.70855 0
M  V30 7224 H 683.406 -1.18333 -0.820566 0
M  V30 7225 H 685.359 -1.48641 -3.94314 0
M  V30 7226 H 684.083 -0.467026 -3.23244 0
M  V30 7227 H 682.742 -2.52157 -2.66106 0
M  V30 7228 H 682.39 -1.35372 -4.84441 0
M  V30 7229 H 682.09 -3.10375 -4.9894 0
M  V30 7230 H 683.614 -2.40862 -5.61086 0
M  V30 7231 H 685.028 -4.05826 -4.04942 0
M  V30 7232 H 683.425 -4.75063 -3.66654 0
M  V30 7233 H 684.495 -4.243 -2.34729 0
M  V30 7234 N 685.838 0.888903 -1.30139 0
M  V30 7235 C 686.801 1.97576 -1.16174 0
M  V30 7236 C 687.801 1.60525 -0.094086 0
M  V30 7237 O 688.991 1.70812 -0.341889 0
M  V30 7238 C 686.123 3.3188 -0.778983 0
M  V30 7239 H 687.316 2.11393 -2.12728 0
M  V30 7240 H 684.869 1.0748 -1.1348 0
M  V30 7241 H 685.604 3.23765 0.186225 0
M  V30 7242 H 685.389 3.60141 -1.55051 0
M  V30 7243 H 686.879 4.11612 -0.704631 0
M  V30 7244 N 687.317 1.12792 1.10072 0
M  V30 7245 C 688.565 0.883796 1.81751 0
M  V30 7246 C 688.886 -0.591891 1.858 0
M  V30 7247 O 688.156 -1.43017 1.33876 0
M  V30 7248 H 686.736 0.323978 0.673088 0
M  V30 7249 H 689.398 1.42314 1.33164 0
M  V30 7250 H 688.494 1.26863 2.85153 0
M  V30 7251 N 688.795 -1.27931 0.920396 0
M  V30 7252 C 689.705 -2.30824 0.419212 0
M  V30 7253 C 690.721 -1.66767 -0.496461 0
M  V30 7254 O 691.897 -1.97763 -0.38104 0
M  V30 7255 C 688.962 -3.45158 -0.326601 0
M  V30 7256 C 688.023 -4.24754 0.623098 0
M  V30 7257 C 687.256 -5.33629 -0.0872172 0
M  V30 7258 O 687.479 -5.55204 -1.30784 0
M  V30 7259 O 686.413 -5.99091 0.580875 0
M  V30 7260 H 690.239 -2.75716 1.27337 0
M  V30 7261 H 687.824 -1.32747 0.685465 0
M  V30 7262 H 689.706 -4.14716 -0.747559 0
M  V30 7263 H 688.381 -3.02336 -1.15648 0
M  V30 7264 H 687.288 -3.57759 1.09359 0
M  V30 7265 H 688.621 -4.71272 1.41998 0
M  V30 7266 N 690.273 -0.685099 -1.4193 0
M  V30 7267 C 691.221 -0.00165985 -2.326 0
M  V30 7268 C 692.215 0.779678 -1.50391 0
M  V30 7269 O 693.421 0.68648 -1.66395 0
M  V30 7270 H 689.796 0.0182616 -0.751778 0
M  V30 7271 H 691.767 -0.783592 -2.87928 0
M  V30 7272 C 690.516 0.928385 -3.35077 0
M  V30 7273 H 689.839 0.336578 -3.98381 0
M  V30 7274 H 691.279 1.37509 -4.01083 0
M  V30 7275 C 689.738 2.03964 -2.68142 0
M  V30 7276 O 690.268 3.12727 -2.5212 0
M  V30 7277 N 688.474 1.81433 -2.27003 0
M  V30 7278 H 688.021 0.929807 -2.40234 0
M  V30 7279 H 687.979 2.55973 -1.82552 0
M  V30 7280 N 691.751 1.51645 -0.429126 0
M  V30 7281 C 692.684 2.24083 0.431492 0
M  V30 7282 C 693.662 1.25691 1.03153 0
M  V30 7283 O 694.846 1.54802 1.07557 0
M  V30 7284 C 691.973 2.9849 1.60067 0
M  V30 7285 C 691.019 4.11474 1.12211 0
M  V30 7286 S 691.852 5.35453 0.0708449 0
M  V30 7287 C 693.008 6.13395 1.24488 0
M  V30 7288 H 693.241 2.96733 -0.183525 0
M  V30 7289 H 690.774 1.52916 -0.213574 0
M  V30 7290 H 692.732 3.4196 2.27099 0
M  V30 7291 H 691.393 2.25445 2.18708 0
M  V30 7292 H 690.586 4.62784 1.99618 0
M  V30 7293 H 690.188 3.70223 0.530149 0
M  V30 7294 H 692.48 6.41984 2.16479 0
M  V30 7295 H 693.423 7.0388 0.771921 0
M  V30 7296 H 693.831 5.44761 1.47973 0
M  V30 7297 N 693.229 0.160201 1.56784 0
M  V30 7298 C 694.457 -0.494165 2.00912 0
M  V30 7299 C 694.872 -1.57548 1.04038 0
M  V30 7300 O 694.229 -1.82457 0.0394581 0
M  V30 7301 C 694.28 -1.08271 3.44905 0
M  V30 7302 O 694.001 -0.0445704 4.38077 0
M  V30 7303 C 695.502 -1.8164 4.04378 0
M  V30 7304 H 692.722 -0.127498 0.658776 0
M  V30 7305 H 695.266 0.258665 2.02858 0
M  V30 7306 H 693.421 -1.78609 3.4377 0
M  V30 7307 H 693.835 -0.477544 5.22322 0
M  V30 7308 H 695.309 -2.18094 5.07089 0
M  V30 7309 H 695.786 -2.70727 3.45838 0
M  V30 7310 H 696.392 -1.15969 4.09184 0
M  V30 7311 N 694.707 -1.5719 -0.113559 0
M  V30 7312 C 695.955 -1.84772 -0.818761 0
M  V30 7313 C 696.276 -0.746196 -1.80158 0
M  V30 7314 O 695.546 0.229305 -1.94553 0
M  V30 7315 H 694.126 -0.681737 -0.305359 0
M  V30 7316 H 696.788 -1.94645 -0.0995845 0
M  V30 7317 H 695.884 -2.80878 -1.36067 0
M  V30 7318 N 696.185 0.383891 -1.52853 0
M  V30 7319 C 697.148 1.45197 -1.77343 0
M  V30 7320 C 698.148 1.47362 -0.643522 0
M  V30 7321 O 699.338 1.48443 -0.911613 0
M  V30 7322 C 696.47 2.8445 -1.87885 0
M  V30 7323 H 697.663 1.24764 -2.72716 0
M  V30 7324 H 695.216 0.615939 -1.43652 0
M  V30 7325 H 695.951 3.10222 -0.94515 0
M  V30 7326 H 695.736 2.8428 -2.70051 0
M  V30 7327 H 697.226 3.61832 -2.08488 0
M  V30 7328 N 697.663 1.43903 0.642637 0
M  V30 7329 C 698.626 1.49538 1.73698 0
M  V30 7330 C 699.626 0.378776 1.56275 0
M  V30 7331 O 700.816 0.64095 1.6198 0
M  V30 7332 C 697.948 1.35821 3.12675 0
M  V30 7333 H 699.141 2.47008 1.70079 0
M  V30 7334 H 696.694 1.30824 0.85526 0
M  V30 7335 H 697.429 0.393994 3.21898 0
M  V30 7336 H 697.214 2.16776 3.26727 0
M  V30 7337 H 698.704 1.4272 3.92455 0
M  V30 7338 N 699.141 -0.881989 1.30609 0
M  V30 7339 C 700.088 -1.98803 1.17244 0
M  V30 7340 C 701.058 -1.65987 0.0611905 0
M  V30 7341 O 702.243 -1.89385 0.231911 0
M  V30 7342 C 699.383 -3.33867 0.87333 0
M  V30 7343 C 698.496 -3.79354 2.06675 0
M  V30 7344 C 697.631 -5.03078 1.70547 0
M  V30 7345 C 696.67 -5.40981 2.86366 0
M  V30 7346 N 695.807 -6.55886 2.50514 0
M  V30 7347 H 700.647 -2.09566 2.11863 0
M  V30 7348 H 698.184 -1.02607 1.05405 0
M  V30 7349 H 700.142 -4.11612 0.680519 0
M  V30 7350 H 698.772 -3.2278 -0.0359983 0
M  V30 7351 H 697.824 -2.97492 2.37071 0
M  V30 7352 H 699.136 -4.03382 2.93401 0
M  V30 7353 H 698.29 -5.88457 1.47658 0
M  V30 7354 H 697.029 -4.80927 0.809947 0
M  V30 7355 H 696.034 -4.54127 3.09917 0
M  V30 7356 H 697.259 -5.65104 3.76609 0
M  V30 7357 H 695.205 -6.35306 1.63471 0
M  V30 7358 H 695.122 -6.79799 3.30771 0
M  V30 7359 H 696.39 -7.44489 2.30989 0
M  V30 7360 N 700.619 -1.13374 -1.09472 0
M  V30 7361 C 702.03 -0.90801 -1.63132 0
M  V30 7362 C 702.381 0.555576 -1.8817 0
M  V30 7363 O 701.506 1.42218 -1.63104 0
M  V30 7364 C 702.101 -1.64182 -2.96361 0
M  V30 7365 C 700.66 -1.46197 -3.46848 0
M  V30 7366 C 699.807 -1.67134 -2.21273 0
M  V30 7367 H 702.758 -1.2871 -0.928411 0
M  V30 7368 H 702.779 -1.09863 -3.64294 0
M  V30 7369 H 702.291 -2.707 -2.78106 0
M  V30 7370 H 700.392 -0.419788 -3.70228 0
M  V30 7371 H 700.505 -2.22472 -4.24315 0
M  V30 7372 H 698.869 -1.09616 -2.29905 0
M  V30 7373 H 699.652 -2.74971 -2.05538 0
M  V30 7374 N 702.098 1.27442 -0.927168 0
M  V30 7375 C 703.328 1.9821 -0.582775 0
M  V30 7376 C 703.736 1.69361 0.843406 0
M  V30 7377 O 703.079 0.950381 1.57205 0
M  V30 7378 C 703.141 3.52048 -0.728165 0
M  V30 7379 C 702.805 4.04518 -2.12637 0
M  V30 7380 C 703.802 4.17332 -3.10048 0
M  V30 7381 C 701.487 4.38879 -2.44317 0
M  V30 7382 C 703.481 4.6378 -4.37249 0
M  V30 7383 C 701.168 4.85018 -3.71753 0
M  V30 7384 C 702.166 4.97428 -4.68033 0
M  V30 7385 O 701.854 5.42556 -5.93202 0
M  V30 7386 H 701.586 0.639314 -0.219667 0
M  V30 7387 H 704.14 1.63272 -1.24626 0
M  V30 7388 H 702.37 3.86699 -0.00758143 0
M  V30 7389 H 704.059 4.04033 -0.388906 0
M  V30 7390 H 704.825 3.91046 -2.86894 0
M  V30 7391 H 700.704 4.28462 -1.70121 0
M  V30 7392 H 704.248 4.73382 -5.12402 0
M  V30 7393 H 700.145 5.10746 -3.94726 0
M  V30 7394 H 700.913 5.60811 -5.96182 0
M  V30 7395 N 703.576 0.692616 1.41565 0
M  V30 7396 C 704.822 0.231408 2.02079 0
M  V30 7397 C 705.177 -1.15514 1.53864 0
M  V30 7398 O 704.47 -1.76786 0.73873 0
M  V30 7399 C 704.664 0.225073 3.56691 0
M  V30 7400 C 704.493 1.60947 4.19912 0
M  V30 7401 C 703.263 2.2116 4.54331 0
M  V30 7402 C 705.461 2.55553 4.46315 0
M  V30 7403 N 703.443 3.52195 5.02824 0
M  V30 7404 C 704.814 3.71263 4.96552 0
M  V30 7405 C 706.869 2.53857 4.28323 0
M  V30 7406 C 705.572 4.85555 5.30687 0
M  V30 7407 C 707.598 3.67259 4.63546 0
M  V30 7408 C 706.96 4.81699 5.13951 0
M  V30 7409 H 703.059 0.130001 0.771119 0
M  V30 7410 H 705.643 0.909459 1.72154 0
M  V30 7411 H 703.814 -0.422453 3.86096 0
M  V30 7412 H 705.546 -0.250685 4.03923 0
M  V30 7413 H 702.301 1.73474 4.40685 0
M  V30 7414 H 702.725 4.19354 5.3148 0
M  V30 7415 H 707.367 1.66598 3.88594 0
M  V30 7416 H 705.085 5.73477 5.69341 0
M  V30 7417 H 708.671 3.67195 4.51286 0
M  V30 7418 H 707.551 5.67995 5.40695 0
M  V30 7419 N 705.054 -1.51416 0.437162 0
M  V30 7420 C 706.004 -2.24599 -0.392311 0
M  V30 7421 C 706.988 -1.2682 -0.990221 0
M  V30 7422 O 708.18 -1.51912 -0.908391 0
M  V30 7423 C 705.309 -3.09134 -1.49301 0
M  V30 7424 C 704.395 -4.14342 -0.904503 0
M  V30 7425 N 704.786 -5.0578 -0.0451511 0
M  V30 7426 C 703.084 -4.30323 -1.1721 0
M  V30 7427 C 703.785 -5.81 0.285344 0
M  V30 7428 N 702.761 -5.42591 -0.330993 0
M  V30 7429 H 706.563 -2.92655 0.270221 0
M  V30 7430 H 704.077 -1.60476 0.249226 0
M  V30 7431 H 706.074 -3.6014 -2.10011 0
M  V30 7432 H 704.734 -2.42622 -2.15788 0
M  V30 7433 H 705.745 -5.16903 0.321271 0
M  V30 7434 H 702.422 -3.75037 -1.83448 0
M  V30 7435 H 703.812 -6.64646 0.984626 0
M  V30 7436 N 706.532 -0.168513 -1.56696 0
M  V30 7437 C 707.464 0.794249 -2.14998 0
M  V30 7438 C 708.477 1.1957 -1.10485 0
M  V30 7439 O 709.666 1.13604 -1.37682 0
M  V30 7440 C 706.766 2.08018 -2.67547 0
M  V30 7441 C 705.939 1.84274 -3.96689 0
M  V30 7442 C 704.998 2.97059 -4.3433 0
M  V30 7443 O 704.024 2.67815 -5.02259 0
M  V30 7444 N 705.226 4.24775 -3.9566 0
M  V30 7445 H 707.991 0.295832 -2.98236 0
M  V30 7446 H 705.552 0.0143611 -1.61894 0
M  V30 7447 H 707.544 2.82559 -2.89729 0
M  V30 7448 H 706.114 2.49059 -1.88914 0
M  V30 7449 H 705.334 0.936528 -3.82914 0
M  V30 7450 H 706.622 1.65773 -4.81037 0
M  V30 7451 H 706.02 4.51395 -3.40968 0
M  V30 7452 H 704.577 4.96027 -4.22848 0
M  V30 7453 N 708.01 1.57248 0.105221 0
M  V30 7454 C 709.235 1.90143 0.828264 0
M  V30 7455 C 709.66 0.761811 1.71983 0
M  V30 7456 O 709.018 -0.287086 1.79013 0
M  V30 7457 C 709.066 3.21856 1.62608 0
M  V30 7458 O 708.17 3.08732 2.7342 0
M  V30 7459 H 707.511 0.623558 0.228192 0
M  V30 7460 H 710.041 2.0443 0.0834826 0
M  V30 7461 H 710.051 3.54916 2.01243 0
M  V30 7462 H 708.726 4.0439 0.971687 0
M  V30 7463 H 707.303 2.87167 2.37886 0
M  V30 7464 N 709.488 -0.375779 1.53054 0
M  V30 7465 C 710.421 -1.48187 1.7354 0
M  V30 7466 C 711.399 -1.5177 0.583495 0
M  V30 7467 O 712.583 -1.69976 0.81488 0
M  V30 7468 C 709.71 -2.86598 1.80497 0
M  V30 7469 C 708.756 -3.00784 3.02376 0
M  V30 7470 S 709.589 -2.70601 4.62099 0
M  V30 7471 C 710.745 -4.11181 4.71891 0
M  V30 7472 H 710.978 -1.30587 2.67085 0
M  V30 7473 H 708.511 -0.569485 1.43514 0
M  V30 7474 H 710.469 -3.66353 1.85192 0
M  V30 7475 H 709.13 -3.01514 0.880217 0
M  V30 7476 H 708.323 -4.02128 3.03824 0
M  V30 7477 H 707.925 -2.28939 2.95742 0
M  V30 7478 H 710.217 -5.0529 4.51319 0
M  V30 7479 H 711.16 -4.14742 5.73929 0
M  V30 7480 H 711.568 -3.97706 4.00612 0
M  V30 7481 N 710.966 -1.44241 -0.634997 0
M  V30 7482 C 712.213 -1.46821 -1.39463 0
M  V30 7483 C 712.541 -0.0993362 -1.94246 0
M  V30 7484 O 711.796 0.898325 -1.73864 0
M  V30 7485 C 712.095 -2.47279 -2.58046 0
M  V30 7486 C 711.761 -3.92703 -2.21574 0
M  V30 7487 C 710.423 -4.32306 -2.1134 0
M  V30 7488 C 712.775 -4.84271 -1.92695 0
M  V30 7489 C 710.103 -5.61407 -1.70409 0
M  V30 7490 C 712.455 -6.13755 -1.53258 0
M  V30 7491 C 711.119 -6.52316 -1.41562 0
M  V30 7492 H 710.389 -0.537256 -0.51033 0
M  V30 7493 H 713.036 -1.77431 -0.720441 0
M  V30 7494 H 711.341 -2.10138 -3.3068 0
M  V30 7495 H 713.038 -2.46523 -3.16271 0
M  V30 7496 H 709.628 -3.61369 -2.30456 0
M  V30 7497 H 713.812 -4.54432 -1.99513 0
M  V30 7498 H 709.068 -5.90105 -1.59955 0
M  V30 7499 H 713.242 -6.84168 -1.29949 0
M  V30 7500 H 710.869 -7.52255 -1.09619 0
M  V30 7501 N 712.444 0.87505 -1.31075 0
M  V30 7502 C 713.69 1.63006 -1.21657 0
M  V30 7503 C 714.045 1.91088 0.224306 0
M  V30 7504 O 713.338 1.52779 1.15625 0
M  V30 7505 C 713.532 2.96948 -1.98888 0
M  V30 7506 C 713.361 2.81944 -3.50339 0
M  V30 7507 C 712.131 2.814 -4.19693 0
M  V30 7508 C 714.329 2.57171 -4.45385 0
M  V30 7509 N 712.311 2.57392 -5.57335 0
M  V30 7510 C 713.682 2.42379 -5.7066 0
M  V30 7511 C 715.737 2.42474 -4.34868 0
M  V30 7512 C 714.44 2.14385 -6.86609 0
M  V30 7513 C 716.466 2.15868 -5.50595 0
M  V30 7514 C 715.828 2.0186 -6.74857 0
M  V30 7515 H 711.927 0.601043 -0.500271 0
M  V30 7516 H 714.511 1.03033 -1.65204 0
M  V30 7517 H 712.682 3.54936 -1.57718 0
M  V30 7518 H 714.414 3.61702 -1.81531 0
M  V30 7519 H 711.169 2.93596 -3.71616 0
M  V30 7520 H 711.593 2.48373 -6.29794 0
M  V30 7521 H 716.235 2.52035 -3.39468 0
M  V30 7522 H 713.953 2.03562 -7.82041 0
M  V30 7523 H 717.539 2.05304 -5.44372 0
M  V30 7524 H 716.419 1.81562 -7.62892 0
M  V30 7525 N 713.922 1.13953 1.08869 0
M  V30 7526 C 715.147 0.928559 1.85452 0
M  V30 7527 C 715.572 -0.517642 1.80837 0
M  V30 7528 O 714.93 -1.36779 1.19001 0
M  V30 7529 C 714.978 1.42814 3.31114 0
M  V30 7530 O 714.082 0.617129 4.07756 0
M  V30 7531 H 713.423 0.33235 0.574839 0
M  V30 7532 H 715.953 1.5156 1.37443 0
M  V30 7533 H 715.963 1.43425 3.8196 0
M  V30 7534 H 714.638 2.48109 3.33788 0
M  V30 7535 H 713.215 0.679365 3.66659 0
M  V30 7536 N 715.4 -1.26948 0.933913 0
M  V30 7537 C 716.677 -1.89212 0.495784 0
M  V30 7538 C 717.057 -1.84469 -1.02637 0
M  V30 7539 O 716.405 -1.29409 -1.88323 0
M  V30 7540 C 716.615 -3.32865 1.0489 0
M  V30 7541 C 717.963 -4.09749 1.11315 0
M  V30 7542 O 718.987 -3.41905 0.998966 0
M  V30 7543 O 717.846 -5.31061 1.28983 0
M  V30 7544 H 714.94 -0.811284 0.160459 0
M  V30 7545 H 717.486 -1.35171 1.02601 0
M  V30 7546 H 716.258 -3.30642 2.09265 0
M  V30 7547 H 715.881 -3.94435 0.500692 0
M  V30 7548 N 716.879 -0.700114 -1.41195 0
M  V30 7549 C 717.809 -0.0521132 -2.33442 0
M  V30 7550 C 718.79 0.76228 -1.52063 0
M  V30 7551 O 719.975 0.714336 -1.80585 0
M  V30 7552 C 717.105 0.881693 -3.35922 0
M  V30 7553 C 716.059 0.174062 -4.27646 0
M  V30 7554 C 715.385 1.22254 -5.20536 0
M  V30 7555 C 716.685 -0.962396 -5.13357 0
M  V30 7556 H 718.379 -0.822574 -2.87879 0
M  V30 7557 H 715.925 -0.397011 -1.38419 0
M  V30 7558 H 717.878 1.34429 -3.99383 0
M  V30 7559 H 716.602 1.68387 -2.79845 0
M  V30 7560 H 715.261 -0.268551 -3.65615 0
M  V30 7561 H 714.909 2.01736 -4.60773 0
M  V30 7562 H 714.609 0.754038 -5.82742 0
M  V30 7563 H 716.133 1.68555 -5.86874 0
M  V30 7564 H 717.547 -0.579875 -5.7036 0
M  V30 7565 H 715.944 -1.35828 -5.84526 0
M  V30 7566 H 717.014 -1.80003 -4.50252 0
M  V30 7567 N 718.357 1.51182 -0.445186 0
M  V30 7568 C 719.605 2.01753 0.11841 0
M  V30 7569 C 719.926 1.33087 1.42523 0
M  V30 7570 O 719.196 0.467891 1.9023 0
M  V30 7571 H 717.776 0.745536 0.0467492 0
M  V30 7572 H 720.438 1.85765 -0.589688 0
M  V30 7573 H 719.534 3.10762 0.288665 0
M  V30 7574 N 719.835 0.176821 1.56605 0
M  V30 7575 C 721.246 -0.338963 1.83597 0
M  V30 7576 C 721.597 -1.62677 1.09684 0
M  V30 7577 O 720.722 -2.13524 0.351661 0
M  V30 7578 C 721.317 -0.62177 3.33046 0
M  V30 7579 C 719.876 -1.08198 3.60514 0
M  V30 7580 C 719.023 -0.120774 2.77037 0
M  V30 7581 H 721.974 0.400978 1.53551 0
M  V30 7582 H 721.995 -1.47321 3.50823 0
M  V30 7583 H 721.507 0.315692 3.86814 0
M  V30 7584 H 719.608 -2.03435 3.12162 0
M  V30 7585 H 719.721 -0.987329 4.68816 0
M  V30 7586 H 718.085 -0.619192 2.47059 0
M  V30 7587 H 718.868 0.810806 3.33588 0
M  V30 7588 N 721.313 -1.57302 -0.09688 0
M  V30 7589 C 722.59 -1.7701 -0.832272 0
M  V30 7590 C 722.97 -0.758025 -1.97021 0
M  V30 7591 O 722.318 0.213824 -2.27497 0
M  V30 7592 C 722.528 -3.22725 -1.32851 0
M  V30 7593 C 723.876 -3.85856 -1.772 0
M  V30 7594 O 724.9 -3.26464 -1.42478 0
M  V30 7595 O 723.759 -4.90295 -2.41398 0
M  V30 7596 H 720.853 -0.725558 -0.396856 0
M  V30 7597 H 723.399 -1.69516 -0.0789005 0
M  V30 7598 H 722.171 -3.87921 -0.51312 0
M  V30 7599 H 721.794 -3.34845 -2.14394 0
M  V30 7600 N 722.791 0.367657 -1.53252 0
M  V30 7601 C 724.037 1.11216 -1.69584 0
M  V30 7602 C 724.37 1.89026 -0.445269 0
M  V30 7603 O 723.645 1.86342 0.557404 0
M  V30 7604 C 723.928 2.07308 -2.94441 0
M  V30 7605 C 723.781 1.3312 -4.2965 0
M  V30 7606 C 725.1 3.07459 -3.14892 0
M  V30 7607 H 722.219 0.40294 -0.617096 0
M  V30 7608 H 724.861 0.393201 -1.85887 0
M  V30 7609 H 723.011 2.68617 -2.80673 0
M  V30 7610 H 724.683 0.746111 -4.55226 0
M  V30 7611 H 722.926 0.633051 -4.29156 0
M  V30 7612 H 723.597 2.03443 -5.13142 0
M  V30 7613 H 726.073 2.56252 -3.27832 0
M  V30 7614 H 724.949 3.71919 -4.03693 0
M  V30 7615 H 725.21 3.77514 -2.30077 0
M  V30 7616 N 724.269 1.44576 0.627338 0
M  V30 7617 C 725.517 1.47267 1.38408 0
M  V30 7618 C 725.838 0.107971 1.94701 0
M  V30 7619 O 725.108 -0.860206 1.76004 0
M  V30 7620 H 723.688 0.542276 0.513756 0
M  V30 7621 H 726.35 1.80383 0.738099 0
M  V30 7622 H 725.446 2.20025 2.21349 0
M  V30 7623 N 725.747 -0.868086 1.31537 0
M  V30 7624 C 726.977 -1.65162 1.24118 0
M  V30 7625 C 727.385 -1.88187 -0.195558 0
M  V30 7626 O 726.728 -1.44154 -1.13866 0
M  V30 7627 C 726.79 -3.04119 1.91708 0
M  V30 7628 C 726.454 -3.04194 3.4105 0
M  V30 7629 C 727.451 -2.82016 4.36764 0
M  V30 7630 C 725.136 -3.25256 3.82772 0
M  V30 7631 C 727.13 -2.80881 5.72175 0
M  V30 7632 C 724.817 -3.23749 5.18295 0
M  V30 7633 C 725.815 -3.01589 6.12808 0
M  V30 7634 O 725.503 -2.9993 7.45853 0
M  V30 7635 H 725.235 -0.521597 0.430015 0
M  V30 7636 H 727.789 -1.09165 1.73989 0
M  V30 7637 H 726.019 -3.61849 1.36389 0
M  V30 7638 H 727.708 -3.64701 1.78179 0
M  V30 7639 H 728.474 -2.65525 4.05859 0
M  V30 7640 H 724.353 -3.41534 3.09638 0
M  V30 7641 H 727.897 -2.63503 6.45919 0
M  V30 7642 H 723.794 -3.39781 5.48834 0
M  V30 7643 H 724.562 -3.15979 7.55049 0
M  V30 7644 N 727.225 -1.14528 -1.08264 0
M  V30 7645 C 728.135 -0.84728 -2.18765 0
M  V30 7646 C 729.151 0.172826 -1.7314 0
M  V30 7647 O 730.327 0.000985336 -2.014 0
M  V30 7648 C 727.392 -0.330633 -3.4512 0
M  V30 7649 C 726.453 -1.41348 -4.05363 0
M  V30 7650 C 725.686 -0.921387 -5.25686 0
M  V30 7651 O 725.909 0.236587 -5.69909 0
M  V30 7652 O 724.843 -1.70101 -5.77364 0
M  V30 7653 H 728.669 -1.7708 -2.46731 0
M  V30 7654 H 726.254 -0.923661 -1.17426 0
M  V30 7655 H 728.136 -0.0485053 -4.21372 0
M  V30 7656 H 726.811 0.565147 -3.18728 0
M  V30 7657 H 725.718 -1.74908 -3.30693 0
M  V30 7658 H 727.051 -2.28383 -4.36007 0
M  V30 7659 N 728.703 1.26451 -0.940633 0
M  V30 7660 C 729.666 2.24651 -0.454378 0
M  V30 7661 C 730.666 1.54826 0.434222 0
M  V30 7662 O 731.856 1.72628 0.233477 0
M  V30 7663 C 728.988 3.39148 0.345192 0
M  V30 7664 H 730.181 2.69182 -1.32217 0
M  V30 7665 H 727.734 1.38596 -0.722547 0
M  V30 7666 H 728.469 3.00018 1.23125 0
M  V30 7667 H 728.254 3.9101 -0.292107 0
M  V30 7668 H 729.744 4.12103 0.675341 0
M  V30 7669 N 730.181 0.707592 1.40822 0
M  V30 7670 C 731.43 0.240705 2.00259 0
M  V30 7671 C 731.743 -1.17027 1.56729 0
M  V30 7672 O 732.949 -1.73526 2.08809 0
M  V30 7673 C 731.405 0.379432 3.57894 0
M  V30 7674 C 731.013 1.79654 4.104 0
M  V30 7675 C 732.757 -0.0270684 4.24491 0
M  V30 7676 C 730.664 1.88628 5.60512 0
M  V30 7677 H 729.594 0.0862369 0.749052 0
M  V30 7678 H 732.245 0.877528 1.61157 0
M  V30 7679 H 730.627 -0.325842 3.94657 0
M  V30 7680 H 731.801 2.53155 3.85032 0
M  V30 7681 H 730.116 2.15379 3.56372 0
M  V30 7682 H 732.713 0.0193743 5.34696 0
M  V30 7683 H 733.056 -1.06772 4.02375 0
M  V30 7684 H 733.589 0.628361 3.92806 0
M  V30 7685 H 730.328 2.90787 5.87472 0
M  V30 7686 H 729.848 1.19528 5.8777 0
M  V30 7687 H 731.527 1.6547 6.25483 0
M  V30 7688 N 731.66 -1.50943 0.453197 0
M  V30 7689 C 732.908 -2.01813 -0.107709 0
M  V30 7690 C 733.229 -1.33841 -1.41816 0
M  V30 7691 O 732.499 -0.477973 -1.8998 0
M  V30 7692 H 731.079 -0.745773 -0.0427948 0
M  V30 7693 H 733.741 -1.8545 0.599531 0
M  V30 7694 H 732.837 -3.10911 -0.27218 0
M  V30 7695 N 733.138 -0.185124 -1.56509 0
M  V30 7696 C 734.068 0.735098 -2.21627 0
M  V30 7697 C 735.049 1.2288 -1.1762 0
M  V30 7698 O 736.234 1.27945 -1.46095 0
M  V30 7699 C 733.364 1.95889 -2.86783 0
M  V30 7700 C 732.318 1.6005 -3.96948 0
M  V30 7701 C 731.644 2.90009 -4.4922 0
M  V30 7702 C 732.944 0.818008 -5.15855 0
M  V30 7703 H 734.638 0.192274 -2.98782 0
M  V30 7704 H 732.184 0.0910393 -1.43712 0
M  V30 7705 H 734.137 2.60779 -3.31017 0
M  V30 7706 H 732.861 2.52608 -2.07018 0
M  V30 7707 H 731.52 0.975237 -3.5339 0
M  V30 7708 H 731.168 3.44797 -3.6623 0
M  V30 7709 H 730.868 2.66778 -5.23549 0
M  V30 7710 H 732.392 3.55904 -4.9615 0
M  V30 7711 H 733.806 1.36979 -5.56695 0
M  V30 7712 H 732.203 0.684207 -5.96187 0
M  V30 7713 H 733.273 -0.182939 -4.84555 0
M  V30 7714 N 734.616 1.57351 0.0885366 0
M  V30 7715 C 735.862 1.86696 0.791996 0
M  V30 7716 C 736.195 0.775148 1.78059 0
M  V30 7717 O 735.47 -0.216247 1.93294 0
M  V30 7718 C 735.753 3.26684 1.51491 0
M  V30 7719 C 735.606 4.465 0.543858 0
M  V30 7720 C 736.925 3.64664 2.46391 0
M  V30 7721 H 734.044 0.679049 0.286463 0
M  V30 7722 H 736.686 1.89919 0.0554866 0
M  V30 7723 H 734.836 3.24067 2.14273 0
M  V30 7724 H 736.508 4.61235 -0.0774597 0
M  V30 7725 H 734.751 4.33567 -0.142228 0
M  V30 7726 H 735.422 5.41192 1.08696 0
M  V30 7727 H 737.898 3.68267 1.93698 0
M  V30 7728 H 736.774 4.63534 2.93986 0
M  V30 7729 H 737.035 2.93698 3.30445 0
M  V30 7730 N 736.094 -0.359525 1.53444 0
M  V30 7731 C 737.371 -1.11756 1.6053 0
M  V30 7732 C 737.751 -2.06949 0.416587 0
M  V30 7733 O 737.099 -2.20681 -0.592628 0
M  V30 7734 C 737.309 -1.85133 2.95849 0
M  V30 7735 C 738.657 -2.3945 3.50641 0
M  V30 7736 O 739.681 -1.95251 2.97918 0
M  V30 7737 O 738.54 -3.20266 4.42823 0
M  V30 7738 H 735.634 -0.513005 0.648656 0
M  V30 7739 H 738.18 -0.362301 1.65787 0
M  V30 7740 H 736.952 -1.15694 3.73806 0
M  V30 7741 H 736.575 -2.67554 2.9411 0
M  V30 7742 N 737.572 -1.44907 -0.619662 0
M  V30 7743 C 738.797 -1.52021 -1.41083 0
M  V30 7744 C 739.222 -0.14976 -1.87503 0
M  V30 7745 O 738.58 0.863303 -1.59426 0
M  V30 7746 C 738.628 -2.49911 -2.59955 0
M  V30 7747 O 737.732 -2.00857 -3.60181 0
M  V30 7748 H 737.073 -0.512912 -0.421684 0
M  V30 7749 H 739.603 -1.90149 -0.755282 0
M  V30 7750 H 739.613 -2.68323 -3.07354 0
M  V30 7751 H 738.288 -3.4945 -2.25516 0
M  V30 7752 H 736.865 -1.92265 -3.19513 0
M  V30 7753 N 739.05 0.861098 -1.31996 0
M  V30 7754 C 740.275 1.65264 -1.2531 0
M  V30 7755 C 740.7 1.87265 0.177007 0
M  V30 7756 O 740.058 1.4208 1.12619 0
M  V30 7757 C 740.106 2.99284 -2.0115 0
M  V30 7758 O 739.21 3.89508 -1.3549 0
M  V30 7759 H 738.551 0.50409 -0.432192 0
M  V30 7760 H 741.081 1.07297 -1.74208 0
M  V30 7761 H 741.091 3.49154 -2.11081 0
M  V30 7762 H 739.766 2.82591 -3.05148 0
M  V30 7763 H 738.343 3.47966 -1.34066 0
M  V30 7764 N 740.528 1.15101 1.07655 0
M  V30 7765 C 741.458 0.867864 2.16773 0
M  V30 7766 C 742.439 -0.180283 1.69142 0
M  V30 7767 O 743.624 -0.0353152 1.94168 0
M  V30 7768 C 740.754 0.35299 3.45501 0
M  V30 7769 C 739.708 1.33746 4.06566 0
M  V30 7770 C 739.034 0.681562 5.30338 0
M  V30 7771 C 740.334 2.7024 4.46954 0
M  V30 7772 H 742.028 1.78034 2.40716 0
M  V30 7773 H 739.574 0.857435 1.15689 0
M  V30 7774 H 741.527 0.142465 4.21159 0
M  V30 7775 H 740.251 -0.594945 3.21135 0
M  V30 7776 H 738.91 1.53429 3.32949 0
M  V30 7777 H 738.558 -0.272422 5.02262 0
M  V30 7778 H 738.258 1.33853 5.72151 0
M  V30 7779 H 739.782 0.48074 6.08705 0
M  V30 7780 H 741.196 2.5442 5.13754 0
M  V30 7781 H 739.593 3.32282 4.99709 0
M  V30 7782 H 740.663 3.26537 3.58471 0
M  V30 7783 N 742.006 -1.2595 0.947325 0
M  V30 7784 C 743.417 -1.75389 0.639963 0
M  V30 7785 C 743.768 -1.77081 -0.844788 0
M  V30 7786 O 742.893 -1.3869 -1.66114 0
M  V30 7787 C 743.488 -3.18506 1.15496 0
M  V30 7788 C 742.047 -3.65534 0.897894 0
M  V30 7789 C 741.194 -2.44818 1.30228 0
M  V30 7790 H 744.145 -1.1194 1.12495 0
M  V30 7791 H 744.166 -3.77045 0.511627 0
M  V30 7792 H 743.678 -3.17243 2.23559 0
M  V30 7793 H 741.779 -3.72221 -0.168096 0
M  V30 7794 H 741.892 -4.54039 1.52922 0
M  V30 7795 H 740.256 -2.44291 0.720678 0
M  V30 7796 H 741.039 -2.46251 2.39198 0
M  V30 7797 N 743.484 -0.715051 -1.40445 0
M  V30 7798 C 744.712 -0.263959 -2.05209 0
M  V30 7799 C 745.127 1.09403 -1.53871 0
M  V30 7800 O 744.484 1.68746 -0.695064 0
M  V30 7801 C 744.535 -0.234545 -3.60738 0
M  V30 7802 O 744.256 -1.53891 -4.10182 0
M  V30 7803 C 745.757 0.235164 -4.42676 0
M  V30 7804 H 742.977 -0.11876 -0.660407 0
M  V30 7805 H 745.521 -0.973107 -1.79864 0
M  V30 7806 H 743.676 0.425563 -3.85055 0
M  V30 7807 H 744.09 -1.43903 -5.04373 0
M  V30 7808 H 745.564 0.204598 -5.51621 0
M  V30 7809 H 746.041 1.27724 -4.20218 0
M  V30 7810 H 746.647 -0.394649 -4.23465 0
M  V30 7811 N 744.962 1.50701 -0.461195 0
M  V30 7812 C 746.208 2.02566 0.0973411 0
M  V30 7813 C 746.541 1.3432 1.40257 0
M  V30 7814 O 745.816 0.465692 1.88843 0
M  V30 7815 C 746.099 3.58919 0.291423 0
M  V30 7816 C 745.952 4.37751 -1.03413 0
M  V30 7817 C 747.271 4.27379 1.05048 0
M  V30 7818 H 744.39 0.73622 0.0339026 0
M  V30 7819 H 747.032 1.80115 -0.604855 0
M  V30 7820 H 745.182 3.78179 0.889539 0
M  V30 7821 H 746.854 4.30085 -1.66806 0
M  V30 7822 H 745.097 4.01885 -1.63313 0
M  V30 7823 H 745.768 5.45384 -0.852085 0
M  V30 7824 H 748.244 4.12534 0.543603 0
M  V30 7825 H 747.12 5.36609 1.15506 0
M  V30 7826 H 747.381 3.89868 2.0846 0
M  V30 7827 N 746.441 0.193421 1.56409 0
M  V30 7828 C 747.689 -0.444908 1.97142 0
M  V30 7829 C 748.01 -1.62268 1.08139 0
M  V30 7830 O 747.28 -1.95307 0.152326 0
M  V30 7831 H 745.86 -0.16736 0.728011 0
M  V30 7832 H 748.522 0.279763 1.92882 0
M  V30 7833 H 747.618 -0.790159 3.01932 0
M  V30 7834 N 747.919 -1.57396 -0.0801906 0
M  V30 7835 C 749.165 -1.87113 -0.782083 0
M  V30 7836 C 749.498 -0.78458 -1.77646 0
M  V30 7837 O 748.773 0.205993 -1.93406 0
M  V30 7838 C 749.056 -3.27483 -1.49756 0
M  V30 7839 C 748.909 -4.46782 -0.520171 0
M  V30 7840 C 750.228 -3.65965 -2.44454 0
M  V30 7841 H 747.347 -0.680559 -0.282858 0
M  V30 7842 H 749.989 -1.89946 -0.0454139 0
M  V30 7843 H 748.139 -3.25199 -2.12551 0
M  V30 7844 H 749.811 -4.61187 0.101919 0
M  V30 7845 H 748.054 -4.33485 0.165219 0
M  V30 7846 H 748.725 -5.41761 -1.05824 0
M  V30 7847 H 751.201 -3.69289 -1.91742 0
M  V30 7848 H 750.077 -4.65086 -2.91524 0
M  V30 7849 H 750.338 -2.95446 -3.28883 0
M  V30 7850 N 749.397 0.351382 -1.53633 0
M  V30 7851 C 750.644 1.0925 -1.70502 0
M  V30 7852 C 750.972 1.88881 -0.464123 0
M  V30 7853 O 750.227 1.87693 0.554077 0
M  V30 7854 C 750.526 2.06744 -2.91533 0
M  V30 7855 C 750.192 1.43484 -4.27461 0
M  V30 7856 C 748.854 1.2596 -4.64422 0
M  V30 7857 C 751.206 0.978436 -5.11934 0
M  V30 7858 C 748.534 0.614017 -5.83478 0
M  V30 7859 C 750.886 0.346795 -6.31649 0
M  V30 7860 C 749.55 0.15917 -6.6731 0
M  V30 7861 H 748.82 0.399773 -0.623909 0
M  V30 7862 H 751.467 0.372656 -1.87839 0
M  V30 7863 H 749.772 2.85082 -2.68767 0
M  V30 7864 H 751.469 2.64066 -3.01778 0
M  V30 7865 H 748.059 1.5812 -3.98367 0
M  V30 7866 H 752.243 1.1017 -4.83918 0
M  V30 7867 H 747.499 0.457194 -6.09688 0
M  V30 7868 H 751.673 -0.0149864 -6.96398 0
M  V30 7869 H 749.3 -0.343129 -7.59425 0
M  V30 7870 N 750.875 1.45233 0.611969 0
M  V30 7871 C 751.838 1.53189 1.70487 0
M  V30 7872 C 752.838 0.411839 1.55437 0
M  V30 7873 O 754.028 0.675164 1.60584 0
M  V30 7874 C 751.16 1.42422 3.09723 0
M  V30 7875 H 752.353 2.5056 1.64802 0
M  V30 7876 H 749.906 1.32609 0.827318 0
M  V30 7877 H 750.641 0.462185 3.2099 0
M  V30 7878 H 750.426 2.23658 3.22055 0
M  V30 7879 H 751.916 1.51012 3.89339 0
M  V30 7880 N 752.353 -0.854086 1.3245 0
M  V30 7881 C 753.3 -1.96271 1.21434 0
M  V30 7882 C 754.27 -1.6582 0.0963851 0
M  V30 7883 O 755.455 -1.88851 0.27203 0
M  V30 7884 C 752.595 -3.31939 0.943952 0
M  V30 7885 C 751.708 -3.74885 2.14675 0
M  V30 7886 C 750.843 -4.99347 1.81179 0
M  V30 7887 C 749.882 -5.34785 2.97777 0
M  V30 7888 N 749.019 -6.50425 2.6437 0
M  V30 7889 H 753.859 -2.05025 2.16261 0
M  V30 7890 H 751.396 -1.00348 1.07558 0
M  V30 7891 H 753.354 -4.10076 0.767675 0
M  V30 7892 H 751.984 -3.22784 0.0324763 0
M  V30 7893 H 751.036 -2.92396 2.43328 0
M  V30 7894 H 752.348 -3.97068 3.01891 0
M  V30 7895 H 751.502 -5.85193 1.60107 0
M  V30 7896 H 750.241 -4.79101 0.911777 0
M  V30 7897 H 749.246 -4.47451 3.1948 0
M  V30 7898 H 750.471 -5.56988 3.88511 0
M  V30 7899 H 748.417 -6.31695 1.7691 0
M  V30 7900 H 748.334 -6.7263 3.45116 0
M  V30 7901 H 749.602 -7.39422 2.46729 0
M  V30 7902 N 753.831 -1.1567 -1.07043 0
M  V30 7903 C 754.794 -0.858906 -2.12498 0
M  V30 7904 C 755.794 0.142735 -1.60165 0
M  V30 7905 O 756.984 -0.0872678 -1.73981 0
M  V30 7906 C 754.116 -0.283021 -3.39723 0
M  V30 7907 H 755.309 -1.79368 -2.40348 0
M  V30 7908 H 752.862 -0.964608 -1.22984 0
M  V30 7909 H 753.597 0.659796 -3.17517 0
M  V30 7910 H 753.382 -1.00467 -3.7901 0
M  V30 7911 H 754.872 -0.0923543 -4.17498 0
M  V30 7912 N 755.309 1.25446 -0.953992 0
M  V30 7913 C 756.537 1.97215 -0.625595 0
M  V30 7914 C 756.952 1.70911 0.802168 0
M  V30 7915 O 756.309 0.984782 1.5365 0
M  V30 7916 C 756.36 3.50777 -0.873943 0
M  V30 7917 O 756.081 3.76173 -2.24556 0
M  V30 7918 C 757.582 4.39776 -0.557845 0
M  V30 7919 H 754.802 0.628652 -0.2346 0
M  V30 7920 H 757.346 1.59632 -1.27819 0
M  V30 7921 H 755.501 3.86474 -0.267765 0
M  V30 7922 H 755.915 4.70636 -2.31522 0
M  V30 7923 H 757.389 5.46431 -0.782157 0
M  V30 7924 H 757.866 4.36257 0.507573 0
M  V30 7925 H 758.472 4.09644 -1.14332 0
M  V30 7926 N 756.787 0.722489 1.40064 0
M  V30 7927 C 757.75 0.0830209 2.2905 0
M  V30 7928 C 758.75 -0.680208 1.45705 0
M  V30 7929 O 759.94 -0.511084 1.66534 0
M  V30 7930 C 757.072 -0.892092 3.29021 0
M  V30 7931 H 758.265 0.866848 2.87099 0
M  V30 7932 H 755.818 0.487556 1.48501 0
M  V30 7933 H 756.553 -1.70273 2.76003 0
M  V30 7934 H 756.338 -0.34761 3.90556 0
M  V30 7935 H 757.828 -1.33648 3.95636 0
M  V30 7936 N 758.265 -1.50454 0.469181 0
M  V30 7937 C 759.197 -2.26319 -0.362247 0
M  V30 7938 C 760.21 -1.31574 -0.958751 0
M  V30 7939 O 761.399 -1.57099 -0.847482 0
M  V30 7940 C 758.499 -3.02808 -1.52187 0
M  V30 7941 C 757.672 -4.24893 -1.03849 0
M  V30 7942 C 756.731 -4.83691 -2.07194 0
M  V30 7943 O 755.757 -5.44659 -1.65333 0
M  V30 7944 N 756.959 -4.70522 -3.39985 0
M  V30 7945 H 759.724 -2.98312 0.288124 0
M  V30 7946 H 757.285 -1.59099 0.299856 0
M  V30 7947 H 759.277 -3.39023 -2.21011 0
M  V30 7948 H 757.847 -2.33625 -2.07697 0
M  V30 7949 H 757.067 -3.93806 -0.176203 0
M  V30 7950 H 758.355 -5.04053 -0.693435 0
M  V30 7951 H 757.753 -4.2203 -3.76706 0
M  V30 7952 H 756.31 -5.11011 -4.04612 0
M  V30 7953 N 759.743 -0.201713 -1.56304 0
M  V30 7954 C 761.02 0.483273 -1.89536 0
M  V30 7955 C 761.4 1.79176 -1.11621 0
M  V30 7956 O 760.748 2.27445 -0.219339 0
M  V30 7957 C 760.958 0.695604 -3.41998 0
M  V30 7958 C 762.306 1.012 -4.12364 0
M  V30 7959 O 763.33 0.783094 -3.47485 0
M  V30 7960 O 762.189 1.44534 -5.27041 0
M  V30 7961 H 759.283 0.252801 -0.787414 0
M  V30 7962 H 761.829 -0.24242 -1.6796 0
M  V30 7963 H 760.601 -0.228165 -3.90634 0
M  V30 7964 H 760.224 1.47351 -3.69288 0
M  V30 7965 N 761.222 1.57436 0.0718424 0
M  V30 7966 C 762.17 2.04725 1.10411 0
M  V30 7967 C 763.164 0.952579 1.4008 0
M  V30 7968 O 764.37 1.13769 1.39487 0
M  V30 7969 H 760.745 0.652749 0.373393 0
M  V30 7970 H 762.716 2.90569 0.679126 0
M  V30 7971 C 761.465 2.5068 2.40946 0
M  V30 7972 H 760.788 3.34505 2.18967 0
M  V30 7973 H 762.228 2.87521 3.11621 0
M  V30 7974 C 760.687 1.38971 3.06902 0
M  V30 7975 O 761.217 0.731786 3.94978 0
M  V30 7976 N 759.423 1.13485 2.67525 0
M  V30 7977 H 758.97 1.67168 1.95991 0
M  V30 7978 H 758.928 0.389467 3.11978 0
M  V30 7979 N 762.7 -0.34323 1.53817 0
M  V30 7980 C 764.111 -0.918823 1.62525 0
M  V30 7981 C 764.462 -1.89542 0.506765 0
M  V30 7982 O 763.587 -2.13326 -0.363441 0
M  V30 7983 C 764.182 -1.67326 2.94597 0
M  V30 7984 C 762.741 -2.19786 3.05567 0
M  V30 7985 C 761.888 -1.01708 2.57974 0
M  V30 7986 H 764.839 -0.121358 1.58235 0
M  V30 7987 H 764.86 -2.53615 2.83654 0
M  V30 7988 H 764.372 -0.962223 3.75983 0
M  V30 7989 H 762.473 -2.94065 2.28816 0
M  V30 7990 H 762.586 -2.46135 4.1104 0
M  V30 7991 H 760.95 -1.39058 2.13389 0
M  V30 7992 H 761.733 -0.320671 3.41799 0
M  V30 7993 N 764.178 -1.45556 -0.604258 0
M  V30 7994 C 765.125 -1.54482 -1.71476 0
M  V30 7995 C 766.095 -0.390479 -1.61445 0
M  V30 7996 O 767.28 -0.604371 -1.80975 0
M  V30 7997 C 764.42 -1.52064 -3.09791 0
M  V30 7998 C 763.533 -2.78073 -3.30604 0
M  V30 7999 C 762.668 -2.67304 -4.59044 0
M  V30 8000 C 761.707 -3.88352 -4.73127 0
M  V30 8001 N 760.844 -3.76098 -5.9287 0
M  V30 8002 H 765.684 -2.49349 -1.63184 0
M  V30 8003 H 763.221 -1.23725 -0.795641 0
M  V30 8004 H 765.179 -1.48649 -3.89819 0
M  V30 8005 H 763.809 -0.607442 -3.17033 0
M  V30 8006 H 762.861 -2.91561 -2.44329 0
M  V30 8007 H 764.173 -3.67847 -3.36883 0
M  V30 8008 H 763.327 -2.61875 -5.47272 0
M  V30 8009 H 762.066 -1.75135 -4.55169 0
M  V30 8010 H 761.071 -3.94137 -3.83322 0
M  V30 8011 H 762.296 -4.81591 -4.78797 0
M  V30 8012 H 760.242 -2.867 -5.90033 0
M  V30 8013 H 760.159 -4.59509 -6.00323 0
M  V30 8014 H 761.427 -3.74607 -6.83586 0
M  V30 8015 N 765.656 0.84705 -1.32902 0
M  V30 8016 C 766.881 1.63925 -1.27056 0
M  V30 8017 C 767.306 1.87443 0.157136 0
M  V30 8018 O 766.664 1.43266 1.11106 0
M  V30 8019 C 766.712 2.97134 -2.04313 0
M  V30 8020 O 765.816 3.88049 -1.39614 0
M  V30 8021 H 765.157 0.499477 -0.437514 0
M  V30 8022 H 767.687 1.05443 -1.75336 0
M  V30 8023 H 767.697 3.46896 -2.14772 0
M  V30 8024 H 766.372 2.79339 -3.08128 0
M  V30 8025 H 764.949 3.46525 -1.3775 0
M  V30 8026 N 767.134 1.16236 1.06428 0
M  V30 8027 C 768.097 0.870163 2.1204 0
M  V30 8028 C 769.097 -0.134239 1.60239 0
M  V30 8029 O 770.287 0.0964932 1.73933 0
M  V30 8030 C 767.419 0.301033 3.39568 0
M  V30 8031 H 768.612 1.8064 2.39394 0
M  V30 8032 H 766.165 0.971116 1.2247 0
M  V30 8033 H 766.9 -0.642948 3.17863 0
M  V30 8034 H 766.685 1.02475 3.78472 0
M  V30 8035 H 768.175 0.114494 4.17443 0
M  V30 8036 N 768.612 -1.24939 0.960631 0
M  V30 8037 C 769.84 -1.96881 0.636045 0
M  V30 8038 C 770.255 -1.71334 -0.793093 0
M  V30 8039 O 769.612 -0.992917 -1.53125 0
M  V30 8040 C 769.663 -3.50309 0.892533 0
M  V30 8041 O 769.384 -3.74977 2.26548 0
M  V30 8042 C 770.885 -4.39474 0.581159 0
M  V30 8043 H 768.105 -0.627399 0.237931 0
M  V30 8044 H 770.649 -1.58952 1.28664 0
M  V30 8045 H 768.804 -3.86326 0.288257 0
M  V30 8046 H 769.218 -4.69401 2.34014 0
M  V30 8047 H 770.692 -5.46008 0.811125 0
M  V30 8048 H 771.169 -4.3652 -0.48443 0
M  V30 8049 H 771.775 -4.09032 1.16502 0
M  V30 8050 N 770.09 -0.729906 -1.39679 0
M  V30 8051 C 771 -0.0880322 -2.34435 0
M  V30 8052 C 772.016 0.727674 -1.58053 0
M  V30 8053 O 773.192 0.657321 -1.90371 0
M  V30 8054 C 770.257 0.812211 -3.37052 0
M  V30 8055 C 769.318 -0.0151681 -4.29297 0
M  V30 8056 C 768.551 0.842202 -5.27013 0
M  V30 8057 O 768.774 2.08108 -5.31081 0
M  V30 8058 O 767.708 0.27357 -6.01278 0
M  V30 8059 H 771.534 -0.869989 -2.90972 0
M  V30 8060 H 769.119 -0.490522 -1.41118 0
M  V30 8061 H 771.001 1.32745 -3.99946 0
M  V30 8062 H 769.676 1.57307 -2.82907 0
M  V30 8063 H 768.583 -0.575811 -3.69642 0
M  V30 8064 H 769.916 -0.738129 -4.86634 0
M  V30 8065 N 771.568 1.50203 -0.477153 0
M  V30 8066 C 772.5 2.26508 0.350239 0
M  V30 8067 C 773.513 1.32081 0.95176 0
M  V30 8068 O 774.702 1.57546 0.839139 0
M  V30 8069 C 771.802 3.0361 1.50579 0
M  V30 8070 C 770.975 4.25438 1.01595 0
M  V30 8071 C 770.034 4.84783 2.04626 0
M  V30 8072 O 769.06 5.45528 1.62442 0
M  V30 8073 N 770.262 4.72318 3.37485 0
M  V30 8074 H 773.027 2.98155 -0.30394 0
M  V30 8075 H 770.588 1.58938 -0.308289 0
M  V30 8076 H 772.58 3.4019 2.1921 0
M  V30 8077 H 771.15 2.34724 2.06455 0
M  V30 8078 H 770.37 3.93894 0.155316 0
M  V30 8079 H 771.658 5.04413 0.666694 0
M  V30 8080 H 771.056 4.24022 3.74462 0
M  V30 8081 H 769.613 5.13149 4.01897 0
M  V30 8082 N 773.046 0.209999 1.56195 0
M  V30 8083 C 774.271 -0.433064 2.02828 0
M  V30 8084 C 774.696 -1.5337 1.08901 0
M  V30 8085 O 774.054 -1.81144 0.0751132 0
M  V30 8086 C 774.102 -0.952635 3.47789 0
M  V30 8087 O 773.206 -2.0647 3.56993 0
M  V30 8088 H 772.547 -0.0994594 0.656509 0
M  V30 8089 H 775.077 0.32525 2.01998 0
M  V30 8090 H 775.087 -1.26542 3.8788 0
M  V30 8091 H 773.762 -0.147007 4.1564 0
M  V30 8092 H 772.339 -1.75942 3.28784 0
M  V30 8093 N 774.524 -1.57472 -0.0634922 0
M  V30 8094 C 775.772 -1.87283 -0.759563 0
M  V30 8095 C 776.093 -0.803135 -1.77693 0
M  V30 8096 O 775.363 0.167293 -1.95184 0
M  V30 8097 H 773.943 -0.691106 -0.283516 0
M  V30 8098 H 776.605 -1.94864 -0.0376091 0
M  V30 8099 H 775.701 -2.85064 -1.27062 0
M  V30 8100 N 776.003 0.335068 -1.53997 0
M  V30 8101 C 777.231 1.09418 -1.756 0
M  V30 8102 C 777.646 1.82083 -0.499138 0
M  V30 8103 O 777.003 1.74646 0.529631 0
M  V30 8104 C 777.054 2.10115 -2.94166 0
M  V30 8105 O 776.775 1.40404 -4.14992 0
M  V30 8106 C 778.276 2.98336 -3.27888 0
M  V30 8107 H 775.496 0.32595 -0.586513 0
M  V30 8108 H 778.04 0.384693 -2.00849 0
M  V30 8109 H 776.195 2.76616 -2.71224 0
M  V30 8110 H 776.609 2.07743 -4.81605 0
M  V30 8111 H 778.083 3.6491 -4.1418 0
M  V30 8112 H 778.56 3.64814 -2.44556 0
M  V30 8113 H 779.166 2.37412 -3.52868 0
M  V30 8114 N 777.481 1.45874 0.596531 0
M  V30 8115 C 778.729 1.5017 1.35253 0
M  V30 8116 C 779.05 0.149246 1.94428 0
M  V30 8117 O 778.32 -0.82268 1.77789 0
M  V30 8118 H 776.9 0.553052 0.502138 0
M  V30 8119 H 779.562 1.81908 0.699671 0
M  V30 8120 H 778.658 2.24671 2.16632 0
M  V30 8121 N 778.959 -0.83999 1.33349 0
M  V30 8122 C 780.208 -1.59011 1.2409 0
M  V30 8123 C 780.521 -1.94655 -0.192029 0
M  V30 8124 O 781.727 -2.68438 -0.406617 0
M  V30 8125 C 780.183 -2.86801 2.17425 0
M  V30 8126 C 779.791 -2.58525 3.65881 0
M  V30 8127 C 781.535 -3.64823 2.17036 0
M  V30 8128 C 779.442 -3.82404 4.51133 0
M  V30 8129 H 778.372 -0.596731 0.460899 0
M  V30 8130 H 781.023 -0.926274 1.58406 0
M  V30 8131 H 779.405 -3.54719 1.7604 0
M  V30 8132 H 780.579 -1.98824 4.15699 0
M  V30 8133 H 778.894 -1.93808 3.68548 0
M  V30 8134 H 781.491 -4.56774 2.7796 0
M  V30 8135 H 781.834 -3.99663 1.16513 0
M  V30 8136 H 782.367 -3.03826 2.56777 0
M  V30 8137 H 779.106 -3.52696 5.52527 0
M  V30 8138 H 778.626 -4.41447 4.0606 0
M  V30 8139 H 780.305 -4.49995 4.6488 0
M  V30 8140 N 780.437 -1.16799 -1.0581 0
M  V30 8141 C 781.853 -0.913935 -1.30841 0
M  V30 8142 C 782.053 0.430439 -1.96849 0
M  V30 8143 O 781.109 1.16885 -2.23817 0
M  V30 8144 C 782.422 -2.06662 -2.18429 0
M  V30 8145 C 783.97 -2.10294 -2.31831 0
M  V30 8146 C 784.445 -3.2493 -3.22776 0
M  V30 8147 N 785.936 -3.24678 -3.30361 0
M  V30 8148 C 786.671 -4.10021 -4.00837 0
M  V30 8149 N 786.167 -5.05461 -4.73795 0
M  V30 8150 N 787.96 -3.97991 -3.96937 0
M  V30 8151 H 780.111 -2.03343 -0.613613 0
M  V30 8152 H 782.374 -0.88754 -0.333133 0
M  V30 8153 H 782.08 -3.03791 -1.77211 0
M  V30 8154 H 781.954 -2.01233 -3.19038 0
M  V30 8155 H 784.341 -1.13754 -2.72294 0
M  V30 8156 H 784.422 -2.19786 -1.30873 0
M  V30 8157 H 784.066 -4.21731 -2.83028 0
M  V30 8158 H 783.996 -3.12674 -4.23725 0
M  V30 8159 H 786.487 -2.55573 -2.78372 0
M  V30 8160 H 786.8 -5.66989 -5.25113 0
M  V30 8161 H 785.145 -5.09436 -4.72758 0
M  V30 8162 H 788.336 -3.2273 -3.39062 0
M  V30 8163 H 788.509 -4.64722 -4.51594 0
M  V30 8164 N 781.915 1.24427 -0.967243 0
M  V30 8165 C 783.14 1.9708 -0.646069 0
M  V30 8166 C 783.565 1.71272 0.777665 0
M  V30 8167 O 782.923 0.976179 1.52776 0
M  V30 8168 C 782.971 3.48501 -0.926266 0
M  V30 8169 O 782.075 4.12398 -0.0114653 0
M  V30 8170 H 781.416 0.617423 -0.244304 0
M  V30 8171 H 783.946 1.58215 -1.29727 0
M  V30 8172 H 783.956 3.98885 -0.857619 0
M  V30 8173 H 782.631 3.66613 -1.96386 0
M  V30 8174 H 781.208 3.72661 -0.133396 0
M  V30 8175 N 783.393 0.737304 1.3929 0
M  V30 8176 C 784.303 0.100464 2.34385 0
M  V30 8177 C 785.319 -0.719282 1.58437 0
M  V30 8178 O 786.495 -0.647216 1.90717 0
M  V30 8179 C 783.56 -0.794325 3.37478 0
M  V30 8180 C 782.621 0.0379345 4.29283 0
M  V30 8181 C 781.854 -0.814241 5.27452 0
M  V30 8182 O 782.077 -2.05288 5.32177 0
M  V30 8183 O 781.011 -0.241679 6.01415 0
M  V30 8184 H 784.837 0.885407 2.90507 0
M  V30 8185 H 782.422 0.497999 1.40856 0
M  V30 8186 H 784.304 -1.30622 4.00644 0
M  V30 8187 H 782.979 -1.55804 2.83737 0
M  V30 8188 H 781.886 0.595405 3.69331 0
M  V30 8189 H 783.219 0.763926 4.86236 0
M  V30 8190 N 784.871 -1.49948 0.485112 0
M  V30 8191 C 786.096 -2.073 -0.0645059 0
M  V30 8192 C 786.521 -1.345 -1.31497 0
M  V30 8193 O 785.879 -0.39687 -1.76903 0
M  V30 8194 C 785.927 -3.59201 -0.317304 0
M  V30 8195 O 785.031 -3.88085 -1.39514 0
M  V30 8196 H 784.372 -0.663723 0.0191822 0
M  V30 8197 H 786.902 -1.92963 0.680179 0
M  V30 8198 H 786.912 -4.04227 -0.553604 0
M  V30 8199 H 785.587 -4.11602 0.596387 0
M  V30 8200 H 784.164 -3.54885 -1.14504 0
M  V30 8201 N 786.349 -0.21828 -1.56081 0
M  V30 8202 C 787.259 0.704602 -2.23769 0
M  V30 8203 C 788.275 1.21633 -1.24425 0
M  V30 8204 O 789.451 1.25862 -1.57228 0
M  V30 8205 C 786.516 1.89725 -2.90182 0
M  V30 8206 C 785.577 1.42782 -4.0486 0
M  V30 8207 C 784.81 2.56361 -4.68097 0
M  V30 8208 O 785.033 3.74417 -4.30312 0
M  V30 8209 O 783.967 2.2775 -5.57148 0
M  V30 8210 H 787.793 0.158007 -3.03289 0
M  V30 8211 H 785.378 0.0120279 -1.49395 0
M  V30 8212 H 787.26 2.59382 -3.32113 0
M  V30 8213 H 785.935 2.432 -2.13624 0
M  V30 8214 H 784.842 0.699359 -3.67505 0
M  V30 8215 H 786.175 0.939474 -4.83151 0
M  V30 8216 N 787.827 1.57504 0.0551401 0
M  V30 8217 C 789.055 1.92294 0.76358 0
M  V30 8218 C 789.47 0.815774 1.70266 0
M  V30 8219 O 788.827 -0.209772 1.8129 0
M  V30 8220 C 788.878 3.26914 1.54302 0
M  V30 8221 O 788.599 4.33375 0.641666 0
M  V30 8222 C 790.1 3.75825 2.35097 0
M  V30 8223 H 787.32 0.635229 0.216159 0
M  V30 8224 H 789.864 2.0449 0.0204385 0
M  V30 8225 H 788.019 3.16196 2.23828 0
M  V30 8226 H 788.433 5.10927 1.1855 0
M  V30 8227 H 789.907 4.72603 2.8522 0
M  V30 8228 H 790.384 3.0568 3.15367 0
M  V30 8229 H 790.99 3.89542 1.70696 0
M  V30 8230 N 789.305 -0.326896 1.54172 0
M  V30 8231 C 790.215 -1.42525 1.86343 0
M  V30 8232 C 791.231 -1.56764 0.75505 0
M  V30 8233 O 792.407 -1.71924 1.04901 0
M  V30 8234 C 789.472 -2.77286 2.08119 0
M  V30 8235 C 788.533 -2.7225 3.31931 0
M  V30 8236 C 787.766 -4.00584 3.52659 0
M  V30 8237 O 787.989 -4.98686 2.76891 0
M  V30 8238 O 786.923 -4.04045 4.46129 0
M  V30 8239 H 790.749 -1.18249 2.79734 0
M  V30 8240 H 788.334 -0.520614 1.40036 0
M  V30 8241 H 790.216 -3.57065 2.23791 0
M  V30 8242 H 788.891 -3.01459 1.17917 0
M  V30 8243 H 787.798 -1.91033 3.21647 0
M  V30 8244 H 789.131 -2.53032 4.2218 0
M  V30 8245 N 790.784 -1.46188 -0.588786 0
M  V30 8246 C 792.009 -1.5498 -1.37826 0
M  V30 8247 C 792.434 -0.189498 -1.87143 0
M  V30 8248 O 791.792 0.829293 -1.61222 0
M  V30 8249 C 791.84 -2.55369 -2.54596 0
M  V30 8250 O 790.944 -2.08452 -3.55839 0
M  V30 8251 H 790.285 -0.521741 -0.41071 0
M  V30 8252 H 792.815 -1.91708 -0.714779 0
M  V30 8253 H 792.825 -2.74782 -3.01594 0
M  V30 8254 H 791.5 -3.54155 -2.18052 0
M  V30 8255 H 790.077 -1.98999 -3.15363 0
M  V30 8256 N 792.262 0.832906 -1.33792 0
M  V30 8257 C 793.172 1.97514 -1.26592 0
M  V30 8258 C 794.188 1.73114 -0.175391 0
M  V30 8259 O 795.364 1.97387 -0.400062 0
M  V30 8260 C 792.429 3.31625 -1.01121 0
M  V30 8261 C 791.49 3.69101 -2.19233 0
M  V30 8262 C 790.723 4.96813 -1.94968 0
M  V30 8263 O 790.946 5.63208 -0.902955 0
M  V30 8264 O 789.88 5.31932 -2.8166 0
M  V30 8265 H 793.706 2.0653 -2.22664 0
M  V30 8266 H 791.291 0.966826 -1.13898 0
M  V30 8267 H 793.173 4.11968 -0.886571 0
M  V30 8268 H 791.848 3.23599 -0.080822 0
M  V30 8269 H 790.755 2.89243 -2.37253 0
M  V30 8270 H 792.088 3.818 -3.10628 0
M  V30 8271 N 793.74 1.17359 1.05189 0
M  V30 8272 C 794.703 0.892604 2.11105 0
M  V30 8273 C 795.703 -0.117236 1.60372 0
M  V30 8274 O 796.893 0.114936 1.7382 0
M  V30 8275 C 794.025 0.337032 3.3923 0
M  V30 8276 H 795.218 1.83169 2.37464 0
M  V30 8277 H 792.771 0.984051 1.21434 0
M  V30 8278 H 793.506 -0.609198 3.18527 0
M  V30 8279 H 793.291 1.06484 3.77364 0
M  V30 8280 H 794.781 0.158763 4.17298 0
M  V30 8281 N 795.218 -1.23913 0.973828 0
M  V30 8282 C 796.443 -1.96735 0.656511 0
M  V30 8283 C 796.868 -1.71682 -0.768571 0
M  V30 8284 O 796.226 -0.984267 -1.52256 0
M  V30 8285 C 796.274 -3.48004 0.944735 0
M  V30 8286 O 795.378 -4.12387 0.0333357 0
M  V30 8287 H 794.719 -0.616119 0.247575 0
M  V30 8288 H 797.249 -1.57525 1.30564 0
M  V30 8289 H 797.259 -3.98424 0.87876 0
M  V30 8290 H 795.934 -3.65567 1.98328 0
M  V30 8291 H 794.511 -3.72585 0.153157 0
M  V30 8292 N 796.696 -0.74468 -1.38897 0
M  V30 8293 C 797.606 -0.112892 -2.34328 0
M  V30 8294 C 798.622 0.71087 -1.58816 0
M  V30 8295 O 799.798 0.637092 -1.91058 0
M  V30 8296 C 796.863 0.776417 -3.37894 0
M  V30 8297 C 795.924 -0.0606999 -4.29257 0
M  V30 8298 C 795.157 0.786258 -5.27877 0
M  V30 8299 O 795.38 2.02463 -5.33259 0
M  V30 8300 O 794.314 0.209781 -6.01534 0
M  V30 8301 H 798.14 -0.900801 -2.90033 0
M  V30 8302 H 795.725 -0.505462 -1.4059 0
M  V30 8303 H 797.607 1.28496 -4.01331 0
M  V30 8304 H 796.282 1.54297 -2.84559 0
M  V30 8305 H 795.189 -0.614984 -3.69011 0
M  V30 8306 H 796.522 -0.789702 -4.85824 0
M  V30 8307 N 798.174 1.49689 -0.493057 0
M  V30 8308 C 799.423 2.01622 0.0560733 0
M  V30 8309 C 799.736 1.37838 1.3878 0
M  V30 8310 O 800.942 1.81054 2.02316 0
M  V30 8311 C 799.398 3.59586 0.150409 0
M  V30 8312 C 799.006 4.32338 -1.1742 0
M  V30 8313 C 800.75 4.19489 0.650327 0
M  V30 8314 C 798.657 5.8214 -1.04246 0
M  V30 8315 H 797.587 0.753594 0.0247297 0
M  V30 8316 H 800.238 1.723 -0.631279 0
M  V30 8317 H 798.62 3.8559 0.902035 0
M  V30 8318 H 799.794 4.18042 -1.9385 0
M  V30 8319 H 798.109 3.84144 -1.60694 0
M  V30 8320 H 800.706 5.29181 0.766272 0
M  V30 8321 H 801.049 3.82326 1.6472 0
M  V30 8322 H 801.582 3.97775 -0.0445371 0
M  V30 8323 H 798.321 6.23814 -2.01336 0
M  V30 8324 H 797.841 5.98952 -0.31892 0
M  V30 8325 H 799.52 6.43004 -0.717957 0
M  V30 8326 N 799.652 0.226554 1.55963 0
M  V30 8327 C 800.88 -0.408507 2.02827 0
M  V30 8328 C 801.295 -1.52994 1.10627 0
M  V30 8329 O 800.652 -1.82126 0.116809 0
M  V30 8330 C 800.703 -0.93545 3.49187 0
M  V30 8331 O 800.424 0.141273 4.37872 0
M  V30 8332 C 801.925 -1.64325 4.11719 0
M  V30 8333 H 799.145 -0.099442 0.66359 0
M  V30 8334 H 801.689 0.344471 2.01578 0
M  V30 8335 H 799.844 -1.63868 3.51036 0
M  V30 8336 H 800.258 -0.25558 5.23877 0
M  V30 8337 H 801.732 -1.9639 5.15883 0
M  V30 8338 H 802.209 -2.55815 3.57009 0
M  V30 8339 H 802.815 -0.9851 4.13734 0
M  V30 8340 N 801.13 -1.57531 -0.0467866 0
M  V30 8341 C 802.379 -1.87632 -0.740069 0
M  V30 8342 C 802.692 -0.822691 -1.77457 0
M  V30 8343 O 803.898 -1.01235 -2.5192 0
M  V30 8344 C 802.354 -3.32917 -1.36727 0
M  V30 8345 C 801.962 -4.46469 -0.370035 0
M  V30 8346 C 803.706 -3.72189 -2.04146 0
M  V30 8347 C 801.613 -5.82806 -1.00457 0
M  V30 8348 H 800.543 -0.70002 -0.280158 0
M  V30 8349 H 803.194 -1.83499 0.00607151 0
M  V30 8350 H 801.576 -3.31739 -2.16252 0
M  V30 8351 H 802.75 -4.59085 0.397217 0
M  V30 8352 H 801.065 -4.15914 0.201079 0
M  V30 8353 H 803.662 -4.71357 -2.52441 0
M  V30 8354 H 804.005 -3.03268 -2.85192 0
M  V30 8355 H 804.538 -3.75465 -1.3142 0
M  V30 8356 H 801.277 -6.55083 -0.233907 0
M  V30 8357 H 800.797 -5.73944 -1.74209 0
M  V30 8358 H 802.476 -6.28961 -1.51713 0
M  V30 8359 N 802.608 0.318715 -1.54344 0
M  V30 8360 C 804.019 0.89285 -1.63967 0
M  V30 8361 C 804.37 1.88712 -0.536855 0
M  V30 8362 O 803.495 2.13877 0.329457 0
M  V30 8363 C 804.09 1.62618 -2.97222 0
M  V30 8364 C 802.649 2.14897 -3.09025 0
M  V30 8365 C 801.796 0.975909 -2.5956 0
M  V30 8366 H 804.747 0.0961687 -1.58408 0
M  V30 8367 H 804.768 2.4907 -2.87653 0
M  V30 8368 H 804.28 0.902286 -3.77466 0
M  V30 8369 H 802.381 2.90387 -2.33465 0
M  V30 8370 H 802.494 2.39565 -4.14904 0
M  V30 8371 H 800.858 1.35646 -2.15574 0
M  V30 8372 H 801.641 0.266253 -3.42266 0
M  V30 8373 N 804.086 1.46499 0.581025 0
M  V30 8374 C 805.497 1.4604 1.16315 0
M  V30 8375 C 805.848 0.202154 1.95156 0
M  V30 8376 O 804.973 -0.694638 2.04948 0
M  V30 8377 C 805.568 2.64593 2.11604 0
M  V30 8378 C 804.127 2.6717 2.65136 0
M  V30 8379 C 803.274 2.38753 1.4104 0
M  V30 8380 H 806.225 1.54354 0.368871 0
M  V30 8381 H 806.246 2.40207 2.95095 0
M  V30 8382 H 805.758 3.56154 1.54194 0
M  V30 8383 H 803.859 1.79685 3.26411 0
M  V30 8384 H 803.972 3.67182 3.07757 0
M  V30 8385 H 802.336 1.88845 1.70908 0
M  V30 8386 H 803.119 3.32493 0.854588 0
M  V30 8387 N 805.565 -0.825799 1.34232 0
M  V30 8388 C 806.79 -1.61883 1.29648 0
M  V30 8389 C 807.215 -1.87669 -0.127295 0
M  V30 8390 O 806.573 -1.45016 -1.08813 0
M  V30 8391 C 806.621 -2.93846 2.09014 0
M  V30 8392 O 805.725 -3.85778 1.4577 0
M  V30 8393 H 805.066 -0.492454 0.445405 0
M  V30 8394 H 807.596 -1.02641 1.76992 0
M  V30 8395 H 807.606 -3.43435 2.20264 0
M  V30 8396 H 806.281 -2.74401 3.12533 0
M  V30 8397 H 804.858 -3.4429 1.43245 0
M  V30 8398 N 807.043 -1.17915 -1.04565 0
M  V30 8399 C 808.271 -0.99616 -1.8134 0
M  V30 8400 C 808.686 0.455509 -1.83223 0
M  V30 8401 O 808.043 1.31636 -1.26405 0
M  V30 8402 C 808.094 -1.53758 -3.27171 0
M  V30 8403 O 807.815 -2.93241 -3.25486 0
M  V30 8404 C 809.316 -1.40007 -4.2061 0
M  V30 8405 H 806.536 -0.352055 -0.571225 0
M  V30 8406 H 809.08 -1.56349 -1.31815 0
M  V30 8407 H 807.235 -1.01213 -3.73945 0
M  V30 8408 H 807.649 -3.18392 -4.16805 0
M  V30 8409 H 809.123 -1.82695 -5.2089 0
M  V30 8410 H 809.6 -0.348054 -4.37819 0
M  V30 8411 H 810.206 -1.916 -3.79697 0
M  V30 8412 N 808.521 1.23394 -0.980386 0
M  V30 8413 C 809.932 1.73631 -0.686239 0
M  V30 8414 C 810.283 1.79259 0.797541 0
M  V30 8415 O 809.408 1.43046 1.62379 0
M  V30 8416 C 810.003 3.15332 -1.239 0
M  V30 8417 C 808.562 3.63024 -0.994494 0
M  V30 8418 C 807.709 2.41279 -1.36673 0
M  V30 8419 H 810.66 1.08918 -1.15423 0
M  V30 8420 H 810.681 3.75556 -0.611414 0
M  V30 8421 H 810.193 3.11204 -2.31892 0
M  V30 8422 H 808.294 3.72535 0.0693492 0
M  V30 8423 H 808.407 4.49825 -1.64906 0
M  V30 8424 H 806.771 2.42295 -0.785195 0
M  V30 8425 H 807.554 2.39822 -2.45642 0
M  V30 8426 N 809.999 0.752036 1.385 0
M  V30 8427 C 810.962 0.131587 2.28822 0
M  V30 8428 C 811.962 -0.649149 1.47115 0
M  V30 8429 O 813.152 -0.475645 1.67581 0
M  V30 8430 C 810.284 -0.822101 3.30839 0
M  V30 8431 H 811.477 0.927551 2.85196 0
M  V30 8432 H 809.03 0.518945 1.47434 0
M  V30 8433 H 809.765 -1.6438 2.79553 0
M  V30 8434 H 809.55 -0.264689 3.91206 0
M  V30 8435 H 811.04 -1.25226 3.98382 0
M  V30 8436 N 811.477 -1.49425 0.500989 0
M  V30 8437 C 812.723 -2.02753 -0.0436 0
M  V30 8438 C 813.056 -1.37991 -1.36646 0
M  V30 8439 O 812.331 -0.515597 -1.87542 0
M  V30 8440 C 812.614 -3.59565 -0.19616 0
M  V30 8441 C 812.467 -4.34855 1.14982 0
M  V30 8442 C 813.786 -4.30014 -0.936795 0
M  V30 8443 H 810.905 -0.73686 -0.0143711 0
M  V30 8444 H 813.547 -1.78448 0.652397 0
M  V30 8445 H 811.697 -3.80405 -0.788959 0
M  V30 8446 H 813.369 -4.25512 1.7815 0
M  V30 8447 H 811.612 -3.97414 1.73911 0
M  V30 8448 H 812.283 -5.42933 0.996385 0
M  V30 8449 H 814.759 -4.1383 -0.434036 0
M  V30 8450 H 813.635 -5.39483 -1.01238 0
M  V30 8451 H 813.896 -3.95257 -1.9805 0
M  V30 8452 N 812.955 -0.234822 -1.55841 0
M  V30 8453 C 814.366 0.270588 -1.84729 0
M  V30 8454 C 814.717 1.58494 -1.15646 0
M  V30 8455 O 813.842 2.12071 -0.430667 0
M  V30 8456 C 814.437 0.497733 -3.35124 0
M  V30 8457 C 812.996 0.947428 -3.64281 0
M  V30 8458 C 812.143 0.01787 -2.77294 0
M  V30 8459 H 815.094 -0.457691 -1.51957 0
M  V30 8460 H 815.115 1.34199 -3.56049 0
M  V30 8461 H 814.627 -0.459037 -3.85376 0
M  V30 8462 H 812.728 1.91709 -3.19497 0
M  V30 8463 H 812.841 0.812651 -4.72158 0
M  V30 8464 H 811.205 0.527071 -2.49187 0
M  V30 8465 H 811.988 -0.934056 -3.30349 0
M  V30 8466 N 814.433 1.57553 0.0384317 0
M  V30 8467 C 815.365 2.02726 1.06934 0
M  V30 8468 C 816.378 0.938502 1.33026 0
M  V30 8469 O 817.567 1.21595 1.30678 0
M  V30 8470 C 814.667 2.37958 2.41308 0
M  V30 8471 C 813.84 3.69098 2.34703 0
M  V30 8472 C 812.899 3.91623 3.51451 0
M  V30 8473 O 811.925 4.628 3.31368 0
M  V30 8474 N 813.127 3.36538 4.72993 0
M  V30 8475 H 815.892 2.91781 0.684381 0
M  V30 8476 H 813.453 1.60307 0.226542 0
M  V30 8477 H 815.445 2.50172 3.18113 0
M  V30 8478 H 814.015 1.54621 2.71682 0
M  V30 8479 H 813.235 3.67325 1.43059 0
M  V30 8480 H 814.523 4.55144 2.27424 0
M  V30 8481 H 813.921 2.78828 4.92211 0
M  V30 8482 H 812.478 3.54148 5.47195 0
M  V30 8483 N 815.911 -0.310526 1.54511 0
M  V30 8484 C 816.874 -1.3657 1.84068 0
M  V30 8485 C 817.874 -1.44123 0.713097 0
M  V30 8486 O 819.064 -1.43924 0.981399 0
M  V30 8487 C 816.196 -2.75162 2.01243 0
M  V30 8488 H 817.389 -1.1161 2.78358 0
M  V30 8489 H 814.942 -0.546699 1.46427 0
M  V30 8490 H 815.677 -3.05359 1.09208 0
M  V30 8491 H 815.462 -2.71071 2.83307 0
M  V30 8492 H 816.952 -3.51473 2.25514 0
M  V30 8493 N 817.389 -1.46805 -0.573248 0
M  V30 8494 C 818.8 -1.46655 -1.15539 0
M  V30 8495 C 819.151 -0.2125 -1.95046 0
M  V30 8496 O 818.276 0.683759 -2.05314 0
M  V30 8497 C 818.871 -2.65711 -2.10198 0
M  V30 8498 C 817.43 -2.68572 -2.63716 0
M  V30 8499 C 816.577 -2.39498 -1.39772 0
M  V30 8500 H 819.528 -1.54547 -0.36068 0
M  V30 8501 H 819.549 -2.41768 -2.93817 0
M  V30 8502 H 819.061 -3.56967 -1.52303 0
M  V30 8503 H 817.162 -1.81414 -3.25453 0
M  V30 8504 H 817.275 -3.68809 -3.05805 0
M  V30 8505 H 815.639 -1.89749 -1.69904 0
M  V30 8506 H 816.422 -3.32942 -0.836943 0
M  V30 8507 N 818.867 0.818669 -1.34668 0
M  V30 8508 C 820.113 1.57746 -1.27453 0
M  V30 8509 C 820.446 1.93588 0.154077 0
M  V30 8510 O 819.721 1.60371 1.10051 0
M  V30 8511 C 820.004 2.87414 -2.16945 0
M  V30 8512 C 819.857 2.58125 -3.68363 0
M  V30 8513 C 821.176 3.89021 -2.05792 0
M  V30 8514 H 818.295 0.572339 -0.464324 0
M  V30 8515 H 820.937 0.942784 -1.64959 0
M  V30 8516 H 819.087 3.41576 -1.85089 0
M  V30 8517 H 820.759 2.10239 -4.10606 0
M  V30 8518 H 819.002 1.91503 -3.89242 0
M  V30 8519 H 819.673 3.5061 -4.26353 0
M  V30 8520 H 822.149 3.44224 -2.33771 0
M  V30 8521 H 821.025 4.77548 -2.70628 0
M  V30 8522 H 821.286 4.29786 -1.03618 0
M  V30 8523 N 820.346 1.18468 1.03938 0
M  V30 8524 C 821.278 0.870615 2.12021 0
M  V30 8525 C 822.291 -0.132318 1.62261 0
M  V30 8526 O 823.48 0.0956901 1.78243 0
M  V30 8527 C 820.58 0.279727 3.37744 0
M  V30 8528 C 819.753 1.32863 4.16733 0
M  V30 8529 C 818.812 0.753204 5.20781 0
M  V30 8530 O 817.838 1.42825 5.5099 0
M  V30 8531 N 819.04 -0.448664 5.78764 0
M  V30 8532 H 821.805 1.80091 2.39556 0
M  V30 8533 H 819.366 1.08524 1.20142 0
M  V30 8534 H 821.358 -0.118829 4.04526 0
M  V30 8535 H 819.928 -0.554621 3.07641 0
M  V30 8536 H 819.148 1.90245 3.45254 0
M  V30 8537 H 820.436 2.03574 4.66299 0
M  V30 8538 H 819.834 -1.01481 5.56523 0
M  V30 8539 H 818.391 -0.789125 6.47005 0
M  V30 8540 N 821.824 -1.22873 0.986916 0
M  V30 8541 C 823.072 -1.91084 0.658121 0
M  V30 8542 C 823.393 -1.77304 -0.811675 0
M  V30 8543 O 822.663 -1.15649 -1.58121 0
M  V30 8544 H 821.243 -0.707251 0.240427 0
M  V30 8545 H 823.905 -1.49357 1.25213 0
M  V30 8546 H 823.001 -2.98373 0.915428 0
M  V30 8547 N 823.302 -0.75937 -1.38099 0
M  V30 8548 C 824.212 -0.13774 -2.34195 0
M  V30 8549 C 825.228 0.693985 -1.59561 0
M  V30 8550 O 826.404 0.616792 -1.91723 0
M  V30 8551 C 823.469 0.740535 -3.38699 0
M  V30 8552 C 822.53 -0.106225 -4.29169 0
M  V30 8553 C 821.763 0.730225 -5.28681 0
M  V30 8554 O 821.986 1.96796 -5.35376 0
M  V30 8555 O 820.92 0.145969 -6.01723 0
M  V30 8556 H 824.746 -0.931512 -2.89061 0
M  V30 8557 H 822.331 -0.520345 -1.40046 0
M  V30 8558 H 824.213 1.24232 -4.02672 0
M  V30 8559 H 822.888 1.51271 -2.8618 0
M  V30 8560 H 821.795 -0.654088 -3.68337 0
M  V30 8561 H 823.128 -0.841186 -4.84959 0
M  V30 8562 N 824.78 1.49157 -0.508906 0
M  V30 8563 C 826.057 1.95363 0.0961913 0
M  V30 8564 C 826.437 1.45064 1.53362 0
M  V30 8565 O 825.785 0.667835 2.18523 0
M  V30 8566 C 825.995 3.49 0.000688881 0
M  V30 8567 C 827.343 4.24257 0.170632 0
M  V30 8568 O 828.367 3.5612 0.0754994 0
M  V30 8569 O 827.226 5.45267 0.366957 0
M  V30 8570 H 824.32 0.821984 0.0909489 0
M  V30 8571 H 826.866 1.59769 -0.572007 0
M  V30 8572 H 825.638 3.78269 -1.00143 0
M  V30 8573 H 825.261 3.91233 0.708682 0
M  V30 8574 N 826.258 0.243083 1.55714 0
M  V30 8575 C 827.488 -0.38641 2.02954 0
M  V30 8576 C 827.896 -1.52358 1.12177 0
M  V30 8577 O 827.239 -1.83255 0.127853 0
M  V30 8578 C 827.301 -0.959388 3.46462 0
M  V30 8579 C 826.965 0.0450546 4.56978 0
M  V30 8580 C 827.962 0.853224 5.12851 0
M  V30 8581 C 825.647 0.170041 5.02012 0
M  V30 8582 C 827.641 1.77288 6.12248 0
M  V30 8583 C 825.328 1.0932 6.01242 0
M  V30 8584 C 826.326 1.89315 6.56238 0
M  V30 8585 O 826.014 2.80075 7.53534 0
M  V30 8586 H 825.746 -0.0964333 0.669086 0
M  V30 8587 H 828.3 0.363399 2.0216 0
M  V30 8588 H 826.53 -1.75869 3.44394 0
M  V30 8589 H 828.219 -1.49856 3.77224 0
M  V30 8590 H 828.985 0.767229 4.78893 0
M  V30 8591 H 824.864 -0.442528 4.58871 0
M  V30 8592 H 828.408 2.39768 6.55101 0
M  V30 8593 H 824.305 1.18013 6.3462 0
M  V30 8594 H 825.073 2.74393 7.71136 0
M  V30 8595 N 827.736 -1.57571 -0.0300757 0
M  V30 8596 C 828.984 -1.88852 -0.719666 0
M  V30 8597 C 829.305 -0.840645 -1.75949 0
M  V30 8598 O 828.575 0.125854 -1.95495 0
M  V30 8599 H 827.155 -0.696965 -0.268792 0
M  V30 8600 H 829.817 -1.949 0.00373285 0
M  V30 8601 H 828.913 -2.87695 -1.20987 0
M  V30 8602 N 829.214 0.302327 -1.54673 0
M  V30 8603 C 830.161 1.37282 -1.85532 0
M  V30 8604 C 831.131 1.50437 -0.704129 0
M  V30 8605 O 832.316 1.65317 -0.952627 0
M  V30 8606 C 829.456 2.73309 -2.10704 0
M  V30 8607 C 828.569 2.68614 -3.38335 0
M  V30 8608 C 827.704 3.96626 -3.53357 0
M  V30 8609 C 826.743 3.86324 -4.74784 0
M  V30 8610 N 825.88 5.06109 -4.86619 0
M  V30 8611 H 830.72 1.10265 -2.76849 0
M  V30 8612 H 828.257 0.533346 -1.37091 0
M  V30 8613 H 830.215 3.52414 -2.23294 0
M  V30 8614 H 828.845 2.98589 -1.22656 0
M  V30 8615 H 827.897 1.81381 -3.34373 0
M  V30 8616 H 829.209 2.56891 -4.27561 0
M  V30 8617 H 828.363 4.84168 -3.65604 0
M  V30 8618 H 827.102 4.11182 -2.62261 0
M  V30 8619 H 826.107 2.97166 -4.62572 0
M  V30 8620 H 827.332 3.73315 -5.67286 0
M  V30 8621 H 825.278 5.2113 -3.98446 0
M  V30 8622 H 825.195 4.96804 -5.69844 0
M  V30 8623 H 826.463 5.95306 -5.03221 0
M  V30 8624 N 830.692 1.47107 0.565454 0
M  V30 8625 C 831.94 1.53005 1.32038 0
M  V30 8626 C 832.261 0.190453 1.94068 0
M  V30 8627 O 831.531 -0.784783 1.79494 0
M  V30 8628 H 830.111 0.563578 0.490294 0
M  V30 8629 H 832.773 1.83351 0.660928 0
M  V30 8630 H 831.869 2.29215 2.11818 0
M  V30 8631 N 832.17 -0.811516 1.35101 0
M  V30 8632 C 833.416 -1.57068 1.28287 0
M  V30 8633 C 833.749 -1.93667 -0.143808 0
M  V30 8634 O 833.024 -1.60953 -1.09199 0
M  V30 8635 C 833.307 -2.86259 2.18466 0
M  V30 8636 C 833.16 -2.56168 3.69727 0
M  V30 8637 C 834.479 -3.87924 2.07852 0
M  V30 8638 H 831.598 -0.569869 0.467353 0
M  V30 8639 H 834.24 -0.934023 1.65457 0
M  V30 8640 H 832.39 -3.4059 1.86898 0
M  V30 8641 H 834.062 -2.08059 4.11715 0
M  V30 8642 H 832.305 -1.89436 3.90252 0
M  V30 8643 H 832.976 -3.48344 4.28206 0
M  V30 8644 H 835.452 -3.4298 2.35593 0
M  V30 8645 H 834.328 -4.76106 2.73157 0
M  V30 8646 H 834.589 -4.2923 1.05896 0
M  V30 8647 N 833.648 -1.19017 -1.03309 0
M  V30 8648 C 834.897 -0.984542 -1.76039 0
M  V30 8649 C 835.21 0.485937 -1.89468 0
M  V30 8650 O 836.416 0.810278 -2.59127 0
M  V30 8651 C 834.872 -1.71261 -3.1654 0
M  V30 8652 C 834.48 -3.22291 -3.11179 0
M  V30 8653 C 836.224 -1.59007 -3.93595 0
M  V30 8654 C 834.131 -3.87704 -4.46587 0
M  V30 8655 H 833.061 -0.364749 -0.659905 0
M  V30 8656 H 835.712 -1.4247 -1.15649 0
M  V30 8657 H 834.094 -1.20025 -3.77373 0
M  V30 8658 H 835.268 -3.80611 -2.59753 0
M  V30 8659 H 833.583 -3.34772 -2.47622 0
M  V30 8660 H 836.18 -2.05232 -4.93745 0
M  V30 8661 H 836.523 -0.543534 -4.12736 0
M  V30 8662 H 837.056 -2.07564 -3.39355 0
M  V30 8663 H 833.795 -4.92437 -4.3265 0
M  V30 8664 H 833.315 -3.34172 -4.98085 0
M  V30 8665 H 834.994 -3.91008 -5.15482 0
M  V30 8666 N 835.127 1.22348 -0.993418 0
M  V30 8667 C 836.374 1.9111 -0.669568 0
M  V30 8668 C 836.702 1.77357 0.79843 0
M  V30 8669 O 835.957 1.13675 1.593 0
M  V30 8670 C 836.256 3.42477 -1.02197 0
M  V30 8671 C 835.922 3.7642 -2.48232 0
M  V30 8672 C 834.584 3.85395 -2.88139 0
M  V30 8673 C 836.936 3.9253 -3.42884 0
M  V30 8674 C 834.264 4.07918 -4.21687 0
M  V30 8675 C 836.616 4.16557 -4.76091 0
M  V30 8676 C 835.28 4.23757 -5.15739 0
M  V30 8677 H 834.55 0.699321 -0.245012 0
M  V30 8678 H 837.197 1.45102 -1.2497 0
M  V30 8679 H 835.502 3.90143 -0.359921 0
M  V30 8680 H 837.199 3.93935 -0.74942 0
M  V30 8681 H 833.789 3.70017 -2.16299 0
M  V30 8682 H 837.973 3.84974 -3.13224 0
M  V30 8683 H 833.229 4.11719 -4.51993 0
M  V30 8684 H 837.403 4.27966 -5.4938 0
M  V30 8685 H 835.03 4.40962 -6.19239 0
M  V30 8686 N 836.605 0.766683 1.37694 0
M  V30 8687 C 837.835 0.339446 2.03792 0
M  V30 8688 C 838.243 -1.04153 1.57952 0
M  V30 8689 O 837.586 -1.67521 0.753826 0
M  V30 8690 C 837.648 0.29822 3.58261 0
M  V30 8691 C 837.312 1.62293 4.27212 0
M  V30 8692 C 838.309 2.57447 4.51682 0
M  V30 8693 C 835.994 1.89597 4.65143 0
M  V30 8694 C 837.988 3.78117 5.13134 0
M  V30 8695 C 835.675 3.10538 5.26317 0
M  V30 8696 C 836.673 4.04617 5.50249 0
M  V30 8697 O 836.361 5.23429 6.10145 0
M  V30 8698 H 836.093 0.140952 0.661142 0
M  V30 8699 H 838.647 1.04022 1.77111 0
M  V30 8700 H 836.877 -0.458897 3.83967 0
M  V30 8701 H 838.566 -0.101263 4.05774 0
M  V30 8702 H 839.332 2.37633 4.22795 0
M  V30 8703 H 835.211 1.17199 4.45854 0
M  V30 8704 H 838.755 4.51563 5.3173 0
M  V30 8705 H 834.652 3.3024 5.54628 0
M  V30 8706 H 835.42 5.24187 6.28626 0
M  V30 8707 N 838.083 -1.48885 0.516809 0
M  V30 8708 C 839.013 -2.32241 -0.242157 0
M  V30 8709 C 839.994 -1.41258 -0.947633 0
M  V30 8710 O 841.179 -1.70156 -0.935973 0
M  V30 8711 C 838.309 -3.22151 -1.29754 0
M  V30 8712 C 837.263 -4.22053 -0.710995 0
M  V30 8713 C 836.589 -5.01007 -1.86806 0
M  V30 8714 C 837.889 -5.21388 0.30853 0
M  V30 8715 H 839.583 -2.95943 0.453651 0
M  V30 8716 H 837.129 -1.42316 0.219612 0
M  V30 8717 H 839.082 -3.79284 -1.83634 0
M  V30 8718 H 837.806 -2.56423 -2.02274 0
M  V30 8719 H 836.465 -3.66087 -0.193819 0
M  V30 8720 H 836.113 -4.31713 -2.58133 0
M  V30 8721 H 835.813 -5.68615 -1.48159 0
M  V30 8722 H 837.337 -5.60989 -2.4109 0
M  V30 8723 H 838.751 -5.73122 -0.142703 0
M  V30 8724 H 837.148 -5.96975 0.611673 0
M  V30 8725 H 838.218 -4.69329 1.21894 0
M  V30 8726 N 839.561 -0.251338 -1.55583 0
M  V30 8727 C 840.977 0.103409 -1.59265 0
M  V30 8728 C 841.177 1.56559 -1.26852 0
M  V30 8729 O 840.233 2.31071 -1.01796 0
M  V30 8730 C 841.546 -0.249781 -2.99661 0
M  V30 8731 C 843.094 -0.194442 -3.12395 0
M  V30 8732 C 843.569 -0.521728 -4.55019 0
M  V30 8733 N 845.06 -0.472393 -4.60785 0
M  V30 8734 C 845.795 -0.698737 -5.69127 0
M  V30 8735 N 845.291 -0.988443 -6.85713 0
M  V30 8736 N 847.084 -0.629143 -5.58568 0
M  V30 8737 H 839.235 -1.20484 -1.74921 0
M  V30 8738 H 841.498 -0.485092 -0.814488 0
M  V30 8739 H 841.204 -1.26577 -3.28133 0
M  V30 8740 H 841.078 0.420973 -3.74844 0
M  V30 8741 H 843.465 0.812229 -2.83702 0
M  V30 8742 H 843.546 -0.899111 -2.39478 0
M  V30 8743 H 843.19 -1.52597 -4.84434 0
M  V30 8744 H 843.12 0.204468 -5.26203 0
M  V30 8745 H 845.611 -0.257386 -3.77022 0
M  V30 8746 H 845.924 -1.14846 -7.64219 0
M  V30 8747 H 844.269 -1.02596 -6.87386 0
M  V30 8748 H 847.46 -0.402826 -4.66364 0
M  V30 8749 H 847.633 -0.808935 -6.42931 0
M  V30 8750 N 841.039 1.57585 0.0217189 0
M  V30 8751 C 842.316 1.80779 0.74687 0
M  V30 8752 C 842.696 0.851163 1.9318 0
M  V30 8753 O 842.044 -0.105039 2.28258 0
M  V30 8754 C 842.254 3.28696 1.17302 0
M  V30 8755 C 843.602 3.93871 1.58589 0
M  V30 8756 O 844.626 3.3289 1.2674 0
M  V30 8757 O 843.485 5.01254 2.1773 0
M  V30 8758 H 840.579 0.743666 0.361786 0
M  V30 8759 H 843.125 1.697 -0.00206785 0
M  V30 8760 H 841.897 3.89927 0.327453 0
M  V30 8761 H 841.52 3.44692 1.98174 0
M  V30 8762 N 842.517 -0.29412 1.54831 0
M  V30 8763 C 843.464 -1.36296 1.86258 0
M  V30 8764 C 844.434 -1.50061 0.712097 0
M  V30 8765 O 845.619 -1.64809 0.961381 0
M  V30 8766 C 842.759 -2.72187 2.12151 0
M  V30 8767 C 841.872 -2.66816 3.39755 0
M  V30 8768 C 841.007 -3.94747 3.55455 0
M  V30 8769 C 840.046 -3.838 4.76827 0
M  V30 8770 N 839.183 -5.03521 4.89296 0
M  V30 8771 H 844.023 -1.08796 2.7743 0
M  V30 8772 H 841.56 -0.526069 1.37371 0
M  V30 8773 H 843.518 -3.51225 2.25159 0
M  V30 8774 H 842.148 -2.97934 1.24237 0
M  V30 8775 H 841.2 -1.79605 3.3533 0
M  V30 8776 H 842.512 -2.5462 4.28917 0
M  V30 8777 H 841.666 -4.82223 3.68166 0
M  V30 8778 H 840.405 -4.09785 2.64438 0
M  V30 8779 H 839.41 -2.94708 4.64141 0
M  V30 8780 H 840.635 -3.70301 5.69258 0
M  V30 8781 H 838.581 -5.1901 4.01204 0
M  V30 8782 H 838.498 -4.93775 5.72471 0
M  V30 8783 H 839.766 -5.92629 5.06371 0
M  V30 8784 N 843.995 -1.47404 -0.557645 0
M  V30 8785 C 845.241 -1.54235 -1.31679 0
M  V30 8786 C 845.574 -0.203782 -1.93128 0
M  V30 8787 O 844.849 0.787536 -1.77843 0
M  V30 8788 C 845.132 -2.66003 -2.42723 0
M  V30 8789 C 844.985 -4.09475 -1.86145 0
M  V30 8790 C 846.304 -2.73685 -3.44652 0
M  V30 8791 H 843.423 -0.561466 -0.477415 0
M  V30 8792 H 846.065 -1.79459 -0.624067 0
M  V30 8793 H 844.215 -2.44627 -3.01811 0
M  V30 8794 H 845.887 -4.42213 -1.31321 0
M  V30 8795 H 844.13 -4.17774 -1.16823 0
M  V30 8796 H 844.801 -4.83451 -2.66418 0
M  V30 8797 H 847.277 -2.92968 -2.95481 0
M  V30 8798 H 846.153 -3.53665 -4.19777 0
M  V30 8799 H 846.414 -1.80726 -4.03473 0
M  V30 8800 N 845.473 0.80434 -1.35529 0
M  V30 8801 C 846.719 1.56385 -1.29118 0
M  V30 8802 C 847.052 1.9374 0.133536 0
M  V30 8803 O 846.327 1.6153 1.08344 0
M  V30 8804 C 846.61 2.85097 -2.19981 0
M  V30 8805 C 846.463 2.54204 -3.7108 0
M  V30 8806 C 847.782 3.86817 -2.09907 0
M  V30 8807 H 844.901 0.567382 -0.470368 0
M  V30 8808 H 847.543 0.925235 -1.6595 0
M  V30 8809 H 845.693 3.39594 -1.88701 0
M  V30 8810 H 847.365 2.05872 -4.12813 0
M  V30 8811 H 845.608 1.87364 -3.91251 0
M  V30 8812 H 846.279 3.46068 -4.30048 0
M  V30 8813 H 848.755 3.41725 -2.37409 0
M  V30 8814 H 847.631 4.7465 -2.75678 0
M  V30 8815 H 847.892 4.28663 -1.08171 0
M  V30 8816 N 846.951 1.19563 1.02676 0
M  V30 8817 C 848.197 1.00105 1.76371 0
M  V30 8818 C 848.53 -0.466823 1.88506 0
M  V30 8819 O 847.805 -1.34665 1.40341 0
M  V30 8820 C 848.088 1.67321 3.18866 0
M  V30 8821 C 847.941 3.21486 3.1459 0
M  V30 8822 C 849.26 1.39794 4.17308 0
M  V30 8823 H 846.379 0.365075 0.640226 0
M  V30 8824 H 849.021 1.47433 1.19848 0
M  V30 8825 H 847.171 1.27081 3.67128 0
M  V30 8826 H 848.843 3.70953 2.7421 0
M  V30 8827 H 847.086 3.5292 2.52249 0
M  V30 8828 H 847.757 3.63665 4.15273 0
M  V30 8829 H 850.233 1.74685 3.77657 0
M  V30 8830 H 849.109 1.89371 5.15199 0
M  V30 8831 H 849.37 0.323505 4.40915 0
M  V30 8832 N 848.429 -1.21819 0.999893 0
M  V30 8833 C 849.677 -1.90375 0.678351 0
M  V30 8834 C 849.998 -1.78155 -0.792824 0
M  V30 8835 O 849.268 -1.17319 -1.56885 0
M  V30 8836 H 847.848 -0.704661 0.247915 0
M  V30 8837 H 850.51 -1.48021 1.2679 0
M  V30 8838 H 849.606 -2.97385 0.947023 0
M  V30 8839 N 849.908 -0.773975 -1.37286 0
M  V30 8840 C 851.157 -0.335977 -1.98882 0
M  V30 8841 C 851.47 1.09416 -1.62134 0
M  V30 8842 O 852.676 1.63366 -2.1685 0
M  V30 8843 C 851.132 -0.549756 -3.55676 0
M  V30 8844 C 850.74 -1.9903 -4.01361 0
M  V30 8845 C 852.484 -0.175493 -4.24137 0
M  V30 8846 C 850.391 -2.15156 -5.50874 0
M  V30 8847 H 849.321 -0.121877 -0.744085 0
M  V30 8848 H 851.972 -0.953419 -1.56787 0
M  V30 8849 H 850.354 0.137175 -3.95762 0
M  V30 8850 H 851.528 -2.71237 -3.72515 0
M  V30 8851 H 849.843 -2.32137 -3.4569 0
M  V30 8852 H 852.44 -0.274463 -5.33995 0
M  V30 8853 H 852.783 0.874524 -4.07011 0
M  V30 8854 H 853.316 -0.815058 -3.89361 0
M  V30 8855 H 850.055 -3.18485 -5.72929 0
M  V30 8856 H 849.575 -1.47435 -5.81397 0
M  V30 8857 H 851.254 -1.95124 -6.16876 0
M  V30 8858 N 851.386 1.48609 -0.524698 0
M  V30 8859 C 852.632 2.02797 0.0113382 0
M  V30 8860 C 852.965 1.40147 1.34433 0
M  V30 8861 O 852.24 0.545368 1.86698 0
M  V30 8862 C 852.523 3.59832 0.138931 0
M  V30 8863 C 852.376 4.32971 -1.21886 0
M  V30 8864 C 853.695 4.3145 0.868265 0
M  V30 8865 H 850.814 0.736995 0.00264645 0
M  V30 8866 H 853.456 1.77388 -0.680704 0
M  V30 8867 H 851.606 3.81612 0.72834 0
M  V30 8868 H 853.278 4.22624 -1.84897 0
M  V30 8869 H 851.521 3.94597 -1.80211 0
M  V30 8870 H 852.192 5.41279 -1.08263 0
M  V30 8871 H 854.668 4.14468 0.368145 0
M  V30 8872 H 853.544 5.41025 0.926428 0
M  V30 8873 H 853.805 3.98358 1.91737 0
M  V30 8874 N 852.864 0.259585 1.55447 0
M  V30 8875 C 853.794 -0.62852 2.24882 0
M  V30 8876 C 854.775 -1.17128 1.23349 0
M  V30 8877 O 855.96 -1.20829 1.52033 0
M  V30 8878 C 853.09 -1.81983 2.95803 0
M  V30 8879 C 852.044 -1.40929 4.04132 0
M  V30 8880 C 851.37 -2.68246 4.62545 0
M  V30 8881 C 852.67 -0.570956 5.1917 0
M  V30 8882 H 854.364 -0.0495021 2.99359 0
M  V30 8883 H 851.91 -0.0223688 1.43983 0
M  V30 8884 H 853.863 -2.44689 3.43082 0
M  V30 8885 H 852.587 -2.42444 2.18835 0
M  V30 8886 H 851.246 -0.805519 3.57641 0
M  V30 8887 H 850.894 -3.26931 3.82263 0
M  V30 8888 H 850.594 -2.41495 5.35681 0
M  V30 8889 H 852.118 -3.31827 5.12565 0
M  V30 8890 H 853.532 -1.10262 5.62597 0
M  V30 8891 H 851.929 -0.398979 5.98772 0
M  V30 8892 H 852.999 0.413918 4.8313 0
M  V30 8893 N 854.342 -1.57594 -0.0133615 0
M  V30 8894 C 855.588 -1.91105 -0.696457 0
M  V30 8895 C 855.943 -0.859872 -1.72116 0
M  V30 8896 O 855.236 0.129579 -1.91161 0
M  V30 8897 C 855.43 -3.29121 -1.39336 0
M  V30 8898 C 855.259 -4.47565 -0.437666 0
M  V30 8899 C 854.029 -5.05272 -0.0529454 0
M  V30 8900 C 856.227 -5.13479 0.290537 0
M  V30 8901 N 854.209 -6.07232 0.902355 0
M  V30 8902 C 855.58 -6.10147 1.10097 0
M  V30 8903 C 857.635 -4.96627 0.355804 0
M  V30 8904 C 856.338 -6.91778 1.97069 0
M  V30 8905 C 858.364 -5.78833 1.21271 0
M  V30 8906 C 857.726 -6.75083 2.01102 0
M  V30 8907 H 853.825 -0.747882 -0.228464 0
M  V30 8908 H 856.409 -1.94651 0.0438462 0
M  V30 8909 H 854.58 -3.26474 -2.10403 0
M  V30 8910 H 856.312 -3.501 -2.03008 0
M  V30 8911 H 853.067 -4.71747 -0.418486 0
M  V30 8912 H 853.491 -6.6289 1.37498 0
M  V30 8913 H 858.133 -4.22077 -0.247105 0
M  V30 8914 H 855.851 -7.65662 2.58433 0
M  V30 8915 H 859.437 -5.67838 1.26694 0
M  V30 8916 H 858.317 -7.37587 2.66337 0
M  V30 8917 N 855.82 0.285905 -1.54985 0
M  V30 8918 C 856.768 1.37302 -1.87752 0
M  V30 8919 C 857.762 1.51763 -0.752616 0
M  V30 8920 O 858.968 1.53701 -0.936805 0
M  V30 8921 H 855.343 0.458935 -0.59572 0
M  V30 8922 H 857.314 1.0691 -2.78591 0
M  V30 8923 C 856.063 2.72885 -2.15474 0
M  V30 8924 H 855.386 2.62545 -3.01513 0
M  V30 8925 H 856.826 3.47925 -2.42331 0
M  V30 8926 C 855.285 3.22989 -0.958124 0
M  V30 8927 O 855.815 4.01268 -0.186219 0
M  V30 8928 N 854.021 2.80503 -0.759354 0
M  V30 8929 H 853.568 2.16961 -1.38874 0
M  V30 8930 H 853.526 3.14375 0.0396937 0
M  V30 8931 N 857.298 1.47698 0.54982 0
M  V30 8932 C 858.547 1.53961 1.30303 0
M  V30 8933 C 858.86 0.209731 1.94472 0
M  V30 8934 O 860.066 0.150418 2.71083 0
M  V30 8935 C 858.522 2.71436 2.36328 0
M  V30 8936 C 858.13 4.10983 1.78316 0
M  V30 8937 C 859.874 2.86996 3.12783 0
M  V30 8938 C 857.781 5.19747 2.82164 0
M  V30 8939 H 856.711 0.573098 0.489975 0
M  V30 8940 H 859.362 1.73989 0.583089 0
M  V30 8941 H 857.744 2.44801 3.11269 0
M  V30 8942 H 858.918 4.47552 1.09697 0
M  V30 8943 H 857.233 4.00371 1.1442 0
M  V30 8944 H 859.83 3.65422 3.90347 0
M  V30 8945 H 860.173 1.95712 3.67427 0
M  V30 8946 H 860.706 3.13436 2.44954 0
M  V30 8947 H 857.445 6.12932 2.32366 0
M  V30 8948 H 856.965 4.87688 3.49171 0
M  V30 8949 H 858.644 5.47014 3.4552 0
M  V30 8950 N 858.776 -0.797141 1.35954 0
M  V30 8951 C 860.023 -1.55468 1.29754 0
M  V30 8952 C 860.351 -1.94095 -0.125391 0
M  V30 8953 O 859.606 -1.62341 -1.09288 0
M  V30 8954 C 859.905 -2.84847 2.15863 0
M  V30 8955 C 859.571 -2.65394 3.64523 0
M  V30 8956 C 858.233 -2.59796 4.05042 0
M  V30 8957 C 860.585 -2.4727 4.58811 0
M  V30 8958 C 857.913 -2.3403 5.38002 0
M  V30 8959 C 860.265 -2.23032 5.91979 0
M  V30 8960 C 858.929 -2.15862 6.31633 0
M  V30 8961 H 858.199 -0.568897 0.474803 0
M  V30 8962 H 860.846 -0.920299 1.67937 0
M  V30 8963 H 859.151 -3.52712 1.70591 0
M  V30 8964 H 860.848 -3.42597 2.08395 0
M  V30 8965 H 857.438 -2.70602 3.32374 0
M  V30 8966 H 861.622 -2.506 4.28384 0
M  V30 8967 H 856.878 -2.26956 5.67715 0
M  V30 8968 H 861.052 -2.08001 6.64612 0
M  V30 8969 H 858.679 -1.9566 7.34589 0
M  V30 8970 N 860.254 -1.20106 -1.0204 0
M  V30 8971 C 861.202 -0.943231 -2.12617 0
M  V30 8972 C 862.196 0.104042 -1.6908 0
M  V30 8973 O 863.402 -0.0459732 -1.79941 0
M  V30 8974 H 859.777 -0.28767 -0.694802 0
M  V30 8975 H 861.748 -1.88221 -2.3155 0
M  V30 8976 C 860.497 -0.50771 -3.43973 0
M  V30 8977 H 859.82 -1.30514 -3.77897 0
M  V30 8978 H 861.26 -0.366486 -4.22413 0
M  V30 8979 C 859.719 0.77939 -3.27761 0
M  V30 8980 O 860.249 1.83876 -3.57145 0
M  V30 8981 N 858.455 0.739931 -2.81022 0
M  V30 8982 H 858.002 -0.122426 -2.57309 0
M  V30 8983 H 857.96 1.60147 -2.70556 0
M  V30 8984 N 861.732 1.21287 -1.00634 0
M  V30 8985 C 863.148 1.42467 -0.719389 0
M  V30 8986 C 863.348 1.88767 0.704927 0
M  V30 8987 O 862.404 2.05004 1.47409 0
M  V30 8988 C 863.717 2.455 -1.73639 0
M  V30 8989 C 865.265 2.59281 -1.75335 0
M  V30 8990 C 865.74 3.65547 -2.75934 0
M  V30 8991 N 867.231 3.73019 -2.74611 0
M  V30 8992 C 867.966 4.54873 -3.4911 0
M  V30 8993 N 867.462 5.40614 -4.33253 0
M  V30 8994 N 869.255 4.49309 -3.37754 0
M  V30 8995 H 861.406 0.895454 -1.92602 0
M  V30 8996 H 863.669 0.455491 -0.831404 0
M  V30 8997 H 863.375 2.18455 -2.75627 0
M  V30 8998 H 863.249 3.44325 -1.54014 0
M  V30 8999 H 865.636 2.85661 -0.740377 0
M  V30 9000 H 865.717 1.60685 -1.99032 0
M  V30 9001 H 865.361 3.39911 -3.77389 0
M  V30 9002 H 865.291 4.63741 -2.49503 0
M  V30 9003 H 867.782 3.11766 -2.13565 0
M  V30 9004 H 868.095 6.0013 -4.86892 0
M  V30 9005 H 866.44 5.40151 -4.37335 0
M  V30 9006 H 869.631 3.81357 -2.71449 0
M  V30 9007 H 869.804 5.12867 -3.9607 0
M  V30 9008 N 863.21 0.781244 1.36873 0
M  V30 9009 C 864.143 0.120106 2.27884 0
M  V30 9010 C 865.121 -0.698961 1.4681 0
M  V30 9011 O 866.305 -0.671694 1.76126 0
M  V30 9012 C 863.432 -0.835804 3.28226 0
M  V30 9013 C 862.478 -0.0995527 4.26384 0
M  V30 9014 S 863.311 1.21903 5.2144 0
M  V30 9015 C 864.467 0.266904 6.25331 0
M  V30 9016 H 864.7 0.891796 2.83609 0
M  V30 9017 H 862.233 0.575075 1.43291 0
M  V30 9018 H 864.191 -1.3819 3.86541 0
M  V30 9019 H 862.852 -1.58068 2.71428 0
M  V30 9020 H 862.045 -0.82457 4.97209 0
M  V30 9021 H 861.647 0.375818 3.72107 0
M  V30 9022 H 863.939 -0.55725 6.75204 0
M  V30 9023 H 864.882 0.943603 7.01785 0
M  V30 9024 H 865.29 -0.126121 5.64359 0
M  V30 9025 N 864.689 -1.48329 0.532571 0
M  V30 9026 C 866.1 -1.86469 0.0927749 0
M  V30 9027 C 866.451 -1.44186 -1.3306 0
M  V30 9028 O 865.576 -0.833741 -1.99694 0
M  V30 9029 C 866.171 -3.38414 0.161588 0
M  V30 9030 C 864.73 -3.75739 -0.223028 0
M  V30 9031 C 863.877 -2.72377 0.520199 0
M  V30 9032 H 866.828 -1.40197 0.743678 0
M  V30 9033 H 866.849 -3.75314 -0.626059 0
M  V30 9034 H 866.361 -3.69159 1.19765 0
M  V30 9035 H 864.462 -3.50608 -1.26113 0
M  V30 9036 H 864.575 -4.78954 0.118385 0
M  V30 9037 H 862.939 -2.54678 -0.0338425 0
M  V30 9038 H 863.722 -3.05965 1.55694 0
M  V30 9039 N 866.167 -0.267825 -1.55308 0
M  V30 9040 C 867.416 0.351635 -1.98611 0
M  V30 9041 C 867.729 1.57522 -1.15957 0
M  V30 9042 O 868.935 2.26717 -1.49371 0
M  V30 9043 C 867.391 0.676986 -3.53475 0
M  V30 9044 C 866.999 -0.526385 -4.44897 0
M  V30 9045 C 868.743 1.25948 -4.05386 0
M  V30 9046 C 866.65 -0.176026 -5.91138 0
M  V30 9047 H 865.58 0.13516 -0.741787 0
M  V30 9048 H 868.231 -0.371333 -1.79704 0
M  V30 9049 H 866.613 1.45866 -3.68156 0
M  V30 9050 H 867.787 -1.30339 -4.41982 0
M  V30 9051 H 866.102 -1.02522 -4.03582 0
M  V30 9052 H 868.699 1.53529 -5.12184 0
M  V30 9053 H 869.042 2.19094 -3.53982 0
M  V30 9054 H 869.575 0.540253 -3.94114 0
M  V30 9055 H 866.314 -1.07518 -6.46622 0
M  V30 9056 H 865.834 0.564363 -5.97139 0
M  V30 9057 H 867.513 0.234365 -6.46575 0
M  V30 9058 N 867.645 1.57599 0.00500368 0
M  V30 9059 C 868.608 2.07058 0.982832 0
M  V30 9060 C 869.608 0.979045 1.27559 0
M  V30 9061 O 870.798 1.24187 1.22161 0
M  V30 9062 C 867.93 2.50782 2.30914 0
M  V30 9063 H 869.123 2.94718 0.555119 0
M  V30 9064 H 866.676 1.54249 0.25237 0
M  V30 9065 H 867.411 1.66351 2.78385 0
M  V30 9066 H 867.196 3.30495 2.10987 0
M  V30 9067 H 868.686 2.89391 3.0107 0
M  V30 9068 N 869.123 -0.277682 1.55134 0
M  V30 9069 C 870.539 -0.624625 1.46869 0
M  V30 9070 C 870.739 -1.89717 0.678958 0
M  V30 9071 O 869.795 -2.51739 0.195939 0
M  V30 9072 C 871.108 -0.755937 2.91043 0
M  V30 9073 C 872.656 -0.850299 3.01229 0
M  V30 9074 C 873.131 -1.01343 4.46647 0
M  V30 9075 N 874.622 -1.07906 4.50456 0
M  V30 9076 C 875.357 -1.224 5.60184 0
M  V30 9077 N 874.853 -1.33642 6.79788 0
M  V30 9078 N 876.646 -1.25473 5.47917 0
M  V30 9079 H 868.797 0.558102 2.04937 0
M  V30 9080 H 871.06 0.188228 0.929125 0
M  V30 9081 H 870.766 0.108593 3.51532 0
M  V30 9082 H 870.64 -1.6377 3.39793 0
M  V30 9083 H 873.027 -1.7053 2.40839 0
M  V30 9084 H 873.108 0.0559681 2.55739 0
M  V30 9085 H 872.752 -0.163102 5.07638 0
M  V30 9086 H 872.682 -1.93427 4.89789 0
M  V30 9087 H 875.173 -1.00477 3.64298 0
M  V30 9088 H 875.486 -1.44522 7.59166 0
M  V30 9089 H 873.831 -1.30655 6.82608 0
M  V30 9090 H 877.022 -1.16317 4.53418 0
M  V30 9091 H 877.195 -1.36424 6.33476 0
M  V30 9092 N 870.601 -1.47988 -0.541979 0
M  V30 9093 C 871.548 -1.61615 -1.6477 0
M  V30 9094 C 872.518 -0.458602 -1.59644 0
M  V30 9095 O 873.703 -0.680585 -1.78249 0
M  V30 9096 C 870.843 -1.65066 -3.03063 0
M  V30 9097 C 869.956 -2.91845 -3.18513 0
M  V30 9098 C 869.091 -2.86534 -4.47294 0
M  V30 9099 C 868.13 -4.0807 -4.5623 0
M  V30 9100 N 867.267 -4.00905 -5.76385 0
M  V30 9101 H 872.107 -2.56046 -1.52461 0
M  V30 9102 H 869.644 -1.26989 -0.742449 0
M  V30 9103 H 871.602 -1.65049 -3.83164 0
M  V30 9104 H 870.232 -0.74136 -3.14171 0
M  V30 9105 H 869.284 -3.01661 -2.31743 0
M  V30 9106 H 870.596 -3.81804 -3.20978 0
M  V30 9107 H 869.75 -2.84851 -5.35672 0
M  V30 9108 H 868.489 -1.94283 -4.47332 0
M  V30 9109 H 867.494 -4.10041 -3.66261 0
M  V30 9110 H 868.719 -5.01465 -4.5794 0
M  V30 9111 H 866.665 -3.11467 -5.77342 0
M  V30 9112 H 866.582 -4.84557 -5.80293 0
M  V30 9113 H 867.85 -4.03263 -6.67083 0
M  V30 9114 N 872.079 0.78992 -1.36375 0
M  V30 9115 C 873.328 1.54296 -1.29906 0
M  V30 9116 C 873.641 1.95234 0.119651 0
M  V30 9117 O 874.847 2.69762 0.306708 0
M  V30 9118 C 873.303 2.78533 -2.27919 0
M  V30 9119 C 872.911 2.44767 -3.75224 0
M  V30 9120 C 874.655 3.56516 -2.30427 0
M  V30 9121 C 872.562 3.65397 -4.65015 0
M  V30 9122 H 871.492 0.579214 -0.482729 0
M  V30 9123 H 874.143 0.866845 -1.61735 0
M  V30 9124 H 872.525 3.47941 -1.89084 0
M  V30 9125 H 873.699 1.83259 -4.22792 0
M  V30 9126 H 872.014 1.79996 -3.75487 0
M  V30 9127 H 874.611 4.46143 -2.94722 0
M  V30 9128 H 874.954 3.95063 -1.31266 0
M  V30 9129 H 875.487 2.94087 -2.67876 0
M  V30 9130 H 872.226 3.31946 -5.65236 0
M  V30 9131 H 871.746 4.26072 -4.22164 0
M  V30 9132 H 873.425 4.32431 -4.81261 0
M  V30 9133 N 873.557 1.20646 1.01402 0
M  V30 9134 C 874.806 1.01242 1.7445 0
M  V30 9135 C 875.119 -0.455732 1.90217 0
M  V30 9136 O 876.325 -0.768951 2.60383 0
M  V30 9137 C 874.781 1.76275 3.13776 0
M  V30 9138 C 874.389 3.27201 3.06013 0
M  V30 9139 C 876.133 1.65248 3.91016 0
M  V30 9140 C 874.04 3.9476 4.40362 0
M  V30 9141 H 872.97 0.375202 0.654018 0
M  V30 9142 H 875.621 1.44292 1.13367 0
M  V30 9143 H 874.003 1.26013 3.75415 0
M  V30 9144 H 875.177 3.84695 2.53665 0
M  V30 9145 H 873.492 3.38669 2.42265 0
M  V30 9146 H 876.089 2.13061 4.90417 0
M  V30 9147 H 876.432 0.609128 4.1182 0
M  V30 9148 H 876.965 2.12937 3.3601 0
M  V30 9149 H 873.704 4.99258 4.24761 0
M  V30 9150 H 873.224 3.42054 4.92706 0
M  V30 9151 H 874.903 3.99159 5.09196 0
M  V30 9152 N 875.035 -1.20752 1.01276 0
M  V30 9153 C 875.982 -2.234 0.579732 0
M  V30 9154 C 876.952 -1.61256 -0.398206 0
M  V30 9155 O 878.137 -1.8845 -0.29851 0
M  V30 9156 C 875.277 -3.45008 -0.0797006 0
M  V30 9157 C 874.39 -4.21597 0.942343 0
M  V30 9158 C 873.525 -5.30591 0.254364 0
M  V30 9159 C 872.564 -5.98919 1.26343 0
M  V30 9160 N 871.701 -6.99511 0.602384 0
M  V30 9161 H 876.541 -2.59801 1.45971 0
M  V30 9162 H 874.078 -1.27663 0.730787 0
M  V30 9163 H 876.036 -4.1444 -0.479125 0
M  V30 9164 H 874.666 -3.09312 -0.923354 0
M  V30 9165 H 873.718 -3.51268 1.45996 0
M  V30 9166 H 875.03 -4.68576 1.70992 0
M  V30 9167 H 874.184 -6.06368 -0.200763 0
M  V30 9168 H 872.923 -4.84639 -0.545553 0
M  V30 9169 H 871.928 -5.21906 1.72898 0
M  V30 9170 H 873.153 -6.46957 2.06456 0
M  V30 9171 H 871.099 -6.55759 -0.177734 0
M  V30 9172 H 871.016 -7.44597 1.30809 0
M  V30 9173 H 872.284 -7.79313 0.17072 0
M  V30 9174 N 876.513 -0.788492 -1.36457 0
M  V30 9175 C 877.79 -0.284484 -1.9352 0
M  V30 9176 C 878.17 1.2232 -1.7205 0
M  V30 9177 O 877.518 2.01424 -1.07892 0
M  V30 9178 C 877.728 -0.676106 -3.42388 0
M  V30 9179 C 879.076 -0.655327 -4.19512 0
M  V30 9180 O 880.1 -0.616523 -3.50824 0
M  V30 9181 O 878.959 -0.697391 -5.42032 0
M  V30 9182 H 876.053 -0.0701769 -0.824017 0
M  V30 9183 H 878.599 -0.870974 -1.45644 0
M  V30 9184 H 877.371 -1.71596 -3.51668 0
M  V30 9185 H 876.994 -0.0634517 -3.97549 0
M  V30 9186 N 877.991 1.48044 -0.54043 0
M  V30 9187 C 879.239 2.02097 -0.0101367 0
M  V30 9188 C 879.56 1.41881 1.33771 0
M  V30 9189 O 878.83 0.587923 1.8687 0
M  V30 9190 H 877.41 0.747 -0.000758716 0
M  V30 9191 H 880.072 1.81639 -0.706634 0
M  V30 9192 H 879.168 3.11969 0.0904474 0
M  V30 9193 N 879.47 0.276058 1.55163 0
M  V30 9194 C 880.38 -0.621066 2.2623 0
M  V30 9195 C 881.396 -1.16931 1.28853 0
M  V30 9196 O 882.572 -1.1994 1.61791 0
M  V30 9197 C 879.637 -1.78824 2.97023 0
M  V30 9198 C 878.698 -1.27657 4.09881 0
M  V30 9199 C 877.931 -2.38812 4.77289 0
M  V30 9200 O 878.154 -3.58188 4.43912 0
M  V30 9201 O 877.088 -2.06915 5.65217 0
M  V30 9202 H 880.914 -0.0453346 3.03666 0
M  V30 9203 H 878.499 0.0434275 1.49337 0
M  V30 9204 H 880.381 -2.46877 3.41511 0
M  V30 9205 H 879.056 -2.35104 2.22503 0
M  V30 9206 H 877.963 -0.56248 3.69847 0
M  V30 9207 H 879.296 -0.759509 4.86305 0
M  V30 9208 N 880.948 -1.576 0.00335426 0
M  V30 9209 C 881.88 -2.0549 -1.01521 0
M  V30 9210 C 882.893 -0.973441 -1.30491 0
M  V30 9211 O 884.082 -1.25017 -1.27409 0
M  V30 9212 C 881.182 -2.44272 -2.34914 0
M  V30 9213 C 880.355 -3.75191 -2.24835 0
M  V30 9214 C 879.414 -4.00804 -3.40944 0
M  V30 9215 O 878.44 -4.71423 -3.18981 0
M  V30 9216 N 879.642 -3.48961 -4.63904 0
M  V30 9217 H 882.407 -2.93493 -0.60678 0
M  V30 9218 H 879.968 -1.60851 -0.18396 0
M  V30 9219 H 881.96 -2.58518 -3.11369 0
M  V30 9220 H 880.53 -1.6177 -2.67487 0
M  V30 9221 H 879.75 -3.70989 -1.3327 0
M  V30 9222 H 881.038 -4.61013 -2.15277 0
M  V30 9223 H 880.436 -2.9178 -4.84645 0
M  V30 9224 H 878.993 -3.68531 -5.37613 0
M  V30 9225 N 882.426 0.269451 -1.5528 0
M  V30 9226 C 883.376 1.33553 -1.84791 0
M  V30 9227 C 884.36 1.44532 -0.707067 0
M  V30 9228 O 885.552 1.48153 -0.968493 0
M  V30 9229 C 882.681 2.69516 -2.12641 0
M  V30 9230 C 881.767 2.62633 -3.32993 0
M  V30 9231 N 882.158 2.25371 -4.52815 0
M  V30 9232 C 880.456 2.93688 -3.35654 0
M  V30 9233 C 881.157 2.28567 -5.34913 0
M  V30 9234 N 880.133 2.67181 -4.73408 0
M  V30 9235 H 883.935 1.03758 -2.74976 0
M  V30 9236 H 881.449 0.478087 -1.55203 0
M  V30 9237 H 883.446 3.46424 -2.3194 0
M  V30 9238 H 882.106 3.00197 -1.23742 0
M  V30 9239 H 883.117 1.9729 -4.7885 0
M  V30 9240 H 879.794 3.29057 -2.56958 0
M  V30 9241 H 881.184 2.02289 -6.40725 0
M  V30 9242 N 883.904 1.48273 0.534124 0
M  V30 9243 C 884.814 1.65162 1.66609 0
M  V30 9244 C 885.83 0.534177 1.65598 0
M  V30 9245 O 887.006 0.804715 1.84625 0
M  V30 9246 C 884.071 1.68354 3.03081 0
M  V30 9247 C 883.132 2.91696 3.1498 0
M  V30 9248 C 882.365 2.94725 4.44941 0
M  V30 9249 O 882.588 2.06285 5.31792 0
M  V30 9250 O 881.522 3.8685 4.61119 0
M  V30 9251 H 885.348 2.60991 1.55298 0
M  V30 9252 H 882.933 1.31626 0.706749 0
M  V30 9253 H 884.815 1.72998 3.84252 0
M  V30 9254 H 883.49 0.756978 3.14725 0
M  V30 9255 H 882.397 2.92586 2.33119 0
M  V30 9256 H 883.73 3.83722 3.0825 0
M  V30 9257 N 885.382 -0.782676 1.36792 0
M  V30 9258 C 886.659 -1.52939 1.21939 0
M  V30 9259 C 887.039 -2.10228 -0.191639 0
M  V30 9260 O 886.387 -1.94574 -1.19805 0
M  V30 9261 C 886.597 -2.61898 2.30674 0
M  V30 9262 C 887.945 -3.29598 2.67676 0
M  V30 9263 O 888.969 -2.72186 2.29768 0
M  V30 9264 O 887.828 -4.3337 3.32946 0
M  V30 9265 H 884.922 -0.676856 0.47518 0
M  V30 9266 H 887.468 -0.82058 1.48542 0
M  V30 9267 H 886.24 -2.17607 3.25212 0
M  V30 9268 H 885.863 -3.40391 2.05475 0
M  V30 9269 N 886.86 -1.21182 -1.00761 0
M  V30 9270 C 887.79 -0.992773 -2.11344 0
M  V30 9271 C 888.771 0.0813618 -1.69905 0
M  V30 9272 O 889.956 -0.0779503 -1.94043 0
M  V30 9273 C 887.086 -0.553826 -3.42856 0
M  V30 9274 C 886.04 -1.57223 -3.98077 0
M  V30 9275 C 885.366 -0.989605 -5.25463 0
M  V30 9276 C 886.666 -2.95839 -4.30438 0
M  V30 9277 H 888.36 -1.91766 -2.29927 0
M  V30 9278 H 885.906 -0.923426 -1.10494 0
M  V30 9279 H 887.859 -0.387771 -4.19612 0
M  V30 9280 H 886.583 0.406702 -3.24058 0
M  V30 9281 H 885.242 -1.7258 -3.23437 0
M  V30 9282 H 884.89 -0.0208743 -5.02996 0
M  V30 9283 H 884.59 -1.66984 -5.63374 0
M  V30 9284 H 886.114 -0.834815 -6.04866 0
M  V30 9285 H 887.528 -2.8394 -4.98047 0
M  V30 9286 H 885.925 -3.60851 -4.79486 0
M  V30 9287 H 886.995 -3.46882 -3.38823 0
M  V30 9288 N 888.338 1.20213 -1.01915 0
M  V30 9289 C 889.286 2.25125 -0.584936 0
M  V30 9290 C 890.28 1.65138 0.377602 0
M  V30 9291 O 891.486 1.78294 0.247245 0
M  V30 9292 H 887.861 0.732333 -0.170858 0
M  V30 9293 H 889.832 2.59075 -1.48063 0
M  V30 9294 C 888.581 3.47651 0.058389 0
M  V30 9295 H 887.904 3.9409 -0.673263 0
M  V30 9296 H 889.344 4.2275 0.325285 0
M  V30 9297 C 887.803 3.10725 1.30199 0
M  V30 9298 O 888.333 3.22491 2.39505 0
M  V30 9299 N 886.539 2.6525 1.18706 0
M  V30 9300 H 886.086 2.55875 0.297618 0
M  V30 9301 H 886.044 2.40913 2.02011 0
M  V30 9302 N 889.816 0.795718 1.36037 0
M  V30 9303 C 890.726 0.199784 2.33748 0
M  V30 9304 C 891.742 -0.651436 1.61345 0
M  V30 9305 O 892.918 -0.565743 1.93291 0
M  V30 9306 C 889.983 -0.650475 3.40543 0
M  V30 9307 C 889.044 0.219974 4.28736 0
M  V30 9308 C 888.277 -0.589798 5.30431 0
M  V30 9309 O 888.5 -1.82532 5.40406 0
M  V30 9310 O 887.434 0.0136187 6.01898 0
M  V30 9311 H 891.26 1.00782 2.8649 0
M  V30 9312 H 888.845 0.557293 1.38617 0
M  V30 9313 H 890.727 -1.13512 4.05824 0
M  V30 9314 H 889.402 -1.4363 2.9009 0
M  V30 9315 H 888.309 0.751516 3.66474 0
M  V30 9316 H 889.642 0.969468 4.82558 0
M  V30 9317 N 891.294 -1.47756 0.548274 0
M  V30 9318 C 892.54 -2.02789 0.0209265 0
M  V30 9319 C 892.873 -1.42268 -1.32187 0
M  V30 9320 O 892.148 -0.575001 -1.85806 0
M  V30 9321 C 892.431 -3.60007 -0.0816674 0
M  V30 9322 C 892.284 -4.30977 1.28759 0
M  V30 9323 C 893.603 -4.32777 -0.799515 0
M  V30 9324 H 890.722 -0.736944 0.00907884 0
M  V30 9325 H 893.364 -1.76282 0.708839 0
M  V30 9326 H 891.514 -3.82722 -0.667537 0
M  V30 9327 H 893.186 -4.19629 1.91597 0
M  V30 9328 H 891.429 -3.9168 1.86466 0
M  V30 9329 H 892.1 -5.39488 1.16861 0
M  V30 9330 H 894.576 -4.15001 -0.30216 0
M  V30 9331 H 893.452 -5.42431 -0.840239 0
M  V30 9332 H 893.713 -4.01358 -1.85375 0
M  V30 9333 N 892.772 -0.284283 -1.55015 0
M  V30 9334 C 893.735 0.586182 -2.21577 0
M  V30 9335 C 894.735 1.07427 -1.1965 0
M  V30 9336 O 895.925 0.972977 -1.44495 0
M  V30 9337 C 893.057 1.80973 -2.88897 0
M  V30 9338 H 894.25 0.00487253 -2.999 0
M  V30 9339 H 891.803 -0.0349696 -1.56261 0
M  V30 9340 H 892.538 2.43131 -2.14611 0
M  V30 9341 H 892.323 1.46757 -3.636 0
M  V30 9342 H 893.813 2.42853 -3.39724 0
M  V30 9343 N 894.251 1.57596 -0.0117121 0
M  V30 9344 C 895.198 2.09153 0.975897 0
M  V30 9345 C 896.168 0.989579 1.33404 0
M  V30 9346 O 897.353 1.26273 1.43038 0
M  V30 9347 C 894.493 2.60906 2.2588 0
M  V30 9348 C 893.606 3.85046 1.95866 0
M  V30 9349 C 892.741 4.25257 3.18323 0
M  V30 9350 C 891.78 5.42202 2.84049 0
M  V30 9351 N 890.917 5.77651 3.99079 0
M  V30 9352 H 895.757 2.93261 0.52931 0
M  V30 9353 H 893.294 1.44965 0.249691 0
M  V30 9354 H 895.252 2.88995 3.00895 0
M  V30 9355 H 893.882 1.79654 2.68187 0
M  V30 9356 H 892.934 3.63794 1.11168 0
M  V30 9357 H 894.246 4.70151 1.66611 0
M  V30 9358 H 893.4 4.5469 4.01674 0
M  V30 9359 H 892.139 3.38884 3.50726 0
M  V30 9360 H 891.144 5.1248 1.99107 0
M  V30 9361 H 892.369 6.3026 2.52881 0
M  V30 9362 H 890.315 4.94235 4.31356 0
M  V30 9363 H 890.232 6.57356 3.73388 0
M  V30 9364 H 891.5 6.11681 4.83183 0
M  V30 9365 N 895.729 -0.261212 1.5542 0
M  V30 9366 C 896.659 -1.32712 1.92119 0
M  V30 9367 C 897.64 -1.50934 0.784406 0
M  V30 9368 O 898.825 -1.63781 1.04352 0
M  V30 9369 C 895.955 -2.68453 2.20341 0
M  V30 9370 C 894.909 -2.64947 3.36136 0
M  V30 9371 C 894.235 -4.04349 3.49865 0
M  V30 9372 C 895.535 -2.23182 4.72215 0
M  V30 9373 H 897.229 -1.02245 2.81401 0
M  V30 9374 H 894.775 -0.490406 1.35392 0
M  V30 9375 H 896.728 -3.43144 2.44603 0
M  V30 9376 H 895.452 -3.00527 1.27871 0
M  V30 9377 H 894.111 -1.92714 3.11861 0
M  V30 9378 H 893.759 -4.33665 2.5484 0
M  V30 9379 H 893.459 -4.02895 4.27726 0
M  V30 9380 H 894.983 -4.80761 3.76432 0
M  V30 9381 H 896.397 -2.87599 4.95943 0
M  V30 9382 H 894.794 -2.32867 5.53076 0
M  V30 9383 H 895.864 -1.18327 4.70241 0
M  V30 9384 N 897.207 -1.48554 -0.526253 0
M  V30 9385 C 898.454 -1.56761 -1.28188 0
M  V30 9386 C 898.782 -0.24315 -1.92974 0
M  V30 9387 O 898.037 0.766883 -1.80048 0
M  V30 9388 C 898.336 -2.65739 -2.38993 0
M  V30 9389 C 898.002 -4.08057 -1.91834 0
M  V30 9390 C 896.664 -4.46792 -1.78691 0
M  V30 9391 C 899.016 -4.9723 -1.56242 0
M  V30 9392 C 896.344 -5.72501 -1.28296 0
M  V30 9393 C 898.696 -6.23432 -1.07309 0
M  V30 9394 C 897.36 -6.6102 -0.927853 0
M  V30 9395 H 896.63 -0.573631 -0.469072 0
M  V30 9396 H 899.277 -1.82287 -0.586842 0
M  V30 9397 H 897.582 -2.34088 -3.14181 0
M  V30 9398 H 899.279 -2.69304 -2.97113 0
M  V30 9399 H 895.869 -3.77469 -2.03016 0
M  V30 9400 H 900.053 -4.67979 -1.65255 0
M  V30 9401 H 895.309 -6.00345 -1.15742 0
M  V30 9402 H 899.483 -6.91923 -0.788412 0
M  V30 9403 H 897.11 -7.58314 -0.535162 0
M  V30 9404 N 898.685 0.775411 -1.37205 0
M  V30 9405 C 899.633 1.90996 -1.32752 0
M  V30 9406 C 900.627 1.68006 -0.216907 0
M  V30 9407 O 901.833 1.7584 -0.384723 0
M  V30 9408 H 898.208 0.62803 -0.413621 0
M  V30 9409 H 900.179 1.91869 -2.28536 0
M  V30 9410 C 898.928 3.28211 -1.14772 0
M  V30 9411 H 898.251 3.46477 -1.99484 0
M  V30 9412 H 899.691 4.07907 -1.15706 0
M  V30 9413 C 898.15 3.3658 0.146852 0
M  V30 9414 O 898.68 3.85428 1.13173 0
M  V30 9415 N 896.886 2.89936 0.196305 0
M  V30 9416 H 896.433 2.50375 -0.605807 0
M  V30 9417 H 896.391 2.95916 1.06212 0
M  V30 9418 N 900.163 1.21714 1.00117 0
M  V30 9419 C 901.412 1.03087 1.73367 0
M  V30 9420 C 901.725 -0.435532 1.90689 0
M  V30 9421 O 902.931 -0.741291 2.61184 0
M  V30 9422 C 901.387 1.79593 3.11888 0
M  V30 9423 C 900.995 3.30428 3.02525 0
M  V30 9424 C 902.739 1.69386 3.89241 0
M  V30 9425 C 900.646 3.99408 4.3615 0
M  V30 9426 H 899.576 0.382117 0.650002 0
M  V30 9427 H 902.227 1.45486 1.11831 0
M  V30 9428 H 900.609 1.29988 3.74058 0
M  V30 9429 H 901.783 3.87364 2.49571 0
M  V30 9430 H 900.098 3.4122 2.38659 0
M  V30 9431 H 902.695 2.18251 4.8813 0
M  V30 9432 H 903.038 0.652773 4.1115 0
M  V30 9433 H 903.571 2.16489 3.33733 0
M  V30 9434 H 900.31 5.03735 4.19442 0
M  V30 9435 H 899.83 3.47261 4.8905 0
M  V30 9436 H 901.509 4.04537 5.04934 0
M  V30 9437 N 901.641 -1.19671 1.02551 0
M  V30 9438 C 902.591 -2.20655 0.574037 0
M  V30 9439 C 903.575 -1.56459 -0.375412 0
M  V30 9440 O 904.767 -1.75901 -0.196929 0
M  V30 9441 C 901.896 -3.43213 -0.0772031 0
M  V30 9442 C 900.982 -4.1456 0.894485 0
M  V30 9443 N 901.373 -4.62147 2.05557 0
M  V30 9444 C 899.671 -4.40196 0.717205 0
M  V30 9445 C 900.372 -5.16899 2.66814 0
M  V30 9446 N 899.348 -5.07496 1.94804 0
M  V30 9447 H 903.15 -2.55124 1.45908 0
M  V30 9448 H 900.664 -1.35707 0.89204 0
M  V30 9449 H 902.661 -4.14797 -0.41824 0
M  V30 9450 H 901.321 -3.10247 -0.957973 0
M  V30 9451 H 902.332 -4.5708 2.43513 0
M  V30 9452 H 899.009 -4.17342 -0.114758 0
M  V30 9453 H 900.399 -5.64032 3.65126 0
M  V30 9454 N 903.119 -0.802921 -1.35613 0
M  V30 9455 C 904.029 -0.212177 -2.33639 0
M  V30 9456 C 905.045 0.642871 -1.61689 0
M  V30 9457 O 906.221 0.555485 -1.93588 0
M  V30 9458 C 903.286 0.632406 -3.40883 0
M  V30 9459 C 902.347 -0.242708 -4.28613 0
M  V30 9460 C 901.58 0.56166 -5.30736 0
M  V30 9461 O 901.803 1.79664 -5.41366 0
M  V30 9462 O 900.737 -0.0455387 -6.01883 0
M  V30 9463 H 904.563 -1.023 -2.85952 0
M  V30 9464 H 902.148 -0.564636 -1.38319 0
M  V30 9465 H 904.03 1.11358 -4.0642 0
M  V30 9466 H 902.705 1.42089 -2.90848 0
M  V30 9467 H 901.612 -0.77094 -3.6607 0
M  V30 9468 H 902.945 -0.995046 -4.82037 0
M  V30 9469 N 904.597 1.47463 -0.556102 0
M  V30 9470 C 905.874 1.9557 0.0339892 0
M  V30 9471 C 906.254 1.49869 1.48669 0
M  V30 9472 O 905.602 0.737019 2.16288 0
M  V30 9473 C 905.812 3.48826 -0.110343 0
M  V30 9474 C 907.16 4.24585 0.0355716 0
M  V30 9475 O 908.184 3.5618 -0.0378356 0
M  V30 9476 O 907.043 5.46158 0.193299 0
M  V30 9477 H 904.137 0.824461 0.0647521 0
M  V30 9478 H 906.683 1.57868 -0.622547 0
M  V30 9479 H 905.455 3.74891 -1.12126 0
M  V30 9480 H 905.078 3.9329 0.583855 0
M  V30 9481 O 906.114 0.434534 1.55544 0
M  V30 9482 H 906.805 -0.099869 1.93442 0
M  V30 END ATOM
M  V30 BEGIN BOND
M  V30 END BOND
M  V30 END CTAB
M  END
$$$$
