drugbank_target|O96000 NADH dehydrogenase [ubiquinone] 1 beta subcomplex subunit 10 (DB00157)
 OpenBabel12092119273D

  0  0  0     0  0            999 V3000
M  V30 BEGIN CTAB
M  V30 COUNTS 2882 2912 0 0 0
M  V30 BEGIN ATOM
M  V30 1 H -0.908 1.98254 -0.117106 0
M  V30 2 N 0 1.576 0 0
M  V30 3 C 0.933 2.03868 1.02534 0
M  V30 4 C 1.911 0.928543 1.3348 0
M  V30 5 O 3.095 1.19667 1.45644 0
M  V30 6 C 0.222 2.43627 2.35294 0
M  V30 7 C -0.732 3.65373 2.2001 0
M  V30 8 S 0.101 5.13292 1.52614 0
M  V30 9 C 1.257 5.56322 2.86805 0
M  V30 10 H 1.49 2.90518 0.631377 0
M  V30 11 H -0.977 1.52953 0.210867 0
M  V30 12 H 0.981 2.67203 3.11629 0
M  V30 13 H -0.358 1.57376 2.7183 0
M  V30 14 H -1.165 3.90944 3.18086 0
M  V30 15 H -1.563 3.418 1.51819 0
M  V30 16 H 0.729 5.58782 3.83104 0
M  V30 17 H 1.672 6.56266 2.65933 0
M  V30 18 H 2.08 4.83886 2.90714 0
M  V30 19 N 1.4781 -0.272755 1.55222 0
M  V30 20 C 2.8891 -0.84378 1.66545 0
M  V30 21 C 3.2401 -1.87035 0.592641 0
M  V30 22 O 2.3651 -2.14761 -0.265818 0
M  V30 23 C 2.9601 -1.53723 3.01918 0
M  V30 24 C 1.5191 -2.05628 3.15268 0
M  V30 25 C 0.6661 -0.898424 2.62343 0
M  V30 26 H 3.6171 -0.0490998 1.58624 0
M  V30 27 H 3.6381 -2.40421 2.94921 0
M  V30 28 H 3.1501 -0.78983 3.79978 0
M  V30 29 H 1.2511 -2.83329 2.41983 0
M  V30 30 H 1.3641 -2.27142 4.21833 0
M  V30 31 H -0.2719 -1.29186 2.19506 0
M  V30 32 H 0.5111 -0.164528 3.42906 0
M  V30 33 N 2.9562 -1.48159 -0.537278 0
M  V30 34 C 4.2332 -1.46291 -1.29839 0
M  V30 35 C 4.6132 -0.170613 -2.10409 0
M  V30 36 O 3.9612 0.847746 -2.12192 0
M  V30 37 C 4.1712 -2.72055 -2.18603 0
M  V30 38 C 5.5192 -3.20087 -2.7898 0
M  V30 39 O 6.5432 -2.72921 -2.28894 0
M  V30 40 O 5.4022 -4.02138 -3.70064 0
M  V30 41 H 2.4962 -0.583906 -0.585647 0
M  V30 42 H 5.0422 -1.60384 -0.554534 0
M  V30 43 H 3.8142 -3.57628 -1.58801 0
M  V30 44 H 3.4372 -2.60646 -3.00249 0
M  V30 45 N 4.4343 0.785586 -1.36625 0
M  V30 46 C 5.6593 1.57963 -1.34397 0
M  V30 47 C 6.0843 1.87964 0.071526 0
M  V30 48 O 5.4423 1.48182 1.0446 0
M  V30 49 C 5.4903 2.87511 -2.17646 0
M  V30 50 O 4.5943 3.81281 -1.57158 0
M  V30 51 H 3.9353 0.479014 -0.459828 0
M  V30 52 H 6.4653 0.973411 -1.79961 0
M  V30 53 H 6.4753 3.36745 -2.30362 0
M  V30 54 H 5.1503 2.65002 -3.20541 0
M  V30 55 H 3.7273 3.39885 -1.53403 0
M  V30 56 N 5.9124 1.20967 1.01018 0
M  V30 57 C 7.1584 1.0353 1.7508 0
M  V30 58 C 7.5134 -0.42734 1.87594 0
M  V30 59 O 6.8064 -1.31298 1.3954 0
M  V30 60 C 7.0004 1.65997 3.16512 0
M  V30 61 C 6.8294 3.18184 3.17788 0
M  V30 62 C 5.5994 3.87198 3.24662 0
M  V30 63 C 7.7974 4.15334 3.03319 0
M  V30 64 N 5.7794 5.26618 3.15509 0
M  V30 65 C 7.1504 5.41472 3.02007 0
M  V30 66 C 9.2054 4.06449 2.87583 0
M  V30 67 C 7.9084 6.5975 2.86571 0
M  V30 68 C 9.9344 5.24357 2.73503 0
M  V30 69 C 9.2964 6.49404 2.72862 0
M  V30 70 H 5.3954 0.433137 0.651089 0
M  V30 71 H 7.9794 1.5324 1.20107 0
M  V30 72 H 6.1504 1.18863 3.69765 0
M  V30 73 H 7.8824 1.41816 3.79039 0
M  V30 74 H 4.6374 3.38093 3.31648 0
M  V30 75 H 5.0614 5.99626 3.14289 0
M  V30 76 H 9.7034 3.10573 2.86887 0
M  V30 77 H 7.4214 7.55792 2.86015 0
M  V30 78 H 11.0074 5.19299 2.62334 0
M  V30 79 H 9.8874 7.39105 2.62093 0
M  V30 80 N 7.3905 -1.2043 1.01659 0
M  V30 81 C 8.6675 -1.8548 0.621004 0
M  V30 82 C 9.0475 -1.9091 -0.900919 0
M  V30 83 O 8.3955 -1.41694 -1.79263 0
M  V30 84 C 8.6055 -3.25119 1.2688 0
M  V30 85 C 9.9535 -4.01403 1.38423 0
M  V30 86 O 10.9775 -3.34473 1.22501 0
M  V30 87 O 9.8365 -5.21265 1.64151 0
M  V30 88 H 6.9305 -0.798761 0.214266 0
M  V30 89 H 9.4765 -1.28019 1.11396 0
M  V30 90 H 8.2485 -3.15932 2.30873 0
M  V30 91 H 7.8715 -3.90212 0.762917 0
M  V30 92 N 8.8686 -0.792821 -1.36206 0
M  V30 93 C 9.8156 -0.191653 -2.30003 0
M  V30 94 C 10.7856 0.666453 -1.52143 0
M  V30 95 O 11.9706 0.61442 -1.80636 0
M  V30 96 C 9.1106 0.664848 -3.38635 0
M  V30 97 C 8.2236 -0.212175 -4.31479 0
M  V30 98 C 7.3586 0.651022 -5.27196 0
M  V30 99 C 6.3976 -0.227247 -6.11678 0
M  V30 100 N 5.5346 0.595127 -6.99573 0
M  V30 101 H 10.3746 -0.996978 -2.80828 0
M  V30 102 H 7.9116 -0.503206 -1.38225 0
M  V30 103 H 9.8696 1.17645 -4.00269 0
M  V30 104 H 8.4996 1.43557 -2.89122 0
M  V30 105 H 7.5516 -0.841777 -3.70969 0
M  V30 106 H 8.8636 -0.888751 -4.90818 0
M  V30 107 H 8.0176 1.2283 -5.94136 0
M  V30 108 H 6.7566 1.36121 -4.68319 0
M  V30 109 H 5.7616 -0.816904 -5.43697 0
M  V30 110 H 6.9866 -0.93509 -6.72631 0
M  V30 111 H 4.9326 1.28955 -6.432 0
M  V30 112 H 4.8496 -0.0236952 -7.55996 0
M  V30 113 H 6.1176 1.15613 -7.70879 0
M  V30 114 N 10.3467 1.47872 -0.545128 0
M  V30 115 C 11.6237 1.9554 0.0485222 0
M  V30 116 C 12.0037 1.4876 1.49779 0
M  V30 117 O 11.3517 0.720925 2.16829 0
M  V30 118 C 11.5617 3.48898 -0.084417 0
M  V30 119 C 12.9097 4.24547 0.0671239 0
M  V30 120 O 13.9337 3.56198 -0.0113649 0
M  V30 121 O 12.7927 5.45999 0.233882 0
M  V30 122 H 9.8867 0.823957 0.0708773 0
M  V30 123 H 12.4327 1.58327 -0.610798 0
M  V30 124 H 11.2047 3.75714 -1.09337 0
M  V30 125 H 10.8277 3.92845 0.613066 0
M  V30 126 N 11.8248 0.280983 1.55075 0
M  V30 127 C 13.0708 -0.33461 2.00021 0
M  V30 128 C 13.4038 -1.55063 1.16915 0
M  V30 129 O 12.6788 -1.93006 0.240646 0
M  V30 130 C 12.9618 -0.711007 3.53011 0
M  V30 131 C 12.8148 0.512766 4.46868 0
M  V30 132 C 14.1338 -1.54522 4.12081 0
M  V30 133 H 11.2528 -0.120147 0.727141 0
M  V30 134 H 13.8948 0.389097 1.85973 0
M  V30 135 H 12.0448 -1.32761 3.65112 0
M  V30 136 H 13.7168 1.15131 4.46702 0
M  V30 137 H 11.9598 1.14975 4.18286 0
M  V30 138 H 12.6308 0.205556 5.51617 0
M  V30 139 H 15.1068 -1.02442 4.03293 0
M  V30 140 H 13.9828 -1.77739 5.19327 0
M  V30 141 H 14.2438 -2.52813 3.62682 0
M  V30 142 N 13.3029 -1.57598 0.00835791 0
M  V30 143 C 14.5329 -1.94931 -0.684496 0
M  V30 144 C 14.9409 -0.882233 -1.67372 0
M  V30 145 O 14.2839 0.146621 -1.83114 0
M  V30 146 C 14.3459 -3.283 -1.4649 0
M  V30 147 C 14.0099 -4.52548 -0.63634 0
M  V30 148 C 15.0069 -5.19839 0.0795586 0
M  V30 149 C 12.6919 -4.98942 -0.579849 0
M  V30 150 C 14.6859 -6.3183 0.840843 0
M  V30 151 C 12.3729 -6.10819 0.185155 0
M  V30 152 C 13.3709 -6.77121 0.894227 0
M  V30 153 O 13.0589 -7.86853 1.64673 0
M  V30 154 H 12.7909 -0.647249 -0.19505 0
M  V30 155 H 15.3449 -2.05318 0.0581272 0
M  V30 156 H 13.5749 -3.14345 -2.2522 0
M  V30 157 H 15.2639 -3.50685 -2.04389 0
M  V30 158 H 16.0299 -4.84979 0.0451202 0
M  V30 159 H 11.9089 -4.47155 -1.1213 0
M  V30 160 H 15.4529 -6.83513 1.39483 0
M  V30 161 H 11.3499 -6.4512 0.221384 0
M  V30 162 H 12.1179 -8.03412 1.56432 0
M  V30 163 N 14.781 0.264519 -1.55364 0
M  V30 164 C 16.192 0.834936 -1.6699 0
M  V30 165 C 16.543 1.86718 -0.602552 0
M  V30 166 O 15.668 2.14899 0.254425 0
M  V30 167 C 16.263 1.5212 -3.02729 0
M  V30 168 C 14.822 2.03954 -3.16354 0
M  V30 169 C 13.969 0.884498 -2.62815 0
M  V30 170 H 16.92 0.0406869 -1.58648 0
M  V30 171 H 16.941 2.38853 -2.96191 0
M  V30 172 H 16.453 0.769668 -3.80392 0
M  V30 173 H 14.554 2.82041 -2.43482 0
M  V30 174 H 14.667 2.24902 -4.23032 0
M  V30 175 H 13.031 1.2802 -2.20188 0
M  V30 176 H 13.814 0.14634 -3.42988 0
M  V30 177 N 16.2591 1.48442 0.529413 0
M  V30 178 C 17.1691 1.6569 1.66084 0
M  V30 179 C 18.1851 0.539432 1.65427 0
M  V30 180 O 19.3611 0.810572 1.84368 0
M  V30 181 C 16.4261 1.69315 3.02545 0
M  V30 182 C 15.4871 2.92694 3.14052 0
M  V30 183 C 14.7201 2.96137 4.44003 0
M  V30 184 O 14.9431 2.07973 5.31134 0
M  V30 185 O 13.8771 3.88312 4.59888 0
M  V30 186 H 17.7031 2.61483 1.54469 0
M  V30 187 H 15.2881 1.3185 0.702567 0
M  V30 188 H 17.1701 1.74217 3.83701 0
M  V30 189 H 15.8451 0.766966 3.14483 0
M  V30 190 H 14.7521 2.93324 2.32189 0
M  V30 191 H 16.0851 3.84699 3.0703 0
M  V30 192 N 17.7372 -0.778329 1.37039 0
M  V30 193 C 19.1482 -1.35421 1.28523 0
M  V30 194 C 19.4992 -1.96075 -0.0700901 0
M  V30 195 O 18.6242 -1.93352 -0.971801 0
M  V30 196 C 19.2192 -2.46211 2.32735 0
M  V30 197 C 17.7782 -2.99585 2.27873 0
M  V30 198 C 16.9252 -1.72748 2.16918 0
M  V30 199 H 19.8762 -0.5791 1.47757 0
M  V30 200 H 19.8972 -3.2552 1.9702 0
M  V30 201 H 19.4092 -2.02036 3.31365 0
M  V30 202 H 17.5102 -3.48152 1.32745 0
M  V30 203 H 17.6232 -3.55646 3.21018 0
M  V30 204 H 15.9872 -1.95416 1.63354 0
M  V30 205 H 16.7702 -1.30686 3.17452 0
M  V30 206 N 19.2153 -1.21501 -1.00376 0
M  V30 207 C 20.6263 -1.03146 -1.55621 0
M  V30 208 C 20.9773 0.408375 -1.91903 0
M  V30 209 O 20.1023 1.29177 -1.73616 0
M  V30 210 C 20.6973 -1.86612 -2.82775 0
M  V30 211 C 19.2563 -1.72586 -3.34501 0
M  V30 212 C 18.4033 -1.83747 -2.07683 0
M  V30 213 H 21.3543 -1.35505 -0.826081 0
M  V30 214 H 21.3753 -1.3771 -3.54706 0
M  V30 215 H 20.8873 -2.91399 -2.56336 0
M  V30 216 H 18.9883 -0.704877 -3.65872 0
M  V30 217 H 19.1013 -2.54623 -4.05837 0
M  V30 218 H 17.4653 -1.27069 -2.20739 0
M  V30 219 H 18.2483 -2.90044 -1.83655 0
M  V30 220 N 20.6934 1.19889 -1.02296 0
M  V30 221 C 22.1094 1.41462 -0.738954 0
M  V30 222 C 22.3094 1.89721 0.678846 0
M  V30 223 O 21.3654 2.07016 1.4457 0
M  V30 224 C 22.6784 2.43083 -1.77005 0
M  V30 225 C 24.2264 2.5684 -1.78892 0
M  V30 226 C 24.7014 3.61709 -2.80945 0
M  V30 227 N 26.1924 3.69199 -2.79725 0
M  V30 228 C 26.9274 4.50019 -3.55345 0
M  V30 229 N 26.4234 5.34592 -4.40662 0
M  V30 230 N 28.2164 4.44612 -3.43914 0
M  V30 231 H 20.3674 0.868827 -1.93817 0
M  V30 232 H 22.6304 0.44399 -0.837602 0
M  V30 233 H 22.3364 2.14636 -2.78612 0
M  V30 234 H 22.2104 3.4217 -1.58744 0
M  V30 235 H 24.5974 2.84614 -0.779674 0
M  V30 236 H 24.6784 1.57927 -2.01228 0
M  V30 237 H 24.3224 3.34678 -3.82038 0
M  V30 238 H 24.2524 4.60259 -2.5587 0
M  V30 239 H 26.7434 3.08794 -2.17842 0
M  V30 240 H 27.0564 5.93363 -4.95116 0
M  V30 241 H 25.4014 5.34073 -4.44737 0
M  V30 242 H 28.5924 3.7758 -2.76679 0
M  V30 243 H 28.7654 5.0736 -4.031 0
M  V30 244 N 22.1715 0.800033 1.35784 0
M  V30 245 C 23.5875 0.482977 1.52117 0
M  V30 246 C 23.7875 -0.996948 1.75109 0
M  V30 247 O 22.8435 -1.78216 1.78872 0
M  V30 248 C 24.1565 1.32264 2.70049 0
M  V30 249 C 25.7045 1.31742 2.83924 0
M  V30 250 C 26.1795 2.14106 4.04874 0
M  V30 251 N 27.6705 2.11607 4.12039 0
M  V30 252 C 28.4055 2.72099 5.04727 0
M  V30 253 N 27.9015 3.41492 6.02789 0
M  V30 254 N 29.6945 2.61776 4.97423 0
M  V30 255 H 21.8455 1.75856 1.19115 0
M  V30 256 H 24.1085 0.748122 0.582252 0
M  V30 257 H 23.8145 2.37261 2.59616 0
M  V30 258 H 23.6885 0.971303 3.6448 0
M  V30 259 H 26.0755 0.275333 2.93813 0
M  V30 260 H 26.1565 1.70859 1.9037 0
M  V30 261 H 25.8005 3.18351 3.95746 0
M  V30 262 H 25.7305 1.72353 4.97596 0
M  V30 263 H 28.2215 1.61112 3.41835 0
M  V30 264 H 28.5345 3.84953 6.70098 0
M  V30 265 H 26.8795 3.45596 6.02983 0
M  V30 266 H 30.0705 2.07157 4.19766 0
M  V30 267 H 30.2435 3.0921 5.69468 0
M  V30 268 N 23.6496 -1.47581 0.552962 0
M  V30 269 C 24.8776 -2.06875 0.0320556 0
M  V30 270 C 25.2926 -1.40625 -1.25976 0
M  V30 271 O 24.6496 -0.501349 -1.75479 0
M  V30 272 C 24.7006 -3.61092 -0.17167 0
M  V30 273 O 24.4216 -4.24858 1.06899 0
M  V30 274 C 25.9226 -4.37242 -0.730344 0
M  V30 275 H 23.1426 -0.669561 0.043915 0
M  V30 276 H 25.6866 -1.89646 0.765163 0
M  V30 277 H 23.8416 -3.7785 -0.854894 0
M  V30 278 H 24.2556 -5.17334 0.864059 0
M  V30 279 H 25.7296 -5.45842 -0.822203 0
M  V30 280 H 26.2066 -4.03235 -1.74064 0
M  V30 281 H 26.8126 -4.25219 -0.0829543 0
M  V30 282 N 25.1277 -0.289203 -1.54924 0
M  V30 283 C 26.5387 0.205791 -1.85562 0
M  V30 284 C 26.8897 1.54351 -1.2112 0
M  V30 285 O 26.0147 2.10435 -0.504601 0
M  V30 286 C 26.6097 0.380177 -3.3666 0
M  V30 287 C 25.1687 0.819395 -3.67373 0
M  V30 288 C 24.3157 -0.079159 -2.77187 0
M  V30 289 H 27.2667 -0.510577 -1.50262 0
M  V30 290 H 27.2877 1.21659 -3.60526 0
M  V30 291 H 26.7997 -0.593589 -3.83534 0
M  V30 292 H 24.9007 1.80413 -3.26009 0
M  V30 293 H 25.0137 0.646957 -4.74712 0
M  V30 294 H 23.3777 0.439565 -2.50878 0
M  V30 295 H 24.1607 -1.04906 -3.26878 0
M  V30 296 N 26.6058 1.57591 -0.0167156 0
M  V30 297 C 27.8518 1.91567 0.665582 0
M  V30 298 C 28.1848 0.892298 1.72487 0
M  V30 299 O 27.4598 -0.0867127 1.94307 0
M  V30 300 C 27.7428 3.36069 1.29342 0
M  V30 301 C 27.5958 4.49135 0.244541 0
M  V30 302 C 28.9148 3.803 2.21495 0
M  V30 303 H 26.0338 0.69666 0.240488 0
M  V30 304 H 28.6758 1.89866 -0.0714356 0
M  V30 305 H 26.8258 3.3765 1.92158 0
M  V30 306 H 28.4978 4.59689 -0.385228 0
M  V30 307 H 26.7408 4.3165 -0.431379 0
M  V30 308 H 27.4118 5.47242 0.723207 0
M  V30 309 H 29.8878 3.80377 1.68678 0
M  V30 310 H 28.7638 4.82127 2.62382 0
M  V30 311 H 29.0248 3.15104 3.101 0
M  V30 312 N 28.0839 -0.256276 1.55502 0
M  V30 313 C 29.0159 -1.33981 1.85962 0
M  V30 314 C 30.0289 -1.44743 0.745212 0
M  V30 315 O 31.2179 -1.4626 1.02324 0
M  V30 316 C 28.3179 -2.7194 2.02242 0
M  V30 317 C 27.4909 -2.83562 3.33033 0
M  V30 318 C 26.5499 -4.02304 3.39172 0
M  V30 319 O 25.5759 -3.92273 4.12444 0
M  V30 320 N 26.7779 -5.15045 2.67784 0
M  V30 321 H 29.5429 -1.08191 2.7949 0
M  V30 322 H 27.1039 -0.446388 1.55624 0
M  V30 323 H 29.0959 -3.49697 2.03701 0
M  V30 324 H 27.6659 -2.90479 1.15502 0
M  V30 325 H 26.8859 -1.92555 3.43971 0
M  V30 326 H 28.1739 -2.88271 4.19258 0
M  V30 327 H 27.5719 -5.26085 2.07968 0
M  V30 328 H 26.1289 -5.90972 2.74947 0
M  V30 329 N 29.562 -1.4872 -0.521534 0
M  V30 330 C 30.973 -1.50607 -1.10337 0
M  V30 331 C 31.324 -0.280612 -1.94183 0
M  V30 332 O 30.449 0.611507 -2.0758 0
M  V30 333 C 31.044 -2.72903 -2.00772 0
M  V30 334 C 29.603 -2.77634 -2.54158 0
M  V30 335 C 28.75 -2.44241 -1.31307 0
M  V30 336 H 31.701 -1.55714 -0.306388 0
M  V30 337 H 31.722 -2.519 -2.85178 0
M  V30 338 H 31.234 -3.62077 -1.39721 0
M  V30 339 H 29.335 -1.92689 -3.18907 0
M  V30 340 H 29.448 -3.79283 -2.92714 0
M  V30 341 H 27.812 -1.95577 -1.63161 0
M  V30 342 H 28.595 -3.35666 -0.719943 0
M  V30 343 N 31.0401 0.771051 -1.3745 0
M  V30 344 C 31.9881 1.90574 -1.33358 0
M  V30 345 C 32.9821 1.67936 -0.22224 0
M  V30 346 O 34.1881 1.75717 -0.390304 0
M  V30 347 H 30.5631 0.626714 -0.415612 0
M  V30 348 H 32.5341 1.91142 -2.29144 0
M  V30 349 C 31.2831 3.27845 -1.15813 0
M  V30 350 H 30.6061 3.45842 -2.00583 0
M  V30 351 H 32.0461 4.07538 -1.17 0
M  V30 352 C 30.5051 3.36625 0.136165 0
M  V30 353 O 31.0351 3.85785 1.11949 0
M  V30 354 N 29.2411 2.89997 0.187099 0
M  V30 355 H 28.7881 2.50182 -0.613753 0
M  V30 356 H 28.7461 2.96252 1.05272 0
M  V30 357 N 32.5182 1.22032 0.997298 0
M  V30 358 C 33.9292 1.0397 1.55071 0
M  V30 359 C 34.2802 -0.398192 1.92117 0
M  V30 360 O 33.4052 -1.28254 1.74298 0
M  V30 361 C 34.0002 1.88109 2.81781 0
M  V30 362 C 32.5592 1.74357 3.33581 0
M  V30 363 C 31.7062 1.84846 2.06706 0
M  V30 364 H 34.6572 1.35941 0.818883 0
M  V30 365 H 34.6782 1.39589 3.53971 0
M  V30 366 H 34.1902 2.92754 2.54787 0
M  V30 367 H 32.2912 0.72427 3.65493 0
M  V30 368 H 32.4042 2.56772 4.04481 0
M  V30 369 H 30.7682 1.28238 2.20062 0
M  V30 370 H 31.5512 2.91014 1.82114 0
M  V30 371 N 33.9963 -1.19345 1.0293 0
M  V30 372 C 35.2453 -1.88363 0.721256 0
M  V30 373 C 35.5583 -1.80514 -0.753254 0
M  V30 374 O 36.7643 -2.44788 -1.17436 0
M  V30 375 C 35.2203 -3.37872 1.23978 0
M  V30 376 C 34.8283 -3.54278 2.74211 0
M  V30 377 C 36.5723 -4.12365 1.00775 0
M  V30 378 C 34.4793 -4.97682 3.19479 0
M  V30 379 H 33.4093 -0.705484 0.266098 0
M  V30 380 H 36.0603 -1.34928 1.24365 0
M  V30 381 H 34.4423 -3.90707 0.6453 0
M  V30 382 H 35.6163 -3.11769 3.39318 0
M  V30 383 H 33.9313 -2.93174 2.95699 0
M  V30 384 H 36.5283 -5.18119 1.32123 0
M  V30 385 H 36.8713 -4.16263 -0.0554308 0
M  V30 386 H 37.4043 -3.65668 1.56625 0
M  V30 387 H 34.1433 -4.98945 4.25128 0
M  V30 388 H 33.6633 -5.4095 2.591 0
M  V30 389 H 35.3423 -5.66337 3.12845 0
M  V30 390 N 35.4744 -0.807222 -1.35358 0
M  V30 391 C 36.7204 -0.388463 -1.99045 0
M  V30 392 C 37.0534 1.04184 -1.63888 0
M  V30 393 O 36.3284 1.72292 -0.902535 0
M  V30 394 C 36.6114 -0.572783 -3.55515 0
M  V30 395 C 36.4644 -2.04807 -4.00468 0
M  V30 396 C 37.7834 0.00114064 -4.401 0
M  V30 397 H 34.9024 -0.142619 -0.723069 0
M  V30 398 H 37.5444 -1.01687 -1.60498 0
M  V30 399 H 35.6944 -0.0378425 -3.88482 0
M  V30 400 H 37.3664 -2.64544 -3.77908 0
M  V30 401 H 35.6094 -2.54427 -3.51353 0
M  V30 402 H 36.2804 -2.12792 -5.09337 0
M  V30 403 H 38.7564 -0.455716 -4.13597 0
M  V30 404 H 37.6324 -0.157737 -5.48673 0
M  V30 405 H 37.8934 1.09488 -4.28328 0
M  V30 406 N 36.9525 1.47285 -0.560781 0
M  V30 407 C 38.1825 2.06555 -0.0429638 0
M  V30 408 C 38.5905 1.41339 1.25777 0
M  V30 409 O 37.9335 0.505182 1.76617 0
M  V30 410 C 37.9955 3.58827 0.219887 0
M  V30 411 C 37.6595 4.46105 -0.991944 0
M  V30 412 C 38.6565 4.84 -1.89843 0
M  V30 413 C 36.3415 4.87567 -1.20762 0
M  V30 414 C 38.3355 5.6216 -3.00425 0
M  V30 415 C 36.0225 5.65491 -2.31653 0
M  V30 416 C 37.0205 6.02699 -3.21315 0
M  V30 417 O 36.7085 6.79052 -4.30283 0
M  V30 418 H 36.4405 0.674537 -0.0444468 0
M  V30 419 H 38.9945 1.90225 -0.774818 0
M  V30 420 H 37.2245 3.73383 1.00609 0
M  V30 421 H 38.9135 4.00103 0.683522 0
M  V30 422 H 39.6795 4.52564 -1.74387 0
M  V30 423 H 35.5585 4.5807 -0.518893 0
M  V30 424 H 39.1025 5.9112 -3.70436 0
M  V30 425 H 34.9995 5.9634 -2.47081 0
M  V30 426 H 35.7675 6.9745 -4.28376 0
M  V30 427 N 38.4306 0.297415 1.54768 0
M  V30 428 C 39.3636 -0.622188 2.19554 0
M  V30 429 C 40.3416 -1.13558 1.16376 0
M  V30 430 O 41.5256 -1.20444 1.45002 0
M  V30 431 C 38.6526 -1.8509 2.83653 0
M  V30 432 C 37.6986 -1.47106 4.00328 0
M  V30 433 S 38.5316 -0.53006 5.3287 0
M  V30 434 C 39.6876 -1.76665 6.0045 0
M  V30 435 H 39.9206 -0.0717806 2.97213 0
M  V30 436 H 37.4536 0.0815678 1.54184 0
M  V30 437 H 39.4116 -2.55605 3.21211 0
M  V30 438 H 38.0726 -2.37247 2.05846 0
M  V30 439 H 37.2656 -2.38594 4.43947 0
M  V30 440 H 36.8676 -0.845885 3.64309 0
M  V30 441 H 39.1596 -2.7077 6.21039 0
M  V30 442 H 40.1026 -1.37308 6.9466 0
M  V30 443 H 40.5106 -1.94174 5.30054 0
M  V30 444 N 39.9087 -1.5758 0.0250728 0
M  V30 445 C 40.8417 -2.05473 -0.992777 0
M  V30 446 C 41.8197 -0.949661 -1.31986 0
M  V30 447 O 43.0037 -1.21969 -1.43722 0
M  V30 448 C 40.1307 -2.4734 -2.31389 0
M  V30 449 C 39.1767 -3.68827 -2.1417 0
M  V30 450 S 40.0097 -5.15655 -1.44429 0
M  V30 451 C 41.1657 -5.60814 -2.77918 0
M  V30 452 H 41.3987 -2.91486 -0.585078 0
M  V30 453 H 38.9317 -1.53269 -0.186507 0
M  V30 454 H 40.8897 -2.72127 -3.07339 0
M  V30 455 H 39.5507 -1.6168 -2.69292 0
M  V30 456 H 38.7437 -3.95955 -3.11826 0
M  V30 457 H 38.3457 -3.44172 -1.46362 0
M  V30 458 H 40.6377 -5.64806 -3.74166 0
M  V30 459 H 41.5807 -6.60414 -2.55459 0
M  V30 460 H 41.9887 -4.8845 -2.82979 0
M  V30 461 N 41.3868 0.248026 -1.55636 0
M  V30 462 C 42.3338 1.30707 -1.90222 0
M  V30 463 C 43.3038 1.47881 -0.756332 0
M  V30 464 O 44.4888 1.61883 -1.00988 0
M  V30 465 C 41.6288 2.65769 -2.20138 0
M  V30 466 C 40.7418 2.56612 -3.47526 0
M  V30 467 C 39.8768 3.8402 -3.67017 0
M  V30 468 C 38.9158 3.69476 -4.8801 0
M  V30 469 N 38.0528 4.88774 -5.04029 0
M  V30 470 H 42.8928 1.00512 -2.80538 0
M  V30 471 H 40.4298 0.485055 -1.38873 0
M  V30 472 H 42.3878 3.44386 -2.35487 0
M  V30 473 H 41.0178 2.94115 -1.33027 0
M  V30 474 H 40.0698 1.69571 -3.40514 0
M  V30 475 H 41.3818 2.41774 -4.36287 0
M  V30 476 H 40.5358 4.7108 -3.8232 0
M  V30 477 H 39.2748 4.01754 -2.76487 0
M  V30 478 H 38.2798 2.80799 -4.72686 0
M  V30 479 H 39.5048 3.53238 -5.8 0
M  V30 480 H 37.4508 5.0687 -4.16435 0
M  V30 481 H 37.3678 4.76562 -5.86877 0
M  V30 482 H 38.6358 5.77335 -5.23741 0
M  V30 483 N 42.8649 1.48995 0.513639 0
M  V30 484 C 43.8279 1.64229 1.59879 0
M  V30 485 C 44.8279 0.514696 1.5234 0
M  V30 486 O 46.0179 0.78087 1.55718 0
M  V30 487 C 43.1499 1.62783 2.99524 0
M  V30 488 H 44.3429 2.61004 1.47705 0
M  V30 489 H 41.8959 1.37837 0.736936 0
M  V30 490 H 42.6309 0.675461 3.17188 0
M  V30 491 H 42.4159 2.4466 3.06404 0
M  V30 492 H 43.9059 1.76669 3.78388 0
M  V30 493 N 44.343 -0.763751 1.37857 0
M  V30 494 C 45.59 -1.52257 1.33506 0
M  V30 495 C 45.918 -1.94343 -0.078022 0
M  V30 496 O 45.173 -1.64958 -1.05297 0
M  V30 497 C 45.472 -2.79499 2.22745 0
M  V30 498 C 45.138 -2.56426 3.70886 0
M  V30 499 C 43.8 -2.49842 4.11257 0
M  V30 500 C 46.152 -2.36008 4.64704 0
M  V30 501 C 43.48 -2.20841 5.43549 0
M  V30 502 C 45.832 -2.0853 5.97242 0
M  V30 503 C 44.496 -2.00396 6.36709 0
M  V30 504 H 43.766 -0.557149 0.488534 0
M  V30 505 H 46.413 -0.879073 1.70131 0
M  V30 506 H 44.718 -3.48447 1.79142 0
M  V30 507 H 46.415 -3.37413 2.16688 0
M  V30 508 H 43.005 -2.62416 3.38874 0
M  V30 509 H 47.189 -2.40079 4.34368 0
M  V30 510 H 42.445 -2.13045 5.73081 0
M  V30 511 H 46.619 -1.91732 6.69486 0
M  V30 512 H 44.246 -1.77688 7.39142 0
M  V30 513 N 45.8211 -1.22559 -0.990812 0
M  V30 514 C 47.0981 -0.959875 -1.70428 0
M  V30 515 C 47.4781 0.524455 -2.04481 0
M  V30 516 O 46.8261 1.49302 -1.72977 0
M  V30 517 C 47.0361 -1.85955 -2.95333 0
M  V30 518 C 48.3841 -2.11687 -3.68068 0
M  V30 519 O 49.4081 -1.8342 -3.05345 0
M  V30 520 O 48.2671 -2.59572 -4.80921 0
M  V30 521 H 45.3611 -0.361154 -0.743974 0
M  V30 522 H 47.9071 -1.33554 -1.04697 0
M  V30 523 H 46.6791 -2.86346 -2.66687 0
M  V30 524 H 46.3021 -1.4856 -3.68803 0
M  V30 525 N 47.2992 1.18797 -1.03562 0
M  V30 526 C 48.2292 2.24472 -0.643019 0
M  V30 527 C 49.2102 1.66433 0.351283 0
M  V30 528 O 50.3952 1.92803 0.232505 0
M  V30 529 C 47.5252 3.473 4.24935e-05 0
M  V30 530 C 46.4792 4.18055 -0.917257 0
M  V30 531 C 45.8052 5.34519 -0.138941 0
M  V30 532 C 47.1052 4.72109 -2.23407 0
M  V30 533 H 48.7992 2.57566 -1.52643 0
M  V30 534 H 46.3452 1.23806 -0.735394 0
M  V30 535 H 48.2982 4.20426 0.286383 0
M  V30 536 H 47.0222 3.13424 0.918299 0
M  V30 537 H 45.6812 3.46821 -1.1879 0
M  V30 538 H 45.3292 4.96891 0.781562 0
M  V30 539 H 45.0292 5.82794 -0.750005 0
M  V30 540 H 46.5532 6.10438 0.1405 0
M  V30 541 H 47.9672 5.36955 -2.00879 0
M  V30 542 H 46.3642 5.30897 -2.79765 0
M  V30 543 H 47.4342 3.89807 -2.88407 0
M  V30 544 N 48.7773 0.814389 1.34928 0
M  V30 545 C 50.0263 0.394871 1.97797 0
M  V30 546 C 50.3393 -1.04555 1.65311 0
M  V30 547 O 51.5453 -1.56856 2.21604 0
M  V30 548 C 50.0013 0.655103 3.53888 0
M  V30 549 C 49.6093 2.10858 3.95276 0
M  V30 550 C 51.3533 0.301329 4.23429 0
M  V30 551 C 49.2603 2.31415 5.44244 0
M  V30 552 H 48.1903 0.143913 0.740139 0
M  V30 553 H 50.8413 0.999544 1.53888 0
M  V30 554 H 49.2233 -0.0196253 3.95995 0
M  V30 555 H 50.3973 2.82176 3.64298 0
M  V30 556 H 48.7123 2.42297 3.38646 0
M  V30 557 H 51.3093 0.432869 5.32945 0
M  V30 558 H 51.6523 -0.75331 4.09428 0
M  V30 559 H 52.1853 0.930288 3.86769 0
M  V30 560 H 48.9243 3.35353 5.63222 0
M  V30 561 H 48.4443 1.6463 5.76764 0
M  V30 562 H 50.1233 2.13352 6.10811 0
M  V30 563 N 50.2554 -1.46986 0.568584 0
M  V30 564 C 51.5014 -2.02741 0.0488709 0
M  V30 565 C 51.8344 -1.44077 -1.30214 0
M  V30 566 O 51.1094 -0.600552 -1.84996 0
M  V30 567 C 51.3924 -3.60086 -0.032047 0
M  V30 568 C 51.2454 -4.29162 1.34686 0
M  V30 569 C 52.5644 -4.33838 -0.739798 0
M  V30 570 H 49.6834 -0.736749 0.0192338 0
M  V30 571 H 52.3254 -1.75289 0.733065 0
M  V30 572 H 50.4754 -3.83606 -0.61473 0
M  V30 573 H 52.1474 -4.16948 1.97362 0
M  V30 574 H 50.3904 -3.89073 1.91846 0
M  V30 575 H 51.0614 -5.37826 1.24285 0
M  V30 576 H 53.5374 -4.15378 -0.244939 0
M  V30 577 H 52.4134 -5.43537 -0.765406 0
M  V30 578 H 52.6744 -4.03875 -1.79827 0
M  V30 579 N 51.7335 -0.305618 -1.54608 0
M  V30 580 C 53.0105 0.355652 -1.92339 0
M  V30 581 C 53.3905 1.71324 -1.23335 0
M  V30 582 O 52.7385 2.25473 -0.370702 0
M  V30 583 C 52.9485 0.46572 -3.45879 0
M  V30 584 C 54.2965 0.734426 -4.182 0
M  V30 585 O 55.3205 0.54935 -3.51938 0
M  V30 586 O 54.1795 1.09024 -5.35515 0
M  V30 587 H 51.2735 0.199666 -0.802535 0
M  V30 588 H 53.8195 -0.354017 -1.65966 0
M  V30 589 H 52.5915 -0.488461 -3.88239 0
M  V30 590 H 52.2145 1.22367 -3.78301 0
M  V30 591 N 53.2116 1.57565 -0.0334293 0
M  V30 592 C 54.6276 1.56297 0.322997 0
M  V30 593 C 54.8276 1.03945 1.7262 0
M  V30 594 O 53.8836 0.688109 2.42943 0
M  V30 595 C 55.1966 3.00232 0.167664 0
M  V30 596 C 56.7446 3.12078 0.240107 0
M  V30 597 C 57.2196 4.57859 0.113513 0
M  V30 598 N 58.7106 4.62887 0.170359 0
M  V30 599 C 59.4456 5.73319 0.0962517 0
M  V30 600 N 58.9416 6.92794 -0.0291881 0
M  V30 601 N 60.7346 5.61898 0.150551 0
M  V30 602 H 52.8856 1.89923 -0.950956 0
M  V30 603 H 55.1486 0.873824 -0.367608 0
M  V30 604 H 54.8546 3.42501 -0.799102 0
M  V30 605 H 54.7286 3.654 0.936083 0
M  V30 606 H 57.1156 2.69718 1.19733 0
M  V30 607 H 57.1966 2.49623 -0.558763 0
M  V30 608 H 56.8406 5.009 -0.840314 0
M  V30 609 H 56.7706 5.18299 0.931302 0
M  V30 610 H 59.2616 3.76954 0.26728 0
M  V30 611 H 59.5746 7.7276 -0.0789252 0
M  V30 612 H 57.9196 6.94971 -0.0640299 0
M  V30 613 H 61.1106 4.67448 0.246981 0
M  V30 614 H 61.2836 6.47938 0.0893365 0
M  V30 615 N 54.6897 -0.239769 1.55765 0
M  V30 616 C 56.1007 -0.808263 1.68297 0
M  V30 617 C 56.4517 -1.85736 0.632181 0
M  V30 618 O 55.5767 -2.15277 -0.220204 0
M  V30 619 C 56.1717 -1.47284 3.05111 0
M  V30 620 C 54.7307 -1.98895 3.19559 0
M  V30 621 C 53.8777 -0.842575 2.64189 0
M  V30 622 H 56.8287 -0.0154422 1.58692 0
M  V30 623 H 56.8497 -2.34111 2.99954 0
M  V30 624 H 56.3617 -0.709053 3.81568 0
M  V30 625 H 54.4627 -2.78132 2.47938 0
M  V30 626 H 54.5757 -2.18143 4.26556 0
M  V30 627 H 52.9397 -1.24501 2.22197 0
M  V30 628 H 53.7227 -0.0917552 3.43177 0
M  V30 629 N 56.1678 -1.49265 -0.50573 0
M  V30 630 C 57.4138 -1.58748 -1.26202 0
M  V30 631 C 57.7468 -0.271227 -1.92297 0
M  V30 632 O 57.0218 0.724831 -1.80489 0
M  V30 633 C 57.3048 -2.74332 -2.33268 0
M  V30 634 C 57.1578 -4.15737 -1.71705 0
M  V30 635 C 58.4768 -2.85576 -3.34865 0
M  V30 636 H 55.5958 -0.577826 -0.457478 0
M  V30 637 H 58.2378 -1.81532 -0.560897 0
M  V30 638 H 56.3878 -2.55036 -2.93068 0
M  V30 639 H 58.0598 -4.46537 -1.15769 0
M  V30 640 H 56.3028 -4.21605 -1.02135 0
M  V30 641 H 56.9738 -4.92477 -2.49341 0
M  V30 642 H 59.4498 -3.03127 -2.8505 0
M  V30 643 H 58.3258 -3.68135 -4.07146 0
M  V30 644 H 58.5868 -1.94732 -3.96903 0
M  V30 645 N 57.6459 0.756429 -1.3826 0
M  V30 646 C 58.8739 1.54565 -1.3754 0
M  V30 647 C 59.2889 1.88767 0.0355331 0
M  V30 648 O 58.6459 1.52572 1.0014 0
M  V30 649 C 58.6969 2.84654 -2.22833 0
M  V30 650 O 58.4179 2.51912 -3.5843 0
M  V30 651 C 59.9189 3.78807 -2.30261 0
M  V30 652 H 57.1389 0.478353 -0.470553 0
M  V30 653 H 59.6829 0.936381 -1.81803 0
M  V30 654 H 57.8379 3.41965 -1.8204 0
M  V30 655 H 58.2519 3.35325 -4.03308 0
M  V30 656 H 59.7259 4.67045 -2.94233 0
M  V30 657 H 60.2029 4.19038 -1.31545 0
M  V30 658 H 60.8089 3.2742 -2.71433 0
M  V30 659 N 59.124 1.23083 0.984299 0
M  V30 660 C 60.054 1.03292 2.09411 0
M  V30 661 C 61.035 -0.048923 1.7003 0
M  V30 662 O 62.22 0.114967 1.93859 0
M  V30 663 C 59.35 0.619155 3.41736 0
M  V30 664 C 58.304 1.64791 3.95004 0
M  V30 665 C 57.63 1.0897 5.23478 0
M  V30 666 C 58.93 3.03999 4.24714 0
M  V30 667 H 60.624 1.96119 2.26225 0
M  V30 668 H 58.17 0.944344 1.08711 0
M  V30 669 H 60.123 0.467777 4.18796 0
M  V30 670 H 58.847 -0.344786 3.24775 0
M  V30 671 H 57.506 1.78721 3.20085 0
M  V30 672 H 57.154 0.11686 5.02864 0
M  V30 673 H 56.854 1.77704 5.60085 0
M  V30 674 H 58.378 0.950093 6.03163 0
M  V30 675 H 59.792 2.93393 4.92538 0
M  V30 676 H 58.189 3.69936 4.72512 0
M  V30 677 H 59.259 3.53285 3.32142 0
M  V30 678 N 60.6021 -1.18246 1.0419 0
M  V30 679 C 61.8481 -1.88536 0.747122 0
M  V30 680 C 62.1811 -1.80223 -0.723409 0
M  V30 681 O 61.4561 -1.20337 -1.52804 0
M  V30 682 C 61.7391 -3.38968 1.21544 0
M  V30 683 C 61.5921 -3.56084 2.74816 0
M  V30 684 C 62.9111 -4.32648 0.806482 0
M  V30 685 H 60.0301 -0.684619 0.272883 0
M  V30 686 H 62.6721 -1.39113 1.29413 0
M  V30 687 H 60.8221 -3.8119 0.750081 0
M  V30 688 H 62.4941 -3.22946 3.29399 0
M  V30 689 H 60.7371 -2.98699 3.14582 0
M  V30 690 H 61.4081 -4.61639 3.02644 0
M  V30 691 H 63.8841 -3.98211 1.20695 0
M  V30 692 H 62.7601 -5.36462 1.1619 0
M  V30 693 H 63.0211 -4.41146 -0.29029 0
M  V30 694 N 62.0802 -0.821533 -1.34494 0
M  V30 695 C 63.4962 -0.507117 -1.51329 0
M  V30 696 C 63.6962 0.968964 -1.76673 0
M  V30 697 O 62.7522 1.75348 -1.81685 0
M  V30 698 C 64.0652 -1.36544 -2.67911 0
M  V30 699 C 65.6132 -1.36242 -2.81793 0
M  V30 700 C 66.0882 -2.2052 -4.01416 0
M  V30 701 N 67.5792 -2.18136 -4.08621 0
M  V30 702 C 68.3142 -2.80095 -5.00334 0
M  V30 703 N 67.8102 -3.51039 -5.9728 0
M  V30 704 N 69.6032 -2.69656 -4.93196 0
M  V30 705 H 61.7542 -1.77729 -1.16302 0
M  V30 706 H 64.0172 -0.757291 -0.570276 0
M  V30 707 H 63.7232 -2.41361 -2.55808 0
M  V30 708 H 63.5972 -1.02917 -3.62888 0
M  V30 709 H 65.9842 -0.322041 -2.93338 0
M  V30 710 H 66.0652 -1.73866 -1.87628 0
M  V30 711 H 65.7092 -3.24607 -3.90631 0
M  V30 712 H 65.6392 -1.80247 -4.94791 0
M  V30 713 H 68.1302 -1.6653 -3.39229 0
M  V30 714 H 68.4432 -3.95565 -6.63889 0
M  V30 715 H 66.7882 -3.55145 -5.97409 0
M  V30 716 H 69.9792 -2.13808 -4.16418 0
M  V30 717 H 70.1522 -3.1823 -5.64476 0
M  V30 718 N 63.5583 1.46682 -0.576371 0
M  V30 719 C 64.4683 2.34032 0.163141 0
M  V30 720 C 65.4843 1.49367 0.892501 0
M  V30 721 O 66.6603 1.82252 0.857106 0
M  V30 722 C 63.7253 3.26435 1.16795 0
M  V30 723 C 62.7863 4.26998 0.443944 0
M  V30 724 C 62.0193 5.14986 1.40088 0
M  V30 725 O 62.2423 5.05785 2.637 0
M  V30 726 O 61.1763 5.94906 0.914917 0
M  V30 727 H 65.0023 2.98607 -0.55388 0
M  V30 728 H 62.5873 1.45554 -0.336821 0
M  V30 729 H 64.4693 3.83459 1.74748 0
M  V30 730 H 63.1443 2.64465 1.86655 0
M  V30 731 H 62.0513 3.7368 -0.177271 0
M  V30 732 H 63.3843 4.91736 -0.213566 0
M  V30 733 N 65.0364 0.313813 1.54444 0
M  V30 734 C 66.2834 -0.291675 2.00388 0
M  V30 735 C 66.6114 -1.52904 1.2021 0
M  V30 736 O 65.8664 -1.93833 0.269707 0
M  V30 737 C 66.1654 -0.680386 3.50864 0
M  V30 738 C 65.8314 0.456699 4.48581 0
M  V30 739 C 64.4934 0.768824 4.75018 0
M  V30 740 C 66.8454 1.22098 5.06697 0
M  V30 741 C 64.1734 1.84812 5.56831 0
M  V30 742 C 66.5254 2.29029 5.89685 0
M  V30 743 C 65.1894 2.60834 6.14428 0
M  V30 744 H 64.4594 -0.106732 0.733273 0
M  V30 745 H 67.1064 0.43557 1.86481 0
M  V30 746 H 65.4114 -1.48791 3.62448 0
M  V30 747 H 67.1084 -1.16026 3.83847 0
M  V30 748 H 63.6984 0.203337 4.28117 0
M  V30 749 H 67.8824 0.993096 4.86263 0
M  V30 750 H 63.1384 2.09912 5.74236 0
M  V30 751 H 67.3124 2.887 6.33739 0
M  V30 752 H 64.9394 3.44596 6.77612 0
M  V30 753 N 66.5145 -1.57545 0.0417849 0
M  V30 754 C 67.7635 -1.91494 -0.633492 0
M  V30 755 C 68.0765 -0.921084 -1.72556 0
M  V30 756 O 69.2825 -1.15228 -2.45835 0
M  V30 757 C 67.7385 -3.40072 -1.17808 0
M  V30 758 C 67.3465 -4.47843 -0.118633 0
M  V30 759 C 69.0905 -3.8307 -1.82915 0
M  V30 760 C 66.9975 -5.87529 -0.675578 0
M  V30 761 H 65.9275 -0.714653 -0.24039 0
M  V30 762 H 68.5785 -1.83175 0.109148 0
M  V30 763 H 66.9605 -3.43364 -1.97274 0
M  V30 764 H 68.1345 -4.56128 0.654494 0
M  V30 765 H 66.4495 -4.14128 0.434414 0
M  V30 766 H 69.0465 -4.84794 -2.25563 0
M  V30 767 H 69.3895 -3.1881 -2.67705 0
M  V30 768 H 69.9225 -3.82255 -1.10119 0
M  V30 769 H 66.6615 -6.55362 0.134475 0
M  V30 770 H 66.1815 -5.82824 -1.4169 0
M  V30 771 H 67.8605 -6.36491 -1.1614 0
M  V30 772 N 67.9926 0.231505 -1.5589 0
M  V30 773 C 68.9026 1.308 -1.94752 0
M  V30 774 C 69.9186 1.51826 -0.849989 0
M  V30 775 O 71.0946 1.6515 -1.15271 0
M  V30 776 C 68.1596 2.63968 -2.24771 0
M  V30 777 C 67.2206 2.51331 -3.48039 0
M  V30 778 C 66.4536 3.78148 -3.76616 0
M  V30 779 O 66.6766 4.80722 -3.07022 0
M  V30 780 O 65.6106 3.75857 -4.70123 0
M  V30 781 H 69.4366 1.0083 -2.86474 0
M  V30 782 H 67.0216 0.433547 -1.42971 0
M  V30 783 H 68.9036 3.42633 -2.45318 0
M  V30 784 H 67.5786 2.9364 -1.36225 0
M  V30 785 H 66.4856 1.709 -3.32782 0
M  V30 786 H 67.8186 2.26601 -4.36936 0
M  V30 787 N 69.4707 1.49531 0.497807 0
M  V30 788 C 70.8867 1.36365 0.829266 0
M  V30 789 C 71.0867 0.399184 1.97506 0
M  V30 790 O 70.1427 -0.167977 2.51941 0
M  V30 791 C 71.4557 2.77153 1.16647 0
M  V30 792 C 73.0037 2.85877 1.27449 0
M  V30 793 C 73.4787 4.2744 1.64497 0
M  V30 794 N 74.9697 4.30265 1.7154 0
M  V30 795 C 75.7047 5.3677 2.01656 0
M  V30 796 N 75.2007 6.53516 2.29976 0
M  V30 797 N 76.9937 5.24189 2.02934 0
M  V30 798 H 69.1447 2.10831 -0.257703 0
M  V30 799 H 71.4077 0.946534 -0.0527091 0
M  V30 800 H 71.1137 3.49442 0.397872 0
M  V30 801 H 70.9877 3.12722 2.10915 0
M  V30 802 H 73.3747 2.13824 2.0338 0
M  V30 803 H 73.4557 2.53887 0.312244 0
M  V30 804 H 73.0997 5.00021 0.891151 0
M  V30 805 H 73.0297 4.56896 2.61827 0
M  V30 806 H 75.5207 3.4607 1.51802 0
M  V30 807 H 75.8337 7.30506 2.52153 0
M  V30 808 H 74.1787 6.56737 2.27425 0
M  V30 809 H 77.3697 4.31988 1.80289 0
M  V30 810 H 77.5427 6.07286 2.26071 0
M  V30 811 N 70.9488 -0.749086 1.3866 0
M  V30 812 C 71.8808 -1.87273 1.32142 0
M  V30 813 C 72.8938 -1.61127 0.232787 0
M  V30 814 O 74.0828 -1.71623 0.49069 0
M  V30 815 C 71.1828 -3.23005 1.02571 0
M  V30 816 C 70.3558 -3.7662 2.22433 0
M  V30 817 C 69.4148 -4.90879 1.89537 0
M  V30 818 O 68.4408 -5.05276 2.62078 0
M  V30 819 N 69.6428 -5.74198 0.853031 0
M  V30 820 H 72.4078 -1.93373 2.28969 0
M  V30 821 H 69.9688 -0.929216 1.32579 0
M  V30 822 H 71.9608 -3.96992 0.786085 0
M  V30 823 H 70.5308 -3.12262 0.145249 0
M  V30 824 H 69.7508 -2.94147 2.62434 0
M  V30 825 H 71.0388 -4.09173 3.02415 0
M  V30 826 H 70.4368 -5.6514 0.25155 0
M  V30 827 H 68.9938 -6.48313 0.67329 0
M  V30 828 N 72.4269 -1.23603 -0.977757 0
M  V30 829 C 73.3769 -0.986664 -2.05545 0
M  V30 830 C 74.3609 0.0683009 -1.60755 0
M  V30 831 O 75.5529 -0.144162 -1.76412 0
M  V30 832 C 72.6819 -0.582623 -3.3832 0
M  V30 833 C 71.7679 -1.67313 -3.89701 0
M  V30 834 N 72.1589 -2.90394 -4.14132 0
M  V30 835 C 70.4569 -1.54832 -4.18262 0
M  V30 836 C 71.1579 -3.61017 -4.56116 0
M  V30 837 N 70.1339 -2.8854 -4.60701 0
M  V30 838 H 73.9359 -1.92139 -2.22396 0
M  V30 839 H 71.4499 -1.1358 -1.16074 0
M  V30 840 H 73.4469 -0.38524 -4.15116 0
M  V30 841 H 72.1069 0.34503 -3.22862 0
M  V30 842 H 73.1179 -3.26673 -4.01877 0
M  V30 843 H 69.7949 -0.687969 -4.11793 0
M  V30 844 H 71.1849 -4.66544 -4.83514 0
M  V30 845 N 73.905 1.17692 -1.04816 0
M  V30 846 C 74.868 2.19787 -0.650117 0
M  V30 847 C 75.868 1.58044 0.296427 0
M  V30 848 O 77.058 1.74012 0.0808097 0
M  V30 849 C 74.19 3.40869 0.0456987 0
M  V30 850 H 75.383 2.56516 -1.5537 0
M  V30 851 H 72.936 1.31708 -0.841594 0
M  V30 852 H 73.671 3.09681 0.962726 0
M  V30 853 H 73.456 3.86928 -0.634727 0
M  V30 854 H 74.946 4.16445 0.310432 0
M  V30 855 N 75.3831 0.828654 1.34056 0
M  V30 856 C 76.3301 0.252567 2.29414 0
M  V30 857 C 77.3001 -0.62588 1.53857 0
M  V30 858 O 78.4851 -0.566312 1.82202 0
M  V30 859 C 75.6251 -0.574831 3.40279 0
M  V30 860 C 74.7381 0.326499 4.30764 0
M  V30 861 C 73.8731 -0.511016 5.28736 0
M  V30 862 C 72.9121 0.389342 6.1086 0
M  V30 863 N 72.0491 -0.409439 7.00905 0
M  V30 864 H 76.8891 1.07108 2.78086 0
M  V30 865 H 74.4261 0.539677 1.36843 0
M  V30 866 H 76.3841 -1.06992 4.03248 0
M  V30 867 H 75.0141 -1.35841 2.92826 0
M  V30 868 H 74.0661 0.939837 3.68607 0
M  V30 869 H 75.3781 1.01857 4.88289 0
M  V30 870 H 74.5321 -1.07035 5.97184 0
M  V30 871 H 73.2711 -1.23657 4.71763 0
M  V30 872 H 72.2761 0.960769 5.4134 0
M  V30 873 H 73.5011 1.1131 6.69916 0
M  V30 874 H 71.4471 -1.11856 6.46393 0
M  V30 875 H 71.3641 0.224126 7.55668 0
M  V30 876 H 72.6321 -0.951336 7.73673 0
M  V30 877 N 76.8612 -1.46375 0.584142 0
M  V30 878 C 77.8092 -2.32042 -0.161047 0
M  V30 879 C 78.8032 -1.44569 -0.882966 0
M  V30 880 O 80.0092 -1.61186 -0.801191 0
M  V30 881 H 76.3842 -0.748659 -0.0708033 0
M  V30 882 H 78.3552 -2.92704 0.580269 0
M  V30 883 C 77.1042 -3.27762 -1.1605 0
M  V30 884 H 76.4272 -3.95051 -0.614419 0
M  V30 885 H 77.8672 -3.90481 -1.65228 0
M  V30 886 C 76.3262 -2.53218 -2.22221 0
M  V30 887 O 76.8562 -2.29628 -3.29597 0
M  V30 888 N 75.0622 -2.13756 -1.96868 0
M  V30 889 H 74.6092 -2.33142 -1.09557 0
M  V30 890 H 74.5672 -1.642 -2.68115 0
M  V30 891 N 78.3393 -0.321999 -1.54275 0
M  V30 892 C 79.7553 0.0306999 -1.5957 0
M  V30 893 C 79.9553 1.50614 -1.33857 0
M  V30 894 O 79.0113 2.2619 -1.12223 0
M  V30 895 C 80.3243 -0.386122 -2.98211 0
M  V30 896 C 81.8723 -0.336647 -3.11184 0
M  V30 897 C 82.3473 -0.728607 -4.52167 0
M  V30 898 N 83.8383 -0.681952 -4.58152 0
M  V30 899 C 84.5733 -0.957449 -5.6535 0
M  V30 900 N 84.0693 -1.3 -6.80494 0
M  V30 901 N 85.8623 -0.883113 -5.55119 0
M  V30 902 H 78.0133 -1.28332 -1.69247 0
M  V30 903 H 80.2763 -0.521716 -0.791528 0
M  V30 904 H 79.9823 -1.41404 -3.22022 0
M  V30 905 H 79.8563 0.249662 -3.76373 0
M  V30 906 H 82.2433 0.682058 -2.8711 0
M  V30 907 H 82.3243 -1.00734 -2.3513 0
M  V30 908 H 81.9683 -1.74522 -4.76974 0
M  V30 909 H 81.8983 -0.0356152 -5.26588 0
M  V30 910 H 84.3893 -0.428985 -3.75457 0
M  V30 911 H 84.7023 -1.49563 -7.58189 0
M  V30 912 H 83.0473 -1.33824 -6.81994 0
M  V30 913 H 86.2383 -0.615001 -4.64042 0
M  V30 914 H 86.4113 -1.10118 -6.38575 0
M  V30 915 N 79.8174 1.5752 -0.0501392 0
M  V30 916 C 81.0474 1.96678 0.632573 0
M  V30 917 C 81.4554 0.926298 1.64974 0
M  V30 918 O 80.7984 -0.09802 1.83438 0
M  V30 919 C 80.8604 3.32068 1.37735 0
M  V30 920 C 80.5244 4.54076 0.516131 0
M  V30 921 C 81.5214 5.19445 -0.217357 0
M  V30 922 C 79.2064 5.00304 0.44736 0
M  V30 923 C 81.2004 6.29378 -1.00807 0
M  V30 924 C 78.8874 6.10114 -0.347038 0
M  V30 925 C 79.8854 6.74512 -1.07344 0
M  V30 926 O 79.5734 7.82211 -1.85477 0
M  V30 927 H 79.3054 0.652193 0.177821 0
M  V30 928 H 81.8594 2.05091 -0.112543 0
M  V30 929 H 80.0894 3.20206 2.16807 0
M  V30 930 H 81.7784 3.55981 1.95019 0
M  V30 931 H 82.5444 4.84689 -0.173688 0
M  V30 932 H 78.4234 4.49971 1.00235 0
M  V30 933 H 81.9674 6.79575 -1.57556 0
M  V30 934 H 77.8644 6.44307 -0.392349 0
M  V30 935 H 78.6324 7.98982 -1.77678 0
M  V30 936 N 81.2955 -0.223234 1.56011 0
M  V30 937 C 82.5255 -0.963413 1.82762 0
M  V30 938 C 82.9335 -1.78516 0.626804 0
M  V30 939 O 82.2765 -1.78974 -0.414014 0
M  V30 940 C 82.3385 -1.93126 3.0322 0
M  V30 941 C 82.0025 -1.2942 4.38291 0
M  V30 942 C 82.9995 -0.684916 5.15369 0
M  V30 943 C 80.6845 -1.30647 4.85012 0
M  V30 944 C 82.6785 -0.0963971 6.37327 0
M  V30 945 C 80.3655 -0.71411 6.06913 0
M  V30 946 C 81.3635 -0.110123 6.82911 0
M  V30 947 O 81.0515 0.47303 8.02507 0
M  V30 948 H 80.7835 -0.288011 0.611576 0
M  V30 949 H 83.3375 -0.244103 2.03944 0
M  V30 950 H 81.5675 -2.68952 2.77852 0
M  V30 951 H 83.2565 -2.53685 3.16857 0
M  V30 952 H 84.0225 -0.667774 4.80381 0
M  V30 953 H 79.9015 -1.76598 4.25833 0
M  V30 954 H 83.4455 0.375657 6.96588 0
M  V30 955 H 79.3425 -0.728659 6.41374 0
M  V30 956 H 80.1105 0.367186 8.17676 0
M  V30 957 N 82.7736 -1.49793 -0.48987 0
M  V30 958 C 84.0036 -1.6333 -1.26518 0
M  V30 959 C 84.4116 -0.308392 -1.8667 0
M  V30 960 O 83.7546 0.717512 -1.69108 0
M  V30 961 C 83.8166 -2.6522 -2.4269 0
M  V30 962 C 83.4806 -4.09279 -2.03321 0
M  V30 963 C 84.4776 -4.95738 -1.56652 0
M  V30 964 C 82.1626 -4.55082 -2.12616 0
M  V30 965 C 84.1566 -6.26041 -1.19795 0
M  V30 966 C 81.8436 -5.85396 -1.75371 0
M  V30 967 C 82.8416 -6.707 -1.29036 0
M  V30 968 O 82.5296 -7.98584 -0.92299 0
M  V30 969 H 82.2616 -0.552502 -0.389509 0
M  V30 970 H 84.8156 -1.96642 -0.593381 0
M  V30 971 H 83.0456 -2.27112 -3.12981 0
M  V30 972 H 84.7346 -2.68171 -3.04695 0
M  V30 973 H 85.5006 -4.61575 -1.48908 0
M  V30 974 H 81.3796 -3.88844 -2.47631 0
M  V30 975 H 84.9236 -6.92578 -0.835582 0
M  V30 976 H 80.8206 -6.19085 -1.82768 0
M  V30 977 H 81.5886 -8.11692 -1.05349 0
M  V30 978 N 84.2517 0.741722 -1.39055 0
M  V30 979 C 85.4817 1.52876 -1.3897 0
M  V30 980 C 85.8897 1.8919 0.0193266 0
M  V30 981 O 85.2327 1.54138 0.999356 0
M  V30 982 C 85.2947 2.84929 -2.19216 0
M  V30 983 C 84.9587 2.71086 -3.67915 0
M  V30 984 C 85.9557 2.40084 -4.61146 0
M  V30 985 C 83.6407 2.88168 -4.11418 0
M  V30 986 C 85.6347 2.26335 -5.95862 0
M  V30 987 C 83.3217 2.74037 -5.46211 0
M  V30 988 C 84.3197 2.43166 -6.38247 0
M  V30 989 O 84.0077 2.29115 -7.70559 0
M  V30 990 H 83.7397 0.479252 -0.476753 0
M  V30 991 H 86.2937 0.924751 -1.83405 0
M  V30 992 H 84.5237 3.47564 -1.69518 0
M  V30 993 H 86.2127 3.46509 -2.11392 0
M  V30 994 H 86.9787 2.26545 -4.28838 0
M  V30 995 H 82.8577 3.11191 -3.40119 0
M  V30 996 H 86.4017 2.0216 -6.67665 0
M  V30 997 H 82.2987 2.87153 -5.78112 0
M  V30 998 H 83.0667 2.44237 -7.81211 0
M  V30 999 N 85.7298 1.2412 0.971189 0
M  V30 1000 C 86.6798 0.997551 2.05019 0
M  V30 1001 C 87.6638 -0.0597747 1.60789 0
M  V30 1002 O 88.8558 0.153516 1.76333 0
M  V30 1003 C 85.9848 0.600557 3.38006 0
M  V30 1004 C 85.0708 1.69377 3.88809 0
M  V30 1005 N 85.4618 2.92586 4.12586 0
M  V30 1006 C 83.7598 1.57048 4.17435 0
M  V30 1007 C 84.4608 3.63431 4.54195 0
M  V30 1008 N 83.4368 2.90979 4.59165 0
M  V30 1009 H 87.2388 1.93316 2.21374 0
M  V30 1010 H 84.7528 1.14194 1.1547 0
M  V30 1011 H 86.7498 0.40725 4.14906 0
M  V30 1012 H 85.4098 -0.327903 3.2304 0
M  V30 1013 H 86.4208 3.288 4.00139 0
M  V30 1014 H 83.0978 0.709798 4.11422 0
M  V30 1015 H 84.4878 4.69102 4.81033 0
M  V30 1016 N 87.2079 -1.17134 1.05439 0
M  V30 1017 C 88.6239 -1.39454 0.776201 0
M  V30 1018 C 88.8239 -1.91454 -0.628307 0
M  V30 1019 O 87.8799 -2.10777 -1.39031 0
M  V30 1020 C 89.1929 -2.38305 1.83388 0
M  V30 1021 C 90.7409 -2.52006 1.85639 0
M  V30 1022 C 91.2159 -3.54133 2.90437 0
M  V30 1023 N 92.7069 -3.61653 2.89415 0
M  V30 1024 C 93.4419 -4.4044 3.67152 0
M  V30 1025 N 92.9379 -5.22721 4.54681 0
M  V30 1026 N 94.7309 -4.35337 3.55581 0
M  V30 1027 H 86.8819 -0.817134 1.96053 0
M  V30 1028 H 89.1449 -0.421626 0.849079 0
M  V30 1029 H 88.8509 -2.07173 2.84204 0
M  V30 1030 H 88.7249 -3.37841 1.67761 0
M  V30 1031 H 91.1119 -2.82447 0.85486 0
M  V30 1032 H 91.1929 -1.52537 2.05344 0
M  V30 1033 H 90.8369 -3.24431 3.90777 0
M  V30 1034 H 90.7669 -4.53313 2.67983 0
M  V30 1035 H 93.2579 -3.02909 2.25952 0
M  V30 1036 H 93.5709 -5.80027 5.10674 0
M  V30 1037 H 91.9159 -5.22093 4.58741 0
M  V30 1038 H 95.1069 -3.70112 2.86592 0
M  V30 1039 H 95.2799 -4.96494 4.1641 0
M  V30 1040 N 88.686 -0.835752 -1.33615 0
M  V30 1041 C 89.618 -0.224151 -2.28101 0
M  V30 1042 C 90.631 0.593331 -1.51603 0
M  V30 1043 O 91.82 0.420911 -1.73466 0
M  V30 1044 C 88.92 0.703309 -3.31522 0
M  V30 1045 C 88.093 -0.0741528 -4.37337 0
M  V30 1046 C 87.152 0.776176 -5.20444 0
M  V30 1047 O 86.178 0.216506 -5.68788 0
M  V30 1048 N 87.38 2.09401 -5.41416 0
M  V30 1049 H 90.145 -1.03598 -2.81225 0
M  V30 1050 H 87.706 -0.69392 -1.46275 0
M  V30 1051 H 89.698 1.27707 -3.84022 0
M  V30 1052 H 88.268 1.41585 -2.78698 0
M  V30 1053 H 87.488 -0.82928 -3.85378 0
M  V30 1054 H 88.776 -0.608863 -5.05144 0
M  V30 1055 H 88.174 2.57229 -5.03835 0
M  V30 1056 H 86.731 2.61633 -5.96985 0
M  V30 1057 N 90.1641 1.46063 -0.591896 0
M  V30 1058 C 91.3941 2.06418 -0.0867676 0
M  V30 1059 C 91.8021 1.43975 1.22751 0
M  V30 1060 O 91.1451 0.542531 1.75506 0
M  V30 1061 C 91.2071 3.59213 0.143725 0
M  V30 1062 C 90.8711 4.439 -1.08635 0
M  V30 1063 C 91.8681 4.79864 -2.00067 0
M  V30 1064 C 89.5531 4.84896 -1.31077 0
M  V30 1065 C 91.5471 5.55661 -3.12282 0
M  V30 1066 C 89.2341 5.6045 -2.43596 0
M  V30 1067 C 90.2321 5.95747 -3.34027 0
M  V30 1068 O 89.9201 6.69772 -4.4459 0
M  V30 1069 H 89.6521 0.673443 -0.0587447 0
M  V30 1070 H 92.2061 1.88539 -0.814994 0
M  V30 1071 H 90.4361 3.75433 0.926668 0
M  V30 1072 H 92.1251 4.01463 0.5985 0
M  V30 1073 H 92.8911 4.48763 -1.83947 0
M  V30 1074 H 88.7701 4.56867 -0.61594 0
M  V30 1075 H 92.3141 5.8313 -3.82891 0
M  V30 1076 H 88.2111 5.90965 -2.59674 0
M  V30 1077 H 88.9791 6.88207 -4.43073 0
M  V30 1078 N 91.6422 0.330177 1.54103 0
M  V30 1079 C 93.0582 -0.0222371 1.59585 0
M  V30 1080 C 93.2582 -1.49902 1.34654 0
M  V30 1081 O 92.3142 -2.25592 1.13421 0
M  V30 1082 C 93.6272 0.401932 2.98002 0
M  V30 1083 C 95.1752 0.353145 3.11001 0
M  V30 1084 C 95.6502 0.752576 4.51775 0
M  V30 1085 N 97.1412 0.706239 4.57784 0
M  V30 1086 C 97.8762 0.987417 5.64834 0
M  V30 1087 N 97.3722 1.33607 6.79795 0
M  V30 1088 N 99.1652 0.91254 5.54643 0
M  V30 1089 H 91.3162 1.29228 1.68564 0
M  V30 1090 H 93.5792 0.525906 0.78875 0
M  V30 1091 H 93.2852 1.4311 3.21267 0
M  V30 1092 H 93.1592 -0.229699 3.765 0
M  V30 1093 H 95.5462 -0.666822 2.87467 0
M  V30 1094 H 95.6272 1.0198 2.34593 0
M  V30 1095 H 95.2712 1.77049 4.76042 0
M  V30 1096 H 95.2012 0.0635409 5.26562 0
M  V30 1097 H 97.6922 0.44889 3.75224 0
M  V30 1098 H 98.0052 1.53582 7.57385 0
M  V30 1099 H 96.3502 1.37439 6.81275 0
M  V30 1100 H 99.5412 0.639601 4.6371 0
M  V30 1101 H 99.7142 1.13503 6.37982 0
M  V30 1102 N 93.1203 -1.57491 0.0584922 0
M  V30 1103 C 94.5363 -1.56792 -0.298091 0
M  V30 1104 C 94.7363 -1.06679 -1.70944 0
M  V30 1105 O 93.7923 -0.726672 -2.41818 0
M  V30 1106 C 95.1053 -3.00461 -0.119879 0
M  V30 1107 C 96.6533 -3.1242 -0.190428 0
M  V30 1108 C 97.1283 -4.57982 -0.0406567 0
M  V30 1109 N 98.6193 -4.63099 -0.0966958 0
M  V30 1110 C 99.3543 -5.734 -0.00502943 0
M  V30 1111 N 98.8503 -6.9266 0.139402 0
M  V30 1112 N 100.643 -5.62067 -0.0611391 0
M  V30 1113 H 92.7943 -1.88386 0.98105 0
M  V30 1114 H 95.0573 -0.867865 0.381463 0
M  V30 1115 H 94.7633 -3.41187 0.85349 0
M  V30 1116 H 94.6373 -3.66843 -0.877833 0
M  V30 1117 H 97.0243 -2.71589 -1.15427 0
M  V30 1118 H 97.1053 -2.48702 0.598405 0
M  V30 1119 H 96.7493 -4.995 0.919897 0
M  V30 1120 H 96.6793 -5.19715 -0.848727 0
M  V30 1121 H 99.1703 -3.77331 -0.207277 0
M  V30 1122 H 99.4833 -7.72536 0.201855 0
M  V30 1123 H 97.8283 -6.94781 0.174586 0
M  V30 1124 H 101.019 -4.67782 -0.172583 0
M  V30 1125 H 101.192 -6.47999 0.0137562 0
M  V30 1126 N 94.5984 0.214957 -1.56127 0
M  V30 1127 C 95.8444 0.939762 -1.79712 0
M  V30 1128 C 96.1774 1.83723 -0.629247 0
M  V30 1129 O 95.4524 1.90925 0.371197 0
M  V30 1130 C 95.7354 1.77306 -3.13424 0
M  V30 1131 C 95.5884 0.90164 -4.40671 0
M  V30 1132 C 96.9074 2.74956 -3.43638 0
M  V30 1133 H 94.0264 0.340214 -0.653776 0
M  V30 1134 H 96.6684 0.20824 -1.88855 0
M  V30 1135 H 94.8184 2.39673 -3.0576 0
M  V30 1136 H 96.4904 0.294206 -4.60361 0
M  V30 1137 H 94.7334 0.207368 -4.33304 0
M  V30 1138 H 95.4044 1.51923 -5.30682 0
M  V30 1139 H 97.8804 2.22724 -3.51473 0
M  V30 1140 H 96.7564 3.30358 -4.38355 0
M  V30 1141 H 97.0174 3.53023 -2.66134 0
M  V30 1142 N 96.0765 1.50051 0.48192 0
M  V30 1143 C 97.4875 1.5348 1.06305 0
M  V30 1144 C 97.8385 0.331997 1.93371 0
M  V30 1145 O 96.9635 -0.556256 2.09129 0
M  V30 1146 C 97.5585 2.7813 1.93466 0
M  V30 1147 C 96.1175 2.84275 2.46707 0
M  V30 1148 C 95.2645 2.47637 1.24785 0
M  V30 1149 H 98.2155 1.56472 0.264995 0
M  V30 1150 H 98.2365 2.59372 2.78399 0
M  V30 1151 H 97.7485 3.65654 1.30072 0
M  V30 1152 H 95.8495 2.01077 3.13686 0
M  V30 1153 H 95.9625 3.8691 2.82555 0
M  V30 1154 H 94.3265 1.99835 1.57918 0
M  V30 1155 H 95.1095 3.37457 0.630694 0
M  V30 1156 N 97.5546 -0.734337 1.39446 0
M  V30 1157 C 98.8316 -1.48579 1.27215 0
M  V30 1158 C 99.2116 -2.1077 -0.117968 0
M  V30 1159 O 98.5596 -1.98646 -1.12924 0
M  V30 1160 C 98.7696 -2.53667 2.39696 0
M  V30 1161 C 100.118 -3.20031 2.79044 0
M  V30 1162 O 101.142 -2.6398 2.39151 0
M  V30 1163 O 100.001 -4.21455 3.47905 0
M  V30 1164 H 97.0946 -0.659816 0.49857 0
M  V30 1165 H 99.6406 -0.768106 1.51322 0
M  V30 1166 H 98.4126 -2.06096 3.32626 0
M  V30 1167 H 98.0356 -3.32994 2.17258 0
M  V30 1168 N 99.0327 -1.24633 -0.964593 0
M  V30 1169 C 100.282 -1.08188 -1.7023 0
M  V30 1170 C 100.595 0.37873 -1.91898 0
M  V30 1171 O 101.801 0.663427 -2.6327 0
M  V30 1172 C 100.257 -1.88773 -3.06419 0
M  V30 1173 C 99.8647 -3.39263 -2.92582 0
M  V30 1174 C 101.609 -1.80867 -3.84041 0
M  V30 1175 C 99.5157 -4.1218 -4.24101 0
M  V30 1176 H 98.4457 -0.401245 -0.638372 0
M  V30 1177 H 101.097 -1.48742 -1.07462 0
M  V30 1178 H 99.4787 -1.41035 -3.70034 0
M  V30 1179 H 100.653 -3.94603 -2.37961 0
M  V30 1180 H 98.9677 -3.48154 -2.28424 0
M  V30 1181 H 101.565 -2.32646 -4.81435 0
M  V30 1182 H 101.908 -0.774543 -4.09031 0
M  V30 1183 H 102.441 -2.26301 -3.27159 0
M  V30 1184 H 99.1797 -5.15965 -4.04303 0
M  V30 1185 H 98.6997 -3.61626 -4.78526 0
M  V30 1186 H 100.379 -4.19349 -4.92702 0
M  V30 1187 N 100.511 1.16574 -1.06058 0
M  V30 1188 C 101.739 1.90952 -0.796552 0
M  V30 1189 C 102.154 1.77302 0.648808 0
M  V30 1190 O 101.511 1.11605 1.44397 0
M  V30 1191 C 101.562 3.41736 -1.17894 0
M  V30 1192 O 101.283 3.54975 -2.56758 0
M  V30 1193 C 102.784 4.33169 -0.942308 0
M  V30 1194 H 100.004 0.605594 -0.288959 0
M  V30 1195 H 102.548 1.47777 -1.41358 0
M  V30 1196 H 100.703 3.82623 -0.606491 0
M  V30 1197 H 101.117 4.4846 -2.72 0
M  V30 1198 H 102.591 5.37439 -1.25952 0
M  V30 1199 H 103.068 4.3903 0.122078 0
M  V30 1200 H 103.674 3.98007 -1.49902 0
M  V30 1201 N 101.989 0.842826 1.3317 0
M  V30 1202 C 102.899 0.281444 2.32906 0
M  V30 1203 C 103.915 -0.594587 1.63526 0
M  V30 1204 O 105.091 -0.49777 1.95152 0
M  V30 1205 C 102.156 -0.530929 3.42611 0
M  V30 1206 C 101.217 0.369843 4.27704 0
M  V30 1207 C 100.45 -0.403853 5.3217 0
M  V30 1208 O 100.673 -1.63513 5.46461 0
M  V30 1209 O 99.6069 0.224199 6.01482 0
M  V30 1210 H 103.433 1.10744 2.82789 0
M  V30 1211 H 101.018 0.60545 1.36582 0
M  V30 1212 H 102.9 -0.992437 4.09547 0
M  V30 1213 H 101.575 -1.33392 2.94938 0
M  V30 1214 H 100.482 0.879275 3.6362 0
M  V30 1215 H 101.815 1.13771 4.78871 0
M  V30 1216 N 103.467 -1.45747 0.599634 0
M  V30 1217 C 104.707 -2.04181 0.0946309 0
M  V30 1218 C 105.071 -1.45895 -1.24815 0
M  V30 1219 O 106.272 -1.95633 -1.8434 0
M  V30 1220 C 104.543 -3.57368 0.047581 0
M  V30 1221 S 106.102 -4.36997 -0.397387 0
M  V30 1222 H 102.92 -0.70953 0.0456954 0
M  V30 1223 H 105.522 -1.78564 0.795946 0
M  V30 1224 H 104.226 -3.97303 1.02852 0
M  V30 1225 H 103.757 -3.87549 -0.675977 0
M  V30 1226 H 105.772 -4.68012 -1.64862 0
M  V30 1227 N 104.945 -0.338344 -1.53925 0
M  V30 1228 C 105.892 0.520845 -2.24846 0
M  V30 1229 C 106.862 1.09976 -1.24477 0
M  V30 1230 O 108.047 1.13735 -1.53196 0
M  V30 1231 C 105.187 1.6685 -3.02084 0
M  V30 1232 C 104.3 1.11739 -4.17299 0
M  V30 1233 C 103.435 2.23193 -4.82036 0
M  V30 1234 C 102.474 1.65407 -5.89328 0
M  V30 1235 N 101.611 2.70582 -6.47866 0
M  V30 1236 H 106.451 -0.0904881 -2.97863 0
M  V30 1237 H 103.988 -0.0564282 -1.46992 0
M  V30 1238 H 105.946 2.34407 -3.45122 0
M  V30 1239 H 104.576 2.2509 -2.31375 0
M  V30 1240 H 103.628 0.332919 -3.7894 0
M  V30 1241 H 104.94 0.654677 -4.94485 0
M  V30 1242 H 104.094 2.98626 -5.28117 0
M  V30 1243 H 102.833 2.72807 -4.04262 0
M  V30 1244 H 101.838 0.884779 -5.42634 0
M  V30 1245 H 103.063 1.16652 -6.69006 0
M  V30 1246 H 101.009 3.1946 -5.72959 0
M  V30 1247 H 100.926 2.28917 -7.20509 0
M  V30 1248 H 102.194 3.45799 -6.98601 0
M  V30 1249 N 106.423 1.57458 -0.0668435 0
M  V30 1250 C 107.333 2.15937 0.916975 0
M  V30 1251 C 108.349 1.12123 1.33058 0
M  V30 1252 O 109.525 1.44366 1.40429 0
M  V30 1253 C 106.59 2.70547 2.16807 0
M  V30 1254 C 105.651 3.89215 1.81135 0
M  V30 1255 C 104.884 4.41211 3.0028 0
M  V30 1256 O 105.107 3.92225 4.14144 0
M  V30 1257 O 104.041 5.32605 2.80384 0
M  V30 1258 H 107.867 3.00354 0.449561 0
M  V30 1259 H 105.452 1.48584 0.155949 0
M  V30 1260 H 107.334 3.0557 2.90181 0
M  V30 1261 H 106.009 1.89192 2.62656 0
M  V30 1262 H 104.916 3.59054 1.05028 0
M  V30 1263 H 106.249 4.71848 1.40073 0
M  V30 1264 N 107.901 -0.206675 1.56239 0
M  V30 1265 C 108.811 -1.27686 1.96808 0
M  V30 1266 C 109.827 -1.50455 0.874035 0
M  V30 1267 O 111.003 -1.63295 1.17884 0
M  V30 1268 C 108.068 -2.60358 2.28942 0
M  V30 1269 C 107.129 -2.45762 3.51994 0
M  V30 1270 C 106.362 -3.72108 3.82585 0
M  V30 1271 O 106.585 -4.75776 3.14631 0
M  V30 1272 O 105.519 -3.6833 4.76043 0
M  V30 1273 H 109.345 -0.962593 2.88041 0
M  V30 1274 H 106.93 -0.410746 1.43643 0
M  V30 1275 H 108.812 -3.38687 2.50737 0
M  V30 1276 H 107.487 -2.91435 1.4088 0
M  V30 1277 H 106.394 -1.65584 3.35459 0
M  V30 1278 H 107.727 -2.19621 4.40486 0
M  V30 1279 N 109.379 -1.50304 -0.473955 0
M  V30 1280 C 110.656 -1.51667 -1.23518 0
M  V30 1281 C 111.036 -0.259701 -2.09496 0
M  V30 1282 O 110.384 0.756986 -2.15597 0
M  V30 1283 C 110.594 -2.81082 -2.06868 0
M  V30 1284 C 111.942 -3.31631 -2.65153 0
M  V30 1285 O 112.966 -2.82384 -2.17113 0
M  V30 1286 O 111.825 -4.17471 -3.52675 0
M  V30 1287 H 108.919 -0.60822 -0.560355 0
M  V30 1288 H 111.465 -1.62592 -0.486011 0
M  V30 1289 H 110.237 -3.64041 -1.4349 0
M  V30 1290 H 109.86 -2.73146 -2.88924 0
M  V30 1291 N 110.857 0.726932 -1.39834 0
M  V30 1292 C 112.106 1.48214 -1.36805 0
M  V30 1293 C 112.419 1.95576 0.0305291 0
M  V30 1294 O 113.625 2.7088 0.183417 0
M  V30 1295 C 112.081 2.67854 -2.40379 0
M  V30 1296 C 111.689 2.27408 -3.85992 0
M  V30 1297 C 113.433 3.45641 -2.46439 0
M  V30 1298 C 111.34 3.43819 -4.81189 0
M  V30 1299 H 110.27 0.556606 -0.508631 0
M  V30 1300 H 112.921 0.792216 -1.65518 0
M  V30 1301 H 111.303 3.3896 -2.04749 0
M  V30 1302 H 112.477 1.63795 -4.30706 0
M  V30 1303 H 110.792 1.62692 -3.83302 0
M  V30 1304 H 113.389 4.32244 -3.14753 0
M  V30 1305 H 113.732 3.88669 -1.49139 0
M  V30 1306 H 114.265 2.8157 -2.81004 0
M  V30 1307 H 111.004 3.05834 -5.79781 0
M  V30 1308 H 110.524 4.06385 -4.41148 0
M  V30 1309 H 112.203 4.10043 -5.00474 0
M  V30 1310 N 112.336 1.25143 0.95797 0
M  V30 1311 C 113.269 0.995565 2.05338 0
M  V30 1312 C 114.247 -0.0740423 1.62431 0
M  V30 1313 O 115.431 0.0649212 1.88388 0
M  V30 1314 C 112.558 0.504298 3.34925 0
M  V30 1315 C 111.604 1.56393 3.96792 0
M  V30 1316 S 112.437 3.14815 4.33188 0
M  V30 1317 C 113.593 2.67415 5.65898 0
M  V30 1318 H 113.826 1.92309 2.26726 0
M  V30 1319 H 111.359 1.08635 1.09716 0
M  V30 1320 H 113.317 0.227497 4.09869 0
M  V30 1321 H 111.978 -0.402671 3.11508 0
M  V30 1322 H 111.171 1.17082 4.90212 0
M  V30 1323 H 110.773 1.79124 3.28315 0
M  V30 1324 H 113.065 2.10833 6.4386 0
M  V30 1325 H 114.008 3.59463 6.10076 0
M  V30 1326 H 114.416 2.07521 5.24972 0
M  V30 1327 N 113.814 -1.1601 1.06675 0
M  V30 1328 C 115.054 -1.88304 0.795037 0
M  V30 1329 C 115.418 -1.80062 -0.666466 0
M  V30 1330 O 116.619 -2.47319 -1.05293 0
M  V30 1331 C 114.89 -3.33664 1.28076 0
M  V30 1332 S 116.449 -4.23768 1.13868 0
M  V30 1333 H 113.267 -0.649928 0.288296 0
M  V30 1334 H 115.869 -1.4001 1.36445 0
M  V30 1335 H 114.573 -3.37203 2.33927 0
M  V30 1336 H 114.104 -3.87009 0.706253 0
M  V30 1337 H 116.119 -4.96148 0.0719668 0
M  V30 1338 N 115.292 -0.849877 -1.32721 0
M  V30 1339 C 116.225 -0.235903 -2.26977 0
M  V30 1340 C 117.203 0.623355 -1.50177 0
M  V30 1341 O 118.387 0.581207 -1.79316 0
M  V30 1342 C 115.514 0.667712 -3.32053 0
M  V30 1343 C 114.56 -0.11753 -4.26338 0
M  V30 1344 S 115.393 -1.48277 -5.14562 0
M  V30 1345 C 116.549 -0.584741 -6.23163 0
M  V30 1346 H 116.782 -1.03495 -2.78704 0
M  V30 1347 H 114.315 -0.64724 -1.40179 0
M  V30 1348 H 116.273 1.18343 -3.93072 0
M  V30 1349 H 114.934 1.44052 -2.7912 0
M  V30 1350 H 114.127 0.57051 -5.00761 0
M  V30 1351 H 113.729 -0.564668 -3.69713 0
M  V30 1352 H 116.021 0.212968 -6.77165 0
M  V30 1353 H 116.964 -1.29947 -6.96074 0
M  V30 1354 H 117.372 -0.161202 -5.6427 0
M  V30 1355 N 116.77 1.45427 -0.607355 0
M  V30 1356 C 118 2.06314 -0.108656 0
M  V30 1357 C 118.408 1.45269 1.21217 0
M  V30 1358 O 117.751 0.561115 1.74921 0
M  V30 1359 C 117.813 3.59345 0.105618 0
M  V30 1360 C 117.477 4.42723 -1.13337 0
M  V30 1361 C 118.474 4.77715 -2.05145 0
M  V30 1362 C 116.159 4.83478 -1.36213 0
M  V30 1363 C 118.153 5.52317 -3.18158 0
M  V30 1364 C 115.84 5.57835 -2.49527 0
M  V30 1365 C 116.838 5.92171 -3.40327 0
M  V30 1366 O 116.526 6.65019 -4.51669 0
M  V30 1367 H 116.258 0.672782 -0.0658842 0
M  V30 1368 H 118.812 1.87664 -0.834945 0
M  V30 1369 H 117.042 3.76394 0.886796 0
M  V30 1370 H 118.731 4.02076 0.555886 0
M  V30 1371 H 119.497 4.46787 -1.88697 0
M  V30 1372 H 115.376 4.56188 -0.664362 0
M  V30 1373 H 118.92 5.79036 -3.89054 0
M  V30 1374 H 114.817 5.88177 -2.65928 0
M  V30 1375 H 115.585 6.83469 -4.50348 0
M  V30 1376 N 118.248 0.346503 1.53744 0
M  V30 1377 C 119.158 -0.517293 2.28826 0
M  V30 1378 C 120.174 -1.10935 1.3405 0
M  V30 1379 O 121.35 -1.1244 1.6709 0
M  V30 1380 C 118.415 -1.65098 3.04866 0
M  V30 1381 C 117.476 -1.0884 4.15274 0
M  V30 1382 C 116.709 -2.16806 4.87679 0
M  V30 1383 O 116.932 -3.3758 4.59778 0
M  V30 1384 O 115.866 -1.80934 5.74061 0
M  V30 1385 H 119.692 0.0931396 3.03557 0
M  V30 1386 H 117.277 0.111458 1.48984 0
M  V30 1387 H 119.159 -2.31053 3.5241 0
M  V30 1388 H 117.834 -2.24717 2.32989 0
M  V30 1389 H 116.741 -0.3933 3.72027 0
M  V30 1390 H 118.074 -0.537036 4.89261 0
M  V30 1391 N 119.726 -1.57421 0.075193 0
M  V30 1392 C 120.689 -2.11791 -0.876203 0
M  V30 1393 C 121.689 -1.04268 -1.22412 0
M  V30 1394 O 122.879 -1.30242 -1.15684 0
M  V30 1395 C 120.011 -2.62207 -2.17854 0
M  V30 1396 H 121.204 -2.9716 -0.40444 0
M  V30 1397 H 118.757 -1.55333 -0.173557 0
M  V30 1398 H 119.492 -1.803 -2.6956 0
M  V30 1399 H 119.277 -3.40802 -1.93897 0
M  V30 1400 H 120.767 -3.04335 -2.85955 0
M  V30 1401 N 121.204 0.198386 -1.56346 0
M  V30 1402 C 122.114 1.2664 -1.97483 0
M  V30 1403 C 123.13 1.49989 -0.882002 0
M  V30 1404 O 124.306 1.62668 -1.18748 0
M  V30 1405 C 121.371 2.59141 -2.30319 0
M  V30 1406 C 120.432 2.43892 -3.53292 0
M  V30 1407 C 119.665 3.70074 -3.84553 0
M  V30 1408 O 119.888 4.74101 -3.1715 0
M  V30 1409 O 118.822 3.658 -4.7799 0
M  V30 1410 H 122.648 0.947304 -2.88548 0
M  V30 1411 H 120.233 0.403123 -1.43859 0
M  V30 1412 H 122.115 3.37352 -2.5253 0
M  V30 1413 H 120.79 2.90684 -1.42423 0
M  V30 1414 H 119.697 1.63803 -3.36332 0
M  V30 1415 H 121.03 2.17282 -4.41644 0
M  V30 1416 N 122.682 1.50554 0.465978 0
M  V30 1417 C 123.615 1.64436 1.58227 0
M  V30 1418 C 124.593 0.492367 1.54966 0
M  V30 1419 O 125.777 0.712536 1.74514 0
M  V30 1420 C 122.904 1.63165 2.96808 0
M  V30 1421 C 121.95 2.83987 3.18204 0
M  V30 1422 S 122.783 4.45219 2.97557 0
M  V30 1423 C 123.939 4.46649 4.3847 0
M  V30 1424 H 124.172 2.58861 1.46213 0
M  V30 1425 H 121.705 1.3988 0.653678 0
M  V30 1426 H 123.663 1.63116 3.76701 0
M  V30 1427 H 122.324 0.69967 3.06208 0
M  V30 1428 H 121.517 2.79416 4.19455 0
M  V30 1429 H 121.119 2.81629 2.46092 0
M  V30 1430 H 123.411 4.20526 5.31191 0
M  V30 1431 H 124.354 5.48295 4.48082 0
M  V30 1432 H 124.762 3.76296 4.20787 0
M  V30 1433 N 124.16 -0.719506 1.40217 0
M  V30 1434 C 125.092 -1.84428 1.36084 0
M  V30 1435 C 126.105 -1.60597 0.266913 0
M  V30 1436 O 127.294 -1.70544 0.526983 0
M  V30 1437 C 124.394 -3.20757 1.094 0
M  V30 1438 C 123.567 -3.71817 2.30372 0
M  V30 1439 C 122.626 -4.86748 1.99907 0
M  V30 1440 O 121.652 -4.99603 2.72737 0
M  V30 1441 N 122.854 -5.7226 0.974635 0
M  V30 1442 H 125.619 -1.88473 2.33019 0
M  V30 1443 H 123.18 -0.900885 1.3452 0
M  V30 1444 H 125.172 -3.95235 0.870116 0
M  V30 1445 H 123.742 -3.11884 0.211452 0
M  V30 1446 H 122.962 -2.88514 2.68614 0
M  V30 1447 H 124.25 -4.02666 3.11026 0
M  V30 1448 H 123.648 -5.6448 0.371368 0
M  V30 1449 H 122.205 -6.46739 0.810656 0
M  V30 1450 N 125.638 -1.25649 -0.95132 0
M  V30 1451 C 126.884 -1.11766 -1.69941 0
M  V30 1452 C 127.239 0.33735 -1.89419 0
M  V30 1453 O 126.532 1.24491 -1.45645 0
M  V30 1454 C 126.726 -1.80909 -3.08231 0
M  V30 1455 C 126.555 -3.32984 -3.02245 0
M  V30 1456 C 125.325 -4.02247 -3.05819 0
M  V30 1457 C 127.523 -4.29332 -2.83157 0
M  V30 1458 N 125.505 -5.41072 -2.90024 0
M  V30 1459 C 126.876 -5.55265 -2.75828 0
M  V30 1460 C 128.931 -4.19707 -2.67863 0
M  V30 1461 C 127.634 -6.72671 -2.54767 0
M  V30 1462 C 129.66 -5.36809 -2.48173 0
M  V30 1463 C 129.022 -6.61683 -2.41567 0
M  V30 1464 H 125.121 -0.463708 -0.629682 0
M  V30 1465 H 127.705 -1.58796 -1.12659 0
M  V30 1466 H 125.876 -1.36369 -3.63673 0
M  V30 1467 H 127.608 -1.59739 -3.71841 0
M  V30 1468 H 124.363 -3.53531 -3.15139 0
M  V30 1469 H 124.787 -6.13938 -2.85323 0
M  V30 1470 H 129.429 -3.23907 -2.71743 0
M  V30 1471 H 127.147 -7.68577 -2.49629 0
M  V30 1472 H 130.733 -5.31224 -2.37259 0
M  V30 1473 H 129.613 -7.50768 -2.26531 0
M  V30 1474 N 127.117 1.15442 -1.07289 0
M  V30 1475 C 128.064 2.20161 -0.692653 0
M  V30 1476 C 129.034 1.63073 0.31564 0
M  V30 1477 O 130.219 1.89725 0.202235 0
M  V30 1478 C 127.359 3.44967 -0.0959509 0
M  V30 1479 C 126.472 4.16256 -1.15564 0
M  V30 1480 C 125.607 5.28609 -0.524011 0
M  V30 1481 C 124.646 5.91715 -1.56653 0
M  V30 1482 N 123.783 6.9554 -0.957531 0
M  V30 1483 H 128.623 2.52037 -1.59002 0
M  V30 1484 H 126.16 1.2378 -0.794798 0
M  V30 1485 H 128.118 4.16341 0.267628 0
M  V30 1486 H 126.748 3.1361 0.764772 0
M  V30 1487 H 125.8 3.43385 -1.6368 0
M  V30 1488 H 127.112 4.59268 -1.94613 0
M  V30 1489 H 126.266 6.06604 -0.108032 0
M  V30 1490 H 125.005 4.86787 0.29825 0
M  V30 1491 H 124.01 5.12433 -1.9923 0
M  V30 1492 H 125.235 6.35614 -2.39107 0
M  V30 1493 H 123.181 6.55814 -0.156162 0
M  V30 1494 H 123.098 7.36977 -1.68526 0
M  V30 1495 H 124.366 7.77435 -0.567032 0
M  V30 1496 N 128.595 0.856903 1.32268 0
M  V30 1497 C 130.011 0.547061 1.49931 0
M  V30 1498 C 130.211 -0.921781 1.7918 0
M  V30 1499 O 129.267 -1.70469 1.8627 0
M  V30 1500 C 130.58 1.43599 2.64196 0
M  V30 1501 C 132.128 1.43665 2.78081 0
M  V30 1502 C 132.603 2.31085 3.95428 0
M  V30 1503 N 134.094 2.28893 4.02694 0
M  V30 1504 C 134.829 2.93262 4.92732 0
M  V30 1505 N 134.325 3.66751 5.87763 0
M  V30 1506 N 136.118 2.82638 4.85873 0
M  V30 1507 H 128.269 1.8075 1.11549 0
M  V30 1508 H 130.532 0.772144 0.549997 0
M  V30 1509 H 130.238 2.48058 2.49319 0
M  V30 1510 H 130.112 1.12502 3.60032 0
M  V30 1511 H 132.499 0.399701 2.92381 0
M  V30 1512 H 132.58 1.7878 1.82952 0
M  V30 1513 H 132.224 3.34849 3.81888 0
M  V30 1514 H 132.154 1.93302 4.89839 0
M  V30 1515 H 134.645 1.75466 3.34694 0
M  V30 1516 H 134.958 4.13027 6.53168 0
M  V30 1517 H 133.303 3.70859 5.87783 0
M  V30 1518 H 136.494 2.24774 4.10602 0
M  V30 1519 H 136.667 3.33084 5.55841 0
M  V30 1520 N 130.073 -1.45103 0.615059 0
M  V30 1521 C 131.35 -1.95549 0.0448276 0
M  V30 1522 C 131.73 -1.55737 -1.4251 0
M  V30 1523 O 131.078 -0.823556 -2.13143 0
M  V30 1524 C 131.288 -3.48098 0.250785 0
M  V30 1525 C 132.636 -4.24384 0.135509 0
M  V30 1526 O 133.66 -3.55738 0.181299 0
M  V30 1527 O 132.519 -5.46493 0.0268878 0
M  V30 1528 H 129.613 -0.8264 -0.0314845 0
M  V30 1529 H 132.159 -1.55232 0.685642 0
M  V30 1530 H 130.931 -3.7007 1.27139 0
M  V30 1531 H 130.554 -3.95323 -0.424937 0
M  V30 1532 N 131.551 -0.354651 -1.53558 0
M  V30 1533 C 132.781 0.239167 -2.05211 0
M  V30 1534 C 133.189 1.43879 -1.22863 0
M  V30 1535 O 132.532 1.81857 -0.259565 0
M  V30 1536 C 132.594 0.707251 -3.52474 0
M  V30 1537 C 132.258 -0.374212 -4.55465 0
M  V30 1538 C 133.255 -1.22054 -5.0537 0
M  V30 1539 C 130.94 -0.531323 -4.99482 0
M  V30 1540 C 132.934 -2.20942 -5.97882 0
M  V30 1541 C 130.621 -1.52358 -5.91802 0
M  V30 1542 C 131.619 -2.36108 -6.40892 0
M  V30 1543 O 131.307 -3.33643 -7.31394 0
M  V30 1544 H 131.039 0.0479716 -0.674296 0
M  V30 1545 H 133.593 -0.508121 -1.99016 0
M  V30 1546 H 131.823 1.50596 -3.56171 0
M  V30 1547 H 133.512 1.22285 -3.87042 0
M  V30 1548 H 134.278 -1.1103 -4.7212 0
M  V30 1549 H 130.157 0.110738 -4.60867 0
M  V30 1550 H 133.701 -2.86348 -6.36121 0
M  V30 1551 H 129.598 -1.63434 -6.24467 0
M  V30 1552 H 130.366 -3.29244 -7.4936 0
M  V30 1553 N 133.029 1.57378 -0.0835403 0
M  V30 1554 C 133.976 2.13384 0.879539 0
M  V30 1555 C 134.946 1.04936 1.28754 0
M  V30 1556 O 136.131 1.32662 1.37133 0
M  V30 1557 C 133.271 2.70932 2.13752 0
M  V30 1558 C 132.384 3.93575 1.7811 0
M  V30 1559 C 131.519 4.39326 2.98607 0
M  V30 1560 C 130.558 5.54587 2.59037 0
M  V30 1561 N 129.695 5.95243 3.72331 0
M  V30 1562 H 134.535 2.9537 0.395076 0
M  V30 1563 H 132.072 1.45953 0.183349 0
M  V30 1564 H 134.03 3.02411 2.87408 0
M  V30 1565 H 132.66 1.91693 2.59718 0
M  V30 1566 H 131.712 3.68483 0.94469 0
M  V30 1567 H 133.024 4.77258 1.45005 0
M  V30 1568 H 132.178 4.72528 3.80529 0
M  V30 1569 H 130.917 3.5452 3.34913 0
M  V30 1570 H 129.922 5.21024 1.75539 0
M  V30 1571 H 131.147 6.41133 2.23887 0
M  V30 1572 H 129.093 5.13385 4.08378 0
M  V30 1573 H 129.01 6.73694 3.43034 0
M  V30 1574 H 130.278 6.33072 4.54797 0
M  V30 1575 N 134.507 -0.190092 1.56449 0
M  V30 1576 C 135.753 -0.911052 1.81184 0
M  V30 1577 C 136.086 -1.82699 0.658396 0
M  V30 1578 O 135.361 -1.91491 -0.340775 0
M  V30 1579 C 135.644 -1.72297 3.16205 0
M  V30 1580 C 135.497 -0.831419 4.42049 0
M  V30 1581 C 136.816 -2.69454 3.47969 0
M  V30 1582 H 133.935 -0.32977 0.659106 0
M  V30 1583 H 136.577 -0.178169 1.89163 0
M  V30 1584 H 134.727 -2.34778 3.09534 0
M  V30 1585 H 136.399 -0.220929 4.60771 0
M  V30 1586 H 134.642 -0.138406 4.33579 0
M  V30 1587 H 135.313 -1.43461 5.33032 0
M  V30 1588 H 137.789 -2.17104 3.54972 0
M  V30 1589 H 136.665 -3.23342 4.43555 0
M  V30 1590 H 136.926 -3.48744 2.71717 0
M  V30 1591 N 135.985 -1.50799 -0.457987 0
M  V30 1592 C 137.262 -1.52968 -1.21902 0
M  V30 1593 C 137.642 -0.281906 -2.09209 0
M  V30 1594 O 136.99 0.734076 -2.16388 0
M  V30 1595 C 137.2 -2.8326 -2.03875 0
M  V30 1596 C 138.548 -3.34425 -2.6162 0
M  V30 1597 O 139.572 -2.8467 -2.14106 0
M  V30 1598 O 138.431 -4.21188 -3.48228 0
M  V30 1599 H 135.525 -0.614129 -0.553873 0
M  V30 1600 H 138.071 -1.63098 -0.468739 0
M  V30 1601 H 136.843 -3.65543 -1.39621 0
M  V30 1602 H 136.466 -2.76195 -2.8601 0
M  V30 1603 N 137.463 0.71206 -1.40597 0
M  V30 1604 C 138.395 1.83704 -1.37061 0
M  V30 1605 C 139.408 1.60453 -0.275426 0
M  V30 1606 O 140.597 1.70262 -0.53602 0
M  V30 1607 C 137.697 3.20172 -1.11099 0
M  V30 1608 C 136.87 3.7059 -2.3234 0
M  V30 1609 C 135.929 4.85681 -2.02485 0
M  V30 1610 O 134.955 4.9815 -2.75382 0
M  V30 1611 N 136.157 5.71735 -1.00497 0
M  V30 1612 H 138.922 1.87235 -2.34016 0
M  V30 1613 H 136.483 0.893739 -1.34996 0
M  V30 1614 H 138.475 3.94768 -0.891064 0
M  V30 1615 H 137.045 3.11767 -0.227989 0
M  V30 1616 H 136.265 2.87085 -2.7014 0
M  V30 1617 H 137.553 4.01011 -3.13157 0
M  V30 1618 H 136.951 5.64275 -0.401298 0
M  V30 1619 H 135.508 6.463 -0.844942 0
M  V30 1620 N 138.941 1.26152 0.944643 0
M  V30 1621 C 139.851 1.09176 2.07648 0
M  V30 1622 C 140.867 0.0261935 1.7398 0
M  V30 1623 O 142.043 0.229208 2.00091 0
M  V30 1624 C 139.108 0.722915 3.39079 0
M  V30 1625 C 138.169 1.86752 3.86552 0
M  V30 1626 C 137.402 1.51617 5.11711 0
M  V30 1627 O 137.625 0.416331 5.68879 0
M  V30 1628 O 136.559 2.34975 5.54139 0
M  V30 1629 H 140.385 2.0412 2.24875 0
M  V30 1630 H 137.97 1.05182 1.061 0
M  V30 1631 H 139.852 0.529787 4.18056 0
M  V30 1632 H 138.527 -0.197159 3.23099 0
M  V30 1633 H 137.434 2.11558 3.08535 0
M  V30 1634 H 138.767 2.76719 4.07047 0
M  V30 1635 N 140.419 -1.14872 1.07899 0
M  V30 1636 C 141.668 -1.85135 0.800499 0
M  V30 1637 C 141.981 -1.83547 -0.676014 0
M  V30 1638 O 143.187 -2.49548 -1.06948 0
M  V30 1639 C 141.643 -3.3231 1.38197 0
M  V30 1640 C 141.251 -3.42329 2.8899 0
M  V30 1641 C 142.995 -4.0772 1.18174 0
M  V30 1642 C 140.902 -4.83684 3.403 0
M  V30 1643 H 139.832 -0.693563 0.29578 0
M  V30 1644 H 142.483 -1.29532 1.29976 0
M  V30 1645 H 140.865 -3.87618 0.810431 0
M  V30 1646 H 142.039 -2.97097 3.52236 0
M  V30 1647 H 140.354 -2.80369 3.07867 0
M  V30 1648 H 142.951 -5.12049 1.5398 0
M  V30 1649 H 143.294 -4.16124 0.12117 0
M  V30 1650 H 143.827 -3.58696 1.71994 0
M  V30 1651 H 140.566 -4.80465 4.45907 0
M  V30 1652 H 140.086 -5.29474 2.81811 0
M  V30 1653 H 141.765 -5.52558 3.36584 0
M  V30 1654 N 141.898 -0.863906 -1.31812 0
M  V30 1655 C 143.147 -0.46801 -1.96195 0
M  V30 1656 C 143.46 0.983474 -1.69077 0
M  V30 1657 O 144.666 1.48523 -2.27273 0
M  V30 1658 C 143.122 -0.785995 -3.51212 0
M  V30 1659 C 142.73 -2.25383 -3.87178 0
M  V30 1660 C 144.474 -0.458274 -4.22019 0
M  V30 1661 C 142.381 -2.51455 -5.3528 0
M  V30 1662 H 141.311 -0.171283 -0.734287 0
M  V30 1663 H 143.962 -1.05597 -1.50072 0
M  V30 1664 H 142.344 -0.127359 -3.95795 0
M  V30 1665 H 143.518 -2.95502 -3.53575 0
M  V30 1666 H 141.833 -2.54698 -3.2942 0
M  V30 1667 H 144.43 -0.630369 -5.30971 0
M  V30 1668 H 144.773 0.600834 -4.11941 0
M  V30 1669 H 145.306 -1.07319 -3.8305 0
M  V30 1670 H 142.045 -3.56025 -5.50387 0
M  V30 1671 H 141.565 -1.85923 -5.70257 0
M  V30 1672 H 143.244 -2.35874 -6.02472 0
M  V30 1673 N 143.376 1.44774 -0.622745 0
M  V30 1674 C 144.324 2.32387 0.0994683 0
M  V30 1675 C 145.318 1.46859 0.844326 0
M  V30 1676 O 146.524 1.63254 0.758174 0
M  V30 1677 H 142.899 0.750273 0.0509291 0
M  V30 1678 H 144.87 2.91062 -0.65767 0
M  V30 1679 C 143.619 3.30723 1.07319 0
M  V30 1680 H 142.942 3.96541 0.509462 0
M  V30 1681 H 144.382 3.94725 1.54817 0
M  V30 1682 C 142.841 2.59021 2.15429 0
M  V30 1683 O 143.371 2.38286 3.23393 0
M  V30 1684 N 141.577 2.189 1.91131 0
M  V30 1685 H 141.124 2.35964 1.03337 0
M  V30 1686 H 141.082 1.71251 2.63668 0
M  V30 1687 N 144.854 0.36279 1.53368 0
M  V30 1688 C 146.103 -0.22888 2.00397 0
M  V30 1689 C 146.416 -1.50096 1.25421 0
M  V30 1690 O 147.622 -2.17106 1.63025 0
M  V30 1691 C 146.078 -0.458417 3.56969 0
M  V30 1692 C 145.686 0.798877 4.4082 0
M  V30 1693 C 147.43 -1.00789 4.12361 0
M  V30 1694 C 145.337 0.539078 5.88938 0
M  V30 1695 H 144.267 -0.089305 0.748693 0
M  V30 1696 H 146.918 0.481099 1.77081 0
M  V30 1697 H 145.3 -1.22959 3.76427 0
M  V30 1698 H 146.474 1.57262 4.33134 0
M  V30 1699 H 144.789 1.27137 3.96516 0
M  V30 1700 H 147.386 -1.21754 5.20653 0
M  V30 1701 H 147.729 -1.9692 3.66781 0
M  V30 1702 H 148.262 -0.296961 3.9669 0
M  V30 1703 H 145.001 1.47064 6.3879 0
M  V30 1704 H 144.521 -0.196222 5.99479 0
M  V30 1705 H 146.2 0.163542 6.46793 0
M  V30 1706 N 146.332 -1.57332 0.0918853 0
M  V30 1707 C 147.265 -2.09499 -0.904735 0
M  V30 1708 C 148.243 -1.00479 -1.27839 0
M  V30 1709 O 149.427 -1.27954 -1.38419 0
M  V30 1710 C 146.554 -2.56931 -2.2069 0
M  V30 1711 C 145.6 -3.77579 -1.98334 0
M  V30 1712 S 146.433 -5.21317 -1.22428 0
M  V30 1713 C 147.589 -5.72097 -2.53882 0
M  V30 1714 H 147.822 -2.93705 -0.460922 0
M  V30 1715 H 145.355 -1.53923 -0.121332 0
M  V30 1716 H 147.313 -2.84917 -2.95521 0
M  V30 1717 H 145.974 -1.72956 -2.62192 0
M  V30 1718 H 145.167 -4.08824 -2.94752 0
M  V30 1719 H 144.769 -3.5007 -1.31633 0
M  V30 1720 H 147.061 -5.80168 -3.49874 0
M  V30 1721 H 148.004 -6.70654 -2.27219 0
M  V30 1722 H 148.412 -5.00012 -2.62007 0
M  V30 1723 N 147.81 0.181792 -1.56548 0
M  V30 1724 C 148.742 1.24956 -1.92142 0
M  V30 1725 C 149.755 1.41022 -0.813422 0
M  V30 1726 O 150.944 1.41212 -1.09186 0
M  V30 1727 C 148.044 2.61981 -2.14987 0
M  V30 1728 C 147.217 2.6735 -3.46183 0
M  V30 1729 C 146.276 3.85664 -3.5798 0
M  V30 1730 O 145.302 3.72148 -4.30691 0
M  V30 1731 N 146.504 5.01683 -2.92053 0
M  V30 1732 H 149.269 0.947329 -2.84334 0
M  V30 1733 H 146.83 0.371629 -1.57577 0
M  V30 1734 H 148.822 3.3958 -2.20154 0
M  V30 1735 H 147.392 2.84637 -1.2923 0
M  V30 1736 H 146.612 1.75925 -3.52766 0
M  V30 1737 H 147.9 2.67939 -4.32534 0
M  V30 1738 H 147.298 5.15564 -2.32832 0
M  V30 1739 H 145.855 5.77181 -3.0283 0
M  V30 1740 N 149.288 1.51039 0.449983 0
M  V30 1741 C 150.565 1.53612 1.21089 0
M  V30 1742 C 150.945 0.292997 2.09057 0
M  V30 1743 O 150.293 -0.72259 2.16774 0
M  V30 1744 C 150.503 2.84337 2.0237 0
M  V30 1745 C 151.851 3.35807 2.59843 0
M  V30 1746 O 152.875 2.85802 2.12593 0
M  V30 1747 O 151.734 4.23029 3.45989 0
M  V30 1748 H 148.828 0.617057 0.550608 0
M  V30 1749 H 151.374 1.63344 0.460082 0
M  V30 1750 H 150.146 3.66278 1.37681 0
M  V30 1751 H 149.769 2.77708 2.84542 0
M  V30 1752 N 150.766 -0.704594 1.40972 0
M  V30 1753 C 152.182 -1.01406 1.23244 0
M  V30 1754 C 152.382 -2.01169 0.115399 0
M  V30 1755 O 151.438 -2.47021 -0.523147 0
M  V30 1756 C 152.751 -1.54728 2.57836 0
M  V30 1757 C 154.299 -1.66658 2.64942 0
M  V30 1758 C 154.774 -2.23383 3.9983 0
M  V30 1759 N 156.265 -2.30756 4.01629 0
M  V30 1760 C 157 -2.75655 5.02794 0
M  V30 1761 N 156.496 -3.20225 6.14352 0
M  V30 1762 N 158.289 -2.75138 4.90159 0
M  V30 1763 H 150.44 -0.0435285 2.12355 0
M  V30 1764 H 152.703 -0.0818951 0.944456 0
M  V30 1765 H 152.409 -0.888832 3.40283 0
M  V30 1766 H 152.283 -2.53084 2.79693 0
M  V30 1767 H 154.67 -2.31617 1.8286 0
M  V30 1768 H 154.751 -0.668717 2.46904 0
M  V30 1769 H 154.395 -1.59043 4.82357 0
M  V30 1770 H 154.325 -3.23904 4.15203 0
M  V30 1771 H 156.816 -1.99291 3.21079 0
M  V30 1772 H 157.129 -3.53084 6.87424 0
M  V30 1773 H 155.474 -3.18156 6.17901 0
M  V30 1774 H 158.665 -2.39661 4.02095 0
M  V30 1775 H 158.838 -3.09812 5.6914 0
M  V30 1776 N 152.244 -1.26651 -0.937939 0
M  V30 1777 C 153.174 -1.10993 -2.05433 0
M  V30 1778 C 154.155 -0.0142161 -1.70094 0
M  V30 1779 O 155.34 -0.186837 -1.93299 0
M  V30 1780 C 152.47 -0.745561 -3.39203 0
M  V30 1781 C 151.424 -1.79337 -3.88616 0
M  V30 1782 C 150.75 -1.28324 -5.19073 0
M  V30 1783 C 152.05 -3.19553 -4.13138 0
M  V30 1784 H 153.744 -2.0438 -2.1879 0
M  V30 1785 H 151.29 -0.984041 -1.05131 0
M  V30 1786 H 153.243 -0.622888 -4.16771 0
M  V30 1787 H 151.967 0.22401 -3.25831 0
M  V30 1788 H 150.626 -1.90477 -3.13231 0
M  V30 1789 H 150.274 -0.303414 -5.02084 0
M  V30 1790 H 149.974 -1.98369 -5.53103 0
M  V30 1791 H 151.498 -1.1733 -5.99221 0
M  V30 1792 H 152.912 -3.11471 -4.81309 0
M  V30 1793 H 151.309 -3.87218 -4.58457 0
M  V30 1794 H 152.379 -3.65368 -3.18801 0
M  V30 1795 N 153.722 1.14298 -1.08507 0
M  V30 1796 C 154.669 2.19414 -0.715965 0
M  V30 1797 C 155.639 1.63399 0.298326 0
M  V30 1798 O 156.824 1.89929 0.182101 0
M  V30 1799 C 153.964 3.44845 -0.132534 0
M  V30 1800 C 153.077 4.15007 -1.19973 0
M  V30 1801 C 152.212 5.28024 -0.580048 0
M  V30 1802 C 151.251 5.9002 -1.62921 0
M  V30 1803 N 150.388 6.94485 -1.03125 0
M  V30 1804 H 155.228 2.50336 -1.61666 0
M  V30 1805 H 152.765 1.2293 -0.807882 0
M  V30 1806 H 154.723 4.16601 0.223454 0
M  V30 1807 H 153.353 3.14403 0.731467 0
M  V30 1808 H 152.405 3.41629 -1.67313 0
M  V30 1809 H 153.717 4.57178 -1.99473 0
M  V30 1810 H 152.871 6.06455 -0.172364 0
M  V30 1811 H 151.61 4.87076 0.246603 0
M  V30 1812 H 150.615 5.10291 -2.04654 0
M  V30 1813 H 151.84 6.33042 -2.45835 0
M  V30 1814 H 149.786 6.55612 -0.225711 0
M  V30 1815 H 149.703 7.35148 -1.76334 0
M  V30 1816 H 150.971 7.7679 -0.649458 0
M  V30 1817 N 155.201 0.870884 1.31352 0
M  V30 1818 C 156.164 0.332243 2.26779 0
M  V30 1819 C 157.164 -0.517302 1.52252 0
M  V30 1820 O 158.354 -0.326477 1.71113 0
M  V30 1821 C 155.486 -0.528066 3.36785 0
M  V30 1822 H 156.679 1.17469 2.75937 0
M  V30 1823 H 154.232 0.64655 1.423 0
M  V30 1824 H 154.967 -1.39167 2.92922 0
M  V30 1825 H 154.752 0.0802582 3.92018 0
M  V30 1826 H 156.242 -0.897179 4.07849 0
M  V30 1827 N 156.679 -1.44442 0.630414 0
M  V30 1828 C 157.919 -2.03934 0.137919 0
M  V30 1829 C 158.283 -1.48509 -1.21692 0
M  V30 1830 O 159.484 -1.99499 -1.80149 0
M  V30 1831 C 157.755 -3.57187 0.123373 0
M  V30 1832 S 159.314 -4.37741 -0.304604 0
M  V30 1833 H 156.132 -0.708401 0.0607353 0
M  V30 1834 H 158.734 -1.76835 0.833643 0
M  V30 1835 H 157.438 -3.95032 1.11256 0
M  V30 1836 H 156.969 -3.88895 -0.59362 0
M  V30 1837 H 158.984 -4.71403 -1.54897 0
M  V30 1838 N 158.157 -0.370918 -1.53173 0
M  V30 1839 C 159.089 0.507823 -2.23503 0
M  V30 1840 C 160.102 1.04182 -1.251 0
M  V30 1841 O 161.291 0.947286 -1.5129 0
M  V30 1842 C 158.391 1.71447 -2.92334 0
M  V30 1843 C 157.564 1.31105 -4.17289 0
M  V30 1844 C 156.623 2.38035 -4.69282 0
M  V30 1845 O 155.649 2.00204 -5.32829 0
M  V30 1846 N 156.851 3.69697 -4.47554 0
M  V30 1847 H 159.616 -0.0946382 -2.99551 0
M  V30 1848 H 157.177 -0.196358 -1.60705 0
M  V30 1849 H 159.169 2.42469 -3.24023 0
M  V30 1850 H 157.739 2.22368 -2.19707 0
M  V30 1851 H 156.959 0.430462 -3.91843 0
M  V30 1852 H 158.247 1.0179 -4.98514 0
M  V30 1853 H 157.645 4.03205 -3.9679 0
M  V30 1854 H 156.202 4.36807 -4.8378 0
M  V30 1855 N 159.635 1.57281 -0.100228 0
M  V30 1856 C 160.567 2.11342 0.886972 0
M  V30 1857 C 161.58 1.05182 1.24261 0
M  V30 1858 O 162.769 1.32613 1.19483 0
M  V30 1859 C 159.869 2.5825 2.19454 0
M  V30 1860 C 159.042 3.88302 2.01346 0
M  V30 1861 C 158.101 4.21004 3.15661 0
M  V30 1862 O 157.127 4.9014 2.89398 0
M  V30 1863 N 158.329 3.76818 4.41575 0
M  V30 1864 H 161.094 2.96668 0.425216 0
M  V30 1865 H 158.655 1.61678 0.0847334 0
M  V30 1866 H 160.647 2.7717 2.94888 0
M  V30 1867 H 159.217 1.77907 2.57037 0
M  V30 1868 H 158.437 3.7848 1.10212 0
M  V30 1869 H 159.725 4.73375 1.8653 0
M  V30 1870 H 159.123 3.2102 4.65792 0
M  V30 1871 H 157.68 4.00882 5.13942 0
M  V30 1872 N 161.113 -0.173488 1.56642 0
M  V30 1873 C 162.529 -0.525174 1.50712 0
M  V30 1874 C 162.729 -1.8476 0.804107 0
M  V30 1875 O 161.785 -2.49869 0.363574 0
M  V30 1876 C 163.098 -0.559937 2.95441 0
M  V30 1877 C 164.646 -0.647288 3.06234 0
M  V30 1878 C 165.121 -0.712963 4.52417 0
M  V30 1879 N 166.612 -0.775911 4.56655 0
M  V30 1880 C 167.347 -0.847264 5.67106 0
M  V30 1881 N 166.843 -0.879585 6.87194 0
M  V30 1882 N 168.636 -0.886117 5.55071 0
M  V30 1883 H 160.787 0.693681 2.00753 0
M  V30 1884 H 163.05 0.249841 0.914485 0
M  V30 1885 H 162.756 0.343049 3.50023 0
M  V30 1886 H 162.63 -1.40718 3.49969 0
M  V30 1887 H 165.017 -1.5407 2.51687 0
M  V30 1888 H 165.098 0.226586 2.54794 0
M  V30 1889 H 164.742 0.176183 5.07594 0
M  V30 1890 H 164.672 -1.60295 5.0161 0
M  V30 1891 H 167.163 -0.759304 3.70193 0
M  V30 1892 H 167.476 -0.935144 7.67121 0
M  V30 1893 H 165.821 -0.847898 6.89808 0
M  V30 1894 H 169.012 -0.857853 4.60172 0
M  V30 1895 H 169.185 -0.938263 6.41171 0
M  V30 1896 N 162.591 -1.51276 -0.441967 0
M  V30 1897 C 163.501 -1.75092 -1.56141 0
M  V30 1898 C 164.517 -0.634963 -1.62001 0
M  V30 1899 O 165.693 -0.916686 -1.79329 0
M  V30 1900 C 162.758 -1.86666 -2.92158 0
M  V30 1901 C 161.819 -3.10506 -2.96453 0
M  V30 1902 C 161.052 -3.21519 -4.25982 0
M  V30 1903 O 161.275 -2.38586 -5.18105 0
M  V30 1904 O 160.209 -4.14465 -4.36466 0
M  V30 1905 H 164.035 -2.70044 -1.38961 0
M  V30 1906 H 161.62 -1.35722 -0.624499 0
M  V30 1907 H 163.502 -1.96292 -3.72891 0
M  V30 1908 H 162.177 -0.949014 -3.09476 0
M  V30 1909 H 161.084 -3.06363 -2.14692 0
M  V30 1910 H 162.417 -4.01945 -2.84079 0
M  V30 1911 N 164.069 0.697108 -1.41344 0
M  V30 1912 C 165.317 1.45426 -1.40341 0
M  V30 1913 C 165.638 1.94996 -0.0128787 0
M  V30 1914 O 164.908 1.71599 0.945027 0
M  V30 1915 H 163.488 0.539594 -0.516573 0
M  V30 1916 H 166.15 0.825201 -1.76569 0
M  V30 1917 H 165.246 2.31817 -2.08967 0
M  V30 1918 N 165.547 1.27147 0.931209 0
M  V30 1919 C 166.479 1.05364 2.03546 0
M  V30 1920 C 167.492 0.0108438 1.62796 0
M  V30 1921 O 168.681 0.25202 1.76712 0
M  V30 1922 C 165.781 0.575566 3.33977 0
M  V30 1923 C 164.954 1.68985 4.03439 0
M  V30 1924 C 164.013 1.20813 5.12143 0
M  V30 1925 O 163.039 1.90712 5.363 0
M  V30 1926 N 164.241 0.0618851 5.80467 0
M  V30 1927 H 167.006 2.00454 2.22796 0
M  V30 1928 H 164.567 1.18666 1.10136 0
M  V30 1929 H 166.559 0.237264 4.04004 0
M  V30 1930 H 165.129 -0.282016 3.11325 0
M  V30 1931 H 164.349 2.19861 3.27192 0
M  V30 1932 H 165.637 2.4378 4.46597 0
M  V30 1933 H 165.035 -0.521621 5.6329 0
M  V30 1934 H 163.592 -0.217264 6.51438 0
M  V30 1935 N 167.025 -1.13721 1.09112 0
M  V30 1936 C 167.973 -2.21103 0.722219 0
M  V30 1937 C 168.967 -1.67147 -0.275374 0
M  V30 1938 O 170.173 -1.79477 -0.137176 0
M  V30 1939 H 166.548 -0.720445 0.215553 0
M  V30 1940 H 168.519 -2.49483 1.63709 0
M  V30 1941 C 167.268 -3.47352 0.15543 0
M  V30 1942 H 166.591 -3.89206 0.914246 0
M  V30 1943 H 168.031 -4.2395 -0.0647967 0
M  V30 1944 C 166.49 -3.1814 -1.10852 0
M  V30 1945 O 167.02 -3.36604 -2.19227 0
M  V30 1946 N 165.226 -2.72045 -1.02176 0
M  V30 1947 H 164.773 -2.57221 -0.139764 0
M  V30 1948 H 164.731 -2.52875 -1.8682 0
M  V30 1949 N 168.503 -0.877838 -1.30888 0
M  V30 1950 C 169.733 -0.506678 -2.00291 0
M  V30 1951 C 170.141 0.907449 -1.66018 0
M  V30 1952 O 169.484 1.60719 -0.88967 0
M  V30 1953 C 169.546 -0.59323 -3.54572 0
M  V30 1954 C 169.21 -1.97038 -4.12341 0
M  V30 1955 C 170.207 -2.93889 -4.28865 0
M  V30 1956 C 167.892 -2.27383 -4.47886 0
M  V30 1957 C 169.886 -4.19224 -4.80136 0
M  V30 1958 C 167.573 -3.52965 -4.98857 0
M  V30 1959 C 168.571 -4.48701 -5.14934 0
M  V30 1960 O 168.259 -5.72056 -5.64808 0
M  V30 1961 H 167.991 -0.1951 -0.647234 0
M  V30 1962 H 170.545 -1.18301 -1.6791 0
M  V30 1963 H 168.775 0.140057 -3.86446 0
M  V30 1964 H 170.464 -0.234372 -4.05223 0
M  V30 1965 H 171.23 -2.71756 -4.01714 0
M  V30 1966 H 167.109 -1.53639 -4.34645 0
M  V30 1967 H 170.653 -4.93956 -4.92599 0
M  V30 1968 H 166.55 -3.74939 -5.25443 0
M  V30 1969 H 167.318 -5.74337 -5.83163 0
M  V30 1970 N 169.982 1.44106 -0.638065 0
M  V30 1971 C 170.914 2.28976 0.101205 0
M  V30 1972 C 171.927 1.4167 0.802088 0
M  V30 1973 O 173.116 1.65755 0.662375 0
M  V30 1974 C 170.216 3.18217 1.16581 0
M  V30 1975 C 169.389 4.33978 0.546066 0
M  V30 1976 C 168.448 5.04202 1.50554 0
M  V30 1977 O 167.474 5.59986 1.01999 0
M  V30 1978 N 168.676 5.06296 2.8398 0
M  V30 1979 H 171.441 2.93064 -0.627186 0
M  V30 1980 H 169.002 1.54629 -0.479731 0
M  V30 1981 H 170.994 3.62061 1.80815 0
M  V30 1982 H 169.564 2.55833 1.79634 0
M  V30 1983 H 168.784 3.93239 -0.275046 0
M  V30 1984 H 170.072 5.08675 0.112793 0
M  V30 1985 H 169.47 4.62319 3.26002 0
M  V30 1986 H 168.027 5.53907 3.43556 0
M  V30 1987 N 171.46 0.379036 1.52974 0
M  V30 1988 C 172.392 -0.495963 2.2377 0
M  V30 1989 C 173.405 -1.03517 1.25651 0
M  V30 1990 O 174.594 -0.939249 1.51791 0
M  V30 1991 C 171.694 -1.69894 2.93239 0
M  V30 1992 C 170.867 -1.2889 4.17979 0
M  V30 1993 C 169.926 -2.35543 4.70538 0
M  V30 1994 O 168.952 -1.97375 5.33883 0
M  V30 1995 N 170.154 -3.67318 4.49508 0
M  V30 1996 H 172.919 0.110523 2.99496 0
M  V30 1997 H 170.48 0.204878 1.60598 0
M  V30 1998 H 172.472 -2.40747 3.25304 0
M  V30 1999 H 171.042 -2.212 2.20883 0
M  V30 2000 H 170.262 -0.409676 3.92065 0
M  V30 2001 H 171.55 -0.991443 4.99047 0
M  V30 2002 H 170.948 -4.01095 3.98923 0
M  V30 2003 H 169.505 -4.34235 4.8609 0
M  V30 2004 N 172.938 -1.57226 0.108567 0
M  V30 2005 C 173.886 -2.16002 -0.862885 0
M  V30 2006 C 174.88 -1.10644 -1.28274 0
M  V30 2007 O 176.086 -1.28966 -1.2557 0
M  V30 2008 H 172.461 -0.691148 -0.296342 0
M  V30 2009 H 174.432 -2.96427 -0.342575 0
M  V30 2010 C 173.181 -2.76576 -2.10716 0
M  V30 2011 H 172.504 -3.5734 -1.793 0
M  V30 2012 H 173.944 -3.21253 -2.76717 0
M  V30 2013 C 172.403 -1.73137 -2.89007 0
M  V30 2014 O 172.933 -1.17842 -3.84026 0
M  V30 2015 N 171.139 -1.43317 -2.52801 0
M  V30 2016 H 170.686 -1.88473 -1.75601 0
M  V30 2017 H 170.644 -0.743485 -3.05483 0
M  V30 2018 N 174.416 0.165178 -1.56732 0
M  V30 2019 C 175.656 0.887231 -1.8414 0
M  V30 2020 C 176.02 1.79159 -0.690353 0
M  V30 2021 O 177.221 2.55172 -0.845032 0
M  V30 2022 C 175.492 1.65674 -3.16681 0
M  V30 2023 S 177.051 2.42671 -3.6559 0
M  V30 2024 H 173.869 0.297042 -0.645978 0
M  V30 2025 H 176.471 0.148439 -1.94936 0
M  V30 2026 H 175.175 0.983507 -3.98441 0
M  V30 2027 H 174.706 2.43679 -3.08843 0
M  V30 2028 H 176.721 3.67499 -3.33406 0
M  V30 2029 N 175.894 1.51508 0.433938 0
M  V30 2030 C 177.143 1.63578 1.18005 0
M  V30 2031 C 177.456 0.359514 1.92268 0
M  V30 2032 O 178.662 0.359632 2.69108 0
M  V30 2033 C 177.118 2.88901 2.14626 0
M  V30 2034 C 176.726 4.23544 1.45995 0
M  V30 2035 C 178.47 3.10328 2.89649 0
M  V30 2036 C 176.377 5.40014 2.4112 0
M  V30 2037 H 175.307 0.609277 0.444182 0
M  V30 2038 H 177.958 1.77978 0.446773 0
M  V30 2039 H 176.34 2.68142 2.91403 0
M  V30 2040 H 177.514 4.54696 0.747532 0
M  V30 2041 H 175.829 4.08021 0.831115 0
M  V30 2042 H 178.426 3.94518 3.60915 0
M  V30 2043 H 178.769 2.23544 3.51189 0
M  V30 2044 H 179.302 3.31443 2.19978 0
M  V30 2045 H 176.041 6.29068 1.84264 0
M  V30 2046 H 175.561 5.13233 3.10406 0
M  V30 2047 H 177.24 5.72099 3.02177 0
M  V30 2048 N 177.372 -0.689602 1.41712 0
M  V30 2049 C 178.319 -1.80345 1.44029 0
M  V30 2050 C 179.289 -1.63478 0.293948 0
M  V30 2051 O 180.474 -1.84244 0.495869 0
M  V30 2052 C 177.614 -3.18272 1.33405 0
M  V30 2053 C 176.727 -3.46529 2.57956 0
M  V30 2054 C 175.862 -4.74103 2.39582 0
M  V30 2055 C 174.901 -4.95347 3.5958 0
M  V30 2056 N 174.038 -6.14151 3.40239 0
M  V30 2057 H 178.878 -1.77698 2.39222 0
M  V30 2058 H 176.415 -0.867688 1.18784 0
M  V30 2059 H 178.373 -3.97956 1.25246 0
M  V30 2060 H 177.003 -3.2008 0.418164 0
M  V30 2061 H 176.055 -2.61207 2.76542 0
M  V30 2062 H 177.367 -3.58126 3.47199 0
M  V30 2063 H 176.521 -5.61853 2.28924 0
M  V30 2064 H 175.26 -4.64763 1.47805 0
M  V30 2065 H 174.265 -4.06044 3.70686 0
M  V30 2066 H 175.49 -5.06542 4.52318 0
M  V30 2067 H 173.436 -6.06013 2.51167 0
M  V30 2068 H 173.353 -6.26543 4.23061 0
M  V30 2069 H 174.621 -7.04619 3.33365 0
M  V30 2070 N 178.85 -1.27639 -0.924453 0
M  V30 2071 C 179.76 -1.12466 -2.05885 0
M  V30 2072 C 180.776 -0.053869 -1.73917 0
M  V30 2073 O 181.952 -0.261012 -1.99702 0
M  V30 2074 C 179.017 -0.776768 -3.37886 0
M  V30 2075 C 178.078 -1.92878 -3.83532 0
M  V30 2076 C 177.311 -1.59739 -5.09234 0
M  V30 2077 O 177.534 -0.506782 -5.68144 0
M  V30 2078 O 176.468 -2.43761 -5.50331 0
M  V30 2079 H 180.294 -2.07671 -2.21599 0
M  V30 2080 H 177.879 -1.06857 -1.04413 0
M  V30 2081 H 179.761 -0.596229 -4.17161 0
M  V30 2082 H 178.436 0.145732 -3.23372 0
M  V30 2083 H 177.343 -2.1644 -3.0513 0
M  V30 2084 H 178.676 -2.8316 -4.02593 0
M  V30 2085 N 180.328 1.1314 -1.09713 0
M  V30 2086 C 181.574 1.84757 -0.836224 0
M  V30 2087 C 181.907 1.8347 0.636598 0
M  V30 2088 O 181.182 1.27491 1.46889 0
M  V30 2089 C 181.465 3.32782 -1.37578 0
M  V30 2090 C 181.318 3.42567 -2.91493 0
M  V30 2091 C 182.637 4.28307 -1.01198 0
M  V30 2092 H 179.756 0.67082 -0.305236 0
M  V30 2093 H 182.398 1.3278 -1.35903 0
M  V30 2094 H 180.548 3.77177 -0.931097 0
M  V30 2095 H 182.22 3.06862 -3.44432 0
M  V30 2096 H 180.463 2.83349 -3.28475 0
M  V30 2097 H 181.134 4.46674 -3.24324 0
M  V30 2098 H 183.61 3.91999 -1.39556 0
M  V30 2099 H 182.486 5.30307 -1.41653 0
M  V30 2100 H 182.747 4.42029 0.0794833 0
M  V30 2101 N 181.806 0.884767 1.30421 0
M  V30 2102 C 182.716 0.355398 2.31892 0
M  V30 2103 C 183.732 -0.542261 1.65335 0
M  V30 2104 O 184.908 -0.435432 1.96637 0
M  V30 2105 C 181.973 -0.421661 3.44126 0
M  V30 2106 C 181.034 0.505727 4.26311 0
M  V30 2107 C 180.267 -0.234343 5.33185 0
M  V30 2108 O 180.49 -1.46045 5.51386 0
M  V30 2109 O 179.424 0.415443 6.00465 0
M  V30 2110 H 183.25 1.19685 2.79122 0
M  V30 2111 H 180.835 0.648596 1.34587 0
M  V30 2112 H 182.717 -0.861641 4.12497 0
M  V30 2113 H 181.392 -1.23942 2.99032 0
M  V30 2114 H 180.299 0.994513 3.60639 0
M  V30 2115 H 181.632 1.28948 4.75009 0
M  V30 2116 N 183.284 -1.43765 0.645699 0
M  V30 2117 C 184.216 -2.29027 -0.0890605 0
M  V30 2118 C 185.229 -1.42093 -0.794563 0
M  V30 2119 O 186.418 -1.66104 -0.653575 0
M  V30 2120 C 183.518 -3.18831 -1.14891 0
M  V30 2121 C 182.691 -4.34261 -0.523043 0
M  V30 2122 C 181.75 -5.04994 -1.47878 0
M  V30 2123 O 180.776 -5.6052 -0.990277 0
M  V30 2124 N 181.978 -5.07795 -2.81291 0
M  V30 2125 H 184.743 -2.92727 0.64272 0
M  V30 2126 H 182.304 -1.54373 0.487924 0
M  V30 2127 H 184.296 -3.63015 -1.78892 0
M  V30 2128 H 182.866 -2.56782 -1.78275 0
M  V30 2129 H 182.086 -3.93088 0.295896 0
M  V30 2130 H 183.374 -5.08728 -0.0858147 0
M  V30 2131 H 182.772 -4.64042 -3.23546 0
M  V30 2132 H 181.329 -5.55721 -3.40614 0
M  V30 2133 N 184.763 -0.387143 -1.52771 0
M  V30 2134 C 186.01 0.195735 -2.01552 0
M  V30 2135 C 186.338 1.46995 -1.27369 0
M  V30 2136 O 185.593 1.92325 -0.361879 0
M  V30 2137 C 185.892 0.512209 -3.53711 0
M  V30 2138 C 185.558 -0.670202 -4.45891 0
M  V30 2139 C 184.22 -0.994586 -4.70809 0
M  V30 2140 C 186.572 -1.46134 -5.00294 0
M  V30 2141 C 183.9 -2.11169 -5.4738 0
M  V30 2142 C 186.252 -2.56903 -5.78086 0
M  V30 2143 C 184.916 -2.89852 -6.01284 0
M  V30 2144 H 184.186 0.0716246 -0.73753 0
M  V30 2145 H 186.833 -0.524046 -1.8419 0
M  V30 2146 H 185.138 1.31329 -3.69134 0
M  V30 2147 H 186.835 0.975804 -3.88946 0
M  V30 2148 H 183.425 -0.407366 -4.2666 0
M  V30 2149 H 187.609 -1.22397 -4.80971 0
M  V30 2150 H 182.865 -2.3707 -5.63567 0
M  V30 2151 H 187.039 -3.18608 -6.19243 0
M  V30 2152 H 184.666 -3.76533 -6.60399 0
M  V30 2153 N 186.241 1.57166 -0.116904 0
M  V30 2154 C 187.469 1.99473 0.549383 0
M  V30 2155 C 187.884 0.996541 1.60357 0
M  V30 2156 O 187.241 -0.0108731 1.82497 0
M  V30 2157 C 187.292 3.41788 1.17741 0
M  V30 2158 O 187.013 4.37788 0.165362 0
M  V30 2159 C 188.514 3.99216 1.92722 0
M  V30 2160 H 185.734 0.655009 0.145616 0
M  V30 2161 H 188.278 2.03494 -0.202625 0
M  V30 2162 H 186.433 3.38713 1.88021 0
M  V30 2163 H 186.847 5.20806 0.621403 0
M  V30 2164 H 188.321 5.00882 2.31995 0
M  V30 2165 H 188.798 3.3824 2.80161 0
M  V30 2166 H 189.404 4.0583 1.27209 0
M  V30 2167 N 187.719 -0.156864 1.56817 0
M  V30 2168 C 188.651 -1.21883 1.94106 0
M  V30 2169 C 189.664 -1.3971 0.835754 0
M  V30 2170 O 190.853 -1.39457 1.11418 0
M  V30 2171 C 187.953 -2.58527 2.19127 0
M  V30 2172 C 187.126 -2.61809 3.50393 0
M  V30 2173 C 186.185 -3.7992 3.64071 0
M  V30 2174 O 185.211 -3.65249 4.36557 0
M  V30 2175 N 186.413 -4.96973 2.99997 0
M  V30 2176 H 189.178 -0.901974 2.85805 0
M  V30 2177 H 186.739 -0.346513 1.58148 0
M  V30 2178 H 188.731 -3.36034 2.25529 0
M  V30 2179 H 187.301 -2.82545 1.33742 0
M  V30 2180 H 186.521 -1.7029 3.5552 0
M  V30 2181 H 187.809 -2.61024 4.36742 0
M  V30 2182 H 187.207 -5.11794 2.41004 0
M  V30 2183 H 185.764 -5.7229 3.11974 0
M  V30 2184 N 189.197 -1.51736 -0.425897 0
M  V30 2185 C 190.443 -1.65214 -1.1761 0
M  V30 2186 C 190.776 -0.372778 -1.90589 0
M  V30 2187 O 190.051 0.628139 -1.84078 0
M  V30 2188 C 190.334 -2.86312 -2.18398 0
M  V30 2189 C 190.187 -4.24254 -1.49426 0
M  V30 2190 C 191.506 -3.02925 -3.19256 0
M  V30 2191 H 188.625 -0.601263 -0.426206 0
M  V30 2192 H 191.267 -1.8425 -0.463882 0
M  V30 2193 H 189.417 -2.70213 -2.79137 0
M  V30 2194 H 191.089 -4.52046 -0.919362 0
M  V30 2195 H 189.332 -4.26426 -0.796432 0
M  V30 2196 H 190.003 -5.05001 -2.22885 0
M  V30 2197 H 192.479 -3.1781 -2.68581 0
M  V30 2198 H 191.355 -3.89199 -3.8706 0
M  V30 2199 H 191.616 -2.15497 -3.86023 0
M  V30 2200 N 190.675 0.682077 -1.42076 0
M  V30 2201 C 191.638 1.77756 -1.44691 0
M  V30 2202 C 192.638 1.5726 -0.335535 0
M  V30 2203 O 193.828 1.63686 -0.596037 0
M  V30 2204 C 190.96 3.16301 -1.27146 0
M  V30 2205 H 192.153 1.76826 -2.42224 0
M  V30 2206 H 189.706 0.891012 -1.28416 0
M  V30 2207 H 190.441 3.22862 -0.305075 0
M  V30 2208 H 190.226 3.32581 -2.07683 0
M  V30 2209 H 191.716 3.96241 -1.31843 0
M  V30 2210 N 192.153 1.28127 0.917671 0
M  V30 2211 C 193.1 1.11717 2.0196 0
M  V30 2212 C 194.07 0.0153929 1.66093 0
M  V30 2213 O 195.255 0.179596 1.89953 0
M  V30 2214 C 192.395 0.780927 3.36148 0
M  V30 2215 C 191.508 1.96135 3.84909 0
M  V30 2216 C 190.643 1.56609 5.0759 0
M  V30 2217 C 189.682 2.71339 5.48673 0
M  V30 2218 N 188.819 2.32332 6.62545 0
M  V30 2219 H 193.659 2.06003 2.15329 0
M  V30 2220 H 191.196 1.02535 1.05475 0
M  V30 2221 H 193.154 0.56675 4.13333 0
M  V30 2222 H 191.784 -0.124998 3.22558 0
M  V30 2223 H 190.836 2.28777 3.03916 0
M  V30 2224 H 192.148 2.82165 4.1132 0
M  V30 2225 H 191.302 1.31374 5.92305 0
M  V30 2226 H 190.041 0.677014 4.82978 0
M  V30 2227 H 189.046 2.97276 4.62501 0
M  V30 2228 H 190.271 3.60882 5.75274 0
M  V30 2229 H 188.217 1.45889 6.39572 0
M  V30 2230 H 188.134 3.11899 6.88662 0
M  V30 2231 H 189.402 2.10371 7.50576 0
M  V30 2232 N 193.631 -1.12557 1.10312 0
M  V30 2233 C 194.594 -2.16434 0.75424 0
M  V30 2234 C 195.594 -1.59278 -0.220685 0
M  V30 2235 O 196.784 -1.742 0.00230591 0
M  V30 2236 C 193.916 -3.40699 0.116987 0
M  V30 2237 H 195.109 -2.48811 1.67431 0
M  V30 2238 H 192.662 -1.27542 0.903475 0
M  V30 2239 H 193.397 -3.13921 -0.813877 0
M  V30 2240 H 193.182 -3.83459 0.818613 0
M  V30 2241 H 194.672 -4.17451 -0.111387 0
M  V30 2242 N 195.109 -0.891671 -1.2995 0
M  V30 2243 C 196.339 -0.527893 -1.99742 0
M  V30 2244 C 196.747 0.88979 -1.66971 0
M  V30 2245 O 196.09 1.59766 -0.906667 0
M  V30 2246 C 196.152 -0.630804 -3.53922 0
M  V30 2247 C 195.816 -2.01401 -4.10228 0
M  V30 2248 C 196.813 -2.98422 -4.25724 0
M  V30 2249 C 194.498 -2.32121 -4.45449 0
M  V30 2250 C 196.492 -4.24293 -4.75662 0
M  V30 2251 C 194.179 -3.58237 -4.95086 0
M  V30 2252 C 195.177 -4.54137 -5.10146 0
M  V30 2253 O 194.865 -5.78014 -5.58708 0
M  V30 2254 H 194.597 -0.201953 -0.645129 0
M  V30 2255 H 197.151 -1.20076 -1.66646 0
M  V30 2256 H 195.381 0.0990616 -3.86573 0
M  V30 2257 H 197.07 -0.277338 -4.04951 0
M  V30 2258 H 197.836 -2.76001 -3.98809 0
M  V30 2259 H 193.715 -1.5824 -4.32991 0
M  V30 2260 H 197.259 -4.99153 -4.87332 0
M  V30 2261 H 193.156 -3.80491 -5.21437 0
M  V30 2262 H 193.924 -5.8049 -5.77039 0
M  V30 2263 N 196.587 1.43421 -0.653314 0
M  V30 2264 C 197.519 2.29071 0.0769134 0
M  V30 2265 C 198.532 1.42513 0.787017 0
M  V30 2266 O 199.721 1.66449 0.644757 0
M  V30 2267 C 196.821 3.19436 1.13199 0
M  V30 2268 C 195.994 4.34533 0.500006 0
M  V30 2269 C 195.053 5.05771 1.45198 0
M  V30 2270 O 194.079 5.61037 0.960538 0
M  V30 2271 N 195.281 5.0928 2.78594 0
M  V30 2272 H 198.046 2.92382 -0.658235 0
M  V30 2273 H 195.607 1.54112 -0.496104 0
M  V30 2274 H 197.599 3.63958 1.76964 0
M  V30 2275 H 196.169 2.57724 1.7691 0
M  V30 2276 H 195.389 3.92925 -0.316738 0
M  V30 2277 H 196.677 5.08766 0.0588345 0
M  V30 2278 H 196.075 4.65751 3.2108 0
M  V30 2279 H 194.632 5.57519 3.37662 0
M  V30 2280 N 198.065 0.39524 1.52563 0
M  V30 2281 C 199.342 -0.242908 1.94086 0
M  V30 2282 C 199.722 -1.63841 1.33114 0
M  V30 2283 O 199.07 -2.22928 0.501529 0
M  V30 2284 C 199.28 -0.26327 3.48006 0
M  V30 2285 C 200.628 -0.489354 4.21771 0
M  V30 2286 O 201.652 -0.343226 3.54543 0
M  V30 2287 O 200.511 -0.776169 5.4096 0
M  V30 2288 H 197.605 -0.152536 0.812811 0
M  V30 2289 H 200.151 0.450178 1.6362 0
M  V30 2290 H 198.923 0.713985 3.84731 0
M  V30 2291 H 198.546 -1.00103 3.84792 0
M  V30 2292 N 199.544 -1.57102 0.125237 0
M  V30 2293 C 200.96 -1.57915 -0.231322 0
M  V30 2294 C 201.16 -1.13833 -1.66266 0
M  V30 2295 O 200.216 -0.828581 -2.38518 0
M  V30 2296 C 201.529 -3.00699 0.00766489 0
M  V30 2297 C 203.077 -3.12947 -0.0577483 0
M  V30 2298 C 203.552 -4.57742 0.153626 0
M  V30 2299 N 205.043 -4.63092 0.0998073 0
M  V30 2300 C 205.778 -5.72905 0.238174 0
M  V30 2301 N 205.274 -6.91445 0.433057 0
M  V30 2302 N 207.067 -5.6182 0.177308 0
M  V30 2303 H 199.218 -1.84055 1.06007 0
M  V30 2304 H 201.481 -0.850905 0.417929 0
M  V30 2305 H 201.187 -3.3726 0.997431 0
M  V30 2306 H 201.061 -3.70236 -0.721452 0
M  V30 2307 H 203.448 -2.7624 -1.03804 0
M  V30 2308 H 203.529 -2.4594 0.70335 0
M  V30 2309 H 203.173 -4.95149 1.13092 0
M  V30 2310 H 203.103 -5.22848 -0.627534 0
M  V30 2311 H 205.594 -3.77871 -0.047051 0
M  V30 2312 H 205.907 -7.70985 0.529332 0
M  V30 2313 H 204.252 -6.93415 0.469109 0
M  V30 2314 H 207.443 -4.68093 0.0259748 0
M  V30 2315 H 207.616 -6.47357 0.288582 0
M  V30 2316 N 201.022 0.148545 -1.56898 0
M  V30 2317 C 202.252 0.875118 -1.8715 0
M  V30 2318 C 202.66 1.75322 -0.711262 0
M  V30 2319 O 202.003 1.80745 0.328151 0
M  V30 2320 C 202.065 1.7844 -3.12089 0
M  V30 2321 C 201.729 1.08361 -4.43967 0
M  V30 2322 C 202.726 0.438247 -5.1805 0
M  V30 2323 C 200.411 1.07358 -4.90693 0
M  V30 2324 C 202.405 -0.20779 -6.37061 0
M  V30 2325 C 200.092 0.42373 -6.09629 0
M  V30 2326 C 201.09 -0.215829 -6.82659 0
M  V30 2327 O 200.778 -0.855378 -7.99336 0
M  V30 2328 H 200.51 0.258504 -0.624621 0
M  V30 2329 H 203.064 0.14652 -2.04877 0
M  V30 2330 H 201.294 2.55389 -2.90367 0
M  V30 2331 H 202.983 2.38279 -3.286 0
M  V30 2332 H 203.749 0.437817 -4.8302 0
M  V30 2333 H 199.628 1.5608 -4.33774 0
M  V30 2334 H 203.172 -0.70758 -6.94002 0
M  V30 2335 H 199.069 0.421822 -6.4412 0
M  V30 2336 H 199.837 -0.756892 -8.14993 0
M  V30 2337 N 202.5 1.5196 0.417844 0
M  V30 2338 C 203.432 1.70895 1.52733 0
M  V30 2339 C 204.445 0.589405 1.51756 0
M  V30 2340 O 205.634 0.864312 1.56179 0
M  V30 2341 C 202.734 1.72627 2.91639 0
M  V30 2342 C 201.907 3.01479 3.16905 0
M  V30 2343 C 200.966 2.95139 4.35637 0
M  V30 2344 O 199.992 3.69059 4.3334 0
M  V30 2345 N 201.194 2.12328 5.40275 0
M  V30 2346 H 203.959 2.66612 1.36888 0
M  V30 2347 H 201.52 1.50089 0.607037 0
M  V30 2348 H 203.512 1.65928 3.6912 0
M  V30 2349 H 202.082 0.844216 3.00985 0
M  V30 2350 H 201.302 3.21895 2.27546 0
M  V30 2351 H 202.59 3.86736 3.30625 0
M  V30 2352 H 201.988 1.51685 5.44985 0
M  V30 2353 H 200.545 2.11494 6.16534 0
M  V30 2354 N 203.978 -0.674533 1.42435 0
M  V30 2355 C 205.255 -1.4305 1.33402 0
M  V30 2356 C 205.635 -2.11081 -0.0284674 0
M  V30 2357 O 204.983 -2.03257 -1.04397 0
M  V30 2358 C 205.193 -2.43272 2.50239 0
M  V30 2359 C 206.541 -3.07907 2.92367 0
M  V30 2360 O 207.565 -2.53599 2.50132 0
M  V30 2361 O 206.424 -4.0632 3.65467 0
M  V30 2362 H 203.518 -0.638076 0.526106 0
M  V30 2363 H 206.064 -0.703235 1.54443 0
M  V30 2364 H 204.836 -1.91803 3.41068 0
M  V30 2365 H 204.459 -3.23479 2.31186 0
M  V30 2366 N 205.456 -1.28612 -0.910864 0
M  V30 2367 C 206.386 -1.15326 -2.03032 0
M  V30 2368 C 207.367 -0.0502924 -1.70026 0
M  V30 2369 O 208.552 -0.227797 -1.92859 0
M  V30 2370 C 205.682 -0.817343 -3.37545 0
M  V30 2371 C 204.636 -1.8754 -3.84724 0
M  V30 2372 C 203.962 -1.39305 -5.16235 0
M  V30 2373 C 205.262 -3.28244 -4.06267 0
M  V30 2374 H 206.956 -2.08975 -2.14406 0
M  V30 2375 H 204.502 -1.00612 -1.03021 0
M  V30 2376 H 206.455 -0.711151 -4.15356 0
M  V30 2377 H 205.179 0.154846 -3.26233 0
M  V30 2378 H 203.838 -1.97079 -3.09121 0
M  V30 2379 H 203.486 -0.409846 -5.01328 0
M  V30 2380 H 203.186 -2.10057 -5.48771 0
M  V30 2381 H 204.71 -1.30014 -5.96598 0
M  V30 2382 H 206.124 -3.21611 -4.74594 0
M  V30 2383 H 204.521 -3.96855 -4.5014 0
M  V30 2384 H 205.591 -3.72048 -3.10979 0
M  V30 2385 N 206.934 1.1197 -1.10907 0
M  V30 2386 C 208.182 1.83225 -0.852819 0
M  V30 2387 C 208.503 1.84769 0.623341 0
M  V30 2388 O 207.773 1.3143 1.45269 0
M  V30 2389 H 206.353 0.67849 -0.312507 0
M  V30 2390 H 209.015 1.3556 -1.40033 0
M  V30 2391 H 208.111 2.87265 -1.22005 0
M  V30 2392 N 208.412 0.89855 1.29475 0
M  V30 2393 C 209.375 0.380272 2.26023 0
M  V30 2394 C 210.375 -0.484891 1.53315 0
M  V30 2395 O 211.565 -0.290108 1.71767 0
M  V30 2396 C 208.697 -0.45651 3.3783 0
M  V30 2397 H 209.89 1.23295 2.73383 0
M  V30 2398 H 207.443 0.676589 1.40897 0
M  V30 2399 H 208.178 -1.32922 2.95808 0
M  V30 2400 H 207.963 0.163393 3.91759 0
M  V30 2401 H 209.453 -0.810466 4.0966 0
M  V30 2402 N 209.89 -1.43072 0.660911 0
M  V30 2403 C 211.12 -2.05769 0.185153 0
M  V30 2404 C 211.528 -1.49668 -1.15742 0
M  V30 2405 O 210.871 -0.625649 -1.72717 0
M  V30 2406 C 210.933 -3.59489 0.0278237 0
M  V30 2407 C 210.597 -4.38212 1.2969 0
M  V30 2408 C 211.594 -4.69772 2.22734 0
M  V30 2409 C 209.279 -4.7809 1.54063 0
M  V30 2410 C 211.273 -5.40129 3.38437 0
M  V30 2411 C 208.96 -5.4819 2.70058 0
M  V30 2412 C 209.958 -5.79132 3.62071 0
M  V30 2413 O 209.646 -6.47798 4.76039 0
M  V30 2414 H 209.378 -0.669873 0.0908086 0
M  V30 2415 H 211.932 -1.84436 0.90402 0
M  V30 2416 H 210.162 -3.79426 -0.746489 0
M  V30 2417 H 211.851 -4.03862 -0.406275 0
M  V30 2418 H 212.617 -4.39476 2.05149 0
M  V30 2419 H 208.496 -4.53408 0.833215 0
M  V30 2420 H 212.04 -5.64198 4.10277 0
M  V30 2421 H 207.937 -5.77902 2.87574 0
M  V30 2422 H 208.705 -6.66283 4.75404 0
M  V30 2423 N 211.368 -0.403325 -1.52352 0
M  V30 2424 C 212.593 0.176499 -2.06648 0
M  V30 2425 C 213.018 1.38577 -1.27193 0
M  V30 2426 O 212.376 1.7879 -0.300637 0
M  V30 2427 C 212.424 0.511061 -3.5696 0
M  V30 2428 O 211.528 1.60294 -3.79973 0
M  V30 2429 H 210.869 0.0167337 -0.663789 0
M  V30 2430 H 213.399 -0.574848 -1.96359 0
M  V30 2431 H 213.409 0.771362 -4.00642 0
M  V30 2432 H 212.084 -0.37296 -4.14224 0
M  V30 2433 H 210.661 1.33526 -3.48174 0
M  V30 2434 N 212.846 1.57033 -0.133567 0
M  V30 2435 C 214.071 2.00475 0.531477 0
M  V30 2436 C 214.496 1.01291 1.58499 0
M  V30 2437 O 213.854 -0.0133279 1.81295 0
M  V30 2438 C 213.902 3.42729 1.12113 0
M  V30 2439 O 213.006 3.46498 2.23636 0
M  V30 2440 H 212.347 0.650876 0.131362 0
M  V30 2441 H 214.877 2.03344 -0.22634 0
M  V30 2442 H 214.887 3.81246 1.4531 0
M  V30 2443 H 213.562 4.14428 0.349557 0
M  V30 2444 H 212.139 3.19811 1.91769 0
M  V30 2445 N 214.325 -0.140222 1.56975 0
M  V30 2446 C 215.288 -1.15689 1.97861 0
M  V30 2447 C 216.288 -1.3549 0.865974 0
M  V30 2448 O 217.478 -1.32367 1.13246 0
M  V30 2449 C 214.61 -2.51582 2.30042 0
M  V30 2450 H 215.803 -0.805971 2.88867 0
M  V30 2451 H 213.356 -0.383801 1.51515 0
M  V30 2452 H 214.091 -2.91632 1.41849 0
M  V30 2453 H 213.876 -2.38569 3.11171 0
M  V30 2454 H 215.366 -3.24792 2.62488 0
M  V30 2455 N 215.803 -1.52179 -0.40978 0
M  V30 2456 C 217.219 -1.40968 -0.74835 0
M  V30 2457 C 217.419 -0.513657 -1.94843 0
M  V30 2458 O 216.475 0.0208026 -2.52491 0
M  V30 2459 C 217.788 -2.83483 -1.0029 0
M  V30 2460 C 219.336 -2.92821 -1.10565 0
M  V30 2461 C 219.811 -4.36303 -1.39296 0
M  V30 2462 N 221.302 -4.39535 -1.46162 0
M  V30 2463 C 222.037 -5.47614 -1.70018 0
M  V30 2464 N 221.533 -6.65812 -1.91483 0
M  V30 2465 N 223.326 -5.35129 -1.72027 0
M  V30 2466 H 215.477 -2.0897 0.380186 0
M  V30 2467 H 217.74 -0.94185 0.107805 0
M  V30 2468 H 217.446 -3.51168 -0.193461 0
M  V30 2469 H 217.32 -3.24487 -1.92323 0
M  V30 2470 H 219.707 -2.25318 -1.90568 0
M  V30 2471 H 219.788 -2.55276 -0.16369 0
M  V30 2472 H 219.432 -5.04366 -0.598109 0
M  V30 2473 H 219.362 -4.71385 -2.34743 0
M  V30 2474 H 221.853 -3.54332 -1.31367 0
M  V30 2475 H 222.166 -7.43964 -2.09134 0
M  V30 2476 H 220.511 -6.68879 -1.88749 0
M  V30 2477 H 223.702 -4.41764 -1.54796 0
M  V30 2478 H 223.875 -6.19433 -1.9028 0
M  V30 2479 N 217.281 0.66697 -1.42791 0
M  V30 2480 C 218.228 1.7803 -1.4688 0
M  V30 2481 C 219.198 1.6299 -0.319919 0
M  V30 2482 O 220.383 1.83432 -0.525118 0
M  V30 2483 C 217.523 3.1611 -1.38451 0
M  V30 2484 C 216.636 3.42381 -2.63437 0
M  V30 2485 C 215.771 4.70232 -2.47094 0
M  V30 2486 C 214.81 4.89564 -3.67415 0
M  V30 2487 N 213.947 6.08661 -3.49966 0
M  V30 2488 H 218.787 1.7387 -2.42019 0
M  V30 2489 H 216.324 0.84868 -1.20149 0
M  V30 2490 H 218.282 3.95914 -1.31561 0
M  V30 2491 H 216.912 3.19374 -0.469033 0
M  V30 2492 H 215.964 2.56774 -2.80662 0
M  V30 2493 H 217.276 3.52557 -3.52853 0
M  V30 2494 H 216.43 5.5814 -2.37834 0
M  V30 2495 H 215.169 4.62353 -1.5518 0
M  V30 2496 H 214.174 4.00096 -3.77099 0
M  V30 2497 H 215.399 4.99282 -4.6032 0
M  V30 2498 H 213.345 6.0194 -2.60776 0
M  V30 2499 H 213.262 6.19733 -4.32975 0
M  V30 2500 H 214.53 6.99226 -3.44532 0
M  V30 2501 N 218.759 1.29093 0.90403 0
M  V30 2502 C 219.999 1.18076 1.66845 0
M  V30 2503 C 220.363 -0.26436 1.90171 0
M  V30 2504 O 221.564 -0.497423 2.64157 0
M  V30 2505 C 219.835 1.96722 2.98388 0
M  V30 2506 S 221.394 2.0219 3.89441 0
M  V30 2507 H 218.212 0.421104 0.572881 0
M  V30 2508 H 220.814 1.63322 1.07453 0
M  V30 2509 H 219.518 3.00866 2.7912 0
M  V30 2510 H 219.049 1.52064 3.62823 0
M  V30 2511 H 221.064 1.13545 4.83034 0
M  V30 2512 N 220.237 -1.11381 1.11499 0
M  V30 2513 C 221.167 -2.19509 0.796125 0
M  V30 2514 C 222.148 -1.68458 -0.235796 0
M  V30 2515 O 223.333 -1.93947 -0.0991344 0
M  V30 2516 C 220.463 -3.46475 0.239205 0
M  V30 2517 C 219.417 -4.10744 1.20307 0
M  V30 2518 C 218.743 -5.32293 0.50683 0
M  V30 2519 C 220.043 -4.55597 2.55399 0
M  V30 2520 H 221.737 -2.46439 1.70024 0
M  V30 2521 H 219.283 -1.18446 0.818935 0
M  V30 2522 H 221.236 -4.214 0.00392006 0
M  V30 2523 H 219.96 -3.19006 -0.700206 0
M  V30 2524 H 218.619 -3.37813 1.42399 0
M  V30 2525 H 218.267 -5.01095 -0.437408 0
M  V30 2526 H 217.967 -5.76243 1.1497 0
M  V30 2527 H 219.491 -6.09956 0.280351 0
M  V30 2528 H 220.905 -5.21841 2.37391 0
M  V30 2529 H 219.302 -5.10363 3.15673 0
M  V30 2530 H 220.372 -3.69013 3.14575 0
M  V30 2531 N 221.715 -0.905404 -1.28997 0
M  V30 2532 C 222.678 -0.392253 -2.25819 0
M  V30 2533 C 223.678 0.476753 -1.5357 0
M  V30 2534 O 224.868 0.280994 -1.71919 0
M  V30 2535 C 222 0.438588 -3.38067 0
M  V30 2536 H 223.193 -1.24743 -2.72725 0
M  V30 2537 H 220.746 -0.684051 -1.40536 0
M  V30 2538 H 221.481 1.31352 -2.96508 0
M  V30 2539 H 221.266 -0.184167 -3.91667 0
M  V30 2540 H 222.756 0.78873 -4.10084 0
M  V30 2541 N 223.193 1.4272 -0.668489 0
M  V30 2542 C 224.14 2.30796 0.0137489 0
M  V30 2543 C 225.11 1.4561 0.799177 0
M  V30 2544 O 226.295 1.74453 0.772702 0
M  V30 2545 C 223.435 3.31377 0.963507 0
M  V30 2546 C 222.548 4.31655 0.172569 0
M  V30 2547 C 221.683 5.19312 1.1175 0
M  V30 2548 C 220.722 6.11274 0.317886 0
M  V30 2549 N 219.859 6.91504 1.2152 0
M  V30 2550 H 224.699 2.88585 -0.743161 0
M  V30 2551 H 222.236 1.42154 -0.378226 0
M  V30 2552 H 224.194 3.88214 1.52792 0
M  V30 2553 H 222.824 2.75202 1.68712 0
M  V30 2554 H 221.876 3.76988 -0.508374 0
M  V30 2555 H 223.188 4.96779 -0.448527 0
M  V30 2556 H 222.342 5.80851 1.75206 0
M  V30 2557 H 221.081 4.5435 1.77249 0
M  V30 2558 H 220.086 5.48809 -0.329918 0
M  V30 2559 H 221.311 6.78283 -0.332917 0
M  V30 2560 H 219.257 6.29176 1.85671 0
M  V30 2561 H 219.174 7.53209 0.649036 0
M  V30 2562 H 220.442 7.57535 1.83742 0
M  V30 2563 N 224.671 0.411399 1.52136 0
M  V30 2564 C 225.603 -0.448386 2.24771 0
M  V30 2565 C 226.616 -1.00828 1.27818 0
M  V30 2566 O 227.805 -0.906841 1.53749 0
M  V30 2567 C 224.905 -1.63636 2.96777 0
M  V30 2568 C 224.078 -1.19995 4.20618 0
M  V30 2569 C 223.137 -2.25509 4.75428 0
M  V30 2570 O 222.163 -1.86007 5.3795 0
M  V30 2571 N 223.365 -3.577 4.57199 0
M  V30 2572 H 226.13 0.174025 2.99194 0
M  V30 2573 H 223.691 0.238897 1.60128 0
M  V30 2574 H 225.683 -2.33793 3.30338 0
M  V30 2575 H 224.253 -2.16465 2.25526 0
M  V30 2576 H 223.473 -0.326421 3.92846 0
M  V30 2577 H 224.761 -0.885365 5.01038 0
M  V30 2578 H 224.159 -3.92543 4.07341 0
M  V30 2579 H 222.716 -4.23827 4.95191 0
M  V30 2580 N 226.149 -1.5696 0.141893 0
M  V30 2581 C 227.565 -1.58151 -0.21456 0
M  V30 2582 C 227.765 -1.1559 -1.65049 0
M  V30 2583 O 226.821 -0.853832 -2.37626 0
M  V30 2584 C 228.134 -3.00674 0.0395576 0
M  V30 2585 C 229.682 -3.1299 -0.0245529 0
M  V30 2586 C 230.157 -4.57554 0.202167 0
M  V30 2587 N 231.648 -4.62961 0.148919 0
M  V30 2588 C 232.383 -5.7262 0.298924 0
M  V30 2589 N 231.879 -6.90947 0.50637 0
M  V30 2590 N 233.672 -5.61601 0.236886 0
M  V30 2591 H 225.823 -1.8292 1.07953 0
M  V30 2592 H 228.086 -0.846425 0.42693 0
M  V30 2593 H 227.792 -3.36183 1.03315 0
M  V30 2594 H 227.666 -3.70981 -0.682143 0
M  V30 2595 H 230.053 -2.77326 -1.00869 0
M  V30 2596 H 230.134 -2.4518 0.729396 0
M  V30 2597 H 229.778 -4.93922 1.18338 0
M  V30 2598 H 229.708 -5.23484 -0.572044 0
M  V30 2599 H 232.199 -3.77899 -0.00697015 0
M  V30 2600 H 232.512 -7.7038 0.611076 0
M  V30 2601 H 230.857 -6.92878 0.542628 0
M  V30 2602 H 234.048 -4.68039 0.0756209 0
M  V30 2603 H 234.221 -6.47015 0.357227 0
M  V30 2604 N 227.627 0.131896 -1.57047 0
M  V30 2605 C 228.559 1.1878 -1.9602 0
M  V30 2606 C 229.572 1.38363 -0.857875 0
M  V30 2607 O 230.761 1.37666 -1.13623 0
M  V30 2608 C 227.861 2.55008 -2.23213 0
M  V30 2609 C 227.034 2.56201 -3.54513 0
M  V30 2610 C 226.093 3.7408 -3.70069 0
M  V30 2611 O 225.119 3.58258 -4.42312 0
M  V30 2612 N 226.321 4.92137 -3.07866 0
M  V30 2613 H 229.086 0.85639 -2.87204 0
M  V30 2614 H 226.647 0.321309 -1.5868 0
M  V30 2615 H 228.639 3.32404 -2.30846 0
M  V30 2616 H 227.209 2.80382 -1.3822 0
M  V30 2617 H 226.429 1.64613 -3.58185 0
M  V30 2618 H 227.717 2.54043 -4.4084 0
M  V30 2619 H 227.115 5.07895 -2.49116 0
M  V30 2620 H 225.672 5.67254 -3.21039 0
M  V30 2621 N 229.106 1.52395 0.401703 0
M  V30 2622 C 230.522 1.41363 0.740864 0
M  V30 2623 C 230.722 0.523982 1.94568 0
M  V30 2624 O 229.778 -0.00741204 2.52499 0
M  V30 2625 C 231.091 2.84011 0.987847 0
M  V30 2626 C 232.639 2.93404 1.09011 0
M  V30 2627 C 233.114 4.37036 1.3698 0
M  V30 2628 N 234.605 4.40304 1.43829 0
M  V30 2629 C 235.34 5.48508 1.67112 0
M  V30 2630 N 234.836 6.66819 1.87949 0
M  V30 2631 N 236.629 5.36034 1.69187 0
M  V30 2632 H 228.78 2.08765 -0.391262 0
M  V30 2633 H 231.043 0.941265 -0.112798 0
M  V30 2634 H 230.749 3.51265 0.174835 0
M  V30 2635 H 230.623 3.25502 1.906 0
M  V30 2636 H 233.01 2.26325 1.8937 0
M  V30 2637 H 233.091 2.55359 0.15015 0
M  V30 2638 H 232.735 5.04676 0.571353 0
M  V30 2639 H 232.665 4.72623 2.3224 0
M  V30 2640 H 235.156 3.55024 1.29486 0
M  V30 2641 H 235.469 7.45063 2.05185 0
M  V30 2642 H 233.814 6.6987 1.85199 0
M  V30 2643 H 237.005 4.42579 1.52451 0
M  V30 2644 H 237.178 6.20434 1.86993 0
M  V30 2645 N 230.584 -0.659388 1.43143 0
M  V30 2646 C 231.517 -1.78425 1.42267 0
M  V30 2647 C 232.495 -1.60085 0.284894 0
M  V30 2648 O 233.679 -1.82351 0.477527 0
M  V30 2649 C 230.806 -3.15642 1.22833 0
M  V30 2650 C 229.852 -3.52698 2.39806 0
M  V30 2651 S 230.685 -3.53372 4.02353 0
M  V30 2652 C 231.841 -4.93256 3.85291 0
M  V30 2653 H 232.074 -1.78897 2.37452 0
M  V30 2654 H 229.607 -0.831469 1.301 0
M  V30 2655 H 231.565 -3.94838 1.12308 0
M  V30 2656 H 230.226 -3.12739 0.29207 0
M  V30 2657 H 229.419 -4.52475 2.21996 0
M  V30 2658 H 229.021 -2.80899 2.46925 0
M  V30 2659 H 231.313 -5.81751 3.47235 0
M  V30 2660 H 232.256 -5.16115 4.84799 0
M  V30 2661 H 232.664 -4.665 3.17865 0
M  V30 2662 N 232.062 -1.29571 -0.897171 0
M  V30 2663 C 232.992 -1.17473 -2.01798 0
M  V30 2664 C 233.973 -0.068323 -1.69963 0
M  V30 2665 O 235.158 -0.248239 -1.92607 0
M  V30 2666 C 232.288 -0.853099 -3.36659 0
M  V30 2667 C 231.242 -1.9161 -3.82713 0
M  V30 2668 C 230.568 -1.44773 -5.14728 0
M  V30 2669 C 231.868 -3.32535 -4.02763 0
M  V30 2670 H 233.562 -2.11237 -2.12177 0
M  V30 2671 H 231.108 -1.01699 -1.01948 0
M  V30 2672 H 233.061 -0.755165 -4.14578 0
M  V30 2673 H 231.785 0.120236 -3.26379 0
M  V30 2674 H 230.444 -2.00346 -3.07013 0
M  V30 2675 H 230.092 -0.462995 -5.00865 0
M  V30 2676 H 229.792 -2.15865 -5.46513 0
M  V30 2677 H 231.316 -1.36334 -5.95185 0
M  V30 2678 H 232.73 -3.26626 -4.71156 0
M  V30 2679 H 231.127 -4.01607 -4.45905 0
M  V30 2680 H 232.197 -3.75326 -3.07016 0
M  V30 2681 N 233.54 1.10788 -1.12088 0
M  V30 2682 C 234.472 2.16816 -0.743213 0
M  V30 2683 C 235.485 1.6119 0.228412 0
M  V30 2684 O 236.674 1.78497 0.0102931 0
M  V30 2685 C 233.774 3.38809 -0.0787313 0
M  V30 2686 C 232.947 4.23885 -1.0789 0
M  V30 2687 C 232.006 5.24334 -0.442713 0
M  V30 2688 O 231.032 5.58497 -1.09864 0
M  V30 2689 N 232.234 5.75079 0.791457 0
M  V30 2690 H 234.999 2.49825 -1.65552 0
M  V30 2691 H 232.56 1.26373 -1.012 0
M  V30 2692 H 234.552 4.03107 0.358766 0
M  V30 2693 H 233.122 3.03805 0.736275 0
M  V30 2694 H 232.342 3.55939 -1.69414 0
M  V30 2695 H 233.63 4.77562 -1.75533 0
M  V30 2696 H 233.028 5.49517 1.3434 0
M  V30 2697 H 231.585 6.4118 1.17183 0
M  V30 2698 N 235.018 0.912232 1.28515 0
M  V30 2699 C 235.928 0.404506 2.31086 0
M  V30 2700 C 236.944 -0.50707 1.66448 0
M  V30 2701 O 238.12 -0.393624 1.97516 0
M  V30 2702 C 235.185 -0.348572 3.44943 0
M  V30 2703 C 234.246 0.59604 4.25142 0
M  V30 2704 C 233.479 -0.121194 5.33562 0
M  V30 2705 O 233.702 -1.34317 5.5436 0
M  V30 2706 O 232.636 0.542716 5.99448 0
M  V30 2707 H 236.462 1.25579 2.76521 0
M  V30 2708 H 234.047 0.676998 1.33181 0
M  V30 2709 H 235.929 -0.77395 4.14232 0
M  V30 2710 H 234.604 -1.17571 3.01594 0
M  V30 2711 H 233.511 1.07079 3.58448 0
M  V30 2712 H 234.844 1.38995 4.72167 0
M  V30 2713 N 236.496 -1.42363 0.676048 0
M  V30 2714 C 237.912 -1.55811 0.345718 0
M  V30 2715 C 238.112 -1.65544 -1.14879 0
M  V30 2716 O 237.168 -1.62306 -1.93424 0
M  V30 2717 C 238.481 -2.80746 1.07713 0
M  V30 2718 C 240.029 -2.9452 1.05958 0
M  V30 2719 C 240.504 -4.22318 1.77233 0
M  V30 2720 N 241.995 -4.29233 1.74108 0
M  V30 2721 C 242.73 -5.26935 2.26113 0
M  V30 2722 N 242.226 -6.30783 2.86505 0
M  V30 2723 N 244.019 -5.18741 2.1648 0
M  V30 2724 H 236.17 -1.34289 1.6456 0
M  V30 2725 H 238.433 -0.646506 0.69335 0
M  V30 2726 H 238.139 -2.79696 2.13221 0
M  V30 2727 H 238.013 -3.71676 0.64316 0
M  V30 2728 H 240.4 -2.95097 0.0128255 0
M  V30 2729 H 240.481 -2.04817 1.53244 0
M  V30 2730 H 240.125 -4.22502 2.81877 0
M  V30 2731 H 240.055 -5.10958 1.27396 0
M  V30 2732 H 242.546 -3.54814 1.30059 0
M  V30 2733 H 242.859 -7.01691 3.23805 0
M  V30 2734 H 241.204 -6.31341 2.90575 0
M  V30 2735 H 244.395 -4.36533 1.68987 0
M  V30 2736 H 244.568 -5.94721 2.57316 0
M  V30 2737 N 237.974 -0.419461 -1.51915 0
M  V30 2738 C 238.921 0.400927 -2.27291 0
M  V30 2739 C 239.891 1.03224 -1.30131 0
M  V30 2740 O 241.076 1.05455 -1.59009 0
M  V30 2741 C 238.216 1.50603 -3.10504 0
M  V30 2742 C 237.329 0.89462 -4.22635 0
M  V30 2743 C 236.464 1.97328 -4.93189 0
M  V30 2744 C 235.503 1.33935 -5.97267 0
M  V30 2745 N 234.64 2.3586 -6.61298 0
M  V30 2746 H 239.48 -0.248251 -2.96964 0
M  V30 2747 H 237.017 -0.134266 -1.46486 0
M  V30 2748 H 238.975 2.15783 -3.57062 0
M  V30 2749 H 237.605 2.12509 -2.42981 0
M  V30 2750 H 236.657 0.131583 -3.80172 0
M  V30 2751 H 237.969 0.391641 -4.9726 0
M  V30 2752 H 237.123 2.70211 -5.43204 0
M  V30 2753 H 235.862 2.50994 -4.18155 0
M  V30 2754 H 234.867 0.595896 -5.46561 0
M  V30 2755 H 236.092 0.810252 -6.74249 0
M  V30 2756 H 234.038 2.88639 -5.89087 0
M  V30 2757 H 233.955 1.90403 -7.3163 0
M  V30 2758 H 235.223 3.08282 -7.15949 0
M  V30 2759 N 239.452 1.56882 -0.150215 0
M  V30 2760 C 240.415 2.1573 0.774157 0
M  V30 2761 C 241.415 1.0999 1.17298 0
M  V30 2762 O 242.605 1.35613 1.09338 0
M  V30 2763 C 239.737 2.72302 2.05096 0
M  V30 2764 H 240.93 2.98752 0.262201 0
M  V30 2765 H 238.483 1.55985 0.099248 0
M  V30 2766 H 239.218 1.92956 2.6065 0
M  V30 2767 H 239.003 3.49665 1.77416 0
M  V30 2768 H 240.493 3.17632 2.71109 0
M  V30 2769 N 240.93 -0.123565 1.57115 0
M  V30 2770 C 241.893 -1.13583 1.99076 0
M  V30 2771 C 242.893 -1.34564 0.880296 0
M  V30 2772 O 244.083 -1.31158 1.14644 0
M  V30 2773 C 241.215 -2.49128 2.32698 0
M  V30 2774 H 242.408 -0.775287 2.89706 0
M  V30 2775 H 239.961 -0.36771 1.51913 0
M  V30 2776 H 240.696 -2.90111 1.44934 0
M  V30 2777 H 240.481 -2.35255 3.13684 0
M  V30 2778 H 241.971 -3.2199 2.65918 0
M  V30 2779 N 242.408 -1.52605 -0.393616 0
M  V30 2780 C 243.355 -1.77055 -1.48054 0
M  V30 2781 C 244.325 -0.61358 -1.54352 0
M  V30 2782 O 245.51 -0.852806 -1.70681 0
M  V30 2783 C 242.65 -1.94108 -2.85335 0
M  V30 2784 C 241.763 -3.21792 -2.88226 0
M  V30 2785 C 240.898 -3.29188 -4.16904 0
M  V30 2786 C 239.937 -4.51013 -4.13828 0
M  V30 2787 N 239.074 -4.55716 -5.34105 0
M  V30 2788 H 243.914 -2.69815 -1.26506 0
M  V30 2789 H 241.451 -1.33683 -0.61379 0
M  V30 2790 H 243.409 -2.01979 -3.65049 0
M  V30 2791 H 242.039 -1.04713 -3.05344 0
M  V30 2792 H 241.091 -3.23015 -2.00911 0
M  V30 2793 H 242.403 -4.11557 -2.8182 0
M  V30 2794 H 241.557 -3.36216 -5.05018 0
M  V30 2795 H 240.296 -2.37389 -4.26026 0
M  V30 2796 H 239.301 -4.44115 -3.24102 0
M  V30 2797 H 240.526 -5.44123 -4.06333 0
M  V30 2798 H 238.472 -3.66807 -5.43865 0
M  V30 2799 H 238.389 -5.39346 -5.29756 0
M  V30 2800 H 239.657 -4.66993 -6.2413 0
M  V30 2801 N 243.887 0.651787 -1.4349 0
M  V30 2802 C 244.797 1.79368 -1.5121 0
M  V30 2803 C 245.813 1.69361 -0.399093 0
M  V30 2804 O 246.989 1.90505 -0.653431 0
M  V30 2805 C 244.054 3.15653 -1.43401 0
M  V30 2806 C 243.115 3.37446 -2.65384 0
M  V30 2807 C 242.348 4.67229 -2.57939 0
M  V30 2808 O 242.571 5.46676 -1.62792 0
M  V30 2809 O 241.505 4.90773 -3.48462 0
M  V30 2810 H 245.331 1.7581 -2.47638 0
M  V30 2811 H 242.916 0.810447 -1.25507 0
M  V30 2812 H 244.798 3.96935 -1.41494 0
M  V30 2813 H 243.473 3.19798 -0.501085 0
M  V30 2814 H 242.38 2.55923 -2.72863 0
M  V30 2815 H 243.713 3.38148 -3.57654 0
M  V30 2816 N 245.365 1.30045 0.890287 0
M  V30 2817 C 246.328 1.15963 1.977 0
M  V30 2818 C 247.328 0.0923777 1.60534 0
M  V30 2819 O 248.518 0.340071 1.70848 0
M  V30 2820 C 245.65 0.775451 3.31963 0
M  V30 2821 H 246.843 2.12502 2.11619 0
M  V30 2822 H 244.396 1.13366 1.07601 0
M  V30 2823 H 245.131 -0.189671 3.23745 0
M  V30 2824 H 244.916 1.54668 3.60306 0
M  V30 2825 H 246.406 0.700251 4.11687 0
M  V30 2826 N 246.843 -1.10192 1.12674 0
M  V30 2827 C 247.806 -2.14786 0.799979 0
M  V30 2828 C 248.806 -1.59711 -0.18685 0
M  V30 2829 O 249.996 -1.74156 0.0392558 0
M  V30 2830 C 247.128 -3.40374 0.189228 0
M  V30 2831 H 248.321 -2.45203 1.72671 0
M  V30 2832 H 245.874 -1.25597 0.930326 0
M  V30 2833 H 246.609 -3.15577 -0.747107 0
M  V30 2834 H 246.394 -3.81637 0.899766 0
M  V30 2835 H 247.884 -4.17594 -0.0228143 0
M  V30 2836 N 248.321 -0.919034 -1.28029 0
M  V30 2837 C 249.284 -0.416182 -2.2539 0
M  V30 2838 C 250.284 0.460438 -1.54067 0
M  V30 2839 O 251.474 0.262744 -1.72207 0
M  V30 2840 C 248.606 0.402707 -3.38513 0
M  V30 2841 H 249.799 -1.27629 -2.71387 0
M  V30 2842 H 247.352 -0.698919 -1.39803 0
M  V30 2843 H 248.087 1.282 -2.97885 0
M  V30 2844 H 247.872 -0.225698 -3.9145 0
M  V30 2845 H 249.362 0.745191 -4.10897 0
M  V30 2846 N 249.799 1.42003 -0.683588 0
M  V30 2847 C 250.762 2.29191 -0.0198243 0
M  V30 2848 C 251.762 1.43773 0.72013 0
M  V30 2849 O 252.952 1.65061 0.556815 0
M  V30 2850 C 250.084 3.26435 0.982487 0
M  V30 2851 H 251.277 2.8938 -0.787345 0
M  V30 2852 H 248.83 1.49789 -0.446418 0
M  V30 2853 H 249.565 2.71203 1.77819 0
M  V30 2854 H 249.35 3.89449 0.455182 0
M  V30 2855 H 250.84 3.918 1.44508 0
M  V30 2856 N 251.277 0.427512 1.51691 0
M  V30 2857 C 252.505 -0.141191 2.06418 0
M  V30 2858 C 252.92 -1.37303 1.29589 0
M  V30 2859 O 252.277 -1.79059 0.352732 0
M  V30 2860 C 252.328 -0.473266 3.58389 0
M  V30 2861 O 252.049 0.709673 4.32314 0
M  V30 2862 C 253.55 -1.09371 4.29596 0
M  V30 2863 H 250.77 -0.0122747 0.670888 0
M  V30 2864 H 253.314 0.603764 1.95384 0
M  V30 2865 H 251.469 -1.16812 3.69369 0
M  V30 2866 H 251.883 0.42807 5.2275 0
M  V30 2867 H 253.357 -1.27613 5.37046 0
M  V30 2868 H 253.834 -2.072 3.87253 0
M  V30 2869 H 254.44 -0.43853 4.23033 0
M  V30 2870 N 252.755 -1.56801 0.158532 0
M  V30 2871 C 253.98 -2.01295 -0.499516 0
M  V30 2872 C 254.405 -1.03799 -1.56867 0
M  V30 2873 O 253.763 -0.0155162 -1.81293 0
M  V30 2874 C 253.811 -3.44469 -1.06647 0
M  V30 2875 O 252.915 -3.50012 -2.18095 0
M  V30 2876 H 252.256 -0.652884 -0.12099 0
M  V30 2877 H 254.786 -2.02958 0.258661 0
M  V30 2878 H 254.796 -3.8351 -1.39227 0
M  V30 2879 H 253.471 -4.14932 -0.283581 0
M  V30 2880 H 252.048 -3.22822 -1.86656 0
M  V30 2881 O 254.272 -0.0202813 -1.61487 0
M  V30 2882 H 254.963 0.593557 -1.84382 0
M  V30 END ATOM
M  V30 BEGIN BOND
M  V30 END BOND
M  V30 END CTAB
M  END
$$$$
