drugbank_target|O96013 Serine/threonine-protein kinase PAK 4 (DB12010)
 OpenBabel12092121173D

  0  0  0     0  0            999 V3000
M  V30 BEGIN CTAB
M  V30 COUNTS 9042 9151 0 0 0
M  V30 BEGIN ATOM
M  V30 1 H -0.908 1.98254 -0.117106 0
M  V30 2 N 0 1.576 0 0
M  V30 3 C 0.933 2.03868 1.02534 0
M  V30 4 C 1.911 0.928543 1.3348 0
M  V30 5 O 3.095 1.19667 1.45644 0
M  V30 6 C 0.222 2.43627 2.35294 0
M  V30 7 C -0.732 3.65373 2.2001 0
M  V30 8 S 0.101 5.13292 1.52614 0
M  V30 9 C 1.257 5.56322 2.86805 0
M  V30 10 H 1.49 2.90518 0.631377 0
M  V30 11 H -0.977 1.52953 0.210867 0
M  V30 12 H 0.981 2.67203 3.11629 0
M  V30 13 H -0.358 1.57376 2.7183 0
M  V30 14 H -1.165 3.90944 3.18086 0
M  V30 15 H -1.563 3.418 1.51819 0
M  V30 16 H 0.729 5.58782 3.83104 0
M  V30 17 H 1.672 6.56266 2.65933 0
M  V30 18 H 2.08 4.83886 2.90714 0
M  V30 19 N 1.4781 -0.272755 1.55222 0
M  V30 20 C 2.7251 -1.00433 1.7584 0
M  V30 21 C 3.0531 -1.86275 0.559629 0
M  V30 22 O 2.3081 -1.90269 -0.457857 0
M  V30 23 C 2.6071 -1.91642 3.01675 0
M  V30 24 C 2.2731 -1.21548 4.34208 0
M  V30 25 C 0.9351 -1.02166 4.70229 0
M  V30 26 C 3.2871 -0.716684 5.16249 0
M  V30 27 C 0.6151 -0.316334 5.85847 0
M  V30 28 C 2.9671 -0.0249476 6.32595 0
M  V30 29 C 1.6311 0.180579 6.67256 0
M  V30 30 H 0.9011 -0.367509 0.643443 0
M  V30 31 H 3.5481 -0.276596 1.89492 0
M  V30 32 H 1.8531 -2.71037 2.82924 0
M  V30 33 H 3.5501 -2.48369 3.14824 0
M  V30 34 H 0.1401 -1.37645 4.05896 0
M  V30 35 H 4.3241 -0.854047 4.88896 0
M  V30 36 H -0.4199 -0.146378 6.11225 0
M  V30 37 H 3.7541 0.369311 6.9542 0
M  V30 38 H 1.3811 0.729098 7.56696 0
M  V30 39 N 2.9562 -1.48159 -0.537278 0
M  V30 40 C 4.2042 -1.55497 -1.29094 0
M  V30 41 C 4.5252 -0.227454 -1.93669 0
M  V30 42 O 3.7952 0.750386 -1.80959 0
M  V30 43 H 2.3752 -0.572832 -0.47945 0
M  V30 44 H 5.0372 -1.84579 -0.625818 0
M  V30 45 H 4.1332 -2.33216 -2.07405 0
M  V30 46 N 4.4343 0.785586 -1.36625 0
M  V30 47 C 5.3813 1.89838 -1.31264 0
M  V30 48 C 6.3513 1.65115 -0.180633 0
M  V30 49 O 7.5363 1.87222 -0.36777 0
M  V30 50 C 4.6763 3.26706 -1.11163 0
M  V30 51 C 3.7893 3.63476 -2.33472 0
M  V30 52 C 2.9243 4.89481 -2.06353 0
M  V30 53 C 1.9633 5.18941 -3.24602 0
M  V30 54 N 1.1003 6.36131 -2.97123 0
M  V30 55 H 5.9403 1.93756 -2.26413 0
M  V30 56 H 3.4773 0.947454 -1.12524 0
M  V30 57 H 5.4353 4.05639 -0.975337 0
M  V30 58 H 4.0653 3.222 -0.196674 0
M  V30 59 H 3.1173 2.79636 -2.57891 0
M  V30 60 H 4.4293 3.81193 -3.21704 0
M  V30 61 H 3.5833 5.76288 -1.89675 0
M  V30 62 H 2.3223 4.73841 -1.15437 0
M  V30 63 H 1.3273 4.30615 -3.41834 0
M  V30 64 H 2.5523 5.36498 -4.16349 0
M  V30 65 H 0.4983 6.21875 -2.08823 0
M  V30 66 H 0.4153 6.54198 -3.78894 0
M  V30 67 H 1.6833 7.2591 -2.84033 0
M  V30 68 N 5.9124 1.20967 1.01018 0
M  V30 69 C 7.3284 0.965905 1.27053 0
M  V30 70 C 7.5284 -0.350785 1.98423 0
M  V30 71 O 6.5844 -1.07773 2.28344 0
M  V30 72 C 7.8974 2.15294 2.09926 0
M  V30 73 C 9.4454 2.19463 2.23171 0
M  V30 74 C 9.9204 3.3767 3.09424 0
M  V30 75 N 11.4114 3.37724 3.17012 0
M  V30 76 C 12.1464 4.25837 3.83993 0
M  V30 77 N 11.6424 5.24138 4.53047 0
M  V30 78 N 13.4354 4.1366 3.80581 0
M  V30 79 H 5.5864 2.0565 0.531194 0
M  V30 80 H 7.8494 0.90024 0.297106 0
M  V30 81 H 7.5554 3.10684 1.64828 0
M  V30 82 H 7.4294 2.13923 3.10672 0
M  V30 83 H 9.8164 1.24632 2.6749 0
M  V30 84 H 9.8974 2.2488 1.21912 0
M  V30 85 H 9.5414 4.32791 2.65808 0
M  V30 86 H 9.4714 3.29491 4.10784 0
M  V30 87 H 11.9624 2.6658 2.6785 0
M  V30 88 H 12.2754 5.87684 5.01844 0
M  V30 89 H 10.6204 5.28068 4.5185 0
M  V30 90 H 13.8114 3.36127 3.25785 0
M  V30 91 H 13.9844 4.82538 4.32505 0
M  V30 92 N 7.3905 -1.2043 1.01659 0
M  V30 93 C 8.3375 -2.23215 0.586822 0
M  V30 94 C 9.3075 -1.61382 -0.393085 0
M  V30 95 O 10.4925 -1.88544 -0.292525 0
M  V30 96 C 7.6325 -3.45032 -0.0687464 0
M  V30 97 C 6.7455 -4.21296 0.955724 0
M  V30 98 C 5.8805 -5.30507 0.271208 0
M  V30 99 C 4.9195 -5.98515 1.28244 0
M  V30 100 N 4.0565 -6.99316 0.62459 0
M  V30 101 H 8.8965 -2.59336 1.46796 0
M  V30 102 H 6.4335 -1.27431 0.734836 0
M  V30 103 H 8.3915 -4.1459 -0.465965 0
M  V30 104 H 7.0215 -3.09604 -0.913529 0
M  V30 105 H 6.0735 -3.50803 1.4711 0
M  V30 106 H 7.3855 -4.6803 1.72479 0
M  V30 107 H 6.5395 -6.06428 -0.18151 0
M  V30 108 H 5.2785 -4.8481 -0.530163 0
M  V30 109 H 4.2835 -5.21355 1.74554 0
M  V30 110 H 5.5085 -6.46298 2.08509 0
M  V30 111 H 3.4545 -6.55812 -0.156914 0
M  V30 112 H 3.3715 -7.44178 1.33172 0
M  V30 113 H 4.6395 -7.79255 0.195462 0
M  V30 114 N 8.8686 -0.792821 -1.36206 0
M  V30 115 C 9.8156 -0.191653 -2.30003 0
M  V30 116 C 10.7856 0.666453 -1.52143 0
M  V30 117 O 11.9706 0.61442 -1.80636 0
M  V30 118 C 9.1106 0.664848 -3.38635 0
M  V30 119 C 8.2236 -0.212175 -4.31479 0
M  V30 120 C 7.3586 0.651022 -5.27196 0
M  V30 121 C 6.3976 -0.227247 -6.11678 0
M  V30 122 N 5.5346 0.595127 -6.99573 0
M  V30 123 H 10.3746 -0.996978 -2.80828 0
M  V30 124 H 7.9116 -0.503206 -1.38225 0
M  V30 125 H 9.8696 1.17645 -4.00269 0
M  V30 126 H 8.4996 1.43557 -2.89122 0
M  V30 127 H 7.5516 -0.841777 -3.70969 0
M  V30 128 H 8.8636 -0.888751 -4.90818 0
M  V30 129 H 8.0176 1.2283 -5.94136 0
M  V30 130 H 6.7566 1.36121 -4.68319 0
M  V30 131 H 5.7616 -0.816904 -5.43697 0
M  V30 132 H 6.9866 -0.93509 -6.72631 0
M  V30 133 H 4.9326 1.28955 -6.432 0
M  V30 134 H 4.8496 -0.0236952 -7.55996 0
M  V30 135 H 6.1176 1.15613 -7.70879 0
M  V30 136 N 10.3467 1.47872 -0.545128 0
M  V30 137 C 11.7627 1.5829 -0.204032 0
M  V30 138 C 11.9627 1.54529 1.29317 0
M  V30 139 O 11.0187 1.44232 2.07252 0
M  V30 140 C 12.3317 2.89304 -0.819987 0
M  V30 141 C 13.8797 3.02864 -0.790105 0
M  V30 142 C 14.3547 4.3656 -1.38491 0
M  V30 143 N 15.8457 4.43165 -1.34755 0
M  V30 144 C 16.5807 5.45153 -1.77753 0
M  V30 145 N 16.0767 6.54016 -2.2855 0
M  V30 146 N 17.8697 5.36125 -1.68897 0
M  V30 147 H 10.0207 1.4856 -1.51802 0
M  V30 148 H 12.2837 0.706305 -0.632327 0
M  V30 149 H 11.9897 2.97757 -1.87173 0
M  V30 150 H 11.8637 3.75957 -0.305915 0
M  V30 151 H 14.2507 2.94014 0.252913 0
M  V30 152 H 14.3317 2.17782 -1.34181 0
M  V30 153 H 13.9757 4.46164 -2.42693 0
M  V30 154 H 13.9057 5.20353 -0.808754 0
M  V30 155 H 16.3967 3.65083 -0.975855 0
M  V30 156 H 16.7097 7.27994 -2.59314 0
M  V30 157 H 15.0547 6.54938 -2.32553 0
M  V30 158 H 18.2457 4.49975 -1.28998 0
M  V30 159 H 18.4187 6.15472 -2.02726 0
M  V30 160 N 11.8248 0.280983 1.55075 0
M  V30 161 C 13.0708 -0.33461 2.00021 0
M  V30 162 C 13.4038 -1.55063 1.16915 0
M  V30 163 O 12.6788 -1.93006 0.240646 0
M  V30 164 C 12.9618 -0.711007 3.53011 0
M  V30 165 C 12.8148 0.512766 4.46868 0
M  V30 166 C 14.1338 -1.54522 4.12081 0
M  V30 167 H 11.2528 -0.120147 0.727141 0
M  V30 168 H 13.8948 0.389097 1.85973 0
M  V30 169 H 12.0448 -1.32761 3.65112 0
M  V30 170 H 13.7168 1.15131 4.46702 0
M  V30 171 H 11.9598 1.14975 4.18286 0
M  V30 172 H 12.6308 0.205556 5.51617 0
M  V30 173 H 15.1068 -1.02442 4.03293 0
M  V30 174 H 13.9828 -1.77739 5.19327 0
M  V30 175 H 14.2438 -2.52813 3.62682 0
M  V30 176 N 13.3029 -1.57598 0.00835791 0
M  V30 177 C 14.2129 -2.12385 -0.996487 0
M  V30 178 C 15.2289 -1.07108 -1.37127 0
M  V30 179 O 16.4049 -1.39055 -1.4569 0
M  V30 180 C 13.4699 -2.62314 -2.26699 0
M  V30 181 C 12.5309 -3.82225 -1.95456 0
M  V30 182 C 11.7639 -4.29763 -3.16449 0
M  V30 183 O 11.9869 -3.76584 -4.28416 0
M  V30 184 O 10.9209 -5.21832 -2.99958 0
M  V30 185 H 14.7469 -2.98479 -0.560725 0
M  V30 186 H 12.3319 -1.47903 -0.210987 0
M  V30 187 H 14.2139 -2.94589 -3.01322 0
M  V30 188 H 12.8889 -1.79313 -2.69497 0
M  V30 189 H 11.7959 -3.54909 -1.18282 0
M  V30 190 H 13.1289 -4.66324 -1.57489 0
M  V30 191 N 14.781 0.264519 -1.55364 0
M  V30 192 C 16.03 0.992812 -1.75574 0
M  V30 193 C 16.343 1.87142 -0.568979 0
M  V30 194 O 17.549 2.63513 -0.653682 0
M  V30 195 C 16.005 1.81519 -3.10771 0
M  V30 196 C 15.613 0.984839 -4.37041 0
M  V30 197 C 17.357 2.53727 -3.40327 0
M  V30 198 C 15.264 1.80209 -5.63275 0
M  V30 199 H 14.194 0.374412 -0.65447 0
M  V30 200 H 16.845 0.248138 -1.81815 0
M  V30 201 H 15.227 2.60115 -2.98591 0
M  V30 202 H 16.401 0.242455 -4.60162 0
M  V30 203 H 14.716 0.37691 -4.14691 0
M  V30 204 H 17.313 3.15292 -4.3185 0
M  V30 205 H 17.656 3.24447 -2.60845 0
M  V30 206 H 18.189 1.82156 -3.53644 0
M  V30 207 H 14.928 1.13896 -6.45529 0
M  V30 208 H 14.448 2.52022 -5.44284 0
M  V30 209 H 16.127 2.37364 -6.01887 0
M  V30 210 N 16.2591 1.48442 0.529413 0
M  V30 211 C 17.4841 1.60406 1.31471 0
M  V30 212 C 17.9091 0.264738 1.86228 0
M  V30 213 O 17.2671 -0.763668 1.64432 0
M  V30 214 C 17.3151 2.65419 2.44101 0
M  V30 215 O 16.4191 2.22618 3.47153 0
M  V30 216 H 15.7601 0.537863 0.389357 0
M  V30 217 H 18.2901 1.94432 0.636965 0
M  V30 218 H 18.3001 2.86709 2.90279 0
M  V30 219 H 16.9751 3.62652 2.03608 0
M  V30 220 H 15.5521 2.11543 3.0709 0
M  V30 221 N 17.7372 -0.778329 1.37039 0
M  V30 222 C 18.7002 -1.87301 1.32102 0
M  V30 223 C 19.7002 -1.59198 0.226405 0
M  V30 224 O 20.8902 -1.67403 0.481861 0
M  V30 225 C 18.0222 -3.24309 1.05055 0
M  V30 226 H 19.2152 -1.93093 2.29467 0
M  V30 227 H 16.7682 -0.977358 1.21973 0
M  V30 228 H 17.5032 -3.24196 0.0819373 0
M  V30 229 H 17.2882 -3.46098 1.84279 0
M  V30 230 H 18.7782 -4.04382 1.04234 0
M  V30 231 N 19.2153 -1.21501 -1.00376 0
M  V30 232 C 20.6263 -1.03146 -1.55621 0
M  V30 233 C 20.9773 0.408375 -1.91903 0
M  V30 234 O 20.1023 1.29177 -1.73616 0
M  V30 235 C 20.6973 -1.86612 -2.82775 0
M  V30 236 C 19.2563 -1.72586 -3.34501 0
M  V30 237 C 18.4033 -1.83747 -2.07683 0
M  V30 238 H 21.3543 -1.35505 -0.826081 0
M  V30 239 H 21.3753 -1.3771 -3.54706 0
M  V30 240 H 20.8873 -2.91399 -2.56336 0
M  V30 241 H 18.9883 -0.704877 -3.65872 0
M  V30 242 H 19.1013 -2.54623 -4.05837 0
M  V30 243 H 17.4653 -1.27069 -2.20739 0
M  V30 244 H 18.2483 -2.90044 -1.83655 0
M  V30 245 N 20.6934 1.19889 -1.02296 0
M  V30 246 C 21.9184 1.9393 -0.735237 0
M  V30 247 C 22.3434 1.74639 0.698782 0
M  V30 248 O 21.7014 1.04481 1.48167 0
M  V30 249 C 21.7494 3.43916 -1.08417 0
M  V30 250 O 20.8534 4.11917 -0.199446 0
M  V30 251 H 20.1944 0.605645 -0.272196 0
M  V30 252 H 22.7244 1.52137 -1.36804 0
M  V30 253 H 22.7344 3.9456 -1.03856 0
M  V30 254 H 21.4094 3.5728 -2.12894 0
M  V30 255 H 19.9864 3.71666 -0.303136 0
M  V30 256 N 22.1715 0.800033 1.35784 0
M  V30 257 C 23.1195 0.193851 2.31791 0
M  V30 258 C 24.1135 -0.652744 1.56319 0
M  V30 259 O 25.3195 -0.546641 1.71499 0
M  V30 260 H 21.6945 0.04392 0.750716 0
M  V30 261 H 23.6655 1.01883 2.80468 0
M  V30 262 C 22.4145 -0.648338 3.41602 0
M  V30 263 H 21.7375 -0.00624665 3.998 0
M  V30 264 H 23.1775 -1.03898 4.11073 0
M  V30 265 C 21.6365 -1.8111 2.84079 0
M  V30 266 O 22.1665 -2.90825 2.77099 0
M  V30 267 N 20.3725 -1.62056 2.41218 0
M  V30 268 H 19.9195 -0.728123 2.47095 0
M  V30 269 H 19.8775 -2.40013 2.03079 0
M  V30 270 N 23.6496 -1.47581 0.552962 0
M  V30 271 C 24.8966 -2.02482 0.0273243 0
M  V30 272 C 25.2246 -1.42776 -1.32081 0
M  V30 273 O 24.4796 -0.571393 -1.87173 0
M  V30 274 C 24.7786 -3.57199 -0.119728 0
M  V30 275 C 24.4446 -4.35804 1.15697 0
M  V30 276 C 23.1066 -4.57 1.50681 0
M  V30 277 C 25.4586 -4.81167 2.00319 0
M  V30 278 C 22.7866 -5.20807 2.70142 0
M  V30 279 C 25.1386 -5.46293 3.18978 0
M  V30 280 C 23.8026 -5.65722 3.54281 0
M  V30 281 H 23.0726 -0.740933 0.00999866 0
M  V30 282 H 25.7196 -1.77302 0.72362 0
M  V30 283 H 24.0246 -3.81348 -0.89896 0
M  V30 284 H 25.7216 -3.97324 -0.541718 0
M  V30 285 H 22.3116 -4.19582 0.874561 0
M  V30 286 H 26.4956 -4.64574 1.74599 0
M  V30 287 H 21.7516 -5.34045 2.97668 0
M  V30 288 H 25.9256 -5.80407 3.84838 0
M  V30 289 H 23.5526 -6.14936 4.46942 0
M  V30 290 N 25.1277 -0.289203 -1.54924 0
M  V30 291 C 26.0377 0.601863 -2.26748 0
M  V30 292 C 27.0537 1.15834 -1.2984 0
M  V30 293 O 28.2297 1.18564 -1.62802 0
M  V30 294 C 25.2947 1.76299 -2.98529 0
M  V30 295 C 24.3557 1.24178 -4.10948 0
M  V30 296 C 23.5887 2.34757 -4.79296 0
M  V30 297 O 23.8117 3.54411 -4.46933 0
M  V30 298 O 22.7457 2.02115 -5.66951 0
M  V30 299 H 26.5717 0.0195879 -3.03694 0
M  V30 300 H 24.1567 -0.0560868 -1.49295 0
M  V30 301 H 26.0387 2.43973 -3.43592 0
M  V30 302 H 24.7137 2.33209 -2.24488 0
M  V30 303 H 23.6207 0.531104 -3.70311 0
M  V30 304 H 24.9537 0.718252 -4.86931 0
M  V30 305 N 26.6058 1.57591 -0.0167156 0
M  V30 306 C 27.5558 2.05953 0.978137 0
M  V30 307 C 28.5398 0.957532 1.29306 0
M  V30 308 O 29.7318 1.22119 1.28125 0
M  V30 309 C 26.8608 2.58006 2.26468 0
M  V30 310 C 25.9468 3.75113 1.97867 0
M  V30 311 N 26.3378 4.86187 1.39486 0
M  V30 312 C 24.6358 3.83363 2.27924 0
M  V30 313 C 25.3368 5.67502 1.27735 0
M  V30 314 N 24.3128 5.14023 1.76866 0
M  V30 315 H 28.1148 2.89236 0.521522 0
M  V30 316 H 25.6288 1.61301 0.188596 0
M  V30 317 H 27.6258 2.90937 2.98599 0
M  V30 318 H 26.2858 1.76148 2.72767 0
M  V30 319 H 27.2968 5.06695 1.07147 0
M  V30 320 H 23.9738 3.1239 2.76982 0
M  V30 321 H 25.3638 6.66791 0.826978 0
M  V30 322 N 28.0839 -0.256276 1.55502 0
M  V30 323 C 29.4999 -0.604325 1.47716 0
M  V30 324 C 29.6999 -1.88763 0.705039 0
M  V30 325 O 28.7559 -2.51445 0.230613 0
M  V30 326 C 30.0689 -0.715756 2.92057 0
M  V30 327 C 31.6169 -0.808706 3.02372 0
M  V30 328 C 32.0919 -0.951777 4.48001 0
M  V30 329 N 33.5829 -1.01688 4.519 0
M  V30 330 C 34.3179 -1.14668 5.61817 0
M  V30 331 N 33.8139 -1.24261 6.81565 0
M  V30 332 N 35.6069 -1.1791 5.49594 0
M  V30 333 H 27.7579 0.586291 2.04148 0
M  V30 334 H 30.0209 0.201015 0.926443 0
M  V30 335 H 29.7269 0.157027 3.51349 0
M  V30 336 H 29.6009 -1.59071 3.42018 0
M  V30 337 H 31.9879 -1.67195 2.43166 0
M  V30 338 H 32.0689 0.0912063 2.55637 0
M  V30 339 H 31.7129 -0.0931291 5.07815 0
M  V30 340 H 31.6429 -1.86659 4.92408 0
M  V30 341 H 34.1339 -0.954468 3.65648 0
M  V30 342 H 34.4469 -1.34046 7.61086 0
M  V30 343 H 32.7919 -1.21236 6.84344 0
M  V30 344 H 35.9829 -1.10057 4.54978 0
M  V30 345 H 36.1559 -1.27681 6.35296 0
M  V30 346 N 29.562 -1.4872 -0.521534 0
M  V30 347 C 30.808 -1.574 -1.27879 0
M  V30 348 C 31.141 -0.250817 -1.92573 0
M  V30 349 O 30.416 0.743934 -1.79711 0
M  V30 350 C 30.699 -2.71843 -2.36164 0
M  V30 351 C 30.552 -4.13893 -1.76105 0
M  V30 352 C 31.871 -2.82008 -3.37875 0
M  V30 353 H 28.99 -0.572941 -0.463581 0
M  V30 354 H 31.632 -1.80927 -0.580119 0
M  V30 355 H 29.782 -2.51914 -2.95756 0
M  V30 356 H 31.454 -4.45284 -1.20499 0
M  V30 357 H 29.697 -4.20498 -1.06601 0
M  V30 358 H 30.368 -4.89804 -2.5455 0
M  V30 359 H 32.844 -3.00086 -2.88249 0
M  V30 360 H 31.72 -3.63796 -4.11028 0
M  V30 361 H 31.981 -1.90511 -3.98946 0
M  V30 362 N 31.0401 0.771051 -1.3745 0
M  V30 363 C 31.9901 1.87456 -1.29785 0
M  V30 364 C 32.9741 1.59827 -0.185541 0
M  V30 365 O 34.1661 1.71945 -0.419997 0
M  V30 366 C 31.2951 3.24935 -1.1078 0
M  V30 367 C 30.3811 3.58514 -2.26558 0
M  V30 368 N 30.7721 3.6327 -3.5195 0
M  V30 369 C 29.0701 3.88683 -2.18727 0
M  V30 370 C 29.7711 3.93616 -4.283 0
M  V30 371 N 28.7471 4.09551 -3.57448 0
M  V30 372 H 32.5491 1.89386 -2.24745 0
M  V30 373 H 30.0631 0.967531 -1.30432 0
M  V30 374 H 32.0601 4.03881 -1.03374 0
M  V30 375 H 30.7201 3.24268 -0.16738 0
M  V30 376 H 31.7311 3.45458 -3.85848 0
M  V30 377 H 28.4081 3.95834 -1.32746 0
M  V30 378 H 29.7981 4.04066 -5.36824 0
M  V30 379 N 32.5182 1.22032 0.997298 0
M  V30 380 C 33.7462 1.06841 1.7718 0
M  V30 381 C 34.1612 -0.381325 1.84909 0
M  V30 382 O 33.5182 -1.26437 1.31605 0
M  V30 383 C 33.5692 1.66814 3.20711 0
M  V30 384 O 33.2902 3.06116 3.13408 0
M  V30 385 C 34.7912 1.56838 4.14628 0
M  V30 386 H 32.0112 0.374782 0.556578 0
M  V30 387 H 34.5552 1.61532 1.2541 0
M  V30 388 H 32.7102 1.16196 3.69564 0
M  V30 389 H 33.1242 3.34926 4.0364 0
M  V30 390 H 34.5982 2.03532 5.13107 0
M  V30 391 H 35.0752 0.524155 4.36061 0
M  V30 392 H 35.6812 2.06741 3.7167 0
M  V30 393 N 33.9963 -1.19345 1.0293 0
M  V30 394 C 35.2443 -1.88665 0.724574 0
M  V30 395 C 35.5653 -1.80036 -0.749144 0
M  V30 396 O 34.8353 -1.2111 -1.53978 0
M  V30 397 H 33.4153 -0.698406 0.265025 0
M  V30 398 H 36.0773 -1.44885 1.30362 0
M  V30 399 H 35.1733 -2.94987 1.01926 0
M  V30 400 N 35.4744 -0.807222 -1.35358 0
M  V30 401 C 36.7214 -0.387888 -1.9875 0
M  V30 402 C 37.0494 1.04509 -1.64037 0
M  V30 403 O 36.3044 1.73986 -0.895946 0
M  V30 404 C 36.6034 -0.519036 -3.53611 0
M  V30 405 C 36.2694 -1.91542 -4.08194 0
M  V30 406 C 34.9314 -2.29745 -4.22813 0
M  V30 407 C 37.2834 -2.82896 -4.37744 0
M  V30 408 C 34.6114 -3.58668 -4.643 0
M  V30 409 C 36.9634 -4.11265 -4.8067 0
M  V30 410 C 35.6274 -4.49466 -4.93494 0
M  V30 411 H 34.8974 -0.141938 -0.727279 0
M  V30 412 H 37.5444 -1.02814 -1.6156 0
M  V30 413 H 35.8494 0.204658 -3.91265 0
M  V30 414 H 37.5464 -0.175345 -4.00616 0
M  V30 415 H 34.1364 -1.60862 -3.97268 0
M  V30 416 H 38.3204 -2.54629 -4.26002 0
M  V30 417 H 33.5764 -3.88113 -4.72418 0
M  V30 418 H 37.7504 -4.82153 -5.02496 0
M  V30 419 H 35.3774 -5.49418 -5.25399 0
M  V30 420 N 36.9525 1.47285 -0.560781 0
M  V30 421 C 38.2295 1.9558 0.0277798 0
M  V30 422 C 38.6095 1.5034 1.48192 0
M  V30 423 O 37.9575 0.743882 2.16052 0
M  V30 424 C 38.1675 3.48789 -0.121418 0
M  V30 425 C 39.5155 4.24594 0.0220912 0
M  V30 426 O 40.5395 3.56166 -0.0491439 0
M  V30 427 O 39.3985 5.46217 0.175958 0
M  V30 428 H 36.4925 0.824663 0.0621342 0
M  V30 429 H 39.0385 1.5767 -0.627556 0
M  V30 430 H 37.8105 3.74533 -1.13316 0
M  V30 431 H 37.4335 3.93473 0.571366 0
M  V30 432 N 38.4306 0.297415 1.54768 0
M  V30 433 C 39.3626 -0.613881 2.20826 0
M  V30 434 C 40.3756 -1.10032 1.19987 0
M  V30 435 O 41.5646 -1.01839 1.46598 0
M  V30 436 C 38.6646 -1.852 2.83821 0
M  V30 437 C 37.8376 -1.50865 4.10559 0
M  V30 438 C 36.8966 -2.60154 4.57391 0
M  V30 439 O 35.9226 -2.25398 5.2267 0
M  V30 440 N 37.1246 -3.90629 4.29406 0
M  V30 441 H 39.8896 -0.048389 2.99661 0
M  V30 442 H 37.4506 0.11946 1.61459 0
M  V30 443 H 39.4426 -2.57652 3.12086 0
M  V30 444 H 38.0126 -2.32597 2.08847 0
M  V30 445 H 37.2326 -0.616925 3.89343 0
M  V30 446 H 38.5206 -1.25458 4.9309 0
M  V30 447 H 37.9186 -4.21677 3.77101 0
M  V30 448 H 36.4756 -4.59391 4.62388 0
M  V30 449 N 39.9087 -1.5758 0.0250728 0
M  V30 450 C 40.8587 -2.06468 -0.967201 0
M  V30 451 C 41.8427 -0.964376 -1.28797 0
M  V30 452 O 43.0347 -1.22797 -1.27475 0
M  V30 453 C 40.1637 -2.59203 -2.25097 0
M  V30 454 C 39.2497 -3.76157 -1.95874 0
M  V30 455 N 39.6407 -4.86919 -1.36905 0
M  V30 456 C 37.9387 -3.84566 -2.25887 0
M  V30 457 C 38.6397 -5.68172 -1.24724 0
M  V30 458 N 37.6157 -5.14953 -1.74138 0
M  V30 459 H 41.4177 -2.89508 -0.506176 0
M  V30 460 H 38.9317 -1.61399 -0.18004 0
M  V30 461 H 40.9287 -2.92517 -2.97052 0
M  V30 462 H 39.5887 -1.77592 -2.71829 0
M  V30 463 H 40.5997 -5.07256 -1.04459 0
M  V30 464 H 37.2767 -3.13854 -2.75321 0
M  V30 465 H 38.6667 -6.67221 -0.791605 0
M  V30 466 N 41.3868 0.248026 -1.55636 0
M  V30 467 C 42.2968 1.32859 -1.93354 0
M  V30 468 C 43.3128 1.52719 -0.833838 0
M  V30 469 O 44.4888 1.66363 -1.13513 0
M  V30 470 C 41.5538 2.66337 -2.21958 0
M  V30 471 C 40.6148 2.55008 -3.45354 0
M  V30 472 C 39.8478 3.82121 -3.72584 0
M  V30 473 O 40.0708 4.83951 -3.01907 0
M  V30 474 O 39.0048 3.80822 -4.6611 0
M  V30 475 H 42.8308 1.03862 -2.85388 0
M  V30 476 H 40.4158 0.448686 -1.42503 0
M  V30 477 H 42.2978 3.45216 -2.4167 0
M  V30 478 H 40.9728 2.95068 -1.33103 0
M  V30 479 H 39.8798 1.7442 -3.30951 0
M  V30 480 H 41.2128 2.31222 -4.34508 0
M  V30 481 N 42.8649 1.48995 0.513639 0
M  V30 482 C 43.7969 1.60836 1.63293 0
M  V30 483 C 44.8099 0.491701 1.55197 0
M  V30 484 O 45.9989 0.763238 1.6136 0
M  V30 485 C 43.0989 1.53731 3.02027 0
M  V30 486 C 42.2719 2.80715 3.35437 0
M  V30 487 C 41.3309 2.66837 4.53525 0
M  V30 488 O 40.3569 3.40753 4.55934 0
M  V30 489 N 41.5589 1.77539 5.52684 0
M  V30 490 H 44.3239 2.57366 1.53566 0
M  V30 491 H 41.8849 1.45925 0.701259 0
M  V30 492 H 43.8769 1.42118 3.78926 0
M  V30 493 H 42.4469 0.651092 3.05744 0
M  V30 494 H 41.6669 3.06772 2.47557 0
M  V30 495 H 42.9549 3.64927 3.54551 0
M  V30 496 H 42.3529 1.16719 5.53528 0
M  V30 497 H 40.9099 1.71856 6.28736 0
M  V30 498 N 44.343 -0.763751 1.37857 0
M  V30 499 C 45.29 -1.87726 1.34267 0
M  V30 500 C 46.26 -1.64807 0.206879 0
M  V30 501 O 47.445 -1.86613 0.397508 0
M  V30 502 C 44.585 -3.24896 1.16346 0
M  V30 503 C 43.698 -3.59716 2.39225 0
M  V30 504 C 42.833 -4.86137 2.14114 0
M  V30 505 C 41.872 -5.13711 3.32817 0
M  V30 506 N 41.009 -6.31323 3.07206 0
M  V30 507 H 45.849 -1.90129 2.29466 0
M  V30 508 H 43.386 -0.929433 1.14017 0
M  V30 509 H 45.344 -4.04036 1.03975 0
M  V30 510 H 43.974 -3.21847 0.247909 0
M  V30 511 H 43.026 -2.75498 2.62307 0
M  V30 512 H 44.338 -3.76027 3.27728 0
M  V30 513 H 43.492 -5.73198 1.9882 0
M  V30 514 H 42.231 -4.71945 1.22961 0
M  V30 515 H 41.236 -4.25123 3.48641 0
M  V30 516 H 42.461 -5.29807 4.24832 0
M  V30 517 H 40.407 -6.18474 2.1869 0
M  V30 518 H 40.324 -6.48087 3.89254 0
M  V30 519 H 41.592 -7.213 2.95546 0
M  V30 520 N 45.8211 -1.22559 -0.990812 0
M  V30 521 C 47.0681 -1.05141 -1.73065 0
M  V30 522 C 47.3961 0.413191 -1.9006 0
M  V30 523 O 46.6511 1.32257 -1.44245 0
M  V30 524 C 46.9501 -1.71011 -3.13831 0
M  V30 525 C 46.6161 -3.20911 -3.16745 0
M  V30 526 C 45.2781 -3.61812 -3.17247 0
M  V30 527 C 47.6301 -4.16846 -3.12872 0
M  V30 528 C 44.9581 -4.97127 -3.1158 0
M  V30 529 C 47.3101 -5.5214 -3.08746 0
M  V30 530 C 45.9741 -5.92419 -3.07565 0
M  V30 531 H 45.2441 -0.384738 -0.633291 0
M  V30 532 H 47.8911 -1.5235 -1.16025 0
M  V30 533 H 46.1961 -1.16133 -3.74193 0
M  V30 534 H 47.8931 -1.55023 -3.69823 0
M  V30 535 H 44.4831 -2.88344 -3.17105 0
M  V30 536 H 48.6671 -3.86263 -3.11632 0
M  V30 537 H 43.9231 -5.27562 -3.09012 0
M  V30 538 H 48.0971 -6.26201 -3.04705 0
M  V30 539 H 45.7241 -6.97236 -3.02929 0
M  V30 540 N 47.2992 1.18797 -1.03562 0
M  V30 541 C 48.5272 1.92599 -0.755869 0
M  V30 542 C 48.9422 1.75886 0.686271 0
M  V30 543 O 48.2992 1.08517 1.46732 0
M  V30 544 C 48.3502 3.44159 -1.10619 0
M  V30 545 O 48.0712 3.60341 -2.4917 0
M  V30 546 C 49.5722 4.3507 -0.850214 0
M  V30 547 H 46.7922 0.611587 -0.276048 0
M  V30 548 H 49.3362 1.50742 -1.38192 0
M  V30 549 H 47.4912 3.83823 -0.525194 0
M  V30 550 H 47.9052 4.54128 -2.62427 0
M  V30 551 H 49.3792 5.39989 -1.14523 0
M  V30 552 H 49.8562 4.38673 0.215176 0
M  V30 553 H 50.4622 4.01097 -1.41426 0
M  V30 554 N 48.7773 0.814389 1.34928 0
M  V30 555 C 50.0253 0.397636 1.9815 0
M  V30 556 C 50.3463 -1.04069 1.64908 0
M  V30 557 O 49.6163 -1.72121 0.93548 0
M  V30 558 H 48.1963 0.144043 0.732981 0
M  V30 559 H 50.8583 1.04195 1.6471 0
M  V30 560 H 49.9543 0.509688 3.0791 0
M  V30 561 N 50.2554 -1.46986 0.568584 0
M  V30 562 C 51.1854 -2.32946 -0.160753 0
M  V30 563 C 52.1664 -1.44487 -0.897631 0
M  V30 564 O 53.3514 -1.73327 -0.875867 0
M  V30 565 C 50.4814 -3.26494 -1.18403 0
M  V30 566 C 49.4354 -4.24282 -0.562895 0
M  V30 567 C 48.7614 -5.07236 -1.69163 0
M  V30 568 C 50.0614 -5.19989 0.490761 0
M  V30 569 H 51.7554 -2.94175 0.556916 0
M  V30 570 H 49.3014 -1.4146 0.26927 0
M  V30 571 H 51.2544 -3.85477 -1.70251 0
M  V30 572 H 49.9784 -2.63343 -1.93179 0
M  V30 573 H 48.6374 -3.66541 -0.0656164 0
M  V30 574 H 48.2854 -4.4048 -2.42871 0
M  V30 575 H 47.9854 -5.7345 -1.28174 0
M  V30 576 H 49.5094 -5.6908 -2.21314 0
M  V30 577 H 50.9234 -5.73271 0.0579047 0
M  V30 578 H 49.3204 -5.94469 0.820165 0
M  V30 579 H 50.3904 -4.64777 1.3824 0
M  V30 580 N 51.7335 -0.305618 -1.54608 0
M  V30 581 C 53.1445 0.186098 -1.8577 0
M  V30 582 C 53.4955 1.53058 -1.22751 0
M  V30 583 O 52.6205 2.09888 -0.526893 0
M  V30 584 C 53.2155 0.344449 -3.37044 0
M  V30 585 C 51.7745 0.780384 -3.68221 0
M  V30 586 C 50.9215 -0.108554 -2.77087 0
M  V30 587 H 53.8725 -0.526485 -1.49712 0
M  V30 588 H 53.8935 1.17828 -3.61796 0
M  V30 589 H 53.4055 -0.634235 -3.82883 0
M  V30 590 H 51.5065 1.76945 -3.27904 0
M  V30 591 H 51.6195 0.596572 -4.75371 0
M  V30 592 H 49.9835 0.412931 -2.5133 0
M  V30 593 H 50.7665 -1.08368 -3.25747 0
M  V30 594 N 53.2116 1.57565 -0.0334293 0
M  V30 595 C 54.6276 1.56297 0.322997 0
M  V30 596 C 54.8276 1.03945 1.7262 0
M  V30 597 O 53.8836 0.688109 2.42943 0
M  V30 598 C 55.1966 3.00232 0.167664 0
M  V30 599 C 56.7446 3.12078 0.240107 0
M  V30 600 C 57.2196 4.57859 0.113513 0
M  V30 601 N 58.7106 4.62887 0.170359 0
M  V30 602 C 59.4456 5.73319 0.0962517 0
M  V30 603 N 58.9416 6.92794 -0.0291881 0
M  V30 604 N 60.7346 5.61898 0.150551 0
M  V30 605 H 52.8856 1.89923 -0.950956 0
M  V30 606 H 55.1486 0.873824 -0.367608 0
M  V30 607 H 54.8546 3.42501 -0.799102 0
M  V30 608 H 54.7286 3.654 0.936083 0
M  V30 609 H 57.1156 2.69718 1.19733 0
M  V30 610 H 57.1966 2.49623 -0.558763 0
M  V30 611 H 56.8406 5.009 -0.840314 0
M  V30 612 H 56.7706 5.18299 0.931302 0
M  V30 613 H 59.2616 3.76954 0.26728 0
M  V30 614 H 59.5746 7.7276 -0.0789252 0
M  V30 615 H 57.9196 6.94971 -0.0640299 0
M  V30 616 H 61.1106 4.67448 0.246981 0
M  V30 617 H 61.2836 6.47938 0.0893365 0
M  V30 618 N 54.6897 -0.239769 1.55765 0
M  V30 619 C 55.6217 -1.32001 1.87372 0
M  V30 620 C 56.6347 -1.43944 0.760522 0
M  V30 621 O 57.8237 -1.45167 1.0387 0
M  V30 622 C 54.9237 -2.69779 2.05115 0
M  V30 623 C 54.0967 -2.80014 3.36022 0
M  V30 624 C 53.1557 -3.98684 3.4342 0
M  V30 625 O 52.1817 -3.87877 4.16582 0
M  V30 626 N 53.3837 -5.12176 2.73232 0
M  V30 627 H 56.1487 -1.0522 2.80622 0
M  V30 628 H 53.7097 -0.429857 1.56089 0
M  V30 629 H 55.7017 -3.47517 2.07399 0
M  V30 630 H 54.2717 -2.89237 1.18577 0
M  V30 631 H 53.4917 -1.88896 3.45994 0
M  V30 632 H 54.7797 -2.83808 4.22292 0
M  V30 633 H 54.1777 -5.2385 2.13536 0
M  V30 634 H 52.7347 -5.88022 2.81199 0
M  V30 635 N 56.1678 -1.49265 -0.50573 0
M  V30 636 C 57.4138 -1.59723 -1.25937 0
M  V30 637 C 57.7688 -0.278236 -1.90378 0
M  V30 638 O 57.0618 0.72113 -1.77511 0
M  V30 639 C 57.2558 -2.69008 -2.35308 0
M  V30 640 C 57.0848 -4.11405 -1.81592 0
M  V30 641 C 55.8548 -4.78252 -1.63105 0
M  V30 642 C 58.0528 -4.96792 -1.33048 0
M  V30 643 N 56.0348 -6.0498 -1.04269 0
M  V30 644 C 57.4058 -6.13962 -0.863168 0
M  V30 645 C 59.4608 -4.82828 -1.21577 0
M  V30 646 C 58.1638 -7.18705 -0.292489 0
M  V30 647 C 60.1898 -5.87716 -0.65907 0
M  V30 648 C 59.5518 -7.0411 -0.201954 0
M  V30 649 H 55.6508 -0.638864 -0.450973 0
M  V30 650 H 58.2348 -1.86251 -0.567326 0
M  V30 651 H 56.4058 -2.4426 -3.01979 0
M  V30 652 H 58.1378 -2.69013 -3.02348 0
M  V30 653 H 54.8928 -4.34974 -1.87336 0
M  V30 654 H 55.3168 -6.72631 -0.767919 0
M  V30 655 H 59.9588 -3.93159 -1.55518 0
M  V30 656 H 57.6768 -8.08078 0.0591987 0
M  V30 657 H 61.2628 -5.7897 -0.573156 0
M  V30 658 H 60.1428 -7.83885 0.222101 0
M  V30 659 N 57.6459 0.756429 -1.3826 0
M  V30 660 C 58.5779 1.87971 -1.31147 0
M  V30 661 C 59.5909 1.61248 -0.224239 0
M  V30 662 O 60.7799 1.71881 -0.481581 0
M  V30 663 C 57.8799 3.23545 -1.00857 0
M  V30 664 C 57.0529 3.77794 -2.20432 0
M  V30 665 C 56.1119 4.91877 -1.86931 0
M  V30 666 O 55.1379 5.06659 -2.59395 0
M  V30 667 N 56.3399 5.74643 -0.822568 0
M  V30 668 H 59.1049 1.94585 -2.2794 0
M  V30 669 H 56.6659 0.936234 -1.32084 0
M  V30 670 H 58.6579 3.97403 -0.765021 0
M  V30 671 H 57.2279 3.12335 -0.128687 0
M  V30 672 H 56.4479 2.95534 -2.6087 0
M  V30 673 H 57.7359 4.10771 -3.00241 0
M  V30 674 H 57.1339 5.65266 -0.221575 0
M  V30 675 H 55.6909 6.48661 -0.638899 0
M  V30 676 N 59.124 1.23083 0.984299 0
M  V30 677 C 60.349 1.088 1.76571 0
M  V30 678 C 60.774 -0.356657 1.84688 0
M  V30 679 O 60.132 -1.25788 1.30565 0
M  V30 680 C 60.18 1.71371 3.17277 0
M  V30 681 O 59.284 0.973213 4.00752 0
M  V30 682 H 58.625 0.381599 0.543395 0
M  V30 683 H 61.155 1.63057 1.23587 0
M  V30 684 H 61.165 1.76449 3.67872 0
M  V30 685 H 59.84 2.76493 3.10684 0
M  V30 686 H 58.417 0.999078 3.59267 0
M  V30 687 N 60.6021 -1.18246 1.0419 0
M  V30 688 C 61.5321 -2.24127 0.654914 0
M  V30 689 C 62.5131 -1.66617 -0.342451 0
M  V30 690 O 63.6981 -1.92924 -0.222277 0
M  V30 691 C 60.8281 -3.47295 0.0183757 0
M  V30 692 C 59.7821 -4.17563 0.939414 0
M  V30 693 C 59.1081 -5.34438 0.167286 0
M  V30 694 C 60.4081 -4.70917 2.25908 0
M  V30 695 H 62.1021 -2.56753 1.54007 0
M  V30 696 H 59.6481 -1.23414 0.74195 0
M  V30 697 H 61.6011 -4.20572 -0.264082 0
M  V30 698 H 60.3251 -3.13907 -0.901664 0
M  V30 699 H 58.9841 -3.46186 1.20628 0
M  V30 700 H 58.6321 -4.97298 -0.7552 0
M  V30 701 H 58.3321 -5.82388 0.780901 0
M  V30 702 H 59.8561 -6.10504 -0.108125 0
M  V30 703 H 61.2701 -5.35882 2.03724 0
M  V30 704 H 59.6671 -5.29406 2.82577 0
M  V30 705 H 60.7371 -3.88272 2.9047 0
M  V30 706 N 62.0802 -0.821533 -1.34494 0
M  V30 707 C 63.3292 -0.405355 -1.97585 0
M  V30 708 C 63.6422 1.03677 -1.65863 0
M  V30 709 O 64.8482 1.55679 -2.22433 0
M  V30 710 C 63.3042 -0.673861 -3.53535 0
M  V30 711 C 62.9122 -2.12951 -3.94152 0
M  V30 712 C 64.6562 -0.32378 -4.23263 0
M  V30 713 C 62.5632 -2.34298 -5.43009 0
M  V30 714 H 61.4932 -0.147836 -0.739365 0
M  V30 715 H 64.1442 -1.00769 -1.53355 0
M  V30 716 H 62.5262 -0.00137554 -3.96 0
M  V30 717 H 63.7002 -2.84104 -3.62797 0
M  V30 718 H 62.0152 -2.44089 -3.37356 0
M  V30 719 H 64.6122 -0.461126 -5.32708 0
M  V30 720 H 64.9552 0.731586 -4.09821 0
M  V30 721 H 65.4882 -0.950786 -3.8627 0
M  V30 722 H 62.2272 -3.38335 -5.61435 0
M  V30 723 H 61.7472 -1.67687 -5.75883 0
M  V30 724 H 63.4262 -2.16588 -6.09671 0
M  V30 725 N 63.5583 1.46682 -0.576371 0
M  V30 726 C 64.4683 2.34032 0.163141 0
M  V30 727 C 65.4843 1.49367 0.892501 0
M  V30 728 O 66.6603 1.82252 0.857106 0
M  V30 729 C 63.7253 3.26435 1.16795 0
M  V30 730 C 62.7863 4.26998 0.443944 0
M  V30 731 C 62.0193 5.14986 1.40088 0
M  V30 732 O 62.2423 5.05785 2.637 0
M  V30 733 O 61.1763 5.94906 0.914917 0
M  V30 734 H 65.0023 2.98607 -0.55388 0
M  V30 735 H 62.5873 1.45554 -0.336821 0
M  V30 736 H 64.4693 3.83459 1.74748 0
M  V30 737 H 63.1443 2.64465 1.86655 0
M  V30 738 H 62.0513 3.7368 -0.177271 0
M  V30 739 H 63.3843 4.91736 -0.213566 0
M  V30 740 N 65.0364 0.313813 1.54444 0
M  V30 741 C 65.9464 -0.565714 2.27677 0
M  V30 742 C 66.9624 -1.13754 1.31666 0
M  V30 743 O 68.1384 -1.15959 1.64668 0
M  V30 744 C 65.2034 -1.71528 3.01296 0
M  V30 745 C 64.2644 -1.17624 4.12872 0
M  V30 746 C 63.4974 -2.27102 4.8297 0
M  V30 747 O 63.7204 -3.47256 4.52514 0
M  V30 748 O 62.6544 -1.9307 5.70094 0
M  V30 749 H 66.4804 0.0287296 3.03686 0
M  V30 750 H 64.0654 0.0798312 1.49187 0
M  V30 751 H 65.9474 -2.38476 3.4743 0
M  V30 752 H 64.6224 -2.29608 2.2817 0
M  V30 753 H 63.5294 -0.472124 3.71109 0
M  V30 754 H 64.8624 -0.640695 4.88012 0
M  V30 755 N 66.5145 -1.57545 0.0417849 0
M  V30 756 C 67.7395 -1.97035 -0.647455 0
M  V30 757 C 68.1645 -0.918775 -1.64135 0
M  V30 758 O 67.5225 0.119006 -1.80909 0
M  V30 759 C 67.5705 -3.35609 -1.31905 0
M  V30 760 O 66.6745 -3.3287 -2.43457 0
M  V30 761 H 66.0155 -0.64211 -0.169086 0
M  V30 762 H 68.5455 -2.04318 0.107399 0
M  V30 763 H 68.5555 -3.72126 -1.67291 0
M  V30 764 H 67.2305 -4.11685 -0.590586 0
M  V30 765 H 65.8075 -3.08087 -2.10088 0
M  V30 766 N 67.9926 0.231505 -1.5589 0
M  V30 767 C 68.9556 1.27028 -1.90779 0
M  V30 768 C 69.9556 1.40308 -0.785507 0
M  V30 769 O 71.1456 1.38744 -1.05336 0
M  V30 770 C 68.2776 2.64566 -2.14983 0
M  V30 771 H 69.4706 0.973017 -2.83677 0
M  V30 772 H 67.0236 0.471486 -1.49019 0
M  V30 773 H 67.7586 2.99406 -1.24604 0
M  V30 774 H 67.5436 2.56305 -2.96732 0
M  V30 775 H 69.0336 3.39543 -2.43105 0
M  V30 776 N 69.4707 1.49531 0.497807 0
M  V30 777 C 70.8867 1.36365 0.829266 0
M  V30 778 C 71.0867 0.399184 1.97506 0
M  V30 779 O 70.1427 -0.167977 2.51941 0
M  V30 780 C 71.4557 2.77153 1.16647 0
M  V30 781 C 73.0037 2.85877 1.27449 0
M  V30 782 C 73.4787 4.2744 1.64497 0
M  V30 783 N 74.9697 4.30265 1.7154 0
M  V30 784 C 75.7047 5.3677 2.01656 0
M  V30 785 N 75.2007 6.53516 2.29976 0
M  V30 786 N 76.9937 5.24189 2.02934 0
M  V30 787 H 69.1447 2.10831 -0.257703 0
M  V30 788 H 71.4077 0.946534 -0.0527091 0
M  V30 789 H 71.1137 3.49442 0.397872 0
M  V30 790 H 70.9877 3.12722 2.10915 0
M  V30 791 H 73.3747 2.13824 2.0338 0
M  V30 792 H 73.4557 2.53887 0.312244 0
M  V30 793 H 73.0997 5.00021 0.891151 0
M  V30 794 H 73.0297 4.56896 2.61827 0
M  V30 795 H 75.5207 3.4607 1.51802 0
M  V30 796 H 75.8337 7.30506 2.52153 0
M  V30 797 H 74.1787 6.56737 2.27425 0
M  V30 798 H 77.3697 4.31988 1.80289 0
M  V30 799 H 77.5427 6.07286 2.26071 0
M  V30 800 N 70.9488 -0.749086 1.3866 0
M  V30 801 C 72.3648 -1.05276 1.19955 0
M  V30 802 C 72.5648 -2.01435 0.05134 0
M  V30 803 O 71.6208 -2.45232 -0.60147 0
M  V30 804 C 72.9338 -1.62853 2.52783 0
M  V30 805 C 74.4818 -1.75002 2.59506 0
M  V30 806 C 74.9568 -2.35991 3.92521 0
M  V30 807 N 76.4478 -2.43416 3.94085 0
M  V30 808 C 77.1828 -2.91511 4.9377 0
M  V30 809 N 76.6788 -3.39608 6.03853 0
M  V30 810 N 78.4718 -2.90592 4.81157 0
M  V30 811 H 70.6228 -0.111066 2.12109 0
M  V30 812 H 72.8858 -0.111901 0.941373 0
M  V30 813 H 72.5918 -0.99664 3.37283 0
M  V30 814 H 72.4658 -2.61854 2.715 0
M  V30 815 H 74.8528 -2.37317 1.75398 0
M  V30 816 H 74.9338 -0.74693 2.44652 0
M  V30 817 H 74.5778 -1.74308 4.77053 0
M  V30 818 H 74.5078 -3.3695 4.04688 0
M  V30 819 H 76.9988 -2.09405 3.14576 0
M  V30 820 H 77.3118 -3.74775 6.75843 0
M  V30 821 H 75.6568 -3.37653 6.07466 0
M  V30 822 H 78.8478 -2.52332 3.94267 0
M  V30 823 H 79.0208 -3.27762 5.58996 0
M  V30 824 N 72.4269 -1.23603 -0.977757 0
M  V30 825 C 73.8379 -1.06424 -1.53398 0
M  V30 826 C 74.1889 0.367578 -1.92726 0
M  V30 827 O 73.3139 1.25465 -1.76316 0
M  V30 828 C 73.9089 -1.92568 -2.78753 0
M  V30 829 C 72.4679 -1.79642 -3.30765 0
M  V30 830 C 71.6149 -1.88111 -2.03739 0
M  V30 831 H 74.5659 -1.37227 -0.797152 0
M  V30 832 H 74.5869 -1.45203 -3.51705 0
M  V30 833 H 74.0989 -2.96771 -2.50098 0
M  V30 834 H 72.1999 -0.782325 -3.64294 0
M  V30 835 H 72.3129 -2.63174 -4.00345 0
M  V30 836 H 70.6769 -1.31723 -2.17994 0
M  V30 837 H 71.4599 -2.93875 -1.77461 0
M  V30 838 N 73.905 1.17692 -1.04816 0
M  V30 839 C 74.852 2.21581 -0.645797 0
M  V30 840 C 75.822 1.62367 0.350159 0
M  V30 841 O 77.007 1.89254 0.242433 0
M  V30 842 C 74.147 3.45092 -0.0227568 0
M  V30 843 C 73.26 4.18613 -1.06709 0
M  V30 844 C 72.395 5.29602 -0.411767 0
M  V30 845 C 71.434 5.94904 -1.44067 0
M  V30 846 N 70.571 6.97414 -0.809781 0
M  V30 847 H 75.411 2.55353 -1.5362 0
M  V30 848 H 72.948 1.25438 -0.768364 0
M  V30 849 H 74.906 4.15679 0.35588 0
M  V30 850 H 73.536 3.11917 0.831122 0
M  V30 851 H 72.588 3.46779 -1.5636 0
M  V30 852 H 73.9 4.63293 -1.84827 0
M  V30 853 H 73.054 6.06696 0.0206623 0
M  V30 854 H 71.793 4.86045 0.401438 0
M  V30 855 H 70.798 5.16544 -1.88316 0
M  V30 856 H 72.023 6.40542 -2.25571 0
M  V30 857 H 69.969 6.55998 -0.0170186 0
M  V30 858 H 69.886 7.40386 -1.52856 0
M  V30 859 H 71.154 7.78463 -0.401999 0
M  V30 860 N 75.3831 0.828654 1.34056 0
M  V30 861 C 76.7941 0.477534 1.8049 0
M  V30 862 C 77.1451 -1.00258 1.6865 0
M  V30 863 O 76.2701 -1.78057 1.22982 0
M  V30 864 C 76.8651 0.860018 3.27703 0
M  V30 865 C 75.4241 0.561185 3.72193 0
M  V30 866 C 74.5711 1.07385 2.55663 0
M  V30 867 H 77.5221 1.0183 1.21722 0
M  V30 868 H 77.5431 0.166038 3.80138 0
M  V30 869 H 77.0551 1.93731 3.36288 0
M  V30 870 H 75.1561 -0.506465 3.69142 0
M  V30 871 H 75.2691 1.10926 4.66082 0
M  V30 872 H 73.6331 0.495149 2.49841 0
M  V30 873 H 74.4161 2.15771 2.67016 0
M  V30 874 N 76.8612 -1.46375 0.584142 0
M  V30 875 C 77.7912 -2.33103 -0.136037 0
M  V30 876 C 78.7722 -1.45431 -0.882255 0
M  V30 877 O 79.9572 -1.74246 -0.857434 0
M  V30 878 C 77.0872 -3.27731 -1.14933 0
M  V30 879 C 76.0412 -4.24855 -0.517862 0
M  V30 880 C 75.3672 -5.09001 -1.63773 0
M  V30 881 C 76.6672 -5.19439 0.545886 0
M  V30 882 H 78.3612 -2.93568 0.588086 0
M  V30 883 H 75.9072 -1.41166 0.284259 0
M  V30 884 H 77.8602 -3.87261 -1.66153 0
M  V30 885 H 76.5842 -2.65377 -1.90375 0
M  V30 886 H 75.2432 -3.6659 -0.0267361 0
M  V30 887 H 74.8912 -4.43031 -2.38185 0
M  V30 888 H 74.5912 -5.74777 -1.22085 0
M  V30 889 H 76.1152 -5.71396 -2.15266 0
M  V30 890 H 77.5292 -5.73177 0.118704 0
M  V30 891 H 75.9262 -5.93566 0.88317 0
M  V30 892 H 76.9962 -4.63285 1.43162 0
M  V30 893 N 78.3393 -0.321999 -1.54275 0
M  V30 894 C 79.5853 0.281461 -2.00837 0
M  V30 895 C 79.9183 1.51909 -1.20985 0
M  V30 896 O 79.1933 1.923 -0.291733 0
M  V30 897 C 79.4763 0.617162 -3.54772 0
M  V30 898 C 79.3293 -0.631064 -4.45351 0
M  V30 899 C 80.6483 1.43542 -4.16033 0
M  V30 900 H 77.7673 0.100826 -0.730071 0
M  V30 901 H 80.4093 -0.438268 -1.84876 0
M  V30 902 H 78.5593 1.23034 -3.68504 0
M  V30 903 H 80.2313 -1.26934 -4.43492 0
M  V30 904 H 78.4743 -1.26025 -4.15091 0
M  V30 905 H 79.1453 -0.351735 -5.50878 0
M  V30 906 H 81.6213 0.917134 -4.05867 0
M  V30 907 H 80.4973 1.63907 -5.23856 0
M  V30 908 H 80.7583 2.43108 -3.69257 0
M  V30 909 N 79.8174 1.5752 -0.0501392 0
M  V30 910 C 81.0944 1.83996 0.663685 0
M  V30 911 C 81.4744 0.938339 1.89099 0
M  V30 912 O 80.8224 -0.00087759 2.285 0
M  V30 913 C 81.0324 3.33702 1.02196 0
M  V30 914 C 82.3804 4.00691 1.40469 0
M  V30 915 O 83.4044 3.38321 1.11433 0
M  V30 916 O 82.2634 5.10658 1.94654 0
M  V30 917 H 79.3574 0.759385 0.32751 0
M  V30 918 H 81.9034 1.69514 -0.0794238 0
M  V30 919 H 80.6754 3.91015 0.149364 0
M  V30 920 H 80.2984 3.53368 1.82255 0
M  V30 921 N 81.2955 -0.223234 1.56011 0
M  V30 922 C 82.7065 -0.790368 1.69145 0
M  V30 923 C 83.0575 -1.85055 0.651845 0
M  V30 924 O 82.1825 -2.15498 -0.197359 0
M  V30 925 C 82.7775 -1.4404 3.06656 0
M  V30 926 C 81.3365 -1.95494 3.2165 0
M  V30 927 C 80.4835 -0.814506 2.65068 0
M  V30 928 H 83.4345 0.00139011 1.587 0
M  V30 929 H 83.4555 -2.30916 3.0242 0
M  V30 930 H 82.9675 -0.668543 3.82298 0
M  V30 931 H 81.0685 -2.75487 2.50874 0
M  V30 932 H 81.1815 -2.13607 4.28846 0
M  V30 933 H 79.5455 -1.22137 2.23505 0
M  V30 934 H 80.3285 -0.0553515 3.43255 0
M  V30 935 N 82.7736 -1.49793 -0.48987 0
M  V30 936 C 83.7366 -1.66752 -1.57246 0
M  V30 937 C 84.7366 -0.538867 -1.51502 0
M  V30 938 O 85.9266 -0.805545 -1.54456 0
M  V30 939 C 83.0586 -1.67528 -2.96896 0
M  V30 940 H 84.2516 -2.63321 -1.43534 0
M  V30 941 H 81.8046 -1.38992 -0.714914 0
M  V30 942 H 82.5396 -0.725837 -3.16073 0
M  V30 943 H 82.3246 -2.49504 -3.02473 0
M  V30 944 H 83.8146 -1.82667 -3.7553 0
M  V30 945 N 84.2517 0.741722 -1.39055 0
M  V30 946 C 85.4917 1.51385 -1.37338 0
M  V30 947 C 85.8557 1.91972 0.0330513 0
M  V30 948 O 87.0567 2.68229 0.175174 0
M  V30 949 C 85.3277 2.72481 -2.31276 0
M  V30 950 S 86.8867 3.62211 -2.47687 0
M  V30 951 H 83.7047 0.517906 -0.487129 0
M  V30 952 H 86.3067 0.86969 -1.7509 0
M  V30 953 H 85.0107 2.40793 -3.32336 0
M  V30 954 H 84.5417 3.41832 -1.94716 0
M  V30 955 H 86.5567 4.65812 -1.70978 0
M  V30 956 N 85.7298 1.2412 0.971189 0
M  V30 957 C 86.9788 1.07284 1.70801 0
M  V30 958 C 87.2918 -0.388902 1.91695 0
M  V30 959 O 88.4978 -0.677379 2.62914 0
M  V30 960 C 86.9538 1.87145 3.07416 0
M  V30 961 C 86.5618 3.37707 2.94377 0
M  V30 962 C 88.3058 1.78828 3.84995 0
M  V30 963 C 86.2128 4.09925 4.26281 0
M  V30 964 H 85.1428 0.397854 0.64049 0
M  V30 965 H 87.7938 1.4817 1.0825 0
M  V30 966 H 86.1758 1.39071 3.70777 0
M  V30 967 H 87.3498 3.93335 2.4005 0
M  V30 968 H 85.6648 3.46938 2.30267 0
M  V30 969 H 88.2618 2.30089 4.82662 0
M  V30 970 H 88.6048 0.75284 4.09436 0
M  V30 971 H 89.1378 2.24563 3.28354 0
M  V30 972 H 85.8768 5.13813 4.07033 0
M  V30 973 H 85.3968 3.59083 4.80437 0
M  V30 974 H 87.0758 4.1673 4.94919 0
M  V30 975 N 87.2079 -1.17134 1.05439 0
M  V30 976 C 88.4359 -1.91372 0.786414 0
M  V30 977 C 88.8509 -1.76955 -0.658202 0
M  V30 978 O 88.2079 -1.10838 -1.44987 0
M  V30 979 C 88.2589 -3.42356 1.1608 0
M  V30 980 O 87.9799 -3.56332 2.54871 0
M  V30 981 C 89.4809 -4.33663 0.919322 0
M  V30 982 H 86.7009 -0.607118 0.285743 0
M  V30 983 H 89.2449 -1.48525 1.40572 0
M  V30 984 H 87.3999 -3.82939 0.586191 0
M  V30 985 H 87.8139 -4.49896 2.69618 0
M  V30 986 H 89.2879 -5.38099 1.231 0
M  V30 987 H 89.7649 -4.38959 -0.145359 0
M  V30 988 H 90.3709 -3.98796 1.47789 0
M  V30 989 N 88.686 -0.835752 -1.33615 0
M  V30 990 C 89.911 -0.442389 -2.02627 0
M  V30 991 C 90.336 0.947735 -1.62479 0
M  V30 992 O 89.694 1.61907 -0.815826 0
M  V30 993 C 89.742 -0.567216 -3.56111 0
M  V30 994 O 88.846 0.407799 -4.10379 0
M  V30 995 H 88.187 -0.180278 -0.639059 0
M  V30 996 H 90.717 -1.12972 -1.70583 0
M  V30 997 H 90.727 -0.447708 -4.05536 0
M  V30 998 H 89.402 -1.58103 -3.84677 0
M  V30 999 H 87.979 0.246107 -3.72087 0
M  V30 1000 N 90.1641 1.46063 -0.591896 0
M  V30 1001 C 91.4131 2.01547 -0.0786637 0
M  V30 1002 C 91.7261 1.46796 1.29268 0
M  V30 1003 O 92.9321 1.94157 1.89777 0
M  V30 1004 C 91.3881 3.59787 -0.0900024 0
M  V30 1005 C 90.9961 4.23534 -1.46023 0
M  V30 1006 C 92.7401 4.22895 0.368806 0
M  V30 1007 C 90.6471 5.73881 -1.4288 0
M  V30 1008 H 89.5771 0.753564 -0.0256388 0
M  V30 1009 H 92.2281 1.677 -0.744905 0
M  V30 1010 H 90.6101 3.90752 0.642586 0
M  V30 1011 H 91.7841 4.04167 -2.21328 0
M  V30 1012 H 90.0991 3.72558 -1.85982 0
M  V30 1013 H 92.6961 5.33116 0.411258 0
M  V30 1014 H 93.0391 3.9247 1.38827 0
M  V30 1015 H 93.5721 3.9659 -0.31001 0
M  V30 1016 H 90.3111 6.0898 -2.42536 0
M  V30 1017 H 89.8311 5.95486 -0.718095 0
M  V30 1018 H 91.5101 6.36776 -1.14565 0
M  V30 1019 N 91.6422 0.330177 1.54103 0
M  V30 1020 C 92.5742 -0.566902 2.22079 0
M  V30 1021 C 93.5872 -1.07462 1.22294 0
M  V30 1022 O 94.7762 -0.987065 1.48726 0
M  V30 1023 C 91.8762 -1.79138 2.87685 0
M  V30 1024 C 91.0492 -1.42123 4.13666 0
M  V30 1025 C 90.1082 -2.50394 4.62806 0
M  V30 1026 O 89.1342 -2.14261 5.27334 0
M  V30 1027 N 90.3362 -3.81433 4.37595 0
M  V30 1028 H 93.1012 0.0151844 2.99696 0
M  V30 1029 H 90.6622 0.153681 1.61169 0
M  V30 1030 H 92.6542 -2.50975 3.1748 0
M  V30 1031 H 91.2242 -2.28115 2.13734 0
M  V30 1032 H 90.4442 -0.534201 3.90564 0
M  V30 1033 H 91.7322 -1.14971 4.9564 0
M  V30 1034 H 91.1302 -4.13584 3.8596 0
M  V30 1035 H 89.6872 -4.4948 4.72029 0
M  V30 1036 N 93.1203 -1.57491 0.0584922 0
M  V30 1037 C 94.5313 -1.80526 -0.476138 0
M  V30 1038 C 94.8823 -0.971334 -1.70469 0
M  V30 1039 O 94.0073 -0.190012 -2.15564 0
M  V30 1040 C 94.6023 -3.27424 -0.870587 0
M  V30 1041 C 93.1613 -3.51351 -1.35015 0
M  V30 1042 C 92.3083 -2.75343 -0.32887 0
M  V30 1043 H 95.2593 -1.56133 0.284312 0
M  V30 1044 H 95.2803 -3.38745 -1.73299 0
M  V30 1045 H 94.7923 -3.88093 0.0237627 0
M  V30 1046 H 92.8933 -2.95971 -2.26345 0
M  V30 1047 H 93.0063 -4.60059 -1.33726 0
M  V30 1048 H 91.3703 -2.417 -0.803321 0
M  V30 1049 H 92.1533 -3.38743 0.557521 0
M  V30 1050 N 94.5984 0.214957 -1.56127 0
M  V30 1051 C 95.8464 0.936518 -1.79091 0
M  V30 1052 C 96.1674 1.84606 -0.628148 0
M  V30 1053 O 95.4374 1.92664 0.35462 0
M  V30 1054 H 94.0174 0.3488 -0.660566 0
M  V30 1055 H 96.6794 0.22523 -1.93594 0
M  V30 1056 H 95.7754 1.53943 -2.71492 0
M  V30 1057 N 96.0765 1.50051 0.48192 0
M  V30 1058 C 97.0395 1.67584 1.5636 0
M  V30 1059 C 98.0395 0.546894 1.51214 0
M  V30 1060 O 99.2295 0.813725 1.54026 0
M  V30 1061 C 96.3615 1.691 2.96003 0
M  V30 1062 H 97.5545 2.64078 1.42136 0
M  V30 1063 H 95.1075 1.39369 0.707533 0
M  V30 1064 H 95.8425 0.742589 3.15684 0
M  V30 1065 H 95.6275 2.51105 3.01146 0
M  V30 1066 H 97.1175 1.84656 3.74556 0
M  V30 1067 N 97.5546 -0.734337 1.39446 0
M  V30 1068 C 98.9656 -1.31264 1.32766 0
M  V30 1069 C 99.3166 -1.96198 -0.00767497 0
M  V30 1070 O 98.4416 -1.96346 -0.909796 0
M  V30 1071 C 99.0366 -2.38682 2.4045 0
M  V30 1072 C 97.5956 -2.92184 2.37288 0
M  V30 1073 C 96.7426 -1.6576 2.22304 0
M  V30 1074 H 99.6936 -0.531799 1.49525 0
M  V30 1075 H 99.7146 -3.19087 2.07276 0
M  V30 1076 H 99.2266 -1.91392 3.37625 0
M  V30 1077 H 97.3276 -3.43752 1.43754 0
M  V30 1078 H 97.4406 -3.45253 3.3217 0
M  V30 1079 H 95.8046 -1.9012 1.69489 0
M  V30 1080 H 96.5876 -1.20521 3.21449 0
M  V30 1081 N 99.0327 -1.24633 -0.964593 0
M  V30 1082 C 99.9797 -1.04144 -2.05968 0
M  V30 1083 C 100.95 0.046262 -1.66036 0
M  V30 1084 O 102.135 -0.108972 -1.90489 0
M  V30 1085 C 99.2747 -0.65563 -3.38815 0
M  V30 1086 C 98.3877 -1.81714 -3.91923 0
M  V30 1087 C 97.5227 -1.37662 -5.13052 0
M  V30 1088 C 96.5617 -2.50788 -5.58365 0
M  V30 1089 N 95.6987 -2.07582 -6.70712 0
M  V30 1090 H 100.539 -1.9787 -2.22827 0
M  V30 1091 H 98.0757 -0.9855 -1.09208 0
M  V30 1092 H 100.034 -0.412954 -4.15151 0
M  V30 1093 H 98.6637 0.244627 -3.21872 0
M  V30 1094 H 97.7157 -2.1734 -3.12198 0
M  V30 1095 H 99.0277 -2.66705 -4.21509 0
M  V30 1096 H 98.1817 -1.093 -5.96773 0
M  V30 1097 H 96.9207 -0.497293 -4.85158 0
M  V30 1098 H 95.9257 -2.79906 -4.73215 0
M  V30 1099 H 97.1507 -3.39283 -5.88272 0
M  V30 1100 H 95.0967 -1.22051 -6.44546 0
M  V30 1101 H 95.0137 -2.86125 -6.99763 0
M  V30 1102 H 96.2817 -1.82369 -7.57867 0
M  V30 1103 N 100.511 1.16574 -1.06058 0
M  V30 1104 C 101.739 1.90952 -0.796552 0
M  V30 1105 C 102.154 1.77302 0.648808 0
M  V30 1106 O 101.511 1.11605 1.44397 0
M  V30 1107 C 101.562 3.41736 -1.17894 0
M  V30 1108 O 101.283 3.54975 -2.56758 0
M  V30 1109 C 102.784 4.33169 -0.942308 0
M  V30 1110 H 100.004 0.605594 -0.288959 0
M  V30 1111 H 102.548 1.47777 -1.41358 0
M  V30 1112 H 100.703 3.82623 -0.606491 0
M  V30 1113 H 101.117 4.4846 -2.72 0
M  V30 1114 H 102.591 5.37439 -1.25952 0
M  V30 1115 H 103.068 4.3903 0.122078 0
M  V30 1116 H 103.674 3.98007 -1.49902 0
M  V30 1117 N 101.989 0.842826 1.3317 0
M  V30 1118 C 103.238 0.436738 1.96915 0
M  V30 1119 C 103.551 -1.01025 1.67491 0
M  V30 1120 O 104.757 -1.5212 2.24881 0
M  V30 1121 C 103.213 0.730021 3.52418 0
M  V30 1122 C 102.821 2.19195 3.90714 0
M  V30 1123 C 104.565 0.391076 4.22695 0
M  V30 1124 C 102.472 2.42907 5.39212 0
M  V30 1125 H 101.402 0.15958 0.736919 0
M  V30 1126 H 104.053 1.03196 1.51733 0
M  V30 1127 H 102.435 0.0643755 3.95948 0
M  V30 1128 H 103.609 2.8984 3.58231 0
M  V30 1129 H 101.924 2.49425 3.33431 0
M  V30 1130 H 104.521 0.545817 5.31907 0
M  V30 1131 H 104.864 -0.666294 4.10933 0
M  V30 1132 H 105.397 1.01212 3.84709 0
M  V30 1133 H 102.136 3.47224 5.55982 0
M  V30 1134 H 101.656 1.76827 5.73142 0
M  V30 1135 H 103.335 2.2626 6.06148 0
M  V30 1136 N 103.467 -1.45747 0.599634 0
M  V30 1137 C 104.713 -2.02592 0.0918643 0
M  V30 1138 C 105.046 -1.46806 -1.27128 0
M  V30 1139 O 104.321 -0.639658 -1.83681 0
M  V30 1140 C 104.604 -3.60073 0.0443398 0
M  V30 1141 C 104.457 -4.26208 1.43759 0
M  V30 1142 C 105.776 -4.35309 -0.647608 0
M  V30 1143 H 102.895 -0.736175 0.034857 0
M  V30 1144 H 105.537 -1.73694 0.770081 0
M  V30 1145 H 103.687 -3.84823 -0.533224 0
M  V30 1146 H 105.359 -4.12668 2.06162 0
M  V30 1147 H 103.602 -3.84916 2.00056 0
M  V30 1148 H 104.273 -5.35069 1.35665 0
M  V30 1149 H 106.749 -4.15805 -0.156776 0
M  V30 1150 H 105.625 -5.45038 -0.649942 0
M  V30 1151 H 105.886 -4.07598 -1.71219 0
M  V30 1152 N 104.945 -0.338344 -1.53925 0
M  V30 1153 C 106.361 0.0137736 -1.59594 0
M  V30 1154 C 106.561 1.49186 -1.35447 0
M  V30 1155 O 105.617 2.24987 -1.14616 0
M  V30 1156 C 106.93 -0.41773 -2.97784 0
M  V30 1157 C 108.478 -0.369633 -3.1081 0
M  V30 1158 C 108.953 -0.776524 -4.51369 0
M  V30 1159 N 110.444 -0.730506 -4.57403 0
M  V30 1160 C 111.179 -1.01736 -5.64303 0
M  V30 1161 N 110.675 -1.3721 -6.79077 0
M  V30 1162 N 112.468 -0.941942 -5.54151 0
M  V30 1163 H 104.619 -1.3012 -1.67876 0
M  V30 1164 H 106.882 -0.530082 -0.78595 0
M  V30 1165 H 106.588 -1.44811 -3.20504 0
M  V30 1166 H 106.462 0.209729 -3.76616 0
M  V30 1167 H 108.849 0.651568 -2.87817 0
M  V30 1168 H 108.93 -1.03223 -2.34049 0
M  V30 1169 H 108.574 -1.79571 -4.75096 0
M  V30 1170 H 108.504 -0.0914649 -5.26521 0
M  V30 1171 H 110.995 -0.468783 -3.74981 0
M  V30 1172 H 111.308 -1.57597 -7.5656 0
M  V30 1173 H 109.653 -1.4105 -6.80536 0
M  V30 1174 H 112.844 -0.664184 -4.63364 0
M  V30 1175 H 113.017 -1.16884 -6.37371 0
M  V30 1176 N 106.423 1.57458 -0.0668435 0
M  V30 1177 C 107.671 1.92919 0.602214 0
M  V30 1178 C 107.992 0.947215 1.70449 0
M  V30 1179 O 107.262 -0.00544117 1.95899 0
M  V30 1180 H 105.842 0.71217 0.22544 0
M  V30 1181 H 108.504 1.94508 -0.123535 0
M  V30 1182 H 107.6 2.94589 1.03073 0
M  V30 1183 N 107.901 -0.206675 1.56239 0
M  V30 1184 C 109.126 -0.949474 1.8439 0
M  V30 1185 C 109.551 -1.76549 0.649016 0
M  V30 1186 O 108.909 -1.76782 -0.402231 0
M  V30 1187 C 108.957 -1.83078 3.10668 0
M  V30 1188 O 108.061 -2.9281 2.90407 0
M  V30 1189 H 107.402 -0.268033 0.607499 0
M  V30 1190 H 109.932 -0.215488 2.03462 0
M  V30 1191 H 109.942 -2.2377 3.41161 0
M  V30 1192 H 108.617 -1.23112 3.97261 0
M  V30 1193 H 107.194 -2.55956 2.71184 0
M  V30 1194 N 109.379 -1.50304 -0.473955 0
M  V30 1195 C 110.326 -1.68959 -1.57231 0
M  V30 1196 C 111.296 -0.530899 -1.57387 0
M  V30 1197 O 112.481 -0.761133 -1.74961 0
M  V30 1198 C 109.621 -1.7871 -2.95223 0
M  V30 1199 C 108.734 -3.06061 -3.04878 0
M  V30 1200 C 107.869 -3.06626 -4.33767 0
M  V30 1201 C 106.908 -4.28443 -4.37154 0
M  V30 1202 N 106.045 -4.26763 -5.5751 0
M  V30 1203 H 110.885 -2.6273 -1.40631 0
M  V30 1204 H 108.422 -1.30241 -0.683789 0
M  V30 1205 H 110.38 -1.82344 -3.75242 0
M  V30 1206 H 109.01 -0.883806 -3.10465 0
M  V30 1207 H 108.062 -3.11911 -2.17751 0
M  V30 1208 H 109.374 -3.96039 -3.0324 0
M  V30 1209 H 108.528 -3.08973 -5.22131 0
M  V30 1210 H 107.267 -2.14473 -4.3801 0
M  V30 1211 H 106.272 -4.2631 -3.47188 0
M  V30 1212 H 107.497 -5.2182 -4.34605 0
M  V30 1213 H 105.443 -3.37462 -5.62544 0
M  V30 1214 H 105.36 -5.10507 -5.57601 0
M  V30 1215 H 106.628 -4.33253 -6.48006 0
M  V30 1216 N 110.857 0.726932 -1.39834 0
M  V30 1217 C 112.105 1.4837 -1.37225 0
M  V30 1218 C 112.426 1.94979 0.0284857 0
M  V30 1219 O 111.696 1.69555 0.981213 0
M  V30 1220 H 110.276 0.55043 -0.505011 0
M  V30 1221 H 112.938 0.862468 -1.74778 0
M  V30 1222 H 112.034 2.36198 -2.04003 0
M  V30 1223 N 112.336 1.25143 0.95797 0
M  V30 1224 C 113.299 1.05321 2.03569 0
M  V30 1225 C 114.299 0.007152 1.60798 0
M  V30 1226 O 115.489 0.24903 1.72411 0
M  V30 1227 C 112.621 0.598394 3.35607 0
M  V30 1228 H 113.814 2.00986 2.22586 0
M  V30 1229 H 111.367 1.07502 1.13459 0
M  V30 1230 H 112.102 -0.361014 3.22284 0
M  V30 1231 H 111.887 1.35351 3.67998 0
M  V30 1232 H 113.377 0.48104 4.1482 0
M  V30 1233 N 113.814 -1.1601 1.06675 0
M  V30 1234 C 114.761 -2.20525 0.680967 0
M  V30 1235 C 115.731 -1.62904 -0.324283 0
M  V30 1236 O 116.916 -1.89615 -0.212294 0
M  V30 1237 C 114.056 -3.45013 0.0776551 0
M  V30 1238 C 113.169 -4.16863 1.13355 0
M  V30 1239 C 112.304 -5.2888 0.49597 0
M  V30 1240 C 111.343 -5.92537 1.53513 0
M  V30 1241 N 110.48 -6.96038 0.920631 0
M  V30 1242 H 115.32 -2.52876 1.57663 0
M  V30 1243 H 112.857 -1.24199 0.788223 0
M  V30 1244 H 114.815 -4.16193 -0.289704 0
M  V30 1245 H 113.445 -3.132 -0.781393 0
M  V30 1246 H 112.497 -3.44248 1.61857 0
M  V30 1247 H 113.809 -4.60294 1.92174 0
M  V30 1248 H 112.963 -6.06653 0.0758604 0
M  V30 1249 H 111.702 -4.86622 -0.324062 0
M  V30 1250 H 110.707 -5.13482 1.9651 0
M  V30 1251 H 111.932 -6.36873 2.35733 0
M  V30 1252 H 109.878 -6.55888 0.12138 0
M  V30 1253 H 109.795 -7.3786 1.64616 0
M  V30 1254 H 111.063 -7.77725 0.525795 0
M  V30 1255 N 115.292 -0.849877 -1.32721 0
M  V30 1256 C 116.569 -0.372405 -1.92022 0
M  V30 1257 C 116.949 1.1435 -1.77447 0
M  V30 1258 O 116.297 1.96296 -1.16962 0
M  V30 1259 C 116.507 -0.831482 -3.3895 0
M  V30 1260 C 117.855 -0.845882 -4.16089 0
M  V30 1261 O 118.879 -0.775806 -3.47649 0
M  V30 1262 O 117.738 -0.943753 -5.38289 0
M  V30 1263 H 114.832 -0.107667 -0.819961 0
M  V30 1264 H 117.378 -0.93646 -1.41522 0
M  V30 1265 H 116.15 -1.87448 -3.4348 0
M  V30 1266 H 115.773 -0.24461 -3.96847 0
M  V30 1267 N 116.77 1.45427 -0.607355 0
M  V30 1268 C 118.018 2.01841 -0.102253 0
M  V30 1269 C 118.339 1.47832 1.27164 0
M  V30 1270 O 117.609 0.672497 1.83995 0
M  V30 1271 H 116.189 0.746188 -0.0348101 0
M  V30 1272 H 118.851 1.78229 -0.7887 0
M  V30 1273 H 117.947 3.12057 -0.0518585 0
M  V30 1274 N 118.248 0.346503 1.53744 0
M  V30 1275 C 119.211 -0.496439 2.23759 0
M  V30 1276 C 120.211 -1.0252 1.2388 0
M  V30 1277 O 121.401 -0.913974 1.48297 0
M  V30 1278 C 118.533 -1.69187 2.95954 0
M  V30 1279 H 119.726 0.115952 2.99676 0
M  V30 1280 H 117.279 0.0978939 1.55993 0
M  V30 1281 H 118.014 -2.34288 2.24231 0
M  V30 1282 H 117.799 -1.31989 3.69217 0
M  V30 1283 H 119.289 -2.28969 3.49232 0
M  V30 1284 N 119.726 -1.57421 0.075193 0
M  V30 1285 C 120.656 -2.15942 -0.888324 0
M  V30 1286 C 121.637 -1.08737 -1.30806 0
M  V30 1287 O 122.822 -1.36787 -1.37851 0
M  V30 1288 C 119.952 -2.72379 -2.1547 0
M  V30 1289 C 118.906 -3.8478 -1.87425 0
M  V30 1290 C 118.232 -4.27834 -3.20721 0
M  V30 1291 C 119.532 -5.08869 -1.17684 0
M  V30 1292 H 121.226 -2.96705 -0.400799 0
M  V30 1293 H 118.772 -1.42723 -0.191342 0
M  V30 1294 H 120.725 -3.11965 -2.83295 0
M  V30 1295 H 119.449 -1.88841 -2.6647 0
M  V30 1296 H 118.108 -3.45703 -1.22004 0
M  V30 1297 H 117.756 -3.41214 -3.6957 0
M  V30 1298 H 117.456 -5.03605 -3.02746 0
M  V30 1299 H 118.98 -4.70039 -3.89738 0
M  V30 1300 H 120.394 -5.4575 -1.75584 0
M  V30 1301 H 118.791 -5.8994 -1.09956 0
M  V30 1302 H 119.861 -4.84648 -0.156453 0
M  V30 1303 N 121.204 0.198386 -1.56346 0
M  V30 1304 C 122.432 0.935572 -1.84539 0
M  V30 1305 C 122.847 1.76989 -0.657281 0
M  V30 1306 O 122.204 1.78626 0.374043 0
M  V30 1307 C 122.255 1.8344 -3.11499 0
M  V30 1308 O 121.976 1.03377 -4.25728 0
M  V30 1309 C 123.477 2.68355 -3.52846 0
M  V30 1310 H 120.697 0.273126 -0.612897 0
M  V30 1311 H 123.241 0.20663 -2.03453 0
M  V30 1312 H 121.396 2.51701 -2.94492 0
M  V30 1313 H 121.81 1.64599 -4.98003 0
M  V30 1314 H 123.284 3.27085 -4.44657 0
M  V30 1315 H 123.761 3.41901 -2.75681 0
M  V30 1316 H 124.367 2.05471 -3.72373 0
M  V30 1317 N 122.682 1.50554 0.465978 0
M  V30 1318 C 123.612 1.72722 1.57128 0
M  V30 1319 C 124.593 0.576294 1.6004 0
M  V30 1320 O 125.778 0.81598 1.76225 0
M  V30 1321 C 122.908 1.82605 2.95419 0
M  V30 1322 C 121.862 2.97835 3.07373 0
M  V30 1323 C 121.188 2.92867 4.47363 0
M  V30 1324 C 122.488 4.38265 2.84114 0
M  V30 1325 H 124.182 2.65267 1.38829 0
M  V30 1326 H 121.728 1.2765 0.666441 0
M  V30 1327 H 123.681 1.96698 3.72677 0
M  V30 1328 H 122.405 0.866858 3.14886 0
M  V30 1329 H 121.064 2.83401 2.3255 0
M  V30 1330 H 120.712 1.94783 4.63755 0
M  V30 1331 H 120.412 3.70227 4.56296 0
M  V30 1332 H 121.936 3.09015 5.26633 0
M  V30 1333 H 123.35 4.53198 3.51118 0
M  V30 1334 H 121.747 5.17115 3.04487 0
M  V30 1335 H 122.817 4.50281 1.7993 0
M  V30 1336 N 124.16 -0.719506 1.40217 0
M  V30 1337 C 125.09 -1.8465 1.42922 0
M  V30 1338 C 126.071 -1.67599 0.29062 0
M  V30 1339 O 127.256 -1.87688 0.498677 0
M  V30 1340 C 124.386 -3.22565 1.28722 0
M  V30 1341 C 123.34 -3.54281 2.40144 0
M  V30 1342 C 122.666 -4.91298 2.11023 0
M  V30 1343 C 123.966 -3.55676 3.82481 0
M  V30 1344 H 125.66 -1.82644 2.37237 0
M  V30 1345 H 123.206 -0.877305 1.1419 0
M  V30 1346 H 125.159 -4.01095 1.29232 0
M  V30 1347 H 123.883 -3.25137 0.308811 0
M  V30 1348 H 122.542 -2.78088 2.38877 0
M  V30 1349 H 122.19 -4.90468 1.11582 0
M  V30 1350 H 121.89 -5.13485 2.8567 0
M  V30 1351 H 123.414 -5.72166 2.13209 0
M  V30 1352 H 124.828 -4.24254 3.85592 0
M  V30 1353 H 123.225 -3.89388 4.56614 0
M  V30 1354 H 124.295 -2.55144 4.12346 0
M  V30 1355 N 125.638 -1.25649 -0.95132 0
M  V30 1356 C 126.568 -1.08808 -2.06599 0
M  V30 1357 C 127.549 0.00382547 -1.701 0
M  V30 1358 O 128.734 -0.166325 -1.93486 0
M  V30 1359 C 125.864 -0.709542 -3.39975 0
M  V30 1360 C 124.818 -1.75206 -3.90496 0
M  V30 1361 C 124.144 -1.22811 -5.20405 0
M  V30 1362 C 125.444 -3.15153 -4.16504 0
M  V30 1363 H 127.138 -2.02048 -2.20946 0
M  V30 1364 H 124.684 -0.972835 -1.06169 0
M  V30 1365 H 126.637 -0.578649 -4.17408 0
M  V30 1366 H 125.361 0.258556 -3.25575 0
M  V30 1367 H 124.02 -1.87145 -3.15234 0
M  V30 1368 H 123.668 -0.250145 -5.02378 0
M  V30 1369 H 123.368 -1.92492 -5.55176 0
M  V30 1370 H 124.892 -1.10968 -6.00432 0
M  V30 1371 H 126.306 -3.06349 -4.84586 0
M  V30 1372 H 124.703 -3.82333 -4.62538 0
M  V30 1373 H 125.773 -3.61966 -3.22658 0
M  V30 1374 N 127.117 1.15442 -1.07289 0
M  V30 1375 C 128.394 1.82306 -0.708792 0
M  V30 1376 C 128.774 1.94991 0.808807 0
M  V30 1377 O 128.122 1.50085 1.72298 0
M  V30 1378 C 128.332 3.18695 -1.42247 0
M  V30 1379 C 129.68 3.94341 -1.57417 0
M  V30 1380 O 130.704 3.28247 -1.38319 0
M  V30 1381 O 129.563 5.12839 -1.88834 0
M  V30 1382 H 126.657 0.787628 -0.252132 0
M  V30 1383 H 129.203 1.22559 -1.17377 0
M  V30 1384 H 127.975 3.04557 -2.45684 0
M  V30 1385 H 127.598 3.86128 -0.948223 0
M  V30 1386 N 128.595 0.856903 1.32268 0
M  V30 1387 C 129.505 0.306131 2.32594 0
M  V30 1388 C 130.521 -0.577209 1.64147 0
M  V30 1389 O 131.697 -0.477043 1.95669 0
M  V30 1390 C 128.762 -0.494561 3.43154 0
M  V30 1391 C 127.823 0.415186 4.27288 0
M  V30 1392 C 127.056 -0.347387 5.32568 0
M  V30 1393 O 127.279 -1.57708 5.48165 0
M  V30 1394 O 126.213 0.287982 6.01211 0
M  V30 1395 H 130.039 1.13737 2.81598 0
M  V30 1396 H 127.624 0.619902 1.35932 0
M  V30 1397 H 129.506 -0.948944 4.10576 0
M  V30 1398 H 128.181 -1.30257 2.96336 0
M  V30 1399 H 127.088 0.917793 3.62667 0
M  V30 1400 H 128.421 1.18844 4.77637 0
M  V30 1401 N 130.073 -1.45103 0.615059 0
M  V30 1402 C 131.32 -2.02183 0.113179 0
M  V30 1403 C 131.648 -1.48249 -1.25906 0
M  V30 1404 O 130.903 -0.650265 -1.84581 0
M  V30 1405 C 131.202 -3.57386 0.0318797 0
M  V30 1406 C 130.868 -4.30505 1.34077 0
M  V30 1407 C 129.53 -4.50197 1.69929 0
M  V30 1408 C 131.882 -4.72238 2.20546 0
M  V30 1409 C 129.21 -5.08881 2.91988 0
M  V30 1410 C 131.562 -5.32272 3.41861 0
M  V30 1411 C 130.226 -5.50187 3.77956 0
M  V30 1412 H 129.496 -0.739842 0.0414151 0
M  V30 1413 H 132.143 -1.74073 0.798168 0
M  V30 1414 H 130.448 -3.84817 -0.736409 0
M  V30 1415 H 132.145 -3.99264 -0.372712 0
M  V30 1416 H 128.735 -4.15496 1.05173 0
M  V30 1417 H 132.919 -4.56751 1.94146 0
M  V30 1418 H 128.175 -5.20939 3.2005 0
M  V30 1419 H 132.349 -5.63563 4.09109 0
M  V30 1420 H 129.976 -5.95427 4.72622 0
M  V30 1421 N 131.551 -0.354651 -1.53558 0
M  V30 1422 C 132.461 0.50515 -2.29097 0
M  V30 1423 C 133.477 1.10223 -1.34636 0
M  V30 1424 O 134.653 1.11553 -1.67684 0
M  V30 1425 C 131.718 1.63479 -3.05738 0
M  V30 1426 C 130.779 1.06636 -4.15845 0
M  V30 1427 C 130.012 2.14217 -4.88822 0
M  V30 1428 O 130.235 3.35137 -4.61562 0
M  V30 1429 O 129.169 1.77887 -5.75013 0
M  V30 1430 H 132.995 -0.109237 -3.03503 0
M  V30 1431 H 130.58 -0.119357 -1.48922 0
M  V30 1432 H 132.462 2.2918 -3.5363 0
M  V30 1433 H 131.137 2.23478 -2.34178 0
M  V30 1434 H 130.044 0.373565 -3.7223 0
M  V30 1435 H 131.377 0.511081 -4.89539 0
M  V30 1436 N 133.029 1.57378 -0.0835403 0
M  V30 1437 C 133.977 2.14602 0.89714 0
M  V30 1438 C 134.971 1.08589 1.30018 0
M  V30 1439 O 136.177 1.26952 1.27606 0
M  V30 1440 H 132.552 0.686346 0.3073 0
M  V30 1441 H 134.523 2.95845 0.38969 0
M  V30 1442 C 133.272 2.73188 2.15089 0
M  V30 1443 H 132.595 3.54442 1.84962 0
M  V30 1444 H 134.035 3.1681 2.81793 0
M  V30 1445 C 132.494 1.68517 2.91725 0
M  V30 1446 O 133.024 1.11718 3.85852 0
M  V30 1447 N 131.23 1.39277 2.55049 0
M  V30 1448 H 130.777 1.85655 1.78577 0
M  V30 1449 H 130.735 0.694791 3.06627 0
M  V30 1450 N 134.507 -0.190092 1.56449 0
M  V30 1451 C 135.44 -1.26375 1.90012 0
M  V30 1452 C 136.418 -1.43705 0.760765 0
M  V30 1453 O 137.602 -1.59014 1.01226 0
M  V30 1454 C 134.729 -2.62962 2.13468 0
M  V30 1455 C 133.775 -2.62474 3.36169 0
M  V30 1456 S 134.608 -2.13412 4.91137 0
M  V30 1457 C 135.764 -3.51812 5.17667 0
M  V30 1458 H 135.997 -0.977181 2.80782 0
M  V30 1459 H 133.53 -0.393814 1.49293 0
M  V30 1460 H 135.488 -3.41583 2.27664 0
M  V30 1461 H 134.149 -2.88828 1.23439 0
M  V30 1462 H 133.342 -3.62918 3.49723 0
M  V30 1463 H 132.944 -1.91937 3.20992 0
M  V30 1464 H 135.236 -4.47706 5.08494 0
M  V30 1465 H 136.179 -3.43148 6.19399 0
M  V30 1466 H 136.587 -3.46956 4.45288 0
M  V30 1467 N 135.985 -1.50799 -0.457987 0
M  V30 1468 C 137.21 -1.66496 -1.23668 0
M  V30 1469 C 137.635 -0.353288 -1.84752 0
M  V30 1470 O 136.993 0.684346 -1.67888 0
M  V30 1471 C 137.041 -2.76763 -2.3116 0
M  V30 1472 O 136.145 -2.38928 -3.36136 0
M  V30 1473 H 135.486 -0.555828 -0.363252 0
M  V30 1474 H 138.016 -1.9725 -0.543474 0
M  V30 1475 H 138.026 -3.00232 -2.76269 0
M  V30 1476 H 136.701 -3.71954 -1.86073 0
M  V30 1477 H 135.278 -2.25953 -2.96647 0
M  V30 1478 N 137.463 0.71206 -1.40597 0
M  V30 1479 C 138.709 1.47416 -1.39271 0
M  V30 1480 C 139.042 1.942 0.00388791 0
M  V30 1481 O 138.317 1.68403 0.973179 0
M  V30 1482 C 138.6 2.69774 -2.38525 0
M  V30 1483 C 138.453 2.28861 -3.87224 0
M  V30 1484 C 139.772 3.71939 -2.35264 0
M  V30 1485 H 136.891 0.534713 -0.5072 0
M  V30 1486 H 139.533 0.812375 -1.71757 0
M  V30 1487 H 137.683 3.26238 -2.10953 0
M  V30 1488 H 139.355 1.77852 -4.25636 0
M  V30 1489 H 137.598 1.60824 -4.02887 0
M  V30 1490 H 138.269 3.16584 -4.52193 0
M  V30 1491 H 140.745 3.25113 -2.59694 0
M  V30 1492 H 139.621 4.55186 -3.06753 0
M  V30 1493 H 139.882 4.20484 -1.36549 0
M  V30 1494 N 138.941 1.26152 0.944643 0
M  V30 1495 C 140.169 1.14259 1.72489 0
M  V30 1496 C 140.584 -0.302555 1.8636 0
M  V30 1497 O 139.941 -1.20741 1.36849 0
M  V30 1498 C 139.992 1.80266 3.13347 0
M  V30 1499 O 139.713 3.19133 3.00143 0
M  V30 1500 C 141.214 1.74283 4.07603 0
M  V30 1501 H 138.434 0.398051 0.540181 0
M  V30 1502 H 140.978 1.66706 1.18446 0
M  V30 1503 H 139.133 1.31766 3.64303 0
M  V30 1504 H 139.547 3.51744 3.89071 0
M  V30 1505 H 141.021 2.25111 5.04013 0
M  V30 1506 H 141.498 0.708631 4.33446 0
M  V30 1507 H 142.104 2.22319 3.62567 0
M  V30 1508 N 140.419 -1.14872 1.07899 0
M  V30 1509 C 141.835 -1.37776 0.805606 0
M  V30 1510 C 142.035 -1.92743 -0.587555 0
M  V30 1511 O 141.091 -2.13678 -1.34528 0
M  V30 1512 C 142.404 -2.34361 1.88402 0
M  V30 1513 C 143.952 -2.48012 1.90942 0
M  V30 1514 C 144.427 -3.47893 2.97883 0
M  V30 1515 N 145.918 -3.55433 2.97021 0
M  V30 1516 C 146.653 -4.32553 3.76412 0
M  V30 1517 N 146.149 -5.12959 4.65666 0
M  V30 1518 N 147.942 -4.27697 3.64735 0
M  V30 1519 H 140.093 -0.775365 1.97742 0
M  V30 1520 H 142.356 -0.403521 0.857831 0
M  V30 1521 H 142.062 -2.01098 2.88535 0
M  V30 1522 H 141.936 -3.34206 1.74889 0
M  V30 1523 H 144.323 -2.8057 0.914579 0
M  V30 1524 H 144.404 -1.48147 2.08534 0
M  V30 1525 H 144.048 -3.16069 3.97571 0
M  V30 1526 H 143.978 -4.47527 2.77538 0
M  V30 1527 H 146.469 -2.98048 2.32326 0
M  V30 1528 H 146.782 -5.69065 5.22862 0
M  V30 1529 H 145.127 -5.12245 4.69712 0
M  V30 1530 H 148.318 -3.63949 2.94378 0
M  V30 1531 H 148.491 -4.8755 4.26848 0
M  V30 1532 N 141.898 -0.863906 -1.31812 0
M  V30 1533 C 143.123 -0.48527 -2.01643 0
M  V30 1534 C 143.548 0.913058 -1.64453 0
M  V30 1535 O 142.906 1.6014 -0.849985 0
M  V30 1536 C 142.954 -0.642625 -3.54828 0
M  V30 1537 O 142.058 0.320659 -4.11151 0
M  V30 1538 H 141.399 -0.193793 -0.635091 0
M  V30 1539 H 143.929 -1.16565 -1.68148 0
M  V30 1540 H 143.939 -0.533628 -4.04495 0
M  V30 1541 H 142.614 -1.66227 -3.81237 0
M  V30 1542 H 141.191 0.167126 -3.72525 0
M  V30 1543 N 143.376 1.44774 -0.622745 0
M  V30 1544 C 144.324 2.32387 0.0994683 0
M  V30 1545 C 145.318 1.46859 0.844326 0
M  V30 1546 O 146.524 1.63254 0.758174 0
M  V30 1547 H 142.899 0.750273 0.0509291 0
M  V30 1548 H 144.87 2.91062 -0.65767 0
M  V30 1549 C 143.619 3.30723 1.07319 0
M  V30 1550 H 142.942 3.96541 0.509462 0
M  V30 1551 H 144.382 3.94725 1.54817 0
M  V30 1552 C 142.841 2.59021 2.15429 0
M  V30 1553 O 143.371 2.38286 3.23393 0
M  V30 1554 N 141.577 2.189 1.91131 0
M  V30 1555 H 141.124 2.35964 1.03337 0
M  V30 1556 H 141.082 1.71251 2.63668 0
M  V30 1557 N 144.854 0.36279 1.53368 0
M  V30 1558 C 146.079 -0.231226 2.06107 0
M  V30 1559 C 146.504 -1.419 1.23474 0
M  V30 1560 O 145.862 -1.79524 0.253128 0
M  V30 1561 C 145.91 -0.605523 3.5548 0
M  V30 1562 O 145.014 -1.70312 3.7559 0
M  V30 1563 H 144.355 -0.034327 0.663112 0
M  V30 1564 H 146.885 0.522584 1.97814 0
M  V30 1565 H 146.895 -0.877314 3.98456 0
M  V30 1566 H 145.57 0.263004 4.15068 0
M  V30 1567 H 144.147 -1.4271 3.44512 0
M  V30 1568 N 146.332 -1.57332 0.0918853 0
M  V30 1569 C 147.262 -2.16872 -0.865371 0
M  V30 1570 C 148.243 -1.10118 -1.29646 0
M  V30 1571 O 149.428 -1.38242 -1.36392 0
M  V30 1572 C 146.558 -2.74649 -2.12569 0
M  V30 1573 C 145.512 -3.86747 -1.83333 0
M  V30 1574 C 144.838 -4.31212 -3.16166 0
M  V30 1575 C 146.138 -5.10089 -1.1228 0
M  V30 1576 H 147.832 -2.97114 -0.369307 0
M  V30 1577 H 145.378 -1.42918 -0.176194 0
M  V30 1578 H 147.331 -3.14952 -2.7997 0
M  V30 1579 H 146.055 -1.91657 -2.64452 0
M  V30 1580 H 144.714 -3.46978 -1.18331 0
M  V30 1581 H 144.362 -3.45115 -3.6593 0
M  V30 1582 H 144.062 -5.06788 -2.97388 0
M  V30 1583 H 145.586 -4.74146 -3.84731 0
M  V30 1584 H 147 -5.47582 -1.69785 0
M  V30 1585 H 145.397 -5.91073 -1.03693 0
M  V30 1586 H 146.467 -4.84786 -0.105041 0
M  V30 1587 N 147.81 0.181792 -1.56548 0
M  V30 1588 C 149.226 0.53316 -1.50431 0
M  V30 1589 C 149.426 1.85184 -0.794297 0
M  V30 1590 O 148.482 2.50058 -0.350318 0
M  V30 1591 C 149.795 0.575597 -2.9514 0
M  V30 1592 C 151.343 0.663519 -3.05886 0
M  V30 1593 C 151.818 0.736946 -4.52032 0
M  V30 1594 N 153.309 0.800118 -4.56237 0
M  V30 1595 C 154.044 0.877327 -5.66649 0
M  V30 1596 N 153.54 0.916016 -6.86718 0
M  V30 1597 N 155.333 0.915542 -5.54594 0
M  V30 1598 H 147.484 -0.683025 -2.01118 0
M  V30 1599 H 149.747 -0.244988 -0.915797 0
M  V30 1600 H 149.453 -0.324482 -3.502 0
M  V30 1601 H 149.327 1.42572 -3.49218 0
M  V30 1602 H 151.714 1.55403 -2.50867 0
M  V30 1603 H 151.795 -0.21307 -2.54911 0
M  V30 1604 H 151.439 -0.149262 -5.07681 0
M  V30 1605 H 151.369 1.62953 -5.00753 0
M  V30 1606 H 153.86 0.778926 -3.69785 0
M  V30 1607 H 154.173 0.975813 -7.66614 0
M  V30 1608 H 152.518 0.884469 -6.89349 0
M  V30 1609 H 155.709 0.882245 -4.59711 0
M  V30 1610 H 155.882 0.972253 -6.40665 0
M  V30 1611 N 149.288 1.51039 0.449983 0
M  V30 1612 C 150.704 1.38934 0.785462 0
M  V30 1613 C 150.904 0.461817 1.96136 0
M  V30 1614 O 149.96 -0.0877389 2.52348 0
M  V30 1615 C 151.273 2.80724 1.0777 0
M  V30 1616 C 152.821 2.89787 1.1829 0
M  V30 1617 C 153.296 4.32457 1.50815 0
M  V30 1618 N 154.787 4.35505 1.57764 0
M  V30 1619 C 155.522 5.42914 1.84477 0
M  V30 1620 N 155.018 6.60502 2.09068 0
M  V30 1621 N 156.811 5.3038 1.86155 0
M  V30 1622 H 148.962 2.09904 -0.324647 0
M  V30 1623 H 151.225 0.944378 -0.0827957 0
M  V30 1624 H 150.931 3.50531 0.286498 0
M  V30 1625 H 150.805 3.19273 2.00859 0
M  V30 1626 H 153.192 2.20186 1.96474 0
M  V30 1627 H 153.273 2.54752 0.231314 0
M  V30 1628 H 152.917 5.02603 0.731622 0
M  V30 1629 H 152.847 4.64995 2.47158 0
M  V30 1630 H 155.338 3.50724 1.40715 0
M  V30 1631 H 155.651 7.38158 2.28785 0
M  V30 1632 H 153.996 6.63639 2.06416 0
M  V30 1633 H 157.187 4.37505 1.66454 0
M  V30 1634 H 157.36 6.1417 2.06637 0
M  V30 1635 N 150.766 -0.704594 1.40972 0
M  V30 1636 C 152.043 -1.45847 1.30338 0
M  V30 1637 C 152.423 -2.10973 -0.0732344 0
M  V30 1638 O 151.771 -2.00997 -1.08685 0
M  V30 1639 C 151.981 -2.48525 2.45023 0
M  V30 1640 C 153.329 -3.1404 2.8577 0
M  V30 1641 O 154.353 -2.58848 2.44696 0
M  V30 1642 O 153.212 -4.13981 3.56766 0
M  V30 1643 H 150.306 -0.649092 0.512454 0
M  V30 1644 H 152.852 -0.735836 1.52917 0
M  V30 1645 H 151.624 -1.98994 3.36923 0
M  V30 1646 H 151.247 -3.2831 2.24272 0
M  V30 1647 N 152.244 -1.26651 -0.937939 0
M  V30 1648 C 153.469 -1.15279 -1.72411 0
M  V30 1649 C 153.894 0.287866 -1.85884 0
M  V30 1650 O 153.252 1.20855 -1.35143 0
M  V30 1651 C 153.3 -1.83028 -3.10698 0
M  V30 1652 O 152.404 -1.12128 -3.96864 0
M  V30 1653 H 151.745 -0.401504 -0.528858 0
M  V30 1654 H 154.275 -1.67531 -1.1745 0
M  V30 1655 H 154.285 -1.89981 -3.6107 0
M  V30 1656 H 152.96 -2.87833 -3.00208 0
M  V30 1657 H 151.537 -1.13173 -3.55312 0
M  V30 1658 N 153.722 1.14298 -1.08507 0
M  V30 1659 C 155.133 1.66926 -0.836227 0
M  V30 1660 C 155.484 1.85576 0.63686 0
M  V30 1661 O 154.609 1.56767 1.49175 0
M  V30 1662 C 155.204 3.03219 -1.51142 0
M  V30 1663 C 153.763 3.52876 -1.30979 0
M  V30 1664 C 152.91 2.2833 -1.57356 0
M  V30 1665 H 155.861 0.983491 -1.24552 0
M  V30 1666 H 155.882 3.68726 -0.939211 0
M  V30 1667 H 155.394 2.89612 -2.58353 0
M  V30 1668 H 153.495 3.71703 -0.258429 0
M  V30 1669 H 153.608 4.33586 -2.03814 0
M  V30 1670 H 151.972 2.34454 -0.995164 0
M  V30 1671 H 152.755 2.17298 -2.65775 0
M  V30 1672 N 155.201 0.870884 1.31352 0
M  V30 1673 C 156.612 0.534714 1.78879 0
M  V30 1674 C 156.963 -0.948423 1.71754 0
M  V30 1675 O 156.088 -1.74055 1.28584 0
M  V30 1676 C 156.683 0.963839 3.24801 0
M  V30 1677 C 155.242 0.679311 3.70219 0
M  V30 1678 C 154.389 1.15465 2.52117 0
M  V30 1679 H 157.34 1.05651 1.18421 0
M  V30 1680 H 157.361 0.286892 3.79417 0
M  V30 1681 H 156.873 2.04332 3.29955 0
M  V30 1682 H 154.974 -0.388769 3.70566 0
M  V30 1683 H 155.087 1.25698 4.62317 0
M  V30 1684 H 153.451 0.574383 2.48139 0
M  V30 1685 H 154.234 2.24157 2.60016 0
M  V30 1686 N 156.679 -1.44442 0.630414 0
M  V30 1687 C 158.09 -1.85434 0.217063 0
M  V30 1688 C 158.441 -1.52748 -1.23136 0
M  V30 1689 O 157.566 -0.965205 -1.93682 0
M  V30 1690 C 158.161 -3.36581 0.387168 0
M  V30 1691 C 156.72 -3.76389 0.0283297 0
M  V30 1692 C 155.867 -2.68296 0.700889 0
M  V30 1693 H 158.818 -1.34919 0.83562 0
M  V30 1694 H 158.839 -3.78657 -0.374086 0
M  V30 1695 H 158.351 -3.60339 1.44144 0
M  V30 1696 H 156.452 -3.58246 -1.02423 0
M  V30 1697 H 156.565 -4.77095 0.437892 0
M  V30 1698 H 154.929 -2.54335 0.136267 0
M  V30 1699 H 155.712 -2.94887 1.75774 0
M  V30 1700 N 158.157 -0.370918 -1.53173 0
M  V30 1701 C 159.568 0.107139 -1.86392 0
M  V30 1702 C 159.919 1.47714 -1.29132 0
M  V30 1703 O 159.044 2.07464 -0.615439 0
M  V30 1704 C 159.639 0.201187 -3.38202 0
M  V30 1705 C 158.198 0.623507 -3.712 0
M  V30 1706 C 157.345 -0.225978 -2.76378 0
M  V30 1707 H 160.296 -0.58951 -1.47345 0
M  V30 1708 H 160.317 1.02377 -3.66468 0
M  V30 1709 H 159.829 -0.796058 -3.79848 0
M  V30 1710 H 157.93 1.62879 -3.35114 0
M  V30 1711 H 158.043 0.394414 -4.77474 0
M  V30 1712 H 156.407 0.305962 -2.52856 0
M  V30 1713 H 157.19 -1.22086 -3.20858 0
M  V30 1714 N 159.635 1.57281 -0.100228 0
M  V30 1715 C 160.598 2.13158 0.842398 0
M  V30 1716 C 161.598 1.06202 1.20738 0
M  V30 1717 O 162.788 1.32066 1.13597 0
M  V30 1718 C 159.92 2.65639 2.13655 0
M  V30 1719 H 161.113 2.97766 0.357114 0
M  V30 1720 H 158.666 1.5559 0.148823 0
M  V30 1721 H 159.401 1.84566 2.66657 0
M  V30 1722 H 159.186 3.43844 1.88451 0
M  V30 1723 H 160.676 3.08846 2.81077 0
M  V30 1724 N 161.113 -0.173488 1.56642 0
M  V30 1725 C 162.529 -0.525174 1.50712 0
M  V30 1726 C 162.729 -1.8476 0.804107 0
M  V30 1727 O 161.785 -2.49869 0.363574 0
M  V30 1728 C 163.098 -0.559937 2.95441 0
M  V30 1729 C 164.646 -0.647288 3.06234 0
M  V30 1730 C 165.121 -0.712963 4.52417 0
M  V30 1731 N 166.612 -0.775911 4.56655 0
M  V30 1732 C 167.347 -0.847264 5.67106 0
M  V30 1733 N 166.843 -0.879585 6.87194 0
M  V30 1734 N 168.636 -0.886117 5.55071 0
M  V30 1735 H 160.787 0.693681 2.00753 0
M  V30 1736 H 163.05 0.249841 0.914485 0
M  V30 1737 H 162.756 0.343049 3.50023 0
M  V30 1738 H 162.63 -1.40718 3.49969 0
M  V30 1739 H 165.017 -1.5407 2.51687 0
M  V30 1740 H 165.098 0.226586 2.54794 0
M  V30 1741 H 164.742 0.176183 5.07594 0
M  V30 1742 H 164.672 -1.60295 5.0161 0
M  V30 1743 H 167.163 -0.759304 3.70193 0
M  V30 1744 H 167.476 -0.935144 7.67121 0
M  V30 1745 H 165.821 -0.847898 6.89808 0
M  V30 1746 H 169.012 -0.857853 4.60172 0
M  V30 1747 H 169.185 -0.938263 6.41171 0
M  V30 1748 N 162.591 -1.51276 -0.441967 0
M  V30 1749 C 163.554 -1.7167 -1.51862 0
M  V30 1750 C 164.554 -0.586793 -1.49711 0
M  V30 1751 O 165.744 -0.854276 -1.51815 0
M  V30 1752 C 162.876 -1.76889 -2.91416 0
M  V30 1753 H 164.069 -2.67754 -1.35084 0
M  V30 1754 H 161.622 -1.41196 -0.670333 0
M  V30 1755 H 162.357 -0.826026 -3.13604 0
M  V30 1756 H 162.142 -2.59001 -2.94382 0
M  V30 1757 H 163.632 -1.94522 -3.69528 0
M  V30 1758 N 164.069 0.697108 -1.41344 0
M  V30 1759 C 165.485 1.00751 -1.2378 0
M  V30 1760 C 165.685 2.01105 -0.126066 0
M  V30 1761 O 164.741 2.47295 0.51004 0
M  V30 1762 C 166.054 1.53359 -2.58653 0
M  V30 1763 C 167.602 1.6525 -2.65822 0
M  V30 1764 C 168.077 2.2126 -4.01009 0
M  V30 1765 N 169.568 2.28622 -4.02847 0
M  V30 1766 C 170.303 2.72984 -5.04249 0
M  V30 1767 N 169.799 3.16962 -6.16041 0
M  V30 1768 N 171.592 2.72534 -4.91611 0
M  V30 1769 H 163.743 0.0322662 -2.12375 0
M  V30 1770 H 166.006 0.0768853 -0.944877 0
M  V30 1771 H 165.712 0.870773 -3.4075 0
M  V30 1772 H 165.586 2.51597 -2.81032 0
M  V30 1773 H 167.973 2.30644 -1.84086 0
M  V30 1774 H 168.054 0.655614 -2.47256 0
M  V30 1775 H 167.698 1.56482 -4.83193 0
M  V30 1776 H 167.628 3.21698 -4.16915 0
M  V30 1777 H 170.119 1.97585 -3.22131 0
M  V30 1778 H 170.432 3.49434 -6.89287 0
M  V30 1779 H 168.777 3.14875 -6.1958 0
M  V30 1780 H 171.968 2.37525 -4.0336 0
M  V30 1781 H 172.141 3.06789 -5.70775 0
M  V30 1782 N 165.547 1.27147 0.931209 0
M  V30 1783 C 166.479 1.05364 2.03546 0
M  V30 1784 C 167.492 0.0108438 1.62796 0
M  V30 1785 O 168.681 0.25202 1.76712 0
M  V30 1786 C 165.781 0.575566 3.33977 0
M  V30 1787 C 164.954 1.68985 4.03439 0
M  V30 1788 C 164.013 1.20813 5.12143 0
M  V30 1789 O 163.039 1.90712 5.363 0
M  V30 1790 N 164.241 0.0618851 5.80467 0
M  V30 1791 H 167.006 2.00454 2.22796 0
M  V30 1792 H 164.567 1.18666 1.10136 0
M  V30 1793 H 166.559 0.237264 4.04004 0
M  V30 1794 H 165.129 -0.282016 3.11325 0
M  V30 1795 H 164.349 2.19861 3.27192 0
M  V30 1796 H 165.637 2.4378 4.46597 0
M  V30 1797 H 165.035 -0.521621 5.6329 0
M  V30 1798 H 163.592 -0.217264 6.51438 0
M  V30 1799 N 167.025 -1.13721 1.09112 0
M  V30 1800 C 167.935 -2.22638 0.73957 0
M  V30 1801 C 168.951 -1.72091 -0.257068 0
M  V30 1802 O 170.127 -2.01155 -0.0992154 0
M  V30 1803 C 167.192 -3.46322 0.16191 0
M  V30 1804 C 166.253 -4.11775 1.21408 0
M  V30 1805 C 165.486 -5.29555 0.663891 0
M  V30 1806 O 165.709 -5.68077 -0.514274 0
M  V30 1807 O 164.643 -5.84973 1.41738 0
M  V30 1808 H 168.469 -2.55074 1.64836 0
M  V30 1809 H 166.054 -1.21791 0.865289 0
M  V30 1810 H 167.936 -4.21107 -0.157073 0
M  V30 1811 H 166.611 -3.15593 -0.719932 0
M  V30 1812 H 165.518 -3.3883 1.58571 0
M  V30 1813 H 166.851 -4.46627 2.06845 0
M  V30 1814 N 168.503 -0.877838 -1.30888 0
M  V30 1815 C 169.451 -0.328662 -2.30266 0
M  V30 1816 C 170.445 0.560496 -1.59859 0
M  V30 1817 O 171.651 0.445722 -1.74394 0
M  V30 1818 H 168.026 -0.0876142 -0.746879 0
M  V30 1819 H 169.997 -1.18061 -2.74051 0
M  V30 1820 C 168.746 0.448071 -3.44801 0
M  V30 1821 H 168.069 -0.226859 -3.99156 0
M  V30 1822 H 169.509 0.797541 -4.16432 0
M  V30 1823 C 167.968 1.64239 -2.94155 0
M  V30 1824 O 168.498 2.74175 -2.93583 0
M  V30 1825 N 166.704 1.47716 -2.50256 0
M  V30 1826 H 166.251 0.582821 -2.5092 0
M  V30 1827 H 166.209 2.27765 -2.16727 0
M  V30 1828 N 169.982 1.44106 -0.638065 0
M  V30 1829 C 171.23 2.01579 -0.145043 0
M  V30 1830 C 171.551 1.50496 1.24 0
M  V30 1831 O 170.821 0.711374 1.82527 0
M  V30 1832 H 169.401 0.745282 -0.05063 0
M  V30 1833 H 172.063 1.76516 -0.826327 0
M  V30 1834 H 171.159 3.11877 -0.118039 0
M  V30 1835 N 171.46 0.379036 1.52974 0
M  V30 1836 C 172.393 -0.504932 2.22544 0
M  V30 1837 C 173.371 -1.0723 1.22231 0
M  V30 1838 O 174.555 -1.12589 1.51182 0
M  V30 1839 C 171.682 -1.69794 2.93066 0
M  V30 1840 C 170.728 -1.25678 4.07563 0
M  V30 1841 S 171.561 -0.246852 5.34931 0
M  V30 1842 C 172.717 -1.44588 6.08971 0
M  V30 1843 H 172.95 0.0858666 2.97176 0
M  V30 1844 H 170.483 0.163183 1.53535 0
M  V30 1845 H 172.441 -2.38219 3.34308 0
M  V30 1846 H 171.102 -2.26002 2.18133 0
M  V30 1847 H 170.295 -2.14725 4.5597 0
M  V30 1848 H 169.897 -0.651584 3.6828 0
M  V30 1849 H 172.189 -2.37469 6.34519 0
M  V30 1850 H 173.132 -1.00292 7.00962 0
M  V30 1851 H 173.54 -1.65804 5.39601 0
M  V30 1852 N 172.938 -1.57226 0.108567 0
M  V30 1853 C 174.349 -1.8195 -0.418464 0
M  V30 1854 C 174.7 -1.02508 -1.67292 0
M  V30 1855 O 173.825 -0.258496 -2.14851 0
M  V30 1856 C 174.42 -3.30028 -0.765979 0
M  V30 1857 C 172.979 -3.55469 -1.23769 0
M  V30 1858 C 172.126 -2.7625 -0.241106 0
M  V30 1859 H 175.077 -1.55149 0.33384 0
M  V30 1860 H 175.098 -3.44086 -1.62434 0
M  V30 1861 H 174.61 -3.87821 0.147219 0
M  V30 1862 H 172.711 -3.03022 -2.16814 0
M  V30 1863 H 172.824 -4.6408 -1.19022 0
M  V30 1864 H 171.188 -2.44133 -0.72602 0
M  V30 1865 H 171.971 -3.36797 0.665007 0
M  V30 1866 N 174.416 0.165178 -1.56732 0
M  V30 1867 C 175.326 1.22423 -2.00125 0
M  V30 1868 C 176.342 1.48084 -0.913619 0
M  V30 1869 O 177.518 1.60112 -1.22172 0
M  V30 1870 C 174.583 2.54197 -2.35764 0
M  V30 1871 C 173.644 2.36343 -3.58386 0
M  V30 1872 C 172.877 3.61834 -3.92316 0
M  V30 1873 O 173.1 4.67267 -3.27135 0
M  V30 1874 O 172.034 3.55579 -4.85641 0
M  V30 1875 H 175.86 0.885886 -2.90492 0
M  V30 1876 H 173.445 0.372518 -1.44681 0
M  V30 1877 H 175.327 3.3192 -2.59629 0
M  V30 1878 H 174.002 2.87598 -1.48557 0
M  V30 1879 H 172.909 1.56632 -3.39731 0
M  V30 1880 H 174.242 2.07865 -4.46154 0
M  V30 1881 N 175.894 1.51508 0.433938 0
M  V30 1882 C 176.804 1.75917 1.5521 0
M  V30 1883 C 177.82 0.643545 1.61662 0
M  V30 1884 O 178.996 0.926183 1.7884 0
M  V30 1885 C 176.061 1.88213 2.91164 0
M  V30 1886 C 175.122 3.12074 2.94802 0
M  V30 1887 C 174.355 3.23774 4.24271 0
M  V30 1888 O 174.578 2.4133 5.16833 0
M  V30 1889 O 173.512 4.16774 4.34262 0
M  V30 1890 H 177.338 2.70777 1.37527 0
M  V30 1891 H 174.923 1.36051 0.617293 0
M  V30 1892 H 176.805 1.98267 3.71845 0
M  V30 1893 H 175.48 0.965413 3.08968 0
M  V30 1894 H 174.387 3.07497 2.13065 0
M  V30 1895 H 175.72 4.03446 2.81943 0
M  V30 1896 N 177.372 -0.689602 1.41712 0
M  V30 1897 C 178.783 -1.26973 1.36875 0
M  V30 1898 C 179.134 -1.96124 0.054748 0
M  V30 1899 O 178.259 -1.99141 -0.84687 0
M  V30 1900 C 178.854 -2.30912 2.47922 0
M  V30 1901 C 177.413 -2.84486 2.46464 0
M  V30 1902 C 176.56 -1.58603 2.27465 0
M  V30 1903 H 179.511 -0.48396 1.51141 0
M  V30 1904 H 179.532 -3.12331 2.17323 0
M  V30 1905 H 179.044 -1.80554 3.43543 0
M  V30 1906 H 177.145 -3.39005 1.54617 0
M  V30 1907 H 177.258 -3.34511 3.42986 0
M  V30 1908 H 175.622 -1.84632 1.75451 0
M  V30 1909 H 176.405 -1.10233 3.25121 0
M  V30 1910 N 178.85 -1.27639 -0.924453 0
M  V30 1911 C 179.813 -1.10681 -2.00705 0
M  V30 1912 C 180.813 -0.0497823 -1.60723 0
M  V30 1913 O 182.003 -0.294654 -1.7169 0
M  V30 1914 C 179.135 -0.687164 -3.33902 0
M  V30 1915 H 180.328 -2.06817 -2.17179 0
M  V30 1916 H 177.881 -1.10473 -1.10569 0
M  V30 1917 H 178.616 0.275439 -3.23128 0
M  V30 1918 H 178.401 -1.45061 -3.6428 0
M  V30 1919 H 179.891 -0.590853 -4.13399 0
M  V30 1920 N 180.328 1.1314 -1.09713 0
M  V30 1921 C 181.556 1.88321 -0.856898 0
M  V30 1922 C 181.971 1.79276 0.592073 0
M  V30 1923 O 181.328 1.16142 1.40774 0
M  V30 1924 C 181.379 3.37812 -1.28706 0
M  V30 1925 O 181.1 3.46627 -2.67921 0
M  V30 1926 C 182.601 4.29952 -1.07964 0
M  V30 1927 H 179.821 0.596094 -0.308079 0
M  V30 1928 H 182.365 1.43205 -1.45988 0
M  V30 1929 H 180.52 3.805 -0.727912 0
M  V30 1930 H 180.934 4.39579 -2.8613 0
M  V30 1931 H 182.408 5.33159 -1.42986 0
M  V30 1932 H 182.885 4.39196 -0.0176577 0
M  V30 1933 H 183.491 3.93036 -1.62489 0
M  V30 1934 N 181.806 0.884767 1.30421 0
M  V30 1935 C 183.034 0.518044 2.0031 0
M  V30 1936 C 183.449 -0.893408 1.66324 0
M  V30 1937 O 182.806 -1.5875 0.900262 0
M  V30 1938 C 182.857 0.682997 3.54989 0
M  V30 1939 O 182.578 2.03888 3.87764 0
M  V30 1940 C 184.079 0.31924 4.42149 0
M  V30 1941 H 181.299 0.200265 0.640418 0
M  V30 1942 H 183.843 1.19001 1.6631 0
M  V30 1943 H 181.998 0.0584052 3.87356 0
M  V30 1944 H 182.412 2.05735 4.82466 0
M  V30 1945 H 183.886 0.485555 5.4986 0
M  V30 1946 H 184.363 -0.742717 4.32875 0
M  V30 1947 H 184.969 0.920147 4.15227 0
M  V30 1948 N 183.284 -1.43765 0.645699 0
M  V30 1949 C 184.247 -2.29163 -0.0409488 0
M  V30 1950 C 185.247 -1.41813 -0.757996 0
M  V30 1951 O 186.437 -1.63527 -0.600382 0
M  V30 1952 C 183.569 -3.23716 -1.06869 0
M  V30 1953 H 184.762 -2.91366 0.710345 0
M  V30 1954 H 182.315 -1.5092 0.406547 0
M  V30 1955 H 183.05 -2.66393 -1.84947 0
M  V30 1956 H 182.835 -3.88105 -0.558277 0
M  V30 1957 H 184.325 -3.87831 -1.54845 0
M  V30 1958 N 184.763 -0.387143 -1.52771 0
M  V30 1959 C 186.179 -0.037007 -1.59557 0
M  V30 1960 C 186.379 1.44801 -1.40124 0
M  V30 1961 O 185.435 2.21227 -1.21716 0
M  V30 1962 C 186.748 -0.512256 -2.96305 0
M  V30 1963 C 188.296 -0.468328 -3.09476 0
M  V30 1964 C 188.771 -0.919731 -4.4867 0
M  V30 1965 N 190.262 -0.875656 -4.54848 0
M  V30 1966 C 190.997 -1.19637 -5.6078 0
M  V30 1967 N 190.493 -1.58745 -6.74368 0
M  V30 1968 N 192.286 -1.11776 -5.50874 0
M  V30 1969 H 184.437 -1.35395 -1.63652 0
M  V30 1970 H 186.7 -0.554818 -0.768688 0
M  V30 1971 H 186.406 -1.54935 -3.15734 0
M  V30 1972 H 186.28 0.089805 -3.77093 0
M  V30 1973 H 188.667 0.559671 -2.89744 0
M  V30 1974 H 188.748 -1.10616 -2.30646 0
M  V30 1975 H 188.392 -1.94595 -4.69143 0
M  V30 1976 H 188.322 -0.258927 -5.25963 0
M  V30 1977 H 190.813 -0.587843 -3.733 0
M  V30 1978 H 191.126 -1.81586 -7.51163 0
M  V30 1979 H 189.471 -1.6263 -6.75705 0
M  V30 1980 H 192.662 -0.811264 -4.61016 0
M  V30 1981 H 192.835 -1.37103 -6.3333 0
M  V30 1982 N 186.241 1.57166 -0.116904 0
M  V30 1983 C 187.489 1.94737 0.540533 0
M  V30 1984 C 187.81 1.00096 1.67349 0
M  V30 1985 O 187.08 0.0568854 1.95817 0
M  V30 1986 H 185.66 0.718981 0.202669 0
M  V30 1987 H 188.322 1.94017 -0.185353 0
M  V30 1988 H 187.418 2.97719 0.936483 0
M  V30 1989 N 187.719 -0.156864 1.56817 0
M  V30 1990 C 188.967 -0.869404 1.82444 0
M  V30 1991 C 189.288 -1.82147 0.69623 0
M  V30 1992 O 188.558 -1.93847 -0.28287 0
M  V30 1993 H 187.138 -0.324043 0.673056 0
M  V30 1994 H 189.8 -0.153224 1.94297 0
M  V30 1995 H 188.896 -1.43761 2.77019 0
M  V30 1996 N 189.197 -1.51736 -0.425897 0
M  V30 1997 C 190.608 -1.5732 -1.00536 0
M  V30 1998 C 190.959 -0.403537 -1.92005 0
M  V30 1999 O 190.084 0.478256 -2.11049 0
M  V30 2000 C 190.679 -2.85119 -1.8301 0
M  V30 2001 C 189.238 -2.93236 -2.35987 0
M  V30 2002 C 188.385 -2.52098 -1.15508 0
M  V30 2003 H 191.336 -1.57348 -0.206739 0
M  V30 2004 H 191.357 -2.69526 -2.68581 0
M  V30 2005 H 190.869 -3.7023 -1.16411 0
M  V30 2006 H 188.97 -2.12581 -3.06007 0
M  V30 2007 H 189.083 -3.9713 -2.68001 0
M  V30 2008 H 187.447 -2.05558 -1.50393 0
M  V30 2009 H 188.23 -3.39565 -0.505014 0
M  V30 2010 N 190.675 0.682077 -1.42076 0
M  V30 2011 C 191.923 1.4393 -1.41876 0
M  V30 2012 C 192.244 1.94971 -0.0335599 0
M  V30 2013 O 191.514 1.72591 0.926773 0
M  V30 2014 H 190.094 0.534085 -0.522267 0
M  V30 2015 H 192.756 0.806427 -1.77434 0
M  V30 2016 H 191.852 2.29588 -2.11414 0
M  V30 2017 N 192.153 1.28127 0.917671 0
M  V30 2018 C 193.1 1.11717 2.0196 0
M  V30 2019 C 194.07 0.0153929 1.66093 0
M  V30 2020 O 195.255 0.179596 1.89953 0
M  V30 2021 C 192.395 0.780927 3.36148 0
M  V30 2022 C 191.508 1.96135 3.84909 0
M  V30 2023 C 190.643 1.56609 5.0759 0
M  V30 2024 C 189.682 2.71339 5.48673 0
M  V30 2025 N 188.819 2.32332 6.62545 0
M  V30 2026 H 193.659 2.06003 2.15329 0
M  V30 2027 H 191.196 1.02535 1.05475 0
M  V30 2028 H 193.154 0.56675 4.13333 0
M  V30 2029 H 191.784 -0.124998 3.22558 0
M  V30 2030 H 190.836 2.28777 3.03916 0
M  V30 2031 H 192.148 2.82165 4.1132 0
M  V30 2032 H 191.302 1.31374 5.92305 0
M  V30 2033 H 190.041 0.677014 4.82978 0
M  V30 2034 H 189.046 2.97276 4.62501 0
M  V30 2035 H 190.271 3.60882 5.75274 0
M  V30 2036 H 188.217 1.45889 6.39572 0
M  V30 2037 H 188.134 3.11899 6.88662 0
M  V30 2038 H 189.402 2.10371 7.50576 0
M  V30 2039 N 193.631 -1.12557 1.10312 0
M  V30 2040 C 194.594 -2.16434 0.75424 0
M  V30 2041 C 195.594 -1.59278 -0.220685 0
M  V30 2042 O 196.784 -1.742 0.00230591 0
M  V30 2043 C 193.916 -3.40699 0.116987 0
M  V30 2044 H 195.109 -2.48811 1.67431 0
M  V30 2045 H 192.662 -1.27542 0.903475 0
M  V30 2046 H 193.397 -3.13921 -0.813877 0
M  V30 2047 H 193.182 -3.83459 0.818613 0
M  V30 2048 H 194.672 -4.17451 -0.111387 0
M  V30 2049 N 195.109 -0.891671 -1.2995 0
M  V30 2050 C 196.357 -0.512486 -1.95494 0
M  V30 2051 C 196.678 0.942776 -1.70695 0
M  V30 2052 O 195.948 1.66374 -1.03424 0
M  V30 2053 H 194.528 -0.186533 -0.723336 0
M  V30 2054 H 197.19 -1.13621 -1.58355 0
M  V30 2055 H 196.286 -0.688342 -3.04415 0
M  V30 2056 N 196.587 1.43421 -0.653314 0
M  V30 2057 C 197.812 2.06678 -0.172846 0
M  V30 2058 C 198.237 1.48648 1.15262 0
M  V30 2059 O 197.595 0.596457 1.71208 0
M  V30 2060 C 197.643 3.60474 -0.0953184 0
M  V30 2061 O 196.747 4.01487 0.942442 0
M  V30 2062 H 196.088 0.657181 -0.0949155 0
M  V30 2063 H 198.618 1.83925 -0.896265 0
M  V30 2064 H 198.628 4.07905 0.0879728 0
M  V30 2065 H 197.303 4.02088 -1.06291 0
M  V30 2066 H 195.88 3.65646 0.731932 0
M  V30 2067 N 198.065 0.39524 1.52563 0
M  V30 2068 C 199.481 0.0454682 1.59535 0
M  V30 2069 C 199.681 -1.44056 1.4089 0
M  V30 2070 O 198.737 -2.20579 1.22888 0
M  V30 2071 C 200.05 0.527963 2.96029 0
M  V30 2072 C 201.598 0.484733 3.09224 0
M  V30 2073 C 202.073 0.943512 4.48176 0
M  V30 2074 N 203.564 0.899765 4.54377 0
M  V30 2075 C 204.299 1.22609 5.60138 0
M  V30 2076 N 203.795 1.62319 6.73516 0
M  V30 2077 N 205.588 1.14696 5.50274 0
M  V30 2078 H 197.739 1.36261 1.62931 0
M  V30 2079 H 200.002 0.558887 0.765735 0
M  V30 2080 H 199.708 1.56607 3.14908 0
M  V30 2081 H 199.582 -0.0698056 3.77135 0
M  V30 2082 H 201.969 -0.544298 2.90037 0
M  V30 2083 H 202.05 1.11838 2.30056 0
M  V30 2084 H 201.694 1.9708 4.68104 0
M  V30 2085 H 201.624 0.286817 5.25818 0
M  V30 2086 H 204.115 0.607632 3.72983 0
M  V30 2087 H 204.428 1.85567 7.5019 0
M  V30 2088 H 202.773 1.66211 6.74833 0
M  V30 2089 H 205.964 0.835701 4.6058 0
M  V30 2090 H 206.137 1.40459 6.32594 0
M  V30 2091 N 199.544 -1.57102 0.125237 0
M  V30 2092 C 200.792 -1.95021 -0.530198 0
M  V30 2093 C 201.113 -1.00982 -1.66816 0
M  V30 2094 O 200.383 -0.0672693 -1.95784 0
M  V30 2095 H 198.963 -0.720046 -0.198853 0
M  V30 2096 H 201.625 -1.93916 0.19564 0
M  V30 2097 H 200.721 -2.98211 -0.920681 0
M  V30 2098 N 201.022 0.148545 -1.56898 0
M  V30 2099 C 202.438 0.501131 -1.51528 0
M  V30 2100 C 202.638 1.83458 -0.833399 0
M  V30 2101 O 201.694 2.49259 -0.40328 0
M  V30 2102 C 203.007 0.512864 -2.96294 0
M  V30 2103 C 204.555 0.598487 -3.07225 0
M  V30 2104 C 205.03 0.640897 -4.53494 0
M  V30 2105 N 206.521 0.703163 -4.57832 0
M  V30 2106 C 207.256 0.756935 -5.68382 0
M  V30 2107 N 206.752 0.770147 -6.88506 0
M  V30 2108 N 208.545 0.797698 -5.56411 0
M  V30 2109 H 200.696 -0.725532 -1.99624 0
M  V30 2110 H 202.959 -0.264358 -0.910395 0
M  V30 2111 H 202.665 -0.398691 -3.49433 0
M  V30 2112 H 202.539 1.35133 -3.52163 0
M  V30 2113 H 204.926 1.50046 -2.54106 0
M  V30 2114 H 205.007 -0.267093 -2.54402 0
M  V30 2115 H 204.651 -0.256915 -5.0725 0
M  V30 2116 H 204.581 1.52295 -5.04097 0
M  V30 2117 H 207.072 0.700314 -3.71354 0
M  V30 2118 H 207.385 0.812983 -7.68512 0
M  V30 2119 H 205.73 0.738049 -6.9107 0
M  V30 2120 H 208.921 0.784535 -4.61479 0
M  V30 2121 H 209.094 0.83614 -6.42583 0
M  V30 2122 N 202.5 1.5196 0.417844 0
M  V30 2123 C 203.747 1.65591 1.16559 0
M  V30 2124 C 204.075 0.381565 1.90721 0
M  V30 2125 O 203.33 -0.635156 1.85106 0
M  V30 2126 C 203.629 2.82269 2.19223 0
M  V30 2127 C 203.295 4.20819 1.61933 0
M  V30 2128 C 201.957 4.58506 1.46033 0
M  V30 2129 C 204.309 5.07196 1.20008 0
M  V30 2130 C 201.637 5.80257 0.867113 0
M  V30 2131 C 203.989 6.29544 0.621086 0
M  V30 2132 C 202.653 6.65987 0.449144 0
M  V30 2133 H 201.923 0.605939 0.42652 0
M  V30 2134 H 204.57 1.86041 0.45397 0
M  V30 2135 H 202.875 2.56118 2.96498 0
M  V30 2136 H 204.572 2.90012 2.76936 0
M  V30 2137 H 201.162 3.91116 1.7529 0
M  V30 2138 H 205.346 4.7867 1.31105 0
M  V30 2139 H 200.602 6.07124 0.721833 0
M  V30 2140 H 204.776 6.95805 0.287798 0
M  V30 2141 H 202.403 7.60199 -0.012632 0
M  V30 2142 N 203.978 -0.674533 1.42435 0
M  V30 2143 C 204.941 -1.76986 1.45632 0
M  V30 2144 C 205.941 -1.5708 0.343871 0
M  V30 2145 O 207.131 -1.63367 0.604709 0
M  V30 2146 C 204.263 -3.15623 1.28822 0
M  V30 2147 H 205.456 -1.75539 2.43158 0
M  V30 2148 H 203.009 -0.884189 1.28887 0
M  V30 2149 H 203.744 -3.22696 0.322193 0
M  V30 2150 H 203.529 -3.31475 2.09444 0
M  V30 2151 H 205.019 -3.95537 1.33942 0
M  V30 2152 N 205.456 -1.28612 -0.910864 0
M  V30 2153 C 206.704 -1.15705 -1.65701 0
M  V30 2154 C 207.025 0.29416 -1.92769 0
M  V30 2155 O 206.295 1.20331 -1.54588 0
M  V30 2156 H 204.875 -0.425216 -0.614167 0
M  V30 2157 H 207.537 -1.61381 -1.0928 0
M  V30 2158 H 206.633 -1.6988 -2.61815 0
M  V30 2159 N 206.934 1.1197 -1.10907 0
M  V30 2160 C 207.884 2.15946 -0.731538 0
M  V30 2161 C 208.868 1.58758 0.261699 0
M  V30 2162 O 210.06 1.76863 0.0696722 0
M  V30 2163 C 207.189 3.42877 -0.170299 0
M  V30 2164 C 206.275 4.07037 -1.19087 0
M  V30 2165 N 206.666 4.46135 -2.38322 0
M  V30 2166 C 204.964 4.33884 -1.03252 0
M  V30 2167 C 205.665 4.96331 -3.03366 0
M  V30 2168 N 204.641 4.9214 -2.30865 0
M  V30 2169 H 208.443 2.43947 -1.63912 0
M  V30 2170 H 205.957 1.28927 -0.987505 0
M  V30 2171 H 207.954 4.16732 0.118271 0
M  V30 2172 H 206.614 3.16343 0.731935 0
M  V30 2173 H 207.625 4.38345 -2.75815 0
M  V30 2174 H 204.302 4.17084 -0.186256 0
M  V30 2175 H 205.692 5.36257 -4.04818 0
M  V30 2176 N 208.412 0.89855 1.29475 0
M  V30 2177 C 209.637 0.538561 2.00285 0
M  V30 2178 C 210.062 -0.869135 1.66816 0
M  V30 2179 O 209.42 -1.57831 0.892145 0
M  V30 2180 C 209.468 0.736475 3.52999 0
M  V30 2181 O 208.572 -0.211537 4.11857 0
M  V30 2182 H 207.913 0.210563 0.62973 0
M  V30 2183 H 210.443 1.20982 1.64998 0
M  V30 2184 H 210.453 0.640685 4.02938 0
M  V30 2185 H 209.128 1.76276 3.76696 0
M  V30 2186 H 207.705 -0.0682991 3.72837 0
M  V30 2187 N 209.89 -1.43072 0.660911 0
M  V30 2188 C 210.8 -2.34585 -0.0264163 0
M  V30 2189 C 211.816 -1.54316 -0.803898 0
M  V30 2190 O 212.992 -1.86939 -0.749391 0
M  V30 2191 C 210.057 -3.32689 -0.975639 0
M  V30 2192 C 209.118 -4.2886 -0.194236 0
M  V30 2193 C 208.351 -5.22278 -1.09825 0
M  V30 2194 O 208.574 -5.20299 -2.33763 0
M  V30 2195 O 207.508 -5.99228 -0.566513 0
M  V30 2196 H 211.334 -2.94869 0.727034 0
M  V30 2197 H 208.919 -1.43342 0.42111 0
M  V30 2198 H 210.801 -3.92995 -1.52094 0
M  V30 2199 H 209.476 -2.74898 -1.70918 0
M  V30 2200 H 208.383 -3.72011 0.394835 0
M  V30 2201 H 209.716 -4.89655 0.499899 0
M  V30 2202 N 211.368 -0.403325 -1.52352 0
M  V30 2203 C 212.331 0.413051 -2.25447 0
M  V30 2204 C 213.331 0.978513 -1.276 0
M  V30 2205 O 214.521 0.858305 -1.51587 0
M  V30 2206 C 211.653 1.58087 -3.02029 0
M  V30 2207 H 212.846 -0.227094 -2.99039 0
M  V30 2208 H 210.399 -0.155722 -1.55522 0
M  V30 2209 H 211.134 2.25804 -2.32772 0
M  V30 2210 H 210.919 1.18195 -3.73861 0
M  V30 2211 H 212.409 2.1585 -3.57489 0
M  V30 2212 N 212.846 1.57033 -0.133567 0
M  V30 2213 C 214.094 1.953 0.519848 0
M  V30 2214 C 214.415 1.01866 1.66278 0
M  V30 2215 O 213.685 0.0776513 1.95746 0
M  V30 2216 H 212.265 0.721091 0.195032 0
M  V30 2217 H 214.927 1.93809 -0.205921 0
M  V30 2218 H 214.023 2.98695 0.904854 0
M  V30 2219 N 214.325 -0.140222 1.56975 0
M  V30 2220 C 215.573 -0.850005 1.83356 0
M  V30 2221 C 215.894 -1.81399 0.71551 0
M  V30 2222 O 215.164 -1.94136 -0.262294 0
M  V30 2223 H 213.744 -0.316886 0.676456 0
M  V30 2224 H 216.406 -0.132608 1.94448 0
M  V30 2225 H 215.502 -1.40814 2.78528 0
M  V30 2226 N 215.803 -1.52179 -0.40978 0
M  V30 2227 C 217.051 -1.65878 -1.15451 0
M  V30 2228 C 217.372 -0.390771 -1.91044 0
M  V30 2229 O 216.642 0.594323 -1.86667 0
M  V30 2230 H 215.222 -0.611405 -0.429177 0
M  V30 2231 H 217.884 -1.89219 -0.467134 0
M  V30 2232 H 216.98 -2.49954 -1.86894 0
M  V30 2233 N 217.281 0.66697 -1.42791 0
M  V30 2234 C 218.506 1.46004 -1.47301 0
M  V30 2235 C 218.931 1.87894 -0.0880317 0
M  V30 2236 O 218.289 1.56502 0.915253 0
M  V30 2237 C 218.337 2.68031 -2.41229 0
M  V30 2238 O 217.441 3.6659 -1.88906 0
M  V30 2239 H 216.782 0.43832 -0.49877 0
M  V30 2240 H 219.312 0.817391 -1.87563 0
M  V30 2241 H 219.322 3.1601 -2.58073 0
M  V30 2242 H 217.997 2.36883 -3.41847 0
M  V30 2243 H 216.574 3.25661 -1.81656 0
M  V30 2244 N 218.759 1.29093 0.90403 0
M  V30 2245 C 220.007 1.16583 1.65085 0
M  V30 2246 C 220.328 -0.283933 1.92922 0
M  V30 2247 O 219.598 -1.19509 1.55224 0
M  V30 2248 H 218.178 0.428467 0.611903 0
M  V30 2249 H 220.84 1.61959 1.08422 0
M  V30 2250 H 219.936 1.71266 2.6091 0
M  V30 2251 N 220.237 -1.11381 1.11499 0
M  V30 2252 C 221.514 -1.7955 0.775965 0
M  V30 2253 C 221.894 -1.97859 -0.73588 0
M  V30 2254 O 221.242 -1.56376 -1.66609 0
M  V30 2255 C 221.452 -3.13196 1.53977 0
M  V30 2256 C 222.8 -3.88227 1.71944 0
M  V30 2257 O 223.824 -3.22887 1.50407 0
M  V30 2258 O 222.683 -5.05477 2.07738 0
M  V30 2259 H 219.777 -0.777728 0.28119 0
M  V30 2260 H 222.323 -1.18118 1.21845 0
M  V30 2261 H 221.095 -2.95229 2.56818 0
M  V30 2262 H 220.718 -3.82342 1.09088 0
M  V30 2263 N 221.715 -0.905404 -1.28997 0
M  V30 2264 C 223.131 -0.60233 -1.47798 0
M  V30 2265 C 223.331 0.854645 -1.82478 0
M  V30 2266 O 222.387 1.63439 -1.92468 0
M  V30 2267 C 223.7 -1.53306 -2.58685 0
M  V30 2268 C 225.248 -1.53887 -2.72558 0
M  V30 2269 C 225.723 -2.45602 -3.86579 0
M  V30 2270 N 227.214 -2.43681 -3.93921 0
M  V30 2271 C 227.949 -3.11347 -4.81509 0
M  V30 2272 N 227.445 -3.88313 -5.73746 0
M  V30 2273 N 229.238 -3.00476 -4.75048 0
M  V30 2274 H 221.389 -1.84765 -1.04764 0
M  V30 2275 H 223.652 -0.792025 -0.520961 0
M  V30 2276 H 223.358 -2.57141 -2.39941 0
M  V30 2277 H 223.232 -1.25787 -3.55609 0
M  V30 2278 H 225.619 -0.507941 -2.90696 0
M  V30 2279 H 225.7 -1.85447 -1.76191 0
M  V30 2280 H 225.344 -3.48792 -3.69197 0
M  V30 2281 H 225.274 -2.11349 -4.82327 0
M  V30 2282 H 227.765 -1.87767 -3.27951 0
M  V30 2283 H 228.078 -4.36985 -6.37389 0
M  V30 2284 H 226.423 -3.92419 -5.73614 0
M  V30 2285 H 229.614 -2.39858 -4.01977 0
M  V30 2286 H 229.787 -3.53485 -5.43095 0
M  V30 2287 N 223.193 1.4272 -0.668489 0
M  V30 2288 C 224.609 1.55992 -0.33745 0
M  V30 2289 C 224.809 1.64933 1.15756 0
M  V30 2290 O 223.865 1.61278 1.94282 0
M  V30 2291 C 225.178 2.81314 -1.06222 0
M  V30 2292 C 226.726 2.95078 -1.04394 0
M  V30 2293 C 227.201 4.23252 -1.74991 0
M  V30 2294 N 228.692 4.3015 -1.71829 0
M  V30 2295 C 229.427 5.28127 -2.23315 0
M  V30 2296 N 228.923 6.32293 -2.83156 0
M  V30 2297 N 230.716 5.19882 -2.13726 0
M  V30 2298 H 222.867 1.3516 -1.63846 0
M  V30 2299 H 225.13 0.650174 -0.689912 0
M  V30 2300 H 224.836 2.80823 -2.11734 0
M  V30 2301 H 224.71 3.72012 -0.62344 0
M  V30 2302 H 227.097 2.951 0.0028244 0
M  V30 2303 H 227.178 2.05627 -1.52155 0
M  V30 2304 H 226.822 4.2399 -2.79633 0
M  V30 2305 H 226.752 5.11626 -1.24685 0
M  V30 2306 H 229.243 3.55499 -1.28175 0
M  V30 2307 H 229.556 7.03398 -3.20079 0
M  V30 2308 H 227.901 6.32873 -2.87223 0
M  V30 2309 H 231.092 4.37423 -1.66669 0
M  V30 2310 H 231.265 5.96077 -2.54158 0
M  V30 2311 N 224.671 0.411399 1.52136 0
M  V30 2312 C 226.087 0.0623865 1.59478 0
M  V30 2313 C 226.287 -1.42554 1.4241 0
M  V30 2314 O 225.343 -2.19263 1.2522 0
M  V30 2315 C 226.656 0.559331 2.95452 0
M  V30 2316 C 228.204 0.517503 3.08692 0
M  V30 2317 C 228.679 0.990994 4.4715 0
M  V30 2318 N 230.17 0.947908 4.53397 0
M  V30 2319 C 230.905 1.28544 5.58806 0
M  V30 2320 N 230.401 1.69454 6.71757 0
M  V30 2321 N 232.194 1.20526 5.49026 0
M  V30 2322 H 224.345 1.37982 1.61477 0
M  V30 2323 H 226.608 0.566977 0.759764 0
M  V30 2324 H 226.314 1.59938 3.1323 0
M  V30 2325 H 226.188 -0.0298014 3.77188 0
M  V30 2326 H 228.575 -0.513505 2.90598 0
M  V30 2327 H 228.656 1.14272 2.28857 0
M  V30 2328 H 228.3 2.02034 4.65988 0
M  V30 2329 H 228.23 0.34257 5.25485 0
M  V30 2330 H 230.721 0.647157 3.72317 0
M  V30 2331 H 231.034 1.93513 7.48179 0
M  V30 2332 H 229.379 1.73359 6.73032 0
M  V30 2333 H 232.57 0.884505 4.59667 0
M  V30 2334 H 232.743 1.47161 6.31069 0
M  V30 2335 N 226.149 -1.5696 0.141893 0
M  V30 2336 C 227.112 -2.15316 -0.785587 0
M  V30 2337 C 228.112 -1.09366 -1.1788 0
M  V30 2338 O 229.302 -1.35031 -1.10056 0
M  V30 2339 C 226.434 -2.71211 -2.06537 0
M  V30 2340 H 227.627 -2.98608 -0.278041 0
M  V30 2341 H 225.18 -1.5593 -0.107519 0
M  V30 2342 H 225.915 -1.91571 -2.6167 0
M  V30 2343 H 225.7 -3.4872 -1.79268 0
M  V30 2344 H 227.19 -3.16189 -2.72789 0
M  V30 2345 N 227.627 0.131896 -1.57047 0
M  V30 2346 C 228.875 0.840269 -1.83804 0
M  V30 2347 C 229.196 1.81017 -0.72512 0
M  V30 2348 O 228.466 1.94272 0.251995 0
M  V30 2349 H 227.046 0.313294 -0.678127 0
M  V30 2350 H 229.708 0.122294 -1.94516 0
M  V30 2351 H 228.804 1.39335 -2.79271 0
M  V30 2352 N 229.106 1.52395 0.401703 0
M  V30 2353 C 230.517 1.58899 0.980202 0
M  V30 2354 C 230.868 0.434032 1.91339 0
M  V30 2355 O 229.993 -0.444619 2.11783 0
M  V30 2356 C 230.588 2.87994 1.78451 0
M  V30 2357 C 229.147 2.96953 2.31292 0
M  V30 2358 C 228.294 2.53903 1.11483 0
M  V30 2359 H 231.245 1.57657 0.18168 0
M  V30 2360 H 231.266 2.73765 2.64259 0
M  V30 2361 H 230.778 3.72035 1.10506 0
M  V30 2362 H 228.879 2.17422 3.02586 0
M  V30 2363 H 228.992 4.01344 2.61649 0
M  V30 2364 H 227.356 2.07925 1.47104 0
M  V30 2365 H 228.139 3.40326 0.450928 0
M  V30 2366 N 230.584 -0.659388 1.43143 0
M  V30 2367 C 231.494 -1.80167 1.50256 0
M  V30 2368 C 232.51 -1.69571 0.390106 0
M  V30 2369 O 233.686 -1.90849 0.643319 0
M  V30 2370 C 230.751 -3.16409 1.41725 0
M  V30 2371 C 229.812 -3.38848 2.63591 0
M  V30 2372 C 229.045 -4.68591 2.55458 0
M  V30 2373 O 229.268 -5.47532 1.59891 0
M  V30 2374 O 228.202 -4.92614 3.45854 0
M  V30 2375 H 232.028 -1.77121 2.46702 0
M  V30 2376 H 229.613 -0.817092 1.25076 0
M  V30 2377 H 231.495 -3.9768 1.39387 0
M  V30 2378 H 230.17 -3.20059 0.484118 0
M  V30 2379 H 229.077 -2.57366 2.71502 0
M  V30 2380 H 230.41 -3.4004 3.55856 0
M  V30 2381 N 232.062 -1.29571 -0.897171 0
M  V30 2382 C 233.009 -1.14916 -2.00158 0
M  V30 2383 C 233.979 -0.0418149 -1.66047 0
M  V30 2384 O 235.164 -0.209793 -1.89643 0
M  V30 2385 C 232.304 -0.834307 -3.34863 0
M  V30 2386 C 231.417 -2.02234 -3.8174 0
M  V30 2387 C 230.552 -1.64664 -5.05034 0
M  V30 2388 C 229.591 -2.80033 -5.44286 0
M  V30 2389 N 228.728 -2.42843 -6.58765 0
M  V30 2390 H 233.568 -2.09403 -2.12025 0
M  V30 2391 H 231.105 -1.042 -1.0383 0
M  V30 2392 H 233.063 -0.632436 -4.12379 0
M  V30 2393 H 231.693 0.0736656 -3.22716 0
M  V30 2394 H 230.745 -2.33583 -3.00238 0
M  V30 2395 H 232.057 -2.88673 -4.06779 0
M  V30 2396 H 231.211 -1.4078 -5.9014 0
M  V30 2397 H 229.95 -0.753766 -4.8184 0
M  V30 2398 H 228.955 -3.04596 -4.57713 0
M  V30 2399 H 230.18 -3.69989 -5.6946 0
M  V30 2400 H 228.126 -1.56046 -6.3717 0
M  V30 2401 H 228.043 -3.22815 -6.83613 0
M  V30 2402 H 229.311 -2.22285 -7.47134 0
M  V30 2403 N 233.54 1.10788 -1.12088 0
M  V30 2404 C 234.956 1.34691 -0.856186 0
M  V30 2405 C 235.156 1.94791 0.515615 0
M  V30 2406 O 234.212 2.18524 1.26505 0
M  V30 2407 C 235.525 2.27208 -1.9697 0
M  V30 2408 C 237.073 2.40755 -2.00016 0
M  V30 2409 C 237.548 3.36598 -3.1059 0
M  V30 2410 N 239.039 3.44164 -3.10008 0
M  V30 2411 C 239.774 4.18284 -3.92206 0
M  V30 2412 N 239.27 4.95322 -4.84384 0
M  V30 2413 N 241.063 4.13865 -3.80357 0
M  V30 2414 H 233.214 0.70144 -2.00483 0
M  V30 2415 H 235.477 0.371405 -0.872217 0
M  V30 2416 H 235.183 1.90251 -2.958 0
M  V30 2417 H 235.057 3.27485 -1.87172 0
M  V30 2418 H 237.444 2.76982 -1.01808 0
M  V30 2419 H 237.525 1.40305 -2.13888 0
M  V30 2420 H 237.169 3.01096 -4.09028 0
M  V30 2421 H 237.099 4.36918 -2.93956 0
M  V30 2422 H 239.59 2.8922 -2.43228 0
M  V30 2423 H 239.903 5.49267 -5.43623 0
M  V30 2424 H 238.248 4.94459 -4.884 0
M  V30 2425 H 241.439 3.52773 -3.07683 0
M  V30 2426 H 241.612 4.71372 -4.44649 0
M  V30 2427 N 235.018 0.912232 1.28515 0
M  V30 2428 C 236.429 0.591352 1.77087 0
M  V30 2429 C 236.78 -0.8933 1.74684 0
M  V30 2430 O 235.905 -1.69876 1.34056 0
M  V30 2431 C 236.5 1.06668 3.2157 0
M  V30 2432 C 235.059 0.79675 3.67871 0
M  V30 2433 C 234.206 1.23427 2.48316 0
M  V30 2434 H 237.157 1.09365 1.15 0
M  V30 2435 H 237.178 0.407455 3.78312 0
M  V30 2436 H 236.69 2.14726 3.23287 0
M  V30 2437 H 234.791 -0.270679 3.71616 0
M  V30 2438 H 234.904 1.40343 4.58084 0
M  V30 2439 H 233.268 0.653036 2.46186 0
M  V30 2440 H 234.051 2.32316 2.52753 0
M  V30 2441 N 236.496 -1.42363 0.676048 0
M  V30 2442 C 237.443 -2.308 -0.00150904 0
M  V30 2443 C 238.413 -1.46032 -0.791444 0
M  V30 2444 O 239.598 -1.74861 -0.76344 0
M  V30 2445 C 236.738 -3.31883 -0.945919 0
M  V30 2446 C 235.851 -4.31741 -0.149675 0
M  V30 2447 C 234.986 -5.19898 -1.08995 0
M  V30 2448 C 234.025 -6.11434 -0.285465 0
M  V30 2449 N 233.162 -6.92138 -1.17851 0
M  V30 2450 H 238.002 -2.88187 0.758455 0
M  V30 2451 H 235.539 -1.41952 0.38576 0
M  V30 2452 H 237.497 -3.89019 -1.50731 0
M  V30 2453 H 236.127 -2.76093 -1.6725 0
M  V30 2454 H 235.179 -3.76713 0.528359 0
M  V30 2455 H 236.491 -4.96534 0.474866 0
M  V30 2456 H 235.645 -5.81772 -1.72123 0
M  V30 2457 H 234.384 -4.55284 -1.74837 0
M  V30 2458 H 233.389 -5.48627 0.359018 0
M  V30 2459 H 234.614 -6.78097 0.368883 0
M  V30 2460 H 232.56 -6.30152 -1.82332 0
M  V30 2461 H 232.477 -7.53542 -0.609082 0
M  V30 2462 H 233.745 -7.58499 -1.79722 0
M  V30 2463 N 237.974 -0.419461 -1.51915 0
M  V30 2464 C 239.199 0.154572 -2.06823 0
M  V30 2465 C 239.624 1.3722 -1.28656 0
M  V30 2466 O 238.982 1.78461 -0.319583 0
M  V30 2467 C 239.03 0.473172 -3.57482 0
M  V30 2468 O 238.134 1.56255 -3.81652 0
M  V30 2469 H 237.475 0.0096924 -0.663929 0
M  V30 2470 H 240.005 -0.595642 -1.95738 0
M  V30 2471 H 240.015 0.728825 -4.01438 0
M  V30 2472 H 238.69 -0.416873 -4.13805 0
M  V30 2473 H 237.267 1.29825 -3.49571 0
M  V30 2474 N 239.452 1.56882 -0.150215 0
M  V30 2475 C 240.677 2.01027 0.510184 0
M  V30 2476 C 241.102 1.02966 1.57415 0
M  V30 2477 O 240.46 0.00590158 1.81299 0
M  V30 2478 C 240.508 3.43899 1.08472 0
M  V30 2479 O 239.612 3.4885 2.19948 0
M  V30 2480 H 238.953 0.652233 0.124451 0
M  V30 2481 H 241.483 2.03093 -0.247894 0
M  V30 2482 H 241.493 3.82766 1.41259 0
M  V30 2483 H 240.168 4.14776 0.305582 0
M  V30 2484 H 238.745 3.21827 1.88366 0
M  V30 2485 N 240.93 -0.123565 1.57115 0
M  V30 2486 C 242.346 -0.476961 1.52306 0
M  V30 2487 C 242.546 -1.82109 0.86248 0
M  V30 2488 O 241.602 -2.48586 0.442884 0
M  V30 2489 C 242.915 -0.465661 2.97073 0
M  V30 2490 C 244.463 -0.549534 3.08138 0
M  V30 2491 C 244.938 -0.568669 4.54456 0
M  V30 2492 N 246.429 -0.630237 4.58892 0
M  V30 2493 C 247.164 -0.666415 5.69514 0
M  V30 2494 N 246.66 -0.660514 6.89644 0
M  V30 2495 N 248.453 -0.709077 5.5761 0
M  V30 2496 H 240.604 0.757198 1.98445 0
M  V30 2497 H 242.867 0.278808 0.906074 0
M  V30 2498 H 242.573 0.454232 3.48754 0
M  V30 2499 H 242.447 -1.29513 3.54269 0
M  V30 2500 H 244.834 -1.45985 2.56461 0
M  V30 2501 H 244.915 0.307532 2.53945 0
M  V30 2502 H 244.559 0.337581 5.06777 0
M  V30 2503 H 244.489 -1.44256 5.06456 0
M  V30 2504 H 246.98 -0.641146 3.72421 0
M  V30 2505 H 247.293 -0.690616 7.69708 0
M  V30 2506 H 245.638 -0.628012 6.92157 0
M  V30 2507 H 248.829 -0.711019 4.62668 0
M  V30 2508 H 249.002 -0.733804 6.43832 0
M  V30 2509 N 242.408 -1.52605 -0.393616 0
M  V30 2510 C 243.318 -1.79971 -1.50492 0
M  V30 2511 C 244.334 -0.686181 -1.59899 0
M  V30 2512 O 245.51 -0.973274 -1.76322 0
M  V30 2513 C 242.575 -1.95867 -2.86072 0
M  V30 2514 C 241.636 -3.19781 -2.86424 0
M  V30 2515 C 240.869 -3.34909 -4.15538 0
M  V30 2516 O 241.092 -2.54948 -5.10253 0
M  V30 2517 O 240.026 -4.28141 -4.23059 0
M  V30 2518 H 243.852 -2.74328 -1.30299 0
M  V30 2519 H 241.437 -1.3764 -0.581005 0
M  V30 2520 H 243.319 -2.08056 -3.66457 0
M  V30 2521 H 241.994 -1.04699 -3.063 0
M  V30 2522 H 240.901 -3.13038 -2.04837 0
M  V30 2523 H 242.234 -4.1078 -2.71147 0
M  V30 2524 N 243.887 0.651787 -1.4349 0
M  V30 2525 C 245.135 1.40888 -1.44897 0
M  V30 2526 C 245.456 1.94856 -0.0749086 0
M  V30 2527 O 244.726 1.74518 0.889956 0
M  V30 2528 H 243.306 0.522887 -0.533478 0
M  V30 2529 H 245.968 0.768609 -1.79104 0
M  V30 2530 H 245.064 2.25052 -2.16236 0
M  V30 2531 N 245.365 1.30045 0.890287 0
M  V30 2532 C 246.59 1.21598 1.68014 0
M  V30 2533 C 247.015 -0.218678 1.86825 0
M  V30 2534 O 246.373 -1.15756 1.39536 0
M  V30 2535 C 246.421 1.94434 3.03691 0
M  V30 2536 O 245.525 1.2678 3.92429 0
M  V30 2537 H 244.866 0.420856 0.513592 0
M  V30 2538 H 247.396 1.71775 1.11151 0
M  V30 2539 H 247.406 2.03251 3.5377 0
M  V30 2540 H 246.081 2.98777 2.89318 0
M  V30 2541 H 244.658 1.26282 3.50866 0
M  V30 2542 N 246.843 -1.10192 1.12674 0
M  V30 2543 C 248.091 -1.81845 0.881861 0
M  V30 2544 C 248.412 -1.85737 -0.593867 0
M  V30 2545 O 247.682 -1.33724 -1.4316 0
M  V30 2546 H 246.262 -0.673432 0.323261 0
M  V30 2547 H 248.924 -1.33316 1.42172 0
M  V30 2548 H 248.02 -2.85288 1.2656 0
M  V30 2549 N 248.321 -0.919034 -1.28029 0
M  V30 2550 C 249.569 -0.553838 -1.94363 0
M  V30 2551 C 249.89 0.906357 -1.72656 0
M  V30 2552 O 249.16 1.64143 -1.0693 0
M  V30 2553 H 247.74 -0.201834 -0.719216 0
M  V30 2554 H 250.402 -1.16954 -1.55909 0
M  V30 2555 H 249.498 -0.752758 -3.02886 0
M  V30 2556 N 249.799 1.42003 -0.683588 0
M  V30 2557 C 251.21 1.84501 -0.285736 0
M  V30 2558 C 251.561 1.57213 1.17382 0
M  V30 2559 O 250.686 1.03642 1.89966 0
M  V30 2560 C 251.281 3.34912 -0.511821 0
M  V30 2561 C 249.84 3.76025 -0.168005 0
M  V30 2562 C 248.987 2.6551 -0.799983 0
M  V30 2563 H 251.938 1.31724 -0.885119 0
M  V30 2564 H 251.959 3.79784 0.233292 0
M  V30 2565 H 251.471 3.54741 -1.57418 0
M  V30 2566 H 249.572 3.61801 0.890567 0
M  V30 2567 H 249.685 4.75141 -0.614661 0
M  V30 2568 H 248.049 2.53654 -0.230568 0
M  V30 2569 H 248.832 2.8816 -1.86597 0
M  V30 2570 N 251.277 0.427512 1.51691 0
M  V30 2571 C 252.209 -0.424521 2.25234 0
M  V30 2572 C 253.222 -0.994671 1.2888 0
M  V30 2573 O 254.411 -0.890483 1.54702 0
M  V30 2574 C 251.511 -1.60479 2.98496 0
M  V30 2575 C 250.684 -1.15527 4.21868 0
M  V30 2576 C 249.743 -2.20454 4.77793 0
M  V30 2577 O 248.769 -1.8029 5.39893 0
M  V30 2578 N 249.971 -3.52831 4.60967 0
M  V30 2579 H 252.736 0.205749 2.98993 0
M  V30 2580 H 250.297 0.255867 1.59865 0
M  V30 2581 H 252.289 -2.30276 3.32799 0
M  V30 2582 H 250.859 -2.14061 2.27809 0
M  V30 2583 H 250.079 -0.284736 3.9317 0
M  V30 2584 H 251.367 -0.832173 5.01949 0
M  V30 2585 H 250.765 -3.88201 4.11481 0
M  V30 2586 H 249.322 -4.18551 4.99658 0
M  V30 2587 N 252.755 -1.56801 0.158532 0
M  V30 2588 C 253.665 -2.20916 -0.789518 0
M  V30 2589 C 254.681 -1.1969 -1.26294 0
M  V30 2590 O 255.857 -1.52308 -1.31773 0
M  V30 2591 C 252.922 -2.82727 -2.00665 0
M  V30 2592 C 251.983 -3.99114 -1.58134 0
M  V30 2593 C 251.216 -4.57968 -2.74045 0
M  V30 2594 O 251.439 -4.15704 -3.90572 0
M  V30 2595 O 250.373 -5.48047 -2.48855 0
M  V30 2596 H 254.199 -3.02464 -0.273681 0
M  V30 2597 H 251.784 -1.4924 -0.0690548 0
M  V30 2598 H 253.666 -3.21968 -2.71872 0
M  V30 2599 H 252.341 -2.04184 -2.51179 0
M  V30 2600 H 251.248 -3.64567 -0.839155 0
M  V30 2601 H 252.581 -4.79212 -1.12325 0
M  V30 2602 N 254.233 0.115231 -1.57178 0
M  V30 2603 C 255.458 0.840354 -1.89612 0
M  V30 2604 C 255.883 1.72464 -0.750845 0
M  V30 2605 O 255.241 1.78826 0.298478 0
M  V30 2606 C 255.289 1.64654 -3.20814 0
M  V30 2607 O 254.393 2.7538 -3.06985 0
M  V30 2608 H 253.734 0.232158 -0.622092 0
M  V30 2609 H 256.264 0.0964977 -2.04372 0
M  V30 2610 H 256.274 2.03499 -3.53627 0
M  V30 2611 H 254.949 0.997416 -4.03763 0
M  V30 2612 H 253.526 2.3971 -2.85646 0
M  V30 2613 N 255.711 1.52812 0.385517 0
M  V30 2614 C 256.936 1.72207 1.15583 0
M  V30 2615 C 257.361 0.441034 1.82857 0
M  V30 2616 O 256.719 -0.603465 1.70962 0
M  V30 2617 C 256.767 2.87476 2.17692 0
M  V30 2618 O 255.871 2.54693 3.24354 0
M  V30 2619 H 255.212 0.572526 0.336319 0
M  V30 2620 H 257.742 1.99618 0.448744 0
M  V30 2621 H 257.752 3.13072 2.6163 0
M  V30 2622 H 256.427 3.80408 1.68115 0
M  V30 2623 H 255.004 2.3985 2.85529 0
M  V30 2624 N 257.189 -0.644168 1.43834 0
M  V30 2625 C 258.605 -0.960875 1.27434 0
M  V30 2626 C 258.805 -2.00499 0.200618 0
M  V30 2627 O 257.861 -2.49018 -0.417906 0
M  V30 2628 C 259.174 -1.43653 2.64167 0
M  V30 2629 C 260.722 -1.55271 2.71772 0
M  V30 2630 C 261.197 -2.06224 4.08944 0
M  V30 2631 N 262.688 -2.13513 4.11055 0
M  V30 2632 C 263.423 -2.54081 5.14033 0
M  V30 2633 N 262.919 -2.9388 6.27381 0
M  V30 2634 N 264.712 -2.54101 5.01387 0
M  V30 2635 H 256.863 0.0465779 2.12349 0
M  V30 2636 H 259.126 -0.0417638 0.94708 0
M  V30 2637 H 258.832 -0.743706 3.43747 0
M  V30 2638 H 258.706 -2.40993 2.90176 0
M  V30 2639 H 261.093 -2.23653 1.92519 0
M  V30 2640 H 261.174 -0.563395 2.49519 0
M  V30 2641 H 260.818 -1.38441 4.88668 0
M  V30 2642 H 260.748 -3.06003 4.28567 0
M  V30 2643 H 263.239 -1.85493 3.29242 0
M  V30 2644 H 263.552 -3.2361 7.01781 0
M  V30 2645 H 261.897 -2.91663 6.30839 0
M  V30 2646 H 265.088 -2.22391 4.11898 0
M  V30 2647 H 265.261 -2.85394 5.81768 0
M  V30 2648 N 258.668 -1.30515 -0.883378 0
M  V30 2649 C 259.945 -1.10086 -1.6168 0
M  V30 2650 C 260.325 0.349269 -2.08191 0
M  V30 2651 O 259.673 1.34105 -1.85008 0
M  V30 2652 C 259.883 -2.10315 -2.78511 0
M  V30 2653 C 261.231 -2.42119 -3.48803 0
M  V30 2654 O 262.255 -2.08638 -2.88702 0
M  V30 2655 O 261.114 -2.99396 -4.57192 0
M  V30 2656 H 258.208 -0.422907 -0.710689 0
M  V30 2657 H 260.754 -1.41947 -0.930015 0
M  V30 2658 H 259.526 -3.07917 -2.41459 0
M  V30 2659 H 259.149 -1.79282 -3.54886 0
M  V30 2660 N 260.146 1.09593 -1.13257 0
M  V30 2661 C 261.093 2.1618 -0.808381 0
M  V30 2662 C 262.063 1.64517 0.228754 0
M  V30 2663 O 263.248 1.9053 0.101381 0
M  V30 2664 C 260.388 3.43973 -0.278675 0
M  V30 2665 C 259.501 4.09545 -1.37466 0
M  V30 2666 C 258.636 5.25088 -0.803479 0
M  V30 2667 C 257.675 5.82579 -1.87799 0
M  V30 2668 N 256.812 6.89486 -1.32488 0
M  V30 2669 H 261.652 2.43254 -1.72138 0
M  V30 2670 H 259.189 1.19392 -0.859294 0
M  V30 2671 H 261.147 4.17174 0.0465583 0
M  V30 2672 H 259.777 3.17223 0.597459 0
M  V30 2673 H 258.829 3.34226 -1.81652 0
M  V30 2674 H 260.141 4.48307 -2.18684 0
M  V30 2675 H 259.295 6.05178 -0.429427 0
M  V30 2676 H 258.034 4.87684 0.0397956 0
M  V30 2677 H 257.039 5.01152 -2.26113 0
M  V30 2678 H 258.264 6.22045 -2.72463 0
M  V30 2679 H 256.21 6.54064 -0.503575 0
M  V30 2680 H 256.127 7.27007 -2.07355 0
M  V30 2681 H 257.395 7.73336 -0.978336 0
M  V30 2682 N 261.624 0.925811 1.2754 0
M  V30 2683 C 263.04 0.625767 1.46821 0
M  V30 2684 C 263.24 -0.825506 1.83814 0
M  V30 2685 O 262.296 -1.60356 1.95044 0
M  V30 2686 C 263.609 1.57402 2.56213 0
M  V30 2687 C 265.157 1.58204 2.70075 0
M  V30 2688 C 265.632 2.51721 3.82623 0
M  V30 2689 N 267.123 2.49917 3.89994 0
M  V30 2690 C 267.858 3.18968 4.76494 0
M  V30 2691 N 267.354 3.97391 5.67496 0
M  V30 2692 N 269.147 3.07996 4.70208 0
M  V30 2693 H 261.298 1.86409 1.01811 0
M  V30 2694 H 263.561 0.800213 0.508295 0
M  V30 2695 H 263.267 2.60925 2.35819 0
M  V30 2696 H 263.141 1.31428 3.53563 0
M  V30 2697 H 265.528 0.554124 2.89851 0
M  V30 2698 H 265.609 1.88226 1.73218 0
M  V30 2699 H 265.253 3.54622 3.63601 0
M  V30 2700 H 265.183 2.18996 4.78903 0
M  V30 2701 H 267.674 1.9296 3.24923 0
M  V30 2702 H 267.987 4.4707 6.30356 0
M  V30 2703 H 266.332 4.01495 5.67298 0
M  V30 2704 H 269.523 2.46223 3.9811 0
M  V30 2705 H 269.696 3.6208 5.37403 0
M  V30 2706 N 263.102 -1.41638 0.69111 0
M  V30 2707 C 264.513 -1.84346 0.295517 0
M  V30 2708 C 264.864 -1.57833 -1.16547 0
M  V30 2709 O 263.989 -1.04648 -1.89414 0
M  V30 2710 C 264.584 -3.34636 0.529575 0
M  V30 2711 C 263.143 -3.7593 0.187944 0
M  V30 2712 C 262.29 -2.65082 0.814052 0
M  V30 2713 H 265.241 -1.31253 0.892092 0
M  V30 2714 H 265.262 -3.79903 -0.213148 0
M  V30 2715 H 264.774 -3.53901 1.59297 0
M  V30 2716 H 262.875 -3.62268 -0.871367 0
M  V30 2717 H 262.988 -4.74808 0.63985 0
M  V30 2718 H 261.352 -2.53528 0.244017 0
M  V30 2719 H 262.135 -2.87167 1.88123 0
M  V30 2720 N 264.58 -0.43555 -1.51462 0
M  V30 2721 C 265.51 0.367376 -2.30592 0
M  V30 2722 C 266.491 1.02263 -1.35928 0
M  V30 2723 O 267.676 1.02661 -1.64847 0
M  V30 2724 C 264.806 1.46983 -3.14664 0
M  V30 2725 C 263.76 0.938161 -4.17591 0
M  V30 2726 C 263.086 2.13622 -4.90173 0
M  V30 2727 C 264.386 -0.0261621 -5.22293 0
M  V30 2728 H 266.08 -0.292969 -2.97963 0
M  V30 2729 H 263.626 -0.14234 -1.43295 0
M  V30 2730 H 265.579 2.03873 -3.688 0
M  V30 2731 H 264.303 2.15843 -2.4511 0
M  V30 2732 H 262.962 0.391481 -3.64504 0
M  V30 2733 H 262.61 2.81098 -4.17124 0
M  V30 2734 H 262.31 1.78688 -5.59772 0
M  V30 2735 H 263.834 2.7107 -5.47132 0
M  V30 2736 H 265.248 0.452384 -5.71512 0
M  V30 2737 H 263.645 -0.287992 -5.99409 0
M  V30 2738 H 264.715 -0.963391 -4.75233 0
M  V30 2739 N 266.058 1.56714 -0.166846 0
M  V30 2740 C 267.283 2.01557 0.488833 0
M  V30 2741 C 267.708 1.0463 1.56314 0
M  V30 2742 O 267.066 0.0251304 1.81283 0
M  V30 2743 C 267.114 3.4503 1.04818 0
M  V30 2744 O 266.218 3.51163 2.16236 0
M  V30 2745 H 265.559 0.653516 0.117526 0
M  V30 2746 H 268.089 2.02818 -0.269421 0
M  V30 2747 H 268.099 3.84243 1.37191 0
M  V30 2748 H 266.774 4.15077 0.261572 0
M  V30 2749 H 265.351 3.23807 1.84942 0
M  V30 2750 N 267.536 -0.106894 1.57237 0
M  V30 2751 C 268.784 -0.810921 1.85117 0
M  V30 2752 C 269.105 -1.7984 0.753827 0
M  V30 2753 O 268.375 -1.94649 -0.221056 0
M  V30 2754 H 266.955 -0.302466 0.683025 0
M  V30 2755 H 269.617 -0.0913324 1.94686 0
M  V30 2756 H 268.713 -1.34875 2.81452 0
M  V30 2757 N 269.014 -1.53014 -0.377408 0
M  V30 2758 C 270.425 -1.60438 -0.954798 0
M  V30 2759 C 270.776 -0.464418 -1.90624 0
M  V30 2760 O 269.901 0.41087 -2.12464 0
M  V30 2761 C 270.496 -2.90797 -1.73847 0
M  V30 2762 C 269.055 -3.00595 -2.26538 0
M  V30 2763 C 268.202 -2.55645 -1.07429 0
M  V30 2764 H 271.153 -1.57926 -0.156575 0
M  V30 2765 H 271.174 -2.77935 -2.5987 0
M  V30 2766 H 270.686 -3.73746 -1.04574 0
M  V30 2767 H 268.787 -2.22208 -2.99089 0
M  V30 2768 H 268.9 -4.05456 -2.5523 0
M  V30 2769 H 267.264 -2.10239 -1.43777 0
M  V30 2770 H 268.047 -3.41 -0.396728 0
M  V30 2771 N 270.492 0.636531 -1.44174 0
M  V30 2772 C 271.769 1.39463 -1.37148 0
M  V30 2773 C 272.149 2.11082 -0.027507 0
M  V30 2774 O 271.497 2.05954 0.989716 0
M  V30 2775 C 271.707 2.36552 -2.56601 0
M  V30 2776 C 273.055 3.00048 -3.00427 0
M  V30 2777 O 274.079 2.46878 -2.56767 0
M  V30 2778 O 272.938 3.96488 -3.76111 0
M  V30 2779 H 270.032 0.623903 -0.542839 0
M  V30 2780 H 272.578 0.662039 -1.56253 0
M  V30 2781 H 271.35 1.82692 -3.46034 0
M  V30 2782 H 270.973 3.17236 -2.39681 0
M  V30 2783 N 271.97 1.30982 0.876444 0
M  V30 2784 C 273.216 1.20474 1.63138 0
M  V30 2785 C 273.549 -0.238096 1.92735 0
M  V30 2786 O 272.824 -1.1692 1.55435 0
M  V30 2787 C 273.107 2.04244 2.96574 0
M  V30 2788 C 272.96 3.56793 2.73896 0
M  V30 2789 C 274.279 1.88684 3.97601 0
M  V30 2790 H 271.398 0.439001 0.591985 0
M  V30 2791 H 274.04 1.60704 1.01361 0
M  V30 2792 H 272.19 1.70063 3.493 0
M  V30 2793 H 273.862 4.01077 2.27892 0
M  V30 2794 H 272.105 3.80548 2.08245 0
M  V30 2795 H 272.776 4.10706 3.68815 0
M  V30 2796 H 275.252 2.18584 3.54062 0
M  V30 2797 H 274.128 2.4961 4.88862 0
M  V30 2798 H 274.389 0.848343 4.33884 0
M  V30 2799 N 273.449 -1.08991 1.13837 0
M  V30 2800 C 274.697 -1.80899 0.901098 0
M  V30 2801 C 275.018 -1.86356 -0.574134 0
M  V30 2802 O 274.288 -1.35235 -1.41733 0
M  V30 2803 H 272.868 -0.669966 0.330386 0
M  V30 2804 H 275.53 -1.318 1.43578 0
M  V30 2805 H 274.626 -2.83929 1.29578 0
M  V30 2806 N 274.927 -0.932562 -1.27047 0
M  V30 2807 C 276.155 -0.592031 -1.98249 0
M  V30 2808 C 276.57 0.831062 -1.69525 0
M  V30 2809 O 275.927 1.55299 -0.958561 0
M  V30 2810 C 275.978 -0.814279 -3.5221 0
M  V30 2811 O 275.699 -2.18139 -3.7993 0
M  V30 2812 C 277.2 -0.483121 -4.4066 0
M  V30 2813 H 274.42 -0.223896 -0.632544 0
M  V30 2814 H 276.964 -1.25091 -1.61779 0
M  V30 2815 H 275.119 -0.20213 -3.86872 0
M  V30 2816 H 275.533 -2.235 -4.74498 0
M  V30 2817 H 277.007 -0.689298 -5.47679 0
M  V30 2818 H 277.484 0.581546 -4.35333 0
M  V30 2819 H 278.09 -1.07362 -4.11526 0
M  V30 2820 N 276.405 1.4127 -0.698611 0
M  V30 2821 C 277.816 1.84187 -0.305289 0
M  V30 2822 C 278.167 1.58449 1.15708 0
M  V30 2823 O 277.292 1.05651 1.88856 0
M  V30 2824 C 277.887 3.3435 -0.547314 0
M  V30 2825 C 276.446 3.75826 -0.207878 0
M  V30 2826 C 275.593 2.64647 -0.828099 0
M  V30 2827 H 278.544 1.30778 -0.89904 0
M  V30 2828 H 278.565 3.8001 0.192998 0
M  V30 2829 H 278.077 3.53051 -1.61172 0
M  V30 2830 H 276.178 3.62725 0.852143 0
M  V30 2831 H 276.291 4.74462 -0.665021 0
M  V30 2832 H 274.655 2.53395 -0.257458 0
M  V30 2833 H 275.438 2.86165 -1.89643 0
M  V30 2834 N 277.883 0.443576 1.51229 0
M  V30 2835 C 278.815 -0.400608 2.25672 0
M  V30 2836 C 279.828 -0.980945 1.29928 0
M  V30 2837 O 281.017 -0.874024 1.55638 0
M  V30 2838 C 278.117 -1.57304 3.00181 0
M  V30 2839 C 277.29 -1.11046 4.23069 0
M  V30 2840 C 276.349 -2.15374 4.80105 0
M  V30 2841 O 275.375 -1.74554 5.41774 0
M  V30 2842 N 276.577 -3.47922 4.64683 0
M  V30 2843 H 279.342 0.23745 2.98758 0
M  V30 2844 H 276.903 0.272809 1.59585 0
M  V30 2845 H 278.895 -2.26733 3.35223 0
M  V30 2846 H 277.465 -2.11632 2.30066 0
M  V30 2847 H 276.685 -0.243019 3.9345 0
M  V30 2848 H 277.973 -0.778888 5.02803 0
M  V30 2849 H 277.371 -3.83815 4.15575 0
M  V30 2850 H 275.928 -4.13228 5.0407 0
M  V30 2851 N 279.361 -1.56624 0.175154 0
M  V30 2852 C 280.772 -1.83561 -0.340916 0
M  V30 2853 C 281.123 -1.09511 -1.62794 0
M  V30 2854 O 280.248 -0.349389 -2.13561 0
M  V30 2855 C 280.843 -3.32979 -0.625313 0
M  V30 2856 C 279.402 -3.60399 -1.08581 0
M  V30 2857 C 278.549 -2.77024 -0.123722 0
M  V30 2858 H 281.5 -1.53593 0.399344 0
M  V30 2859 H 281.521 -3.50666 -1.47694 0
M  V30 2860 H 281.033 -3.86847 0.311575 0
M  V30 2861 H 279.134 -3.11945 -2.03767 0
M  V30 2862 H 279.247 -4.68711 -0.992317 0
M  V30 2863 H 277.611 -2.46993 -0.621821 0
M  V30 2864 H 278.394 -3.33674 0.807256 0
M  V30 2865 N 280.839 0.0985539 -1.57292 0
M  V30 2866 C 281.802 1.10402 -2.00858 0
M  V30 2867 C 282.802 1.33146 -0.901593 0
M  V30 2868 O 283.992 1.29318 -1.16716 0
M  V30 2869 C 281.124 2.45394 -2.36632 0
M  V30 2870 H 282.317 0.729099 -2.90902 0
M  V30 2871 H 279.87 0.343495 -1.52479 0
M  V30 2872 H 280.605 2.87769 -1.49531 0
M  V30 2873 H 280.39 2.30235 -3.17387 0
M  V30 2874 H 281.88 3.17718 -2.71007 0
M  V30 2875 N 282.317 1.53212 0.369288 0
M  V30 2876 C 283.565 1.68881 1.11012 0
M  V30 2877 C 283.886 0.441285 1.89941 0
M  V30 2878 O 283.156 -0.544623 1.88177 0
M  V30 2879 H 281.736 0.622569 0.412816 0
M  V30 2880 H 284.398 1.90391 0.416802 0
M  V30 2881 H 283.494 2.54822 1.80201 0
M  V30 2882 N 283.795 -0.628877 1.44509 0
M  V30 2883 C 284.725 -1.75187 1.54376 0
M  V30 2884 C 285.706 -1.65411 0.396618 0
M  V30 2885 O 286.891 -1.84137 0.617031 0
M  V30 2886 C 284.021 -3.13725 1.48976 0
M  V30 2887 C 282.975 -3.38291 2.62189 0
M  V30 2888 C 282.301 -4.76883 2.41841 0
M  V30 2889 C 283.601 -3.30632 4.04326 0
M  V30 2890 H 285.295 -1.67187 2.48373 0
M  V30 2891 H 282.841 -0.802909 1.19538 0
M  V30 2892 H 284.794 -3.92064 1.54478 0
M  V30 2893 H 283.518 -3.22515 0.514961 0
M  V30 2894 H 282.177 -2.62334 2.56079 0
M  V30 2895 H 281.825 -4.82378 1.42548 0
M  V30 2896 H 281.525 -4.94278 3.17747 0
M  V30 2897 H 283.049 -5.57449 2.49165 0
M  V30 2898 H 284.463 -3.98873 4.11793 0
M  V30 2899 H 282.86 -3.59561 4.80454 0
M  V30 2900 H 283.93 -2.28404 4.27738 0
M  V30 2901 N 285.273 -1.31445 -0.869486 0
M  V30 2902 C 286.236 -1.19094 -1.9583 0
M  V30 2903 C 287.236 -0.117906 -1.60367 0
M  V30 2904 O 288.426 -0.367208 -1.70286 0
M  V30 2905 C 285.558 -0.828165 -3.30688 0
M  V30 2906 H 286.751 -2.15842 -2.08212 0
M  V30 2907 H 284.304 -1.15063 -1.05784 0
M  V30 2908 H 285.039 0.138142 -3.24006 0
M  V30 2909 H 284.824 -1.6038 -3.578 0
M  V30 2910 H 286.314 -0.765658 -4.10521 0
M  V30 2911 N 286.751 1.08385 -1.14413 0
M  V30 2912 C 287.976 1.85057 -0.936413 0
M  V30 2913 C 288.401 1.81055 0.509971 0
M  V30 2914 O 287.759 1.1958 1.36273 0
M  V30 2915 C 287.807 3.30505 -1.44217 0
M  V30 2916 O 286.911 4.07491 -0.634409 0
M  V30 2917 H 286.252 0.573425 -0.334784 0
M  V30 2918 H 288.782 1.36799 -1.52142 0
M  V30 2919 H 288.792 3.81348 -1.45043 0
M  V30 2920 H 287.467 3.32734 -2.49522 0
M  V30 2921 H 286.044 3.66368 -0.694902 0
M  V30 2922 N 288.23 0.939286 1.26551 0
M  V30 2923 C 289.478 0.58469 1.93457 0
M  V30 2924 C 289.799 -0.878774 1.74076 0
M  V30 2925 O 289.069 -1.62421 1.09528 0
M  V30 2926 H 287.649 0.21325 0.715914 0
M  V30 2927 H 290.311 1.1942 1.54029 0
M  V30 2928 H 289.407 0.800849 3.0165 0
M  V30 2929 N 289.708 -1.40897 0.706093 0
M  V30 2930 C 290.671 -2.29131 0.0562841 0
M  V30 2931 C 291.671 -1.44901 -0.697166 0
M  V30 2932 O 292.861 -1.65926 -0.530484 0
M  V30 2933 C 289.993 -3.27957 -0.93043 0
M  V30 2934 H 291.186 -2.88091 0.833284 0
M  V30 2935 H 288.739 -1.4906 0.470192 0
M  V30 2936 H 289.474 -2.73997 -1.73482 0
M  V30 2937 H 289.259 -3.90124 -0.393166 0
M  V30 2938 H 290.749 -3.94049 -1.38256 0
M  V30 2939 N 291.186 -0.45159 -1.50991 0
M  V30 2940 C 292.133 0.352625 -2.2809 0
M  V30 2941 C 293.103 1.0044 -1.32291 0
M  V30 2942 O 294.288 1.02058 -1.6121 0
M  V30 2943 C 291.428 1.43983 -3.13629 0
M  V30 2944 C 290.541 0.804772 -4.24438 0
M  V30 2945 C 289.676 1.86822 -4.97263 0
M  V30 2946 C 288.715 1.21236 -5.99973 0
M  V30 2947 N 287.852 2.2178 -6.66152 0
M  V30 2948 H 292.692 -0.311186 -2.96371 0
M  V30 2949 H 290.229 -0.165308 -1.46168 0
M  V30 2950 H 292.187 2.08161 -3.61559 0
M  V30 2951 H 290.817 2.07307 -2.47434 0
M  V30 2952 H 289.869 0.0509129 -3.80366 0
M  V30 2953 H 291.181 0.286076 -4.97979 0
M  V30 2954 H 290.335 2.58628 -5.48813 0
M  V30 2955 H 289.074 2.42068 -4.23385 0
M  V30 2956 H 288.079 0.479828 -5.47702 0
M  V30 2957 H 289.304 0.667051 -6.75816 0
M  V30 2958 H 287.25 2.76079 -5.95077 0
M  V30 2959 H 287.167 1.74841 -7.35504 0
M  V30 2960 H 288.435 2.93026 -7.22327 0
M  V30 2961 N 292.664 1.56529 -0.183458 0
M  V30 2962 C 293.594 2.21549 0.737456 0
M  V30 2963 C 294.575 1.17489 1.23005 0
M  V30 2964 O 295.76 1.45959 1.281 0
M  V30 2965 C 292.89 2.86575 1.96194 0
M  V30 2966 C 291.844 3.96778 1.60473 0
M  V30 2967 C 291.17 4.48911 2.90487 0
M  V30 2968 C 292.47 5.15767 0.823497 0
M  V30 2969 H 294.164 2.98761 0.195453 0
M  V30 2970 H 291.71 1.43702 0.0925686 0
M  V30 2971 H 293.663 3.30739 2.61131 0
M  V30 2972 H 292.387 2.06749 2.52828 0
M  V30 2973 H 291.046 3.53286 0.978997 0
M  V30 2974 H 290.694 3.65862 3.45186 0
M  V30 2975 H 290.394 5.23265 2.67335 0
M  V30 2976 H 291.918 4.95771 3.56432 0
M  V30 2977 H 293.332 5.56549 1.37571 0
M  V30 2978 H 291.729 5.96114 0.690551 0
M  V30 2979 H 292.799 4.84574 -0.177782 0
M  V30 2980 N 294.142 -0.090211 1.57342 0
M  V30 2981 C 295.105 -1.09335 2.01441 0
M  V30 2982 C 296.105 -1.32666 0.908641 0
M  V30 2983 O 297.295 -1.28697 1.174 0
M  V30 2984 C 294.427 -2.44136 2.3793 0
M  V30 2985 H 295.62 -0.713662 2.91285 0
M  V30 2986 H 293.173 -0.335404 1.52659 0
M  V30 2987 H 293.908 -2.86972 1.51055 0
M  V30 2988 H 293.693 -2.28548 3.18603 0
M  V30 2989 H 295.183 -3.16277 2.72688 0
M  V30 2990 N 295.62 -1.53406 -0.361157 0
M  V30 2991 C 296.583 -1.79479 -1.42548 0
M  V30 2992 C 297.583 -0.665327 -1.4639 0
M  V30 2993 O 298.773 -0.933549 -1.47073 0
M  V30 2994 C 295.905 -1.92087 -2.8163 0
M  V30 2995 H 297.098 -2.74538 -1.20701 0
M  V30 2996 H 294.651 -1.4455 -0.594546 0
M  V30 2997 H 295.386 -0.991099 -3.08784 0
M  V30 2998 H 295.171 -2.74241 -2.80239 0
M  V30 2999 H 296.661 -2.13836 -3.58697 0
M  V30 3000 N 297.098 0.621204 -1.44841 0
M  V30 3001 C 298.346 1.37783 -1.47852 0
M  V30 3002 C 298.667 1.94653 -0.116224 0
M  V30 3003 O 297.937 1.76367 0.852737 0
M  V30 3004 H 296.517 0.511453 -0.544449 0
M  V30 3005 H 299.179 0.730446 -1.80694 0
M  V30 3006 H 298.275 2.20414 -2.20961 0
M  V30 3007 N 298.576 1.31904 0.862503 0
M  V30 3008 C 299.992 1.10724 1.14945 0
M  V30 3009 C 300.192 -0.117421 2.01158 0
M  V30 3010 O 299.248 -0.804595 2.39338 0
M  V30 3011 C 300.561 2.38267 1.83437 0
M  V30 3012 C 302.109 2.43949 1.96106 0
M  V30 3013 C 302.584 3.71394 2.68013 0
M  V30 3014 N 304.075 3.72331 2.75543 0
M  V30 3015 C 304.81 4.67641 3.31812 0
M  V30 3016 N 304.306 5.73313 3.88953 0
M  V30 3017 N 306.099 4.5515 3.29841 0
M  V30 3018 H 298.25 2.10436 0.288191 0
M  V30 3019 H 300.513 0.928705 0.190292 0
M  V30 3020 H 300.219 3.27759 1.27542 0
M  V30 3021 H 300.093 2.48633 2.83657 0
M  V30 3022 H 302.48 1.54922 2.51164 0
M  V30 3023 H 302.561 2.37543 0.949059 0
M  V30 3024 H 302.205 4.60791 2.13621 0
M  V30 3025 H 302.135 3.75069 3.69636 0
M  V30 3026 H 304.626 2.95947 2.34997 0
M  V30 3027 H 304.939 6.42107 4.30022 0
M  V30 3028 H 303.284 5.77077 3.87308 0
M  V30 3029 H 306.475 3.71766 2.84443 0
M  V30 3030 H 306.648 5.29604 3.73394 0
M  V30 3031 N 300.054 -1.07777 1.14986 0
M  V30 3032 C 301.465 -1.61766 0.932127 0
M  V30 3033 C 301.816 -1.88974 -0.527581 0
M  V30 3034 O 300.941 -1.65198 -1.39781 0
M  V30 3035 C 301.536 -2.93891 1.68563 0
M  V30 3036 C 300.095 -3.44639 1.5133 0
M  V30 3037 C 299.242 -2.18767 1.704 0
M  V30 3038 H 302.193 -0.909201 1.30074 0
M  V30 3039 H 302.214 -3.62623 1.15259 0
M  V30 3040 H 301.726 -2.74057 2.74799 0
M  V30 3041 H 299.827 -3.69564 0.474702 0
M  V30 3042 H 299.94 -4.20966 2.28746 0
M  V30 3043 H 298.304 -2.28253 1.13016 0
M  V30 3044 H 299.087 -2.01433 2.77992 0
M  V30 3045 N 301.532 -0.945985 -1.26051 0
M  V30 3046 C 302.779 -0.596118 -1.93527 0
M  V30 3047 C 303.107 0.865559 -1.74179 0
M  V30 3048 O 302.362 1.63524 -1.0751 0
M  V30 3049 C 302.661 -0.890475 -3.46129 0
M  V30 3050 C 302.327 -2.3368 -3.85622 0
M  V30 3051 C 300.989 -2.73216 -3.96114 0
M  V30 3052 C 303.341 -3.27648 -4.05334 0
M  V30 3053 C 300.669 -4.05806 -4.2372 0
M  V30 3054 C 303.021 -4.59841 -4.3443 0
M  V30 3055 C 301.685 -4.99185 -4.43137 0
M  V30 3056 H 300.955 -0.218135 -0.708165 0
M  V30 3057 H 303.602 -1.1934 -1.49768 0
M  V30 3058 H 301.907 -0.210711 -3.91233 0
M  V30 3059 H 303.604 -0.598478 -3.96509 0
M  V30 3060 H 300.194 -2.02015 -3.78005 0
M  V30 3061 H 304.378 -2.98298 -3.96651 0
M  V30 3062 H 299.634 -4.35945 -4.28675 0
M  V30 3063 H 303.808 -5.32641 -4.48628 0
M  V30 3064 H 301.435 -6.01952 -4.64282 0
M  V30 3065 N 303.011 1.40521 -0.713556 0
M  V30 3066 C 303.959 2.32549 -0.0485227 0
M  V30 3067 C 304.953 1.51931 0.74922 0
M  V30 3068 O 306.159 1.67745 0.652816 0
M  V30 3069 H 302.534 0.751994 0.00311138 0
M  V30 3070 H 304.505 2.86291 -0.841443 0
M  V30 3071 C 303.254 3.36879 0.860687 0
M  V30 3072 H 302.577 3.98978 0.256246 0
M  V30 3073 H 304.017 4.03772 1.294 0
M  V30 3074 C 302.476 2.72197 1.9852 0
M  V30 3075 O 303.006 2.5837 3.07584 0
M  V30 3076 N 301.212 2.30612 1.76823 0
M  V30 3077 H 300.759 2.42059 0.881217 0
M  V30 3078 H 300.717 1.87672 2.52243 0
M  V30 3079 N 304.489 0.459591 1.5075 0
M  V30 3080 C 305.717 -0.0973749 2.06671 0
M  V30 3081 C 306.132 -1.34524 1.32472 0
M  V30 3082 O 305.489 -1.7827 0.390634 0
M  V30 3083 C 305.54 -0.39714 3.59312 0
M  V30 3084 O 305.261 0.801214 4.30711 0
M  V30 3085 C 306.762 -1.00234 4.31819 0
M  V30 3086 H 303.982 0.00195854 0.670997 0
M  V30 3087 H 306.526 0.645072 1.94059 0
M  V30 3088 H 304.681 -1.08951 3.71764 0
M  V30 3089 H 305.095 0.538857 5.21725 0
M  V30 3090 H 306.569 -1.16193 5.39632 0
M  V30 3091 H 307.046 -1.98939 3.91561 0
M  V30 3092 H 307.652 -0.348699 4.23868 0
M  V30 3093 N 305.967 -1.56429 0.191757 0
M  V30 3094 C 307.197 -2.01574 -0.452928 0
M  V30 3095 C 307.605 -1.07107 -1.55964 0
M  V30 3096 O 306.948 -0.067534 -1.83576 0
M  V30 3097 C 307.01 -3.43121 -1.07278 0
M  V30 3098 C 306.674 -4.56879 -0.105214 0
M  V30 3099 C 307.671 -5.15379 0.684149 0
M  V30 3100 C 305.356 -5.023 0.00489824 0
M  V30 3101 C 307.35 -6.17746 1.57062 0
M  V30 3102 C 305.037 -6.04511 0.894935 0
M  V30 3103 C 306.035 -6.62108 1.67637 0
M  V30 3104 O 305.723 -7.62335 2.55149 0
M  V30 3105 H 305.455 -0.665554 -0.118379 0
M  V30 3106 H 308.009 -2.03245 0.296737 0
M  V30 3107 H 306.239 -3.38425 -1.87097 0
M  V30 3108 H 307.928 -3.72093 -1.62177 0
M  V30 3109 H 308.694 -4.81157 0.609365 0
M  V30 3110 H 304.573 -4.57168 -0.593156 0
M  V30 3111 H 308.117 -6.6263 2.181 0
M  V30 3112 H 304.014 -6.38157 0.970847 0
M  V30 3113 H 304.782 -7.79741 2.48892 0
M  V30 3114 N 307.445 0.0818655 -1.57387 0
M  V30 3115 C 308.856 0.634871 -1.75574 0
M  V30 3116 C 309.207 1.78435 -0.815809 0
M  V30 3117 O 308.332 2.164 0.0025366 0
M  V30 3118 C 308.927 1.15845 -3.18379 0
M  V30 3119 C 307.486 1.65741 -3.37945 0
M  V30 3120 C 306.633 0.572549 -2.71325 0
M  V30 3121 H 309.584 -0.144268 -1.58043 0
M  V30 3122 H 309.605 2.02751 -3.21982 0
M  V30 3123 H 309.117 0.321631 -3.86765 0
M  V30 3124 H 307.218 2.51781 -2.74658 0
M  V30 3125 H 307.331 1.74129 -4.46336 0
M  V30 3126 H 305.695 1.01518 -2.33594 0
M  V30 3127 H 306.478 -0.253918 -3.4236 0
M  V30 3128 N 308.923 1.53595 0.353017 0
M  V30 3129 C 310.339 1.43648 0.695516 0
M  V30 3130 C 310.539 0.585617 1.92802 0
M  V30 3131 O 309.595 0.0729223 2.52395 0
M  V30 3132 C 310.908 2.8701 0.896991 0
M  V30 3133 C 312.456 2.96723 0.996209 0
M  V30 3134 C 312.931 4.41173 1.23007 0
M  V30 3135 N 314.422 4.44657 1.29749 0
M  V30 3136 C 315.157 5.53547 1.49577 0
M  V30 3137 N 314.653 6.72461 1.66639 0
M  V30 3138 N 316.446 5.41145 1.52048 0
M  V30 3139 H 308.597 2.07415 -0.457481 0
M  V30 3140 H 310.86 0.9372 -0.142687 0
M  V30 3141 H 310.566 3.51644 0.0629938 0
M  V30 3142 H 310.44 3.31401 1.80148 0
M  V30 3143 H 312.827 2.32235 1.82074 0
M  V30 3144 H 312.908 2.55707 0.0688331 0
M  V30 3145 H 312.552 5.06238 0.410505 0
M  V30 3146 H 312.482 4.79772 2.17086 0
M  V30 3147 H 314.973 3.58963 1.18126 0
M  V30 3148 H 315.286 7.51214 1.81378 0
M  V30 3149 H 313.631 6.75423 1.63794 0
M  V30 3150 H 316.822 4.47205 1.38294 0
M  V30 3151 H 316.995 6.26068 1.67159 0
M  V30 3152 N 310.401 -0.613514 1.45168 0
M  V30 3153 C 311.364 -1.7065 1.53007 0
M  V30 3154 C 312.364 -1.5548 0.410184 0
M  V30 3155 O 313.554 -1.60656 0.673455 0
M  V30 3156 C 310.686 -3.09875 1.42093 0
M  V30 3157 H 311.879 -1.65068 2.50385 0
M  V30 3158 H 309.432 -0.828728 1.32521 0
M  V30 3159 H 310.167 -3.21039 0.458769 0
M  V30 3160 H 309.952 -3.22293 2.23315 0
M  V30 3161 H 311.442 -3.895 1.50598 0
M  V30 3162 N 311.879 -1.3236 -0.855495 0
M  V30 3163 C 313.156 -1.13491 -1.59309 0
M  V30 3164 C 313.536 0.30503 -2.08885 0
M  V30 3165 O 312.884 1.30151 -1.87811 0
M  V30 3166 C 313.094 -2.16176 -2.73987 0
M  V30 3167 C 314.442 -2.49463 -3.43589 0
M  V30 3168 O 315.466 -2.14715 -2.84211 0
M  V30 3169 O 314.325 -3.09027 -4.50738 0
M  V30 3170 H 311.419 -0.437887 -0.701559 0
M  V30 3171 H 313.965 -1.43887 -0.899696 0
M  V30 3172 H 312.737 -3.1297 -2.34873 0
M  V30 3173 H 312.36 -1.86769 -3.51003 0
M  V30 3174 N 313.357 1.07166 -1.15556 0
M  V30 3175 C 314.585 1.83514 -0.955519 0
M  V30 3176 C 315 1.82163 0.49621 0
M  V30 3177 O 314.357 1.23441 1.34419 0
M  V30 3178 C 314.408 3.30515 -1.46432 0
M  V30 3179 O 314.129 3.31937 -2.85918 0
M  V30 3180 C 315.63 4.23625 -1.30603 0
M  V30 3181 H 312.85 0.578926 -0.339244 0
M  V30 3182 H 315.394 1.35265 -1.53374 0
M  V30 3183 H 313.549 3.76106 -0.928584 0
M  V30 3184 H 313.963 4.23794 -3.09029 0
M  V30 3185 H 315.437 5.24831 -1.71047 0
M  V30 3186 H 315.914 4.38485 -0.250441 0
M  V30 3187 H 316.52 3.83871 -1.83094 0
M  V30 3188 N 314.835 0.952656 1.25548 0
M  V30 3189 C 316.112 0.523818 1.88456 0
M  V30 3190 C 316.492 -0.998871 1.85973 0
M  V30 3191 O 315.84 -1.86381 1.3219 0
M  V30 3192 C 316.05 1.0982 3.31271 0
M  V30 3193 C 317.398 1.17385 4.08051 0
M  V30 3194 O 318.422 1.04961 3.40384 0
M  V30 3195 O 317.281 1.36852 5.29088 0
M  V30 3196 H 314.375 0.172485 0.808813 0
M  V30 3197 H 316.921 1.04596 1.33633 0
M  V30 3198 H 315.693 2.1415 3.27499 0
M  V30 3199 H 315.316 0.559191 3.93648 0
M  V30 3200 N 316.313 -1.40141 0.720998 0
M  V30 3201 C 317.263 -2.27949 0.0482544 0
M  V30 3202 C 318.247 -1.43538 -0.727021 0
M  V30 3203 O 319.439 -1.6658 -0.598332 0
M  V30 3204 C 316.568 -3.32126 -0.868729 0
M  V30 3205 C 315.654 -4.24008 -0.0883515 0
M  V30 3206 N 316.045 -4.97154 0.931226 0
M  V30 3207 C 314.343 -4.4485 -0.320105 0
M  V30 3208 C 315.044 -5.64587 1.4006 0
M  V30 3209 N 314.02 -5.38787 0.721752 0
M  V30 3210 H 317.822 -2.81948 0.829609 0
M  V30 3211 H 315.336 -1.52656 0.554067 0
M  V30 3212 H 317.333 -3.93884 -1.36605 0
M  V30 3213 H 315.993 -2.79687 -1.6494 0
M  V30 3214 H 317.004 -5.01 1.31222 0
M  V30 3215 H 313.681 -4.03378 -1.07668 0
M  V30 3216 H 315.071 -6.33175 2.24808 0
M  V30 3217 N 317.792 -0.46758 -1.50504 0
M  V30 3218 C 319.203 -0.0116166 -1.86696 0
M  V30 3219 C 319.554 1.39202 -1.38265 0
M  V30 3220 O 318.679 2.0313 -0.746132 0
M  V30 3221 C 319.274 -0.0143044 -3.38797 0
M  V30 3222 C 317.833 0.386175 -3.74414 0
M  V30 3223 C 316.98 -0.401287 -2.74381 0
M  V30 3224 H 319.931 -0.682022 -1.43297 0
M  V30 3225 H 319.952 0.788641 -3.72237 0
M  V30 3226 H 319.464 -1.03602 -3.74016 0
M  V30 3227 H 317.565 1.41237 -3.44794 0
M  V30 3228 H 317.678 0.0899596 -4.79016 0
M  V30 3229 H 316.042 0.144536 -2.5429 0
M  V30 3230 H 316.825 -1.42244 -3.12444 0
M  V30 3231 N 319.27 1.56325 -0.20005 0
M  V30 3232 C 320.495 2.02548 0.44597 0
M  V30 3233 C 320.92 1.07922 1.5406 0
M  V30 3234 O 320.278 0.0635775 1.81188 0
M  V30 3235 C 320.326 3.47175 0.974761 0
M  V30 3236 O 319.43 3.55671 2.08739 0
M  V30 3237 H 318.771 0.655862 0.103638 0
M  V30 3238 H 321.301 2.02201 -0.312381 0
M  V30 3239 H 321.311 3.87067 1.2901 0
M  V30 3240 H 319.986 4.15538 0.17347 0
M  V30 3241 H 318.563 3.27657 1.78032 0
M  V30 3242 N 320.748 -0.0735177 1.57428 0
M  V30 3243 C 322.164 -0.428264 1.53747 0
M  V30 3244 C 322.364 -1.79272 0.91998 0
M  V30 3245 O 321.42 -2.47051 0.521745 0
M  V30 3246 C 322.733 -0.370914 2.98404 0
M  V30 3247 C 324.281 -0.451224 3.0973 0
M  V30 3248 C 324.756 -0.4238 4.56035 0
M  V30 3249 N 326.247 -0.483925 4.60665 0
M  V30 3250 C 326.982 -0.484891 5.71346 0
M  V30 3251 N 326.478 -0.440775 6.91396 0
M  V30 3252 N 328.271 -0.531319 5.59583 0
M  V30 3253 H 320.422 0.819949 1.95935 0
M  V30 3254 H 322.685 0.307493 0.896745 0
M  V30 3255 H 322.391 0.564956 3.47133 0
M  V30 3256 H 322.265 -1.18176 3.5821 0
M  V30 3257 H 324.652 -1.37752 2.60976 0
M  V30 3258 H 324.733 0.388167 2.52838 0
M  V30 3259 H 324.377 0.498638 5.05446 0
M  V30 3260 H 324.307 -1.2807 5.10789 0
M  V30 3261 H 326.798 -0.522338 3.74273 0
M  V30 3262 H 327.111 -0.44539 7.71515 0
M  V30 3263 H 325.456 -0.40749 6.93804 0
M  V30 3264 H 328.647 -0.563464 4.64696 0
M  V30 3265 H 328.82 -0.528603 6.4584 0
M  V30 3266 N 322.226 -1.5378 -0.344866 0
M  V30 3267 C 323.474 -1.70625 -1.08311 0
M  V30 3268 C 323.795 -0.471447 -1.89215 0
M  V30 3269 O 323.065 0.514616 -1.8902 0
M  V30 3270 H 321.645 -0.629058 -0.402859 0
M  V30 3271 H 324.307 -1.9103 -0.386459 0
M  V30 3272 H 323.403 -2.57656 -1.76124 0
M  V30 3273 N 323.704 0.605807 -1.45491 0
M  V30 3274 C 324.667 1.69836 -1.5391 0
M  V30 3275 C 325.667 1.55261 -0.418424 0
M  V30 3276 O 326.857 1.60296 -0.681965 0
M  V30 3277 C 323.989 3.09117 -1.43734 0
M  V30 3278 H 325.182 1.63738 -2.51257 0
M  V30 3279 H 322.735 0.821689 -1.32959 0
M  V30 3280 H 323.47 3.20791 -0.475788 0
M  V30 3281 H 323.255 3.21104 -2.25021 0
M  V30 3282 H 324.745 3.88696 -1.52661 0
M  V30 3283 N 325.182 1.32811 0.848464 0
M  V30 3284 C 326.114 1.18095 1.96433 0
M  V30 3285 C 327.127 0.114354 1.62398 0
M  V30 3286 O 328.316 0.363892 1.74751 0
M  V30 3287 C 325.416 0.786798 3.2964 0
M  V30 3288 C 324.589 1.943 3.91875 0
M  V30 3289 C 323.648 1.53138 5.03423 0
M  V30 3290 O 322.674 2.24432 5.23086 0
M  V30 3291 N 323.876 0.430915 5.78898 0
M  V30 3292 H 326.641 2.14218 2.09597 0
M  V30 3293 H 324.202 1.2543 1.02367 0
M  V30 3294 H 326.194 0.493715 4.01677 0
M  V30 3295 H 324.764 -0.0834541 3.12489 0
M  V30 3296 H 323.984 2.40224 3.12547 0
M  V30 3297 H 325.272 2.71689 4.30189 0
M  V30 3298 H 324.67 -0.162333 5.65467 0
M  V30 3299 H 323.227 0.197466 6.51501 0
M  V30 3300 N 326.66 -1.06551 1.16123 0
M  V30 3301 C 327.908 -1.78947 0.939267 0
M  V30 3302 C 328.229 -1.87532 -0.534476 0
M  V30 3303 O 327.499 -1.38211 -1.38833 0
M  V30 3304 H 326.079 -0.662807 0.344523 0
M  V30 3305 H 328.741 -1.28725 1.46342 0
M  V30 3306 H 327.837 -2.81117 1.35572 0
M  V30 3307 N 328.138 -0.959301 -1.25041 0
M  V30 3308 C 329.048 -0.489994 -2.29426 0
M  V30 3309 C 330.064 0.444944 -1.68215 0
M  V30 3310 O 331.24 0.320046 -1.98841 0
M  V30 3311 C 328.305 0.220309 -3.45999 0
M  V30 3312 C 327.366 -0.753418 -4.22637 0
M  V30 3313 C 326.599 -0.076918 -5.33645 0
M  V30 3314 O 326.822 1.13649 -5.58963 0
M  V30 3315 O 325.756 -0.764824 -5.97021 0
M  V30 3316 H 329.582 -1.35755 -2.71669 0
M  V30 3317 H 327.167 -0.725961 -1.30576 0
M  V30 3318 H 329.049 0.619677 -4.16819 0
M  V30 3319 H 327.724 1.06296 -3.0575 0
M  V30 3320 H 326.631 -1.20308 -3.54227 0
M  V30 3321 H 327.964 -1.56423 -4.66683 0
M  V30 3322 N 329.616 1.39756 -0.72842 0
M  V30 3323 C 331.027 1.83498 -0.344289 0
M  V30 3324 C 331.378 1.60868 1.12321 0
M  V30 3325 O 330.503 1.09634 1.86573 0
M  V30 3326 C 331.098 3.33114 -0.618112 0
M  V30 3327 C 329.657 3.753 -0.287549 0
M  V30 3328 C 328.804 2.62831 -0.884048 0
M  V30 3329 H 331.755 1.28842 -0.926578 0
M  V30 3330 H 331.776 3.80334 0.112349 0
M  V30 3331 H 331.288 3.49553 -1.68625 0
M  V30 3332 H 329.389 3.64451 0.775012 0
M  V30 3333 H 329.502 4.72945 -0.765512 0
M  V30 3334 H 327.866 2.52792 -0.311149 0
M  V30 3335 H 328.649 2.82078 -1.95671 0
M  V30 3336 N 331.094 0.475555 1.50254 0
M  V30 3337 C 332.044 -0.335025 2.25525 0
M  V30 3338 C 333.028 -0.957625 1.29299 0
M  V30 3339 O 334.22 -0.869436 1.54175 0
M  V30 3340 C 331.349 -1.41385 3.12834 0
M  V30 3341 C 330.435 -0.798762 4.1651 0
M  V30 3342 N 330.826 0.0835815 5.05731 0
M  V30 3343 C 329.124 -1.06221 4.33166 0
M  V30 3344 C 329.825 0.433113 5.80085 0
M  V30 3345 N 328.801 -0.1928 5.43258 0
M  V30 3346 H 332.603 0.344612 2.91873 0
M  V30 3347 H 330.117 0.289986 1.5979 0
M  V30 3348 H 332.114 -2.00777 3.65368 0
M  V30 3349 H 330.774 -2.09543 2.48036 0
M  V30 3350 H 331.785 0.452715 5.15918 0
M  V30 3351 H 328.462 -1.73844 3.79585 0
M  V30 3352 H 329.852 1.15346 6.61925 0
M  V30 3353 N 332.573 -1.56217 0.208337 0
M  V30 3354 C 333.85 -1.89739 -0.475234 0
M  V30 3355 C 334.23 -1.1238 -1.78701 0
M  V30 3356 O 333.578 -0.228979 -2.2735 0
M  V30 3357 C 333.788 -3.42289 -0.681101 0
M  V30 3358 C 335.136 -4.12789 -0.994507 0
M  V30 3359 O 336.16 -3.47814 -0.768357 0
M  V30 3360 O 335.019 -5.27649 -1.42299 0
M  V30 3361 H 332.113 -0.788478 -0.249461 0
M  V30 3362 H 334.659 -1.67855 0.249538 0
M  V30 3363 H 333.431 -3.90534 0.244722 0
M  V30 3364 H 333.054 -3.69909 -1.45785 0
M  V30 3365 N 334.051 0.0651679 -1.57465 0
M  V30 3366 C 335.297 0.764193 -1.87851 0
M  V30 3367 C 335.63 1.76889 -0.801495 0
M  V30 3368 O 334.905 1.93594 0.187528 0
M  V30 3369 C 335.188 1.46625 -3.28897 0
M  V30 3370 C 335.041 0.477515 -4.47258 0
M  V30 3371 C 336.36 2.4095 -3.68281 0
M  V30 3372 H 333.479 0.276351 -0.683227 0
M  V30 3373 H 336.121 0.0272868 -1.8998 0
M  V30 3374 H 334.271 2.09438 -3.27212 0
M  V30 3375 H 335.943 -0.145922 -4.61069 0
M  V30 3376 H 334.186 -0.206576 -4.33308 0
M  V30 3377 H 334.857 1.0065 -5.42746 0
M  V30 3378 H 337.333 1.88209 -3.71102 0
M  V30 3379 H 336.209 2.87072 -4.67847 0
M  V30 3380 H 336.47 3.26049 -2.98571 0
M  V30 3381 N 335.529 1.53961 0.336706 0
M  V30 3382 C 336.492 1.81724 1.39675 0
M  V30 3383 C 337.492 0.688532 1.45313 0
M  V30 3384 O 338.682 0.956829 1.45569 0
M  V30 3385 C 335.814 1.96543 2.78538 0
M  V30 3386 H 337.007 2.76424 1.16318 0
M  V30 3387 H 334.56 1.45478 0.571474 0
M  V30 3388 H 335.295 1.0401 3.07168 0
M  V30 3389 H 335.08 2.78665 2.75841 0
M  V30 3390 H 336.57 2.19516 3.5525 0
M  V30 3391 N 337.007 -0.598083 1.45811 0
M  V30 3392 C 338.418 -1.18011 1.44673 0
M  V30 3393 C 338.769 -1.95378 0.179364 0
M  V30 3394 O 337.894 -2.04124 -0.718509 0
M  V30 3395 C 338.489 -2.14677 2.62105 0
M  V30 3396 C 337.048 -2.68236 2.64057 0
M  V30 3397 C 336.195 -1.43816 2.37091 0
M  V30 3398 H 339.146 -0.38686 1.53913 0
M  V30 3399 H 339.167 -2.97878 2.36746 0
M  V30 3400 H 338.679 -1.5834 3.5433 0
M  V30 3401 H 336.78 -3.28486 1.75864 0
M  V30 3402 H 336.893 -3.12021 3.63566 0
M  V30 3403 H 335.257 -1.731 1.86838 0
M  V30 3404 H 336.04 -0.893333 3.31473 0
M  V30 3405 N 338.485 -1.33259 -0.841409 0
M  V30 3406 C 339.433 -1.23279 -1.97244 0
M  V30 3407 C 340.427 -0.134706 -1.68864 0
M  V30 3408 O 341.633 -0.298501 -1.77508 0
M  V30 3409 H 338.008 -0.382497 -0.647457 0
M  V30 3410 H 339.979 -2.18906 -2.02787 0
M  V30 3411 C 338.728 -0.986268 -3.33419 0
M  V30 3412 H 338.051 -1.82347 -3.55794 0
M  V30 3413 H 339.491 -0.956728 -4.13065 0
M  V30 3414 C 337.95 0.310842 -3.35463 0
M  V30 3415 O 338.48 1.31838 -3.79449 0
M  V30 3416 N 336.686 0.337485 -2.88634 0
M  V30 3417 H 336.233 -0.482967 -2.53032 0
M  V30 3418 H 336.191 1.20518 -2.90384 0
M  V30 3419 N 339.963 1.05934 -1.16686 0
M  V30 3420 C 341.211 1.78447 -0.948744 0
M  V30 3421 C 341.532 1.87813 0.524523 0
M  V30 3422 O 340.802 1.38945 1.38098 0
M  V30 3423 H 339.382 0.660971 -0.348033 0
M  V30 3424 H 342.044 1.27947 -1.47022 0
M  V30 3425 H 341.14 2.80394 -1.37061 0
M  V30 3426 N 341.441 0.965919 1.2453 0
M  V30 3427 C 342.852 0.665929 1.7442 0
M  V30 3428 C 343.203 -0.818407 1.78316 0
M  V30 3429 O 342.328 -1.64037 1.41141 0
M  V30 3430 C 342.923 1.20211 3.16757 0
M  V30 3431 C 341.482 0.952059 3.6416 0
M  V30 3432 C 340.629 1.33848 2.42858 0
M  V30 3433 H 343.58 1.14144 1.10258 0
M  V30 3434 H 343.601 0.567544 3.76244 0
M  V30 3435 H 343.113 2.28244 3.13889 0
M  V30 3436 H 341.214 -0.112821 3.72429 0
M  V30 3437 H 341.327 1.59645 4.51719 0
M  V30 3438 H 339.691 0.756864 2.43195 0
M  V30 3439 H 340.474 2.42827 2.42673 0
M  V30 3440 N 342.919 -1.39368 0.735821 0
M  V30 3441 C 344.144 -2.05319 0.293052 0
M  V30 3442 C 344.569 -1.55115 -1.064 0
M  V30 3443 O 343.927 -0.695261 -1.67439 0
M  V30 3444 C 343.975 -3.59305 0.305323 0
M  V30 3445 O 343.079 -4.06299 -0.706761 0
M  V30 3446 H 342.42 -0.650529 0.13307 0
M  V30 3447 H 344.95 -1.78386 1.00197 0
M  V30 3448 H 344.96 -4.07724 0.149997 0
M  V30 3449 H 343.635 -3.95207 1.29553 0
M  V30 3450 H 342.212 -3.69292 -0.517504 0
M  V30 3451 N 344.397 -0.483516 -1.5 0
M  V30 3452 C 345.36 0.292965 -2.2732 0
M  V30 3453 C 346.36 0.909499 -1.32608 0
M  V30 3454 O 347.55 0.776745 -1.55924 0
M  V30 3455 C 344.682 1.41854 -3.09984 0
M  V30 3456 H 345.875 -0.385289 -2.97415 0
M  V30 3457 H 343.428 -0.237942 -1.54478 0
M  V30 3458 H 344.163 2.13148 -2.44414 0
M  V30 3459 H 343.948 0.982114 -3.79601 0
M  V30 3460 H 345.438 1.96597 -3.68429 0
M  V30 3461 N 345.875 1.56104 -0.216619 0
M  V30 3462 C 347.123 1.97781 0.415593 0
M  V30 3463 C 347.444 1.10536 1.60645 0
M  V30 3464 O 346.714 0.181303 1.95059 0
M  V30 3465 H 345.294 0.730415 0.156534 0
M  V30 3466 H 347.956 1.92445 -0.308366 0
M  V30 3467 H 347.052 3.03072 0.74525 0
M  V30 3468 N 347.353 -0.0568162 1.57498 0
M  V30 3469 C 348.601 -0.751617 1.87604 0
M  V30 3470 C 348.922 -1.77351 0.81066 0
M  V30 3471 O 348.192 -1.95254 -0.159018 0
M  V30 3472 H 346.772 -0.280583 0.692302 0
M  V30 3473 H 349.434 -0.0293483 1.94878 0
M  V30 3474 H 348.53 -1.25852 2.856 0
M  V30 3475 N 348.832 -1.54138 -0.328536 0
M  V30 3476 C 349.762 -1.86167 -1.40939 0
M  V30 3477 C 350.743 -0.718044 -1.54202 0
M  V30 3478 O 351.928 -0.971328 -1.68163 0
M  V30 3479 C 349.058 -2.08461 -2.77779 0
M  V30 3480 C 348.012 -3.24299 -2.7931 0
M  V30 3481 C 347.338 -3.31955 -4.19178 0
M  V30 3482 C 348.638 -4.62065 -2.43502 0
M  V30 3483 H 350.332 -2.76689 -1.14383 0
M  V30 3484 H 347.878 -1.33132 -0.548806 0
M  V30 3485 H 349.831 -2.29453 -3.53454 0
M  V30 3486 H 348.555 -1.14684 -3.05802 0
M  V30 3487 H 347.214 -3.03187 -2.0609 0
M  V30 3488 H 346.862 -2.35745 -4.44335 0
M  V30 3489 H 346.562 -4.09805 -4.2111 0
M  V30 3490 H 348.086 -3.55175 -4.96672 0
M  V30 3491 H 349.5 -4.8297 -3.08889 0
M  V30 3492 H 347.897 -5.42429 -2.56693 0
M  V30 3493 H 348.967 -4.64652 -1.38659 0
M  V30 3494 N 350.31 0.590341 -1.46126 0
M  V30 3495 C 351.273 1.68194 -1.55703 0
M  V30 3496 C 352.273 1.54808 -0.434868 0
M  V30 3497 O 353.463 1.59564 -0.698928 0
M  V30 3498 C 350.595 3.07575 -1.47005 0
M  V30 3499 H 351.788 1.61064 -2.52979 0
M  V30 3500 H 349.341 0.807541 -1.33823 0
M  V30 3501 H 350.076 3.20268 -0.509785 0
M  V30 3502 H 349.861 3.187 -2.28414 0
M  V30 3503 H 351.351 3.87055 -1.56776 0
M  V30 3504 N 351.788 1.33704 0.83433 0
M  V30 3505 C 353.037 1.24763 1.58484 0
M  V30 3506 C 353.35 -0.183775 1.94735 0
M  V30 3507 O 354.556 -0.395234 2.68608 0
M  V30 3508 C 353.012 2.18638 2.85876 0
M  V30 3509 C 352.62 3.66974 2.56971 0
M  V30 3510 C 354.364 2.18581 3.63899 0
M  V30 3511 C 352.271 4.5275 3.80488 0
M  V30 3512 H 351.201 0.463425 0.594772 0
M  V30 3513 H 353.852 1.58797 0.919551 0
M  V30 3514 H 352.234 1.77542 3.5397 0
M  V30 3515 H 353.408 4.16538 1.9706 0
M  V30 3516 H 351.723 3.69366 1.92244 0
M  V30 3517 H 354.32 2.79894 4.55591 0
M  V30 3518 H 354.663 1.18207 3.99165 0
M  V30 3519 H 355.196 2.58062 3.02735 0
M  V30 3520 H 351.935 5.54017 3.5035 0
M  V30 3521 H 351.455 4.07927 4.39722 0
M  V30 3522 H 353.134 4.66784 4.4802 0
M  V30 3523 N 353.266 -1.05314 1.17247 0
M  V30 3524 C 354.677 -1.59753 0.96623 0
M  V30 3525 C 355.028 -1.9005 -0.487378 0
M  V30 3526 O 354.153 -1.68126 -1.36245 0
M  V30 3527 C 354.748 -2.90249 1.74759 0
M  V30 3528 C 353.307 -3.41352 1.58606 0
M  V30 3529 C 352.454 -2.15103 1.75002 0
M  V30 3530 H 355.405 -0.881406 1.31973 0
M  V30 3531 H 355.426 -3.60097 1.22925 0
M  V30 3532 H 354.938 -2.68166 2.8055 0
M  V30 3533 H 353.039 -3.68474 0.552985 0
M  V30 3534 H 353.152 -4.16019 2.37624 0
M  V30 3535 H 351.516 -2.25804 1.17833 0
M  V30 3536 H 352.299 -1.95491 2.82202 0
M  V30 3537 N 354.744 -0.972509 -1.24016 0
M  V30 3538 C 355.676 -0.464375 -2.24446 0
M  V30 3539 C 356.689 0.4295 -1.57032 0
M  V30 3540 O 357.878 0.234902 -1.76948 0
M  V30 3541 C 354.978 0.348385 -3.37105 0
M  V30 3542 C 354.151 -0.53673 -4.34094 0
M  V30 3543 C 353.21 0.220838 -5.25736 0
M  V30 3544 O 352.236 -0.386867 -5.67884 0
M  V30 3545 N 353.438 1.50907 -5.60542 0
M  V30 3546 H 356.203 -1.32788 -2.68677 0
M  V30 3547 H 353.764 -0.844877 -1.38107 0
M  V30 3548 H 355.756 0.863341 -3.95384 0
M  V30 3549 H 354.326 1.11285 -2.92121 0
M  V30 3550 H 353.546 -1.23261 -3.74433 0
M  V30 3551 H 354.834 -1.14022 -4.95859 0
M  V30 3552 H 354.232 2.02444 -5.28236 0
M  V30 3553 H 352.789 1.96962 -6.21329 0
M  V30 3554 N 356.222 1.38976 -0.743202 0
M  V30 3555 C 357.447 2.05161 -0.303936 0
M  V30 3556 C 357.872 1.55677 1.05576 0
M  V30 3557 O 357.23 0.704131 1.67068 0
M  V30 3558 C 357.278 3.59138 -0.324373 0
M  V30 3559 O 356.382 4.06668 0.685204 0
M  V30 3560 H 355.723 0.649815 -0.136518 0
M  V30 3561 H 358.253 1.77852 -1.01142 0
M  V30 3562 H 358.263 4.07639 -0.171618 0
M  V30 3563 H 356.938 3.94515 -1.31647 0
M  V30 3564 H 355.515 3.69561 0.497913 0
M  V30 3565 N 357.7 0.491464 1.49741 0
M  V30 3566 C 358.925 -0.0557177 2.07325 0
M  V30 3567 C 359.35 -1.30925 1.35056 0
M  V30 3568 O 358.708 -1.76733 0.404365 0
M  V30 3569 C 358.756 -0.302074 3.59333 0
M  V30 3570 O 357.86 -1.37868 3.88672 0
M  V30 3571 H 357.201 0.0219956 0.663636 0
M  V30 3572 H 359.731 0.688352 1.92673 0
M  V30 3573 H 359.741 -0.536464 4.04458 0
M  V30 3574 H 358.416 0.61383 4.11345 0
M  V30 3575 H 356.993 -1.12999 3.55367 0
M  V30 3576 N 359.178 -1.55987 0.224894 0
M  V30 3577 C 360.403 -2.03232 -0.41369 0
M  V30 3578 C 360.828 -1.10359 -1.52323 0
M  V30 3579 O 360.186 -0.092395 -1.81064 0
M  V30 3580 C 360.234 -3.48682 -0.919405 0
M  V30 3581 O 359.338 -3.58947 -2.03054 0
M  V30 3582 H 358.679 -0.657428 -0.0931903 0
M  V30 3583 H 361.209 -2.01679 0.34451 0
M  V30 3584 H 361.219 -3.8907 -1.22835 0
M  V30 3585 H 359.894 -4.15761 -0.107339 0
M  V30 3586 H 358.471 -3.30448 -1.72796 0
M  V30 3587 N 360.656 0.0484629 -1.57525 0
M  V30 3588 C 361.881 0.759177 -1.93006 0
M  V30 3589 C 362.306 1.69125 -0.823317 0
M  V30 3590 O 361.664 1.79931 0.222364 0
M  V30 3591 C 361.712 1.50899 -3.27509 0
M  V30 3592 O 360.816 2.62112 -3.18388 0
M  V30 3593 H 360.157 0.205564 -0.631379 0
M  V30 3594 H 362.687 0.00972959 -2.04598 0
M  V30 3595 H 362.697 1.88317 -3.6194 0
M  V30 3596 H 361.372 0.825269 -4.0763 0
M  V30 3597 H 359.949 2.27379 -2.95556 0
M  V30 3598 N 362.134 1.5431 0.320358 0
M  V30 3599 C 363.359 1.76954 1.08175 0
M  V30 3600 C 363.784 0.518193 1.80821 0
M  V30 3601 O 363.142 -0.530411 1.73368 0
M  V30 3602 C 363.19 2.96451 2.05303 0
M  V30 3603 O 362.294 2.68221 3.13259 0
M  V30 3604 H 361.635 0.586275 0.311733 0
M  V30 3605 H 364.165 2.01342 0.363676 0
M  V30 3606 H 364.175 3.23887 2.48116 0
M  V30 3607 H 362.85 3.87196 1.51829 0
M  V30 3608 H 361.427 2.51744 2.75099 0
M  V30 3609 N 363.613 -0.582584 1.46437 0
M  V30 3610 C 364.838 -1.37168 1.55563 0
M  V30 3611 C 365.263 -1.87061 0.19743 0
M  V30 3612 O 364.621 -1.61572 -0.822451 0
M  V30 3613 C 364.669 -2.53511 2.56446 0
M  V30 3614 O 363.773 -3.54953 2.09958 0
M  V30 3615 H 363.114 -0.408494 0.523477 0
M  V30 3616 H 365.644 -0.706646 1.9201 0
M  V30 3617 H 365.654 -3.00426 2.76058 0
M  V30 3618 H 364.329 -2.16549 3.55076 0
M  V30 3619 H 362.906 -3.14516 2.00334 0
M  V30 3620 N 365.091 -1.34144 -0.827227 0
M  V30 3621 C 366.507 -1.13732 -1.11969 0
M  V30 3622 C 366.707 0.0640463 -2.01398 0
M  V30 3623 O 365.763 0.740856 -2.41387 0
M  V30 3624 C 367.076 -2.43047 -1.77055 0
M  V30 3625 C 368.624 -2.49063 -1.89569 0
M  V30 3626 C 369.099 -3.78369 -2.58072 0
M  V30 3627 N 370.59 -3.79505 -2.65575 0
M  V30 3628 C 371.325 -4.76274 -3.19297 0
M  V30 3629 N 370.821 -5.83424 -3.73616 0
M  V30 3630 N 372.614 -4.63735 -3.17658 0
M  V30 3631 H 364.765 -2.11126 -0.232296 0
M  V30 3632 H 367.028 -0.933424 -0.165602 0
M  V30 3633 H 366.734 -3.31025 -1.18807 0
M  V30 3634 H 366.608 -2.56066 -2.76966 0
M  V30 3635 H 368.995 -1.61527 -2.46968 0
M  V30 3636 H 369.076 -2.39975 -0.885745 0
M  V30 3637 H 368.72 -4.66293 -2.01329 0
M  V30 3638 H 368.65 -3.84737 -3.59562 0
M  V30 3639 H 371.141 -3.02074 -2.27068 0
M  V30 3640 H 371.454 -6.53282 -4.12846 0
M  V30 3641 H 369.799 -5.87143 -3.71871 0
M  V30 3642 H 372.99 -3.79177 -2.74486 0
M  V30 3643 H 373.163 -5.39318 -3.59221 0
M  V30 3644 N 366.569 1.04691 -1.17803 0
M  V30 3645 C 367.98 1.59238 -0.974689 0
M  V30 3646 C 368.331 1.90306 0.477292 0
M  V30 3647 O 367.456 1.68846 1.35352 0
M  V30 3648 C 368.051 2.89318 -1.76296 0
M  V30 3649 C 366.61 3.40506 -1.60414 0
M  V30 3650 C 365.757 2.14172 -1.76141 0
M  V30 3651 H 368.708 0.874395 -1.32439 0
M  V30 3652 H 368.729 3.5944 -1.24833 0
M  V30 3653 H 368.241 2.66675 -2.81968 0
M  V30 3654 H 366.342 3.68175 -0.572519 0
M  V30 3655 H 366.455 4.14753 -2.39827 0
M  V30 3656 H 364.819 2.25176 -1.19028 0
M  V30 3657 H 365.602 1.93992 -2.83235 0
M  V30 3658 N 368.047 0.979072 1.23499 0
M  V30 3659 C 369.458 0.684391 1.73704 0
M  V30 3660 C 369.809 -0.799448 1.79174 0
M  V30 3661 O 368.934 -1.62531 1.42873 0
M  V30 3662 C 369.529 1.23564 3.15464 0
M  V30 3663 C 368.088 0.99063 3.6313 0
M  V30 3664 C 367.235 1.36416 2.41425 0
M  V30 3665 H 370.186 1.15307 1.09041 0
M  V30 3666 H 370.207 0.607417 3.7562 0
M  V30 3667 H 369.719 2.31561 3.1145 0
M  V30 3668 H 367.82 -0.0733136 3.72528 0
M  V30 3669 H 367.933 1.64427 4.5 0
M  V30 3670 H 366.297 0.782616 2.42378 0
M  V30 3671 H 367.08 2.45387 2.40083 0
M  V30 3672 N 369.525 -1.3858 0.750561 0
M  V30 3673 C 370.753 -2.04471 0.316098 0
M  V30 3674 C 371.168 -1.56606 -1.05452 0
M  V30 3675 O 370.525 -0.737784 -1.66922 0
M  V30 3676 C 370.576 -3.60025 0.326275 0
M  V30 3677 O 370.297 -4.06133 1.6428 0
M  V30 3678 C 371.798 -4.43131 -0.122429 0
M  V30 3679 H 369.018 -0.65717 0.135528 0
M  V30 3680 H 371.562 -1.77329 1.01857 0
M  V30 3681 H 369.717 -3.86014 -0.327431 0
M  V30 3682 H 370.131 -5.00547 1.56693 0
M  V30 3683 H 371.605 -5.51963 -0.0641473 0
M  V30 3684 H 372.082 -4.23333 -1.16988 0
M  V30 3685 H 372.688 -4.22323 0.50229 0
M  V30 3686 N 371.003 -0.499398 -1.49478 0
M  V30 3687 C 372.419 -0.155261 -1.58843 0
M  V30 3688 C 372.619 1.34008 -1.50479 0
M  V30 3689 O 371.675 2.11589 -1.37791 0
M  V30 3690 C 372.988 -0.730636 -2.91689 0
M  V30 3691 C 374.536 -0.696599 -3.0515 0
M  V30 3692 C 375.011 -1.25001 -4.40612 0
M  V30 3693 N 376.502 -1.21064 -4.47099 0
M  V30 3694 C 377.237 -1.60905 -5.50361 0
M  V30 3695 N 376.733 -2.08331 -6.60735 0
M  V30 3696 N 378.526 -1.52331 -5.41065 0
M  V30 3697 H 370.677 -1.47162 -1.53158 0
M  V30 3698 H 372.94 -0.610309 -0.725415 0
M  V30 3699 H 372.646 -1.77928 -3.03372 0
M  V30 3700 H 372.52 -0.190161 -3.7672 0
M  V30 3701 H 374.907 0.343204 -2.93097 0
M  V30 3702 H 374.988 -1.2742 -2.21806 0
M  V30 3703 H 374.632 -2.28859 -4.53416 0
M  V30 3704 H 374.562 -0.64836 -5.22593 0
M  V30 3705 H 377.053 -0.863128 -3.67911 0
M  V30 3706 H 377.366 -2.36805 -7.35624 0
M  V30 3707 H 375.711 -2.12304 -6.6178 0
M  V30 3708 H 378.902 -1.151 -4.53729 0
M  V30 3709 H 379.075 -1.83704 -6.21415 0
M  V30 3710 N 372.481 1.55866 -0.233164 0
M  V30 3711 C 373.444 2.1953 0.658715 0
M  V30 3712 C 374.444 1.16053 1.11303 0
M  V30 3713 O 375.634 1.41218 1.01996 0
M  V30 3714 C 372.766 2.82791 1.90373 0
M  V30 3715 H 373.959 2.99721 0.10347 0
M  V30 3716 H 371.512 1.56291 0.0164245 0
M  V30 3717 H 372.247 2.06501 2.50056 0
M  V30 3718 H 372.032 3.58578 1.58632 0
M  V30 3719 H 373.522 3.31556 2.53891 0
M  V30 3720 N 373.959 -0.0401083 1.57549 0
M  V30 3721 C 375.375 -0.395556 1.54621 0
M  V30 3722 C 375.575 -1.77281 0.957799 0
M  V30 3723 O 374.631 -2.45888 0.574031 0
M  V30 3724 C 375.944 -0.307535 2.99123 0
M  V30 3725 C 377.492 -0.385425 3.10618 0
M  V30 3726 C 377.967 -0.326973 4.56831 0
M  V30 3727 N 379.458 -0.386102 4.61588 0
M  V30 3728 C 380.193 -0.363591 5.72246 0
M  V30 3729 N 379.689 -0.29402 6.92176 0
M  V30 3730 N 381.482 -0.412503 5.60584 0
M  V30 3731 H 373.633 0.861325 1.94152 0
M  V30 3732 H 375.896 0.326445 0.890021 0
M  V30 3733 H 375.602 0.638461 3.45856 0
M  V30 3734 H 375.476 -1.10552 3.60636 0
M  V30 3735 H 377.863 -1.32185 2.63839 0
M  V30 3736 H 377.944 0.44171 2.51957 0
M  V30 3737 H 377.588 0.605738 5.04275 0
M  V30 3738 H 377.518 -1.17207 5.13391 0
M  V30 3739 H 380.009 -0.442832 3.75296 0
M  V30 3740 H 380.322 -0.28164 7.72287 0
M  V30 3741 H 378.667 -0.260232 6.94513 0
M  V30 3742 H 381.858 -0.464769 4.65787 0
M  V30 3743 H 382.031 -0.391492 6.46816 0
M  V30 3744 N 375.437 -1.54477 -0.31217 0
M  V30 3745 C 376.685 -1.72884 -1.04668 0
M  V30 3746 C 377.006 -0.511477 -1.88173 0
M  V30 3747 O 376.276 0.474407 -1.90069 0
M  V30 3748 H 374.856 -0.637461 -0.389425 0
M  V30 3749 H 377.518 -1.91807 -0.345852 0
M  V30 3750 H 376.614 -2.61334 -1.70619 0
M  V30 3751 N 376.915 0.57481 -1.46744 0
M  V30 3752 C 377.878 1.66533 -1.57478 0
M  V30 3753 C 378.878 1.54338 -0.451263 0
M  V30 3754 O 380.068 1.58814 -0.715813 0
M  V30 3755 C 377.2 3.05999 -1.50259 0
M  V30 3756 H 378.393 1.58372 -2.54673 0
M  V30 3757 H 375.946 0.793301 -1.34672 0
M  V30 3758 H 376.681 3.19709 -0.543725 0
M  V30 3759 H 376.466 3.16259 -2.31781 0
M  V30 3760 H 377.956 3.8537 -1.60872 0
M  V30 3761 N 378.394 1.34581 0.820102 0
M  V30 3762 C 379.805 1.24298 1.39309 0
M  V30 3763 C 380.156 -0.130351 1.95767 0
M  V30 3764 O 379.281 -1.0308 1.90272 0
M  V30 3765 C 379.876 2.25054 2.53251 0
M  V30 3766 C 378.435 2.18552 3.0645 0
M  V30 3767 C 377.582 2.11503 1.79337 0
M  V30 3768 H 380.533 1.45906 0.624262 0
M  V30 3769 H 380.554 1.86917 3.31425 0
M  V30 3770 H 380.066 3.24996 2.1213 0
M  V30 3771 H 378.167 1.21976 3.52069 0
M  V30 3772 H 378.28 3.0993 3.65349 0
M  V30 3773 H 376.644 1.57268 2.00347 0
M  V30 3774 H 377.427 3.13284 1.40386 0
M  V30 3775 N 379.872 -1.04064 1.18357 0
M  V30 3776 C 381.097 -1.81454 1.00445 0
M  V30 3777 C 381.522 -1.82823 -0.442423 0
M  V30 3778 O 380.88 -1.24555 -1.31741 0
M  V30 3779 C 380.928 -3.24925 1.56384 0
M  V30 3780 O 380.032 -4.04856 0.785209 0
M  V30 3781 H 379.373 -0.560604 0.355835 0
M  V30 3782 H 381.903 -1.31059 1.57114 0
M  V30 3783 H 381.913 -3.75702 1.59097 0
M  V30 3784 H 380.588 -3.23244 2.61699 0
M  V30 3785 H 379.165 -3.63537 0.830399 0
M  V30 3786 N 381.35 -0.985608 -1.22978 0
M  V30 3787 C 382.761 -0.693593 -1.73338 0
M  V30 3788 C 383.112 0.789935 -1.79595 0
M  V30 3789 O 382.237 1.61771 -1.43733 0
M  V30 3790 C 382.832 -1.25235 -3.14804 0
M  V30 3791 C 381.391 -1.00987 -3.626 0
M  V30 3792 C 380.538 -1.37695 -2.40698 0
M  V30 3793 H 383.489 -1.15884 -1.08428 0
M  V30 3794 H 383.51 -0.627329 -3.75293 0
M  V30 3795 H 383.022 -2.33209 -3.10218 0
M  V30 3796 H 381.123 0.0535565 -3.72562 0
M  V30 3797 H 381.236 -1.66812 -4.49122 0
M  V30 3798 H 379.6 -0.795459 -2.4196 0
M  V30 3799 H 380.383 -2.46657 -2.38779 0
M  V30 3800 N 382.828 1.3818 -0.7579 0
M  V30 3801 C 384.076 1.99624 -0.315361 0
M  V30 3802 C 384.397 1.60464 1.10799 0
M  V30 3803 O 383.667 0.863507 1.75842 0
M  V30 3804 H 382.247 0.73831 -0.113611 0
M  V30 3805 H 384.909 1.68878 -0.972952 0
M  V30 3806 H 384.005 3.09754 -0.381931 0
M  V30 3807 N 384.306 0.507319 1.49211 0
M  V30 3808 C 385.552 -0.0350047 2.0277 0
M  V30 3809 C 385.885 -1.3606 1.38569 0
M  V30 3810 O 385.16 -1.87321 0.523542 0
M  V30 3811 C 385.443 -0.180916 3.59645 0
M  V30 3812 C 385.296 1.16825 4.34364 0
M  V30 3813 C 386.615 -0.918558 4.30407 0
M  V30 3814 H 383.734 -0.0112473 0.736914 0
M  V30 3815 H 386.376 0.659956 1.7817 0
M  V30 3816 H 384.526 -0.772826 3.80736 0
M  V30 3817 H 386.198 1.79952 4.24753 0
M  V30 3818 H 384.441 1.75594 3.96673 0
M  V30 3819 H 385.112 1.01939 5.42506 0
M  V30 3820 H 387.588 -0.41649 4.1401 0
M  V30 3821 H 386.464 -0.989505 5.39907 0
M  V30 3822 H 386.725 -1.96373 3.96093 0
M  V30 3823 N 385.784 -1.5574 0.241426 0
M  V30 3824 C 386.714 -2.24133 -0.654722 0
M  V30 3825 C 387.695 -1.21974 -1.1856 0
M  V30 3826 O 388.88 -1.50612 -1.22595 0
M  V30 3827 C 386.01 -2.93659 -1.85423 0
M  V30 3828 C 384.964 -4.0246 -1.45636 0
M  V30 3829 C 384.29 -4.59383 -2.73626 0
M  V30 3830 C 385.59 -5.18468 -0.631506 0
M  V30 3831 H 387.284 -2.99281 -0.0844353 0
M  V30 3832 H 384.83 -1.43947 -0.0391707 0
M  V30 3833 H 386.783 -3.40203 -2.48676 0
M  V30 3834 H 385.507 -2.15991 -2.44981 0
M  V30 3835 H 384.166 -3.56676 -0.847202 0
M  V30 3836 H 383.814 -3.78422 -3.3137 0
M  V30 3837 H 383.514 -5.32826 -2.4773 0
M  V30 3838 H 385.038 -5.08658 -3.37786 0
M  V30 3839 H 386.452 -5.61272 -1.1682 0
M  V30 3840 H 384.849 -5.98266 -0.468831 0
M  V30 3841 H 385.919 -4.8358 0.357506 0
M  V30 3842 N 387.262 0.0317525 -1.57568 0
M  V30 3843 C 388.51 0.721676 -1.88776 0
M  V30 3844 C 388.831 1.76039 -0.838772 0
M  V30 3845 O 388.101 1.95482 0.127935 0
M  V30 3846 H 386.681 0.269534 -0.696678 0
M  V30 3847 H 389.343 -0.00165879 -1.949 0
M  V30 3848 H 388.439 1.21293 -2.87566 0
M  V30 3849 N 388.74 1.54641 0.303973 0
M  V30 3850 C 390.151 1.64811 0.877163 0
M  V30 3851 C 390.502 0.554838 1.88191 0
M  V30 3852 O 389.627 -0.309033 2.14182 0
M  V30 3853 C 390.222 2.9876 1.59775 0
M  V30 3854 C 388.781 3.11061 2.11938 0
M  V30 3855 C 387.928 2.60479 0.951097 0
M  V30 3856 H 390.879 1.58493 0.0810486 0
M  V30 3857 H 390.9 2.90017 2.46314 0
M  V30 3858 H 390.412 3.7831 0.866226 0
M  V30 3859 H 388.513 2.36225 2.88146 0
M  V30 3860 H 388.626 4.17171 2.35595 0
M  V30 3861 H 386.99 2.16859 1.33583 0
M  V30 3862 H 387.773 3.42504 0.233581 0
M  V30 3863 N 390.218 -0.567019 1.47046 0
M  V30 3864 C 391.168 -1.67018 1.55207 0
M  V30 3865 C 392.152 -1.55543 0.411714 0
M  V30 3866 O 393.344 -1.64192 0.661064 0
M  V30 3867 C 390.473 -3.05801 1.56014 0
M  V30 3868 C 389.559 -3.22515 2.75399 0
M  V30 3869 N 389.95 -3.09329 4.00186 0
M  V30 3870 C 388.248 -3.53493 2.71954 0
M  V30 3871 C 388.949 -3.2847 4.80086 0
M  V30 3872 N 387.925 -3.54352 4.12233 0
M  V30 3873 H 391.727 -1.55377 2.4947 0
M  V30 3874 H 389.241 -0.771503 1.42904 0
M  V30 3875 H 391.238 -3.84996 1.59949 0
M  V30 3876 H 389.898 -3.18561 0.628396 0
M  V30 3877 H 390.909 -2.86863 4.31196 0
M  V30 3878 H 387.586 -3.7284 1.87873 0
M  V30 3879 H 388.976 -3.23326 5.88991 0
M  V30 3880 N 391.696 -1.35014 -0.812953 0
M  V30 3881 C 392.659 -1.27292 -1.90602 0
M  V30 3882 C 393.659 -0.185817 -1.59723 0
M  V30 3883 O 394.849 -0.439102 -1.68575 0
M  V30 3884 C 391.981 -0.967676 -3.26877 0
M  V30 3885 H 393.174 -2.24479 -1.9887 0
M  V30 3886 H 390.727 -1.19446 -1.00808 0
M  V30 3887 H 391.462 0.0005954 -3.243 0
M  V30 3888 H 391.247 -1.75412 -3.50675 0
M  V30 3889 H 392.737 -0.939085 -4.06904 0
M  V30 3890 N 393.175 1.03435 -1.18907 0
M  V30 3891 C 394.4 1.80919 -1.01406 0
M  V30 3892 C 394.825 1.83055 0.432721 0
M  V30 3893 O 394.183 1.25252 1.31079 0
M  V30 3894 C 394.231 3.24091 -1.58105 0
M  V30 3895 O 393.335 4.04434 -0.806669 0
M  V30 3896 H 392.676 0.558709 -0.358803 0
M  V30 3897 H 395.206 1.30223 -1.57807 0
M  V30 3898 H 395.216 3.74853 -1.61087 0
M  V30 3899 H 393.891 3.21851 -2.6341 0
M  V30 3900 H 392.468 3.63091 -0.849666 0
M  V30 3901 N 394.653 0.992116 1.22453 0
M  V30 3902 C 395.563 0.55065 2.28046 0
M  V30 3903 C 396.579 -0.400189 1.69335 0
M  V30 3904 O 397.755 -0.267215 1.99619 0
M  V30 3905 C 394.82 -0.128496 3.46462 0
M  V30 3906 C 393.881 0.865208 4.20491 0
M  V30 3907 C 393.114 0.218377 5.33253 0
M  V30 3908 O 393.337 -0.987894 5.6178 0
M  V30 3909 O 392.271 0.922845 5.94783 0
M  V30 3910 H 396.097 1.4291 2.67975 0
M  V30 3911 H 393.682 0.760326 1.28606 0
M  V30 3912 H 395.564 -0.508947 4.18315 0
M  V30 3913 H 394.239 -0.981526 3.0846 0
M  V30 3914 H 393.146 1.29658 3.50913 0
M  V30 3915 H 394.479 1.68741 4.62371 0
M  V30 3916 N 396.131 -1.37776 0.765217 0
M  V30 3917 C 397.542 -1.82521 0.392819 0
M  V30 3918 C 397.893 -1.63789 -1.08017 0
M  V30 3919 O 397.018 -1.14542 -1.83601 0
M  V30 3920 C 397.613 -3.31358 0.706214 0
M  V30 3921 C 396.172 -3.74406 0.386952 0
M  V30 3922 C 395.319 -2.60394 0.953422 0
M  V30 3923 H 398.27 -1.2634 0.960412 0
M  V30 3924 H 398.291 -3.80498 -0.0114706 0
M  V30 3925 H 397.803 -3.44959 1.77833 0
M  V30 3926 H 395.904 -3.66377 -0.678112 0
M  V30 3927 H 396.017 -4.70749 0.890636 0
M  V30 3928 H 394.381 -2.51878 0.378064 0
M  V30 3929 H 395.164 -2.76791 2.03081 0
M  V30 3930 N 397.609 -0.515225 -1.4894 0
M  V30 3931 C 398.541 0.292481 -2.27326 0
M  V30 3932 C 399.554 0.917838 -1.3446 0
M  V30 3933 O 400.743 0.798772 -1.5963 0
M  V30 3934 C 397.843 1.42803 -3.07344 0
M  V30 3935 C 397.016 0.907347 -4.27885 0
M  V30 3936 C 396.075 1.92222 -4.89834 0
M  V30 3937 O 395.101 1.48506 -5.49486 0
M  V30 3938 N 396.303 3.25355 -4.80754 0
M  V30 3939 H 399.068 -0.379721 -2.97285 0
M  V30 3940 H 396.629 -0.348638 -1.58102 0
M  V30 3941 H 398.621 2.10481 -3.45658 0
M  V30 3942 H 397.191 2.00414 -2.39902 0
M  V30 3943 H 396.411 0.0550218 -3.94162 0
M  V30 3944 H 397.699 0.538108 -5.05946 0
M  V30 3945 H 397.097 3.6355 -4.33414 0
M  V30 3946 H 395.654 3.88707 -5.23211 0
M  V30 3947 N 399.087 1.5561 -0.249682 0
M  V30 3948 C 400.017 2.24477 0.642826 0
M  V30 3949 C 400.998 1.22601 1.17911 0
M  V30 3950 O 402.183 1.5126 1.21795 0
M  V30 3951 C 399.313 2.94638 1.83863 0
M  V30 3952 C 398.267 4.03227 1.435 0
M  V30 3953 C 397.593 4.60828 2.71186 0
M  V30 3954 C 398.893 5.18796 0.604002 0
M  V30 3955 H 400.587 2.99321 0.0685625 0
M  V30 3956 H 398.133 1.43965 0.0315363 0
M  V30 3957 H 400.086 3.41517 2.46868 0
M  V30 3958 H 398.81 2.17287 2.43832 0
M  V30 3959 H 397.469 3.57121 0.828275 0
M  V30 3960 H 397.117 3.80174 3.29358 0
M  V30 3961 H 396.817 5.34132 2.44901 0
M  V30 3962 H 398.341 5.10442 3.35084 0
M  V30 3963 H 399.755 5.61883 1.13842 0
M  V30 3964 H 398.152 5.98506 0.437097 0
M  V30 3965 H 399.222 4.83384 -0.383147 0
M  V30 3966 N 400.565 -0.0233959 1.57583 0
M  V30 3967 C 401.528 -1.00693 2.05897 0
M  V30 3968 C 402.528 -1.28693 0.964092 0
M  V30 3969 O 403.718 -1.23602 1.22753 0
M  V30 3970 C 400.85 -2.33825 2.4807 0
M  V30 3971 H 402.043 -0.589476 2.9405 0
M  V30 3972 H 399.596 -0.270354 1.53944 0
M  V30 3973 H 400.331 -2.80307 1.6309 0
M  V30 3974 H 400.116 -2.1483 3.2801 0
M  V30 3975 H 401.606 -3.04426 2.85857 0
M  V30 3976 N 402.043 -1.548 -0.295768 0
M  V30 3977 C 403.454 -1.65274 -0.868411 0
M  V30 3978 C 403.805 -0.56481 -1.87894 0
M  V30 3979 O 402.93 0.29767 -2.14343 0
M  V30 3980 C 403.525 -2.99603 -1.58188 0
M  V30 3981 C 402.084 -3.12181 -2.10286 0
M  V30 3982 C 401.231 -2.6098 -0.93727 0
M  V30 3983 H 404.182 -1.58534 -0.0726422 0
M  V30 3984 H 404.203 -2.91319 -2.44772 0
M  V30 3985 H 403.715 -3.78764 -0.846151 0
M  V30 3986 H 401.816 -2.3775 -2.8689 0
M  V30 3987 H 401.929 -4.18415 -2.33379 0
M  V30 3988 H 400.293 -2.17564 -1.32431 0
M  V30 3989 H 401.076 -3.42623 -0.215414 0
M  V30 3990 N 403.521 0.559213 -1.47345 0
M  V30 3991 C 404.932 1.14134 -1.47751 0
M  V30 3992 C 405.283 1.94834 -0.231103 0
M  V30 3993 O 404.408 2.05957 0.664137 0
M  V30 3994 C 405.003 2.07653 -2.67705 0
M  V30 3995 C 403.562 2.61141 -2.71076 0
M  V30 3996 C 402.709 1.3748 -2.40821 0
M  V30 3997 H 405.66 0.345917 -1.54884 0
M  V30 3998 H 405.681 2.91497 -2.44561 0
M  V30 3999 H 405.193 1.4889 -3.58404 0
M  V30 4000 H 403.294 3.23707 -1.84511 0
M  V30 4001 H 403.407 3.02272 -3.7171 0
M  V30 4002 H 401.771 1.68086 -1.91362 0
M  V30 4003 H 402.554 0.805135 -3.33725 0
M  V30 4004 N 404.999 1.35443 0.805782 0
M  V30 4005 C 405.962 1.28301 1.89925 0
M  V30 4006 C 406.962 0.194285 1.59622 0
M  V30 4007 O 408.152 0.448036 1.6834 0
M  V30 4008 C 405.284 0.984997 3.2636 0
M  V30 4009 H 406.477 2.2553 1.97677 0
M  V30 4010 H 404.03 1.19979 1.00173 0
M  V30 4011 H 404.765 0.016603 3.24296 0
M  V30 4012 H 404.55 1.77269 3.4974 0
M  V30 4013 H 406.04 0.960651 4.064 0
M  V30 4014 N 406.477 -1.02803 1.19454 0
M  V30 4015 C 407.717 -1.77769 1.00883 0
M  V30 4016 C 408.081 -1.86596 -0.45233 0
M  V30 4017 O 409.282 -2.57895 -0.757877 0
M  V30 4018 C 407.553 -3.16486 1.66046 0
M  V30 4019 S 409.112 -4.07632 1.62424 0
M  V30 4020 H 405.93 -0.611949 0.361993 0
M  V30 4021 H 408.532 -1.23175 1.51816 0
M  V30 4022 H 407.236 -3.0768 2.7159 0
M  V30 4023 H 406.767 -3.76156 1.15196 0
M  V30 4024 H 408.782 -4.91937 0.64903 0
M  V30 4025 N 407.956 -0.998596 -1.21925 0
M  V30 4026 C 409.184 -0.696286 -1.94832 0
M  V30 4027 C 409.599 0.740032 -1.73692 0
M  V30 4028 O 408.956 1.5 -1.03953 0
M  V30 4029 C 409.007 -0.999833 -3.47398 0
M  V30 4030 O 408.728 -2.37972 -3.67833 0
M  V30 4031 C 410.229 -0.716025 -4.37479 0
M  V30 4032 H 407.449 -0.257111 -0.619786 0
M  V30 4033 H 409.993 -1.33491 -1.54921 0
M  V30 4034 H 408.148 -0.406918 -3.85257 0
M  V30 4035 H 408.562 -2.48338 -4.61983 0
M  V30 4036 H 410.036 -0.978642 -5.43256 0
M  V30 4037 H 410.513 0.349968 -4.37803 0
M  V30 4038 H 411.119 -1.29025 -4.05256 0
M  V30 4039 N 409.434 1.37368 -0.772513 0
M  V30 4040 C 410.845 1.8231 -0.402493 0
M  V30 4041 C 411.196 1.6436 1.07146 0
M  V30 4042 O 410.321 1.15514 1.82991 0
M  V30 4043 C 410.916 3.30979 -0.723776 0
M  V30 4044 C 409.475 3.74195 -0.406802 0
M  V30 4045 C 408.622 2.59885 -0.967218 0
M  V30 4046 H 411.573 1.25829 -0.967099 0
M  V30 4047 H 411.594 3.80499 -0.00870832 0
M  V30 4048 H 411.106 3.44011 -1.7966 0
M  V30 4049 H 409.207 3.66732 0.658673 0
M  V30 4050 H 409.32 4.7027 -0.915588 0
M  V30 4051 H 407.684 2.51674 -0.391416 0
M  V30 4052 H 408.467 2.7571 -2.04546 0
M  V30 4053 N 410.912 0.523116 1.48665 0
M  V30 4054 C 411.875 -0.232592 2.28017 0
M  V30 4055 C 412.875 -0.874021 1.34972 0
M  V30 4056 O 414.065 -0.735132 1.57929 0
M  V30 4057 C 411.197 -1.33586 3.13636 0
M  V30 4058 H 412.39 0.464008 2.96289 0
M  V30 4059 H 409.943 0.278816 1.53793 0
M  V30 4060 H 410.678 -2.06593 2.4998 0
M  V30 4061 H 410.463 -0.881125 3.82071 0
M  V30 4062 H 411.953 -1.86759 3.73511 0
M  V30 4063 N 412.39 -1.55475 0.257931 0
M  V30 4064 C 413.353 -2.20551 -0.623706 0
M  V30 4065 C 414.353 -1.17809 -1.09443 0
M  V30 4066 O 415.543 -1.42823 -0.997362 0
M  V30 4067 C 412.675 -2.85784 -1.8585 0
M  V30 4068 H 413.868 -2.99848 -0.0557743 0
M  V30 4069 H 411.421 -1.56298 0.0084422 0
M  V30 4070 H 412.156 -2.10453 -2.46739 0
M  V30 4071 H 411.941 -3.61057 -1.52907 0
M  V30 4072 H 413.431 -3.35553 -2.48584 0
M  V30 4073 N 413.868 0.0150385 -1.57593 0
M  V30 4074 C 415.279 0.559832 -1.78109 0
M  V30 4075 C 415.63 1.74814 -0.890756 0
M  V30 4076 O 414.755 2.16216 -0.0892482 0
M  V30 4077 C 415.35 1.02238 -3.23006 0
M  V30 4078 C 413.909 1.51258 -3.44671 0
M  V30 4079 C 413.056 0.456955 -2.73509 0
M  V30 4080 H 416.007 -0.211169 -1.57289 0
M  V30 4081 H 416.028 1.88912 -3.30292 0
M  V30 4082 H 415.54 0.157302 -3.87781 0
M  V30 4083 H 413.641 2.39905 -2.8509 0
M  V30 4084 H 413.754 1.55042 -4.5332 0
M  V30 4085 H 412.118 0.915196 -2.37689 0
M  V30 4086 H 412.901 -0.398896 -3.40975 0
M  V30 4087 N 415.346 1.54954 0.287554 0
M  V30 4088 C 416.309 1.86076 1.33823 0
M  V30 4089 C 417.309 0.734414 1.43049 0
M  V30 4090 O 418.499 1.00266 1.42452 0
M  V30 4091 C 415.631 2.05305 2.72144 0
M  V30 4092 H 416.824 2.79984 1.07465 0
M  V30 4093 H 414.377 1.47223 0.524902 0
M  V30 4094 H 415.112 1.1373 3.03704 0
M  V30 4095 H 414.897 2.873 2.66836 0
M  V30 4096 H 416.387 2.30706 3.48087 0
M  V30 4097 N 416.824 -0.551391 1.4764 0
M  V30 4098 C 418.07 -1.31024 1.54792 0
M  V30 4099 C 418.403 -1.9304 0.211967 0
M  V30 4100 O 417.678 -1.78175 -0.77999 0
M  V30 4101 C 417.961 -2.41593 2.67029 0
M  V30 4102 C 417.814 -1.84408 4.10261 0
M  V30 4103 C 419.133 -3.43488 2.75143 0
M  V30 4104 H 416.252 -0.475031 0.563485 0
M  V30 4105 H 418.894 -0.616454 1.79722 0
M  V30 4106 H 417.044 -3.00772 2.45904 0
M  V30 4107 H 418.716 -1.29445 4.42766 0
M  V30 4108 H 416.959 -1.15051 4.18265 0
M  V30 4109 H 417.63 -2.64367 4.84576 0
M  V30 4110 H 420.106 -2.94236 2.94218 0
M  V30 4111 H 418.982 -4.18274 3.55441 0
M  V30 4112 H 419.243 -4.02703 1.82435 0
M  V30 4113 N 418.302 -1.35869 -0.798587 0
M  V30 4114 C 419.713 -1.26498 -1.37314 0
M  V30 4115 C 420.064 0.0991899 -1.95949 0
M  V30 4116 O 419.189 1.0004 -1.91888 0
M  V30 4117 C 419.784 -2.29054 -2.49639 0
M  V30 4118 C 418.343 -2.234 -3.02935 0
M  V30 4119 C 417.49 -2.14329 -1.75949 0
M  V30 4120 H 420.441 -1.46881 -0.600971 0
M  V30 4121 H 420.462 -1.92166 -3.28409 0
M  V30 4122 H 419.974 -3.2833 -2.06933 0
M  V30 4123 H 418.075 -1.27562 -3.50084 0
M  V30 4124 H 418.188 -3.15703 -3.60372 0
M  V30 4125 H 416.552 -1.60435 -1.9782 0
M  V30 4126 H 417.335 -3.15477 -1.35384 0
M  V30 4127 N 419.78 1.02168 -1.19998 0
M  V30 4128 C 421.028 1.75338 -1.00504 0
M  V30 4129 C 421.349 1.89387 0.464506 0
M  V30 4130 O 420.619 1.43268 1.33608 0
M  V30 4131 H 419.199 0.649564 -0.368885 0
M  V30 4132 H 421.861 1.23205 -1.51018 0
M  V30 4133 H 420.957 2.75892 -1.45912 0
M  V30 4134 N 421.258 1.00505 1.21394 0
M  V30 4135 C 422.669 0.721082 1.72213 0
M  V30 4136 C 423.02 -0.761263 1.80829 0
M  V30 4137 O 422.145 -1.59464 1.46288 0
M  V30 4138 C 422.74 1.30228 3.12772 0
M  V30 4139 C 421.299 1.06743 3.60947 0
M  V30 4140 C 420.446 1.41507 2.38477 0
M  V30 4141 H 423.397 1.17594 1.06571 0
M  V30 4142 H 423.418 0.686955 3.74247 0
M  V30 4143 H 422.93 2.38115 3.06468 0
M  V30 4144 H 421.031 0.00572162 3.726 0
M  V30 4145 H 421.144 1.73936 4.46411 0
M  V30 4146 H 419.508 0.833852 2.40664 0
M  V30 4147 H 420.291 2.50424 2.34824 0
M  V30 4148 N 422.737 -1.36956 0.779787 0
M  V30 4149 C 424.148 -1.82094 0.412156 0
M  V30 4150 C 424.499 -1.64926 -1.06273 0
M  V30 4151 O 423.624 -1.16483 -1.82375 0
M  V30 4152 C 424.219 -3.3059 0.741319 0
M  V30 4153 C 422.778 -3.73974 0.426641 0
M  V30 4154 C 421.925 -2.59368 0.980987 0
M  V30 4155 H 424.876 -1.25314 0.973758 0
M  V30 4156 H 424.897 -3.80489 0.028887 0
M  V30 4157 H 424.409 -3.43054 1.81482 0
M  V30 4158 H 422.51 -3.67076 -0.639215 0
M  V30 4159 H 422.623 -4.69778 0.940515 0
M  V30 4160 H 420.987 -2.51463 0.404757 0
M  V30 4161 H 421.77 -2.74621 2.06005 0
M  V30 4162 N 424.215 -0.530993 -1.48385 0
M  V30 4163 C 425.463 0.00273189 -2.021 0
M  V30 4164 C 425.784 1.34672 -1.41027 0
M  V30 4165 O 425.054 1.8724 -0.576012 0
M  V30 4166 H 423.634 0.00399774 -0.746989 0
M  V30 4167 H 426.296 -0.695054 -1.82085 0
M  V30 4168 H 425.392 0.11031 -3.11905 0
M  V30 4169 N 425.693 1.55336 -0.266172 0
M  V30 4170 C 427.104 1.85236 0.233315 0
M  V30 4171 C 427.455 1.18816 1.56132 0
M  V30 4172 O 426.58 0.473307 2.11161 0
M  V30 4173 C 427.175 3.36059 0.430113 0
M  V30 4174 C 425.734 3.66116 0.873842 0
M  V30 4175 C 424.881 2.77274 -0.0380016 0
M  V30 4176 H 427.832 1.51004 -0.488214 0
M  V30 4177 H 427.853 3.58681 1.26998 0
M  V30 4178 H 427.365 3.84373 -0.536588 0
M  V30 4179 H 425.466 3.23295 1.85233 0
M  V30 4180 H 425.579 4.73699 0.717358 0
M  V30 4181 H 423.943 2.50198 0.476759 0
M  V30 4182 H 424.726 3.284 -1.00042 0
M  V30 4183 N 427.171 -0.0066808 1.57599 0
M  V30 4184 C 428.587 -0.36267 1.55425 0
M  V30 4185 C 428.787 -1.75209 0.995187 0
M  V30 4186 O 427.843 -2.44616 0.626058 0
M  V30 4187 C 429.156 -0.244017 2.99708 0
M  V30 4188 C 430.704 -0.319451 3.11366 0
M  V30 4189 C 431.179 -0.229998 4.57422 0
M  V30 4190 N 432.67 -0.288105 4.62303 0
M  V30 4191 C 433.405 -0.242127 5.72889 0
M  V30 4192 N 432.901 -0.147133 6.92644 0
M  V30 4193 N 434.694 -0.293502 5.61333 0
M  V30 4194 H 426.845 0.902314 1.92281 0
M  V30 4195 H 429.108 0.34525 0.882896 0
M  V30 4196 H 428.814 0.711678 3.44424 0
M  V30 4197 H 428.688 -1.02877 3.629 0
M  V30 4198 H 431.075 -1.26559 2.66584 0
M  V30 4199 H 431.156 0.495055 2.50964 0
M  V30 4200 H 430.8 0.712566 5.02877 0
M  V30 4201 H 430.73 -1.0629 5.15761 0
M  V30 4202 H 433.221 -0.363126 3.76151 0
M  V30 4203 H 433.534 -0.117763 7.7271 0
M  V30 4204 H 431.879 -0.112857 6.94908 0
M  V30 4205 H 435.07 -0.365864 4.66668 0
M  V30 4206 H 435.243 -0.254204 6.47501 0
M  V30 4207 N 428.649 -1.55105 -0.279332 0
M  V30 4208 C 429.874 -1.7976 -1.03446 0
M  V30 4209 C 430.299 -0.565952 -1.79384 0
M  V30 4210 O 429.657 0.484259 -1.74713 0
M  V30 4211 C 429.705 -3.0179 -1.97371 0
M  V30 4212 O 428.809 -2.76432 -3.06038 0
M  V30 4213 H 428.15 -0.594334 -0.29608 0
M  V30 4214 H 430.68 -2.02235 -0.310165 0
M  V30 4215 H 430.69 -3.30351 -2.39441 0
M  V30 4216 H 429.365 -3.91085 -1.4151 0
M  V30 4217 H 427.942 -2.58949 -2.68328 0
M  V30 4218 N 430.127 0.543554 -1.4793 0
M  V30 4219 C 431.538 1.12561 -1.48953 0
M  V30 4220 C 431.889 1.94578 -0.251754 0
M  V30 4221 O 431.014 2.0665 0.642255 0
M  V30 4222 C 431.609 2.04801 -2.69892 0
M  V30 4223 C 430.168 2.58251 -2.73831 0
M  V30 4224 C 429.315 1.34918 -2.42265 0
M  V30 4225 H 432.266 0.32947 -1.55242 0
M  V30 4226 H 432.287 2.88886 -2.47639 0
M  V30 4227 H 431.799 1.4508 -3.59963 0
M  V30 4228 H 429.9 3.21732 -1.87934 0
M  V30 4229 H 430.013 2.98312 -3.74895 0
M  V30 4230 H 428.377 1.66046 -1.93134 0
M  V30 4231 H 429.16 0.769693 -3.3456 0
M  V30 4232 N 431.605 1.3629 0.791371 0
M  V30 4233 C 432.537 1.26321 1.91248 0
M  V30 4234 C 433.55 0.18313 1.61767 0
M  V30 4235 O 434.739 0.437682 1.73051 0
M  V30 4236 C 431.839 0.925901 3.26007 0
M  V30 4237 C 431.012 2.10746 3.83281 0
M  V30 4238 C 430.071 1.74352 4.96475 0
M  V30 4239 O 429.097 2.46416 5.13096 0
M  V30 4240 N 430.299 0.676058 5.7655 0
M  V30 4241 H 433.064 2.22915 2.00323 0
M  V30 4242 H 430.625 1.29659 0.969546 0
M  V30 4243 H 432.617 0.663636 3.99222 0
M  V30 4244 H 431.187 0.0491581 3.12561 0
M  V30 4245 H 430.407 2.53264 3.02077 0
M  V30 4246 H 431.695 2.8969 4.18279 0
M  V30 4247 H 431.093 0.0776467 5.65647 0
M  V30 4248 H 429.65 0.473612 6.50077 0
M  V30 4249 N 433.083 -1.0153 1.20538 0
M  V30 4250 C 434.499 -1.27461 0.96051 0
M  V30 4251 C 434.699 -1.98273 -0.359193 0
M  V30 4252 O 433.755 -2.27886 -1.0874 0
M  V30 4253 C 435.068 -2.10837 2.14402 0
M  V30 4254 C 436.616 -2.24099 2.18515 0
M  V30 4255 C 437.091 -3.10852 3.36355 0
M  V30 4256 N 438.582 -3.18441 3.36377 0
M  V30 4257 C 439.317 -3.85795 4.24205 0
M  V30 4258 N 438.813 -4.55264 5.22213 0
M  V30 4259 N 440.606 -3.82331 4.12043 0
M  V30 4260 H 432.757 -0.539907 2.05423 0
M  V30 4261 H 435.02 -0.30092 0.898972 0
M  V30 4262 H 434.726 -1.66144 3.09983 0
M  V30 4263 H 434.6 -3.11576 2.12604 0
M  V30 4264 H 436.987 -2.68016 1.23497 0
M  V30 4265 H 437.068 -1.22865 2.24361 0
M  V30 4266 H 436.712 -2.6764 4.31661 0
M  V30 4267 H 436.642 -4.12177 3.27746 0
M  V30 4268 H 439.133 -2.68978 2.65442 0
M  V30 4269 H 439.446 -5.04331 5.85551 0
M  V30 4270 H 437.791 -4.54085 5.26148 0
M  V30 4271 H 440.982 -3.27207 3.34743 0
M  V30 4272 H 441.155 -4.34547 4.807 0
M  V30 4273 N 434.561 -1.01147 -1.20859 0
M  V30 4274 C 435.471 -0.58686 -2.27141 0
M  V30 4275 C 436.487 0.373198 -1.69951 0
M  V30 4276 O 437.663 0.235423 -2.00019 0
M  V30 4277 C 434.728 0.0733602 -3.46622 0
M  V30 4278 C 433.789 -0.931995 -4.19061 0
M  V30 4279 C 433.022 -0.303186 -5.32838 0
M  V30 4280 O 433.245 0.898395 -5.63281 0
M  V30 4281 O 432.179 -1.01735 -5.9324 0
M  V30 4282 H 436.005 -1.47155 -2.65667 0
M  V30 4283 H 433.59 -0.780689 -1.2738 0
M  V30 4284 H 435.472 0.442333 -4.19072 0
M  V30 4285 H 434.147 0.932329 -3.09983 0
M  V30 4286 H 433.054 -1.35224 -3.48805 0
M  V30 4287 H 434.387 -1.76076 -4.59628 0
M  V30 4288 N 436.039 1.36541 -0.78704 0
M  V30 4289 C 437.45 1.81873 -0.421807 0
M  V30 4290 C 437.801 1.65487 1.05397 0
M  V30 4291 O 436.926 1.17448 1.81755 0
M  V30 4292 C 437.521 3.30192 -0.758841 0
M  V30 4293 C 436.08 3.73743 -0.446468 0
M  V30 4294 C 435.227 2.58844 -0.994728 0
M  V30 4295 H 438.178 1.24796 -0.98039 0
M  V30 4296 H 438.199 3.80468 -0.0490648 0
M  V30 4297 H 437.711 3.42087 -1.83299 0
M  V30 4298 H 435.812 3.6741 0.619739 0
M  V30 4299 H 435.925 4.69272 -0.965415 0
M  V30 4300 H 434.289 2.51245 -0.418087 0
M  V30 4301 H 435.072 2.73525 -2.07458 0
M  V30 4302 N 437.518 0.538854 1.48102 0
M  V30 4303 C 438.45 -0.256278 2.27763 0
M  V30 4304 C 439.463 -0.89633 1.35904 0
M  V30 4305 O 440.652 -0.773275 1.60881 0
M  V30 4306 C 437.752 -1.37896 3.09577 0
M  V30 4307 C 436.925 -0.839159 4.29275 0
M  V30 4308 C 435.984 -1.84405 4.9283 0
M  V30 4309 O 435.01 -1.39746 5.51779 0
M  V30 4310 N 436.212 -3.17666 4.85869 0
M  V30 4311 H 438.977 0.426968 2.96643 0
M  V30 4312 H 436.538 0.373747 1.57527 0
M  V30 4313 H 438.53 -2.04955 3.48963 0
M  V30 4314 H 437.1 -1.96572 2.4306 0
M  V30 4315 H 436.32 0.00769287 3.94199 0
M  V30 4316 H 437.608 -0.457548 5.06739 0
M  V30 4317 H 437.006 -3.56609 4.39143 0
M  V30 4318 H 435.563 -3.80334 5.29329 0
M  V30 4319 N 438.996 -1.55193 0.274407 0
M  V30 4320 C 440.412 -1.59401 -0.0797543 0
M  V30 4321 C 440.612 -1.29162 -1.54659 0
M  V30 4322 O 439.668 -1.05215 -2.29534 0
M  V30 4323 C 440.981 -2.99257 0.294238 0
M  V30 4324 C 442.529 -3.12072 0.240796 0
M  V30 4325 C 443.004 -4.54194 0.589218 0
M  V30 4326 N 444.495 -4.60033 0.540744 0
M  V30 4327 C 445.23 -5.68027 0.783147 0
M  V30 4328 N 444.726 -6.8417 1.09013 0
M  V30 4329 N 446.519 -5.57572 0.711993 0
M  V30 4330 H 438.67 -1.73113 1.23067 0
M  V30 4331 H 440.933 -0.807197 0.497129 0
M  V30 4332 H 440.639 -3.26217 1.31435 0
M  V30 4333 H 440.513 -3.75427 -0.365281 0
M  V30 4334 H 442.9 -2.84877 -0.770024 0
M  V30 4335 H 442.981 -2.38117 0.934563 0
M  V30 4336 H 442.625 -4.82115 1.59772 0
M  V30 4337 H 442.555 -5.26448 -0.126331 0
M  V30 4338 H 445.046 -3.76599 0.313327 0
M  V30 4339 H 445.359 -7.6243 1.26178 0
M  V30 4340 H 443.704 -6.85787 1.12789 0
M  V30 4341 H 446.895 -4.65714 0.472014 0
M  V30 4342 H 447.068 -6.41659 0.90429 0
M  V30 4343 N 440.474 -0.00167713 -1.576 0
M  V30 4344 C 441.72 0.683832 -1.90923 0
M  V30 4345 C 442.053 1.7333 -0.875799 0
M  V30 4346 O 441.328 1.94215 0.10525 0
M  V30 4347 C 441.611 1.32543 -3.3482 0
M  V30 4348 C 441.464 0.287387 -4.48881 0
M  V30 4349 C 442.783 2.25114 -3.78169 0
M  V30 4350 H 439.902 0.247125 -0.694333 0
M  V30 4351 H 442.544 -0.0533149 -1.89925 0
M  V30 4352 H 440.694 1.95372 -3.35801 0
M  V30 4353 H 442.366 -0.341346 -4.60035 0
M  V30 4354 H 440.609 -0.39017 -4.32042 0
M  V30 4355 H 441.28 0.775393 -5.46527 0
M  V30 4356 H 443.756 1.723 -3.7875 0
M  V30 4357 H 442.632 2.66971 -4.79602 0
M  V30 4358 H 442.893 3.13092 -3.12131 0
M  V30 4359 N 441.952 1.55251 0.271103 0
M  V30 4360 C 443.177 1.80306 1.02491 0
M  V30 4361 C 443.602 0.575457 1.79081 0
M  V30 4362 O 442.96 -0.474987 1.74967 0
M  V30 4363 C 443.008 3.02832 1.95768 0
M  V30 4364 O 442.112 2.78051 3.04568 0
M  V30 4365 H 441.453 0.595896 0.292923 0
M  V30 4366 H 443.983 2.02397 0.299436 0
M  V30 4367 H 443.993 3.31616 2.37686 0
M  V30 4368 H 442.668 3.9183 1.39434 0
M  V30 4369 H 441.245 2.60369 2.66951 0
M  V30 4370 N 443.43 -0.535701 1.48216 0
M  V30 4371 C 444.38 -1.63688 1.58714 0
M  V30 4372 C 445.364 -1.54635 0.444615 0
M  V30 4373 O 446.556 -1.62753 0.695742 0
M  V30 4374 C 443.685 -3.02423 1.62466 0
M  V30 4375 C 442.771 -3.16601 2.82178 0
M  V30 4376 N 443.162 -3.00771 4.06658 0
M  V30 4377 C 441.46 -3.47645 2.79391 0
M  V30 4378 C 442.161 -3.18213 4.86945 0
M  V30 4379 N 441.137 -3.45528 4.19656 0
M  V30 4380 H 444.939 -1.5005 2.5271 0
M  V30 4381 H 442.453 -0.741018 1.44508 0
M  V30 4382 H 444.45 -3.81517 1.6808 0
M  V30 4383 H 443.11 -3.17157 0.695826 0
M  V30 4384 H 444.121 -2.77652 4.37184 0
M  V30 4385 H 440.798 -3.68771 1.95739 0
M  V30 4386 H 442.188 -3.1076 5.95716 0
M  V30 4387 N 444.908 -1.36708 -0.784132 0
M  V30 4388 C 445.818 -1.3363 -1.92822 0
M  V30 4389 C 446.834 -0.237686 -1.72369 0
M  V30 4390 O 448.01 -0.470962 -1.95816 0
M  V30 4391 C 445.075 -1.13011 -3.27764 0
M  V30 4392 C 444.136 -2.32397 -3.60957 0
M  V30 4393 C 443.369 -2.12752 -4.89461 0
M  V30 4394 O 443.592 -1.10541 -5.59586 0
M  V30 4395 O 442.526 -3.00653 -5.21432 0
M  V30 4396 H 446.352 -2.29964 -1.98369 0
M  V30 4397 H 443.937 -1.1731 -0.925136 0
M  V30 4398 H 445.819 -1.03451 -4.08504 0
M  V30 4399 H 444.494 -0.19743 -3.23097 0
M  V30 4400 H 443.401 -2.47527 -2.80502 0
M  V30 4401 H 444.734 -3.2419 -3.70354 0
M  V30 4402 N 446.386 1.0089 -1.21074 0
M  V30 4403 C 447.318 2.09737 -0.924291 0
M  V30 4404 C 448.331 1.62546 0.0909809 0
M  V30 4405 O 449.52 1.77942 -0.141021 0
M  V30 4406 C 446.62 3.36922 -0.36559 0
M  V30 4407 C 445.793 4.13216 -1.43426 0
M  V30 4408 C 444.852 5.18696 -0.885496 0
M  V30 4409 O 443.878 5.47176 -1.56801 0
M  V30 4410 N 445.08 5.79718 0.301227 0
M  V30 4411 H 447.845 2.34895 -1.8613 0
M  V30 4412 H 445.406 1.17341 -1.11546 0
M  V30 4413 H 447.398 4.04697 0.0158407 0
M  V30 4414 H 445.968 3.08952 0.476149 0
M  V30 4415 H 445.188 3.40301 -1.9897 0
M  V30 4416 H 446.476 4.60967 -2.15376 0
M  V30 4417 H 445.874 5.58926 0.872849 0
M  V30 4418 H 444.431 6.48804 0.624211 0
M  V30 4419 N 447.864 1.01787 1.20321 0
M  V30 4420 C 449.111 0.707936 1.89722 0
M  V30 4421 C 449.439 -0.762535 1.78929 0
M  V30 4422 O 448.694 -1.56977 1.16861 0
M  V30 4423 C 448.993 1.09076 3.40349 0
M  V30 4424 C 448.659 2.55765 3.71342 0
M  V30 4425 C 447.321 2.95845 3.79511 0
M  V30 4426 C 449.673 3.50723 3.85542 0
M  V30 4427 C 447.001 4.2982 3.99339 0
M  V30 4428 C 449.353 4.84387 4.06881 0
M  V30 4429 C 448.017 5.24172 4.1328 0
M  V30 4430 H 447.287 0.259052 0.694243 0
M  V30 4431 H 449.934 1.27868 1.42555 0
M  V30 4432 H 448.239 0.438453 3.89339 0
M  V30 4433 H 449.936 0.828636 3.92345 0
M  V30 4434 H 446.526 2.2371 3.65584 0
M  V30 4435 H 450.71 3.20916 3.78585 0
M  V30 4436 H 445.966 4.60196 4.02529 0
M  V30 4437 H 450.14 5.57891 4.1681 0
M  V30 4438 H 447.767 6.27997 4.28396 0
M  V30 4439 N 449.342 -1.36122 0.79427 0
M  V30 4440 C 450.758 -1.5232 0.476525 0
M  V30 4441 C 450.958 -1.74685 -1.00436 0
M  V30 4442 O 450.014 -1.78115 -1.78973 0
M  V30 4443 C 451.327 -2.70607 1.31119 0
M  V30 4444 C 452.875 -2.8448 1.30537 0
M  V30 4445 C 453.35 -4.05778 2.12387 0
M  V30 4446 N 454.841 -4.12933 2.09859 0
M  V30 4447 C 455.576 -5.05876 2.69957 0
M  V30 4448 N 455.072 -6.04232 3.38934 0
M  V30 4449 N 456.865 -4.98528 2.59665 0
M  V30 4450 H 449.016 -1.1986 1.75349 0
M  V30 4451 H 451.279 -0.585418 0.745647 0
M  V30 4452 H 450.985 -2.60619 2.36158 0
M  V30 4453 H 450.859 -3.64888 0.955843 0
M  V30 4454 H 453.246 -2.93927 0.262876 0
M  V30 4455 H 453.327 -1.91093 1.70051 0
M  V30 4456 H 452.971 -3.97092 3.1667 0
M  V30 4457 H 452.901 -4.98323 1.70242 0
M  V30 4458 H 455.392 -3.42515 1.59662 0
M  V30 4459 H 455.705 -6.71724 3.82109 0
M  V30 4460 H 454.05 -6.04443 3.43036 0
M  V30 4461 H 457.241 -4.20641 2.05375 0
M  V30 4462 H 457.414 -5.70773 3.06793 0
M  V30 4463 N 450.82 -0.546701 -1.47814 0
M  V30 4464 C 451.783 0.196287 -2.28358 0
M  V30 4465 C 452.783 0.852437 -1.36346 0
M  V30 4466 O 453.973 0.709913 -1.59078 0
M  V30 4467 C 451.105 1.28579 -3.15722 0
M  V30 4468 H 452.298 -0.511086 -2.95513 0
M  V30 4469 H 449.851 -0.303248 -1.5333 0
M  V30 4470 H 450.586 2.0259 -2.53235 0
M  V30 4471 H 450.371 0.820229 -3.83425 0
M  V30 4472 H 451.861 1.80793 -3.76435 0
M  V30 4473 N 452.299 1.55045 -0.282633 0
M  V30 4474 C 453.262 2.21515 0.588539 0
M  V30 4475 C 454.262 1.19535 1.07554 0
M  V30 4476 O 455.452 1.44391 0.974514 0
M  V30 4477 C 452.584 2.88704 1.8128 0
M  V30 4478 H 453.777 2.99899 0.00806397 0
M  V30 4479 H 451.33 1.56265 -0.0333067 0
M  V30 4480 H 452.065 2.14352 2.43359 0
M  V30 4481 H 451.85 3.63443 1.47144 0
M  V30 4482 H 453.34 3.39465 2.43214 0
M  V30 4483 N 453.777 0.010035 1.57597 0
M  V30 4484 C 454.707 -0.976857 2.12084 0
M  V30 4485 C 455.688 -1.35191 1.03235 0
M  V30 4486 O 456.873 -1.43389 1.3097 0
M  V30 4487 C 454.003 -2.26548 2.63236 0
M  V30 4488 C 452.957 -2.03175 3.76701 0
M  V30 4489 C 452.283 -3.38138 4.14206 0
M  V30 4490 C 453.583 -1.38625 5.03568 0
M  V30 4491 H 455.277 -0.523145 2.94794 0
M  V30 4492 H 452.823 -0.250195 1.4181 0
M  V30 4493 H 454.776 -2.95952 2.99984 0
M  V30 4494 H 453.5 -2.74051 1.77661 0
M  V30 4495 H 452.159 -1.36195 3.40362 0
M  V30 4496 H 451.807 -3.83363 3.25641 0
M  V30 4497 H 451.507 -3.23312 4.90656 0
M  V30 4498 H 453.031 -4.08841 4.53521 0
M  V30 4499 H 454.445 -1.98 5.38023 0
M  V30 4500 H 452.842 -1.34256 5.84889 0
M  V30 4501 H 453.912 -0.356722 4.83586 0
M  V30 4502 N 455.255 -1.55392 -0.262866 0
M  V30 4503 C 456.187 -1.85392 -1.34768 0
M  V30 4504 C 457.2 -0.739069 -1.45057 0
M  V30 4505 O 458.389 -1.01703 -1.46693 0
M  V30 4506 C 455.489 -2.01088 -2.72795 0
M  V30 4507 C 454.662 -3.31828 -2.84972 0
M  V30 4508 C 453.721 -3.37464 -4.03738 0
M  V30 4509 O 452.747 -4.10778 -3.94018 0
M  V30 4510 N 453.949 -2.65599 -5.16176 0
M  V30 4511 H 456.714 -2.79029 -1.09375 0
M  V30 4512 H 454.275 -1.55434 -0.452981 0
M  V30 4513 H 456.267 -2.02217 -3.50557 0
M  V30 4514 H 454.837 -1.1427 -2.90966 0
M  V30 4515 H 454.057 -3.43152 -1.94012 0
M  V30 4516 H 455.345 -4.18032 -2.90045 0
M  V30 4517 H 454.743 -2.05736 -5.26962 0
M  V30 4518 H 453.3 -2.72439 -5.92132 0
M  V30 4519 N 456.733 0.527833 -1.48498 0
M  V30 4520 C 457.663 1.64136 -1.66077 0
M  V30 4521 C 458.644 1.62286 -0.509625 0
M  V30 4522 O 459.829 1.79449 -0.742413 0
M  V30 4523 C 456.959 3.02717 -1.70234 0
M  V30 4524 C 455.913 3.19426 -2.8487 0
M  V30 4525 C 455.239 4.5909 -2.74118 0
M  V30 4526 C 456.539 3.01993 -4.26142 0
M  V30 4527 H 458.233 1.4968 -2.593 0
M  V30 4528 H 455.779 0.718654 -1.24785 0
M  V30 4529 H 457.732 3.80491 -1.8112 0
M  V30 4530 H 456.456 3.18201 -0.735911 0
M  V30 4531 H 455.115 2.4407 -2.73542 0
M  V30 4532 H 454.763 4.71413 -1.7544 0
M  V30 4533 H 454.463 4.71214 -3.51042 0
M  V30 4534 H 455.987 5.3896 -2.86974 0
M  V30 4535 H 457.401 3.69558 -4.38292 0
M  V30 4536 H 455.798 3.2561 -5.04082 0
M  V30 4537 H 456.868 1.98396 -4.42456 0
M  V30 4538 N 458.211 1.37122 0.776871 0
M  V30 4539 C 459.457 1.32243 1.53752 0
M  V30 4540 C 459.79 -0.0944745 1.9397 0
M  V30 4541 O 459.065 -1.05068 1.6368 0
M  V30 4542 C 459.348 2.25681 2.80607 0
M  V30 4543 C 459.201 3.76127 2.46676 0
M  V30 4544 C 460.52 2.17657 3.82509 0
M  V30 4545 H 457.639 0.481704 0.557791 0
M  V30 4546 H 460.281 1.6778 0.891612 0
M  V30 4547 H 458.431 1.95505 3.35723 0
M  V30 4548 H 460.103 4.16877 1.97513 0
M  V30 4549 H 458.346 3.94946 1.79443 0
M  V30 4550 H 459.017 4.36933 3.37333 0
M  V30 4551 H 461.493 2.44245 3.36873 0
M  V30 4552 H 460.369 2.85185 4.69 0
M  V30 4553 H 460.63 1.16785 4.26396 0
M  V30 4554 N 459.689 -1.00246 1.21608 0
M  V30 4555 C 460.935 -1.74319 1.03638 0
M  V30 4556 C 461.268 -1.89408 -0.428749 0
M  V30 4557 O 460.543 -1.43026 -1.3181 0
M  V30 4558 C 460.826 -3.15431 1.73711 0
M  V30 4559 C 460.679 -3.08049 3.27759 0
M  V30 4560 C 461.998 -4.14407 1.48173 0
M  V30 4561 H 459.117 -0.632741 0.377899 0
M  V30 4562 H 461.759 -1.16853 1.49818 0
M  V30 4563 H 459.909 -3.64493 1.34452 0
M  V30 4564 H 461.581 -2.66681 3.76403 0
M  V30 4565 H 459.824 -2.45088 3.57931 0
M  V30 4566 H 460.495 -4.07862 3.71958 0
M  V30 4567 H 462.971 -3.74061 1.82258 0
M  V30 4568 H 461.847 -5.11279 1.99713 0
M  V30 4569 H 462.108 -4.40174 0.412273 0
M  V30 4570 N 461.167 -1.02423 -1.1978 0
M  V30 4571 C 462.444 -0.632802 -1.85081 0
M  V30 4572 C 462.824 0.888745 -1.9148 0
M  V30 4573 O 462.172 1.78357 -1.42832 0
M  V30 4574 C 462.382 -1.28947 -3.24305 0
M  V30 4575 C 463.73 -1.40976 -4.00513 0
M  V30 4576 O 464.754 -1.24628 -3.33686 0
M  V30 4577 O 463.613 -1.67467 -5.20209 0
M  V30 4578 H 460.707 -0.219348 -0.79738 0
M  V30 4579 H 463.253 -1.12209 -1.27307 0
M  V30 4580 H 462.025 -2.3288 -3.14456 0
M  V30 4581 H 461.648 -0.787748 -3.89718 0
M  V30 4582 N 462.645 1.35699 -0.801477 0
M  V30 4583 C 464.056 1.81415 -0.441073 0
M  V30 4584 C 464.407 1.66595 1.03636 0
M  V30 4585 O 463.532 1.19369 1.80499 0
M  V30 4586 C 464.127 3.29369 -0.793819 0
M  V30 4587 C 462.686 3.73248 -0.486083 0
M  V30 4588 C 461.833 2.57775 -1.02213 0
M  V30 4589 H 464.784 1.23749 -0.993572 0
M  V30 4590 H 464.805 3.80395 -0.0894158 0
M  V30 4591 H 464.317 3.40123 -1.86917 0
M  V30 4592 H 462.418 3.68046 0.580735 0
M  V30 4593 H 462.531 4.68222 -1.01513 0
M  V30 4594 H 460.895 2.50788 -0.444712 0
M  V30 4595 H 461.678 2.71309 -2.10348 0
M  V30 4596 N 464.123 0.554532 1.47522 0
M  V30 4597 C 465.371 0.0294208 2.02079 0
M  V30 4598 C 465.692 -1.32411 1.43151 0
M  V30 4599 O 464.962 -1.863 0.605728 0
M  V30 4600 H 463.542 0.00788672 0.746958 0
M  V30 4601 H 466.204 0.723934 1.80956 0
M  V30 4602 H 465.3 -0.0606745 3.12041 0
M  V30 4603 N 465.601 -1.54893 0.290851 0
M  V30 4604 C 466.878 -1.91991 -0.373989 0
M  V30 4605 C 467.258 -1.21694 -1.72493 0
M  V30 4606 O 466.606 -0.34917 -2.25816 0
M  V30 4607 C 466.816 -3.45419 -0.498703 0
M  V30 4608 C 468.164 -4.1748 -0.774298 0
M  V30 4609 O 469.188 -3.51398 -0.582908 0
M  V30 4610 O 468.047 -5.3445 -1.14129 0
M  V30 4611 H 465.141 -0.800593 -0.207315 0
M  V30 4612 H 467.687 -1.66297 0.338164 0
M  V30 4613 H 466.459 -3.88688 0.451392 0
M  V30 4614 H 466.082 -3.77117 -1.25972 0
M  V30 4615 N 467.08 -0.0183926 -1.57589 0
M  V30 4616 C 468.491 0.521927 -1.79256 0
M  V30 4617 C 468.842 1.72885 -0.927636 0
M  V30 4618 O 467.967 2.15978 -0.135091 0
M  V30 4619 C 468.562 0.953632 -3.25102 0
M  V30 4620 C 467.121 1.43913 -3.47801 0
M  V30 4621 C 466.268 0.398837 -2.74417 0
M  V30 4622 H 469.219 -0.244485 -1.56805 0
M  V30 4623 H 469.24 1.81863 -3.34224 0
M  V30 4624 H 468.752 0.0750123 -3.88028 0
M  V30 4625 H 466.853 2.33804 -2.90115 0
M  V30 4626 H 466.966 1.45391 -4.56507 0
M  V30 4627 H 465.33 0.864572 -2.39577 0
M  V30 4628 H 466.113 -0.471132 -3.40052 0
M  V30 4629 N 468.558 1.5553 0.254621 0
M  V30 4630 C 469.974 1.4778 0.602753 0
M  V30 4631 C 470.174 0.707047 1.88688 0
M  V30 4632 O 469.23 0.233288 2.5142 0
M  V30 4633 C 470.543 2.92133 0.712648 0
M  V30 4634 C 472.091 3.02458 0.805488 0
M  V30 4635 C 472.566 4.48102 0.947009 0
M  V30 4636 N 474.057 4.52008 1.01207 0
M  V30 4637 C 474.792 5.61939 1.1407 0
M  V30 4638 N 474.288 6.81697 1.23536 0
M  V30 4639 N 476.081 5.49719 1.17325 0
M  V30 4640 H 468.232 2.04085 -0.588463 0
M  V30 4641 H 470.495 0.926229 -0.202001 0
M  V30 4642 H 470.201 3.51332 -0.160766 0
M  V30 4643 H 470.075 3.42187 1.58707 0
M  V30 4644 H 472.462 2.43344 1.66936 0
M  V30 4645 H 472.543 2.55627 -0.0939266 0
M  V30 4646 H 472.187 5.07824 0.087725 0
M  V30 4647 H 472.117 4.92607 1.86135 0
M  V30 4648 H 474.608 3.65749 0.950577 0
M  V30 4649 H 474.921 7.61228 1.33236 0
M  V30 4650 H 473.266 6.84473 1.20508 0
M  V30 4651 H 476.457 4.55095 1.09573 0
M  V30 4652 H 476.63 6.35432 1.27005 0
M  V30 4653 N 470.036 -0.519951 1.48776 0
M  V30 4654 C 471.261 -1.30447 1.6124 0
M  V30 4655 C 471.686 -1.86055 0.276591 0
M  V30 4656 O 471.044 -1.64915 -0.753183 0
M  V30 4657 C 471.092 -2.42406 2.66967 0
M  V30 4658 O 470.196 -3.45728 2.24824 0
M  V30 4659 H 469.537 -0.385924 0.540332 0
M  V30 4660 H 472.067 -0.624572 1.94834 0
M  V30 4661 H 472.077 -2.88447 2.88552 0
M  V30 4662 H 470.752 -2.01294 3.63941 0
M  V30 4663 H 469.329 -3.05737 2.13494 0
M  V30 4664 N 471.514 -1.37532 -0.769588 0
M  V30 4665 C 472.744 -1.35861 -1.55645 0
M  V30 4666 C 473.152 0.0574398 -1.89113 0
M  V30 4667 O 472.495 1.03021 -1.52093 0
M  V30 4668 C 472.557 -2.13431 -2.89288 0
M  V30 4669 C 472.221 -3.62378 -2.78444 0
M  V30 4670 C 473.218 -4.56215 -2.49326 0
M  V30 4671 C 470.903 -4.05529 -2.96398 0
M  V30 4672 C 472.897 -5.91181 -2.38294 0
M  V30 4673 C 470.584 -5.40579 -2.84987 0
M  V30 4674 C 471.582 -6.33218 -2.55975 0
M  V30 4675 O 471.27 -7.65787 -2.44594 0
M  V30 4676 H 471.002 -0.467001 -0.48876 0
M  V30 4677 H 473.556 -1.81505 -0.961515 0
M  V30 4678 H 471.786 -1.62481 -3.50909 0
M  V30 4679 H 473.475 -2.04368 -3.50697 0
M  V30 4680 H 474.241 -4.24187 -2.35139 0
M  V30 4681 H 470.12 -3.33781 -3.1798 0
M  V30 4682 H 473.664 -6.63457 -2.15571 0
M  V30 4683 H 469.561 -5.72209 -2.98743 0
M  V30 4684 H 470.329 -7.76132 -2.59927 0
M  V30 4685 N 472.992 0.995999 -1.22138 0
M  V30 4686 C 473.922 2.10387 -1.01289 0
M  V30 4687 C 474.903 1.69975 0.0651454 0
M  V30 4688 O 476.088 1.9396 -0.0964628 0
M  V30 4689 C 473.218 3.42312 -0.586517 0
M  V30 4690 C 472.172 3.96558 -1.61014 0
M  V30 4691 C 471.498 5.24494 -1.0397 0
M  V30 4692 C 472.798 4.27595 -2.99933 0
M  V30 4693 H 474.492 2.28086 -1.93951 0
M  V30 4694 H 472.038 1.09607 -0.933928 0
M  V30 4695 H 473.991 4.19223 -0.427793 0
M  V30 4696 H 472.715 3.24431 0.375761 0
M  V30 4697 H 471.374 3.21776 -1.75658 0
M  V30 4698 H 471.022 5.02953 -0.0688703 0
M  V30 4699 H 470.722 5.61755 -1.72352 0
M  V30 4700 H 472.246 6.04042 -0.892494 0
M  V30 4701 H 473.66 4.95315 -2.8868 0
M  V30 4702 H 472.057 4.76021 -3.6541 0
M  V30 4703 H 473.127 3.35498 -3.50099 0
M  V30 4704 N 474.47 1.03057 1.19235 0
M  V30 4705 C 475.747 0.642608 1.84743 0
M  V30 4706 C 476.127 -0.878577 1.91948 0
M  V30 4707 O 475.475 -1.77597 1.43776 0
M  V30 4708 C 475.685 1.30665 3.23616 0
M  V30 4709 C 477.033 1.43098 3.9976 0
M  V30 4710 O 478.057 1.26396 3.3302 0
M  V30 4711 O 476.916 1.70223 5.19313 0
M  V30 4712 H 474.01 0.223573 0.796206 0
M  V30 4713 H 476.556 1.12883 1.26711 0
M  V30 4714 H 475.328 2.34544 3.13217 0
M  V30 4715 H 474.951 0.808405 3.89295 0
M  V30 4716 N 475.948 -1.35272 0.808662 0
M  V30 4717 C 476.896 -2.31663 0.208606 0
M  V30 4718 C 477.89 -1.56731 -0.642778 0
M  V30 4719 O 479.096 -1.71843 -0.53571 0
M  V30 4720 H 475.471 -0.750421 0.0486993 0
M  V30 4721 H 477.442 -2.79814 1.03666 0
M  V30 4722 C 476.191 -3.42008 -0.626573 0
M  V30 4723 H 475.514 -3.99795 0.0192103 0
M  V30 4724 H 476.954 -4.11727 -1.01278 0
M  V30 4725 C 475.413 -2.85226 -1.79298 0
M  V30 4726 O 475.943 -2.78945 -2.89055 0
M  V30 4727 N 474.149 -2.42245 -1.60516 0
M  V30 4728 H 473.696 -2.47554 -0.712375 0
M  V30 4729 H 473.654 -2.04603 -2.38715 0
M  V30 4730 N 477.426 -0.562348 -1.47226 0
M  V30 4731 C 478.673 -0.0402165 -2.0246 0
M  V30 4732 C 479.001 1.31169 -1.43614 0
M  V30 4733 O 478.256 1.86805 -0.5833 0
M  V30 4734 C 478.555 0.0969817 -3.57268 0
M  V30 4735 C 478.221 -1.1847 -4.35058 0
M  V30 4736 C 476.883 -1.53588 -4.56031 0
M  V30 4737 C 479.235 -2.03378 -4.79882 0
M  V30 4738 C 476.563 -2.73452 -5.19077 0
M  V30 4739 C 478.915 -3.2245 -5.44251 0
M  V30 4740 C 477.579 -3.57876 -5.63455 0
M  V30 4741 H 476.849 -0.0147163 -0.740854 0
M  V30 4742 H 479.496 -0.734895 -1.76838 0
M  V30 4743 H 477.801 0.87466 -3.81912 0
M  V30 4744 H 479.498 0.516408 -3.97661 0
M  V30 4745 H 476.088 -0.90126 -4.19017 0
M  V30 4746 H 480.272 -1.77553 -4.63453 0
M  V30 4747 H 475.528 -3.01062 -5.32139 0
M  V30 4748 H 479.702 -3.88526 -5.77945 0
M  V30 4749 H 477.329 -4.50849 -6.12078 0
M  V30 4750 N 478.904 1.54736 -0.299062 0
M  V30 4751 C 480.153 1.99279 0.311549 0
M  V30 4752 C 480.466 1.19107 1.55154 0
M  V30 4753 O 481.672 1.53908 2.23662 0
M  V30 4754 C 480.128 3.54768 0.605632 0
M  V30 4755 C 479.736 4.43746 -0.615914 0
M  V30 4756 C 481.48 4.07841 1.17754 0
M  V30 4757 C 479.387 5.90663 -0.29509 0
M  V30 4758 H 478.317 0.744359 0.120187 0
M  V30 4759 H 480.968 1.78919 -0.407464 0
M  V30 4760 H 479.35 3.71021 1.38419 0
M  V30 4761 H 480.524 4.39267 -1.39218 0
M  V30 4762 H 478.839 4.01434 -1.10633 0
M  V30 4763 H 481.436 5.15174 1.43179 0
M  V30 4764 H 481.779 3.58324 2.11918 0
M  V30 4765 H 482.312 3.95123 0.460739 0
M  V30 4766 H 479.051 6.44325 -1.20524 0
M  V30 4767 H 478.571 5.98155 0.44394 0
M  V30 4768 H 480.25 6.46916 0.104048 0
M  V30 4769 N 480.382 0.0267497 1.57577 0
M  V30 4770 C 481.329 -0.955894 2.10075 0
M  V30 4771 C 482.299 -1.32453 1.00226 0
M  V30 4772 O 483.484 -1.41826 1.27632 0
M  V30 4773 C 480.624 -2.2338 2.6305 0
M  V30 4774 C 479.737 -1.92183 3.86898 0
M  V30 4775 C 478.872 -3.14251 4.28275 0
M  V30 4776 C 477.911 -2.78862 5.44888 0
M  V30 4777 N 477.048 -3.93548 5.81433 0
M  V30 4778 H 481.888 -0.501303 2.93753 0
M  V30 4779 H 479.425 -0.235847 1.45197 0
M  V30 4780 H 481.383 -2.98124 2.91853 0
M  V30 4781 H 480.013 -2.6646 1.82205 0
M  V30 4782 H 479.065 -1.07692 3.64838 0
M  V30 4783 H 480.377 -1.62117 4.7172 0
M  V30 4784 H 479.531 -3.97317 4.58502 0
M  V30 4785 H 478.27 -3.47476 3.42215 0
M  V30 4786 H 477.275 -1.94208 5.14357 0
M  V30 4787 H 478.5 -2.46855 6.32645 0
M  V30 4788 H 476.446 -4.2662 4.98328 0
M  V30 4789 H 476.363 -3.67098 6.6089 0
M  V30 4790 H 477.631 -4.77325 6.16264 0
M  V30 4791 N 481.861 -1.55662 -0.24637 0
M  V30 4792 C 483.11 -1.7672 -0.972254 0
M  V30 4793 C 483.423 -0.59078 -1.86465 0
M  V30 4794 O 484.629 -0.684391 -2.62732 0
M  V30 4795 C 483.085 -3.12869 -1.7788 0
M  V30 4796 C 482.693 -4.38161 -0.933768 0
M  V30 4797 C 484.437 -3.43265 -2.49738 0
M  V30 4798 C 482.344 -5.6534 -1.73623 0
M  V30 4799 H 481.274 -0.658795 -0.366749 0
M  V30 4800 H 483.925 -1.82092 -0.226902 0
M  V30 4801 H 482.307 -3.01606 -2.56612 0
M  V30 4802 H 483.481 -4.60413 -0.188736 0
M  V30 4803 H 481.796 -4.15102 -0.328488 0
M  V30 4804 H 484.393 -4.35501 -3.10231 0
M  V30 4805 H 484.736 -2.64614 -3.2138 0
M  V30 4806 H 485.269 -3.55746 -1.78016 0
M  V30 4807 H 482.008 -6.46814 -1.06354 0
M  V30 4808 H 481.528 -5.47188 -2.45653 0
M  V30 4809 H 483.207 -6.04616 -2.30323 0
M  V30 4810 N 483.339 0.512053 -1.4905 0
M  V30 4811 C 484.587 1.26436 -1.57665 0
M  V30 4812 C 484.908 1.93255 -0.260293 0
M  V30 4813 O 484.178 1.82206 0.719564 0
M  V30 4814 H 482.758 0.469658 -0.580888 0
M  V30 4815 H 485.42 0.594398 -1.85615 0
M  V30 4816 H 484.516 2.03417 -2.36702 0
M  V30 4817 N 484.817 1.37938 0.762283 0
M  V30 4818 C 485.727 1.36681 1.90671 0
M  V30 4819 C 486.743 0.265078 1.71969 0
M  V30 4820 O 487.919 0.502055 1.95042 0
M  V30 4821 C 484.984 1.18211 3.25925 0
M  V30 4822 C 484.045 2.3811 3.57214 0
M  V30 4823 C 483.278 2.20512 4.86014 0
M  V30 4824 O 483.501 1.19429 5.57757 0
M  V30 4825 O 482.435 3.08911 5.16583 0
M  V30 4826 H 486.261 2.33091 1.94685 0
M  V30 4827 H 483.846 1.18767 0.906356 0
M  V30 4828 H 485.728 1.09937 4.06807 0
M  V30 4829 H 484.403 0.248807 3.22742 0
M  V30 4830 H 483.31 2.51958 2.76529 0
M  V30 4831 H 484.643 3.30041 3.65149 0
M  V30 4832 N 486.295 -0.989507 1.22664 0
M  V30 4833 C 487.543 -1.72612 1.05117 0
M  V30 4834 C 487.864 -1.90552 -0.414131 0
M  V30 4835 O 487.134 -1.4676 -1.29762 0
M  V30 4836 H 485.714 -0.639555 0.385977 0
M  V30 4837 H 488.376 -1.19158 1.54232 0
M  V30 4838 H 487.472 -2.71926 1.53175 0
M  V30 4839 N 487.773 -1.03688 -1.18687 0
M  V30 4840 C 488.998 -0.757819 -1.93059 0
M  V30 4841 C 489.423 0.678353 -1.75442 0
M  V30 4842 O 488.781 1.46938 -1.06203 0
M  V30 4843 C 488.829 -1.12423 -3.42627 0
M  V30 4844 O 487.933 -0.247505 -4.11657 0
M  V30 4845 H 487.274 -0.279245 -0.602427 0
M  V30 4846 H 489.804 -1.3857 -1.5053 0
M  V30 4847 H 489.814 -1.08454 -3.93322 0
M  V30 4848 H 488.489 -2.17049 -3.54771 0
M  V30 4849 H 487.066 -0.34649 -3.71287 0
M  V30 4850 N 489.251 1.34841 -0.815825 0
M  V30 4851 C 490.479 2.0273 -0.413294 0
M  V30 4852 C 490.894 1.61459 0.978599 0
M  V30 4853 O 490.251 0.816584 1.63212 0
M  V30 4854 C 490.302 3.58058 -0.497676 0
M  V30 4855 O 490.023 3.97832 -1.8347 0
M  V30 4856 C 491.524 4.4321 -0.0891339 0
M  V30 4857 H 488.744 0.649956 -0.166728 0
M  V30 4858 H 491.288 1.72267 -1.10201 0
M  V30 4859 H 489.443 3.87136 0.142886 0
M  V30 4860 H 489.857 4.92501 -1.80396 0
M  V30 4861 H 491.331 5.5164 -0.199274 0
M  V30 4862 H 491.808 4.28432 0.966571 0
M  V30 4863 H 492.414 4.19446 -0.703214 0
M  V30 4864 N 490.729 0.570148 1.46925 0
M  V30 4865 C 491.977 0.0508523 2.02036 0
M  V30 4866 C 492.298 -1.30885 1.44548 0
M  V30 4867 O 491.568 -1.85647 0.625453 0
M  V30 4868 H 490.148 0.0158088 0.746833 0
M  V30 4869 H 492.81 0.743086 1.80178 0
M  V30 4870 H 491.906 -0.027575 3.12088 0
M  V30 4871 N 492.207 -1.54576 0.307264 0
M  V30 4872 C 493.456 -1.99442 -0.300976 0
M  V30 4873 C 493.769 -1.19928 -1.5452 0
M  V30 4874 O 494.975 -1.55092 -2.22842 0
M  V30 4875 C 493.431 -3.55084 -0.586809 0
M  V30 4876 C 493.039 -4.43413 0.639438 0
M  V30 4877 C 494.783 -4.0846 -1.1559 0
M  V30 4878 C 492.69 -5.90499 0.326411 0
M  V30 4879 H 491.62 -0.744986 -0.116238 0
M  V30 4880 H 494.271 -1.787 0.416947 0
M  V30 4881 H 492.653 -3.71749 -1.36449 0
M  V30 4882 H 493.827 -4.38522 1.41545 0
M  V30 4883 H 492.142 -4.00842 1.1276 0
M  V30 4884 H 494.739 -5.15926 -1.40445 0
M  V30 4885 H 495.082 -3.59443 -2.10015 0
M  V30 4886 H 495.615 -3.95362 -0.439778 0
M  V30 4887 H 492.354 -6.43676 1.23939 0
M  V30 4888 H 491.874 -5.98382 -0.412212 0
M  V30 4889 H 493.553 -6.46962 -0.0697393 0
M  V30 4890 N 493.685 -0.035106 -1.57561 0
M  V30 4891 C 494.931 0.64318 -1.92331 0
M  V30 4892 C 495.264 1.71434 -0.912368 0
M  V30 4893 O 494.539 1.94395 0.0640303 0
M  V30 4894 C 494.822 1.25411 -3.37556 0
M  V30 4895 C 494.675 0.192109 -4.4939 0
M  V30 4896 C 495.994 2.17041 -3.82859 0
M  V30 4897 H 493.113 0.232341 -0.699419 0
M  V30 4898 H 495.755 -0.0935889 -1.89769 0
M  V30 4899 H 493.905 1.88205 -3.39869 0
M  V30 4900 H 495.577 -0.438849 -4.59208 0
M  V30 4901 H 493.82 -0.481725 -4.31117 0
M  V30 4902 H 494.491 0.659292 -5.48049 0
M  V30 4903 H 496.967 1.64228 -3.8232 0
M  V30 4904 H 495.843 2.56738 -4.85157 0
M  V30 4905 H 496.104 3.06401 -3.18702 0
M  V30 4906 N 495.163 1.55791 0.238111 0
M  V30 4907 C 496.403 1.79801 0.972163 0
M  V30 4908 C 496.767 0.606027 1.82185 0
M  V30 4909 O 497.968 0.725079 2.58836 0
M  V30 4910 C 496.239 3.08608 1.80266 0
M  V30 4911 S 497.798 3.53872 2.59461 0
M  V30 4912 H 494.616 0.631418 0.326852 0
M  V30 4913 H 497.218 1.94031 0.239212 0
M  V30 4914 H 495.922 3.93419 1.1683 0
M  V30 4915 H 495.453 2.9714 2.57821 0
M  V30 4916 H 497.468 3.15899 3.82651 0
M  V30 4917 N 496.642 -0.504142 1.49319 0
M  V30 4918 C 497.891 -1.25507 1.57895 0
M  V30 4919 C 498.204 -1.93735 0.269433 0
M  V30 4920 O 499.41 -2.70492 0.233706 0
M  V30 4921 C 497.866 -2.27869 2.78574 0
M  V30 4922 C 497.474 -1.65594 4.16272 0
M  V30 4923 C 499.218 -3.0381 2.96479 0
M  V30 4924 C 497.125 -2.66048 5.28178 0
M  V30 4925 H 496.055 -0.47212 0.587894 0
M  V30 4926 H 498.706 -0.52931 1.757 0
M  V30 4927 H 497.088 -3.03594 2.54257 0
M  V30 4928 H 498.262 -0.958826 4.50714 0
M  V30 4929 H 496.577 -1.02055 4.037 0
M  V30 4930 H 499.174 -3.78925 3.77253 0
M  V30 4931 H 499.517 -3.61235 2.06918 0
M  V30 4932 H 500.05 -2.352 3.20821 0
M  V30 4933 H 496.789 -2.13408 6.19788 0
M  V30 4934 H 496.309 -3.34009 4.98195 0
M  V30 4935 H 497.988 -3.28536 5.57381 0
M  V30 4936 N 498.12 -1.38341 -0.754957 0
M  V30 4937 C 499.083 -1.35262 -1.85032 0
M  V30 4938 C 500.083 -0.253393 -1.58791 0
M  V30 4939 O 501.273 -0.510205 -1.66561 0
M  V30 4940 C 498.405 -1.10544 -3.22479 0
M  V30 4941 H 499.598 -2.32712 -1.8917 0
M  V30 4942 H 497.151 -1.23614 -0.956515 0
M  V30 4943 H 497.886 -0.136952 -3.24011 0
M  V30 4944 H 497.671 -1.90127 -3.4292 0
M  V30 4945 H 499.161 -1.11082 -4.02555 0
M  V30 4946 N 499.598 0.982988 -1.23187 0
M  V30 4947 C 500.826 1.75921 -1.08901 0
M  V30 4948 C 501.241 1.85341 0.359719 0
M  V30 4949 O 500.598 1.33072 1.24892 0
M  V30 4950 C 500.649 3.18742 -1.70545 0
M  V30 4951 O 500.37 3.09814 -3.09753 0
M  V30 4952 C 501.871 4.1277 -1.61667 0
M  V30 4953 H 499.091 0.552166 -0.381252 0
M  V30 4954 H 501.635 1.23516 -1.62985 0
M  V30 4955 H 499.79 3.68182 -1.20501 0
M  V30 4956 H 500.204 3.99703 -3.39614 0
M  V30 4957 H 501.678 5.10697 -2.09506 0
M  V30 4958 H 502.155 4.3542 -0.575009 0
M  V30 4959 H 502.761 3.69232 -2.11064 0
M  V30 4960 N 501.076 1.04316 1.18135 0
M  V30 4961 C 502.322 0.749128 1.88457 0
M  V30 4962 C 502.655 -0.72149 1.803 0
M  V30 4963 O 501.93 -1.52676 1.205 0
M  V30 4964 C 502.213 1.21905 3.38838 0
M  V30 4965 C 502.066 2.75195 3.55792 0
M  V30 4966 C 503.385 0.811085 4.32561 0
M  V30 4967 H 500.504 0.273611 0.684329 0
M  V30 4968 H 503.146 1.29561 1.38975 0
M  V30 4969 H 501.296 0.754137 3.8111 0
M  V30 4970 H 502.968 3.29743 3.22595 0
M  V30 4971 H 501.211 3.14899 2.98364 0
M  V30 4972 H 501.882 3.03135 4.61317 0
M  V30 4973 H 504.358 1.21118 3.98082 0
M  V30 4974 H 503.234 1.16761 5.36338 0
M  V30 4975 H 503.495 -0.285596 4.41177 0
M  V30 4976 N 502.554 -1.34406 0.822964 0
M  V30 4977 C 503.97 -1.51275 0.508727 0
M  V30 4978 C 504.17 -1.76776 -0.967083 0
M  V30 4979 O 503.226 -1.81871 -1.75155 0
M  V30 4980 C 504.539 -2.67765 1.36829 0
M  V30 4981 C 506.087 -2.81647 1.36542 0
M  V30 4982 C 506.562 -4.01181 2.20947 0
M  V30 4983 N 508.053 -4.08388 2.18571 0
M  V30 4984 C 508.788 -5.00036 2.80627 0
M  V30 4985 N 508.284 -5.96906 3.51674 0
M  V30 4986 N 510.077 -4.92908 2.70181 0
M  V30 4987 H 502.228 -1.16113 1.77852 0
M  V30 4988 H 504.491 -0.56947 0.757897 0
M  V30 4989 H 504.197 -2.55551 2.41633 0
M  V30 4990 H 504.071 -3.62779 1.03303 0
M  V30 4991 H 506.458 -2.93303 0.325163 0
M  V30 4992 H 506.539 -1.87443 1.74066 0
M  V30 4993 H 506.183 -3.90286 3.25022 0
M  V30 4994 H 506.113 -4.94599 1.80774 0
M  V30 4995 H 508.604 -3.39051 1.66891 0
M  V30 4996 H 508.917 -6.63468 3.96271 0
M  V30 4997 H 507.262 -5.9703 3.5578 0
M  V30 4998 H 510.453 -4.1619 2.14251 0
M  V30 4999 H 510.626 -5.64137 3.18831 0
M  V30 5000 N 504.032 -0.577932 -1.46621 0
M  V30 5001 C 505.257 -0.0652536 -2.07297 0
M  V30 5002 C 505.682 1.22828 -1.4246 0
M  V30 5003 O 505.04 1.74075 -0.506718 0
M  V30 5004 C 505.088 0.0920589 -3.60482 0
M  V30 5005 O 504.192 1.14972 -3.96049 0
M  V30 5006 H 503.533 -0.06065 -0.661224 0
M  V30 5007 H 506.063 -0.799515 -1.88332 0
M  V30 5008 H 506.073 0.299741 -4.06897 0
M  V30 5009 H 504.748 -0.852612 -4.07067 0
M  V30 5010 H 503.325 0.920879 -3.61351 0
M  V30 5011 N 505.51 1.54411 -0.315457 0
M  V30 5012 C 506.735 2.05299 0.294496 0
M  V30 5013 C 507.16 1.19052 1.4563 0
M  V30 5014 O 506.518 0.197804 1.80218 0
M  V30 5015 C 506.566 3.5345 0.714549 0
M  V30 5016 O 505.67 3.70175 1.81781 0
M  V30 5017 H 505.011 0.661743 0.0547019 0
M  V30 5018 H 507.541 1.99327 -0.461508 0
M  V30 5019 H 507.551 3.9557 0.999426 0
M  V30 5020 H 506.226 4.1568 -0.135244 0
M  V30 5021 H 504.803 3.3996 1.53236 0
M  V30 5022 N 506.988 0.0434614 1.5754 0
M  V30 5023 C 508.236 -0.630786 1.92004 0
M  V30 5024 C 508.557 -1.71836 0.921807 0
M  V30 5025 O 507.827 -1.9587 -0.034522 0
M  V30 5026 H 506.407 -0.235988 0.708745 0
M  V30 5027 H 509.069 0.0946462 1.9467 0
M  V30 5028 H 508.165 -1.07434 2.93026 0
M  V30 5029 N 508.466 -1.55915 -0.229846 0
M  V30 5030 C 509.413 -1.91734 -1.28478 0
M  V30 5031 C 510.383 -0.773539 -1.46988 0
M  V30 5032 O 511.568 -1.02871 -1.60693 0
M  V30 5033 C 508.708 -2.23224 -2.63182 0
M  V30 5034 C 507.821 -3.50497 -2.52539 0
M  V30 5035 C 506.956 -3.71474 -3.79711 0
M  V30 5036 C 505.995 -4.92289 -3.63755 0
M  V30 5037 N 505.132 -5.09698 -4.82858 0
M  V30 5038 H 509.972 -2.81692 -0.972308 0
M  V30 5039 H 507.509 -1.39429 -0.468815 0
M  V30 5040 H 509.467 -2.3949 -3.41614 0
M  V30 5041 H 508.097 -1.36451 -2.92542 0
M  V30 5042 H 507.149 -3.4247 -1.65585 0
M  V30 5043 H 508.461 -4.39079 -2.36666 0
M  V30 5044 H 507.615 -3.87791 -4.66586 0
M  V30 5045 H 506.354 -2.81157 -3.985 0
M  V30 5046 H 505.359 -4.7593 -2.75264 0
M  V30 5047 H 506.584 -5.84083 -3.46445 0
M  V30 5048 H 504.53 -4.22322 -5.01976 0
M  V30 5049 H 504.447 -5.92399 -4.69681 0
M  V30 5050 H 505.715 -5.30443 -5.71183 0
M  V30 5051 N 509.944 0.496216 -1.49584 0
M  V30 5052 C 510.874 1.60576 -1.69521 0
M  V30 5053 C 511.855 1.61169 -0.543933 0
M  V30 5054 O 513.04 1.77834 -0.78031 0
M  V30 5055 C 510.17 2.99038 -1.76616 0
M  V30 5056 C 509.124 3.13312 -2.91581 0
M  V30 5057 C 508.45 4.53172 -2.83794 0
M  V30 5058 C 509.75 2.92886 -4.32452 0
M  V30 5059 H 511.444 1.44146 -2.62416 0
M  V30 5060 H 508.99 0.692024 -1.26282 0
M  V30 5061 H 510.943 3.76564 -1.8915 0
M  V30 5062 H 509.667 3.16568 -0.80324 0
M  V30 5063 H 508.326 2.38213 -2.78658 0
M  V30 5064 H 507.974 4.67585 -1.854 0
M  V30 5065 H 507.674 4.63662 -3.60958 0
M  V30 5066 H 509.198 5.32752 -2.98342 0
M  V30 5067 H 510.612 3.60178 -4.46032 0
M  V30 5068 H 509.009 3.14844 -5.10875 0
M  V30 5069 H 510.079 1.88966 -4.46565 0
M  V30 5070 N 511.423 1.38739 0.74761 0
M  V30 5071 C 512.669 1.35475 1.50912 0
M  V30 5072 C 513.002 -0.0533093 1.94127 0
M  V30 5073 O 512.277 -1.01572 1.65871 0
M  V30 5074 C 512.56 2.31582 2.75757 0
M  V30 5075 C 512.413 3.81274 2.38642 0
M  V30 5076 C 513.732 2.25722 3.77806 0
M  V30 5077 H 510.851 0.493427 0.547447 0
M  V30 5078 H 513.493 1.69634 0.855823 0
M  V30 5079 H 511.643 2.02582 3.31501 0
M  V30 5080 H 513.315 4.20972 1.88626 0
M  V30 5081 H 511.558 3.98664 1.71025 0
M  V30 5082 H 512.229 4.4399 3.27989 0
M  V30 5083 H 514.705 2.51336 3.31616 0
M  V30 5084 H 513.581 2.95069 4.62845 0
M  V30 5085 H 513.842 1.25803 4.23823 0
M  V30 5086 N 512.901 -0.976442 1.23707 0
M  V30 5087 C 513.864 -2.0511 1.02287 0
M  V30 5088 C 514.864 -1.60791 -0.0167195 0
M  V30 5089 O 516.054 -1.72761 0.223408 0
M  V30 5090 C 513.186 -3.36458 0.548507 0
M  V30 5091 H 514.379 -2.25545 1.9766 0
M  V30 5092 H 511.932 -1.15042 1.05806 0
M  V30 5093 H 512.667 -3.21713 -0.408818 0
M  V30 5094 H 512.452 -3.69967 1.29874 0
M  V30 5095 H 513.942 -4.15489 0.419406 0
M  V30 5096 N 514.379 -1.04941 -1.1758 0
M  V30 5097 C 515.625 -0.759112 -1.88057 0
M  V30 5098 C 515.958 0.711918 -1.8068 0
M  V30 5099 O 515.233 1.52035 -1.21308 0
M  V30 5100 C 515.516 -1.237 -3.38187 0
M  V30 5101 C 515.369 -2.77078 -3.54327 0
M  V30 5102 C 516.688 -0.834014 -4.32125 0
M  V30 5103 H 513.807 -0.277237 -0.682868 0
M  V30 5104 H 516.449 -1.30296 -1.38286 0
M  V30 5105 H 514.599 -0.774337 -3.80705 0
M  V30 5106 H 516.271 -3.31449 -3.20842 0
M  V30 5107 H 514.514 -3.16477 -2.96689 0
M  V30 5108 H 515.185 -3.05577 -4.59703 0
M  V30 5109 H 517.661 -1.23228 -3.97434 0
M  V30 5110 H 516.537 -1.19603 -5.35711 0
M  V30 5111 H 516.798 0.262195 -4.41322 0
M  V30 5112 N 515.857 1.33968 -0.830081 0
M  V30 5113 C 516.804 2.29387 -0.255008 0
M  V30 5114 C 517.774 1.53923 0.624243 0
M  V30 5115 O 518.959 1.82262 0.564372 0
M  V30 5116 C 516.099 3.4034 0.571209 0
M  V30 5117 C 515.212 4.30729 -0.331083 0
M  V30 5118 C 514.347 5.2879 0.505389 0
M  V30 5119 C 513.386 6.10819 -0.395843 0
M  V30 5120 N 512.523 7.00948 0.401979 0
M  V30 5121 H 517.363 2.77972 -1.07404 0
M  V30 5122 H 514.9 1.36785 -0.541133 0
M  V30 5123 H 516.858 4.03361 1.06562 0
M  V30 5124 H 515.488 2.9297 1.35529 0
M  V30 5125 H 514.54 3.68507 -0.943759 0
M  V30 5126 H 515.852 4.88181 -1.02377 0
M  V30 5127 H 515.006 5.97297 1.06399 0
M  V30 5128 H 513.745 4.71894 1.23155 0
M  V30 5129 H 512.75 5.41238 -0.966529 0
M  V30 5130 H 513.975 6.69797 -1.12023 0
M  V30 5131 H 511.921 6.46512 1.11168 0
M  V30 5132 H 511.838 7.55643 -0.232167 0
M  V30 5133 H 513.106 7.73774 0.943102 0
M  V30 5134 N 517.335 0.585699 1.46312 0
M  V30 5135 C 518.282 -0.145835 2.30339 0
M  V30 5136 C 519.252 -0.881215 1.40797 0
M  V30 5137 O 520.437 -0.871293 1.69744 0
M  V30 5138 C 517.577 -1.15161 3.25318 0
M  V30 5139 C 516.69 -0.419367 4.2996 0
M  V30 5140 C 515.825 -1.41293 5.12064 0
M  V30 5141 C 514.864 -0.667261 6.08452 0
M  V30 5142 N 514.001 -1.60903 6.83414 0
M  V30 5143 H 518.841 0.576755 2.92365 0
M  V30 5144 H 516.378 0.296237 1.44086 0
M  V30 5145 H 518.336 -1.74763 3.78832 0
M  V30 5146 H 516.966 -1.84188 2.65094 0
M  V30 5147 H 516.018 0.291751 3.7928 0
M  V30 5148 H 517.33 0.163433 4.98532 0
M  V30 5149 H 516.484 -2.08167 5.6987 0
M  V30 5150 H 515.223 -2.02966 4.43459 0
M  V30 5151 H 514.228 0.0152356 5.49798 0
M  V30 5152 H 515.453 -0.0558817 6.79077 0
M  V30 5153 H 513.399 -2.21381 6.17516 0
M  V30 5154 H 513.316 -1.07911 7.48259 0
M  V30 5155 H 514.584 -2.26802 7.45775 0
M  V30 5156 N 518.813 -1.54241 0.323641 0
M  V30 5157 C 519.746 -2.20579 -0.584833 0
M  V30 5158 C 520.724 -1.18286 -1.11567 0
M  V30 5159 O 521.908 -1.47025 -1.17966 0
M  V30 5160 C 519.035 -2.86754 -1.80249 0
M  V30 5161 C 518.081 -4.02767 -1.4029 0
M  V30 5162 S 518.914 -5.33693 -0.439539 0
M  V30 5163 C 520.07 -6.03362 -1.66448 0
M  V30 5164 H 520.303 -2.97292 -0.0213238 0
M  V30 5165 H 517.836 -1.54024 0.107726 0
M  V30 5166 H 519.794 -3.25503 -2.50116 0
M  V30 5167 H 518.455 -2.09844 -2.33719 0
M  V30 5168 H 517.648 -4.47933 -2.31024 0
M  V30 5169 H 517.25 -3.65692 -0.783928 0
M  V30 5170 H 519.542 -6.25546 -2.6019 0
M  V30 5171 H 520.485 -6.9689 -1.25498 0
M  V30 5172 H 520.893 -5.33273 -1.85149 0
M  V30 5173 N 520.291 -0.0518155 -1.57515 0
M  V30 5174 C 521.568 0.661727 -1.84067 0
M  V30 5175 C 521.948 1.88999 -0.940351 0
M  V30 5176 O 521.296 2.285 -0.00155404 0
M  V30 5177 C 521.506 1.01841 -3.3381 0
M  V30 5178 C 522.854 1.40043 -4.00841 0
M  V30 5179 O 523.878 1.11073 -3.38439 0
M  V30 5180 O 522.737 1.94111 -5.10865 0
M  V30 5181 H 519.831 0.326702 -0.759733 0
M  V30 5182 H 522.377 -0.0812277 -1.69505 0
M  V30 5183 H 521.149 0.145202 -3.91031 0
M  V30 5184 H 520.772 1.81879 -3.53562 0
M  V30 5185 N 521.769 1.56035 0.221574 0
M  V30 5186 C 522.699 1.95434 1.2778 0
M  V30 5187 C 523.68 0.822564 1.48889 0
M  V30 5188 O 524.865 1.08486 1.61072 0
M  V30 5189 C 521.995 2.27102 2.62759 0
M  V30 5190 C 520.949 3.4277 2.56306 0
M  V30 5191 C 520.275 3.60043 3.95314 0
M  V30 5192 C 521.575 4.77742 2.11093 0
M  V30 5193 H 523.269 2.83912 0.950504 0
M  V30 5194 H 520.815 1.36596 0.455791 0
M  V30 5195 H 522.768 2.53256 3.36807 0
M  V30 5196 H 521.492 1.35478 2.97176 0
M  V30 5197 H 520.151 3.16664 1.84715 0
M  V30 5198 H 519.799 2.65794 4.27039 0
M  V30 5199 H 519.499 4.37841 3.91879 0
M  V30 5200 H 521.023 3.88545 4.71025 0
M  V30 5201 H 522.437 5.03102 2.74885 0
M  V30 5202 H 520.834 5.58823 2.18716 0
M  V30 5203 H 521.904 4.731 1.06321 0
M  V30 5204 N 523.247 -0.488276 1.49845 0
M  V30 5205 C 524.663 -0.820566 1.3689 0
M  V30 5206 C 524.863 -1.97248 0.411752 0
M  V30 5207 O 523.919 -2.52042 -0.151931 0
M  V30 5208 C 525.232 -1.1488 2.77891 0
M  V30 5209 C 526.78 -1.25626 2.86683 0
M  V30 5210 C 527.255 -1.61772 4.28479 0
M  V30 5211 N 528.746 -1.68797 4.31349 0
M  V30 5212 C 529.481 -1.98235 5.38043 0
M  V30 5213 N 528.977 -2.2581 6.54967 0
M  V30 5214 N 530.77 -1.99593 5.2547 0
M  V30 5215 H 522.921 0.271123 2.10662 0
M  V30 5216 H 525.184 0.058735 0.946179 0
M  V30 5217 H 524.89 -0.375614 3.49688 0
M  V30 5218 H 524.764 -2.08919 3.14058 0
M  V30 5219 H 527.151 -2.02014 2.15114 0
M  V30 5220 H 527.232 -0.296072 2.54081 0
M  V30 5221 H 526.876 -0.859295 5.00578 0
M  V30 5222 H 526.806 -2.58912 4.58554 0
M  V30 5223 H 529.297 -1.49595 3.4703 0
M  V30 5224 H 529.61 -2.47497 7.32096 0
M  V30 5225 H 527.955 -2.23239 6.58171 0
M  V30 5226 H 531.146 -1.77535 4.33127 0
M  V30 5227 H 531.319 -2.222 6.08713 0
M  V30 5228 N 524.725 -1.39134 -0.740242 0
M  V30 5229 C 525.672 -1.37434 -1.8542 0
M  V30 5230 C 526.642 -0.234822 -1.64432 0
M  V30 5231 O 527.827 -0.429125 -1.85912 0
M  V30 5232 C 524.967 -1.21844 -3.22875 0
M  V30 5233 C 524.08 -2.45296 -3.55603 0
M  V30 5234 C 523.215 -2.22334 -4.82432 0
M  V30 5235 C 522.254 -3.41488 -5.07988 0
M  V30 5236 N 521.391 -3.17877 -6.26018 0
M  V30 5237 H 526.231 -2.3266 -1.86207 0
M  V30 5238 H 523.768 -1.15578 -0.909946 0
M  V30 5239 H 525.726 -1.10818 -4.02213 0
M  V30 5240 H 524.356 -0.3025 -3.21379 0
M  V30 5241 H 523.408 -2.66945 -2.71006 0
M  V30 5242 H 524.72 -3.34063 -3.7041 0
M  V30 5243 H 523.874 -2.0852 -5.69741 0
M  V30 5244 H 522.613 -1.30954 -4.6979 0
M  V30 5245 H 521.618 -3.55807 -4.19144 0
M  V30 5246 H 522.843 -4.33763 -5.22519 0
M  V30 5247 H 520.789 -2.29156 -6.14673 0
M  V30 5248 H 520.706 -4.00198 -6.41387 0
M  V30 5249 H 521.974 -3.07746 -7.16179 0
M  V30 5250 N 526.204 0.969867 -1.24223 0
M  V30 5251 C 527.136 2.0669 -0.99055 0
M  V30 5252 C 528.149 1.62753 0.0392222 0
M  V30 5253 O 529.338 1.77403 -0.197561 0
M  V30 5254 C 526.438 3.35589 -0.472594 0
M  V30 5255 C 525.611 4.08444 -1.56499 0
M  V30 5256 C 524.67 5.15616 -1.05007 0
M  V30 5257 O 523.696 5.41911 -1.7413 0
M  V30 5258 N 524.898 5.80383 0.116641 0
M  V30 5259 H 527.663 2.28855 -1.93508 0
M  V30 5260 H 525.224 1.13733 -1.15223 0
M  V30 5261 H 527.216 4.04542 -0.112919 0
M  V30 5262 H 525.786 3.10311 0.377617 0
M  V30 5263 H 525.006 3.33798 -2.09696 0
M  V30 5264 H 526.294 4.53882 -2.29932 0
M  V30 5265 H 525.692 5.6142 0.694589 0
M  V30 5266 H 524.249 6.50462 0.417483 0
M  V30 5267 N 527.682 1.05563 1.17022 0
M  V30 5268 C 528.614 0.617888 2.20714 0
M  V30 5269 C 529.627 -0.320303 1.59618 0
M  V30 5270 O 530.816 -0.112449 1.78145 0
M  V30 5271 C 527.916 -0.115333 3.38704 0
M  V30 5272 C 527.089 0.834493 4.29366 0
M  V30 5273 C 526.148 0.141855 5.26009 0
M  V30 5274 O 525.174 0.777151 5.6387 0
M  V30 5275 N 526.376 -1.11934 5.69606 0
M  V30 5276 H 529.141 1.50981 2.58892 0
M  V30 5277 H 526.702 0.938008 1.31958 0
M  V30 5278 H 528.694 -0.588918 4.00392 0
M  V30 5279 H 527.264 -0.908967 2.99093 0
M  V30 5280 H 526.484 1.48762 3.65053 0
M  V30 5281 H 527.772 1.4791 4.86827 0
M  V30 5282 H 527.17 -1.65574 5.40927 0
M  V30 5283 H 525.727 -1.53692 6.33421 0
M  V30 5284 N 529.16 -1.33526 0.837174 0
M  V30 5285 C 530.576 -1.50727 0.524743 0
M  V30 5286 C 530.776 -1.77792 -0.948279 0
M  V30 5287 O 529.832 -1.83719 -1.73216 0
M  V30 5288 C 531.145 -2.66299 1.39661 0
M  V30 5289 C 532.693 -2.80183 1.39521 0
M  V30 5290 C 533.168 -3.98815 2.25189 0
M  V30 5291 N 534.659 -4.06047 2.2289 0
M  V30 5292 C 535.394 -4.97032 2.85915 0
M  V30 5293 N 534.89 -5.93143 3.57985 0
M  V30 5294 N 536.683 -4.90015 2.75394 0
M  V30 5295 H 528.834 -1.1422 1.79074 0
M  V30 5296 H 531.097 -0.561399 0.763894 0
M  V30 5297 H 530.803 -2.52974 2.4433 0
M  V30 5298 H 530.677 -3.61663 1.07145 0
M  V30 5299 H 533.064 -2.92942 0.356253 0
M  V30 5300 H 533.145 -1.85586 1.76044 0
M  V30 5301 H 532.789 -3.86817 3.29143 0
M  V30 5302 H 532.719 -4.92654 1.86009 0
M  V30 5303 H 535.21 -3.37262 1.70478 0
M  V30 5304 H 535.523 -6.59227 4.03286 0
M  V30 5305 H 533.868 -5.93223 3.62093 0
M  V30 5306 H 537.059 -4.13894 2.18654 0
M  V30 5307 H 537.232 -5.60724 3.24796 0
M  V30 5308 N 530.638 -0.59345 -1.46 0
M  V30 5309 C 532.054 -0.255965 -1.57534 0
M  V30 5310 C 532.254 1.24167 -1.58697 0
M  V30 5311 O 531.31 2.02398 -1.50968 0
M  V30 5312 C 532.623 -0.91466 -2.86451 0
M  V30 5313 C 534.171 -0.889253 -3.00102 0
M  V30 5314 C 534.646 -1.52769 -4.3177 0
M  V30 5315 N 536.137 -1.49253 -4.38495 0
M  V30 5316 C 536.872 -1.9558 -5.39014 0
M  V30 5317 N 536.368 -2.49929 -6.46148 0
M  V30 5318 N 538.161 -1.86432 -5.30282 0
M  V30 5319 H 530.312 -1.56604 -1.43489 0
M  V30 5320 H 532.575 -0.655207 -0.685133 0
M  V30 5321 H 532.281 -1.96861 -2.91442 0
M  V30 5322 H 532.155 -0.429356 -3.74748 0
M  V30 5323 H 534.542 0.156111 -2.94687 0
M  V30 5324 H 534.623 -1.41268 -2.13253 0
M  V30 5325 H 534.267 -2.57231 -4.37944 0
M  V30 5326 H 534.197 -0.979398 -5.17412 0
M  V30 5327 H 536.688 -1.09536 -3.61677 0
M  V30 5328 H 537.001 -2.83109 -7.19075 0
M  V30 5329 H 535.346 -2.53961 -6.46938 0
M  V30 5330 H 538.537 -1.43722 -4.4549 0
M  V30 5331 H 538.71 -2.22852 -6.08474 0
M  V30 5332 N 532.116 1.54067 -0.331816 0
M  V30 5333 C 533.026 2.28322 0.539104 0
M  V30 5334 C 534.042 1.32985 1.1221 0
M  V30 5335 O 535.218 1.6601 1.1403 0
M  V30 5336 C 532.283 3.03277 1.68 0
M  V30 5337 C 531.344 4.14216 1.12798 0
M  V30 5338 C 530.577 4.85588 2.2145 0
M  V30 5339 O 530.8 4.56536 3.41952 0
M  V30 5340 O 529.734 5.72309 1.86404 0
M  V30 5341 H 533.56 3.03632 -0.0641692 0
M  V30 5342 H 531.145 1.49083 -0.0972365 0
M  V30 5343 H 533.027 3.50189 2.34405 0
M  V30 5344 H 531.702 2.30834 2.2693 0
M  V30 5345 H 530.609 3.71635 0.428782 0
M  V30 5346 H 531.942 4.88727 0.583698 0
M  V30 5347 N 533.594 0.0601682 1.57485 0
M  V30 5348 C 534.524 -0.90889 2.15085 0
M  V30 5349 C 535.505 -1.31838 1.07484 0
M  V30 5350 O 536.69 -1.3915 1.35466 0
M  V30 5351 C 533.82 -2.18059 2.7031 0
M  V30 5352 C 532.774 -1.91088 3.82974 0
M  V30 5353 C 532.1 -3.24789 4.24754 0
M  V30 5354 C 533.4 -1.22535 5.07723 0
M  V30 5355 H 535.094 -0.429093 2.96309 0
M  V30 5356 H 532.64 -0.204952 1.42534 0
M  V30 5357 H 534.593 -2.86258 3.09248 0
M  V30 5358 H 533.317 -2.6826 1.8629 0
M  V30 5359 H 531.976 -1.25297 3.44523 0
M  V30 5360 H 531.624 -3.72809 3.37672 0
M  V30 5361 H 531.324 -3.07538 5.00694 0
M  V30 5362 H 532.848 -3.94205 4.66299 0
M  V30 5363 H 534.262 -1.80783 5.4405 0
M  V30 5364 H 532.659 -1.1558 5.88864 0
M  V30 5365 H 533.729 -0.202692 4.84476 0
M  V30 5366 N 535.072 -1.5615 -0.213296 0
M  V30 5367 C 536.002 -1.96109 -1.26742 0
M  V30 5368 C 536.983 -0.830448 -1.48451 0
M  V30 5369 O 538.168 -1.09339 -1.60495 0
M  V30 5370 C 535.298 -2.28492 -2.61551 0
M  V30 5371 C 534.252 -3.44124 -2.54485 0
M  V30 5372 C 533.578 -3.62134 -3.93399 0
M  V30 5373 C 534.878 -4.78855 -2.08556 0
M  V30 5374 H 536.572 -2.84412 -0.935434 0
M  V30 5375 H 534.118 -1.36836 -0.44854 0
M  V30 5376 H 536.071 -2.55039 -3.3546 0
M  V30 5377 H 534.795 -1.37052 -2.96453 0
M  V30 5378 H 533.454 -3.17639 -1.83033 0
M  V30 5379 H 533.102 -2.68055 -4.25623 0
M  V30 5380 H 532.802 -4.39913 -3.89551 0
M  V30 5381 H 534.326 -3.91038 -4.68958 0
M  V30 5382 H 535.74 -5.04552 -2.72213 0
M  V30 5383 H 534.137 -5.59975 -2.1575 0
M  V30 5384 H 535.207 -4.73657 -1.03811 0
M  V30 5385 N 536.55 0.480323 -1.50102 0
M  V30 5386 C 537.797 1.23307 -1.60629 0
M  V30 5387 C 538.125 1.92135 -0.302375 0
M  V30 5388 O 537.38 1.82321 0.711154 0
M  V30 5389 C 537.679 2.30708 -2.72963 0
M  V30 5390 C 537.345 1.79195 -4.13763 0
M  V30 5391 C 536.007 1.64867 -4.52076 0
M  V30 5392 C 538.359 1.40878 -5.018 0
M  V30 5393 C 535.687 1.10631 -5.76175 0
M  V30 5394 C 538.039 0.880872 -6.26437 0
M  V30 5395 C 536.703 0.724146 -6.6356 0
M  V30 5396 H 535.973 0.451211 -0.587784 0
M  V30 5397 H 538.62 0.53051 -1.84005 0
M  V30 5398 H 536.925 3.06834 -2.43639 0
M  V30 5399 H 538.622 2.88692 -2.78313 0
M  V30 5400 H 535.212 1.91313 -3.83533 0
M  V30 5401 H 539.396 1.50786 -4.7284 0
M  V30 5402 H 534.652 0.972263 -6.0362 0
M  V30 5403 H 538.826 0.575269 -6.9402 0
M  V30 5404 H 536.453 0.301722 -7.59601 0
M  V30 5405 N 538.028 1.39524 0.732853 0
M  V30 5406 C 538.976 1.38563 1.86824 0
M  V30 5407 C 539.97 0.268467 1.67259 0
M  V30 5408 O 541.176 0.438613 1.74574 0
M  V30 5409 H 537.551 0.432737 0.615014 0
M  V30 5410 H 539.522 2.34328 1.84751 0
M  V30 5411 C 538.271 1.2481 3.24527 0
M  V30 5412 H 537.594 2.10044 3.40179 0
M  V30 5413 H 539.034 1.28194 4.04156 0
M  V30 5414 C 537.493 -0.0432825 3.36872 0
M  V30 5415 O 538.023 -1.01268 3.88726 0
M  V30 5416 N 536.229 -0.107055 2.90403 0
M  V30 5417 H 535.776 0.682512 2.48394 0
M  V30 5418 H 535.734 -0.970618 2.99042 0
M  V30 5419 N 539.506 -0.963266 1.24736 0
M  V30 5420 C 540.416 -2.09246 1.06082 0
M  V30 5421 C 541.432 -1.74 0.000363101 0
M  V30 5422 O 542.608 -2.0041 0.199479 0
M  V30 5423 C 539.673 -3.40115 0.672498 0
M  V30 5424 C 538.734 -3.89282 1.80993 0
M  V30 5425 C 537.967 -5.13905 1.44004 0
M  V30 5426 O 538.19 -5.69434 0.331835 0
M  V30 5427 O 537.124 -5.57566 2.26723 0
M  V30 5428 H 540.95 -2.27881 2.00759 0
M  V30 5429 H 538.535 -1.07649 1.03595 0
M  V30 5430 H 540.417 -4.18797 0.467668 0
M  V30 5431 H 539.092 -3.22771 -0.245102 0
M  V30 5432 H 537.999 -3.11642 2.06955 0
M  V30 5433 H 539.332 -4.1111 2.70646 0
M  V30 5434 N 540.985 -1.06182 -1.16461 0
M  V30 5435 C 542.231 -0.779015 -1.87241 0
M  V30 5436 C 542.564 0.692715 -1.81425 0
M  V30 5437 O 541.839 1.5074 -1.22913 0
M  V30 5438 C 542.122 -1.2728 -3.36856 0
M  V30 5439 C 541.975 -2.80821 -3.51368 0
M  V30 5440 C 543.294 -0.879799 -4.31216 0
M  V30 5441 H 540.413 -0.284464 -0.679889 0
M  V30 5442 H 543.055 -1.31755 -1.36896 0
M  V30 5443 H 541.205 -0.814673 -3.79862 0
M  V30 5444 H 542.877 -3.34833 -3.17308 0
M  V30 5445 H 541.12 -3.19606 -2.93316 0
M  V30 5446 H 541.791 -3.10435 -4.56436 0
M  V30 5447 H 544.267 -1.27436 -3.96105 0
M  V30 5448 H 543.143 -1.25278 -5.34412 0
M  V30 5449 H 543.404 0.215372 -4.41575 0
M  V30 5450 N 542.463 1.3308 -0.844243 0
M  V30 5451 C 543.709 1.97898 -0.443206 0
M  V30 5452 C 544.042 1.66699 0.99625 0
M  V30 5453 O 543.317 0.949704 1.69738 0
M  V30 5454 C 543.6 3.53801 -0.670606 0
M  V30 5455 C 543.453 3.94667 -2.15772 0
M  V30 5456 C 544.772 4.39936 -0.120226 0
M  V30 5457 H 541.891 0.718861 -0.162504 0
M  V30 5458 H 544.533 1.57633 -1.06075 0
M  V30 5459 H 542.683 3.88229 -0.14496 0
M  V30 5460 H 544.355 3.70469 -2.74865 0
M  V30 5461 H 542.598 3.44203 -2.6402 0
M  V30 5462 H 543.269 5.03275 -2.26757 0
M  V30 5463 H 545.745 4.12183 -0.5696 0
M  V30 5464 H 544.621 5.4803 -0.308984 0
M  V30 5465 H 544.882 4.31184 0.976347 0
M  V30 5466 N 543.941 0.601185 1.45683 0
M  V30 5467 C 545.19 0.0914953 2.01492 0
M  V30 5468 C 545.503 -1.28331 1.47616 0
M  V30 5469 O 546.709 -1.88537 1.95362 0
M  V30 5470 C 545.165 0.11291 3.59723 0
M  V30 5471 C 544.773 1.48717 4.22596 0
M  V30 5472 C 546.517 -0.341871 4.23121 0
M  V30 5473 C 544.424 1.46531 5.7296 0
M  V30 5474 H 543.354 0.0304365 0.753385 0
M  V30 5475 H 546.005 0.755568 1.67223 0
M  V30 5476 H 544.387 -0.617692 3.91153 0
M  V30 5477 H 545.561 2.23897 4.02749 0
M  V30 5478 H 543.876 1.88351 3.71366 0
M  V30 5479 H 546.473 -0.377304 5.33367 0
M  V30 5480 H 546.816 -1.36325 3.93346 0
M  V30 5481 H 547.349 0.335256 3.96385 0
M  V30 5482 H 544.088 2.46408 6.07423 0
M  V30 5483 H 543.608 0.755997 5.95017 0
M  V30 5484 H 545.287 1.18618 6.36034 0
M  V30 5485 N 545.419 -1.53889 0.339982 0
M  V30 5486 C 546.352 -2.21187 -0.561405 0
M  V30 5487 C 547.33 -1.19463 -1.10306 0
M  V30 5488 O 548.514 -1.48268 -1.164 0
M  V30 5489 C 545.641 -2.8865 -1.77198 0
M  V30 5490 C 544.687 -4.04232 -1.3601 0
M  V30 5491 S 545.52 -5.34129 -0.382909 0
M  V30 5492 C 546.676 -6.05094 -1.60039 0
M  V30 5493 H 546.909 -2.97298 0.0102092 0
M  V30 5494 H 544.442 -1.53901 0.124056 0
M  V30 5495 H 546.4 -3.28138 -2.4665 0
M  V30 5496 H 545.061 -2.12311 -2.3148 0
M  V30 5497 H 544.254 -4.50358 -2.2626 0
M  V30 5498 H 543.856 -3.66503 -0.745098 0
M  V30 5499 H 546.148 -6.2827 -2.53541 0
M  V30 5500 H 547.091 -6.98182 -1.18099 0
M  V30 5501 H 547.499 -5.35207 -1.79483 0
M  V30 5502 N 546.897 -0.0685191 -1.57451 0
M  V30 5503 C 548.313 0.288101 -1.56978 0
M  V30 5504 C 548.513 1.70262 -1.07765 0
M  V30 5505 O 547.569 2.4135 -0.742054 0
M  V30 5506 C 548.882 0.100745 -3.00531 0
M  V30 5507 C 550.43 0.170531 -3.12535 0
M  V30 5508 C 550.905 0.0114944 -4.57999 0
M  V30 5509 N 552.396 0.0672065 -4.63151 0
M  V30 5510 C 553.131 -0.0314813 -5.73391 0
M  V30 5511 N 552.627 -0.183503 -6.92557 0
M  V30 5512 N 554.42 0.0253489 -5.62094 0
M  V30 5513 H 546.571 -0.993026 -1.87757 0
M  V30 5514 H 548.834 -0.386981 -0.865419 0
M  V30 5515 H 548.54 -0.875197 -3.40636 0
M  V30 5516 H 548.414 0.854457 -3.67395 0
M  V30 5517 H 550.801 1.13696 -2.72318 0
M  V30 5518 H 550.882 -0.614229 -2.48316 0
M  V30 5519 H 550.526 -0.951684 -4.98904 0
M  V30 5520 H 550.456 0.815617 -5.20245 0
M  V30 5521 H 552.947 0.183246 -3.77455 0
M  V30 5522 H 553.26 -0.251041 -7.72392 0
M  V30 5523 H 551.605 -0.218822 -6.94655 0
M  V30 5524 H 554.796 0.142794 -4.67882 0
M  V30 5525 H 554.969 -0.0550166 -6.47977 0
M  V30 5526 N 548.375 1.56261 0.205012 0
M  V30 5527 C 549.652 1.70856 0.952233 0
M  V30 5528 C 550.032 0.620501 2.01775 0
M  V30 5529 O 549.38 -0.370035 2.25484 0
M  V30 5530 C 549.59 3.12807 1.54767 0
M  V30 5531 C 550.938 3.72733 2.0336 0
M  V30 5532 O 551.962 3.15873 1.64629 0
M  V30 5533 O 550.821 4.72501 2.746 0
M  V30 5534 H 547.915 0.696496 0.445895 0
M  V30 5535 H 550.461 1.6857 0.195489 0
M  V30 5536 H 549.233 3.83465 0.779132 0
M  V30 5537 H 548.856 3.1928 2.36951 0
M  V30 5538 N 549.853 -0.472356 1.50355 0
M  V30 5539 C 551.083 -1.24603 1.64796 0
M  V30 5540 C 551.491 -1.86297 0.330156 0
M  V30 5541 O 550.834 -1.69934 -0.697728 0
M  V30 5542 C 550.896 -2.39578 2.68035 0
M  V30 5543 C 550.56 -1.98531 4.11624 0
M  V30 5544 C 551.557 -1.50856 4.97532 0
M  V30 5545 C 549.242 -2.0729 4.57532 0
M  V30 5546 C 551.236 -1.12481 6.27397 0
M  V30 5547 C 548.923 -1.68527 5.87403 0
M  V30 5548 C 549.921 -1.212 6.7216 0
M  V30 5549 O 549.609 -0.829728 7.99607 0
M  V30 5550 H 549.341 -0.383035 0.55701 0
M  V30 5551 H 551.895 -0.570392 1.97321 0
M  V30 5552 H 550.125 -3.10309 2.30749 0
M  V30 5553 H 551.814 -3.01544 2.71709 0
M  V30 5554 H 552.58 -1.43511 4.63281 0
M  V30 5555 H 548.459 -2.43076 3.91708 0
M  V30 5556 H 552.003 -0.754698 6.93506 0
M  V30 5557 H 547.9 -1.7553 6.21176 0
M  V30 5558 H 548.668 -0.958689 8.12866 0
M  V30 5559 N 551.331 -1.39911 -0.725443 0
M  V30 5560 C 552.263 -1.35301 -1.85003 0
M  V30 5561 C 553.276 -0.260102 -1.60709 0
M  V30 5562 O 554.465 -0.519749 -1.70766 0
M  V30 5563 C 551.565 -1.08039 -3.21218 0
M  V30 5564 C 550.738 -2.28793 -3.7279 0
M  V30 5565 C 549.797 -1.97841 -4.87591 0
M  V30 5566 O 548.823 -2.70616 -5.00755 0
M  V30 5567 N 550.025 -0.950367 -5.72668 0
M  V30 5568 H 552.79 -2.32218 -1.89459 0
M  V30 5569 H 550.351 -1.34137 -0.90658 0
M  V30 5570 H 552.343 -0.853354 -3.95601 0
M  V30 5571 H 550.913 -0.198229 -3.11971 0
M  V30 5572 H 550.133 -2.67388 -2.8965 0
M  V30 5573 H 551.421 -3.09317 -4.03981 0
M  V30 5574 H 550.819 -0.347436 -5.64632 0
M  V30 5575 H 549.376 -0.783232 -6.47077 0
M  V30 5576 N 552.809 0.956637 -1.25245 0
M  V30 5577 C 553.759 2.03841 -1.02141 0
M  V30 5578 C 554.743 1.60848 0.0410058 0
M  V30 5579 O 555.935 1.76142 -0.174084 0
M  V30 5580 C 553.064 3.37282 -0.639963 0
M  V30 5581 C 552.15 3.86805 -1.73903 0
M  V30 5582 N 552.541 4.09143 -2.97381 0
M  V30 5583 C 550.839 4.15574 -1.61909 0
M  V30 5584 C 551.54 4.49923 -3.68707 0
M  V30 5585 N 550.516 4.55737 -2.96318 0
M  V30 5586 H 554.318 2.19102 -1.95886 0
M  V30 5587 H 551.832 1.1413 -1.15534 0
M  V30 5588 H 553.829 4.14403 -0.455643 0
M  V30 5589 H 552.489 3.23401 0.29018 0
M  V30 5590 H 553.5 3.96275 -3.33447 0
M  V30 5591 H 550.177 4.10566 -0.757764 0
M  V30 5592 H 551.567 4.75526 -4.74684 0
M  V30 5593 N 554.287 1.06798 1.15896 0
M  V30 5594 C 555.197 0.694564 2.24083 0
M  V30 5595 C 556.213 -0.291687 1.71538 0
M  V30 5596 O 557.389 -0.139723 2.00915 0
M  V30 5597 C 554.454 0.0921014 3.46578 0
M  V30 5598 C 553.515 1.13087 4.14137 0
M  V30 5599 C 552.748 0.557064 5.30785 0
M  V30 5600 O 552.971 -0.628623 5.66925 0
M  V30 5601 O 551.905 1.29924 5.8771 0
M  V30 5602 H 555.731 1.59663 2.58344 0
M  V30 5603 H 553.316 0.840575 1.2351 0
M  V30 5604 H 555.198 -0.241884 4.20705 0
M  V30 5605 H 553.873 -0.78337 3.14078 0
M  V30 5606 H 552.78 1.51712 3.41957 0
M  V30 5607 H 554.113 1.97805 4.50704 0
M  V30 5608 N 555.766 -1.3263 0.851289 0
M  V30 5609 C 556.714 -2.30882 0.282202 0
M  V30 5610 C 557.708 -1.58697 -0.592589 0
M  V30 5611 O 558.914 -1.73461 -0.480768 0
M  V30 5612 H 555.289 -0.748492 0.0725487 0
M  V30 5613 H 557.26 -2.76374 1.12516 0
M  V30 5614 C 556.009 -3.43828 -0.517449 0
M  V30 5615 H 555.332 -3.99532 0.146392 0
M  V30 5616 H 556.772 -4.1474 -0.88128 0
M  V30 5617 C 555.231 -2.90786 -1.70133 0
M  V30 5618 O 555.761 -2.88 -2.80034 0
M  V30 5619 N 553.967 -2.4723 -1.52728 0
M  V30 5620 H 553.514 -2.49695 -0.633257 0
M  V30 5621 H 553.472 -2.12094 -2.32085 0
M  V30 5622 N 557.244 -0.608902 -1.45362 0
M  V30 5623 C 558.49 -0.104762 -2.02529 0
M  V30 5624 C 558.823 1.26191 -1.47613 0
M  V30 5625 O 558.098 1.8327 -0.65134 0
M  V30 5626 C 558.381 -0.0672661 -3.60037 0
M  V30 5627 C 558.234 -1.4647 -4.25284 0
M  V30 5628 C 559.553 0.619877 -4.35713 0
M  V30 5629 H 556.672 -0.0395438 -0.735938 0
M  V30 5630 H 559.314 -0.781126 -1.73201 0
M  V30 5631 H 557.464 0.50871 -3.85155 0
M  V30 5632 H 559.136 -2.08785 -4.11347 0
M  V30 5633 H 557.379 -2.02502 -3.83634 0
M  V30 5634 H 558.05 -1.39069 -5.34195 0
M  V30 5635 H 560.526 0.130297 -4.15896 0
M  V30 5636 H 559.402 0.615224 -5.45441 0
M  V30 5637 H 559.663 1.68621 -4.0868 0
M  V30 5638 N 558.722 1.53707 -0.348139 0
M  V30 5639 C 559.968 2.01286 0.247332 0
M  V30 5640 C 560.301 1.23546 1.49834 0
M  V30 5641 O 559.576 0.324331 1.91777 0
M  V30 5642 C 559.859 3.55768 0.556858 0
M  V30 5643 C 559.712 4.44216 -0.706564 0
M  V30 5644 C 561.031 4.1841 1.3646 0
M  V30 5645 H 558.15 0.731677 0.0884201 0
M  V30 5646 H 560.792 1.84106 -0.469584 0
M  V30 5647 H 558.942 3.70539 1.16761 0
M  V30 5648 H 560.614 4.41274 -1.34444 0
M  V30 5649 H 558.857 4.12892 -1.33052 0
M  V30 5650 H 559.528 5.50202 -0.445186 0
M  V30 5651 H 562.004 4.07365 0.848113 0
M  V30 5652 H 560.88 5.26563 1.54992 0
M  V30 5653 H 561.141 3.7333 2.36805 0
M  V30 5654 N 560.2 0.0768682 1.57412 0
M  V30 5655 C 561.11 -0.903207 2.16516 0
M  V30 5656 C 562.126 -1.32341 1.12968 0
M  V30 5657 O 563.302 -1.39507 1.45258 0
M  V30 5658 C 560.367 -2.1508 2.71922 0
M  V30 5659 C 559.428 -1.78653 3.90361 0
M  V30 5660 C 558.661 -2.97465 4.43114 0
M  V30 5661 O 558.884 -4.11638 3.94854 0
M  V30 5662 O 557.818 -2.76987 5.3438 0
M  V30 5663 H 561.644 -0.430427 3.00634 0
M  V30 5664 H 559.229 -0.146485 1.4868 0
M  V30 5665 H 561.111 -2.8823 3.07411 0
M  V30 5666 H 559.786 -2.61446 1.9086 0
M  V30 5667 H 558.693 -1.0274 3.59716 0
M  V30 5668 H 560.026 -1.37066 4.7273 0
M  V30 5669 N 561.678 -1.56367 -0.196722 0
M  V30 5670 C 562.611 -1.89475 -1.2718 0
M  V30 5671 C 563.589 -0.754667 -1.44026 0
M  V30 5672 O 564.773 -1.00551 -1.59442 0
M  V30 5673 C 561.9 -2.12352 -2.63864 0
M  V30 5674 C 560.946 -3.35053 -2.63897 0
M  V30 5675 S 561.779 -4.90228 -2.15492 0
M  V30 5676 C 562.935 -5.16171 -3.54004 0
M  V30 5677 H 563.168 -2.80365 -0.989075 0
M  V30 5678 H 560.701 -1.49125 -0.40014 0
M  V30 5679 H 562.659 -2.26214 -3.42545 0
M  V30 5680 H 561.32 -1.22214 -2.89349 0
M  V30 5681 H 560.513 -3.48182 -3.64397 0
M  V30 5682 H 560.115 -3.20176 -1.93296 0
M  V30 5683 H 562.407 -5.06591 -4.49857 0
M  V30 5684 H 563.35 -6.17938 -3.45771 0
M  V30 5685 H 563.758 -4.43814 -3.48841 0
M  V30 5686 N 563.156 0.464375 -1.50603 0
M  V30 5687 C 564.386 1.23727 -1.65454 0
M  V30 5688 C 564.794 1.86119 -0.340032 0
M  V30 5689 O 564.137 1.70301 0.688706 0
M  V30 5690 C 564.199 2.38153 -2.69301 0
M  V30 5691 C 563.863 1.96345 -4.12671 0
M  V30 5692 C 564.86 1.48215 -4.98326 0
M  V30 5693 C 562.545 2.04861 -4.58625 0
M  V30 5694 C 564.539 1.09152 -6.27985 0
M  V30 5695 C 562.226 1.65409 -5.88288 0
M  V30 5696 C 563.224 1.17634 -6.72794 0
M  V30 5697 O 562.912 0.787312 -8.00035 0
M  V30 5698 H 562.644 0.380075 -0.559034 0
M  V30 5699 H 565.198 0.559919 -1.97621 0
M  V30 5700 H 563.428 3.09081 -2.32392 0
M  V30 5701 H 565.117 3.00099 -2.73304 0
M  V30 5702 H 565.883 1.41052 -4.64036 0
M  V30 5703 H 561.762 2.40996 -3.92991 0
M  V30 5704 H 565.306 0.717909 -6.93896 0
M  V30 5705 H 561.203 1.72233 -6.22098 0
M  V30 5706 H 561.971 0.915567 -8.13363 0
M  V30 5707 N 564.634 1.40294 0.718013 0
M  V30 5708 C 565.582 1.40536 1.85344 0
M  V30 5709 C 566.576 0.286192 1.66965 0
M  V30 5710 O 567.782 0.457105 1.74099 0
M  V30 5711 H 564.157 0.439236 0.61039 0
M  V30 5712 H 566.128 2.36275 1.82255 0
M  V30 5713 C 564.877 1.28245 3.23185 0
M  V30 5714 H 564.2 2.1364 3.37932 0
M  V30 5715 H 565.64 1.32474 4.02774 0
M  V30 5716 C 564.099 -0.0075503 3.36899 0
M  V30 5717 O 564.629 -0.971391 3.89778 0
M  V30 5718 N 562.835 -0.0762479 2.905 0
M  V30 5719 H 562.382 0.708819 2.47656 0
M  V30 5720 H 562.34 -0.938846 3.00055 0
M  V30 5721 N 566.112 -0.949982 1.2575 0
M  V30 5722 C 567.337 -1.73503 1.13628 0
M  V30 5723 C 567.762 -1.85601 -0.30559 0
M  V30 5724 O 567.12 -1.33984 -1.22139 0
M  V30 5725 C 567.168 -3.1243 1.80055 0
M  V30 5726 O 566.272 -3.97916 1.08336 0
M  V30 5727 H 565.613 -0.532665 0.396439 0
M  V30 5728 H 568.143 -1.19043 1.66403 0
M  V30 5729 H 568.153 -3.62866 1.86527 0
M  V30 5730 H 566.828 -3.02941 2.84956 0
M  V30 5731 H 565.405 -3.56375 1.09777 0
M  V30 5732 N 567.59 -1.07411 -1.15328 0
M  V30 5733 C 568.82 -0.817595 -1.89734 0
M  V30 5734 C 569.228 0.63297 -1.78298 0
M  V30 5735 O 568.571 1.44594 -1.13306 0
M  V30 5736 C 568.633 -1.14748 -3.40695 0
M  V30 5737 C 568.297 -2.59876 -3.75917 0
M  V30 5738 C 569.294 -3.58122 -3.76888 0
M  V30 5739 C 566.979 -2.95469 -4.06206 0
M  V30 5740 C 568.973 -4.89996 -4.07655 0
M  V30 5741 C 566.66 -4.2754 -4.36638 0
M  V30 5742 C 567.658 -5.24614 -4.37344 0
M  V30 5743 O 567.346 -6.54312 -4.67045 0
M  V30 5744 H 567.078 -0.295175 -0.608151 0
M  V30 5745 H 569.632 -1.43409 -1.47048 0
M  V30 5746 H 567.862 -0.47395 -3.83785 0
M  V30 5747 H 569.551 -0.873397 -3.96392 0
M  V30 5748 H 570.317 -3.31966 -3.53587 0
M  V30 5749 H 566.196 -2.20558 -4.04815 0
M  V30 5750 H 569.74 -5.65759 -4.08121 0
M  V30 5751 H 565.637 -4.53449 -4.59407 0
M  V30 5752 H 566.405 -6.59473 -4.84807 0
M  V30 5753 N 569.068 1.32177 -0.85831 0
M  V30 5754 C 569.998 2.31282 -0.321041 0
M  V30 5755 C 570.979 1.59841 0.581786 0
M  V30 5756 O 572.164 1.87619 0.501262 0
M  V30 5757 C 569.294 3.4385 0.48832 0
M  V30 5758 C 568.248 4.26799 -0.320391 0
M  V30 5759 C 567.574 5.31164 0.613934 0
M  V30 5760 C 568.874 4.98829 -1.54813 0
M  V30 5761 H 570.568 2.76469 -1.14915 0
M  V30 5762 H 568.114 1.32916 -0.554028 0
M  V30 5763 H 570.067 4.12224 0.874626 0
M  V30 5764 H 568.791 2.97401 1.34983 0
M  V30 5765 H 567.45 3.60077 -0.688497 0
M  V30 5766 H 567.098 4.80967 1.47239 0
M  V30 5767 H 566.798 5.8755 0.0768097 0
M  V30 5768 H 568.322 6.024 0.997336 0
M  V30 5769 H 569.736 5.59864 -1.23392 0
M  V30 5770 H 568.133 5.64957 -2.02346 0
M  V30 5771 H 569.203 4.26483 -2.30739 0
M  V30 5772 N 570.547 0.616602 1.45037 0
M  V30 5773 C 571.793 0.115501 2.02471 0
M  V30 5774 C 572.126 -1.25406 1.4828 0
M  V30 5775 O 571.401 -1.82922 0.661051 0
M  V30 5776 C 571.684 0.0863588 3.59996 0
M  V30 5777 C 571.537 1.48723 4.24501 0
M  V30 5778 C 572.856 -0.596762 4.36035 0
M  V30 5779 H 569.975 0.0434461 0.735718 0
M  V30 5780 H 572.617 0.7903 1.72784 0
M  V30 5781 H 570.767 -0.488277 3.85419 0
M  V30 5782 H 572.439 2.10964 4.10234 0
M  V30 5783 H 570.682 2.04534 3.82555 0
M  V30 5784 H 571.353 1.419 5.3345 0
M  V30 5785 H 573.829 -0.10824 4.15959 0
M  V30 5786 H 572.705 -0.586289 5.4576 0
M  V30 5787 H 572.966 -1.66451 4.09569 0
M  V30 5788 N 572.025 -1.5352 0.356285 0
M  V30 5789 C 573.273 -2.00719 -0.235837 0
M  V30 5790 C 573.594 -1.24551 -1.5004 0
M  V30 5791 O 572.864 -0.356185 -1.92635 0
M  V30 5792 H 571.444 -0.741542 -0.0901366 0
M  V30 5793 H 574.106 -1.88887 0.480378 0
M  V30 5794 H 573.202 -3.08551 -0.469357 0
M  V30 5795 N 573.503 -0.0852151 -1.57369 0
M  V30 5796 C 574.78 0.622534 -1.85429 0
M  V30 5797 C 575.16 1.86962 -0.980229 0
M  V30 5798 O 574.508 2.28445 -0.0500219 0
M  V30 5799 C 574.718 0.947374 -3.35896 0
M  V30 5800 C 576.066 1.31509 -4.03721 0
M  V30 5801 O 577.09 1.03869 -3.40719 0
M  V30 5802 O 575.949 1.83231 -5.14868 0
M  V30 5803 H 573.043 0.310513 -0.766492 0
M  V30 5804 H 575.589 -0.117164 -1.69295 0
M  V30 5805 H 574.361 0.0622264 -3.91251 0
M  V30 5806 H 573.984 1.74338 -3.5734 0
M  V30 5807 N 574.981 1.5647 0.188427 0
M  V30 5808 C 575.891 1.98285 1.2538 0
M  V30 5809 C 576.907 0.891535 1.49424 0
M  V30 5810 O 578.083 1.19782 1.61908 0
M  V30 5811 C 575.148 2.31965 2.57669 0
M  V30 5812 C 574.209 3.54838 2.41638 0
M  V30 5813 C 573.442 3.86901 3.67618 0
M  V30 5814 O 573.665 3.20163 4.72072 0
M  V30 5815 O 572.599 4.80309 3.62749 0
M  V30 5816 H 576.425 2.89145 0.928912 0
M  V30 5817 H 574.01 1.44112 0.393955 0
M  V30 5818 H 575.892 2.54673 3.35737 0
M  V30 5819 H 574.567 1.44271 2.89771 0
M  V30 5820 H 573.474 3.37369 1.61658 0
M  V30 5821 H 574.807 4.43019 2.14465 0
M  V30 5822 N 576.459 -0.456382 1.50847 0
M  V30 5823 C 577.389 -1.56025 1.73719 0
M  V30 5824 C 578.37 -1.5967 0.586473 0
M  V30 5825 O 579.555 -1.75702 0.827185 0
M  V30 5826 C 576.685 -2.94251 1.84483 0
M  V30 5827 C 575.639 -3.05471 2.99786 0
M  V30 5828 C 574.965 -4.45489 2.95709 0
M  V30 5829 C 576.265 -2.81318 4.40065 0
M  V30 5830 H 577.959 -1.37138 2.66146 0
M  V30 5831 H 575.505 -0.658299 1.28072 0
M  V30 5832 H 577.458 -3.71417 1.99067 0
M  V30 5833 H 576.182 -3.14328 0.886891 0
M  V30 5834 H 574.841 -2.30741 2.84876 0
M  V30 5835 H 574.489 -4.62505 1.97732 0
M  V30 5836 H 574.189 -4.53929 3.73125 0
M  V30 5837 H 575.713 -5.24655 3.12362 0
M  V30 5838 H 577.127 -3.48226 4.55425 0
M  V30 5839 H 575.524 -3.01188 5.19043 0
M  V30 5840 H 576.594 -1.7706 4.51418 0
M  V30 5841 N 577.937 -1.40673 -0.710563 0
M  V30 5842 C 579.183 -1.4043 -1.47142 0
M  V30 5843 C 579.538 -0.00781557 -1.92398 0
M  V30 5844 O 578.831 0.963535 -1.6561 0
M  V30 5845 C 579.025 -2.33253 -2.70791 0
M  V30 5846 C 578.854 -3.81789 -2.37629 0
M  V30 5847 C 577.624 -4.5057 -2.28724 0
M  V30 5848 C 579.822 -4.73152 -2.01572 0
M  V30 5849 N 577.804 -5.84312 -1.88289 0
M  V30 5850 C 579.175 -5.95728 -1.71778 0
M  V30 5851 C 581.23 -4.6094 -1.88252 0
M  V30 5852 C 579.933 -7.07454 -1.30003 0
M  V30 5853 C 581.959 -5.72613 -1.47881 0
M  V30 5854 C 581.321 -6.94278 -1.18987 0
M  V30 5855 H 577.42 -0.569115 -0.536314 0
M  V30 5856 H 580.004 -1.76425 -0.823547 0
M  V30 5857 H 578.175 -1.99378 -3.33321 0
M  V30 5858 H 579.907 -2.23833 -3.37166 0
M  V30 5859 H 576.662 -4.04315 -2.46629 0
M  V30 5860 H 577.086 -6.55153 -1.70596 0
M  V30 5861 H 581.728 -3.67389 -2.09249 0
M  V30 5862 H 579.446 -8.00884 -1.07749 0
M  V30 5863 H 583.032 -5.65161 -1.38145 0
M  V30 5864 H 581.912 -7.79222 -0.88219 0
M  V30 5865 N 579.415 0.9433 -1.26252 0
M  V30 5866 C 580.661 1.69175 -1.11837 0
M  V30 5867 C 580.994 1.91238 0.337891 0
M  V30 5868 O 580.269 1.49152 1.24836 0
M  V30 5869 C 580.552 3.06783 -1.88563 0
M  V30 5870 C 580.405 2.9206 -3.42083 0
M  V30 5871 C 581.724 4.06865 -1.67776 0
M  V30 5872 H 578.843 0.61399 -0.407658 0
M  V30 5873 H 581.485 1.09572 -1.55222 0
M  V30 5874 H 579.635 3.57663 -1.51689 0
M  V30 5875 H 581.307 2.48419 -3.88698 0
M  V30 5876 H 579.55 2.27731 -3.69217 0
M  V30 5877 H 580.221 3.89651 -3.90994 0
M  V30 5878 H 582.697 3.64939 -1.99897 0
M  V30 5879 H 581.573 5.01168 -2.23879 0
M  V30 5880 H 581.834 4.37705 -0.621816 0
M  V30 5881 N 580.893 1.08022 1.14757 0
M  V30 5882 C 582.139 0.808705 1.85978 0
M  V30 5883 C 582.472 -0.663764 1.82504 0
M  V30 5884 O 581.747 -1.48765 1.25296 0
M  V30 5885 C 582.03 1.32623 3.34788 0
M  V30 5886 C 581.883 2.86375 3.46856 0
M  V30 5887 C 583.202 0.948291 4.29762 0
M  V30 5888 H 580.321 0.295244 0.675278 0
M  V30 5889 H 582.963 1.33917 1.34783 0
M  V30 5890 H 581.113 0.875002 3.78518 0
M  V30 5891 H 582.785 3.39839 3.11941 0
M  V30 5892 H 581.028 3.24232 2.88194 0
M  V30 5893 H 581.699 3.17658 4.51439 0
M  V30 5894 H 584.175 1.33722 3.94028 0
M  V30 5895 H 583.051 1.33765 5.32352 0
M  V30 5896 H 583.312 -0.145094 4.41862 0
M  V30 5897 N 582.371 -1.3172 0.865308 0
M  V30 5898 C 583.304 -2.26687 0.262376 0
M  V30 5899 C 584.282 -1.50894 -0.605787 0
M  V30 5900 O 585.466 -1.79982 -0.56024 0
M  V30 5901 C 582.593 -3.3281 -0.628915 0
M  V30 5902 C 581.639 -4.26172 0.167278 0
M  V30 5903 S 582.472 -5.12797 1.54272 0
M  V30 5904 C 583.628 -6.22438 0.657427 0
M  V30 5905 H 583.861 -2.77478 1.0674 0
M  V30 5906 H 581.394 -1.39414 0.663555 0
M  V30 5907 H 583.352 -3.94426 -1.13747 0
M  V30 5908 H 582.013 -2.80782 -1.40785 0
M  V30 5909 H 581.206 -5.01392 -0.51203 0
M  V30 5910 H 580.808 -3.69029 0.607777 0
M  V30 5911 H 583.1 -6.77368 -0.133925 0
M  V30 5912 H 584.043 -6.9451 1.38061 0
M  V30 5913 H 584.451 -5.64043 0.227044 0
M  V30 5914 N 583.85 -0.624285 -1.44708 0
M  V30 5915 C 584.76 0.0861083 -2.34442 0
M  V30 5916 C 585.776 0.84291 -1.5222 0
M  V30 5917 O 586.952 0.796723 -1.84971 0
M  V30 5918 C 584.017 1.05999 -3.30099 0
M  V30 5919 C 583.077 0.303316 -4.28227 0
M  V30 5920 C 582.311 1.23081 -5.19314 0
M  V30 5921 O 582.534 2.46929 -5.14181 0
M  V30 5922 O 581.468 0.71883 -5.97592 0
M  V30 5923 H 585.293 -0.651756 -2.96624 0
M  V30 5924 H 582.879 -0.384493 -1.44368 0
M  V30 5925 H 584.76 1.62046 -3.88997 0
M  V30 5926 H 583.436 1.77859 -2.70459 0
M  V30 5927 H 582.343 -0.300033 -3.72895 0
M  V30 5928 H 583.676 -0.375123 -4.90768 0
M  V30 5929 N 585.328 1.53329 -0.364422 0
M  V30 5930 C 586.575 2.01239 0.225634 0
M  V30 5931 C 586.903 1.25172 1.48869 0
M  V30 5932 O 586.158 0.333289 1.92841 0
M  V30 5933 C 586.457 3.52911 0.564661 0
M  V30 5934 C 586.123 4.46837 -0.603936 0
M  V30 5935 C 584.785 4.72234 -0.924585 0
M  V30 5936 C 587.137 5.02409 -1.38691 0
M  V30 5937 C 584.465 5.50454 -2.0302 0
M  V30 5938 C 586.817 5.81836 -2.48293 0
M  V30 5939 C 585.481 6.0552 -2.80894 0
M  V30 5940 H 584.751 0.736386 0.0825654 0
M  V30 5941 H 587.398 1.84948 -0.496645 0
M  V30 5942 H 585.703 3.67144 1.36794 0
M  V30 5943 H 587.4 3.87455 1.03344 0
M  V30 5944 H 583.99 4.27217 -0.343983 0
M  V30 5945 H 588.174 4.82735 -1.15243 0
M  V30 5946 H 583.43 5.67024 -2.28678 0
M  V30 5947 H 587.604 6.23905 -3.0938 0
M  V30 5948 H 585.231 6.65916 -3.66688 0
M  V30 5949 N 586.806 0.0935595 1.57322 0
M  V30 5950 C 587.736 -0.863062 2.16964 0
M  V30 5951 C 588.717 -1.29528 1.10256 0
M  V30 5952 O 589.902 -1.36245 1.38387 0
M  V30 5953 C 587.032 -2.12276 2.74875 0
M  V30 5954 C 585.986 -1.82921 3.86942 0
M  V30 5955 C 585.312 -3.15707 4.31548 0
M  V30 5956 C 586.612 -1.11737 5.10208 0
M  V30 5957 H 588.306 -0.366145 2.97153 0
M  V30 5958 H 585.852 -0.174673 1.42937 0
M  V30 5959 H 587.805 -2.79634 3.1525 0
M  V30 5960 H 586.529 -2.64248 1.91938 0
M  V30 5961 H 585.188 -1.17961 3.47103 0
M  V30 5962 H 584.836 -3.65563 3.45504 0
M  V30 5963 H 584.536 -2.96849 5.07104 0
M  V30 5964 H 586.06 -3.84226 4.74555 0
M  V30 5965 H 587.474 -1.69203 5.47762 0
M  V30 5966 H 585.871 -1.03064 5.91183 0
M  V30 5967 H 586.941 -0.0998818 4.84797 0
M  V30 5968 N 588.284 -1.56567 -0.180126 0
M  V30 5969 C 589.194 -1.98947 -1.24327 0
M  V30 5970 C 590.21 -0.899446 -1.4895 0
M  V30 5971 O 591.386 -1.20639 -1.61271 0
M  V30 5972 C 588.451 -2.33328 -2.56435 0
M  V30 5973 C 587.512 -3.56114 -2.39752 0
M  V30 5974 C 586.745 -3.88845 -3.65561 0
M  V30 5975 O 586.968 -3.22662 -4.70368 0
M  V30 5976 O 585.902 -4.82226 -3.60197 0
M  V30 5977 H 589.728 -2.89634 -0.913565 0
M  V30 5978 H 587.313 -1.44319 -0.386306 0
M  V30 5979 H 589.195 -2.5645 -3.34382 0
M  V30 5980 H 587.87 -1.45806 -2.89002 0
M  V30 5981 H 586.777 -3.38221 -1.59866 0
M  V30 5982 H 588.11 -4.4415 -2.12113 0
M  V30 5983 N 589.762 0.448376 -1.51087 0
M  V30 5984 C 591.01 1.19635 -1.62886 0
M  V30 5985 C 591.331 1.91977 -0.342024 0
M  V30 5986 O 590.601 1.85094 0.641636 0
M  V30 5987 H 589.181 0.444598 -0.600285 0
M  V30 5988 H 591.843 0.515138 -1.87969 0
M  V30 5989 H 590.939 1.93194 -2.45117 0
M  V30 5990 N 591.24 1.41047 0.703093 0
M  V30 5991 C 592.488 1.39723 1.4602 0
M  V30 5992 C 592.809 0.00461257 1.94999 0
M  V30 5993 O 592.079 -0.952292 1.71196 0
M  V30 5994 H 590.659 0.514281 0.541779 0
M  V30 5995 H 593.321 1.76217 0.832678 0
M  V30 5996 H 592.417 2.07982 2.32701 0
M  V30 5997 N 592.718 -0.936591 1.26751 0
M  V30 5998 C 593.681 -2.01752 1.08761 0
M  V30 5999 C 594.681 -1.60763 0.0344435 0
M  V30 6000 O 595.871 -1.71963 0.278258 0
M  V30 6001 C 593.003 -3.34543 0.655271 0
M  V30 6002 H 594.196 -2.19143 2.04735 0
M  V30 6003 H 591.749 -1.11618 1.09413 0
M  V30 6004 H 592.484 -3.22851 -0.30626 0
M  V30 6005 H 592.269 -3.65647 1.41578 0
M  V30 6006 H 593.759 -4.13944 0.551378 0
M  V30 6007 N 594.196 -1.08629 -1.14182 0
M  V30 6008 C 595.126 -0.740003 -2.21464 0
M  V30 6009 C 596.107 0.278591 -1.67803 0
M  V30 6010 O 597.292 0.148461 -1.93632 0
M  V30 6011 C 594.422 -0.150952 -3.46972 0
M  V30 6012 C 593.376 -1.09815 -4.13672 0
M  V30 6013 C 592.702 -0.3712 -5.3341 0
M  V30 6014 C 594.002 -2.43722 -4.61949 0
M  V30 6015 H 595.696 -1.63697 -2.50686 0
M  V30 6016 H 593.242 -0.788526 -1.20492 0
M  V30 6017 H 595.195 0.103325 -4.21273 0
M  V30 6018 H 593.919 0.781164 -3.1712 0
M  V30 6019 H 592.578 -1.33756 -3.41328 0
M  V30 6020 H 592.226 0.564792 -4.99819 0
M  V30 6021 H 591.926 -1.00267 -5.78982 0
M  V30 6022 H 593.45 -0.12503 -6.10472 0
M  V30 6023 H 594.864 -2.24034 -5.27714 0
M  V30 6024 H 593.261 -3.02582 -5.18232 0
M  V30 6025 H 594.331 -3.05082 -3.76899 0
M  V30 6026 N 595.674 1.31259 -0.872281 0
M  V30 6027 C 596.902 2.00795 -0.498907 0
M  V30 6028 C 597.317 1.65464 0.909238 0
M  V30 6029 O 596.674 0.885073 1.59602 0
M  V30 6030 C 596.725 3.55625 -0.649092 0
M  V30 6031 O 596.446 3.89692 -2.00179 0
M  V30 6032 C 597.947 4.42434 -0.277034 0
M  V30 6033 H 595.167 0.642299 -0.194145 0
M  V30 6034 H 597.711 1.67438 -1.17408 0
M  V30 6035 H 595.866 3.87394 -0.0214402 0
M  V30 6036 H 596.28 4.84407 -2.01122 0
M  V30 6037 H 597.754 5.50299 -0.433064 0
M  V30 6038 H 598.231 4.32146 0.783989 0
M  V30 6039 H 598.837 4.16086 -0.880483 0
M  V30 6040 N 597.152 0.631951 1.44375 0
M  V30 6041 C 598.429 0.067646 1.95483 0
M  V30 6042 C 598.809 -1.40683 1.57389 0
M  V30 6043 O 598.157 -2.12167 0.848375 0
M  V30 6044 C 598.367 0.291392 3.47781 0
M  V30 6045 C 599.715 0.185028 4.24197 0
M  V30 6046 O 600.739 0.222803 3.55503 0
M  V30 6047 O 599.598 0.0906642 5.46425 0
M  V30 6048 H 596.692 -0.0218379 0.826712 0
M  V30 6049 H 599.238 0.703711 1.54421 0
M  V30 6050 H 598.01 1.31449 3.68561 0
M  V30 6051 H 597.633 -0.378772 3.95792 0
M  V30 6052 N 598.631 -1.53133 0.372548 0
M  V30 6053 C 599.88 -2.00539 -0.216115 0
M  V30 6054 C 600.193 -1.26374 -1.49295 0
M  V30 6055 O 601.399 -1.64404 -2.16064 0
M  V30 6056 C 599.855 -3.57253 -0.435678 0
M  V30 6057 C 599.463 -4.40302 0.82693 0
M  V30 6058 C 601.207 -4.12995 -0.981618 0
M  V30 6059 C 599.114 -5.88583 0.576567 0
M  V30 6060 H 598.044 -0.749246 -0.084536 0
M  V30 6061 H 600.695 -1.76771 0.492364 0
M  V30 6062 H 599.077 -3.77202 -1.20559 0
M  V30 6063 H 600.251 -4.32124 1.60017 0
M  V30 6064 H 598.566 -3.95699 1.29659 0
M  V30 6065 H 601.163 -5.21418 -1.18436 0
M  V30 6066 H 601.506 -3.68027 -1.94581 0
M  V30 6067 H 602.039 -3.96871 -0.271696 0
M  V30 6068 H 598.778 -6.37841 1.51128 0
M  V30 6069 H 598.298 -5.99592 -0.158047 0
M  V30 6070 H 599.977 -6.46676 0.204722 0
M  V30 6071 N 600.109 -0.101901 -1.5727 0
M  V30 6072 C 601.355 0.561027 -1.94885 0
M  V30 6073 C 601.688 1.6741 -0.984258 0
M  V30 6074 O 600.963 1.94491 -0.0184767 0
M  V30 6075 C 601.246 1.10982 -3.42571 0
M  V30 6076 C 601.099 0.00133418 -4.498 0
M  V30 6077 C 602.418 2.00608 -3.9172 0
M  V30 6078 H 599.537 0.202467 -0.708644 0
M  V30 6079 H 602.179 -0.173992 -1.89202 0
M  V30 6080 H 600.329 1.73621 -3.47546 0
M  V30 6081 H 602.001 -0.63322 -4.56933 0
M  V30 6082 H 600.244 -0.664143 -4.28686 0
M  V30 6083 H 600.915 0.426253 -5.50352 0
M  V30 6084 H 603.391 1.47864 -3.88941 0
M  V30 6085 H 602.267 2.3593 -4.95609 0
M  V30 6086 H 602.528 2.92608 -3.3141 0
M  V30 6087 N 601.587 1.56661 0.17182 0
M  V30 6088 C 602.815 1.861 0.904115 0
M  V30 6089 C 603.23 0.687227 1.75848 0
M  V30 6090 O 602.587 -0.343671 1.79235 0
M  V30 6091 C 602.638 3.14568 1.78127 0
M  V30 6092 O 602.359 4.27422 0.961366 0
M  V30 6093 C 603.86 3.5735 2.62327 0
M  V30 6094 H 601.08 0.617445 0.262684 0
M  V30 6095 H 603.624 2.03775 0.172068 0
M  V30 6096 H 601.779 2.98721 2.46666 0
M  V30 6097 H 602.193 5.00725 1.56123 0
M  V30 6098 H 603.667 4.50144 3.1949 0
M  V30 6099 H 604.144 2.81445 3.37173 0
M  V30 6100 H 604.75 3.75807 1.99121 0
M  V30 6101 N 603.065 -0.440357 1.51323 0
M  V30 6102 C 604.015 -1.53263 1.68803 0
M  V30 6103 C 604.999 -1.51494 0.542057 0
M  V30 6104 O 606.191 -1.57999 0.797839 0
M  V30 6105 C 603.32 -2.91479 1.8137 0
M  V30 6106 C 602.406 -2.98015 3.01742 0
M  V30 6107 N 602.797 -2.743 4.24962 0
M  V30 6108 C 601.095 -3.29173 3.00934 0
M  V30 6109 C 601.796 -2.86601 5.06197 0
M  V30 6110 N 600.772 -3.1814 4.40781 0
M  V30 6111 H 604.574 -1.33675 2.61741 0
M  V30 6112 H 602.088 -0.647616 1.48929 0
M  V30 6113 H 604.085 -3.70055 1.92002 0
M  V30 6114 H 602.745 -3.12089 0.896117 0
M  V30 6115 H 603.756 -2.49287 4.53957 0
M  V30 6116 H 600.433 -3.55577 2.18796 0
M  V30 6117 H 601.823 -2.72246 6.14274 0
M  V30 6118 N 604.543 -1.41418 -0.695603 0
M  V30 6119 C 605.771 -1.4413 -1.48439 0
M  V30 6120 C 606.186 -0.0465698 -1.88743 0
M  V30 6121 O 605.543 0.934117 -1.56782 0
M  V30 6122 C 605.594 -2.34998 -2.74696 0
M  V30 6123 O 605.315 -3.69043 -2.36091 0
M  V30 6124 C 606.816 -2.46513 -3.68438 0
M  V30 6125 H 604.036 -0.490905 -0.457442 0
M  V30 6126 H 606.58 -1.85702 -0.856454 0
M  V30 6127 H 604.735 -1.96735 -3.33728 0
M  V30 6128 H 605.149 -4.17505 -3.17474 0
M  V30 6129 H 606.623 -3.1426 -4.53811 0
M  V30 6130 H 607.1 -1.49638 -4.12922 0
M  V30 6131 H 607.706 -2.85412 -3.1531 0
M  V30 6132 N 606.021 0.929856 -1.27246 0
M  V30 6133 C 607.437 1.20542 -1.04603 0
M  V30 6134 C 607.637 2.00276 0.221754 0
M  V30 6135 O 606.693 2.34835 0.927833 0
M  V30 6136 C 608.006 1.95566 -2.28417 0
M  V30 6137 C 609.554 2.08513 -2.33433 0
M  V30 6138 C 610.029 2.86943 -3.5697 0
M  V30 6139 N 611.52 2.94512 -3.57515 0
M  V30 6140 C 612.255 3.55656 -4.49774 0
M  V30 6141 N 611.751 4.18209 -5.52334 0
M  V30 6142 N 613.544 3.53038 -4.37402 0
M  V30 6143 H 605.695 0.397113 -2.08655 0
M  V30 6144 H 607.958 0.238277 -0.917566 0
M  V30 6145 H 607.664 1.44395 -3.20691 0
M  V30 6146 H 607.538 2.9619 -2.33563 0
M  V30 6147 H 609.925 2.58872 -1.41666 0
M  V30 6148 H 610.006 1.07117 -2.32292 0
M  V30 6149 H 609.65 2.37268 -4.49072 0
M  V30 6150 H 609.58 3.8862 -3.55362 0
M  V30 6151 H 612.071 2.50053 -2.83341 0
M  V30 6152 H 612.384 4.62796 -6.18902 0
M  V30 6153 H 610.729 4.16761 -5.56179 0
M  V30 6154 H 613.92 3.0337 -3.56489 0
M  V30 6155 H 614.093 4.004 -5.09493 0
M  V30 6156 N 607.499 1.09233 1.13605 0
M  V30 6157 C 608.432 0.6739 2.18023 0
M  V30 6158 C 609.41 -0.318603 1.59448 0
M  V30 6159 O 610.594 -0.220452 1.87206 0
M  V30 6160 C 607.721 -0.00751458 3.38699 0
M  V30 6161 C 606.767 0.946481 4.15865 0
M  V30 6162 S 607.6 2.45753 4.75779 0
M  V30 6163 C 608.756 1.78846 5.99804 0
M  V30 6164 H 608.989 1.55846 2.53178 0
M  V30 6165 H 606.522 0.908118 1.2487 0
M  V30 6166 H 608.48 -0.394368 4.08601 0
M  V30 6167 H 607.141 -0.868693 3.01849 0
M  V30 6168 H 606.334 0.416742 5.02274 0
M  V30 6169 H 605.936 1.27464 3.51609 0
M  V30 6170 H 608.228 1.11135 6.68323 0
M  V30 6171 H 609.171 2.63163 6.57382 0
M  V30 6172 H 609.579 1.25823 5.50299 0
M  V30 6173 N 608.977 -1.30795 0.87923 0
M  V30 6174 C 609.925 -2.30231 0.331112 0
M  V30 6175 C 610.919 -1.59918 -0.558794 0
M  V30 6176 O 612.125 -1.74441 -0.443866 0
M  V30 6177 H 608.5 -0.746785 0.088409 0
M  V30 6178 H 610.471 -2.73925 1.18353 0
M  V30 6179 C 609.22 -3.44848 -0.444401 0
M  V30 6180 H 608.543 -3.99131 0.231106 0
M  V30 6181 H 609.983 -4.16516 -0.793109 0
M  V30 6182 C 608.442 -2.94329 -1.63926 0
M  V30 6183 O 608.972 -2.93875 -2.73862 0
M  V30 6184 N 607.178 -2.50413 -1.4745 0
M  V30 6185 H 606.725 -2.50982 -0.58015 0
M  V30 6186 H 606.683 -2.16969 -2.27534 0
M  V30 6187 N 610.455 -0.639598 -1.44038 0
M  V30 6188 C 611.365 0.0612377 -2.3452 0
M  V30 6189 C 612.381 0.826717 -1.53106 0
M  V30 6190 O 613.557 0.777059 -1.85806 0
M  V30 6191 C 610.622 1.02492 -3.31204 0
M  V30 6192 C 609.683 0.25788 -4.28525 0
M  V30 6193 C 608.916 1.17566 -5.2059 0
M  V30 6194 O 609.139 2.41461 -5.16771 0
M  V30 6195 O 608.073 0.655407 -5.98321 0
M  V30 6196 H 611.899 -0.68318 -2.95916 0
M  V30 6197 H 609.484 -0.399784 -1.43952 0
M  V30 6198 H 611.366 1.57911 -3.90694 0
M  V30 6199 H 610.041 1.7498 -2.7233 0
M  V30 6200 H 608.948 -0.339566 -3.72556 0
M  V30 6201 H 610.281 -0.427154 -4.90343 0
M  V30 6202 N 611.933 1.52934 -0.380664 0
M  V30 6203 C 612.843 2.29921 0.466192 0
M  V30 6204 C 613.859 1.36488 1.07922 0
M  V30 6205 O 615.035 1.69553 1.0869 0
M  V30 6206 C 612.1 3.08468 1.58266 0
M  V30 6207 C 611.161 4.17595 0.995627 0
M  V30 6208 C 610.394 4.92387 2.05889 0
M  V30 6209 O 610.617 4.67184 3.27254 0
M  V30 6210 O 609.551 5.77949 1.68102 0
M  V30 6211 H 613.377 3.03274 -0.160735 0
M  V30 6212 H 610.962 1.48698 -0.144617 0
M  V30 6213 H 612.844 3.57469 2.23145 0
M  V30 6214 H 611.519 2.37937 2.19471 0
M  V30 6215 H 610.426 3.72811 0.310332 0
M  V30 6216 H 611.759 4.90336 0.427918 0
M  V30 6217 N 613.412 0.11024 1.57214 0
M  V30 6218 C 614.344 -0.873497 2.11902 0
M  V30 6219 C 615.357 -1.23588 1.05971 0
M  V30 6220 O 616.546 -1.18636 1.33371 0
M  V30 6221 C 613.646 -2.17805 2.59643 0
M  V30 6222 C 612.819 -1.98869 3.89576 0
M  V30 6223 C 611.878 -3.12974 4.23006 0
M  V30 6224 O 610.904 -2.86272 4.91973 0
M  V30 6225 N 612.106 -4.39167 3.79622 0
M  V30 6226 H 614.871 -0.406317 2.96933 0
M  V30 6227 H 612.432 -0.074437 1.61729 0
M  V30 6228 H 614.424 -2.93117 2.79042 0
M  V30 6229 H 612.994 -2.55899 1.7954 0
M  V30 6230 H 612.214 -1.078 3.79174 0
M  V30 6231 H 613.502 -1.83512 4.74553 0
M  V30 6232 H 612.9 -4.63739 3.2398 0
M  V30 6233 H 611.457 -5.11379 4.04147 0
M  V30 6234 N 614.89 -1.56749 -0.16351 0
M  V30 6235 C 616.139 -1.81626 -0.877211 0
M  V30 6236 C 616.452 -0.688791 -1.83071 0
M  V30 6237 O 617.658 -0.822697 -2.58735 0
M  V30 6238 C 616.114 -3.21858 -1.61045 0
M  V30 6239 C 615.722 -4.42494 -0.700195 0
M  V30 6240 C 617.466 -3.56021 -2.31192 0
M  V30 6241 C 615.373 -5.73748 -1.43412 0
M  V30 6242 H 614.303 -0.67731 -0.331312 0
M  V30 6243 H 616.954 -1.83039 -0.13006 0
M  V30 6244 H 615.336 -3.14784 -2.40264 0
M  V30 6245 H 616.51 -4.60766 0.0555849 0
M  V30 6246 H 614.825 -4.1626 -0.10799 0
M  V30 6247 H 617.422 -4.51333 -2.8671 0
M  V30 6248 H 617.765 -2.81277 -3.06902 0
M  V30 6249 H 618.298 -3.64682 -1.58909 0
M  V30 6250 H 615.037 -6.51543 -0.719186 0
M  V30 6251 H 614.557 -5.5944 -2.16302 0
M  V30 6252 H 616.236 -6.15975 -1.9795 0
M  V30 6253 N 616.368 0.432326 -1.51554 0
M  V30 6254 C 617.331 1.50765 -1.72634 0
M  V30 6255 C 618.331 1.49334 -0.596314 0
M  V30 6256 O 619.521 1.51268 -0.863925 0
M  V30 6257 C 616.653 2.90284 -1.7874 0
M  V30 6258 H 617.846 1.33377 -2.68609 0
M  V30 6259 H 615.399 0.661329 -1.4162 0
M  V30 6260 H 616.134 3.13071 -0.845977 0
M  V30 6261 H 615.919 2.92727 -2.6087 0
M  V30 6262 H 617.409 3.68282 -1.96871 0
M  V30 6263 N 617.846 1.41785 0.688094 0
M  V30 6264 C 618.809 1.43936 1.78368 0
M  V30 6265 C 619.809 0.328866 1.57401 0
M  V30 6266 O 620.999 0.589093 1.63937 0
M  V30 6267 C 618.131 1.25804 3.16838 0
M  V30 6268 H 619.324 2.41472 1.77852 0
M  V30 6269 H 616.877 1.28037 0.896448 0
M  V30 6270 H 617.612 0.291386 3.22988 0
M  V30 6271 H 617.397 2.06272 3.33458 0
M  V30 6272 H 618.887 1.30162 3.96797 0
M  V30 6273 N 619.324 -0.923095 1.27737 0
M  V30 6274 C 620.57 -1.67375 1.14514 0
M  V30 6275 C 620.903 -1.91751 -0.307424 0
M  V30 6276 O 620.178 -1.51119 -1.22447 0
M  V30 6277 C 620.461 -3.03745 1.9342 0
M  V30 6278 C 620.314 -2.86581 3.46686 0
M  V30 6279 C 621.633 -4.04144 1.74228 0
M  V30 6280 H 618.752 -0.607427 0.417374 0
M  V30 6281 H 621.394 -1.07089 1.56946 0
M  V30 6282 H 619.544 -3.55204 1.5736 0
M  V30 6283 H 621.216 -2.42203 3.92601 0
M  V30 6284 H 619.459 -2.21829 3.72793 0
M  V30 6285 H 620.13 -3.83381 3.97143 0
M  V30 6286 H 622.606 -3.61712 2.05678 0
M  V30 6287 H 621.482 -4.97543 2.31824 0
M  V30 6288 H 621.743 -4.36661 0.691373 0
M  V30 6289 N 620.802 -1.09834 -1.13024 0
M  V30 6290 C 622.042 -0.846664 -1.8604 0
M  V30 6291 C 622.406 0.616557 -1.81831 0
M  V30 6292 O 623.607 0.984329 -2.50129 0
M  V30 6293 C 621.878 -1.37228 -3.30005 0
M  V30 6294 S 623.437 -1.25511 -4.20467 0
M  V30 6295 H 620.255 -0.30611 -0.64173 0
M  V30 6296 H 622.857 -1.40255 -1.36194 0
M  V30 6297 H 621.561 -2.43138 -3.30624 0
M  V30 6298 H 621.092 -0.81271 -3.84914 0
M  V30 6299 H 623.107 -0.208762 -4.95761 0
M  V30 6300 N 622.28 1.30327 -0.886154 0
M  V30 6301 C 623.21 2.30549 -0.370028 0
M  V30 6302 C 624.191 1.61039 0.547751 0
M  V30 6303 O 625.376 1.8864 0.461353 0
M  V30 6304 C 622.506 3.44808 0.415275 0
M  V30 6305 C 621.46 4.26024 -0.41085 0
M  V30 6306 C 620.786 5.32347 0.501128 0
M  V30 6307 C 622.086 4.95433 -1.65359 0
M  V30 6308 H 623.78 2.73969 -1.20754 0
M  V30 6309 H 621.326 1.3171 -0.582097 0
M  V30 6310 H 623.279 4.13986 0.78699 0
M  V30 6311 H 622.003 3.00197 1.28644 0
M  V30 6312 H 620.662 3.58535 -0.764719 0
M  V30 6313 H 620.31 4.83982 1.37004 0
M  V30 6314 H 620.01 5.87581 -0.0478356 0
M  V30 6315 H 621.534 6.0438 0.869333 0
M  V30 6316 H 622.948 5.5712 -1.35239 0
M  V30 6317 H 621.345 5.60537 -2.14284 0
M  V30 6318 H 622.415 4.21493 -2.39733 0
M  V30 6319 N 623.758 0.647228 1.43697 0
M  V30 6320 C 624.721 -0.0385101 2.29168 0
M  V30 6321 C 625.721 -0.756487 1.41894 0
M  V30 6322 O 626.911 -0.598641 1.63591 0
M  V30 6323 C 624.043 -1.06524 3.23829 0
M  V30 6324 H 625.236 0.713445 2.9129 0
M  V30 6325 H 622.789 0.408153 1.50877 0
M  V30 6326 H 623.524 -1.84664 2.66589 0
M  V30 6327 H 623.309 -0.554147 3.88164 0
M  V30 6328 H 624.799 -1.54432 3.87996 0
M  V30 6329 N 625.236 -1.5273 0.388769 0
M  V30 6330 C 626.482 -2.01871 -0.193877 0
M  V30 6331 C 626.815 -1.27475 -1.46505 0
M  V30 6332 O 626.09 -0.375063 -1.90849 0
M  V30 6333 C 626.373 -3.5712 -0.462336 0
M  V30 6334 C 626.226 -4.42186 0.824091 0
M  V30 6335 C 627.545 -4.21881 -1.25319 0
M  V30 6336 H 624.664 -0.733764 -0.0689899 0
M  V30 6337 H 627.306 -1.82796 0.518231 0
M  V30 6338 H 625.456 -3.73504 -1.06896 0
M  V30 6339 H 627.128 -4.37554 1.46096 0
M  V30 6340 H 625.371 -4.09219 1.43952 0
M  V30 6341 H 626.042 -5.48828 0.590905 0
M  V30 6342 H 628.518 -4.0947 -0.73981 0
M  V30 6343 H 627.394 -5.30487 -1.40977 0
M  V30 6344 H 627.655 -3.79478 -2.26824 0
M  V30 6345 N 626.714 -0.118576 -1.57153 0
M  V30 6346 C 627.644 0.828436 -2.1831 0
M  V30 6347 C 628.625 1.27758 -1.12303 0
M  V30 6348 O 629.81 1.34026 -1.40537 0
M  V30 6349 C 626.94 2.07876 -2.78217 0
M  V30 6350 C 625.894 1.76742 -3.89803 0
M  V30 6351 C 625.22 3.08801 -4.36516 0
M  V30 6352 C 626.52 1.03606 -5.11921 0
M  V30 6353 H 628.214 0.318824 -2.97698 0
M  V30 6354 H 625.76 0.151911 -1.43196 0
M  V30 6355 H 627.713 2.74584 -3.19659 0
M  V30 6356 H 626.437 2.61161 -1.96118 0
M  V30 6357 H 625.096 1.12424 -3.48936 0
M  V30 6358 H 624.744 3.6002 -3.51276 0
M  V30 6359 H 624.444 2.88743 -5.11763 0
M  V30 6360 H 625.968 3.76627 -4.80608 0
M  V30 6361 H 627.382 1.60467 -5.50385 0
M  V30 6362 H 625.779 0.936454 -5.92748 0
M  V30 6363 H 626.849 0.0227421 -4.84895 0
M  V30 6364 N 628.193 1.56834 0.155195 0
M  V30 6365 C 629.125 1.94235 1.21677 0
M  V30 6366 C 630.138 0.83724 1.39621 0
M  V30 6367 O 631.327 1.11567 1.39338 0
M  V30 6368 C 628.427 2.19402 2.58294 0
M  V30 6369 C 627.6 3.50671 2.61436 0
M  V30 6370 C 626.659 3.64475 3.79532 0
M  V30 6371 O 625.685 4.36945 3.64784 0
M  V30 6372 N 626.887 3.00526 4.96653 0
M  V30 6373 H 629.652 2.85901 0.898932 0
M  V30 6374 H 627.213 1.58185 0.34483 0
M  V30 6375 H 629.205 2.25886 3.35794 0
M  V30 6376 H 627.775 1.34042 2.82403 0
M  V30 6377 H 626.995 3.55702 1.69912 0
M  V30 6378 H 628.283 4.3702 2.60559 0
M  V30 6379 H 627.681 2.41549 5.11538 0
M  V30 6380 H 626.238 3.12583 5.71958 0
M  V30 6381 N 629.671 -0.424282 1.51781 0
M  V30 6382 C 630.634 -1.49848 1.73431 0
M  V30 6383 C 631.634 -1.49016 0.604225 0
M  V30 6384 O 632.824 -1.50808 0.871935 0
M  V30 6385 C 629.956 -2.89332 1.80277 0
M  V30 6386 H 631.149 -1.3195 2.69312 0
M  V30 6387 H 628.702 -0.653809 1.41968 0
M  V30 6388 H 629.437 -3.12618 0.862568 0
M  V30 6389 H 629.222 -2.9134 2.62419 0
M  V30 6390 H 630.712 -3.67233 1.98821 0
M  V30 6391 N 631.149 -1.42148 -0.680565 0
M  V30 6392 C 632.079 -1.4796 -1.80638 0
M  V30 6393 C 633.06 -0.336728 -1.66734 0
M  V30 6394 O 634.245 -0.550247 -1.86242 0
M  V30 6395 C 631.375 -1.37569 -3.18892 0
M  V30 6396 C 630.329 -2.49823 -3.47524 0
M  V30 6397 C 629.655 -2.24491 -4.85291 0
M  V30 6398 C 630.955 -3.92144 -3.44994 0
M  V30 6399 H 632.649 -2.42184 -1.76032 0
M  V30 6400 H 630.195 -1.16566 -0.845481 0
M  V30 6401 H 632.148 -1.40243 -3.97379 0
M  V30 6402 H 630.872 -0.398357 -3.24162 0
M  V30 6403 H 629.531 -2.46455 -2.71395 0
M  V30 6404 H 629.179 -1.25066 -4.87204 0
M  V30 6405 H 628.879 -2.99722 -5.05411 0
M  V30 6406 H 630.403 -2.28906 -5.66069 0
M  V30 6407 H 631.817 -3.97145 -4.13459 0
M  V30 6408 H 630.214 -4.67179 -3.76648 0
M  V30 6409 H 631.284 -4.19225 -2.43676 0
M  V30 6410 N 632.627 0.916307 -1.28225 0
M  V30 6411 C 633.852 1.7043 -1.18188 0
M  V30 6412 C 634.277 1.86346 0.256274 0
M  V30 6413 O 633.635 1.37175 1.18544 0
M  V30 6414 C 633.683 3.07546 -1.88275 0
M  V30 6415 O 632.787 3.94904 -1.18848 0
M  V30 6416 H 632.128 0.521967 -0.410423 0
M  V30 6417 H 634.658 1.14589 -1.69501 0
M  V30 6418 H 634.668 3.57793 -1.96082 0
M  V30 6419 H 633.343 2.95279 -2.92887 0
M  V30 6420 H 631.92 3.53339 -1.19187 0
M  V30 6421 N 634.105 1.10431 1.1244 0
M  V30 6422 C 635.351 0.847972 1.84221 0
M  V30 6423 C 635.684 -0.624903 1.83871 0
M  V30 6424 O 634.959 -1.46074 1.28423 0
M  V30 6425 C 635.242 1.39695 3.319 0
M  V30 6426 C 635.095 2.93668 3.40704 0
M  V30 6427 C 636.414 1.03924 4.27654 0
M  V30 6428 H 633.533 0.309502 0.668863 0
M  V30 6429 H 636.175 1.36745 1.31912 0
M  V30 6430 H 634.325 0.955095 3.76577 0
M  V30 6431 H 635.997 3.46379 3.04662 0
M  V30 6432 H 634.24 3.30272 2.81252 0
M  V30 6433 H 634.911 3.27162 4.446 0
M  V30 6434 H 637.387 1.42049 3.91102 0
M  V30 6435 H 636.263 1.45027 5.29394 0
M  V30 6436 H 636.524 -0.051336 4.4207 0
M  V30 6437 N 635.583 -1.29855 0.893053 0
M  V30 6438 C 636.513 -2.3035 0.382249 0
M  V30 6439 C 637.494 -1.61328 -0.539203 0
M  V30 6440 O 638.679 -1.88882 -0.451342 0
M  V30 6441 C 635.809 -3.45024 -0.396983 0
M  V30 6442 C 634.763 -4.258 0.433437 0
M  V30 6443 C 634.089 -5.32605 -0.472889 0
M  V30 6444 C 635.389 -4.94549 1.67984 0
M  V30 6445 H 637.083 -2.73325 1.22205 0
M  V30 6446 H 634.629 -1.314 0.589073 0
M  V30 6447 H 636.582 -4.14398 -0.765024 0
M  V30 6448 H 635.306 -3.00875 -1.2705 0
M  V30 6449 H 633.965 -3.58125 0.783723 0
M  V30 6450 H 633.613 -4.84702 -1.34435 0
M  V30 6451 H 633.313 -5.87547 0.0789958 0
M  V30 6452 H 634.837 -6.04832 -0.837269 0
M  V30 6453 H 636.251 -5.56395 1.38192 0
M  V30 6454 H 634.648 -5.59393 2.17254 0
M  V30 6455 H 635.718 -4.20215 2.41965 0
M  V30 6456 N 637.061 -0.65484 -1.43351 0
M  V30 6457 C 638.011 0.0581325 -2.27926 0
M  V30 6458 C 638.995 0.793188 -1.3999 0
M  V30 6459 O 640.187 0.675387 -1.63608 0
M  V30 6460 C 637.316 1.02272 -3.27712 0
M  V30 6461 C 636.402 0.286048 -4.23134 0
M  V30 6462 N 636.793 -0.698298 -5.00957 0
M  V30 6463 C 635.091 0.527272 -4.42872 0
M  V30 6464 C 635.792 -1.1357 -5.70506 0
M  V30 6465 N 634.768 -0.469631 -5.41568 0
M  V30 6466 H 638.57 -0.697182 -2.85511 0
M  V30 6467 H 636.084 -0.482252 -1.55074 0
M  V30 6468 H 638.081 1.5483 -3.87083 0
M  V30 6469 H 636.741 1.77807 -2.71688 0
M  V30 6470 H 637.752 -1.07708 -5.06576 0
M  V30 6471 H 634.429 1.26367 -3.97916 0
M  V30 6472 H 635.819 -1.95027 -6.42973 0
M  V30 6473 N 638.539 1.52521 -0.396863 0
M  V30 6474 C 639.502 2.2527 0.422604 0
M  V30 6475 C 640.502 1.27184 0.983913 0
M  V30 6476 O 641.692 1.51222 0.864723 0
M  V30 6477 C 638.824 3.01356 1.59365 0
M  V30 6478 H 640.017 2.99133 -0.214416 0
M  V30 6479 H 637.57 1.55587 -0.149128 0
M  V30 6480 H 638.305 2.31813 2.26789 0
M  V30 6481 H 638.09 3.73357 1.19779 0
M  V30 6482 H 639.58 3.56571 2.17363 0
M  V30 6483 N 640.017 0.126909 1.57088 0
M  V30 6484 C 640.949 -0.850973 2.12817 0
M  V30 6485 C 641.962 -1.22457 1.07276 0
M  V30 6486 O 643.151 -1.17215 1.34622 0
M  V30 6487 C 640.251 -2.15039 2.61938 0
M  V30 6488 C 639.424 -1.94726 3.91664 0
M  V30 6489 C 638.483 -3.0847 4.26301 0
M  V30 6490 O 637.509 -2.81038 4.94981 0
M  V30 6491 N 638.711 -4.35116 3.84259 0
M  V30 6492 H 641.476 -0.3748 2.97347 0
M  V30 6493 H 639.037 -0.0572793 1.61799 0
M  V30 6494 H 641.029 -2.90141 2.82135 0
M  V30 6495 H 639.599 -2.5398 1.82244 0
M  V30 6496 H 638.819 -1.03772 3.80296 0
M  V30 6497 H 640.107 -1.78469 4.76473 0
M  V30 6498 H 639.505 -4.60276 3.2888 0
M  V30 6499 H 638.062 -5.07064 4.09548 0
M  V30 6500 N 641.495 -1.56914 -0.146875 0
M  V30 6501 C 642.743 -1.82994 -0.85777 0
M  V30 6502 C 643.064 -0.707814 -1.817 0
M  V30 6503 O 642.334 0.270521 -1.94023 0
M  V30 6504 H 640.914 -0.675106 -0.319751 0
M  V30 6505 H 643.576 -1.9439 -0.140849 0
M  V30 6506 H 642.672 -2.77928 -1.41994 0
M  V30 6507 N 642.974 0.416227 -1.52004 0
M  V30 6508 C 644.22 1.16555 -1.6596 0
M  V30 6509 C 644.553 1.90347 -0.384906 0
M  V30 6510 O 643.828 1.84474 0.616405 0
M  V30 6511 C 644.111 2.1657 -2.87696 0
M  V30 6512 C 643.964 1.46722 -4.25197 0
M  V30 6513 C 645.283 3.17321 -3.04951 0
M  V30 6514 H 642.402 0.422369 -0.603965 0
M  V30 6515 H 645.044 0.452141 -1.84542 0
M  V30 6516 H 643.194 2.77411 -2.71985 0
M  V30 6517 H 644.866 0.89056 -4.52622 0
M  V30 6518 H 643.109 0.769263 -4.26925 0
M  V30 6519 H 643.78 2.19665 -5.0641 0
M  V30 6520 H 646.256 2.66552 -3.19514 0
M  V30 6521 H 645.132 3.84573 -3.91656 0
M  V30 6522 H 645.393 3.84643 -2.17951 0
M  V30 6523 N 644.452 1.42507 0.673017 0
M  V30 6524 C 645.701 1.42364 1.42883 0
M  V30 6525 C 646.014 0.0441598 1.9555 0
M  V30 6526 O 647.22 -0.0798679 2.71382 0
M  V30 6527 C 645.676 2.5043 2.58482 0
M  V30 6528 C 645.284 3.94392 2.12506 0
M  V30 6529 C 647.028 2.59455 3.35981 0
M  V30 6530 C 644.935 4.93964 3.25198 0
M  V30 6531 H 643.865 0.52951 0.536782 0
M  V30 6532 H 646.516 1.68422 0.728448 0
M  V30 6533 H 644.898 2.1754 3.30896 0
M  V30 6534 H 646.072 4.36645 1.47233 0
M  V30 6535 H 644.387 3.89233 1.4794 0
M  V30 6536 H 646.984 3.31025 4.19912 0
M  V30 6537 H 647.327 1.63869 3.82691 0
M  V30 6538 H 647.86 2.91549 2.70637 0
M  V30 6539 H 644.599 5.91034 2.83477 0
M  V30 6540 H 644.119 4.56341 3.89247 0
M  V30 6541 H 645.798 5.15763 3.90637 0
M  V30 6542 N 645.93 -0.909495 1.28709 0
M  V30 6543 C 646.88 -1.9991 1.09636 0
M  V30 6544 C 647.864 -1.60889 0.01872 0
M  V30 6545 O 649.056 -1.75374 0.239338 0
M  V30 6546 C 646.185 -3.34675 0.764702 0
M  V30 6547 C 645.271 -3.80085 1.8814 0
M  V30 6548 N 645.662 -3.97824 3.12361 0
M  V30 6549 C 643.96 -4.09278 1.77221 0
M  V30 6550 C 644.661 -4.35928 3.85151 0
M  V30 6551 N 643.637 -4.44426 3.13028 0
M  V30 6552 H 647.439 -2.11681 2.03883 0
M  V30 6553 H 644.953 -1.09763 1.1969 0
M  V30 6554 H 646.95 -4.12426 0.609132 0
M  V30 6555 H 645.61 -3.24255 -0.169952 0
M  V30 6556 H 646.621 -3.83626 3.47925 0
M  V30 6557 H 643.298 -4.0747 0.909621 0
M  V30 6558 H 644.688 -4.57581 4.92006 0
M  V30 6559 N 647.408 -1.11026 -1.11852 0
M  V30 6560 C 648.824 -0.843294 -1.35502 0
M  V30 6561 C 649.024 0.534179 -1.9429 0
M  V30 6562 O 648.08 1.28585 -2.17307 0
M  V30 6563 C 649.393 -1.94793 -2.29077 0
M  V30 6564 C 650.941 -1.97709 -2.42652 0
M  V30 6565 C 651.416 -3.07364 -3.39546 0
M  V30 6566 N 652.907 -3.0671 -3.47107 0
M  V30 6567 C 653.642 -3.88197 -4.22008 0
M  V30 6568 N 653.138 -4.79635 -4.99922 0
M  V30 6569 N 654.931 -3.76391 -4.17476 0
M  V30 6570 H 647.082 -1.99805 -0.720538 0
M  V30 6571 H 649.345 -0.868633 -0.379711 0
M  V30 6572 H 649.051 -2.93971 -1.93065 0
M  V30 6573 H 648.925 -1.84039 -3.29256 0
M  V30 6574 H 651.312 -0.991604 -2.77941 0
M  V30 6575 H 651.393 -2.1254 -1.4234 0
M  V30 6576 H 651.037 -4.06136 -3.04985 0
M  V30 6577 H 650.967 -2.89774 -4.39703 0
M  V30 6578 H 653.458 -2.40457 -2.91528 0
M  V30 6579 H 653.771 -5.38357 -5.54429 0
M  V30 6580 H 652.116 -4.8366 -4.99097 0
M  V30 6581 H 655.307 -3.04303 -3.55693 0
M  V30 6582 H 655.48 -4.40131 -4.75593 0
M  V30 6583 N 648.886 1.2938 -0.899927 0
M  V30 6584 C 650.163 1.9046 -0.445443 0
M  V30 6585 C 650.543 1.81683 1.07492 0
M  V30 6586 O 649.891 1.24371 1.91688 0
M  V30 6587 C 650.101 3.35529 -0.960279 0
M  V30 6588 C 651.449 4.12556 -1.00412 0
M  V30 6589 O 652.473 3.44434 -0.907965 0
M  V30 6590 O 651.332 5.34294 -1.14857 0
M  V30 6591 H 648.426 0.815253 -0.138893 0
M  V30 6592 H 650.972 1.37844 -0.989808 0
M  V30 6593 H 649.744 3.36074 -2.00425 0
M  V30 6594 H 649.367 3.95624 -0.395939 0
M  V30 6595 N 650.364 0.662433 1.43002 0
M  V30 6596 C 651.613 0.176873 2.00923 0
M  V30 6597 C 651.926 -1.21954 1.52927 0
M  V30 6598 O 653.132 -1.80081 2.03182 0
M  V30 6599 C 651.588 0.265379 3.5892 0
M  V30 6600 C 651.196 1.66507 4.15908 0
M  V30 6601 C 652.94 -0.162103 4.2419 0
M  V30 6602 C 650.847 1.707 5.66229 0
M  V30 6603 H 649.777 0.0623627 0.751417 0
M  V30 6604 H 652.428 0.825813 1.63868 0
M  V30 6605 H 650.81 -0.451235 3.93421 0
M  V30 6606 H 651.984 2.40777 3.92891 0
M  V30 6607 H 650.299 2.03932 3.63044 0
M  V30 6608 H 652.896 -0.150745 5.34487 0
M  V30 6609 H 653.239 -1.19519 3.98774 0
M  V30 6610 H 653.772 0.503075 3.94606 0
M  V30 6611 H 650.511 2.7195 5.96426 0
M  V30 6612 H 650.031 1.00768 5.91275 0
M  V30 6613 H 651.71 1.45487 6.3043 0
M  V30 6614 N 651.842 -1.52309 0.404946 0
M  V30 6615 C 652.789 -2.26898 -0.422597 0
M  V30 6616 C 653.759 -1.2914 -1.04461 0
M  V30 6617 O 654.944 -1.57996 -1.06967 0
M  V30 6618 C 652.084 -3.09053 -1.53559 0
M  V30 6619 C 651.197 -4.21762 -0.934908 0
M  V30 6620 C 650.332 -4.91283 -2.02025 0
M  V30 6621 C 649.371 -5.95962 -1.39628 0
M  V30 6622 N 648.508 -6.59017 -2.42159 0
M  V30 6623 H 653.348 -2.97188 0.219903 0
M  V30 6624 H 650.885 -1.46607 0.120282 0
M  V30 6625 H 652.843 -3.54987 -2.19181 0
M  V30 6626 H 651.473 -2.40942 -2.14818 0
M  V30 6627 H 650.525 -3.80029 -0.167854 0
M  V30 6628 H 651.837 -4.96864 -0.439073 0
M  V30 6629 H 650.991 -5.40601 -2.75383 0
M  V30 6630 H 649.73 -4.15741 -2.54973 0
M  V30 6631 H 648.735 -5.45968 -0.648023 0
M  V30 6632 H 649.96 -6.73445 -0.874553 0
M  V30 6633 H 647.906 -5.86306 -2.94247 0
M  V30 6634 H 647.823 -7.2978 -1.97376 0
M  V30 6635 H 649.091 -7.12974 -3.15099 0
M  V30 6636 N 653.32 -0.135238 -1.57019 0
M  V30 6637 C 654.545 0.529343 -2.00531 0
M  V30 6638 C 654.97 1.58391 -1.01459 0
M  V30 6639 O 654.328 1.81296 0.0113986 0
M  V30 6640 C 654.376 1.11748 -3.42848 0
M  V30 6641 O 653.48 2.23267 -3.46736 0
M  V30 6642 H 652.821 0.130669 -0.651016 0
M  V30 6643 H 655.351 -0.228503 -2.0332 0
M  V30 6644 H 655.361 1.44905 -3.81401 0
M  V30 6645 H 654.036 0.345147 -4.14465 0
M  V30 6646 H 652.613 1.91428 -3.20015 0
M  V30 6647 N 654.798 1.5699 0.138552 0
M  V30 6648 C 656.075 1.74741 0.87891 0
M  V30 6649 C 656.455 0.705522 1.98961 0
M  V30 6650 O 655.803 -0.274066 2.2685 0
M  V30 6651 C 656.013 3.1909 1.4136 0
M  V30 6652 C 657.361 3.81023 1.87368 0
M  V30 6653 O 658.385 3.22571 1.51084 0
M  V30 6654 O 657.244 4.83722 2.54312 0
M  V30 6655 H 654.338 0.714781 0.415953 0
M  V30 6656 H 656.884 1.69248 0.123817 0
M  V30 6657 H 655.656 3.86424 0.61579 0
M  V30 6658 H 655.279 3.29043 2.23196 0
M  V30 6659 N 656.276 -0.40816 1.52223 0
M  V30 6660 C 657.501 -1.18127 1.70472 0
M  V30 6661 C 657.926 -1.83491 0.41384 0
M  V30 6662 O 657.284 -1.70047 -0.628778 0
M  V30 6663 C 657.332 -2.21935 2.84213 0
M  V30 6664 O 656.436 -3.28099 2.4985 0
M  V30 6665 H 655.777 -0.344781 0.56747 0
M  V30 6666 H 658.307 -0.478328 1.9893 0
M  V30 6667 H 658.317 -2.66248 3.09153 0
M  V30 6668 H 656.992 -1.73744 3.7787 0
M  V30 6669 H 655.569 -2.89058 2.35584 0
M  V30 6670 N 657.755 -1.42862 -0.66545 0
M  V30 6671 C 659.004 -1.43119 -1.42126 0
M  V30 6672 C 659.317 -0.0545297 -1.95524 0
M  V30 6673 O 660.523 0.0654747 -2.71421 0
M  V30 6674 C 658.979 -2.51797 -2.5715 0
M  V30 6675 C 658.587 -3.95514 -2.10411 0
M  V30 6676 C 660.331 -2.61233 -3.346 0
M  V30 6677 C 658.238 -4.95682 -3.22573 0
M  V30 6678 H 657.168 -0.532349 -0.533966 0
M  V30 6679 H 659.819 -1.68806 -0.719506 0
M  V30 6680 H 658.201 -2.19292 -3.29738 0
M  V30 6681 H 659.375 -4.3742 -1.44915 0
M  V30 6682 H 657.69 -3.90012 -1.45874 0
M  V30 6683 H 660.287 -3.33248 -4.18151 0
M  V30 6684 H 660.63 -1.65896 -3.81817 0
M  V30 6685 H 661.163 -2.9298 -2.69087 0
M  V30 6686 H 657.902 -5.92529 -2.80338 0
M  V30 6687 H 657.422 -4.58399 -3.86821 0
M  V30 6688 H 659.101 -5.17828 -3.87896 0
M  V30 6689 N 659.233 0.902656 -1.29189 0
M  V30 6690 C 660.163 2.02294 -1.16616 0
M  V30 6691 C 661.144 1.6999 -0.0611175 0
M  V30 6692 O 662.329 1.9271 -0.240072 0
M  V30 6693 C 659.459 3.37018 -0.83882 0
M  V30 6694 C 658.413 3.83522 -1.89986 0
M  V30 6695 C 657.739 5.15337 -1.42589 0
M  V30 6696 C 659.039 4.04169 -3.30824 0
M  V30 6697 H 660.733 2.13071 -2.10336 0
M  V30 6698 H 658.279 1.02378 -1.01266 0
M  V30 6699 H 660.232 4.14895 -0.737584 0
M  V30 6700 H 658.956 3.26325 0.134071 0
M  V30 6701 H 657.615 3.07859 -1.99043 0
M  V30 6702 H 657.263 5.01056 -0.441759 0
M  V30 6703 H 656.963 5.47423 -2.13547 0
M  V30 6704 H 658.487 5.95758 -1.3381 0
M  V30 6705 H 659.901 4.72537 -3.24626 0
M  V30 6706 H 658.298 4.47604 -3.99713 0
M  V30 6707 H 659.368 3.08604 -3.74021 0
M  V30 6708 N 660.711 1.11618 1.11262 0
M  V30 6709 C 661.641 0.79846 2.19424 0
M  V30 6710 C 662.622 -0.234003 1.68483 0
M  V30 6711 O 663.807 -0.0970704 1.93957 0
M  V30 6712 C 660.937 0.242892 3.4645 0
M  V30 6713 C 659.891 1.20744 4.10615 0
M  V30 6714 C 659.217 0.512494 5.32238 0
M  V30 6715 C 660.517 2.55884 4.55325 0
M  V30 6716 H 662.211 1.70286 2.46258 0
M  V30 6717 H 659.757 0.820195 1.18359 0
M  V30 6718 H 661.71 0.00840447 4.21399 0
M  V30 6719 H 660.434 -0.696811 3.1908 0
M  V30 6720 H 659.093 1.42759 3.37662 0
M  V30 6721 H 658.741 -0.432075 5.01141 0
M  V30 6722 H 658.441 1.15583 5.7612 0
M  V30 6723 H 659.965 0.286842 6.09926 0
M  V30 6724 H 661.379 2.37946 5.21588 0
M  V30 6725 H 659.776 3.16216 5.10027 0
M  V30 6726 H 660.846 3.14968 3.68678 0
M  V30 6727 N 662.189 -1.289 0.906776 0
M  V30 6728 C 663.417 -1.99401 0.551969 0
M  V30 6729 C 663.832 -1.67816 -0.865048 0
M  V30 6730 O 663.189 -0.927078 -1.57199 0
M  V30 6731 C 663.24 -3.53779 0.743152 0
M  V30 6732 O 662.961 -3.84248 2.1044 0
M  V30 6733 C 664.462 -4.41543 0.39424 0
M  V30 6734 H 661.682 -0.636926 0.211106 0
M  V30 6735 H 664.226 -1.64266 1.21807 0
M  V30 6736 H 662.381 -3.87201 0.124143 0
M  V30 6737 H 662.795 -4.78904 2.13895 0
M  V30 6738 H 664.269 -5.48957 0.578814 0
M  V30 6739 H 664.746 -4.34073 -0.669137 0
M  V30 6740 H 665.352 -4.13605 0.990491 0
M  V30 6741 N 663.667 -0.670007 -1.42649 0
M  V30 6742 C 664.617 0.0339546 -2.27975 0
M  V30 6743 C 665.601 0.778295 -1.40824 0
M  V30 6744 O 666.793 0.657997 -1.64315 0
M  V30 6745 C 663.922 0.987899 -3.28779 0
M  V30 6746 C 663.008 0.241153 -4.23414 0
M  V30 6747 N 663.399 -0.751392 -5.00188 0
M  V30 6748 C 661.697 0.480269 -4.43407 0
M  V30 6749 C 662.398 -1.19615 -5.69269 0
M  V30 6750 N 661.374 -0.527045 -5.41039 0
M  V30 6751 H 665.176 -0.727425 -2.84756 0
M  V30 6752 H 662.69 -0.498673 -1.54554 0
M  V30 6753 H 664.687 1.50716 -3.88703 0
M  V30 6754 H 663.347 1.74916 -2.73559 0
M  V30 6755 H 664.358 -1.13075 -5.05405 0
M  V30 6756 H 661.035 1.2214 -3.99234 0
M  V30 6757 H 662.425 -2.01836 -6.40868 0
M  V30 6758 N 665.145 1.52092 -0.413018 0
M  V30 6759 C 666.422 1.94356 0.22024 0
M  V30 6760 C 666.802 1.35017 1.62277 0
M  V30 6761 O 666.15 0.527511 2.22328 0
M  V30 6762 C 666.36 3.48289 0.222638 0
M  V30 6763 C 667.708 4.22313 0.440098 0
M  V30 6764 O 668.732 3.54919 0.301826 0
M  V30 6765 O 667.591 5.41829 0.712984 0
M  V30 6766 H 664.685 0.814536 0.14304 0
M  V30 6767 H 667.231 1.63083 -0.469242 0
M  V30 6768 H 666.003 3.83872 -0.758836 0
M  V30 6769 H 665.626 3.85934 0.956057 0
M  V30 6770 N 666.623 0.143563 1.56945 0
M  V30 6771 C 667.871 -0.507402 1.95627 0
M  V30 6772 C 668.192 -1.65626 1.02922 0
M  V30 6773 O 667.462 -1.95693 0.0901136 0
M  V30 6774 H 666.042 -0.190436 0.722318 0
M  V30 6775 H 668.704 0.218257 1.93674 0
M  V30 6776 H 667.8 -0.885816 2.99265 0
M  V30 6777 N 668.101 -1.57061 -0.130224 0
M  V30 6778 C 669.517 -1.52103 -0.483413 0
M  V30 6779 C 669.717 -0.854752 -1.82473 0
M  V30 6780 O 668.773 -0.432342 -2.48771 0
M  V30 6781 C 670.086 -2.96872 -0.47825 0
M  V30 6782 C 671.634 -3.07902 -0.562592 0
M  V30 6783 C 672.109 -4.54211 -0.587929 0
M  V30 6784 N 673.6 -4.58621 -0.649684 0
M  V30 6785 C 674.335 -5.69227 -0.690551 0
M  V30 6786 N 673.831 -6.89358 -0.689743 0
M  V30 6787 N 675.624 -5.57304 -0.732708 0
M  V30 6788 H 667.775 -1.98764 0.748779 0
M  V30 6789 H 670.038 -0.907248 0.274965 0
M  V30 6790 H 669.744 -3.48944 0.439444 0
M  V30 6791 H 669.618 -3.53716 -1.31013 0
M  V30 6792 H 672.005 -2.5584 -1.47071 0
M  V30 6793 H 672.086 -2.54073 0.296764 0
M  V30 6794 H 671.73 -5.06915 0.316096 0
M  V30 6795 H 671.66 -5.0584 -1.46401 0
M  V30 6796 H 674.151 -3.72146 -0.656927 0
M  V30 6797 H 674.464 -7.69408 -0.723239 0
M  V30 6798 H 672.809 -6.91884 -0.657347 0
M  V30 6799 H 676 -4.62363 -0.730625 0
M  V30 6800 H 676.173 -6.43515 -0.76109 0
M  V30 6801 N 669.579 0.400081 -1.52437 0
M  V30 6802 C 670.825 1.14788 -1.67187 0
M  V30 6803 C 671.158 1.89928 -0.405074 0
M  V30 6804 O 670.433 1.85118 0.596804 0
M  V30 6805 C 670.716 2.13507 -2.89977 0
M  V30 6806 C 670.569 1.42204 -4.2673 0
M  V30 6807 C 671.888 3.14069 -3.083 0
M  V30 6808 H 669.007 0.415939 -0.608411 0
M  V30 6809 H 671.649 0.432542 -1.85011 0
M  V30 6810 H 669.799 2.7451 -2.74912 0
M  V30 6811 H 671.471 0.842503 -4.53541 0
M  V30 6812 H 669.714 0.723939 -4.27717 0
M  V30 6813 H 670.385 2.14281 -5.08712 0
M  V30 6814 H 672.861 2.63148 -3.22323 0
M  V30 6815 H 671.737 3.80398 -3.95713 0
M  V30 6816 H 671.998 3.82309 -2.22018 0
M  V30 6817 N 671.057 1.43213 0.657864 0
M  V30 6818 C 672.004 1.48011 1.77092 0
M  V30 6819 C 672.974 0.330291 1.62783 0
M  V30 6820 O 674.159 0.536787 1.83094 0
M  V30 6821 C 671.299 1.40461 3.15222 0
M  V30 6822 C 670.412 2.65612 3.40697 0
M  V30 6823 C 669.547 2.50083 4.68649 0
M  V30 6824 C 668.586 3.70525 4.87214 0
M  V30 6825 N 667.723 3.53835 6.0642 0
M  V30 6826 H 672.563 2.43121 1.72326 0
M  V30 6827 H 670.1 1.20687 0.841013 0
M  V30 6828 H 672.058 1.34079 3.95068 0
M  V30 6829 H 670.688 0.489359 3.19069 0
M  V30 6830 H 669.74 2.82292 2.54982 0
M  V30 6831 H 671.052 3.5509 3.50303 0
M  V30 6832 H 670.206 2.41383 5.56614 0
M  V30 6833 H 668.945 1.58121 4.61356 0
M  V30 6834 H 667.95 3.79639 3.97686 0
M  V30 6835 H 669.175 4.63489 4.96341 0
M  V30 6836 H 667.121 2.64604 6.00267 0
M  V30 6837 H 667.038 4.36912 6.16963 0
M  V30 6838 H 668.306 3.48978 6.97019 0
M  V30 6839 N 672.536 -0.895792 1.29666 0
M  V30 6840 C 673.466 -2.01673 1.17688 0
M  V30 6841 C 674.447 -1.69955 0.0701317 0
M  V30 6842 O 675.632 -1.9258 0.250289 0
M  V30 6843 C 672.762 -3.36568 0.856681 0
M  V30 6844 C 671.716 -3.82509 1.92017 0
M  V30 6845 C 671.042 -5.14574 1.4532 0
M  V30 6846 C 672.342 -4.02409 3.32963 0
M  V30 6847 H 674.036 -2.11953 2.11463 0
M  V30 6848 H 671.582 -1.01839 1.01807 0
M  V30 6849 H 673.535 -4.14498 0.759577 0
M  V30 6850 H 672.259 -3.26391 -0.116763 0
M  V30 6851 H 670.918 -3.068 2.00673 0
M  V30 6852 H 670.566 -5.00815 0.468325 0
M  V30 6853 H 670.266 -5.46283 2.16447 0
M  V30 6854 H 671.79 -5.9504 1.36968 0
M  V30 6855 H 673.204 -4.70808 3.27127 0
M  V30 6856 H 671.601 -4.45478 4.02082 0
M  V30 6857 H 672.671 -3.06616 3.75652 0
M  V30 6858 N 674.014 -1.12206 -1.10668 0
M  V30 6859 C 675.239 -0.898938 -1.86906 0
M  V30 6860 C 675.664 0.546346 -1.79991 0
M  V30 6861 O 675.022 1.38655 -1.1681 0
M  V30 6862 C 675.07 -1.37529 -3.33344 0
M  V30 6863 O 674.174 -0.55218 -4.08687 0
M  V30 6864 H 673.515 -0.323163 -0.580053 0
M  V30 6865 H 676.045 -1.49355 -1.39837 0
M  V30 6866 H 676.055 -1.3733 -3.84193 0
M  V30 6867 H 674.73 -2.42767 -3.37693 0
M  V30 6868 H 673.307 -0.620947 -3.67694 0
M  V30 6869 N 675.492 1.28418 -0.913599 0
M  V30 6870 C 676.769 1.89977 -0.465619 0
M  V30 6871 C 677.149 1.82813 1.05559 0
M  V30 6872 O 676.497 1.26397 1.90358 0
M  V30 6873 C 676.707 3.34492 -0.995813 0
M  V30 6874 C 678.055 4.11468 -1.04782 0
M  V30 6875 O 679.079 3.43451 -0.944445 0
M  V30 6876 O 677.938 5.33046 -1.20518 0
M  V30 6877 H 675.032 0.813734 -0.147532 0
M  V30 6878 H 677.578 1.36786 -1.00437 0
M  V30 6879 H 676.35 3.33929 -2.03978 0
M  V30 6880 H 675.973 3.95181 -0.437878 0
M  V30 6881 N 676.97 0.677563 1.42291 0
M  V30 6882 C 678.217 0.200975 2.015 0
M  V30 6883 C 678.545 -1.19342 1.53583 0
M  V30 6884 O 677.8 -1.81579 0.7299 0
M  V30 6885 C 678.099 0.187229 3.56909 0
M  V30 6886 C 677.765 1.52667 4.24268 0
M  V30 6887 C 676.427 1.89341 4.42384 0
M  V30 6888 C 678.779 2.40869 4.62203 0
M  V30 6889 C 676.107 3.13836 4.95705 0
M  V30 6890 C 678.459 3.64679 5.16906 0
M  V30 6891 C 677.123 4.01519 5.33234 0
M  V30 6892 H 676.393 0.0735418 0.737342 0
M  V30 6893 H 679.04 0.873095 1.70439 0
M  V30 6894 H 677.345 -0.568407 3.87655 0
M  V30 6895 H 679.042 -0.198773 4.00507 0
M  V30 6896 H 675.632 1.23138 4.1053 0
M  V30 6897 H 679.816 2.1382 4.47878 0
M  V30 6898 H 675.072 3.42396 5.06532 0
M  V30 6899 H 679.246 4.33224 5.45243 0
M  V30 6900 H 676.873 4.98062 5.74316 0
M  V30 6901 N 678.448 -1.51871 0.421078 0
M  V30 6902 C 679.696 -2.01539 -0.150492 0
M  V30 6903 C 680.017 -1.30803 -1.44623 0
M  V30 6904 O 679.287 -0.437568 -1.90951 0
M  V30 6905 H 677.867 -0.744698 -0.0586041 0
M  V30 6906 H 680.529 -1.8668 0.560059 0
M  V30 6907 H 679.625 -3.10264 -0.338068 0
M  V30 6908 N 679.926 -0.151884 -1.56866 0
M  V30 6909 C 681.173 0.498004 -1.96281 0
M  V30 6910 C 681.501 1.64551 -1.03698 0
M  V30 6911 O 680.756 1.95585 -0.0671497 0
M  V30 6912 C 681.055 1.04074 -3.41911 0
M  V30 6913 C 680.721 0.0111688 -4.50899 0
M  V30 6914 C 679.383 -0.271844 -4.80432 0
M  V30 6915 C 681.735 -0.68869 -5.1663 0
M  V30 6916 C 679.063 -1.26044 -5.73001 0
M  V30 6917 C 681.415 -1.66613 -6.10264 0
M  V30 6918 C 680.079 -1.9568 -6.38174 0
M  V30 6919 H 679.349 0.182233 -0.718242 0
M  V30 6920 H 681.996 -0.239746 -1.89993 0
M  V30 6921 H 680.301 1.85592 -3.45055 0
M  V30 6922 H 681.998 1.55224 -3.69738 0
M  V30 6923 H 678.588 0.241932 -4.27917 0
M  V30 6924 H 682.772 -0.48324 -4.93942 0
M  V30 6925 H 678.028 -1.49202 -5.92915 0
M  V30 6926 H 682.202 -2.21392 -6.60272 0
M  V30 6927 H 679.829 -2.72434 -7.09707 0
M  V30 6928 N 681.404 1.57128 0.121893 0
M  V30 6929 C 682.644 1.86517 0.836113 0
M  V30 6930 C 683.008 0.739497 1.77188 0
M  V30 6931 O 684.209 0.91508 2.52744 0
M  V30 6932 C 682.48 3.21129 1.56878 0
M  V30 6933 S 684.039 3.72143 2.32497 0
M  V30 6934 H 680.857 0.653923 0.279115 0
M  V30 6935 H 683.459 1.95271 0.0946254 0
M  V30 6936 H 682.163 4.01002 0.873255 0
M  V30 6937 H 681.694 3.15446 2.35069 0
M  V30 6938 H 683.709 3.43413 3.58164 0
M  V30 6939 N 682.882 -0.391992 1.52647 0
M  V30 6940 C 683.845 -1.46135 1.7657 0
M  V30 6941 C 684.845 -1.47701 0.635698 0
M  V30 6942 O 686.035 -1.48924 0.903728 0
M  V30 6943 C 683.167 -2.85443 1.86374 0
M  V30 6944 H 684.36 -1.26208 2.72051 0
M  V30 6945 H 681.913 -0.623549 1.43323 0
M  V30 6946 H 682.648 -3.10718 0.928685 0
M  V30 6947 H 682.433 -2.85708 2.68539 0
M  V30 6948 H 683.923 -3.62933 2.06566 0
M  V30 6949 N 684.36 -1.4356 -0.65026 0
M  V30 6950 C 685.292 -1.44918 -1.77571 0
M  V30 6951 C 686.305 -0.344925 -1.59104 0
M  V30 6952 O 687.494 -0.609537 -1.6777 0
M  V30 6953 C 684.594 -1.24914 -3.15039 0
M  V30 6954 C 683.767 -2.48232 -3.60138 0
M  V30 6955 C 682.826 -2.23409 -4.76419 0
M  V30 6956 O 681.852 -2.9678 -4.85706 0
M  V30 6957 N 683.054 -1.25259 -5.66825 0
M  V30 6958 H 685.819 -2.41935 -1.76883 0
M  V30 6959 H 683.38 -1.38754 -0.834202 0
M  V30 6960 H 685.372 -1.06185 -3.90521 0
M  V30 6961 H 683.942 -0.363319 -3.10481 0
M  V30 6962 H 683.162 -2.82366 -2.75069 0
M  V30 6963 H 684.45 -3.30296 -3.87017 0
M  V30 6964 H 683.848 -0.646246 -5.61997 0
M  V30 6965 H 682.405 -1.12513 -6.42016 0
M  V30 6966 N 685.838 0.888903 -1.30139 0
M  V30 6967 C 687.084 1.6428 -1.18912 0
M  V30 6968 C 687.417 1.92499 0.256477 0
M  V30 6969 O 686.692 1.54312 1.18397 0
M  V30 6970 C 686.975 2.9851 -2.01405 0
M  V30 6971 C 686.828 2.77288 -3.54163 0
M  V30 6972 C 688.147 3.99383 -1.84882 0
M  V30 6973 H 685.266 0.596148 -0.433333 0
M  V30 6974 H 687.908 1.0289 -1.5973 0
M  V30 6975 H 686.058 3.50907 -1.66722 0
M  V30 6976 H 687.73 2.31709 -3.98884 0
M  V30 6977 H 685.973 2.11867 -3.78543 0
M  V30 6978 H 686.644 3.72717 -4.07168 0
M  V30 6979 H 689.12 3.56132 -2.15196 0
M  V30 6980 H 687.996 4.91222 -2.44934 0
M  V30 6981 H 688.257 4.34674 -0.806902 0
M  V30 6982 N 687.317 1.12792 1.10072 0
M  V30 6983 C 688.542 0.908838 1.86427 0
M  V30 6984 C 688.967 -0.536793 1.80278 0
M  V30 6985 O 688.325 -1.38033 1.17543 0
M  V30 6986 C 688.373 1.39295 3.3261 0
M  V30 6987 O 687.477 0.573846 4.08388 0
M  V30 6988 H 686.818 0.326234 0.578331 0
M  V30 6989 H 689.348 1.50094 1.39043 0
M  V30 6990 H 689.358 1.39366 3.83459 0
M  V30 6991 H 688.033 2.44555 3.36401 0
M  V30 6992 H 686.61 0.640438 3.67359 0
M  V30 6993 N 688.795 -1.27931 0.920396 0
M  V30 6994 C 689.742 -2.27085 0.412422 0
M  V30 6995 C 690.712 -1.57858 -0.516725 0
M  V30 6996 O 691.897 -1.85717 -0.437475 0
M  V30 6997 C 689.037 -3.43466 -0.335399 0
M  V30 6998 C 688.15 -4.27425 0.627017 0
M  V30 6999 C 687.285 -5.31016 -0.139916 0
M  V30 7000 C 686.324 -6.06641 0.815683 0
M  V30 7001 N 685.461 -7.02052 0.0818439 0
M  V30 7002 H 690.301 -2.69913 1.26298 0
M  V30 7003 H 687.838 -1.32732 0.634076 0
M  V30 7004 H 689.796 -4.09744 -0.785226 0
M  V30 7005 H 688.426 -3.01611 -1.15025 0
M  V30 7006 H 687.478 -3.6113 1.19537 0
M  V30 7007 H 688.79 -4.79969 1.35763 0
M  V30 7008 H 687.944 -6.03208 -0.649998 0
M  V30 7009 H 686.683 -4.79257 -0.903543 0
M  V30 7010 H 685.688 -5.33294 1.33708 0
M  V30 7011 H 686.913 -6.60489 1.57897 0
M  V30 7012 H 684.859 -6.52634 -0.663671 0
M  V30 7013 H 684.776 -7.52249 0.752163 0
M  V30 7014 H 686.044 -7.78432 -0.407825 0
M  V30 7015 N 690.273 -0.685099 -1.4193 0
M  V30 7016 C 691.183 -0.013404 -2.34596 0
M  V30 7017 C 692.199 0.777589 -1.55658 0
M  V30 7018 O 693.375 0.717553 -1.88184 0
M  V30 7019 C 690.44 0.919031 -3.34297 0
M  V30 7020 C 689.501 0.121417 -4.29128 0
M  V30 7021 C 688.734 1.00944 -5.24067 0
M  V30 7022 O 688.957 2.24898 -5.24192 0
M  V30 7023 O 687.891 0.464724 -6.00103 0
M  V30 7024 H 691.717 -0.776978 -2.93593 0
M  V30 7025 H 689.302 -0.445379 -1.42607 0
M  V30 7026 H 691.184 1.45402 -3.9552 0
M  V30 7027 H 689.859 1.66228 -2.77759 0
M  V30 7028 H 688.766 -0.45792 -3.71287 0
M  V30 7029 H 690.099 -0.582937 -4.88736 0
M  V30 7030 N 691.751 1.51645 -0.429126 0
M  V30 7031 C 692.997 2.02314 0.140286 0
M  V30 7032 C 693.33 1.31314 1.43074 0
M  V30 7033 O 692.605 0.425531 1.89788 0
M  V30 7034 C 692.888 3.5822 0.36749 0
M  V30 7035 C 692.741 4.39846 -0.941039 0
M  V30 7036 C 694.06 4.25055 1.14089 0
M  V30 7037 H 691.179 0.735335 0.0495112 0
M  V30 7038 H 693.821 1.81358 -0.566514 0
M  V30 7039 H 691.971 3.76207 0.969556 0
M  V30 7040 H 693.643 4.33527 -1.57646 0
M  V30 7041 H 691.886 4.05259 -1.54751 0
M  V30 7042 H 692.557 5.47069 -0.73621 0
M  V30 7043 H 695.033 4.11288 0.630986 0
M  V30 7044 H 693.909 5.34038 1.26863 0
M  V30 7045 H 694.17 3.85358 2.16683 0
M  V30 7046 N 693.229 0.160201 1.56784 0
M  V30 7047 C 694.64 -0.358417 1.83227 0
M  V30 7048 C 694.991 -1.63831 1.07952 0
M  V30 7049 O 694.116 -2.13885 0.328995 0
M  V30 7050 C 694.711 -0.657058 3.32368 0
M  V30 7051 C 693.27 -1.12015 3.59346 0
M  V30 7052 C 692.417 -0.15015 2.76893 0
M  V30 7053 H 695.368 0.384669 1.53967 0
M  V30 7054 H 695.389 -1.51033 3.49241 0
M  V30 7055 H 694.901 0.274647 3.87127 0
M  V30 7056 H 693.002 -2.06734 3.09987 0
M  V30 7057 H 693.115 -1.037 4.67743 0
M  V30 7058 H 691.479 -0.645361 2.46388 0
M  V30 7059 H 692.262 0.775379 3.34429 0
M  V30 7060 N 694.707 -1.5719 -0.113559 0
M  V30 7061 C 696.123 -1.52607 -0.467253 0
M  V30 7062 C 696.323 -0.874058 -1.81556 0
M  V30 7063 O 695.379 -0.458703 -2.48299 0
M  V30 7064 C 696.692 -2.97363 -0.446736 0
M  V30 7065 C 698.24 -3.08482 -0.529903 0
M  V30 7066 C 698.715 -4.54809 -0.539721 0
M  V30 7067 N 700.206 -4.59284 -0.601005 0
M  V30 7068 C 700.941 -5.69927 -0.630138 0
M  V30 7069 N 700.437 -6.90051 -0.616589 0
M  V30 7070 N 702.23 -5.5805 -0.673558 0
M  V30 7071 H 694.381 -1.97958 0.769819 0
M  V30 7072 H 696.644 -0.90428 0.284572 0
M  V30 7073 H 696.35 -3.48458 0.47643 0
M  V30 7074 H 696.224 -3.55086 -1.27254 0
M  V30 7075 H 698.611 -2.57386 -1.44349 0
M  V30 7076 H 698.692 -2.53744 0.323695 0
M  V30 7077 H 698.336 -5.06552 0.369843 0
M  V30 7078 H 698.266 -5.07364 -1.41028 0
M  V30 7079 H 700.757 -3.72822 -0.617419 0
M  V30 7080 H 701.07 -7.70132 -0.641592 0
M  V30 7081 H 699.415 -6.92543 -0.583927 0
M  V30 7082 H 702.606 -4.63112 -0.681544 0
M  V30 7083 H 702.779 -6.44286 -0.692794 0
M  V30 7084 N 696.185 0.383891 -1.52853 0
M  V30 7085 C 697.601 0.724316 -1.42218 0
M  V30 7086 C 697.801 1.93943 -0.546654 0
M  V30 7087 O 696.857 2.5249 -0.0220562 0
M  V30 7088 C 698.17 0.954635 -2.85144 0
M  V30 7089 C 699.718 1.05579 -2.94656 0
M  V30 7090 C 700.193 1.3187 -4.38605 0
M  V30 7091 N 701.684 1.38681 -4.41952 0
M  V30 7092 C 702.419 1.60699 -5.50421 0
M  V30 7093 N 701.915 1.80154 -6.68967 0
M  V30 7094 N 703.708 1.6292 -5.37972 0
M  V30 7095 H 695.859 -0.4156 -2.08294 0
M  V30 7096 H 698.122 -0.123776 -0.939885 0
M  V30 7097 H 697.828 0.133829 -3.51445 0
M  V30 7098 H 697.702 1.86788 -3.27704 0
M  V30 7099 H 700.089 1.86716 -2.2852 0
M  V30 7100 H 700.17 0.120338 -2.55517 0
M  V30 7101 H 699.814 0.512416 -5.05309 0
M  V30 7102 H 699.744 2.26708 -4.75301 0
M  V30 7103 H 702.235 1.25334 -3.56511 0
M  V30 7104 H 702.548 1.96476 -7.47407 0
M  V30 7105 H 700.893 1.77368 -6.71986 0
M  V30 7106 H 704.084 1.47276 -4.44328 0
M  V30 7107 H 704.257 1.79739 -6.22574 0
M  V30 7108 N 697.663 1.43903 0.642637 0
M  V30 7109 C 698.61 1.49881 1.75512 0
M  V30 7110 C 699.58 0.347538 1.62423 0
M  V30 7111 O 700.765 0.556177 1.82514 0
M  V30 7112 C 697.905 1.43797 3.13714 0
M  V30 7113 C 697.018 2.6921 3.37861 0
M  V30 7114 C 696.153 2.5504 4.6597 0
M  V30 7115 C 695.192 3.75671 4.83257 0
M  V30 7116 N 694.329 3.60247 6.02633 0
M  V30 7117 H 699.169 2.44935 1.69737 0
M  V30 7118 H 696.706 1.21572 0.828165 0
M  V30 7119 H 698.664 1.38262 3.93624 0
M  V30 7120 H 697.294 0.523173 3.18532 0
M  V30 7121 H 696.346 2.8498 2.51973 0
M  V30 7122 H 697.658 3.58786 3.46517 0
M  V30 7123 H 696.812 2.47273 5.54023 0
M  V30 7124 H 695.551 1.63006 4.59653 0
M  V30 7125 H 694.556 3.83836 3.93637 0
M  V30 7126 H 695.781 4.68728 4.91397 0
M  V30 7127 H 693.727 2.70955 5.97427 0
M  V30 7128 H 693.644 4.43431 6.12295 0
M  V30 7129 H 694.912 3.56351 6.93278 0
M  V30 7130 N 699.141 -0.881989 1.30609 0
M  V30 7131 C 700.366 -1.67236 1.22665 0
M  V30 7132 C 700.791 -1.8696 -0.206777 0
M  V30 7133 O 700.149 -1.4027 -1.14865 0
M  V30 7134 C 700.197 -3.02446 1.96363 0
M  V30 7135 O 699.301 -3.91614 1.29276 0
M  V30 7136 H 698.642 -0.510902 0.424117 0
M  V30 7137 H 701.172 -1.10055 1.72479 0
M  V30 7138 H 701.182 -3.52468 2.055 0
M  V30 7139 H 699.857 -2.8741 3.00613 0
M  V30 7140 H 698.434 -3.50055 1.28514 0
M  V30 7141 N 700.619 -1.13374 -1.09472 0
M  V30 7142 C 701.549 -0.833268 -2.18126 0
M  V30 7143 C 702.53 0.207169 -1.68834 0
M  V30 7144 O 703.715 0.0662012 -1.94087 0
M  V30 7145 C 700.845 -0.297979 -3.46019 0
M  V30 7146 C 699.799 -1.27261 -4.08642 0
M  V30 7147 C 699.125 -0.597104 -5.31356 0
M  V30 7148 C 700.425 -2.63095 -4.51197 0
M  V30 7149 H 702.119 -1.74182 -2.43518 0
M  V30 7150 H 699.665 -0.838921 -1.17039 0
M  V30 7151 H 701.618 -0.0754444 -4.21332 0
M  V30 7152 H 700.342 0.645959 -3.20148 0
M  V30 7153 H 699.001 -1.48113 -3.35348 0
M  V30 7154 H 698.649 0.352293 -5.01765 0
M  V30 7155 H 698.349 -1.24734 -5.74208 0
M  V30 7156 H 699.873 -0.38384 -6.09392 0
M  V30 7157 H 701.287 -2.46214 -5.17737 0
M  V30 7158 H 699.684 -3.2429 -5.04932 0
M  V30 7159 H 700.754 -3.20793 -3.6362 0
M  V30 7160 N 702.098 1.27442 -0.927168 0
M  V30 7161 C 703.344 1.94679 -0.568164 0
M  V30 7162 C 703.677 1.72697 0.888219 0
M  V30 7163 O 702.952 1.05573 1.63354 0
M  V30 7164 C 703.235 3.4882 -0.894253 0
M  V30 7165 C 703.088 3.80146 -2.40435 0
M  V30 7166 C 704.407 4.38281 -0.399766 0
M  V30 7167 H 701.526 0.707071 -0.207892 0
M  V30 7168 H 704.168 1.50568 -1.15885 0
M  V30 7169 H 702.318 3.86522 -0.391566 0
M  V30 7170 H 703.99 3.52238 -2.97869 0
M  V30 7171 H 702.233 3.26716 -2.85375 0
M  V30 7172 H 702.904 4.87835 -2.58304 0
M  V30 7173 H 705.38 4.07726 -0.83058 0
M  V30 7174 H 704.256 5.44955 -0.656885 0
M  V30 7175 H 704.517 4.36521 0.700153 0
M  V30 7176 N 703.576 0.692616 1.41565 0
M  V30 7177 C 704.824 0.221896 2.00878 0
M  V30 7178 C 705.145 -1.18164 1.5512 0
M  V30 7179 O 704.415 -1.79679 0.78054 0
M  V30 7180 H 702.995 0.0790463 0.742806 0
M  V30 7181 H 705.657 0.893115 1.73232 0
M  V30 7182 H 704.753 0.23702 3.11199 0
M  V30 7183 N 705.054 -1.51416 0.437162 0
M  V30 7184 C 706.282 -2.06503 -0.128045 0
M  V30 7185 C 706.697 -1.30461 -1.36475 0
M  V30 7186 O 706.054 -0.364127 -1.78831 0
M  V30 7187 C 706.105 -3.58683 -0.450437 0
M  V30 7188 O 705.826 -4.31853 0.737186 0
M  V30 7189 C 707.327 -4.30284 -1.06633 0
M  V30 7190 H 704.547 -0.670952 -0.00800269 0
M  V30 7191 H 707.091 -1.94996 0.616193 0
M  V30 7192 H 705.246 -3.70106 -1.14457 0
M  V30 7193 H 705.66 -5.22467 0.461347 0
M  V30 7194 H 707.134 -5.37848 -1.24191 0
M  V30 7195 H 707.611 -3.88564 -2.0473 0
M  V30 7196 H 708.217 -4.23304 -0.411585 0
M  V30 7197 N 706.532 -0.168513 -1.56696 0
M  V30 7198 C 707.943 0.348694 -1.83415 0
M  V30 7199 C 708.294 1.63257 -1.0882 0
M  V30 7200 O 707.419 2.13707 -0.340333 0
M  V30 7201 C 708.014 0.639423 -3.32711 0
M  V30 7202 C 706.573 1.10108 -3.59935 0
M  V30 7203 C 705.72 0.135464 -2.76969 0
M  V30 7204 H 708.671 -0.392829 -1.53761 0
M  V30 7205 H 708.692 1.49179 -3.50037 0
M  V30 7206 H 708.204 -0.295173 -3.86976 0
M  V30 7207 H 706.305 2.05088 -3.11079 0
M  V30 7208 H 706.418 1.01218 -4.68286 0
M  V30 7209 H 704.782 0.632286 -2.46727 0
M  V30 7210 H 705.565 -0.793104 -3.34013 0
M  V30 7211 N 708.01 1.57248 0.105221 0
M  V30 7212 C 709.24 1.89492 0.823175 0
M  V30 7213 C 709.648 0.75934 1.73294 0
M  V30 7214 O 708.991 -0.278182 1.81581 0
M  V30 7215 C 709.053 3.16891 1.69765 0
M  V30 7216 C 708.717 4.46787 0.960769 0
M  V30 7217 C 709.714 5.19061 0.295218 0
M  V30 7218 C 707.399 4.93467 0.937854 0
M  V30 7219 C 709.393 6.36246 -0.383393 0
M  V30 7220 C 707.08 6.10566 0.255452 0
M  V30 7221 C 708.078 6.81804 -0.404003 0
M  V30 7222 O 707.766 7.96673 -1.07549 0
M  V30 7223 H 707.498 0.631512 0.24118 0
M  V30 7224 H 710.052 2.05203 0.0899655 0
M  V30 7225 H 708.282 2.973 2.47285 0
M  V30 7226 H 709.971 3.35046 2.29126 0
M  V30 7227 H 710.737 4.84044 0.304448 0
M  V30 7228 H 706.616 4.37913 1.44058 0
M  V30 7229 H 710.16 6.91787 -0.898696 0
M  V30 7230 H 706.057 6.45039 0.244032 0
M  V30 7231 H 706.825 8.12596 -0.981355 0
M  V30 7232 N 709.488 -0.375779 1.53054 0
M  V30 7233 C 710.734 -1.11767 1.6994 0
M  V30 7234 C 711.089 -1.87288 0.440574 0
M  V30 7235 O 710.382 -1.83045 -0.566146 0
M  V30 7236 C 710.576 -2.11356 2.88207 0
M  V30 7237 C 710.405 -1.45619 4.25471 0
M  V30 7238 C 709.175 -1.21464 4.90484 0
M  V30 7239 C 711.373 -0.899276 5.06377 0
M  V30 7240 N 709.355 -0.519705 6.11696 0
M  V30 7241 C 710.726 -0.333138 6.19104 0
M  V30 7242 C 712.781 -0.79697 4.9148 0
M  V30 7243 C 711.484 0.325316 7.18564 0
M  V30 7244 C 713.51 -0.152315 5.91204 0
M  V30 7245 C 712.872 0.402994 7.03246 0
M  V30 7246 H 708.971 -0.394489 0.675206 0
M  V30 7247 H 711.555 -0.40541 1.90432 0
M  V30 7248 H 709.726 -2.79905 2.69272 0
M  V30 7249 H 711.458 -2.78148 2.93966 0
M  V30 7250 H 708.213 -1.49319 4.49445 0
M  V30 7251 H 708.637 -0.187896 6.76739 0
M  V30 7252 H 713.279 -1.21208 4.05054 0
M  V30 7253 H 710.997 0.752399 8.0459 0
M  V30 7254 H 714.583 -0.074223 5.81753 0
M  V30 7255 H 713.463 0.89394 7.79088 0
M  V30 7256 N 710.966 -1.44241 -0.634997 0
M  V30 7257 C 711.899 -1.45274 -1.75985 0
M  V30 7258 C 712.877 -0.312025 -1.59578 0
M  V30 7259 O 714.061 -0.508409 -1.81514 0
M  V30 7260 C 711.188 -1.28173 -3.13511 0
M  V30 7261 C 710.234 -2.45757 -3.48576 0
M  V30 7262 S 711.067 -4.08293 -3.46492 0
M  V30 7263 C 712.223 -3.93608 -4.86645 0
M  V30 7264 H 712.456 -2.40454 -1.74841 0
M  V30 7265 H 709.989 -1.31492 -0.809268 0
M  V30 7266 H 711.947 -1.18993 -3.92875 0
M  V30 7267 H 710.608 -0.34511 -3.12198 0
M  V30 7268 H 709.801 -2.29644 -4.48642 0
M  V30 7269 H 709.403 -2.51657 -2.76667 0
M  V30 7270 H 711.695 -3.57059 -5.75774 0
M  V30 7271 H 712.638 -4.9349 -5.07813 0
M  V30 7272 H 713.046 -3.25737 -4.61038 0
M  V30 7273 N 712.444 0.87505 -1.31075 0
M  V30 7274 C 713.407 1.96333 -1.18263 0
M  V30 7275 C 714.407 1.60416 -0.111106 0
M  V30 7276 O 715.597 1.7044 -0.359987 0
M  V30 7277 C 712.729 3.31036 -0.81414 0
M  V30 7278 H 713.922 2.09125 -2.14958 0
M  V30 7279 H 711.475 1.06271 -1.14614 0
M  V30 7280 H 712.21 3.23944 0.151875 0
M  V30 7281 H 711.995 3.58476 -1.58862 0
M  V30 7282 H 713.485 4.10842 -0.748249 0
M  V30 7283 N 713.922 1.13953 1.08869 0
M  V30 7284 C 715.333 0.916649 1.62648 0
M  V30 7285 C 715.684 -0.545589 1.88462 0
M  V30 7286 O 714.809 -1.41351 1.63856 0
M  V30 7287 C 715.404 1.65751 2.95486 0
M  V30 7288 C 713.963 1.48034 3.46068 0
M  V30 7289 C 713.11 1.68305 2.20383 0
M  V30 7290 H 716.061 1.292 0.921572 0
M  V30 7291 H 716.082 1.11794 3.63707 0
M  V30 7292 H 715.594 2.72171 2.76667 0
M  V30 7293 H 713.695 0.439416 3.7 0
M  V30 7294 H 713.808 2.24719 4.23129 0
M  V30 7295 H 712.172 1.10833 2.29321 0
M  V30 7296 H 712.955 2.76057 2.04077 0
M  V30 7297 N 715.4 -1.26948 0.933913 0
M  V30 7298 C 716.31 -2.30366 0.443671 0
M  V30 7299 C 717.326 -1.67284 -0.478745 0
M  V30 7300 O 718.502 -1.98156 -0.360043 0
M  V30 7301 C 715.567 -3.45485 -0.289974 0
M  V30 7302 C 714.628 -4.24069 0.668114 0
M  V30 7303 C 713.861 -5.33691 -0.0306138 0
M  V30 7304 O 714.084 -5.5656 -1.24888 0
M  V30 7305 O 713.018 -5.98441 0.644384 0
M  V30 7306 H 716.844 -2.74349 1.30254 0
M  V30 7307 H 714.429 -1.32012 0.699506 0
M  V30 7308 H 716.311 -4.15486 -0.70353 0
M  V30 7309 H 714.986 -3.03546 -1.12435 0
M  V30 7310 H 713.893 -3.56579 1.13147 0
M  V30 7311 H 715.226 -4.69739 1.46989 0
M  V30 7312 N 716.879 -0.700114 -1.41195 0
M  V30 7313 C 717.809 -0.0521132 -2.33442 0
M  V30 7314 C 718.79 0.76228 -1.52063 0
M  V30 7315 O 719.975 0.714336 -1.80585 0
M  V30 7316 C 717.105 0.881693 -3.35922 0
M  V30 7317 C 716.059 0.174062 -4.27646 0
M  V30 7318 C 715.385 1.22254 -5.20536 0
M  V30 7319 C 716.685 -0.962396 -5.13357 0
M  V30 7320 H 718.379 -0.822574 -2.87879 0
M  V30 7321 H 715.925 -0.397011 -1.38419 0
M  V30 7322 H 717.878 1.34429 -3.99383 0
M  V30 7323 H 716.602 1.68387 -2.79845 0
M  V30 7324 H 715.261 -0.268551 -3.65615 0
M  V30 7325 H 714.909 2.01736 -4.60773 0
M  V30 7326 H 714.609 0.754038 -5.82742 0
M  V30 7327 H 716.133 1.68555 -5.86874 0
M  V30 7328 H 717.547 -0.579875 -5.7036 0
M  V30 7329 H 715.944 -1.35828 -5.84526 0
M  V30 7330 H 717.014 -1.80003 -4.50252 0
M  V30 7331 N 718.357 1.51182 -0.445186 0
M  V30 7332 C 719.606 2.01342 0.120189 0
M  V30 7333 C 719.919 1.33353 1.43095 0
M  V30 7334 O 721.125 1.74525 2.07974 0
M  V30 7335 C 719.581 3.58925 0.264732 0
M  V30 7336 C 719.189 4.35855 -1.03606 0
M  V30 7337 C 720.933 4.17208 0.783455 0
M  V30 7338 C 718.84 5.85162 -0.856731 0
M  V30 7339 H 717.77 0.752426 0.0486922 0
M  V30 7340 H 720.421 1.74221 -0.576143 0
M  V30 7341 H 718.803 3.82525 1.02425 0
M  V30 7342 H 719.977 4.23997 -1.80452 0
M  V30 7343 H 718.292 3.89062 -1.48391 0
M  V30 7344 H 720.889 5.26475 0.934239 0
M  V30 7345 H 721.232 3.76892 1.768 0
M  V30 7346 H 721.765 3.97715 0.0820346 0
M  V30 7347 H 718.504 6.29904 -1.81388 0
M  V30 7348 H 718.024 5.99663 -0.128206 0
M  V30 7349 H 719.703 6.44963 -0.513027 0
M  V30 7350 N 719.835 0.176821 1.56605 0
M  V30 7351 C 721.06 -0.47599 2.01864 0
M  V30 7352 C 721.485 -1.55645 1.05623 0
M  V30 7353 O 720.843 -1.81263 0.0366729 0
M  V30 7354 C 720.891 -1.02619 3.4569 0
M  V30 7355 O 719.995 -2.13996 3.52533 0
M  V30 7356 H 719.336 -0.113363 0.654251 0
M  V30 7357 H 721.866 0.28233 2.02643 0
M  V30 7358 H 721.876 -1.34742 3.85109 0
M  V30 7359 H 720.551 -0.235138 4.15235 0
M  V30 7360 H 719.128 -1.82876 3.24978 0
M  V30 7361 N 721.313 -1.57302 -0.09688 0
M  V30 7362 C 722.729 -1.53094 -0.451041 0
M  V30 7363 C 722.929 -0.893265 -1.80618 0
M  V30 7364 O 721.985 -0.485013 -2.47798 0
M  V30 7365 C 723.298 -2.9782 -0.415172 0
M  V30 7366 C 724.846 -3.09026 -0.497155 0
M  V30 7367 C 725.321 -4.55356 -0.491452 0
M  V30 7368 N 726.812 -4.59896 -0.552258 0
M  V30 7369 C 727.547 -5.70563 -0.569654 0
M  V30 7370 N 727.043 -6.90666 -0.543365 0
M  V30 7371 N 728.836 -5.58733 -0.614331 0
M  V30 7372 H 720.987 -1.97131 0.790771 0
M  V30 7373 H 723.25 -0.901211 0.294147 0
M  V30 7374 H 722.956 -3.47933 0.513362 0
M  V30 7375 H 722.83 -3.56416 -1.23481 0
M  V30 7376 H 725.217 -2.58902 -1.41611 0
M  V30 7377 H 725.298 -2.53386 0.35059 0
M  V30 7378 H 724.942 -5.06131 0.423549 0
M  V30 7379 H 724.872 -5.08832 -1.35639 0
M  V30 7380 H 727.363 -3.73456 -0.577842 0
M  V30 7381 H 727.676 -7.70769 -0.559873 0
M  V30 7382 H 726.021 -6.93123 -0.510441 0
M  V30 7383 H 729.212 -4.63809 -0.632387 0
M  V30 7384 H 729.385 -6.44984 -0.62442 0
M  V30 7385 N 722.791 0.367657 -1.53252 0
M  V30 7386 C 723.721 1.45632 -1.8252 0
M  V30 7387 C 724.702 1.55979 -0.678568 0
M  V30 7388 O 725.887 1.70581 -0.928217 0
M  V30 7389 C 723.017 2.82994 -2.01325 0
M  V30 7390 C 721.971 2.87473 -3.17086 0
M  V30 7391 C 721.297 4.2749 -3.21179 0
M  V30 7392 C 722.597 2.55182 -4.55719 0
M  V30 7393 H 724.291 1.21387 -2.73689 0
M  V30 7394 H 721.837 0.58251 -1.31692 0
M  V30 7395 H 723.79 3.59179 -2.20383 0
M  V30 7396 H 722.514 3.08622 -1.06864 0
M  V30 7397 H 721.173 2.13739 -2.97844 0
M  V30 7398 H 720.821 4.5019 -2.24361 0
M  V30 7399 H 720.521 4.31403 -3.98955 0
M  V30 7400 H 722.045 5.0555 -3.42419 0
M  V30 7401 H 723.459 3.21081 -4.74953 0
M  V30 7402 H 721.856 2.70414 -5.3572 0
M  V30 7403 H 722.926 1.5044 -4.60973 0
M  V30 7404 N 724.269 1.44576 0.627338 0
M  V30 7405 C 725.68 1.42266 1.20902 0
M  V30 7406 C 726.031 0.139964 1.957 0
M  V30 7407 O 725.156 -0.759489 2.02634 0
M  V30 7408 C 725.751 2.57727 2.19914 0
M  V30 7409 C 724.31 2.58599 2.73502 0
M  V30 7410 C 723.457 2.34145 1.48564 0
M  V30 7411 H 726.408 1.53102 0.417791 0
M  V30 7412 H 726.429 2.30697 3.02588 0
M  V30 7413 H 725.941 3.51068 1.65447 0
M  V30 7414 H 724.042 1.6921 3.31962 0
M  V30 7415 H 724.155 3.57205 3.19282 0
M  V30 7416 H 722.519 1.83313 1.76829 0
M  V30 7417 H 723.302 3.29606 0.959935 0
M  V30 7418 N 725.747 -0.868086 1.31537 0
M  V30 7419 C 726.977 -1.65162 1.24118 0
M  V30 7420 C 727.385 -1.88187 -0.195558 0
M  V30 7421 O 726.728 -1.44154 -1.13866 0
M  V30 7422 C 726.79 -3.04119 1.91708 0
M  V30 7423 C 726.454 -3.04194 3.4105 0
M  V30 7424 C 727.451 -2.82016 4.36764 0
M  V30 7425 C 725.136 -3.25256 3.82772 0
M  V30 7426 C 727.13 -2.80881 5.72175 0
M  V30 7427 C 724.817 -3.23749 5.18295 0
M  V30 7428 C 725.815 -3.01589 6.12808 0
M  V30 7429 O 725.503 -2.9993 7.45853 0
M  V30 7430 H 725.235 -0.521597 0.430015 0
M  V30 7431 H 727.789 -1.09165 1.73989 0
M  V30 7432 H 726.019 -3.61849 1.36389 0
M  V30 7433 H 727.708 -3.64701 1.78179 0
M  V30 7434 H 728.474 -2.65525 4.05859 0
M  V30 7435 H 724.353 -3.41534 3.09638 0
M  V30 7436 H 727.897 -2.63503 6.45919 0
M  V30 7437 H 723.794 -3.39781 5.48834 0
M  V30 7438 H 724.562 -3.15979 7.55049 0
M  V30 7439 N 727.225 -1.14528 -1.08264 0
M  V30 7440 C 728.473 -0.912599 -1.80322 0
M  V30 7441 C 728.794 0.562256 -1.86718 0
M  V30 7442 O 728.064 1.40869 -1.36135 0
M  V30 7443 H 726.644 -0.334645 -0.667849 0
M  V30 7444 H 729.306 -1.44415 -1.30883 0
M  V30 7445 H 728.402 -1.31384 -2.83098 0
M  V30 7446 N 728.703 1.26451 -0.940633 0
M  V30 7447 C 730.114 1.75726 -0.630653 0
M  V30 7448 C 730.465 1.76631 0.854167 0
M  V30 7449 O 729.59 1.37807 1.66848 0
M  V30 7450 C 730.185 3.19114 -1.13805 0
M  V30 7451 C 728.744 3.66005 -0.878497 0
M  V30 7452 C 727.891 2.45505 -1.28928 0
M  V30 7453 H 730.842 1.12535 -1.119 0
M  V30 7454 H 730.863 3.77311 -0.491625 0
M  V30 7455 H 730.375 3.18424 -2.21874 0
M  V30 7456 H 728.476 3.72126 0.187833 0
M  V30 7457 H 728.589 4.54844 -1.50512 0
M  V30 7458 H 726.953 2.4467 -0.707713 0
M  V30 7459 H 727.736 2.47516 -2.37888 0
M  V30 7460 N 730.181 0.707592 1.40822 0
M  V30 7461 C 731.091 0.0507246 2.34545 0
M  V30 7462 C 732.107 -0.752727 1.56876 0
M  V30 7463 O 733.283 -0.687524 1.89302 0
M  V30 7464 C 730.348 -0.865731 3.35717 0
M  V30 7465 C 729.409 -0.0531313 4.29267 0
M  V30 7466 C 728.642 -0.925939 5.25606 0
M  V30 7467 O 728.865 -2.16531 5.27703 0
M  V30 7468 O 727.799 -0.369194 6.00767 0
M  V30 7469 H 731.625 0.823587 2.9232 0
M  V30 7470 H 729.21 0.46801 1.4188 0
M  V30 7471 H 731.092 -1.39091 3.97783 0
M  V30 7472 H 729.767 -1.61788 2.80368 0
M  V30 7473 H 728.674 0.516931 3.70511 0
M  V30 7474 H 730.007 0.660617 4.87747 0
M  V30 7475 N 731.66 -1.50943 0.453197 0
M  V30 7476 C 732.906 -2.02512 -0.108082 0
M  V30 7477 C 733.239 -1.33574 -1.40967 0
M  V30 7478 O 732.514 -0.455671 -1.89087 0
M  V30 7479 C 732.797 -3.58759 -0.310453 0
M  V30 7480 C 732.65 -4.38293 1.0109 0
M  V30 7481 C 733.969 -4.26816 -1.07313 0
M  V30 7482 H 731.088 -0.73603 -0.0378064 0
M  V30 7483 H 733.73 -1.80433 0.595295 0
M  V30 7484 H 731.88 -3.77702 -0.909582 0
M  V30 7485 H 733.552 -4.30964 1.64523 0
M  V30 7486 H 731.795 -4.02745 1.61179 0
M  V30 7487 H 732.466 -5.45828 0.82315 0
M  V30 7488 H 734.942 -4.1224 -0.565473 0
M  V30 7489 H 733.818 -5.35989 -1.1835 0
M  V30 7490 H 734.079 -3.88757 -2.10525 0
M  V30 7491 N 733.138 -0.185124 -1.56509 0
M  V30 7492 C 734.415 0.503348 -1.89013 0
M  V30 7493 C 734.795 1.80349 -1.09715 0
M  V30 7494 O 734.143 2.27665 -0.195203 0
M  V30 7495 C 734.353 0.731839 -3.41241 0
M  V30 7496 C 735.701 1.05568 -4.11267 0
M  V30 7497 O 736.725 0.819906 -3.46635 0
M  V30 7498 O 735.584 1.50116 -5.25478 0
M  V30 7499 H 732.678 0.261139 -0.784688 0
M  V30 7500 H 735.224 -0.224592 -1.68207 0
M  V30 7501 H 733.996 -0.18672 -3.90854 0
M  V30 7502 H 733.619 1.5126 -3.67704 0
M  V30 7503 N 734.616 1.57351 0.0885366 0
M  V30 7504 C 735.865 1.85604 0.789556 0
M  V30 7505 C 736.178 0.775352 1.79576 0
M  V30 7506 O 737.384 0.945206 2.54515 0
M  V30 7507 C 735.84 3.29175 1.45506 0
M  V30 7508 C 735.448 4.45331 0.488278 0
M  V30 7509 C 737.192 3.66646 2.13942 0
M  V30 7510 C 735.099 5.79937 1.15874 0
M  V30 7511 H 734.029 0.692346 0.298619 0
M  V30 7512 H 736.68 1.83451 0.0425821 0
M  V30 7513 H 735.062 3.25889 2.24972 0
M  V30 7514 H 736.236 4.59977 -0.275359 0
M  V30 7515 H 734.551 4.16301 -0.0907363 0
M  V30 7516 H 737.148 4.64498 2.6485 0
M  V30 7517 H 737.491 2.956 2.93132 0
M  V30 7518 H 738.024 3.71848 1.41328 0
M  V30 7519 H 734.763 6.54232 0.407508 0
M  V30 7520 H 734.283 5.69123 1.89364 0
M  V30 7521 H 735.962 6.24718 1.68336 0
M  V30 7522 N 736.094 -0.359525 1.53444 0
M  V30 7523 C 737.34 -1.09958 1.71116 0
M  V30 7524 C 737.695 -1.8681 0.460414 0
M  V30 7525 O 736.988 -1.83635 -0.5467 0
M  V30 7526 C 737.182 -2.08287 2.90433 0
M  V30 7527 C 737.011 -1.41098 4.26991 0
M  V30 7528 C 735.781 -1.16255 4.91745 0
M  V30 7529 C 737.979 -0.845517 5.07302 0
M  V30 7530 N 735.961 -0.454798 6.12213 0
M  V30 7531 C 737.332 -0.267455 6.19423 0
M  V30 7532 C 739.387 -0.744797 4.92298 0
M  V30 7533 C 738.09 0.401511 7.18179 0
M  V30 7534 C 740.116 -0.0896013 5.91332 0
M  V30 7535 C 739.478 0.47756 7.02779 0
M  V30 7536 H 735.577 -0.387305 0.679352 0
M  V30 7537 H 738.161 -0.38519 1.90852 0
M  V30 7538 H 736.332 -2.77034 2.72226 0
M  V30 7539 H 738.064 -2.75015 2.96899 0
M  V30 7540 H 734.819 -1.44544 4.51003 0
M  V30 7541 H 735.243 -0.116108 6.769 0
M  V30 7542 H 739.885 -1.16905 4.06317 0
M  V30 7543 H 737.603 0.837694 8.03746 0
M  V30 7544 H 741.189 -0.0125162 5.81799 0
M  V30 7545 H 740.069 0.976522 7.78096 0
M  V30 7546 N 737.572 -1.44907 -0.619662 0
M  V30 7547 C 738.797 -1.52021 -1.41083 0
M  V30 7548 C 739.222 -0.14976 -1.87503 0
M  V30 7549 O 738.58 0.863303 -1.59426 0
M  V30 7550 C 738.628 -2.49911 -2.59955 0
M  V30 7551 O 737.732 -2.00857 -3.60181 0
M  V30 7552 H 737.073 -0.512912 -0.421684 0
M  V30 7553 H 739.603 -1.90149 -0.755282 0
M  V30 7554 H 739.613 -2.68323 -3.07354 0
M  V30 7555 H 738.288 -3.4945 -2.25516 0
M  V30 7556 H 736.865 -1.92265 -3.19513 0
M  V30 7557 N 739.05 0.861098 -1.31996 0
M  V30 7558 C 739.98 1.98482 -1.22993 0
M  V30 7559 C 740.961 1.6971 -0.115168 0
M  V30 7560 O 742.146 1.91849 -0.30126 0
M  V30 7561 C 739.276 3.34179 -0.945615 0
M  V30 7562 C 738.23 3.77284 -2.02091 0
M  V30 7563 C 737.556 5.1054 -1.58912 0
M  V30 7564 C 738.856 3.93439 -3.43515 0
M  V30 7565 H 740.55 2.06271 -2.17008 0
M  V30 7566 H 738.096 0.991043 -1.04472 0
M  V30 7567 H 740.049 4.12338 -0.869206 0
M  V30 7568 H 738.773 3.26586 0.0301849 0
M  V30 7569 H 737.432 3.01371 -2.08737 0
M  V30 7570 H 737.08 4.99397 -0.600942 0
M  V30 7571 H 736.78 5.40352 -2.30854 0
M  V30 7572 H 738.304 5.91199 -1.52696 0
M  V30 7573 H 739.718 4.6197 -3.39495 0
M  V30 7574 H 738.115 4.34661 -4.13751 0
M  V30 7575 H 739.185 2.96548 -3.8365 0
M  V30 7576 N 740.528 1.15101 1.07655 0
M  V30 7577 C 741.776 0.922149 1.79836 0
M  V30 7578 C 742.097 -0.552346 1.87014 0
M  V30 7579 O 741.367 -1.40145 1.3688 0
M  V30 7580 H 739.947 0.338182 0.666064 0
M  V30 7581 H 742.609 1.45107 1.30115 0
M  V30 7582 H 741.705 1.32883 2.82398 0
M  V30 7583 N 742.006 -1.2595 0.947325 0
M  V30 7584 C 743.255 -1.92759 0.593887 0
M  V30 7585 C 743.568 -1.75083 -0.872093 0
M  V30 7586 O 744.774 -2.36401 -1.33518 0
M  V30 7587 C 743.23 -3.45395 1.01144 0
M  V30 7588 C 742.838 -3.71795 2.49946 0
M  V30 7589 C 744.582 -4.18173 0.730185 0
M  V30 7590 C 742.489 -5.17901 2.85539 0
M  V30 7591 H 741.419 -0.721676 0.218403 0
M  V30 7592 H 744.07 -1.4293 1.15079 0
M  V30 7593 H 742.452 -3.94143 0.383007 0
M  V30 7594 H 743.626 -3.33728 3.17746 0
M  V30 7595 H 741.941 -3.12263 2.75465 0
M  V30 7596 H 744.538 -5.25784 0.972367 0
M  V30 7597 H 744.881 -4.14964 -0.333223 0
M  V30 7598 H 745.414 -3.75309 1.31862 0
M  V30 7599 H 742.153 -5.26216 3.90867 0
M  V30 7600 H 741.673 -5.57042 2.22406 0
M  V30 7601 H 743.352 -5.8596 2.74336 0
M  V30 7602 N 743.484 -0.715051 -1.40445 0
M  V30 7603 C 744.417 -0.0112426 -2.28197 0
M  V30 7604 C 745.395 0.768211 -1.43308 0
M  V30 7605 O 746.579 0.754961 -1.72721 0
M  V30 7606 C 743.706 0.991453 -3.23864 0
M  V30 7607 C 742.752 0.302873 -4.25423 0
M  V30 7608 S 743.585 -0.968852 -5.26663 0
M  V30 7609 C 744.741 0.0317538 -6.25892 0
M  V30 7610 H 744.974 -0.755467 -2.87541 0
M  V30 7611 H 742.507 -0.506054 -1.45871 0
M  V30 7612 H 744.465 1.56475 -3.79507 0
M  V30 7613 H 743.126 1.70838 -2.63578 0
M  V30 7614 H 742.319 1.06086 -4.92709 0
M  V30 7615 H 741.921 -0.197853 -3.73476 0
M  V30 7616 H 744.213 0.878764 -6.71777 0
M  V30 7617 H 745.156 -0.607698 -7.05488 0
M  V30 7618 H 745.564 0.39524 -5.63115 0
M  V30 7619 N 744.962 1.50701 -0.461195 0
M  V30 7620 C 746.208 2.02566 0.0973411 0
M  V30 7621 C 746.541 1.3432 1.40257 0
M  V30 7622 O 745.816 0.465692 1.88843 0
M  V30 7623 C 746.099 3.58919 0.291423 0
M  V30 7624 C 745.952 4.37751 -1.03413 0
M  V30 7625 C 747.271 4.27379 1.05048 0
M  V30 7626 H 744.39 0.73622 0.0339026 0
M  V30 7627 H 747.032 1.80115 -0.604855 0
M  V30 7628 H 745.182 3.78179 0.889539 0
M  V30 7629 H 746.854 4.30085 -1.66806 0
M  V30 7630 H 745.097 4.01885 -1.63313 0
M  V30 7631 H 745.768 5.45384 -0.852085 0
M  V30 7632 H 748.244 4.12534 0.543603 0
M  V30 7633 H 747.12 5.36609 1.15506 0
M  V30 7634 H 747.381 3.89868 2.0846 0
M  V30 7635 N 746.441 0.193421 1.56409 0
M  V30 7636 C 747.69 -0.445995 1.96707 0
M  V30 7637 C 748.003 -1.62876 1.08309 0
M  V30 7638 O 749.209 -2.33586 1.38383 0
M  V30 7639 C 747.665 -0.844863 3.49843 0
M  V30 7640 C 747.273 0.31352 4.46902 0
M  V30 7641 C 749.017 -1.45146 3.98915 0
M  V30 7642 C 746.924 -0.106214 5.91305 0
M  V30 7643 H 745.854 -0.170398 0.734493 0
M  V30 7644 H 748.505 0.285172 1.81271 0
M  V30 7645 H 746.887 -1.63265 3.60778 0
M  V30 7646 H 748.061 1.09103 4.47698 0
M  V30 7647 H 746.376 0.8315 4.08014 0
M  V30 7648 H 748.973 -1.77792 5.04276 0
M  V30 7649 H 749.316 -2.35734 3.43126 0
M  V30 7650 H 749.849 -0.727675 3.91088 0
M  V30 7651 H 746.588 0.765442 6.51016 0
M  V30 7652 H 746.108 -0.848623 5.93766 0
M  V30 7653 H 747.787 -0.542588 6.44721 0
M  V30 7654 N 747.919 -1.57396 -0.0801906 0
M  V30 7655 C 748.829 -2.06451 -1.11423 0
M  V30 7656 C 749.845 -0.992352 -1.42928 0
M  V30 7657 O 751.021 -1.30651 -1.53272 0
M  V30 7658 C 748.086 -2.49164 -2.41077 0
M  V30 7659 C 747.147 -3.70641 -2.16619 0
M  V30 7660 C 746.38 -4.11307 -3.40092 0
M  V30 7661 O 746.603 -3.51922 -4.48895 0
M  V30 7662 O 745.537 -5.04157 -3.288 0
M  V30 7663 H 749.363 -2.94857 -0.727519 0
M  V30 7664 H 746.948 -1.46484 -0.293743 0
M  V30 7665 H 748.83 -2.77196 -3.17396 0
M  V30 7666 H 747.505 -1.6389 -2.79145 0
M  V30 7667 H 746.412 -3.47703 -1.38033 0
M  V30 7668 H 747.745 -4.5674 -1.83437 0
M  V30 7669 N 749.397 0.351382 -1.53633 0
M  V30 7670 C 750.33 1.45407 -1.75875 0
M  V30 7671 C 751.308 1.50822 -0.607566 0
M  V30 7672 O 752.492 1.68658 -0.841818 0
M  V30 7673 C 749.619 2.8369 -1.85034 0
M  V30 7674 C 748.665 2.95935 -3.07123 0
M  V30 7675 S 749.498 2.63215 -4.66345 0
M  V30 7676 C 750.654 4.03622 -4.78373 0
M  V30 7677 H 750.887 1.26322 -2.69128 0
M  V30 7678 H 748.42 0.546581 -1.44402 0
M  V30 7679 H 750.378 3.6336 -1.90996 0
M  V30 7680 H 749.039 3.00076 -0.928074 0
M  V30 7681 H 748.232 3.97243 -3.10183 0
M  V30 7682 H 747.834 2.24205 -2.99346 0
M  V30 7683 H 750.126 4.98046 -4.593 0
M  V30 7684 H 751.069 4.05559 -5.80454 0
M  V30 7685 H 751.477 3.91282 -4.06889 0
M  V30 7686 N 750.875 1.45233 0.611969 0
M  V30 7687 C 752.121 1.49242 1.37312 0
M  V30 7688 C 752.454 0.131963 1.93751 0
M  V30 7689 O 751.729 -0.852999 1.74798 0
M  V30 7690 C 752.012 2.56811 2.52428 0
M  V30 7691 C 751.865 4.02284 2.01215 0
M  V30 7692 C 753.184 2.60705 3.54572 0
M  V30 7693 H 750.303 0.54336 0.497925 0
M  V30 7694 H 752.945 1.77019 0.690242 0
M  V30 7695 H 751.095 2.33256 3.10683 0
M  V30 7696 H 752.767 4.37035 1.47643 0
M  V30 7697 H 751.01 4.1315 1.32248 0
M  V30 7698 H 751.681 4.7323 2.84178 0
M  V30 7699 H 754.157 2.81799 3.06151 0
M  V30 7700 H 753.033 3.37841 4.32614 0
M  V30 7701 H 753.294 1.65627 4.09903 0
M  V30 7702 N 752.353 -0.854086 1.3245 0
M  V30 7703 C 753.63 -1.59188 1.1366 0
M  V30 7704 C 754.01 -2.08917 -0.302807 0
M  V30 7705 O 753.358 -1.8795 -1.29951 0
M  V30 7706 C 753.568 -2.73757 2.16467 0
M  V30 7707 C 754.916 -3.43323 2.49829 0
M  V30 7708 O 755.94 -2.83983 2.15017 0
M  V30 7709 O 754.799 -4.50409 3.09506 0
M  V30 7710 H 751.893 -0.701092 0.438633 0
M  V30 7711 H 754.439 -0.898165 1.43983 0
M  V30 7712 H 753.211 -2.3454 3.1322 0
M  V30 7713 H 752.834 -3.50804 1.87142 0
M  V30 7714 N 753.831 -1.1567 -1.07043 0
M  V30 7715 C 755.079 -0.931673 -1.79344 0
M  V30 7716 C 755.4 0.542421 -1.87304 0
M  V30 7717 O 754.67 1.39418 -1.37621 0
M  V30 7718 H 753.25 -0.34171 -0.664262 0
M  V30 7719 H 755.912 -1.45795 -1.29344 0
M  V30 7720 H 755.008 -1.34379 -2.81689 0
M  V30 7721 N 755.309 1.25446 -0.953992 0
M  V30 7722 C 756.219 2.29632 -0.480264 0
M  V30 7723 C 757.235 1.68025 0.452071 0
M  V30 7724 O 758.411 1.98703 0.328472 0
M  V30 7725 C 755.476 3.45903 0.234974 0
M  V30 7726 C 754.537 4.22953 -0.735495 0
M  V30 7727 C 753.77 5.33672 -0.0542957 0
M  V30 7728 O 753.993 5.58477 1.16018 0
M  V30 7729 O 752.927 5.9734 -0.739509 0
M  V30 7730 H 756.753 2.72242 -1.34602 0
M  V30 7731 H 754.338 1.30883 -0.720419 0
M  V30 7732 H 756.22 4.16552 0.637341 0
M  V30 7733 H 754.895 3.05296 1.07592 0
M  V30 7734 H 753.802 3.54734 -1.18806 0
M  V30 7735 H 755.135 4.67341 -1.54444 0
M  V30 7736 N 756.787 0.722489 1.40064 0
M  V30 7737 C 758.198 0.336507 1.83642 0
M  V30 7738 C 758.549 -1.13002 1.6039 0
M  V30 7739 O 757.674 -1.87036 1.08842 0
M  V30 7740 C 758.269 0.603985 3.33373 0
M  V30 7741 C 756.828 0.271637 3.75419 0
M  V30 7742 C 755.975 0.872898 2.63203 0
M  V30 7743 H 758.926 0.921108 1.29233 0
M  V30 7744 H 758.947 -0.128471 3.80283 0
M  V30 7745 H 758.459 1.67141 3.50265 0
M  V30 7746 H 756.56 -0.790455 3.64119 0
M  V30 7747 H 756.673 0.745457 4.73265 0
M  V30 7748 H 755.037 0.300431 2.52922 0
M  V30 7749 H 755.82 1.94473 2.82905 0
M  V30 7750 N 758.265 -1.50454 0.469181 0
M  V30 7751 C 759.676 -1.86695 0.0136034 0
M  V30 7752 C 760.027 -1.38413 -1.39055 0
M  V30 7753 O 759.152 -0.748294 -2.03051 0
M  V30 7754 C 759.747 -3.38795 0.0179098 0
M  V30 7755 C 758.306 -3.74455 -0.382191 0
M  V30 7756 C 757.453 -2.74338 0.404207 0
M  V30 7757 H 760.404 -1.43225 0.683547 0
M  V30 7758 H 760.425 -3.72321 -0.78468 0
M  V30 7759 H 759.937 -3.73906 1.04 0
M  V30 7760 H 758.038 -3.44944 -1.4087 0
M  V30 7761 H 758.151 -4.79025 -0.084862 0
M  V30 7762 H 756.515 -2.54305 -0.141829 0
M  V30 7763 H 757.298 -3.12293 1.42577 0
M  V30 7764 N 759.743 -0.201713 -1.56304 0
M  V30 7765 C 760.973 0.440084 -2.01858 0
M  V30 7766 C 761.381 1.55279 -1.08098 0
M  V30 7767 O 760.724 1.83529 -0.0792216 0
M  V30 7768 C 760.786 1.05091 -3.43797 0
M  V30 7769 C 760.45 0.0761208 -4.56937 0
M  V30 7770 C 761.447 -0.716951 -5.14933 0
M  V30 7771 C 759.132 -0.0368815 -5.02286 0
M  V30 7772 C 761.126 -1.60993 -6.16733 0
M  V30 7773 C 758.813 -0.933409 -6.03929 0
M  V30 7774 C 759.811 -1.71849 -6.61027 0
M  V30 7775 O 759.499 -2.59998 -7.60695 0
M  V30 7776 H 759.231 0.114139 -0.666294 0
M  V30 7777 H 761.785 -0.309672 -2.03052 0
M  V30 7778 H 760.015 1.84938 -3.3961 0
M  V30 7779 H 761.704 1.59804 -3.73118 0
M  V30 7780 H 762.47 -0.63999 -4.80759 0
M  V30 7781 H 758.349 0.564034 -4.57537 0
M  V30 7782 H 761.893 -2.22315 -6.61227 0
M  V30 7783 H 757.79 -1.01146 -6.37526 0
M  V30 7784 H 758.558 -2.53851 -7.7814 0
M  V30 7785 N 761.222 1.57436 0.0718424 0
M  V30 7786 C 762.469 1.87248 0.771007 0
M  V30 7787 C 762.797 0.793441 1.7758 0
M  V30 7788 O 762.052 -0.210565 1.94564 0
M  V30 7789 C 762.351 3.23723 1.51455 0
M  V30 7790 C 762.017 4.46194 0.649736 0
M  V30 7791 C 760.679 4.79438 0.411409 0
M  V30 7792 C 763.031 5.21176 0.05004 0
M  V30 7793 C 760.359 5.85077 -0.436096 0
M  V30 7794 C 762.711 6.27712 -0.784919 0
M  V30 7795 C 761.375 6.59457 -1.03312 0
M  V30 7796 H 760.645 0.685188 0.282132 0
M  V30 7797 H 763.292 1.91474 0.0317896 0
M  V30 7798 H 761.597 3.15287 2.32597 0
M  V30 7799 H 763.294 3.44023 2.06031 0
M  V30 7800 H 759.884 4.20175 0.84562 0
M  V30 7801 H 764.068 4.95806 0.221282 0
M  V30 7802 H 759.324 6.08071 -0.637136 0
M  V30 7803 H 763.498 6.84974 -1.25635 0
M  V30 7804 H 761.125 7.4114 -1.6916 0
M  V30 7805 N 762.7 -0.34323 1.53817 0
M  V30 7806 C 763.648 -1.44176 1.82527 0
M  V30 7807 C 764.642 -1.54452 0.695772 0
M  V30 7808 O 765.848 -1.57072 0.879114 0
M  V30 7809 H 762.223 -0.480729 0.578277 0
M  V30 7810 H 764.194 -1.17176 2.74431 0
M  V30 7811 C 762.943 -2.80695 2.05197 0
M  V30 7812 H 762.266 -2.73554 2.91561 0
M  V30 7813 H 763.706 -3.56679 2.29251 0
M  V30 7814 C 762.165 -3.26322 0.837589 0
M  V30 7815 O 762.695 -4.01683 0.0371631 0
M  V30 7816 N 760.901 -2.83128 0.654724 0
M  V30 7817 H 760.448 -2.21965 1.30725 0
M  V30 7818 H 760.406 -3.14011 -0.156345 0
M  V30 7819 N 764.178 -1.45556 -0.604258 0
M  V30 7820 C 765.088 -1.57025 -1.74299 0
M  V30 7821 C 766.104 -0.45456 -1.67958 0
M  V30 7822 O 767.28 -0.715711 -1.88254 0
M  V30 7823 C 764.345 -1.53702 -3.10768 0
M  V30 7824 C 763.406 -2.76335 -3.28538 0
M  V30 7825 C 762.639 -2.73161 -4.58496 0
M  V30 7826 O 762.862 -1.80678 -5.41028 0
M  V30 7827 O 761.796 -3.64409 -4.79051 0
M  V30 7828 H 765.622 -2.53284 -1.67573 0
M  V30 7829 H 763.207 -1.28104 -0.768745 0
M  V30 7830 H 765.089 -1.54468 -3.92068 0
M  V30 7831 H 763.764 -0.605957 -3.17978 0
M  V30 7832 H 762.671 -2.8113 -2.46813 0
M  V30 7833 H 764.004 -3.68578 -3.26207 0
M  V30 7834 N 765.656 0.84705 -1.32902 0
M  V30 7835 C 767.067 1.41785 -1.21466 0
M  V30 7836 C 767.418 1.95464 0.169767 0
M  V30 7837 O 766.543 1.88157 1.06892 0
M  V30 7838 C 767.138 2.57734 -2.19906 0
M  V30 7839 C 765.697 3.10791 -2.12334 0
M  V30 7840 C 764.844 1.83562 -2.07847 0
M  V30 7841 H 767.795 0.653532 -1.44619 0
M  V30 7842 H 767.816 3.35123 -1.80202 0
M  V30 7843 H 767.328 2.18635 -3.20656 0
M  V30 7844 H 765.429 3.54455 -1.14858 0
M  V30 7845 H 765.542 3.71519 -3.02506 0
M  V30 7846 H 763.906 2.03475 -1.53199 0
M  V30 7847 H 764.689 1.4667 -3.10392 0
M  V30 7848 N 767.134 1.16236 1.06428 0
M  V30 7849 C 768.545 0.950942 1.60667 0
M  V30 7850 C 768.896 -0.505491 1.89576 0
M  V30 7851 O 768.021 -1.37843 1.66818 0
M  V30 7852 C 768.616 1.71982 2.91904 0
M  V30 7853 C 767.175 1.55342 3.4285 0
M  V30 7854 C 766.322 1.72942 2.16763 0
M  V30 7855 H 769.273 1.31126 0.893959 0
M  V30 7856 H 769.294 1.19483 3.61253 0
M  V30 7857 H 768.806 2.77978 2.70831 0
M  V30 7858 H 766.907 0.5178 3.68985 0
M  V30 7859 H 767.02 2.33643 4.18267 0
M  V30 7860 H 765.384 1.15673 2.26918 0
M  V30 7861 H 766.167 2.80324 1.98175 0
M  V30 7862 N 768.612 -1.24939 0.960631 0
M  V30 7863 C 769.542 -2.28 0.503815 0
M  V30 7864 C 770.523 -1.63959 -0.452928 0
M  V30 7865 O 771.708 -1.91009 -0.350585 0
M  V30 7866 C 768.838 -3.46643 -0.213535 0
M  V30 7867 C 767.792 -4.22903 0.658535 0
M  V30 7868 C 767.118 -5.34363 -0.189902 0
M  V30 7869 C 768.418 -4.84949 1.93963 0
M  V30 7870 H 770.112 -2.66462 1.36521 0
M  V30 7871 H 767.658 -1.28093 0.657897 0
M  V30 7872 H 769.611 -4.1787 -0.544286 0
M  V30 7873 H 768.335 -3.07187 -1.10923 0
M  V30 7874 H 766.994 -3.53467 0.972455 0
M  V30 7875 H 766.642 -4.91147 -1.08553 0
M  V30 7876 H 766.342 -5.86302 0.390331 0
M  V30 7877 H 767.866 -6.0842 -0.515484 0
M  V30 7878 H 769.28 -5.48288 1.67491 0
M  V30 7879 H 767.677 -5.47091 2.46601 0
M  V30 7880 H 768.747 -4.06799 2.639 0
M  V30 7881 N 770.09 -0.729906 -1.39679 0
M  V30 7882 C 771.037 -0.0866063 -2.30637 0
M  V30 7883 C 772.007 0.735115 -1.48947 0
M  V30 7884 O 773.192 0.696125 -1.77648 0
M  V30 7885 C 770.332 0.818524 -3.35252 0
M  V30 7886 C 769.445 -0.0152635 -4.31997 0
M  V30 7887 C 768.58 0.890669 -5.2368 0
M  V30 7888 C 767.619 0.0518246 -6.12078 0
M  V30 7889 N 766.756 0.913411 -6.96133 0
M  V30 7890 H 771.596 -0.867925 -2.85081 0
M  V30 7891 H 769.133 -0.439673 -1.40376 0
M  V30 7892 H 771.091 1.3577 -3.9449 0
M  V30 7893 H 769.721 1.56587 -2.82277 0
M  V30 7894 H 768.773 -0.671794 -3.74421 0
M  V30 7895 H 770.085 -0.664086 -4.9436 0
M  V30 7896 H 769.239 1.49787 -5.87919 0
M  V30 7897 H 767.978 1.57328 -4.61627 0
M  V30 7898 H 766.983 -0.568209 -5.46856 0
M  V30 7899 H 768.208 -0.627497 -6.76195 0
M  V30 7900 H 766.154 1.58141 -6.36653 0
M  V30 7901 H 766.071 0.320952 -7.55318 0
M  V30 7902 H 767.339 1.50633 -7.64807 0
M  V30 7903 N 771.568 1.50203 -0.477153 0
M  V30 7904 C 772.531 2.27194 0.302599 0
M  V30 7905 C 773.531 1.32221 0.915112 0
M  V30 7906 O 774.721 1.55593 0.783348 0
M  V30 7907 C 771.853 3.0938 1.43167 0
M  V30 7908 H 773.046 2.97575 -0.372678 0
M  V30 7909 H 770.599 1.54578 -0.231392 0
M  V30 7910 H 771.334 2.43509 2.14182 0
M  V30 7911 H 771.119 3.79181 0.998197 0
M  V30 7912 H 772.609 3.67592 1.98157 0
M  V30 7913 N 773.046 0.209999 1.56195 0
M  V30 7914 C 773.979 -0.744546 2.15712 0
M  V30 7915 C 774.957 -1.19917 1.09812 0
M  V30 7916 O 776.141 -1.284 1.38006 0
M  V30 7917 C 773.268 -2.00733 2.72807 0
M  V30 7918 C 772.314 -1.69363 3.91431 0
M  V30 7919 S 773.147 -0.828579 5.29051 0
M  V30 7920 C 774.303 -2.10118 5.89577 0
M  V30 7921 H 774.536 -0.238636 2.96341 0
M  V30 7922 H 772.069 -0.00517877 1.54399 0
M  V30 7923 H 774.027 -2.73246 3.06344 0
M  V30 7924 H 772.688 -2.48436 1.92193 0
M  V30 7925 H 771.881 -2.63157 4.29842 0
M  V30 7926 H 771.483 -1.04921 3.58981 0
M  V30 7927 H 773.775 -3.05231 6.04847 0
M  V30 7928 H 774.718 -1.76116 6.85849 0
M  V30 7929 H 775.126 -2.23644 5.18308 0
M  V30 7930 N 774.524 -1.57472 -0.0634922 0
M  V30 7931 C 775.471 -2.04258 -1.07457 0
M  V30 7932 C 776.441 -0.924804 -1.37973 0
M  V30 7933 O 777.626 -1.19305 -1.48899 0
M  V30 7934 C 774.766 -2.49832 -2.38071 0
M  V30 7935 C 773.879 -3.75263 -2.14014 0
M  V30 7936 C 773.014 -4.09585 -3.38251 0
M  V30 7937 C 772.053 -5.28032 -3.09594 0
M  V30 7938 N 771.19 -5.57953 -4.26185 0
M  V30 7939 H 776.03 -2.90402 -0.668626 0
M  V30 7940 H 773.567 -1.43609 -0.318572 0
M  V30 7941 H 775.525 -2.7431 -3.14341 0
M  V30 7942 H 774.155 -1.66654 -2.76453 0
M  V30 7943 H 773.207 -3.58075 -1.28399 0
M  V30 7944 H 774.519 -4.61667 -1.88852 0
M  V30 7945 H 773.673 -4.35008 -4.2291 0
M  V30 7946 H 772.412 -3.21765 -3.66495 0
M  V30 7947 H 771.417 -5.02397 -2.23332 0
M  V30 7948 H 772.642 -6.17477 -2.82663 0
M  V30 7949 H 770.588 -4.73092 -4.54445 0
M  V30 7950 H 770.505 -6.38793 -4.04326 0
M  V30 7951 H 771.773 -5.87931 -5.11817 0
M  V30 7952 N 776.003 0.335068 -1.53997 0
M  V30 7953 C 776.936 1.43533 -1.77407 0
M  V30 7954 C 777.914 1.5017 -0.623529 0
M  V30 7955 O 779.098 1.67756 -0.85966 0
M  V30 7956 C 776.225 2.81712 -1.88033 0
M  V30 7957 C 775.271 2.92661 -3.10245 0
M  V30 7958 S 776.104 2.58254 -4.69111 0
M  V30 7959 C 777.26 3.98525 -4.82627 0
M  V30 7960 H 777.493 1.2346 -2.70453 0
M  V30 7961 H 775.026 0.531234 -1.44973 0
M  V30 7962 H 776.984 3.61314 -1.9484 0
M  V30 7963 H 775.645 2.99075 -0.959849 0
M  V30 7964 H 774.838 3.93931 -3.14379 0
M  V30 7965 H 774.44 2.21017 -3.01708 0
M  V30 7966 H 776.732 4.93146 -4.64557 0
M  V30 7967 H 777.675 3.9938 -5.84723 0
M  V30 7968 H 778.083 3.86945 -4.11016 0
M  V30 7969 N 777.481 1.45874 0.596531 0
M  V30 7970 C 778.73 1.49737 1.35135 0
M  V30 7971 C 779.043 0.147755 1.95041 0
M  V30 7972 O 780.249 0.0640984 2.71424 0
M  V30 7973 C 778.705 2.6378 2.44843 0
M  V30 7974 C 778.313 4.05102 1.91301 0
M  V30 7975 C 780.057 2.769 3.21755 0
M  V30 7976 C 777.964 5.10508 2.98557 0
M  V30 7977 H 776.894 0.557219 0.507959 0
M  V30 7978 H 779.545 1.72046 0.638147 0
M  V30 7979 H 777.927 2.34774 3.189 0
M  V30 7980 H 779.101 4.43836 1.2388 0
M  V30 7981 H 777.416 3.96528 1.271 0
M  V30 7982 H 780.013 3.52819 4.01775 0
M  V30 7983 H 780.356 1.83924 3.73467 0
M  V30 7984 H 780.889 3.05485 2.54802 0
M  V30 7985 H 777.628 6.0523 2.51749 0
M  V30 7986 H 777.148 4.76332 3.6451 0
M  V30 7987 H 778.827 5.35745 3.62748 0
M  V30 7988 N 778.959 -0.83999 1.33349 0
M  V30 7989 C 780.375 -1.13049 1.12659 0
M  V30 7990 C 780.575 -2.01328 -0.0832613 0
M  V30 7991 O 779.631 -2.40669 -0.763856 0
M  V30 7992 C 780.944 -1.79366 2.41347 0
M  V30 7993 C 782.492 -1.91937 2.47243 0
M  V30 7994 C 782.967 -2.6167 3.75889 0
M  V30 7995 N 784.458 -2.69184 3.76954 0
M  V30 7996 C 785.193 -3.23827 4.73206 0
M  V30 7997 N 784.689 -3.79166 5.79832 0
M  V30 7998 N 786.482 -3.22068 4.60683 0
M  V30 7999 H 778.633 -0.252432 2.10895 0
M  V30 8000 H 780.896 -0.174501 0.931801 0
M  V30 8001 H 780.602 -1.2196 3.29877 0
M  V30 8002 H 780.476 -2.79396 2.53412 0
M  V30 8003 H 782.863 -2.48498 1.59163 0
M  V30 8004 H 782.944 -0.908604 2.39119 0
M  V30 8005 H 782.588 -2.05769 4.64351 0
M  V30 8006 H 782.518 -3.63217 3.81289 0
M  V30 8007 H 785.009 -2.2994 2.99893 0
M  V30 8008 H 785.322 -4.19061 6.49313 0
M  V30 8009 H 783.667 -3.77457 5.83568 0
M  V30 8010 H 786.858 -2.78092 3.7654 0
M  V30 8011 H 787.031 -3.64351 5.35866 0
M  V30 8012 N 780.437 -1.16799 -1.0581 0
M  V30 8013 C 781.714 -0.862616 -1.75551 0
M  V30 8014 C 782.094 0.6385 -2.01212 0
M  V30 8015 O 781.442 1.58784 -1.64317 0
M  V30 8016 C 781.652 -1.6907 -3.05314 0
M  V30 8017 C 783 -1.90675 -3.79379 0
M  V30 8018 O 784.024 -1.65976 -3.15167 0
M  V30 8019 O 782.883 -2.32145 -4.94743 0
M  V30 8020 H 779.977 -0.318789 -0.763088 0
M  V30 8021 H 782.523 -1.27461 -1.12034 0
M  V30 8022 H 781.295 -2.70912 -2.82352 0
M  V30 8023 H 780.918 -1.27606 -3.76567 0
M  V30 8024 N 781.915 1.24427 -0.967243 0
M  V30 8025 C 782.863 2.27403 -0.488927 0
M  V30 8026 C 783.857 1.63388 0.447302 0
M  V30 8027 O 785.063 1.77085 0.322643 0
M  V30 8028 H 781.438 0.738921 -0.139643 0
M  V30 8029 H 783.409 2.65122 -1.36942 0
M  V30 8030 C 782.158 3.4709 0.205787 0
M  V30 8031 H 781.481 3.96591 -0.50551 0
M  V30 8032 H 782.921 4.2099 0.504296 0
M  V30 8033 C 781.38 3.04923 1.43261 0
M  V30 8034 O 781.91 3.12043 2.52967 0
M  V30 8035 N 780.116 2.59976 1.29849 0
M  V30 8036 H 779.663 2.54382 0.405876 0
M  V30 8037 H 779.621 2.32128 2.12047 0
M  V30 8038 N 783.393 0.737304 1.3929 0
M  V30 8039 C 784.323 0.113988 2.33222 0
M  V30 8040 C 785.304 -0.721695 1.54031 0
M  V30 8041 O 786.489 -0.666206 1.82415 0
M  V30 8042 C 783.619 -0.792319 3.38141 0
M  V30 8043 C 782.573 -0.0606178 4.27957 0
M  V30 8044 C 781.899 -1.08409 5.23595 0
M  V30 8045 C 783.199 1.09817 5.10625 0
M  V30 8046 H 784.893 0.898611 2.85596 0
M  V30 8047 H 782.439 0.433571 1.37318 0
M  V30 8048 H 784.392 -1.23793 4.02807 0
M  V30 8049 H 783.116 -1.60908 2.84211 0
M  V30 8050 H 781.775 0.365393 3.64775 0
M  V30 8051 H 781.423 -1.89449 4.6596 0
M  V30 8052 H 781.123 -0.599269 5.84536 0
M  V30 8053 H 782.647 -1.52936 5.91137 0
M  V30 8054 H 784.061 0.730892 5.68622 0
M  V30 8055 H 782.458 1.51278 5.80719 0
M  V30 8056 H 783.528 1.91878 4.45321 0
M  V30 8057 N 784.871 -1.49948 0.485112 0
M  V30 8058 C 786.282 -1.8667 0.0334041 0
M  V30 8059 C 786.633 -1.3988 -1.37579 0
M  V30 8060 O 785.758 -0.769788 -2.02245 0
M  V30 8061 C 786.353 -3.38757 0.0538426 0
M  V30 8062 C 784.912 -3.74839 -0.342453 0
M  V30 8063 C 784.059 -2.73894 0.433281 0
M  V30 8064 H 787.01 -1.42492 0.698699 0
M  V30 8065 H 787.031 -3.73132 -0.745146 0
M  V30 8066 H 786.543 -3.72782 1.07959 0
M  V30 8067 H 784.644 -3.46419 -1.37203 0
M  V30 8068 H 784.757 -4.79088 -0.0340503 0
M  V30 8069 H 783.121 -2.54441 -0.114849 0
M  V30 8070 H 783.904 -3.10763 1.45881 0
M  V30 8071 N 786.349 -0.21828 -1.56081 0
M  V30 8072 C 787.76 0.290166 -1.84431 0
M  V30 8073 C 788.111 1.59712 -1.13958 0
M  V30 8074 O 787.236 2.12516 -0.40815 0
M  V30 8075 C 787.831 0.53325 -3.34577 0
M  V30 8076 C 786.39 0.986011 -3.63256 0
M  V30 8077 C 785.537 0.0472798 -2.7726 0
M  V30 8078 H 788.488 -0.441548 -1.52434 0
M  V30 8079 H 788.509 1.37967 -3.54606 0
M  V30 8080 H 788.021 -0.418137 -3.85841 0
M  V30 8081 H 786.122 1.95087 -3.17446 0
M  V30 8082 H 786.235 0.862684 -4.71269 0
M  V30 8083 H 784.599 0.553471 -2.48614 0
M  V30 8084 H 785.382 -0.898966 -3.31321 0
M  V30 8085 N 787.827 1.57504 0.0551401 0
M  V30 8086 C 789.243 1.54236 0.410292 0
M  V30 8087 C 789.443 0.940839 1.78187 0
M  V30 8088 O 788.499 0.550541 2.46425 0
M  V30 8089 C 789.812 2.98816 0.336064 0
M  V30 8090 C 791.36 3.10236 0.415047 0
M  V30 8091 C 791.835 4.56499 0.37055 0
M  V30 8092 N 793.326 4.61199 0.43013 0
M  V30 8093 C 794.061 5.71873 0.418179 0
M  V30 8094 N 793.557 6.91864 0.360056 0
M  V30 8095 N 795.35 5.60165 0.465977 0
M  V30 8096 H 787.501 1.94965 -0.842759 0
M  V30 8097 H 789.764 0.893096 -0.317937 0
M  V30 8098 H 789.47 3.4645 -0.605429 0
M  V30 8099 H 789.344 3.59564 1.13988 0
M  V30 8100 H 791.731 2.62566 1.34697 0
M  V30 8101 H 791.812 2.52367 -0.417648 0
M  V30 8102 H 791.456 5.0483 -0.557592 0
M  V30 8103 H 791.386 5.12249 1.221 0
M  V30 8104 H 793.877 3.74857 0.478623 0
M  V30 8105 H 794.19 7.71983 0.35532 0
M  V30 8106 H 792.535 6.94233 0.326492 0
M  V30 8107 H 795.726 4.65322 0.509194 0
M  V30 8108 H 795.899 6.46413 0.453194 0
M  V30 8109 N 789.305 -0.326896 1.54172 0
M  V30 8110 C 790.235 -1.40741 1.86317 0
M  V30 8111 C 791.216 -1.54125 0.719684 0
M  V30 8112 O 792.401 -1.6806 0.973117 0
M  V30 8113 C 789.531 -2.77557 2.08757 0
M  V30 8114 C 788.485 -2.78965 3.24596 0
M  V30 8115 C 787.811 -4.18824 3.32401 0
M  V30 8116 C 789.111 -2.4301 4.62324 0
M  V30 8117 H 790.805 -1.14088 2.76811 0
M  V30 8118 H 788.351 -0.547389 1.3319 0
M  V30 8119 H 790.304 -3.53209 2.29829 0
M  V30 8120 H 789.028 -3.0568 1.15009 0
M  V30 8121 H 787.687 -2.05767 3.03406 0
M  V30 8122 H 787.335 -4.44083 2.36218 0
M  V30 8123 H 787.035 -4.20673 4.10253 0
M  V30 8124 H 788.559 -4.96294 3.55703 0
M  V30 8125 H 789.973 -3.08375 4.83299 0
M  V30 8126 H 788.37 -2.56116 5.42701 0
M  V30 8127 H 789.44 -1.38165 4.64799 0
M  V30 8128 N 790.784 -1.46188 -0.588786 0
M  V30 8129 C 791.731 -1.56292 -1.69828 0
M  V30 8130 C 792.701 -0.407581 -1.61022 0
M  V30 8131 O 793.886 -0.623532 -1.80324 0
M  V30 8132 C 791.026 -1.55341 -3.08161 0
M  V30 8133 C 790.139 -2.81564 -3.27636 0
M  V30 8134 C 789.274 -2.72158 -4.56183 0
M  V30 8135 C 788.313 -3.93348 -4.68981 0
M  V30 8136 N 787.45 -3.82365 -5.88848 0
M  V30 8137 H 792.29 -2.51066 -1.6053 0
M  V30 8138 H 789.827 -1.24562 -0.782474 0
M  V30 8139 H 791.785 -1.52776 -3.88221 0
M  V30 8140 H 790.415 -0.641034 -3.16371 0
M  V30 8141 H 789.467 -2.94136 -2.41223 0
M  V30 8142 H 790.779 -3.714 -3.32962 0
M  V30 8143 H 789.933 -2.67665 -5.44464 0
M  V30 8144 H 788.672 -1.79953 -4.53286 0
M  V30 8145 H 787.677 -3.98181 -3.7912 0
M  V30 8146 H 788.902 -4.86643 -4.73662 0
M  V30 8147 H 786.848 -2.92942 -5.86959 0
M  V30 8148 H 786.765 -4.65851 -5.95415 0
M  V30 8149 H 788.033 -3.81836 -6.79575 0
M  V30 8150 N 792.262 0.832906 -1.33792 0
M  V30 8151 C 793.21 1.96455 -1.24532 0
M  V30 8152 C 794.204 1.68774 -0.145455 0
M  V30 8153 O 795.41 1.77314 -0.309797 0
M  V30 8154 H 791.785 0.645008 -0.386611 0
M  V30 8155 H 793.756 2.01389 -2.20193 0
M  V30 8156 C 792.505 3.32784 -1.00748 0
M  V30 8157 H 791.828 3.54626 -1.84609 0
M  V30 8158 H 793.268 4.12447 -0.98301 0
M  V30 8159 C 791.727 3.35654 0.289475 0
M  V30 8160 O 792.257 3.80281 1.29419 0
M  V30 8161 N 790.463 2.88843 0.3191 0
M  V30 8162 H 790.01 2.52719 -0.499069 0
M  V30 8163 H 789.968 2.91145 1.18667 0
M  V30 8164 N 793.74 1.17359 1.05189 0
M  V30 8165 C 794.67 0.91365 2.14883 0
M  V30 8166 C 795.651 -0.144365 1.69486 0
M  V30 8167 O 796.836 0.00587861 1.94199 0
M  V30 8168 C 793.966 0.426196 3.44675 0
M  V30 8169 C 792.92 1.4234 4.03638 0
M  V30 8170 C 792.246 0.793902 5.28773 0
M  V30 8171 C 793.546 2.7966 4.41121 0
M  V30 8172 H 795.24 1.831 2.36885 0
M  V30 8173 H 792.786 0.881781 1.13845 0
M  V30 8174 H 794.739 0.231767 4.20762 0
M  V30 8175 H 793.463 -0.526693 3.22325 0
M  V30 8176 H 792.122 1.60457 3.2962 0
M  V30 8177 H 791.77 -0.165824 5.02727 0
M  V30 8178 H 791.47 1.45959 5.69183 0
M  V30 8179 H 792.994 0.609747 6.07548 0
M  V30 8180 H 794.408 2.6526 5.08242 0
M  V30 8181 H 792.805 3.42807 4.92548 0
M  V30 8182 H 793.875 3.34068 3.51464 0
M  V30 8183 N 795.218 -1.23913 0.973828 0
M  V30 8184 C 796.168 -2.22892 0.479933 0
M  V30 8185 C 797.152 -1.54726 -0.441434 0
M  V30 8186 O 798.344 -1.74908 -0.271358 0
M  V30 8187 C 795.473 -3.42577 -0.222702 0
M  V30 8188 C 794.559 -4.17981 0.717851 0
M  V30 8189 N 794.95 -4.7045 1.8577 0
M  V30 8190 C 793.248 -4.42841 0.529858 0
M  V30 8191 C 793.949 -5.27751 2.44651 0
M  V30 8192 N 792.925 -5.15302 1.73104 0
M  V30 8193 H 796.727 -2.61083 1.34956 0
M  V30 8194 H 794.241 -1.39368 0.83368 0
M  V30 8195 H 796.238 -4.1265 -0.593793 0
M  V30 8196 H 794.898 -3.05904 -1.0887 0
M  V30 8197 H 795.909 -4.66997 2.23908 0
M  V30 8198 H 792.586 -4.1648 -0.291664 0
M  V30 8199 H 793.976 -5.79011 3.40875 0
M  V30 8200 N 796.696 -0.74468 -1.38897 0
M  V30 8201 C 797.643 -0.111064 -2.30533 0
M  V30 8202 C 798.613 0.719276 -1.49719 0
M  V30 8203 O 799.798 0.677244 -1.78376 0
M  V30 8204 C 796.938 0.78292 -3.36102 0
M  V30 8205 C 796.051 -0.0610817 -4.31957 0
M  V30 8206 C 795.186 0.835075 -5.24595 0
M  V30 8207 C 794.225 -0.0130974 -6.12099 0
M  V30 8208 N 793.362 0.839525 -6.97063 0
M  V30 8209 H 798.202 -0.898113 -2.84144 0
M  V30 8210 H 795.739 -0.454537 -1.39901 0
M  V30 8211 H 797.697 1.31578 -3.95908 0
M  V30 8212 H 796.327 1.53585 -2.83922 0
M  V30 8213 H 795.379 -0.711469 -3.73687 0
M  V30 8214 H 796.691 -0.716482 -4.93627 0
M  V30 8215 H 795.845 1.43542 -5.89475 0
M  V30 8216 H 794.584 1.52423 -4.63269 0
M  V30 8217 H 793.589 -0.626179 -5.46223 0
M  V30 8218 H 794.814 -0.699181 -6.75491 0
M  V30 8219 H 792.76 1.5138 -6.38295 0
M  V30 8220 H 792.677 0.240823 -7.55616 0
M  V30 8221 H 793.945 1.42513 -7.66362 0
M  V30 8222 N 798.174 1.49689 -0.493057 0
M  V30 8223 C 799.42 2.02727 0.0543518 0
M  V30 8224 C 799.753 1.37264 1.37376 0
M  V30 8225 O 799.028 0.505644 1.87812 0
M  V30 8226 C 799.311 3.59456 0.215226 0
M  V30 8227 C 799.164 4.35459 -1.12675 0
M  V30 8228 C 800.483 4.29511 0.959586 0
M  V30 8229 H 797.602 0.736773 0.0182786 0
M  V30 8230 H 800.244 1.78792 -0.642924 0
M  V30 8231 H 798.394 3.79981 0.809122 0
M  V30 8232 H 800.066 4.2645 -1.75891 0
M  V30 8233 H 798.309 3.9833 -1.71801 0
M  V30 8234 H 798.98 5.43454 -0.967578 0
M  V30 8235 H 801.456 4.13594 0.455977 0
M  V30 8236 H 800.332 5.38939 1.04098 0
M  V30 8237 H 800.593 3.94202 2.00144 0
M  V30 8238 N 799.652 0.226554 1.55963 0
M  V30 8239 C 800.877 -0.411527 2.03276 0
M  V30 8240 C 801.302 -1.52206 1.10521 0
M  V30 8241 O 800.66 -1.81054 0.0943217 0
M  V30 8242 C 800.708 -0.915694 3.4878 0
M  V30 8243 O 799.812 -2.02672 3.59163 0
M  V30 8244 H 799.153 -0.0924907 0.657527 0
M  V30 8245 H 801.683 0.346656 2.01642 0
M  V30 8246 H 801.693 -1.22421 3.892 0
M  V30 8247 H 800.368 -0.102915 4.15773 0
M  V30 8248 H 798.945 -1.72445 3.30632 0
M  V30 8249 N 801.13 -1.57531 -0.0467866 0
M  V30 8250 C 802.541 -1.76945 -0.595603 0
M  V30 8251 C 802.892 -0.855354 -1.76573 0
M  V30 8252 O 802.017 -0.045668 -2.16352 0
M  V30 8253 C 802.612 -3.20881 -1.08725 0
M  V30 8254 C 801.171 -3.41553 -1.58172 0
M  V30 8255 C 800.318 -2.72533 -0.511968 0
M  V30 8256 H 803.269 -1.57682 0.179436 0
M  V30 8257 H 803.29 -3.26419 -1.95528 0
M  V30 8258 H 802.802 -3.87385 -0.235398 0
M  V30 8259 H 800.903 -2.80199 -2.456 0
M  V30 8260 H 801.016 -4.50104 -1.64143 0
M  V30 8261 H 799.38 -2.35797 -0.962899 0
M  V30 8262 H 800.163 -3.41709 0.330117 0
M  V30 8263 N 802.608 0.318715 -1.54344 0
M  V30 8264 C 803.833 1.07987 -1.77069 0
M  V30 8265 C 804.258 1.80766 -0.520117 0
M  V30 8266 O 803.616 1.73424 0.528566 0
M  V30 8267 C 803.664 2.04987 -2.96669 0
M  V30 8268 O 802.768 3.12974 -2.68554 0
M  V30 8269 H 802.109 0.311109 -0.586606 0
M  V30 8270 H 804.639 0.361533 -2.0138 0
M  V30 8271 H 804.649 2.47771 -3.2415 0
M  V30 8272 H 803.324 1.51417 -3.87357 0
M  V30 8273 H 801.901 2.74831 -2.52037 0
M  V30 8274 N 804.086 1.46499 0.581025 0
M  V30 8275 C 805.016 1.60052 1.70017 0
M  V30 8276 C 805.997 0.450788 1.64018 0
M  V30 8277 O 807.182 0.677237 1.82009 0
M  V30 8278 C 804.312 1.5921 3.08658 0
M  V30 8279 C 803.266 2.73169 3.29488 0
M  V30 8280 C 802.592 2.57389 4.68674 0
M  V30 8281 C 803.892 4.14978 3.1716 0
M  V30 8282 H 805.586 2.53735 1.5893 0
M  V30 8283 H 803.132 1.22113 0.763173 0
M  V30 8284 H 805.085 1.67285 3.86773 0
M  V30 8285 H 803.809 0.620718 3.20647 0
M  V30 8286 H 802.468 2.64566 2.53773 0
M  V30 8287 H 802.116 1.58331 4.77431 0
M  V30 8288 H 801.816 3.33826 4.83564 0
M  V30 8289 H 803.34 2.67358 5.48956 0
M  V30 8290 H 804.754 4.24684 3.85119 0
M  V30 8291 H 803.151 4.92016 3.4357 0
M  V30 8292 H 804.221 4.35016 2.14218 0
M  V30 8293 N 805.565 -0.825799 1.34232 0
M  V30 8294 C 806.512 -1.93651 1.2557 0
M  V30 8295 C 807.482 -1.65578 0.131536 0
M  V30 8296 O 808.667 -1.88231 0.312027 0
M  V30 8297 C 805.807 -3.29862 1.01415 0
M  V30 8298 C 804.92 -3.70247 2.22579 0
M  V30 8299 C 804.055 -4.95392 1.91731 0
M  V30 8300 C 803.094 -5.28349 3.09053 0
M  V30 8301 N 802.231 -6.44671 2.78107 0
M  V30 8302 H 807.071 -2.00392 2.20561 0
M  V30 8303 H 804.608 -0.980441 1.09662 0
M  V30 8304 H 806.566 -4.08356 0.854485 0
M  V30 8305 H 805.196 -3.22642 0.100936 0
M  V30 8306 H 804.248 -2.87169 2.49476 0
M  V30 8307 H 805.56 -3.90575 3.10246 0
M  V30 8308 H 804.714 -5.81665 1.72484 0
M  V30 8309 H 803.453 -4.77059 1.0132 0
M  V30 8310 H 802.458 -4.40574 3.289 0
M  V30 8311 H 803.683 -5.48622 4.00239 0
M  V30 8312 H 801.629 -6.278 1.9027 0
M  V30 8313 H 801.546 -6.65158 3.59306 0
M  V30 8314 H 802.814 -7.34022 2.62358 0
M  V30 8315 N 807.043 -1.17915 -1.04565 0
M  V30 8316 C 808.291 -0.969505 -1.77327 0
M  V30 8317 C 808.612 0.502569 -1.88412 0
M  V30 8318 O 807.882 1.36467 -1.40547 0
M  V30 8319 H 806.462 -0.355723 -0.656864 0
M  V30 8320 H 809.124 -1.48506 -1.26223 0
M  V30 8321 H 808.22 -1.40324 -2.78775 0
M  V30 8322 N 808.521 1.23394 -0.980386 0
M  V30 8323 C 809.768 1.91809 -0.649261 0
M  V30 8324 C 810.096 1.765 0.817197 0
M  V30 8325 O 809.351 1.11979 1.60497 0
M  V30 8326 C 809.65 3.43542 -0.985588 0
M  V30 8327 C 809.316 3.79031 -2.44225 0
M  V30 8328 C 807.978 3.88429 -2.84035 0
M  V30 8329 C 810.33 3.96145 -3.38702 0
M  V30 8330 C 807.658 4.12368 -4.17336 0
M  V30 8331 C 810.01 4.21583 -4.71646 0
M  V30 8332 C 808.674 4.29203 -5.11215 0
M  V30 8333 H 807.944 0.70188 -0.237581 0
M  V30 8334 H 810.591 1.4642 -1.23424 0
M  V30 8335 H 808.896 3.90503 -0.318521 0
M  V30 8336 H 810.593 3.94708 -0.707596 0
M  V30 8337 H 807.183 3.7229 -2.12362 0
M  V30 8338 H 811.367 3.88274 -3.09123 0
M  V30 8339 H 806.623 4.1649 -4.47601 0
M  V30 8340 H 810.797 4.33769 -5.4481 0
M  V30 8341 H 808.424 4.47505 -6.14527 0
M  V30 8342 N 809.999 0.752036 1.385 0
M  V30 8343 C 810.929 0.138718 2.33088 0
M  V30 8344 C 811.91 -0.705318 1.54788 0
M  V30 8345 O 813.095 -0.646821 1.83112 0
M  V30 8346 C 810.225 -0.75641 3.38963 0
M  V30 8347 C 809.179 -0.0152239 4.27997 0
M  V30 8348 C 808.505 -1.0285 5.24715 0
M  V30 8349 C 809.805 1.15226 5.09431 0
M  V30 8350 H 811.499 0.928852 2.84627 0
M  V30 8351 H 809.045 0.448111 1.3685 0
M  V30 8352 H 810.998 -1.19513 4.04097 0
M  V30 8353 H 809.722 -1.57885 2.85902 0
M  V30 8354 H 808.381 0.404061 3.64366 0
M  V30 8355 H 808.029 -1.84496 4.67943 0
M  V30 8356 H 807.729 -0.537238 5.85139 0
M  V30 8357 H 809.253 -1.46657 5.92726 0
M  V30 8358 H 810.667 0.791161 5.67815 0
M  V30 8359 H 809.064 1.57428 5.79082 0
M  V30 8360 H 810.134 1.9659 4.43261 0
M  V30 8361 N 811.477 -1.49425 0.500989 0
M  V30 8362 C 812.754 -1.9531 -0.106551 0
M  V30 8363 C 813.134 -1.44248 -1.54129 0
M  V30 8364 O 812.482 -0.656237 -2.18874 0
M  V30 8365 C 812.692 -3.48995 -0.0191972 0
M  V30 8366 C 814.04 -4.24161 -0.193129 0
M  V30 8367 O 815.064 -3.56075 -0.0943843 0
M  V30 8368 O 813.923 -5.45064 -0.395869 0
M  V30 8369 H 811.017 -0.82149 -0.0953068 0
M  V30 8370 H 813.563 -1.6007 0.563526 0
M  V30 8371 H 812.335 -3.78794 0.981353 0
M  V30 8372 H 811.958 -3.90852 -0.72942 0
M  V30 8373 N 812.955 -0.234822 -1.55841 0
M  V30 8374 C 814.371 0.120295 -1.59146 0
M  V30 8375 C 814.571 1.57896 -1.25184 0
M  V30 8376 O 813.627 2.32138 -0.993393 0
M  V30 8377 C 814.94 -0.217984 -2.99909 0
M  V30 8378 C 816.488 -0.161298 -3.12584 0
M  V30 8379 C 816.963 -0.473438 -4.55546 0
M  V30 8380 N 818.454 -0.423494 -4.6126 0
M  V30 8381 C 819.189 -0.638334 -5.69836 0
M  V30 8382 N 818.685 -0.915659 -6.86722 0
M  V30 8383 N 820.478 -0.569864 -5.59204 0
M  V30 8384 H 812.629 -1.18622 -1.76189 0
M  V30 8385 H 814.892 -0.476426 -0.819587 0
M  V30 8386 H 814.598 -1.2309 -3.29457 0
M  V30 8387 H 814.472 0.460707 -3.74376 0
M  V30 8388 H 816.859 0.842274 -2.82825 0
M  V30 8389 H 816.94 -0.873661 -2.40418 0
M  V30 8390 H 816.584 -1.47451 -4.86025 0
M  V30 8391 H 816.514 0.260268 -5.25956 0
M  V30 8392 H 819.005 -0.217383 -3.77274 0
M  V30 8393 H 819.318 -1.06734 -7.65394 0
M  V30 8394 H 817.663 -0.953 -6.88435 0
M  V30 8395 H 820.854 -0.35334 -4.66765 0
M  V30 8396 H 821.027 -0.740698 -6.43753 0
M  V30 8397 N 814.433 1.57553 0.0384317 0
M  V30 8398 C 815.363 2.0898 1.04161 0
M  V30 8399 C 816.344 0.99029 1.38301 0
M  V30 8400 O 817.529 1.26499 1.47349 0
M  V30 8401 C 814.659 2.56145 2.34536 0
M  V30 8402 C 813.613 3.70275 2.14663 0
M  V30 8403 C 812.939 4.03612 3.50715 0
M  V30 8404 C 814.239 4.99067 1.54045 0
M  V30 8405 H 815.933 2.93046 0.613548 0
M  V30 8406 H 813.479 1.40973 0.293684 0
M  V30 8407 H 815.432 2.90741 3.05037 0
M  V30 8408 H 814.156 1.6915 2.79385 0
M  V30 8409 H 812.815 3.36013 1.46597 0
M  V30 8410 H 812.463 3.13698 3.93195 0
M  V30 8411 H 812.163 4.80482 3.38247 0
M  V30 8412 H 813.687 4.40735 4.22593 0
M  V30 8413 H 815.101 5.3168 2.14451 0
M  V30 8414 H 813.498 5.80484 1.52178 0
M  V30 8415 H 814.568 4.8226 0.505259 0
M  V30 8416 N 815.911 -0.310526 1.54511 0
M  V30 8417 C 816.841 -1.38757 1.878 0
M  V30 8418 C 817.822 -1.53353 0.735991 0
M  V30 8419 O 819.007 -1.67018 0.990887 0
M  V30 8420 C 816.137 -2.75327 2.11689 0
M  V30 8421 C 815.091 -2.75506 3.27537 0
M  V30 8422 C 814.417 -4.15275 3.36824 0
M  V30 8423 C 815.717 -2.38093 4.64875 0
M  V30 8424 H 817.411 -1.11146 2.78005 0
M  V30 8425 H 814.957 -0.533232 1.33763 0
M  V30 8426 H 816.91 -3.50752 2.33562 0
M  V30 8427 H 815.634 -3.04443 1.18245 0
M  V30 8428 H 814.293 -2.02538 3.05572 0
M  V30 8429 H 813.941 -4.41553 2.40915 0
M  V30 8430 H 813.641 -4.16299 4.14692 0
M  V30 8431 H 815.165 -4.92493 3.60947 0
M  V30 8432 H 816.579 -3.03232 4.86542 0
M  V30 8433 H 814.976 -2.50345 5.45387 0
M  V30 8434 H 816.046 -1.33227 4.66239 0
M  V30 8435 N 817.389 -1.46805 -0.573248 0
M  V30 8436 C 818.635 -1.5283 -1.33307 0
M  V30 8437 C 818.968 -0.183287 -1.93333 0
M  V30 8438 O 818.243 0.806354 -1.76998 0
M  V30 8439 C 818.526 -2.63414 -2.45531 0
M  V30 8440 C 818.379 -4.07478 -1.90478 0
M  V30 8441 C 819.698 -2.70014 -3.47535 0
M  V30 8442 H 816.817 -0.556371 -0.483343 0
M  V30 8443 H 819.459 -1.78787 -0.643066 0
M  V30 8444 H 817.609 -2.41412 -3.04389 0
M  V30 8445 H 819.281 -4.40795 -1.36004 0
M  V30 8446 H 817.524 -4.16511 -1.21248 0
M  V30 8447 H 818.195 -4.80598 -2.71531 0
M  V30 8448 H 820.671 -2.89817 -2.98572 0
M  V30 8449 H 819.547 -3.49192 -4.23504 0
M  V30 8450 H 819.808 -1.76436 -4.05367 0
M  V30 8451 N 818.867 0.818669 -1.34668 0
M  V30 8452 C 820.283 1.11243 -1.14443 0
M  V30 8453 C 820.483 2.01435 0.0512212 0
M  V30 8454 O 819.539 2.41854 0.725471 0
M  V30 8455 C 820.852 1.75504 -2.4417 0
M  V30 8456 C 822.4 1.8798 -2.50265 0
M  V30 8457 C 822.875 2.55657 -3.80004 0
M  V30 8458 N 824.366 2.63153 -3.81189 0
M  V30 8459 C 825.101 3.16258 -4.78298 0
M  V30 8460 N 824.597 3.69893 -5.85791 0
M  V30 8461 N 826.39 3.14698 -4.65748 0
M  V30 8462 H 818.541 0.218848 -2.1127 0
M  V30 8463 H 820.804 0.159655 -0.934459 0
M  V30 8464 H 820.51 1.16697 -3.31775 0
M  V30 8465 H 820.384 2.75329 -2.57825 0
M  V30 8466 H 822.771 2.45934 -1.63096 0
M  V30 8467 H 822.852 0.870447 -2.40535 0
M  V30 8468 H 822.496 1.98356 -4.67565 0
M  V30 8469 H 822.426 3.57105 -3.87019 0
M  V30 8470 H 824.917 2.2514 -3.03513 0
M  V30 8471 H 825.23 4.08678 -6.55898 0
M  V30 8472 H 823.575 3.68125 -5.89499 0
M  V30 8473 H 826.766 2.72066 -3.80917 0
M  V30 8474 H 826.939 3.5578 -5.41594 0
M  V30 8475 N 820.346 1.18468 1.03938 0
M  V30 8476 C 821.623 0.890435 1.74157 0
M  V30 8477 C 822.003 -0.606409 2.02203 0
M  V30 8478 O 821.351 -1.5615 1.66822 0
M  V30 8479 C 821.561 1.73906 3.02585 0
M  V30 8480 C 822.909 1.96686 3.76297 0
M  V30 8481 O 823.933 1.70969 3.12487 0
M  V30 8482 O 822.792 2.39986 4.90988 0
M  V30 8483 H 819.886 0.330889 0.757919 0
M  V30 8484 H 822.432 1.29228 1.09992 0
M  V30 8485 H 821.204 2.75369 2.78006 0
M  V30 8486 H 820.827 1.33581 3.74489 0
M  V30 8487 N 821.824 -1.22873 0.986916 0
M  V30 8488 C 823.235 -1.73264 0.695438 0
M  V30 8489 C 823.586 -1.79679 -0.788023 0
M  V30 8490 O 822.711 -1.43905 -1.61618 0
M  V30 8491 C 823.306 -3.14671 1.2557 0
M  V30 8492 C 821.865 -3.62492 1.01373 0
M  V30 8493 C 821.012 -2.40551 1.37951 0
M  V30 8494 H 823.963 -1.08304 1.15999 0
M  V30 8495 H 823.984 -3.75226 0.631322 0
M  V30 8496 H 823.496 -3.0997 2.33539 0
M  V30 8497 H 821.597 -3.72567 -0.0495917 0
M  V30 8498 H 821.71 -4.48944 1.67289 0
M  V30 8499 H 820.074 -2.41875 0.798033 0
M  V30 8500 H 820.857 -2.38516 2.46911 0
M  V30 8501 N 823.302 -0.75937 -1.38099 0
M  V30 8502 C 824.265 -0.14372 -2.28749 0
M  V30 8503 C 825.265 0.641338 -1.47457 0
M  V30 8504 O 826.455 0.466751 -1.67831 0
M  V30 8505 C 823.587 0.804545 -3.3127 0
M  V30 8506 H 824.78 -0.942663 -2.847 0
M  V30 8507 H 822.333 -0.526757 -1.47156 0
M  V30 8508 H 823.068 1.62895 -2.80421 0
M  V30 8509 H 822.853 0.243939 -3.9134 0
M  V30 8510 H 824.343 1.23111 -3.99041 0
M  V30 8511 N 824.78 1.49157 -0.508906 0
M  V30 8512 C 825.712 2.272 0.302115 0
M  V30 8513 C 826.725 1.3407 0.923529 0
M  V30 8514 O 827.914 1.5929 0.805532 0
M  V30 8515 C 825.014 3.06736 1.44105 0
M  V30 8516 C 824.187 4.27497 0.925477 0
M  V30 8517 C 823.246 4.89014 1.94297 0
M  V30 8518 O 822.272 5.48851 1.50834 0
M  V30 8519 N 823.474 4.7937 3.2739 0
M  V30 8520 H 826.239 2.97443 -0.367115 0
M  V30 8521 H 823.8 1.58248 -0.341933 0
M  V30 8522 H 825.792 3.44763 2.11944 0
M  V30 8523 H 824.362 2.3905 2.0143 0
M  V30 8524 H 823.582 3.94135 0.0717301 0
M  V30 8525 H 824.87 5.05714 0.55955 0
M  V30 8526 H 824.268 4.31869 3.65384 0
M  V30 8527 H 822.825 5.21559 3.90922 0
M  V30 8528 N 826.258 0.243083 1.55714 0
M  V30 8529 C 827.674 -0.111853 1.59208 0
M  V30 8530 C 827.874 -1.5723 1.2602 0
M  V30 8531 O 826.93 -2.31608 1.00569 0
M  V30 8532 C 828.243 0.233885 2.99789 0
M  V30 8533 C 829.791 0.177873 3.12494 0
M  V30 8534 C 830.266 0.49759 4.55289 0
M  V30 8535 N 831.757 0.447949 4.61029 0
M  V30 8536 C 832.492 0.668545 5.69489 0
M  V30 8537 N 831.988 0.952064 6.86227 0
M  V30 8538 N 833.781 0.599512 5.58894 0
M  V30 8539 H 825.932 1.19554 1.75558 0
M  V30 8540 H 828.195 0.480765 0.817049 0
M  V30 8541 H 827.901 1.24835 3.28799 0
M  V30 8542 H 827.775 -0.440846 3.74615 0
M  V30 8543 H 830.162 -0.827263 2.83267 0
M  V30 8544 H 830.243 0.886399 2.39951 0
M  V30 8545 H 829.887 1.50026 4.85237 0
M  V30 8546 H 829.817 -0.232371 5.26087 0
M  V30 8547 H 832.308 0.237388 3.77154 0
M  V30 8548 H 832.621 1.10791 7.64817 0
M  V30 8549 H 830.966 0.989496 6.8792 0
M  V30 8550 H 834.157 0.378088 4.66571 0
M  V30 8551 H 834.33 0.774828 6.43351 0
M  V30 8552 N 827.736 -1.57571 -0.0300757 0
M  V30 8553 C 828.699 -2.05468 -1.01565 0
M  V30 8554 C 829.699 -0.958628 -1.29101 0
M  V30 8555 O 830.889 -1.22228 -1.24121 0
M  V30 8556 C 828.021 -2.47077 -2.34874 0
M  V30 8557 H 829.214 -2.93797 -0.601936 0
M  V30 8558 H 826.767 -1.53828 -0.276878 0
M  V30 8559 H 827.502 -1.61901 -2.80996 0
M  V30 8560 H 827.287 -3.27097 -2.16218 0
M  V30 8561 H 828.777 -2.84564 -3.05635 0
M  V30 8562 N 829.214 0.302327 -1.54673 0
M  V30 8563 C 830.442 1.05669 -1.77881 0
M  V30 8564 C 830.857 1.80983 -0.537648 0
M  V30 8565 O 830.214 1.7573 0.492467 0
M  V30 8566 C 830.265 2.03828 -2.98557 0
M  V30 8567 O 829.986 1.3157 -4.17877 0
M  V30 8568 C 831.487 2.91314 -3.34143 0
M  V30 8569 H 828.707 0.313436 -0.593295 0
M  V30 8570 H 831.251 0.342003 -2.0162 0
M  V30 8571 H 829.406 2.70801 -2.7703 0
M  V30 8572 H 829.82 1.97481 -4.85903 0
M  V30 8573 H 831.294 3.56042 -4.21827 0
M  V30 8574 H 831.771 3.59544 -2.52239 0
M  V30 8575 H 832.377 2.29874 -3.57824 0
M  V30 8576 N 830.692 1.47107 0.565454 0
M  V30 8577 C 831.655 1.58535 1.65527 0
M  V30 8578 C 832.655 0.461081 1.54048 0
M  V30 8579 O 833.845 0.725911 1.58355 0
M  V30 8580 C 830.977 1.52204 3.05036 0
M  V30 8581 H 832.17 2.55676 1.56747 0
M  V30 8582 H 829.723 1.35174 0.78471 0
M  V30 8583 H 830.458 0.564071 3.19357 0
M  V30 8584 H 830.243 2.3379 3.14777 0
M  V30 8585 H 831.733 1.63322 3.84338 0
M  V30 8586 N 832.17 -0.811516 1.35101 0
M  V30 8587 C 833.133 -1.90467 1.27495 0
M  V30 8588 C 834.133 -1.59703 0.187516 0
M  V30 8589 O 835.323 -1.68528 0.440896 0
M  V30 8590 C 832.455 -3.26774 0.971154 0
M  V30 8591 H 833.648 -1.98631 2.2469 0
M  V30 8592 H 831.201 -1.00681 1.19553 0
M  V30 8593 H 831.936 -3.243 0.0028557 0
M  V30 8594 H 831.721 -3.50488 1.75785 0
M  V30 8595 H 833.211 -4.06804 0.943414 0
M  V30 8596 N 833.648 -1.19017 -1.03309 0
M  V30 8597 C 834.558 -0.939303 -2.14975 0
M  V30 8598 C 835.574 0.0992359 -1.73717 0
M  V30 8599 O 836.75 -0.0844362 -2.01223 0
M  V30 8600 C 833.815 -0.476712 -3.43407 0
M  V30 8601 C 832.876 -1.58413 -3.99003 0
M  V30 8602 C 832.109 -1.14352 -5.21305 0
M  V30 8603 O 832.332 -0.00534408 -5.704 0
M  V30 8604 O 831.266 -1.94436 -5.6963 0
M  V30 8605 H 835.092 -1.87386 -2.38998 0
M  V30 8606 H 832.677 -0.972635 -1.13403 0
M  V30 8607 H 834.559 -0.22718 -4.20787 0
M  V30 8608 H 833.234 0.429455 -3.20839 0
M  V30 8609 H 832.141 -1.88777 -3.22977 0
M  V30 8610 H 833.474 -2.4667 -4.25928 0
M  V30 8611 N 835.127 1.22348 -0.993418 0
M  V30 8612 C 836.057 2.26584 -0.564088 0
M  V30 8613 C 837.038 1.65102 0.409298 0
M  V30 8614 O 838.223 1.91872 0.299819 0
M  V30 8615 C 835.353 3.47087 0.121554 0
M  V30 8616 C 834.307 4.21009 -0.770429 0
M  V30 8617 C 833.633 5.34678 0.0481586 0
M  V30 8618 C 834.933 4.79636 -2.06752 0
M  V30 8619 H 836.627 2.62749 -1.43538 0
M  V30 8620 H 834.173 1.26303 -0.691628 0
M  V30 8621 H 836.126 4.19166 0.433303 0
M  V30 8622 H 834.85 3.1002 1.0274 0
M  V30 8623 H 833.509 3.50764 -1.06583 0
M  V30 8624 H 833.157 4.93852 0.954933 0
M  V30 8625 H 832.857 5.85061 -0.545641 0
M  V30 8626 H 834.381 6.09573 0.353991 0
M  V30 8627 H 835.795 5.43654 -1.81969 0
M  V30 8628 H 834.192 5.4036 -2.61019 0
M  V30 8629 H 835.262 3.99659 -2.74592 0
M  V30 8630 N 836.605 0.766683 1.37694 0
M  V30 8631 C 837.535 0.163432 2.32927 0
M  V30 8632 C 838.516 -0.688861 1.55527 0
M  V30 8633 O 839.701 -0.627363 1.83787 0
M  V30 8634 C 836.831 -0.720416 3.39746 0
M  V30 8635 C 835.785 0.0301718 4.27989 0
M  V30 8636 C 835.111 -0.972788 5.25776 0
M  V30 8637 C 836.411 1.20623 5.0818 0
M  V30 8638 H 838.105 0.958988 2.83626 0
M  V30 8639 H 835.651 0.462601 1.36367 0
M  V30 8640 H 837.604 -1.15221 4.05342 0
M  V30 8641 H 836.328 -1.54844 2.8756 0
M  V30 8642 H 834.987 0.442685 3.63917 0
M  V30 8643 H 834.635 -1.79522 4.69873 0
M  V30 8644 H 834.335 -0.475145 5.85676 0
M  V30 8645 H 835.859 -1.40362 5.94248 0
M  V30 8646 H 837.273 0.851341 5.66944 0
M  V30 8647 H 835.67 1.63561 5.7738 0
M  V30 8648 H 836.74 2.01281 4.41151 0
M  V30 8649 N 838.083 -1.48885 0.516809 0
M  V30 8650 C 839.03 -2.29408 -0.253125 0
M  V30 8651 C 840 -1.36533 -0.945935 0
M  V30 8652 O 841.185 -1.65495 -0.949527 0
M  V30 8653 C 838.325 -3.19592 -1.30211 0
M  V30 8654 C 837.438 -4.27535 -0.61948 0
M  V30 8655 C 836.573 -5.04916 -1.65026 0
M  V30 8656 C 835.612 -6.04677 -0.950368 0
M  V30 8657 N 834.749 -6.75164 -1.92608 0
M  V30 8658 H 839.589 -2.94738 0.439744 0
M  V30 8659 H 837.126 -1.45311 0.2287 0
M  V30 8660 H 839.084 -3.70267 -1.92245 0
M  V30 8661 H 837.714 -2.56213 -1.96353 0
M  V30 8662 H 836.766 -3.80228 0.114505 0
M  V30 8663 H 838.078 -4.98752 -0.0693016 0
M  V30 8664 H 837.232 -5.59539 -2.34523 0
M  V30 8665 H 835.971 -4.33508 -2.23432 0
M  V30 8666 H 834.976 -5.4927 -0.241252 0
M  V30 8667 H 836.201 -6.78077 -0.372599 0
M  V30 8668 H 834.147 -6.06517 -2.49946 0
M  V30 8669 H 834.064 -7.4241 -1.42699 0
M  V30 8670 H 835.332 -7.34384 -2.61345 0
M  V30 8671 N 839.561 -0.251338 -1.55583 0
M  V30 8672 C 840.511 0.660351 -2.18228 0
M  V30 8673 C 841.495 1.13596 -1.13951 0
M  V30 8674 O 842.687 1.08499 -1.39846 0
M  V30 8675 C 839.816 1.85498 -2.88869 0
M  V30 8676 C 838.902 1.39767 -4.00407 0
M  V30 8677 N 839.293 0.654876 -5.01543 0
M  V30 8678 C 837.591 1.68259 -4.13044 0
M  V30 8679 C 838.292 0.417521 -5.802 0
M  V30 8680 N 837.268 0.983032 -5.34638 0
M  V30 8681 H 841.07 0.0847425 -2.93778 0
M  V30 8682 H 838.584 -0.0538456 -1.62311 0
M  V30 8683 H 840.581 2.51916 -3.3218 0
M  V30 8684 H 839.241 2.43477 -2.14823 0
M  V30 8685 H 840.252 0.304545 -5.17004 0
M  V30 8686 H 836.929 2.27344 -3.50172 0
M  V30 8687 H 838.319 -0.175764 -6.7167 0
M  V30 8688 N 841.039 1.57585 0.0217189 0
M  V30 8689 C 842.45 1.7787 0.567377 0
M  V30 8690 C 842.801 0.883337 1.7519 0
M  V30 8691 O 841.926 0.0800819 2.16252 0
M  V30 8692 C 842.521 3.2257 1.03606 0
M  V30 8693 C 841.08 3.44026 1.52718 0
M  V30 8694 C 840.227 2.73313 0.468545 0
M  V30 8695 H 843.178 1.57377 -0.2045 0
M  V30 8696 H 843.199 3.29488 1.9031 0
M  V30 8697 H 842.711 3.87711 0.173739 0
M  V30 8698 H 840.812 2.8407 2.41111 0
M  V30 8699 H 840.925 4.52659 1.56962 0
M  V30 8700 H 839.289 2.37299 0.925263 0
M  V30 8701 H 840.072 3.41141 -0.384438 0
M  V30 8702 N 842.517 -0.29412 1.54831 0
M  V30 8703 C 843.764 -1.02846 1.74439 0
M  V30 8704 C 844.092 -1.87029 0.533905 0
M  V30 8705 O 843.347 -1.8962 -0.484035 0
M  V30 8706 C 843.646 -1.95782 2.99006 0
M  V30 8707 C 843.312 -1.2752 4.32492 0
M  V30 8708 C 841.974 -1.08637 4.68777 0
M  V30 8709 C 844.326 -0.787761 5.15212 0
M  V30 8710 C 841.654 -0.39704 5.85355 0
M  V30 8711 C 844.006 -0.112123 6.32501 0
M  V30 8712 C 842.67 0.0886071 6.67441 0
M  V30 8713 H 841.94 -0.376341 0.638317 0
M  V30 8714 H 844.587 -0.302684 1.89093 0
M  V30 8715 H 842.892 -2.74911 2.79162 0
M  V30 8716 H 844.589 -2.52684 3.11371 0
M  V30 8717 H 841.179 -1.43226 4.03961 0
M  V30 8718 H 845.363 -0.921341 4.87673 0
M  V30 8719 H 840.619 -0.230597 6.10965 0
M  V30 8720 H 844.793 0.27344 6.95863 0
M  V30 8721 H 842.42 0.624748 7.57628 0
M  V30 8722 N 843.995 -1.47404 -0.557645 0
M  V30 8723 C 844.925 -1.62736 -1.67449 0
M  V30 8724 C 845.906 -0.476824 -1.6328 0
M  V30 8725 O 847.091 -0.706108 -1.80908 0
M  V30 8726 C 844.221 -1.641 -3.06086 0
M  V30 8727 C 843.175 -2.78377 -3.25101 0
M  V30 8728 C 842.501 -2.64812 -4.6452 0
M  V30 8729 C 843.801 -4.19971 -3.10518 0
M  V30 8730 H 845.495 -2.56232 -1.54873 0
M  V30 8731 H 843.041 -1.23312 -0.743649 0
M  V30 8732 H 844.994 -1.73417 -3.84063 0
M  V30 8733 H 843.718 -0.671652 -3.19619 0
M  V30 8734 H 842.377 -2.6857 -2.49531 0
M  V30 8735 H 842.025 -1.65906 -4.74852 0
M  V30 8736 H 841.725 -3.41477 -4.78191 0
M  V30 8737 H 843.249 -2.76057 -5.44633 0
M  V30 8738 H 844.663 -4.30757 -3.78313 0
M  V30 8739 H 843.06 -4.97419 -3.35699 0
M  V30 8740 H 844.13 -4.38369 -2.0727 0
M  V30 8741 N 845.473 0.80434 -1.35529 0
M  V30 8742 C 846.436 1.89788 -1.28503 0
M  V30 8743 C 847.436 1.59601 -0.195983 0
M  V30 8744 O 848.626 1.68292 -0.449827 0
M  V30 8745 C 845.758 3.26255 -0.98847 0
M  V30 8746 H 846.951 1.97436 -2.25741 0
M  V30 8747 H 844.504 1.00046 -1.20086 0
M  V30 8748 H 845.239 3.24294 -0.0200541 0
M  V30 8749 H 845.024 3.49551 -1.77641 0
M  V30 8750 H 846.514 4.06298 -0.964975 0
M  V30 8751 N 846.951 1.19563 1.02676 0
M  V30 8752 C 847.898 0.935291 2.11 0
M  V30 8753 C 848.868 -0.130685 1.65585 0
M  V30 8754 O 850.053 0.0119062 1.90796 0
M  V30 8755 C 847.193 0.482384 3.41712 0
M  V30 8756 C 846.306 1.61537 4.00662 0
M  V30 8757 C 845.441 1.11378 5.19392 0
M  V30 8758 C 844.48 2.22052 5.70403 0
M  V30 8759 N 843.617 1.73185 6.80405 0
M  V30 8760 H 848.457 1.86275 2.32606 0
M  V30 8761 H 845.994 0.928656 1.14081 0
M  V30 8762 H 847.952 0.20118 4.16715 0
M  V30 8763 H 846.582 -0.408086 3.2021 0
M  V30 8764 H 845.634 2.01173 3.22852 0
M  V30 8765 H 846.946 2.44912 4.34534 0
M  V30 8766 H 846.1 0.787935 6.01562 0
M  V30 8767 H 844.839 0.249789 4.8706 0
M  V30 8768 H 843.844 2.55465 4.86845 0
M  V30 8769 H 845.069 3.08911 6.04774 0
M  V30 8770 H 843.015 0.890973 6.49921 0
M  V30 8771 H 842.932 2.50148 7.13416 0
M  V30 8772 H 844.2 1.4357 7.66164 0
M  V30 8773 N 848.429 -1.21819 0.999893 0
M  V30 8774 C 849.392 -2.22227 0.561044 0
M  V30 8775 C 850.392 -1.56722 -0.359858 0
M  V30 8776 O 851.582 -1.73546 -0.150848 0
M  V30 8777 C 848.714 -3.40409 -0.182987 0
M  V30 8778 H 849.907 -2.62567 1.44909 0
M  V30 8779 H 847.46 -1.34991 0.78785 0
M  V30 8780 H 848.195 -3.05551 -1.08671 0
M  V30 8781 H 847.98 -3.89171 0.47833 0
M  V30 8782 H 849.47 -4.14856 -0.477952 0
M  V30 8783 N 849.908 -0.773975 -1.37286 0
M  V30 8784 C 851.156 -0.338636 -1.99243 0
M  V30 8785 C 851.477 1.08919 -1.61746 0
M  V30 8786 O 850.747 1.74822 -0.88397 0
M  V30 8787 H 849.327 -0.12222 -0.736934 0
M  V30 8788 H 851.989 -0.992595 -1.67731 0
M  V30 8789 H 851.085 -0.418055 -3.09287 0
M  V30 8790 N 851.386 1.48609 -0.524698 0
M  V30 8791 C 852.797 1.86516 -0.0828846 0
M  V30 8792 C 853.148 1.43478 1.33822 0
M  V30 8793 O 852.273 0.823139 2.00133 0
M  V30 8794 C 852.868 3.38495 -0.143639 0
M  V30 8795 C 851.427 3.75615 0.242951 0
M  V30 8796 C 850.574 2.72649 -0.505747 0
M  V30 8797 H 853.525 1.40589 -0.736233 0
M  V30 8798 H 853.546 3.74977 0.645955 0
M  V30 8799 H 853.058 3.69789 -1.17805 0
M  V30 8800 H 851.159 3.49935 1.27971 0
M  V30 8801 H 851.272 4.7901 -0.0929834 0
M  V30 8802 H 849.636 2.54656 0.0473482 0
M  V30 8803 H 850.419 3.06786 -1.54069 0
M  V30 8804 N 852.864 0.259585 1.55447 0
M  V30 8805 C 854.275 -0.241165 1.85136 0
M  V30 8806 C 854.626 -1.56634 1.18153 0
M  V30 8807 O 853.751 -2.11359 0.464351 0
M  V30 8808 C 854.346 -0.444355 3.35873 0
M  V30 8809 C 852.905 -0.889354 3.65742 0
M  V30 8810 C 852.052 0.0262474 2.77288 0
M  V30 8811 H 855.003 0.481808 1.51209 0
M  V30 8812 H 855.024 -1.28517 3.58139 0
M  V30 8813 H 854.536 0.520289 3.84597 0
M  V30 8814 H 852.637 -1.86602 3.22507 0
M  V30 8815 H 852.75 -0.737432 4.73391 0
M  V30 8816 H 851.114 -0.487361 2.49994 0
M  V30 8817 H 851.897 0.986494 3.28821 0
M  V30 8818 N 854.342 -1.57594 -0.0133615 0
M  V30 8819 C 855.305 -2.06534 -0.993799 0
M  V30 8820 C 856.305 -0.972267 -1.28077 0
M  V30 8821 O 857.495 -1.23537 -1.22818 0
M  V30 8822 C 854.627 -2.49554 -2.3224 0
M  V30 8823 H 855.82 -2.94419 -0.570741 0
M  V30 8824 H 853.373 -1.54113 -0.260546 0
M  V30 8825 H 854.108 -1.64872 -2.79263 0
M  V30 8826 H 853.893 -3.29371 -2.12737 0
M  V30 8827 H 855.383 -2.8779 -3.026 0
M  V30 8828 N 855.82 0.285905 -1.54985 0
M  V30 8829 C 857.045 1.04207 -1.7932 0
M  V30 8830 C 857.47 1.79622 -0.558343 0
M  V30 8831 O 856.828 1.74506 0.491661 0
M  V30 8832 C 856.876 1.98648 -3.0095 0
M  V30 8833 O 855.98 3.07207 -2.75132 0
M  V30 8834 H 855.321 0.298596 -0.593074 0
M  V30 8835 H 857.851 0.318736 -2.02102 0
M  V30 8836 H 857.861 2.4084 -3.29333 0
M  V30 8837 H 856.536 1.43167 -3.90482 0
M  V30 8838 H 855.113 2.69423 -2.57809 0
M  V30 8839 N 857.298 1.47698 0.54982 0
M  V30 8840 C 858.547 1.53961 1.30303 0
M  V30 8841 C 858.86 0.209731 1.94472 0
M  V30 8842 O 860.066 0.150418 2.71083 0
M  V30 8843 C 858.522 2.71436 2.36328 0
M  V30 8844 C 858.13 4.10983 1.78316 0
M  V30 8845 C 859.874 2.86996 3.12783 0
M  V30 8846 C 857.781 5.19747 2.82164 0
M  V30 8847 H 856.711 0.573098 0.489975 0
M  V30 8848 H 859.362 1.73989 0.583089 0
M  V30 8849 H 857.744 2.44801 3.11269 0
M  V30 8850 H 858.918 4.47552 1.09697 0
M  V30 8851 H 857.233 4.00371 1.1442 0
M  V30 8852 H 859.83 3.65422 3.90347 0
M  V30 8853 H 860.173 1.95712 3.67427 0
M  V30 8854 H 860.706 3.13436 2.44954 0
M  V30 8855 H 857.445 6.12932 2.32366 0
M  V30 8856 H 856.965 4.87688 3.49171 0
M  V30 8857 H 858.644 5.47014 3.4552 0
M  V30 8858 N 858.776 -0.797141 1.35954 0
M  V30 8859 C 860.022 -1.55698 1.29946 0
M  V30 8860 C 860.355 -1.93808 -0.123259 0
M  V30 8861 O 859.63 -1.62102 -1.07486 0
M  V30 8862 C 859.913 -2.83926 2.2149 0
M  V30 8863 C 859.766 -2.52232 3.72423 0
M  V30 8864 C 861.085 -3.85698 2.11955 0
M  V30 8865 H 858.204 -0.56488 0.47337 0
M  V30 8866 H 860.846 -0.916421 1.66438 0
M  V30 8867 H 858.996 -3.38588 1.905 0
M  V30 8868 H 860.668 -2.0368 4.13899 0
M  V30 8869 H 858.911 -1.85286 3.92239 0
M  V30 8870 H 859.582 -3.43782 4.31877 0
M  V30 8871 H 862.058 -3.40462 2.39218 0
M  V30 8872 H 860.934 -4.73182 2.78191 0
M  V30 8873 H 861.195 -4.28083 1.10442 0
M  V30 8874 N 860.254 -1.20106 -1.0204 0
M  V30 8875 C 861.665 -1.00992 -1.57027 0
M  V30 8876 C 862.016 0.434782 -1.91322 0
M  V30 8877 O 861.141 1.31557 -1.71819 0
M  V30 8878 C 861.736 -1.82697 -2.85319 0
M  V30 8879 C 860.295 -1.67959 -3.36848 0
M  V30 8880 C 859.442 -1.80868 -2.10195 0
M  V30 8881 H 862.393 -1.34354 -0.844676 0
M  V30 8882 H 862.414 -1.32809 -3.5657 0
M  V30 8883 H 861.926 -2.87839 -2.60328 0
M  V30 8884 H 860.027 -0.654389 -3.66809 0
M  V30 8885 H 860.14 -2.49006 -4.09308 0
M  V30 8886 H 858.504 -1.24015 -2.22469 0
M  V30 8887 H 859.287 -2.87486 -1.87635 0
M  V30 8888 N 861.732 1.21287 -1.00634 0
M  V30 8889 C 862.662 2.25973 -0.588089 0
M  V30 8890 C 863.643 1.65527 0.391764 0
M  V30 8891 O 864.828 1.92179 0.279452 0
M  V30 8892 C 861.958 3.47197 0.0847336 0
M  V30 8893 C 860.912 4.20168 -0.815039 0
M  V30 8894 C 860.238 5.34699 -0.00855393 0
M  V30 8895 C 861.538 4.77416 -2.11828 0
M  V30 8896 H 863.232 2.61212 -1.46317 0
M  V30 8897 H 860.778 1.25563 -0.704985 0
M  V30 8898 H 862.731 4.19602 0.388821 0
M  V30 8899 H 861.455 3.11092 0.994456 0
M  V30 8900 H 860.114 3.49614 -1.10297 0
M  V30 8901 H 859.762 4.94837 0.902499 0
M  V30 8902 H 859.462 5.84449 -0.607664 0
M  V30 8903 H 860.986 6.09914 0.289317 0
M  V30 8904 H 862.4 5.41694 -1.87725 0
M  V30 8905 H 860.797 5.37561 -2.66736 0
M  V30 8906 H 861.867 3.96724 -2.78816 0
M  V30 8907 N 863.21 0.781244 1.36873 0
M  V30 8908 C 864.143 0.120106 2.27884 0
M  V30 8909 C 865.121 -0.698961 1.4681 0
M  V30 8910 O 866.305 -0.671694 1.76126 0
M  V30 8911 C 863.432 -0.835804 3.28226 0
M  V30 8912 C 862.478 -0.0995527 4.26384 0
M  V30 8913 S 863.311 1.21903 5.2144 0
M  V30 8914 C 864.467 0.266904 6.25331 0
M  V30 8915 H 864.7 0.891796 2.83609 0
M  V30 8916 H 862.233 0.575075 1.43291 0
M  V30 8917 H 864.191 -1.3819 3.86541 0
M  V30 8918 H 862.852 -1.58068 2.71428 0
M  V30 8919 H 862.045 -0.82457 4.97209 0
M  V30 8920 H 861.647 0.375818 3.72107 0
M  V30 8921 H 863.939 -0.55725 6.75204 0
M  V30 8922 H 864.882 0.943603 7.01785 0
M  V30 8923 H 865.29 -0.126121 5.64359 0
M  V30 8924 N 864.689 -1.48329 0.532571 0
M  V30 8925 C 866.105 -1.58458 0.190605 0
M  V30 8926 C 866.305 -1.53427 -1.30623 0
M  V30 8927 O 865.361 -1.4247 -2.08467 0
M  V30 8928 C 866.674 -2.89989 0.79543 0
M  V30 8929 C 868.222 -3.03523 0.7644 0
M  V30 8930 C 868.697 -4.37718 1.34785 0
M  V30 8931 N 870.188 -4.44292 1.30993 0
M  V30 8932 C 870.923 -5.4664 1.73124 0
M  V30 8933 N 870.419 -6.5593 2.22997 0
M  V30 8934 N 872.212 -5.37538 1.64346 0
M  V30 8935 H 864.363 -1.49842 1.50537 0
M  V30 8936 H 866.626 -0.71164 0.626316 0
M  V30 8937 H 866.332 -2.99333 1.84642 0
M  V30 8938 H 866.206 -3.76203 0.27403 0
M  V30 8939 H 868.593 -2.93789 -0.277831 0
M  V30 8940 H 868.674 -2.18912 1.3233 0
M  V30 8941 H 868.318 -4.48206 2.38902 0
M  V30 8942 H 868.248 -5.21019 0.764609 0
M  V30 8943 H 870.739 -3.65897 0.944868 0
M  V30 8944 H 871.052 -7.30167 2.53133 0
M  V30 8945 H 869.397 -6.56886 2.26992 0
M  V30 8946 H 872.588 -4.51052 1.25178 0
M  V30 8947 H 872.761 -6.17169 1.97501 0
M  V30 8948 N 866.167 -0.267825 -1.55308 0
M  V30 8949 C 867.099 0.65591 -2.19614 0
M  V30 8950 C 868.112 1.12302 -1.17865 0
M  V30 8951 O 869.301 1.04618 -1.44628 0
M  V30 8952 C 866.401 1.90582 -2.80235 0
M  V30 8953 C 865.574 1.58673 -4.07605 0
M  V30 8954 C 864.633 2.68836 -4.52343 0
M  V30 8955 O 863.659 2.35331 -5.18274 0
M  V30 8956 N 864.861 3.98752 -4.21873 0
M  V30 8957 H 867.626 0.105566 -2.99514 0
M  V30 8958 H 865.187 -0.0886263 -1.61657 0
M  V30 8959 H 867.179 2.63561 -3.07112 0
M  V30 8960 H 865.749 2.3654 -2.04371 0
M  V30 8961 H 864.969 0.691113 -3.88094 0
M  V30 8962 H 866.257 1.34845 -4.90606 0
M  V30 8963 H 865.655 4.28797 -3.68985 0
M  V30 8964 H 864.212 4.68131 -4.53537 0
M  V30 8965 N 867.645 1.57599 0.00500368 0
M  V30 8966 C 868.593 2.09223 1.01628 0
M  V30 8967 C 869.587 1.01113 1.35913 0
M  V30 8968 O 870.793 1.19583 1.34536 0
M  V30 8969 H 867.168 0.667999 0.345372 0
M  V30 8970 H 869.139 2.93188 0.555274 0
M  V30 8971 C 867.888 2.60674 2.30097 0
M  V30 8972 H 867.211 3.43491 2.04582 0
M  V30 8973 H 868.651 3.00479 2.99146 0
M  V30 8974 C 867.11 1.51862 3.00731 0
M  V30 8975 O 867.64 0.898651 3.91519 0
M  V30 8976 N 865.846 1.24729 2.62471 0
M  V30 8977 H 865.393 1.7533 1.88725 0
M  V30 8978 H 865.351 0.521437 3.10046 0
M  V30 8979 N 869.123 -0.277682 1.55134 0
M  V30 8980 C 870.539 -0.624625 1.46869 0
M  V30 8981 C 870.739 -1.89717 0.678958 0
M  V30 8982 O 869.795 -2.51739 0.195939 0
M  V30 8983 C 871.108 -0.755937 2.91043 0
M  V30 8984 C 872.656 -0.850299 3.01229 0
M  V30 8985 C 873.131 -1.01343 4.46647 0
M  V30 8986 N 874.622 -1.07906 4.50456 0
M  V30 8987 C 875.357 -1.224 5.60184 0
M  V30 8988 N 874.853 -1.33642 6.79788 0
M  V30 8989 N 876.646 -1.25473 5.47917 0
M  V30 8990 H 868.797 0.558102 2.04937 0
M  V30 8991 H 871.06 0.188228 0.929125 0
M  V30 8992 H 870.766 0.108593 3.51532 0
M  V30 8993 H 870.64 -1.6377 3.39793 0
M  V30 8994 H 873.027 -1.7053 2.40839 0
M  V30 8995 H 873.108 0.0559681 2.55739 0
M  V30 8996 H 872.752 -0.163102 5.07638 0
M  V30 8997 H 872.682 -1.93427 4.89789 0
M  V30 8998 H 875.173 -1.00477 3.64298 0
M  V30 8999 H 875.486 -1.44522 7.59166 0
M  V30 9000 H 873.831 -1.30655 6.82608 0
M  V30 9001 H 877.022 -1.16317 4.53418 0
M  V30 9002 H 877.195 -1.36424 6.33476 0
M  V30 9003 N 870.601 -1.47988 -0.541979 0
M  V30 9004 C 871.829 -1.59034 -1.32347 0
M  V30 9005 C 872.244 -0.246123 -1.87189 0
M  V30 9006 O 871.601 0.762889 -1.6579 0
M  V30 9007 C 871.652 -2.62759 -2.48274 0
M  V30 9008 O 871.373 -3.91963 -1.95695 0
M  V30 9009 C 872.874 -2.84133 -3.4027 0
M  V30 9010 H 870.094 -0.536574 -0.402901 0
M  V30 9011 H 872.638 -1.93725 -0.655045 0
M  V30 9012 H 870.793 -2.3096 -3.11025 0
M  V30 9013 H 871.207 -4.48769 -2.7149 0
M  V30 9014 H 872.681 -3.60538 -4.17991 0
M  V30 9015 H 873.158 -1.92512 -3.9476 0
M  V30 9016 H 873.764 -3.17188 -2.83322 0
M  V30 9017 N 872.079 0.78992 -1.36375 0
M  V30 9018 C 873.495 1.0879 -1.16777 0
M  V30 9019 C 873.695 2.01498 0.00848236 0
M  V30 9020 O 872.751 2.43338 0.674007 0
M  V30 9021 C 874.064 1.70285 -2.47837 0
M  V30 9022 C 875.612 1.82629 -2.54196 0
M  V30 9023 C 876.087 2.47539 -3.85342 0
M  V30 9024 N 877.578 2.55008 -3.86685 0
M  V30 9025 C 878.313 3.06041 -4.84898 0
M  V30 9026 N 877.809 3.57385 -5.93505 0
M  V30 9027 N 879.602 3.04748 -4.72319 0
M  V30 9028 H 871.753 0.173985 -2.11686 0
M  V30 9029 H 874.016 0.139798 -0.937636 0
M  V30 9030 H 873.722 1.09633 -3.34176 0
M  V30 9031 H 873.596 2.69799 -2.63607 0
M  V30 9032 H 875.983 2.42419 -1.68276 0
M  V30 9033 H 876.064 0.81923 -2.42327 0
M  V30 9034 H 875.708 1.88393 -4.71668 0
M  V30 9035 H 875.638 3.48815 -3.94507 0
M  V30 9036 H 878.129 2.18651 -3.08221 0
M  V30 9037 H 878.442 3.94674 -6.64419 0
M  V30 9038 H 876.787 3.55538 -5.97175 0
M  V30 9039 H 879.978 2.63925 -3.86602 0
M  V30 9040 H 880.151 3.44212 -5.49019 0
M  V30 9041 O 873.596 1.32076 0.929425 0
M  V30 9042 H 874.287 1.14678 1.56105 0
M  V30 END ATOM
M  V30 BEGIN BOND
M  V30 END BOND
M  V30 END CTAB
M  END
$$$$
