drugbank_target|O96221 Protein transport protein SEC31 (DB11638)
 OpenBabel12092121123D

  0  0  0     0  0            999 V3000
M  V30 BEGIN CTAB
M  V30 COUNTS 23011 23233 0 0 0
M  V30 BEGIN ATOM
M  V30 1 H -0.908 1.98254 -0.117106 0
M  V30 2 N 0 1.576 0 0
M  V30 3 C 0.933 2.03868 1.02534 0
M  V30 4 C 1.911 0.928543 1.3348 0
M  V30 5 O 3.095 1.19667 1.45644 0
M  V30 6 C 0.222 2.43627 2.35294 0
M  V30 7 C -0.732 3.65373 2.2001 0
M  V30 8 S 0.101 5.13292 1.52614 0
M  V30 9 C 1.257 5.56322 2.86805 0
M  V30 10 H 1.49 2.90518 0.631377 0
M  V30 11 H -0.977 1.52953 0.210867 0
M  V30 12 H 0.981 2.67203 3.11629 0
M  V30 13 H -0.358 1.57376 2.7183 0
M  V30 14 H -1.165 3.90944 3.18086 0
M  V30 15 H -1.563 3.418 1.51819 0
M  V30 16 H 0.729 5.58782 3.83104 0
M  V30 17 H 1.672 6.56266 2.65933 0
M  V30 18 H 2.08 4.83886 2.90714 0
M  V30 19 N 1.4781 -0.272755 1.55222 0
M  V30 20 C 2.4411 -1.32041 1.87344 0
M  V30 21 C 3.4411 -1.42342 0.74803 0
M  V30 22 O 4.6311 -1.41488 1.0162 0
M  V30 23 C 1.7631 -2.70173 2.07893 0
M  V30 24 H 2.9561 -1.04789 2.80997 0
M  V30 25 H 0.5091 -0.51083 1.47717 0
M  V30 26 H 1.2441 -3.02605 1.16622 0
M  V30 27 H 1.0291 -2.64082 2.89833 0
M  V30 28 H 2.5191 -3.45869 2.34017 0
M  V30 29 N 2.9562 -1.48159 -0.537278 0
M  V30 30 C 3.8862 -1.65029 -1.6519 0
M  V30 31 C 4.8672 -0.499281 -1.62607 0
M  V30 32 O 6.0522 -0.730972 -1.79918 0
M  V30 33 C 3.1822 -1.68303 -3.03795 0
M  V30 34 C 2.1362 -2.8283 -3.21234 0
M  V30 35 C 1.4622 -2.71189 -4.60826 0
M  V30 36 C 2.7622 -4.24211 -3.04701 0
M  V30 37 H 4.4562 -2.58341 -1.51328 0
M  V30 38 H 2.0022 -1.24325 -0.726585 0
M  V30 39 H 3.9552 -1.78693 -3.81637 0
M  V30 40 H 2.6792 -0.715635 -3.18663 0
M  V30 41 H 1.3382 -2.71983 -2.45807 0
M  V30 42 H 0.9862 -1.72435 -4.7252 0
M  V30 43 H 0.6862 -3.48035 -4.7344 0
M  V30 44 H 2.2102 -2.83537 -5.40777 0
M  V30 45 H 3.6242 -4.3593 -3.72341 0
M  V30 46 H 2.0212 -5.01998 -3.28813 0
M  V30 47 H 3.0912 -4.41184 -2.01209 0
M  V30 48 N 4.4343 0.785586 -1.36625 0
M  V30 49 C 5.3813 1.89838 -1.31264 0
M  V30 50 C 6.3513 1.65115 -0.180633 0
M  V30 51 O 7.5363 1.87222 -0.36777 0
M  V30 52 C 4.6763 3.26706 -1.11163 0
M  V30 53 C 3.7893 3.63476 -2.33472 0
M  V30 54 C 2.9243 4.89481 -2.06353 0
M  V30 55 C 1.9633 5.18941 -3.24602 0
M  V30 56 N 1.1003 6.36131 -2.97123 0
M  V30 57 H 5.9403 1.93756 -2.26413 0
M  V30 58 H 3.4773 0.947454 -1.12524 0
M  V30 59 H 5.4353 4.05639 -0.975337 0
M  V30 60 H 4.0653 3.222 -0.196674 0
M  V30 61 H 3.1173 2.79636 -2.57891 0
M  V30 62 H 4.4293 3.81193 -3.21704 0
M  V30 63 H 3.5833 5.76288 -1.89675 0
M  V30 64 H 2.3223 4.73841 -1.15437 0
M  V30 65 H 1.3273 4.30615 -3.41834 0
M  V30 66 H 2.5523 5.36498 -4.16349 0
M  V30 67 H 0.4983 6.21875 -2.08823 0
M  V30 68 H 0.4153 6.54198 -3.78894 0
M  V30 69 H 1.6833 7.2591 -2.84033 0
M  V30 70 N 5.9124 1.20967 1.01018 0
M  V30 71 C 7.1374 1.0503 1.78839 0
M  V30 72 C 7.5624 -0.395752 1.8389 0
M  V30 73 O 6.9204 -1.28529 1.27867 0
M  V30 74 C 6.9684 1.64602 3.2084 0
M  V30 75 O 6.0724 0.887988 4.02726 0
M  V30 76 H 5.4134 0.369987 0.551367 0
M  V30 77 H 7.9434 1.60399 1.27018 0
M  V30 78 H 7.9534 1.68607 3.71532 0
M  V30 79 H 6.6284 2.69841 3.16479 0
M  V30 80 H 5.2054 0.922648 3.61305 0
M  V30 81 N 7.3905 -1.2043 1.01659 0
M  V30 82 C 8.6395 -1.89118 0.701237 0
M  V30 83 C 8.9525 -1.79705 -0.772358 0
M  V30 84 O 10.1585 -2.43528 -1.20026 0
M  V30 85 C 8.6145 -3.39168 1.20388 0
M  V30 86 C 8.2225 -3.57166 2.70438 0
M  V30 87 C 9.9665 -4.1341 0.963953 0
M  V30 88 C 7.8735 -5.01042 3.14183 0
M  V30 89 H 6.8035 -0.708267 0.2586 0
M  V30 90 H 9.4545 -1.36239 1.22927 0
M  V30 91 H 7.8365 -3.91369 0.603824 0
M  V30 92 H 9.0105 -3.15351 3.35992 0
M  V30 93 H 7.3255 -2.96294 2.92572 0
M  V30 94 H 9.9225 -5.19491 1.26621 0
M  V30 95 H 10.2655 -4.16181 -0.099578 0
M  V30 96 H 10.7985 -3.67309 1.52738 0
M  V30 97 H 7.5375 -5.03426 4.19812 0
M  V30 98 H 7.0575 -5.43668 2.53348 0
M  V30 99 H 8.7365 -5.69623 3.0682 0
M  V30 100 N 8.8686 -0.792821 -1.36206 0
M  V30 101 C 9.8166 -0.181555 -2.3189 0
M  V30 102 C 10.8106 0.661025 -1.55971 0
M  V30 103 O 12.0166 0.555728 -1.71206 0
M  V30 104 H 8.3916 -0.0399382 -0.750939 0
M  V30 105 H 10.3626 -1.00394 -2.81005 0
M  V30 106 C 9.1116 0.666444 -3.41253 0
M  V30 107 H 8.4346 0.0274489 -3.99791 0
M  V30 108 H 9.8746 1.06076 -4.10517 0
M  V30 109 C 8.3336 1.82614 -2.83114 0
M  V30 110 O 8.8636 2.9229 -2.75553 0
M  V30 111 N 7.0696 1.63333 -2.40356 0
M  V30 112 H 6.6166 0.741217 -2.46706 0
M  V30 113 H 6.5746 2.41087 -2.01803 0
M  V30 114 N 10.3467 1.47872 -0.545128 0
M  V30 115 C 11.5957 2.01695 -0.0145033 0
M  V30 116 C 11.9087 1.42609 1.33873 0
M  V30 117 O 13.1147 1.88021 1.95858 0
M  V30 118 C 11.5707 3.59892 0.0245068 0
M  V30 119 C 11.1787 4.27966 -1.32475 0
M  V30 120 C 12.9227 4.21507 0.50316 0
M  V30 121 C 10.8297 5.78136 -1.2455 0
M  V30 122 H 9.7597 0.753998 -0.00165172 0
M  V30 123 H 12.4107 1.69985 -0.691175 0
M  V30 124 H 10.7927 3.88509 0.766575 0
M  V30 125 H 11.9667 4.11003 -2.08357 0
M  V30 126 H 10.2817 3.78286 -1.74036 0
M  V30 127 H 12.8787 5.31538 0.580656 0
M  V30 128 H 13.2217 3.87855 1.51243 0
M  V30 129 H 13.7547 3.97376 -0.183681 0
M  V30 130 H 10.4937 6.16388 -2.23039 0
M  V30 131 H 10.0137 5.97469 -0.528282 0
M  V30 132 H 11.6927 6.40099 -0.942488 0
M  V30 133 N 11.8248 0.280983 1.55075 0
M  V30 134 C 13.0498 -0.340154 2.04592 0
M  V30 135 C 13.4748 -1.48246 1.15779 0
M  V30 136 O 12.8328 -1.80614 0.15761 0
M  V30 137 C 12.8808 -0.793104 3.5177 0
M  V30 138 O 11.9848 -1.89981 3.66034 0
M  V30 139 H 11.3258 -0.0694289 0.66036 0
M  V30 140 H 13.8558 0.416993 2.00306 0
M  V30 141 H 13.8658 -1.08729 3.93245 0
M  V30 142 H 12.5408 0.0426163 4.15878 0
M  V30 143 H 11.1178 -1.60771 3.36463 0
M  V30 144 N 13.3029 -1.57598 0.00835791 0
M  V30 145 C 14.5509 -1.90551 -0.6734 0
M  V30 146 C 14.8719 -0.883301 -1.73847 0
M  V30 147 O 14.1419 0.0781442 -1.95744 0
M  V30 148 H 12.7219 -0.703312 -0.251717 0
M  V30 149 H 15.3839 -1.94833 0.0512592 0
M  V30 150 H 14.4799 -2.9056 -1.13935 0
M  V30 151 N 14.781 0.264519 -1.55364 0
M  V30 152 C 15.729 1.34702 -1.89626 0
M  V30 153 C 16.723 1.50712 -0.773459 0
M  V30 154 O 17.929 1.52395 -0.957897 0
M  V30 155 H 14.304 0.450682 -0.601988 0
M  V30 156 H 16.275 1.0306 -2.80038 0
M  V30 157 C 15.024 2.6989 -2.19214 0
M  V30 158 H 14.347 2.58365 -3.05103 0
M  V30 159 H 15.787 3.44553 -2.47102 0
M  V30 160 C 14.246 3.21637 -1.00254 0
M  V30 161 O 14.776 4.00973 -0.241501 0
M  V30 162 N 12.982 2.7943 -0.797938 0
M  V30 163 H 12.529 2.15026 -1.4185 0
M  V30 164 H 12.487 3.144 -0.00363422 0
M  V30 165 N 16.2591 1.48442 0.529413 0
M  V30 166 C 17.5061 1.56488 1.28521 0
M  V30 167 C 17.8341 0.239042 1.93025 0
M  V30 168 O 17.0891 -0.770713 1.79885 0
M  V30 169 C 17.3881 2.6523 2.39558 0
M  V30 170 C 17.0541 4.07648 1.92702 0
M  V30 171 C 15.7161 4.46411 1.79641 0
M  V30 172 C 18.0681 4.96896 1.573 0
M  V30 173 C 15.3961 5.72226 1.29514 0
M  V30 174 C 17.7481 6.23202 1.08636 0
M  V30 175 C 16.4121 6.60821 0.941919 0
M  V30 176 H 15.6821 0.572631 0.470292 0
M  V30 177 H 18.3291 1.82161 0.59072 0
M  V30 178 H 16.6341 2.33419 3.14679 0
M  V30 179 H 18.3311 2.68671 2.97686 0
M  V30 180 H 14.9211 3.77036 2.03819 0
M  V30 181 H 19.1051 4.67626 1.66251 0
M  V30 182 H 14.3611 6.00097 1.17019 0
M  V30 183 H 18.5351 6.91753 0.803136 0
M  V30 184 H 16.1621 7.58198 0.5513 0
M  V30 185 N 17.7372 -0.778329 1.37039 0
M  V30 186 C 18.6472 -1.92253 1.34446 0
M  V30 187 C 19.6632 -1.72267 0.244991 0
M  V30 188 O 20.8392 -1.95615 0.479258 0
M  V30 189 C 17.9042 -3.27282 1.144 0
M  V30 190 C 16.9652 -3.59969 2.33925 0
M  V30 191 C 16.1982 -4.88555 2.14825 0
M  V30 192 O 16.4212 -5.59113 1.12912 0
M  V30 193 O 15.3552 -5.20153 3.02861 0
M  V30 194 H 19.1812 -1.97392 2.30803 0
M  V30 195 H 16.7662 -0.920154 1.17701 0
M  V30 196 H 18.6482 -4.08062 1.05182 0
M  V30 197 H 17.3232 -3.23011 0.211124 0
M  V30 198 H 16.2302 -2.7945 2.48714 0
M  V30 199 H 17.5632 -3.68976 3.25757 0
M  V30 200 N 19.2153 -1.21501 -1.00376 0
M  V30 201 C 20.4613 -1.04457 -1.74529 0
M  V30 202 C 20.8163 0.417386 -1.87818 0
M  V30 203 O 20.1093 1.30556 -1.40234 0
M  V30 204 C 20.3033 -1.67673 -3.15627 0
M  V30 205 C 20.1323 -3.19865 -3.16096 0
M  V30 206 C 18.9023 -3.88915 -3.22604 0
M  V30 207 C 21.1003 -4.16936 -3.01112 0
M  V30 208 N 19.0823 -5.28284 -3.12712 0
M  V30 209 C 20.4533 -5.43066 -2.99131 0
M  V30 210 C 22.5083 -4.07968 -2.85423 0
M  V30 211 C 21.2113 -6.6126 -2.83068 0
M  V30 212 C 23.2373 -5.258 -2.70718 0
M  V30 213 C 22.5993 -6.50842 -2.69414 0
M  V30 214 H 18.6983 -0.436584 -0.648782 0
M  V30 215 H 21.2823 -1.53875 -1.19293 0
M  V30 216 H 19.4533 -1.20822 -3.6913 0
M  V30 217 H 21.1853 -1.43824 -3.78281 0
M  V30 218 H 17.9403 -3.39847 -3.2985 0
M  V30 219 H 18.3643 -6.01284 -3.11105 0
M  V30 220 H 23.0063 -3.1209 -2.85236 0
M  V30 221 H 20.7243 -7.57298 -2.82002 0
M  V30 222 H 24.3103 -5.20683 -2.59577 0
M  V30 223 H 23.1903 -7.40485 -2.5817 0
M  V30 224 N 20.6934 1.19889 -1.02296 0
M  V30 225 C 21.9334 1.91125 -0.724602 0
M  V30 226 C 22.2974 1.77464 0.732835 0
M  V30 227 O 23.4984 2.43241 1.144 0
M  V30 228 C 21.7694 3.38187 -1.15604 0
M  V30 229 S 23.3284 4.27702 -0.980621 0
M  V30 230 H 20.1464 0.66018 -0.263976 0
M  V30 231 H 22.7484 1.44978 -1.31155 0
M  V30 232 H 21.4524 3.45653 -2.21251 0
M  V30 233 H 20.9834 3.89363 -0.562131 0
M  V30 234 H 22.9984 4.96073 0.112225 0
M  V30 235 N 22.1715 0.800033 1.35784 0
M  V30 236 C 23.5825 0.439142 1.81462 0
M  V30 237 C 23.9335 -1.03813 1.66485 0
M  V30 238 O 23.0585 -1.80626 1.19177 0
M  V30 239 C 23.6535 0.790314 3.29453 0
M  V30 240 C 22.2125 0.482111 3.733 0
M  V30 241 C 21.3595 1.01938 2.57883 0
M  V30 242 H 24.3105 0.992254 1.23855 0
M  V30 243 H 24.3315 0.0853677 3.80404 0
M  V30 244 H 23.8435 1.86554 3.40322 0
M  V30 245 H 21.9445 -0.584652 3.67984 0
M  V30 246 H 22.0575 1.01015 4.6833 0
M  V30 247 H 20.4215 0.442043 2.50835 0
M  V30 248 H 21.2045 2.10059 2.71533 0
M  V30 249 N 23.6496 -1.47581 0.552962 0
M  V30 250 C 24.8966 -2.02482 0.0273243 0
M  V30 251 C 25.2246 -1.42776 -1.32081 0
M  V30 252 O 24.4796 -0.571393 -1.87173 0
M  V30 253 C 24.7786 -3.57199 -0.119728 0
M  V30 254 C 24.4446 -4.35804 1.15697 0
M  V30 255 C 23.1066 -4.57 1.50681 0
M  V30 256 C 25.4586 -4.81167 2.00319 0
M  V30 257 C 22.7866 -5.20807 2.70142 0
M  V30 258 C 25.1386 -5.46293 3.18978 0
M  V30 259 C 23.8026 -5.65722 3.54281 0
M  V30 260 H 23.0726 -0.740933 0.00999866 0
M  V30 261 H 25.7196 -1.77302 0.72362 0
M  V30 262 H 24.0246 -3.81348 -0.89896 0
M  V30 263 H 25.7216 -3.97324 -0.541718 0
M  V30 264 H 22.3116 -4.19582 0.874561 0
M  V30 265 H 26.4956 -4.64574 1.74599 0
M  V30 266 H 21.7516 -5.34045 2.97668 0
M  V30 267 H 25.9256 -5.80407 3.84838 0
M  V30 268 H 23.5526 -6.14936 4.46942 0
M  V30 269 N 25.1277 -0.289203 -1.54924 0
M  V30 270 C 26.0377 0.601863 -2.26748 0
M  V30 271 C 27.0537 1.15834 -1.2984 0
M  V30 272 O 28.2297 1.18564 -1.62802 0
M  V30 273 C 25.2947 1.76299 -2.98529 0
M  V30 274 C 24.3557 1.24178 -4.10948 0
M  V30 275 C 23.5887 2.34757 -4.79296 0
M  V30 276 O 23.8117 3.54411 -4.46933 0
M  V30 277 O 22.7457 2.02115 -5.66951 0
M  V30 278 H 26.5717 0.0195879 -3.03694 0
M  V30 279 H 24.1567 -0.0560868 -1.49295 0
M  V30 280 H 26.0387 2.43973 -3.43592 0
M  V30 281 H 24.7137 2.33209 -2.24488 0
M  V30 282 H 23.6207 0.531104 -3.70311 0
M  V30 283 H 24.9537 0.718252 -4.86931 0
M  V30 284 N 26.6058 1.57591 -0.0167156 0
M  V30 285 C 27.5158 2.1291 0.98521 0
M  V30 286 C 28.5318 1.07834 1.36557 0
M  V30 287 O 29.7078 1.39826 1.44951 0
M  V30 288 C 26.7728 2.63512 2.25305 0
M  V30 289 C 25.8338 3.83256 1.93426 0
M  V30 290 C 25.0668 4.31435 3.14165 0
M  V30 291 O 25.2898 3.78851 4.26413 0
M  V30 292 O 24.2238 5.23416 2.97186 0
M  V30 293 H 28.0498 2.98772 0.544888 0
M  V30 294 H 25.6348 1.48012 0.203141 0
M  V30 295 H 27.5168 2.96183 2.99756 0
M  V30 296 H 26.1918 1.8074 2.68542 0
M  V30 297 H 25.0988 3.55531 1.16398 0
M  V30 298 H 26.4318 4.67153 1.55013 0
M  V30 299 N 28.0839 -0.256276 1.55502 0
M  V30 300 C 29.3139 -1.00196 1.80677 0
M  V30 301 C 29.7219 -1.79805 0.588797 0
M  V30 302 O 29.0649 -1.78055 -0.451883 0
M  V30 303 C 29.1269 -1.99515 2.99055 0
M  V30 304 C 28.7909 -1.38688 4.35448 0
M  V30 305 C 29.7879 -0.794079 5.138 0
M  V30 306 C 27.4729 -1.40906 4.82132 0
M  V30 307 C 29.4669 -0.231562 6.36979 0
M  V30 308 C 27.1539 -0.842684 6.05262 0
M  V30 309 C 28.1519 -0.254953 6.82524 0
M  V30 310 O 27.8399 0.3027 8.0333 0
M  V30 311 H 27.5719 -0.300919 0.60533 0
M  V30 312 H 30.1259 -0.287307 2.03381 0
M  V30 313 H 28.3559 -2.74785 2.72084 0
M  V30 314 H 30.0449 -2.60349 3.11405 0
M  V30 315 H 30.8109 -0.769519 4.78856 0
M  V30 316 H 26.6899 -1.85591 4.21992 0
M  V30 317 H 30.2339 0.227816 6.97228 0
M  V30 318 H 26.1309 -0.86454 6.39684 0
M  V30 319 H 26.8989 0.193662 8.18271 0
M  V30 320 N 29.562 -1.4872 -0.521534 0
M  V30 321 C 30.509 -1.63871 -1.62527 0
M  V30 322 C 31.479 -0.480559 -1.58996 0
M  V30 323 O 32.664 -0.705085 -1.77294 0
M  V30 324 C 29.804 -1.69227 -3.00759 0
M  V30 325 C 28.917 -2.96207 -3.14461 0
M  V30 326 C 28.052 -2.92671 -4.43303 0
M  V30 327 C 27.091 -4.14318 -4.50563 0
M  V30 328 N 26.228 -4.0881 -5.70805 0
M  V30 329 H 31.068 -2.58123 -1.48918 0
M  V30 330 H 28.605 -1.28 -0.724878 0
M  V30 331 H 30.563 -1.70314 -3.80853 0
M  V30 332 H 29.193 -0.784586 -3.1312 0
M  V30 333 H 28.245 -3.04826 -2.27564 0
M  V30 334 H 29.557 -3.86192 -3.15686 0
M  V30 335 H 28.711 -2.92206 -5.31696 0
M  V30 336 H 27.45 -2.00429 -4.44612 0
M  V30 337 H 26.455 -4.15049 -3.60575 0
M  V30 338 H 27.68 -5.07729 -4.50986 0
M  V30 339 H 25.626 -3.19394 -5.72995 0
M  V30 340 H 25.543 -4.92509 -5.7356 0
M  V30 341 H 26.811 -4.12418 -6.61462 0
M  V30 342 N 31.0401 0.771051 -1.3745 0
M  V30 343 C 31.9881 1.90574 -1.33358 0
M  V30 344 C 32.9821 1.67936 -0.22224 0
M  V30 345 O 34.1881 1.75717 -0.390304 0
M  V30 346 H 30.5631 0.626714 -0.415612 0
M  V30 347 H 32.5341 1.91142 -2.29144 0
M  V30 348 C 31.2831 3.27845 -1.15813 0
M  V30 349 H 30.6061 3.45842 -2.00583 0
M  V30 350 H 32.0461 4.07538 -1.17 0
M  V30 351 C 30.5051 3.36625 0.136165 0
M  V30 352 O 31.0351 3.85785 1.11949 0
M  V30 353 N 29.2411 2.89997 0.187099 0
M  V30 354 H 28.7881 2.50182 -0.613753 0
M  V30 355 H 28.7461 2.96252 1.05272 0
M  V30 356 N 32.5182 1.22032 0.997298 0
M  V30 357 C 33.7482 1.06686 1.76923 0
M  V30 358 C 34.1562 -0.385838 1.85224 0
M  V30 359 O 33.4992 -1.27929 1.31833 0
M  V30 360 C 33.5612 1.59802 3.22031 0
M  V30 361 C 33.2252 3.08362 3.37286 0
M  V30 362 C 34.2222 4.05835 3.24952 0
M  V30 363 C 31.9072 3.47727 3.6248 0
M  V30 364 C 33.9012 5.4066 3.37588 0
M  V30 365 C 31.5882 4.82701 3.74757 0
M  V30 366 C 32.5862 5.78977 3.62319 0
M  V30 367 O 32.2742 7.11502 3.74193 0
M  V30 368 H 32.0062 0.374767 0.562606 0
M  V30 369 H 34.5602 1.61991 1.26286 0
M  V30 370 H 32.7902 0.989003 3.73839 0
M  V30 371 H 34.4792 1.40184 3.80924 0
M  V30 372 H 35.2452 3.76766 3.05405 0
M  V30 373 H 31.1242 2.73317 3.7124 0
M  V30 374 H 34.6682 6.15788 3.27796 0
M  V30 375 H 30.5652 5.11453 3.9381 0
M  V30 376 H 31.3332 7.19019 3.91093 0
M  V30 377 N 33.9963 -1.19345 1.0293 0
M  V30 378 C 34.9263 -2.2481 0.631105 0
M  V30 379 C 35.9073 -1.66245 -0.360104 0
M  V30 380 O 37.0923 -1.92677 -0.242726 0
M  V30 381 C 34.2223 -3.47295 -0.0184607 0
M  V30 382 C 33.1763 -4.18536 0.895073 0
M  V30 383 C 32.5023 -5.34586 0.110592 0
M  V30 384 C 33.8023 -4.73287 2.209 0
M  V30 385 H 35.4963 -2.58372 1.51275 0
M  V30 386 H 33.0423 -1.24194 0.728818 0
M  V30 387 H 34.9953 -4.20268 -0.308675 0
M  V30 388 H 33.7193 -3.12933 -0.934907 0
M  V30 389 H 32.3783 -3.47446 1.16949 0
M  V30 390 H 32.0263 -4.96469 -0.807902 0
M  V30 391 H 31.7263 -5.83183 0.719087 0
M  V30 392 H 33.2503 -6.10355 -0.172871 0
M  V30 393 H 34.6643 -5.38013 1.98028 0
M  V30 394 H 33.0613 -5.32373 2.76946 0
M  V30 395 H 34.1313 -3.91331 2.86336 0
M  V30 396 N 35.4744 -0.807222 -1.35358 0
M  V30 397 C 36.4044 -0.232509 -2.3234 0
M  V30 398 C 37.3854 0.642386 -1.57504 0
M  V30 399 O 38.5704 0.572526 -1.85569 0
M  V30 400 C 35.7004 0.619238 -3.41735 0
M  V30 401 C 34.6544 -0.157215 -4.27711 0
M  V30 402 C 33.9804 0.816273 -5.28433 0
M  V30 403 C 35.2804 -1.35656 -5.04376 0
M  V30 404 H 36.9744 -1.04276 -2.80654 0
M  V30 405 H 34.5204 -0.50288 -1.34934 0
M  V30 406 H 36.4734 1.03137 -4.08584 0
M  V30 407 H 35.1974 1.46239 -2.92031 0
M  V30 408 H 33.8564 -0.550525 -3.62443 0
M  V30 409 H 33.5044 1.65494 -4.74996 0
M  V30 410 H 33.2044 0.301067 -5.86828 0
M  V30 411 H 34.7284 1.22659 -5.98153 0
M  V30 412 H 36.1424 -1.01927 -5.64166 0
M  V30 413 H 34.5394 -1.8063 -5.7227 0
M  V30 414 H 35.6094 -2.14288 -4.34981 0
M  V30 415 N 36.9525 1.47285 -0.560781 0
M  V30 416 C 38.1925 2.0436 -0.0404627 0
M  V30 417 C 38.5565 1.42534 1.28639 0
M  V30 418 O 39.7575 1.90677 1.89462 0
M  V30 419 C 38.0285 3.57369 0.0471856 0
M  V30 420 S 39.5875 4.3579 0.513109 0
M  V30 421 H 36.4055 0.710492 -0.0268674 0
M  V30 422 H 39.0075 1.80611 -0.748323 0
M  V30 423 H 37.7115 3.9989 -0.922817 0
M  V30 424 H 37.2425 3.8562 0.778491 0
M  V30 425 H 39.2575 4.63476 1.77212 0
M  V30 426 N 38.4306 0.297415 1.54768 0
M  V30 427 C 39.6776 -0.312913 2.00068 0
M  V30 428 C 40.0056 -1.54171 1.18582 0
M  V30 429 O 39.2606 -1.94108 0.249133 0
M  V30 430 C 39.5596 -0.717561 3.50123 0
M  V30 431 C 39.2256 0.409095 4.4904 0
M  V30 432 C 37.8876 0.718399 4.75807 0
M  V30 433 C 40.2396 1.16717 5.07963 0
M  V30 434 C 37.5676 1.78896 5.5876 0
M  V30 435 C 39.9196 2.22762 5.92081 0
M  V30 436 C 38.5836 2.54303 6.1716 0
M  V30 437 H 37.8536 -0.114503 0.7321 0
M  V30 438 H 40.5006 0.415767 1.86932 0
M  V30 439 H 38.8056 -1.52627 3.60849 0
M  V30 440 H 40.5026 -1.20091 3.82595 0
M  V30 441 H 37.0926 0.157918 4.28309 0
M  V30 442 H 41.2766 0.941466 4.87289 0
M  V30 443 H 36.5326 2.0381 5.7643 0
M  V30 444 H 40.7066 2.81962 6.36765 0
M  V30 445 H 38.3336 3.3739 6.81229 0
M  V30 446 N 39.9087 -1.5758 0.0250728 0
M  V30 447 C 40.8567 -2.11125 -0.97617 0
M  V30 448 C 41.8507 -1.03689 -1.33959 0
M  V30 449 O 43.0567 -1.22128 -1.3223 0
M  V30 450 H 39.4317 -0.674468 -0.332561 0
M  V30 451 H 41.4027 -2.94194 -0.499223 0
M  V30 452 C 40.1517 -2.65017 -2.2508 0
M  V30 453 H 39.4747 -3.47333 -1.9799 0
M  V30 454 H 40.9147 -3.06133 -2.93357 0
M  V30 455 C 39.3737 -1.57574 -2.97779 0
M  V30 456 O 39.9037 -0.973203 -3.89733 0
M  V30 457 N 38.1097 -1.29716 -2.60043 0
M  V30 458 H 37.6567 -1.789 -1.85345 0
M  V30 459 H 37.6147 -0.58051 -3.08994 0
M  V30 460 N 41.3868 0.248026 -1.55636 0
M  V30 461 C 42.6118 0.998028 -1.81808 0
M  V30 462 C 43.0368 1.78207 -0.601979 0
M  V30 463 O 42.3948 1.75653 0.448961 0
M  V30 464 C 42.4428 1.9125 -3.05705 0
M  V30 465 O 41.5468 3.00406 -2.82542 0
M  V30 466 H 40.8878 0.284045 -0.600179 0
M  V30 467 H 43.4178 0.269357 -2.02819 0
M  V30 468 H 43.4278 2.32737 -3.35108 0
M  V30 469 H 42.1028 1.33602 -3.93857 0
M  V30 470 H 40.6798 2.63056 -2.64303 0
M  V30 471 N 42.8649 1.48995 0.513639 0
M  V30 472 C 43.8149 1.61127 1.61314 0
M  V30 473 C 44.7989 0.467521 1.53958 0
M  V30 474 O 45.9909 0.719826 1.61702 0
M  V30 475 C 43.1199 1.66937 2.99978 0
M  V30 476 C 42.2059 2.86847 3.12377 0
M  V30 477 N 42.5969 4.11078 2.94701 0
M  V30 478 C 40.8949 2.84521 3.43459 0
M  V30 479 C 41.5959 4.91615 3.10949 0
M  V30 480 N 40.5719 4.24739 3.3926 0
M  V30 481 H 44.3739 2.54909 1.46282 0
M  V30 482 H 41.8879 1.45593 0.719483 0
M  V30 483 H 43.8849 1.73725 3.78979 0
M  V30 484 H 42.5449 0.742831 3.16089 0
M  V30 485 H 43.5559 4.41258 2.71131 0
M  V30 486 H 40.2329 2.01192 3.65825 0
M  V30 487 H 41.6229 6.00264 3.01882 0
M  V30 488 N 44.343 -0.763751 1.37857 0
M  V30 489 C 45.291 -1.89864 1.34367 0
M  V30 490 C 46.285 -1.67816 0.231143 0
M  V30 491 O 47.491 -1.75508 0.399617 0
M  V30 492 H 43.866 -0.624501 0.41893 0
M  V30 493 H 45.837 -1.89925 2.30155 0
M  V30 494 C 44.586 -3.27227 1.1755 0
M  V30 495 H 43.909 -3.44773 2.02414 0
M  V30 496 H 45.349 -4.06911 1.1916 0
M  V30 497 C 43.808 -3.36692 -0.118311 0
M  V30 498 O 44.338 -3.86374 -1.09902 0
M  V30 499 N 42.544 -2.90092 -0.171717 0
M  V30 500 H 42.091 -2.49853 0.627012 0
M  V30 501 H 42.049 -2.96806 -1.03699 0
M  V30 502 N 45.8211 -1.22559 -0.990812 0
M  V30 503 C 46.7511 -1.0218 -2.09956 0
M  V30 504 C 47.7321 0.0579394 -1.70001 0
M  V30 505 O 48.9171 -0.104684 -1.93918 0
M  V30 506 C 46.0471 -0.601023 -3.4206 0
M  V30 507 C 45.0011 -1.62694 -3.95872 0
M  V30 508 C 44.3271 -1.06193 -5.24049 0
M  V30 509 C 45.6271 -3.01743 -4.2632 0
M  V30 510 H 47.3211 -1.94916 -2.27262 0
M  V30 511 H 44.8671 -0.938566 -1.09211 0
M  V30 512 H 46.8201 -0.445561 -4.19038 0
M  V30 513 H 45.5441 0.362005 -3.24588 0
M  V30 514 H 44.2031 -1.77021 -3.21028 0
M  V30 515 H 43.8511 -0.0901903 -5.02919 0
M  V30 516 H 43.5511 -1.74732 -5.61019 0
M  V30 517 H 45.0751 -0.918092 -6.03658 0
M  V30 518 H 46.4891 -2.90777 -4.94087 0
M  V30 519 H 44.8861 -3.67425 -4.74467 0
M  V30 520 H 45.9561 -3.51518 -3.34011 0
M  V30 521 N 47.2992 1.18797 -1.03562 0
M  V30 522 C 48.2292 2.24472 -0.643019 0
M  V30 523 C 49.2102 1.66433 0.351283 0
M  V30 524 O 50.3952 1.92803 0.232505 0
M  V30 525 C 47.5252 3.473 4.24935e-05 0
M  V30 526 C 46.4792 4.18055 -0.917257 0
M  V30 527 C 45.8052 5.34519 -0.138941 0
M  V30 528 C 47.1052 4.72109 -2.23407 0
M  V30 529 H 48.7992 2.57566 -1.52643 0
M  V30 530 H 46.3452 1.23806 -0.735394 0
M  V30 531 H 48.2982 4.20426 0.286383 0
M  V30 532 H 47.0222 3.13424 0.918299 0
M  V30 533 H 45.6812 3.46821 -1.1879 0
M  V30 534 H 45.3292 4.96891 0.781562 0
M  V30 535 H 45.0292 5.82794 -0.750005 0
M  V30 536 H 46.5532 6.10438 0.1405 0
M  V30 537 H 47.9672 5.36955 -2.00879 0
M  V30 538 H 46.3642 5.30897 -2.79765 0
M  V30 539 H 47.4342 3.89807 -2.88407 0
M  V30 540 N 48.7773 0.814389 1.34928 0
M  V30 541 C 50.0073 0.41054 2.0248 0
M  V30 542 C 50.4153 -0.985625 1.61499 0
M  V30 543 O 49.7583 -1.64781 0.811976 0
M  V30 544 C 49.8203 0.423384 3.56998 0
M  V30 545 C 49.4843 1.77141 4.21272 0
M  V30 546 C 50.4813 2.73093 4.42398 0
M  V30 547 C 48.1663 2.05755 4.58225 0
M  V30 548 C 50.1603 3.95838 4.9959 0
M  V30 549 C 47.8473 3.28762 5.1513 0
M  V30 550 C 48.8453 4.23621 5.35755 0
M  V30 551 O 48.5333 5.44456 5.91458 0
M  V30 552 H 48.2653 0.163997 0.655806 0
M  V30 553 H 50.8193 1.10155 1.73364 0
M  V30 554 H 49.0493 -0.324276 3.85338 0
M  V30 555 H 50.7383 0.0407683 4.0588 0
M  V30 556 H 51.5043 2.5228 4.14222 0
M  V30 557 H 47.3833 1.32727 4.4148 0
M  V30 558 H 50.9273 4.69891 5.15605 0
M  V30 559 H 46.8243 3.49443 5.42734 0
M  V30 560 H 47.5923 5.4586 6.09901 0
M  V30 561 N 50.2554 -1.46986 0.568584 0
M  V30 562 C 51.4804 -2.07335 0.0520528 0
M  V30 563 C 51.9054 -1.41675 -1.23733 0
M  V30 564 O 51.2634 -0.495623 -1.74394 0
M  V30 565 C 51.3114 -3.60417 -0.11501 0
M  V30 566 O 50.4154 -3.95309 -1.17492 0
M  V30 567 H 49.7564 -0.661597 0.0564385 0
M  V30 568 H 52.2864 -1.88837 0.787507 0
M  V30 569 H 52.2964 -4.06698 -0.325644 0
M  V30 570 H 50.9714 -4.07601 0.826675 0
M  V30 571 H 49.5484 -3.60757 -0.943869 0
M  V30 572 N 51.7335 -0.305618 -1.54608 0
M  V30 573 C 52.6815 0.584119 -2.25146 0
M  V30 574 C 53.6755 1.13326 -1.25911 0
M  V30 575 O 54.8815 1.08337 -1.43747 0
M  V30 576 H 51.2565 0.206983 -0.722954 0
M  V30 577 H 53.2275 -0.033291 -2.98381 0
M  V30 578 C 51.9765 1.74225 -3.009 0
M  V30 579 H 51.2995 1.32892 -3.77067 0
M  V30 580 H 52.7395 2.34077 -3.53531 0
M  V30 581 C 51.1985 2.64914 -2.0814 0
M  V30 582 O 51.7285 3.66137 -1.65246 0
M  V30 583 N 49.9345 2.3275 -1.74 0
M  V30 584 H 49.4815 1.50479 -2.09078 0
M  V30 585 H 49.4395 2.93694 -1.12211 0
M  V30 586 N 53.2116 1.57565 -0.0334293 0
M  V30 587 C 54.1596 2.1164 0.96496 0
M  V30 588 C 55.1536 1.04398 1.33407 0
M  V30 589 O 56.3596 1.22828 1.3158 0
M  V30 590 H 52.7346 0.676222 0.32898 0
M  V30 591 H 54.7056 2.94455 0.483614 0
M  V30 592 C 53.4546 2.66207 2.23672 0
M  V30 593 H 52.7776 3.48378 1.96145 0
M  V30 594 H 54.2176 3.07685 2.9173 0
M  V30 595 C 52.6766 1.59151 2.96939 0
M  V30 596 O 53.2066 0.993858 3.89211 0
M  V30 597 N 51.4126 1.31093 2.59351 0
M  V30 598 H 50.9596 1.7988 1.84393 0
M  V30 599 H 50.9176 0.596889 3.08682 0
M  V30 600 N 54.6897 -0.239769 1.55765 0
M  V30 601 C 55.6377 -1.31668 1.91745 0
M  V30 602 C 56.6317 -1.49462 0.797338 0
M  V30 603 O 57.8377 -1.50852 0.982021 0
M  V30 604 H 54.2127 -0.441048 0.609082 0
M  V30 605 H 56.1837 -0.985923 2.81642 0
M  V30 606 C 54.9327 -2.66368 2.2348 0
M  V30 607 H 54.2557 -2.53478 3.09175 0
M  V30 608 H 55.6957 -3.40578 2.52553 0
M  V30 609 C 54.1547 -3.20002 1.05359 0
M  V30 610 O 54.6847 -4.00538 0.305261 0
M  V30 611 N 52.8907 -2.78126 0.842292 0
M  V30 612 H 52.4377 -2.12742 1.45253 0
M  V30 613 H 52.3957 -3.14354 0.053652 0
M  V30 614 N 56.1678 -1.49265 -0.50573 0
M  V30 615 C 57.3928 -1.62478 -1.28902 0
M  V30 616 C 57.8178 -0.294332 -1.85783 0
M  V30 617 O 57.1758 0.737412 -1.65626 0
M  V30 618 C 57.2238 -2.69268 -2.39848 0
M  V30 619 O 56.3278 -2.28113 -3.43567 0
M  V30 620 H 55.6688 -0.54399 -0.380751 0
M  V30 621 H 58.1988 -1.95421 -0.605952 0
M  V30 622 H 58.2088 -2.91291 -2.85681 0
M  V30 623 H 56.8838 -3.65846 -1.97812 0
M  V30 624 H 55.4608 -2.16401 -3.03685 0
M  V30 625 N 57.6459 0.756429 -1.3826 0
M  V30 626 C 58.5759 1.88374 -1.37976 0
M  V30 627 C 59.5569 1.68311 -0.246082 0
M  V30 628 O 60.7419 1.88944 -0.44874 0
M  V30 629 C 57.8719 3.25864 -1.20125 0
M  V30 630 C 56.8259 3.60523 -2.30666 0
M  V30 631 C 56.1519 4.9672 -1.97923 0
M  V30 632 C 57.4519 3.65692 -3.72916 0
M  V30 633 H 59.1459 1.88869 -2.32312 0
M  V30 634 H 56.6919 0.907272 -1.11824 0
M  V30 635 H 58.6449 4.0438 -1.18552 0
M  V30 636 H 57.3689 3.25841 -0.222498 0
M  V30 637 H 56.0279 2.84324 -2.3142 0
M  V30 638 H 55.6759 4.93253 -0.985393 0
M  V30 639 H 55.3759 5.20878 -2.71955 0
M  V30 640 H 56.8999 5.77618 -1.97964 0
M  V30 641 H 58.3139 4.34328 -3.74208 0
M  V30 642 H 56.7109 4.01358 -4.4613 0
M  V30 643 H 57.7809 2.65987 -4.05436 0
M  V30 644 N 59.124 1.23083 0.984299 0
M  V30 645 C 60.072 1.00593 2.09723 0
M  V30 646 C 61.066 -0.0538014 1.69315 0
M  V30 647 O 62.272 0.0993719 1.79725 0
M  V30 648 H 58.647 0.30817 0.685956 0
M  V30 649 H 60.618 1.95012 2.2586 0
M  V30 650 C 59.367 0.609601 3.42314 0
M  V30 651 H 58.69 1.41675 3.73856 0
M  V30 652 H 60.13 0.491726 4.21139 0
M  V30 653 C 58.589 -0.681745 3.2993 0
M  V30 654 O 59.119 -1.73192 3.62446 0
M  V30 655 N 57.325 -0.656178 2.83095 0
M  V30 656 H 56.872 0.198759 2.56832 0
M  V30 657 H 56.83 -1.52044 2.75191 0
M  V30 658 N 60.6021 -1.18246 1.0419 0
M  V30 659 C 61.5501 -2.23968 0.627792 0
M  V30 660 C 62.5441 -1.65828 -0.346019 0
M  V30 661 O 63.7501 -1.78733 -0.213175 0
M  V30 662 H 60.1251 -0.728939 0.184802 0
M  V30 663 H 62.0961 -2.56202 1.52981 0
M  V30 664 C 60.8451 -3.47699 0.00796591 0
M  V30 665 H 60.1681 -3.92734 0.748347 0
M  V30 666 H 61.6081 -4.23294 -0.24455 0
M  V30 667 C 60.0671 -3.13153 -1.24246 0
M  V30 668 O 60.5971 -3.27003 -2.33307 0
M  V30 669 N 58.8031 -2.67467 -1.13622 0
M  V30 670 H 58.3501 -2.56396 -0.248734 0
M  V30 671 H 58.3081 -2.44724 -1.97377 0
M  V30 672 N 62.0802 -0.821533 -1.34494 0
M  V30 673 C 63.3102 -0.421272 -2.02259 0
M  V30 674 C 63.7182 0.977047 -1.6202 0
M  V30 675 O 63.0612 1.64348 -0.820703 0
M  V30 676 C 63.1232 -0.44231 -3.56769 0
M  V30 677 C 62.7872 -1.79372 -4.20327 0
M  V30 678 C 63.7842 -2.75435 -4.40944 0
M  V30 679 C 61.4692 -2.08182 -4.57127 0
M  V30 680 C 63.4632 -3.98482 -4.97484 0
M  V30 681 C 61.1502 -3.31489 -5.13379 0
M  V30 682 C 62.1482 -4.26457 -5.33501 0
M  V30 683 O 61.8362 -5.47585 -5.88562 0
M  V30 684 H 61.5682 -0.167473 -0.654927 0
M  V30 685 H 64.1222 -1.11073 -1.72777 0
M  V30 686 H 62.3522 0.303836 -3.85505 0
M  V30 687 H 64.0412 -0.0622925 -4.05852 0
M  V30 688 H 64.8072 -2.54473 -4.12878 0
M  V30 689 H 60.6862 -1.35066 -4.4077 0
M  V30 690 H 64.2302 -4.72618 -5.13106 0
M  V30 691 H 60.1272 -3.52316 -5.40873 0
M  V30 692 H 60.8952 -5.49086 -6.06998 0
M  V30 693 N 63.5583 1.46682 -0.576371 0
M  V30 694 C 64.8073 2.01619 -0.0572825 0
M  V30 695 C 65.1203 1.45417 1.30818 0
M  V30 696 O 66.3263 1.92133 1.91825 0
M  V30 697 C 64.7823 3.59863 -0.0518371 0
M  V30 698 C 64.3903 4.25059 -1.41523 0
M  V30 699 C 66.1343 4.2248 0.413639 0
M  V30 700 C 64.0413 5.75364 -1.36785 0
M  V30 701 H 62.9713 0.753794 -0.0176448 0
M  V30 702 H 65.6223 1.68481 -0.727076 0
M  V30 703 H 64.0043 3.90048 0.683994 0
M  V30 704 H 65.1783 4.06491 -2.17029 0
M  V30 705 H 63.4933 3.7451 -1.8202 0
M  V30 706 H 66.0903 5.3265 0.467779 0
M  V30 707 H 66.4333 3.90976 1.42982 0
M  V30 708 H 66.9663 3.96897 -0.267929 0
M  V30 709 H 63.7053 6.11518 -2.36063 0
M  V30 710 H 63.2253 5.96214 -0.654895 0
M  V30 711 H 64.9043 6.37955 -1.07805 0
M  V30 712 N 65.0364 0.313813 1.54444 0
M  V30 713 C 66.2664 -0.293491 2.04505 0
M  V30 714 C 66.6744 -1.47086 1.19005 0
M  V30 715 O 66.0174 -1.82481 0.211257 0
M  V30 716 C 66.0794 -0.800455 3.50475 0
M  V30 717 C 65.7434 0.253322 4.56297 0
M  V30 718 C 66.7404 1.08612 5.08428 0
M  V30 719 C 64.4254 0.398708 5.00715 0
M  V30 720 C 66.4194 2.05013 6.0353 0
M  V30 721 C 64.1064 1.36614 5.95634 0
M  V30 722 C 65.1044 2.19033 6.46926 0
M  V30 723 O 64.7924 3.14134 7.39983 0
M  V30 724 H 64.5244 -0.0658325 0.672787 0
M  V30 725 H 67.0784 0.455177 2.00293 0
M  V30 726 H 65.3084 -1.59987 3.52053 0
M  V30 727 H 66.9974 -1.32504 3.83663 0
M  V30 728 H 67.7634 0.984736 4.74898 0
M  V30 729 H 63.6424 -0.23289 4.60411 0
M  V30 730 H 67.1864 2.69382 6.4349 0
M  V30 731 H 63.0834 1.4682 6.28581 0
M  V30 732 H 63.8514 3.0926 7.57826 0
M  V30 733 N 66.5145 -1.57545 0.0417849 0
M  V30 734 C 67.4445 -2.14009 -0.933929 0
M  V30 735 C 68.4255 -1.05938 -1.33083 0
M  V30 736 O 69.6105 -1.33833 -1.40721 0
M  V30 737 C 66.7405 -2.67747 -2.21199 0
M  V30 738 C 65.6945 -3.80718 -1.95544 0
M  V30 739 C 65.0205 -4.20935 -3.29724 0
M  V30 740 C 66.3205 -5.06258 -1.28452 0
M  V30 741 H 68.0145 -2.95788 -0.463645 0
M  V30 742 H 65.5605 -1.42285 -0.221573 0
M  V30 743 H 67.5135 -3.05886 -2.89848 0
M  V30 744 H 66.2375 -1.83147 -2.70416 0
M  V30 745 H 64.8965 -3.43037 -1.2931 0
M  V30 746 H 64.5445 -3.33298 -3.76724 0
M  V30 747 H 64.2445 -4.9707 -3.13361 0
M  V30 748 H 65.7685 -4.61666 -3.9962 0
M  V30 749 H 67.1825 -5.41903 -1.8712 0
M  V30 750 H 65.5795 -5.87475 -1.22445 0
M  V30 751 H 66.6495 -4.84207 -0.259219 0
M  V30 752 N 67.9926 0.231505 -1.5589 0
M  V30 753 C 68.9226 1.29022 -1.94617 0
M  V30 754 C 69.9036 1.4941 -0.813067 0
M  V30 755 O 71.0886 1.6176 -1.07459 0
M  V30 756 C 68.2186 2.64199 -2.25424 0
M  V30 757 C 67.1726 2.58484 -3.41131 0
M  V30 758 C 66.4986 3.97599 -3.57518 0
M  V30 759 C 67.7986 2.1413 -4.76388 0
M  V30 760 H 69.4926 0.968563 -2.83301 0
M  V30 761 H 67.0386 0.464479 -1.36303 0
M  V30 762 H 68.9916 3.38413 -2.51107 0
M  V30 763 H 67.7156 2.98032 -1.33583 0
M  V30 764 H 66.3746 1.86727 -3.15481 0
M  V30 765 H 66.0226 4.28723 -2.6307 0
M  V30 766 H 65.7226 3.94659 -4.35337 0
M  V30 767 H 67.2466 4.7349 -3.85538 0
M  V30 768 H 68.6606 2.78083 -5.01341 0
M  V30 769 H 67.0576 2.2227 -5.57419 0
M  V30 770 H 68.1276 1.09331 -4.72414 0
M  V30 771 N 69.4707 1.49531 0.497807 0
M  V30 772 C 70.7477 1.49682 1.25915 0
M  V30 773 C 71.1277 0.226339 2.09883 0
M  V30 774 O 70.4757 -0.791189 2.14365 0
M  V30 775 C 70.6857 2.77755 2.11313 0
M  V30 776 C 72.0337 3.27371 2.70395 0
M  V30 777 O 73.0577 2.78894 2.21578 0
M  V30 778 O 71.9167 4.11808 3.59272 0
M  V30 779 H 69.0107 0.599228 0.56996 0
M  V30 780 H 71.5567 1.61798 0.511816 0
M  V30 781 H 70.3287 3.61713 1.49264 0
M  V30 782 H 69.9517 2.68515 2.93233 0
M  V30 783 N 70.9488 -0.749086 1.3866 0
M  V30 784 C 72.1978 -1.50371 1.3443 0
M  V30 785 C 72.5108 -1.95503 -0.0616397 0
M  V30 786 O 73.7168 -2.70554 -0.226489 0
M  V30 787 C 72.1728 -2.71644 2.36088 0
M  V30 788 C 71.7808 -2.3352 3.82325 0
M  V30 789 C 73.5248 -3.49518 2.40909 0
M  V30 790 C 71.4318 -3.51431 4.75658 0
M  V30 791 H 70.3618 -0.564628 0.499712 0
M  V30 792 H 73.0128 -0.818449 1.64237 0
M  V30 793 H 71.3948 -3.42175 1.9933 0
M  V30 794 H 72.5688 -1.70627 4.28046 0
M  V30 795 H 70.8838 -1.6877 3.80665 0
M  V30 796 H 73.4808 -4.37197 3.07836 0
M  V30 797 H 73.8238 -3.90992 1.42937 0
M  V30 798 H 74.3568 -2.86005 2.76489 0
M  V30 799 H 71.0958 -3.15019 5.74842 0
M  V30 800 H 70.6158 -4.13352 4.34627 0
M  V30 801 H 72.2948 -4.17953 4.93887 0
M  V30 802 N 72.4269 -1.23603 -0.977757 0
M  V30 803 C 73.3749 -1.01704 -2.09187 0
M  V30 804 C 74.3689 0.0448214 -1.69341 0
M  V30 805 O 75.5749 -0.108902 -1.7967 0
M  V30 806 H 71.9499 -0.311803 -0.684312 0
M  V30 807 H 73.9209 -1.96207 -2.24823 0
M  V30 808 C 72.6699 -0.627746 -3.41986 0
M  V30 809 H 71.9929 -1.43656 -3.73099 0
M  V30 810 H 73.4329 -0.514053 -4.20872 0
M  V30 811 C 71.8919 0.664238 -3.30287 0
M  V30 812 O 72.4219 1.71268 -3.6336 0
M  V30 813 N 70.6279 0.641156 -2.83439 0
M  V30 814 H 70.1749 -0.212376 -2.56723 0
M  V30 815 H 70.1329 1.50583 -2.75993 0
M  V30 816 N 73.905 1.17692 -1.04816 0
M  V30 817 C 74.835 2.23777 -0.666791 0
M  V30 818 C 75.816 1.66796 0.33361 0
M  V30 819 O 77.001 1.93039 0.212042 0
M  V30 820 C 74.131 3.47281 -0.0367933 0
M  V30 821 C 73.085 4.17059 -0.961546 0
M  V30 822 C 72.411 5.34342 -0.195626 0
M  V30 823 C 73.711 4.69713 -2.28402 0
M  V30 824 H 75.405 2.55933 -1.55367 0
M  V30 825 H 72.951 1.23019 -0.748484 0
M  V30 826 H 74.904 4.20706 0.241775 0
M  V30 827 H 73.628 3.14381 0.885004 0
M  V30 828 H 72.287 3.45541 -1.22462 0
M  V30 829 H 71.935 4.97692 0.728816 0
M  V30 830 H 71.635 5.81966 -0.811775 0
M  V30 831 H 73.159 6.10553 0.0757473 0
M  V30 832 H 74.573 5.34794 -2.06563 0
M  V30 833 H 72.97 5.279 -2.8538 0
M  V30 834 H 74.04 3.86726 -2.92525 0
M  V30 835 N 75.3831 0.828654 1.34056 0
M  V30 836 C 76.3311 0.242973 2.31327 0
M  V30 837 C 77.3251 -0.61944 1.57668 0
M  V30 838 O 78.5311 -0.51014 1.7262 0
M  V30 839 H 74.9061 0.059834 0.749616 0
M  V30 840 H 76.8771 1.07809 2.78244 0
M  V30 841 C 75.6261 -0.575733 3.429 0
M  V30 842 H 74.9491 0.0785582 3.99723 0
M  V30 843 H 76.3891 -0.951547 4.13185 0
M  V30 844 C 74.8481 -1.75044 2.87856 0
M  V30 845 O 75.3781 -2.84882 2.83205 0
M  V30 846 N 73.5841 -1.56903 2.44602 0
M  V30 847 H 73.1311 -0.675547 2.48584 0
M  V30 848 H 73.0891 -2.35652 2.08124 0
M  V30 849 N 76.8612 -1.46375 0.584142 0
M  V30 850 C 78.0862 -2.07268 0.0740405 0
M  V30 851 C 78.5112 -1.42979 -1.22223 0
M  V30 852 O 77.8692 -0.514092 -1.73859 0
M  V30 853 C 77.9172 -3.60518 -0.0767769 0
M  V30 854 O 77.0212 -3.96533 -1.13292 0
M  V30 855 H 76.3622 -0.660961 0.0634524 0
M  V30 856 H 78.8922 -1.87991 0.807492 0
M  V30 857 H 78.9022 -4.07021 -0.282489 0
M  V30 858 H 77.5772 -4.06702 0.86986 0
M  V30 859 H 76.1542 -3.61738 -0.905553 0
M  V30 860 N 78.3393 -0.321999 -1.54275 0
M  V30 861 C 79.2493 0.553631 -2.27974 0
M  V30 862 C 80.2653 1.13054 -1.32268 0
M  V30 863 O 81.4413 1.15084 -1.6528 0
M  V30 864 C 78.5063 1.69927 -3.02201 0
M  V30 865 C 77.5673 1.15433 -4.1349 0
M  V30 866 C 76.8003 2.24537 -4.84168 0
M  V30 867 O 77.0233 3.44852 -4.5435 0
M  V30 868 O 75.9573 1.90044 -5.7111 0
M  V30 869 H 79.7833 -0.0448345 -3.03667 0
M  V30 870 H 77.3683 -0.0877418 -1.49142 0
M  V30 871 H 79.2503 2.3663 -3.48689 0
M  V30 872 H 77.9253 2.28395 -2.29385 0
M  V30 873 H 76.8323 0.452436 -3.71354 0
M  V30 874 H 78.1653 0.614805 -4.88345 0
M  V30 875 N 79.8174 1.5752 -0.0501392 0
M  V30 876 C 81.0664 1.91827 0.623328 0
M  V30 877 C 81.3794 0.930222 1.72065 0
M  V30 878 O 82.5854 1.1653 2.4522 0
M  V30 879 C 81.0414 3.40692 1.16003 0
M  V30 880 C 80.6494 4.479 0.0948811 0
M  V30 881 C 82.3934 3.84034 1.80881 0
M  V30 882 C 80.3004 5.87879 0.644411 0
M  V30 883 H 79.2304 0.715918 0.236596 0
M  V30 884 H 81.8814 1.83115 -0.118861 0
M  V30 885 H 80.2634 3.44405 1.9545 0
M  V30 886 H 81.4374 4.55775 -0.678675 0
M  V30 887 H 79.7524 4.13892 -0.45637 0
M  V30 888 H 82.3494 4.85984 2.22988 0
M  V30 889 H 82.6924 3.20225 2.6601 0
M  V30 890 H 83.2254 3.82833 1.0809 0
M  V30 891 H 79.9644 6.55282 -0.169229 0
M  V30 892 H 79.4844 5.83567 1.38598 0
M  V30 893 H 81.1634 6.37098 1.12763 0
M  V30 894 N 81.2955 -0.223234 1.56011 0
M  V30 895 C 82.7115 -0.572856 1.48965 0
M  V30 896 C 82.9115 -1.87225 0.74492 0
M  V30 897 O 81.9675 -2.50899 0.283896 0
M  V30 898 C 83.2805 -0.653646 2.9351 0
M  V30 899 C 84.8285 -0.744386 3.0402 0
M  V30 900 C 85.3035 -0.856535 4.49919 0
M  V30 901 N 86.7945 -0.9208 4.53955 0
M  V30 902 C 87.5295 -1.02726 5.64123 0
M  V30 903 N 87.0255 -1.09777 6.84047 0
M  V30 904 N 88.8185 -1.06226 5.51971 0
M  V30 905 H 80.9695 0.629462 2.02858 0
M  V30 906 H 83.2325 0.220621 0.921971 0
M  V30 907 H 82.9385 0.231518 3.50937 0
M  V30 908 H 82.8125 -1.51781 3.45315 0
M  V30 909 H 85.1995 -1.61999 2.46658 0
M  V30 910 H 85.2805 0.14541 2.55386 0
M  V30 911 H 84.9245 0.0146069 5.07898 0
M  V30 912 H 84.8545 -1.76172 4.96257 0
M  V30 913 H 87.3455 -0.876694 3.6759 0
M  V30 914 H 87.6585 -1.17872 7.63758 0
M  V30 915 H 86.0035 -1.06693 6.86762 0
M  V30 916 H 89.1945 -1.00382 4.5721 0
M  V30 917 H 89.3675 -1.14177 6.37862 0
M  V30 918 N 82.7736 -1.49793 -0.48987 0
M  V30 919 C 83.7216 -1.67783 -1.61095 0
M  V30 920 C 84.7156 -0.543683 -1.60438 0
M  V30 921 O 85.9216 -0.723647 -1.64813 0
M  V30 922 H 82.2966 -0.529255 -0.534222 0
M  V30 923 H 84.2676 -2.61861 -1.43078 0
M  V30 924 C 83.0166 -1.77191 -2.99164 0
M  V30 925 H 82.3396 -2.63841 -3.0038 0
M  V30 926 H 83.7796 -1.93809 -3.77113 0
M  V30 927 C 82.2386 -0.519203 -3.32875 0
M  V30 928 O 82.7686 0.350124 -4.00171 0
M  V30 929 N 80.9746 -0.378816 -2.8812 0
M  V30 930 H 80.5216 -1.08725 -2.33531 0
M  V30 931 H 80.4796 0.458239 -3.11043 0
M  V30 932 N 84.2517 0.741722 -1.39055 0
M  V30 933 C 85.1817 1.869 -1.39966 0
M  V30 934 C 86.1627 1.6804 -0.26392 0
M  V30 935 O 87.3477 1.88458 -0.468755 0
M  V30 936 C 84.4777 3.24572 -1.23574 0
M  V30 937 C 83.4317 3.58056 -2.34477 0
M  V30 938 C 82.7577 4.94593 -2.0318 0
M  V30 939 C 84.0577 3.61716 -3.76774 0
M  V30 940 H 85.7517 1.86395 -2.34302 0
M  V30 941 H 83.2977 0.895361 -1.1278 0
M  V30 942 H 85.2507 4.031 -1.22834 0
M  V30 943 H 83.9747 3.25587 -0.257045 0
M  V30 944 H 82.6337 2.81854 -2.34423 0
M  V30 945 H 82.2817 4.92181 -1.03765 0
M  V30 946 H 81.9817 5.17964 -2.77465 0
M  V30 947 H 83.5057 5.75486 -2.04079 0
M  V30 948 H 84.9197 4.30335 -3.78794 0
M  V30 949 H 83.3167 3.96603 -4.50362 0
M  V30 950 H 84.3867 2.61672 -4.08235 0
M  V30 951 N 85.7298 1.2412 0.971189 0
M  V30 952 C 86.6398 1.04747 2.09917 0
M  V30 953 C 87.6558 -0.0107162 1.73997 0
M  V30 954 O 88.8318 0.186714 2.00533 0
M  V30 955 C 85.8968 0.650828 3.40537 0
M  V30 956 C 84.9578 1.7851 3.90426 0
M  V30 957 C 84.1908 1.40729 5.14812 0
M  V30 958 O 84.4138 0.29557 5.69634 0
M  V30 959 O 83.3478 2.23168 5.58999 0
M  V30 960 H 87.1738 1.99304 2.29154 0
M  V30 961 H 84.7588 1.02908 1.08307 0
M  V30 962 H 86.6408 0.440992 4.19086 0
M  V30 963 H 85.3158 -0.265649 3.22608 0
M  V30 964 H 84.2228 2.04966 3.12953 0
M  V30 965 H 85.5558 2.68023 4.12825 0
M  V30 966 N 87.2079 -1.17134 1.05439 0
M  V30 967 C 88.4569 -1.86791 0.761049 0
M  V30 968 C 88.7699 -1.82072 -0.714795 0
M  V30 969 O 89.9759 -2.47223 -1.12218 0
M  V30 970 C 88.4319 -3.35166 1.31117 0
M  V30 971 C 88.0399 -3.48381 2.81664 0
M  V30 972 C 89.7839 -4.10134 1.09499 0
M  V30 973 C 87.6909 -4.90793 3.29964 0
M  V30 974 H 86.6209 -0.699681 0.281002 0
M  V30 975 H 89.2719 -1.3226 1.27199 0
M  V30 976 H 87.6539 -3.8925 0.72803 0
M  V30 977 H 88.8279 -3.04502 3.45855 0
M  V30 978 H 87.1429 -2.86836 3.01851 0
M  V30 979 H 89.7399 -5.152 1.43084 0
M  V30 980 H 90.0829 -4.16287 0.0328772 0
M  V30 981 H 90.6159 -3.62264 1.64346 0
M  V30 982 H 87.3549 -4.89816 4.35616 0
M  V30 983 H 86.8749 -5.35333 2.70516 0
M  V30 984 H 88.5539 -5.59573 3.24787 0
M  V30 985 N 88.686 -0.835752 -1.33615 0
M  V30 986 C 89.932 -0.430596 -1.98176 0
M  V30 987 C 90.265 1.00684 -1.66061 0
M  V30 988 O 89.54 1.70339 -0.938877 0
M  V30 989 C 89.823 -0.648065 -3.5422 0
M  V30 990 C 89.676 -2.13255 -3.96033 0
M  V30 991 C 90.995 -0.0922113 -4.40003 0
M  V30 992 H 88.114 -0.157924 -0.719881 0
M  V30 993 H 90.756 -1.05069 -1.58305 0
M  V30 994 H 88.906 -0.120237 -3.88314 0
M  V30 995 H 90.578 -2.725 -3.72211 0
M  V30 996 H 88.821 -2.61823 -3.45878 0
M  V30 997 H 89.492 -2.23547 -5.04708 0
M  V30 998 H 91.968 -0.543343 -4.12537 0
M  V30 999 H 90.844 -0.274083 -5.48215 0
M  V30 1000 H 91.105 1.00378 -4.30554 0
M  V30 1001 N 90.1641 1.46063 -0.591896 0
M  V30 1002 C 91.1121 2.32124 0.148739 0
M  V30 1003 C 92.1061 1.45035 0.875286 0
M  V30 1004 O 93.3121 1.61609 0.792632 0
M  V30 1005 H 89.6871 0.749024 0.066832 0
M  V30 1006 H 91.6581 2.92392 -0.595783 0
M  V30 1007 C 90.4071 3.28373 1.1431 0
M  V30 1008 H 89.7301 3.95371 0.59346 0
M  V30 1009 H 91.1701 3.91352 1.63155 0
M  V30 1010 C 89.6291 2.54393 2.20875 0
M  V30 1011 O 90.1591 2.31373 3.28374 0
M  V30 1012 N 88.3651 2.14797 1.95731 0
M  V30 1013 H 87.9121 2.33719 1.08319 0
M  V30 1014 H 87.8701 1.65619 2.67241 0
M  V30 1015 N 91.6422 0.330177 1.54103 0
M  V30 1016 C 92.5892 -0.532762 2.24567 0
M  V30 1017 C 93.5592 -1.10635 1.23892 0
M  V30 1018 O 94.7442 -1.14546 1.5259 0
M  V30 1019 C 91.8842 -1.6845 3.01195 0
M  V30 1020 C 90.9972 -1.13951 4.167 0
M  V30 1021 C 90.1322 -2.25746 4.80845 0
M  V30 1022 C 89.1712 -1.6853 5.88442 0
M  V30 1023 N 88.3082 -2.74014 6.46421 0
M  V30 1024 H 93.1482 0.0746905 2.97906 0
M  V30 1025 H 90.6852 0.048632 1.4702 0
M  V30 1026 H 92.6432 -2.36234 3.43874 0
M  V30 1027 H 91.2732 -2.26314 2.30178 0
M  V30 1028 H 90.3252 -0.35301 3.78758 0
M  V30 1029 H 91.6372 -0.680892 4.94131 0
M  V30 1030 H 90.7912 -3.01422 5.26526 0
M  V30 1031 H 89.5302 -2.74947 4.0281 0
M  V30 1032 H 88.5352 -0.913543 5.42157 0
M  V30 1033 H 89.7602 -1.20198 6.68378 0
M  V30 1034 H 87.7062 -3.22494 5.71256 0
M  V30 1035 H 87.6232 -2.32735 7.19285 0
M  V30 1036 H 88.8912 -3.49499 6.96757 0
M  V30 1037 N 93.1203 -1.57491 0.0584922 0
M  V30 1038 C 94.3503 -1.9701 -0.622134 0
M  V30 1039 C 94.7583 -0.935034 -1.6448 0
M  V30 1040 O 94.1013 0.0882904 -1.83488 0
M  V30 1041 C 94.1633 -3.32794 -1.35972 0
M  V30 1042 C 93.8273 -4.54343 -0.492043 0
M  V30 1043 C 94.8243 -5.19323 0.244901 0
M  V30 1044 C 92.5093 -5.00534 -0.420821 0
M  V30 1045 C 94.5033 -6.28835 1.04143 0
M  V30 1046 C 92.1903 -6.09921 0.379389 0
M  V30 1047 C 93.1883 -6.73933 1.10919 0
M  V30 1048 O 92.8763 -7.81216 1.89623 0
M  V30 1049 H 92.6083 -0.653127 -0.174359 0
M  V30 1050 H 95.1623 -2.05029 0.123418 0
M  V30 1051 H 93.3923 -3.21351 -2.15105 0
M  V30 1052 H 95.0813 -3.5701 -1.93129 0
M  V30 1053 H 95.8473 -4.8459 0.19939 0
M  V30 1054 H 91.7263 -4.50496 -0.978474 0
M  V30 1055 H 95.2703 -6.7873 1.61157 0
M  V30 1056 H 91.1673 -6.44089 0.426512 0
M  V30 1057 H 91.9353 -7.98029 1.81913 0
M  V30 1058 N 94.5984 0.214957 -1.56127 0
M  V30 1059 C 95.5464 1.28601 -1.93816 0
M  V30 1060 C 96.5404 1.48175 -0.821016 0
M  V30 1061 O 97.7464 1.49271 -1.0059 0
M  V30 1062 H 94.1214 0.431302 -0.616022 0
M  V30 1063 H 96.0924 0.940991 -2.83175 0
M  V30 1064 C 94.8414 2.62779 -2.27689 0
M  V30 1065 H 94.1644 2.48527 -3.13168 0
M  V30 1066 H 95.6044 3.36517 -2.57939 0
M  V30 1067 C 94.0634 3.18285 -1.10436 0
M  V30 1068 O 94.5934 4.00002 -0.368945 0
M  V30 1069 N 92.7994 2.7675 -0.886433 0
M  V30 1070 H 92.3464 2.10404 -1.48619 0
M  V30 1071 H 92.3044 3.14229 -0.103656 0
M  V30 1072 N 96.0765 1.50051 0.48192 0
M  V30 1073 C 97.3235 1.60498 1.23477 0
M  V30 1074 C 97.6515 0.300331 1.92167 0
M  V30 1075 O 96.9065 -0.713094 1.82246 0
M  V30 1076 C 97.2055 2.72717 2.30998 0
M  V30 1077 C 96.8715 4.13572 1.79636 0
M  V30 1078 C 95.5335 4.519 1.65348 0
M  V30 1079 C 97.8855 5.01649 1.41412 0
M  V30 1080 C 95.2135 5.76057 1.11244 0
M  V30 1081 C 97.5655 6.26343 0.887538 0
M  V30 1082 C 96.2295 6.63483 0.731207 0
M  V30 1083 H 95.4995 0.587303 0.451836 0
M  V30 1084 H 98.1465 1.83948 0.532468 0
M  V30 1085 H 96.4515 2.43312 3.07094 0
M  V30 1086 H 98.1485 2.78006 2.88988 0
M  V30 1087 H 94.7385 3.83329 1.91721 0
M  V30 1088 H 98.9225 4.72679 1.51289 0
M  V30 1089 H 94.1785 6.03516 0.978686 0
M  V30 1090 H 98.3525 6.93958 0.582654 0
M  V30 1091 H 95.9795 7.59568 0.309806 0
M  V30 1092 N 97.5546 -0.734337 1.39446 0
M  V30 1093 C 98.4646 -1.87879 1.40495 0
M  V30 1094 C 99.4806 -1.714 0.299672 0
M  V30 1095 O 100.657 -1.93991 0.541249 0
M  V30 1096 C 97.7216 -3.23477 1.24754 0
M  V30 1097 C 96.7826 -3.52344 2.45259 0
M  V30 1098 C 96.0156 -4.81473 2.30259 0
M  V30 1099 O 96.2386 -5.55237 1.30643 0
M  V30 1100 O 95.1726 -5.10254 3.19256 0
M  V30 1101 H 98.9986 -1.89949 2.36966 0
M  V30 1102 H 96.5836 -0.882243 1.20569 0
M  V30 1103 H 98.4656 -4.04509 1.18111 0
M  V30 1104 H 97.1406 -3.22176 0.313781 0
M  V30 1105 H 96.0476 -2.71396 2.57478 0
M  V30 1106 H 97.3806 -3.58426 3.37331 0
M  V30 1107 N 99.0327 -1.24633 -0.964593 0
M  V30 1108 C 100.31 -0.995809 -1.68354 0
M  V30 1109 C 100.69 0.480964 -2.05548 0
M  V30 1110 O 100.038 1.45599 -1.76105 0
M  V30 1111 C 100.248 -1.92177 -2.91323 0
M  V30 1112 C 101.596 -2.19446 -3.63495 0
M  V30 1113 O 102.62 -1.89855 -3.01386 0
M  V30 1114 O 101.479 -2.69714 -4.75307 0
M  V30 1115 H 98.5727 -0.376854 -0.736146 0
M  V30 1116 H 101.119 -1.35745 -1.0184 0
M  V30 1117 H 99.8907 -2.91938 -2.60553 0
M  V30 1118 H 99.5137 -1.56349 -3.65569 0
M  V30 1119 N 100.511 1.16574 -1.06058 0
M  V30 1120 C 101.474 2.19085 -0.673392 0
M  V30 1121 C 102.474 1.5835 0.279648 0
M  V30 1122 O 103.664 1.74088 0.0623488 0
M  V30 1123 C 100.796 3.40899 0.00954234 0
M  V30 1124 H 101.989 2.54853 -1.58081 0
M  V30 1125 H 99.5418 1.30808 -0.855516 0
M  V30 1126 H 100.277 3.10684 0.929826 0
M  V30 1127 H 100.062 3.86233 -0.67573 0
M  V30 1128 H 101.552 4.1675 0.266245 0
M  V30 1129 N 101.989 0.842826 1.3317 0
M  V30 1130 C 102.919 0.294028 2.31641 0
M  V30 1131 C 103.9 -0.600401 1.59151 0
M  V30 1132 O 105.085 -0.523124 1.87022 0
M  V30 1133 C 102.215 -0.528416 3.43257 0
M  V30 1134 C 101.169 0.27056 4.27144 0
M  V30 1135 C 100.495 -0.675881 5.30411 0
M  V30 1136 C 101.795 1.48981 5.00602 0
M  V30 1137 H 103.489 1.11681 2.77791 0
M  V30 1138 H 101.035 0.538478 1.33553 0
M  V30 1139 H 102.988 -0.922674 4.11175 0
M  V30 1140 H 101.712 -1.38445 2.95805 0
M  V30 1141 H 100.371 0.646427 3.60856 0
M  V30 1142 H 100.019 -1.52842 4.79216 0
M  V30 1143 H 99.7189 -0.145374 5.8742 0
M  V30 1144 H 101.243 -1.06757 6.01195 0
M  V30 1145 H 102.657 1.16849 5.61266 0
M  V30 1146 H 101.054 1.95739 5.6728 0
M  V30 1147 H 102.124 2.25746 4.29147 0
M  V30 1148 N 103.467 -1.45747 0.599634 0
M  V30 1149 C 104.414 -2.30467 -0.123849 0
M  V30 1150 C 105.384 -1.41632 -0.86774 0
M  V30 1151 O 106.569 -1.70568 -0.855056 0
M  V30 1152 C 103.709 -3.26402 -1.12051 0
M  V30 1153 C 102.822 -4.3034 -0.37832 0
M  V30 1154 C 101.957 -5.13389 -1.364 0
M  V30 1155 C 100.996 -6.09061 -0.609171 0
M  V30 1156 N 100.133 -6.84918 -1.54374 0
M  V30 1157 H 104.973 -2.91802 0.604627 0
M  V30 1158 H 102.51 -1.43797 0.309972 0
M  V30 1159 H 104.468 -3.80482 -1.7114 0
M  V30 1160 H 103.098 -2.66839 -1.8165 0
M  V30 1161 H 102.15 -3.78984 0.327929 0
M  V30 1162 H 103.462 -4.98354 0.210997 0
M  V30 1163 H 102.616 -5.7183 -2.02719 0
M  V30 1164 H 101.355 -4.45376 -1.98725 0
M  V30 1165 H 100.36 -5.49758 0.0676979 0
M  V30 1166 H 101.585 -6.79099 0.00891991 0
M  V30 1167 H 99.531 -6.19601 -2.15478 0
M  V30 1168 H 99.448 -7.49254 -1.00766 0
M  V30 1169 H 100.716 -7.47906 -2.19676 0
M  V30 1170 N 104.945 -0.338344 -1.53925 0
M  V30 1171 C 106.175 0.260919 -2.04946 0
M  V30 1172 C 106.583 1.45174 -1.2133 0
M  V30 1173 O 105.926 1.82122 -0.240262 0
M  V30 1174 C 105.988 0.744596 -3.51704 0
M  V30 1175 C 105.652 -0.325883 -4.55837 0
M  V30 1176 C 106.649 -1.16687 -5.06636 0
M  V30 1177 C 104.334 -0.478317 -5.00017 0
M  V30 1178 C 106.328 -2.14588 -6.00192 0
M  V30 1179 C 104.015 -1.46073 -5.93385 0
M  V30 1180 C 105.013 -2.29297 -6.4336 0
M  V30 1181 O 104.701 -3.25867 -7.34892 0
M  V30 1182 H 104.433 0.0551207 -0.673749 0
M  V30 1183 H 106.987 -0.486984 -1.99544 0
M  V30 1184 H 105.217 1.54366 -3.54553 0
M  V30 1185 H 106.906 1.26383 -3.85723 0
M  V30 1186 H 107.672 -1.06016 -4.73271 0
M  V30 1187 H 103.551 0.159613 -4.60724 0
M  V30 1188 H 107.095 -2.79585 -6.39123 0
M  V30 1189 H 102.992 -1.56802 -6.26166 0
M  V30 1190 H 103.76 -3.21278 -7.5281 0
M  V30 1191 N 106.423 1.57458 -0.0668435 0
M  V30 1192 C 107.7 1.8469 0.644132 0
M  V30 1193 C 108.08 0.958343 1.88093 0
M  V30 1194 O 107.428 0.0233579 2.28488 0
M  V30 1195 C 107.638 3.34767 0.986509 0
M  V30 1196 C 108.986 4.02159 1.36212 0
M  V30 1197 O 110.01 3.39484 1.07839 0
M  V30 1198 O 108.869 5.12694 1.89227 0
M  V30 1199 H 105.963 0.762816 0.319437 0
M  V30 1200 H 108.509 1.6942 -0.0973986 0
M  V30 1201 H 107.281 3.91151 0.107883 0
M  V30 1202 H 106.904 3.55281 1.78497 0
M  V30 1203 N 107.901 -0.206675 1.56239 0
M  V30 1204 C 108.849 -1.27571 1.94495 0
M  V30 1205 C 109.843 -1.47737 0.828862 0
M  V30 1206 O 111.049 -1.48735 1.0138 0
M  V30 1207 H 107.424 -0.428029 0.6183 0
M  V30 1208 H 109.395 -0.925961 2.8367 0
M  V30 1209 C 108.144 -2.61568 2.29079 0
M  V30 1210 H 107.467 -2.46863 3.14482 0
M  V30 1211 H 108.907 -3.35144 2.5972 0
M  V30 1212 C 107.366 -3.17695 1.12123 0
M  V30 1213 O 107.896 -3.99801 0.390153 0
M  V30 1214 N 106.102 -2.76276 0.901097 0
M  V30 1215 H 105.649 -2.09613 1.49733 0
M  V30 1216 H 105.607 -3.1417 0.120319 0
M  V30 1217 N 109.379 -1.50304 -0.473955 0
M  V30 1218 C 110.656 -1.51667 -1.23518 0
M  V30 1219 C 111.036 -0.259701 -2.09496 0
M  V30 1220 O 110.384 0.756986 -2.15597 0
M  V30 1221 C 110.594 -2.81082 -2.06868 0
M  V30 1222 C 111.942 -3.31631 -2.65153 0
M  V30 1223 O 112.966 -2.82384 -2.17113 0
M  V30 1224 O 111.825 -4.17471 -3.52675 0
M  V30 1225 H 108.919 -0.60822 -0.560355 0
M  V30 1226 H 111.465 -1.62592 -0.486011 0
M  V30 1227 H 110.237 -3.64041 -1.4349 0
M  V30 1228 H 109.86 -2.73146 -2.88924 0
M  V30 1229 N 110.857 0.726932 -1.39834 0
M  V30 1230 C 112.103 1.48884 -1.377 0
M  V30 1231 C 112.436 1.94185 0.0244852 0
M  V30 1232 O 111.711 1.67361 0.990986 0
M  V30 1233 C 111.994 2.72288 -2.3565 0
M  V30 1234 C 111.847 2.32956 -3.84775 0
M  V30 1235 C 113.166 3.74414 -2.31306 0
M  V30 1236 H 110.285 0.540062 -0.5015 0
M  V30 1237 H 112.927 0.830547 -1.70886 0
M  V30 1238 H 111.077 3.28457 -2.07481 0
M  V30 1239 H 112.749 1.82356 -4.23726 0
M  V30 1240 H 110.992 1.65088 -4.01159 0
M  V30 1241 H 111.663 3.21362 -4.4881 0
M  V30 1242 H 114.139 3.27849 -2.56231 0
M  V30 1243 H 113.015 4.58414 -3.01907 0
M  V30 1244 H 113.276 4.21909 -1.32081 0
M  V30 1245 N 112.336 1.25143 0.95797 0
M  V30 1246 C 113.585 1.0909 1.69654 0
M  V30 1247 C 113.898 -0.368548 1.92097 0
M  V30 1248 O 115.104 -0.649455 2.63618 0
M  V30 1249 C 113.56 1.90395 3.05414 0
M  V30 1250 C 113.168 3.4081 2.90779 0
M  V30 1251 C 114.912 1.82901 3.83076 0
M  V30 1252 C 112.819 4.14423 4.21909 0
M  V30 1253 H 111.749 0.404625 0.636235 0
M  V30 1254 H 114.4 1.4931 1.06672 0
M  V30 1255 H 112.782 1.42996 3.69281 0
M  V30 1256 H 113.956 3.95859 2.35865 0
M  V30 1257 H 112.271 3.49361 2.26575 0
M  V30 1258 H 114.868 2.35196 4.80195 0
M  V30 1259 H 115.211 0.796224 4.08615 0
M  V30 1260 H 115.744 2.28033 3.25954 0
M  V30 1261 H 112.483 5.18102 4.01561 0
M  V30 1262 H 112.003 3.64159 4.76601 0
M  V30 1263 H 113.682 4.21956 4.90471 0
M  V30 1264 N 113.814 -1.1601 1.06675 0
M  V30 1265 C 114.761 -2.20525 0.680967 0
M  V30 1266 C 115.731 -1.62904 -0.324283 0
M  V30 1267 O 116.916 -1.89615 -0.212294 0
M  V30 1268 C 114.056 -3.45013 0.0776551 0
M  V30 1269 C 113.169 -4.16863 1.13355 0
M  V30 1270 C 112.304 -5.2888 0.49597 0
M  V30 1271 C 111.343 -5.92537 1.53513 0
M  V30 1272 N 110.48 -6.96038 0.920631 0
M  V30 1273 H 115.32 -2.52876 1.57663 0
M  V30 1274 H 112.857 -1.24199 0.788223 0
M  V30 1275 H 114.815 -4.16193 -0.289704 0
M  V30 1276 H 113.445 -3.132 -0.781393 0
M  V30 1277 H 112.497 -3.44248 1.61857 0
M  V30 1278 H 113.809 -4.60294 1.92174 0
M  V30 1279 H 112.963 -6.06653 0.0758604 0
M  V30 1280 H 111.702 -4.86622 -0.324062 0
M  V30 1281 H 110.707 -5.13482 1.9651 0
M  V30 1282 H 111.932 -6.36873 2.35733 0
M  V30 1283 H 109.878 -6.55888 0.12138 0
M  V30 1284 H 109.795 -7.3786 1.64616 0
M  V30 1285 H 111.063 -7.77725 0.525795 0
M  V30 1286 N 115.292 -0.849877 -1.32721 0
M  V30 1287 C 116.54 -0.450032 -1.97026 0
M  V30 1288 C 116.861 0.996604 -1.67609 0
M  V30 1289 O 116.131 1.6958 -0.980786 0
M  V30 1290 H 114.711 -0.163426 -0.728904 0
M  V30 1291 H 117.373 -1.08526 -1.6189 0
M  V30 1292 H 116.469 -0.591146 -3.0645 0
M  V30 1293 N 116.77 1.45427 -0.607355 0
M  V30 1294 C 118.018 2.01841 -0.102253 0
M  V30 1295 C 118.339 1.47832 1.27164 0
M  V30 1296 O 117.609 0.672497 1.83995 0
M  V30 1297 H 116.189 0.746188 -0.0348101 0
M  V30 1298 H 118.851 1.78229 -0.7887 0
M  V30 1299 H 117.947 3.12057 -0.0518585 0
M  V30 1300 N 118.248 0.346503 1.53744 0
M  V30 1301 C 119.196 -0.52422 2.26616 0
M  V30 1302 C 120.19 -1.09948 1.28871 0
M  V30 1303 O 121.396 -1.04488 1.46568 0
M  V30 1304 H 117.771 -0.187743 0.728187 0
M  V30 1305 H 119.742 0.11239 2.98188 0
M  V30 1306 C 118.491 -1.66186 3.05414 0
M  V30 1307 H 117.814 -1.22848 3.80458 0
M  V30 1308 H 119.254 -2.24622 3.59612 0
M  V30 1309 C 117.713 -2.59302 2.1509 0
M  V30 1310 O 118.243 -3.61628 1.74895 0
M  V30 1311 N 116.449 -2.28055 1.8011 0
M  V30 1312 H 115.996 -1.44883 2.12994 0
M  V30 1313 H 115.954 -2.90615 1.19958 0
M  V30 1314 N 119.726 -1.57421 0.075193 0
M  V30 1315 C 120.673 -2.12915 -0.890843 0
M  V30 1316 C 121.643 -1.04252 -1.29309 0
M  V30 1317 O 122.828 -1.31933 -1.37834 0
M  V30 1318 C 119.968 -2.69795 -2.15186 0
M  V30 1319 C 119.081 -3.92624 -1.80194 0
M  V30 1320 C 118.216 -4.37736 -3.00933 0
M  V30 1321 C 117.255 -5.53205 -2.61974 0
M  V30 1322 N 116.392 -5.9326 -3.75483 0
M  V30 1323 H 121.232 -2.95156 -0.410735 0
M  V30 1324 H 118.769 -1.45854 -0.191086 0
M  V30 1325 H 120.727 -3.00883 -2.89008 0
M  V30 1326 H 119.357 -1.90313 -2.60731 0
M  V30 1327 H 118.409 -3.67977 -0.964218 0
M  V30 1328 H 119.721 -4.76482 -1.47534 0
M  V30 1329 H 118.875 -4.70503 -3.8303 0
M  V30 1330 H 117.614 -3.52739 -3.36789 0
M  V30 1331 H 116.619 -5.20086 -1.783 0
M  V30 1332 H 117.844 -6.39936 -2.27284 0
M  V30 1333 H 115.79 -5.11212 -4.11094 0
M  V30 1334 H 115.707 -6.71865 -3.46602 0
M  V30 1335 H 116.975 -6.30651 -4.58148 0
M  V30 1336 N 121.204 0.198386 -1.56346 0
M  V30 1337 C 122.151 1.24589 -1.94284 0
M  V30 1338 C 123.121 1.454 -0.802997 0
M  V30 1339 O 124.306 1.58588 -1.06087 0
M  V30 1340 C 121.446 2.58631 -2.28482 0
M  V30 1341 C 120.559 2.45426 -3.55514 0
M  V30 1342 C 119.694 3.7215 -3.79049 0
M  V30 1343 C 118.733 3.53763 -4.99518 0
M  V30 1344 N 117.87 4.72491 -5.19323 0
M  V30 1345 H 122.71 0.915356 -2.83593 0
M  V30 1346 H 120.247 0.440629 -1.40346 0
M  V30 1347 H 122.205 3.3672 -2.46324 0
M  V30 1348 H 120.835 2.89734 -1.42317 0
M  V30 1349 H 119.887 1.58652 -3.45737 0
M  V30 1350 H 121.199 2.27772 -4.43758 0
M  V30 1351 H 120.353 4.58679 -3.97113 0
M  V30 1352 H 119.092 3.92754 -2.89129 0
M  V30 1353 H 118.097 2.65619 -4.8138 0
M  V30 1354 H 119.322 3.34607 -5.90944 0
M  V30 1355 H 117.268 4.93365 -4.3235 0
M  V30 1356 H 117.185 4.5765 -6.01741 0
M  V30 1357 H 118.453 5.6038 -5.41843 0
M  V30 1358 N 122.682 1.50554 0.465978 0
M  V30 1359 C 123.63 1.70324 1.58406 0
M  V30 1360 C 124.624 0.569139 1.59553 0
M  V30 1361 O 125.83 0.749776 1.63641 0
M  V30 1362 H 122.205 0.537688 0.525734 0
M  V30 1363 H 124.176 2.64104 1.38894 0
M  V30 1364 C 122.925 1.81928 2.96307 0
M  V30 1365 H 122.248 2.68586 2.96144 0
M  V30 1366 H 123.688 1.99784 3.73982 0
M  V30 1367 C 122.147 0.572095 3.32007 0
M  V30 1368 O 122.677 -0.286416 4.00678 0
M  V30 1369 N 120.883 0.424606 2.87481 0
M  V30 1370 H 120.43 1.12427 2.31771 0
M  V30 1371 H 120.388 -0.408697 3.11732 0
M  V30 1372 N 124.16 -0.719506 1.40217 0
M  V30 1373 C 125.108 -1.85493 1.40339 0
M  V30 1374 C 126.102 -1.66995 0.284415 0
M  V30 1375 O 127.308 -1.74148 0.455252 0
M  V30 1376 H 123.683 -0.610857 0.438586 0
M  V30 1377 H 125.654 -1.82506 2.36081 0
M  V30 1378 C 124.403 -3.23321 1.27901 0
M  V30 1379 H 123.726 -3.38159 2.1328 0
M  V30 1380 H 125.166 -4.02914 1.32045 0
M  V30 1381 C 123.625 -3.36898 -0.0111355 0
M  V30 1382 O 124.155 -3.89674 -0.975538 0
M  V30 1383 N 122.361 -2.90492 -0.0793393 0
M  V30 1384 H 121.908 -2.47731 0.706183 0
M  V30 1385 H 121.866 -2.99955 -0.942038 0
M  V30 1386 N 125.638 -1.25649 -0.95132 0
M  V30 1387 C 126.585 -1.06323 -2.04851 0
M  V30 1388 C 127.555 0.0286491 -1.66075 0
M  V30 1389 O 128.74 -0.12917 -1.90362 0
M  V30 1390 C 125.88 -0.691529 -3.381 0
M  V30 1391 C 124.993 -1.85861 -3.89974 0
M  V30 1392 C 124.128 -1.43096 -5.11563 0
M  V30 1393 C 123.167 -2.56696 -5.55674 0
M  V30 1394 N 122.304 -2.14684 -6.68472 0
M  V30 1395 H 127.144 -2.00222 -2.20715 0
M  V30 1396 H 124.681 -0.997027 -1.08156 0
M  V30 1397 H 126.639 -0.456963 -4.1469 0
M  V30 1398 H 125.269 0.210474 -3.22113 0
M  V30 1399 H 124.321 -2.20639 -3.09875 0
M  V30 1400 H 125.633 -2.71161 -4.18657 0
M  V30 1401 H 124.787 -1.15624 -5.9558 0
M  V30 1402 H 123.526 -0.548722 -4.84603 0
M  V30 1403 H 122.531 -2.84909 -4.7022 0
M  V30 1404 H 123.756 -3.45503 -5.8464 0
M  V30 1405 H 121.702 -1.28881 -6.43215 0
M  V30 1406 H 121.619 -2.9353 -6.96689 0
M  V30 1407 H 122.887 -1.90397 -7.5589 0
M  V30 1408 N 127.117 1.15442 -1.07289 0
M  V30 1409 C 128.065 2.22225 -0.686952 0
M  V30 1410 C 129.059 1.66688 0.30193 0
M  V30 1411 O 130.265 1.79236 0.165712 0
M  V30 1412 H 126.64 0.723783 -0.204064 0
M  V30 1413 H 128.611 2.52056 -1.5972 0
M  V30 1414 C 127.36 3.47556 -0.100149 0
M  V30 1415 H 126.683 3.90612 -0.852211 0
M  V30 1416 H 128.123 4.23794 0.132235 0
M  V30 1417 C 126.582 3.16337 1.159 0
M  V30 1418 O 127.112 3.33074 2.24555 0
M  V30 1419 N 125.318 2.70385 1.06491 0
M  V30 1420 H 124.865 2.56966 0.180668 0
M  V30 1421 H 124.823 2.49871 1.90819 0
M  V30 1422 N 128.595 0.856903 1.32268 0
M  V30 1423 C 129.543 0.291987 2.3076 0
M  V30 1424 C 130.537 -0.585857 1.58947 0
M  V30 1425 O 131.743 -0.47341 1.73663 0
M  V30 1426 H 128.118 0.075721 0.748178 0
M  V30 1427 H 130.089 1.13687 2.75895 0
M  V30 1428 C 128.838 -0.502869 3.44044 0
M  V30 1429 H 128.161 0.163328 3.99466 0
M  V30 1430 H 129.601 -0.863691 4.1511 0
M  V30 1431 C 128.06 -1.68898 2.91505 0
M  V30 1432 O 128.59 -2.78811 2.89184 0
M  V30 1433 N 126.796 -1.51679 2.47875 0
M  V30 1434 H 126.343 -0.622666 2.49961 0
M  V30 1435 H 126.301 -2.31184 2.13076 0
M  V30 1436 N 130.073 -1.45103 0.615059 0
M  V30 1437 C 131.02 -2.30586 -0.0993978 0
M  V30 1438 C 131.99 -1.42544 -0.852669 0
M  V30 1439 O 133.175 -1.71465 -0.836917 0
M  V30 1440 C 130.315 -3.27572 -1.08583 0
M  V30 1441 C 129.428 -4.30717 -0.332656 0
M  V30 1442 C 128.563 -5.14807 -1.30947 0
M  V30 1443 C 127.602 -6.09673 -0.544538 0
M  V30 1444 N 126.739 -6.86517 -1.47101 0
M  V30 1445 H 131.579 -2.91144 0.635542 0
M  V30 1446 H 129.116 -1.4346 0.325206 0
M  V30 1447 H 131.074 -3.82276 -1.67095 0
M  V30 1448 H 129.704 -2.68751 -1.78809 0
M  V30 1449 H 128.756 -3.78615 0.368107 0
M  V30 1450 H 130.068 -4.98102 0.263842 0
M  V30 1451 H 129.222 -5.73948 -1.96643 0
M  V30 1452 H 127.961 -4.47458 -1.9399 0
M  V30 1453 H 126.966 -5.49656 0.126003 0
M  V30 1454 H 128.191 -6.79052 0.080947 0
M  V30 1455 H 126.137 -6.21851 -2.08895 0
M  V30 1456 H 126.054 -7.50281 -0.928137 0
M  V30 1457 H 127.322 -7.50194 -2.11731 0
M  V30 1458 N 131.551 -0.354651 -1.53558 0
M  V30 1459 C 132.499 0.512195 -2.26891 0
M  V30 1460 C 133.493 1.09263 -1.29452 0
M  V30 1461 O 134.699 1.03709 -1.47121 0
M  V30 1462 H 131.074 0.183878 -0.729173 0
M  V30 1463 H 133.045 -0.128202 -2.98124 0
M  V30 1464 C 131.794 1.64563 -3.06291 0
M  V30 1465 H 131.117 1.20829 -3.81104 0
M  V30 1466 H 132.557 2.22711 -3.60799 0
M  V30 1467 C 131.016 2.58158 -2.16462 0
M  V30 1468 O 131.546 3.60695 -1.76811 0
M  V30 1469 N 129.752 2.27096 -1.81317 0
M  V30 1470 H 129.299 1.43751 -2.1376 0
M  V30 1471 H 129.257 2.89975 -1.21498 0
M  V30 1472 N 133.029 1.57378 -0.0835403 0
M  V30 1473 C 133.977 2.14602 0.89714 0
M  V30 1474 C 134.971 1.08589 1.30018 0
M  V30 1475 O 136.177 1.26952 1.27606 0
M  V30 1476 H 132.552 0.686346 0.3073 0
M  V30 1477 H 134.523 2.95845 0.38969 0
M  V30 1478 C 133.272 2.73188 2.15089 0
M  V30 1479 H 132.595 3.54442 1.84962 0
M  V30 1480 H 134.035 3.1681 2.81793 0
M  V30 1481 C 132.494 1.68517 2.91725 0
M  V30 1482 O 133.024 1.11718 3.85852 0
M  V30 1483 N 131.23 1.39277 2.55049 0
M  V30 1484 H 130.777 1.85655 1.78577 0
M  V30 1485 H 130.735 0.694791 3.06627 0
M  V30 1486 N 134.507 -0.190092 1.56449 0
M  V30 1487 C 135.457 -1.23977 1.91347 0
M  V30 1488 C 136.441 -1.40747 0.779693 0
M  V30 1489 O 137.633 -1.43033 1.04262 0
M  V30 1490 C 134.762 -2.58347 2.26079 0
M  V30 1491 C 133.848 -2.4535 3.45925 0
M  V30 1492 N 134.239 -2.02039 4.63696 0
M  V30 1493 C 132.537 -2.76229 3.50162 0
M  V30 1494 C 133.238 -2.01053 5.4585 0
M  V30 1495 N 132.214 -2.42747 4.8639 0
M  V30 1496 H 136.016 -0.896318 2.79899 0
M  V30 1497 H 133.53 -0.398496 1.57435 0
M  V30 1498 H 135.527 -3.34173 2.49267 0
M  V30 1499 H 134.187 -2.93512 1.38856 0
M  V30 1500 H 135.198 -1.7267 4.88268 0
M  V30 1501 H 131.875 -3.15556 2.73369 0
M  V30 1502 H 133.265 -1.69426 6.50188 0
M  V30 1503 N 135.985 -1.50799 -0.457987 0
M  V30 1504 C 136.933 -1.71162 -1.575 0
M  V30 1505 C 137.927 -0.577592 -1.59249 0
M  V30 1506 O 139.133 -0.758443 -1.63241 0
M  V30 1507 H 135.508 -0.540468 -0.522875 0
M  V30 1508 H 137.479 -2.64837 -1.37492 0
M  V30 1509 C 136.228 -1.83496 -2.95338 0
M  V30 1510 H 135.551 -2.70153 -2.94716 0
M  V30 1511 H 136.991 -2.01765 -3.72917 0
M  V30 1512 C 135.45 -0.589694 -3.31699 0
M  V30 1513 O 135.98 0.265163 -4.00824 0
M  V30 1514 N 134.186 -0.439845 -2.87252 0
M  V30 1515 H 133.733 -1.13655 -2.31172 0
M  V30 1516 H 133.691 0.392159 -3.11945 0
M  V30 1517 N 137.463 0.71206 -1.40597 0
M  V30 1518 C 138.411 1.84746 -1.41321 0
M  V30 1519 C 139.405 1.66842 -0.293268 0
M  V30 1520 O 140.611 1.73904 -0.464481 0
M  V30 1521 H 136.986 0.608522 -0.441819 0
M  V30 1522 H 138.957 1.81252 -2.37045 0
M  V30 1523 C 137.706 3.22638 -1.29614 0
M  V30 1524 H 137.029 3.37023 -2.15071 0
M  V30 1525 H 138.469 4.02209 -1.3418 0
M  V30 1526 C 136.928 3.36899 -0.00673121 0
M  V30 1527 O 137.458 3.90186 0.954859 0
M  V30 1528 N 135.664 2.9053 0.0639327 0
M  V30 1529 H 135.211 2.47353 -0.719311 0
M  V30 1530 H 135.169 3.0045 0.926118 0
M  V30 1531 N 138.941 1.26152 0.944643 0
M  V30 1532 C 139.889 1.07215 2.06417 0
M  V30 1533 C 140.883 9.2007e-05 1.694 0
M  V30 1534 O 142.089 0.1565 1.79318 0
M  V30 1535 H 138.464 0.329837 0.675805 0
M  V30 1536 H 140.435 2.02099 2.19541 0
M  V30 1537 C 139.184 0.718197 3.40202 0
M  V30 1538 H 138.507 1.53497 3.69159 0
M  V30 1539 H 139.947 0.625459 4.19361 0
M  V30 1540 C 138.406 -0.576435 3.31932 0
M  V30 1541 O 138.936 -1.61574 3.67773 0
M  V30 1542 N 137.142 -0.565781 2.85039 0
M  V30 1543 H 136.689 0.280367 2.5607 0
M  V30 1544 H 136.647 -1.43213 2.79888 0
M  V30 1545 N 140.419 -1.14872 1.07899 0
M  V30 1546 C 141.644 -1.90202 0.826926 0
M  V30 1547 C 142.069 -1.77774 -0.614664 0
M  V30 1548 O 141.427 -1.11431 -1.43013 0
M  V30 1549 C 141.475 -3.38352 1.24702 0
M  V30 1550 O 140.579 -4.10497 0.39575 0
M  V30 1551 H 139.92 -0.591968 0.300782 0
M  V30 1552 H 142.45 -1.45437 1.43907 0
M  V30 1553 H 142.46 -3.89156 1.22563 0
M  V30 1554 H 141.135 -3.46715 2.29698 0
M  V30 1555 H 139.712 -3.69796 0.480117 0
M  V30 1556 N 141.898 -0.863906 -1.31812 0
M  V30 1557 C 143.144 -0.472535 -1.97218 0
M  V30 1558 C 143.477 0.971394 -1.68159 0
M  V30 1559 O 142.752 1.68309 -0.974798 0
M  V30 1560 C 143.035 -0.723054 -3.52766 0
M  V30 1561 C 142.888 -2.21608 -3.91421 0
M  V30 1562 C 144.207 -0.185522 -4.39709 0
M  V30 1563 H 141.326 -0.173158 -0.71637 0
M  V30 1564 H 143.968 -1.08403 -1.56041 0
M  V30 1565 H 142.118 -0.202577 -3.87971 0
M  V30 1566 H 143.79 -2.80334 -3.66347 0
M  V30 1567 H 142.033 -2.691 -3.40246 0
M  V30 1568 H 142.704 -2.34203 -4.99853 0
M  V30 1569 H 145.18 -0.630726 -4.11292 0
M  V30 1570 H 144.056 -0.390306 -5.47511 0
M  V30 1571 H 144.317 0.912229 -4.32586 0
M  V30 1572 N 143.376 1.44774 -0.622745 0
M  V30 1573 C 144.324 2.32387 0.0994683 0
M  V30 1574 C 145.318 1.46859 0.844326 0
M  V30 1575 O 146.524 1.63254 0.758174 0
M  V30 1576 H 142.899 0.750273 0.0509291 0
M  V30 1577 H 144.87 2.91062 -0.65767 0
M  V30 1578 C 143.619 3.30723 1.07319 0
M  V30 1579 H 142.942 3.96541 0.509462 0
M  V30 1580 H 144.382 3.94725 1.54817 0
M  V30 1581 C 142.841 2.59021 2.15429 0
M  V30 1582 O 143.371 2.38286 3.23393 0
M  V30 1583 N 141.577 2.189 1.91131 0
M  V30 1584 H 141.124 2.35964 1.03337 0
M  V30 1585 H 141.082 1.71251 2.63668 0
M  V30 1586 N 144.854 0.36279 1.53368 0
M  V30 1587 C 145.764 -0.492994 2.29362 0
M  V30 1588 C 146.78 -1.09507 1.35219 0
M  V30 1589 O 147.956 -1.10662 1.68273 0
M  V30 1590 C 145.021 -1.61855 3.066 0
M  V30 1591 C 144.082 -1.04429 4.16405 0
M  V30 1592 C 143.315 -2.11621 4.89951 0
M  V30 1593 O 143.538 -3.32684 4.63333 0
M  V30 1594 O 142.472 -1.74835 5.75948 0
M  V30 1595 H 146.298 0.125331 3.03441 0
M  V30 1596 H 143.883 0.127253 1.48857 0
M  V30 1597 H 145.765 -2.27302 3.54841 0
M  V30 1598 H 144.44 -2.22233 2.3536 0
M  V30 1599 H 143.347 -0.353819 3.72423 0
M  V30 1600 H 144.68 -0.485113 4.89804 0
M  V30 1601 N 146.332 -1.57332 0.0918853 0
M  V30 1602 C 147.562 -1.98286 -0.580205 0
M  V30 1603 C 147.97 -0.969713 -1.6246 0
M  V30 1604 O 147.313 0.0493501 -1.83634 0
M  V30 1605 C 147.375 -3.35603 -1.28882 0
M  V30 1606 C 147.039 -4.55285 -0.395559 0
M  V30 1607 C 148.036 -5.18687 0.355002 0
M  V30 1608 C 145.721 -5.01314 -0.314556 0
M  V30 1609 C 147.715 -6.26484 1.17458 0
M  V30 1610 C 145.402 -6.08979 0.508677 0
M  V30 1611 C 146.4 -6.71429 1.2519 0
M  V30 1612 O 146.088 -7.77018 2.06151 0
M  V30 1613 H 145.82 -0.656678 -0.160466 0
M  V30 1614 H 148.374 -2.04721 0.16688 0
M  V30 1615 H 146.604 -3.25842 -2.08241 0
M  V30 1616 H 148.293 -3.61026 -1.85512 0
M  V30 1617 H 149.059 -4.84058 0.302134 0
M  V30 1618 H 144.938 -4.5247 -0.882697 0
M  V30 1619 H 148.482 -6.75159 1.75518 0
M  V30 1620 H 144.379 -6.4304 0.563037 0
M  V30 1621 H 145.147 -7.93991 1.98799 0
M  V30 1622 N 147.81 0.181792 -1.56548 0
M  V30 1623 C 149.056 0.901431 -1.81665 0
M  V30 1624 C 149.389 1.82347 -0.668075 0
M  V30 1625 O 148.664 1.91669 0.330615 0
M  V30 1626 C 148.947 1.70618 -3.17115 0
M  V30 1627 C 148.8 0.807964 -4.42484 0
M  V30 1628 C 150.119 2.67605 -3.49393 0
M  V30 1629 H 147.238 0.32627 -0.660846 0
M  V30 1630 H 149.88 0.168134 -1.89255 0
M  V30 1631 H 148.03 2.33133 -3.10775 0
M  V30 1632 H 149.702 0.19649 -4.60881 0
M  V30 1633 H 147.945 0.115411 -4.33646 0
M  V30 1634 H 148.616 1.40632 -5.33785 0
M  V30 1635 H 151.092 2.15218 -3.56118 0
M  V30 1636 H 149.968 3.20985 -4.45264 0
M  V30 1637 H 150.229 3.47298 -2.73563 0
M  V30 1638 N 149.288 1.51039 0.449983 0
M  V30 1639 C 150.516 1.66869 1.2232 0
M  V30 1640 C 150.931 0.360727 1.85322 0
M  V30 1641 O 150.288 -0.659531 1.70166 0
M  V30 1642 C 150.339 2.77524 2.31652 0
M  V30 1643 O 150.06 4.03252 1.7123 0
M  V30 1644 C 151.561 3.04512 3.2216 0
M  V30 1645 H 148.781 0.560326 0.369155 0
M  V30 1646 H 151.325 1.97385 0.534719 0
M  V30 1647 H 149.48 2.49642 2.96239 0
M  V30 1648 H 149.894 4.64609 2.43389 0
M  V30 1649 H 151.368 3.85551 3.95038 0
M  V30 1650 H 151.845 2.16415 3.8218 0
M  V30 1651 H 152.451 3.34005 2.63288 0
M  V30 1652 N 150.766 -0.704594 1.40972 0
M  V30 1653 C 152.006 -1.47691 1.41304 0
M  V30 1654 C 152.37 -1.91992 0.0178582 0
M  V30 1655 O 153.571 -2.68599 -0.103996 0
M  V30 1656 C 151.842 -2.66254 2.38419 0
M  V30 1657 S 153.401 -3.55516 2.57204 0
M  V30 1658 H 150.219 -0.504808 0.500689 0
M  V30 1659 H 152.821 -0.822962 1.77335 0
M  V30 1660 H 151.525 -2.31897 3.38603 0
M  V30 1661 H 151.056 -3.3655 2.03711 0
M  V30 1662 H 153.071 -4.61115 1.83268 0
M  V30 1663 N 152.244 -1.26651 -0.937939 0
M  V30 1664 C 153.491 -1.12387 -1.6845 0
M  V30 1665 C 153.819 0.332208 -1.91642 0
M  V30 1666 O 153.074 1.2602 -1.49725 0
M  V30 1667 C 153.373 -1.84168 -3.06295 0
M  V30 1668 C 153.039 -3.34056 -3.02849 0
M  V30 1669 C 151.701 -3.74942 -3.01616 0
M  V30 1670 C 154.053 -4.29741 -2.9491 0
M  V30 1671 C 151.381 -5.09894 -2.90215 0
M  V30 1672 C 153.733 -5.64738 -2.8505 0
M  V30 1673 C 152.397 -6.0493 -2.82162 0
M  V30 1674 H 151.667 -0.411252 -0.616403 0
M  V30 1675 H 154.314 -1.57134 -1.09459 0
M  V30 1676 H 152.619 -1.319 -3.6893 0
M  V30 1677 H 154.316 -1.70569 -3.62915 0
M  V30 1678 H 150.906 -3.01534 -3.0459 0
M  V30 1679 H 155.09 -3.99133 -2.94969 0
M  V30 1680 H 150.346 -5.40194 -2.86358 0
M  V30 1681 H 154.52 -6.38561 -2.77872 0
M  V30 1682 H 152.147 -7.09457 -2.73084 0
M  V30 1683 N 153.722 1.14298 -1.08507 0
M  V30 1684 C 154.632 2.23027 -0.727753 0
M  V30 1685 C 155.648 1.71952 0.26619 0
M  V30 1686 O 156.824 2.011 0.109882 0
M  V30 1687 C 153.889 3.46403 -0.143541 0
M  V30 1688 C 152.95 4.12413 -1.19223 0
M  V30 1689 C 152.183 5.29899 -0.635798 0
M  V30 1690 O 152.406 5.67796 0.544393 0
M  V30 1691 O 151.34 5.85717 -1.38634 0
M  V30 1692 H 155.166 2.55945 -1.63481 0
M  V30 1693 H 152.751 1.22248 -0.858817 0
M  V30 1694 H 154.633 4.21018 0.179404 0
M  V30 1695 H 153.308 3.15206 0.736659 0
M  V30 1696 H 152.215 3.39667 -1.56772 0
M  V30 1697 H 153.548 4.47718 -2.04474 0
M  V30 1698 N 155.201 0.870884 1.31352 0
M  V30 1699 C 156.447 0.492314 1.97352 0
M  V30 1700 C 156.802 -0.945174 1.67583 0
M  V30 1701 O 156.095 -1.65674 0.962423 0
M  V30 1702 C 156.289 0.687157 3.50732 0
M  V30 1703 C 156.118 2.14203 3.95407 0
M  V30 1704 C 154.888 2.78382 4.21701 0
M  V30 1705 C 157.086 3.1144 4.09279 0
M  V30 1706 N 155.068 4.14611 4.52737 0
M  V30 1707 C 156.439 4.32702 4.44037 0
M  V30 1708 C 158.494 3.07418 3.91661 0
M  V30 1709 C 157.197 5.50463 4.63015 0
M  V30 1710 C 159.223 4.24438 4.11833 0
M  V30 1711 C 158.585 5.44463 4.46923 0
M  V30 1712 H 154.684 0.229206 0.747655 0
M  V30 1713 H 157.268 1.12568 1.5886 0
M  V30 1714 H 155.439 0.083384 3.8831 0
M  V30 1715 H 157.171 0.276883 4.03752 0
M  V30 1716 H 153.926 2.29326 4.14375 0
M  V30 1717 H 154.35 4.84928 4.72413 0
M  V30 1718 H 158.992 2.15732 3.6362 0
M  V30 1719 H 156.71 6.42666 4.89904 0
M  V30 1720 H 160.296 4.2278 3.99685 0
M  V30 1721 H 159.176 6.33504 4.62214 0
M  V30 1722 N 156.679 -1.44442 0.630414 0
M  V30 1723 C 157.612 -2.27862 -0.124247 0
M  V30 1724 C 158.59 -1.38495 -0.851931 0
M  V30 1725 O 159.774 -1.67935 -0.856166 0
M  V30 1726 C 156.901 -3.17407 -1.18197 0
M  V30 1727 C 155.947 -4.22875 -0.554892 0
M  V30 1728 S 156.78 -5.31485 0.654489 0
M  V30 1729 C 157.936 -6.246 -0.40326 0
M  V30 1730 H 158.169 -2.91519 0.583435 0
M  V30 1731 H 155.702 -1.48618 0.418565 0
M  V30 1732 H 157.66 -3.69549 -1.78728 0
M  V30 1733 H 156.321 -2.52971 -1.86184 0
M  V30 1734 H 155.514 -4.85542 -1.35148 0
M  V30 1735 H 155.116 -3.73992 -0.0242105 0
M  V30 1736 H 157.408 -6.65375 -1.27602 0
M  V30 1737 H 158.351 -7.07851 0.187813 0
M  V30 1738 H 158.759 -5.59775 -0.728837 0
M  V30 1739 N 158.157 -0.370918 -1.53173 0
M  V30 1740 C 159.105 0.488101 -2.27421 0
M  V30 1741 C 160.099 1.07884 -1.30604 0
M  V30 1742 O 161.305 1.02143 -1.48212 0
M  V30 1743 H 157.68 0.176134 -0.731082 0
M  V30 1744 H 159.651 -0.159815 -2.97972 0
M  V30 1745 C 158.4 1.61306 -3.08019 0
M  V30 1746 H 157.723 1.1678 -3.82364 0
M  V30 1747 H 159.163 2.18872 -3.63141 0
M  V30 1748 C 157.622 2.55848 -2.19188 0
M  V30 1749 O 158.152 3.58799 -1.80626 0
M  V30 1750 N 156.358 2.2516 -1.83715 0
M  V30 1751 H 155.905 1.41476 -2.15273 0
M  V30 1752 H 155.863 2.8867 -1.24567 0
M  V30 1753 N 159.635 1.57281 -0.100228 0
M  V30 1754 C 160.86 1.99302 0.573881 0
M  V30 1755 C 161.285 0.979059 1.60611 0
M  V30 1756 O 160.643 -0.0517803 1.81226 0
M  V30 1757 C 160.691 3.40274 1.19358 0
M  V30 1758 O 159.795 3.41676 2.30935 0
M  V30 1759 H 159.136 0.647944 0.145138 0
M  V30 1760 H 161.666 2.03779 -0.183156 0
M  V30 1761 H 161.676 3.78078 1.53365 0
M  V30 1762 H 160.351 4.13594 0.437385 0
M  V30 1763 H 158.928 3.15672 1.98509 0
M  V30 1764 N 161.113 -0.173488 1.56642 0
M  V30 1765 C 162.061 -1.23417 1.97157 0
M  V30 1766 C 163.055 -1.45946 0.860013 0
M  V30 1767 O 164.261 -1.46551 1.04512 0
M  V30 1768 H 160.636 -0.414818 0.62724 0
M  V30 1769 H 162.607 -0.865582 2.8557 0
M  V30 1770 C 161.356 -2.5665 2.34576 0
M  V30 1771 H 160.679 -2.40137 3.19647 0
M  V30 1772 H 162.119 -3.2956 2.6677 0
M  V30 1773 C 160.578 -3.15245 1.18836 0
M  V30 1774 O 161.108 -3.98883 0.474869 0
M  V30 1775 N 159.314 -2.74303 0.959497 0
M  V30 1776 H 158.861 -2.0639 1.54146 0
M  V30 1777 H 158.819 -3.13844 0.186932 0
M  V30 1778 N 162.591 -1.51276 -0.441967 0
M  V30 1779 C 163.539 -1.72823 -1.55676 0
M  V30 1780 C 164.533 -0.59445 -1.58627 0
M  V30 1781 O 165.739 -0.775715 -1.62427 0
M  V30 1782 H 162.114 -0.545983 -0.517113 0
M  V30 1783 H 164.085 -2.6628 -1.34675 0
M  V30 1784 C 162.834 -1.86619 -2.93375 0
M  V30 1785 H 162.157 -2.73264 -2.91834 0
M  V30 1786 H 163.597 -2.05709 -3.70756 0
M  V30 1787 C 162.056 -0.624842 -3.31055 0
M  V30 1788 O 162.586 0.222636 -4.01083 0
M  V30 1789 N 160.792 -0.470288 -2.86769 0
M  V30 1790 H 160.339 -1.161 -2.29953 0
M  V30 1791 H 160.297 0.359051 -3.12343 0
M  V30 1792 N 164.069 0.697108 -1.41344 0
M  V30 1793 C 165.316 1.45714 -1.40619 0
M  V30 1794 C 165.644 1.94494 -0.0147907 0
M  V30 1795 O 164.899 1.69794 0.973066 0
M  V30 1796 C 165.198 2.68553 -2.35826 0
M  V30 1797 C 164.864 2.38438 -3.82698 0
M  V30 1798 C 163.526 2.29936 -4.22709 0
M  V30 1799 C 165.878 2.13567 -4.75435 0
M  V30 1800 C 163.206 1.94656 -5.53467 0
M  V30 1801 C 165.558 1.79797 -6.06511 0
M  V30 1802 C 164.222 1.69789 -6.45545 0
M  V30 1803 H 163.492 0.533206 -0.51456 0
M  V30 1804 H 166.139 0.796901 -1.74131 0
M  V30 1805 H 164.444 3.39503 -1.95563 0
M  V30 1806 H 166.141 3.2669 -2.32539 0
M  V30 1807 H 162.731 2.4595 -3.51008 0
M  V30 1808 H 166.915 2.19082 -4.45328 0
M  V30 1809 H 162.171 1.8546 -5.82593 0
M  V30 1810 H 166.345 1.59572 -6.77872 0
M  V30 1811 H 163.972 1.4222 -7.46778 0
M  V30 1812 N 165.547 1.27147 0.931209 0
M  V30 1813 C 166.793 1.13446 1.68101 0
M  V30 1814 C 167.126 -0.319628 1.91552 0
M  V30 1815 O 166.401 -1.23407 1.50336 0
M  V30 1816 C 166.684 1.91482 3.0497 0
M  V30 1817 C 166.537 3.44855 2.88782 0
M  V30 1818 C 167.856 1.71651 4.05246 0
M  V30 1819 H 164.975 0.413498 0.610072 0
M  V30 1820 H 167.617 1.56261 1.08086 0
M  V30 1821 H 165.767 1.55095 3.56199 0
M  V30 1822 H 167.439 3.9105 2.44698 0
M  V30 1823 H 165.682 3.71373 2.24198 0
M  V30 1824 H 166.353 3.94694 3.85902 0
M  V30 1825 H 168.829 2.0337 3.63015 0
M  V30 1826 H 167.705 2.28651 4.99009 0
M  V30 1827 H 167.966 0.663555 4.37092 0
M  V30 1828 N 167.025 -1.13721 1.09112 0
M  V30 1829 C 168.302 -1.81155 0.737706 0
M  V30 1830 C 168.682 -1.96253 -0.777683 0
M  V30 1831 O 168.03 -1.52807 -1.69889 0
M  V30 1832 C 168.24 -3.16392 1.47299 0
M  V30 1833 C 169.588 -3.91787 1.63671 0
M  V30 1834 O 170.612 -3.26005 1.43524 0
M  V30 1835 O 169.471 -5.0977 1.96969 0
M  V30 1836 H 166.565 -0.783518 0.26463 0
M  V30 1837 H 169.111 -1.20676 1.19312 0
M  V30 1838 H 167.883 -3.0061 2.50498 0
M  V30 1839 H 167.506 -3.8457 1.00953 0
M  V30 1840 N 168.503 -0.877838 -1.30888 0
M  V30 1841 C 169.752 -0.488793 -1.95688 0
M  V30 1842 C 170.065 0.965485 -1.70111 0
M  V30 1843 O 171.271 1.46104 -2.28836 0
M  V30 1844 C 169.727 -0.823201 -3.50359 0
M  V30 1845 C 169.335 -2.29477 -3.84765 0
M  V30 1846 C 171.079 -0.503009 -4.21509 0
M  V30 1847 C 168.986 -2.57118 -5.32583 0
M  V30 1848 H 167.916 -0.179062 -0.732429 0
M  V30 1849 H 170.567 -1.07183 -1.48943 0
M  V30 1850 H 168.949 -0.169331 -3.95638 0
M  V30 1851 H 170.123 -2.99236 -3.5042 0
M  V30 1852 H 168.438 -2.58178 -3.267 0
M  V30 1853 H 171.035 -0.68665 -5.30273 0
M  V30 1854 H 171.378 0.557109 -4.12555 0
M  V30 1855 H 171.911 -1.11376 -3.8189 0
M  V30 1856 H 168.65 -3.61843 -5.4658 0
M  V30 1857 H 168.17 -1.91961 -5.68253 0
M  V30 1858 H 169.849 -2.42251 -5.99936 0
M  V30 1859 N 169.982 1.44106 -0.638065 0
M  V30 1860 C 170.93 2.3248 0.0748149 0
M  V30 1861 C 171.924 1.47746 0.828702 0
M  V30 1862 O 173.13 1.64049 0.740816 0
M  V30 1863 H 169.505 0.750771 0.0429686 0
M  V30 1864 H 171.476 2.90348 -0.688504 0
M  V30 1865 C 170.225 3.31843 1.03805 0
M  V30 1866 H 169.548 3.97059 0.467375 0
M  V30 1867 H 170.988 3.96345 1.50622 0
M  V30 1868 C 169.447 2.61291 2.1267 0
M  V30 1869 O 169.977 2.41702 3.20847 0
M  V30 1870 N 168.183 2.20915 1.88798 0
M  V30 1871 H 167.73 2.37047 1.00829 0
M  V30 1872 H 167.688 1.74038 2.61836 0
M  V30 1873 N 171.46 0.379036 1.52974 0
M  V30 1874 C 172.408 -0.476033 2.27677 0
M  V30 1875 C 173.402 -1.0719 1.31174 0
M  V30 1876 O 174.608 -1.01355 1.48752 0
M  V30 1877 H 170.983 -0.172255 0.732006 0
M  V30 1878 H 172.954 0.175615 2.97883 0
M  V30 1879 C 171.703 -1.5967 3.0887 0
M  V30 1880 H 171.026 -1.1475 3.82978 0
M  V30 1881 H 172.466 -2.16943 3.64296 0
M  V30 1882 C 170.925 -2.54682 2.20542 0
M  V30 1883 O 171.455 -3.57836 1.82527 0
M  V30 1884 N 169.661 -2.24183 1.84907 0
M  V30 1885 H 169.208 -1.40333 2.1602 0
M  V30 1886 H 169.166 -2.88006 1.26096 0
M  V30 1887 N 172.938 -1.57226 0.108567 0
M  V30 1888 C 173.886 -2.16002 -0.862885 0
M  V30 1889 C 174.88 -1.10644 -1.28274 0
M  V30 1890 O 176.086 -1.28966 -1.2557 0
M  V30 1891 H 172.461 -0.691148 -0.296342 0
M  V30 1892 H 174.432 -2.96427 -0.342575 0
M  V30 1893 C 173.181 -2.76576 -2.10716 0
M  V30 1894 H 172.504 -3.5734 -1.793 0
M  V30 1895 H 173.944 -3.21253 -2.76717 0
M  V30 1896 C 172.403 -1.73137 -2.89007 0
M  V30 1897 O 172.933 -1.17842 -3.84026 0
M  V30 1898 N 171.139 -1.43317 -2.52801 0
M  V30 1899 H 170.686 -1.88473 -1.75601 0
M  V30 1900 H 170.644 -0.743485 -3.05483 0
M  V30 1901 N 174.416 0.165178 -1.56732 0
M  V30 1902 C 175.326 1.22423 -2.00125 0
M  V30 1903 C 176.342 1.48084 -0.913619 0
M  V30 1904 O 177.518 1.60112 -1.22172 0
M  V30 1905 C 174.583 2.54197 -2.35764 0
M  V30 1906 C 173.644 2.36343 -3.58386 0
M  V30 1907 C 172.877 3.61834 -3.92316 0
M  V30 1908 O 173.1 4.67267 -3.27135 0
M  V30 1909 O 172.034 3.55579 -4.85641 0
M  V30 1910 H 175.86 0.885886 -2.90492 0
M  V30 1911 H 173.445 0.372518 -1.44681 0
M  V30 1912 H 175.327 3.3192 -2.59629 0
M  V30 1913 H 174.002 2.87598 -1.48557 0
M  V30 1914 H 172.909 1.56632 -3.39731 0
M  V30 1915 H 174.242 2.07865 -4.46154 0
M  V30 1916 N 175.894 1.51508 0.433938 0
M  V30 1917 C 176.804 1.75917 1.5521 0
M  V30 1918 C 177.82 0.643545 1.61662 0
M  V30 1919 O 178.996 0.926183 1.7884 0
M  V30 1920 C 176.061 1.88213 2.91164 0
M  V30 1921 C 175.122 3.12074 2.94802 0
M  V30 1922 C 174.355 3.23774 4.24271 0
M  V30 1923 O 174.578 2.4133 5.16833 0
M  V30 1924 O 173.512 4.16774 4.34262 0
M  V30 1925 H 177.338 2.70777 1.37527 0
M  V30 1926 H 174.923 1.36051 0.617293 0
M  V30 1927 H 176.805 1.98267 3.71845 0
M  V30 1928 H 175.48 0.965413 3.08968 0
M  V30 1929 H 174.387 3.07497 2.13065 0
M  V30 1930 H 175.72 4.03446 2.81943 0
M  V30 1931 N 177.372 -0.689602 1.41712 0
M  V30 1932 C 178.302 -1.81577 1.46806 0
M  V30 1933 C 179.283 -1.66945 0.326105 0
M  V30 1934 O 180.468 -1.86588 0.538377 0
M  V30 1935 C 177.598 -3.19762 1.35535 0
M  V30 1936 C 176.552 -3.49107 2.47605 0
M  V30 1937 C 175.878 -4.86711 2.21397 0
M  V30 1938 C 177.178 -3.47483 3.89939 0
M  V30 1939 H 178.872 -1.7757 2.41058 0
M  V30 1940 H 176.418 -0.852887 1.16025 0
M  V30 1941 H 178.371 -3.98263 1.3771 0
M  V30 1942 H 177.095 -3.24409 0.377708 0
M  V30 1943 H 175.754 -2.72959 2.44722 0
M  V30 1944 H 175.402 -4.8799 1.21961 0
M  V30 1945 H 175.102 -5.0731 2.96497 0
M  V30 1946 H 176.626 -5.67515 2.25297 0
M  V30 1947 H 178.04 -4.1598 3.94505 0
M  V30 1948 H 176.437 -3.79615 4.64771 0
M  V30 1949 H 177.507 -2.46341 4.17665 0
M  V30 1950 N 178.85 -1.27639 -0.924453 0
M  V30 1951 C 180.075 -1.17101 -1.71179 0
M  V30 1952 C 180.5 0.268134 -1.86179 0
M  V30 1953 O 179.858 1.19415 -1.36418 0
M  V30 1954 C 179.906 -1.86313 -3.08739 0
M  V30 1955 O 179.01 -1.16331 -3.95652 0
M  V30 1956 H 178.351 -0.407091 -0.524569 0
M  V30 1957 H 180.881 -1.68767 -1.15666 0
M  V30 1958 H 180.891 -1.938 -3.59034 0
M  V30 1959 H 179.566 -2.91001 -2.97138 0
M  V30 1960 H 178.143 -1.16935 -3.54091 0
M  V30 1961 N 180.328 1.1314 -1.09713 0
M  V30 1962 C 181.275 2.18642 -0.739196 0
M  V30 1963 C 182.245 1.63706 0.280978 0
M  V30 1964 O 183.43 1.90111 0.161946 0
M  V30 1965 C 180.57 3.44685 -0.169102 0
M  V30 1966 C 179.683 4.13711 -1.24367 0
M  V30 1967 C 178.818 5.27379 -0.636019 0
M  V30 1968 C 177.857 5.88259 -1.69169 0
M  V30 1969 N 176.994 6.93352 -1.10485 0
M  V30 1970 H 181.834 2.48607 -1.64312 0
M  V30 1971 H 179.371 1.22066 -0.820875 0
M  V30 1972 H 181.329 4.16815 0.179256 0
M  V30 1973 H 179.959 3.15161 0.698079 0
M  V30 1974 H 179.011 3.39835 -1.70927 0
M  V30 1975 H 180.323 4.55037 -2.04311 0
M  V30 1976 H 179.477 6.06238 -0.236677 0
M  V30 1977 H 178.216 4.8731 0.194928 0
M  V30 1978 H 177.221 5.08092 -2.10055 0
M  V30 1979 H 178.446 6.30399 -2.52536 0
M  V30 1980 H 176.392 6.55335 -0.295234 0
M  V30 1981 H 176.309 7.33236 -1.84121 0
M  V30 1982 H 177.577 7.76057 -0.73181 0
M  V30 1983 N 181.806 0.884767 1.30421 0
M  V30 1984 C 183.054 0.502112 1.95763 0
M  V30 1985 C 183.375 -0.951815 1.70192 0
M  V30 1986 O 182.645 -1.6692 1.0254 0
M  V30 1987 H 181.225 0.182694 0.724315 0
M  V30 1988 H 183.887 1.1278 1.58955 0
M  V30 1989 H 182.983 0.672188 3.04775 0
M  V30 1990 N 183.284 -1.43765 0.645699 0
M  V30 1991 C 184.533 -2.01116 0.153412 0
M  V30 1992 C 184.846 -1.51493 -1.23731 0
M  V30 1993 O 186.052 -2.01067 -1.8244 0
M  V30 1994 C 184.508 -3.59206 0.223473 0
M  V30 1995 C 184.116 -4.17823 1.61642 0
M  V30 1996 C 185.86 -4.23972 -0.211597 0
M  V30 1997 C 183.767 -5.68183 1.64081 0
M  V30 1998 H 182.697 -0.752093 0.0535891 0
M  V30 1999 H 185.348 -1.6482 0.806633 0
M  V30 2000 H 183.73 -3.92867 -0.497118 0
M  V30 2001 H 184.904 -3.95674 2.36176 0
M  V30 2002 H 183.219 -3.65399 1.99681 0
M  V30 2003 H 185.816 -5.34275 -0.213112 0
M  V30 2004 H 186.159 -3.97352 -1.24165 0
M  V30 2005 H 186.692 -3.95166 0.456988 0
M  V30 2006 H 183.431 -5.99559 2.64971 0
M  V30 2007 H 182.951 -5.9241 0.938611 0
M  V30 2008 H 184.63 -6.32085 1.3812 0
M  V30 2009 N 184.763 -0.387143 -1.52771 0
M  V30 2010 C 186.012 0.19697 -2.00736 0
M  V30 2011 C 186.325 1.48082 -1.27793 0
M  V30 2012 O 187.531 2.14485 -1.66458 0
M  V30 2013 C 185.987 0.401568 -3.57653 0
M  V30 2014 C 185.595 -0.868907 -4.39493 0
M  V30 2015 C 187.339 0.942164 -4.13912 0
M  V30 2016 C 185.246 -0.632705 -5.88006 0
M  V30 2017 H 184.176 0.0773827 -0.750019 0
M  V30 2018 H 186.827 -0.50921 -1.76293 0
M  V30 2019 H 185.209 1.16954 -3.78335 0
M  V30 2020 H 186.383 -1.64133 -4.30577 0
M  V30 2021 H 184.698 -1.33429 -3.94443 0
M  V30 2022 H 187.295 1.13455 -5.22525 0
M  V30 2023 H 187.638 1.9106 -3.69867 0
M  V30 2024 H 188.171 0.233814 -3.97112 0
M  V30 2025 H 184.91 -1.57208 -6.36369 0
M  V30 2026 H 184.43 0.100825 -5.99715 0
M  V30 2027 H 186.109 -0.26642 -6.46451 0
M  V30 2028 N 186.241 1.57166 -0.116904 0
M  V30 2029 C 187.487 1.95412 0.542405 0
M  V30 2030 C 187.82 1.00019 1.66463 0
M  V30 2031 O 187.095 0.0370346 1.94465 0
M  V30 2032 C 187.378 3.43615 1.07708 0
M  V30 2033 C 187.231 4.49781 -0.0415868 0
M  V30 2034 C 188.55 3.93616 1.96861 0
M  V30 2035 H 185.669 0.710543 0.195696 0
M  V30 2036 H 188.311 1.89027 -0.192038 0
M  V30 2037 H 186.461 3.49187 1.70296 0
M  V30 2038 H 188.133 4.56308 -0.676793 0
M  V30 2039 H 186.376 4.28033 -0.705019 0
M  V30 2040 H 187.047 5.50733 0.373717 0
M  V30 2041 H 189.523 3.90335 1.44146 0
M  V30 2042 H 188.399 4.97838 2.3119 0
M  V30 2043 H 188.66 3.34188 2.89432 0
M  V30 2044 N 187.719 -0.156864 1.56817 0
M  V30 2045 C 188.967 -0.869404 1.82444 0
M  V30 2046 C 189.288 -1.82147 0.69623 0
M  V30 2047 O 188.558 -1.93847 -0.28287 0
M  V30 2048 H 187.138 -0.324043 0.673056 0
M  V30 2049 H 189.8 -0.153224 1.94297 0
M  V30 2050 H 188.896 -1.43761 2.77019 0
M  V30 2051 N 189.197 -1.51736 -0.425897 0
M  V30 2052 C 190.445 -1.64644 -1.17204 0
M  V30 2053 C 190.766 -0.370486 -1.91448 0
M  V30 2054 O 190.036 0.614088 -1.86026 0
M  V30 2055 H 188.616 -0.606819 -0.435638 0
M  V30 2056 H 191.278 -1.88713 -0.487177 0
M  V30 2057 H 190.374 -2.47958 -1.89534 0
M  V30 2058 N 190.675 0.682077 -1.42076 0
M  V30 2059 C 191.605 1.80796 -1.47767 0
M  V30 2060 C 192.586 1.6677 -0.334954 0
M  V30 2061 O 193.771 1.863 -0.548264 0
M  V30 2062 C 190.901 3.19038 -1.37229 0
M  V30 2063 C 189.855 3.47789 -2.49453 0
M  V30 2064 C 189.181 4.8553 -2.23975 0
M  V30 2065 C 190.481 3.45411 -3.91776 0
M  V30 2066 H 192.175 1.7629 -2.41997 0
M  V30 2067 H 189.721 0.846721 -1.16476 0
M  V30 2068 H 191.674 3.97528 -1.39821 0
M  V30 2069 H 190.398 3.24204 -0.394907 0
M  V30 2070 H 189.057 2.71657 -2.46166 0
M  V30 2071 H 188.705 4.87337 -1.24547 0
M  V30 2072 H 188.405 5.0573 -2.99184 0
M  V30 2073 H 189.929 5.66312 -2.28304 0
M  V30 2074 H 191.343 4.13882 -3.96705 0
M  V30 2075 H 189.74 3.77145 -4.66778 0
M  V30 2076 H 190.81 2.44122 -4.18966 0
M  V30 2077 N 192.153 1.28127 0.917671 0
M  V30 2078 C 193.381 1.17892 1.70026 0
M  V30 2079 C 193.796 -0.262958 1.8696 0
M  V30 2080 O 193.153 -1.17811 1.3938 0
M  V30 2081 C 193.204 1.86872 3.09453 0
M  V30 2082 O 192.925 3.25428 2.93306 0
M  V30 2083 C 194.426 1.8289 4.03815 0
M  V30 2084 H 191.646 0.40942 0.531617 0
M  V30 2085 H 194.19 1.69181 1.14883 0
M  V30 2086 H 192.345 1.39464 3.61426 0
M  V30 2087 H 192.759 3.59918 3.81523 0
M  V30 2088 H 194.233 2.35751 4.99125 0
M  V30 2089 H 194.71 0.800412 4.31845 0
M  V30 2090 H 195.316 2.29959 3.57769 0
M  V30 2091 N 193.631 -1.12557 1.10312 0
M  V30 2092 C 194.579 -2.20325 0.745629 0
M  V30 2093 C 195.573 -1.67429 -0.25763 0
M  V30 2094 O 196.779 -1.79612 -0.118132 0
M  V30 2095 H 193.154 -0.718118 0.223182 0
M  V30 2096 H 195.125 -2.47733 1.66346 0
M  V30 2097 C 193.874 -3.47168 0.192262 0
M  V30 2098 H 193.197 -3.88215 0.955475 0
M  V30 2099 H 194.637 -4.23995 -0.0198274 0
M  V30 2100 C 193.096 -3.19298 -1.07472 0
M  V30 2101 O 193.626 -3.3891 -2.15645 0
M  V30 2102 N 191.832 -2.73113 -0.992847 0
M  V30 2103 H 191.379 -2.57354 -0.112474 0
M  V30 2104 H 191.337 -2.54842 -1.84127 0
M  V30 2105 N 195.109 -0.891671 -1.2995 0
M  V30 2106 C 196.357 -0.512486 -1.95494 0
M  V30 2107 C 196.678 0.942776 -1.70695 0
M  V30 2108 O 195.948 1.66374 -1.03424 0
M  V30 2109 H 194.528 -0.186533 -0.723336 0
M  V30 2110 H 197.19 -1.13621 -1.58355 0
M  V30 2111 H 196.286 -0.688342 -3.04415 0
M  V30 2112 N 196.587 1.43421 -0.653314 0
M  V30 2113 C 197.864 1.95361 -0.0966581 0
M  V30 2114 C 198.244 1.59461 1.38331 0
M  V30 2115 O 197.592 0.879777 2.10884 0
M  V30 2116 C 197.802 3.47311 -0.342988 0
M  V30 2117 C 199.15 4.23875 -0.24798 0
M  V30 2118 O 200.174 3.55133 -0.275553 0
M  V30 2119 O 199.033 5.4623 -0.171771 0
M  V30 2120 H 196.127 0.826945 0.00956291 0
M  V30 2121 H 198.673 1.5336 -0.726558 0
M  V30 2122 H 197.445 3.66569 -1.36906 0
M  V30 2123 H 197.068 3.9631 0.319975 0
M  V30 2124 N 198.065 0.39524 1.52563 0
M  V30 2125 C 199.314 -0.186321 2.00838 0
M  V30 2126 C 199.627 -1.47402 1.28577 0
M  V30 2127 O 200.833 -2.13599 1.67593 0
M  V30 2128 C 199.289 -0.382595 3.57861 0
M  V30 2129 C 198.897 0.892202 4.39026 0
M  V30 2130 C 200.641 -0.9202 4.14406 0
M  V30 2131 C 198.548 0.66388 5.87662 0
M  V30 2132 H 197.478 -0.0734041 0.750418 0
M  V30 2133 H 200.129 0.518552 1.76021 0
M  V30 2134 H 198.511 -1.14946 3.7895 0
M  V30 2135 H 199.685 1.66414 4.29701 0
M  V30 2136 H 198 1.35519 3.9373 0
M  V30 2137 H 200.597 -1.10683 5.23119 0
M  V30 2138 H 200.94 -1.89096 3.70875 0
M  V30 2139 H 201.473 -0.212751 3.97231 0
M  V30 2140 H 198.212 1.6058 6.35527 0
M  V30 2141 H 197.732 -0.0690193 5.9976 0
M  V30 2142 H 199.411 0.300699 6.46301 0
M  V30 2143 N 199.544 -1.57102 0.125237 0
M  V30 2144 C 200.79 -1.95697 -0.532035 0
M  V30 2145 C 201.123 -1.009 -1.6593 0
M  V30 2146 O 200.398 -0.047347 -1.94442 0
M  V30 2147 C 200.681 -3.44181 -1.05884 0
M  V30 2148 C 200.534 -4.49752 0.0654392 0
M  V30 2149 C 201.853 -3.94655 -1.9477 0
M  V30 2150 H 198.972 -0.711571 -0.191925 0
M  V30 2151 H 201.614 -1.88923 0.20206 0
M  V30 2152 H 199.764 -3.50085 -1.68442 0
M  V30 2153 H 201.436 -4.55943 0.700982 0
M  V30 2154 H 199.679 -4.27653 0.727709 0
M  V30 2155 H 200.35 -5.50924 -0.344505 0
M  V30 2156 H 202.826 -3.91094 -1.42074 0
M  V30 2157 H 201.702 -4.99057 -2.28546 0
M  V30 2158 H 201.963 -3.35718 -2.87656 0
M  V30 2159 N 201.022 0.148545 -1.56898 0
M  V30 2160 C 201.952 1.18524 -2.01182 0
M  V30 2161 C 202.933 1.4489 -0.891123 0
M  V30 2162 O 204.118 1.55836 -1.15882 0
M  V30 2163 C 201.248 2.51879 -2.39112 0
M  V30 2164 C 200.202 2.40038 -3.54353 0
M  V30 2165 C 199.528 3.78089 -3.78091 0
M  V30 2166 C 200.828 1.88577 -4.87069 0
M  V30 2167 H 202.522 0.817029 -2.88036 0
M  V30 2168 H 200.068 0.391575 -1.38574 0
M  V30 2169 H 202.021 3.24627 -2.68692 0
M  V30 2170 H 200.745 2.90532 -1.49193 0
M  V30 2171 H 199.404 1.69742 -3.24936 0
M  V30 2172 H 199.052 4.14175 -2.85426 0
M  V30 2173 H 198.752 3.71028 -4.55645 0
M  V30 2174 H 200.276 4.52387 -4.10095 0
M  V30 2175 H 201.69 2.51117 -5.15377 0
M  V30 2176 H 200.087 1.9241 -5.68417 0
M  V30 2177 H 201.157 0.84136 -4.77545 0
M  V30 2178 N 202.5 1.5196 0.417844 0
M  V30 2179 C 203.43 1.77634 1.51554 0
M  V30 2180 C 204.411 0.626918 1.58126 0
M  V30 2181 O 205.596 0.871632 1.7354 0
M  V30 2182 C 202.726 1.91911 2.8946 0
M  V30 2183 C 201.68 3.07463 2.97743 0
M  V30 2184 C 201.006 3.06951 4.37819 0
M  V30 2185 C 202.306 4.47082 2.70027 0
M  V30 2186 H 204 2.6955 1.3032 0
M  V30 2187 H 201.546 1.29706 0.625492 0
M  V30 2188 H 203.499 2.08455 3.6623 0
M  V30 2189 H 202.223 0.966598 3.11969 0
M  V30 2190 H 200.882 2.90656 2.23416 0
M  V30 2191 H 200.53 2.09438 4.57323 0
M  V30 2192 H 200.23 3.84556 4.44286 0
M  V30 2193 H 201.754 3.25613 5.16535 0
M  V30 2194 H 203.168 4.6414 3.36522 0
M  V30 2195 H 201.565 5.2654 2.87881 0
M  V30 2196 H 202.635 4.55777 1.65514 0
M  V30 2197 N 203.978 -0.674533 1.42435 0
M  V30 2198 C 204.926 -1.80934 1.46169 0
M  V30 2199 C 205.92 -1.66006 0.3374 0
M  V30 2200 O 207.126 -1.72611 0.510425 0
M  V30 2201 H 203.501 -0.596594 0.457798 0
M  V30 2202 H 205.472 -1.74903 2.41767 0
M  V30 2203 C 204.221 -3.19088 1.38123 0
M  V30 2204 H 203.544 -3.31203 2.23931 0
M  V30 2205 H 204.984 -3.9851 1.44797 0
M  V30 2206 C 203.443 -3.36763 0.0960517 0
M  V30 2207 O 203.973 -3.92581 -0.851073 0
M  V30 2208 N 202.179 -2.90597 0.0131186 0
M  V30 2209 H 201.726 -2.45359 0.784639 0
M  V30 2210 H 201.684 -3.028 -0.846133 0
M  V30 2211 N 205.456 -1.28612 -0.910864 0
M  V30 2212 C 206.419 -1.12803 -1.9952 0
M  V30 2213 C 207.419 -0.0668264 -1.60661 0
M  V30 2214 O 208.609 -0.312847 -1.71368 0
M  V30 2215 C 205.741 -0.72254 -3.33155 0
M  V30 2216 H 206.934 -2.09109 -2.14973 0
M  V30 2217 H 204.487 -1.11639 -1.09391 0
M  V30 2218 H 205.222 0.241152 -3.23402 0
M  V30 2219 H 205.007 -1.48916 -3.62721 0
M  V30 2220 H 206.497 -0.634666 -4.12749 0
M  V30 2221 N 206.934 1.1197 -1.10907 0
M  V30 2222 C 207.881 2.17846 -0.762345 0
M  V30 2223 C 208.851 1.63995 0.263599 0
M  V30 2224 O 210.036 1.90273 0.141773 0
M  V30 2225 C 207.176 3.44487 -0.205651 0
M  V30 2226 C 206.289 4.12369 -1.28748 0
M  V30 2227 C 205.424 5.26674 -0.691919 0
M  V30 2228 C 204.463 5.86431 -1.75399 0
M  V30 2229 N 203.6 6.92142 -1.17833 0
M  V30 2230 H 208.44 2.46851 -1.6694 0
M  V30 2231 H 205.977 1.21188 -0.833776 0
M  V30 2232 H 207.935 4.16981 0.135037 0
M  V30 2233 H 206.565 3.15884 0.664613 0
M  V30 2234 H 205.617 3.38003 -1.74522 0
M  V30 2235 H 206.929 4.52844 -2.09125 0
M  V30 2236 H 206.083 6.05953 -0.300963 0
M  V30 2237 H 204.822 4.8749 0.143232 0
M  V30 2238 H 203.827 5.05835 -2.15432 0
M  V30 2239 H 205.052 6.27685 -2.59208 0
M  V30 2240 H 202.998 6.54985 -0.364725 0
M  V30 2241 H 202.915 7.31242 -1.91887 0
M  V30 2242 H 204.183 7.75237 -0.81408 0
M  V30 2243 N 208.412 0.89855 1.29475 0
M  V30 2244 C 209.36 0.365253 2.29714 0
M  V30 2245 C 210.354 -0.534993 1.6073 0
M  V30 2246 O 211.56 -0.417921 1.75081 0
M  V30 2247 H 207.935 0.0994853 0.74539 0
M  V30 2248 H 209.906 1.22406 2.72138 0
M  V30 2249 C 208.655 -0.393159 3.4547 0
M  V30 2250 H 207.978 0.290332 3.98744 0
M  V30 2251 H 209.418 -0.731189 4.17648 0
M  V30 2252 C 207.877 -1.59539 2.9673 0
M  V30 2253 O 208.407 -2.69469 2.97908 0
M  V30 2254 N 206.613 -1.43716 2.52575 0
M  V30 2255 H 206.16 -0.542828 2.51816 0
M  V30 2256 H 206.118 -2.24288 2.20323 0
M  V30 2257 N 209.89 -1.43072 0.660911 0
M  V30 2258 C 210.82 -2.33497 -0.0122829 0
M  V30 2259 C 211.801 -1.49903 -0.803925 0
M  V30 2260 O 212.986 -1.78546 -0.763864 0
M  V30 2261 C 210.116 -3.33363 -0.973994 0
M  V30 2262 C 209.07 -4.27003 -0.291928 0
M  V30 2263 C 208.396 -5.16967 -1.36562 0
M  V30 2264 C 209.696 -5.15816 0.820462 0
M  V30 2265 H 211.39 -2.90038 0.742873 0
M  V30 2266 H 208.936 -1.39461 0.358688 0
M  V30 2267 H 210.889 -3.95524 -1.45392 0
M  V30 2268 H 209.613 -2.75095 -1.7604 0
M  V30 2269 H 208.272 -3.66217 0.167623 0
M  V30 2270 H 207.92 -4.55034 -2.14366 0
M  V30 2271 H 207.62 -5.80441 -0.914454 0
M  V30 2272 H 209.144 -5.82003 -1.84675 0
M  V30 2273 H 210.558 -5.71742 0.422366 0
M  V30 2274 H 208.955 -5.8805 1.19656 0
M  V30 2275 H 210.025 -4.55045 1.67518 0
M  V30 2276 N 211.368 -0.403325 -1.52352 0
M  V30 2277 C 212.615 0.174347 -2.01748 0
M  V30 2278 C 212.943 1.45636 -1.2892 0
M  V30 2279 O 212.198 1.9193 -0.382258 0
M  V30 2280 C 212.497 0.474665 -3.54234 0
M  V30 2281 C 212.163 -0.717458 -4.45155 0
M  V30 2282 C 210.825 -1.04447 -4.69728 0
M  V30 2283 C 213.177 -1.51432 -4.98716 0
M  V30 2284 C 210.505 -2.16963 -5.45109 0
M  V30 2285 C 212.857 -2.6302 -5.75329 0
M  V30 2286 C 211.521 -2.96213 -5.98175 0
M  V30 2287 H 210.791 0.0637981 -0.738248 0
M  V30 2288 H 213.438 -0.543553 -1.83624 0
M  V30 2289 H 211.743 1.27406 -3.70506 0
M  V30 2290 H 213.44 0.934496 -3.89959 0
M  V30 2291 H 210.03 -0.452596 -4.26204 0
M  V30 2292 H 214.214 -1.27491 -4.79645 0
M  V30 2293 H 209.47 -2.43034 -5.61021 0
M  V30 2294 H 213.644 -3.25158 -6.15829 0
M  V30 2295 H 211.271 -3.83516 -6.56368 0
M  V30 2296 N 212.846 1.57033 -0.133567 0
M  V30 2297 C 213.756 2.19632 0.824564 0
M  V30 2298 C 214.772 1.17666 1.28182 0
M  V30 2299 O 215.948 1.50193 1.3418 0
M  V30 2300 C 213.013 2.79499 2.05137 0
M  V30 2301 C 212.074 3.96548 1.64464 0
M  V30 2302 C 211.307 4.5355 2.81297 0
M  V30 2303 O 211.53 4.09438 3.97136 0
M  V30 2304 O 210.464 5.44018 2.57542 0
M  V30 2305 H 214.29 3.01991 0.321766 0
M  V30 2306 H 211.875 1.49112 0.0927889 0
M  V30 2307 H 213.757 3.17602 2.7696 0
M  V30 2308 H 212.432 2.00162 2.54395 0
M  V30 2309 H 211.339 3.63186 0.897048 0
M  V30 2310 H 212.672 4.77364 1.19934 0
M  V30 2311 N 214.325 -0.140222 1.56975 0
M  V30 2312 C 215.553 -0.866437 1.87884 0
M  V30 2313 C 215.968 -1.74428 0.722517 0
M  V30 2314 O 215.325 -1.79891 -0.30749 0
M  V30 2315 C 215.376 -1.71753 3.18093 0
M  V30 2316 O 215.097 -0.875056 4.29272 0
M  V30 2317 C 216.598 -2.55074 3.62563 0
M  V30 2318 H 213.818 -0.25019 0.622612 0
M  V30 2319 H 216.362 -0.130977 2.0408 0
M  V30 2320 H 214.517 -2.40598 3.03631 0
M  V30 2321 H 214.931 -1.46002 5.03769 0
M  V30 2322 H 216.405 -3.10356 4.5649 0
M  V30 2323 H 216.882 -3.31434 2.88181 0
M  V30 2324 H 217.488 -1.91509 3.79743 0
M  V30 2325 N 215.803 -1.52179 -0.40978 0
M  V30 2326 C 216.751 -1.76086 -1.51975 0
M  V30 2327 C 217.745 -0.627964 -1.57331 0
M  V30 2328 O 218.951 -0.809993 -1.60745 0
M  V30 2329 H 215.326 -0.556829 -0.505416 0
M  V30 2330 H 217.297 -2.69077 -1.28996 0
M  V30 2331 C 216.046 -1.92799 -2.8935 0
M  V30 2332 H 215.369 -2.79392 -2.85972 0
M  V30 2333 H 216.809 -2.13527 -3.66309 0
M  V30 2334 C 215.268 -0.694923 -3.29655 0
M  V30 2335 O 215.798 0.13751 -4.01465 0
M  V30 2336 N 214.004 -0.53101 -2.85707 0
M  V30 2337 H 213.551 -1.20952 -2.27439 0
M  V30 2338 H 213.509 0.292718 -3.13034 0
M  V30 2339 N 217.281 0.66697 -1.42791 0
M  V30 2340 C 218.697 0.981027 -1.25889 0
M  V30 2341 C 218.897 2.00793 -0.168695 0
M  V30 2342 O 217.953 2.48321 0.45747 0
M  V30 2343 C 219.266 1.47838 -2.61848 0
M  V30 2344 C 220.814 1.59575 -2.69267 0
M  V30 2345 C 221.289 2.12704 -4.05612 0
M  V30 2346 N 222.78 2.20026 -4.07606 0
M  V30 2347 C 223.515 2.62227 -5.09926 0
M  V30 2348 N 223.011 3.03824 -6.22626 0
M  V30 2349 N 224.804 2.62045 -4.97281 0
M  V30 2350 H 216.955 -0.0127891 -2.12396 0
M  V30 2351 H 219.218 0.0568258 -0.946295 0
M  V30 2352 H 218.924 0.798299 -3.4252 0
M  V30 2353 H 218.798 2.45579 -2.86305 0
M  V30 2354 H 221.185 2.26687 -1.88936 0
M  V30 2355 H 221.266 0.60302 -2.48591 0
M  V30 2356 H 220.91 1.46198 -4.86404 0
M  V30 2357 H 220.84 3.12782 -4.23645 0
M  V30 2358 H 223.331 1.90708 -3.2625 0
M  V30 2359 H 223.644 3.34734 -6.96544 0
M  V30 2360 H 221.989 3.01662 -6.26119 0
M  V30 2361 H 225.18 2.28916 -4.08308 0
M  V30 2362 H 225.353 2.94613 -5.77154 0
M  V30 2363 N 218.759 1.29093 0.90403 0
M  V30 2364 C 219.707 1.13727 2.02901 0
M  V30 2365 C 220.701 0.0539853 1.69314 0
M  V30 2366 O 221.907 0.213469 1.7873 0
M  V30 2367 H 218.282 0.35117 0.664969 0
M  V30 2368 H 220.253 2.08982 2.13001 0
M  V30 2369 C 219.002 0.826066 3.37745 0
M  V30 2370 H 218.325 1.65164 3.64089 0
M  V30 2371 H 219.765 0.758559 4.17159 0
M  V30 2372 C 218.224 -0.470541 3.33598 0
M  V30 2373 O 218.754 -1.49792 3.72727 0
M  V30 2374 N 216.96 -0.474812 2.86695 0
M  V30 2375 H 216.507 0.361692 2.55048 0
M  V30 2376 H 216.465 -1.34236 2.84303 0
M  V30 2377 N 220.237 -1.11381 1.11499 0
M  V30 2378 C 221.467 -1.86663 0.885464 0
M  V30 2379 C 221.875 -1.80464 -0.568281 0
M  V30 2380 O 221.218 -1.18445 -1.40415 0
M  V30 2381 C 221.28 -3.36337 1.26956 0
M  V30 2382 C 220.944 -3.66304 2.73259 0
M  V30 2383 C 221.941 -3.63733 3.71476 0
M  V30 2384 C 219.626 -3.9529 3.09921 0
M  V30 2385 C 221.62 -3.89725 5.04374 0
M  V30 2386 C 219.307 -4.20941 4.43004 0
M  V30 2387 C 220.305 -4.18147 5.40039 0
M  V30 2388 O 219.993 -4.43153 6.70724 0
M  V30 2389 H 219.725 -0.597114 0.316908 0
M  V30 2390 H 222.279 -1.41782 1.48617 0
M  V30 2391 H 220.509 -3.81826 0.611999 0
M  V30 2392 H 222.198 -3.92986 1.01573 0
M  V30 2393 H 222.964 -3.41389 3.44498 0
M  V30 2394 H 218.843 -3.966 2.35009 0
M  V30 2395 H 222.387 -3.8746 5.80104 0
M  V30 2396 H 218.284 -4.42761 4.69716 0
M  V30 2397 H 219.052 -4.60717 6.76522 0
M  V30 2398 N 221.715 -0.905404 -1.28997 0
M  V30 2399 C 222.992 -0.453513 -1.9027 0
M  V30 2400 C 223.372 1.06721 -1.82137 0
M  V30 2401 O 222.72 1.91159 -1.25182 0
M  V30 2402 C 222.93 -0.974494 -3.35119 0
M  V30 2403 C 224.278 -1.0216 -4.12127 0
M  V30 2404 O 225.302 -0.922557 -3.44046 0
M  V30 2405 O 224.161 -1.17121 -5.33802 0
M  V30 2406 H 221.255 -0.142347 -0.814657 0
M  V30 2407 H 223.801 -0.995642 -1.37423 0
M  V30 2408 H 222.573 -2.01848 -3.35221 0
M  V30 2409 H 222.196 -0.412706 -3.95452 0
M  V30 2410 N 223.193 1.4272 -0.668489 0
M  V30 2411 C 224.141 2.32586 0.0254857 0
M  V30 2412 C 225.135 1.49471 0.797176 0
M  V30 2413 O 226.341 1.65583 0.705853 0
M  V30 2414 H 222.716 0.751514 0.0270339 0
M  V30 2415 H 224.687 2.88823 -0.749936 0
M  V30 2416 C 223.436 3.3397 0.967427 0
M  V30 2417 H 222.759 3.97961 0.383048 0
M  V30 2418 H 224.199 3.9945 1.42181 0
M  V30 2419 C 222.658 2.65744 2.0708 0
M  V30 2420 O 223.188 2.48454 3.15648 0
M  V30 2421 N 221.394 2.2487 1.8407 0
M  V30 2422 H 220.941 2.39132 0.95778 0
M  V30 2423 H 220.899 1.79552 2.58086 0
M  V30 2424 N 224.671 0.411399 1.52136 0
M  V30 2425 C 225.918 -0.163645 2.01838 0
M  V30 2426 C 226.246 -1.4495 1.29691 0
M  V30 2427 O 225.501 -1.91725 0.392431 0
M  V30 2428 C 225.8 -0.455872 3.54481 0
M  V30 2429 C 225.466 0.741055 4.44769 0
M  V30 2430 C 224.128 1.06936 4.69167 0
M  V30 2431 C 226.48 1.54075 4.97906 0
M  V30 2432 C 223.808 2.19851 5.43951 0
M  V30 2433 C 226.16 2.66067 5.73926 0
M  V30 2434 C 224.824 2.99381 5.96596 0
M  V30 2435 H 224.094 -0.0598821 0.738576 0
M  V30 2436 H 226.741 0.553283 1.83333 0
M  V30 2437 H 225.046 -1.2544 3.71177 0
M  V30 2438 H 226.743 -0.913802 3.90449 0
M  V30 2439 H 223.333 0.475192 4.25958 0
M  V30 2440 H 227.517 1.30033 4.78963 0
M  V30 2441 H 222.773 2.46006 5.59724 0
M  V30 2442 H 226.947 3.28419 6.14096 0
M  V30 2443 H 224.574 3.86992 6.54325 0
M  V30 2444 N 226.149 -1.5696 0.141893 0
M  V30 2445 C 227.398 -1.95135 -0.510427 0
M  V30 2446 C 227.711 -1.02896 -1.66348 0
M  V30 2447 O 228.917 -1.30629 -2.38009 0
M  V30 2448 C 227.373 -3.46876 -0.959427 0
M  V30 2449 C 226.981 -4.47691 0.166419 0
M  V30 2450 C 228.725 -3.93927 -1.58183 0
M  V30 2451 C 226.632 -5.90636 -0.300565 0
M  V30 2452 H 225.562 -0.728494 -0.194454 0
M  V30 2453 H 228.213 -1.8211 0.22542 0
M  V30 2454 H 226.595 -3.55215 -1.75038 0
M  V30 2455 H 227.769 -4.51043 0.94325 0
M  V30 2456 H 226.084 -4.10527 0.696905 0
M  V30 2457 H 228.681 -4.98158 -1.94275 0
M  V30 2458 H 229.024 -3.3519 -2.46888 0
M  V30 2459 H 229.557 -3.88484 -0.855863 0
M  V30 2460 H 226.296 -6.5318 0.550989 0
M  V30 2461 H 225.816 -5.90655 -1.04338 0
M  V30 2462 H 227.495 -6.42588 -0.754265 0
M  V30 2463 N 227.627 0.131896 -1.57047 0
M  V30 2464 C 228.557 1.16384 -2.02428 0
M  V30 2465 C 229.538 1.43936 -0.90644 0
M  V30 2466 O 230.723 1.54599 -1.17528 0
M  V30 2467 C 227.853 2.49328 -2.4177 0
M  V30 2468 C 226.807 2.36266 -3.56879 0
M  V30 2469 C 226.133 3.74057 -3.8208 0
M  V30 2470 C 227.433 1.834 -4.89042 0
M  V30 2471 H 229.127 0.786433 -2.88887 0
M  V30 2472 H 226.673 0.376855 -1.38981 0
M  V30 2473 H 228.626 3.21759 -2.7212 0
M  V30 2474 H 227.35 2.88934 -1.52266 0
M  V30 2475 H 226.009 1.66286 -3.26718 0
M  V30 2476 H 225.657 4.11125 -2.89803 0
M  V30 2477 H 225.357 3.66174 -4.59554 0
M  V30 2478 H 226.881 4.48012 -4.1487 0
M  V30 2479 H 228.295 2.45636 -5.18011 0
M  V30 2480 H 226.692 1.8637 -5.70426 0
M  V30 2481 H 227.762 0.790662 -4.7841 0
M  V30 2482 N 229.106 1.52395 0.401703 0
M  V30 2483 C 230.331 1.70972 1.17403 0
M  V30 2484 C 230.756 0.421615 1.83314 0
M  V30 2485 O 230.114 -0.621564 1.70312 0
M  V30 2486 C 230.162 2.85151 2.20728 0
M  V30 2487 O 229.266 2.51238 3.27037 0
M  V30 2488 H 228.607 0.568927 0.342372 0
M  V30 2489 H 231.137 1.99131 0.469891 0
M  V30 2490 H 231.147 3.10279 2.64936 0
M  V30 2491 H 229.822 3.78603 1.7214 0
M  V30 2492 H 228.399 2.36808 2.88057 0
M  V30 2493 N 230.584 -0.659388 1.43143 0
M  V30 2494 C 231.531 -1.77249 1.47822 0
M  V30 2495 C 232.501 -1.62818 0.328558 0
M  V30 2496 O 233.686 -1.83151 0.534838 0
M  V30 2497 C 230.826 -3.15371 1.40126 0
M  V30 2498 C 229.939 -3.4098 2.65249 0
M  V30 2499 C 229.074 -4.68915 2.49584 0
M  V30 2500 C 228.113 -4.87608 3.70006 0
M  V30 2501 N 227.25 -6.06796 3.53189 0
M  V30 2502 H 232.09 -1.72584 2.42938 0
M  V30 2503 H 229.627 -0.842297 1.20598 0
M  V30 2504 H 231.585 -3.9521 1.33659 0
M  V30 2505 H 230.215 -3.19121 0.485964 0
M  V30 2506 H 229.267 -2.55282 2.8202 0
M  V30 2507 H 230.579 -3.50681 3.54717 0
M  V30 2508 H 229.733 -5.56871 2.4079 0
M  V30 2509 H 228.472 -4.61524 1.5763 0
M  V30 2510 H 227.477 -3.9809 3.79215 0
M  V30 2511 H 228.702 -4.96834 4.62961 0
M  V30 2512 H 226.648 -6.00549 2.63965 0
M  V30 2513 H 226.565 -6.17428 4.36255 0
M  V30 2514 H 227.833 -6.9739 3.48236 0
M  V30 2515 N 232.062 -1.29571 -0.897171 0
M  V30 2516 C 233.29 -1.20583 -1.68129 0
M  V30 2517 C 233.705 0.233181 -1.87354 0
M  V30 2518 O 233.062 1.15579 -1.41236 0
M  V30 2519 C 233.113 -1.91772 -3.06441 0
M  V30 2520 O 232.834 -3.30053 -2.88091 0
M  V30 2521 C 234.335 -1.89291 -4.00854 0
M  V30 2522 H 231.555 -0.417826 -0.525036 0
M  V30 2523 H 234.099 -1.70987 -1.12177 0
M  V30 2524 H 232.254 -1.45196 -3.59161 0
M  V30 2525 H 232.668 -3.65942 -3.75748 0
M  V30 2526 H 234.142 -2.43662 -4.95311 0
M  V30 2527 H 234.619 -0.869014 -4.30517 0
M  V30 2528 H 235.225 -2.35622 -3.54066 0
M  V30 2529 N 233.54 1.10788 -1.12088 0
M  V30 2530 C 234.488 2.19111 -0.780587 0
M  V30 2531 C 235.482 1.67818 0.230961 0
M  V30 2532 O 236.688 1.79777 0.0895427 0
M  V30 2533 H 233.063 0.714477 -0.234578 0
M  V30 2534 H 235.034 2.45055 -1.70266 0
M  V30 2535 C 233.783 3.46818 -0.24747 0
M  V30 2536 H 233.106 3.86646 -1.01712 0
M  V30 2537 H 234.546 4.23973 -0.0476291 0
M  V30 2538 C 233.005 3.20968 1.02378 0
M  V30 2539 O 233.535 3.42298 2.10226 0
M  V30 2540 N 231.741 2.74658 0.949271 0
M  V30 2541 H 231.288 2.57501 0.0715173 0
M  V30 2542 H 231.246 2.57739 1.80049 0
M  V30 2543 N 235.018 0.912232 1.28515 0
M  V30 2544 C 236.267 0.540504 1.94323 0
M  V30 2545 C 236.58 -0.920044 1.72611 0
M  V30 2546 O 237.786 -1.39986 2.32629 0
M  V30 2547 C 236.242 0.915803 3.48053 0
M  V30 2548 C 235.85 2.39598 3.78546 0
M  V30 2549 C 237.594 0.614588 4.20027 0
M  V30 2550 C 235.501 2.71148 5.25578 0
M  V30 2551 H 234.431 0.198418 0.727424 0
M  V30 2552 H 237.082 1.11094 1.46049 0
M  V30 2553 H 235.464 0.274168 3.9505 0
M  V30 2554 H 236.638 3.08422 3.42364 0
M  V30 2555 H 234.953 2.66749 3.1974 0
M  V30 2556 H 237.55 0.827002 5.28266 0
M  V30 2557 H 237.893 -0.447531 4.13887 0
M  V30 2558 H 238.426 1.21462 3.78803 0
M  V30 2559 H 235.165 3.76207 5.36794 0
M  V30 2560 H 234.685 2.0696 5.62963 0
M  V30 2561 H 236.364 2.58072 5.93302 0
M  V30 2562 N 236.496 -1.42363 0.676048 0
M  V30 2563 C 237.446 -2.27987 -0.0242903 0
M  V30 2564 C 238.43 -1.41153 -0.772319 0
M  V30 2565 O 239.622 -1.64592 -0.651025 0
M  V30 2566 C 236.751 -3.29195 -0.973953 0
M  V30 2567 C 235.837 -4.23512 -0.223202 0
M  V30 2568 N 236.228 -4.99865 0.772589 0
M  V30 2569 C 234.526 -4.43606 -0.461469 0
M  V30 2570 C 235.227 -5.68757 1.22027 0
M  V30 2571 N 234.203 -5.40811 0.549975 0
M  V30 2572 H 238.005 -2.84445 0.73949 0
M  V30 2573 H 235.519 -1.54341 0.50522 0
M  V30 2574 H 237.516 -3.89339 -1.49067 0
M  V30 2575 H 236.176 -2.74298 -1.73755 0
M  V30 2576 H 237.187 -5.04921 1.15217 0
M  V30 2577 H 233.864 -3.99749 -1.20446 0
M  V30 2578 H 235.254 -6.40007 2.0455 0
M  V30 2579 N 237.974 -0.419461 -1.51915 0
M  V30 2580 C 239.251 0.211999 -1.94448 0
M  V30 2581 C 239.631 1.61703 -1.35703 0
M  V30 2582 O 238.979 2.22102 -0.536931 0
M  V30 2583 C 239.189 0.207872 -3.4838 0
M  V30 2584 C 240.537 0.422192 -4.22496 0
M  V30 2585 O 241.561 0.286778 -3.55044 0
M  V30 2586 O 240.42 0.690009 -5.42126 0
M  V30 2587 H 237.514 0.139586 -0.815135 0
M  V30 2588 H 240.06 -0.476151 -1.62883 0
M  V30 2589 H 238.832 -0.775102 -3.83546 0
M  V30 2590 H 238.455 0.939688 -3.86336 0
M  V30 2591 N 239.452 1.56882 -0.150215 0
M  V30 2592 C 240.4 2.18214 0.805313 0
M  V30 2593 C 241.394 1.14006 1.25296 0
M  V30 2594 O 242.6 1.3225 1.22107 0
M  V30 2595 H 238.975 0.698762 0.277913 0
M  V30 2596 H 240.946 2.97231 0.263862 0
M  V30 2597 C 239.695 2.82065 2.03309 0
M  V30 2598 H 239.018 3.61968 1.69763 0
M  V30 2599 H 240.458 3.28477 2.68103 0
M  V30 2600 C 238.917 1.80739 2.84315 0
M  V30 2601 O 239.447 1.27983 3.80767 0
M  V30 2602 N 237.653 1.4997 2.48913 0
M  V30 2603 H 237.2 1.93062 1.70542 0
M  V30 2604 H 237.158 0.824217 3.03404 0
M  V30 2605 N 240.93 -0.123565 1.57115 0
M  V30 2606 C 242.178 -0.83051 1.84247 0
M  V30 2607 C 242.499 -1.80629 0.73471 0
M  V30 2608 O 241.769 -1.94403 -0.241688 0
M  V30 2609 H 240.349 -0.309694 0.679778 0
M  V30 2610 H 243.011 -0.111976 1.94578 0
M  V30 2611 H 242.107 -1.37852 2.80006 0
M  V30 2612 N 242.408 -1.52605 -0.393616 0
M  V30 2613 C 243.657 -1.66649 -1.13627 0
M  V30 2614 C 243.97 -0.410364 -1.91247 0
M  V30 2615 O 245.176 -0.430854 -2.68059 0
M  V30 2616 C 243.632 -2.9449 -2.06891 0
M  V30 2617 C 243.24 -4.27266 -1.34714 0
M  V30 2618 C 244.984 -3.17899 -2.81319 0
M  V30 2619 C 242.891 -5.46217 -2.26717 0
M  V30 2620 H 241.821 -0.62084 -0.427871 0
M  V30 2621 H 244.472 -1.791 -0.399428 0
M  V30 2622 H 242.854 -2.75774 -2.84191 0
M  V30 2623 H 244.028 -4.56518 -0.626714 0
M  V30 2624 H 242.343 -4.10081 -0.722643 0
M  V30 2625 H 244.94 -4.03949 -3.50328 0
M  V30 2626 H 245.283 -2.32777 -3.45139 0
M  V30 2627 H 245.816 -3.37159 -2.11113 0
M  V30 2628 H 242.555 -6.33733 -1.67521 0
M  V30 2629 H 242.075 -5.21283 -2.96689 0
M  V30 2630 H 243.754 -5.7991 -2.86903 0
M  V30 2631 N 243.887 0.651787 -1.4349 0
M  V30 2632 C 244.835 1.78586 -1.49029 0
M  V30 2633 C 245.829 1.65448 -0.363767 0
M  V30 2634 O 247.035 1.71777 -0.537821 0
M  V30 2635 H 243.41 0.589236 -0.467231 0
M  V30 2636 H 245.381 1.71035 -2.44519 0
M  V30 2637 C 244.13 3.16851 -1.43181 0
M  V30 2638 H 243.453 3.27598 -2.29171 0
M  V30 2639 H 244.893 3.96156 -1.51118 0
M  V30 2640 C 243.352 3.36568 -0.149616 0
M  V30 2641 O 243.882 3.93885 0.788509 0
M  V30 2642 N 242.088 2.90539 -0.0593484 0
M  V30 2643 H 241.635 2.4408 -0.823575 0
M  V30 2644 H 241.593 3.04108 0.797853 0
M  V30 2645 N 245.365 1.30045 0.890287 0
M  V30 2646 C 246.605 1.19839 1.65584 0
M  V30 2647 C 246.969 -0.244175 1.90441 0
M  V30 2648 O 248.17 -0.469378 2.6467 0
M  V30 2649 C 246.441 1.99876 2.96284 0
M  V30 2650 S 248 2.06309 3.87275 0
M  V30 2651 H 244.818 0.427157 0.568382 0
M  V30 2652 H 247.42 1.64453 1.05715 0
M  V30 2653 H 246.124 3.03809 2.75913 0
M  V30 2654 H 245.655 1.55903 3.61189 0
M  V30 2655 H 247.67 1.18661 4.81803 0
M  V30 2656 N 246.843 -1.10192 1.12674 0
M  V30 2657 C 247.773 -2.18652 0.819362 0
M  V30 2658 C 248.754 -1.68698 -0.217915 0
M  V30 2659 O 249.939 -1.94041 -0.0785581 0
M  V30 2660 C 247.069 -3.46202 0.27594 0
M  V30 2661 C 246.023 -4.09444 1.24656 0
M  V30 2662 C 245.349 -5.31725 0.563258 0
M  V30 2663 C 246.649 -4.52863 2.60217 0
M  V30 2664 H 248.343 -2.44622 1.72628 0
M  V30 2665 H 245.889 -1.17571 0.831451 0
M  V30 2666 H 247.842 -4.21372 0.0486149 0
M  V30 2667 H 246.566 -3.1973 -0.666331 0
M  V30 2668 H 245.225 -3.36284 1.45974 0
M  V30 2669 H 244.873 -5.0153 -0.384235 0
M  V30 2670 H 244.573 -5.74991 1.21075 0
M  V30 2671 H 246.097 -6.09624 0.34503 0
M  V30 2672 H 247.511 -5.19294 2.42913 0
M  V30 2673 H 245.908 -5.06986 3.21068 0
M  V30 2674 H 246.978 -3.65656 3.18471 0
M  V30 2675 N 248.321 -0.919034 -1.28029 0
M  V30 2676 C 249.231 -0.416756 -2.30869 0
M  V30 2677 C 250.247 0.498235 -1.66714 0
M  V30 2678 O 251.423 0.383144 -1.97722 0
M  V30 2679 C 248.488 0.330274 -3.45123 0
M  V30 2680 C 247.549 -0.618578 -4.2482 0
M  V30 2681 C 246.782 0.0928959 -5.33619 0
M  V30 2682 O 247.005 1.31375 -5.55065 0
M  V30 2683 O 245.939 -0.574499 -5.99152 0
M  V30 2684 H 249.765 -1.27043 -2.75851 0
M  V30 2685 H 247.35 -0.684052 -1.3282 0
M  V30 2686 H 249.232 0.751972 -4.14636 0
M  V30 2687 H 247.907 1.1597 -3.02213 0
M  V30 2688 H 246.814 -1.08978 -3.57875 0
M  V30 2689 H 248.147 -1.41497 -4.71423 0
M  V30 2690 N 249.799 1.42003 -0.683588 0
M  V30 2691 C 251.029 2.05448 -0.217866 0
M  V30 2692 C 251.437 1.51491 1.13346 0
M  V30 2693 O 250.78 0.653048 1.717 0
M  V30 2694 C 250.842 3.59399 -0.0850118 0
M  V30 2695 C 250.506 4.36093 -1.36645 0
M  V30 2696 C 251.503 4.66169 -2.30179 0
M  V30 2697 C 249.188 4.75578 -1.61649 0
M  V30 2698 C 251.182 5.34676 -3.46988 0
M  V30 2699 C 248.869 5.43824 -2.78745 0
M  V30 2700 C 249.867 5.73299 -3.71238 0
M  V30 2701 O 249.555 6.40142 -4.86285 0
M  V30 2702 H 249.287 0.668344 -0.101454 0
M  V30 2703 H 251.841 1.82974 -0.933248 0
M  V30 2704 H 250.071 3.80566 0.686031 0
M  V30 2705 H 251.76 4.04457 0.341973 0
M  V30 2706 H 252.526 4.36156 -2.12115 0
M  V30 2707 H 248.405 4.52025 -0.905243 0
M  V30 2708 H 251.949 5.57599 -4.19201 0
M  V30 2709 H 247.846 5.73254 -2.96732 0
M  V30 2710 H 248.614 6.58636 -4.85944 0
M  V30 2711 N 251.277 0.427512 1.51691 0
M  V30 2712 C 252.225 -0.403359 2.29076 0
M  V30 2713 C 253.219 -1.02962 1.34518 0
M  V30 2714 O 254.425 -0.965715 1.51901 0
M  V30 2715 H 250.8 -0.148879 0.737115 0
M  V30 2716 H 252.771 0.270295 2.97173 0
M  V30 2717 C 251.52 -1.49763 3.13794 0
M  V30 2718 H 250.843 -1.02508 3.86435 0
M  V30 2719 H 252.283 -2.05244 3.71014 0
M  V30 2720 C 250.742 -2.47536 2.28533 0
M  V30 2721 O 251.272 -3.51848 1.93819 0
M  V30 2722 N 249.478 -2.18187 1.91945 0
M  V30 2723 H 249.025 -1.33389 2.20375 0
M  V30 2724 H 248.983 -2.83848 1.35195 0
M  V30 2725 N 252.755 -1.56801 0.158532 0
M  V30 2726 C 254.171 -1.5837 -0.197774 0
M  V30 2727 C 254.371 -1.17334 -1.63814 0
M  V30 2728 O 253.427 -0.878988 -2.36707 0
M  V30 2729 C 254.74 -3.00615 0.0714459 0
M  V30 2730 C 256.288 -3.12999 0.00864533 0
M  V30 2731 C 256.763 -4.57313 0.250685 0
M  V30 2732 N 258.254 -4.62777 0.198014 0
M  V30 2733 C 258.989 -5.72271 0.359642 0
M  V30 2734 N 258.485 -6.90371 0.579625 0
M  V30 2735 N 260.278 -5.61318 0.296438 0
M  V30 2736 H 252.429 -1.81765 1.09887 0
M  V30 2737 H 254.692 -0.841849 0.435884 0
M  V30 2738 H 254.398 -3.35068 1.06874 0
M  V30 2739 H 254.272 -3.71683 -0.642757 0
M  V30 2740 H 256.659 -2.7838 -0.979217 0
M  V30 2741 H 256.74 -2.44393 0.755359 0
M  V30 2742 H 256.384 -4.92639 1.2357 0
M  V30 2743 H 256.314 -5.24061 -0.516489 0
M  V30 2744 H 258.805 -3.77885 0.0331115 0
M  V30 2745 H 259.118 -7.69689 0.69275 0
M  V30 2746 H 257.463 -6.92264 0.616087 0
M  V30 2747 H 260.654 -4.67932 0.125258 0
M  V30 2748 H 260.827 -6.46599 0.425831 0
M  V30 2749 N 254.233 0.115231 -1.57178 0
M  V30 2750 C 255.183 1.14707 -1.97044 0
M  V30 2751 C 256.167 1.36866 -0.845957 0
M  V30 2752 O 257.359 1.37895 -1.10968 0
M  V30 2753 C 254.488 2.47266 -2.38148 0
M  V30 2754 C 253.574 2.28566 -3.57237 0
M  V30 2755 N 253.965 1.79685 -4.72807 0
M  V30 2756 C 252.263 2.59208 -3.62943 0
M  V30 2757 C 252.964 1.74781 -5.54821 0
M  V30 2758 N 251.94 2.19264 -4.97417 0
M  V30 2759 H 255.742 0.761754 -2.83857 0
M  V30 2760 H 253.256 0.322928 -1.59157 0
M  V30 2761 H 255.253 3.219 -2.64927 0
M  V30 2762 H 253.913 2.86552 -1.52702 0
M  V30 2763 H 254.924 1.49177 -4.9595 0
M  V30 2764 H 251.601 3.02154 -2.88113 0
M  V30 2765 H 252.991 1.38212 -6.57531 0
M  V30 2766 N 255.711 1.52812 0.385517 0
M  V30 2767 C 256.658 1.77838 1.47113 0
M  V30 2768 C 257.628 0.621757 1.54024 0
M  V30 2769 O 258.813 0.861846 1.70226 0
M  V30 2770 C 255.953 1.95618 2.84302 0
M  V30 2771 C 255.066 3.23316 2.86515 0
M  V30 2772 C 254.201 3.31394 4.15152 0
M  V30 2773 C 253.24 4.53201 4.1143 0
M  V30 2774 N 252.377 4.58542 5.3168 0
M  V30 2775 H 257.217 2.70482 1.25073 0
M  V30 2776 H 254.754 1.34006 0.606692 0
M  V30 2777 H 256.712 2.03912 3.63972 0
M  V30 2778 H 255.342 1.06331 3.04784 0
M  V30 2779 H 254.394 3.24076 1.99195 0
M  V30 2780 H 255.706 4.13045 2.79634 0
M  V30 2781 H 254.86 3.3889 5.03228 0
M  V30 2782 H 253.599 2.39645 4.24761 0
M  V30 2783 H 252.604 4.45827 3.21742 0
M  V30 2784 H 253.829 5.46271 4.03442 0
M  V30 2785 H 251.775 3.69686 5.41912 0
M  V30 2786 H 251.692 5.42148 5.26889 0
M  V30 2787 H 252.96 4.70296 6.21644 0
M  V30 2788 N 257.189 -0.644168 1.43834 0
M  V30 2789 C 258.137 -1.77793 1.49974 0
M  V30 2790 C 259.131 -1.65253 0.372536 0
M  V30 2791 O 260.337 -1.7149 0.546924 0
M  V30 2792 H 256.712 -0.58675 0.47035 0
M  V30 2793 H 258.683 -1.69736 2.45423 0
M  V30 2794 C 257.432 -3.16087 1.4486 0
M  V30 2795 H 256.755 -3.26378 2.30905 0
M  V30 2796 H 258.195 -3.95349 1.53217 0
M  V30 2797 C 256.654 -3.36484 0.167463 0
M  V30 2798 O 257.184 -3.94298 -0.767609 0
M  V30 2799 N 255.39 -2.90504 0.0747556 0
M  V30 2800 H 254.937 -2.4364 0.836507 0
M  V30 2801 H 254.895 -3.04527 -0.781714 0
M  V30 2802 N 258.668 -1.30515 -0.883378 0
M  V30 2803 C 259.616 -1.16941 -2.01066 0
M  V30 2804 C 260.61 -0.0809148 -1.69207 0
M  V30 2805 O 261.816 -0.241877 -1.78367 0
M  V30 2806 H 258.191 -0.361705 -0.659298 0
M  V30 2807 H 260.162 -2.12344 -2.09649 0
M  V30 2808 C 258.911 -0.879694 -3.36388 0
M  V30 2809 H 258.234 -1.70936 -3.61415 0
M  V30 2810 H 259.674 -0.82483 -4.159 0
M  V30 2811 C 258.133 0.417409 -3.34304 0
M  V30 2812 O 258.663 1.43843 -3.75063 0
M  V30 2813 N 256.869 0.429141 -2.87414 0
M  V30 2814 H 256.416 -0.402222 -2.5444 0
M  V30 2815 H 256.374 1.29696 -2.86403 0
M  V30 2816 N 260.146 1.09593 -1.13257 0
M  V30 2817 C 261.076 2.18214 -0.830946 0
M  V30 2818 C 262.057 1.68812 0.208966 0
M  V30 2819 O 263.242 1.9408 0.0682666 0
M  V30 2820 C 260.372 3.46051 -0.294296 0
M  V30 2821 C 259.326 4.08778 -1.26826 0
M  V30 2822 C 258.652 5.31419 -0.591449 0
M  V30 2823 C 259.952 4.51476 -2.62615 0
M  V30 2824 H 261.646 2.43703 -1.73923 0
M  V30 2825 H 259.192 1.17128 -0.837675 0
M  V30 2826 H 261.145 4.2134 -0.0709606 0
M  V30 2827 H 259.869 3.20079 0.649366 0
M  V30 2828 H 258.528 3.35505 -1.47756 0
M  V30 2829 H 258.176 5.01727 0.357633 0
M  V30 2830 H 257.876 5.74341 -1.24123 0
M  V30 2831 H 259.4 6.09433 -0.377355 0
M  V30 2832 H 260.814 5.17999 -2.45663 0
M  V30 2833 H 259.211 5.05277 -3.23752 0
M  V30 2834 H 260.281 3.63962 -3.20406 0
M  V30 2835 N 261.624 0.925811 1.2754 0
M  V30 2836 C 262.873 0.561084 1.93739 0
M  V30 2837 C 263.186 -0.901685 1.73577 0
M  V30 2838 O 264.392 -1.37511 2.34101 0
M  V30 2839 C 262.848 0.952668 3.47062 0
M  V30 2840 C 262.456 2.43599 3.75983 0
M  V30 2841 C 264.2 0.659103 4.19352 0
M  V30 2842 C 262.107 2.76707 5.22673 0
M  V30 2843 H 261.037 0.206122 0.725279 0
M  V30 2844 H 263.688 1.12637 1.44863 0
M  V30 2845 H 262.07 0.316053 3.94737 0
M  V30 2846 H 263.244 3.12035 3.39073 0
M  V30 2847 H 261.559 2.70125 3.16893 0
M  V30 2848 H 264.156 0.882985 5.27359 0
M  V30 2849 H 264.499 -0.403607 4.14339 0
M  V30 2850 H 265.032 1.25473 3.77494 0
M  V30 2851 H 261.771 3.8188 5.32774 0
M  V30 2852 H 261.291 2.12919 5.60737 0
M  V30 2853 H 262.97 2.6435 5.90532 0
M  V30 2854 N 263.102 -1.41638 0.69111 0
M  V30 2855 C 264.065 -2.29178 0.0319786 0
M  V30 2856 C 265.065 -1.44153 -0.712496 0
M  V30 2857 O 266.255 -1.65354 -0.548053 0
M  V30 2858 C 263.387 -3.26952 -0.965161 0
M  V30 2859 H 264.58 -2.88959 0.802681 0
M  V30 2860 H 262.133 -1.4955 0.454356 0
M  V30 2861 H 262.868 -2.72142 -1.76378 0
M  V30 2862 H 262.653 -3.89685 -0.434522 0
M  V30 2863 H 264.143 -3.92561 -1.42428 0
M  V30 2864 N 264.58 -0.43555 -1.51462 0
M  V30 2865 C 265.808 0.130242 -2.0649 0
M  V30 2866 C 266.223 1.36614 -1.30315 0
M  V30 2867 O 265.58 1.78869 -0.362223 0
M  V30 2868 C 265.631 0.454253 -3.58635 0
M  V30 2869 O 265.352 -0.73259 -4.31931 0
M  V30 2870 C 266.853 1.07091 -4.3017 0
M  V30 2871 H 264.073 0.00871669 -0.670943 0
M  V30 2872 H 266.617 -0.614117 -1.95061 0
M  V30 2873 H 264.772 1.14851 -3.69984 0
M  V30 2874 H 265.186 -0.455787 -5.22516 0
M  V30 2875 H 266.66 1.24764 -5.37716 0
M  V30 2876 H 267.137 2.05144 -3.88346 0
M  V30 2877 H 267.743 0.416089 -4.2326 0
M  V30 2878 N 266.058 1.56714 -0.166846 0
M  V30 2879 C 267.306 1.96358 0.478305 0
M  V30 2880 C 267.627 1.0537 1.6408 0
M  V30 2881 O 266.897 0.119154 1.95537 0
M  V30 2882 H 265.477 0.725065 0.179692 0
M  V30 2883 H 268.139 1.93329 -0.246985 0
M  V30 2884 H 267.235 3.00547 0.841292 0
M  V30 2885 N 267.536 -0.106894 1.57237 0
M  V30 2886 C 268.784 -0.810921 1.85117 0
M  V30 2887 C 269.105 -1.7984 0.753827 0
M  V30 2888 O 268.375 -1.94649 -0.221056 0
M  V30 2889 H 266.955 -0.302466 0.683025 0
M  V30 2890 H 269.617 -0.0913324 1.94686 0
M  V30 2891 H 268.713 -1.34875 2.81452 0
M  V30 2892 N 269.014 -1.53014 -0.377408 0
M  V30 2893 C 269.962 -1.7927 -1.48206 0
M  V30 2894 C 270.956 -0.661195 -1.55963 0
M  V30 2895 O 272.162 -0.843908 -1.58991 0
M  V30 2896 H 268.537 -0.567425 -0.493491 0
M  V30 2897 H 270.508 -2.71753 -1.2326 0
M  V30 2898 C 269.257 -1.98894 -2.85196 0
M  V30 2899 H 268.58 -2.85395 -2.79981 0
M  V30 2900 H 270.02 -2.21249 -3.61698 0
M  V30 2901 C 268.479 -0.764691 -3.28107 0
M  V30 2902 O 269.009 0.0523226 -4.01666 0
M  V30 2903 N 267.215 -0.591493 -2.84517 0
M  V30 2904 H 266.762 -1.25749 -2.24822 0
M  V30 2905 H 266.72 0.226253 -3.13585 0
M  V30 2906 N 270.492 0.636531 -1.44174 0
M  V30 2907 C 271.769 1.39463 -1.37148 0
M  V30 2908 C 272.149 2.11082 -0.027507 0
M  V30 2909 O 271.497 2.05954 0.989716 0
M  V30 2910 C 271.707 2.36552 -2.56601 0
M  V30 2911 C 273.055 3.00048 -3.00427 0
M  V30 2912 O 274.079 2.46878 -2.56767 0
M  V30 2913 O 272.938 3.96488 -3.76111 0
M  V30 2914 H 270.032 0.623903 -0.542839 0
M  V30 2915 H 272.578 0.662039 -1.56253 0
M  V30 2916 H 271.35 1.82692 -3.46034 0
M  V30 2917 H 270.973 3.17236 -2.39681 0
M  V30 2918 N 271.97 1.30982 0.876444 0
M  V30 2919 C 273.218 1.20058 1.62575 0
M  V30 2920 C 273.539 -0.242947 1.93481 0
M  V30 2921 O 272.809 -1.1619 1.57724 0
M  V30 2922 H 271.389 0.44135 0.602677 0
M  V30 2923 H 274.051 1.64222 1.04962 0
M  V30 2924 H 273.147 1.76762 2.57219 0
M  V30 2925 N 273.449 -1.08991 1.13837 0
M  V30 2926 C 274.381 -2.15606 0.777612 0
M  V30 2927 C 275.394 -1.61533 -0.202739 0
M  V30 2928 O 276.583 -1.78491 0.0181055 0
M  V30 2929 C 273.683 -3.3864 0.132623 0
M  V30 2930 C 272.856 -4.22115 1.1462 0
M  V30 2931 C 271.915 -5.23564 0.526074 0
M  V30 2932 O 270.941 -5.56678 1.18735 0
M  V30 2933 N 272.143 -5.76266 -0.699866 0
M  V30 2934 H 274.908 -2.47159 1.69506 0
M  V30 2935 H 272.469 -1.24747 1.03198 0
M  V30 2936 H 274.461 -4.03626 -0.29459 0
M  V30 2937 H 273.031 -3.04938 -0.687849 0
M  V30 2938 H 272.251 -3.53199 1.75055 0
M  V30 2939 H 273.539 -4.74709 1.83109 0
M  V30 2940 H 272.937 -5.51585 -1.25581 0
M  V30 2941 H 271.494 -6.42963 -1.06968 0
M  V30 2942 N 274.927 -0.932562 -1.27047 0
M  V30 2943 C 275.857 -0.452902 -2.29066 0
M  V30 2944 C 276.838 0.489338 -1.62909 0
M  V30 2945 O 278.023 0.393046 -1.90181 0
M  V30 2946 C 275.153 0.290698 -3.46081 0
M  V30 2947 C 274.107 -0.564168 -4.24265 0
M  V30 2948 C 273.433 0.308886 -5.33807 0
M  V30 2949 C 274.733 -1.83112 -4.89149 0
M  V30 2950 H 276.427 -1.30552 -2.69437 0
M  V30 2951 H 273.973 -0.629201 -1.29526 0
M  V30 2952 H 275.926 0.637233 -4.16554 0
M  V30 2953 H 274.65 1.17738 -3.0464 0
M  V30 2954 H 273.309 -0.893477 -3.55545 0
M  V30 2955 H 272.957 1.19467 -4.88607 0
M  V30 2956 H 272.657 -0.259633 -5.87026 0
M  V30 2957 H 274.181 0.650884 -6.07121 0
M  V30 2958 H 275.595 -1.55236 -5.51883 0
M  V30 2959 H 273.992 -2.34353 -5.52448 0
M  V30 2960 H 275.062 -2.54772 -4.12576 0
M  V30 2961 N 276.405 1.4127 -0.698611 0
M  V30 2962 C 277.652 2.0118 -0.230865 0
M  V30 2963 C 277.98 1.55338 1.17049 0
M  V30 2964 O 277.235 0.756775 1.80475 0
M  V30 2965 C 277.534 3.56592 -0.240192 0
M  V30 2966 C 277.2 4.21955 -1.58948 0
M  V30 2967 C 275.862 4.39524 -1.95887 0
M  V30 2968 C 278.214 4.58576 -2.47704 0
M  V30 2969 C 275.542 4.90992 -3.2116 0
M  V30 2970 C 277.894 5.11435 -3.72313 0
M  V30 2971 C 276.558 5.27215 -4.0939 0
M  V30 2972 H 275.828 0.736169 -0.0844796 0
M  V30 2973 H 278.475 1.69124 -0.8983 0
M  V30 2974 H 276.78 3.88456 0.510797 0
M  V30 2975 H 278.477 4.00758 0.139296 0
M  V30 2976 H 275.067 4.08657 -1.29219 0
M  V30 2977 H 279.251 4.44654 -2.20445 0
M  V30 2978 H 274.507 5.01393 -3.49878 0
M  V30 2979 H 278.681 5.38752 -4.4127 0
M  V30 2980 H 276.308 5.66859 -5.06533 0
M  V30 2981 N 277.883 0.443576 1.51229 0
M  V30 2982 C 279.132 -0.122332 2.01329 0
M  V30 2983 C 279.445 -1.43237 1.33201 0
M  V30 2984 O 280.651 -2.0816 1.74304 0
M  V30 2985 C 279.107 -0.268551 3.58897 0
M  V30 2986 C 278.715 1.03142 4.35965 0
M  V30 2987 C 280.459 -0.787894 4.17124 0
M  V30 2988 C 278.366 0.850504 5.85252 0
M  V30 2989 H 277.296 -0.0494929 0.752374 0
M  V30 2990 H 279.947 0.574289 1.74282 0
M  V30 2991 H 278.329 -1.02832 3.82415 0
M  V30 2992 H 279.503 1.80001 4.24189 0
M  V30 2993 H 277.818 1.47977 3.89219 0
M  V30 2994 H 280.415 -0.939841 5.26375 0
M  V30 2995 H 280.758 -1.77201 3.76703 0
M  V30 2996 H 281.291 -0.0862669 3.97706 0
M  V30 2997 H 278.03 1.80718 6.30096 0
M  V30 2998 H 277.55 0.121825 5.99676 0
M  V30 2999 H 279.229 0.506163 6.45017 0
M  V30 3000 N 279.361 -1.56624 0.175154 0
M  V30 3001 C 280.589 -2.01374 -0.474971 0
M  V30 3002 C 281.004 -1.05537 -1.56548 0
M  V30 3003 O 280.361 -0.0568668 -1.82411 0
M  V30 3004 C 280.412 -3.45923 -1.04975 0
M  V30 3005 O 280.133 -4.381 -0.00276605 0
M  V30 3006 C 281.634 -4.06093 -1.77773 0
M  V30 3007 H 278.854 -0.659962 -0.121206 0
M  V30 3008 H 281.398 -2.02601 0.27801 0
M  V30 3009 H 279.553 -3.45458 -1.75321 0
M  V30 3010 H 279.967 -5.22753 -0.427681 0
M  V30 3011 H 281.441 -5.09147 -2.13245 0
M  V30 3012 H 281.918 -3.48405 -2.67414 0
M  V30 3013 H 282.524 -4.10272 -1.12059 0
M  V30 3014 N 280.839 0.0985539 -1.57292 0
M  V30 3015 C 282.116 0.834155 -1.76921 0
M  V30 3016 C 282.496 1.97101 -0.755928 0
M  V30 3017 O 281.844 2.27474 0.216245 0
M  V30 3018 C 282.054 1.33194 -3.22584 0
M  V30 3019 C 283.402 1.77611 -3.85668 0
M  V30 3020 O 284.426 1.42825 -3.26312 0
M  V30 3021 O 283.285 2.4192 -4.90038 0
M  V30 3022 H 280.379 0.397628 -0.725135 0
M  V30 3023 H 282.925 0.0807044 -1.69508 0
M  V30 3024 H 281.697 0.517248 -3.87866 0
M  V30 3025 H 281.32 2.1475 -3.34616 0
M  V30 3026 N 282.317 1.53212 0.369288 0
M  V30 3027 C 283.566 1.68436 1.10961 0
M  V30 3028 C 283.879 0.440738 1.9057 0
M  V30 3029 O 285.085 0.473446 2.6734 0
M  V30 3030 C 283.541 2.97744 2.0218 0
M  V30 3031 C 283.149 4.29355 1.279 0
M  V30 3032 C 284.893 3.22334 2.76226 0
M  V30 3033 C 282.8 5.49755 2.17999 0
M  V30 3034 H 281.73 0.627568 0.41794 0
M  V30 3035 H 284.381 1.79713 0.370884 0
M  V30 3036 H 282.763 2.8026 2.79768 0
M  V30 3037 H 283.937 4.57458 0.554007 0
M  V30 3038 H 282.252 4.11179 0.657311 0
M  V30 3039 H 284.849 4.09471 3.43857 0
M  V30 3040 H 285.192 2.38238 3.41392 0
M  V30 3041 H 285.725 3.40475 2.05723 0
M  V30 3042 H 282.464 6.36318 1.57417 0
M  V30 3043 H 281.984 5.25937 2.88359 0
M  V30 3044 H 283.663 5.84401 2.77641 0
M  V30 3045 N 283.795 -0.628877 1.44509 0
M  V30 3046 C 284.705 -1.7694 1.54044 0
M  V30 3047 C 285.721 -1.68705 0.425987 0
M  V30 3048 O 286.897 -1.89442 0.683656 0
M  V30 3049 C 283.962 -3.13332 1.48405 0
M  V30 3050 C 283.023 -3.33181 2.70719 0
M  V30 3051 C 282.256 -4.63067 2.6534 0
M  V30 3052 O 282.479 -5.44017 1.71469 0
M  V30 3053 O 281.413 -4.85167 3.56226 0
M  V30 3054 H 285.239 -1.71848 2.50403 0
M  V30 3055 H 282.824 -0.790378 1.26781 0
M  V30 3056 H 284.706 -3.94634 1.47791 0
M  V30 3057 H 283.381 -3.1896 0.551898 0
M  V30 3058 H 282.288 -2.51549 2.769 0
M  V30 3059 H 283.621 -3.32416 3.62988 0
M  V30 3060 N 285.273 -1.31445 -0.869486 0
M  V30 3061 C 286.221 -1.19067 -1.99814 0
M  V30 3062 C 287.215 -0.0988569 -1.69111 0
M  V30 3063 O 288.421 -0.260781 -1.78101 0
M  V30 3064 H 284.796 -0.368677 -0.655425 0
M  V30 3065 H 286.767 -2.14555 -2.07385 0
M  V30 3066 C 285.516 -0.915323 -3.35436 0
M  V30 3067 H 284.839 -1.74759 -3.59582 0
M  V30 3068 H 286.279 -0.868895 -4.15001 0
M  V30 3069 C 284.738 0.381928 -3.34728 0
M  V30 3070 O 285.268 1.39857 -3.76567 0
M  V30 3071 N 283.474 0.398633 -2.87853 0
M  V30 3072 H 283.021 -0.429186 -2.54 0
M  V30 3073 H 282.979 1.26651 -2.87762 0
M  V30 3074 N 286.751 1.08385 -1.14413 0
M  V30 3075 C 287.681 2.17321 -0.854044 0
M  V30 3076 C 288.662 1.69024 0.191049 0
M  V30 3077 O 289.847 1.94141 0.0476779 0
M  V30 3078 C 286.977 3.45719 -0.330983 0
M  V30 3079 C 285.931 4.07409 -1.31155 0
M  V30 3080 C 285.257 5.30762 -0.64778 0
M  V30 3081 C 286.557 4.48665 -2.67388 0
M  V30 3082 H 288.251 2.41845 -1.76498 0
M  V30 3083 H 285.797 1.16233 -0.850051 0
M  V30 3084 H 287.75 4.21241 -0.115645 0
M  V30 3085 H 286.474 3.2075 0.615381 0
M  V30 3086 H 285.133 3.33919 -1.51306 0
M  V30 3087 H 284.781 5.02078 0.304398 0
M  V30 3088 H 284.481 5.72992 -1.30207 0
M  V30 3089 H 286.005 6.08998 -0.441972 0
M  V30 3090 H 287.419 5.15364 -2.51143 0
M  V30 3091 H 285.816 5.01814 -3.29093 0
M  V30 3092 H 286.886 3.60543 -3.24248 0
M  V30 3093 N 288.23 0.939286 1.26551 0
M  V30 3094 C 289.46 0.601663 1.97645 0
M  V30 3095 C 289.868 -0.827206 1.70159 0
M  V30 3096 O 289.211 -1.56291 0.965338 0
M  V30 3097 C 289.273 0.761725 3.51337 0
M  V30 3098 C 288.937 2.16487 4.0247 0
M  V30 3099 C 289.934 3.14016 4.14355 0
M  V30 3100 C 287.619 2.48494 4.36527 0
M  V30 3101 C 289.613 4.41654 4.59587 0
M  V30 3102 C 287.3 3.76364 4.81449 0
M  V30 3103 C 288.298 4.72758 4.92939 0
M  V30 3104 O 287.986 5.98352 5.36871 0
M  V30 3105 H 287.718 0.225758 0.637189 0
M  V30 3106 H 290.272 1.26178 1.62075 0
M  V30 3107 H 288.502 0.0444808 3.86674 0
M  V30 3108 H 290.191 0.427442 4.03643 0
M  V30 3109 H 290.957 2.90613 3.8829 0
M  V30 3110 H 286.836 1.74202 4.26819 0
M  V30 3111 H 290.38 5.16896 4.68471 0
M  V30 3112 H 286.277 3.99582 5.06956 0
M  V30 3113 H 287.045 6.01507 5.55096 0
M  V30 3114 N 289.708 -1.40897 0.706093 0
M  V30 3115 C 290.933 -2.05895 0.249435 0
M  V30 3116 C 291.358 -1.52823 -1.09666 0
M  V30 3117 O 290.716 -0.659589 -1.68876 0
M  V30 3118 C 290.764 -3.59872 0.22904 0
M  V30 3119 O 289.868 -4.04708 -0.792784 0
M  V30 3120 H 289.209 -0.653206 0.119241 0
M  V30 3121 H 291.739 -1.80471 0.96391 0
M  V30 3122 H 291.749 -4.07951 0.0634791 0
M  V30 3123 H 290.424 -3.97866 1.21141 0
M  V30 3124 H 289.001 -3.68111 -0.59572 0
M  V30 3125 N 291.186 -0.45159 -1.50991 0
M  V30 3126 C 292.597 0.00818571 -1.86698 0
M  V30 3127 C 292.948 1.40661 -1.3678 0
M  V30 3128 O 292.073 2.0391 -0.724546 0
M  V30 3129 C 292.668 0.0216303 -3.38793 0
M  V30 3130 C 291.227 0.425865 -3.73983 0
M  V30 3131 C 290.374 -0.372163 -2.74791 0
M  V30 3132 H 293.325 -0.666785 -1.44013 0
M  V30 3133 H 293.346 0.828078 -3.7138 0
M  V30 3134 H 292.858 -0.996288 -3.75094 0
M  V30 3135 H 290.959 1.44886 -3.43277 0
M  V30 3136 H 291.072 0.140761 -4.78893 0
M  V30 3137 H 289.436 0.171498 -2.54122 0
M  V30 3138 H 290.219 -1.38922 -3.13935 0
M  V30 3139 N 292.664 1.56529 -0.183458 0
M  V30 3140 C 293.892 2.01623 0.464285 0
M  V30 3141 C 294.307 1.06366 1.55986 0
M  V30 3142 O 293.664 0.0665398 1.82379 0
M  V30 3143 C 293.715 3.46475 1.03139 0
M  V30 3144 O 293.436 4.38095 -0.0204675 0
M  V30 3145 C 294.937 4.0703 1.75617 0
M  V30 3146 H 292.157 0.660596 0.117704 0
M  V30 3147 H 294.701 2.02451 -0.288751 0
M  V30 3148 H 292.856 3.46383 1.73486 0
M  V30 3149 H 293.27 5.22973 0.399952 0
M  V30 3150 H 294.744 5.10271 2.10542 0
M  V30 3151 H 295.221 3.49819 2.65563 0
M  V30 3152 H 295.827 4.1086 1.09882 0
M  V30 3153 N 294.142 -0.090211 1.57342 0
M  V30 3154 C 295.367 -0.810082 1.90925 0
M  V30 3155 C 295.792 -1.71248 0.778187 0
M  V30 3156 O 295.15 -1.79278 -0.269991 0
M  V30 3157 C 295.198 -1.59529 3.23393 0
M  V30 3158 O 294.302 -2.70461 3.11327 0
M  V30 3159 H 293.643 -0.222231 0.625707 0
M  V30 3160 H 296.173 -0.0639716 2.045 0
M  V30 3161 H 296.183 -1.97847 3.5682 0
M  V30 3162 H 294.858 -0.933055 4.05299 0
M  V30 3163 H 293.435 -2.35135 2.89423 0
M  V30 3164 N 295.62 -1.53406 -0.361157 0
M  V30 3165 C 296.85 -1.73465 -1.1222 0
M  V30 3166 C 297.258 -0.465486 -1.83384 0
M  V30 3167 O 296.601 0.571611 -1.7458 0
M  V30 3168 C 296.663 -2.84834 -2.19339 0
M  V30 3169 C 296.327 -4.25038 -1.67903 0
M  V30 3170 C 297.324 -5.07231 -1.14074 0
M  V30 3171 C 295.009 -4.71464 -1.73282 0
M  V30 3172 C 297.003 -6.33942 -0.663068 0
M  V30 3173 C 294.69 -5.98153 -1.25127 0
M  V30 3174 C 295.688 -6.79223 -0.717296 0
M  V30 3175 O 295.376 -8.03533 -0.242865 0
M  V30 3176 H 295.108 -0.583526 -0.341283 0
M  V30 3177 H 297.662 -2.00964 -0.424591 0
M  V30 3178 H 295.892 -2.5282 -2.92607 0
M  V30 3179 H 297.581 -2.9303 -2.80871 0
M  V30 3180 H 298.347 -4.72534 -1.09254 0
M  V30 3181 H 294.226 -4.08432 -2.13786 0
M  V30 3182 H 297.77 -6.97167 -0.245612 0
M  V30 3183 H 293.667 -6.32347 -1.29642 0
M  V30 3184 H 294.435 -8.177 -0.361786 0
M  V30 3185 N 297.098 0.621204 -1.44841 0
M  V30 3186 C 298.375 1.38 -1.38619 0
M  V30 3187 C 298.755 2.11041 -0.0498935 0
M  V30 3188 O 298.103 2.06992 0.967816 0
M  V30 3189 C 298.313 2.33817 -2.59096 0
M  V30 3190 C 299.661 2.96844 -3.03593 0
M  V30 3191 O 300.685 2.44141 -2.59371 0
M  V30 3192 O 299.544 3.92476 -3.80296 0
M  V30 3193 H 296.638 0.61811 -0.549426 0
M  V30 3194 H 299.184 0.645429 -1.56947 0
M  V30 3195 H 297.956 1.79012 -3.47952 0
M  V30 3196 H 297.579 3.14676 -2.43032 0
M  V30 3197 N 298.576 1.31904 0.862503 0
M  V30 3198 C 299.987 1.19803 1.43193 0
M  V30 3199 C 300.338 -0.192567 1.95253 0
M  V30 3200 O 299.463 -1.09081 1.86896 0
M  V30 3201 C 300.058 2.16883 2.60283 0
M  V30 3202 C 298.617 2.08692 3.13248 0
M  V30 3203 C 297.764 2.05691 1.85975 0
M  V30 3204 H 300.715 1.43846 0.670365 0
M  V30 3205 H 300.736 1.76278 3.37204 0
M  V30 3206 H 300.248 3.18083 2.22363 0
M  V30 3207 H 298.349 1.10713 3.55771 0
M  V30 3208 H 298.462 2.9815 3.75025 0
M  V30 3209 H 296.826 1.50814 2.05249 0
M  V30 3210 H 297.609 3.08659 1.50282 0
M  V30 3211 N 300.054 -1.07777 1.14986 0
M  V30 3212 C 301.284 -1.83752 0.944402 0
M  V30 3213 C 301.692 -1.8218 -0.51058 0
M  V30 3214 O 301.035 -1.22852 -1.36576 0
M  V30 3215 C 301.097 -3.32128 1.37592 0
M  V30 3216 C 300.761 -3.57425 2.84775 0
M  V30 3217 C 301.758 -3.5173 3.8286 0
M  V30 3218 C 299.443 -3.8523 3.2234 0
M  V30 3219 C 301.437 -3.73482 5.16517 0
M  V30 3220 C 299.124 -4.06634 4.56171 0
M  V30 3221 C 300.122 -4.00754 5.53069 0
M  V30 3222 O 299.81 -4.2159 6.84483 0
M  V30 3223 H 299.542 -0.58673 0.335744 0
M  V30 3224 H 302.096 -1.36982 1.53052 0
M  V30 3225 H 300.326 -3.79686 0.733165 0
M  V30 3226 H 302.015 -3.89555 1.14024 0
M  V30 3227 H 302.781 -3.30256 3.55184 0
M  V30 3228 H 298.66 -3.88923 2.47508 0
M  V30 3229 H 302.204 -3.68808 5.92137 0
M  V30 3230 H 298.101 -4.27593 4.83564 0
M  V30 3231 H 298.869 -4.38961 6.90837 0
M  V30 3232 N 301.532 -0.945985 -1.26051 0
M  V30 3233 C 302.462 -0.477172 -2.28572 0
M  V30 3234 C 303.443 0.472032 -1.63419 0
M  V30 3235 O 304.628 0.372853 -1.90587 0
M  V30 3236 C 301.758 0.253975 -3.4637 0
M  V30 3237 C 300.712 -0.609135 -4.23643 0
M  V30 3238 C 300.038 0.252252 -5.34105 0
M  V30 3239 C 301.338 -1.8829 -4.8718 0
M  V30 3240 H 303.032 -1.33402 -2.68038 0
M  V30 3241 H 300.578 -0.642904 -1.28852 0
M  V30 3242 H 302.531 0.593016 -4.17207 0
M  V30 3243 H 301.255 1.145 -3.05871 0
M  V30 3244 H 299.914 -0.931138 -3.54578 0
M  V30 3245 H 299.562 1.14278 -4.89846 0
M  V30 3246 H 299.262 -0.32188 -5.86718 0
M  V30 3247 H 300.786 0.586454 -6.07777 0
M  V30 3248 H 302.2 -1.61081 -5.50205 0
M  V30 3249 H 300.597 -2.40199 -5.49931 0
M  V30 3250 H 301.667 -2.59134 -4.09851 0
M  V30 3251 N 303.011 1.40521 -0.713556 0
M  V30 3252 C 304.288 1.94775 -0.17943 0
M  V30 3253 C 304.668 1.65184 1.31444 0
M  V30 3254 O 304.016 0.968429 2.06963 0
M  V30 3255 C 304.226 3.45543 -0.489986 0
M  V30 3256 C 305.574 4.22442 -0.427536 0
M  V30 3257 O 306.598 3.53644 -0.425929 0
M  V30 3258 O 305.457 5.4501 -0.403292 0
M  V30 3259 H 302.551 0.826606 -0.0255192 0
M  V30 3260 H 305.097 1.5014 -0.790949 0
M  V30 3261 H 303.869 3.60432 -1.5233 0
M  V30 3262 H 303.492 3.97311 0.151598 0
M  V30 3263 N 304.489 0.459591 1.5075 0
M  V30 3264 C 305.436 -0.340524 2.28274 0
M  V30 3265 C 306.406 -0.997371 1.32822 0
M  V30 3266 O 307.591 -1.01202 1.61749 0
M  V30 3267 C 304.731 -1.42317 3.14388 0
M  V30 3268 C 303.844 -0.782251 4.24859 0
M  V30 3269 C 302.979 -1.84182 4.98247 0
M  V30 3270 C 302.018 -1.18053 6.00608 0
M  V30 3271 N 301.155 -2.18244 6.67319 0
M  V30 3272 H 305.995 0.326899 2.96202 0
M  V30 3273 H 303.532 0.173057 1.46078 0
M  V30 3274 H 305.49 -2.06241 3.62658 0
M  V30 3275 H 304.12 -2.05992 2.4853 0
M  V30 3276 H 303.172 -0.0307404 3.80388 0
M  V30 3277 H 304.484 -0.259663 4.98124 0
M  V30 3278 H 303.638 -2.55714 5.50177 0
M  V30 3279 H 302.377 -2.39819 4.24662 0
M  V30 3280 H 301.382 -0.450776 5.47949 0
M  V30 3281 H 302.607 -0.631202 6.7616 0
M  V30 3282 H 300.553 -2.72919 5.96533 0
M  V30 3283 H 300.47 -1.70938 7.36421 0
M  V30 3284 H 301.738 -2.89191 7.23871 0
M  V30 3285 N 305.967 -1.56429 0.191757 0
M  V30 3286 C 306.915 -2.20273 -0.747174 0
M  V30 3287 C 307.909 -1.17288 -1.22229 0
M  V30 3288 O 309.115 -1.35441 -1.18557 0
M  V30 3289 H 305.49 -0.705885 -0.259289 0
M  V30 3290 H 307.461 -2.97826 -0.184963 0
M  V30 3291 C 306.21 -2.87356 -1.95759 0
M  V30 3292 H 305.533 -3.66341 -1.60106 0
M  V30 3293 H 306.973 -3.3547 -2.59299 0
M  V30 3294 C 305.432 -1.88213 -2.79423 0
M  V30 3295 O 305.962 -1.38033 -3.7724 0
M  V30 3296 N 304.168 -1.56516 -2.44849 0
M  V30 3297 H 303.715 -1.97516 -1.65364 0
M  V30 3298 H 303.673 -0.904369 -3.01112 0
M  V30 3299 N 307.445 0.0818655 -1.57387 0
M  V30 3300 C 308.393 1.11712 -2.04018 0
M  V30 3301 C 309.387 1.40683 -0.94364 0
M  V30 3302 O 310.593 1.40209 -1.12878 0
M  V30 3303 H 306.968 0.377542 -0.650358 0
M  V30 3304 H 308.939 0.697614 -2.90131 0
M  V30 3305 C 307.688 2.42537 -2.49141 0
M  V30 3306 H 307.011 2.21092 -3.33104 0
M  V30 3307 H 308.451 3.13446 -2.85531 0
M  V30 3308 C 306.91 3.0778 -1.37014 0
M  V30 3309 O 307.44 3.95436 -0.706621 0
M  V30 3310 N 305.646 2.68242 -1.11779 0
M  V30 3311 H 305.193 1.97052 -1.65917 0
M  V30 3312 H 305.151 3.1222 -0.369594 0
M  V30 3313 N 308.923 1.53595 0.353017 0
M  V30 3314 C 309.853 1.83902 1.43883 0
M  V30 3315 C 310.834 0.693421 1.55324 0
M  V30 3316 O 312.019 0.944452 1.69687 0
M  V30 3317 C 309.149 2.04016 2.8106 0
M  V30 3318 C 308.103 3.19814 2.84434 0
M  V30 3319 C 307.429 3.25244 4.24406 0
M  V30 3320 C 308.729 4.58133 2.50822 0
M  V30 3321 H 310.423 2.74835 1.1877 0
M  V30 3322 H 307.969 1.32242 0.569917 0
M  V30 3323 H 309.922 2.238 3.57059 0
M  V30 3324 H 308.646 1.09804 3.07588 0
M  V30 3325 H 307.305 2.9987 2.10887 0
M  V30 3326 H 306.953 2.28646 4.48029 0
M  V30 3327 H 306.653 4.03054 4.27576 0
M  V30 3328 H 308.177 3.47228 5.0226 0
M  V30 3329 H 309.591 4.77995 3.16534 0
M  V30 3330 H 307.988 5.38276 2.6529 0
M  V30 3331 H 309.058 4.62387 1.46034 0
M  V30 3332 N 310.401 -0.613514 1.45168 0
M  V30 3333 C 311.333 -1.73825 1.4939 0
M  V30 3334 C 312.346 -1.58175 0.385304 0
M  V30 3335 O 313.535 -1.66165 0.652036 0
M  V30 3336 C 310.635 -3.11758 1.32891 0
M  V30 3337 C 309.808 -3.53704 2.57317 0
M  V30 3338 C 308.867 -4.70579 2.35462 0
M  V30 3339 O 307.893 -4.77996 3.09044 0
M  V30 3340 N 309.095 -5.63454 1.39644 0
M  V30 3341 H 311.86 -1.70669 2.46358 0
M  V30 3342 H 309.421 -0.79862 1.40832 0
M  V30 3343 H 311.413 -3.87692 1.1609 0
M  V30 3344 H 309.983 -3.09456 0.442218 0
M  V30 3345 H 309.203 -2.67794 2.89275 0
M  V30 3346 H 310.491 -3.78486 3.40038 0
M  V30 3347 H 309.889 -5.6017 0.789062 0
M  V30 3348 H 308.446 -6.38944 1.28816 0
M  V30 3349 N 311.879 -1.3236 -0.855495 0
M  V30 3350 C 312.826 -1.21225 -1.964 0
M  V30 3351 C 313.796 -0.0946204 -1.6583 0
M  V30 3352 O 314.981 -0.27002 -1.8888 0
M  V30 3353 C 312.121 -0.940419 -3.32039 0
M  V30 3354 C 311.234 -2.14276 -3.75113 0
M  V30 3355 C 310.369 -1.80648 -4.9954 0
M  V30 3356 C 309.408 -2.97208 -5.35102 0
M  V30 3357 N 308.545 -2.63678 -6.50706 0
M  V30 3358 H 313.385 -2.16042 -2.05255 0
M  V30 3359 H 310.922 -1.07451 -1.00463 0
M  V30 3360 H 312.88 -0.763311 -4.10158 0
M  V30 3361 H 311.51 -0.0290413 -3.22787 0
M  V30 3362 H 310.562 -2.43017 -2.92655 0
M  V30 3363 H 311.874 -3.01468 -3.97389 0
M  V30 3364 H 311.028 -1.59484 -5.85363 0
M  V30 3365 H 309.767 -0.906678 -4.79198 0
M  V30 3366 H 308.772 -3.19004 -4.47791 0
M  V30 3367 H 309.997 -3.87918 -5.57401 0
M  V30 3368 H 307.943 -1.76238 -6.31883 0
M  V30 3369 H 307.86 -3.444 -6.72997 0
M  V30 3370 H 309.128 -2.45942 -7.39684 0
M  V30 3371 N 313.357 1.07166 -1.15556 0
M  V30 3372 C 314.606 1.79181 -0.926132 0
M  V30 3373 C 314.919 1.87768 0.547967 0
M  V30 3374 O 316.125 2.56323 0.895036 0
M  V30 3375 C 314.581 3.22 -1.60761 0
M  V30 3376 C 314.189 3.21607 -3.11886 0
M  V30 3377 C 315.933 3.9861 -1.4598 0
M  V30 3378 C 313.84 4.59092 -3.72812 0
M  V30 3379 H 312.77 0.67154 -0.342856 0
M  V30 3380 H 315.421 1.2027 -1.3859 0
M  V30 3381 H 313.803 3.81115 -1.07553 0
M  V30 3382 H 314.977 2.72127 -3.71865 0
M  V30 3383 H 313.292 2.58495 -3.2645 0
M  V30 3384 H 315.889 5.00225 -1.88888 0
M  V30 3385 H 316.232 4.143 -0.407541 0
M  V30 3386 H 316.765 3.45996 -1.96295 0
M  V30 3387 H 313.504 4.48606 -4.77946 0
M  V30 3388 H 313.024 5.08803 -3.17616 0
M  V30 3389 H 314.703 5.28059 -3.73848 0
M  V30 3390 N 314.835 0.952656 1.25548 0
M  V30 3391 C 316.063 0.623496 1.97282 0
M  V30 3392 C 316.478 -0.803987 1.70826 0
M  V30 3393 O 315.835 -1.53755 0.983147 0
M  V30 3394 C 315.886 0.870209 3.5087 0
M  V30 3395 O 315.607 2.24156 3.76412 0
M  V30 3396 C 317.108 0.553164 4.39835 0
M  V30 3397 H 314.328 0.233931 0.628902 0
M  V30 3398 H 316.872 1.27649 1.59768 0
M  V30 3399 H 315.027 0.263652 3.86502 0
M  V30 3400 H 315.441 2.31021 4.70882 0
M  V30 3401 H 316.915 0.776342 5.46513 0
M  V30 3402 H 317.392 -0.512215 4.36203 0
M  V30 3403 H 317.998 1.13896 4.09766 0
M  V30 3404 N 316.313 -1.40141 0.720998 0
M  V30 3405 C 317.553 -2.02644 0.267335 0
M  V30 3406 C 317.917 -1.55948 -1.12001 0
M  V30 3407 O 319.118 -2.10552 -1.67097 0
M  V30 3408 C 317.389 -3.55679 0.350281 0
M  V30 3409 S 318.948 -4.38793 -0.0256004 0
M  V30 3410 H 315.766 -0.703105 0.105664 0
M  V30 3411 H 318.368 -1.71175 0.944416 0
M  V30 3412 H 317.072 -3.87157 1.36153 0
M  V30 3413 H 316.603 -3.91883 -0.345096 0
M  V30 3414 H 318.618 -4.803 -1.24604 0
M  V30 3415 N 317.792 -0.46758 -1.50504 0
M  V30 3416 C 318.722 0.318381 -2.31319 0
M  V30 3417 C 319.703 0.993564 -1.38066 0
M  V30 3418 O 320.888 0.991411 -1.66987 0
M  V30 3419 C 318.018 1.40275 -3.17711 0
M  V30 3420 C 316.972 0.849373 -4.19487 0
M  V30 3421 C 316.298 2.03177 -4.94594 0
M  V30 3422 C 317.598 -0.136942 -5.2212 0
M  V30 3423 H 319.292 -0.356106 -2.97275 0
M  V30 3424 H 316.838 -0.172703 -1.42961 0
M  V30 3425 H 318.791 1.96004 -3.73042 0
M  V30 3426 H 317.515 2.10596 -2.49634 0
M  V30 3427 H 316.174 0.314076 -3.65252 0
M  V30 3428 H 315.822 2.72187 -4.22993 0
M  V30 3429 H 315.522 1.66774 -5.63436 0
M  V30 3430 H 317.046 2.59403 -5.52759 0
M  V30 3431 H 318.46 0.331056 -5.72343 0
M  V30 3432 H 316.857 -0.41507 -5.98663 0
M  V30 3433 H 317.927 -1.06398 -4.73083 0
M  V30 3434 N 319.27 1.56325 -0.20005 0
M  V30 3435 C 320.218 2.20666 0.735482 0
M  V30 3436 C 321.212 1.17934 1.21605 0
M  V30 3437 O 322.418 1.36068 1.17837 0
M  V30 3438 H 318.793 0.70725 0.255542 0
M  V30 3439 H 320.764 2.9792 0.169166 0
M  V30 3440 C 319.513 2.88391 1.94232 0
M  V30 3441 H 318.836 3.67185 1.58161 0
M  V30 3442 H 320.276 3.3684 2.57517 0
M  V30 3443 C 318.735 1.89692 2.78421 0
M  V30 3444 O 319.265 1.40032 3.76502 0
M  V30 3445 N 317.471 1.57813 2.44015 0
M  V30 3446 H 317.018 1.9839 1.64314 0
M  V30 3447 H 316.976 0.920325 3.00628 0
M  V30 3448 N 320.748 -0.0735177 1.57428 0
M  V30 3449 C 321.994 -0.768909 1.88307 0
M  V30 3450 C 322.349 -1.75273 0.793535 0
M  V30 3451 O 321.642 -1.90527 -0.202466 0
M  V30 3452 C 321.836 -1.51799 3.23561 0
M  V30 3453 C 321.665 -0.608217 4.45568 0
M  V30 3454 C 320.435 -0.245808 5.04702 0
M  V30 3455 C 322.633 0.0942904 5.14214 0
M  V30 3456 N 320.615 0.66987 6.10234 0
M  V30 3457 C 321.986 0.867222 6.13905 0
M  V30 3458 C 324.041 0.165943 4.97623 0
M  V30 3459 C 322.744 1.70515 6.98797 0
M  V30 3460 C 324.77 0.990837 5.83041 0
M  V30 3461 C 324.132 1.75182 6.82269 0
M  V30 3462 H 320.231 -0.25685 0.738615 0
M  V30 3463 H 322.815 -0.030499 1.94676 0
M  V30 3464 H 320.986 -2.22713 3.18203 0
M  V30 3465 H 322.718 -2.16226 3.42094 0
M  V30 3466 H 319.473 -0.598284 4.69806 0
M  V30 3467 H 319.897 1.1209 6.67656 0
M  V30 3468 H 324.539 -0.408064 4.20826 0
M  V30 3469 H 322.257 2.29013 7.7497 0
M  V30 3470 H 325.843 1.04923 5.72261 0
M  V30 3471 H 324.723 2.37983 7.47217 0
M  V30 3472 N 322.226 -1.5378 -0.344866 0
M  V30 3473 C 323.174 -1.82373 -1.4437 0
M  V30 3474 C 324.168 -0.694128 -1.54526 0
M  V30 3475 O 325.374 -0.877442 -1.57165 0
M  V30 3476 H 321.749 -0.577765 -0.481344 0
M  V30 3477 H 323.72 -2.74306 -1.17468 0
M  V30 3478 C 322.469 -2.04898 -2.80913 0
M  V30 3479 H 321.792 -2.9127 -2.73865 0
M  V30 3480 H 323.232 -2.28871 -3.56923 0
M  V30 3481 C 321.691 -0.834116 -3.26411 0
M  V30 3482 O 322.221 -0.0328885 -4.01687 0
M  V30 3483 N 320.427 -0.65171 -2.83198 0
M  V30 3484 H 319.974 -1.30489 -2.22104 0
M  V30 3485 H 319.932 0.159686 -3.13994 0
M  V30 3486 N 323.704 0.605807 -1.45491 0
M  V30 3487 C 324.651 1.7164 -1.54299 0
M  V30 3488 C 325.621 1.61486 -0.388761 0
M  V30 3489 O 326.806 1.81039 -0.602445 0
M  V30 3490 C 323.946 3.09953 -1.51734 0
M  V30 3491 C 323.059 3.309 -2.77721 0
M  V30 3492 C 322.194 4.59329 -2.66816 0
M  V30 3493 C 321.233 4.7354 -3.87848 0
M  V30 3494 N 320.37 5.9327 -3.75467 0
M  V30 3495 H 325.21 1.63449 -2.49176 0
M  V30 3496 H 322.747 0.796957 -1.23641 0
M  V30 3497 H 324.705 3.89977 -1.48235 0
M  V30 3498 H 323.335 3.17098 -0.604068 0
M  V30 3499 H 322.387 2.44639 -2.913 0
M  V30 3500 H 323.699 3.37274 -3.67488 0
M  V30 3501 H 322.853 5.4755 -2.61292 0
M  V30 3502 H 321.592 4.55355 -1.74651 0
M  V30 3503 H 320.597 3.83741 -3.93729 0
M  V30 3504 H 321.822 4.79309 -4.81082 0
M  V30 3505 H 319.768 5.90338 -2.86072 0
M  V30 3506 H 319.685 6.00811 -4.5887 0
M  V30 3507 H 320.953 6.83984 -3.73879 0
M  V30 3508 N 325.182 1.32811 0.848464 0
M  V30 3509 C 326.129 1.22265 1.95755 0
M  V30 3510 C 327.099 0.103413 1.65778 0
M  V30 3511 O 328.284 0.280033 1.88734 0
M  V30 3512 C 325.424 0.958014 3.31536 0
M  V30 3513 C 324.537 2.16262 3.73971 0
M  V30 3514 C 323.672 1.83295 4.98575 0
M  V30 3515 C 322.711 3.00041 5.33518 0
M  V30 3516 N 321.848 2.67125 6.49299 0
M  V30 3517 H 326.688 2.17128 2.04107 0
M  V30 3518 H 324.225 1.07982 0.998913 0
M  V30 3519 H 326.183 0.785052 4.09747 0
M  V30 3520 H 324.813 0.046159 3.22767 0
M  V30 3521 H 323.865 2.44565 2.91362 0
M  V30 3522 H 325.177 3.03572 3.95785 0
M  V30 3523 H 324.331 1.62586 5.84509 0
M  V30 3524 H 323.07 0.932078 4.7871 0
M  V30 3525 H 322.075 3.21374 4.46093 0
M  V30 3526 H 323.3 3.90869 5.55336 0
M  V30 3527 H 321.246 1.79586 6.3094 0
M  V30 3528 H 321.163 3.47965 6.71161 0
M  V30 3529 H 322.431 2.49861 7.3837 0
M  V30 3530 N 326.66 -1.06551 1.16123 0
M  V30 3531 C 327.906 -1.79567 0.94252 0
M  V30 3532 C 328.239 -1.86869 -0.528547 0
M  V30 3533 O 327.514 -1.35838 -1.39206 0
M  V30 3534 C 327.797 -3.24195 1.56747 0
M  V30 3535 C 327.65 -3.24989 3.10969 0
M  V30 3536 C 328.969 -4.21678 1.25998 0
M  V30 3537 H 326.088 -0.651883 0.343828 0
M  V30 3538 H 328.73 -1.2463 1.43413 0
M  V30 3539 H 326.88 -3.71107 1.14942 0
M  V30 3540 H 328.552 -2.86258 3.61737 0
M  V30 3541 H 326.795 -2.63716 3.44436 0
M  V30 3542 H 327.466 -4.27005 3.49815 0
M  V30 3543 H 329.942 -3.83196 1.62174 0
M  V30 3544 H 328.818 -5.21146 1.7233 0
M  V30 3545 H 329.079 -4.4174 0.178367 0
M  V30 3546 N 328.138 -0.959301 -1.25041 0
M  V30 3547 C 329.363 -0.633507 -1.97488 0
M  V30 3548 C 329.788 0.788555 -1.70773 0
M  V30 3549 O 329.146 1.53394 -0.966431 0
M  V30 3550 C 329.194 -0.904057 -3.49083 0
M  V30 3551 O 328.298 0.0147939 -4.12397 0
M  V30 3552 H 327.639 -0.240368 -0.618966 0
M  V30 3553 H 330.169 -1.28717 -1.59038 0
M  V30 3554 H 330.179 -0.832203 -3.99423 0
M  V30 3555 H 328.854 -1.94048 -3.67856 0
M  V30 3556 H 327.431 -0.109664 -3.72739 0
M  V30 3557 N 329.616 1.39756 -0.72842 0
M  V30 3558 C 330.566 2.2792 -0.0603424 0
M  V30 3559 C 331.55 1.43922 0.719399 0
M  V30 3560 O 332.742 1.66895 0.589489 0
M  V30 3561 C 329.871 3.32582 0.851104 0
M  V30 3562 C 328.957 4.24049 0.0658641 0
M  V30 3563 N 329.348 4.96653 -0.957578 0
M  V30 3564 C 327.646 4.45013 0.296509 0
M  V30 3565 C 328.347 5.63836 -1.43052 0
M  V30 3566 N 327.323 5.38397 -0.750315 0
M  V30 3567 H 331.125 2.81504 -0.84455 0
M  V30 3568 H 328.639 1.5236 -0.562155 0
M  V30 3569 H 330.636 3.94603 1.34514 0
M  V30 3570 H 329.296 2.80558 1.63454 0
M  V30 3571 H 330.307 5.00297 -1.33877 0
M  V30 3572 H 326.984 4.03943 1.05527 0
M  V30 3573 H 328.374 6.31974 -2.28163 0
M  V30 3574 N 331.094 0.475555 1.50254 0
M  V30 3575 C 332.343 -0.0795996 2.01543 0
M  V30 3576 C 332.656 -1.4038 1.36209 0
M  V30 3577 O 333.862 -2.04415 1.7868 0
M  V30 3578 C 332.318 -0.192363 3.59386 0
M  V30 3579 C 331.926 1.12367 4.33679 0
M  V30 3580 C 333.67 -0.699238 4.18701 0
M  V30 3581 C 331.577 0.974453 5.83317 0
M  V30 3582 H 330.507 -0.0335228 0.753254 0
M  V30 3583 H 333.158 0.611128 1.73025 0
M  V30 3584 H 331.54 -0.946974 3.84511 0
M  V30 3585 H 332.714 1.88958 4.20276 0
M  V30 3586 H 331.029 1.562 3.85993 0
M  V30 3587 H 333.626 -0.827978 5.28251 0
M  V30 3588 H 333.969 -1.69171 3.80377 0
M  V30 3589 H 334.502 -0.00188807 3.978 0
M  V30 3590 H 331.241 1.94042 6.26121 0
M  V30 3591 H 330.761 0.248998 5.99283 0
M  V30 3592 H 332.44 0.642867 6.43798 0
M  V30 3593 N 332.573 -1.56217 0.208337 0
M  V30 3594 C 333.503 -2.22694 -0.702116 0
M  V30 3595 C 334.484 -1.19432 -1.2112 0
M  V30 3596 O 335.669 -1.47978 -1.25762 0
M  V30 3597 C 332.799 -2.8966 -1.9161 0
M  V30 3598 C 331.753 -3.9928 -1.5414 0
M  V30 3599 C 331.079 -4.53476 -2.83308 0
M  V30 3600 C 332.379 -5.17012 -0.741339 0
M  V30 3601 H 334.073 -2.99034 -0.147898 0
M  V30 3602 H 331.619 -1.43831 -0.0696951 0
M  V30 3603 H 333.572 -3.34852 -2.55836 0
M  V30 3604 H 332.296 -2.10746 -2.49507 0
M  V30 3605 H 330.955 -3.54799 -0.922668 0
M  V30 3606 H 330.603 -3.71308 -3.39322 0
M  V30 3607 H 330.303 -5.27451 -2.58976 0
M  V30 3608 H 331.827 -5.01378 -3.485 0
M  V30 3609 H 333.241 -5.58667 -1.28699 0
M  V30 3610 H 331.638 -5.97137 -0.595627 0
M  V30 3611 H 332.708 -4.8423 0.254851 0
M  V30 3612 N 334.051 0.0651679 -1.57465 0
M  V30 3613 C 335.014 1.06117 -2.03155 0
M  V30 3614 C 336.014 1.31204 -0.929632 0
M  V30 3615 O 337.204 1.26813 -1.19432 0
M  V30 3616 C 334.336 2.4032 -2.41783 0
M  V30 3617 H 335.529 0.667231 -2.92383 0
M  V30 3618 H 333.082 0.311075 -1.53173 0
M  V30 3619 H 333.817 2.84532 -1.55601 0
M  V30 3620 H 333.602 2.23451 -3.22199 0
M  V30 3621 H 335.092 3.11898 -2.77685 0
M  V30 3622 N 335.529 1.53961 0.336706 0
M  V30 3623 C 336.757 1.75483 1.09605 0
M  V30 3624 C 337.172 0.4972 1.82136 0
M  V30 3625 O 336.529 -0.53149 1.74589 0
M  V30 3626 C 336.58 2.93943 2.10428 0
M  V30 3627 O 336.301 4.14842 1.40846 0
M  V30 3628 C 337.802 3.27571 2.98684 0
M  V30 3629 H 335.022 0.586166 0.326574 0
M  V30 3630 H 337.566 2.00808 0.38683 0
M  V30 3631 H 335.721 2.70929 2.76905 0
M  V30 3632 H 336.135 4.81383 2.08255 0
M  V30 3633 H 337.609 4.13791 3.6535 0
M  V30 3634 H 338.086 2.44168 3.65074 0
M  V30 3635 H 338.692 3.52615 2.37787 0
M  V30 3636 N 337.007 -0.598083 1.45811 0
M  V30 3637 C 338.232 -1.3881 1.54099 0
M  V30 3638 C 338.657 -1.8726 0.177578 0
M  V30 3639 O 338.015 -1.6069 -0.839541 0
M  V30 3640 C 338.063 -2.56217 2.53743 0
M  V30 3641 O 337.167 -3.5716 2.06182 0
M  V30 3642 H 336.508 -0.414024 0.519115 0
M  V30 3643 H 339.038 -0.726971 1.91249 0
M  V30 3644 H 339.048 -3.03337 2.72856 0
M  V30 3645 H 337.723 -2.20303 3.5276 0
M  V30 3646 H 336.3 -3.16624 1.96987 0
M  V30 3647 N 338.485 -1.33259 -0.841409 0
M  V30 3648 C 339.71 -1.2775 -1.63385 0
M  V30 3649 C 340.135 0.149188 -1.87507 0
M  V30 3650 O 339.493 1.10498 -1.43736 0
M  V30 3651 C 339.541 -2.05571 -2.96265 0
M  V30 3652 O 338.645 -1.41257 -3.87453 0
M  V30 3653 H 337.986 -0.439627 -0.497618 0
M  V30 3654 H 340.516 -1.75782 -1.04699 0
M  V30 3655 H 340.526 -2.16241 -3.45982 0
M  V30 3656 H 339.201 -3.09309 -2.7803 0
M  V30 3657 H 337.778 -1.39217 -3.45938 0
M  V30 3658 N 339.963 1.05934 -1.16686 0
M  V30 3659 C 340.911 2.15603 -0.872817 0
M  V30 3660 C 341.905 1.68647 0.159576 0
M  V30 3661 O 343.111 1.79995 0.0132125 0
M  V30 3662 H 339.486 0.703885 -0.264671 0
M  V30 3663 H 341.457 2.37613 -1.80507 0
M  V30 3664 C 340.206 3.45457 -0.394344 0
M  V30 3665 H 339.529 3.81984 -1.18019 0
M  V30 3666 H 340.969 4.2339 -0.227408 0
M  V30 3667 C 339.428 3.25021 0.88673 0
M  V30 3668 O 339.958 3.50906 1.95519 0
M  V30 3669 N 338.164 2.78437 0.831925 0
M  V30 3670 H 337.711 2.57572 -0.0377619 0
M  V30 3671 H 337.669 2.65144 1.68956 0
M  V30 3672 N 341.441 0.965919 1.2453 0
M  V30 3673 C 342.389 0.486506 2.27455 0
M  V30 3674 C 343.383 -0.449041 1.6334 0
M  V30 3675 O 344.589 -0.324527 1.7705 0
M  V30 3676 H 340.964 0.138857 0.739069 0
M  V30 3677 H 342.935 1.3666 2.65267 0
M  V30 3678 C 341.684 -0.209481 3.47068 0
M  V30 3679 H 341.007 0.50129 3.96645 0
M  V30 3680 H 342.447 -0.508775 4.20936 0
M  V30 3681 C 340.906 -1.43586 3.0477 0
M  V30 3682 O 341.436 -2.53299 3.11773 0
M  V30 3683 N 339.642 -1.30126 2.59838 0
M  V30 3684 H 339.189 -0.408583 2.54339 0
M  V30 3685 H 339.147 -2.12294 2.31902 0
M  V30 3686 N 342.919 -1.39368 0.735821 0
M  V30 3687 C 344.167 -2.00101 0.283562 0
M  V30 3688 C 344.488 -1.5868 -1.13338 0
M  V30 3689 O 343.758 -0.835423 -1.77193 0
M  V30 3690 H 342.338 -0.740024 0.101851 0
M  V30 3691 H 345 -1.70404 0.945962 0
M  V30 3692 H 344.096 -3.10323 0.332604 0
M  V30 3693 N 344.397 -0.483516 -1.5 0
M  V30 3694 C 345.345 0.318061 -2.30415 0
M  V30 3695 C 346.339 0.978988 -1.38247 0
M  V30 3696 O 347.545 0.908673 -1.55381 0
M  V30 3697 H 343.92 0.121419 -0.742133 0
M  V30 3698 H 345.891 -0.380403 -2.95965 0
M  V30 3699 C 344.64 1.38013 -3.19136 0
M  V30 3700 H 343.963 0.880952 -3.89973 0
M  V30 3701 H 345.403 1.91332 -3.78375 0
M  V30 3702 C 343.862 2.38884 -2.37563 0
M  V30 3703 O 344.392 3.44412 -2.06744 0
M  V30 3704 N 342.598 2.10912 -1.99911 0
M  V30 3705 H 342.145 1.25118 -2.25174 0
M  V30 3706 H 342.103 2.78635 -1.45636 0
M  V30 3707 N 345.875 1.56104 -0.216619 0
M  V30 3708 C 347.103 2.02563 0.421413 0
M  V30 3709 C 347.518 1.0965 1.53695 0
M  V30 3710 O 346.875 0.10521 1.82196 0
M  V30 3711 C 346.926 3.48584 0.957665 0
M  V30 3712 O 346.647 4.37953 -0.113389 0
M  V30 3713 C 348.148 4.10664 1.66943 0
M  V30 3714 H 345.368 0.662944 0.103665 0
M  V30 3715 H 347.912 2.01793 -0.331629 0
M  V30 3716 H 346.067 3.49985 1.661 0
M  V30 3717 H 346.481 5.23704 0.288932 0
M  V30 3718 H 347.955 5.14622 1.99671 0
M  V30 3719 H 348.432 3.55373 2.58083 0
M  V30 3720 H 349.038 4.13098 1.01142 0
M  V30 3721 N 347.353 -0.0568162 1.57498 0
M  V30 3722 C 348.599 -0.75422 1.88253 0
M  V30 3723 C 348.932 -1.76461 0.810865 0
M  V30 3724 O 348.207 -1.93691 -0.177259 0
M  V30 3725 C 348.49 -1.44878 3.2967 0
M  V30 3726 C 348.343 -0.453789 4.47505 0
M  V30 3727 C 349.662 -2.38994 3.69554 0
M  V30 3728 H 346.781 -0.272724 0.684683 0
M  V30 3729 H 349.423 -0.0172113 1.89992 0
M  V30 3730 H 347.573 -2.077 3.28318 0
M  V30 3731 H 349.245 0.170371 4.60985 0
M  V30 3732 H 347.488 0.229552 4.33192 0
M  V30 3733 H 348.159 -0.977699 5.43273 0
M  V30 3734 H 350.635 -1.86239 3.72095 0
M  V30 3735 H 349.511 -2.84587 4.69363 0
M  V30 3736 H 349.772 -3.24461 3.00296 0
M  V30 3737 N 348.832 -1.54138 -0.328536 0
M  V30 3738 C 350.081 -1.71318 -1.06456 0
M  V30 3739 C 350.394 -0.491109 -1.89334 0
M  V30 3740 O 351.6 -0.54416 -2.65991 0
M  V30 3741 C 350.056 -3.03 -1.94214 0
M  V30 3742 C 349.664 -4.32595 -1.16471 0
M  V30 3743 C 351.408 -3.29544 -2.67583 0
M  V30 3744 C 349.315 -5.55341 -2.03347 0
M  V30 3745 H 348.245 -0.638429 -0.401155 0
M  V30 3746 H 350.896 -1.80633 -0.323106 0
M  V30 3747 H 349.278 -2.87579 -2.72239 0
M  V30 3748 H 350.452 -4.58766 -0.432525 0
M  V30 3749 H 348.767 -4.12777 -0.548063 0
M  V30 3750 H 351.364 -4.18444 -3.3288 0
M  V30 3751 H 351.707 -2.47206 -3.34955 0
M  V30 3752 H 352.24 -3.45809 -1.96623 0
M  V30 3753 H 348.979 -6.40268 -1.40491 0
M  V30 3754 H 348.499 -5.33397 -2.74313 0
M  V30 3755 H 350.178 -5.91557 -2.62049 0
M  V30 3756 N 350.31 0.590341 -1.46126 0
M  V30 3757 C 351.556 1.34874 -1.52252 0
M  V30 3758 C 351.911 1.91658 -0.168807 0
M  V30 3759 O 351.204 1.73093 0.821556 0
M  V30 3760 C 351.398 2.5032 -2.55097 0
M  V30 3761 C 351.227 2.04843 -4.00337 0
M  V30 3762 C 349.997 1.90213 -4.68132 0
M  V30 3763 C 352.195 1.61267 -4.88362 0
M  V30 3764 N 350.177 1.38727 -5.9802 0
M  V30 3765 C 351.548 1.21319 -6.08015 0
M  V30 3766 C 353.603 1.49015 -4.75078 0
M  V30 3767 C 352.306 0.7034 -7.15852 0
M  V30 3768 C 354.332 0.994401 -5.8298 0
M  V30 3769 C 353.694 0.604659 -7.018 0
M  V30 3770 H 349.793 0.486803 -0.612002 0
M  V30 3771 H 352.377 0.673007 -1.82698 0
M  V30 3772 H 350.548 3.15466 -2.26574 0
M  V30 3773 H 352.28 3.1725 -2.51266 0
M  V30 3774 H 349.035 2.11927 -4.23537 0
M  V30 3775 H 349.459 1.15168 -6.67132 0
M  V30 3776 H 354.101 1.77768 -3.83612 0
M  V30 3777 H 351.819 0.403446 -8.07092 0
M  V30 3778 H 355.405 0.903621 -5.7474 0
M  V30 3779 H 354.285 0.226963 -7.83871 0
M  V30 3780 N 351.788 1.33704 0.83433 0
M  V30 3781 C 353.065 1.16011 1.57483 0
M  V30 3782 C 353.445 -0.27176 2.09343 0
M  V30 3783 O 352.793 -1.27146 1.89858 0
M  V30 3784 C 353.003 2.20507 2.70514 0
M  V30 3785 C 354.351 2.54898 3.39577 0
M  V30 3786 O 355.375 2.19209 2.80759 0
M  V30 3787 O 354.234 3.16158 4.45765 0
M  V30 3788 H 351.328 0.448992 0.694503 0
M  V30 3789 H 353.874 1.453 0.876691 0
M  V30 3790 H 352.646 3.16667 2.29865 0
M  V30 3791 H 352.269 1.92329 3.47987 0
M  V30 3792 N 353.266 -1.05314 1.17247 0
M  V30 3793 C 354.196 -2.1498 0.911362 0
M  V30 3794 C 355.177 -1.69471 -0.146169 0
M  V30 3795 O 356.362 -1.942 0.003812 0
M  V30 3796 C 353.492 -3.4472 0.422528 0
M  V30 3797 C 352.446 -4.03789 1.4191 0
M  V30 3798 C 351.772 -5.28858 0.788274 0
M  V30 3799 C 353.072 -4.41418 2.7919 0
M  V30 3800 H 354.766 -2.3708 1.82848 0
M  V30 3801 H 352.312 -1.13938 0.880569 0
M  V30 3802 H 354.265 -4.20787 0.227289 0
M  V30 3803 H 352.989 -3.22269 -0.530123 0
M  V30 3804 H 351.648 -3.2979 1.60106 0
M  V30 3805 H 351.296 -5.02709 -0.171173 0
M  V30 3806 H 350.996 -5.69338 1.45353 0
M  V30 3807 H 352.52 -6.07612 0.603282 0
M  V30 3808 H 353.934 -5.08524 2.64719 0
M  V30 3809 H 352.331 -4.92913 3.42282 0
M  V30 3810 H 353.401 -3.51819 3.33693 0
M  V30 3811 N 354.744 -0.972509 -1.24016 0
M  V30 3812 C 355.691 -0.505969 -2.25186 0
M  V30 3813 C 356.661 0.451009 -1.5986 0
M  V30 3814 O 357.846 0.360307 -1.87367 0
M  V30 3815 C 354.986 0.193089 -3.44559 0
M  V30 3816 C 354.099 -0.803222 -4.24467 0
M  V30 3817 C 353.234 -0.0797793 -5.3114 0
M  V30 3818 C 352.273 -1.06583 -6.02749 0
M  V30 3819 N 351.41 -0.372074 -7.01113 0
M  V30 3820 H 356.25 -1.37351 -2.64459 0
M  V30 3821 H 353.787 -0.688419 -1.29997 0
M  V30 3822 H 355.745 0.615125 -4.1264 0
M  V30 3823 H 354.375 1.02455 -3.06109 0
M  V30 3824 H 353.427 -1.34368 -3.55878 0
M  V30 3825 H 354.739 -1.55494 -4.73944 0
M  V30 3826 H 353.893 0.400015 -6.0538 0
M  V30 3827 H 352.632 0.704597 -4.82583 0
M  V30 3828 H 351.637 -1.55645 -5.27309 0
M  V30 3829 H 352.862 -1.85074 -6.53395 0
M  V30 3830 H 350.808 0.393238 -6.5482 0
M  V30 3831 H 350.725 -1.06258 -7.48495 0
M  V30 3832 H 351.993 0.0855932 -7.79453 0
M  V30 3833 N 356.222 1.38976 -0.743202 0
M  V30 3834 C 357.471 1.99581 -0.291592 0
M  V30 3835 C 357.784 1.59656 1.13001 0
M  V30 3836 O 358.99 2.13157 1.68156 0
M  V30 3837 C 357.446 3.56813 -0.470391 0
M  V30 3838 C 357.054 4.05695 -1.90041 0
M  V30 3839 C 358.798 4.24423 -0.0809709 0
M  V30 3840 C 356.705 5.5553 -2.02832 0
M  V30 3841 H 355.635 0.746615 -0.105272 0
M  V30 3842 H 358.286 1.58872 -0.918258 0
M  V30 3843 H 356.668 3.95359 0.225299 0
M  V30 3844 H 357.842 3.78464 -2.62872 0
M  V30 3845 H 356.157 3.50775 -2.24379 0
M  V30 3846 H 358.754 5.34474 -0.155445 0
M  V30 3847 H 359.097 4.04962 0.96497 0
M  V30 3848 H 359.63 3.9108 -0.728124 0
M  V30 3849 H 356.369 5.79881 -3.05643 0
M  V30 3850 H 355.889 5.84537 -1.34448 0
M  V30 3851 H 357.568 6.21069 -1.81335 0
M  V30 3852 N 357.7 0.491464 1.49741 0
M  V30 3853 C 358.647 -0.292027 2.28945 0
M  V30 3854 C 359.617 -0.968973 1.34908 0
M  V30 3855 O 360.802 -0.97748 1.6386 0
M  V30 3856 C 357.942 -1.35617 3.17336 0
M  V30 3857 C 357.055 -0.691957 4.26422 0
M  V30 3858 C 356.19 -1.73572 5.02042 0
M  V30 3859 C 355.229 -1.05286 6.02977 0
M  V30 3860 N 354.366 -2.0404 6.71798 0
M  V30 3861 H 359.206 0.389654 2.95442 0
M  V30 3862 H 356.743 0.204003 1.45679 0
M  V30 3863 H 358.701 -1.98502 3.66951 0
M  V30 3864 H 357.331 -2.00674 2.52844 0
M  V30 3865 H 356.383 0.0499523 3.80367 0
M  V30 3866 H 357.695 -0.153946 4.98562 0
M  V30 3867 H 356.849 -2.43987 5.55478 0
M  V30 3868 H 355.588 -2.30757 4.29654 0
M  V30 3869 H 354.593 -0.334446 5.48782 0
M  V30 3870 H 355.818 -0.487636 6.77347 0
M  V30 3871 H 353.764 -2.60205 6.02187 0
M  V30 3872 H 353.681 -1.55279 7.39881 0
M  V30 3873 H 354.949 -2.73772 7.29842 0
M  V30 3874 N 359.178 -1.55987 0.224894 0
M  V30 3875 C 360.125 -2.20436 -0.68385 0
M  V30 3876 C 361.095 -1.16102 -1.18783 0
M  V30 3877 O 362.28 -1.4447 -1.24632 0
M  V30 3878 C 359.42 -2.89076 -1.88491 0
M  V30 3879 C 358.533 -4.08012 -1.41951 0
M  V30 3880 C 357.668 -4.64426 -2.5784 0
M  V30 3881 C 356.707 -5.75656 -2.08053 0
M  V30 3882 N 355.844 -6.26347 -3.17227 0
M  V30 3883 H 360.684 -2.97727 -0.12754 0
M  V30 3884 H 358.221 -1.47011 -0.0511978 0
M  V30 3885 H 360.179 -3.27059 -2.59014 0
M  V30 3886 H 358.809 -2.14298 -2.41405 0
M  V30 3887 H 357.861 -3.75492 -0.609095 0
M  V30 3888 H 359.173 -4.88375 -1.01447 0
M  V30 3889 H 358.327 -5.04869 -3.3644 0
M  V30 3890 H 357.066 -3.83233 -3.01635 0
M  V30 3891 H 356.071 -5.34712 -1.27916 0
M  V30 3892 H 357.296 -6.58686 -1.65255 0
M  V30 3893 H 355.242 -5.48067 -3.60497 0
M  V30 3894 H 355.159 -7.01843 -2.80986 0
M  V30 3895 H 356.427 -6.71447 -3.95953 0
M  V30 3896 N 360.656 0.0484629 -1.57525 0
M  V30 3897 C 361.881 0.759177 -1.93006 0
M  V30 3898 C 362.306 1.69125 -0.823317 0
M  V30 3899 O 361.664 1.79931 0.222364 0
M  V30 3900 C 361.712 1.50899 -3.27509 0
M  V30 3901 O 360.816 2.62112 -3.18388 0
M  V30 3902 H 360.157 0.205564 -0.631379 0
M  V30 3903 H 362.687 0.00972959 -2.04598 0
M  V30 3904 H 362.697 1.88317 -3.6194 0
M  V30 3905 H 361.372 0.825269 -4.0763 0
M  V30 3906 H 359.949 2.27379 -2.95556 0
M  V30 3907 N 362.134 1.5431 0.320358 0
M  V30 3908 C 363.097 1.83195 1.3774 0
M  V30 3909 C 364.097 0.703906 1.44575 0
M  V30 3910 O 365.287 0.972214 1.44546 0
M  V30 3911 C 362.419 1.99487 2.76438 0
M  V30 3912 H 363.612 2.77642 1.1338 0
M  V30 3913 H 361.165 1.46076 0.556012 0
M  V30 3914 H 361.9 1.07262 3.06048 0
M  V30 3915 H 361.685 2.81575 2.7287 0
M  V30 3916 H 363.175 2.23271 3.52902 0
M  V30 3917 N 363.613 -0.582584 1.46437 0
M  V30 3918 C 364.859 -1.34278 1.51978 0
M  V30 3919 C 365.192 -1.93446 0.170973 0
M  V30 3920 O 364.467 -1.76481 -0.817608 0
M  V30 3921 C 364.75 -2.47203 2.61845 0
M  V30 3922 C 364.603 -1.93069 4.06257 0
M  V30 3923 C 365.922 -3.49247 2.67795 0
M  V30 3924 H 363.041 -0.486876 0.553282 0
M  V30 3925 H 365.683 -0.654437 1.78374 0
M  V30 3926 H 363.833 -3.0592 2.39469 0
M  V30 3927 H 365.505 -1.38808 4.3992 0
M  V30 3928 H 363.748 -1.23898 4.1573 0
M  V30 3929 H 364.419 -2.74586 4.7886 0
M  V30 3930 H 366.895 -3.00411 2.8791 0
M  V30 3931 H 365.771 -4.25719 3.46489 0
M  V30 3932 H 366.032 -4.06482 1.73852 0
M  V30 3933 N 365.091 -1.34144 -0.827227 0
M  V30 3934 C 366.316 -1.29476 -1.62021 0
M  V30 3935 C 366.741 0.129292 -1.87655 0
M  V30 3936 O 366.099 1.08967 -1.449 0
M  V30 3937 C 366.147 -2.08702 -2.94068 0
M  V30 3938 O 365.251 -1.45359 -3.85933 0
M  V30 3939 H 364.592 -0.444881 -0.492927 0
M  V30 3940 H 367.122 -1.76882 -1.02829 0
M  V30 3941 H 367.132 -2.19898 -3.43669 0
M  V30 3942 H 365.807 -3.12241 -2.74734 0
M  V30 3943 H 364.384 -1.42879 -3.44442 0
M  V30 3944 N 366.569 1.04691 -1.17803 0
M  V30 3945 C 367.816 1.77782 -0.969532 0
M  V30 3946 C 368.144 1.87926 0.501401 0
M  V30 3947 O 367.399 1.37918 1.38842 0
M  V30 3948 C 367.698 3.21467 -1.56186 0
M  V30 3949 C 367.364 3.3137 -3.05786 0
M  V30 3950 C 366.026 3.3378 -3.46619 0
M  V30 3951 C 368.378 3.31976 -4.01797 0
M  V30 3952 C 365.706 3.34431 -4.82051 0
M  V30 3953 C 368.058 3.34167 -5.37136 0
M  V30 3954 C 366.722 3.34866 -5.77426 0
M  V30 3955 H 365.992 0.650549 -0.354777 0
M  V30 3956 H 368.639 1.23006 -1.46772 0
M  V30 3957 H 366.944 3.79203 -0.985515 0
M  V30 3958 H 368.641 3.76652 -1.37602 0
M  V30 3959 H 365.231 3.3021 -2.73238 0
M  V30 3960 H 369.415 3.29311 -3.71306 0
M  V30 3961 H 364.671 3.33285 -5.12573 0
M  V30 3962 H 368.845 3.33585 -6.11305 0
M  V30 3963 H 366.472 3.35124 -6.82346 0
M  V30 3964 N 368.047 0.979072 1.23499 0
M  V30 3965 C 369.463 0.687475 1.44034 0
M  V30 3966 C 369.663 -0.746801 1.8715 0
M  V30 3967 O 368.719 -1.51939 2.0167 0
M  V30 3968 C 370.032 1.68127 2.49307 0
M  V30 3969 C 371.58 1.69516 2.63122 0
M  V30 3970 C 372.055 2.67723 3.71603 0
M  V30 3971 N 373.546 2.66233 3.79044 0
M  V30 3972 C 374.281 3.38891 4.62537 0
M  V30 3973 N 373.777 4.21103 5.50131 0
M  V30 3974 N 375.57 3.27661 4.56721 0
M  V30 3975 H 367.721 1.90559 0.938135 0
M  V30 3976 H 369.984 0.821051 0.473897 0
M  V30 3977 H 369.69 2.70693 2.2454 0
M  V30 3978 H 369.564 1.46306 3.4767 0
M  V30 3979 H 371.951 0.676561 2.8724 0
M  V30 3980 H 372.032 1.95404 1.65079 0
M  V30 3981 H 371.676 3.69724 3.48233 0
M  V30 3982 H 371.606 2.39111 4.69184 0
M  V30 3983 H 374.097 2.06568 3.16446 0
M  V30 3984 H 374.41 4.73403 6.10827 0
M  V30 3985 H 372.755 4.25195 5.49759 0
M  V30 3986 H 375.946 2.62887 3.87309 0
M  V30 3987 H 376.119 3.84547 5.21562 0
M  V30 3988 N 369.525 -1.3858 0.750561 0
M  V30 3989 C 370.802 -1.94231 0.231009 0
M  V30 3990 C 371.182 -1.68611 -1.27018 0
M  V30 3991 O 370.53 -1.02296 -2.04323 0
M  V30 3992 C 370.74 -3.44123 0.581428 0
M  V30 3993 C 372.088 -4.2116 0.539389 0
M  V30 3994 O 373.112 -3.52391 0.519541 0
M  V30 3995 O 371.971 -5.43749 0.54765 0
M  V30 3996 H 369.065 -0.825639 0.0474263 0
M  V30 3997 H 371.611 -1.4799 0.830478 0
M  V30 3998 H 370.383 -3.56267 1.61833 0
M  V30 3999 H 370.006 -3.97573 -0.0462047 0
M  V30 4000 N 371.003 -0.499398 -1.49478 0
M  V30 4001 C 372.414 -0.051215 -1.8663 0
M  V30 4002 C 372.765 1.36238 -1.41186 0
M  V30 4003 O 371.89 2.01502 -0.789051 0
M  V30 4004 C 372.485 -0.0861651 -3.3869 0
M  V30 4005 C 371.044 0.30667 -3.75149 0
M  V30 4006 C 370.191 -0.459397 -2.73468 0
M  V30 4007 H 373.142 -0.712264 -1.41818 0
M  V30 4008 H 373.163 0.709507 -3.73826 0
M  V30 4009 H 372.675 -1.11512 -3.71735 0
M  V30 4010 H 370.776 1.33892 -3.47712 0
M  V30 4011 H 370.889 -0.0116669 -4.79099 0
M  V30 4012 H 369.253 0.0905645 -2.54539 0
M  V30 4013 H 370.036 -1.4884 -3.09357 0
M  V30 4014 N 372.481 1.55866 -0.233164 0
M  V30 4015 C 373.431 2.17442 0.685774 0
M  V30 4016 C 374.415 1.12617 1.14918 0
M  V30 4017 O 375.607 1.3857 1.10124 0
M  V30 4018 C 372.736 2.86685 1.88856 0
M  V30 4019 C 371.822 3.98749 1.4443 0
M  V30 4020 N 372.213 5.00744 0.713364 0
M  V30 4021 C 370.511 4.11052 1.73068 0
M  V30 4022 C 371.212 5.79673 0.485205 0
M  V30 4023 N 370.188 5.33454 1.04536 0
M  V30 4024 H 373.99 2.93659 0.119022 0
M  V30 4025 H 371.504 1.62362 -0.0348995 0
M  V30 4026 H 373.501 3.29218 2.55776 0
M  V30 4027 H 372.161 2.11967 2.45967 0
M  V30 4028 H 373.172 5.16613 0.364861 0
M  V30 4029 H 369.849 3.47495 2.31416 0
M  V30 4030 H 371.239 6.71829 -0.097365 0
M  V30 4031 N 373.959 -0.0401083 1.57549 0
M  V30 4032 C 375.184 -0.748931 1.93406 0
M  V30 4033 C 375.609 -1.68686 0.832274 0
M  V30 4034 O 374.967 -1.80047 -0.212818 0
M  V30 4035 C 375.015 -1.4916 3.28304 0
M  V30 4036 O 374.119 -2.6042 3.19774 0
M  V30 4037 H 373.46 -0.202212 0.63246 0
M  V30 4038 H 375.99 0.00112086 2.046 0
M  V30 4039 H 376 -1.86395 3.62934 0
M  V30 4040 H 374.675 -0.80364 4.08062 0
M  V30 4041 H 373.252 -2.25808 2.96758 0
M  V30 4042 N 375.437 -1.54477 -0.31217 0
M  V30 4043 C 376.853 -1.45442 -0.657185 0
M  V30 4044 C 377.053 -0.63653 -1.91182 0
M  V30 4045 O 376.109 -0.139815 -2.52113 0
M  V30 4046 C 377.422 -2.89287 -0.82058 0
M  V30 4047 C 378.97 -2.9926 -0.917188 0
M  V30 4048 C 379.445 -4.44279 -1.11267 0
M  V30 4049 N 380.936 -4.4794 -1.17914 0
M  V30 4050 C 381.671 -5.57318 -1.34848 0
M  V30 4051 N 381.167 -6.76642 -1.48752 0
M  V30 4052 N 382.96 -5.44986 -1.37647 0
M  V30 4053 H 375.111 -2.06129 0.512313 0
M  V30 4054 H 377.374 -0.933088 0.167485 0
M  V30 4055 H 377.08 -3.51687 0.0302604 0
M  V30 4056 H 376.954 -3.36061 -1.71298 0
M  V30 4057 H 379.341 -2.36981 -1.75852 0
M  V30 4058 H 379.422 -2.558 -0.00101257 0
M  V30 4059 H 379.066 -5.07149 -0.27614 0
M  V30 4060 H 378.996 -4.85359 -2.04289 0
M  V30 4061 H 381.487 -3.61969 -1.08567 0
M  V30 4062 H 381.8 -7.55758 -1.61397 0
M  V30 4063 H 380.145 -6.79529 -1.45828 0
M  V30 4064 H 383.336 -4.50715 -1.26388 0
M  V30 4065 H 383.509 -6.3028 -1.50501 0
M  V30 4066 N 376.915 0.57481 -1.46744 0
M  V30 4067 C 378.143 1.35856 -1.56047 0
M  V30 4068 C 378.558 1.87691 -0.204365 0
M  V30 4069 O 377.915 1.64049 0.79963 0
M  V30 4070 C 377.966 2.54066 -2.57163 0
M  V30 4071 O 377.687 2.04377 -3.87507 0
M  V30 4072 C 379.188 3.46514 -2.76483 0
M  V30 4073 H 376.408 0.414754 -0.527466 0
M  V30 4074 H 378.952 0.698035 -1.92218 0
M  V30 4075 H 377.107 3.16092 -2.23974 0
M  V30 4076 H 377.521 2.81419 -4.4261 0
M  V30 4077 H 378.995 4.25919 -3.51137 0
M  V30 4078 H 379.472 3.98951 -1.83671 0
M  V30 4079 H 380.078 2.90318 -3.10799 0
M  V30 4080 N 378.394 1.34581 0.820102 0
M  V30 4081 C 379.341 1.2639 1.93117 0
M  V30 4082 C 380.311 0.138554 1.65521 0
M  V30 4083 O 381.496 0.320004 1.88097 0
M  V30 4084 C 378.636 1.02812 3.29429 0
M  V30 4085 C 377.749 2.24146 3.693 0
M  V30 4086 C 376.884 1.93829 4.94574 0
M  V30 4087 C 375.923 3.1129 5.27034 0
M  V30 4088 N 375.06 2.80838 6.43486 0
M  V30 4089 H 379.9 2.21408 1.99455 0
M  V30 4090 H 377.437 1.10077 0.975784 0
M  V30 4091 H 379.395 0.871788 4.0799 0
M  V30 4092 H 378.025 0.114612 3.22596 0
M  V30 4093 H 377.077 2.50691 2.86109 0
M  V30 4094 H 378.389 3.11899 3.89257 0
M  V30 4095 H 377.543 1.74948 5.80929 0
M  V30 4096 H 376.282 1.03341 4.76626 0
M  V30 4097 H 375.287 3.30764 4.39175 0
M  V30 4098 H 376.512 4.02561 5.4692 0
M  V30 4099 H 374.458 1.92929 6.26988 0
M  V30 4100 H 374.375 3.62123 6.63629 0
M  V30 4101 H 375.643 2.65467 7.32903 0
M  V30 4102 N 379.872 -1.04064 1.18357 0
M  V30 4103 C 381.1 -1.80916 1.00384 0
M  V30 4104 C 381.515 -1.83414 -0.447738 0
M  V30 4105 O 380.872 -1.26962 -1.31099 0
M  V30 4106 C 380.923 -3.26516 1.55144 0
M  V30 4107 O 380.644 -3.2424 2.94618 0
M  V30 4108 C 382.145 -4.20013 1.41789 0
M  V30 4109 H 379.365 -0.569728 0.354474 0
M  V30 4110 H 381.909 -1.31151 1.56906 0
M  V30 4111 H 380.064 -3.73512 1.02798 0
M  V30 4112 H 380.478 -4.15452 3.20156 0
M  V30 4113 H 381.952 -5.20111 1.84901 0
M  V30 4114 H 382.429 -4.37667 0.36661 0
M  V30 4115 H 383.035 -3.78881 1.93207 0
M  V30 4116 N 381.35 -0.985608 -1.22978 0
M  V30 4117 C 382.575 -0.675254 -1.961 0
M  V30 4118 C 383 0.752154 -1.72407 0
M  V30 4119 O 382.358 1.5131 -0.998751 0
M  V30 4120 C 382.406 -0.977899 -3.47087 0
M  V30 4121 O 381.51 -0.072685 -4.12336 0
M  V30 4122 H 380.851 -0.253443 -0.613728 0
M  V30 4123 H 383.381 -1.32061 -1.56272 0
M  V30 4124 H 383.391 -0.916739 -3.97567 0
M  V30 4125 H 382.066 -2.01807 -3.63657 0
M  V30 4126 H 380.643 -0.188703 -3.72422 0
M  V30 4127 N 382.828 1.3818 -0.7579 0
M  V30 4128 C 384.053 2.04827 -0.325679 0
M  V30 4129 C 384.478 1.56788 1.03919 0
M  V30 4130 O 383.836 0.721811 1.66312 0
M  V30 4131 C 383.884 3.58774 -0.362447 0
M  V30 4132 O 382.988 4.07372 0.642033 0
M  V30 4133 H 382.329 0.64833 -0.143402 0
M  V30 4134 H 384.859 1.7677 -1.03023 0
M  V30 4135 H 384.869 4.07434 -0.214844 0
M  V30 4136 H 383.544 3.93096 -1.35824 0
M  V30 4137 H 382.121 3.70068 0.458688 0
M  V30 4138 N 384.306 0.507319 1.49211 0
M  V30 4139 C 385.236 -0.256939 2.32082 0
M  V30 4140 C 386.217 -0.956609 1.40652 0
M  V30 4141 O 387.402 -0.946788 1.69557 0
M  V30 4142 C 384.532 -1.31802 3.21318 0
M  V30 4143 C 383.486 -0.737855 4.21592 0
M  V30 4144 C 382.812 -1.89992 4.99807 0
M  V30 4145 C 384.112 0.275325 5.21574 0
M  V30 4146 H 385.806 0.434798 2.96226 0
M  V30 4147 H 383.352 0.210546 1.42452 0
M  V30 4148 H 385.305 -1.86045 3.78107 0
M  V30 4149 H 384.029 -2.03903 2.5513 0
M  V30 4150 H 382.688 -0.217126 3.65956 0
M  V30 4151 H 382.336 -2.60877 4.30061 0
M  V30 4152 H 382.036 -1.51777 5.6766 0
M  V30 4153 H 383.56 -2.44657 5.59442 0
M  V30 4154 H 384.974 -0.179193 5.7302 0
M  V30 4155 H 383.371 0.573649 5.97352 0
M  V30 4156 H 384.441 1.18903 4.70096 0
M  V30 4157 N 385.784 -1.5574 0.241426 0
M  V30 4158 C 387.009 -2.0366 -0.392111 0
M  V30 4159 C 387.434 -1.11969 -1.51144 0
M  V30 4160 O 386.792 -0.111594 -1.80956 0
M  V30 4161 C 386.84 -3.49638 -0.882371 0
M  V30 4162 O 385.944 -3.6108 -1.99235 0
M  V30 4163 H 385.285 -0.658379 -0.0862122 0
M  V30 4164 H 387.815 -2.01302 0.365881 0
M  V30 4165 H 387.825 -3.90351 -1.18702 0
M  V30 4166 H 386.5 -4.15852 -0.0632361 0
M  V30 4167 H 385.077 -3.32262 -1.69282 0
M  V30 4168 N 387.262 0.0317525 -1.57568 0
M  V30 4169 C 388.508 0.718712 -1.90279 0
M  V30 4170 C 388.863 1.73108 -0.839727 0
M  V30 4171 O 388.156 1.90997 0.15188 0
M  V30 4172 C 388.35 1.43167 -3.27472 0
M  V30 4173 C 388.179 0.489869 -4.47024 0
M  V30 4174 C 386.949 0.111909 -5.05176 0
M  V30 4175 C 389.147 -0.230592 -5.13783 0
M  V30 4176 N 387.129 -0.831427 -6.08244 0
M  V30 4177 C 388.5 -1.02968 -6.1139 0
M  V30 4178 C 390.555 -0.297821 -4.97008 0
M  V30 4179 C 389.258 -1.88982 -6.9403 0
M  V30 4180 C 391.284 -1.14507 -5.80209 0
M  V30 4181 C 390.646 -1.9321 -6.77384 0
M  V30 4182 H 386.745 0.237177 -0.745165 0
M  V30 4183 H 389.329 -0.0211267 -1.94689 0
M  V30 4184 H 387.5 2.14199 -3.23996 0
M  V30 4185 H 389.232 2.0708 -3.47707 0
M  V30 4186 H 385.987 0.473513 -4.71227 0
M  V30 4187 H 386.411 -1.29752 -6.6445 0
M  V30 4188 H 391.053 0.296346 -4.2176 0
M  V30 4189 H 388.771 -2.4948 -7.68626 0
M  V30 4190 H 392.357 -1.20059 -5.69278 0
M  V30 4191 H 391.237 -2.57711 -7.40645 0
M  V30 4192 N 388.74 1.54641 0.303973 0
M  V30 4193 C 389.67 1.88386 1.3796 0
M  V30 4194 C 390.651 0.742485 1.5304 0
M  V30 4195 O 391.836 0.997959 1.66597 0
M  V30 4196 C 388.966 2.12854 2.74427 0
M  V30 4197 C 387.92 3.28702 2.74115 0
M  V30 4198 C 387.246 3.38582 4.13844 0
M  V30 4199 C 388.546 4.65881 2.3612 0
M  V30 4200 H 390.24 2.78474 1.09966 0
M  V30 4201 H 387.786 1.33988 0.527556 0
M  V30 4202 H 389.739 2.35047 3.49758 0
M  V30 4203 H 388.463 1.19535 3.03939 0
M  V30 4204 H 387.122 3.06428 2.0124 0
M  V30 4205 H 386.77 2.42784 4.40528 0
M  V30 4206 H 386.47 4.16453 4.14537 0
M  V30 4207 H 387.994 3.63031 4.90959 0
M  V30 4208 H 389.408 4.87823 3.01167 0
M  V30 4209 H 387.805 5.46444 2.48031 0
M  V30 4210 H 388.875 4.66799 1.3125 0
M  V30 4211 N 390.218 -0.567019 1.47046 0
M  V30 4212 C 391.443 -1.3551 1.57009 0
M  V30 4213 C 391.868 -1.86841 0.217259 0
M  V30 4214 O 391.226 -1.62435 -0.805268 0
M  V30 4215 C 391.274 -2.50777 2.5912 0
M  V30 4216 O 390.378 -3.52706 2.13711 0
M  V30 4217 H 389.719 -0.402919 0.52778 0
M  V30 4218 H 392.249 -0.686241 1.92748 0
M  V30 4219 H 392.259 -2.97481 2.79229 0
M  V30 4220 H 390.934 -2.12771 3.57353 0
M  V30 4221 H 389.511 -3.12374 2.03659 0
M  V30 4222 N 391.696 -1.35014 -0.812953 0
M  V30 4223 C 392.644 -1.27435 -1.94585 0
M  V30 4224 C 393.638 -0.170494 -1.6854 0
M  V30 4225 O 394.844 -0.336085 -1.76835 0
M  V30 4226 H 391.219 -0.396144 -0.639198 0
M  V30 4227 H 393.19 -2.23158 -1.98098 0
M  V30 4228 C 391.939 -1.05677 -3.31252 0
M  V30 4229 H 391.262 -1.89853 -3.51846 0
M  V30 4230 H 392.702 -1.04413 -4.10943 0
M  V30 4231 C 391.161 0.239615 -3.36047 0
M  V30 4232 O 391.691 1.23759 -3.8216 0
M  V30 4233 N 389.897 0.276186 -2.89285 0
M  V30 4234 H 389.444 -0.53653 -2.51951 0
M  V30 4235 H 389.402 1.14332 -2.92875 0
M  V30 4236 N 393.175 1.03435 -1.18907 0
M  V30 4237 C 394.107 2.1165 -0.879595 0
M  V30 4238 C 395.12 1.62316 0.125439 0
M  V30 4239 O 396.309 1.78201 -0.103245 0
M  V30 4240 C 393.409 3.37622 -0.294042 0
M  V30 4241 C 392.582 4.16166 -1.34629 0
M  V30 4242 C 391.641 5.20457 -0.775274 0
M  V30 4243 O 390.667 5.50379 -1.4516 0
M  V30 4244 N 391.869 5.78949 0.424126 0
M  V30 4245 H 394.634 2.38791 -1.81105 0
M  V30 4246 H 392.195 1.19681 -1.09032 0
M  V30 4247 H 394.187 4.04572 0.101679 0
M  V30 4248 H 392.757 3.07873 0.541575 0
M  V30 4249 H 391.977 3.44444 -1.91707 0
M  V30 4250 H 393.265 4.65432 -2.05549 0
M  V30 4251 H 392.663 5.56948 0.991209 0
M  V30 4252 H 391.22 6.47334 0.761691 0
M  V30 4253 N 394.653 0.992116 1.22453 0
M  V30 4254 C 396.064 0.702776 1.72968 0
M  V30 4255 C 396.415 -0.780399 1.80012 0
M  V30 4256 O 395.54 -1.61007 1.44589 0
M  V30 4257 C 396.135 1.26903 3.14135 0
M  V30 4258 C 394.694 1.02909 3.62059 0
M  V30 4259 C 393.841 1.38969 2.39964 0
M  V30 4260 H 396.792 1.16457 1.07812 0
M  V30 4261 H 396.813 0.647223 3.74955 0
M  V30 4262 H 396.325 2.34851 3.08977 0
M  V30 4263 H 394.426 -0.0337979 3.72585 0
M  V30 4264 H 394.539 1.69191 4.48231 0
M  V30 4265 H 392.903 0.808279 2.41535 0
M  V30 4266 H 393.686 2.4792 2.37467 0
M  V30 4267 N 396.131 -1.37776 0.765217 0
M  V30 4268 C 397.359 -2.04124 0.337767 0
M  V30 4269 C 397.774 -1.57715 -1.03785 0
M  V30 4270 O 397.131 -0.755447 -1.6613 0
M  V30 4271 C 397.182 -3.59658 0.364442 0
M  V30 4272 O 396.903 -4.04367 1.68579 0
M  V30 4273 C 398.404 -4.43236 -0.0754221 0
M  V30 4274 H 395.624 -0.655696 0.142491 0
M  V30 4275 H 398.168 -1.76238 1.03732 0
M  V30 4276 H 396.323 -3.86339 -0.286471 0
M  V30 4277 H 396.737 -4.98857 1.61993 0
M  V30 4278 H 398.211 -5.52 -0.00560067 0
M  V30 4279 H 398.688 -4.2455 -1.12491 0
M  V30 4280 H 399.294 -4.21767 0.547055 0
M  V30 4281 N 397.609 -0.515225 -1.4894 0
M  V30 4282 C 398.541 0.292481 -2.27326 0
M  V30 4283 C 399.554 0.917838 -1.3446 0
M  V30 4284 O 400.743 0.798772 -1.5963 0
M  V30 4285 C 397.843 1.42803 -3.07344 0
M  V30 4286 C 397.016 0.907347 -4.27885 0
M  V30 4287 C 396.075 1.92222 -4.89834 0
M  V30 4288 O 395.101 1.48506 -5.49486 0
M  V30 4289 N 396.303 3.25355 -4.80754 0
M  V30 4290 H 399.068 -0.379721 -2.97285 0
M  V30 4291 H 396.629 -0.348638 -1.58102 0
M  V30 4292 H 398.621 2.10481 -3.45658 0
M  V30 4293 H 397.191 2.00414 -2.39902 0
M  V30 4294 H 396.411 0.0550218 -3.94162 0
M  V30 4295 H 397.699 0.538108 -5.05946 0
M  V30 4296 H 397.097 3.6355 -4.33414 0
M  V30 4297 H 395.654 3.88707 -5.23211 0
M  V30 4298 N 399.087 1.5561 -0.249682 0
M  V30 4299 C 400.333 1.99306 0.374841 0
M  V30 4300 C 400.666 1.13767 1.57387 0
M  V30 4301 O 399.941 0.201711 1.93451 0
M  V30 4302 C 400.224 3.51507 0.781986 0
M  V30 4303 C 400.077 4.4781 -0.422629 0
M  V30 4304 C 401.396 4.08884 1.62793 0
M  V30 4305 H 398.515 0.724572 0.134773 0
M  V30 4306 H 401.157 1.86719 -0.351549 0
M  V30 4307 H 399.307 3.62363 1.4009 0
M  V30 4308 H 400.979 4.48931 -1.06108 0
M  V30 4309 H 399.222 4.20518 -1.06524 0
M  V30 4310 H 399.893 5.51919 -0.0943766 0
M  V30 4311 H 402.369 4.01147 1.10547 0
M  V30 4312 H 401.245 5.1564 1.88166 0
M  V30 4313 H 401.506 3.57515 2.60068 0
M  V30 4314 N 400.565 -0.0233959 1.57583 0
M  V30 4315 C 401.495 -1.02162 2.09965 0
M  V30 4316 C 402.476 -1.3735 1.00344 0
M  V30 4317 O 403.661 -1.46135 1.27899 0
M  V30 4318 C 400.791 -2.32081 2.58371 0
M  V30 4319 C 399.745 -2.1112 3.72307 0
M  V30 4320 C 399.071 -3.46848 4.06941 0
M  V30 4321 C 400.371 -1.49276 5.00514 0
M  V30 4322 H 402.065 -0.585557 2.93618 0
M  V30 4323 H 399.611 -0.280218 1.41247 0
M  V30 4324 H 401.564 -3.02249 2.93639 0
M  V30 4325 H 400.288 -2.77758 1.71808 0
M  V30 4326 H 398.947 -1.43384 3.37397 0
M  V30 4327 H 398.595 -3.90184 3.17436 0
M  V30 4328 H 398.295 -3.33646 4.83688 0
M  V30 4329 H 399.819 -4.18369 4.44747 0
M  V30 4330 H 401.233 -2.09368 5.33702 0
M  V30 4331 H 399.63 -1.46632 5.8191 0
M  V30 4332 H 400.7 -0.459217 4.82721 0
M  V30 4333 N 402.043 -1.548 -0.295768 0
M  V30 4334 C 403.292 -1.73538 -1.02798 0
M  V30 4335 C 403.605 -0.531159 -1.8825 0
M  V30 4336 O 404.811 -0.600458 -2.64777 0
M  V30 4337 C 403.267 -3.07051 -1.87744 0
M  V30 4338 C 402.875 -4.34968 -1.07269 0
M  V30 4339 C 404.619 -3.35146 -2.60533 0
M  V30 4340 C 402.526 -5.5953 -1.91521 0
M  V30 4341 H 401.456 -0.646794 -0.387522 0
M  V30 4342 H 404.107 -1.81278 -0.284718 0
M  V30 4343 H 402.489 -2.93289 -2.66078 0
M  V30 4344 H 403.663 -4.5958 -0.335117 0
M  V30 4345 H 401.978 -4.13847 -0.460384 0
M  V30 4346 H 404.575 -4.2541 -3.23929 0
M  V30 4347 H 404.918 -2.54255 -3.29636 0
M  V30 4348 H 405.451 -3.49902 -1.89244 0
M  V30 4349 H 402.19 -6.43103 -1.26878 0
M  V30 4350 H 401.71 -5.39096 -2.62937 0
M  V30 4351 H 403.389 -5.96982 -2.49442 0
M  V30 4352 N 403.521 0.559213 -1.47345 0
M  V30 4353 C 404.746 1.34676 -1.57725 0
M  V30 4354 C 405.171 1.86723 -0.227164 0
M  V30 4355 O 404.529 1.6286 0.796642 0
M  V30 4356 C 404.577 2.49399 -2.60447 0
M  V30 4357 O 403.681 3.51567 -2.15578 0
M  V30 4358 H 403.022 0.400115 -0.52991 0
M  V30 4359 H 405.552 0.676009 -1.93109 0
M  V30 4360 H 405.562 2.95996 -2.80803 0
M  V30 4361 H 404.237 2.10873 -3.58477 0
M  V30 4362 H 402.814 3.11289 -2.05313 0
M  V30 4363 N 404.999 1.35443 0.805782 0
M  V30 4364 C 406.229 1.31687 1.59192 0
M  V30 4365 C 406.637 -0.10756 1.88894 0
M  V30 4366 O 405.98 -1.07017 1.49309 0
M  V30 4367 C 406.042 2.05686 2.94845 0
M  V30 4368 C 405.706 3.54868 2.87954 0
M  V30 4369 C 406.703 4.49444 2.61335 0
M  V30 4370 C 404.388 3.97528 3.07046 0
M  V30 4371 C 406.382 5.84655 2.53885 0
M  V30 4372 C 404.069 5.32833 2.99219 0
M  V30 4373 C 405.067 6.26209 2.72674 0
M  V30 4374 O 404.755 7.59032 2.64811 0
M  V30 4375 H 404.487 0.453878 0.50097 0
M  V30 4376 H 407.041 1.78892 1.0093 0
M  V30 4377 H 405.271 1.5312 3.55093 0
M  V30 4378 H 406.96 1.94998 3.55993 0
M  V30 4379 H 407.726 4.17804 2.46303 0
M  V30 4380 H 403.605 3.25233 3.26718 0
M  V30 4381 H 407.149 6.57508 2.33086 0
M  V30 4382 H 403.046 5.64087 3.13809 0
M  V30 4383 H 403.814 7.68967 2.80413 0
M  V30 4384 N 406.477 -1.02803 1.19454 0
M  V30 4385 C 407.754 -1.73299 0.907013 0
M  V30 4386 C 408.134 -2.02772 -0.587086 0
M  V30 4387 O 407.482 -1.68304 -1.54551 0
M  V30 4388 C 407.692 -3.00912 1.76785 0
M  V30 4389 C 409.04 -3.74403 2.00268 0
M  V30 4390 O 410.064 -3.10841 1.73943 0
M  V30 4391 O 408.923 -4.88675 2.4466 0
M  V30 4392 H 406.017 -0.754727 0.338106 0
M  V30 4393 H 408.563 -1.08754 1.30271 0
M  V30 4394 H 407.335 -2.75366 2.7801 0
M  V30 4395 H 406.958 -3.73197 1.37149 0
M  V30 4396 N 407.956 -0.998596 -1.21925 0
M  V30 4397 C 409.233 -0.593401 -1.86382 0
M  V30 4398 C 409.613 0.92916 -1.89552 0
M  V30 4399 O 408.961 1.81347 -1.39017 0
M  V30 4400 C 409.171 -1.22039 -3.26967 0
M  V30 4401 C 410.519 -1.32449 -4.03413 0
M  V30 4402 O 411.543 -1.17522 -3.36254 0
M  V30 4403 O 410.402 -1.56395 -5.23644 0
M  V30 4404 H 407.496 -0.202385 -0.801854 0
M  V30 4405 H 410.042 -1.09484 -1.29659 0
M  V30 4406 H 408.814 -2.26158 -3.19325 0
M  V30 4407 H 408.437 -0.704906 -3.91301 0
M  V30 4408 N 409.434 1.37368 -0.772513 0
M  V30 4409 C 410.711 1.93839 -0.26188 0
M  V30 4410 C 411.091 1.7061 1.24319 0
M  V30 4411 O 410.439 1.05534 2.02669 0
M  V30 4412 C 410.649 3.43154 -0.636102 0
M  V30 4413 C 411.997 4.20249 -0.606324 0
M  V30 4414 O 413.021 3.5152 -0.575538 0
M  V30 4415 O 411.88 5.42809 -0.634086 0
M  V30 4416 H 408.974 0.82478 -0.0605555 0
M  V30 4417 H 411.52 1.4665 -0.853917 0
M  V30 4418 H 410.292 3.53647 -1.6748 0
M  V30 4419 H 409.915 3.97596 -0.0170516 0
M  V30 4420 N 410.912 0.523116 1.48665 0
M  V30 4421 C 411.859 -0.243398 2.29513 0
M  V30 4422 C 412.829 -0.940139 1.36933 0
M  V30 4423 O 414.014 -0.942503 1.65896 0
M  V30 4424 C 411.154 -1.28855 3.20141 0
M  V30 4425 C 410.267 -0.60135 4.27794 0
M  V30 4426 C 409.402 -1.62884 5.05611 0
M  V30 4427 C 408.441 -0.924726 6.05075 0
M  V30 4428 N 407.578 -1.89744 6.75975 0
M  V30 4429 H 412.418 0.452234 2.94549 0
M  V30 4430 H 409.955 0.234858 1.45213 0
M  V30 4431 H 411.913 -1.90674 3.71079 0
M  V30 4432 H 410.543 -1.95266 2.57043 0
M  V30 4433 H 409.595 0.130623 3.80176 0
M  V30 4434 H 410.907 -0.0481585 4.98777 0
M  V30 4435 H 410.061 -2.32149 5.60528 0
M  V30 4436 H 408.8 -2.21592 4.34452 0
M  V30 4437 H 407.805 -0.217966 5.49368 0
M  V30 4438 H 409.03 -0.343851 6.78229 0
M  V30 4439 H 406.976 -2.47373 6.07571 0
M  V30 4440 H 406.893 -1.3955 7.43009 0
M  V30 4441 H 408.161 -2.58229 7.35485 0
M  V30 4442 N 412.39 -1.55475 0.257931 0
M  V30 4443 C 413.338 -2.23244 -0.653076 0
M  V30 4444 C 414.332 -1.22366 -1.17144 0
M  V30 4445 O 415.538 -1.40347 -1.12706 0
M  V30 4446 H 411.913 -0.716247 -0.229117 0
M  V30 4447 H 413.884 -2.98343 -0.0584788 0
M  V30 4448 C 412.633 -2.95401 -1.83395 0
M  V30 4449 H 411.956 -3.72802 -1.44424 0
M  V30 4450 H 413.396 -3.46165 -2.44838 0
M  V30 4451 C 411.855 -1.99895 -2.71189 0
M  V30 4452 O 412.385 -1.53909 -3.71046 0
M  V30 4453 N 410.591 -1.6676 -2.3799 0
M  V30 4454 H 410.138 -2.04352 -1.56837 0
M  V30 4455 H 410.096 -1.03127 -2.97005 0
M  V30 4456 N 413.868 0.0150385 -1.57593 0
M  V30 4457 C 415.279 0.559832 -1.78109 0
M  V30 4458 C 415.63 1.74814 -0.890756 0
M  V30 4459 O 414.755 2.16216 -0.0892482 0
M  V30 4460 C 415.35 1.02238 -3.23006 0
M  V30 4461 C 413.909 1.51258 -3.44671 0
M  V30 4462 C 413.056 0.456955 -2.73509 0
M  V30 4463 H 416.007 -0.211169 -1.57289 0
M  V30 4464 H 416.028 1.88912 -3.30292 0
M  V30 4465 H 415.54 0.157302 -3.87781 0
M  V30 4466 H 413.641 2.39905 -2.8509 0
M  V30 4467 H 413.754 1.55042 -4.5332 0
M  V30 4468 H 412.118 0.915196 -2.37689 0
M  V30 4469 H 412.901 -0.398896 -3.40975 0
M  V30 4470 N 415.346 1.54954 0.287554 0
M  V30 4471 C 416.586 1.76617 1.02887 0
M  V30 4472 C 416.95 0.547759 1.84021 0
M  V30 4473 O 418.151 0.642365 2.61012 0
M  V30 4474 C 416.422 3.02717 1.89993 0
M  V30 4475 S 417.981 3.45438 2.70588 0
M  V30 4476 H 414.799 0.6207 0.346775 0
M  V30 4477 H 417.401 1.93172 0.30082 0
M  V30 4478 H 416.105 3.89503 1.29287 0
M  V30 4479 H 415.636 2.88787 2.67144 0
M  V30 4480 H 417.651 3.03566 3.92508 0
M  V30 4481 N 416.824 -0.551391 1.4764 0
M  V30 4482 C 417.754 -1.66757 1.63445 0
M  V30 4483 C 418.735 -1.63077 0.483742 0
M  V30 4484 O 419.92 -1.80607 0.71377 0
M  V30 4485 C 417.05 -3.05387 1.65396 0
M  V30 4486 C 416.004 -3.23918 2.79752 0
M  V30 4487 C 415.33 -4.63393 2.66779 0
M  V30 4488 C 416.63 -3.08735 4.21284 0
M  V30 4489 H 418.324 -1.53786 2.56886 0
M  V30 4490 H 415.87 -0.738415 1.23626 0
M  V30 4491 H 417.823 -3.83325 1.75043 0
M  V30 4492 H 416.547 -3.19332 0.685195 0
M  V30 4493 H 415.206 -2.48391 2.69625 0
M  V30 4494 H 414.854 -4.74144 1.67918 0
M  V30 4495 H 414.554 -4.7674 3.43501 0
M  V30 4496 H 416.078 -5.43458 2.78364 0
M  V30 4497 H 417.492 -3.76484 4.32357 0
M  V30 4498 H 415.889 -3.33588 4.98838 0
M  V30 4499 H 416.959 -2.0541 4.39243 0
M  V30 4500 N 418.302 -1.35869 -0.798587 0
M  V30 4501 C 419.234 -1.25305 -1.91915 0
M  V30 4502 C 420.247 -0.174548 -1.61862 0
M  V30 4503 O 421.436 -0.428499 -1.73281 0
M  V30 4504 C 418.536 -0.9086 -3.26493 0
M  V30 4505 C 417.709 -2.08711 -3.84394 0
M  V30 4506 C 416.768 -1.71717 -4.97393 0
M  V30 4507 O 415.794 -2.43692 -5.14396 0
M  V30 4508 N 416.996 -0.645473 -5.769 0
M  V30 4509 H 419.761 -2.21849 -2.01502 0
M  V30 4510 H 417.322 -1.29143 -0.976408 0
M  V30 4511 H 419.314 -0.642455 -3.99568 0
M  V30 4512 H 417.884 -0.0325815 -3.12583 0
M  V30 4513 H 417.104 -2.51659 -3.03416 0
M  V30 4514 H 418.392 -2.87468 -4.19809 0
M  V30 4515 H 417.79 -0.047648 -5.6568 0
M  V30 4516 H 416.347 -0.43913 -6.50319 0
M  V30 4517 N 419.78 1.02168 -1.19998 0
M  V30 4518 C 420.71 2.12488 -0.96804 0
M  V30 4519 C 421.691 1.69799 0.101185 0
M  V30 4520 O 422.876 1.94121 -0.0552993 0
M  V30 4521 C 420.006 3.43479 -0.513776 0
M  V30 4522 C 418.96 3.99884 -1.52566 0
M  V30 4523 C 418.286 5.26582 -0.928214 0
M  V30 4524 C 419.586 4.33861 -2.90795 0
M  V30 4525 H 421.28 2.32149 -1.89069 0
M  V30 4526 H 418.826 1.11564 -0.910468 0
M  V30 4527 H 420.779 4.20036 -0.338774 0
M  V30 4528 H 419.503 3.23561 0.444493 0
M  V30 4529 H 418.162 3.25429 -1.68794 0
M  V30 4530 H 417.81 5.02986 0.0378289 0
M  V30 4531 H 417.51 5.65284 -1.60397 0
M  V30 4532 H 419.034 6.05799 -0.764167 0
M  V30 4533 H 420.448 5.01327 -2.78109 0
M  V30 4534 H 418.845 4.83664 -3.55231 0
M  V30 4535 H 419.915 3.42848 -3.42904 0
M  V30 4536 N 421.258 1.00505 1.21394 0
M  V30 4537 C 422.504 0.698477 1.91031 0
M  V30 4538 C 422.859 -0.762448 1.76648 0
M  V30 4539 O 422.152 -1.54554 1.13241 0
M  V30 4540 C 422.346 1.0546 3.41486 0
M  V30 4541 C 422.175 2.5486 3.70508 0
M  V30 4542 C 420.945 3.21461 3.8986 0
M  V30 4543 C 423.143 3.53019 3.74008 0
M  V30 4544 N 421.125 4.60211 4.06299 0
M  V30 4545 C 422.496 4.77279 3.95733 0
M  V30 4546 C 424.551 3.47154 3.56915 0
M  V30 4547 C 423.254 5.96388 4.02137 0
M  V30 4548 C 425.28 4.65652 3.64585 0
M  V30 4549 C 424.642 5.88717 3.86771 0
M  V30 4550 H 420.741 0.30707 0.719189 0
M  V30 4551 H 423.325 1.28753 1.46051 0
M  V30 4552 H 421.496 0.494007 3.85246 0
M  V30 4553 H 423.228 0.702765 3.98552 0
M  V30 4554 H 419.983 2.71906 3.87768 0
M  V30 4555 H 420.407 5.32216 4.1842 0
M  V30 4556 H 425.049 2.53015 3.38738 0
M  V30 4557 H 422.767 6.90919 4.19114 0
M  V30 4558 H 426.353 4.62717 3.52681 0
M  V30 4559 H 425.233 6.78877 3.92549 0
M  V30 4560 N 422.737 -1.36956 0.779787 0
M  V30 4561 C 424.014 -1.93697 0.272156 0
M  V30 4562 C 424.394 -1.71267 -1.23413 0
M  V30 4563 O 423.742 -1.06607 -2.02107 0
M  V30 4564 C 423.952 -3.42812 0.654291 0
M  V30 4565 C 425.3 -4.19921 0.628602 0
M  V30 4566 O 426.324 -3.51209 0.594172 0
M  V30 4567 O 425.183 -5.42465 0.662864 0
M  V30 4568 H 422.277 -0.824447 0.0649286 0
M  V30 4569 H 424.823 -1.46196 0.861682 0
M  V30 4570 H 423.595 -3.52754 1.69353 0
M  V30 4571 H 423.218 -3.97582 0.0381369 0
M  V30 4572 N 424.215 -0.530993 -1.48385 0
M  V30 4573 C 425.145 0.219985 -2.32461 0
M  V30 4574 C 426.126 0.934111 -1.42156 0
M  V30 4575 O 427.311 0.919694 -1.71042 0
M  V30 4576 C 424.441 1.26674 -3.23375 0
M  V30 4577 C 423.395 0.67069 -4.22712 0
M  V30 4578 C 422.721 1.82017 -5.02766 0
M  V30 4579 C 424.021 -0.358268 -5.2107 0
M  V30 4580 H 425.715 -0.48187 -2.95497 0
M  V30 4581 H 423.261 -0.233182 -1.42099 0
M  V30 4582 H 425.214 1.80006 -3.81019 0
M  V30 4583 H 423.938 1.99818 -2.58341 0
M  V30 4584 H 422.597 0.158878 -3.66256 0
M  V30 4585 H 422.245 2.54002 -4.34157 0
M  V30 4586 H 421.945 1.42727 -5.70003 0
M  V30 4587 H 423.469 2.35725 -5.63264 0
M  V30 4588 H 424.883 0.0880081 -5.73232 0
M  V30 4589 H 423.28 -0.66861 -5.96364 0
M  V30 4590 H 424.35 -1.26367 -4.68145 0
M  V30 4591 N 425.693 1.55336 -0.266172 0
M  V30 4592 C 427.109 1.59356 0.0882065 0
M  V30 4593 C 427.309 1.2834 1.55342 0
M  V30 4594 O 426.365 1.03996 2.30089 0
M  V30 4595 C 427.678 2.99409 -0.278364 0
M  V30 4596 C 429.226 3.12196 -0.224243 0
M  V30 4597 C 429.701 4.545 -0.565123 0
M  V30 4598 N 431.192 4.60313 -0.51634 0
M  V30 4599 C 431.927 5.68434 -0.753013 0
M  V30 4600 N 431.423 6.84738 -1.05383 0
M  V30 4601 N 433.216 5.57942 -0.682414 0
M  V30 4602 H 425.367 1.73764 -1.22147 0
M  V30 4603 H 427.63 0.809822 -0.492841 0
M  V30 4604 H 427.336 3.2691 -1.29703 0
M  V30 4605 H 427.21 3.75228 0.385186 0
M  V30 4606 H 429.597 2.84464 0.78512 0
M  V30 4607 H 429.678 2.38609 -0.921922 0
M  V30 4608 H 429.322 4.82956 -1.57213 0
M  V30 4609 H 429.252 5.26374 0.154248 0
M  V30 4610 H 431.743 3.7676 -0.29335 0
M  V30 4611 H 432.056 7.63088 -1.22133 0
M  V30 4612 H 430.401 6.86375 -1.09151 0
M  V30 4613 H 433.592 4.65958 -0.44731 0
M  V30 4614 H 433.765 6.4213 -0.870248 0
M  V30 4615 N 427.171 -0.0066808 1.57599 0
M  V30 4616 C 428.119 -1.01851 2.09115 0
M  V30 4617 C 429.113 -1.36021 1.00969 0
M  V30 4618 O 430.319 -1.34663 1.19439 0
M  V30 4619 H 426.694 -0.346083 0.667631 0
M  V30 4620 H 428.665 -0.558394 2.93129 0
M  V30 4621 C 427.414 -2.30374 2.60429 0
M  V30 4622 H 426.737 -2.04947 3.43273 0
M  V30 4623 H 428.177 -2.99466 3.00161 0
M  V30 4624 C 426.636 -3.00893 1.51542 0
M  V30 4625 O 427.166 -3.91614 0.894484 0
M  V30 4626 N 425.372 -2.62603 1.2445 0
M  V30 4627 H 424.919 -1.88911 1.75129 0
M  V30 4628 H 424.877 -3.10101 0.518137 0
M  V30 4629 N 428.649 -1.55105 -0.279332 0
M  V30 4630 C 429.874 -1.7976 -1.03446 0
M  V30 4631 C 430.299 -0.565952 -1.79384 0
M  V30 4632 O 429.657 0.484259 -1.74713 0
M  V30 4633 C 429.705 -3.0179 -1.97371 0
M  V30 4634 O 428.809 -2.76432 -3.06038 0
M  V30 4635 H 428.15 -0.594334 -0.29608 0
M  V30 4636 H 430.68 -2.02235 -0.310165 0
M  V30 4637 H 430.69 -3.30351 -2.39441 0
M  V30 4638 H 429.365 -3.91085 -1.4151 0
M  V30 4639 H 427.942 -2.58949 -2.68328 0
M  V30 4640 N 430.127 0.543554 -1.4793 0
M  V30 4641 C 431.075 1.67039 -1.61866 0
M  V30 4642 C 432.069 1.62294 -0.48549 0
M  V30 4643 O 433.275 1.67315 -0.66376 0
M  V30 4644 H 429.65 0.552954 -0.509652 0
M  V30 4645 H 431.621 1.52426 -2.56533 0
M  V30 4646 C 430.37 3.05357 -1.6629 0
M  V30 4647 H 429.693 3.09696 -2.5284 0
M  V30 4648 H 431.133 3.83855 -1.80088 0
M  V30 4649 C 429.592 3.34531 -0.398861 0
M  V30 4650 O 430.122 3.98649 0.494162 0
M  V30 4651 N 428.328 2.89299 -0.2747 0
M  V30 4652 H 427.875 2.37298 -1.00236 0
M  V30 4653 H 427.833 3.09188 0.570075 0
M  V30 4654 N 431.605 1.3629 0.791371 0
M  V30 4655 C 432.835 1.33368 1.57786 0
M  V30 4656 C 433.243 -0.0875188 1.88997 0
M  V30 4657 O 432.586 -1.05427 1.50435 0
M  V30 4658 C 432.648 2.08802 2.92646 0
M  V30 4659 C 432.312 3.57903 2.84174 0
M  V30 4660 C 433.309 4.52191 2.56553 0
M  V30 4661 C 430.994 4.00762 3.02812 0
M  V30 4662 C 432.988 5.87315 2.47669 0
M  V30 4663 C 430.675 5.35977 2.93551 0
M  V30 4664 C 431.673 6.29066 2.66017 0
M  V30 4665 O 431.361 7.61798 2.56746 0
M  V30 4666 H 431.093 0.459166 0.496128 0
M  V30 4667 H 433.647 1.79952 0.990269 0
M  V30 4668 H 431.877 1.56878 3.53449 0
M  V30 4669 H 433.566 1.98762 3.53904 0
M  V30 4670 H 434.332 4.20393 2.41858 0
M  V30 4671 H 430.211 3.2868 3.2325 0
M  V30 4672 H 433.755 6.59943 2.26099 0
M  V30 4673 H 429.652 5.67384 3.07808 0
M  V30 4674 H 430.42 7.71898 2.72242 0
M  V30 4675 N 433.083 -1.0153 1.20538 0
M  V30 4676 C 434.494 -1.56598 1.01657 0
M  V30 4677 C 434.845 -1.91505 -0.426668 0
M  V30 4678 O 433.97 -1.72375 -1.30827 0
M  V30 4679 C 434.565 -2.84542 1.83905 0
M  V30 4680 C 433.124 -3.36133 1.69386 0
M  V30 4681 C 432.271 -2.09427 1.81757 0
M  V30 4682 H 435.222 -0.838974 1.34711 0
M  V30 4683 H 435.243 -3.56004 1.34319 0
M  V30 4684 H 434.755 -2.59105 2.8894 0
M  V30 4685 H 432.856 -3.66528 0.669933 0
M  V30 4686 H 432.969 -4.08248 2.50739 0
M  V30 4687 H 431.333 -2.21941 1.24957 0
M  V30 4688 H 432.116 -1.86414 2.88279 0
M  V30 4689 N 434.561 -1.01147 -1.20859 0
M  V30 4690 C 435.81 -0.693214 -1.89413 0
M  V30 4691 C 436.123 0.779969 -1.79376 0
M  V30 4692 O 437.329 1.21057 -2.43017 0
M  V30 4693 C 435.785 -1.18949 -3.39675 0
M  V30 4694 C 435.393 -2.68921 -3.58309 0
M  V30 4695 C 437.137 -0.94642 -4.13815 0
M  V30 4696 C 435.044 -3.12056 -5.0237 0
M  V30 4697 H 433.974 -0.255595 -0.709357 0
M  V30 4698 H 436.625 -1.22349 -1.36759 0
M  V30 4699 H 435.007 -0.587228 -3.91622 0
M  V30 4700 H 436.181 -3.34652 -3.16772 0
M  V30 4701 H 434.496 -2.91314 -2.97532 0
M  V30 4702 H 437.093 -1.24417 -5.20023 0
M  V30 4703 H 437.436 0.117219 -4.16135 0
M  V30 4704 H 437.969 -1.5118 -3.67953 0
M  V30 4705 H 434.708 -4.17674 -5.05202 0
M  V30 4706 H 434.228 -2.51041 -5.44737 0
M  V30 4707 H 435.907 -3.04403 -5.70918 0
M  V30 4708 N 436.039 1.36541 -0.78704 0
M  V30 4709 C 436.986 2.30082 -0.181901 0
M  V30 4710 C 437.956 1.5186 0.672896 0
M  V30 4711 O 439.141 1.80374 0.622072 0
M  V30 4712 C 436.281 3.3835 0.679197 0
M  V30 4713 C 435.394 4.31565 -0.193882 0
M  V30 4714 C 434.529 5.26915 0.673364 0
M  V30 4715 C 433.568 6.11769 -0.201315 0
M  V30 4716 N 432.705 6.99315 0.624777 0
M  V30 4717 H 437.545 2.81248 -0.985064 0
M  V30 4718 H 435.082 1.38437 -0.497342 0
M  V30 4719 H 437.04 3.99767 1.19341 0
M  V30 4720 H 435.67 2.8851 1.44781 0
M  V30 4721 H 434.722 3.71323 -0.826044 0
M  V30 4722 H 436.034 4.91191 -0.867937 0
M  V30 4723 H 435.188 5.9361 1.25348 0
M  V30 4724 H 433.927 4.67737 1.38105 0
M  V30 4725 H 432.932 5.44039 -0.793849 0
M  V30 4726 H 434.157 6.73022 -0.906568 0
M  V30 4727 H 432.103 6.42648 1.3168 0
M  V30 4728 H 432.02 7.56 0.00835237 0
M  V30 4729 H 433.288 7.70382 1.18879 0
M  V30 4730 N 437.518 0.538854 1.48102 0
M  V30 4731 C 438.428 -0.222648 2.33541 0
M  V30 4732 C 439.444 -0.930225 1.47047 0
M  V30 4733 O 440.62 -0.903211 1.80011 0
M  V30 4734 C 437.685 -1.25064 3.23357 0
M  V30 4735 C 436.746 -0.552469 4.2573 0
M  V30 4736 C 435.979 -1.53149 5.11254 0
M  V30 4737 O 436.202 -2.76487 4.9891 0
M  V30 4738 O 435.136 -1.06602 5.92385 0
M  V30 4739 H 438.962 0.477707 2.99919 0
M  V30 4740 H 436.547 0.299669 1.46364 0
M  V30 4741 H 438.429 -1.8445 3.78888 0
M  V30 4742 H 437.104 -1.93325 2.59629 0
M  V30 4743 H 436.011 0.082114 3.7401 0
M  V30 4744 H 437.344 0.0883526 4.92121 0
M  V30 4745 N 438.996 -1.55193 0.274407 0
M  V30 4746 C 440.245 -1.98758 -0.343213 0
M  V30 4747 C 440.558 -1.16624 -1.5703 0
M  V30 4748 O 441.764 -1.5033 -2.26082 0
M  V30 4749 C 440.22 -3.53759 -0.661996 0
M  V30 4750 C 439.828 -4.4467 0.54524 0
M  V30 4751 C 441.572 -4.05916 -1.24228 0
M  V30 4752 C 439.479 -5.91058 0.201084 0
M  V30 4753 H 438.409 -0.742353 -0.132014 0
M  V30 4754 H 441.06 -1.79545 0.378948 0
M  V30 4755 H 439.442 -3.68772 -1.44304 0
M  V30 4756 H 440.616 -4.41426 1.32212 0
M  V30 4757 H 438.931 -4.03143 1.04232 0
M  V30 4758 H 441.528 -5.12831 -1.51357 0
M  V30 4759 H 441.871 -3.54908 -2.17592 0
M  V30 4760 H 442.404 -3.9434 -0.523542 0
M  V30 4761 H 439.143 -6.46161 1.10258 0
M  V30 4762 H 438.663 -5.97373 -0.539045 0
M  V30 4763 H 440.342 -6.46669 -0.206954 0
M  V30 4764 N 440.474 -0.00167713 -1.576 0
M  V30 4765 C 441.723 0.682021 -1.89819 0
M  V30 4766 C 442.036 1.74844 -0.876871 0
M  V30 4767 O 443.242 2.48688 -1.08934 0
M  V30 4768 C 441.698 1.26425 -3.36964 0
M  V30 4769 C 441.306 0.232568 -4.47396 0
M  V30 4770 C 443.05 1.92604 -3.78291 0
M  V30 4771 C 440.957 0.824882 -5.85619 0
M  V30 4772 H 439.887 0.258499 -0.708304 0
M  V30 4773 H 442.538 -0.0624957 -1.83394 0
M  V30 4774 H 440.92 2.05949 -3.38232 0
M  V30 4775 H 442.094 -0.5382 -4.57646 0
M  V30 4776 H 440.409 -0.32888 -4.15099 0
M  V30 4777 H 443.006 2.37827 -4.78897 0
M  V30 4778 H 443.349 2.75732 -3.11894 0
M  V30 4779 H 443.882 1.19812 -3.79328 0
M  V30 4780 H 440.621 0.0323542 -6.55492 0
M  V30 4781 H 440.141 1.56477 -5.79029 0
M  V30 4782 H 441.82 1.32301 -6.33329 0
M  V30 4783 N 441.952 1.55251 0.271103 0
M  V30 4784 C 443.2 1.75599 1.00047 0
M  V30 4785 C 443.521 0.561188 1.8675 0
M  V30 4786 O 442.791 -0.423846 1.9126 0
M  V30 4787 H 441.371 0.647562 0.372387 0
M  V30 4788 H 444.033 1.92656 0.294876 0
M  V30 4789 H 443.129 2.65766 1.6363 0
M  V30 4790 N 443.43 -0.535701 1.48216 0
M  V30 4791 C 444.38 -1.63688 1.58714 0
M  V30 4792 C 445.364 -1.54635 0.444615 0
M  V30 4793 O 446.556 -1.62753 0.695742 0
M  V30 4794 C 443.685 -3.02423 1.62466 0
M  V30 4795 C 442.771 -3.16601 2.82178 0
M  V30 4796 N 443.162 -3.00771 4.06658 0
M  V30 4797 C 441.46 -3.47645 2.79391 0
M  V30 4798 C 442.161 -3.18213 4.86945 0
M  V30 4799 N 441.137 -3.45528 4.19656 0
M  V30 4800 H 444.939 -1.5005 2.5271 0
M  V30 4801 H 442.453 -0.741018 1.44508 0
M  V30 4802 H 444.45 -3.81517 1.6808 0
M  V30 4803 H 443.11 -3.17157 0.695826 0
M  V30 4804 H 444.121 -2.77652 4.37184 0
M  V30 4805 H 440.798 -3.68771 1.95739 0
M  V30 4806 H 442.188 -3.1076 5.95716 0
M  V30 4807 N 444.908 -1.36708 -0.784132 0
M  V30 4808 C 446.133 -1.34565 -1.5782 0
M  V30 4809 C 446.558 0.0695257 -1.87971 0
M  V30 4810 O 445.916 1.04302 -1.48293 0
M  V30 4811 C 445.964 -2.17952 -2.87279 0
M  V30 4812 O 445.068 -1.57563 -3.81114 0
M  V30 4813 H 444.409 -0.460337 -0.478524 0
M  V30 4814 H 446.939 -1.80064 -0.971495 0
M  V30 4815 H 446.949 -2.30721 -3.365 0
M  V30 4816 H 445.624 -3.20823 -2.64661 0
M  V30 4817 H 444.201 -1.53764 -3.39722 0
M  V30 4818 N 446.386 1.0089 -1.21074 0
M  V30 4819 C 447.333 2.09588 -0.966512 0
M  V30 4820 C 448.303 1.65761 0.106089 0
M  V30 4821 O 449.488 1.90758 -0.0402287 0
M  V30 4822 C 446.628 3.40958 -0.533058 0
M  V30 4823 C 445.741 3.9822 -1.67467 0
M  V30 4824 C 444.876 5.17682 -1.19076 0
M  V30 4825 C 443.915 5.67043 -2.30496 0
M  V30 4826 N 443.052 6.77759 -1.83267 0
M  V30 4827 H 447.892 2.29815 -1.89708 0
M  V30 4828 H 445.429 1.12689 -0.945489 0
M  V30 4829 H 447.387 4.1637 -0.263019 0
M  V30 4830 H 446.017 3.20781 0.360505 0
M  V30 4831 H 445.069 3.1983 -2.05944 0
M  V30 4832 H 446.381 4.3085 -2.51336 0
M  V30 4833 H 445.535 6.00326 -0.877151 0
M  V30 4834 H 444.274 4.86635 -0.322066 0
M  V30 4835 H 443.279 4.82999 -2.62664 0
M  V30 4836 H 444.504 6.00121 -3.17855 0
M  V30 4837 H 442.45 6.48527 -0.987356 0
M  V30 4838 H 442.367 7.09624 -2.60711 0
M  V30 4839 H 443.635 7.63949 -1.54928 0
M  V30 4840 N 447.864 1.01787 1.20321 0
M  V30 4841 C 449.112 0.706538 1.89347 0
M  V30 4842 C 449.433 -0.766289 1.79313 0
M  V30 4843 O 448.703 -1.55126 1.19635 0
M  V30 4844 H 447.283 0.258348 0.700903 0
M  V30 4845 H 449.945 1.28974 1.46122 0
M  V30 4846 H 449.041 0.991066 2.95946 0
M  V30 4847 N 449.342 -1.36122 0.79427 0
M  V30 4848 C 450.591 -1.98361 0.365464 0
M  V30 4849 C 450.904 -1.6374 -1.06997 0
M  V30 4850 O 452.11 -2.19251 -1.60129 0
M  V30 4851 C 450.566 -3.54821 0.602496 0
M  V30 4852 C 450.174 -3.98362 2.04967 0
M  V30 4853 C 451.918 -4.2383 0.238437 0
M  V30 4854 C 449.825 -5.47619 2.2331 0
M  V30 4855 H 448.755 -0.742193 0.13291 0
M  V30 4856 H 451.406 -1.55354 0.976589 0
M  V30 4857 H 449.788 -3.95922 -0.078409 0
M  V30 4858 H 450.962 -3.68447 2.76737 0
M  V30 4859 H 449.277 -3.42206 2.37243 0
M  V30 4860 H 451.874 -5.33529 0.353705 0
M  V30 4861 H 452.217 -4.08264 -0.814006 0
M  V30 4862 H 452.75 -3.88108 0.872769 0
M  V30 4863 H 449.489 -5.68138 3.26955 0
M  V30 4864 H 449.009 -5.79145 1.5605 0
M  V30 4865 H 450.688 -6.13911 2.0426 0
M  V30 4866 N 450.82 -0.546701 -1.47814 0
M  V30 4867 C 451.768 0.220048 -2.31557 0
M  V30 4868 C 452.762 0.919472 -1.42275 0
M  V30 4869 O 453.968 0.841953 -1.59095 0
M  V30 4870 H 450.343 0.0898334 -0.746615 0
M  V30 4871 H 452.314 -0.505589 -2.94086 0
M  V30 4872 C 451.063 1.24353 -3.24702 0
M  V30 4873 H 450.386 0.714758 -3.93359 0
M  V30 4874 H 451.826 1.75112 -3.8615 0
M  V30 4875 C 450.285 2.28593 -2.47481 0
M  V30 4876 O 450.815 3.35334 -2.21165 0
M  V30 4877 N 449.021 2.02244 -2.08676 0
M  V30 4878 H 448.568 1.15455 -2.30278 0
M  V30 4879 H 448.526 2.72207 -1.57323 0
M  V30 4880 N 452.299 1.55045 -0.282633 0
M  V30 4881 C 453.247 2.24254 0.617478 0
M  V30 4882 C 454.241 1.24215 1.15183 0
M  V30 4883 O 455.447 1.42123 1.10459 0
M  V30 4884 H 451.822 0.719801 0.217693 0
M  V30 4885 H 453.793 2.98398 0.0110076 0
M  V30 4886 C 452.542 2.98281 1.78672 0
M  V30 4887 H 451.865 3.75053 1.38475 0
M  V30 4888 H 453.305 3.50017 2.393 0
M  V30 4889 C 451.764 2.04184 2.67975 0
M  V30 4890 O 452.294 1.59792 3.6855 0
M  V30 4891 N 450.5 1.70526 2.35307 0
M  V30 4892 H 450.047 2.06821 1.53567 0
M  V30 4893 H 450.005 1.07839 2.95327 0
M  V30 4894 N 453.777 0.010035 1.57597 0
M  V30 4895 C 455.026 -0.671945 1.90178 0
M  V30 4896 C 455.339 -1.74376 0.886131 0
M  V30 4897 O 456.545 -2.48107 1.10252 0
M  V30 4898 C 455.001 -1.24636 3.3763 0
M  V30 4899 C 454.609 -0.208838 4.47513 0
M  V30 4900 C 456.353 -1.90595 3.79307 0
M  V30 4901 C 454.26 -0.793814 5.86048 0
M  V30 4902 H 453.19 -0.25474 0.709665 0
M  V30 4903 H 455.841 0.0722206 1.83358 0
M  V30 4904 H 454.223 -2.04152 3.3932 0
M  V30 4905 H 455.397 0.562463 4.57354 0
M  V30 4906 H 453.712 0.350889 4.14919 0
M  V30 4907 H 456.309 -2.35284 4.80151 0
M  V30 4908 H 456.652 -2.74074 3.13352 0
M  V30 4909 H 457.185 -1.17798 3.79958 0
M  V30 4910 H 453.924 0.00240855 6.555 0
M  V30 4911 H 453.444 -1.53404 5.79851 0
M  V30 4912 H 455.123 -1.2894 6.34022 0
M  V30 4913 N 455.255 -1.55392 -0.262866 0
M  V30 4914 C 456.495 -1.78231 -1.00064 0
M  V30 4915 C 456.859 -0.576966 -1.83126 0
M  V30 4916 O 458.06 -0.683809 -2.59957 0
M  V30 4917 C 456.331 -3.05701 -1.85153 0
M  V30 4918 S 457.89 -3.49699 -2.65058 0
M  V30 4919 H 454.708 -0.626138 -0.336856 0
M  V30 4920 H 457.31 -1.93626 -0.27005 0
M  V30 4921 H 456.014 -3.91511 -1.23074 0
M  V30 4922 H 455.545 -2.93 -2.62515 0
M  V30 4923 H 457.56 -3.09772 -3.87629 0
M  V30 4924 N 456.733 0.527833 -1.48498 0
M  V30 4925 C 457.98 1.28354 -1.56625 0
M  V30 4926 C 458.308 1.93 -0.241096 0
M  V30 4927 O 457.563 1.79967 0.768798 0
M  V30 4928 C 457.862 2.39275 -2.65485 0
M  V30 4929 C 457.528 1.92268 -4.07853 0
M  V30 4930 C 456.19 1.79166 -4.46602 0
M  V30 4931 C 458.542 1.56771 -4.97064 0
M  V30 4932 C 455.87 1.28905 -5.72364 0
M  V30 4933 C 458.222 1.07972 -6.23318 0
M  V30 4934 C 456.886 0.934887 -6.60921 0
M  V30 4935 H 456.156 0.469682 -0.573131 0
M  V30 4936 H 458.803 0.588781 -1.82224 0
M  V30 4937 H 457.108 3.1443 -2.33754 0
M  V30 4938 H 458.805 2.974 -2.68988 0
M  V30 4939 H 455.395 2.03417 -3.77252 0
M  V30 4940 H 459.579 1.65753 -4.67803 0
M  V30 4941 H 454.835 1.16381 -6.00221 0
M  V30 4942 H 459.009 0.795775 -6.91838 0
M  V30 4943 H 456.636 0.543231 -7.58257 0
M  V30 4944 N 458.211 1.37122 0.776871 0
M  V30 4945 C 459.436 1.354 1.57104 0
M  V30 4946 C 459.861 -0.0595562 1.88006 0
M  V30 4947 O 459.219 -1.03514 1.48844 0
M  V30 4948 C 459.267 2.19472 2.8612 0
M  V30 4949 O 458.371 1.59582 3.80273 0
M  V30 4950 H 457.712 0.462869 0.476076 0
M  V30 4951 H 460.242 1.80577 0.961932 0
M  V30 4952 H 460.252 2.32502 3.35271 0
M  V30 4953 H 458.927 3.22222 2.62956 0
M  V30 4954 H 457.504 1.55564 3.38902 0
M  V30 4955 N 459.689 -1.00246 1.21608 0
M  V30 4956 C 461.1 -1.55511 1.03312 0
M  V30 4957 C 461.451 -1.91946 -0.406332 0
M  V30 4958 O 460.576 -1.73753 -1.28992 0
M  V30 4959 C 461.171 -2.82576 1.86913 0
M  V30 4960 C 459.73 -3.34318 1.72941 0
M  V30 4961 C 458.877 -2.07487 1.83968 0
M  V30 4962 H 461.828 -0.824638 1.35593 0
M  V30 4963 H 461.849 -3.54559 1.38087 0
M  V30 4964 H 461.361 -2.56026 2.91672 0
M  V30 4965 H 459.462 -3.65797 0.70877 0
M  V30 4966 H 459.575 -4.05566 2.55055 0
M  V30 4967 H 457.939 -2.20603 1.27304 0
M  V30 4968 H 458.722 -1.83346 2.9024 0
M  V30 4969 N 461.167 -1.02423 -1.1978 0
M  V30 4970 C 462.416 -0.713265 -1.88667 0
M  V30 4971 C 462.729 0.7609 -1.80193 0
M  V30 4972 O 463.935 1.18473 -2.44288 0
M  V30 4973 C 462.391 -1.22545 -3.38394 0
M  V30 4974 C 461.999 -2.72706 -3.55437 0
M  V30 4975 C 463.743 -0.990257 -4.12788 0
M  V30 4976 C 461.65 -3.17367 -4.99031 0
M  V30 4977 H 460.58 -0.263105 -0.706606 0
M  V30 4978 H 463.231 -1.23792 -1.35454 0
M  V30 4979 H 461.613 -0.628732 -3.90977 0
M  V30 4980 H 462.787 -3.37993 -3.13205 0
M  V30 4981 H 461.102 -2.94453 -2.94425 0
M  V30 4982 H 463.699 -1.29926 -5.18675 0
M  V30 4983 H 464.042 0.0730761 -4.16236 0
M  V30 4984 H 464.575 -1.55074 -3.66329 0
M  V30 4985 H 461.314 -4.23009 -5.00743 0
M  V30 4986 H 460.834 -2.56805 -5.42044 0
M  V30 4987 H 462.513 -3.10441 -5.67658 0
M  V30 4988 N 462.645 1.35699 -0.801477 0
M  V30 4989 C 463.922 1.9324 -0.302937 0
M  V30 4990 C 464.302 1.73209 1.20672 0
M  V30 4991 O 463.65 1.09809 2.00385 0
M  V30 4992 C 463.86 3.41728 -0.708747 0
M  V30 4993 C 465.208 4.18868 -0.695328 0
M  V30 4994 O 466.232 3.5022 -0.649971 0
M  V30 4995 O 465.091 5.41342 -0.749081 0
M  V30 4996 H 462.185 0.82331 -0.0780367 0
M  V30 4997 H 464.731 1.44806 -0.884832 0
M  V30 4998 H 463.503 3.50015 -1.74944 0
M  V30 4999 H 463.126 3.97471 -0.101384 0
M  V30 5000 N 464.123 0.554532 1.47522 0
M  V30 5001 C 465.351 0.034257 2.06872 0
M  V30 5002 C 465.766 -1.25826 1.40759 0
M  V30 5003 O 465.123 -1.75425 0.503217 0
M  V30 5004 C 465.174 -0.167827 3.6111 0
M  V30 5005 O 464.895 1.07351 4.24744 0
M  V30 5006 C 466.396 -0.72569 4.3732 0
M  V30 5007 H 463.616 0.0446275 0.669514 0
M  V30 5008 H 466.16 0.767181 1.89564 0
M  V30 5009 H 464.315 -0.850872 3.7794 0
M  V30 5010 H 464.729 0.869563 5.17242 0
M  V30 5011 H 466.203 -0.816394 5.45929 0
M  V30 5012 H 466.68 -1.73635 4.0342 0
M  V30 5013 H 467.286 -0.0784292 4.25228 0
M  V30 5014 N 465.601 -1.54893 0.290851 0
M  V30 5015 C 466.549 -2.24579 -0.605576 0
M  V30 5016 C 467.543 -1.24824 -1.14522 0
M  V30 5017 O 468.749 -1.42706 -1.09704 0
M  V30 5018 H 465.124 -0.720946 -0.213872 0
M  V30 5019 H 467.095 -2.984 0.0048173 0
M  V30 5020 C 465.844 -2.99224 -1.77088 0
M  V30 5021 H 465.167 -3.75782 -1.36484 0
M  V30 5022 H 466.607 -3.51281 -2.3744 0
M  V30 5023 C 465.066 -2.05602 -2.66888 0
M  V30 5024 O 465.596 -1.61745 -3.67698 0
M  V30 5025 N 463.802 -1.71771 -2.34399 0
M  V30 5026 H 463.349 -2.07633 -1.52468 0
M  V30 5027 H 463.307 -1.09403 -2.94751 0
M  V30 5028 N 467.08 -0.0183926 -1.57589 0
M  V30 5029 C 468.01 0.965596 -2.12599 0
M  V30 5030 C 468.991 1.34641 -1.0395 0
M  V30 5031 O 470.176 1.42693 -1.31729 0
M  V30 5032 C 467.306 2.25149 -2.64434 0
M  V30 5033 C 466.26 2.01175 -3.77773 0
M  V30 5034 C 465.586 3.35937 -4.15994 0
M  V30 5035 C 466.886 1.35953 -5.04296 0
M  V30 5036 H 468.58 0.507504 -2.95067 0
M  V30 5037 H 466.126 0.242671 -1.41941 0
M  V30 5038 H 468.079 2.94357 -3.01549 0
M  V30 5039 H 466.803 2.73105 -1.79112 0
M  V30 5040 H 465.462 1.34388 -3.4108 0
M  V30 5041 H 465.11 3.81631 -3.27669 0
M  V30 5042 H 464.81 3.20705 -4.92364 0
M  V30 5043 H 466.334 4.0643 -4.55683 0
M  V30 5044 H 467.748 1.95144 -5.39065 0
M  V30 5045 H 466.145 1.31152 -5.85593 0
M  V30 5046 H 467.215 0.331071 -4.83768 0
M  V30 5047 N 468.558 1.5553 0.254621 0
M  V30 5048 C 469.488 1.9268 1.31897 0
M  V30 5049 C 470.469 0.790797 1.506 0
M  V30 5050 O 471.654 1.05045 1.63337 0
M  V30 5051 C 468.784 2.21477 2.67517 0
M  V30 5052 C 467.738 3.37256 2.63519 0
M  V30 5053 C 467.064 3.51576 4.02862 0
M  V30 5054 C 468.364 4.73157 2.21179 0
M  V30 5055 H 470.058 2.81832 1.01051 0
M  V30 5056 H 467.604 1.35599 0.484662 0
M  V30 5057 H 469.557 2.46055 3.42104 0
M  V30 5058 H 468.281 1.29144 2.99982 0
M  V30 5059 H 466.94 3.12675 1.9139 0
M  V30 5060 H 466.588 2.56676 4.32581 0
M  V30 5061 H 466.288 4.2943 4.01078 0
M  V30 5062 H 467.812 3.78467 4.79161 0
M  V30 5063 H 469.226 4.97158 2.85494 0
M  V30 5064 H 467.623 5.54058 2.30521 0
M  V30 5065 H 468.693 4.70739 1.16332 0
M  V30 5066 N 470.036 -0.519951 1.48776 0
M  V30 5067 C 470.966 -1.63253 1.66945 0
M  V30 5068 C 471.947 -1.62014 0.518224 0
M  V30 5069 O 473.132 -1.79053 0.751919 0
M  V30 5070 C 470.262 -3.0181 1.71836 0
M  V30 5071 C 469.216 -3.17911 2.8656 0
M  V30 5072 C 468.542 -4.5763 2.76548 0
M  V30 5073 C 469.842 -2.99729 4.27738 0
M  V30 5074 H 471.536 -1.48302 2.6009 0
M  V30 5075 H 469.082 -0.712026 1.25165 0
M  V30 5076 H 471.035 -3.79525 1.83135 0
M  V30 5077 H 469.759 -3.17806 0.752775 0
M  V30 5078 H 468.418 -2.42616 2.74833 0
M  V30 5079 H 468.066 -4.70476 1.77937 0
M  V30 5080 H 467.766 -4.69346 3.53536 0
M  V30 5081 H 469.29 -5.37431 2.89828 0
M  V30 5082 H 470.704 -3.67228 4.40246 0
M  V30 5083 H 469.101 -3.22932 5.05801 0
M  V30 5084 H 470.171 -1.96047 4.43502 0
M  V30 5085 N 471.514 -1.37532 -0.769588 0
M  V30 5086 C 472.739 -1.36231 -1.56384 0
M  V30 5087 C 473.164 0.0495849 -1.88035 0
M  V30 5088 O 472.522 1.02723 -1.49391 0
M  V30 5089 C 472.57 -2.20986 -2.84952 0
M  V30 5090 O 471.674 -1.61597 -3.79421 0
M  V30 5091 H 471.015 -0.465387 -0.473615 0
M  V30 5092 H 473.545 -1.81085 -0.952342 0
M  V30 5093 H 473.555 -2.34277 -3.34034 0
M  V30 5094 H 472.23 -3.23612 -2.61243 0
M  V30 5095 H 470.807 -1.57359 -3.38072 0
M  V30 5096 N 472.992 0.995999 -1.22138 0
M  V30 5097 C 474.217 1.77601 -1.0711 0
M  V30 5098 C 474.642 1.84339 0.374264 0
M  V30 5099 O 474 1.29359 1.27028 0
M  V30 5100 C 474.048 3.18897 -1.68336 0
M  V30 5101 O 473.152 4.01663 -0.934928 0
M  V30 5102 H 472.493 0.547011 -0.376397 0
M  V30 5103 H 475.023 1.25137 -1.6187 0
M  V30 5104 H 475.033 3.69539 -1.72931 0
M  V30 5105 H 473.708 3.13308 -2.73516 0
M  V30 5106 H 472.285 3.60204 -0.964751 0
M  V30 5107 N 474.47 1.03057 1.19235 0
M  V30 5108 C 475.718 0.726581 1.88587 0
M  V30 5109 C 476.039 -0.747227 1.80115 0
M  V30 5110 O 475.309 -1.53849 1.21274 0
M  V30 5111 H 473.889 0.265768 0.698124 0
M  V30 5112 H 476.551 1.30516 1.44746 0
M  V30 5113 H 475.647 1.0224 2.94879 0
M  V30 5114 N 475.948 -1.35272 0.808662 0
M  V30 5115 C 476.895 -2.29764 0.218482 0
M  V30 5116 C 477.865 -1.52911 -0.648652 0
M  V30 5117 O 479.05 -1.81341 -0.593297 0
M  V30 5118 C 476.19 -3.39388 -0.625282 0
M  V30 5119 C 475.303 -4.31202 0.262516 0
M  V30 5120 C 474.438 -5.27919 -0.589451 0
M  V30 5121 C 473.477 -6.11371 0.298617 0
M  V30 5122 N 472.614 -7.0022 -0.513443 0
M  V30 5123 H 477.454 -2.79645 1.02968 0
M  V30 5124 H 474.991 -1.37629 0.519303 0
M  V30 5125 H 476.949 -4.01615 -1.12966 0
M  V30 5126 H 475.579 -2.90777 -1.40173 0
M  V30 5127 H 474.631 -3.69962 0.885013 0
M  V30 5128 H 475.943 -4.89748 0.945971 0
M  V30 5129 H 475.097 -5.95529 -1.15888 0
M  V30 5130 H 473.836 -4.69875 -1.30647 0
M  V30 5131 H 472.841 -5.42707 0.880301 0
M  V30 5132 H 474.066 -6.71494 1.01352 0
M  V30 5133 H 472.012 -6.44662 -1.21439 0
M  V30 5134 H 471.929 -7.55917 0.111922 0
M  V30 5135 H 473.197 -7.72175 -1.06608 0
M  V30 5136 N 477.426 -0.562348 -1.47226 0
M  V30 5137 C 478.703 0.0256985 -1.95583 0
M  V30 5138 C 479.083 1.48032 -1.50498 0
M  V30 5139 O 478.431 2.15973 -0.746181 0
M  V30 5140 C 478.641 -0.125129 -3.48776 0
M  V30 5141 C 479.989 0.0175728 -4.24596 0
M  V30 5142 O 481.013 -0.0529341 -3.56161 0
M  V30 5143 O 479.872 0.170145 -5.46235 0
M  V30 5144 H 476.966 0.0612565 -0.824728 0
M  V30 5145 H 479.512 -0.629233 -1.57603 0
M  V30 5146 H 478.284 -1.13715 -3.74412 0
M  V30 5147 H 477.907 0.567178 -3.93534 0
M  V30 5148 N 478.904 1.54736 -0.299062 0
M  V30 5149 C 480.15 2.00397 0.311244 0
M  V30 5150 C 480.483 1.18716 1.53688 0
M  V30 5151 O 479.758 0.263154 1.92712 0
M  V30 5152 C 480.041 3.53817 0.669761 0
M  V30 5153 C 479.894 4.46239 -0.564882 0
M  V30 5154 C 481.213 4.13856 1.49702 0
M  V30 5155 H 478.332 0.728493 0.111653 0
M  V30 5156 H 480.974 1.85506 -0.410774 0
M  V30 5157 H 479.124 3.66637 1.28491 0
M  V30 5158 H 480.796 4.45328 -1.20337 0
M  V30 5159 H 479.039 4.16916 -1.19849 0
M  V30 5160 H 479.71 5.5134 -0.269918 0
M  V30 5161 H 482.186 4.04461 0.977284 0
M  V30 5162 H 481.062 5.21365 1.71666 0
M  V30 5163 H 481.323 3.65608 2.48563 0
M  V30 5164 N 480.382 0.0267497 1.57577 0
M  V30 5165 C 481.61 -0.662661 1.96001 0
M  V30 5166 C 482.025 -1.65799 0.903117 0
M  V30 5167 O 481.382 -1.82135 -0.115317 0
M  V30 5168 C 481.433 -1.37112 3.34488 0
M  V30 5169 O 481.154 -0.415683 4.36123 0
M  V30 5170 C 482.655 -2.15257 3.8753 0
M  V30 5171 H 479.875 -0.18287 0.6456 0
M  V30 5172 H 482.419 0.0858116 2.0432 0
M  V30 5173 H 480.574 -2.07101 3.27395 0
M  V30 5174 H 480.988 -0.918496 5.16395 0
M  V30 5175 H 482.462 -2.60285 4.86781 0
M  V30 5176 H 482.939 -2.99063 3.21649 0
M  V30 5177 H 483.545 -1.50231 3.97883 0
M  V30 5178 N 481.861 -1.55662 -0.24637 0
M  V30 5179 C 482.808 -1.90361 -1.30504 0
M  V30 5180 C 483.778 -0.757905 -1.47801 0
M  V30 5181 O 484.963 -1.01161 -1.61775 0
M  V30 5182 C 482.103 -2.2042 -2.65535 0
M  V30 5183 C 481.216 -3.47799 -2.56242 0
M  V30 5184 C 480.351 -3.67426 -3.8363 0
M  V30 5185 C 479.39 -4.88403 -3.68956 0
M  V30 5186 N 478.527 -5.04548 -4.88237 0
M  V30 5187 H 483.367 -2.80645 -1.00213 0
M  V30 5188 H 480.904 -1.38924 -0.483577 0
M  V30 5189 H 482.862 -2.35853 -3.44135 0
M  V30 5190 H 481.492 -1.3334 -2.93973 0
M  V30 5191 H 480.544 -3.40694 -1.69208 0
M  V30 5192 H 481.856 -4.36544 -2.4131 0
M  V30 5193 H 481.01 -3.82821 -4.70673 0
M  V30 5194 H 479.749 -2.76914 -4.01459 0
M  V30 5195 H 478.754 -4.72984 -2.80296 0
M  V30 5196 H 479.979 -5.80375 -3.52621 0
M  V30 5197 H 477.925 -4.16974 -5.06427 0
M  V30 5198 H 477.842 -5.87384 -4.75937 0
M  V30 5199 H 479.11 -5.24355 -5.76777 0
M  V30 5200 N 483.339 0.512053 -1.4905 0
M  V30 5201 C 484.579 1.27715 -1.59588 0
M  V30 5202 C 484.943 1.90071 -0.271502 0
M  V30 5203 O 486.144 2.67616 -0.251987 0
M  V30 5204 C 484.415 2.32399 -2.71524 0
M  V30 5205 S 485.974 3.18396 -3.01943 0
M  V30 5206 H 482.792 0.43419 -0.563027 0
M  V30 5207 H 485.394 0.581315 -1.86657 0
M  V30 5208 H 484.098 1.85101 -3.66287 0
M  V30 5209 H 483.629 3.06667 -2.46412 0
M  V30 5210 H 485.644 4.32842 -2.42616 0
M  V30 5211 N 484.817 1.37938 0.762283 0
M  V30 5212 C 486.063 1.34873 1.52253 0
M  V30 5213 C 486.418 -0.0635972 1.92295 0
M  V30 5214 O 485.711 -1.02434 1.61919 0
M  V30 5215 C 485.905 2.23042 2.79261 0
M  V30 5216 C 485.734 3.72706 2.51635 0
M  V30 5217 C 484.504 4.41771 2.45289 0
M  V30 5218 C 486.702 4.65345 2.18994 0
M  V30 5219 N 484.684 5.76921 2.09846 0
M  V30 5220 C 486.055 5.88943 1.9377 0
M  V30 5221 C 488.11 4.53636 2.0523 0
M  V30 5222 C 486.813 7.02142 1.5617 0
M  V30 5223 C 488.839 5.6673 1.69031 0
M  V30 5224 C 488.201 6.89383 1.44673 0
M  V30 5225 H 484.3 0.548818 0.557067 0
M  V30 5226 H 486.884 1.73247 0.888458 0
M  V30 5227 H 485.055 1.8687 3.40491 0
M  V30 5228 H 486.787 2.11165 3.45241 0
M  V30 5229 H 483.542 3.94883 2.61465 0
M  V30 5230 H 483.966 6.4837 1.94794 0
M  V30 5231 H 488.608 3.5937 2.2274 0
M  V30 5232 H 486.326 7.96334 1.37399 0
M  V30 5233 H 489.912 5.59645 1.59026 0
M  V30 5234 H 488.792 7.75411 1.17079 0
M  V30 5235 N 486.295 -0.989507 1.22664 0
M  V30 5236 C 487.525 -1.7624 1.0781 0
M  V30 5237 C 487.933 -1.85466 -0.374036 0
M  V30 5238 O 487.276 -1.32645 -1.27087 0
M  V30 5239 C 487.338 -3.21007 1.61849 0
M  V30 5240 C 487.002 -3.35316 3.10503 0
M  V30 5241 C 487.999 -3.22362 4.07896 0
M  V30 5242 C 485.684 -3.60258 3.50028 0
M  V30 5243 C 487.678 -3.34139 5.42798 0
M  V30 5244 C 485.365 -3.71676 4.85078 0
M  V30 5245 C 486.363 -3.58625 5.81272 0
M  V30 5246 O 486.051 -3.69655 7.1387 0
M  V30 5247 H 485.783 -0.560209 0.378341 0
M  V30 5248 H 488.337 -1.25252 1.62792 0
M  V30 5249 H 486.567 -3.73202 1.01279 0
M  V30 5250 H 488.256 -3.80024 1.42606 0
M  V30 5251 H 489.022 -3.03 3.78703 0
M  V30 5252 H 484.901 -3.69492 2.75675 0
M  V30 5253 H 488.445 -3.23869 6.17863 0
M  V30 5254 H 484.342 -3.90545 5.1395 0
M  V30 5255 H 485.11 -3.86507 7.21495 0
M  V30 5256 N 487.773 -1.03688 -1.18687 0
M  V30 5257 C 488.703 -0.645407 -2.24403 0
M  V30 5258 C 489.684 0.349511 -1.66471 0
M  V30 5259 O 490.869 0.230453 -1.92828 0
M  V30 5260 C 487.999 -0.00365337 -3.473 0
M  V30 5261 C 486.953 -0.921705 -4.17958 0
M  V30 5262 C 486.279 -0.144629 -5.34504 0
M  V30 5263 C 487.579 -2.23909 -4.71871 0
M  V30 5264 H 489.273 -1.52917 -2.57404 0
M  V30 5265 H 486.819 -0.736711 -1.23728 0
M  V30 5266 H 488.772 0.281908 -4.20456 0
M  V30 5267 H 487.496 0.914963 -3.13522 0
M  V30 5268 H 486.155 -1.19159 -3.46694 0
M  V30 5269 H 485.803 0.776274 -4.96974 0
M  V30 5270 H 485.503 -0.756206 -5.82714 0
M  V30 5271 H 487.027 0.134004 -6.10453 0
M  V30 5272 H 488.441 -2.0145 -5.36741 0
M  V30 5273 H 486.838 -2.8033 -5.30599 0
M  V30 5274 H 487.908 -2.88822 -3.895 0
M  V30 5275 N 489.251 1.34841 -0.815825 0
M  V30 5276 C 490.528 1.92908 -0.323416 0
M  V30 5277 C 490.908 1.74479 1.18828 0
M  V30 5278 O 490.256 1.11928 1.99209 0
M  V30 5279 C 490.466 3.40957 -0.744952 0
M  V30 5280 C 491.814 4.18107 -0.739716 0
M  V30 5281 O 492.838 3.49511 -0.68708 0
M  V30 5282 O 491.697 5.40517 -0.806456 0
M  V30 5283 H 488.791 0.822436 -0.0867646 0
M  V30 5284 H 491.337 1.4386 -0.90014 0
M  V30 5285 H 490.109 3.4814 -1.78646 0
M  V30 5286 H 489.732 3.97341 -0.143535 0
M  V30 5287 N 490.729 0.570148 1.46925 0
M  V30 5288 C 491.677 -0.183181 2.31878 0
M  V30 5289 C 492.671 -0.896721 1.43719 0
M  V30 5290 O 493.877 -0.816536 1.60414 0
M  V30 5291 H 490.252 -0.077944 0.74795 0
M  V30 5292 H 492.223 0.552312 2.93244 0
M  V30 5293 C 490.972 -1.19172 3.2664 0
M  V30 5294 H 490.295 -0.652088 3.94446 0
M  V30 5295 H 491.735 -1.68946 3.88887 0
M  V30 5296 C 490.194 -2.24627 2.51086 0
M  V30 5297 O 490.724 -3.31773 2.26472 0
M  V30 5298 N 488.93 -1.98898 2.11867 0
M  V30 5299 H 488.477 -1.11777 2.32086 0
M  V30 5300 H 488.435 -2.6967 1.61634 0
M  V30 5301 N 492.207 -1.54576 0.307264 0
M  V30 5302 C 493.155 -2.25208 -0.581723 0
M  V30 5303 C 494.149 -1.26031 -1.13192 0
M  V30 5304 O 495.355 -1.43862 -1.08184 0
M  V30 5305 H 491.73 -0.723173 -0.206214 0
M  V30 5306 H 493.701 -2.98378 0.0364663 0
M  V30 5307 C 492.45 -3.01086 -1.73904 0
M  V30 5308 H 491.773 -3.77208 -1.32491 0
M  V30 5309 H 493.213 -3.5378 -2.33701 0
M  V30 5310 C 491.672 -2.08422 -2.64692 0
M  V30 5311 O 492.202 -1.65636 -3.65961 0
M  V30 5312 N 490.408 -1.74247 -2.32564 0
M  V30 5313 H 489.955 -2.09238 -1.50257 0
M  V30 5314 H 489.913 -1.12524 -2.93574 0
M  V30 5315 N 493.685 -0.035106 -1.57561 0
M  V30 5316 C 494.633 0.962707 -2.11742 0
M  V30 5317 C 495.627 1.33296 -1.0454 0
M  V30 5318 O 496.833 1.31449 -1.22968 0
M  V30 5319 H 493.208 0.32826 -0.676572 0
M  V30 5320 H 495.179 0.48048 -2.94506 0
M  V30 5321 C 493.928 2.23388 -2.66445 0
M  V30 5322 H 493.251 1.95774 -3.48587 0
M  V30 5323 H 494.691 2.91402 -3.07995 0
M  V30 5324 C 493.15 2.96769 -1.59467 0
M  V30 5325 O 493.68 3.89105 -0.998 0
M  V30 5326 N 491.886 2.59212 -1.31369 0
M  V30 5327 H 491.433 1.84202 -1.80076 0
M  V30 5328 H 491.391 3.08618 -0.600173 0
M  V30 5329 N 495.163 1.55791 0.238111 0
M  V30 5330 C 496.41 1.78033 0.964907 0
M  V30 5331 C 496.738 0.600984 1.84982 0
M  V30 5332 O 495.993 -0.41536 1.91241 0
M  V30 5333 C 496.292 3.05869 1.84875 0
M  V30 5334 C 495.958 4.36808 1.11846 0
M  V30 5335 C 494.62 4.72388 0.916662 0
M  V30 5336 C 496.972 5.17717 0.60151 0
M  V30 5337 C 494.3 5.86406 0.185756 0
M  V30 5338 C 496.652 6.32494 -0.115972 0
M  V30 5339 C 495.316 6.66688 -0.329168 0
M  V30 5340 H 494.586 0.651469 0.353085 0
M  V30 5341 H 497.233 1.90061 0.234318 0
M  V30 5342 H 495.538 2.88891 2.64668 0
M  V30 5343 H 497.235 3.20278 2.41294 0
M  V30 5344 H 493.825 4.08862 1.28569 0
M  V30 5345 H 498.009 4.90678 0.744932 0
M  V30 5346 H 493.265 6.11399 0.0101886 0
M  V30 5347 H 497.439 6.94425 -0.524127 0
M  V30 5348 H 495.066 7.54884 -0.897474 0
M  V30 5349 N 496.642 -0.504142 1.49319 0
M  V30 5350 C 497.919 -1.26548 1.49147 0
M  V30 5351 C 498.299 -2.09977 0.21744 0
M  V30 5352 O 497.647 -2.14028 -0.800269 0
M  V30 5353 C 497.857 -2.12489 2.76857 0
M  V30 5354 C 499.205 -2.7178 3.26222 0
M  V30 5355 O 500.229 -2.22758 2.77952 0
M  V30 5356 O 499.088 -3.61015 4.10281 0
M  V30 5357 H 496.182 -0.572495 0.596806 0
M  V30 5358 H 498.728 -0.51867 1.61579 0
M  V30 5359 H 497.5 -1.50796 3.61077 0
M  V30 5360 H 497.123 -2.94368 2.6727 0
M  V30 5361 N 498.12 -1.38341 -0.754957 0
M  V30 5362 C 499.369 -1.33791 -1.5094 0
M  V30 5363 C 499.682 0.0699267 -1.95475 0
M  V30 5364 O 500.888 0.237956 -2.70455 0
M  V30 5365 C 499.344 -2.34934 -2.72643 0
M  V30 5366 C 498.952 -3.81332 -2.35138 0
M  V30 5367 C 500.696 -2.39425 -3.50536 0
M  V30 5368 C 498.603 -4.74164 -3.53444 0
M  V30 5369 H 497.533 -0.497314 -0.566741 0
M  V30 5370 H 500.184 -1.63888 -0.825403 0
M  V30 5371 H 498.566 -1.97878 -3.43017 0
M  V30 5372 H 499.74 -4.27319 -1.7244 0
M  V30 5373 H 498.055 -3.79946 -1.70382 0
M  V30 5374 H 500.652 -3.0598 -4.38498 0
M  V30 5375 H 500.995 -1.41278 -3.91594 0
M  V30 5376 H 501.528 -2.75274 -2.87174 0
M  V30 5377 H 498.267 -5.73501 -3.17453 0
M  V30 5378 H 497.787 -4.3287 -4.15191 0
M  V30 5379 H 499.466 -4.92111 -4.20043 0
M  V30 5380 N 499.598 0.982988 -1.23187 0
M  V30 5381 C 500.845 1.72392 -1.06241 0
M  V30 5382 C 501.173 1.9032 0.40108 0
M  V30 5383 O 500.428 1.45084 1.31336 0
M  V30 5384 C 500.727 3.12736 -1.73006 0
M  V30 5385 C 500.393 3.14695 -3.22921 0
M  V30 5386 C 499.055 3.14937 -3.63824 0
M  V30 5387 C 501.407 3.10211 -4.1883 0
M  V30 5388 C 498.735 3.08408 -4.99101 0
M  V30 5389 C 501.087 3.05224 -5.54095 0
M  V30 5390 C 499.751 3.03787 -5.94365 0
M  V30 5391 H 499.021 0.630829 -0.388762 0
M  V30 5392 H 501.668 1.15053 -1.53085 0
M  V30 5393 H 499.973 3.73446 -1.18514 0
M  V30 5394 H 501.67 3.68828 -1.57374 0
M  V30 5395 H 498.26 3.15262 -2.90358 0
M  V30 5396 H 502.444 3.09166 -3.8824 0
M  V30 5397 H 497.7 3.05646 -5.29519 0
M  V30 5398 H 501.874 3.00712 -6.28128 0
M  V30 5399 H 499.501 2.98483 -6.99151 0
M  V30 5400 N 501.076 1.04316 1.18135 0
M  V30 5401 C 502.024 0.630175 2.23901 0
M  V30 5402 C 503.018 -0.344254 1.65865 0
M  V30 5403 O 504.224 -0.211273 1.78756 0
M  V30 5404 H 500.599 0.185578 0.728742 0
M  V30 5405 H 502.57 1.53253 2.56039 0
M  V30 5406 C 501.319 0.011666 3.47698 0
M  V30 5407 H 500.642 0.752526 3.92654 0
M  V30 5408 H 502.082 -0.240046 4.2332 0
M  V30 5409 C 500.541 -1.23913 3.13285 0
M  V30 5410 O 501.071 -2.32959 3.27251 0
M  V30 5411 N 499.277 -1.13338 2.67587 0
M  V30 5412 H 498.824 -0.246006 2.56423 0
M  V30 5413 H 498.782 -1.97116 2.44934 0
M  V30 5414 N 502.554 -1.34406 0.822964 0
M  V30 5415 C 503.464 -2.33298 0.246838 0
M  V30 5416 C 504.48 -1.62625 -0.618797 0
M  V30 5417 O 505.656 -1.94391 -0.526685 0
M  V30 5418 C 502.721 -3.41785 -0.581731 0
M  V30 5419 C 501.782 -4.28206 0.306309 0
M  V30 5420 C 501.015 -5.31512 -0.48281 0
M  V30 5421 O 501.238 -5.43973 -1.71607 0
M  V30 5422 O 500.172 -6.01749 0.134884 0
M  V30 5423 H 503.998 -2.84401 1.06534 0
M  V30 5424 H 501.583 -1.37466 0.585108 0
M  V30 5425 H 503.465 -4.08028 -1.05313 0
M  V30 5426 H 502.14 -2.92925 -1.37756 0
M  V30 5427 H 501.047 -3.64885 0.825199 0
M  V30 5428 H 502.38 -4.80507 1.06649 0
M  V30 5429 N 504.032 -0.577932 -1.46621 0
M  V30 5430 C 505.281 -0.0594281 -2.01612 0
M  V30 5431 C 505.594 1.30663 -1.45556 0
M  V30 5432 O 506.8 1.91621 -1.92337 0
M  V30 5433 C 505.256 -0.0556666 -3.59857 0
M  V30 5434 C 504.864 -1.41975 -4.24908 0
M  V30 5435 C 506.608 0.409143 -4.22524 0
M  V30 5436 C 504.515 -1.37397 -5.75218 0
M  V30 5437 H 503.445 -0.0184469 -0.753774 0
M  V30 5438 H 506.096 -0.728869 -1.68404 0
M  V30 5439 H 504.478 0.679843 -3.90121 0
M  V30 5440 H 505.652 -2.17461 -4.0626 0
M  V30 5441 H 503.967 -1.82419 -3.74316 0
M  V30 5442 H 506.564 0.46211 -5.32699 0
M  V30 5443 H 506.907 1.42565 -3.91128 0
M  V30 5444 H 507.44 -0.272152 -3.96868 0
M  V30 5445 H 504.179 -2.36714 -6.11267 0
M  V30 5446 H 503.699 -0.661239 -5.96144 0
M  V30 5447 H 505.378 -1.08484 -6.3784 0
M  V30 5448 N 505.51 1.54411 -0.315457 0
M  V30 5449 C 506.458 2.25514 0.569771 0
M  V30 5450 C 507.452 1.2663 1.12522 0
M  V30 5451 O 508.658 1.44434 1.07419 0
M  V30 5452 H 505.033 0.724257 0.202376 0
M  V30 5453 H 507.004 2.98354 -0.0522895 0
M  V30 5454 C 505.753 3.02004 1.72305 0
M  V30 5455 H 505.076 3.77906 1.30488 0
M  V30 5456 H 506.516 3.55014 2.31821 0
M  V30 5457 C 504.975 2.09822 2.63583 0
M  V30 5458 O 505.505 1.67574 3.65078 0
M  V30 5459 N 503.711 1.75478 2.31637 0
M  V30 5460 H 503.258 2.10032 1.49145 0
M  V30 5461 H 503.216 1.14079 2.92973 0
M  V30 5462 N 506.988 0.0434614 1.5754 0
M  V30 5463 C 507.936 -0.951465 2.1225 0
M  V30 5464 C 508.93 -1.3274 1.05245 0
M  V30 5465 O 510.136 -1.30795 1.23663 0
M  V30 5466 H 506.511 -0.324667 0.678303 0
M  V30 5467 H 508.482 -0.464855 2.94757 0
M  V30 5468 C 507.231 -2.21972 2.67626 0
M  V30 5469 H 506.554 -1.93923 3.4962 0
M  V30 5470 H 507.994 -2.89765 3.09536 0
M  V30 5471 C 506.453 -2.95919 1.61038 0
M  V30 5472 O 506.983 -3.8857 1.01862 0
M  V30 5473 N 505.189 -2.58511 1.32741 0
M  V30 5474 H 504.736 -1.83244 1.81051 0
M  V30 5475 H 504.694 -3.08296 0.616531 0
M  V30 5476 N 508.466 -1.55915 -0.229846 0
M  V30 5477 C 509.691 -1.8296 -0.976743 0
M  V30 5478 C 510.116 -0.622735 -1.77493 0
M  V30 5479 O 509.474 0.428431 -1.76165 0
M  V30 5480 C 509.522 -3.07916 -1.8767 0
M  V30 5481 O 508.626 -2.86028 -2.97088 0
M  V30 5482 H 507.967 -0.603453 -0.277021 0
M  V30 5483 H 510.497 -2.0312 -0.245669 0
M  V30 5484 H 510.507 -3.37802 -2.2881 0
M  V30 5485 H 509.182 -3.95389 -1.28996 0
M  V30 5486 H 507.759 -2.67355 -2.59954 0
M  V30 5487 N 509.944 0.496216 -1.49584 0
M  V30 5488 C 510.907 1.57952 -1.66084 0
M  V30 5489 C 511.907 1.51729 -0.53244 0
M  V30 5490 O 513.097 1.54796 -0.79899 0
M  V30 5491 C 510.229 2.97604 -1.66268 0
M  V30 5492 H 511.422 1.44649 -2.6271 0
M  V30 5493 H 508.975 0.7208 -1.38687 0
M  V30 5494 H 509.71 3.16378 -0.712432 0
M  V30 5495 H 509.495 3.03528 -2.4822 0
M  V30 5496 H 510.985 3.76301 -1.81073 0
M  V30 5497 N 511.423 1.38739 0.74761 0
M  V30 5498 C 512.371 1.36573 1.88283 0
M  V30 5499 C 513.365 0.250712 1.67534 0
M  V30 5500 O 514.571 0.420073 1.7503 0
M  V30 5501 H 510.946 0.42619 0.619569 0
M  V30 5502 H 512.917 2.32356 1.87226 0
M  V30 5503 C 511.666 1.21361 3.25832 0
M  V30 5504 H 510.989 2.06424 3.42388 0
M  V30 5505 H 512.429 1.23901 4.05493 0
M  V30 5506 C 510.888 -0.0790099 3.36807 0
M  V30 5507 O 511.418 -1.05385 3.8763 0
M  V30 5508 N 509.624 -0.13785 2.90273 0
M  V30 5509 H 509.171 0.656128 2.49104 0
M  V30 5510 H 509.129 -1.00228 2.97996 0
M  V30 5511 N 512.901 -0.976442 1.23707 0
M  V30 5512 C 513.849 -2.09078 1.01927 0
M  V30 5513 C 514.843 -1.69345 -0.0430193 0
M  V30 5514 O 516.049 -1.79659 0.110814 0
M  V30 5515 H 512.424 -0.68398 0.312531 0
M  V30 5516 H 514.395 -2.24614 1.96447 0
M  V30 5517 C 513.144 -3.41919 0.631385 0
M  V30 5518 H 512.467 -3.72946 1.44053 0
M  V30 5519 H 513.907 -4.20817 0.518532 0
M  V30 5520 C 512.366 -3.30357 -0.660723 0
M  V30 5521 O 512.896 -3.63542 -1.70881 0
M  V30 5522 N 511.102 -2.83507 -0.638139 0
M  V30 5523 H 510.649 -2.567 0.215108 0
M  V30 5524 H 510.607 -2.76153 -1.50289 0
M  V30 5525 N 514.379 -1.04941 -1.1758 0
M  V30 5526 C 515.628 -0.753124 -1.87112 0
M  V30 5527 C 515.941 0.722507 -1.81767 0
M  V30 5528 O 517.147 1.13265 -2.46746 0
M  V30 5529 C 515.603 -1.29695 -3.35719 0
M  V30 5530 C 515.211 -2.80184 -3.49572 0
M  V30 5531 C 516.955 -1.07759 -4.10595 0
M  V30 5532 C 514.862 -3.2788 -4.92187 0
M  V30 5533 H 513.792 -0.278034 -0.700866 0
M  V30 5534 H 516.443 -1.26637 -1.32798 0
M  V30 5535 H 514.825 -0.711522 -3.89555 0
M  V30 5536 H 515.999 -3.44561 -3.05965 0
M  V30 5537 H 514.314 -3.00632 -2.88113 0
M  V30 5538 H 516.911 -1.40899 -5.15802 0
M  V30 5539 H 517.254 -0.0152302 -4.16297 0
M  V30 5540 H 517.787 -1.62809 -3.62957 0
M  V30 5541 H 514.526 -4.33535 -4.91658 0
M  V30 5542 H 514.046 -2.68245 -5.36475 0
M  V30 5543 H 515.725 -3.22412 -5.60945 0
M  V30 5544 N 515.857 1.33968 -0.830081 0
M  V30 5545 C 517.087 2.01987 -0.434142 0
M  V30 5546 C 517.495 1.62639 0.96671 0
M  V30 5547 O 516.838 0.831151 1.63822 0
M  V30 5548 C 516.9 3.5648 -0.465018 0
M  V30 5549 C 516.564 4.19176 -1.82045 0
M  V30 5550 C 517.561 4.39181 -2.78237 0
M  V30 5551 C 515.246 4.55792 -2.11089 0
M  V30 5552 C 517.24 4.94937 -4.01642 0
M  V30 5553 C 514.927 5.11258 -3.34752 0
M  V30 5554 C 515.925 5.30775 -4.29845 0
M  V30 5555 O 515.613 5.85064 -5.51322 0
M  V30 5556 H 515.345 0.653847 -0.171639 0
M  V30 5557 H 517.899 1.72066 -1.12171 0
M  V30 5558 H 516.129 3.8569 0.279284 0
M  V30 5559 H 517.818 4.05804 -0.0881334 0
M  V30 5560 H 518.584 4.11249 -2.57097 0
M  V30 5561 H 514.463 4.39901 -1.3787 0
M  V30 5562 H 518.007 5.10086 -4.75876 0
M  V30 5563 H 513.904 5.38619 -3.55753 0
M  V30 5564 H 514.672 6.03489 -5.5294 0
M  V30 5565 N 517.335 0.585699 1.46312 0
M  V30 5566 C 518.56 0.0762461 2.0726 0
M  V30 5567 C 518.985 -1.22071 1.43109 0
M  V30 5568 O 518.343 -1.73804 0.515942 0
M  V30 5569 C 518.391 -0.0729404 3.60526 0
M  V30 5570 O 517.495 -1.1287 3.96654 0
M  V30 5571 H 516.836 0.0641558 0.660893 0
M  V30 5572 H 519.366 0.809492 1.87905 0
M  V30 5573 H 519.376 -0.278158 4.07051 0
M  V30 5574 H 518.051 0.874188 4.06609 0
M  V30 5575 H 516.628 -0.901703 3.61834 0
M  V30 5576 N 518.813 -1.54241 0.323641 0
M  V30 5577 C 519.76 -2.24339 -0.542277 0
M  V30 5578 C 520.73 -1.23421 -1.11159 0
M  V30 5579 O 521.915 -1.52104 -1.15192 0
M  V30 5580 C 519.055 -3.00479 -1.69725 0
M  V30 5581 C 518.168 -4.16214 -1.15716 0
M  V30 5582 C 517.303 -4.79884 -2.27783 0
M  V30 5583 C 516.342 -5.87722 -1.71023 0
M  V30 5584 N 515.479 -6.45254 -2.76752 0
M  V30 5585 H 520.319 -2.97935 0.0620613 0
M  V30 5586 H 517.856 -1.47039 0.0423993 0
M  V30 5587 H 519.814 -3.42869 -2.3769 0
M  V30 5588 H 518.444 -2.29217 -2.27288 0
M  V30 5589 H 517.496 -3.78605 -0.369063 0
M  V30 5590 H 518.808 -4.93838 -0.701832 0
M  V30 5591 H 517.962 -5.25243 -3.03651 0
M  V30 5592 H 516.701 -4.01641 -2.76652 0
M  V30 5593 H 515.706 -5.41765 -0.936518 0
M  V30 5594 H 516.931 -6.67863 -1.2303 0
M  V30 5595 H 514.877 -5.69884 -3.24912 0
M  V30 5596 H 514.794 -7.18292 -2.35782 0
M  V30 5597 H 516.062 -6.95269 -3.5245 0
M  V30 5598 N 520.291 -0.0518155 -1.57515 0
M  V30 5599 C 521.537 0.616839 -1.93821 0
M  V30 5600 C 521.892 1.68413 -0.930307 0
M  V30 5601 O 521.185 1.91534 0.0504231 0
M  V30 5602 C 521.379 1.25607 -3.34601 0
M  V30 5603 C 521.208 0.252222 -4.48992 0
M  V30 5604 C 519.978 -0.156031 -5.05059 0
M  V30 5605 C 522.176 -0.502613 -5.11838 0
M  V30 5606 N 520.158 -1.15267 -6.02981 0
M  V30 5607 C 521.529 -1.35232 -6.05072 0
M  V30 5608 C 523.584 -0.560855 -4.94731 0
M  V30 5609 C 522.287 -2.25505 -6.83037 0
M  V30 5610 C 524.313 -1.45102 -5.73323 0
M  V30 5611 C 523.675 -2.28845 -6.6619 0
M  V30 5612 H 519.774 0.197344 -0.75669 0
M  V30 5613 H 522.358 -0.124297 -1.94303 0
M  V30 5614 H 520.529 1.96723 -3.34895 0
M  V30 5615 H 522.261 1.88358 -3.58195 0
M  V30 5616 H 519.016 0.22306 -4.73074 0
M  V30 5617 H 519.44 -1.64791 -6.56638 0
M  V30 5618 H 524.082 0.0723639 -4.22738 0
M  V30 5619 H 521.8 -2.89872 -7.54321 0
M  V30 5620 H 525.386 -1.50066 -5.62113 0
M  V30 5621 H 524.266 -2.96608 -7.25943 0
M  V30 5622 N 521.769 1.56035 0.221574 0
M  V30 5623 C 522.994 1.83476 0.967026 0
M  V30 5624 C 523.419 0.632139 1.7716 0
M  V30 5625 O 522.777 -0.419082 1.7639 0
M  V30 5626 C 522.825 3.08907 1.86034 0
M  V30 5627 O 521.929 2.876 2.95567 0
M  V30 5628 H 521.27 0.604913 0.273817 0
M  V30 5629 H 523.8 2.03247 0.234893 0
M  V30 5630 H 523.81 3.3901 2.27016 0
M  V30 5631 H 522.485 3.96068 1.26898 0
M  V30 5632 H 521.062 2.6873 2.58532 0
M  V30 5633 N 523.247 -0.488276 1.49845 0
M  V30 5634 C 524.658 -1.06955 1.53028 0
M  V30 5635 C 525.009 -1.9351 0.323797 0
M  V30 5636 O 524.134 -2.08891 -0.565116 0
M  V30 5637 C 524.729 -1.94643 2.77307 0
M  V30 5638 C 523.288 -2.4791 2.83227 0
M  V30 5639 C 522.435 -1.25833 2.47106 0
M  V30 5640 H 525.386 -0.271626 1.56358 0
M  V30 5641 H 525.407 -2.79496 2.5819 0
M  V30 5642 H 524.919 -1.31621 3.65099 0
M  V30 5643 H 523.02 -3.14535 1.99745 0
M  V30 5644 H 523.133 -2.84193 3.85709 0
M  V30 5645 H 521.497 -1.58764 1.99163 0
M  V30 5646 H 522.28 -0.644993 3.37186 0
M  V30 5647 N 524.725 -1.39134 -0.740242 0
M  V30 5648 C 525.955 -1.39132 -1.52728 0
M  V30 5649 C 526.363 0.0173133 -1.89192 0
M  V30 5650 O 525.706 0.997715 -1.54244 0
M  V30 5651 C 525.768 -2.1952 -2.84695 0
M  V30 5652 C 525.432 -3.68203 -2.70695 0
M  V30 5653 C 526.429 -4.61401 -2.39593 0
M  V30 5654 C 524.114 -4.11724 -2.8773 0
M  V30 5655 C 526.108 -5.96102 -2.25701 0
M  V30 5656 C 523.795 -5.46503 -2.73456 0
M  V30 5657 C 524.793 -6.38506 -2.42486 0
M  V30 5658 O 524.481 -7.70803 -2.28295 0
M  V30 5659 H 524.213 -0.477263 -0.478744 0
M  V30 5660 H 526.767 -1.83504 -0.922799 0
M  V30 5661 H 524.997 -1.69888 -3.47383 0
M  V30 5662 H 526.686 -2.1176 -3.46284 0
M  V30 5663 H 527.452 -4.29079 -2.26088 0
M  V30 5664 H 523.331 -3.4045 -3.10829 0
M  V30 5665 H 526.875 -6.6788 -2.0145 0
M  V30 5666 H 522.772 -5.78417 -2.86538 0
M  V30 5667 H 523.54 -7.8147 -2.43405 0
M  V30 5668 N 526.204 0.969867 -1.24223 0
M  V30 5669 C 527.453 1.70687 -1.07466 0
M  V30 5670 C 527.766 1.91736 0.386861 0
M  V30 5671 O 528.972 2.62986 0.674581 0
M  V30 5672 C 527.428 3.07217 -1.87472 0
M  V30 5673 C 527.036 2.94018 -3.3802 0
M  V30 5674 C 528.78 3.84804 -1.79237 0
M  V30 5675 C 526.687 4.25844 -4.10379 0
M  V30 5676 H 525.617 0.640067 -0.398536 0
M  V30 5677 H 528.268 1.08092 -1.48285 0
M  V30 5678 H 526.65 3.70628 -1.39466 0
M  V30 5679 H 527.824 2.39632 -3.9359 0
M  V30 5680 H 526.139 2.29898 -3.47183 0
M  V30 5681 H 528.736 4.82417 -2.30603 0
M  V30 5682 H 529.079 4.09356 -0.757197 0
M  V30 5683 H 529.612 3.28115 -2.24912 0
M  V30 5684 H 526.351 4.06486 -5.14246 0
M  V30 5685 H 525.871 4.80054 -3.59594 0
M  V30 5686 H 527.55 4.94475 -4.17257 0
M  V30 5687 N 527.682 1.05563 1.17022 0
M  V30 5688 C 529.093 0.793475 1.69 0
M  V30 5689 C 529.444 -0.683882 1.83895 0
M  V30 5690 O 528.569 -1.53116 1.5292 0
M  V30 5691 C 529.164 1.43376 3.06967 0
M  V30 5692 C 527.723 1.21956 3.56095 0
M  V30 5693 C 526.87 1.51494 2.3226 0
M  V30 5694 H 529.821 1.22008 1.01487 0
M  V30 5695 H 529.842 0.845068 3.70997 0
M  V30 5696 H 529.354 2.50899 2.96093 0
M  V30 5697 H 527.455 0.163749 3.7224 0
M  V30 5698 H 527.568 1.92713 4.38633 0
M  V30 5699 H 525.932 0.935175 2.3691 0
M  V30 5700 H 526.715 2.60159 2.23992 0
M  V30 5701 N 529.16 -1.33526 0.837174 0
M  V30 5702 C 530.437 -1.92369 0.354065 0
M  V30 5703 C 530.817 -1.76348 -1.16038 0
M  V30 5704 O 530.165 -1.15083 -1.97403 0
M  V30 5705 C 530.375 -3.39728 0.799101 0
M  V30 5706 C 531.723 -4.16877 0.806139 0
M  V30 5707 O 532.747 -3.48373 0.742597 0
M  V30 5708 O 531.606 -5.39166 0.892345 0
M  V30 5709 H 528.7 -0.820952 0.0998378 0
M  V30 5710 H 531.246 -1.42409 0.922913 0
M  V30 5711 H 530.018 -3.45254 1.84162 0
M  V30 5712 H 529.641 -3.97062 0.206731 0
M  V30 5713 N 530.638 -0.59345 -1.46 0
M  V30 5714 C 531.568 0.121192 -2.33185 0
M  V30 5715 C 532.549 0.872977 -1.4599 0
M  V30 5716 O 533.734 0.846321 -1.74789 0
M  V30 5717 C 530.864 1.12844 -3.28456 0
M  V30 5718 C 529.818 0.4908 -4.25177 0
M  V30 5719 C 529.144 1.60529 -5.10034 0
M  V30 5720 C 530.444 -0.578949 -5.19081 0
M  V30 5721 H 532.138 -0.606767 -2.93187 0
M  V30 5722 H 529.684 -0.293242 -1.40983 0
M  V30 5723 H 531.637 1.63684 -3.88311 0
M  V30 5724 H 530.361 1.88681 -2.66584 0
M  V30 5725 H 529.02 0.00339328 -3.666 0
M  V30 5726 H 528.668 2.35359 -4.44539 0
M  V30 5727 H 528.368 1.18422 -5.75543 0
M  V30 5728 H 529.892 2.11623 -5.72755 0
M  V30 5729 H 531.306 -0.155199 -5.7309 0
M  V30 5730 H 529.703 -0.920947 -5.92991 0
M  V30 5731 H 530.773 -1.46109 -4.62364 0
M  V30 5732 N 532.116 1.54067 -0.331816 0
M  V30 5733 C 533.363 2.00715 0.268269 0
M  V30 5734 C 533.691 1.21986 1.51491 0
M  V30 5735 O 532.946 0.292309 1.93505 0
M  V30 5736 C 533.245 3.51634 0.639392 0
M  V30 5737 C 532.911 4.48018 -0.509019 0
M  V30 5738 C 531.573 4.74089 -0.824209 0
M  V30 5739 C 533.925 5.05237 -1.28003 0
M  V30 5740 C 531.253 5.54637 -1.91298 0
M  V30 5741 C 533.605 5.86972 -2.35895 0
M  V30 5742 C 532.269 6.11342 -2.67987 0
M  V30 5743 H 531.539 0.734469 0.0981667 0
M  V30 5744 H 534.186 1.8596 -0.457304 0
M  V30 5745 H 532.491 3.6416 1.44551 0
M  V30 5746 H 534.188 3.85175 1.11539 0
M  V30 5747 H 530.778 4.27851 -0.253287 0
M  V30 5748 H 534.962 4.8507 -1.04978 0
M  V30 5749 H 530.218 5.71747 -2.16599 0
M  V30 5750 H 534.392 6.30327 -2.96076 0
M  V30 5751 H 532.019 6.73544 -3.5248 0
M  V30 5752 N 533.594 0.0601682 1.57485 0
M  V30 5753 C 534.557 -0.896373 2.10945 0
M  V30 5754 C 535.557 -1.23402 1.03095 0
M  V30 5755 O 536.747 -1.16921 1.29132 0
M  V30 5756 C 533.879 -2.20346 2.60116 0
M  V30 5757 H 535.072 -0.432778 2.96761 0
M  V30 5758 H 532.625 -0.188372 1.55161 0
M  V30 5759 H 533.36 -2.71268 1.7772 0
M  V30 5760 H 533.145 -1.9714 3.38937 0
M  V30 5761 H 534.635 -2.88846 3.01592 0
M  V30 5762 N 535.072 -1.5615 -0.213296 0
M  V30 5763 C 536.297 -1.83986 -0.957282 0
M  V30 5764 C 536.722 -0.641526 -1.76822 0
M  V30 5765 O 536.08 0.409722 -1.7661 0
M  V30 5766 C 536.128 -3.09889 -1.84393 0
M  V30 5767 O 535.232 -2.89163 -2.94038 0
M  V30 5768 H 534.573 -0.606357 -0.270605 0
M  V30 5769 H 537.103 -2.03369 -0.224111 0
M  V30 5770 H 537.113 -3.40209 -2.25215 0
M  V30 5771 H 535.788 -3.96735 -1.24795 0
M  V30 5772 H 534.365 -2.70097 -2.57103 0
M  V30 5773 N 536.55 0.480323 -1.50102 0
M  V30 5774 C 537.775 1.26126 -1.64642 0
M  V30 5775 C 538.2 1.85257 -0.325823 0
M  V30 5776 O 537.558 1.66854 0.709194 0
M  V30 5777 C 537.606 2.35243 -2.73301 0
M  V30 5778 O 536.71 3.39646 -2.33911 0
M  V30 5779 H 536.051 0.371463 -0.550374 0
M  V30 5780 H 538.581 0.572696 -1.96421 0
M  V30 5781 H 538.591 2.80695 -2.96098 0
M  V30 5782 H 537.266 1.91574 -3.6915 0
M  V30 5783 H 535.843 2.99969 -2.21525 0
M  V30 5784 N 538.028 1.39524 0.732853 0
M  V30 5785 C 539.256 1.40143 1.52209 0
M  V30 5786 C 539.671 -0.00348836 1.888 0
M  V30 5787 O 539.028 -0.975357 1.5425 0
M  V30 5788 C 539.079 2.27632 2.8083 0
M  V30 5789 O 538.8 3.62654 2.45792 0
M  V30 5790 C 540.301 2.36658 3.74844 0
M  V30 5791 H 537.521 0.478604 0.470297 0
M  V30 5792 H 540.065 1.83366 0.905388 0
M  V30 5793 H 538.22 1.87818 3.38826 0
M  V30 5794 H 538.634 4.08941 3.28431 0
M  V30 5795 H 540.108 3.02118 4.61984 0
M  V30 5796 H 540.585 1.38638 4.16745 0
M  V30 5797 H 541.191 2.76951 3.22766 0
M  V30 5798 N 539.506 -0.963266 1.24736 0
M  V30 5799 C 540.454 -2.07985 1.04139 0
M  V30 5800 C 541.448 -1.69381 -0.0250556 0
M  V30 5801 O 542.654 -1.79531 0.129863 0
M  V30 5802 H 539.029 -0.680627 0.319768 0
M  V30 5803 H 541 -2.22517 1.98818 0
M  V30 5804 C 539.749 -3.4123 0.667615 0
M  V30 5805 H 539.072 -3.71397 1.48 0
M  V30 5806 H 540.512 -4.20244 0.563136 0
M  V30 5807 C 538.971 -3.3104 -0.625647 0
M  V30 5808 O 539.501 -3.65334 -1.67016 0
M  V30 5809 N 537.707 -2.84168 -0.608033 0
M  V30 5810 H 537.254 -2.56458 0.242323 0
M  V30 5811 H 537.212 -2.77732 -1.47352 0
M  V30 5812 N 540.985 -1.06182 -1.16461 0
M  V30 5813 C 541.918 -0.615859 -2.19733 0
M  V30 5814 C 542.896 0.360766 -1.58547 0
M  V30 5815 O 544.08 0.270009 -1.86556 0
M  V30 5816 C 541.207 0.097312 -3.3856 0
M  V30 5817 C 540.253 -0.835889 -4.18229 0
M  V30 5818 S 541.086 -2.33052 -4.82128 0
M  V30 5819 C 542.242 -1.62881 -6.04335 0
M  V30 5820 H 542.475 -1.49079 -2.57221 0
M  V30 5821 H 540.008 -0.874692 -1.27234 0
M  V30 5822 H 541.966 0.502563 -4.07412 0
M  V30 5823 H 540.627 0.948418 -2.99439 0
M  V30 5824 H 539.82 -0.283426 -5.03202 0
M  V30 5825 H 539.422 -1.18097 -3.54865 0
M  V30 5826 H 541.714 -0.933764 -6.71034 0
M  V30 5827 H 542.657 -2.45641 -6.64128 0
M  V30 5828 H 543.065 -1.11189 -5.53441 0
M  V30 5829 N 542.463 1.3308 -0.844243 0
M  V30 5830 C 543.74 1.92178 -0.364261 0
M  V30 5831 C 544.12 1.76961 1.15101 0
M  V30 5832 O 543.468 1.16128 1.9679 0
M  V30 5833 C 543.678 3.393 -0.817106 0
M  V30 5834 C 545.026 4.16444 -0.828236 0
M  V30 5835 O 546.05 3.47975 -0.761062 0
M  V30 5836 O 544.909 5.38685 -0.920926 0
M  V30 5837 H 542.003 0.820411 -0.10419 0
M  V30 5838 H 544.549 1.41918 -0.930453 0
M  V30 5839 H 543.321 3.44272 -1.85991 0
M  V30 5840 H 542.944 3.96947 -0.227785 0
M  V30 5841 N 543.941 0.601185 1.45683 0
M  V30 5842 C 545.169 0.100054 2.06658 0
M  V30 5843 C 545.584 -1.21285 1.44691 0
M  V30 5844 O 544.941 -1.73735 0.558772 0
M  V30 5845 C 544.992 -0.0528579 3.61461 0
M  V30 5846 O 544.713 1.20809 4.21114 0
M  V30 5847 C 546.214 -0.586193 4.39407 0
M  V30 5848 H 543.434 0.065905 0.667756 0
M  V30 5849 H 545.978 0.827101 1.87028 0
M  V30 5850 H 544.133 -0.730203 3.80456 0
M  V30 5851 H 544.547 1.03368 5.14213 0
M  V30 5852 H 546.021 -0.642297 5.4825 0
M  V30 5853 H 546.498 -1.60713 4.0874 0
M  V30 5854 H 547.104 0.0568935 4.25262 0
M  V30 5855 N 545.419 -1.53889 0.339982 0
M  V30 5856 C 546.668 -2.00035 -0.258604 0
M  V30 5857 C 546.981 -1.23179 -1.51942 0
M  V30 5858 O 548.187 -1.59784 -2.19503 0
M  V30 5859 C 546.643 -3.56249 -0.511359 0
M  V30 5860 C 546.251 -4.41957 0.733349 0
M  V30 5861 C 547.995 -4.1082 -1.069 0
M  V30 5862 C 545.902 -5.89673 0.451591 0
M  V30 5863 H 544.832 -0.747284 -0.10041 0
M  V30 5864 H 547.483 -1.77776 0.454758 0
M  V30 5865 H 545.865 -3.7456 -1.28533 0
M  V30 5866 H 547.039 -4.35421 1.50815 0
M  V30 5867 H 545.354 -3.9836 1.21237 0
M  V30 5868 H 547.951 -5.18789 -1.2947 0
M  V30 5869 H 548.294 -3.63817 -2.02343 0
M  V30 5870 H 548.827 -3.96205 -0.355817 0
M  V30 5871 H 545.566 -6.40903 1.37565 0
M  V30 5872 H 545.086 -5.99122 -0.285193 0
M  V30 5873 H 546.765 -6.46965 0.0675067 0
M  V30 5874 N 546.897 -0.0685191 -1.57451 0
M  V30 5875 C 547.829 0.929372 -2.09512 0
M  V30 5876 C 548.842 1.26354 -1.02657 0
M  V30 5877 O 550.031 1.2213 -1.30179 0
M  V30 5878 C 547.131 2.24612 -2.53777 0
M  V30 5879 C 546.304 2.09128 -3.84167 0
M  V30 5880 C 545.363 3.24079 -4.14559 0
M  V30 5881 O 544.389 2.99215 -4.8421 0
M  V30 5882 N 545.591 4.49077 -3.67845 0
M  V30 5883 H 548.356 0.484901 -2.95751 0
M  V30 5884 H 545.917 0.11729 -1.61475 0
M  V30 5885 H 547.909 3.00412 -2.71172 0
M  V30 5886 H 546.479 2.60569 -1.72692 0
M  V30 5887 H 545.699 1.17815 -3.76182 0
M  V30 5888 H 546.987 1.9603 -4.69521 0
M  V30 5889 H 546.385 4.72165 -3.11571 0
M  V30 5890 H 544.942 5.21915 -3.90446 0
M  V30 5891 N 548.375 1.56261 0.205012 0
M  V30 5892 C 549.624 1.79236 0.925058 0
M  V30 5893 C 549.937 0.640011 1.84833 0
M  V30 5894 O 551.143 0.753809 2.60826 0
M  V30 5895 C 549.599 3.17475 1.69522 0
M  V30 5896 C 549.207 4.40482 0.817269 0
M  V30 5897 C 550.951 3.49766 2.4055 0
M  V30 5898 C 548.858 5.69744 1.58573 0
M  V30 5899 H 547.788 0.668287 0.349153 0
M  V30 5900 H 550.439 1.82629 0.178544 0
M  V30 5901 H 548.821 3.08304 2.48526 0
M  V30 5902 H 549.995 4.60752 0.0665988 0
M  V30 5903 H 548.31 4.15827 0.218316 0
M  V30 5904 H 550.907 4.43573 2.98575 0
M  V30 5905 H 551.25 2.73041 3.14252 0
M  V30 5906 H 551.783 3.60341 1.68522 0
M  V30 5907 H 548.522 6.49407 0.891679 0
M  V30 5908 H 548.042 5.53509 2.31059 0
M  V30 5909 H 549.721 6.1051 2.14212 0
M  V30 5910 N 549.853 -0.472356 1.50355 0
M  V30 5911 C 550.801 -1.59126 1.69651 0
M  V30 5912 C 551.795 -1.59793 0.56237 0
M  V30 5913 O 553.001 -1.63957 0.742832 0
M  V30 5914 H 549.376 -0.528008 0.535454 0
M  V30 5915 H 551.347 -1.40013 2.63513 0
M  V30 5916 C 550.096 -2.97075 1.8067 0
M  V30 5917 H 549.419 -2.9728 2.67329 0
M  V30 5918 H 550.859 -3.74825 1.98197 0
M  V30 5919 C 549.318 -3.32247 0.558016 0
M  V30 5920 O 549.848 -4.00553 -0.303399 0
M  V30 5921 N 548.054 -2.87659 0.412415 0
M  V30 5922 H 547.601 -2.32246 1.11443 0
M  V30 5923 H 547.559 -3.11556 -0.421908 0
M  V30 5924 N 551.331 -1.39911 -0.725443 0
M  V30 5925 C 552.556 -1.41137 -1.5197 0
M  V30 5926 C 552.981 -0.010262 -1.88097 0
M  V30 5927 O 552.339 0.979184 -1.52583 0
M  V30 5928 C 552.387 -2.2994 -2.77777 0
M  V30 5929 O 551.491 -1.73586 -3.74088 0
M  V30 5930 H 550.832 -0.480219 -0.458569 0
M  V30 5931 H 553.362 -1.84023 -0.894249 0
M  V30 5932 H 553.372 -2.44785 -3.26411 0
M  V30 5933 H 552.047 -3.31759 -2.50816 0
M  V30 5934 H 550.624 -1.68035 -3.32894 0
M  V30 5935 N 552.809 0.956637 -1.25245 0
M  V30 5936 C 554.058 1.69537 -1.0927 0
M  V30 5937 C 554.371 1.92136 0.366503 0
M  V30 5938 O 555.577 2.63687 0.64665 0
M  V30 5939 C 554.033 3.05211 -1.9072 0
M  V30 5940 C 553.641 2.90416 -3.41119 0
M  V30 5941 C 555.385 3.82882 -1.83308 0
M  V30 5942 C 553.292 4.21468 -4.14872 0
M  V30 5943 H 552.222 0.635804 -0.405302 0
M  V30 5944 H 554.873 1.06513 -1.49423 0
M  V30 5945 H 553.255 3.69128 -1.43389 0
M  V30 5946 H 554.429 2.35444 -3.9611 0
M  V30 5947 H 552.744 2.26203 -3.49602 0
M  V30 5948 H 555.341 4.79944 -2.35706 0
M  V30 5949 H 555.684 4.0853 -0.800572 0
M  V30 5950 H 556.217 3.25711 -2.28379 0
M  V30 5951 H 552.956 4.01009 -5.18529 0
M  V30 5952 H 552.476 4.76213 -3.64665 0
M  V30 5953 H 554.155 4.90022 -4.22478 0
M  V30 5954 N 554.287 1.06798 1.15896 0
M  V30 5955 C 555.235 0.677525 2.22514 0
M  V30 5956 C 556.229 -0.308994 1.66558 0
M  V30 5957 O 557.435 -0.173308 1.79164 0
M  V30 5958 H 553.81 0.200994 0.724642 0
M  V30 5959 H 555.781 1.5865 2.52731 0
M  V30 5960 C 554.53 0.0854153 3.47595 0
M  V30 5961 H 553.853 0.835645 3.90969 0
M  V30 5962 H 555.293 -0.150199 4.23734 0
M  V30 5963 C 553.752 -1.1724 3.15843 0
M  V30 5964 O 554.282 -2.25965 3.32119 0
M  V30 5965 N 552.488 -1.07636 2.69931 0
M  V30 5966 H 552.035 -0.191559 2.56887 0
M  V30 5967 H 551.993 -1.91876 2.4906 0
M  V30 5968 N 555.766 -1.3263 0.851289 0
M  V30 5969 C 556.714 -2.30882 0.282202 0
M  V30 5970 C 557.708 -1.58697 -0.592589 0
M  V30 5971 O 558.914 -1.73461 -0.480768 0
M  V30 5972 H 555.289 -0.748492 0.0725487 0
M  V30 5973 H 557.26 -2.76374 1.12516 0
M  V30 5974 C 556.009 -3.43828 -0.517449 0
M  V30 5975 H 555.332 -3.99532 0.146392 0
M  V30 5976 H 556.772 -4.1474 -0.88128 0
M  V30 5977 C 555.231 -2.90786 -1.70133 0
M  V30 5978 O 555.761 -2.88 -2.80034 0
M  V30 5979 N 553.967 -2.4723 -1.52728 0
M  V30 5980 H 553.514 -2.49695 -0.633257 0
M  V30 5981 H 553.472 -2.12094 -2.32085 0
M  V30 5982 N 557.244 -0.608902 -1.45362 0
M  V30 5983 C 558.492 -0.104401 -2.0183 0
M  V30 5984 C 558.813 1.27007 -1.47967 0
M  V30 5985 O 558.083 1.83924 -0.674455 0
M  V30 5986 H 556.663 -0.0356042 -0.746151 0
M  V30 5987 H 559.325 -0.790596 -1.78145 0
M  V30 5988 H 558.421 -0.0551793 -3.12051 0
M  V30 5989 N 558.722 1.53707 -0.348139 0
M  V30 5990 C 559.67 2.26671 0.521808 0
M  V30 5991 C 560.664 1.28988 1.09811 0
M  V30 5992 O 561.87 1.4668 1.04332 0
M  V30 5993 H 558.245 0.728387 0.186968 0
M  V30 5994 H 560.216 2.98176 -0.115563 0
M  V30 5995 C 558.965 3.05591 1.6586 0
M  V30 5996 H 558.288 3.80589 1.22443 0
M  V30 5997 H 559.728 3.59851 2.24239 0
M  V30 5998 C 558.187 2.15366 2.59073 0
M  V30 5999 O 558.717 1.7528 3.61441 0
M  V30 6000 N 556.923 1.80352 2.27863 0
M  V30 6001 H 556.47 2.13149 1.44656 0
M  V30 6002 H 556.428 1.20268 2.90488 0
M  V30 6003 N 560.2 0.0768682 1.57412 0
M  V30 6004 C 561.147 -0.888577 2.13009 0
M  V30 6005 C 562.117 -1.29198 1.0439 0
M  V30 6006 O 563.302 -1.37694 1.3208 0
M  V30 6007 C 560.442 -2.14899 2.70023 0
M  V30 6008 C 559.555 -1.79777 3.92816 0
M  V30 6009 C 558.69 -3.00467 4.38056 0
M  V30 6010 C 557.729 -2.61385 5.53484 0
M  V30 6011 N 556.866 -3.74851 5.93659 0
M  V30 6012 H 561.706 -0.407593 2.95199 0
M  V30 6013 H 559.243 -0.189534 1.45874 0
M  V30 6014 H 561.201 -2.88688 3.0119 0
M  V30 6015 H 559.831 -2.60529 1.9059 0
M  V30 6016 H 558.883 -0.960301 3.68079 0
M  V30 6017 H 560.195 -1.47027 4.76639 0
M  V30 6018 H 559.349 -3.82529 4.7091 0
M  V30 6019 H 558.088 -3.36413 3.53097 0
M  V30 6020 H 557.093 -1.77746 5.20275 0
M  V30 6021 H 558.318 -2.26603 6.40178 0
M  V30 6022 H 556.264 -4.1055 5.11649 0
M  V30 6023 H 556.181 -3.45887 6.72234 0
M  V30 6024 H 557.449 -4.57477 6.31138 0
M  V30 6025 N 561.678 -1.56367 -0.196722 0
M  V30 6026 C 562.611 -1.89475 -1.2718 0
M  V30 6027 C 563.589 -0.754667 -1.44026 0
M  V30 6028 O 564.773 -1.00551 -1.59442 0
M  V30 6029 C 561.9 -2.12352 -2.63864 0
M  V30 6030 C 560.946 -3.35053 -2.63897 0
M  V30 6031 S 561.779 -4.90228 -2.15492 0
M  V30 6032 C 562.935 -5.16171 -3.54004 0
M  V30 6033 H 563.168 -2.80365 -0.989075 0
M  V30 6034 H 560.701 -1.49125 -0.40014 0
M  V30 6035 H 562.659 -2.26214 -3.42545 0
M  V30 6036 H 561.32 -1.22214 -2.89349 0
M  V30 6037 H 560.513 -3.48182 -3.64397 0
M  V30 6038 H 560.115 -3.20176 -1.93296 0
M  V30 6039 H 562.407 -5.06591 -4.49857 0
M  V30 6040 H 563.35 -6.17938 -3.45771 0
M  V30 6041 H 563.758 -4.43814 -3.48841 0
M  V30 6042 N 563.156 0.464375 -1.50603 0
M  V30 6043 C 564.384 1.23907 -1.65695 0
M  V30 6044 C 564.799 1.85658 -0.343027 0
M  V30 6045 O 564.156 1.69529 0.675739 0
M  V30 6046 C 564.207 2.3429 -2.75301 0
M  V30 6047 O 563.928 1.7507 -4.01599 0
M  V30 6048 C 565.429 3.25051 -3.01424 0
M  V30 6049 H 562.649 0.374485 -0.556778 0
M  V30 6050 H 565.193 0.55353 -1.96866 0
M  V30 6051 H 563.348 2.98607 -2.46804 0
M  V30 6052 H 563.762 2.47812 -4.62266 0
M  V30 6053 H 565.236 3.98699 -3.81763 0
M  V30 6054 H 565.713 3.84227 -2.12758 0
M  V30 6055 H 566.319 2.66463 -3.31477 0
M  V30 6056 N 564.634 1.40294 0.718013 0
M  V30 6057 C 565.859 1.41941 1.5122 0
M  V30 6058 C 566.284 0.0202371 1.88089 0
M  V30 6059 O 565.642 -0.971078 1.53101 0
M  V30 6060 C 565.69 2.3141 2.76554 0
M  V30 6061 O 564.794 1.75567 3.73162 0
M  V30 6062 H 564.135 0.482644 0.456016 0
M  V30 6063 H 566.665 1.84494 0.884478 0
M  V30 6064 H 566.675 2.46513 3.25108 0
M  V30 6065 H 565.35 3.33085 2.49053 0
M  V30 6066 H 563.927 1.69798 3.31999 0
M  V30 6067 N 566.112 -0.949982 1.2575 0
M  V30 6068 C 567.059 -2.04738 1.06541 0
M  V30 6069 C 568.029 -1.66078 -0.0268818 0
M  V30 6070 O 569.214 -1.90348 0.131196 0
M  V30 6071 C 566.354 -3.38027 0.695127 0
M  V30 6072 C 565.467 -3.89776 1.86276 0
M  V30 6073 C 564.602 -5.11411 1.4364 0
M  V30 6074 C 563.641 -5.554 2.57287 0
M  V30 6075 N 562.778 -6.68244 2.15395 0
M  V30 6076 H 567.618 -2.20502 2.00457 0
M  V30 6077 H 565.155 -1.0805 0.998178 0
M  V30 6078 H 567.113 -4.14641 0.461375 0
M  V30 6079 H 565.743 -3.22135 -0.207046 0
M  V30 6080 H 564.795 -3.0964 2.20969 0
M  V30 6081 H 566.107 -4.18368 2.71606 0
M  V30 6082 H 565.261 -5.95457 1.16257 0
M  V30 6083 H 564 -4.84545 0.553879 0
M  V30 6084 H 563.005 -4.69916 2.85409 0
M  V30 6085 H 564.23 -5.84272 3.46125 0
M  V30 6086 H 562.176 -6.43078 1.29565 0
M  V30 6087 H 562.093 -6.96377 2.94272 0
M  V30 6088 H 563.361 -7.55687 1.91201 0
M  V30 6089 N 567.59 -1.07411 -1.15328 0
M  V30 6090 C 568.82 -0.817595 -1.89734 0
M  V30 6091 C 569.228 0.63297 -1.78298 0
M  V30 6092 O 568.571 1.44594 -1.13306 0
M  V30 6093 C 568.633 -1.14748 -3.40695 0
M  V30 6094 C 568.297 -2.59876 -3.75917 0
M  V30 6095 C 569.294 -3.58122 -3.76888 0
M  V30 6096 C 566.979 -2.95469 -4.06206 0
M  V30 6097 C 568.973 -4.89996 -4.07655 0
M  V30 6098 C 566.66 -4.2754 -4.36638 0
M  V30 6099 C 567.658 -5.24614 -4.37344 0
M  V30 6100 O 567.346 -6.54312 -4.67045 0
M  V30 6101 H 567.078 -0.295175 -0.608151 0
M  V30 6102 H 569.632 -1.43409 -1.47048 0
M  V30 6103 H 567.862 -0.47395 -3.83785 0
M  V30 6104 H 569.551 -0.873397 -3.96392 0
M  V30 6105 H 570.317 -3.31966 -3.53587 0
M  V30 6106 H 566.196 -2.20558 -4.04815 0
M  V30 6107 H 569.74 -5.65759 -4.08121 0
M  V30 6108 H 565.637 -4.53449 -4.59407 0
M  V30 6109 H 566.405 -6.59473 -4.84807 0
M  V30 6110 N 569.068 1.32177 -0.85831 0
M  V30 6111 C 570.317 1.96392 -0.459689 0
M  V30 6112 C 570.63 1.68659 0.990632 0
M  V30 6113 O 571.836 2.26641 1.49485 0
M  V30 6114 C 570.292 3.51542 -0.7711 0
M  V30 6115 C 569.9 3.8813 -2.2374 0
M  V30 6116 C 571.644 4.2221 -0.44038 0
M  V30 6117 C 569.551 5.36341 -2.49183 0
M  V30 6118 H 568.481 0.735007 -0.168169 0
M  V30 6119 H 571.132 1.50518 -1.0496 0
M  V30 6120 H 569.514 3.95846 -0.11058 0
M  V30 6121 H 570.688 3.54824 -2.94001 0
M  V30 6122 H 569.003 3.30497 -2.533 0
M  V30 6123 H 571.6 5.31234 -0.607855 0
M  V30 6124 H 571.943 4.11683 0.618291 0
M  V30 6125 H 572.476 3.83502 -1.05695 0
M  V30 6126 H 569.215 5.51892 -3.53689 0
M  V30 6127 H 568.735 5.7104 -1.83504 0
M  V30 6128 H 570.414 6.03466 -2.33318 0
M  V30 6129 N 570.547 0.616602 1.45037 0
M  V30 6130 C 571.958 0.199359 1.85633 0
M  V30 6131 C 572.309 -1.24588 1.51566 0
M  V30 6132 O 571.434 -1.94594 0.94668 0
M  V30 6133 C 572.029 0.355033 3.36935 0
M  V30 6134 C 570.588 -0.00758748 3.76399 0
M  V30 6135 C 569.735 0.675256 2.68953 0
M  V30 6136 H 572.686 0.822708 1.3571 0
M  V30 6137 H 572.707 -0.410201 3.78282 0
M  V30 6138 H 572.219 1.40699 3.61698 0
M  V30 6139 H 570.32 -1.05837 3.57252 0
M  V30 6140 H 570.433 0.392346 4.77491 0
M  V30 6141 H 568.797 0.111992 2.54454 0
M  V30 6142 H 569.58 1.72952 2.96551 0
M  V30 6143 N 572.025 -1.5352 0.356285 0
M  V30 6144 C 573.253 -2.05534 -0.237328 0
M  V30 6145 C 573.668 -1.23043 -1.43199 0
M  V30 6146 O 573.025 -0.268821 -1.80509 0
M  V30 6147 C 573.076 -3.55791 -0.639933 0
M  V30 6148 O 572.797 -4.35154 0.507233 0
M  V30 6149 C 574.298 -4.24027 -1.29292 0
M  V30 6150 H 571.518 -0.669585 -0.0435572 0
M  V30 6151 H 574.062 -1.97988 0.511963 0
M  V30 6152 H 572.217 -3.63518 -1.33915 0
M  V30 6153 H 572.631 -5.24178 0.18375 0
M  V30 6154 H 574.105 -5.30509 -1.52527 0
M  V30 6155 H 574.582 -3.77166 -2.25039 0
M  V30 6156 H 575.188 -4.20527 -0.63539 0
M  V30 6157 N 573.503 -0.0852151 -1.57369 0
M  V30 6158 C 574.75 0.580806 -1.93992 0
M  V30 6159 C 575.078 1.68801 -0.966252 0
M  V30 6160 O 574.333 1.95694 0.0158649 0
M  V30 6161 C 574.632 1.18482 -3.3719 0
M  V30 6162 C 574.298 0.2024 -4.50446 0
M  V30 6163 C 572.96 -0.0678318 -4.81152 0
M  V30 6164 C 575.312 -0.46895 -5.19086 0
M  V30 6165 C 572.64 -1.01627 -5.77831 0
M  V30 6166 C 574.992 -1.4058 -6.16782 0
M  V30 6167 C 573.656 -1.68436 -6.45899 0
M  V30 6168 H 572.926 0.212532 -0.709867 0
M  V30 6169 H 575.573 -0.158947 -1.90839 0
M  V30 6170 H 573.878 2.0006 -3.36873 0
M  V30 6171 H 575.575 1.70767 -3.62822 0
M  V30 6172 H 572.165 0.423208 -4.26505 0
M  V30 6173 H 576.349 -0.273307 -4.95547 0
M  V30 6174 H 571.605 -1.2392 -5.9871 0
M  V30 6175 H 575.779 -1.93188 -6.69068 0
M  V30 6176 H 573.406 -2.42088 -7.20623 0
M  V30 6177 N 574.981 1.5647 0.188427 0
M  V30 6178 C 576.211 1.84863 0.922463 0
M  V30 6179 C 576.619 0.666413 1.77075 0
M  V30 6180 O 575.962 -0.374044 1.79852 0
M  V30 6181 C 576.024 3.07447 1.86324 0
M  V30 6182 C 575.688 4.41066 1.19625 0
M  V30 6183 C 576.685 5.16767 0.569946 0
M  V30 6184 C 574.37 4.87802 1.19811 0
M  V30 6185 C 576.364 6.37384 -0.045594 0
M  V30 6186 C 574.051 6.08353 0.57874 0
M  V30 6187 C 575.049 6.82987 -0.0420259 0
M  V30 6188 O 574.737 8.01254 -0.651675 0
M  V30 6189 H 574.469 0.61784 0.274316 0
M  V30 6190 H 577.023 2.04437 0.198613 0
M  V30 6191 H 575.253 2.83774 2.62696 0
M  V30 6192 H 576.942 3.2243 2.46564 0
M  V30 6193 H 577.708 4.81749 0.560601 0
M  V30 6194 H 573.587 4.29662 1.67069 0
M  V30 6195 H 577.131 6.95578 -0.530731 0
M  V30 6196 H 573.028 6.42838 0.58561 0
M  V30 6197 H 573.796 8.16655 -0.549236 0
M  V30 6198 N 576.459 -0.456382 1.50847 0
M  V30 6199 C 577.406 -1.55249 1.70782 0
M  V30 6200 C 578.376 -1.56757 0.549231 0
M  V30 6201 O 579.561 -1.74061 0.7815 0
M  V30 6202 C 576.701 -2.93118 1.82143 0
M  V30 6203 C 575.814 -3.01285 3.09598 0
M  V30 6204 C 574.949 -4.30159 3.11667 0
M  V30 6205 C 573.988 -4.32124 4.33515 0
M  V30 6206 N 573.125 -5.52492 4.3324 0
M  V30 6207 H 577.965 -1.37555 2.64353 0
M  V30 6208 H 575.502 -0.668543 1.3103 0
M  V30 6209 H 577.46 -3.73088 1.86711 0
M  V30 6210 H 576.09 -3.09413 0.919978 0
M  V30 6211 H 575.142 -2.14096 3.14431 0
M  V30 6212 H 576.454 -2.98597 3.99551 0
M  V30 6213 H 575.608 -5.18489 3.15046 0
M  V30 6214 H 574.347 -4.35477 2.1957 0
M  V30 6215 H 573.352 -3.42189 4.30333 0
M  V30 6216 H 574.577 -4.28485 5.26856 0
M  V30 6217 H 572.523 -5.58567 3.44004 0
M  V30 6218 H 572.44 -5.51605 5.16979 0
M  V30 6219 H 573.708 -6.42906 4.40786 0
M  V30 6220 N 577.937 -1.40673 -0.710563 0
M  V30 6221 C 578.884 -1.41336 -1.82463 0
M  V30 6222 C 579.854 -0.269648 -1.63897 0
M  V30 6223 O 581.039 -0.468463 -1.8496 0
M  V30 6224 C 578.179 -1.28665 -3.20218 0
M  V30 6225 C 577.292 -2.52784 -3.5032 0
M  V30 6226 C 576.427 -2.32517 -4.77608 0
M  V30 6227 C 575.466 -3.52187 -5.0063 0
M  V30 6228 N 574.603 -3.31084 -6.19135 0
M  V30 6229 H 579.443 -2.36558 -1.8123 0
M  V30 6230 H 576.98 -1.17483 -0.885226 0
M  V30 6231 H 578.938 -1.19324 -3.99772 0
M  V30 6232 H 577.568 -0.370602 -3.20666 0
M  V30 6233 H 576.62 -2.72634 -2.65283 0
M  V30 6234 H 577.932 -3.41845 -3.63241 0
M  V30 6235 H 577.086 -2.20558 -5.65189 0
M  V30 6236 H 575.825 -1.40889 -4.66906 0
M  V30 6237 H 574.83 -3.64617 -4.11502 0
M  V30 6238 H 576.055 -4.44749 -5.13201 0
M  V30 6239 H 574.001 -2.42143 -6.09674 0
M  V30 6240 H 573.918 -4.13713 -6.32754 0
M  V30 6241 H 575.186 -3.22868 -7.0949 0
M  V30 6242 N 579.415 0.9433 -1.26252 0
M  V30 6243 C 580.325 2.07532 -1.09397 0
M  V30 6244 C 581.341 1.73977 -0.0280449 0
M  V30 6245 O 582.517 2.00067 -0.231337 0
M  V30 6246 C 579.582 3.39002 -0.726523 0
M  V30 6247 C 578.643 3.86353 -1.87163 0
M  V30 6248 C 577.876 5.11549 -1.52162 0
M  V30 6249 O 578.099 5.68834 -0.422385 0
M  V30 6250 O 577.033 5.53889 -2.35565 0
M  V30 6251 H 580.859 2.24658 -2.04359 0
M  V30 6252 H 578.444 1.05988 -1.05295 0
M  V30 6253 H 580.326 4.18 -0.534236 0
M  V30 6254 H 579.001 3.2312 0.193721 0
M  V30 6255 H 577.908 3.0831 -2.11886 0
M  V30 6256 H 579.241 4.06752 -2.77152 0
M  V30 6257 N 580.893 1.08022 1.14757 0
M  V30 6258 C 581.856 0.71048 2.1791 0
M  V30 6259 C 582.856 -0.252731 1.58801 0
M  V30 6260 O 584.046 -0.0327915 1.74169 0
M  V30 6261 C 581.178 0.0483203 3.40866 0
M  V30 6262 H 582.371 1.62384 2.52134 0
M  V30 6263 H 579.924 0.877595 1.29337 0
M  V30 6264 H 580.659 -0.876959 3.12218 0
M  V30 6265 H 580.444 0.741189 3.85031 0
M  V30 6266 H 581.934 -0.195471 4.17142 0
M  V30 6267 N 582.371 -1.3172 0.865308 0
M  V30 6268 C 583.619 -1.96487 0.472995 0
M  V30 6269 C 583.94 -1.68761 -0.976975 0
M  V30 6270 O 583.21 -1.00051 -1.68424 0
M  V30 6271 H 581.79 -0.726947 0.171922 0
M  V30 6272 H 584.452 -1.60612 1.10407 0
M  V30 6273 H 583.548 -3.0574 0.62687 0
M  V30 6274 N 583.85 -0.624285 -1.44708 0
M  V30 6275 C 585.099 -0.123539 -2.01321 0
M  V30 6276 C 585.412 1.25966 -1.49639 0
M  V30 6277 O 586.618 1.85405 -1.98336 0
M  V30 6278 C 585.074 -0.170124 -3.59498 0
M  V30 6279 C 584.682 -1.55421 -4.20176 0
M  V30 6280 C 586.426 0.274513 -4.23611 0
M  V30 6281 C 584.332 -1.55628 -5.70556 0
M  V30 6282 H 583.263 -0.0424183 -0.752806 0
M  V30 6283 H 585.913 -0.782076 -1.65999 0
M  V30 6284 H 584.296 0.555385 -3.92086 0
M  V30 6285 H 585.47 -2.30276 -3.99136 0
M  V30 6286 H 583.784 -1.94235 -3.68323 0
M  V30 6287 H 586.382 0.292402 -5.339 0
M  V30 6288 H 586.725 1.3005 -3.95465 0
M  V30 6289 H 587.258 -0.398275 -3.95801 0
M  V30 6290 H 583.997 -2.56041 -6.03426 0
M  V30 6291 H 583.517 -0.850563 -5.93739 0
M  V30 6292 H 585.196 -1.28721 -6.34066 0
M  V30 6293 N 585.328 1.53329 -0.364422 0
M  V30 6294 C 586.568 2.0315 0.22572 0
M  V30 6295 C 586.932 1.24589 1.46087 0
M  V30 6296 O 588.133 1.64411 2.12656 0
M  V30 6297 C 586.404 3.53718 0.511663 0
M  V30 6298 S 587.963 4.25412 1.07564 0
M  V30 6299 H 584.781 0.70795 0.0657843 0
M  V30 6300 H 587.383 1.88811 -0.507019 0
M  V30 6301 H 586.087 4.08497 -0.394784 0
M  V30 6302 H 585.618 3.72217 1.27351 0
M  V30 6303 H 587.633 4.36486 2.35997 0
M  V30 6304 N 586.806 0.0935595 1.57322 0
M  V30 6305 C 588.055 -0.570191 1.93473 0
M  V30 6306 C 588.368 -1.69434 0.977318 0
M  V30 6307 O 589.574 -2.41914 1.23248 0
M  V30 6308 C 588.03 -1.06564 3.43762 0
M  V30 6309 C 587.638 0.0286723 4.47991 0
M  V30 6310 C 589.382 -1.70221 3.88877 0
M  V30 6311 C 587.289 -0.482046 5.89432 0
M  V30 6312 H 586.219 -0.216764 0.72217 0
M  V30 6313 H 588.87 0.169313 1.82717 0
M  V30 6314 H 587.252 -1.85878 3.49664 0
M  V30 6315 H 588.426 0.804106 4.5373 0
M  V30 6316 H 586.741 0.570336 4.12476 0
M  V30 6317 H 589.338 -2.09502 4.91948 0
M  V30 6318 H 589.681 -2.57078 3.27439 0
M  V30 6319 H 590.214 -0.974919 3.85668 0
M  V30 6320 H 586.953 0.349871 6.54566 0
M  V30 6321 H 586.473 -1.22452 5.87167 0
M  V30 6322 H 588.152 -0.951508 6.39965 0
M  V30 6323 N 588.284 -1.56567 -0.180126 0
M  V30 6324 C 589.532 -1.81133 -0.896392 0
M  V30 6325 C 589.853 -0.669114 -1.83161 0
M  V30 6326 O 589.123 0.311616 -1.93406 0
M  V30 6327 H 587.703 -0.668172 -0.333999 0
M  V30 6328 H 590.365 -1.94048 -0.182051 0
M  V30 6329 H 589.461 -2.74854 -1.47857 0
M  V30 6330 N 589.762 0.448376 -1.51087 0
M  V30 6331 C 591.009 1.19872 -1.63209 0
M  V30 6332 C 591.337 1.91451 -0.343062 0
M  V30 6333 O 590.592 1.83789 0.672321 0
M  V30 6334 C 590.891 2.24866 -2.77795 0
M  V30 6335 C 590.557 1.70378 -4.17471 0
M  V30 6336 C 589.219 1.55241 -4.55471 0
M  V30 6337 C 591.571 1.30203 -5.04675 0
M  V30 6338 C 588.899 0.983844 -5.78392 0
M  V30 6339 C 591.251 0.747798 -6.28165 0
M  V30 6340 C 589.915 0.583233 -6.64947 0
M  V30 6341 H 589.185 0.438642 -0.597222 0
M  V30 6342 H 591.832 0.49136 -1.85089 0
M  V30 6343 H 590.137 3.01598 -2.50092 0
M  V30 6344 H 591.834 2.82723 -2.84374 0
M  V30 6345 H 588.424 1.83134 -3.87505 0
M  V30 6346 H 592.608 1.40723 -4.75932 0
M  V30 6347 H 587.864 0.844007 -6.05546 0
M  V30 6348 H 592.038 0.427927 -6.95084 0
M  V30 6349 H 589.665 0.140532 -7.6007 0
M  V30 6350 N 591.24 1.41047 0.703093 0
M  V30 6351 C 592.488 1.39723 1.4602 0
M  V30 6352 C 592.809 0.00461257 1.94999 0
M  V30 6353 O 592.079 -0.952292 1.71196 0
M  V30 6354 H 590.659 0.514281 0.541779 0
M  V30 6355 H 593.321 1.76217 0.832678 0
M  V30 6356 H 592.417 2.07982 2.32701 0
M  V30 6357 N 592.718 -0.936591 1.26751 0
M  V30 6358 C 593.966 -1.67998 1.12343 0
M  V30 6359 C 594.287 -1.92137 -0.332938 0
M  V30 6360 O 593.557 -1.52132 -1.23421 0
M  V30 6361 H 592.137 -0.622609 0.412756 0
M  V30 6362 H 594.799 -1.12509 1.59147 0
M  V30 6363 H 593.895 -2.65185 1.64571 0
M  V30 6364 N 594.196 -1.08629 -1.14182 0
M  V30 6365 C 595.143 -0.718299 -2.19338 0
M  V30 6366 C 596.113 0.296587 -1.63431 0
M  V30 6367 O 597.298 0.180079 -1.89948 0
M  V30 6368 C 594.438 -0.136203 -3.44831 0
M  V30 6369 C 593.551 -1.20414 -4.14879 0
M  V30 6370 C 592.686 -0.585666 -5.27962 0
M  V30 6371 C 591.725 -1.63548 -5.89846 0
M  V30 6372 N 590.862 -1.03864 -6.94375 0
M  V30 6373 H 595.702 -1.61932 -2.50164 0
M  V30 6374 H 593.239 -0.80919 -1.22844 0
M  V30 6375 H 595.197 0.219021 -4.16625 0
M  V30 6376 H 593.827 0.728121 -3.14481 0
M  V30 6377 H 592.879 -1.67676 -3.41451 0
M  V30 6378 H 594.191 -1.99959 -4.56966 0
M  V30 6379 H 593.345 -0.178818 -6.06436 0
M  V30 6380 H 592.084 0.24142 -4.87102 0
M  V30 6381 H 591.089 -2.05197 -5.10073 0
M  V30 6382 H 592.314 -2.46509 -6.3278 0
M  V30 6383 H 590.26 -0.232687 -6.55587 0
M  V30 6384 H 590.177 -1.77116 -7.3496 0
M  V30 6385 H 591.445 -0.657724 -7.7672 0
M  V30 6386 N 595.674 1.31259 -0.872281 0
M  V30 6387 C 596.923 1.95893 -0.480493 0
M  V30 6388 C 597.236 1.697 0.972688 0
M  V30 6389 O 598.442 2.28214 1.47073 0
M  V30 6390 C 596.898 3.50705 -0.808342 0
M  V30 6391 C 596.506 3.85735 -2.27844 0
M  V30 6392 C 598.25 4.21719 -0.485136 0
M  V30 6393 C 596.157 5.33668 -2.54858 0
M  V30 6394 H 595.087 0.733182 -0.175955 0
M  V30 6395 H 597.738 1.49396 -1.0655 0
M  V30 6396 H 596.12 3.95706 -0.152558 0
M  V30 6397 H 597.294 3.51686 -2.97748 0
M  V30 6398 H 595.609 3.27792 -2.56791 0
M  V30 6399 H 598.206 5.30559 -0.664166 0
M  V30 6400 H 598.549 4.12316 0.574592 0
M  V30 6401 H 599.082 3.82359 -1.09756 0
M  V30 6402 H 595.821 5.48109 -3.59523 0
M  V30 6403 H 595.341 5.69061 -1.8955 0
M  V30 6404 H 597.02 6.00958 -2.39706 0
M  V30 6405 N 597.152 0.631951 1.44375 0
M  V30 6406 C 598.392 0.14009 2.03919 0
M  V30 6407 C 598.756 -1.21534 1.48639 0
M  V30 6408 O 599.957 -1.79936 1.99691 0
M  V30 6409 C 598.228 0.127174 3.57174 0
M  V30 6410 S 599.787 -0.299946 4.37774 0
M  V30 6411 H 596.605 0.0614891 0.708336 0
M  V30 6412 H 599.207 0.835524 1.76746 0
M  V30 6413 H 597.911 1.11676 3.94913 0
M  V30 6414 H 597.442 -0.589482 3.88958 0
M  V30 6415 H 599.457 -1.54396 4.71568 0
M  V30 6416 N 598.631 -1.53133 0.372548 0
M  V30 6417 C 599.859 -2.05774 -0.215515 0
M  V30 6418 C 600.274 -1.24555 -1.41886 0
M  V30 6419 O 599.631 -0.287951 -1.80214 0
M  V30 6420 C 599.682 -3.5645 -0.602161 0
M  V30 6421 O 599.403 -4.34591 0.553359 0
M  V30 6422 C 600.904 -4.25374 -1.24787 0
M  V30 6423 H 598.124 -0.670009 -0.0364529 0
M  V30 6424 H 600.668 -1.97434 0.532934 0
M  V30 6425 H 598.823 -3.64918 -1.30052 0
M  V30 6426 H 599.237 -5.23954 0.239336 0
M  V30 6427 H 600.711 -5.32097 -1.46891 0
M  V30 6428 H 601.188 -3.79531 -2.21026 0
M  V30 6429 H 601.794 -4.21177 -0.590752 0
M  V30 6430 N 600.109 -0.101901 -1.5727 0
M  V30 6431 C 601.356 0.560197 -1.94597 0
M  V30 6432 C 601.684 1.67767 -0.984101 0
M  V30 6433 O 600.939 1.95699 -0.00489193 0
M  V30 6434 C 601.238 1.14898 -3.38427 0
M  V30 6435 C 600.904 0.154613 -4.50635 0
M  V30 6436 C 599.566 -0.118861 -4.81053 0
M  V30 6437 C 601.918 -0.523979 -5.18559 0
M  V30 6438 C 599.246 -1.0775 -5.76721 0
M  V30 6439 C 601.598 -1.47114 -6.15256 0
M  V30 6440 C 600.262 -1.75278 -6.44076 0
M  V30 6441 H 599.532 0.204991 -0.712081 0
M  V30 6442 H 602.179 -0.17918 -1.9066 0
M  V30 6443 H 600.484 1.96476 -3.38976 0
M  V30 6444 H 602.181 1.66909 -3.64613 0
M  V30 6445 H 598.771 0.377948 -4.2693 0
M  V30 6446 H 602.955 -0.325851 -4.95229 0
M  V30 6447 H 598.211 -1.30263 -5.97362 0
M  V30 6448 H 602.385 -2.00274 -6.66981 0
M  V30 6449 H 600.012 -2.49717 -7.18015 0
M  V30 6450 N 601.587 1.56661 0.17182 0
M  V30 6451 C 602.864 1.72838 0.915778 0
M  V30 6452 C 603.244 0.66316 2.00413 0
M  V30 6453 O 602.592 -0.322123 2.26218 0
M  V30 6454 C 602.802 3.16019 1.48097 0
M  V30 6455 C 604.15 3.76962 1.95408 0
M  V30 6456 O 605.174 3.19294 1.57892 0
M  V30 6457 O 604.033 4.78219 2.64516 0
M  V30 6458 H 601.127 0.705797 0.431021 0
M  V30 6459 H 603.673 1.68947 0.159689 0
M  V30 6460 H 602.445 3.85031 0.697618 0
M  V30 6461 H 602.068 3.24234 2.30126 0
M  V30 6462 N 603.065 -0.440357 1.51323 0
M  V30 6463 C 604.013 -1.55492 1.72988 0
M  V30 6464 C 605.007 -1.58564 0.596138 0
M  V30 6465 O 606.213 -1.62345 0.777443 0
M  V30 6466 H 602.588 -0.516532 0.546533 0
M  V30 6467 H 604.559 -1.34392 2.66423 0
M  V30 6468 C 603.308 -2.93176 1.86931 0
M  V30 6469 H 602.631 -2.91543 2.73574 0
M  V30 6470 H 604.071 -3.70537 2.06103 0
M  V30 6471 C 602.53 -3.30988 0.628365 0
M  V30 6472 O 603.06 -4.01106 -0.218367 0
M  V30 6473 N 601.266 -2.86719 0.473339 0
M  V30 6474 H 600.813 -2.2983 1.16345 0
M  V30 6475 H 600.771 -3.12381 -0.355727 0
M  V30 6476 N 604.543 -1.41418 -0.695603 0
M  V30 6477 C 605.768 -1.44329 -1.48942 0
M  V30 6478 C 606.193 -0.0501579 -1.88033 0
M  V30 6479 O 605.551 0.946598 -1.54626 0
M  V30 6480 C 605.599 -2.3578 -2.72837 0
M  V30 6481 O 604.703 -1.81482 -3.70322 0
M  V30 6482 H 604.044 -0.489838 -0.44828 0
M  V30 6483 H 606.574 -1.85878 -0.855014 0
M  V30 6484 H 606.584 -2.51654 -3.21145 0
M  V30 6485 H 605.259 -3.37005 -2.43722 0
M  V30 6486 H 603.836 -1.75058 -3.29255 0
M  V30 6487 N 606.021 0.929856 -1.27246 0
M  V30 6488 C 607.249 1.71144 -1.16265 0
M  V30 6489 C 607.664 1.867 0.280786 0
M  V30 6490 O 607.021 1.38249 1.19136 0
M  V30 6491 C 607.072 3.11222 -1.83911 0
M  V30 6492 O 606.793 2.96398 -3.22614 0
M  V30 6493 C 608.294 4.05541 -1.79028 0
M  V30 6494 H 605.514 0.535499 -0.404328 0
M  V30 6495 H 608.058 1.16492 -1.68077 0
M  V30 6496 H 606.213 3.6274 -1.36009 0
M  V30 6497 H 606.627 3.8494 -3.56261 0
M  V30 6498 H 608.101 5.01351 -2.30978 0
M  V30 6499 H 608.578 4.32589 -0.759168 0
M  V30 6500 H 609.184 3.59947 -2.26535 0
M  V30 6501 N 607.499 1.09233 1.13605 0
M  V30 6502 C 608.447 0.724572 2.21027 0
M  V30 6503 C 609.441 -0.273595 1.67176 0
M  V30 6504 O 610.647 -0.135266 1.79491 0
M  V30 6505 H 607.022 0.216319 0.720215 0
M  V30 6506 H 608.993 1.63975 2.49309 0
M  V30 6507 C 607.742 0.159126 3.47336 0
M  V30 6508 H 607.065 0.918387 3.89109 0
M  V30 6509 H 608.505 -0.0602851 4.23957 0
M  V30 6510 C 606.964 -1.10514 3.18258 0
M  V30 6511 O 607.494 -2.18869 3.36837 0
M  V30 6512 N 605.7 -1.01886 2.72154 0
M  V30 6513 H 605.247 -0.137027 2.57235 0
M  V30 6514 H 605.205 -1.8655 2.53074 0
M  V30 6515 N 608.977 -1.30795 0.87923 0
M  V30 6516 C 609.925 -2.30231 0.331112 0
M  V30 6517 C 610.919 -1.59918 -0.558794 0
M  V30 6518 O 612.125 -1.74441 -0.443866 0
M  V30 6519 H 608.5 -0.746785 0.088409 0
M  V30 6520 H 610.471 -2.73925 1.18353 0
M  V30 6521 C 609.22 -3.44848 -0.444401 0
M  V30 6522 H 608.543 -3.99131 0.231106 0
M  V30 6523 H 609.983 -4.16516 -0.793109 0
M  V30 6524 C 608.442 -2.94329 -1.63926 0
M  V30 6525 O 608.972 -2.93875 -2.73862 0
M  V30 6526 N 607.178 -2.50413 -1.4745 0
M  V30 6527 H 606.725 -2.50982 -0.58015 0
M  V30 6528 H 606.683 -2.16969 -2.27534 0
M  V30 6529 N 610.455 -0.639598 -1.44038 0
M  V30 6530 C 611.388 0.109736 -2.27936 0
M  V30 6531 C 612.366 0.843095 -1.39035 0
M  V30 6532 O 613.55 0.845456 -1.68476 0
M  V30 6533 C 610.677 1.16173 -3.18153 0
M  V30 6534 C 609.723 0.527954 -4.2322 0
M  V30 6535 S 610.556 -0.688318 -5.31058 0
M  V30 6536 C 611.712 0.363481 -6.24844 0
M  V30 6537 H 611.945 -0.601986 -2.91142 0
M  V30 6538 H 609.478 -0.42802 -1.48349 0
M  V30 6539 H 611.436 1.76372 -3.7068 0
M  V30 6540 H 610.097 1.84569 -2.54151 0
M  V30 6541 H 609.29 1.32054 -4.86393 0
M  V30 6542 H 608.892 0.000396444 -3.74 0
M  V30 6543 H 611.184 1.23362 -6.66174 0
M  V30 6544 H 612.127 -0.23288 -7.07717 0
M  V30 6545 H 612.535 0.693179 -5.60228 0
M  V30 6546 N 611.933 1.52934 -0.380664 0
M  V30 6547 C 613.158 2.06363 0.207157 0
M  V30 6548 C 613.583 1.25122 1.4045 0
M  V30 6549 O 612.941 0.274062 1.79217 0
M  V30 6550 C 612.989 3.56162 0.563996 0
M  V30 6551 O 612.093 3.77552 1.65917 0
M  V30 6552 H 611.434 0.663468 0.0265859 0
M  V30 6553 H 613.964 1.9719 -0.545635 0
M  V30 6554 H 613.974 3.99453 0.830752 0
M  V30 6555 H 612.649 4.14732 -0.311427 0
M  V30 6556 H 611.226 3.46154 1.3868 0
M  V30 6557 N 613.412 0.11024 1.57214 0
M  V30 6558 C 614.36 -0.860586 2.16094 0
M  V30 6559 C 615.354 -1.28156 1.1078 0
M  V30 6560 O 616.56 -1.25433 1.29099 0
M  V30 6561 H 612.935 -0.295606 0.691463 0
M  V30 6562 H 614.906 -0.33942 2.96463 0
M  V30 6563 C 613.655 -2.10421 2.768 0
M  V30 6564 H 612.978 -1.7892 3.5753 0
M  V30 6565 H 614.418 -2.76375 3.21547 0
M  V30 6566 C 612.877 -2.88823 1.73444 0
M  V30 6567 O 613.407 -3.839 1.18251 0
M  V30 6568 N 611.613 -2.52649 1.43586 0
M  V30 6569 H 611.16 -1.754 1.8866 0
M  V30 6570 H 611.118 -3.05403 0.746735 0
M  V30 6571 N 614.89 -1.56749 -0.16351 0
M  V30 6572 C 616.136 -1.82704 -0.880168 0
M  V30 6573 C 616.469 -0.689311 -1.81555 0
M  V30 6574 O 615.744 0.308224 -1.92042 0
M  V30 6575 C 616.027 -3.19084 -1.66905 0
M  V30 6576 C 615.88 -4.43397 -0.756269 0
M  V30 6577 C 617.199 -3.52493 -2.63509 0
M  V30 6578 H 614.318 -0.664608 -0.318535 0
M  V30 6579 H 616.96 -1.89438 -0.146036 0
M  V30 6580 H 615.11 -3.13475 -2.2949 0
M  V30 6581 H 616.782 -4.61079 -0.14269 0
M  V30 6582 H 615.025 -4.33752 -0.0647944 0
M  V30 6583 H 615.696 -5.3539 -1.34393 0
M  V30 6584 H 618.172 -3.58606 -2.11047 0
M  V30 6585 H 617.048 -4.48979 -3.15767 0
M  V30 6586 H 617.309 -2.77597 -3.44082 0
M  V30 6587 N 616.368 0.432326 -1.51554 0
M  V30 6588 C 617.316 1.54572 -1.73811 0
M  V30 6589 C 618.31 1.58246 -0.604539 0
M  V30 6590 O 619.516 1.6193 -0.786041 0
M  V30 6591 H 615.891 0.513626 -0.549265 0
M  V30 6592 H 617.862 1.32977 -2.67132 0
M  V30 6593 C 616.611 2.92181 -1.88483 0
M  V30 6594 H 615.934 2.90088 -2.75116 0
M  V30 6595 H 617.374 3.69439 -2.08065 0
M  V30 6596 C 615.833 3.3065 -0.645909 0
M  V30 6597 O 616.363 4.01216 0.197093 0
M  V30 6598 N 614.569 2.86464 -0.488538 0
M  V30 6599 H 614.116 2.29209 -1.17562 0
M  V30 6600 H 614.074 3.12565 0.339156 0
M  V30 6601 N 617.846 1.41785 0.688094 0
M  V30 6602 C 618.794 1.44436 1.82321 0
M  V30 6603 C 619.788 0.321544 1.6632 0
M  V30 6604 O 620.994 0.493931 1.73091 0
M  V30 6605 H 617.369 0.452084 0.600936 0
M  V30 6606 H 619.34 2.40087 1.77202 0
M  V30 6607 C 618.089 1.35071 3.20392 0
M  V30 6608 H 617.412 2.2076 3.33324 0
M  V30 6609 H 618.852 1.40988 3.99873 0
M  V30 6610 C 617.311 0.0639127 3.36839 0
M  V30 6611 O 617.841 -0.888495 3.91751 0
M  V30 6612 N 616.047 -0.0146114 2.90596 0
M  V30 6613 H 615.594 0.761191 2.46097 0
M  V30 6614 H 615.552 -0.874988 3.01979 0
M  V30 6615 N 619.324 -0.923095 1.27737 0
M  V30 6616 C 620.257 -2.02515 1.05181 0
M  V30 6617 C 621.235 -1.62574 -0.0292204 0
M  V30 6618 O 622.419 -1.88137 0.116848 0
M  V30 6619 C 619.546 -3.33407 0.596468 0
M  V30 6620 C 618.592 -3.92328 1.67276 0
M  V30 6621 S 619.425 -4.24342 3.26641 0
M  V30 6622 C 620.581 -5.58308 2.82919 0
M  V30 6623 H 620.814 -2.21336 1.98488 0
M  V30 6624 H 618.347 -1.06679 1.1162 0
M  V30 6625 H 620.305 -4.09086 0.34044 0
M  V30 6626 H 618.966 -3.125 -0.316614 0
M  V30 6627 H 618.159 -4.86797 1.30556 0
M  V30 6628 H 617.761 -3.2325 1.8811 0
M  V30 6629 H 620.053 -6.37801 2.28509 0
M  V30 6630 H 620.996 -5.99931 3.7615 0
M  V30 6631 H 621.404 -5.19049 2.21919 0
M  V30 6632 N 620.802 -1.09834 -1.13024 0
M  V30 6633 C 621.75 -0.736283 -2.20639 0
M  V30 6634 C 622.744 0.264725 -1.67319 0
M  V30 6635 O 623.95 0.125745 -1.7956 0
M  V30 6636 H 620.325 -0.220136 -0.719058 0
M  V30 6637 H 622.296 -1.65295 -2.48436 0
M  V30 6638 C 621.045 -0.177544 -3.47246 0
M  V30 6639 H 620.368 -0.939009 -3.88616 0
M  V30 6640 H 621.808 0.0378007 -4.23983 0
M  V30 6641 C 620.267 1.08824 -3.1884 0
M  V30 6642 O 620.797 2.1708 -3.37993 0
M  V30 6643 N 619.003 1.00442 -2.7269 0
M  V30 6644 H 618.55 0.123383 -2.57304 0
M  V30 6645 H 618.508 1.85206 -2.5406 0
M  V30 6646 N 622.28 1.30327 -0.886154 0
M  V30 6647 C 623.228 2.30052 -0.343317 0
M  V30 6648 C 624.222 1.60212 0.550305 0
M  V30 6649 O 625.428 1.74674 0.434609 0
M  V30 6650 H 621.803 0.746306 -0.0923681 0
M  V30 6651 H 623.774 2.73294 -1.19804 0
M  V30 6652 C 622.523 3.45079 0.426107 0
M  V30 6653 H 621.846 3.99003 -0.25227 0
M  V30 6654 H 623.286 4.16931 0.771009 0
M  V30 6655 C 621.745 2.95195 1.62363 0
M  V30 6656 O 622.275 2.95323 2.723 0
M  V30 6657 N 620.481 2.51192 1.4612 0
M  V30 6658 H 620.028 2.51286 0.566832 0
M  V30 6659 H 619.986 2.18173 2.2638 0
M  V30 6660 N 623.758 0.647228 1.43697 0
M  V30 6661 C 625.004 0.158422 2.0218 0
M  V30 6662 C 625.337 -1.22233 1.50907 0
M  V30 6663 O 624.612 -1.81478 0.699702 0
M  V30 6664 C 624.895 0.1627 3.59732 0
M  V30 6665 C 624.748 1.57694 4.21251 0
M  V30 6666 C 626.067 -0.504138 4.37203 0
M  V30 6667 H 623.186 0.059042 0.734631 0
M  V30 6668 H 625.828 0.826772 1.71069 0
M  V30 6669 H 623.978 -0.406414 3.86368 0
M  V30 6670 H 625.65 2.19618 4.05667 0
M  V30 6671 H 623.893 2.12603 3.7813 0
M  V30 6672 H 624.564 1.53183 5.3032 0
M  V30 6673 H 627.04 -0.0199841 4.16095 0
M  V30 6674 H 625.916 -0.470394 5.46881 0
M  V30 6675 H 626.177 -1.57726 4.13007 0
M  V30 6676 N 625.236 -1.5273 0.388769 0
M  V30 6677 C 626.184 -2.27975 -0.461527 0
M  V30 6678 C 627.178 -1.31854 -1.06352 0
M  V30 6679 O 628.384 -1.49394 -1.00406 0
M  V30 6680 H 624.759 -0.733088 -0.16759 0
M  V30 6681 H 626.73 -2.97765 0.194579 0
M  V30 6682 C 625.479 -3.09881 -1.577 0
M  V30 6683 H 624.802 -3.83701 -1.12309 0
M  V30 6684 H 626.242 -3.6567 -2.14619 0
M  V30 6685 C 624.701 -2.22159 -2.53272 0
M  V30 6686 O 625.231 -1.84802 -3.56667 0
M  V30 6687 N 623.437 -1.8633 -2.23001 0
M  V30 6688 H 622.984 -2.16909 -1.38954 0
M  V30 6689 H 622.942 -1.27927 -2.87197 0
M  V30 6690 N 626.714 -0.118576 -1.57153 0
M  V30 6691 C 627.662 0.849114 -2.16547 0
M  V30 6692 C 628.656 1.27567 -1.11458 0
M  V30 6693 O 629.862 1.24746 -1.29763 0
M  V30 6694 H 626.237 0.291935 -0.693021 0
M  V30 6695 H 628.208 0.323693 -2.96639 0
M  V30 6696 C 626.957 2.08951 -2.77912 0
M  V30 6697 H 626.28 1.77021 -3.58474 0
M  V30 6698 H 627.72 2.74666 -3.23008 0
M  V30 6699 C 626.179 2.87899 -1.74974 0
M  V30 6700 O 626.709 3.83268 -1.20285 0
M  V30 6701 N 624.915 2.51884 -1.44924 0
M  V30 6702 H 624.462 1.74397 -1.89587 0
M  V30 6703 H 624.42 3.05003 -0.762921 0
M  V30 6704 N 628.193 1.56834 0.155195 0
M  V30 6705 C 629.126 1.9278 1.22111 0
M  V30 6706 C 630.104 0.792588 1.41975 0
M  V30 6707 O 631.288 1.04743 1.5672 0
M  V30 6708 C 628.415 2.19273 2.58142 0
M  V30 6709 C 627.461 3.41932 2.54921 0
M  V30 6710 S 628.294 4.95769 2.02418 0
M  V30 6711 C 629.45 5.25375 3.40194 0
M  V30 6712 H 629.683 2.82889 0.914393 0
M  V30 6713 H 627.216 1.50133 0.360461 0
M  V30 6714 H 629.174 2.35217 3.36427 0
M  V30 6715 H 627.835 1.29843 2.86007 0
M  V30 6716 H 627.028 3.57721 3.55038 0
M  V30 6717 H 626.63 3.25188 1.8474 0
M  V30 6718 H 628.922 5.1834 4.36268 0
M  V30 6719 H 629.865 6.26889 3.29266 0
M  V30 6720 H 630.273 4.52906 3.36951 0
M  V30 6721 N 629.671 -0.424282 1.51781 0
M  V30 6722 C 630.619 -1.53649 1.74628 0
M  V30 6723 C 631.613 -1.57923 0.612922 0
M  V30 6724 O 632.819 -1.61511 0.794618 0
M  V30 6725 H 629.194 -0.510706 0.551981 0
M  V30 6726 H 631.165 -1.31558 2.67834 0
M  V30 6727 C 629.914 -2.91177 1.9003 0
M  V30 6728 H 629.237 -2.88625 2.76651 0
M  V30 6729 H 630.677 -3.6833 2.10021 0
M  V30 6730 C 629.136 -3.30303 0.663435 0
M  V30 6731 O 629.666 -4.01315 -0.175812 0
M  V30 6732 N 627.872 -2.86201 0.503723 0
M  V30 6733 H 627.419 -2.28583 1.18776 0
M  V30 6734 H 627.377 -3.12741 -0.322575 0
M  V30 6735 N 631.149 -1.42148 -0.680565 0
M  V30 6736 C 632.097 -1.45401 -1.81552 0
M  V30 6737 C 633.091 -0.33036 -1.66147 0
M  V30 6738 O 634.297 -0.503103 -1.72826 0
M  V30 6739 H 630.672 -0.455265 -0.59853 0
M  V30 6740 H 632.643 -2.41024 -1.75926 0
M  V30 6741 C 631.392 -1.36769 -3.19671 0
M  V30 6742 H 630.715 -2.22525 -3.32149 0
M  V30 6743 H 632.155 -1.43106 -3.9912 0
M  V30 6744 C 630.614 -0.0817752 -3.36801 0
M  V30 6745 O 631.144 0.867707 -3.92216 0
M  V30 6746 N 629.35 -0.000799811 -2.906 0
M  V30 6747 H 628.897 -0.774231 -2.4569 0
M  V30 6748 H 628.855 0.858961 -3.02439 0
M  V30 6749 N 632.627 0.916307 -1.28225 0
M  V30 6750 C 633.876 1.65975 -1.14608 0
M  V30 6751 C 634.189 1.93204 0.305191 0
M  V30 6752 O 635.395 2.65611 0.562432 0
M  V30 6753 C 633.851 2.98989 -2.00333 0
M  V30 6754 C 633.459 2.79417 -3.50186 0
M  V30 6755 C 635.203 3.76856 -1.95397 0
M  V30 6756 C 633.11 4.08056 -4.28071 0
M  V30 6757 H 632.04 0.622587 -0.425324 0
M  V30 6758 H 634.691 1.01705 -1.52736 0
M  V30 6759 H 633.073 3.6438 -1.5506 0
M  V30 6760 H 634.247 2.22723 -4.034 0
M  V30 6761 H 632.562 2.14966 -3.56621 0
M  V30 6762 H 635.159 4.72203 -2.50856 0
M  V30 6763 H 635.502 4.05776 -0.930137 0
M  V30 6764 H 636.035 3.1828 -2.38626 0
M  V30 6765 H 632.774 3.8431 -5.31024 0
M  V30 6766 H 632.294 4.64371 -3.79631 0
M  V30 6767 H 633.973 4.76333 -4.37854 0
M  V30 6768 N 634.105 1.10431 1.1244 0
M  V30 6769 C 635.053 0.747974 2.20246 0
M  V30 6770 C 636.047 -0.255848 1.67457 0
M  V30 6771 O 637.253 -0.116221 1.79624 0
M  V30 6772 H 633.628 0.223946 0.71788 0
M  V30 6773 H 635.599 1.6661 2.47556 0
M  V30 6774 C 634.348 0.195957 3.47147 0
M  V30 6775 H 633.671 0.959606 3.88113 0
M  V30 6776 H 635.111 -0.0153154 4.23997 0
M  V30 6777 C 633.57 -1.07132 3.19413 0
M  V30 6778 O 634.1 -2.15284 3.3914 0
M  V30 6779 N 632.306 -0.98994 2.73219 0
M  V30 6780 H 631.853 -0.109736 2.57366 0
M  V30 6781 H 631.811 -1.83856 2.55038 0
M  V30 6782 N 635.583 -1.29855 0.893053 0
M  V30 6783 C 636.808 -2.00512 0.530066 0
M  V30 6784 C 637.233 -1.66446 -0.876199 0
M  V30 6785 O 636.591 -0.885446 -1.58207 0
M  V30 6786 C 636.639 -3.53308 0.721505 0
M  V30 6787 O 635.743 -4.11764 -0.228994 0
M  V30 6788 H 635.084 -0.630617 0.207891 0
M  V30 6789 H 637.614 -1.6551 1.20282 0
M  V30 6790 H 637.624 -4.03206 0.623599 0
M  V30 6791 H 636.299 -3.77439 1.74678 0
M  V30 6792 H 634.876 -3.72805 -0.0841034 0
M  V30 6793 N 637.061 -0.65484 -1.43351 0
M  V30 6794 C 638.308 -0.168892 -2.01794 0
M  V30 6795 C 638.636 1.2177 -1.51665 0
M  V30 6796 O 637.891 1.82717 -0.70092 0
M  V30 6797 C 638.19 -0.130424 -3.57162 0
M  V30 6798 C 637.856 -1.45898 -4.26643 0
M  V30 6799 C 636.518 -1.82279 -4.4534 0
M  V30 6800 C 638.87 -2.33485 -4.65976 0
M  V30 6801 C 636.198 -3.0591 -5.00635 0
M  V30 6802 C 638.55 -3.5641 -5.22642 0
M  V30 6803 C 637.214 -3.92985 -5.39555 0
M  V30 6804 H 636.484 -0.061802 -0.738418 0
M  V30 6805 H 639.131 -0.845869 -1.71806 0
M  V30 6806 H 637.436 0.630008 -3.86702 0
M  V30 6807 H 639.133 0.262465 -4.0014 0
M  V30 6808 H 635.723 -1.16591 -4.12437 0
M  V30 6809 H 639.907 -2.06668 -4.51223 0
M  V30 6810 H 635.163 -3.34295 -5.11915 0
M  V30 6811 H 639.337 -4.24495 -5.52066 0
M  V30 6812 H 636.964 -4.88862 -5.82167 0
M  V30 6813 N 638.539 1.52521 -0.396863 0
M  V30 6814 C 639.487 2.28217 0.44943 0
M  V30 6815 C 640.481 1.32416 1.05652 0
M  V30 6816 O 641.687 1.49925 0.996124 0
M  V30 6817 H 638.062 0.733966 0.1637 0
M  V30 6818 H 640.033 2.97658 -0.210367 0
M  V30 6819 C 638.782 3.10713 1.56054 0
M  V30 6820 H 638.105 3.84291 1.10273 0
M  V30 6821 H 639.545 3.66803 2.12677 0
M  V30 6822 C 638.004 2.23499 2.52091 0
M  V30 6823 O 638.534 1.8669 3.55682 0
M  V30 6824 N 636.74 1.8751 2.2201 0
M  V30 6825 H 636.287 2.17643 1.37802 0
M  V30 6826 H 636.245 1.29448 2.86514 0
M  V30 6827 N 640.017 0.126909 1.57088 0
M  V30 6828 C 640.965 -0.837618 2.16995 0
M  V30 6829 C 641.959 -1.26974 1.12133 0
M  V30 6830 O 643.165 -1.24056 1.30423 0
M  V30 6831 H 639.54 -0.288256 0.694559 0
M  V30 6832 H 641.511 -0.307957 2.96807 0
M  V30 6833 C 640.26 -2.07474 2.79016 0
M  V30 6834 H 639.583 -1.75117 3.59408 0
M  V30 6835 H 641.023 -2.72949 3.24461 0
M  V30 6836 C 639.482 -2.86967 1.76498 0
M  V30 6837 O 640.012 -3.82625 1.22316 0
M  V30 6838 N 638.218 -2.51111 1.46258 0
M  V30 6839 H 637.765 -1.73389 1.90509 0
M  V30 6840 H 637.723 -3.04594 0.779085 0
M  V30 6841 N 641.495 -1.56914 -0.146875 0
M  V30 6842 C 642.772 -1.74273 -0.888165 0
M  V30 6843 C 643.152 -0.69496 -1.99333 0
M  V30 6844 O 642.5 0.286093 -2.26702 0
M  V30 6845 C 642.71 -3.18336 -1.43051 0
M  V30 6846 C 644.058 -3.80024 -1.89387 0
M  V30 6847 O 645.082 -3.21765 -1.52792 0
M  V30 6848 O 643.941 -4.82367 -2.56874 0
M  V30 6849 H 641.035 -0.712565 -0.419738 0
M  V30 6850 H 643.581 -1.6918 -0.132791 0
M  V30 6851 H 642.353 -3.86092 -0.636274 0
M  V30 6852 H 641.976 -3.27854 -2.24938 0
M  V30 6853 N 642.974 0.416227 -1.52004 0
M  V30 6854 C 643.922 1.5272 -1.7544 0
M  V30 6855 C 644.916 1.57596 -0.621289 0
M  V30 6856 O 646.122 1.61087 -0.803172 0
M  V30 6857 H 642.497 0.507772 -0.554682 0
M  V30 6858 H 644.468 1.30136 -2.68528 0
M  V30 6859 C 643.217 2.90165 -1.91571 0
M  V30 6860 H 642.54 2.87154 -2.78178 0
M  V30 6861 H 643.98 3.67211 -2.11972 0
M  V30 6862 C 642.439 3.29947 -0.680942 0
M  V30 6863 O 642.969 4.01403 0.154527 0
M  V30 6864 N 641.175 2.8593 -0.518894 0
M  V30 6865 H 640.722 2.2795 -1.19986 0
M  V30 6866 H 640.68 3.12907 0.305985 0
M  V30 6867 N 644.452 1.42507 0.673017 0
M  V30 6868 C 645.677 1.4668 1.46627 0
M  V30 6869 C 646.102 0.080066 1.8793 0
M  V30 6870 O 645.46 -0.921879 1.56112 0
M  V30 6871 C 645.508 2.40091 2.69051 0
M  V30 6872 O 644.612 1.8735 3.67387 0
M  V30 6873 H 643.953 0.496908 0.44043 0
M  V30 6874 H 646.483 1.87215 0.825334 0
M  V30 6875 H 646.493 2.56731 3.17101 0
M  V30 6876 H 645.168 3.4084 2.3833 0
M  V30 6877 H 643.745 1.80274 3.26429 0
M  V30 6878 N 645.93 -0.909495 1.28709 0
M  V30 6879 C 647.17 -1.67344 1.17368 0
M  V30 6880 C 647.534 -1.90058 -0.272419 0
M  V30 6881 O 648.735 -2.63944 -0.508617 0
M  V30 6882 C 647.006 -2.99219 1.95455 0
M  V30 6883 S 648.565 -3.90295 2.00538 0
M  V30 6884 H 645.383 -0.57466 0.418672 0
M  V30 6885 H 647.985 -1.08144 1.62865 0
M  V30 6886 H 646.689 -2.80393 2.9968 0
M  V30 6887 H 646.22 -3.63464 1.50524 0
M  V30 6888 H 648.235 -4.83511 1.11496 0
M  V30 6889 N 647.408 -1.11026 -1.11852 0
M  V30 6890 C 648.685 -0.768347 -1.79877 0
M  V30 6891 C 649.065 0.744261 -1.97545 0
M  V30 6892 O 648.413 1.67271 -1.55669 0
M  V30 6893 C 648.623 -1.52648 -3.13846 0
M  V30 6894 C 649.971 -1.70297 -3.88953 0
M  V30 6895 O 650.995 -1.49037 -3.23522 0
M  V30 6896 O 649.854 -2.05593 -5.06353 0
M  V30 6897 H 646.948 -0.277891 -0.778913 0
M  V30 6898 H 649.494 -1.21343 -1.18633 0
M  V30 6899 H 648.266 -2.55564 -2.96315 0
M  V30 6900 H 647.889 -1.07466 -3.82801 0
M  V30 6901 N 648.886 1.2938 -0.899927 0
M  V30 6902 C 650.134 1.95164 -0.524924 0
M  V30 6903 C 650.455 1.71292 0.931888 0
M  V30 6904 O 649.725 1.04481 1.65712 0
M  V30 6905 H 648.305 0.722133 -0.191135 0
M  V30 6906 H 650.967 1.57628 -1.14627 0
M  V30 6907 H 650.063 3.0397 -0.707711 0
M  V30 6908 N 650.364 0.662433 1.43002 0
M  V30 6909 C 651.274 -0.0239199 2.34588 0
M  V30 6910 C 652.29 -0.802255 1.54402 0
M  V30 6911 O 653.466 -0.747401 1.87018 0
M  V30 6912 C 650.531 -0.972098 3.32793 0
M  V30 6913 C 649.592 -0.189673 4.28881 0
M  V30 6914 C 648.825 -1.09269 5.22395 0
M  V30 6915 O 649.048 -2.33209 5.20547 0
M  V30 6916 O 647.982 -0.560136 5.99288 0
M  V30 6917 H 651.808 0.730171 2.94792 0
M  V30 6918 H 649.393 0.422635 1.43297 0
M  V30 6919 H 651.275 -1.51676 3.93157 0
M  V30 6920 H 649.95 -1.70626 2.75079 0
M  V30 6921 H 648.857 0.398794 3.71968 0
M  V30 6922 H 650.19 0.50511 4.89601 0
M  V30 6923 N 651.842 -1.52309 0.404946 0
M  V30 6924 C 653.072 -2.05886 -0.171569 0
M  V30 6925 C 653.48 -1.27527 -1.39762 0
M  V30 6926 O 652.823 -0.319215 -1.80905 0
M  V30 6927 C 652.885 -3.54609 -0.590983 0
M  V30 6928 C 652.549 -4.53989 0.523757 0
M  V30 6929 C 653.546 -5.01084 1.38604 0
M  V30 6930 C 651.231 -4.97465 0.695255 0
M  V30 6931 C 653.225 -5.90295 2.4048 0
M  V30 6932 C 650.912 -5.86473 1.71733 0
M  V30 6933 C 651.91 -6.32782 2.57051 0
M  V30 6934 O 651.598 -7.20029 3.57509 0
M  V30 6935 H 651.33 -0.675508 -0.0257763 0
M  V30 6936 H 653.884 -1.97238 0.573278 0
M  V30 6937 H 652.114 -3.60929 -1.38805 0
M  V30 6938 H 653.803 -3.90853 -1.09494 0
M  V30 6939 H 654.569 -4.68214 1.26492 0
M  V30 6940 H 650.448 -4.60982 0.0408447 0
M  V30 6941 H 653.992 -6.26363 3.07108 0
M  V30 6942 H 649.889 -6.18756 1.83877 0
M  V30 6943 H 650.657 -7.3813 3.53703 0
M  V30 6944 N 653.32 -0.135238 -1.57019 0
M  V30 6945 C 654.597 0.563227 -1.87316 0
M  V30 6946 C 654.977 1.83749 -1.03921 0
M  V30 6947 O 654.325 2.2817 -0.122675 0
M  V30 6948 C 654.535 0.840031 -3.3874 0
M  V30 6949 C 655.883 1.18598 -4.077 0
M  V30 6950 O 656.907 0.92977 -3.43851 0
M  V30 6951 O 655.766 1.66758 -5.20436 0
M  V30 6952 H 652.86 0.285971 -0.775983 0
M  V30 6953 H 655.406 -0.170965 -1.68837 0
M  V30 6954 H 654.178 -0.0622785 -3.9125 0
M  V30 6955 H 653.801 1.62882 -3.62706 0
M  V30 6956 N 654.798 1.5699 0.138552 0
M  V30 6957 C 656.023 1.88344 0.86841 0
M  V30 6958 C 656.448 0.725159 1.7356 0
M  V30 6959 O 655.806 -0.324992 1.78363 0
M  V30 6960 C 655.854 3.18334 1.69398 0
M  V30 6961 O 654.958 3.02863 2.79907 0
M  V30 6962 H 654.299 0.618577 0.241367 0
M  V30 6963 H 656.829 2.04207 0.126826 0
M  V30 6964 H 656.839 3.50567 2.08726 0
M  V30 6965 H 655.514 4.02238 1.05725 0
M  V30 6966 H 654.091 2.82056 2.43924 0
M  V30 6967 N 656.276 -0.40816 1.52223 0
M  V30 6968 C 657.224 -1.51788 1.76248 0
M  V30 6969 C 658.218 -1.57264 0.629638 0
M  V30 6970 O 659.424 -1.60659 0.811704 0
M  V30 6971 H 655.799 -0.504823 0.557367 0
M  V30 6972 H 657.77 -1.2871 2.69214 0
M  V30 6973 C 656.519 -2.89145 1.93107 0
M  V30 6974 H 655.842 -2.85674 2.79697 0
M  V30 6975 H 657.282 -3.66082 2.13916 0
M  V30 6976 C 655.741 -3.29581 0.698431 0
M  V30 6977 O 656.271 -4.01479 -0.133238 0
M  V30 6978 N 654.477 -2.85651 0.53405 0
M  V30 6979 H 654.024 -2.2731 1.21194 0
M  V30 6980 H 653.982 -3.13065 -0.289387 0
M  V30 6981 N 657.755 -1.42862 -0.66545 0
M  V30 6982 C 658.702 -1.4707 -1.77874 0
M  V30 6983 C 659.672 -0.321654 -1.62956 0
M  V30 6984 O 660.857 -0.52707 -1.83376 0
M  V30 6985 C 657.997 -1.38788 -3.15962 0
M  V30 6986 C 657.11 -2.63801 -3.42101 0
M  V30 6987 C 656.245 -2.47594 -4.69969 0
M  V30 6988 C 655.284 -3.67936 -4.89172 0
M  V30 6989 N 654.421 -3.50614 -6.08288 0
M  V30 6990 H 659.261 -2.42204 -1.73613 0
M  V30 6991 H 656.798 -1.20239 -0.847401 0
M  V30 6992 H 658.756 -1.31982 -3.95773 0
M  V30 6993 H 657.386 -0.472431 -3.19324 0
M  V30 6994 H 656.438 -2.80935 -2.56475 0
M  V30 6995 H 657.75 -3.53228 -3.52181 0
M  V30 6996 H 656.904 -2.38427 -5.57886 0
M  V30 6997 H 655.643 -1.55672 -4.62188 0
M  V30 6998 H 654.648 -3.77525 -3.99694 0
M  V30 6999 H 655.873 -4.60851 -4.98792 0
M  V30 7000 H 653.819 -2.61417 -6.01662 0
M  V30 7001 H 653.736 -4.33634 -6.19272 0
M  V30 7002 H 655.004 -3.45276 -6.98859 0
M  V30 7003 N 659.233 0.902656 -1.29189 0
M  V30 7004 C 660.481 1.6496 -1.16758 0
M  V30 7005 C 660.802 1.92952 0.28188 0
M  V30 7006 O 660.072 1.55351 1.19344 0
M  V30 7007 H 658.652 0.611447 -0.429118 0
M  V30 7008 H 661.314 1.0825 -1.62074 0
M  V30 7009 H 660.41 2.60728 -1.71544 0
M  V30 7010 N 660.711 1.11618 1.11262 0
M  V30 7011 C 661.658 0.7762 2.17356 0
M  V30 7012 C 662.628 -0.253152 1.6416 0
M  V30 7013 O 663.813 -0.129655 1.90359 0
M  V30 7014 C 660.953 0.227581 3.44349 0
M  V30 7015 C 660.066 1.31372 4.1154 0
M  V30 7016 C 659.201 0.72544 5.26223 0
M  V30 7017 C 658.24 1.7913 5.85302 0
M  V30 7018 N 657.377 1.22237 6.91377 0
M  V30 7019 H 662.217 1.68508 2.45783 0
M  V30 7020 H 659.754 0.841475 1.20655 0
M  V30 7021 H 661.712 -0.108483 4.17059 0
M  V30 7022 H 660.342 -0.644486 3.16301 0
M  V30 7023 H 659.394 1.7667 3.36885 0
M  V30 7024 H 660.706 2.12005 4.51504 0
M  V30 7025 H 659.86 0.339541 6.05749 0
M  V30 7026 H 658.599 -0.112188 4.87571 0
M  V30 7027 H 657.604 2.18648 5.04453 0
M  V30 7028 H 658.829 2.63199 6.26022 0
M  V30 7029 H 656.775 0.406423 6.5474 0
M  V30 7030 H 656.692 1.9654 7.30006 0
M  V30 7031 H 657.96 0.863426 7.74703 0
M  V30 7032 N 662.189 -1.289 0.906776 0
M  V30 7033 C 663.137 -2.29477 0.379873 0
M  V30 7034 C 664.131 -1.61068 -0.524747 0
M  V30 7035 O 665.337 -1.75344 -0.406765 0
M  V30 7036 H 661.712 -0.744742 0.10423 0
M  V30 7037 H 663.683 -2.71353 1.24137 0
M  V30 7038 C 662.432 -3.45713 -0.371154 0
M  V30 7039 H 661.755 -3.98551 0.315716 0
M  V30 7040 H 663.195 -4.18105 -0.704581 0
M  V30 7041 C 661.654 -2.9774 -1.57646 0
M  V30 7042 O 662.184 -2.99618 -2.67567 0
M  V30 7043 N 660.39 -2.53485 -1.42105 0
M  V30 7044 H 659.937 -2.52156 -0.526783 0
M  V30 7045 H 659.895 -2.21747 -2.22881 0
M  V30 7046 N 663.667 -0.670007 -1.42649 0
M  V30 7047 C 664.614 0.0112928 -2.30797 0
M  V30 7048 C 665.584 0.797627 -1.45695 0
M  V30 7049 O 666.769 0.770845 -1.74535 0
M  V30 7050 C 663.909 0.95998 -3.31479 0
M  V30 7051 C 663.022 0.167975 -4.31673 0
M  V30 7052 C 662.157 1.11198 -5.19431 0
M  V30 7053 C 661.196 0.311381 -6.11307 0
M  V30 7054 N 660.333 1.20784 -6.91633 0
M  V30 7055 H 665.173 -0.746231 -2.88505 0
M  V30 7056 H 662.71 -0.379739 -1.42114 0
M  V30 7057 H 664.668 1.52379 -3.88377 0
M  V30 7058 H 663.298 1.68419 -2.75382 0
M  V30 7059 H 662.35 -0.512385 -3.76933 0
M  V30 7060 H 663.662 -0.453814 -4.96731 0
M  V30 7061 H 662.816 1.74587 -5.81037 0
M  V30 7062 H 661.555 1.76766 -4.54538 0
M  V30 7063 H 660.56 -0.335758 -5.48774 0
M  V30 7064 H 661.785 -0.340135 -6.78248 0
M  V30 7065 H 659.731 1.85001 -6.29373 0
M  V30 7066 H 659.648 0.64102 -7.53277 0
M  V30 7067 H 660.916 1.82936 -7.5773 0
M  V30 7068 N 665.145 1.52092 -0.413018 0
M  V30 7069 C 666.37 2.06756 0.163338 0
M  V30 7070 C 666.795 1.28073 1.37764 0
M  V30 7071 O 666.153 0.312015 1.78595 0
M  V30 7072 C 666.201 3.57278 0.488322 0
M  V30 7073 O 665.305 3.80986 1.57871 0
M  V30 7074 H 664.646 0.663882 0.0125068 0
M  V30 7075 H 667.176 1.95988 -0.587339 0
M  V30 7076 H 667.186 4.01125 0.745836 0
M  V30 7077 H 665.861 4.13978 -0.399327 0
M  V30 7078 H 664.438 3.49017 1.31306 0
M  V30 7079 N 666.623 0.143563 1.56945 0
M  V30 7080 C 667.851 -0.515447 2.00377 0
M  V30 7081 C 668.266 -1.58643 1.02361 0
M  V30 7082 O 667.623 -1.82489 0.0201039 0
M  V30 7083 C 667.674 -1.11923 3.43737 0
M  V30 7084 O 667.395 -0.0910318 4.38005 0
M  V30 7085 C 668.896 -1.85918 4.02429 0
M  V30 7086 H 666.116 -0.134478 0.657386 0
M  V30 7087 H 668.66 0.237135 2.0312 0
M  V30 7088 H 666.815 -1.82245 3.41856 0
M  V30 7089 H 667.229 -0.532916 5.21786 0
M  V30 7090 H 668.703 -2.2346 5.04747 0
M  V30 7091 H 669.18 -2.7438 3.42947 0
M  V30 7092 H 669.786 -1.20303 4.07931 0
M  V30 7093 N 668.101 -1.57061 -0.130224 0
M  V30 7094 C 669.033 -1.96147 -1.18571 0
M  V30 7095 C 670.046 -0.859347 -1.38272 0
M  V30 7096 O 671.235 -1.13769 -1.37545 0
M  V30 7097 C 668.335 -2.23484 -2.54771 0
M  V30 7098 C 667.508 -3.54786 -2.55824 0
M  V30 7099 C 666.567 -3.70467 -3.73686 0
M  V30 7100 O 665.593 -4.42693 -3.57787 0
M  V30 7101 N 666.795 -3.08389 -4.91809 0
M  V30 7102 H 669.56 -2.87295 -0.853333 0
M  V30 7103 H 667.121 -1.58714 -0.319621 0
M  V30 7104 H 669.113 -2.312 -3.32158 0
M  V30 7105 H 667.683 -1.38518 -2.80235 0
M  V30 7106 H 666.903 -3.5836 -1.64232 0
M  V30 7107 H 668.191 -4.4111 -2.53573 0
M  V30 7108 H 667.589 -2.49656 -5.0763 0
M  V30 7109 H 666.146 -3.21642 -5.66912 0
M  V30 7110 N 669.579 0.400081 -1.52437 0
M  V30 7111 C 670.526 1.48803 -1.76426 0
M  V30 7112 C 671.496 1.5461 -0.607032 0
M  V30 7113 O 672.681 1.71041 -0.845563 0
M  V30 7114 C 669.821 2.86156 -1.92896 0
M  V30 7115 C 668.934 2.89587 -3.20567 0
M  V30 7116 C 668.069 4.18296 -3.27417 0
M  V30 7117 C 667.108 4.15736 -4.49255 0
M  V30 7118 N 666.245 5.36032 -4.53447 0
M  V30 7119 H 671.085 1.27649 -2.69276 0
M  V30 7120 H 668.622 0.619451 -1.33421 0
M  V30 7121 H 670.58 3.65901 -2.00429 0
M  V30 7122 H 669.21 3.05785 -1.03418 0
M  V30 7123 H 668.262 2.02278 -3.22161 0
M  V30 7124 H 669.574 2.83562 -4.10358 0
M  V30 7125 H 668.728 5.06439 -3.34072 0
M  V30 7126 H 667.467 4.27028 -2.35581 0
M  V30 7127 H 666.472 3.25982 -4.42737 0
M  V30 7128 H 667.697 4.08636 -5.42396 0
M  V30 7129 H 665.643 5.45415 -3.64498 0
M  V30 7130 H 665.56 5.32038 -5.37096 0
M  V30 7131 H 666.828 6.26104 -4.64343 0
M  V30 7132 N 671.057 1.43213 0.657864 0
M  V30 7133 C 672.004 1.48011 1.77092 0
M  V30 7134 C 672.974 0.330291 1.62783 0
M  V30 7135 O 674.159 0.536787 1.83094 0
M  V30 7136 C 671.299 1.40461 3.15222 0
M  V30 7137 C 670.412 2.65612 3.40697 0
M  V30 7138 C 669.547 2.50083 4.68649 0
M  V30 7139 C 668.586 3.70525 4.87214 0
M  V30 7140 N 667.723 3.53835 6.0642 0
M  V30 7141 H 672.563 2.43121 1.72326 0
M  V30 7142 H 670.1 1.20687 0.841013 0
M  V30 7143 H 672.058 1.34079 3.95068 0
M  V30 7144 H 670.688 0.489359 3.19069 0
M  V30 7145 H 669.74 2.82292 2.54982 0
M  V30 7146 H 671.052 3.5509 3.50303 0
M  V30 7147 H 670.206 2.41383 5.56614 0
M  V30 7148 H 668.945 1.58121 4.61356 0
M  V30 7149 H 667.95 3.79639 3.97686 0
M  V30 7150 H 669.175 4.63489 4.96341 0
M  V30 7151 H 667.121 2.64604 6.00267 0
M  V30 7152 H 667.038 4.36912 6.16963 0
M  V30 7153 H 668.306 3.48978 6.97019 0
M  V30 7154 N 672.536 -0.895792 1.29666 0
M  V30 7155 C 673.783 -1.64664 1.17864 0
M  V30 7156 C 674.111 -1.92631 -0.26902 0
M  V30 7157 O 673.366 -1.53787 -1.21029 0
M  V30 7158 C 673.665 -3.00075 1.94139 0
M  V30 7159 C 673.331 -2.91702 3.43833 0
M  V30 7160 C 671.993 -2.89126 3.84656 0
M  V30 7161 C 674.345 -2.80622 4.39205 0
M  V30 7162 C 671.673 -2.73293 5.1916 0
M  V30 7163 C 674.025 -2.66329 5.73805 0
M  V30 7164 C 672.689 -2.62121 6.1388 0
M  V30 7165 H 671.959 -0.602549 0.431295 0
M  V30 7166 H 674.606 -1.04234 1.60648 0
M  V30 7167 H 672.911 -3.64394 1.43958 0
M  V30 7168 H 674.608 -3.57111 1.82408 0
M  V30 7169 H 671.198 -2.94511 3.11386 0
M  V30 7170 H 675.382 -2.81686 4.08615 0
M  V30 7171 H 670.638 -2.68443 5.49316 0
M  V30 7172 H 674.812 -2.56727 6.47352 0
M  V30 7173 H 672.439 -2.49611 7.18052 0
M  V30 7174 N 674.014 -1.12206 -1.10668 0
M  V30 7175 C 674.944 -0.810086 -2.18997 0
M  V30 7176 C 675.925 0.225065 -1.68604 0
M  V30 7177 O 677.11 0.086783 -1.94006 0
M  V30 7178 C 674.24 -0.261262 -3.46316 0
M  V30 7179 C 673.194 -1.2292 -4.09969 0
M  V30 7180 C 672.52 -0.540713 -5.31959 0
M  V30 7181 C 673.82 -2.58295 -4.53962 0
M  V30 7182 H 675.514 -1.7159 -2.45352 0
M  V30 7183 H 673.06 -0.82646 -1.17922 0
M  V30 7184 H 675.013 -0.0307522 -4.21389 0
M  V30 7185 H 673.737 0.679879 -3.19445 0
M  V30 7186 H 672.396 -1.44548 -3.369 0
M  V30 7187 H 672.044 0.405492 -5.01363 0
M  V30 7188 H 671.744 -1.18637 -5.75499 0
M  V30 7189 H 673.268 -0.319184 -6.09765 0
M  V30 7190 H 674.682 -2.40709 -5.20319 0
M  V30 7191 H 673.079 -3.18916 -5.08343 0
M  V30 7192 H 674.149 -3.16918 -3.67002 0
M  V30 7193 N 675.492 1.28418 -0.913599 0
M  V30 7194 C 676.741 1.94265 -0.542572 0
M  V30 7195 C 677.054 1.72709 0.918207 0
M  V30 7196 O 678.26 2.32778 1.39738 0
M  V30 7197 C 676.716 3.47956 -0.919507 0
M  V30 7198 C 676.324 3.78291 -2.4 0
M  V30 7199 C 678.068 4.19962 -0.619057 0
M  V30 7200 C 675.975 5.2529 -2.71707 0
M  V30 7201 H 674.905 0.727213 -0.199192 0
M  V30 7202 H 677.556 1.45931 -1.11249 0
M  V30 7203 H 675.938 3.9502 -0.278372 0
M  V30 7204 H 677.112 3.42035 -3.08786 0
M  V30 7205 H 675.427 3.19456 -2.67089 0
M  V30 7206 H 678.024 5.28178 -0.832623 0
M  V30 7207 H 678.367 4.13935 0.443126 0
M  V30 7208 H 678.9 3.78674 -1.21865 0
M  V30 7209 H 675.639 5.36394 -3.76778 0
M  V30 7210 H 675.159 5.62743 -2.07559 0
M  V30 7211 H 676.838 5.93027 -2.58703 0
M  V30 7212 N 676.97 0.677563 1.42291 0
M  V30 7213 C 677.917 0.000947061 2.308 0
M  V30 7214 C 678.887 -0.789889 1.46116 0
M  V30 7215 O 680.072 -0.761578 1.74942 0
M  V30 7216 C 677.212 -0.942387 3.31984 0
M  V30 7217 C 676.325 -0.14508 4.31756 0
M  V30 7218 C 675.46 -1.08442 5.20013 0
M  V30 7219 C 674.499 -0.278958 6.11464 0
M  V30 7220 N 673.636 -1.17115 6.92263 0
M  V30 7221 H 678.476 0.761521 2.88106 0
M  V30 7222 H 676.013 0.38727 1.41911 0
M  V30 7223 H 677.971 -1.50317 3.89179 0
M  V30 7224 H 676.601 -1.66956 2.76271 0
M  V30 7225 H 675.653 0.532368 3.76656 0
M  V30 7226 H 676.965 0.48015 4.96484 0
M  V30 7227 H 676.119 -1.71504 5.81955 0
M  V30 7228 H 674.858 -1.74353 4.55469 0
M  V30 7229 H 673.863 0.364856 5.48588 0
M  V30 7230 H 675.088 0.376099 6.78058 0
M  V30 7231 H 673.034 -1.81661 6.30345 0
M  V30 7232 H 672.951 -0.601063 7.53607 0
M  V30 7233 H 674.219 -1.78915 7.58689 0
M  V30 7234 N 678.448 -1.51871 0.421078 0
M  V30 7235 C 679.678 -2.06057 -0.149723 0
M  V30 7236 C 680.086 -1.29002 -1.38402 0
M  V30 7237 O 679.429 -0.338385 -1.80556 0
M  V30 7238 C 679.491 -3.55216 -0.553339 0
M  V30 7239 C 679.155 -4.53408 0.571879 0
M  V30 7240 C 680.152 -4.99586 1.4391 0
M  V30 7241 C 677.837 -4.967 0.747979 0
M  V30 7242 C 679.831 -5.87711 2.46727 0
M  V30 7243 C 677.518 -5.84619 1.77944 0
M  V30 7244 C 678.516 -6.30021 2.63748 0
M  V30 7245 O 678.204 -7.16197 3.65126 0
M  V30 7246 H 677.936 -0.675744 -0.0186102 0
M  V30 7247 H 680.49 -1.96618 0.594166 0
M  V30 7248 H 678.72 -3.62381 -1.34969 0
M  V30 7249 H 680.409 -3.91992 -1.05342 0
M  V30 7250 H 681.175 -4.66846 1.31451 0
M  V30 7251 H 677.054 -4.60913 0.0897357 0
M  V30 7252 H 680.598 -6.2307 3.13734 0
M  V30 7253 H 676.495 -6.16771 1.90429 0
M  V30 7254 H 677.263 -7.34337 3.61512 0
M  V30 7255 N 679.926 -0.151884 -1.56866 0
M  V30 7256 C 680.876 0.797799 -2.13586 0
M  V30 7257 C 681.86 1.20613 -1.06496 0
M  V30 7258 O 683.052 1.17173 -1.32663 0
M  V30 7259 C 680.181 2.03493 -2.76488 0
M  V30 7260 C 679.267 1.64948 -3.90708 0
M  V30 7261 N 679.658 0.972513 -4.96363 0
M  V30 7262 C 677.956 1.94186 -4.01507 0
M  V30 7263 C 678.657 0.785661 -5.7637 0
M  V30 7264 N 677.633 1.32105 -5.27304 0
M  V30 7265 H 681.435 0.271403 -2.92644 0
M  V30 7266 H 678.949 0.049487 -1.62325 0
M  V30 7267 H 680.946 2.72532 -3.15487 0
M  V30 7268 H 679.606 2.56646 -1.98904 0
M  V30 7269 H 680.617 0.632724 -5.1402 0
M  V30 7270 H 677.294 2.49154 -3.35005 0
M  V30 7271 H 678.684 0.251749 -6.71428 0
M  V30 7272 N 681.404 1.57128 0.121893 0
M  V30 7273 C 682.653 1.83888 0.828748 0
M  V30 7274 C 682.966 0.737087 1.81181 0
M  V30 7275 O 684.172 0.891007 2.56463 0
M  V30 7276 C 682.628 3.26014 1.52455 0
M  V30 7277 C 682.236 4.44195 0.58263 0
M  V30 7278 C 683.98 3.62025 2.21671 0
M  V30 7279 C 681.887 5.77349 1.28149 0
M  V30 7280 H 680.817 0.685856 0.313238 0
M  V30 7281 H 683.468 1.83319 0.0814851 0
M  V30 7282 H 681.85 3.21044 2.31834 0
M  V30 7283 H 683.024 4.60457 -0.177729 0
M  V30 7284 H 681.339 4.164 -0.00241228 0
M  V30 7285 H 683.936 4.58776 2.74643 0
M  V30 7286 H 684.279 2.89315 2.99337 0
M  V30 7287 H 684.812 3.68767 1.49184 0
M  V30 7288 H 681.551 6.53221 0.546189 0
M  V30 7289 H 681.071 5.64978 2.01394 0
M  V30 7290 H 682.75 6.21006 1.81549 0
M  V30 7291 N 682.882 -0.391992 1.52647 0
M  V30 7292 C 684.112 -1.15692 1.71169 0
M  V30 7293 C 684.52 -1.84285 0.428444 0
M  V30 7294 O 683.863 -1.73393 -0.606669 0
M  V30 7295 C 683.925 -2.25033 2.80357 0
M  V30 7296 C 683.589 -1.76433 4.21569 0
M  V30 7297 C 684.586 -1.2427 5.0483 0
M  V30 7298 C 682.271 -1.82746 4.67877 0
M  V30 7299 C 684.265 -0.790657 6.32477 0
M  V30 7300 C 681.952 -1.37153 5.9551 0
M  V30 7301 C 682.95 -0.853997 6.7764 0
M  V30 7302 O 682.638 -0.404708 8.02881 0
M  V30 7303 H 682.37 -0.35297 0.576531 0
M  V30 7304 H 684.924 -0.464994 2.00067 0
M  V30 7305 H 683.154 -2.97641 2.46874 0
M  V30 7306 H 684.843 -2.86718 2.87311 0
M  V30 7307 H 685.609 -1.18752 4.70237 0
M  V30 7308 H 681.488 -2.21971 4.04042 0
M  V30 7309 H 685.032 -0.386024 6.96531 0
M  V30 7310 H 680.929 -1.42356 6.29607 0
M  V30 7311 H 681.697 -0.526459 8.16805 0
M  V30 7312 N 684.36 -1.4356 -0.65026 0
M  V30 7313 C 685.771 -1.40324 -1.2315 0
M  V30 7314 C 686.122 -0.108812 -1.95898 0
M  V30 7315 O 685.247 0.79163 -2.01401 0
M  V30 7316 C 685.842 -2.54195 -2.23987 0
M  V30 7317 C 684.401 -2.54215 -2.77582 0
M  V30 7318 C 683.548 -2.31752 -1.5227 0
M  V30 7319 H 686.499 -1.52418 -0.442095 0
M  V30 7320 H 686.52 -2.25854 -3.0622 0
M  V30 7321 H 686.032 -3.48392 -1.71011 0
M  V30 7322 H 684.133 -1.63907 -3.34612 0
M  V30 7323 H 684.246 -3.52081 -3.24925 0
M  V30 7324 H 682.61 -1.80476 -1.79723 0
M  V30 7325 H 683.393 -3.28037 -1.01225 0
M  V30 7326 N 685.838 0.888903 -1.30139 0
M  V30 7327 C 687.066 1.67358 -1.21651 0
M  V30 7328 C 687.481 1.87499 0.221246 0
M  V30 7329 O 686.838 1.41969 1.14677 0
M  V30 7330 C 686.889 3.05213 -1.93719 0
M  V30 7331 O 686.61 2.85984 -3.31881 0
M  V30 7332 C 688.111 3.9964 -1.9184 0
M  V30 7333 H 685.331 0.522365 -0.42116 0
M  V30 7334 H 687.875 1.11086 -1.71698 0
M  V30 7335 H 686.03 3.5823 -1.4748 0
M  V30 7336 H 686.444 3.73411 -3.68327 0
M  V30 7337 H 687.918 4.93749 -2.46811 0
M  V30 7338 H 688.395 4.29955 -0.896409 0
M  V30 7339 H 689.001 3.52558 -2.37872 0
M  V30 7340 N 687.317 1.12792 1.10072 0
M  V30 7341 C 688.594 0.796867 1.78632 0
M  V30 7342 C 688.974 -0.712739 1.98704 0
M  V30 7343 O 688.322 -1.64773 1.5831 0
M  V30 7344 C 688.532 1.57622 3.11378 0
M  V30 7345 C 689.88 1.76463 3.86194 0
M  V30 7346 O 690.904 1.54165 3.2111 0
M  V30 7347 O 689.763 2.13623 5.03018 0
M  V30 7348 H 686.857 0.290248 0.774394 0
M  V30 7349 H 689.403 1.23215 1.16688 0
M  V30 7350 H 688.175 2.60246 2.92212 0
M  V30 7351 H 687.798 1.13543 3.81043 0
M  V30 7352 N 688.795 -1.27931 0.920396 0
M  V30 7353 C 689.728 -2.2537 0.358285 0
M  V30 7354 C 690.706 -1.53328 -0.541242 0
M  V30 7355 O 691.89 -1.82196 -0.483399 0
M  V30 7356 C 689.017 -3.35178 -0.487193 0
M  V30 7357 C 688.063 -4.25079 0.347881 0
M  V30 7358 S 688.896 -5.05792 1.75883 0
M  V30 7359 C 690.052 -6.19089 0.920832 0
M  V30 7360 H 690.285 -2.72701 1.18413 0
M  V30 7361 H 687.818 -1.36474 0.722088 0
M  V30 7362 H 689.776 -3.98895 -0.96916 0
M  V30 7363 H 688.437 -2.865 -1.28749 0
M  V30 7364 H 687.63 -5.03113 -0.298912 0
M  V30 7365 H 687.232 -3.66119 0.763748 0
M  V30 7366 H 689.524 -6.77326 0.15349 0
M  V30 7367 H 690.467 -6.8803 1.67394 0
M  V30 7368 H 690.875 -5.62573 0.466069 0
M  V30 7369 N 690.273 -0.685099 -1.4193 0
M  V30 7370 C 691.183 -0.013404 -2.34596 0
M  V30 7371 C 692.199 0.777589 -1.55658 0
M  V30 7372 O 693.375 0.717553 -1.88184 0
M  V30 7373 C 690.44 0.919031 -3.34297 0
M  V30 7374 C 689.501 0.121417 -4.29128 0
M  V30 7375 C 688.734 1.00944 -5.24067 0
M  V30 7376 O 688.957 2.24898 -5.24192 0
M  V30 7377 O 687.891 0.464724 -6.00103 0
M  V30 7378 H 691.717 -0.776978 -2.93593 0
M  V30 7379 H 689.302 -0.445379 -1.42607 0
M  V30 7380 H 691.184 1.45402 -3.9552 0
M  V30 7381 H 689.859 1.66228 -2.77759 0
M  V30 7382 H 688.766 -0.45792 -3.71287 0
M  V30 7383 H 690.099 -0.582937 -4.88736 0
M  V30 7384 N 691.751 1.51645 -0.429126 0
M  V30 7385 C 692.681 2.30434 0.377148 0
M  V30 7386 C 693.662 1.35493 1.02838 0
M  V30 7387 O 694.847 1.6441 1.03359 0
M  V30 7388 C 691.977 3.14038 1.48315 0
M  V30 7389 C 690.931 4.1719 0.955855 0
M  V30 7390 C 690.257 4.89263 2.15698 0
M  V30 7391 C 691.557 5.223 -0.00402136 0
M  V30 7392 H 693.251 2.98085 -0.280336 0
M  V30 7393 H 690.797 1.43354 -0.136265 0
M  V30 7394 H 692.75 3.67933 2.05435 0
M  V30 7395 H 691.474 2.44193 2.16881 0
M  V30 7396 H 690.133 3.64335 0.406929 0
M  V30 7397 H 689.781 4.15929 2.82864 0
M  V30 7398 H 689.481 5.59009 1.81059 0
M  V30 7399 H 691.005 5.45978 2.73387 0
M  V30 7400 H 692.419 5.71315 0.476607 0
M  V30 7401 H 690.816 5.99525 -0.26258 0
M  V30 7402 H 691.886 4.75638 -0.943236 0
M  V30 7403 N 693.229 0.160201 1.56784 0
M  V30 7404 C 694.478 -0.487619 1.95717 0
M  V30 7405 C 694.791 -1.65136 1.0483 0
M  V30 7406 O 695.997 -2.36468 1.33398 0
M  V30 7407 C 694.453 -0.91888 3.47972 0
M  V30 7408 C 694.061 0.218655 4.47466 0
M  V30 7409 C 695.805 -1.53575 3.95746 0
M  V30 7410 C 693.712 -0.231614 5.90946 0
M  V30 7411 H 692.642 -0.185939 0.730714 0
M  V30 7412 H 695.293 0.246657 1.81835 0
M  V30 7413 H 693.675 -1.70881 3.57234 0
M  V30 7414 H 694.849 0.995825 4.49911 0
M  V30 7415 H 693.164 0.744767 4.09685 0
M  V30 7416 H 695.761 -1.88448 5.00391 0
M  V30 7417 H 696.104 -2.42959 3.38048 0
M  V30 7418 H 696.637 -0.810467 3.89456 0
M  V30 7419 H 693.376 0.62718 6.52493 0
M  V30 7420 H 692.896 -0.974379 5.91833 0
M  V30 7421 H 694.575 -0.67922 6.43425 0
M  V30 7422 N 694.707 -1.5719 -0.113559 0
M  V30 7423 C 695.932 -1.89702 -0.838336 0
M  V30 7424 C 696.357 -0.752679 -1.72384 0
M  V30 7425 O 695.715 0.296575 -1.78858 0
M  V30 7426 C 695.763 -3.20989 -1.64312 0
M  V30 7427 O 694.867 -3.07278 -2.75053 0
M  V30 7428 H 694.208 -0.622339 -0.231496 0
M  V30 7429 H 696.738 -2.04382 -0.0943228 0
M  V30 7430 H 696.748 -3.53843 -2.03123 0
M  V30 7431 H 695.423 -4.03869 -0.993119 0
M  V30 7432 H 694 -2.85901 -2.39406 0
M  V30 7433 N 696.185 0.383891 -1.52853 0
M  V30 7434 C 697.095 1.49343 -1.80925 0
M  V30 7435 C 698.111 1.59458 -0.696348 0
M  V30 7436 O 699.287 1.75698 -0.984481 0
M  V30 7437 C 696.352 2.84819 -1.97684 0
M  V30 7438 C 695.413 2.84382 -3.21598 0
M  V30 7439 C 694.646 4.13397 -3.37548 0
M  V30 7440 O 694.869 5.08619 -2.58192 0
M  V30 7441 O 693.803 4.20325 -4.30826 0
M  V30 7442 H 697.629 1.2855 -2.75152 0
M  V30 7443 H 695.214 0.572229 -1.38007 0
M  V30 7444 H 697.096 3.65125 -2.10385 0
M  V30 7445 H 695.771 3.05627 -1.06647 0
M  V30 7446 H 694.678 2.0284 -3.14336 0
M  V30 7447 H 696.011 2.68526 -4.12498 0
M  V30 7448 N 697.663 1.43903 0.642637 0
M  V30 7449 C 698.626 1.49538 1.73698 0
M  V30 7450 C 699.626 0.378776 1.56275 0
M  V30 7451 O 700.816 0.64095 1.6198 0
M  V30 7452 C 697.948 1.35821 3.12675 0
M  V30 7453 H 699.141 2.47008 1.70079 0
M  V30 7454 H 696.694 1.30824 0.85526 0
M  V30 7455 H 697.429 0.393994 3.21898 0
M  V30 7456 H 697.214 2.16776 3.26727 0
M  V30 7457 H 698.704 1.4272 3.92455 0
M  V30 7458 N 699.141 -0.881989 1.30609 0
M  V30 7459 C 700.418 -1.61563 1.10258 0
M  V30 7460 C 700.798 -2.08228 -0.347053 0
M  V30 7461 O 700.146 -1.85151 -1.33908 0
M  V30 7462 C 700.356 -2.78287 2.10612 0
M  V30 7463 C 701.704 -3.48545 2.4249 0
M  V30 7464 O 702.728 -2.88479 2.08945 0
M  V30 7465 O 701.587 -4.56873 2.99883 0
M  V30 7466 H 698.681 -0.710238 0.423663 0
M  V30 7467 H 701.227 -0.928503 1.42045 0
M  V30 7468 H 699.999 -2.41131 3.08174 0
M  V30 7469 H 699.622 -3.54695 1.79659 0
M  V30 7470 N 700.619 -1.13374 -1.09472 0
M  V30 7471 C 701.567 -0.806105 -2.18185 0
M  V30 7472 C 702.561 0.21136 -1.68076 0
M  V30 7473 O 703.767 0.0685558 -1.79869 0
M  V30 7474 H 700.142 -0.242901 -0.71169 0
M  V30 7475 H 702.113 -1.73115 -2.43051 0
M  V30 7476 C 700.862 -0.287928 -3.46506 0
M  V30 7477 H 700.185 -1.06217 -3.85432 0
M  V30 7478 H 701.625 -0.0971054 -4.23889 0
M  V30 7479 C 700.084 0.986256 -3.22141 0
M  V30 7480 O 700.614 2.06217 -3.44728 0
M  V30 7481 N 698.82 0.917153 -2.75747 0
M  V30 7482 H 698.367 0.0414609 -2.57567 0
M  V30 7483 H 698.325 1.77029 -2.59823 0
M  V30 7484 N 702.098 1.27442 -0.927168 0
M  V30 7485 C 703.345 1.94391 -0.567324 0
M  V30 7486 C 703.673 1.72875 0.891321 0
M  V30 7487 O 702.928 1.05071 1.65102 0
M  V30 7488 C 703.227 3.47413 -0.838994 0
M  V30 7489 C 702.893 3.89049 -2.2793 0
M  V30 7490 C 701.555 4.00127 -2.67305 0
M  V30 7491 C 703.907 4.10154 -3.21595 0
M  V30 7492 C 701.235 4.29697 -3.99471 0
M  V30 7493 C 703.587 4.41208 -4.53341 0
M  V30 7494 C 702.251 4.50499 -4.92551 0
M  V30 7495 H 701.521 0.711325 -0.207598 0
M  V30 7496 H 704.168 1.51523 -1.17103 0
M  V30 7497 H 702.473 3.91503 -0.152609 0
M  V30 7498 H 704.17 3.97354 -0.53955 0
M  V30 7499 H 700.76 3.80962 -1.96381 0
M  V30 7500 H 704.944 4.01036 -2.92377 0
M  V30 7501 H 700.2 4.35099 -4.29533 0
M  V30 7502 H 704.374 4.56486 -5.25922 0
M  V30 7503 H 702.001 4.73167 -5.94994 0
M  V30 7504 N 703.576 0.692616 1.41565 0
M  V30 7505 C 704.486 0.0258451 2.34586 0
M  V30 7506 C 705.502 -0.769324 1.56069 0
M  V30 7507 O 706.678 -0.707563 1.88562 0
M  V30 7508 C 703.743 -0.901289 3.3478 0
M  V30 7509 C 702.804 -0.0986579 4.29187 0
M  V30 7510 C 702.037 -0.981634 5.24595 0
M  V30 7511 O 702.26 -2.22115 5.25377 0
M  V30 7512 O 701.194 -0.432892 6.00341 0
M  V30 7513 H 705.02 0.792537 2.93177 0
M  V30 7514 H 702.605 0.452935 1.42369 0
M  V30 7515 H 704.487 -1.43302 3.96286 0
M  V30 7516 H 703.162 -1.64752 2.78637 0
M  V30 7517 H 702.069 0.477604 3.71039 0
M  V30 7518 H 703.402 0.608848 4.8842 0
M  V30 7519 N 705.054 -1.51416 0.437162 0
M  V30 7520 C 706.001 -2.27743 -0.374374 0
M  V30 7521 C 706.971 -1.31327 -1.01698 0
M  V30 7522 O 708.156 -1.60229 -1.03592 0
M  V30 7523 C 705.296 -3.12241 -1.46969 0
M  V30 7524 C 704.409 -4.23651 -0.845236 0
M  V30 7525 C 703.544 -4.95458 -1.91559 0
M  V30 7526 C 702.583 -5.98789 -1.26956 0
M  V30 7527 N 701.72 -6.64005 -2.28126 0
M  V30 7528 H 706.56 -2.96654 0.282892 0
M  V30 7529 H 704.097 -1.46319 0.151352 0
M  V30 7530 H 706.055 -3.59556 -2.11602 0
M  V30 7531 H 704.685 -2.45445 -2.09659 0
M  V30 7532 H 703.737 -3.803 -0.0872059 0
M  V30 7533 H 705.049 -4.97683 -0.333582 0
M  V30 7534 H 704.203 -5.46321 -2.63854 0
M  V30 7535 H 702.942 -4.21055 -2.46097 0
M  V30 7536 H 701.947 -5.47219 -0.53207 0
M  V30 7537 H 703.172 -6.75149 -0.731509 0
M  V30 7538 H 701.118 -5.92415 -2.81745 0
M  V30 7539 H 701.035 -7.33802 -1.81852 0
M  V30 7540 H 702.303 -7.19498 -2.99905 0
M  V30 7541 N 706.532 -0.168513 -1.56696 0
M  V30 7542 C 707.762 0.482802 -2.0088 0
M  V30 7543 C 708.17 1.57537 -1.0478 0
M  V30 7544 O 707.513 1.83656 -0.0402746 0
M  V30 7545 C 707.575 1.1236 -3.4149 0
M  V30 7546 C 707.239 0.173027 -4.56672 0
M  V30 7547 C 708.236 -0.607565 -5.16338 0
M  V30 7548 C 705.921 0.0696691 -5.02252 0
M  V30 7549 C 707.915 -1.47874 -6.2001 0
M  V30 7550 C 705.602 -0.805096 -6.05773 0
M  V30 7551 C 706.6 -1.57789 -6.64524 0
M  V30 7552 O 706.288 -2.43804 -7.66038 0
M  V30 7553 H 706.02 0.128246 -0.663723 0
M  V30 7554 H 708.574 -0.266532 -2.03663 0
M  V30 7555 H 706.804 1.921 -3.35611 0
M  V30 7556 H 708.493 1.67683 -3.69645 0
M  V30 7557 H 709.259 -0.53787 -4.82008 0
M  V30 7558 H 705.138 0.660957 -4.56237 0
M  V30 7559 H 708.682 -2.0824 -6.65794 0
M  V30 7560 H 704.579 -0.876005 -6.39528 0
M  V30 7561 H 705.347 -2.37289 -7.83349 0
M  V30 7562 N 708.01 1.57248 0.105221 0
M  V30 7563 C 709.259 1.84756 0.809198 0
M  V30 7564 C 709.572 0.756262 1.80389 0
M  V30 7565 O 710.778 0.918158 2.55504 0
M  V30 7566 C 709.234 3.27613 1.48989 0
M  V30 7567 C 708.842 4.44788 0.535484 0
M  V30 7568 C 710.586 3.64356 2.17819 0
M  V30 7569 C 708.493 5.78676 1.22019 0
M  V30 7570 H 707.423 0.689139 0.305946 0
M  V30 7571 H 710.074 1.83395 0.0620371 0
M  V30 7572 H 708.456 3.23485 2.28415 0
M  V30 7573 H 709.63 4.60243 -0.226557 0
M  V30 7574 H 707.945 4.16374 -0.0465769 0
M  V30 7575 H 710.542 4.61663 2.69761 0
M  V30 7576 H 710.885 2.92474 2.96251 0
M  V30 7577 H 711.418 3.70328 1.45264 0
M  V30 7578 H 708.157 6.53763 0.476875 0
M  V30 7579 H 707.677 5.67083 1.9539 0
M  V30 7580 H 709.356 6.22897 1.74952 0
M  V30 7581 N 709.488 -0.375779 1.53054 0
M  V30 7582 C 710.716 -1.14036 1.72637 0
M  V30 7583 C 711.131 -1.83342 0.450687 0
M  V30 7584 O 710.488 -1.7318 -0.575749 0
M  V30 7585 C 710.539 -2.17841 2.88492 0
M  V30 7586 O 710.26 -1.51358 4.11123 0
M  V30 7587 C 711.761 -3.06924 3.19863 0
M  V30 7588 H 708.981 -0.341386 0.577665 0
M  V30 7589 H 711.525 -0.437809 1.99759 0
M  V30 7590 H 709.68 -2.8371 2.63794 0
M  V30 7591 H 710.094 -2.20439 4.75928 0
M  V30 7592 H 711.568 -3.75763 4.04359 0
M  V30 7593 H 712.045 -3.71169 2.34798 0
M  V30 7594 H 712.651 -2.46684 3.46449 0
M  V30 7595 N 710.966 -1.44241 -0.634997 0
M  V30 7596 C 712.191 -1.50516 -1.42687 0
M  V30 7597 C 712.616 -0.129864 -1.87651 0
M  V30 7598 O 711.974 0.880164 -1.58502 0
M  V30 7599 C 712.022 -2.4714 -2.62591 0
M  V30 7600 O 711.126 -1.97025 -3.62291 0
M  V30 7601 H 710.467 -0.50841 -0.427101 0
M  V30 7602 H 712.997 -1.89337 -0.775408 0
M  V30 7603 H 713.007 -2.65048 -3.10183 0
M  V30 7604 H 711.682 -3.47039 -2.29209 0
M  V30 7605 H 710.259 -1.88866 -3.21534 0
M  V30 7606 N 712.444 0.87505 -1.31075 0
M  V30 7607 C 713.692 1.62447 -1.20231 0
M  V30 7608 C 714.013 1.93506 0.240888 0
M  V30 7609 O 713.283 1.57847 1.16022 0
M  V30 7610 H 711.863 0.602207 -0.441991 0
M  V30 7611 H 714.525 1.04788 -1.64334 0
M  V30 7612 H 713.621 2.57031 -1.77036 0
M  V30 7613 N 713.922 1.13953 1.08869 0
M  V30 7614 C 714.87 0.817664 2.17754 0
M  V30 7615 C 715.864 -0.202444 1.68186 0
M  V30 7616 O 717.07 -0.0590159 1.79903 0
M  V30 7617 H 713.445 0.246671 0.710392 0
M  V30 7618 H 715.416 1.74401 2.4213 0
M  V30 7619 C 714.165 0.3063 3.46348 0
M  V30 7620 H 713.488 1.08259 3.84864 0
M  V30 7621 H 714.928 0.119584 4.23831 0
M  V30 7622 C 713.387 -0.969158 3.22659 0
M  V30 7623 O 713.917 -2.04386 3.45817 0
M  V30 7624 N 712.123 -0.902516 2.7623 0
M  V30 7625 H 711.67 -0.027801 2.57585 0
M  V30 7626 H 711.628 -1.75649 2.60758 0
M  V30 7627 N 715.4 -1.26948 0.933913 0
M  V30 7628 C 716.63 -1.97898 0.593279 0
M  V30 7629 C 717.038 -1.69806 -0.834412 0
M  V30 7630 O 716.381 -0.958704 -1.56699 0
M  V30 7631 C 716.443 -3.51657 0.746825 0
M  V30 7632 C 716.107 -4.03384 2.14779 0
M  V30 7633 C 717.104 -4.15682 3.12257 0
M  V30 7634 C 714.789 -4.37577 2.46641 0
M  V30 7635 C 716.783 -4.61455 4.39702 0
M  V30 7636 C 714.47 -4.8304 3.7432 0
M  V30 7637 C 715.468 -4.94939 4.70664 0
M  V30 7638 O 715.156 -5.39403 5.96071 0
M  V30 7639 H 714.888 -0.63814 0.223055 0
M  V30 7640 H 717.442 -1.62608 1.2549 0
M  V30 7641 H 715.672 -3.8669 0.0280889 0
M  V30 7642 H 717.361 -4.03821 0.410328 0
M  V30 7643 H 718.127 -3.89519 2.88964 0
M  V30 7644 H 714.006 -4.27554 1.72391 0
M  V30 7645 H 717.55 -4.70658 5.14905 0
M  V30 7646 H 713.447 -5.08646 3.97429 0
M  V30 7647 H 714.215 -5.57641 5.99148 0
M  V30 7648 N 716.879 -0.700114 -1.41195 0
M  V30 7649 C 717.826 -0.0376652 -2.30769 0
M  V30 7650 C 718.796 0.766544 -1.47354 0
M  V30 7651 O 719.981 0.73365 -1.76131 0
M  V30 7652 C 717.121 0.889452 -3.33441 0
M  V30 7653 C 716.234 0.076373 -4.31932 0
M  V30 7654 C 715.369 1.00155 -5.21673 0
M  V30 7655 C 714.408 0.181644 -6.1183 0
M  V30 7656 N 713.545 1.06087 -6.94039 0
M  V30 7657 H 718.385 -0.80726 -2.86858 0
M  V30 7658 H 715.922 -0.409798 -1.41277 0
M  V30 7659 H 717.88 1.44107 -3.91522 0
M  V30 7660 H 716.51 1.6254 -2.78892 0
M  V30 7661 H 715.562 -0.592223 -3.75762 0
M  V30 7662 H 716.874 -0.559076 -4.95657 0
M  V30 7663 H 716.028 1.62223 -5.8461 0
M  V30 7664 H 714.767 1.67085 -4.58186 0
M  V30 7665 H 713.772 -0.452085 -5.47938 0
M  V30 7666 H 714.997 -0.483925 -6.77374 0
M  V30 7667 H 712.943 1.7161 -6.33156 0
M  V30 7668 H 712.86 0.481094 -7.54468 0
M  V30 7669 H 714.128 1.66822 -7.6144 0
M  V30 7670 N 718.357 1.51182 -0.445186 0
M  V30 7671 C 719.267 2.31692 0.368255 0
M  V30 7672 C 720.283 1.40942 1.02036 0
M  V30 7673 O 721.459 1.74011 1.01401 0
M  V30 7674 C 718.524 3.14903 1.45041 0
M  V30 7675 C 717.585 4.21442 0.817615 0
M  V30 7676 C 716.818 5.00677 1.8482 0
M  V30 7677 O 717.041 4.80644 3.07145 0
M  V30 7678 O 715.975 5.84559 1.43438 0
M  V30 7679 H 719.801 3.0232 -0.289219 0
M  V30 7680 H 717.386 1.47951 -0.207555 0
M  V30 7681 H 719.268 3.66612 2.07783 0
M  V30 7682 H 717.943 2.47031 2.09182 0
M  V30 7683 H 716.85 3.73791 0.151931 0
M  V30 7684 H 718.183 4.9171 0.219564 0
M  V30 7685 N 719.835 0.176821 1.56605 0
M  V30 7686 C 721.082 -0.466715 1.97048 0
M  V30 7687 C 721.41 -1.6288 1.06302 0
M  V30 7688 O 720.665 -1.95453 0.0982571 0
M  V30 7689 C 720.964 -0.986208 3.43524 0
M  V30 7690 C 720.63 0.0605667 4.50859 0
M  V30 7691 C 719.292 0.348242 4.79938 0
M  V30 7692 C 721.644 0.770794 5.15469 0
M  V30 7693 C 718.972 1.35144 5.70923 0
M  V30 7694 C 721.324 1.76301 6.07537 0
M  V30 7695 C 719.988 2.05808 6.3498 0
M  V30 7696 H 719.258 -0.170783 0.721051 0
M  V30 7697 H 721.905 0.269942 1.89588 0
M  V30 7698 H 720.21 -1.80079 3.47964 0
M  V30 7699 H 721.907 -1.49323 3.72161 0
M  V30 7700 H 718.497 -0.173823 4.28247 0
M  V30 7701 H 722.681 0.56176 4.9311 0
M  V30 7702 H 717.937 1.58616 5.90467 0
M  V30 7703 H 722.111 2.31868 6.56666 0
M  V30 7704 H 719.738 2.8369 7.05283 0
M  V30 7705 N 721.313 -1.57302 -0.09688 0
M  V30 7706 C 722.553 -1.87823 -0.806334 0
M  V30 7707 C 722.917 -0.767593 -1.75989 0
M  V30 7708 O 724.118 -0.955173 -2.51257 0
M  V30 7709 C 722.389 -3.23585 -1.51749 0
M  V30 7710 S 723.948 -3.75795 -2.26547 0
M  V30 7711 H 720.766 -0.658281 -0.268676 0
M  V30 7712 H 723.368 -1.95397 -0.0635476 0
M  V30 7713 H 722.072 -4.0234 -0.809348 0
M  V30 7714 H 721.603 -3.19145 -2.30021 0
M  V30 7715 H 723.618 -3.49068 -3.52656 0
M  V30 7716 N 722.791 0.367657 -1.53252 0
M  V30 7717 C 723.701 1.47415 -1.82499 0
M  V30 7718 C 724.717 1.58711 -0.713222 0
M  V30 7719 O 725.893 1.74644 -1.00306 0
M  V30 7720 C 722.958 2.82706 -2.00694 0
M  V30 7721 C 722.019 2.80955 -3.24596 0
M  V30 7722 C 721.252 4.09793 -3.41914 0
M  V30 7723 O 721.475 5.05852 -2.63572 0
M  V30 7724 O 720.409 4.15731 -4.3526 0
M  V30 7725 H 724.235 1.25624 -2.765 0
M  V30 7726 H 721.82 0.557559 -1.38606 0
M  V30 7727 H 723.702 3.62873 -2.14246 0
M  V30 7728 H 722.377 3.04479 -1.09883 0
M  V30 7729 H 721.284 1.99494 -3.16469 0
M  V30 7730 H 722.617 2.64136 -4.15323 0
M  V30 7731 N 724.269 1.44576 0.627338 0
M  V30 7732 C 725.494 1.51271 1.41887 0
M  V30 7733 C 725.919 0.139814 1.8758 0
M  V30 7734 O 725.277 -0.871746 1.58966 0
M  V30 7735 C 725.325 2.48529 2.61277 0
M  V30 7736 O 724.429 1.98944 3.61241 0
M  V30 7737 H 723.77 0.510668 0.424399 0
M  V30 7738 H 726.3 1.89746 0.765356 0
M  V30 7739 H 726.31 2.66689 3.08773 0
M  V30 7740 H 724.985 3.48249 2.27366 0
M  V30 7741 H 723.562 1.90568 3.20528 0
M  V30 7742 N 725.747 -0.868086 1.31537 0
M  V30 7743 C 726.694 -1.97548 1.19346 0
M  V30 7744 C 727.664 -1.65913 0.0787922 0
M  V30 7745 O 728.849 -1.89129 0.251985 0
M  V30 7746 C 725.989 -3.32922 0.908692 0
M  V30 7747 C 725.102 -3.77141 2.10687 0
M  V30 7748 C 724.237 -5.01241 1.75873 0
M  V30 7749 C 723.276 -5.37914 2.92088 0
M  V30 7750 N 722.413 -6.53192 2.57457 0
M  V30 7751 H 727.253 -2.07307 2.14074 0
M  V30 7752 H 724.79 -1.01483 1.06487 0
M  V30 7753 H 726.748 -4.10867 0.724138 0
M  V30 7754 H 725.378 -3.228 -0.0017611 0
M  V30 7755 H 724.43 -2.94961 2.40213 0
M  V30 7756 H 725.742 -4.00248 2.97663 0
M  V30 7757 H 724.896 -5.86858 1.53891 0
M  V30 7758 H 723.635 -4.80041 0.86091 0
M  V30 7759 H 722.64 -4.50814 3.14717 0
M  V30 7760 H 723.865 -5.61077 3.82582 0
M  V30 7761 H 721.811 -6.33536 1.702 0
M  V30 7762 H 721.728 -6.76252 3.37963 0
M  V30 7763 H 722.996 -7.41997 2.38873 0
M  V30 7764 N 727.225 -1.14528 -1.08264 0
M  V30 7765 C 728.474 -0.908992 -1.80056 0
M  V30 7766 C 728.787 0.565859 -1.87236 0
M  V30 7767 O 729.993 0.919454 -2.55457 0
M  V30 7768 C 728.449 -1.57681 -3.23519 0
M  V30 7769 C 728.057 -3.08803 -3.24569 0
M  V30 7770 C 729.801 -1.4217 -3.99985 0
M  V30 7771 C 727.708 -3.68414 -4.62629 0
M  V30 7772 H 726.638 -0.336432 -0.674781 0
M  V30 7773 H 729.289 -1.37437 -1.21587 0
M  V30 7774 H 727.671 -1.03911 -3.82124 0
M  V30 7775 H 728.845 -3.69252 -2.75663 0
M  V30 7776 H 727.16 -3.23968 -2.61598 0
M  V30 7777 H 729.757 -1.84106 -5.02005 0
M  V30 7778 H 730.1 -0.367989 -4.1467 0
M  V30 7779 H 730.633 -1.92984 -3.47853 0
M  V30 7780 H 727.372 -4.73644 -4.53147 0
M  V30 7781 H 726.892 -3.12746 -5.11811 0
M  V30 7782 H 728.571 -3.68793 -5.31602 0
M  V30 7783 N 728.703 1.26451 -0.940633 0
M  V30 7784 C 729.651 2.28389 -0.440581 0
M  V30 7785 C 730.645 1.62402 0.481859 0
M  V30 7786 O 731.851 1.76361 0.360132 0
M  V30 7787 H 728.226 0.741716 -0.123938 0
M  V30 7788 H 730.197 2.67967 -1.31288 0
M  V30 7789 C 728.946 3.46576 0.279364 0
M  V30 7790 H 728.269 3.97574 -0.421274 0
M  V30 7791 H 729.709 4.19826 0.59348 0
M  V30 7792 C 728.168 3.01815 1.49697 0
M  V30 7793 O 728.698 3.06607 2.59529 0
M  V30 7794 N 726.904 2.57163 1.35334 0
M  V30 7795 H 726.451 2.53464 0.459743 0
M  V30 7796 H 726.409 2.27578 2.16923 0
M  V30 7797 N 730.181 0.707592 1.40822 0
M  V30 7798 C 731.128 0.0499029 2.30746 0
M  V30 7799 C 732.098 -0.758718 1.47759 0
M  V30 7800 O 733.283 -0.724299 1.76518 0
M  V30 7801 C 730.423 -0.871756 3.33908 0
M  V30 7802 C 729.536 -0.0534655 4.31967 0
M  V30 7803 C 728.671 -0.973869 5.22197 0
M  V30 7804 C 727.71 -0.149194 6.11918 0
M  V30 7805 N 726.847 -1.02404 6.94592 0
M  V30 7806 H 731.687 0.822461 2.86426 0
M  V30 7807 H 729.224 0.417285 1.41057 0
M  V30 7808 H 731.182 -1.42028 3.9228 0
M  V30 7809 H 729.812 -1.61058 2.7975 0
M  V30 7810 H 728.864 0.612142 3.75442 0
M  V30 7811 H 730.176 0.585354 4.95353 0
M  V30 7812 H 729.33 -1.59121 5.85462 0
M  V30 7813 H 728.069 -1.64652 4.59065 0
M  V30 7814 H 727.074 0.481137 5.47691 0
M  V30 7815 H 728.299 0.519841 6.77107 0
M  V30 7816 H 726.245 -1.6825 6.34057 0
M  V30 7817 H 726.162 -0.441076 7.54712 0
M  V30 7818 H 727.43 -1.62782 7.62314 0
M  V30 7819 N 731.66 -1.50943 0.453197 0
M  V30 7820 C 732.9 -2.0412 -0.106894 0
M  V30 7821 C 733.264 -1.32895 -1.38575 0
M  V30 7822 O 734.465 -1.76529 -2.02709 0
M  V30 7823 C 732.736 -3.561 -0.304565 0
M  V30 7824 S 734.295 -4.3096 -0.825784 0
M  V30 7825 H 731.113 -0.710581 -0.0243969 0
M  V30 7826 H 733.715 -1.85534 0.616239 0
M  V30 7827 H 732.419 -4.055 0.632277 0
M  V30 7828 H 731.95 -3.79009 -1.05433 0
M  V30 7829 H 733.965 -4.49503 -2.10147 0
M  V30 7830 N 733.138 -0.185124 -1.56509 0
M  V30 7831 C 734.415 0.503348 -1.89013 0
M  V30 7832 C 734.795 1.80349 -1.09715 0
M  V30 7833 O 734.143 2.27665 -0.195203 0
M  V30 7834 C 734.353 0.731839 -3.41241 0
M  V30 7835 C 735.701 1.05568 -4.11267 0
M  V30 7836 O 736.725 0.819906 -3.46635 0
M  V30 7837 O 735.584 1.50116 -5.25478 0
M  V30 7838 H 732.678 0.261139 -0.784688 0
M  V30 7839 H 735.224 -0.224592 -1.68207 0
M  V30 7840 H 733.996 -0.18672 -3.90854 0
M  V30 7841 H 733.619 1.5126 -3.67704 0
M  V30 7842 N 734.616 1.57351 0.0885366 0
M  V30 7843 C 735.893 1.77449 0.822873 0
M  V30 7844 C 736.273 0.768463 1.96616 0
M  V30 7845 O 735.621 -0.201757 2.27608 0
M  V30 7846 C 735.831 3.23425 1.31137 0
M  V30 7847 C 737.179 3.86791 1.75152 0
M  V30 7848 O 738.203 3.27215 1.40745 0
M  V30 7849 O 737.062 4.91568 2.38794 0
M  V30 7850 H 734.156 0.727653 0.393002 0
M  V30 7851 H 736.702 1.69556 0.0699095 0
M  V30 7852 H 735.474 3.88188 0.49254 0
M  V30 7853 H 735.097 3.35977 2.12615 0
M  V30 7854 N 736.094 -0.359525 1.53444 0
M  V30 7855 C 737.371 -1.11756 1.6053 0
M  V30 7856 C 737.751 -2.06949 0.416587 0
M  V30 7857 O 737.099 -2.20681 -0.592628 0
M  V30 7858 C 737.309 -1.85133 2.95849 0
M  V30 7859 C 738.657 -2.3945 3.50641 0
M  V30 7860 O 739.681 -1.95251 2.97918 0
M  V30 7861 O 738.54 -3.20266 4.42823 0
M  V30 7862 H 735.634 -0.513005 0.648656 0
M  V30 7863 H 738.18 -0.362301 1.65787 0
M  V30 7864 H 736.952 -1.15694 3.73806 0
M  V30 7865 H 736.575 -2.67554 2.9411 0
M  V30 7866 N 737.572 -1.44907 -0.619662 0
M  V30 7867 C 738.522 -1.49085 -1.72504 0
M  V30 7868 C 739.506 -0.355372 -1.56926 0
M  V30 7869 O 740.698 -0.601441 -1.66468 0
M  V30 7870 C 737.827 -1.44889 -3.11227 0
M  V30 7871 C 736.913 -2.63593 -3.32234 0
M  V30 7872 N 737.304 -3.88775 -3.23555 0
M  V30 7873 C 735.602 -2.59033 -3.63067 0
M  V30 7874 C 736.303 -4.67932 -3.45564 0
M  V30 7875 N 735.279 -3.9919 -3.68983 0
M  V30 7876 H 739.081 -2.43706 -1.6427 0
M  V30 7877 H 736.595 -1.4003 -0.82252 0
M  V30 7878 H 738.592 -1.45966 -3.90512 0
M  V30 7879 H 737.252 -0.513143 -3.2062 0
M  V30 7880 H 738.263 -4.20574 -3.02221 0
M  V30 7881 H 734.94 -1.7431 -3.79371 0
M  V30 7882 H 736.33 -5.76952 -3.44349 0
M  V30 7883 N 739.05 0.861098 -1.31996 0
M  V30 7884 C 739.96 2.00154 -1.22374 0
M  V30 7885 C 740.976 1.73447 -0.138631 0
M  V30 7886 O 742.152 1.98191 -0.358104 0
M  V30 7887 C 739.217 3.33696 -0.940645 0
M  V30 7888 C 738.278 3.73668 -2.11355 0
M  V30 7889 C 737.511 5.00837 -1.84386 0
M  V30 7890 O 737.734 5.64996 -0.783287 0
M  V30 7891 O 736.668 5.37787 -2.70313 0
M  V30 7892 H 740.494 2.11207 -2.18233 0
M  V30 7893 H 738.079 0.990768 -1.11822 0
M  V30 7894 H 739.961 4.13756 -0.798987 0
M  V30 7895 H 738.636 3.23698 -0.0121636 0
M  V30 7896 H 737.543 2.94211 -2.31065 0
M  V30 7897 H 738.876 3.88303 -3.02459 0
M  V30 7898 N 740.528 1.15101 1.07655 0
M  V30 7899 C 741.475 0.844958 2.14777 0
M  V30 7900 C 742.445 -0.200798 1.64882 0
M  V30 7901 O 743.63 -0.0690278 1.90675 0
M  V30 7902 C 740.77 0.337018 3.4345 0
M  V30 7903 C 739.883 1.44398 4.07153 0
M  V30 7904 C 739.018 0.892487 5.23649 0
M  V30 7905 C 738.057 1.9766 5.79307 0
M  V30 7906 N 737.194 1.44171 6.87138 0
M  V30 7907 H 742.034 1.76242 2.40297 0
M  V30 7908 H 739.571 0.879435 1.17917 0
M  V30 7909 H 741.529 0.024256 4.17193 0
M  V30 7910 H 740.159 -0.543531 3.18191 0
M  V30 7911 H 739.211 1.87299 3.31094 0
M  V30 7912 H 740.523 2.26262 4.4453 0
M  V30 7913 H 739.677 0.532083 6.04362 0
M  V30 7914 H 738.416 0.0429854 4.87681 0
M  V30 7915 H 737.421 2.34586 4.97242 0
M  V30 7916 H 738.646 2.82982 6.17331 0
M  V30 7917 H 736.592 0.614518 6.53115 0
M  V30 7918 H 736.509 2.19665 7.23383 0
M  V30 7919 H 737.777 1.10945 7.71564 0
M  V30 7920 N 742.006 -1.2595 0.947325 0
M  V30 7921 C 742.936 -2.28521 0.479604 0
M  V30 7922 C 743.917 -1.63469 -0.470293 0
M  V30 7923 O 745.102 -1.90627 -0.370824 0
M  V30 7924 C 742.232 -3.46397 -0.250289 0
M  V30 7925 C 741.186 -4.23578 0.613643 0
M  V30 7926 C 740.512 -5.34131 -0.246568 0
M  V30 7927 C 741.812 -4.86979 1.88809 0
M  V30 7928 H 743.506 -2.67895 1.33688 0
M  V30 7929 H 741.052 -1.28783 0.644274 0
M  V30 7930 H 743.005 -4.17269 -0.588576 0
M  V30 7931 H 741.729 -3.05993 -1.14175 0
M  V30 7932 H 740.388 -3.54478 0.93491 0
M  V30 7933 H 740.036 -4.89968 -1.13756 0
M  V30 7934 H 739.736 -5.86683 0.328123 0
M  V30 7935 H 741.26 -6.07839 -0.579986 0
M  V30 7936 H 742.674 -5.50034 1.61666 0
M  V30 7937 H 741.071 -5.49675 2.40784 0
M  V30 7938 H 742.141 -4.09575 2.5957 0
M  V30 7939 N 743.484 -0.715051 -1.40445 0
M  V30 7940 C 744.712 -0.263959 -2.05209 0
M  V30 7941 C 745.127 1.09403 -1.53871 0
M  V30 7942 O 744.484 1.68746 -0.695064 0
M  V30 7943 C 744.535 -0.234545 -3.60738 0
M  V30 7944 O 744.256 -1.53891 -4.10182 0
M  V30 7945 C 745.757 0.235164 -4.42676 0
M  V30 7946 H 742.977 -0.11876 -0.660407 0
M  V30 7947 H 745.521 -0.973107 -1.79864 0
M  V30 7948 H 743.676 0.425563 -3.85055 0
M  V30 7949 H 744.09 -1.43903 -5.04373 0
M  V30 7950 H 745.564 0.204598 -5.51621 0
M  V30 7951 H 746.041 1.27724 -4.20218 0
M  V30 7952 H 746.647 -0.394649 -4.23465 0
M  V30 7953 N 744.962 1.50701 -0.461195 0
M  V30 7954 C 746.208 2.03203 0.0895017 0
M  V30 7955 C 746.563 1.33768 1.38289 0
M  V30 7956 O 745.856 0.451304 1.86209 0
M  V30 7957 C 746.05 3.55788 0.33908 0
M  V30 7958 C 745.879 4.40009 -0.928571 0
M  V30 7959 C 744.649 4.83475 -1.46903 0
M  V30 7960 C 746.847 4.80972 -1.82129 0
M  V30 7961 N 744.829 5.51985 -2.68673 0
M  V30 7962 C 746.2 5.48792 -2.88491 0
M  V30 7963 C 748.255 4.62937 -1.83285 0
M  V30 7964 C 746.958 6.00489 -3.95987 0
M  V30 7965 C 748.984 5.15568 -2.89731 0
M  V30 7966 C 748.346 5.83355 -3.94812 0
M  V30 7967 H 744.445 0.781968 -0.00702462 0
M  V30 7968 H 747.029 1.84321 -0.627195 0
M  V30 7969 H 745.2 3.74636 1.02481 0
M  V30 7970 H 746.932 3.94944 0.883242 0
M  V30 7971 H 743.687 4.62495 -1.01959 0
M  V30 7972 H 744.111 5.90854 -3.30486 0
M  V30 7973 H 748.753 4.0997 -1.03366 0
M  V30 7974 H 746.471 6.52499 -4.7673 0
M  V30 7975 H 750.057 5.0345 -2.91597 0
M  V30 7976 H 748.937 6.23347 -4.75824 0
M  V30 7977 N 746.441 0.193421 1.56409 0
M  V30 7978 C 747.373 -0.759944 2.16235 0
M  V30 7979 C 748.386 -1.17797 1.12373 0
M  V30 7980 O 749.575 -1.11399 1.39472 0
M  V30 7981 C 746.675 -2.03735 2.70823 0
M  V30 7982 C 745.848 -1.77939 3.9957 0
M  V30 7983 C 744.907 -2.90111 4.39001 0
M  V30 7984 O 743.933 -2.59791 5.06456 0
M  V30 7985 N 745.135 -4.18426 4.02368 0
M  V30 7986 H 747.9 -0.248348 2.98669 0
M  V30 7987 H 745.461 0.0113966 1.61896 0
M  V30 7988 H 747.453 -2.77914 2.94187 0
M  V30 7989 H 746.023 -2.46022 1.92852 0
M  V30 7990 H 745.243 -0.875491 3.84355 0
M  V30 7991 H 746.531 -1.58099 4.83614 0
M  V30 7992 H 745.929 -4.45913 3.48106 0
M  V30 7993 H 744.486 -4.89237 4.30686 0
M  V30 7994 N 747.919 -1.57396 -0.0801906 0
M  V30 7995 C 749.168 -1.8602 -0.779702 0
M  V30 7996 C 749.481 -0.784864 -1.79163 0
M  V30 7997 O 750.687 -0.958691 -2.54011 0
M  V30 7998 C 749.143 -3.29942 -1.43758 0
M  V30 7999 C 748.751 -4.45584 -0.464654 0
M  V30 8000 C 750.495 -3.67775 -2.11995 0
M  V30 8001 C 748.402 -5.80544 -1.12797 0
M  V30 8002 H 747.332 -0.69392 -0.294943 0
M  V30 8003 H 749.983 -1.83471 -0.0328527 0
M  V30 8004 H 748.365 -3.27078 -2.2324 0
M  V30 8005 H 749.539 -4.59824 0.299749 0
M  V30 8006 H 747.854 -4.16247 0.112813 0
M  V30 8007 H 750.451 -4.65896 -2.62383 0
M  V30 8008 H 750.794 -2.9715 -2.91561 0
M  V30 8009 H 751.327 -3.72593 -1.39354 0
M  V30 8010 H 748.066 -6.54439 -0.372807 0
M  V30 8011 H 747.586 -5.70119 -1.86344 0
M  V30 8012 H 749.265 -6.25602 -1.6502 0
M  V30 8013 N 749.397 0.351382 -1.53633 0
M  V30 8014 C 750.327 1.43688 -1.84055 0
M  V30 8015 C 751.308 1.55251 -0.695073 0
M  V30 8016 O 752.493 1.69587 -0.946257 0
M  V30 8017 C 749.623 2.80843 -2.04315 0
M  V30 8018 C 748.577 2.84094 -3.20117 0
M  V30 8019 C 747.903 4.2406 -3.25696 0
M  V30 8020 C 749.203 2.50334 -4.58399 0
M  V30 8021 H 750.897 1.18478 -2.74961 0
M  V30 8022 H 748.443 0.568509 -1.32303 0
M  V30 8023 H 750.396 3.56821 -2.2418 0
M  V30 8024 H 749.12 3.07471 -1.10132 0
M  V30 8025 H 747.779 2.10568 -3.00094 0
M  V30 8026 H 747.427 4.47785 -2.29123 0
M  V30 8027 H 747.127 4.27147 -4.03509 0
M  V30 8028 H 748.651 5.0189 -3.47762 0
M  V30 8029 H 750.065 3.16025 -4.78332 0
M  V30 8030 H 748.462 2.64717 -5.38558 0
M  V30 8031 H 749.532 1.45542 -4.62543 0
M  V30 8032 N 750.875 1.45233 0.611969 0
M  V30 8033 C 751.807 1.49575 1.73666 0
M  V30 8034 C 752.82 0.386987 1.58134 0
M  V30 8035 O 754.009 0.653804 1.66095 0
M  V30 8036 C 751.109 1.33223 3.11617 0
M  V30 8037 C 750.282 2.57694 3.5343 0
M  V30 8038 C 749.341 2.35962 4.70328 0
M  V30 8039 O 748.367 3.09553 4.77667 0
M  V30 8040 N 749.569 1.40243 5.63305 0
M  V30 8041 H 752.334 2.46539 1.70407 0
M  V30 8042 H 749.895 1.40917 0.79712 0
M  V30 8043 H 751.887 1.16502 3.87569 0
M  V30 8044 H 750.457 0.44551 3.09409 0
M  V30 8045 H 749.677 2.8956 2.67486 0
M  V30 8046 H 750.965 3.40441 3.78124 0
M  V30 8047 H 750.363 0.795023 5.60086 0
M  V30 8048 H 748.92 1.29496 6.38807 0
M  V30 8049 N 752.353 -0.854086 1.3245 0
M  V30 8050 C 753.283 -1.97827 1.24044 0
M  V30 8051 C 754.264 -1.69646 0.124166 0
M  V30 8052 O 755.449 -1.91687 0.31143 0
M  V30 8053 C 752.579 -3.33673 0.963324 0
M  V30 8054 C 751.533 -3.76207 2.04089 0
M  V30 8055 C 750.859 -5.0969 1.61618 0
M  V30 8056 C 752.159 -3.91612 3.45597 0
M  V30 8057 H 753.853 -2.05118 2.18099 0
M  V30 8058 H 751.399 -0.985489 1.04996 0
M  V30 8059 H 753.352 -4.11871 0.891061 0
M  V30 8060 H 752.076 -3.26597 -0.0128649 0
M  V30 8061 H 750.735 -3.0026 2.10332 0
M  V30 8062 H 750.383 -4.99072 0.627418 0
M  V30 8063 H 750.083 -5.3912 2.33717 0
M  V30 8064 H 751.607 -5.90381 1.55829 0
M  V30 8065 H 753.021 -4.60163 3.4194 0
M  V30 8066 H 751.418 -4.3246 4.16051 0
M  V30 8067 H 752.488 -2.9451 3.85217 0
M  V30 8068 N 753.831 -1.1567 -1.07043 0
M  V30 8069 C 754.761 -0.879348 -2.16309 0
M  V30 8070 C 755.742 0.171311 -1.69235 0
M  V30 8071 O 756.927 0.0250175 -1.94184 0
M  V30 8072 C 754.057 -0.371307 -3.45309 0
M  V30 8073 C 753.011 -1.359 -4.05851 0
M  V30 8074 C 752.337 -0.709678 -5.29969 0
M  V30 8075 C 753.637 -2.72606 -4.45514 0
M  V30 8076 H 755.331 -1.79308 -2.39768 0
M  V30 8077 H 752.877 -0.863558 -1.15233 0
M  V30 8078 H 754.83 -0.164798 -4.21078 0
M  V30 8079 H 753.554 0.577906 -3.21446 0
M  V30 8080 H 752.213 -1.55193 -3.32131 0
M  V30 8081 H 751.861 0.245782 -5.02399 0
M  V30 8082 H 751.561 -1.36886 -5.71433 0
M  V30 8083 H 753.085 -0.513015 -6.08441 0
M  V30 8084 H 754.499 -2.57141 -5.12398 0
M  V30 8085 H 752.896 -3.34927 -4.97939 0
M  V30 8086 H 753.966 -3.28434 -3.56734 0
M  V30 8087 N 755.309 1.25446 -0.953992 0
M  V30 8088 C 756.549 1.94894 -0.616087 0
M  V30 8089 C 756.913 1.73067 0.831374 0
M  V30 8090 O 758.114 2.3643 1.27884 0
M  V30 8091 C 756.385 3.44147 -0.964225 0
M  V30 8092 S 757.944 4.32536 -0.738798 0
M  V30 8093 H 754.762 0.673967 -0.226472 0
M  V30 8094 H 757.364 1.52117 -1.22803 0
M  V30 8095 H 756.068 3.57537 -2.01484 0
M  V30 8096 H 755.599 3.91906 -0.342507 0
M  V30 8097 H 757.614 4.94659 0.390732 0
M  V30 8098 N 756.787 0.722489 1.40064 0
M  V30 8099 C 758.015 0.274838 2.05066 0
M  V30 8100 C 758.43 -1.08586 1.54449 0
M  V30 8101 O 757.787 -1.68375 0.704003 0
M  V30 8102 C 757.838 0.253673 3.60609 0
M  V30 8103 O 757.559 1.56064 4.0936 0
M  V30 8104 C 759.06 -0.211684 4.42794 0
M  V30 8105 H 756.28 0.12226 0.659768 0
M  V30 8106 H 758.824 0.982632 1.79345 0
M  V30 8107 H 756.979 -0.405137 3.85276 0
M  V30 8108 H 757.393 1.46576 5.03603 0
M  V30 8109 H 758.867 -0.175341 5.51721 0
M  V30 8110 H 759.344 -1.25493 4.2089 0
M  V30 8111 H 759.95 0.4171 4.2325 0
M  V30 8112 N 758.265 -1.50454 0.469181 0
M  V30 8113 C 759.49 -2.0722 -0.0864892 0
M  V30 8114 C 759.915 -1.33098 -1.32916 0
M  V30 8115 O 759.273 -0.378084 -1.77314 0
M  V30 8116 C 759.321 -3.58845 -0.355384 0
M  V30 8117 O 758.425 -3.86583 -1.43622 0
M  V30 8118 H 757.766 -0.663889 0.0121414 0
M  V30 8119 H 760.296 -1.93674 0.659674 0
M  V30 8120 H 760.306 -4.03617 -0.596447 0
M  V30 8121 H 758.981 -4.12211 0.552698 0
M  V30 8122 H 757.558 -3.5365 -1.18262 0
M  V30 8123 N 759.743 -0.201713 -1.56304 0
M  V30 8124 C 760.675 0.748466 -2.16635 0
M  V30 8125 C 761.688 1.172 -1.12996 0
M  V30 8126 O 762.877 1.10658 -1.40061 0
M  V30 8127 C 759.977 2.02296 -2.719 0
M  V30 8128 C 759.15 1.75818 -4.00508 0
M  V30 8129 C 758.209 2.87779 -4.40533 0
M  V30 8130 O 757.235 2.57101 -5.07826 0
M  V30 8131 N 758.437 4.16287 -4.04581 0
M  V30 8132 H 761.202 0.232505 -2.98797 0
M  V30 8133 H 758.763 -0.0199822 -1.61888 0
M  V30 8134 H 760.755 2.7635 -2.95657 0
M  V30 8135 H 759.325 2.44996 -1.94154 0
M  V30 8136 H 758.545 0.855095 -3.84814 0
M  V30 8137 H 759.833 1.55532 -4.84445 0
M  V30 8138 H 759.231 4.44061 -3.50466 0
M  V30 8139 H 757.788 4.86946 -4.33274 0
M  V30 8140 N 761.222 1.57436 0.0718424 0
M  V30 8141 C 762.638 1.53792 0.426628 0
M  V30 8142 C 762.838 0.921887 1.79174 0
M  V30 8143 O 761.894 0.524374 2.46995 0
M  V30 8144 C 763.207 2.98443 0.367739 0
M  V30 8145 C 764.755 3.09778 0.447928 0
M  V30 8146 C 765.23 4.5608 0.418946 0
M  V30 8147 N 766.721 4.60716 0.479022 0
M  V30 8148 C 767.456 5.71397 0.47881 0
M  V30 8149 N 766.952 6.91443 0.433417 0
M  V30 8150 N 768.745 5.59639 0.525364 0
M  V30 8151 H 760.896 1.95848 -0.822033 0
M  V30 8152 H 763.159 0.896418 -0.308447 0
M  V30 8153 H 762.865 3.47072 -0.56865 0
M  V30 8154 H 762.739 3.58335 1.17795 0
M  V30 8155 H 765.126 2.61122 1.37474 0
M  V30 8156 H 765.207 2.52796 -0.390857 0
M  V30 8157 H 764.851 5.05393 -0.504016 0
M  V30 8158 H 764.781 5.10925 1.27526 0
M  V30 8159 H 767.272 3.74328 0.518355 0
M  V30 8160 H 767.585 7.71562 0.43718 0
M  V30 8161 H 765.93 6.93847 0.400106 0
M  V30 8162 H 769.121 4.64756 0.558519 0
M  V30 8163 H 769.294 6.45896 0.52173 0
M  V30 8164 N 762.7 -0.34323 1.53817 0
M  V30 8165 C 763.948 -1.0813 1.70741 0
M  V30 8166 C 764.269 -1.89165 0.473461 0
M  V30 8167 O 763.539 -1.89075 -0.512605 0
M  V30 8168 H 762.119 -0.40219 0.629486 0
M  V30 8169 H 764.781 -0.384426 1.91071 0
M  V30 8170 H 763.877 -1.7585 2.57843 0
M  V30 8171 N 764.178 -1.45556 -0.604258 0
M  V30 8172 C 765.455 -1.40221 -1.36373 0
M  V30 8173 C 765.835 -0.0745195 -2.10968 0
M  V30 8174 O 765.183 0.943594 -2.08107 0
M  V30 8175 C 765.393 -2.61807 -2.30777 0
M  V30 8176 C 766.741 -3.07037 -2.93281 0
M  V30 8177 O 767.765 -2.62203 -2.41097 0
M  V30 8178 O 766.624 -3.8485 -3.88011 0
M  V30 8179 H 763.718 -0.556602 -0.611656 0
M  V30 8180 H 766.264 -1.57689 -0.627069 0
M  V30 8181 H 765.036 -3.50017 -1.74939 0
M  V30 8182 H 764.659 -2.46688 -3.11818 0
M  V30 8183 N 765.656 0.84705 -1.32902 0
M  V30 8184 C 766.905 1.59667 -1.23245 0
M  V30 8185 C 767.218 1.94551 0.202349 0
M  V30 8186 O 768.424 2.68218 0.420847 0
M  V30 8187 C 766.88 2.8795 -2.15901 0
M  V30 8188 C 766.488 2.60461 -3.64505 0
M  V30 8189 C 768.232 3.65968 -2.15098 0
M  V30 8190 C 766.139 3.84791 -4.49099 0
M  V30 8191 H 765.069 0.599167 -0.457728 0
M  V30 8192 H 767.72 0.934662 -1.57912 0
M  V30 8193 H 766.102 3.55648 -1.74157 0
M  V30 8194 H 767.276 2.01026 -4.14639 0
M  V30 8195 H 765.591 1.9576 -3.67515 0
M  V30 8196 H 768.188 4.58241 -2.75534 0
M  V30 8197 H 768.531 4.00275 -1.14392 0
M  V30 8198 H 769.064 3.05184 -2.55162 0
M  V30 8199 H 765.803 3.55621 -5.50649 0
M  V30 8200 H 765.323 4.43594 -4.03713 0
M  V30 8201 H 767.002 4.52454 -4.62487 0
M  V30 8202 N 767.134 1.16236 1.06428 0
M  V30 8203 C 768.38 0.944431 1.79467 0
M  V30 8204 C 768.713 -0.526558 1.86925 0
M  V30 8205 O 767.988 -1.39061 1.35986 0
M  V30 8206 C 768.271 1.57092 3.24028 0
M  V30 8207 C 768.124 3.11315 3.24658 0
M  V30 8208 C 769.443 1.26447 4.21544 0
M  V30 8209 H 766.562 0.344521 0.651517 0
M  V30 8210 H 769.204 1.43545 1.24478 0
M  V30 8211 H 767.354 1.15337 3.70985 0
M  V30 8212 H 769.026 3.62042 2.85873 0
M  V30 8213 H 767.269 3.44716 2.6335 0
M  V30 8214 H 767.94 3.50269 4.26633 0
M  V30 8215 H 770.416 1.62581 3.83023 0
M  V30 8216 H 769.292 1.72885 5.20963 0
M  V30 8217 H 769.553 0.183068 4.41721 0
M  V30 8218 N 768.612 -1.24939 0.960631 0
M  V30 8219 C 769.559 -2.25658 0.484459 0
M  V30 8220 C 770.529 -1.59422 -0.466242 0
M  V30 8221 O 771.714 -1.87015 -0.378169 0
M  V30 8222 C 768.854 -3.44359 -0.225958 0
M  V30 8223 C 767.967 -4.25214 0.762682 0
M  V30 8224 C 767.102 -5.31192 0.0290931 0
M  V30 8225 C 766.141 -6.03739 1.00827 0
M  V30 8226 N 765.278 -7.01437 0.305155 0
M  V30 8227 H 770.118 -2.65758 1.34821 0
M  V30 8228 H 767.655 -1.30648 0.675983 0
M  V30 8229 H 769.613 -4.12035 -0.654472 0
M  V30 8230 H 768.243 -3.05118 -1.05371 0
M  V30 8231 H 767.295 -3.57144 1.30966 0
M  V30 8232 H 768.607 -4.75406 1.50964 0
M  V30 8233 H 767.761 -6.04971 -0.457763 0
M  V30 8234 H 766.5 -4.81889 -0.750614 0
M  V30 8235 H 765.505 -5.2877 1.50607 0
M  V30 8236 H 766.73 -6.55131 1.7883 0
M  V30 8237 H 764.676 -6.54415 -0.455704 0
M  V30 8238 H 764.593 -7.49475 0.991104 0
M  V30 8239 H 765.861 -7.79336 -0.159966 0
M  V30 8240 N 770.09 -0.729906 -1.39679 0
M  V30 8241 C 771.32 -0.285295 -2.04621 0
M  V30 8242 C 771.728 1.08304 -1.55135 0
M  V30 8243 O 771.071 1.6946 -0.709146 0
M  V30 8244 C 771.133 -0.203129 -3.58926 0
M  V30 8245 C 770.797 -1.50909 -4.31365 0
M  V30 8246 C 771.794 -2.45381 -4.58349 0
M  V30 8247 C 769.479 -1.77198 -4.70007 0
M  V30 8248 C 771.473 -3.64379 -5.22979 0
M  V30 8249 C 769.16 -2.96474 -5.34365 0
M  V30 8250 C 770.158 -3.89886 -5.60783 0
M  V30 8251 O 769.846 -5.07069 -6.23808 0
M  V30 8252 H 769.578 -0.123373 -0.664647 0
M  V30 8253 H 772.132 -0.992901 -1.79807 0
M  V30 8254 H 770.362 0.560538 -3.82616 0
M  V30 8255 H 772.051 0.208811 -4.05363 0
M  V30 8256 H 772.817 -2.2634 -4.28947 0
M  V30 8257 H 768.696 -1.05337 -4.48804 0
M  V30 8258 H 772.24 -4.37307 -5.43515 0
M  V30 8259 H 768.137 -3.15419 -5.63188 0
M  V30 8260 H 768.905 -5.07335 -6.42303 0
M  V30 8261 N 771.568 1.50203 -0.477153 0
M  V30 8262 C 772.498 2.31517 0.303646 0
M  V30 8263 C 773.479 1.38696 0.984753 0
M  V30 8264 O 774.664 1.67615 0.980758 0
M  V30 8265 C 771.794 3.18598 1.38249 0
M  V30 8266 C 770.748 4.2002 0.822645 0
M  V30 8267 C 770.074 4.95878 2.00024 0
M  V30 8268 C 771.374 5.22023 -0.170185 0
M  V30 8269 H 773.068 2.97042 -0.375027 0
M  V30 8270 H 770.614 1.42848 -0.181802 0
M  V30 8271 H 772.567 3.74282 1.93625 0
M  V30 8272 H 771.291 2.5097 2.09002 0
M  V30 8273 H 769.95 3.65445 0.290813 0
M  V30 8274 H 769.598 4.24717 2.69489 0
M  V30 8275 H 769.298 5.64487 1.63183 0
M  V30 8276 H 770.822 5.54399 2.55878 0
M  V30 8277 H 772.236 5.72543 0.294606 0
M  V30 8278 H 770.633 5.98386 -0.453181 0
M  V30 8279 H 771.703 4.72396 -1.09408 0
M  V30 8280 N 773.046 0.209999 1.56195 0
M  V30 8281 C 774.294 -0.423974 1.97603 0
M  V30 8282 C 774.615 -1.61112 1.09854 0
M  V30 8283 O 773.885 -1.95134 0.173032 0
M  V30 8284 H 772.465 -0.159629 0.729745 0
M  V30 8285 H 775.127 0.300205 1.92574 0
M  V30 8286 H 774.223 -0.75809 3.02753 0
M  V30 8287 N 774.524 -1.57472 -0.0634922 0
M  V30 8288 C 775.474 -2.00709 -1.08166 0
M  V30 8289 C 776.458 -0.890498 -1.34011 0
M  V30 8290 O 777.65 -1.15441 -1.34173 0
M  V30 8291 C 774.779 -2.46148 -2.39303 0
M  V30 8292 C 773.865 -3.64559 -2.16697 0
M  V30 8293 N 774.256 -4.78459 -1.64043 0
M  V30 8294 C 772.554 -3.71269 -2.47135 0
M  V30 8295 C 773.255 -5.60268 -1.56445 0
M  V30 8296 N 772.231 -5.04357 -2.02792 0
M  V30 8297 H 776.033 -2.86208 -0.668016 0
M  V30 8298 H 773.547 -1.60133 -0.270426 0
M  V30 8299 H 775.544 -2.75367 -3.13016 0
M  V30 8300 H 774.204 -1.62041 -2.81377 0
M  V30 8301 H 775.215 -5.00587 -1.32791 0
M  V30 8302 H 771.892 -2.97891 -2.92518 0
M  V30 8303 H 773.282 -6.6172 -1.16519 0
M  V30 8304 N 776.003 0.335068 -1.53997 0
M  V30 8305 C 777.28 1.09188 -1.62288 0
M  V30 8306 C 777.66 2.0626 -0.449458 0
M  V30 8307 O 777.008 2.21596 0.557444 0
M  V30 8308 C 777.218 1.80403 -2.98757 0
M  V30 8309 C 778.566 2.33841 -3.54406 0
M  V30 8310 O 779.59 1.90487 -3.00987 0
M  V30 8311 O 778.449 3.1318 -4.47862 0
M  V30 8312 H 775.543 0.502621 -0.656736 0
M  V30 8313 H 778.089 0.33588 -1.66343 0
M  V30 8314 H 776.861 1.09732 -3.75599 0
M  V30 8315 H 776.484 2.62841 -2.9833 0
M  V30 8316 N 777.481 1.45874 0.596531 0
M  V30 8317 C 778.73 1.49737 1.35135 0
M  V30 8318 C 779.043 0.147755 1.95041 0
M  V30 8319 O 780.249 0.0640984 2.71424 0
M  V30 8320 C 778.705 2.6378 2.44843 0
M  V30 8321 C 778.313 4.05102 1.91301 0
M  V30 8322 C 780.057 2.769 3.21755 0
M  V30 8323 C 777.964 5.10508 2.98557 0
M  V30 8324 H 776.894 0.557219 0.507959 0
M  V30 8325 H 779.545 1.72046 0.638147 0
M  V30 8326 H 777.927 2.34774 3.189 0
M  V30 8327 H 779.101 4.43836 1.2388 0
M  V30 8328 H 777.416 3.96528 1.271 0
M  V30 8329 H 780.013 3.52819 4.01775 0
M  V30 8330 H 780.356 1.83924 3.73467 0
M  V30 8331 H 780.889 3.05485 2.54802 0
M  V30 8332 H 777.628 6.0523 2.51749 0
M  V30 8333 H 777.148 4.76332 3.6451 0
M  V30 8334 H 778.827 5.35745 3.62748 0
M  V30 8335 N 778.959 -0.83999 1.33349 0
M  V30 8336 C 779.907 -1.97113 1.23488 0
M  V30 8337 C 780.901 -1.68849 0.136503 0
M  V30 8338 O 782.107 -1.77476 0.300389 0
M  V30 8339 H 778.482 -0.647049 0.383185 0
M  V30 8340 H 780.453 -2.02554 2.19122 0
M  V30 8341 C 779.202 -3.33314 0.989815 0
M  V30 8342 H 778.525 -3.556 1.82726 0
M  V30 8343 H 779.965 -4.12963 0.961123 0
M  V30 8344 C 778.424 -3.35496 -0.307272 0
M  V30 8345 O 778.954 -3.79589 -1.31434 0
M  V30 8346 N 777.16 -2.88669 -0.334414 0
M  V30 8347 H 776.707 -2.5298 0.485659 0
M  V30 8348 H 776.665 -2.90512 -1.20209 0
M  V30 8349 N 780.437 -1.16799 -1.0581 0
M  V30 8350 C 781.385 -0.875111 -2.1551 0
M  V30 8351 C 782.379 0.157781 -1.68664 0
M  V30 8352 O 783.585 0.011297 -1.79996 0
M  V30 8353 H 779.96 -0.26542 -0.703602 0
M  V30 8354 H 781.931 -1.8076 -2.37421 0
M  V30 8355 C 780.68 -0.39802 -3.45414 0
M  V30 8356 H 780.003 -1.18425 -3.81858 0
M  V30 8357 H 781.443 -0.231913 -4.23365 0
M  V30 8358 C 779.902 0.88327 -3.25115 0
M  V30 8359 O 780.432 1.95145 -3.51114 0
M  V30 8360 N 778.638 0.828961 -2.78526 0
M  V30 8361 H 778.185 -0.0405029 -2.57568 0
M  V30 8362 H 778.143 1.68673 -2.65324 0
M  V30 8363 N 781.915 1.24427 -0.967243 0
M  V30 8364 C 783.164 1.91789 -0.624478 0
M  V30 8365 C 783.477 1.76448 0.844129 0
M  V30 8366 O 784.683 2.38495 1.2974 0
M  V30 8367 C 783.139 3.43743 -1.06626 0
M  V30 8368 C 782.747 3.67771 -2.55829 0
M  V30 8369 C 784.491 4.16958 -0.79662 0
M  V30 8370 C 782.398 5.13293 -2.93742 0
M  V30 8371 H 781.328 0.71811 -0.229856 0
M  V30 8372 H 783.979 1.41081 -1.17339 0
M  V30 8373 H 782.361 3.93484 -0.445663 0
M  V30 8374 H 783.535 3.28631 -3.23015 0
M  V30 8375 H 781.85 3.07841 -2.80398 0
M  V30 8376 H 784.447 5.24171 -1.05589 0
M  V30 8377 H 784.79 4.15442 0.267163 0
M  V30 8378 H 785.323 3.73164 -1.37816 0
M  V30 8379 H 782.062 5.19931 -3.9919 0
M  V30 8380 H 781.582 5.53433 -2.3124 0
M  V30 8381 H 783.261 5.81521 -2.83623 0
M  V30 8382 N 783.393 0.737304 1.3929 0
M  V30 8383 C 784.639 0.286681 2.00763 0
M  V30 8384 C 784.972 -1.12388 1.58375 0
M  V30 8385 O 784.247 -1.76661 0.813699 0
M  V30 8386 C 784.53 0.391147 3.57969 0
M  V30 8387 C 784.383 1.84165 4.1037 0
M  V30 8388 C 785.702 -0.225072 4.39524 0
M  V30 8389 H 782.821 0.105642 0.729389 0
M  V30 8390 H 785.463 0.933892 1.65464 0
M  V30 8391 H 783.613 -0.159875 3.88171 0
M  V30 8392 H 785.285 2.44972 3.90879 0
M  V30 8393 H 783.528 2.3622 3.63844 0
M  V30 8394 H 784.199 1.866 5.19504 0
M  V30 8395 H 786.675 0.244677 4.1538 0
M  V30 8396 H 785.551 -0.121646 5.48765 0
M  V30 8397 H 785.812 -1.31141 4.22202 0
M  V30 8398 N 784.871 -1.49948 0.485112 0
M  V30 8399 C 786.148 -1.95186 -0.12726 0
M  V30 8400 C 786.528 -1.42605 -1.5565 0
M  V30 8401 O 785.876 -0.632986 -2.19558 0
M  V30 8402 C 786.086 -3.48955 -0.0562117 0
M  V30 8403 C 787.434 -4.23932 -0.238106 0
M  V30 8404 O 788.458 -3.55955 -0.132145 0
M  V30 8405 O 787.317 -5.44614 -0.453658 0
M  V30 8406 H 784.411 -0.820433 -0.104014 0
M  V30 8407 H 786.957 -1.60659 0.546517 0
M  V30 8408 H 785.729 -3.79814 0.941122 0
M  V30 8409 H 785.352 -3.90056 -0.770834 0
M  V30 8410 N 786.349 -0.21828 -1.56081 0
M  V30 8411 C 787.296 0.693189 -2.20144 0
M  V30 8412 C 788.266 1.19274 -1.15598 0
M  V30 8413 O 789.451 1.25243 -1.4394 0
M  V30 8414 C 786.591 1.89715 -2.88275 0
M  V30 8415 C 785.704 1.4368 -4.07407 0
M  V30 8416 C 784.839 2.59807 -4.63329 0
M  V30 8417 C 783.878 2.10492 -5.74769 0
M  V30 8418 N 783.015 3.1988 -6.24997 0
M  V30 8419 H 787.855 0.14016 -2.9767 0
M  V30 8420 H 785.392 0.0574292 -1.46988 0
M  V30 8421 H 787.35 2.60398 -3.25958 0
M  V30 8422 H 785.98 2.42311 -2.13273 0
M  V30 8423 H 785.032 0.625007 -3.7523 0
M  V30 8424 H 786.344 1.03517 -4.8794 0
M  V30 8425 H 785.498 3.38577 -5.03438 0
M  V30 8426 H 784.237 3.03256 -3.81951 0
M  V30 8427 H 783.242 1.30182 -5.34165 0
M  V30 8428 H 784.467 1.68045 -6.5798 0
M  V30 8429 H 782.413 3.62817 -5.46534 0
M  V30 8430 H 782.33 2.83958 -7.00645 0
M  V30 8431 H 783.598 3.98796 -6.69763 0
M  V30 8432 N 787.827 1.57504 0.0551401 0
M  V30 8433 C 789.076 1.87237 0.750009 0
M  V30 8434 C 789.389 0.813268 1.77891 0
M  V30 8435 O 790.595 0.99898 2.52453 0
M  V30 8436 C 789.051 3.32187 1.38491 0
M  V30 8437 C 788.659 4.46267 0.393707 0
M  V30 8438 C 790.403 3.71101 2.06117 0
M  V30 8439 C 788.31 5.82265 1.03547 0
M  V30 8440 H 787.24 0.698524 0.283866 0
M  V30 8441 H 789.891 1.835 0.00365997 0
M  V30 8442 H 788.273 3.30588 2.18008 0
M  V30 8443 H 789.447 4.59289 -0.372865 0
M  V30 8444 H 787.762 4.16015 -0.17902 0
M  V30 8445 H 790.359 4.70012 2.54937 0
M  V30 8446 H 790.702 3.01751 2.86796 0
M  V30 8447 H 791.235 3.74762 1.33409 0
M  V30 8448 H 787.974 6.54949 0.268644 0
M  V30 8449 H 787.494 5.73012 1.7725 0
M  V30 8450 H 789.173 6.28148 1.55047 0
M  V30 8451 N 789.305 -0.326896 1.54172 0
M  V30 8452 C 790.238 -1.42591 1.78166 0
M  V30 8453 C 791.216 -1.49837 0.631484 0
M  V30 8454 O 792.4 -1.67298 0.868544 0
M  V30 8455 C 789.527 -2.8071 1.89524 0
M  V30 8456 C 788.573 -2.91012 3.11792 0
M  V30 8457 S 789.406 -2.55763 4.70474 0
M  V30 8458 C 790.562 -3.9596 4.84733 0
M  V30 8459 H 790.795 -1.22024 2.71104 0
M  V30 8460 H 788.328 -0.523539 1.45253 0
M  V30 8461 H 790.286 -3.60276 1.96753 0
M  V30 8462 H 788.947 -2.98562 0.975696 0
M  V30 8463 H 788.14 -3.92258 3.16464 0
M  V30 8464 H 787.742 -2.19414 3.02876 0
M  V30 8465 H 790.034 -4.90676 4.67166 0
M  V30 8466 H 790.977 -3.96273 5.86833 0
M  V30 8467 H 791.385 -3.8476 4.13062 0
M  V30 8468 N 790.784 -1.46188 -0.588786 0
M  V30 8469 C 791.716 -1.52319 -1.71265 0
M  V30 8470 C 792.729 -0.412096 -1.57498 0
M  V30 8471 O 793.918 -0.680146 -1.65034 0
M  V30 8472 C 791.018 -1.38164 -3.09458 0
M  V30 8473 C 790.191 -2.63284 -3.49286 0
M  V30 8474 C 789.25 -2.43415 -4.66514 0
M  V30 8475 O 788.276 -3.17113 -4.72682 0
M  V30 8476 N 789.478 -1.49187 -5.61002 0
M  V30 8477 H 792.243 -2.49219 -1.66463 0
M  V30 8478 H 789.804 -1.42167 -0.774601 0
M  V30 8479 H 791.796 -1.22653 -3.85666 0
M  V30 8480 H 790.366 -0.494678 -3.08661 0
M  V30 8481 H 789.586 -2.93779 -2.62845 0
M  V30 8482 H 790.874 -3.46413 -3.7266 0
M  V30 8483 H 790.272 -0.884027 -5.5875 0
M  V30 8484 H 788.829 -1.39642 -6.36666 0
M  V30 8485 N 792.262 0.832906 -1.33792 0
M  V30 8486 C 793.49 1.62048 -1.28639 0
M  V30 8487 C 793.905 1.88269 0.141522 0
M  V30 8488 O 793.262 1.46706 1.08553 0
M  V30 8489 C 793.313 2.96722 -2.0649 0
M  V30 8490 O 793.034 2.7165 -3.43712 0
M  V30 8491 C 794.535 3.91144 -2.08617 0
M  V30 8492 H 791.755 0.504032 -0.442937 0
M  V30 8493 H 794.299 1.03704 -1.76255 0
M  V30 8494 H 792.454 3.51652 -1.62541 0
M  V30 8495 H 792.868 3.57453 -3.83833 0
M  V30 8496 H 794.342 4.82837 -2.67531 0
M  V30 8497 H 794.819 4.25766 -1.07796 0
M  V30 8498 H 795.425 3.42152 -2.52611 0
M  V30 8499 N 793.74 1.17359 1.05189 0
M  V30 8500 C 794.989 0.956412 1.77583 0
M  V30 8501 C 795.302 -0.516018 1.88671 0
M  V30 8502 O 796.508 -0.851401 2.57805 0
M  V30 8503 C 794.964 1.66203 3.19225 0
M  V30 8504 C 794.572 3.17299 3.16267 0
M  V30 8505 C 796.316 1.52725 3.96075 0
M  V30 8506 C 794.223 3.8055 4.52698 0
M  V30 8507 H 793.153 0.354204 0.665624 0
M  V30 8508 H 795.804 1.40612 1.17901 0
M  V30 8509 H 794.186 1.14006 3.79234 0
M  V30 8510 H 795.36 3.76431 2.65776 0
M  V30 8511 H 793.675 3.3079 2.52917 0
M  V30 8512 H 796.272 1.97351 4.96947 0
M  V30 8513 H 796.615 0.477803 4.13549 0
M  V30 8514 H 797.148 2.02139 3.42614 0
M  V30 8515 H 793.887 4.85492 4.4043 0
M  V30 8516 H 793.407 3.26206 5.03339 0
M  V30 8517 H 795.086 3.82757 5.21638 0
M  V30 8518 N 795.218 -1.23913 0.973828 0
M  V30 8519 C 796.466 -1.91771 0.637817 0
M  V30 8520 C 796.787 -1.76434 -0.830435 0
M  V30 8521 O 796.057 -1.13965 -1.59339 0
M  V30 8522 H 794.637 -0.709761 0.232912 0
M  V30 8523 H 797.299 -1.50677 1.23622 0
M  V30 8524 H 796.395 -2.99327 0.883731 0
M  V30 8525 N 796.696 -0.74468 -1.38897 0
M  V30 8526 C 797.643 -0.111064 -2.30533 0
M  V30 8527 C 798.613 0.719276 -1.49719 0
M  V30 8528 O 799.798 0.677244 -1.78376 0
M  V30 8529 C 796.938 0.78292 -3.36102 0
M  V30 8530 C 796.051 -0.0610817 -4.31957 0
M  V30 8531 C 795.186 0.835075 -5.24595 0
M  V30 8532 C 794.225 -0.0130974 -6.12099 0
M  V30 8533 N 793.362 0.839525 -6.97063 0
M  V30 8534 H 798.202 -0.898113 -2.84144 0
M  V30 8535 H 795.739 -0.454537 -1.39901 0
M  V30 8536 H 797.697 1.31578 -3.95908 0
M  V30 8537 H 796.327 1.53585 -2.83922 0
M  V30 8538 H 795.379 -0.711469 -3.73687 0
M  V30 8539 H 796.691 -0.716482 -4.93627 0
M  V30 8540 H 795.845 1.43542 -5.89475 0
M  V30 8541 H 794.584 1.52423 -4.63269 0
M  V30 8542 H 793.589 -0.626179 -5.46223 0
M  V30 8543 H 794.814 -0.699181 -6.75491 0
M  V30 8544 H 792.76 1.5138 -6.38295 0
M  V30 8545 H 792.677 0.240823 -7.55616 0
M  V30 8546 H 793.945 1.42513 -7.66362 0
M  V30 8547 N 798.174 1.49689 -0.493057 0
M  V30 8548 C 799.106 2.26867 0.326195 0
M  V30 8549 C 800.119 1.33083 0.937697 0
M  V30 8550 O 801.308 1.58427 0.822382 0
M  V30 8551 C 798.408 3.0519 1.4735 0
M  V30 8552 C 797.581 4.26491 0.970767 0
M  V30 8553 C 796.64 4.86926 1.99473 0
M  V30 8554 O 795.666 5.47221 1.56647 0
M  V30 8555 N 796.868 4.75871 3.32456 0
M  V30 8556 H 799.633 2.97816 -0.335547 0
M  V30 8557 H 797.194 1.58602 -0.325129 0
M  V30 8558 H 799.186 3.42496 2.15589 0
M  V30 8559 H 797.756 2.369 2.03954 0
M  V30 8560 H 796.976 3.94036 0.113529 0
M  V30 8561 H 798.264 5.05092 0.613156 0
M  V30 8562 H 797.662 4.2797 3.69944 0
M  V30 8563 H 796.219 5.17383 3.96431 0
M  V30 8564 N 799.652 0.226554 1.55963 0
M  V30 8565 C 801.063 -0.280381 1.84583 0
M  V30 8566 C 801.414 -1.59105 1.14804 0
M  V30 8567 O 800.539 -2.12297 0.419414 0
M  V30 8568 C 801.134 -0.515499 3.34855 0
M  V30 8569 C 799.693 -0.966733 3.63774 0
M  V30 8570 C 798.84 -0.0325753 2.77281 0
M  V30 8571 H 801.791 0.449626 1.52197 0
M  V30 8572 H 801.812 -1.36085 3.55332 0
M  V30 8573 H 801.324 0.438594 3.85614 0
M  V30 8574 H 799.425 -1.93401 3.18476 0
M  V30 8575 H 799.538 -0.837679 4.7172 0
M  V30 8576 H 797.902 -0.540279 2.48904 0
M  V30 8577 H 798.685 0.916524 3.30839 0
M  V30 8578 N 801.13 -1.57531 -0.0467866 0
M  V30 8579 C 802.378 -1.88078 -0.739656 0
M  V30 8580 C 802.699 -0.821936 -1.76831 0
M  V30 8581 O 801.969 0.146582 -1.95351 0
M  V30 8582 H 800.549 -0.694075 -0.276169 0
M  V30 8583 H 803.211 -1.94893 -0.0169391 0
M  V30 8584 H 802.307 -2.86396 -1.24031 0
M  V30 8585 N 802.608 0.318715 -1.54344 0
M  V30 8586 C 803.855 1.05608 -1.72781 0
M  V30 8587 C 804.183 1.87854 -0.504083 0
M  V30 8588 O 803.438 1.88826 0.51414 0
M  V30 8589 C 803.737 2.00514 -2.95853 0
M  V30 8590 C 803.403 1.34385 -4.30409 0
M  V30 8591 C 802.065 1.16081 -4.66989 0
M  V30 8592 C 804.417 0.869627 -5.13894 0
M  V30 8593 C 801.745 0.490114 -5.84649 0
M  V30 8594 C 804.097 0.212735 -6.32242 0
M  V30 8595 C 802.761 0.0175882 -6.67498 0
M  V30 8596 H 802.031 0.386449 -0.632249 0
M  V30 8597 H 804.678 0.332729 -1.88587 0
M  V30 8598 H 802.983 2.79317 -2.74753 0
M  V30 8599 H 804.68 2.57605 -3.07312 0
M  V30 8600 H 801.27 1.49634 -4.01631 0
M  V30 8601 H 805.454 0.998809 -4.86146 0
M  V30 8602 H 800.71 0.327767 -6.10521 0
M  V30 8603 H 804.884 -0.162699 -6.9621 0
M  V30 8604 H 802.511 -0.504137 -7.58527 0
M  V30 8605 N 804.086 1.46499 0.581025 0
M  V30 8606 C 805.335 1.51162 1.3354 0
M  V30 8607 C 805.648 0.168433 1.94873 0
M  V30 8608 O 806.854 0.092883 2.71341 0
M  V30 8609 C 805.31 2.66362 2.42032 0
M  V30 8610 C 804.918 4.07109 1.86994 0
M  V30 8611 C 806.662 2.80297 3.188 0
M  V30 8612 C 804.569 5.13645 2.93125 0
M  V30 8613 H 803.499 0.562576 0.502021 0
M  V30 8614 H 806.15 1.72713 0.619863 0
M  V30 8615 H 804.532 2.38143 3.16392 0
M  V30 8616 H 805.706 4.45125 1.19166 0
M  V30 8617 H 804.021 3.97854 1.22887 0
M  V30 8618 H 806.618 3.5706 3.9801 0
M  V30 8619 H 806.961 1.87875 3.71495 0
M  V30 8620 H 807.494 3.0817 2.51547 0
M  V30 8621 H 804.233 6.07866 2.45315 0
M  V30 8622 H 803.753 4.80172 3.59437 0
M  V30 8623 H 805.432 5.39562 3.57046 0
M  V30 8624 N 805.565 -0.825799 1.34232 0
M  V30 8625 C 806.812 -1.58185 1.26427 0
M  V30 8626 C 807.14 -1.93786 -0.166533 0
M  V30 8627 O 806.395 -1.59986 -1.12707 0
M  V30 8628 C 806.694 -2.89362 2.09772 0
M  V30 8629 C 806.36 -2.73066 3.58812 0
M  V30 8630 C 805.022 -2.68329 3.99441 0
M  V30 8631 C 807.374 -2.56946 4.53462 0
M  V30 8632 C 804.702 -2.4539 5.32917 0
M  V30 8633 C 807.054 -2.35538 5.87115 0
M  V30 8634 C 805.718 -2.29212 6.26912 0
M  V30 8635 H 804.988 -0.57884 0.462629 0
M  V30 8636 H 807.635 -0.955714 1.65947 0
M  V30 8637 H 805.94 -3.56251 1.63071 0
M  V30 8638 H 807.637 -3.4694 2.01081 0
M  V30 8639 H 804.227 -2.77591 3.26559 0
M  V30 8640 H 808.411 -2.59631 4.22972 0
M  V30 8641 H 803.667 -2.38947 5.62774 0
M  V30 8642 H 807.841 -2.22051 6.6005 0
M  V30 8643 H 805.468 -2.11197 7.30274 0
M  V30 8644 N 807.043 -1.17915 -1.04565 0
M  V30 8645 C 807.99 -0.901605 -2.12461 0
M  V30 8646 C 808.96 0.157011 -1.65356 0
M  V30 8647 O 810.145 0.0184494 -1.90791 0
M  V30 8648 C 807.285 -0.42796 -3.42436 0
M  V30 8649 C 806.398 -1.55142 -4.03181 0
M  V30 8650 C 805.533 -1.03101 -5.21098 0
M  V30 8651 C 804.572 -2.1295 -5.73863 0
M  V30 8652 N 803.709 -1.62339 -6.83074 0
M  V30 8653 H 808.549 -1.82551 -2.3554 0
M  V30 8654 H 806.086 -0.910389 -1.15544 0
M  V30 8655 H 808.044 -0.134859 -4.16982 0
M  V30 8656 H 806.674 0.458977 -3.1952 0
M  V30 8657 H 805.726 -1.96011 -3.26012 0
M  V30 8658 H 807.038 -2.37968 -4.38375 0
M  V30 8659 H 806.192 -0.692132 -6.02739 0
M  V30 8660 H 804.931 -0.17227 -4.87396 0
M  V30 8661 H 803.936 -2.47687 -4.90847 0
M  V30 8662 H 805.161 -2.9925 -6.09611 0
M  V30 8663 H 803.107 -0.787464 -6.51256 0
M  V30 8664 H 803.024 -2.38767 -7.17305 0
M  V30 8665 H 804.292 -1.31363 -7.68351 0
M  V30 8666 N 808.521 1.23394 -0.980386 0
M  V30 8667 C 809.749 1.95844 -0.667286 0
M  V30 8668 C 810.164 1.72574 0.765735 0
M  V30 8669 O 809.521 1.01715 1.51526 0
M  V30 8670 C 809.572 3.48844 -0.948151 0
M  V30 8671 O 809.293 3.71325 -2.32485 0
M  V30 8672 C 810.794 4.38494 -0.651002 0
M  V30 8673 H 808.014 0.623535 -0.247882 0
M  V30 8674 H 810.558 1.56885 -1.31176 0
M  V30 8675 H 808.713 3.85819 -0.349681 0
M  V30 8676 H 809.127 4.65619 -2.41452 0
M  V30 8677 H 810.601 5.44648 -0.897887 0
M  V30 8678 H 811.078 4.37236 0.414922 0
M  V30 8679 H 811.684 4.07127 -1.22995 0
M  V30 8680 N 809.999 0.752036 1.385 0
M  V30 8681 C 810.929 0.138718 2.33088 0
M  V30 8682 C 811.91 -0.705318 1.54788 0
M  V30 8683 O 813.095 -0.646821 1.83112 0
M  V30 8684 C 810.225 -0.75641 3.38963 0
M  V30 8685 C 809.179 -0.0152239 4.27997 0
M  V30 8686 C 808.505 -1.0285 5.24715 0
M  V30 8687 C 809.805 1.15226 5.09431 0
M  V30 8688 H 811.499 0.928852 2.84627 0
M  V30 8689 H 809.045 0.448111 1.3685 0
M  V30 8690 H 810.998 -1.19513 4.04097 0
M  V30 8691 H 809.722 -1.57885 2.85902 0
M  V30 8692 H 808.381 0.404061 3.64366 0
M  V30 8693 H 808.029 -1.84496 4.67943 0
M  V30 8694 H 807.729 -0.537238 5.85139 0
M  V30 8695 H 809.253 -1.46657 5.92726 0
M  V30 8696 H 810.667 0.791161 5.67815 0
M  V30 8697 H 809.064 1.57428 5.79082 0
M  V30 8698 H 810.134 1.9659 4.43261 0
M  V30 8699 N 811.477 -1.49425 0.500989 0
M  V30 8700 C 812.726 -2.01649 -0.04538 0
M  V30 8701 C 813.039 -1.38572 -1.38047 0
M  V30 8702 O 814.245 -1.82124 -2.01353 0
M  V30 8703 C 812.701 -3.5966 -0.131337 0
M  V30 8704 C 812.309 -4.3171 1.19711 0
M  V30 8705 C 814.053 -4.19828 -0.628071 0
M  V30 8706 C 811.96 -5.81579 1.07332 0
M  V30 8707 H 810.89 -0.753715 -0.0207329 0
M  V30 8708 H 813.541 -1.71962 0.640407 0
M  V30 8709 H 811.923 -3.86063 -0.881574 0
M  V30 8710 H 813.097 -4.17008 1.96064 0
M  V30 8711 H 811.412 -3.83286 1.62729 0
M  V30 8712 H 814.009 -5.2958 -0.738198 0
M  V30 8713 H 814.352 -3.83194 -1.6269 0
M  V30 8714 H 814.885 -3.97746 0.0656314 0
M  V30 8715 H 811.624 -6.22738 2.04642 0
M  V30 8716 H 811.144 -5.98774 0.350679 0
M  V30 8717 H 812.823 -6.42614 0.752047 0
M  V30 8718 N 812.955 -0.234822 -1.55841 0
M  V30 8719 C 814.232 0.442961 -1.90518 0
M  V30 8720 C 814.612 1.76768 -1.15397 0
M  V30 8721 O 813.96 2.26928 -0.267534 0
M  V30 8722 C 814.17 0.622905 -3.43396 0
M  V30 8723 C 815.518 0.9243 -4.14417 0
M  V30 8724 O 816.542 0.709211 -3.49068 0
M  V30 8725 O 815.401 1.33323 -5.29988 0
M  V30 8726 H 812.495 0.236042 -0.792599 0
M  V30 8727 H 815.041 -0.277992 -1.67408 0
M  V30 8728 H 813.813 -0.310973 -3.90062 0
M  V30 8729 H 813.436 1.39485 -3.7233 0
M  V30 8730 N 814.433 1.57553 0.0384317 0
M  V30 8731 C 815.343 2.09333 1.0591 0
M  V30 8732 C 816.359 1.0299 1.40247 0
M  V30 8733 O 817.535 1.34669 1.49754 0
M  V30 8734 C 814.6 2.55468 2.34386 0
M  V30 8735 C 813.661 3.76254 2.06716 0
M  V30 8736 C 812.894 4.20179 3.29067 0
M  V30 8737 O 813.117 3.637 4.39407 0
M  V30 8738 O 812.051 5.12697 3.15317 0
M  V30 8739 H 815.877 2.96683 0.649087 0
M  V30 8740 H 813.462 1.47211 0.254802 0
M  V30 8741 H 815.344 2.85514 3.09935 0
M  V30 8742 H 814.019 1.71234 2.74701 0
M  V30 8743 H 812.926 3.51241 1.28766 0
M  V30 8744 H 814.259 4.61443 1.71263 0
M  V30 8745 N 815.911 -0.310526 1.54511 0
M  V30 8746 C 816.858 -1.38264 1.84802 0
M  V30 8747 C 817.828 -1.50808 0.696141 0
M  V30 8748 O 819.013 -1.6582 0.943846 0
M  V30 8749 C 816.153 -2.74422 2.09252 0
M  V30 8750 C 815.266 -2.70405 3.36906 0
M  V30 8751 C 814.401 -3.98495 3.51248 0
M  V30 8752 C 813.44 -3.88836 4.72729 0
M  V30 8753 N 812.577 -5.08683 4.83928 0
M  V30 8754 H 817.417 -1.11732 2.76261 0
M  V30 8755 H 814.954 -0.540609 1.36806 0
M  V30 8756 H 816.912 -3.53593 2.21422 0
M  V30 8757 H 815.542 -2.99235 1.2107 0
M  V30 8758 H 814.594 -1.83151 3.33406 0
M  V30 8759 H 815.906 -2.59155 4.26193 0
M  V30 8760 H 815.06 -4.861 3.63031 0
M  V30 8761 H 813.799 -4.12567 2.60077 0
M  V30 8762 H 812.804 -2.99615 4.60989 0
M  V30 8763 H 814.029 -3.76318 5.65298 0
M  V30 8764 H 811.975 -5.23236 3.95677 0
M  V30 8765 H 811.892 -4.99819 5.67201 0
M  V30 8766 H 813.16 -5.97966 5.00057 0
M  V30 8767 N 817.389 -1.46805 -0.573248 0
M  V30 8768 C 818.299 -1.60687 -1.70929 0
M  V30 8769 C 819.315 -0.490084 -1.66956 0
M  V30 8770 O 820.491 -0.755482 -1.86693 0
M  V30 8771 C 817.556 -1.60259 -3.07438 0
M  V30 8772 C 816.617 -2.83242 -3.22603 0
M  V30 8773 C 815.85 -2.82825 -4.52599 0
M  V30 8774 O 816.073 -1.92113 -5.37074 0
M  V30 8775 O 815.007 -3.74489 -4.71213 0
M  V30 8776 H 818.833 -2.56782 -1.62163 0
M  V30 8777 H 816.418 -1.29706 -0.741399 0
M  V30 8778 H 818.3 -1.6275 -3.88704 0
M  V30 8779 H 816.975 -0.673268 -3.16621 0
M  V30 8780 H 815.882 -2.86302 -2.40794 0
M  V30 8781 H 817.215 -3.75415 -3.18315 0
M  V30 8782 N 818.867 0.818669 -1.34668 0
M  V30 8783 C 819.815 1.95123 -1.26609 0
M  V30 8784 C 820.809 1.68611 -0.163348 0
M  V30 8785 O 822.015 1.76975 -0.328586 0
M  V30 8786 H 818.39 0.640871 -0.393431 0
M  V30 8787 H 820.361 1.99043 -2.22316 0
M  V30 8788 C 819.11 3.31697 -1.04272 0
M  V30 8789 H 818.433 3.52648 -1.8836 0
M  V30 8790 H 819.873 4.11382 -1.0267 0
M  V30 8791 C 818.332 3.35942 0.253858 0
M  V30 8792 O 818.862 3.81632 1.25378 0
M  V30 8793 N 817.068 2.89165 0.288447 0
M  V30 8794 H 816.615 2.52176 -0.525845 0
M  V30 8795 H 816.573 2.92387 1.15572 0
M  V30 8796 N 820.346 1.18468 1.03938 0
M  V30 8797 C 821.294 0.909286 2.14091 0
M  V30 8798 C 822.288 -0.130928 1.68893 0
M  V30 8799 O 823.494 0.0173403 1.79992 0
M  V30 8800 H 819.869 0.27658 0.699291 0
M  V30 8801 H 821.84 1.84514 2.34515 0
M  V30 8802 C 820.589 0.452922 3.44737 0
M  V30 8803 H 819.912 1.24485 3.79926 0
M  V30 8804 H 821.352 0.299238 4.22943 0
M  V30 8805 C 819.811 -0.831435 3.26479 0
M  V30 8806 O 820.341 -1.89535 3.54174 0
M  V30 8807 N 818.547 -0.784545 2.79809 0
M  V30 8808 H 818.094 0.0814746 2.57471 0
M  V30 8809 H 818.052 -1.64431 2.67973 0
M  V30 8810 N 821.824 -1.22873 0.986916 0
M  V30 8811 C 822.772 -2.26597 0.525043 0
M  V30 8812 C 823.766 -1.64079 -0.421252 0
M  V30 8813 O 824.972 -1.77576 -0.294429 0
M  V30 8814 H 821.347 -0.736606 0.151381 0
M  V30 8815 H 823.318 -2.62909 1.41142 0
M  V30 8816 C 822.067 -3.47374 -0.150542 0
M  V30 8817 H 821.39 -3.95737 0.568541 0
M  V30 8818 H 822.83 -4.21739 -0.437256 0
M  V30 8819 C 821.289 -3.07163 -1.38392 0
M  V30 8820 O 821.819 -3.16028 -2.47971 0
M  V30 8821 N 820.025 -2.62009 -1.25697 0
M  V30 8822 H 819.572 -2.54996 -0.365355 0
M  V30 8823 H 819.53 -2.35472 -2.08327 0
M  V30 8824 N 823.302 -0.75937 -1.38099 0
M  V30 8825 C 824.25 -0.124954 -2.32264 0
M  V30 8826 C 825.244 0.698863 -1.54312 0
M  V30 8827 O 826.45 0.597312 -1.698 0
M  V30 8828 H 822.825 -0.0216142 -0.751689 0
M  V30 8829 H 824.796 -0.935115 -2.83369 0
M  V30 8830 C 823.545 0.749463 -3.39527 0
M  V30 8831 H 822.868 0.124932 -3.99605 0
M  V30 8832 H 824.308 1.16055 -4.07808 0
M  V30 8833 C 822.767 1.89464 -2.78577 0
M  V30 8834 O 823.297 2.98923 -2.68343 0
M  V30 8835 N 821.503 1.69145 -2.36301 0
M  V30 8836 H 821.05 0.801157 -2.44825 0
M  V30 8837 H 821.008 2.45936 -1.95864 0
M  V30 8838 N 824.78 1.49157 -0.508906 0
M  V30 8839 C 825.728 2.30922 0.278906 0
M  V30 8840 C 826.722 1.39889 0.955382 0
M  V30 8841 O 827.928 1.56901 0.882169 0
M  V30 8842 H 824.303 0.744087 0.108805 0
M  V30 8843 H 826.274 2.95277 -0.430583 0
M  V30 8844 C 825.023 3.21432 1.32576 0
M  V30 8845 H 824.346 3.91413 0.814634 0
M  V30 8846 H 825.786 3.81568 1.84882 0
M  V30 8847 C 824.245 2.41583 2.34817 0
M  V30 8848 O 824.775 2.1256 3.40854 0
M  V30 8849 N 822.981 2.03462 2.07489 0
M  V30 8850 H 822.528 2.27265 1.21278 0
M  V30 8851 H 822.486 1.50345 2.76123 0
M  V30 8852 N 826.258 0.243083 1.55714 0
M  V30 8853 C 827.206 -0.674349 2.2261 0
M  V30 8854 C 828.2 -1.18307 1.21243 0
M  V30 8855 O 829.406 -1.1404 1.39265 0
M  V30 8856 H 825.781 -0.235941 0.714028 0
M  V30 8857 H 827.752 -0.0869446 2.98273 0
M  V30 8858 C 826.501 -1.86206 2.93637 0
M  V30 8859 H 825.824 -1.47975 3.71407 0
M  V30 8860 H 827.264 -2.4813 3.43813 0
M  V30 8861 C 825.723 -2.73084 1.97298 0
M  V30 8862 O 826.253 -3.72497 1.50361 0
M  V30 8863 N 824.459 -2.39571 1.64482 0
M  V30 8864 H 824.006 -1.5878 2.02846 0
M  V30 8865 H 823.964 -2.97976 1.00288 0
M  V30 8866 N 827.736 -1.57571 -0.0300757 0
M  V30 8867 C 828.684 -2.0758 -1.04944 0
M  V30 8868 C 829.678 -0.989384 -1.37505 0
M  V30 8869 O 830.884 -1.17427 -1.36422 0
M  V30 8870 H 827.259 -0.662419 -0.355956 0
M  V30 8871 H 829.23 -2.92268 -0.601848 0
M  V30 8872 C 827.979 -2.5698 -2.34215 0
M  V30 8873 H 827.302 -3.40193 -2.10021 0
M  V30 8874 H 828.742 -2.95682 -3.03888 0
M  V30 8875 C 827.201 -1.47059 -3.03109 0
M  V30 8876 O 827.731 -0.83625 -3.92899 0
M  V30 8877 N 825.937 -1.20538 -2.64422 0
M  V30 8878 H 825.484 -1.72305 -1.9149 0
M  V30 8879 H 825.442 -0.472045 -3.10836 0
M  V30 8880 N 829.214 0.302327 -1.54673 0
M  V30 8881 C 830.162 1.39286 -1.86285 0
M  V30 8882 C 831.156 1.52553 -0.736478 0
M  V30 8883 O 832.362 1.54686 -0.92045 0
M  V30 8884 H 828.737 0.465228 -0.590819 0
M  V30 8885 H 830.708 1.09859 -2.77441 0
M  V30 8886 C 829.457 2.75155 -2.12567 0
M  V30 8887 H 828.78 2.65728 -2.98712 0
M  V30 8888 H 830.22 3.50476 -2.38627 0
M  V30 8889 C 828.679 3.23987 -0.923813 0
M  V30 8890 O 829.209 4.01443 -0.143649 0
M  V30 8891 N 827.415 2.81293 -0.72956 0
M  V30 8892 H 826.962 2.18421 -1.36565 0
M  V30 8893 H 826.92 3.14315 0.0730351 0
M  V30 8894 N 830.692 1.47107 0.565454 0
M  V30 8895 C 831.64 1.59368 1.69424 0
M  V30 8896 C 832.634 0.461344 1.62997 0
M  V30 8897 O 833.84 0.638849 1.68282 0
M  V30 8898 H 830.215 0.501387 0.560459 0
M  V30 8899 H 832.186 2.54242 1.56217 0
M  V30 8900 C 830.935 1.61739 3.07792 0
M  V30 8901 H 830.258 2.48215 3.13416 0
M  V30 8902 H 831.698 1.7437 3.86486 0
M  V30 8903 C 830.157 0.349156 3.35086 0
M  V30 8904 O 830.687 -0.553287 3.97871 0
M  V30 8905 N 828.893 0.231723 2.89675 0
M  V30 8906 H 828.44 0.967021 2.3876 0
M  V30 8907 H 828.398 -0.615911 3.08308 0
M  V30 8908 N 832.17 -0.811516 1.35101 0
M  V30 8909 C 833.395 -1.60499 1.31358 0
M  V30 8910 C 833.82 -1.87793 -0.107383 0
M  V30 8911 O 833.178 -1.46161 -1.07268 0
M  V30 8912 C 833.226 -2.91612 2.12119 0
M  V30 8913 O 832.33 -3.84211 1.49853 0
M  V30 8914 H 831.671 -0.487702 0.450603 0
M  V30 8915 H 834.201 -1.00758 1.7807 0
M  V30 8916 H 834.211 -3.4108 2.23894 0
M  V30 8917 H 832.886 -2.71071 3.15426 0
M  V30 8918 H 831.463 -3.42751 1.46889 0
M  V30 8919 N 833.648 -1.19017 -1.03309 0
M  V30 8920 C 834.876 -1.01534 -1.80273 0
M  V30 8921 C 835.291 0.43605 -1.83696 0
M  V30 8922 O 834.648 1.30288 -1.27794 0
M  V30 8923 C 834.699 -1.5722 -3.25522 0
M  V30 8924 O 834.42 -2.96677 -3.22358 0
M  V30 8925 C 835.921 -1.4446 -4.19102 0
M  V30 8926 H 833.141 -0.358094 -0.567459 0
M  V30 8927 H 835.685 -1.57738 -1.3015 0
M  V30 8928 H 833.84 -1.05174 -3.7285 0
M  V30 8929 H 834.254 -3.22795 -4.13405 0
M  V30 8930 H 835.728 -1.88209 -5.18923 0
M  V30 8931 H 836.205 -0.394471 -4.37425 0
M  V30 8932 H 836.811 -1.95616 -3.77643 0
M  V30 8933 N 835.127 1.22348 -0.993418 0
M  V30 8934 C 836.075 2.26315 -0.537052 0
M  V30 8935 C 837.069 1.643 0.412545 0
M  V30 8936 O 838.275 1.77729 0.285008 0
M  V30 8937 H 834.65 0.735792 -0.155286 0
M  V30 8938 H 836.621 2.62157 -1.42535 0
M  V30 8939 C 835.37 3.47449 0.132118 0
M  V30 8940 H 834.693 3.9543 -0.589519 0
M  V30 8941 H 836.133 4.21965 0.414884 0
M  V30 8942 C 834.592 3.07893 1.36761 0
M  V30 8943 O 835.122 3.17338 2.46291 0
M  V30 8944 N 833.328 2.62672 1.24305 0
M  V30 8945 H 832.875 2.55186 0.351826 0
M  V30 8946 H 832.833 2.36574 2.07076 0
M  V30 8947 N 836.605 0.766683 1.37694 0
M  V30 8948 C 837.537 0.107798 2.28946 0
M  V30 8949 C 838.55 -0.669701 1.48387 0
M  V30 8950 O 839.739 -0.508629 1.711 0
M  V30 8951 C 836.839 -0.871084 3.27514 0
M  V30 8952 C 836.012 -0.148471 4.37148 0
M  V30 8953 C 835.071 -1.03998 5.1582 0
M  V30 8954 O 834.097 -0.505639 5.6695 0
M  V30 8955 N 835.299 -2.36679 5.3006 0
M  V30 8956 H 838.064 0.89154 2.86132 0
M  V30 8957 H 835.625 0.618593 1.49616 0
M  V30 8958 H 837.617 -1.47081 3.77027 0
M  V30 8959 H 836.187 -1.55582 2.71133 0
M  V30 8960 H 835.407 0.632117 3.89099 0
M  V30 8961 H 836.695 0.351045 5.07588 0
M  V30 8962 H 836.093 -2.82532 4.90094 0
M  V30 8963 H 834.65 -2.9167 5.82899 0
M  V30 8964 N 838.083 -1.48885 0.516809 0
M  V30 8965 C 839.016 -2.26218 -0.30011 0
M  V30 8966 C 839.994 -1.31491 -0.956496 0
M  V30 8967 O 841.178 -1.6081 -0.983488 0
M  V30 8968 C 838.305 -3.07315 -1.42392 0
M  V30 8969 C 837.351 -4.17316 -0.880295 0
M  V30 8970 S 838.184 -5.34955 0.24146 0
M  V30 8971 C 839.34 -6.1961 -0.885138 0
M  V30 8972 H 839.573 -2.95158 0.356217 0
M  V30 8973 H 837.106 -1.5141 0.302365 0
M  V30 8974 H 839.064 -3.54619 -2.06775 0
M  V30 8975 H 837.725 -2.37813 -2.05192 0
M  V30 8976 H 836.918 -4.73635 -1.72297 0
M  V30 8977 H 836.52 -3.72685 -0.313396 0
M  V30 8978 H 838.812 -6.53513 -1.78682 0
M  V30 8979 H 839.755 -7.07183 -0.360226 0
M  V30 8980 H 840.163 -5.52461 -1.1596 0
M  V30 8981 N 839.561 -0.251338 -1.55583 0
M  V30 8982 C 840.791 0.375642 -2.03156 0
M  V30 8983 C 841.199 1.51761 -1.12983 0
M  V30 8984 O 840.542 1.83184 -0.13757 0
M  V30 8985 C 840.604 0.941001 -3.46966 0
M  V30 8986 C 840.268 -0.0692886 -4.56947 0
M  V30 8987 C 841.265 -0.88041 -5.12391 0
M  V30 8988 C 838.95 -0.196661 -5.01915 0
M  V30 8989 C 840.944 -1.80532 -6.11299 0
M  V30 8990 C 838.631 -1.12507 -6.00654 0
M  V30 8991 C 839.629 -1.92792 -6.55225 0
M  V30 8992 O 839.317 -2.84067 -7.52038 0
M  V30 8993 H 839.049 0.0928836 -0.669588 0
M  V30 8994 H 841.603 -0.374115 -2.01964 0
M  V30 8995 H 839.833 1.7404 -3.45322 0
M  V30 8996 H 841.522 1.47853 -3.78014 0
M  V30 8997 H 842.288 -0.792615 -4.78479 0
M  V30 8998 H 838.167 0.418187 -4.59099 0
M  V30 8999 H 841.711 -2.43239 -6.5382 0
M  V30 9000 H 837.608 -1.21377 -6.33986 0
M  V30 9001 H 838.376 -2.78479 -7.6967 0
M  V30 9002 N 841.039 1.57585 0.0217189 0
M  V30 9003 C 841.971 2.03849 1.04777 0
M  V30 9004 C 842.984 0.952558 1.32023 0
M  V30 9005 O 844.173 1.22974 1.29381 0
M  V30 9006 C 841.273 2.40504 2.3877 0
M  V30 9007 C 840.446 3.71566 2.30775 0
M  V30 9008 C 839.505 3.95329 3.47277 0
M  V30 9009 O 838.531 4.66289 3.26441 0
M  V30 9010 N 839.733 3.41536 4.69397 0
M  V30 9011 H 842.498 2.92491 0.653395 0
M  V30 9012 H 840.059 1.60538 0.209527 0
M  V30 9013 H 842.051 2.53532 3.15442 0
M  V30 9014 H 840.621 1.57494 2.70027 0
M  V30 9015 H 839.841 3.68822 1.39155 0
M  V30 9016 H 841.129 4.5753 2.22584 0
M  V30 9017 H 840.527 2.84033 4.89226 0
M  V30 9018 H 839.084 3.59932 5.43408 0
M  V30 9019 N 842.517 -0.29412 1.54831 0
M  V30 9020 C 843.465 -1.38296 1.87021 0
M  V30 9021 C 844.459 -1.5216 0.744557 0
M  V30 9022 O 845.665 -1.54196 0.92864 0
M  V30 9023 H 842.04 -0.462088 0.593278 0
M  V30 9024 H 844.011 -1.08386 2.7802 0
M  V30 9025 C 842.76 -2.74024 2.14023 0
M  V30 9026 H 842.083 -2.6414 3.00117 0
M  V30 9027 H 843.523 -3.49205 2.40482 0
M  V30 9028 C 841.982 -3.23492 0.940982 0
M  V30 9029 O 842.512 -4.01361 0.164937 0
M  V30 9030 N 840.718 -2.80902 0.744467 0
M  V30 9031 H 840.265 -2.17694 1.37721 0
M  V30 9032 H 840.223 -3.14349 -0.0563652 0
M  V30 9033 N 843.995 -1.47404 -0.557645 0
M  V30 9034 C 845.272 -1.44488 -1.31843 0
M  V30 9035 C 845.652 -0.1416 -2.10625 0
M  V30 9036 O 845 0.876908 -2.11004 0
M  V30 9037 C 845.21 -2.69016 -2.22331 0
M  V30 9038 C 846.558 -3.16212 -2.83364 0
M  V30 9039 O 847.582 -2.69741 -2.32634 0
M  V30 9040 O 846.441 -3.96999 -3.75571 0
M  V30 9041 H 843.535 -0.57578 -0.593639 0
M  V30 9042 H 846.081 -1.59605 -0.576584 0
M  V30 9043 H 844.853 -3.55406 -1.63715 0
M  V30 9044 H 844.476 -2.56484 -3.03812 0
M  V30 9045 N 845.473 0.80434 -1.35529 0
M  V30 9046 C 846.719 1.56385 -1.29118 0
M  V30 9047 C 847.052 1.9374 0.133536 0
M  V30 9048 O 846.327 1.6153 1.08344 0
M  V30 9049 C 846.61 2.85097 -2.19981 0
M  V30 9050 C 846.463 2.54204 -3.7108 0
M  V30 9051 C 847.782 3.86817 -2.09907 0
M  V30 9052 H 844.901 0.567382 -0.470368 0
M  V30 9053 H 847.543 0.925235 -1.6595 0
M  V30 9054 H 845.693 3.39594 -1.88701 0
M  V30 9055 H 847.365 2.05872 -4.12813 0
M  V30 9056 H 845.608 1.87364 -3.91251 0
M  V30 9057 H 846.279 3.46068 -4.30048 0
M  V30 9058 H 848.755 3.41725 -2.37409 0
M  V30 9059 H 847.631 4.7465 -2.75678 0
M  V30 9060 H 847.892 4.28663 -1.08171 0
M  V30 9061 N 846.951 1.19563 1.02676 0
M  V30 9062 C 847.881 0.959024 2.12897 0
M  V30 9063 C 848.862 -0.108382 1.69754 0
M  V30 9064 O 850.047 0.0470698 1.94143 0
M  V30 9065 C 847.177 0.499211 3.43693 0
M  V30 9066 C 846.131 1.5087 4.00528 0
M  V30 9067 C 845.457 0.905884 5.2697 0
M  V30 9068 C 846.757 2.88954 4.3509 0
M  V30 9069 H 848.451 1.88084 2.32948 0
M  V30 9070 H 845.997 0.905731 1.11949 0
M  V30 9071 H 847.95 0.320965 4.20176 0
M  V30 9072 H 846.674 -0.458205 3.2337 0
M  V30 9073 H 845.333 1.67413 3.26142 0
M  V30 9074 H 844.981 -0.0591506 5.02965 0
M  V30 9075 H 844.681 1.58 5.65959 0
M  V30 9076 H 846.205 0.73848 6.06118 0
M  V30 9077 H 847.619 2.75981 5.02501 0
M  V30 9078 H 846.016 3.53177 4.85166 0
M  V30 9079 H 847.086 3.41447 3.44299 0
M  V30 9080 N 848.429 -1.21819 0.999893 0
M  V30 9081 C 849.359 -2.26282 0.576096 0
M  V30 9082 C 850.34 -1.65317 -0.400537 0
M  V30 9083 O 851.525 -1.92028 -0.28964 0
M  V30 9084 C 848.655 -3.47147 -0.103145 0
M  V30 9085 C 847.609 -4.20594 0.792745 0
M  V30 9086 C 846.935 -5.34696 -0.0198026 0
M  V30 9087 C 848.235 -4.78533 2.09293 0
M  V30 9088 H 849.929 -2.61984 1.4493 0
M  V30 9089 H 847.475 -1.25935 0.698316 0
M  V30 9090 H 849.428 -4.1939 -0.411068 0
M  V30 9091 H 848.152 -3.1056 -1.01094 0
M  V30 9092 H 846.811 -3.50194 1.08442 0
M  V30 9093 H 846.459 -4.94352 -0.928729 0
M  V30 9094 H 846.159 -5.84764 0.576661 0
M  V30 9095 H 847.683 -6.09752 -0.321659 0
M  V30 9096 H 849.097 -5.42682 1.8485 0
M  V30 9097 H 847.494 -5.38968 2.63881 0
M  V30 9098 H 848.564 -3.98197 2.76708 0
M  V30 9099 N 849.908 -0.773975 -1.37286 0
M  V30 9100 C 850.858 -0.135245 -2.27599 0
M  V30 9101 C 851.842 0.671691 -1.46209 0
M  V30 9102 O 853.034 0.534299 -1.68743 0
M  V30 9103 C 850.163 0.741298 -3.35201 0
M  V30 9104 C 849.249 -0.0735896 -4.24036 0
M  V30 9105 N 849.64 -1.12035 -4.93236 0
M  V30 9106 C 847.938 0.150038 -4.45748 0
M  V30 9107 C 848.639 -1.61512 -5.58828 0
M  V30 9108 N 847.615 -0.926922 -5.35639 0
M  V30 9109 H 851.417 -0.936646 -2.78575 0
M  V30 9110 H 848.931 -0.611944 -1.50429 0
M  V30 9111 H 850.928 1.21468 -3.98812 0
M  V30 9112 H 849.588 1.54142 -2.8578 0
M  V30 9113 H 850.599 -1.50253 -4.95625 0
M  V30 9114 H 847.276 0.921891 -4.07195 0
M  V30 9115 H 848.666 -2.48818 -6.24131 0
M  V30 9116 N 851.386 1.48609 -0.524698 0
M  V30 9117 C 852.334 2.31205 0.254398 0
M  V30 9118 C 853.328 1.40894 0.940491 0
M  V30 9119 O 854.534 1.57827 0.865478 0
M  V30 9120 H 850.909 0.745199 0.100907 0
M  V30 9121 H 852.88 2.94804 -0.461876 0
M  V30 9122 C 851.629 3.2282 1.2916 0
M  V30 9123 H 850.952 3.92255 0.773074 0
M  V30 9124 H 852.392 3.83508 1.80825 0
M  V30 9125 C 850.851 2.4406 2.32242 0
M  V30 9126 O 851.381 2.16163 3.3858 0
M  V30 9127 N 849.587 2.05651 2.05319 0
M  V30 9128 H 849.134 2.28539 1.18861 0
M  V30 9129 H 849.092 1.53265 2.74513 0
M  V30 9130 N 852.864 0.259585 1.55447 0
M  V30 9131 C 854.141 -0.412595 1.91199 0
M  V30 9132 C 854.521 -1.74909 1.18194 0
M  V30 9133 O 853.869 -2.26474 0.303603 0
M  V30 9134 C 854.079 -0.568195 3.44344 0
M  V30 9135 C 855.427 -0.858253 4.15836 0
M  V30 9136 O 856.451 -0.653588 3.50152 0
M  V30 9137 O 855.31 -1.24874 5.32042 0
M  V30 9138 H 852.404 -0.223403 0.796254 0
M  V30 9139 H 854.95 0.30459 1.66944 0
M  V30 9140 H 853.722 0.372989 3.89518 0
M  V30 9141 H 853.345 -1.33544 3.74502 0
M  V30 9142 N 854.342 -1.57594 -0.0133615 0
M  V30 9143 C 855.753 -1.78168 -0.557937 0
M  V30 9144 C 856.104 -0.892616 -1.74719 0
M  V30 9145 O 855.229 -0.0915491 -2.16206 0
M  V30 9146 C 855.824 -3.23115 -1.01894 0
M  V30 9147 C 854.383 -3.44831 -1.50892 0
M  V30 9148 C 853.53 -2.73558 -0.454044 0
M  V30 9149 H 856.481 -1.57266 0.212843 0
M  V30 9150 H 856.502 -3.30493 -1.8856 0
M  V30 9151 H 856.014 -3.87798 -0.153175 0
M  V30 9152 H 854.115 -2.85345 -2.39602 0
M  V30 9153 H 854.228 -4.53485 -1.54559 0
M  V30 9154 H 852.592 -2.37787 -0.912666 0
M  V30 9155 H 853.375 -3.40932 0.402524 0
M  V30 9156 N 855.82 0.285905 -1.54985 0
M  V30 9157 C 856.768 1.37302 -1.87752 0
M  V30 9158 C 857.762 1.51763 -0.752616 0
M  V30 9159 O 858.968 1.53701 -0.936805 0
M  V30 9160 H 855.343 0.458935 -0.59572 0
M  V30 9161 H 857.314 1.0691 -2.78591 0
M  V30 9162 C 856.063 2.72885 -2.15474 0
M  V30 9163 H 855.386 2.62545 -3.01513 0
M  V30 9164 H 856.826 3.47925 -2.42331 0
M  V30 9165 C 855.285 3.22989 -0.958124 0
M  V30 9166 O 855.815 4.01268 -0.186219 0
M  V30 9167 N 854.021 2.80503 -0.759354 0
M  V30 9168 H 853.568 2.16961 -1.38874 0
M  V30 9169 H 853.526 3.14375 0.0396937 0
M  V30 9170 N 857.298 1.47698 0.54982 0
M  V30 9171 C 858.228 1.63622 1.66583 0
M  V30 9172 C 859.209 0.485477 1.63025 0
M  V30 9173 O 860.394 0.715692 1.80531 0
M  V30 9174 C 857.524 1.65721 3.05211 0
M  V30 9175 C 856.478 2.80097 3.2362 0
M  V30 9176 C 855.804 2.67272 4.63109 0
M  V30 9177 C 857.104 4.21612 3.08286 0
M  V30 9178 H 858.798 2.57049 1.53512 0
M  V30 9179 H 856.344 1.23705 0.737099 0
M  V30 9180 H 858.297 1.75451 3.83138 0
M  V30 9181 H 857.021 0.688593 3.19258 0
M  V30 9182 H 855.68 2.69889 2.48104 0
M  V30 9183 H 855.328 1.68422 4.73965 0
M  V30 9184 H 855.028 3.44008 4.76374 0
M  V30 9185 H 856.552 2.78942 5.43161 0
M  V30 9186 H 857.966 4.32758 3.76024 0
M  V30 9187 H 856.363 4.99193 3.33057 0
M  V30 9188 H 857.433 4.39462 2.04942 0
M  V30 9189 N 858.776 -0.797141 1.35954 0
M  V30 9190 C 859.709 -1.91567 1.24005 0
M  V30 9191 C 860.687 -1.62112 0.125868 0
M  V30 9192 O 861.871 -1.86167 0.295638 0
M  V30 9193 C 858.998 -3.26204 0.911535 0
M  V30 9194 C 858.044 -3.74598 2.03909 0
M  V30 9195 S 858.877 -3.91276 3.656 0
M  V30 9196 C 860.033 -5.288 3.34846 0
M  V30 9197 H 860.266 -2.0141 2.18681 0
M  V30 9198 H 857.799 -0.955542 1.2128 0
M  V30 9199 H 859.757 -4.03979 0.728805 0
M  V30 9200 H 858.418 -3.14095 -0.0173159 0
M  V30 9201 H 857.611 -4.72137 1.7636 0
M  V30 9202 H 857.213 -3.03849 2.18064 0
M  V30 9203 H 859.505 -6.13117 2.8826 0
M  V30 9204 H 860.448 -5.61347 4.31619 0
M  V30 9205 H 860.856 -4.95534 2.70382 0
M  V30 9206 N 860.254 -1.20106 -1.0204 0
M  V30 9207 C 861.202 -0.943231 -2.12617 0
M  V30 9208 C 862.196 0.104042 -1.6908 0
M  V30 9209 O 863.402 -0.0459732 -1.79941 0
M  V30 9210 H 859.777 -0.28767 -0.694802 0
M  V30 9211 H 861.748 -1.88221 -2.3155 0
M  V30 9212 C 860.497 -0.50771 -3.43973 0
M  V30 9213 H 859.82 -1.30514 -3.77897 0
M  V30 9214 H 861.26 -0.366486 -4.22413 0
M  V30 9215 C 859.719 0.77939 -3.27761 0
M  V30 9216 O 860.249 1.83876 -3.57145 0
M  V30 9217 N 858.455 0.739931 -2.81022 0
M  V30 9218 H 858.002 -0.122426 -2.57309 0
M  V30 9219 H 857.96 1.60147 -2.70556 0
M  V30 9220 N 861.732 1.21287 -1.00634 0
M  V30 9221 C 862.68 2.25733 -0.561026 0
M  V30 9222 C 863.674 1.64728 0.395095 0
M  V30 9223 O 864.88 1.78022 0.266141 0
M  V30 9224 H 861.255 0.734104 -0.163081 0
M  V30 9225 H 863.226 2.60631 -1.45307 0
M  V30 9226 C 861.975 3.47569 0.0952587 0
M  V30 9227 H 861.298 3.94782 -0.631427 0
M  V30 9228 H 862.738 4.22382 0.370105 0
M  V30 9229 C 861.197 3.09326 1.33488 0
M  V30 9230 O 861.727 3.19933 2.42912 0
M  V30 9231 N 859.933 2.63976 1.21512 0
M  V30 9232 H 859.48 2.55545 0.324741 0
M  V30 9233 H 859.438 2.38757 2.04555 0
M  V30 9234 N 863.21 0.781244 1.36873 0
M  V30 9235 C 864.44 0.361042 2.03421 0
M  V30 9236 C 864.848 -1.02471 1.59048 0
M  V30 9237 O 864.191 -1.66712 0.771552 0
M  V30 9238 C 864.253 0.336202 3.57924 0
M  V30 9239 C 863.917 1.66815 4.25467 0
M  V30 9240 C 864.914 2.62224 4.48926 0
M  V30 9241 C 862.599 1.9452 4.63106 0
M  V30 9242 C 864.593 3.83538 5.09095 0
M  V30 9243 C 862.28 3.16103 5.22994 0
M  V30 9244 C 863.278 4.10431 5.45926 0
M  V30 9245 O 862.966 5.29871 6.04559 0
M  V30 9246 H 862.698 0.147956 0.65961 0
M  V30 9247 H 865.252 1.05895 1.75998 0
M  V30 9248 H 863.482 -0.418147 3.84433 0
M  V30 9249 H 865.171 -0.0582199 4.05858 0
M  V30 9250 H 865.937 2.42104 4.20251 0
M  V30 9251 H 861.816 1.21921 4.44585 0
M  V30 9252 H 865.36 4.57178 5.2691 0
M  V30 9253 H 861.257 3.36104 5.51094 0
M  V30 9254 H 862.025 5.30825 6.23031 0
M  V30 9255 N 864.689 -1.48329 0.532571 0
M  V30 9256 C 865.619 -2.32485 -0.217511 0
M  V30 9257 C 866.6 -1.42255 -0.932598 0
M  V30 9258 O 867.785 -1.7114 -0.917873 0
M  V30 9259 C 864.915 -3.23509 -1.26329 0
M  V30 9260 C 863.869 -4.22784 -0.666191 0
M  V30 9261 C 863.195 -5.0296 -1.81482 0
M  V30 9262 C 864.495 -5.21031 0.363813 0
M  V30 9263 H 866.189 -2.95445 0.485014 0
M  V30 9264 H 863.735 -1.42075 0.234694 0
M  V30 9265 H 865.688 -3.81211 -1.79601 0
M  V30 9266 H 864.412 -2.58554 -1.99543 0
M  V30 9267 H 863.071 -3.66272 -0.15498 0
M  V30 9268 H 862.719 -4.34427 -2.5354 0
M  V30 9269 H 862.419 -5.70154 -1.4212 0
M  V30 9270 H 863.943 -5.63514 -2.35126 0
M  V30 9271 H 865.357 -5.73241 -0.0819079 0
M  V30 9272 H 863.754 -5.96292 0.674956 0
M  V30 9273 H 864.824 -4.6801 1.26865 0
M  V30 9274 N 866.167 -0.267825 -1.55308 0
M  V30 9275 C 867.097 0.616585 -2.25212 0
M  V30 9276 C 868.078 1.16472 -1.23969 0
M  V30 9277 O 869.263 1.20021 -1.52672 0
M  V30 9278 C 866.393 1.80412 -2.96764 0
M  V30 9279 C 865.347 1.38784 -4.04874 0
M  V30 9280 C 864.673 2.65789 -4.63961 0
M  V30 9281 C 865.973 0.543415 -5.19465 0
M  V30 9282 H 867.667 0.0336257 -2.99381 0
M  V30 9283 H 865.213 0.0147328 -1.43992 0
M  V30 9284 H 867.166 2.42866 -3.44375 0
M  V30 9285 H 865.89 2.4128 -2.20118 0
M  V30 9286 H 864.549 0.786541 -3.58063 0
M  V30 9287 H 864.197 3.24899 -3.83992 0
M  V30 9288 H 863.897 2.38651 -5.36954 0
M  V30 9289 H 865.421 3.29104 -5.14318 0
M  V30 9290 H 866.835 1.07277 -5.63174 0
M  V30 9291 H 865.232 0.367219 -5.98975 0
M  V30 9292 H 866.302 -0.439534 -4.82904 0
M  V30 9293 N 867.645 1.57599 0.00500368 0
M  V30 9294 C 868.592 2.08106 0.998025 0
M  V30 9295 C 869.562 0.975374 1.34446 0
M  V30 9296 O 870.747 1.24749 1.44369 0
M  V30 9297 C 867.887 2.58496 2.28635 0
M  V30 9298 C 867 3.82947 1.99939 0
M  V30 9299 C 866.135 4.21857 3.22816 0
M  V30 9300 C 865.174 5.39159 2.89783 0
M  V30 9301 N 864.311 5.73386 4.05183 0
M  V30 9302 H 869.151 2.92684 0.560385 0
M  V30 9303 H 866.688 1.44692 0.265053 0
M  V30 9304 H 868.646 2.85787 3.03943 0
M  V30 9305 H 867.276 1.768 2.70077 0
M  V30 9306 H 866.328 3.62594 1.1502 0
M  V30 9307 H 867.64 4.68358 1.71588 0
M  V30 9308 H 866.794 4.50404 4.06474 0
M  V30 9309 H 865.533 3.35145 3.54301 0
M  V30 9310 H 864.538 5.1034 2.04532 0
M  V30 9311 H 865.763 6.27543 2.59551 0
M  V30 9312 H 863.709 4.89632 4.36574 0
M  V30 9313 H 863.626 6.53359 3.80339 0
M  V30 9314 H 864.894 6.06522 4.89644 0
M  V30 9315 N 869.123 -0.277682 1.55134 0
M  V30 9316 C 870.4 -1.0309 1.66228 0
M  V30 9317 C 870.78 -2.0445 0.525701 0
M  V30 9318 O 870.128 -2.23512 -0.474816 0
M  V30 9319 C 870.338 -1.6919 3.05247 0
M  V30 9320 C 871.686 -2.20526 3.62841 0
M  V30 9321 O 872.71 -1.79185 3.07849 0
M  V30 9322 O 871.569 -2.96342 4.59177 0
M  V30 9323 H 868.663 -0.4779 0.674937 0
M  V30 9324 H 871.209 -0.273912 1.67475 0
M  V30 9325 H 869.981 -0.957163 3.79413 0
M  V30 9326 H 869.604 -2.51587 3.07879 0
M  V30 9327 N 870.601 -1.47988 -0.541979 0
M  V30 9328 C 871.549 -1.62044 -1.66867 0
M  V30 9329 C 872.543 -0.487217 -1.62242 0
M  V30 9330 O 873.749 -0.66554 -1.67244 0
M  V30 9331 H 870.124 -0.51024 -0.552412 0
M  V30 9332 H 872.095 -2.56695 -1.52153 0
M  V30 9333 C 870.844 -1.66615 -3.0518 0
M  V30 9334 H 870.167 -2.5317 -3.09427 0
M  V30 9335 H 871.607 -1.80496 -3.83663 0
M  V30 9336 C 870.066 -0.402421 -3.34488 0
M  V30 9337 O 870.596 0.48992 -3.98701 0
M  V30 9338 N 868.802 -0.277778 -2.89269 0
M  V30 9339 H 868.349 -1.00488 -2.37192 0
M  V30 9340 H 868.307 0.566784 -3.09249 0
M  V30 9341 N 872.079 0.78992 -1.36375 0
M  V30 9342 C 873.012 1.90907 -1.25019 0
M  V30 9343 C 873.99 1.62043 -0.134463 0
M  V30 9344 O 875.174 1.86008 -0.305506 0
M  V30 9345 C 872.301 3.25716 -0.928822 0
M  V30 9346 C 871.347 3.73511 -2.05892 0
M  V30 9347 S 872.18 3.89332 -3.6767 0
M  V30 9348 C 873.336 5.27017 -3.37645 0
M  V30 9349 H 873.569 2.00247 -2.19746 0
M  V30 9350 H 871.102 0.949097 -1.21785 0
M  V30 9351 H 873.06 4.03586 -0.750219 0
M  V30 9352 H 871.721 3.141 0.000658424 0
M  V30 9353 H 870.914 4.71195 -1.78862 0
M  V30 9354 H 870.516 3.02688 -2.19672 0
M  V30 9355 H 872.808 6.1158 -2.91507 0
M  V30 9356 H 873.751 5.5905 -4.3459 0
M  V30 9357 H 874.159 4.94093 -2.73006 0
M  V30 9358 N 873.557 1.20646 1.01402 0
M  V30 9359 C 874.505 0.954493 2.12114 0
M  V30 9360 C 875.499 -0.0950737 1.69133 0
M  V30 9361 O 876.705 0.0555153 1.79914 0
M  V30 9362 H 873.08 0.29135 0.693267 0
M  V30 9363 H 875.051 1.89447 2.30548 0
M  V30 9364 C 873.8 0.525944 3.43699 0
M  V30 9365 H 873.123 1.32516 3.772 0
M  V30 9366 H 874.563 0.388883 4.22213 0
M  V30 9367 C 873.022 -0.761997 3.28169 0
M  V30 9368 O 873.552 -1.81979 3.58115 0
M  V30 9369 N 871.758 -0.725017 2.8141 0
M  V30 9370 H 871.305 0.13607 2.5724 0
M  V30 9371 H 871.263 -1.5871 2.71401 0
M  V30 9372 N 875.035 -1.20752 1.01276 0
M  V30 9373 C 876.446 -1.7175 0.732033 0
M  V30 9374 C 876.797 -1.8131 -0.749733 0
M  V30 9375 O 875.922 -1.47301 -1.58529 0
M  V30 9376 C 876.517 -3.11936 1.32217 0
M  V30 9377 C 875.076 -3.6026 1.09039 0
M  V30 9378 C 874.223 -2.37571 1.43022 0
M  V30 9379 H 877.174 -1.0582 1.1827 0
M  V30 9380 H 877.195 -3.73802 0.710771 0
M  V30 9381 H 876.707 -3.04946 2.40061 0
M  V30 9382 H 874.808 -3.72588 0.0294464 0
M  V30 9383 H 874.921 -4.45295 1.76775 0
M  V30 9384 H 873.285 -2.40128 0.849159 0
M  V30 9385 H 874.068 -2.33225 2.51915 0
M  V30 9386 N 876.513 -0.788492 -1.36457 0
M  V30 9387 C 877.461 -0.174192 -2.31947 0
M  V30 9388 C 878.455 0.665974 -1.5576 0
M  V30 9389 O 879.661 0.561161 -1.71029 0
M  V30 9390 H 876.036 -0.0375538 -0.751062 0
M  V30 9391 H 878.007 -0.995011 -2.81322 0
M  V30 9392 C 876.756 0.677276 -3.4104 0
M  V30 9393 H 876.079 0.0401418 -3.9978 0
M  V30 9394 H 877.519 1.07379 -4.10178 0
M  V30 9395 C 875.978 1.83512 -2.82533 0
M  V30 9396 O 876.508 2.93164 -2.74623 0
M  V30 9397 N 874.714 1.64095 -2.39836 0
M  V30 9398 H 874.261 0.749046 -2.46469 0
M  V30 9399 H 874.219 2.41726 -2.01037 0
M  V30 9400 N 877.991 1.48044 -0.54043 0
M  V30 9401 C 879.24 2.01698 -0.00809961 0
M  V30 9402 C 879.553 1.42184 1.34325 0
M  V30 9403 O 880.759 1.87398 1.96454 0
M  V30 9404 C 879.215 3.59882 0.035933 0
M  V30 9405 C 878.823 4.28384 -1.31115 0
M  V30 9406 C 880.567 4.21346 0.51654 0
M  V30 9407 C 878.474 5.78529 -1.22714 0
M  V30 9408 H 877.404 0.754 0.000742174 0
M  V30 9409 H 880.055 1.70204 -0.685775 0
M  V30 9410 H 878.437 3.88264 0.778906 0
M  V30 9411 H 879.611 4.11663 -2.07051 0
M  V30 9412 H 877.926 3.78837 -1.72834 0
M  V30 9413 H 880.523 5.31351 0.597529 0
M  V30 9414 H 880.866 3.87373 1.52473 0
M  V30 9415 H 881.399 3.97432 -0.171064 0
M  V30 9416 H 878.138 6.17093 -2.21081 0
M  V30 9417 H 877.658 5.97634 -0.50931 0
M  V30 9418 H 879.337 6.40395 -0.92216 0
M  V30 9419 N 879.47 0.276058 1.55163 0
M  V30 9420 C 880.403 -0.652386 2.18676 0
M  V30 9421 C 881.381 -1.15151 1.148 0
M  V30 9422 O 882.565 -1.22431 1.43328 0
M  V30 9423 C 879.692 -1.88982 2.81076 0
M  V30 9424 C 878.738 -1.52609 3.98262 0
M  V30 9425 S 879.571 -0.603445 5.32089 0
M  V30 9426 C 880.727 -1.84923 5.97958 0
M  V30 9427 H 880.96 -0.112733 2.97086 0
M  V30 9428 H 878.493 0.0603118 1.54282 0
M  V30 9429 H 880.451 -2.60007 3.17658 0
M  V30 9430 H 879.112 -2.40061 2.02557 0
M  V30 9431 H 878.305 -2.44689 4.40617 0
M  V30 9432 H 877.907 -0.89601 3.63108 0
M  V30 9433 H 880.199 -2.79303 6.17249 0
M  V30 9434 H 881.142 -1.46868 6.92702 0
M  V30 9435 H 881.55 -2.0146 5.27327 0
M  V30 9436 N 880.948 -1.576 0.00335426 0
M  V30 9437 C 881.878 -2.11668 -0.985839 0
M  V30 9438 C 882.859 -1.02661 -1.35627 0
M  V30 9439 O 884.044 -1.30361 -1.43943 0
M  V30 9440 C 881.174 -2.62273 -2.27662 0
M  V30 9441 C 880.128 -3.75837 -2.0477 0
M  V30 9442 C 879.454 -4.12769 -3.39891 0
M  V30 9443 C 880.754 -5.02975 -1.40759 0
M  V30 9444 H 882.448 -2.9457 -0.535637 0
M  V30 9445 H 879.994 -1.41702 -0.256204 0
M  V30 9446 H 881.947 -2.98727 -2.97221 0
M  V30 9447 H 880.671 -1.76498 -2.74802 0
M  V30 9448 H 879.33 -3.39782 -1.37636 0
M  V30 9449 H 878.978 -3.24013 -3.8474 0
M  V30 9450 H 878.678 -4.89281 -3.25389 0
M  V30 9451 H 880.202 -4.51784 -4.1076 0
M  V30 9452 H 881.616 -5.37179 -2.00279 0
M  V30 9453 H 880.013 -5.84315 -1.36734 0
M  V30 9454 H 881.083 -4.83431 -0.377218 0
M  V30 9455 N 882.426 0.269451 -1.5528 0
M  V30 9456 C 883.374 1.35303 -1.89198 0
M  V30 9457 C 884.368 1.50956 -0.768671 0
M  V30 9458 O 885.574 1.52699 -0.953054 0
M  V30 9459 H 881.949 0.452591 -0.600554 0
M  V30 9460 H 883.92 1.03949 -2.79709 0
M  V30 9461 C 882.669 2.70585 -2.18356 0
M  V30 9462 H 881.992 2.59332 -3.04281 0
M  V30 9463 H 883.432 3.45335 -2.46007 0
M  V30 9464 C 881.891 3.21954 -0.992327 0
M  V30 9465 O 882.421 4.01048 -0.228769 0
M  V30 9466 N 880.627 2.79682 -0.789062 0
M  V30 9467 H 880.174 2.15475 -1.41167 0
M  V30 9468 H 880.132 3.14399 0.00634776 0
M  V30 9469 N 883.904 1.48273 0.534124 0
M  V30 9470 C 884.852 1.62926 1.66005 0
M  V30 9471 C 885.846 0.495814 1.61982 0
M  V30 9472 O 887.052 0.6744 1.66889 0
M  V30 9473 H 883.427 0.513163 0.549698 0
M  V30 9474 H 885.398 2.57498 1.50789 0
M  V30 9475 C 884.147 1.68231 3.04292 0
M  V30 9476 H 883.47 2.54807 3.0808 0
M  V30 9477 H 884.91 1.82528 3.827 0
M  V30 9478 C 883.369 0.420154 3.3427 0
M  V30 9479 O 883.899 -0.468769 3.98955 0
M  V30 9480 N 882.105 0.293115 2.89118 0
M  V30 9481 H 881.652 1.01745 2.36655 0
M  V30 9482 H 881.61 -0.550376 3.09545 0
M  V30 9483 N 885.382 -0.782676 1.36792 0
M  V30 9484 C 886.33 -1.91698 1.31737 0
M  V30 9485 C 887.324 -1.68118 0.207994 0
M  V30 9486 O 888.53 -1.76042 0.375393 0
M  V30 9487 H 884.905 -0.630215 0.410284 0
M  V30 9488 H 886.876 -1.93078 2.27516 0
M  V30 9489 C 885.625 -3.28816 1.13029 0
M  V30 9490 H 884.948 -3.4753 1.97643 0
M  V30 9491 H 886.388 -4.08515 1.13541 0
M  V30 9492 C 884.847 -3.36497 -0.1647 0
M  V30 9493 O 885.377 -3.84822 -1.15216 0
M  V30 9494 N 883.583 -2.89828 -0.211678 0
M  V30 9495 H 883.13 -2.50693 0.59252 0
M  V30 9496 H 883.088 -2.95349 -1.07779 0
M  V30 9497 N 886.86 -1.21182 -1.00761 0
M  V30 9498 C 887.808 -0.965728 -2.11604 0
M  V30 9499 C 888.802 0.0861028 -1.69181 0
M  V30 9500 O 890.008 -0.0650558 -1.79882 0
M  V30 9501 H 886.383 -0.295023 -0.691712 0
M  V30 9502 H 888.354 -1.90667 -2.2954 0
M  V30 9503 C 887.103 -0.544164 -3.43415 0
M  V30 9504 H 886.426 -1.34515 -3.76491 0
M  V30 9505 H 887.866 -0.411268 -4.22001 0
M  V30 9506 C 886.325 0.744583 -3.28569 0
M  V30 9507 O 886.855 1.80078 -3.59075 0
M  V30 9508 N 885.061 0.710083 -2.81791 0
M  V30 9509 H 884.608 -0.14971 -2.57165 0
M  V30 9510 H 884.566 1.57268 -2.72239 0
M  V30 9511 N 888.338 1.20213 -1.01915 0
M  V30 9512 C 889.286 2.25125 -0.584936 0
M  V30 9513 C 890.28 1.65138 0.377602 0
M  V30 9514 O 891.486 1.78294 0.247245 0
M  V30 9515 H 887.861 0.732333 -0.170858 0
M  V30 9516 H 889.832 2.59075 -1.48063 0
M  V30 9517 C 888.581 3.47651 0.058389 0
M  V30 9518 H 887.904 3.9409 -0.673263 0
M  V30 9519 H 889.344 4.2275 0.325285 0
M  V30 9520 C 887.803 3.10725 1.30199 0
M  V30 9521 O 888.333 3.22491 2.39505 0
M  V30 9522 N 886.539 2.6525 1.18706 0
M  V30 9523 H 886.086 2.55875 0.297618 0
M  V30 9524 H 886.044 2.40913 2.02011 0
M  V30 9525 N 889.816 0.795718 1.36037 0
M  V30 9526 C 890.764 0.18649 2.31851 0
M  V30 9527 C 891.758 -0.657704 1.56111 0
M  V30 9528 O 892.964 -0.552083 1.71324 0
M  V30 9529 H 889.339 0.0415363 0.750852 0
M  V30 9530 H 891.31 1.00992 2.8079 0
M  V30 9531 C 890.059 -0.65918 3.41394 0
M  V30 9532 H 889.382 -0.01894 3.99796 0
M  V30 9533 H 890.822 -1.05202 4.10741 0
M  V30 9534 C 889.281 -1.82011 2.83502 0
M  V30 9535 O 889.811 -2.91703 2.76174 0
M  V30 9536 N 888.017 -1.62821 2.40703 0
M  V30 9537 H 887.564 -0.735965 2.46863 0
M  V30 9538 H 887.522 -2.40657 2.02316 0
M  V30 9539 N 891.294 -1.47756 0.548274 0
M  V30 9540 C 892.543 -2.01691 0.0187961 0
M  V30 9541 C 892.856 -1.42894 -1.33569 0
M  V30 9542 O 894.062 -1.88438 -1.95457 0
M  V30 9543 C 892.518 -3.59896 -0.016847 0
M  V30 9544 C 892.126 -4.27683 1.33385 0
M  V30 9545 C 893.87 -4.21614 -0.494188 0
M  V30 9546 C 891.777 -5.7787 1.2578 0
M  V30 9547 H 890.707 -0.753993 0.00325648 0
M  V30 9548 H 893.358 -1.69838 0.694792 0
M  V30 9549 H 891.74 -3.88672 -0.758304 0
M  V30 9550 H 892.914 -4.10559 2.09232 0
M  V30 9551 H 891.229 -3.77915 1.7484 0
M  V30 9552 H 893.826 -5.3166 -0.569342 0
M  V30 9553 H 894.169 -3.88176 -1.50417 0
M  V30 9554 H 894.702 -3.97336 0.192138 0
M  V30 9555 H 891.441 -6.15912 2.2435 0
M  V30 9556 H 890.961 -5.97355 0.540997 0
M  V30 9557 H 892.64 -6.39897 0.956109 0
M  V30 9558 N 892.772 -0.284283 -1.55015 0
M  V30 9559 C 893.72 0.615091 -2.2432 0
M  V30 9560 C 894.714 1.15051 -1.24337 0
M  V30 9561 O 895.92 1.10308 -1.4224 0
M  V30 9562 H 892.295 0.216927 -0.720033 0
M  V30 9563 H 894.266 0.00783216 -2.98399 0
M  V30 9564 C 893.015 1.78355 -2.98471 0
M  V30 9565 H 892.338 1.38076 -3.752 0
M  V30 9566 H 893.778 2.38927 -3.50271 0
M  V30 9567 C 892.237 2.67757 -2.04469 0
M  V30 9568 O 892.767 3.6838 -1.60185 0
M  V30 9569 N 890.973 2.35125 -1.70776 0
M  V30 9570 H 890.52 1.53346 -2.06985 0
M  V30 9571 H 890.478 2.95212 -1.08153 0
M  V30 9572 N 894.251 1.57596 -0.0117121 0
M  V30 9573 C 895.199 2.1029 0.994035 0
M  V30 9574 C 896.193 1.02549 1.34833 0
M  V30 9575 O 897.399 1.21003 1.3326 0
M  V30 9576 H 893.774 0.671624 0.338268 0
M  V30 9577 H 895.745 2.93761 0.524147 0
M  V30 9578 C 894.494 2.63099 2.27319 0
M  V30 9579 H 893.817 3.45642 2.00927 0
M  V30 9580 H 895.257 3.03635 2.95942 0
M  V30 9581 C 893.716 1.55044 2.99104 0
M  V30 9582 O 894.246 0.940127 3.90544 0
M  V30 9583 N 892.452 1.27506 2.61133 0
M  V30 9584 H 891.999 1.77322 1.86855 0
M  V30 9585 H 891.957 0.554292 3.09475 0
M  V30 9586 N 895.729 -0.261212 1.5542 0
M  V30 9587 C 897.145 -0.609012 1.47524 0
M  V30 9588 C 897.345 -1.88986 0.699042 0
M  V30 9589 O 896.401 -2.51517 0.222628 0
M  V30 9590 C 897.714 -0.725025 2.91828 0
M  V30 9591 C 899.262 -0.818302 3.02114 0
M  V30 9592 C 899.737 -0.965996 4.47697 0
M  V30 9593 N 901.228 -1.03123 4.51575 0
M  V30 9594 C 901.963 -1.16451 5.6145 0
M  V30 9595 N 901.459 -1.26425 6.81167 0
M  V30 9596 N 903.252 -1.19655 5.49217 0
M  V30 9597 H 895.403 0.579807 2.04333 0
M  V30 9598 H 897.666 0.198072 0.927077 0
M  V30 9599 H 897.372 0.145871 3.51397 0
M  V30 9600 H 897.246 -1.60156 3.41511 0
M  V30 9601 H 899.633 -1.67966 2.42634 0
M  V30 9602 H 899.714 0.0830895 2.55665 0
M  V30 9603 H 899.358 -0.109251 5.07782 0
M  V30 9604 H 899.288 -1.88221 4.91813 0
M  V30 9605 H 901.779 -0.966072 3.65343 0
M  V30 9606 H 902.092 -1.36462 7.60656 0
M  V30 9607 H 900.437 -1.23408 6.83956 0
M  V30 9608 H 903.628 -1.11501 4.54626 0
M  V30 9609 H 903.801 -1.29698 6.34888 0
M  V30 9610 N 897.207 -1.48554 -0.526253 0
M  V30 9611 C 898.435 -1.60429 -1.30652 0
M  V30 9612 C 898.85 -0.265963 -1.86917 0
M  V30 9613 O 898.207 0.745262 -1.6659 0
M  V30 9614 C 898.258 -2.65377 -2.45473 0
M  V30 9615 O 897.979 -3.94017 -1.91527 0
M  V30 9616 C 899.48 -2.87726 -3.37237 0
M  V30 9617 H 896.7 -0.540817 -0.397187 0
M  V30 9618 H 899.244 -1.94409 -0.634461 0
M  V30 9619 H 897.399 -2.34246 -3.08557 0
M  V30 9620 H 897.813 -4.51623 -2.66715 0
M  V30 9621 H 899.287 -3.64951 -4.14144 0
M  V30 9622 H 899.764 -1.96688 -3.92696 0
M  V30 9623 H 900.37 -3.20176 -2.79942 0
M  V30 9624 N 898.685 0.775411 -1.37205 0
M  V30 9625 C 899.933 1.53081 -1.3195 0
M  V30 9626 C 900.254 1.9476 0.0966864 0
M  V30 9627 O 899.524 1.66019 1.03993 0
M  V30 9628 H 898.104 0.567762 -0.485444 0
M  V30 9629 H 900.766 0.92309 -1.71654 0
M  V30 9630 H 899.862 2.4319 -1.95614 0
M  V30 9631 N 900.163 1.21714 1.00117 0
M  V30 9632 C 901.391 1.06278 1.77518 0
M  V30 9633 C 901.806 -0.387193 1.84787 0
M  V30 9634 O 901.163 -1.26854 1.31203 0
M  V30 9635 C 901.214 1.65795 3.21239 0
M  V30 9636 O 900.935 3.05119 3.14378 0
M  V30 9637 C 902.436 1.55521 4.15124 0
M  V30 9638 H 899.656 0.373013 0.557765 0
M  V30 9639 H 902.2 1.61133 1.25922 0
M  V30 9640 H 900.355 1.15022 3.69931 0
M  V30 9641 H 900.769 3.33643 4.04701 0
M  V30 9642 H 902.243 2.01902 5.13751 0
M  V30 9643 H 902.72 0.510307 4.36225 0
M  V30 9644 H 903.326 2.0556 3.72324 0
M  V30 9645 N 901.641 -1.19671 1.02551 0
M  V30 9646 C 902.589 -2.24812 0.596867 0
M  V30 9647 C 903.583 -1.65336 -0.368839 0
M  V30 9648 O 904.789 -1.78422 -0.237786 0
M  V30 9649 H 901.164 -0.731417 0.174739 0
M  V30 9650 H 903.135 -2.58286 1.49435 0
M  V30 9651 C 901.884 -3.47677 -0.0399514 0
M  V30 9652 H 901.207 -3.93728 0.694153 0
M  V30 9653 H 902.647 -4.22917 -0.302861 0
M  V30 9654 C 901.106 -3.11411 -1.2855 0
M  V30 9655 O 901.636 -3.23757 -2.37791 0
M  V30 9656 N 899.842 -2.65875 -1.17297 0
M  V30 9657 H 899.389 -2.56029 -0.284045 0
M  V30 9658 H 899.347 -2.41981 -2.00731 0
M  V30 9659 N 903.119 -0.802921 -1.35613 0
M  V30 9660 C 904.365 -0.382141 -1.99167 0
M  V30 9661 C 904.698 1.04704 -1.63556 0
M  V30 9662 O 903.973 1.72578 -0.89706 0
M  V30 9663 C 904.256 -0.561493 -3.55695 0
M  V30 9664 C 904.109 -2.03534 -4.01116 0
M  V30 9665 C 905.428 0.0151135 -4.40097 0
M  V30 9666 H 902.547 -0.140322 -0.723518 0
M  V30 9667 H 905.189 -1.01177 -1.6082 0
M  V30 9668 H 903.339 -0.0255083 -3.88492 0
M  V30 9669 H 905.011 -2.63343 -3.78746 0
M  V30 9670 H 903.254 -2.5331 -3.52159 0
M  V30 9671 H 903.925 -2.11173 -5.1001 0
M  V30 9672 H 906.401 -0.442582 -4.1374 0
M  V30 9673 H 905.277 -0.140316 -5.48721 0
M  V30 9674 H 905.538 1.10848 -4.27978 0
M  V30 9675 N 904.597 1.47463 -0.556102 0
M  V30 9676 C 905.53 2.26934 0.240027 0
M  V30 9677 C 906.508 1.33981 0.921297 0
M  V30 9678 O 907.692 1.63361 0.940506 0
M  V30 9679 C 904.819 3.10982 1.34194 0
M  V30 9680 C 903.865 4.19504 0.769342 0
M  V30 9681 S 904.698 5.34127 -0.383209 0
M  V30 9682 C 905.854 6.21739 0.720548 0
M  V30 9683 H 906.087 2.9411 -0.434348 0
M  V30 9684 H 903.62 1.50556 -0.342402 0
M  V30 9685 H 905.578 3.59976 1.973 0
M  V30 9686 H 904.239 2.4317 1.98814 0
M  V30 9687 H 903.432 4.78036 1.59679 0
M  V30 9688 H 903.034 3.73385 0.214475 0
M  V30 9689 H 905.326 6.58021 1.61292 0
M  V30 9690 H 906.269 7.0789 0.172602 0
M  V30 9691 H 906.677 5.55342 1.01272 0
M  V30 9692 N 906.075 0.2925 1.54862 0
M  V30 9693 C 907.305 -0.321646 2.04081 0
M  V30 9694 C 907.713 -1.48712 1.16967 0
M  V30 9695 O 907.056 -1.82755 0.18609 0
M  V30 9696 C 907.118 -0.848678 3.49339 0
M  V30 9697 C 906.782 0.190416 4.56603 0
M  V30 9698 C 907.779 1.01595 5.09877 0
M  V30 9699 C 905.464 0.329666 5.01217 0
M  V30 9700 C 907.458 1.96676 6.06298 0
M  V30 9701 C 905.145 1.28393 5.9746 0
M  V30 9702 C 906.143 2.10097 6.49883 0
M  V30 9703 O 905.831 3.03907 7.44242 0
M  V30 9704 H 905.563 -0.075098 0.671816 0
M  V30 9705 H 908.117 0.427531 2.00901 0
M  V30 9706 H 906.347 -1.64823 3.49815 0
M  V30 9707 H 908.036 -1.37779 3.81801 0
M  V30 9708 H 908.802 0.919197 4.7621 0
M  V30 9709 H 904.681 -0.296317 4.60047 0
M  V30 9710 H 908.225 2.60488 6.47141 0
M  V30 9711 H 904.122 1.38144 6.30545 0
M  V30 9712 H 904.89 2.98787 7.62016 0
M  V30 9713 N 907.553 -1.57587 0.0200696 0
M  V30 9714 C 908.778 -1.96124 -0.674547 0
M  V30 9715 C 909.203 -0.896068 -1.65385 0
M  V30 9716 O 908.561 0.143925 -1.80728 0
M  V30 9717 C 908.609 -3.3376 -1.36517 0
M  V30 9718 O 907.713 -3.29483 -2.48022 0
M  V30 9719 H 907.054 -0.639719 -0.177919 0
M  V30 9720 H 909.584 -2.04447 0.0792317 0
M  V30 9721 H 909.594 -3.69785 -1.72403 0
M  V30 9722 H 908.269 -4.10832 -0.647265 0
M  V30 9723 H 906.846 -3.05162 -2.14314 0
M  V30 9724 N 909.032 0.252966 -1.55557 0
M  V30 9725 C 909.98 1.33289 -1.90622 0
M  V30 9726 C 910.974 1.50133 -0.784638 0
M  V30 9727 O 912.18 1.51679 -0.969196 0
M  V30 9728 H 908.555 0.446196 -0.605321 0
M  V30 9729 H 910.526 1.00977 -2.80796 0
M  V30 9730 C 909.275 2.68254 -2.21213 0
M  V30 9731 H 908.598 2.5609 -3.07014 0
M  V30 9732 H 910.038 3.42707 -2.49656 0
M  V30 9733 C 908.497 3.20884 -1.02642 0
M  V30 9734 O 909.027 4.00783 -0.271292 0
M  V30 9735 N 907.233 2.7883 -0.818682 0
M  V30 9736 H 906.78 2.13966 -1.43444 0
M  V30 9737 H 906.738 3.14388 -0.0269989 0
M  V30 9738 N 910.51 1.48831 0.518367 0
M  V30 9739 C 911.758 1.57128 1.27103 0
M  V30 9740 C 912.079 0.252098 1.93364 0
M  V30 9741 O 911.349 -0.727281 1.819 0
M  V30 9742 H 909.929 0.578891 0.472116 0
M  V30 9743 H 912.591 1.85361 0.602262 0
M  V30 9744 H 911.687 2.35838 2.04418 0
M  V30 9745 N 911.988 -0.768124 1.37614 0
M  V30 9746 C 912.92 -1.89076 1.29548 0
M  V30 9747 C 913.933 -1.61433 0.21056 0
M  V30 9748 O 915.122 -1.72283 0.466992 0
M  V30 9749 C 912.222 -3.24388 0.981102 0
M  V30 9750 C 911.395 -3.79649 2.17222 0
M  V30 9751 C 910.454 -4.93444 1.82754 0
M  V30 9752 O 909.48 -5.0884 2.5509 0
M  V30 9753 N 910.682 -5.75319 0.773819 0
M  V30 9754 H 913.447 -1.9651 2.26283 0
M  V30 9755 H 911.008 -0.947399 1.31286 0
M  V30 9756 H 913 -3.98038 0.731301 0
M  V30 9757 H 911.57 -3.12433 0.102203 0
M  V30 9758 H 910.79 -2.97735 2.58355 0
M  V30 9759 H 912.078 -4.13302 2.96748 0
M  V30 9760 H 911.476 -5.65433 0.173644 0
M  V30 9761 H 910.033 -6.4918 0.583882 0
M  V30 9762 N 913.466 -1.22244 -0.994698 0
M  V30 9763 C 914.414 -0.988118 -2.10568 0
M  V30 9764 C 915.408 0.0681541 -1.69263 0
M  V30 9765 O 916.614 -0.0841311 -1.79803 0
M  V30 9766 H 912.989 -0.302343 -0.688544 0
M  V30 9767 H 914.96 -1.93091 -2.27505 0
M  V30 9768 C 913.709 -0.580557 -3.42819 0
M  V30 9769 H 913.032 -1.385 -3.75044 0
M  V30 9770 H 914.472 -0.456004 -4.21541 0
M  V30 9771 C 912.931 0.709692 -3.2934 0
M  V30 9772 O 913.461 1.76259 -3.60965 0
M  V30 9773 N 911.667 0.680155 -2.82528 0
M  V30 9774 H 911.214 -0.176977 -2.56991 0
M  V30 9775 H 911.172 1.54372 -2.73892 0
M  V30 9776 N 914.944 1.19125 -1.03184 0
M  V30 9777 C 915.874 2.24675 -0.635889 0
M  V30 9778 C 916.855 1.66321 0.356565 0
M  V30 9779 O 918.04 1.92728 0.238625 0
M  V30 9780 C 915.17 3.47298 0.011069 0
M  V30 9781 C 914.124 4.18345 -0.903979 0
M  V30 9782 C 913.45 5.34561 -0.12197 0
M  V30 9783 C 914.75 4.72816 -2.21907 0
M  V30 9784 H 916.444 2.5805 -1.51825 0
M  V30 9785 H 913.99 1.24039 -0.73146 0
M  V30 9786 H 915.943 4.20333 0.299729 0
M  V30 9787 H 914.667 3.13131 0.928245 0
M  V30 9788 H 913.326 3.47196 -1.17688 0
M  V30 9789 H 912.974 4.9664 0.797334 0
M  V30 9790 H 912.674 5.83029 -0.731498 0
M  V30 9791 H 914.198 6.10391 0.159881 0
M  V30 9792 H 915.612 5.3759 -1.99173 0
M  V30 9793 H 914.009 5.31782 -2.78078 0
M  V30 9794 H 915.079 3.9072 -2.87168 0
M  V30 9795 N 916.422 0.810101 1.35185 0
M  V30 9796 C 917.352 0.237453 2.32289 0
M  V30 9797 C 918.333 -0.639032 1.5764 0
M  V30 9798 O 919.518 -0.568575 1.8569 0
M  V30 9799 C 916.648 -0.611964 3.41866 0
M  V30 9800 C 915.602 0.166318 4.27677 0
M  V30 9801 C 914.928 -0.805024 5.28605 0
M  V30 9802 C 916.228 1.36729 5.04086 0
M  V30 9803 H 917.922 1.04874 2.80432 0
M  V30 9804 H 915.468 0.505751 1.34826 0
M  V30 9805 H 917.421 -1.02267 4.08802 0
M  V30 9806 H 916.145 -1.45617 2.92341 0
M  V30 9807 H 914.804 0.558238 3.62325 0
M  V30 9808 H 914.452 -1.64483 4.75347 0
M  V30 9809 H 914.152 -0.288577 5.86891 0
M  V30 9810 H 915.676 -1.21386 5.98413 0
M  V30 9811 H 917.09 1.03128 5.63948 0
M  V30 9812 H 915.487 1.81848 5.71884 0
M  V30 9813 H 916.557 2.15214 4.34524 0
M  V30 9814 N 917.9 -1.47166 0.563914 0
M  V30 9815 C 919.148 -2.02056 0.0422873 0
M  V30 9816 C 919.469 -1.43992 -1.31497 0
M  V30 9817 O 918.739 -0.617578 -1.85911 0
M  V30 9818 H 917.319 -0.746893 0.0126427 0
M  V30 9819 H 919.981 -1.80492 0.735441 0
M  V30 9820 H 919.077 -3.12073 -0.0408044 0
M  V30 9821 N 919.378 -0.300708 -1.54705 0
M  V30 9822 C 920.655 0.361757 -1.92226 0
M  V30 9823 C 921.035 1.71714 -1.2279 0
M  V30 9824 O 920.383 2.2559 -0.363542 0
M  V30 9825 C 920.593 0.476699 -3.45729 0
M  V30 9826 C 921.941 0.7477 -4.17965 0
M  V30 9827 O 922.965 0.560521 -3.51762 0
M  V30 9828 O 921.824 1.10724 -5.35166 0
M  V30 9829 H 918.918 0.202213 -0.801897 0
M  V30 9830 H 921.464 -0.348746 -1.66078 0
M  V30 9831 H 920.236 -0.476132 -3.88392 0
M  V30 9832 H 919.859 1.23568 -3.77911 0
M  V30 9833 N 920.856 1.57574 -0.0284266 0
M  V30 9834 C 922.084 1.96071 0.660575 0
M  V30 9835 C 922.499 0.904881 1.65703 0
M  V30 9836 O 921.856 -0.113379 1.82147 0
M  V30 9837 C 921.907 3.34634 1.36756 0
M  V30 9838 O 921.628 4.36167 0.411041 0
M  V30 9839 C 923.129 3.87758 2.14845 0
M  V30 9840 H 920.349 0.645794 0.182183 0
M  V30 9841 H 922.893 2.04311 -0.0879858 0
M  V30 9842 H 921.048 3.27616 2.06753 0
M  V30 9843 H 921.462 5.16493 0.913 0
M  V30 9844 H 922.936 4.87058 2.59767 0
M  V30 9845 H 923.413 3.21967 2.9872 0
M  V30 9846 H 924.019 3.98043 1.49807 0
M  V30 9847 N 922.334 -0.244713 1.55689 0
M  V30 9848 C 923.282 -1.32276 1.91326 0
M  V30 9849 C 924.276 -1.49714 0.792589 0
M  V30 9850 O 925.482 -1.51163 0.977227 0
M  V30 9851 H 921.857 -0.442979 0.607679 0
M  V30 9852 H 923.828 -0.99486 2.81327 0
M  V30 9853 C 922.577 -2.67077 2.22633 0
M  V30 9854 H 921.9 -2.54458 3.08368 0
M  V30 9855 H 923.34 -3.41378 2.5147 0
M  V30 9856 C 921.799 -3.20335 1.04342 0
M  V30 9857 O 922.329 -4.00633 0.292543 0
M  V30 9858 N 920.535 -2.78392 0.833457 0
M  V30 9859 H 920.082 -2.13202 1.44577 0
M  V30 9860 H 920.04 -3.1437 0.0436713 0
M  V30 9861 N 923.813 -1.49104 -0.510467 0
M  V30 9862 C 924.763 -1.6147 -1.6097 0
M  V30 9863 C 925.747 -0.470797 -1.53858 0
M  V30 9864 O 926.939 -0.723266 -1.61548 0
M  V30 9865 C 924.068 -1.67575 -2.99622 0
M  V30 9866 C 923.154 -2.87511 -3.11766 0
M  V30 9867 N 923.545 -4.11704 -2.93826 0
M  V30 9868 C 921.843 -2.85251 -3.42852 0
M  V30 9869 C 922.544 -4.92276 -3.09902 0
M  V30 9870 N 921.52 -4.2546 -3.38355 0
M  V30 9871 H 925.322 -2.5522 -1.45739 0
M  V30 9872 H 922.836 -1.45745 -0.716383 0
M  V30 9873 H 924.833 -1.74531 -3.78609 0
M  V30 9874 H 923.493 -0.749557 -3.1593 0
M  V30 9875 H 924.504 -4.41834 -2.70191 0
M  V30 9876 H 921.181 -2.0197 -3.65396 0
M  V30 9877 H 922.571 -6.00905 -3.00604 0
M  V30 9878 N 925.291 0.760815 -1.38019 0
M  V30 9879 C 926.239 1.89578 -1.34771 0
M  V30 9880 C 927.233 1.67766 -0.234714 0
M  V30 9881 O 928.439 1.75423 -0.403352 0
M  V30 9882 H 924.814 0.623608 -0.420258 0
M  V30 9883 H 926.785 1.89434 -2.30558 0
M  V30 9884 C 925.534 3.26976 -1.18246 0
M  V30 9885 H 924.857 3.44342 -2.03147 0
M  V30 9886 H 926.297 4.06657 -1.20026 0
M  V30 9887 C 924.756 3.36717 0.111145 0
M  V30 9888 O 925.286 3.86607 1.09079 0
M  V30 9889 N 923.492 2.90128 0.165542 0
M  V30 9890 H 923.039 2.49719 -0.632328 0
M  V30 9891 H 922.997 2.97026 1.03067 0
M  V30 9892 N 926.769 1.22769 0.988202 0
M  V30 9893 C 927.679 1.01844 2.11341 0
M  V30 9894 C 928.695 -0.0346937 1.73965 0
M  V30 9895 O 929.871 0.159061 2.00771 0
M  V30 9896 C 926.936 0.603837 3.41401 0
M  V30 9897 C 925.997 1.73113 3.92849 0
M  V30 9898 C 925.23 1.33621 5.16702 0
M  V30 9899 O 925.453 0.217041 5.69987 0
M  V30 9900 O 924.387 2.15444 5.62021 0
M  V30 9901 H 928.213 1.96127 2.31879 0
M  V30 9902 H 925.798 1.01405 1.09715 0
M  V30 9903 H 927.68 0.383196 4.19654 0
M  V30 9904 H 926.355 -0.310082 3.22211 0
M  V30 9905 H 925.262 2.00634 3.15748 0
M  V30 9906 H 926.595 2.62308 4.1648 0
M  V30 9907 N 928.247 -1.18576 1.03814 0
M  V30 9908 C 929.157 -2.25778 0.637311 0
M  V30 9909 C 930.173 -1.7074 -0.335248 0
M  V30 9910 O 931.349 -2.00494 -0.19081 0
M  V30 9911 C 928.414 -3.467 0.00386953 0
M  V30 9912 C 927.475 -4.16881 1.02511 0
M  V30 9913 C 926.708 -5.32031 0.421802 0
M  V30 9914 O 926.931 -5.65142 -0.772699 0
M  V30 9915 O 925.865 -5.90826 1.14925 0
M  V30 9916 H 929.691 -2.62323 1.53037 0
M  V30 9917 H 927.276 -1.25609 0.80887 0
M  V30 9918 H 929.158 -4.19953 -0.348873 0
M  V30 9919 H 927.833 -3.11983 -0.863047 0
M  V30 9920 H 926.74 -3.45707 1.4296 0
M  V30 9921 H 928.073 -4.55592 1.86271 0
M  V30 9922 N 929.725 -0.817259 -1.34754 0
M  V30 9923 C 930.673 -0.223352 -2.31525 0
M  V30 9924 C 931.667 0.632785 -1.57137 0
M  V30 9925 O 932.873 0.524757 -1.72181 0
M  V30 9926 H 929.248 -0.0534765 -0.750096 0
M  V30 9927 H 931.219 -1.05446 -2.79148 0
M  V30 9928 C 929.968 0.604784 -3.424 0
M  V30 9929 H 929.291 -0.0446664 -3.99775 0
M  V30 9930 H 930.731 0.986543 -4.12363 0
M  V30 9931 C 929.19 1.77478 -2.86362 0
M  V30 9932 O 929.72 2.87273 -2.8078 0
M  V30 9933 N 927.926 1.58971 -2.43263 0
M  V30 9934 H 927.473 0.696598 -2.48003 0
M  V30 9935 H 927.431 2.37408 -2.06119 0
M  V30 9936 N 931.203 1.46865 -0.571711 0
M  V30 9937 C 932.45 2.0243 -0.0531071 0
M  V30 9938 C 932.778 1.44446 1.30252 0
M  V30 9939 O 932.033 0.595182 1.8643 0
M  V30 9940 C 932.332 3.57323 0.0742311 0
M  V30 9941 C 931.998 4.34295 -1.21237 0
M  V30 9942 C 930.66 4.55044 -1.56489 0
M  V30 9943 C 933.012 4.78577 -2.0643 0
M  V30 9944 C 930.34 5.17325 -2.76752 0
M  V30 9945 C 932.692 5.42186 -3.25909 0
M  V30 9946 C 931.356 5.61165 -3.61456 0
M  V30 9947 H 930.626 0.740745 -0.0194333 0
M  V30 9948 H 933.273 1.76366 -0.74614 0
M  V30 9949 H 931.578 3.82461 0.850325 0
M  V30 9950 H 933.275 3.97982 0.491077 0
M  V30 9951 H 929.865 4.18435 -0.927922 0
M  V30 9952 H 934.049 4.62313 -1.80501 0
M  V30 9953 H 929.305 5.30211 -3.04444 0
M  V30 9954 H 933.479 5.75459 -3.92198 0
M  V30 9955 H 931.106 6.09195 -4.54737 0
M  V30 9956 N 932.681 0.308908 1.54543 0
M  V30 9957 C 933.629 -0.579326 2.2527 0
M  V30 9958 C 934.623 -1.13058 1.26152 0
M  V30 9959 O 935.829 -1.08031 1.43977 0
M  V30 9960 H 932.204 -0.205444 0.723392 0
M  V30 9961 H 934.175 0.0396415 2.98374 0
M  V30 9962 C 932.924 -1.73584 3.01271 0
M  V30 9963 H 932.247 -1.32089 3.77349 0
M  V30 9964 H 933.687 -2.33324 3.54028 0
M  V30 9965 C 932.146 -2.6447 2.08703 0
M  V30 9966 O 932.676 -3.65785 1.66025 0
M  V30 9967 N 930.882 -2.32379 1.74495 0
M  V30 9968 H 930.429 -1.50034 2.09398 0
M  V30 9969 H 930.387 -2.93454 1.12836 0
M  V30 9970 N 934.159 -1.57557 0.0367827 0
M  V30 9971 C 935.407 -1.91735 -0.63892 0
M  V30 9972 C 935.728 -0.914515 -1.72226 0
M  V30 9973 O 934.998 0.0428248 -1.95853 0
M  V30 9974 H 933.578 -0.707738 -0.23899 0
M  V30 9975 H 936.24 -1.94708 0.0863931 0
M  V30 9976 H 935.336 -2.92568 -1.08676 0
M  V30 9977 N 935.637 0.236453 -1.55816 0
M  V30 9978 C 936.585 1.31259 -1.92025 0
M  V30 9979 C 937.579 1.49292 -0.800518 0
M  V30 9980 O 938.785 1.50643 -0.985229 0
M  V30 9981 H 935.16 0.439751 -0.610019 0
M  V30 9982 H 937.131 0.979926 -2.81851 0
M  V30 9983 C 935.88 2.65892 -2.24046 0
M  V30 9984 H 935.203 2.5282 -3.09713 0
M  V30 9985 H 936.643 3.40039 -2.53277 0
M  V30 9986 C 935.102 3.19777 -1.0604 0
M  V30 9987 O 935.632 4.00473 -0.313786 0
M  V30 9988 N 933.838 2.77946 -0.848209 0
M  V30 9989 H 933.385 2.12433 -1.45706 0
M  V30 9990 H 933.343 3.14342 -0.0603424 0
M  V30 9991 N 937.115 1.49373 0.502552 0
M  V30 9992 C 938.362 1.58781 1.25678 0
M  V30 9993 C 938.69 0.273819 1.92563 0
M  V30 9994 O 937.945 -0.738141 1.81246 0
M  V30 9995 C 938.244 2.69508 2.34735 0
M  V30 9996 C 937.91 4.11057 1.85318 0
M  V30 9997 C 936.572 4.49578 1.7156 0
M  V30 9998 C 938.924 4.99653 1.48312 0
M  V30 9999 C 936.252 5.74469 1.19172 0
M  V30 10000 C 938.604 6.2506 0.97377 0
M  V30 10001 C 937.268 6.62412 0.822573 0
M  V30 10002 H 936.538 0.581021 0.459887 0
M  V30 10003 H 939.185 1.83197 0.557767 0
M  V30 10004 H 937.49 2.39057 3.10418 0
M  V30 10005 H 939.187 2.73997 2.92791 0
M  V30 10006 H 935.777 3.80651 1.96985 0
M  V30 10007 H 939.961 4.70549 1.57789 0
M  V30 10008 H 935.217 6.0211 1.06176 0
M  V30 10009 H 939.391 6.93089 0.678233 0
M  V30 10010 H 937.018 7.59069 0.414453 0
M  V30 10011 N 938.594 -0.753485 1.38421 0
M  V30 10012 C 939.871 -1.50318 1.25155 0
M  V30 10013 C 940.251 -2.10588 -0.147003 0
M  V30 10014 O 939.599 -1.97071 -1.15651 0
M  V30 10015 C 939.809 -2.56946 2.36177 0
M  V30 10016 C 941.157 -3.23846 2.74607 0
M  V30 10017 O 942.181 -2.67251 2.3549 0
M  V30 10018 O 941.04 -4.2621 3.42064 0
M  V30 10019 H 938.134 -0.666624 0.48943 0
M  V30 10020 H 940.68 -0.788887 1.50249 0
M  V30 10021 H 939.452 -2.1066 3.29754 0
M  V30 10022 H 939.075 -3.35956 2.12648 0
M  V30 10023 N 940.072 -1.23292 -0.981677 0
M  V30 10024 C 941.321 -1.05832 -1.71705 0
M  V30 10025 C 941.634 0.40514 -1.91358 0
M  V30 10026 O 942.84 0.699645 -2.6233 0
M  V30 10027 C 941.296 -1.84532 -3.08992 0
M  V30 10028 C 940.904 -3.35199 -2.9723 0
M  V30 10029 C 942.648 -1.75557 -3.86497 0
M  V30 10030 C 940.555 -4.06296 -4.29741 0
M  V30 10031 H 939.485 -0.39241 -0.64384 0
M  V30 10032 H 942.136 -1.47247 -1.09502 0
M  V30 10033 H 940.518 -1.35923 -3.71942 0
M  V30 10034 H 941.692 -3.91286 -2.43377 0
M  V30 10035 H 940.007 -3.44973 -2.332 0
M  V30 10036 H 942.604 -2.25989 -4.84596 0
M  V30 10037 H 942.947 -0.718101 -4.1006 0
M  V30 10038 H 943.48 -2.21771 -3.30246 0
M  V30 10039 H 940.219 -5.10344 -4.11375 0
M  V30 10040 H 939.739 -3.54997 -4.83464 0
M  V30 10041 H 941.418 -4.12519 -4.98434 0
M  V30 10042 N 941.55 1.18024 -1.04442 0
M  V30 10043 C 942.827 1.8398 -0.664125 0
M  V30 10044 C 943.207 1.92961 0.856116 0
M  V30 10045 O 942.555 1.45839 1.75907 0
M  V30 10046 C 942.765 3.22069 -1.34433 0
M  V30 10047 C 944.113 3.98063 -1.47754 0
M  V30 10048 O 945.137 3.31523 -1.30274 0
M  V30 10049 O 943.996 5.17291 -1.76272 0
M  V30 10050 H 941.09 0.793543 -0.23285 0
M  V30 10051 H 943.636 1.25385 -1.14354 0
M  V30 10052 H 942.408 3.10458 -2.38184 0
M  V30 10053 H 942.031 3.88325 -0.853782 0
M  V30 10054 N 943.028 0.824394 1.34319 0
M  V30 10055 C 944.439 0.471802 1.8064 0
M  V30 10056 C 944.79 -1.00793 1.6833 0
M  V30 10057 O 943.915 -1.78447 1.22416 0
M  V30 10058 C 944.51 0.849609 3.27974 0
M  V30 10059 C 943.069 0.549365 3.72369 0
M  V30 10060 C 942.216 1.06573 2.56003 0
M  V30 10061 H 945.167 1.01443 1.22045 0
M  V30 10062 H 945.188 0.153968 3.80188 0
M  V30 10063 H 944.7 1.92663 3.36902 0
M  V30 10064 H 942.801 -0.518182 3.68979 0
M  V30 10065 H 942.914 1.09446 4.66432 0
M  V30 10066 H 941.278 0.487214 2.49997 0
M  V30 10067 H 942.061 2.14923 2.677 0
M  V30 10068 N 944.506 -1.46559 0.579492 0
M  V30 10069 C 945.416 -2.34066 -0.15816 0
M  V30 10070 C 946.432 -1.49556 -0.88932 0
M  V30 10071 O 947.608 -1.82434 -0.853226 0
M  V30 10072 C 944.673 -3.26683 -1.161 0
M  V30 10073 C 943.734 -4.27092 -0.434855 0
M  V30 10074 C 942.967 -5.15283 -1.38992 0
M  V30 10075 O 943.19 -5.06345 -2.62623 0
M  V30 10076 O 942.124 -5.95099 -0.902253 0
M  V30 10077 H 945.95 -2.98488 0.560234 0
M  V30 10078 H 943.535 -1.45482 0.339918 0
M  V30 10079 H 945.417 -3.8383 -1.73932 0
M  V30 10080 H 944.092 -2.64862 -1.86091 0
M  V30 10081 H 942.999 -3.73641 0.185224 0
M  V30 10082 H 944.332 -4.9169 0.224031 0
M  V30 10083 N 945.984 -0.3171 -1.54377 0
M  V30 10084 C 946.931 0.551782 -2.24107 0
M  V30 10085 C 947.901 1.11681 -1.22949 0
M  V30 10086 O 949.086 1.15836 -1.51614 0
M  V30 10087 C 946.226 1.70997 -2.99756 0
M  V30 10088 C 945.339 1.17479 -4.15719 0
M  V30 10089 C 944.474 2.29815 -4.78914 0
M  V30 10090 C 943.513 1.73513 -5.86992 0
M  V30 10091 N 942.65 2.79485 -6.44075 0
M  V30 10092 H 947.49 -0.049431 -2.97959 0
M  V30 10093 H 945.027 -0.0361658 -1.47056 0
M  V30 10094 H 946.985 2.39141 -3.41859 0
M  V30 10095 H 945.615 2.28257 -2.28251 0
M  V30 10096 H 944.667 0.385109 -3.78446 0
M  V30 10097 H 945.979 0.72276 -4.93536 0
M  V30 10098 H 945.133 3.05875 -5.23952 0
M  V30 10099 H 943.872 2.78352 -4.00464 0
M  V30 10100 H 942.877 0.959475 -5.41363 0
M  V30 10101 H 944.102 1.2586 -6.67335 0
M  V30 10102 H 942.048 3.27325 -5.68502 0
M  V30 10103 H 941.965 2.38825 -7.17286 0
M  V30 10104 H 943.233 3.55394 -6.93769 0
M  V30 10105 N 947.462 1.57535 -0.0451378 0
M  V30 10106 C 948.709 1.92451 0.629987 0
M  V30 10107 C 949.037 0.92298 1.71206 0
M  V30 10108 O 948.292 -0.0656626 1.9559 0
M  V30 10109 C 948.591 3.34065 1.27024 0
M  V30 10110 C 948.257 4.49785 0.316971 0
M  V30 10111 C 946.919 4.81169 0.0546406 0
M  V30 10112 C 949.271 5.20111 -0.336693 0
M  V30 10113 C 946.599 5.8023 -0.86889 0
M  V30 10114 C 948.951 6.2016 -1.24838 0
M  V30 10115 C 947.615 6.49976 -1.51944 0
M  V30 10116 H 946.885 0.704228 0.230529 0
M  V30 10117 H 949.532 1.91182 -0.110328 0
M  V30 10118 H 947.837 3.31672 2.08568 0
M  V30 10119 H 949.534 3.58359 1.79945 0
M  V30 10120 H 946.124 4.2529 0.531614 0
M  V30 10121 H 950.308 4.96082 -0.147105 0
M  V30 10122 H 945.564 6.0167 -1.08643 0
M  V30 10123 H 949.738 6.73767 -1.76098 0
M  V30 10124 H 947.365 7.26551 -2.2367 0
M  V30 10125 N 948.94 -0.228186 1.55939 0
M  V30 10126 C 950.187 -0.953552 1.78644 0
M  V30 10127 C 950.515 -1.84596 0.61275 0
M  V30 10128 O 949.77 -1.91502 -0.403175 0
M  V30 10129 C 950.069 -1.82924 3.0704 0
M  V30 10130 C 949.735 -1.09062 4.37511 0
M  V30 10131 C 948.397 -0.886565 4.72962 0
M  V30 10132 C 950.749 -0.568533 5.1809 0
M  V30 10133 C 948.077 -0.148413 5.86512 0
M  V30 10134 C 950.429 0.156243 6.32407 0
M  V30 10135 C 949.093 0.371612 6.66465 0
M  V30 10136 H 948.363 -0.348929 0.653704 0
M  V30 10137 H 951.01 -0.222211 1.90206 0
M  V30 10138 H 949.315 -2.62823 2.90571 0
M  V30 10139 H 951.012 -2.3925 3.21808 0
M  V30 10140 H 947.602 -1.25963 4.09672 0
M  V30 10141 H 951.786 -0.713673 4.91142 0
M  V30 10142 H 947.042 0.0287418 6.11393 0
M  V30 10143 H 951.216 0.568333 6.94077 0
M  V30 10144 H 948.843 0.945522 7.54297 0
M  V30 10145 N 950.418 -1.49637 -0.494624 0
M  V30 10146 C 951.834 -1.36541 -0.826361 0
M  V30 10147 C 952.034 -0.403386 -1.97421 0
M  V30 10148 O 951.09 0.162614 -2.51976 0
M  V30 10149 C 952.403 -2.77401 -1.16057 0
M  V30 10150 C 953.951 -2.86148 -1.26841 0
M  V30 10151 C 954.426 -4.27789 -1.63587 0
M  V30 10152 N 955.917 -4.3063 -1.70624 0
M  V30 10153 C 956.652 -5.37198 -2.00514 0
M  V30 10154 N 956.148 -6.54004 -2.28584 0
M  V30 10155 N 957.941 -5.2462 -2.01818 0
M  V30 10156 H 950.092 -2.10776 0.26219 0
M  V30 10157 H 952.355 -0.946419 0.0547235 0
M  V30 10158 H 952.061 -3.49526 -0.390434 0
M  V30 10159 H 951.935 -3.1317 -2.10249 0
M  V30 10160 H 954.322 -2.14256 -2.02925 0
M  V30 10161 H 954.403 -2.53953 -0.30684 0
M  V30 10162 H 954.047 -5.00209 -0.880507 0
M  V30 10163 H 953.977 -4.57453 -2.60854 0
M  V30 10164 H 956.468 -3.46393 -1.51065 0
M  V30 10165 H 956.781 -7.31041 -2.50598 0
M  V30 10166 H 955.126 -6.57219 -2.26027 0
M  V30 10167 H 958.317 -4.32371 -1.79369 0
M  V30 10168 H 958.49 -6.07765 -2.24778 0
M  V30 10169 N 951.896 0.746133 -1.38819 0
M  V30 10170 C 952.806 1.89063 -1.38897 0
M  V30 10171 C 953.822 1.71648 -0.28513 0
M  V30 10172 O 954.998 1.94443 -0.524783 0
M  V30 10173 C 952.063 3.24523 -1.22007 0
M  V30 10174 C 951.124 3.54411 -2.42263 0
M  V30 10175 C 950.357 4.83408 -2.26169 0
M  V30 10176 O 950.58 5.56325 -1.25931 0
M  V30 10177 O 949.514 5.12943 -3.14918 0
M  V30 10178 H 953.34 1.91951 -2.35347 0
M  V30 10179 H 950.925 0.892433 -1.19816 0
M  V30 10180 H 952.807 4.05496 -1.14677 0
M  V30 10181 H 951.482 3.2243 -0.286455 0
M  V30 10182 H 950.389 2.73569 -2.55168 0
M  V30 10183 H 951.722 3.61273 -3.3428 0
M  V30 10184 N 953.375 1.23811 0.975125 0
M  V30 10185 C 954.305 1.04846 2.08638 0
M  V30 10186 C 955.286 -0.0362859 1.70061 0
M  V30 10187 O 956.471 0.12937 1.93769 0
M  V30 10188 C 953.601 0.644534 3.41267 0
M  V30 10189 C 952.555 1.67722 3.93768 0
M  V30 10190 C 951.881 1.12857 5.22654 0
M  V30 10191 C 953.181 3.07147 4.22443 0
M  V30 10192 H 954.875 1.97795 2.24761 0
M  V30 10193 H 952.421 0.952397 1.08006 0
M  V30 10194 H 954.374 0.498887 4.18436 0
M  V30 10195 H 953.098 -0.320641 3.25022 0
M  V30 10196 H 951.757 1.81095 3.18748 0
M  V30 10197 H 951.405 0.154227 5.02764 0
M  V30 10198 H 951.105 1.81862 5.58749 0
M  V30 10199 H 952.629 0.994891 6.0244 0
M  V30 10200 H 954.043 2.97045 4.90344 0
M  V30 10201 H 952.44 3.73437 4.6975 0
M  V30 10202 H 953.51 3.55743 3.29507 0
M  V30 10203 N 954.853 -1.17469 1.05066 0
M  V30 10204 C 956.101 -1.87327 0.758485 0
M  V30 10205 C 956.422 -1.81358 -0.716549 0
M  V30 10206 O 955.692 -1.23868 -1.51768 0
M  V30 10207 H 954.272 -0.693512 0.277579 0
M  V30 10208 H 956.934 -1.4251 1.32954 0
M  V30 10209 H 956.03 -2.93101 1.0723 0
M  V30 10210 N 956.331 -0.831506 -1.3388 0
M  V30 10211 C 957.241 -0.261688 -2.33136 0
M  V30 10212 C 958.257 0.608429 -1.63016 0
M  V30 10213 O 959.433 0.514297 -1.94723 0
M  V30 10214 C 956.498 0.559957 -3.42148 0
M  V30 10215 C 955.559 -0.333569 -4.28002 0
M  V30 10216 C 954.792 0.448956 -5.31808 0
M  V30 10217 O 955.015 1.6814 -5.45055 0
M  V30 10218 O 953.949 -0.173197 -6.01651 0
M  V30 10219 H 957.775 -1.08343 -2.83717 0
M  V30 10220 H 955.36 -0.593849 -1.3709 0
M  V30 10221 H 957.242 1.02712 -4.08691 0
M  V30 10222 H 955.917 1.35888 -2.93796 0
M  V30 10223 H 954.824 -0.848416 -3.64352 0
M  V30 10224 H 956.157 -1.09707 -4.79818 0
M  V30 10225 N 957.809 1.4625 -0.587256 0
M  V30 10226 C 958.756 2.30354 0.143384 0
M  V30 10227 C 959.726 1.40891 0.879716 0
M  V30 10228 O 960.911 1.69837 0.869486 0
M  V30 10229 C 958.051 3.25441 1.14815 0
M  V30 10230 C 957.164 4.30004 0.414792 0
M  V30 10231 C 956.299 5.12214 1.40748 0
M  V30 10232 C 955.338 6.08523 0.660786 0
M  V30 10233 N 954.475 6.83585 1.60176 0
M  V30 10234 H 959.315 2.92304 -0.579866 0
M  V30 10235 H 956.852 1.44055 -0.29777 0
M  V30 10236 H 958.81 3.79018 1.7436 0
M  V30 10237 H 957.44 2.6529 1.83906 0
M  V30 10238 H 956.492 3.79248 -0.295787 0
M  V30 10239 H 957.804 4.98515 -0.168738 0
M  V30 10240 H 956.958 5.70091 2.0756 0
M  V30 10241 H 955.697 4.43675 2.02494 0
M  V30 10242 H 954.702 5.49796 -0.0210864 0
M  V30 10243 H 955.927 6.79083 0.0486551 0
M  V30 10244 H 953.873 6.17752 2.20724 0
M  V30 10245 H 953.79 7.48373 1.07115 0
M  V30 10246 H 955.058 7.46016 2.26009 0
M  V30 10247 N 959.287 0.325282 1.54207 0
M  V30 10248 C 960.515 -0.27869 2.05014 0
M  V30 10249 C 960.93 -1.45649 1.20133 0
M  V30 10250 O 960.287 -1.81014 0.232398 0
M  V30 10251 C 960.338 -0.711486 3.54429 0
M  V30 10252 O 960.059 0.419458 4.36087 0
M  V30 10253 C 961.56 -1.37809 4.21336 0
M  V30 10254 H 958.78 -0.0570388 0.668571 0
M  V30 10255 H 961.324 0.47197 1.98979 0
M  V30 10256 H 959.479 -1.41212 3.60746 0
M  V30 10257 H 959.893 0.0781037 5.24442 0
M  V30 10258 H 961.367 -1.63184 5.27328 0
M  V30 10259 H 961.844 -2.32593 3.72555 0
M  V30 10260 H 962.45 -0.719987 4.19161 0
M  V30 10261 N 960.765 -1.57509 0.0534917 0
M  V30 10262 C 961.675 -2.15152 -0.935249 0
M  V30 10263 C 962.691 -1.10991 -1.34003 0
M  V30 10264 O 963.867 -1.43171 -1.41648 0
M  V30 10265 C 960.932 -2.68699 -2.19093 0
M  V30 10266 C 959.993 -3.87666 -1.84428 0
M  V30 10267 C 959.226 -4.3865 -3.0401 0
M  V30 10268 O 959.449 -3.887 -4.17455 0
M  V30 10269 O 958.383 -5.30209 -2.84889 0
M  V30 10270 H 962.209 -2.99962 -0.475009 0
M  V30 10271 H 959.794 -1.48446 -0.16854 0
M  V30 10272 H 961.676 -3.03098 -2.92762 0
M  V30 10273 H 960.351 -1.86958 -2.6425 0
M  V30 10274 H 959.258 -3.58151 -1.08068 0
M  V30 10275 H 960.591 -4.70643 -1.44068 0
M  V30 10276 N 962.243 0.219913 -1.56058 0
M  V30 10277 C 963.191 1.29215 -1.93407 0
M  V30 10278 C 964.185 1.48434 -0.816307 0
M  V30 10279 O 965.391 1.49589 -1.00115 0
M  V30 10280 H 961.766 0.433256 -0.614649 0
M  V30 10281 H 963.737 0.949977 -2.82875 0
M  V30 10282 C 962.486 2.63501 -2.26854 0
M  V30 10283 H 961.809 2.4952 -3.12377 0
M  V30 10284 H 963.249 3.37334 -2.56869 0
M  V30 10285 C 961.708 3.18634 -1.09425 0
M  V30 10286 O 962.238 4.00117 -0.356243 0
M  V30 10287 N 960.444 2.7703 -0.877642 0
M  V30 10288 H 959.991 2.10875 -1.47951 0
M  V30 10289 H 959.949 3.1426 -0.0936792 0
M  V30 10290 N 963.721 1.49897 0.486681 0
M  V30 10291 C 964.631 1.70379 1.6127 0
M  V30 10292 C 965.647 0.58659 1.63814 0
M  V30 10293 O 966.823 0.863044 1.81971 0
M  V30 10294 C 963.888 1.77911 2.97571 0
M  V30 10295 C 962.949 3.01569 3.0554 0
M  V30 10296 C 962.182 3.08732 4.35339 0
M  V30 10297 O 962.405 2.23099 5.2496 0
M  V30 10298 O 961.339 4.01325 4.48578 0
M  V30 10299 H 965.165 2.65799 1.46916 0
M  V30 10300 H 962.75 1.33808 0.664516 0
M  V30 10301 H 964.632 1.85135 3.78554 0
M  V30 10302 H 963.307 0.856722 3.12157 0
M  V30 10303 H 962.214 2.99854 2.23693 0
M  V30 10304 H 963.547 3.93335 2.95886 0
M  V30 10305 N 965.199 -0.738761 1.39212 0
M  V30 10306 C 966.146 -1.85273 1.37631 0
M  V30 10307 C 967.116 -1.64407 0.236572 0
M  V30 10308 O 968.301 -1.85866 0.431104 0
M  V30 10309 C 965.441 -3.22745 1.22188 0
M  V30 10310 C 964.554 -3.55342 2.45674 0
M  V30 10311 C 963.689 -4.82195 2.22847 0
M  V30 10312 C 962.728 -5.07625 3.42029 0
M  V30 10313 N 961.865 -6.25679 3.18543 0
M  V30 10314 H 966.705 -1.85959 2.32859 0
M  V30 10315 H 964.242 -0.908716 1.15675 0
M  V30 10316 H 966.2 -4.02095 1.11245 0
M  V30 10317 H 964.83 -3.21347 0.30592 0
M  V30 10318 H 963.882 -2.70722 2.67233 0
M  V30 10319 H 965.194 -3.70054 3.34457 0
M  V30 10320 H 964.348 -5.69518 2.09126 0
M  V30 10321 H 963.087 -4.6965 1.31454 0
M  V30 10322 H 962.092 -4.18765 3.56253 0
M  V30 10323 H 963.317 -5.22058 4.34319 0
M  V30 10324 H 961.263 -6.14429 2.2981 0
M  V30 10325 H 961.18 -6.40961 4.0088 0
M  V30 10326 H 962.448 -7.15851 3.08508 0
M  V30 10327 N 966.677 -1.24326 -0.968545 0
M  V30 10328 C 967.926 -1.07647 -1.70572 0
M  V30 10329 C 968.239 0.384821 -1.91777 0
M  V30 10330 O 969.445 0.671782 -2.63058 0
M  V30 10331 C 967.901 -1.87799 -3.07017 0
M  V30 10332 C 967.509 -3.38333 -2.93658 0
M  V30 10333 C 969.253 -1.79647 -3.84613 0
M  V30 10334 C 967.16 -4.10831 -4.25407 0
M  V30 10335 H 966.09 -0.399216 -0.639642 0
M  V30 10336 H 968.741 -1.484 -1.07934 0
M  V30 10337 H 967.123 -1.3986 -3.7048 0
M  V30 10338 H 968.297 -3.93845 -2.39213 0
M  V30 10339 H 966.612 -3.47427 -2.29528 0
M  V30 10340 H 969.209 -2.31116 -4.82172 0
M  V30 10341 H 969.552 -0.761553 -4.09275 0
M  V30 10342 H 970.085 -2.25261 -3.27875 0
M  V30 10343 H 966.824 -5.14679 -4.05939 0
M  V30 10344 H 966.344 -3.60105 -4.79671 0
M  V30 10345 H 968.023 -4.17783 -4.94031 0
M  V30 10346 N 968.156 1.1691 -1.05688 0
M  V30 10347 C 969.103 2.21095 -0.662246 0
M  V30 10348 C 970.073 1.62623 0.338083 0
M  V30 10349 O 971.258 1.89428 0.228362 0
M  V30 10350 C 968.398 3.45066 -0.0484018 0
M  V30 10351 C 967.511 4.17809 -1.09817 0
M  V30 10352 C 966.646 5.29281 -0.451114 0
M  V30 10353 C 965.685 5.93817 -1.48484 0
M  V30 10354 N 964.822 6.96793 -0.861588 0
M  V30 10355 H 969.662 2.54204 -1.55513 0
M  V30 10356 H 967.199 1.24863 -0.777665 0
M  V30 10357 H 969.157 4.15932 0.324978 0
M  V30 10358 H 967.787 3.12526 0.807918 0
M  V30 10359 H 966.839 3.45608 -1.58932 0
M  V30 10360 H 968.151 4.61907 -1.88265 0
M  V30 10361 H 967.305 6.06695 -0.0244251 0
M  V30 10362 H 966.044 4.8633 0.365306 0
M  V30 10363 H 965.049 5.1513 -1.92149 0
M  V30 10364 H 966.274 6.38848 -2.30325 0
M  V30 10365 H 964.22 6.55967 -0.0657688 0
M  V30 10366 H 964.137 7.39229 -1.58354 0
M  V30 10367 H 965.405 7.78142 -0.45984 0
M  V30 10368 N 969.634 0.838594 1.33437 0
M  V30 10369 C 970.566 0.229006 2.28053 0
M  V30 10370 C 971.579 -0.590103 1.51729 0
M  V30 10371 O 972.768 -0.417218 1.73556 0
M  V30 10372 C 969.868 -0.696251 3.31671 0
M  V30 10373 C 969.041 0.0834606 4.3732 0
M  V30 10374 C 968.1 -0.765097 5.20608 0
M  V30 10375 O 967.126 -0.2044 5.68833 0
M  V30 10376 N 968.328 -2.08249 5.4186 0
M  V30 10377 H 971.093 1.04196 2.81004 0
M  V30 10378 H 968.654 0.697031 1.46127 0
M  V30 10379 H 970.646 -1.26889 3.84293 0
M  V30 10380 H 969.216 -1.40992 2.78998 0
M  V30 10381 H 968.436 0.837481 3.85201 0
M  V30 10382 H 969.724 0.619613 5.05013 0
M  V30 10383 H 969.122 -2.56156 5.04381 0
M  V30 10384 H 967.679 -2.60362 5.97541 0
M  V30 10385 N 971.112 -1.45937 0.595003 0
M  V30 10386 C 972.06 -2.32155 -0.143798 0
M  V30 10387 C 973.054 -1.45221 -0.872198 0
M  V30 10388 O 974.26 -1.61777 -0.789191 0
M  V30 10389 H 970.635 -0.749165 -0.0652377 0
M  V30 10390 H 972.606 -2.92264 0.602005 0
M  V30 10391 C 971.355 -3.28615 -1.13611 0
M  V30 10392 H 970.678 -3.95496 -0.585044 0
M  V30 10393 H 972.118 -3.91699 -1.62321 0
M  V30 10394 C 970.577 -2.54863 -2.20333 0
M  V30 10395 O 971.107 -2.32071 -3.27881 0
M  V30 10396 N 969.313 -2.15213 -1.95274 0
M  V30 10397 H 968.86 -2.33949 -1.07822 0
M  V30 10398 H 968.818 -1.66188 -2.66888 0
M  V30 10399 N 972.59 -0.333456 -1.54032 0
M  V30 10400 C 973.5 0.536674 -2.28379 0
M  V30 10401 C 974.516 1.12068 -1.33104 0
M  V30 10402 O 975.692 1.13853 -1.66131 0
M  V30 10403 C 972.757 1.67677 -3.03456 0
M  V30 10404 C 971.818 1.12357 -4.14336 0
M  V30 10405 C 971.051 2.20933 -4.85823 0
M  V30 10406 O 971.274 3.41466 -4.569 0
M  V30 10407 O 970.208 1.85795 -5.72507 0
M  V30 10408 H 974.034 -0.0674003 -3.03625 0
M  V30 10409 H 971.619 -0.098823 -1.49073 0
M  V30 10410 H 973.501 2.34032 -3.50438 0
M  V30 10411 H 972.176 2.26684 -2.31076 0
M  V30 10412 H 971.083 0.424827 -3.7168 0
M  V30 10413 H 972.416 0.578497 -4.88789 0
M  V30 10414 N 974.068 1.57479 -0.061844 0
M  V30 10415 C 974.978 2.15645 0.923826 0
M  V30 10416 C 975.994 1.117 1.33413 0
M  V30 10417 O 977.17 1.4392 1.40887 0
M  V30 10418 C 974.235 2.69857 2.17665 0
M  V30 10419 C 973.296 3.88638 1.8237 0
M  V30 10420 C 972.529 4.40256 3.01679 0
M  V30 10421 O 972.752 3.90908 4.15388 0
M  V30 10422 O 971.686 5.31713 2.82073 0
M  V30 10423 H 975.512 3.0021 0.459094 0
M  V30 10424 H 973.097 1.48534 0.160665 0
M  V30 10425 H 974.979 3.04647 2.9115 0
M  V30 10426 H 973.654 1.88357 2.63255 0
M  V30 10427 H 972.561 3.58719 1.06167 0
M  V30 10428 H 973.894 4.71401 1.4157 0
M  V30 10429 N 975.546 -0.211634 1.56173 0
M  V30 10430 C 976.823 -0.959467 1.70451 0
M  V30 10431 C 977.203 -2.02036 0.611942 0
M  V30 10432 O 976.551 -2.25325 -0.37959 0
M  V30 10433 C 976.761 -1.56092 3.12148 0
M  V30 10434 C 978.109 -2.04939 3.71867 0
M  V30 10435 O 979.133 -1.65966 3.15172 0
M  V30 10436 O 977.992 -2.766 4.71333 0
M  V30 10437 H 975.086 -0.448844 0.6946 0
M  V30 10438 H 977.632 -0.202633 1.68486 0
M  V30 10439 H 976.404 -0.79538 3.83131 0
M  V30 10440 H 976.027 -2.38303 3.18273 0
M  V30 10441 N 977.024 -1.50153 -0.478725 0
M  V30 10442 C 978.273 -1.60002 -1.22809 0
M  V30 10443 C 978.586 -0.302277 -1.9325 0
M  V30 10444 O 979.792 -0.279583 -2.70057 0
M  V30 10445 C 978.248 -2.82402 -2.23108 0
M  V30 10446 C 977.856 -4.19023 -1.58505 0
M  V30 10447 C 979.6 -3.01593 -2.98734 0
M  V30 10448 C 977.507 -5.32618 -2.57045 0
M  V30 10449 H 976.437 -0.595822 -0.462073 0
M  V30 10450 H 979.088 -1.76573 -0.499412 0
M  V30 10451 H 977.47 -2.59373 -2.99235 0
M  V30 10452 H 978.644 -4.52277 -0.882187 0
M  V30 10453 H 976.959 -4.05374 -0.951877 0
M  V30 10454 H 979.556 -3.8363 -3.72468 0
M  V30 10455 H 979.899 -2.1302 -3.57671 0
M  V30 10456 H 980.432 -3.24766 -2.29721 0
M  V30 10457 H 977.171 -6.23321 -2.02858 0
M  V30 10458 H 976.691 -5.03792 -3.25505 0
M  V30 10459 H 978.37 -5.62877 -3.19028 0
M  V30 10460 N 978.502 0.731368 -1.39602 0
M  V30 10461 C 979.727 1.52567 -1.40492 0
M  V30 10462 C 980.152 1.881 -0.00228828 0
M  V30 10463 O 979.51 1.52167 0.985643 0
M  V30 10464 C 979.558 2.78749 -2.2876 0
M  V30 10465 O 978.662 3.7482 -1.71999 0
M  V30 10466 H 978.003 0.460601 -0.478271 0
M  V30 10467 H 980.533 0.902042 -1.83642 0
M  V30 10468 H 980.543 3.27446 -2.43399 0
M  V30 10469 H 979.218 2.5222 -3.30693 0
M  V30 10470 H 977.795 3.33604 -1.66622 0
M  V30 10471 N 979.98 1.24838 0.961938 0
M  V30 10472 C 981.228 1.08936 1.70227 0
M  V30 10473 C 981.549 -0.371582 1.91427 0
M  V30 10474 O 980.819 -1.26461 1.49614 0
M  V30 10475 H 979.399 0.400128 0.630799 0
M  V30 10476 H 982.061 1.56848 1.15692 0
M  V30 10477 H 981.157 1.59195 2.68446 0
M  V30 10478 N 981.458 -1.16348 1.06306 0
M  V30 10479 C 982.406 -2.22799 0.668087 0
M  V30 10480 C 983.4 -1.66426 -0.316051 0
M  V30 10481 O 984.606 -1.79089 -0.180902 0
M  V30 10482 H 980.981 -0.725487 0.19792 0
M  V30 10483 H 982.952 -2.53401 1.57577 0
M  V30 10484 C 981.701 -3.47628 0.0706797 0
M  V30 10485 H 981.024 -3.9132 0.819064 0
M  V30 10486 H 982.464 -4.23666 -0.16816 0
M  V30 10487 C 980.923 -3.15343 -1.18577 0
M  V30 10488 O 981.453 -3.31158 -2.27371 0
M  V30 10489 N 979.659 -2.69472 -1.08779 0
M  V30 10490 H 979.206 -2.56803 -0.202447 0
M  V30 10491 H 979.164 -2.48244 -1.92931 0
M  V30 10492 N 982.937 -0.845659 -1.3299 0
M  V30 10493 C 984.214 -0.366306 -1.92139 0
M  V30 10494 C 984.594 1.14912 -1.77083 0
M  V30 10495 O 983.942 1.96667 -1.16338 0
M  V30 10496 C 984.152 -0.820716 -3.39213 0
M  V30 10497 C 985.5 -0.832667 -4.16355 0
M  V30 10498 O 986.524 -0.764764 -3.47893 0
M  V30 10499 O 985.383 -0.926658 -5.38586 0
M  V30 10500 H 982.477 -0.105063 -0.820299 0
M  V30 10501 H 985.023 -0.931962 -1.41819 0
M  V30 10502 H 983.795 -1.86357 -3.44074 0
M  V30 10503 H 983.418 -0.232009 -3.96923 0
M  V30 10504 N 984.415 1.45619 -0.602734 0
M  V30 10505 C 985.325 2.34288 0.120902 0
M  V30 10506 C 986.341 1.50952 0.865414 0
M  V30 10507 O 987.517 1.83768 0.824094 0
M  V30 10508 C 984.582 3.28489 1.10888 0
M  V30 10509 C 983.643 4.2773 0.366853 0
M  V30 10510 C 982.876 5.17429 1.30776 0
M  V30 10511 O 983.099 5.10459 2.54535 0
M  V30 10512 O 982.033 5.96459 0.807464 0
M  V30 10513 H 985.859 2.97559 -0.60765 0
M  V30 10514 H 983.444 1.44922 -0.363019 0
M  V30 10515 H 985.326 3.86549 1.67803 0
M  V30 10516 H 984.001 2.67789 1.81854 0
M  V30 10517 H 982.908 3.73299 -0.244643 0
M  V30 10518 H 984.241 4.91271 -0.302226 0
M  V30 10519 N 985.893 0.34162 1.53853 0
M  V30 10520 C 986.843 -0.531995 2.21707 0
M  V30 10521 C 987.827 -1.06759 1.2038 0
M  V30 10522 O 989.019 -1.00161 1.45934 0
M  V30 10523 C 986.148 -1.6834 2.99193 0
M  V30 10524 C 985.234 -1.16184 4.07875 0
M  V30 10525 N 985.625 -0.361348 5.04508 0
M  V30 10526 C 983.923 -1.43891 4.22151 0
M  V30 10527 C 984.624 -0.0785378 5.81647 0
M  V30 10528 N 983.6 -0.669651 5.3946 0
M  V30 10529 H 987.402 0.0866825 2.93772 0
M  V30 10530 H 984.916 0.148386 1.61721 0
M  V30 10531 H 986.913 -2.32121 3.46303 0
M  V30 10532 H 985.573 -2.30538 2.28653 0
M  V30 10533 H 986.584 -0.00259906 5.179 0
M  V30 10534 H 983.261 -2.06542 3.62832 0
M  V30 10535 H 984.651 0.567068 6.69503 0
M  V30 10536 N 987.371 -1.57444 0.0701946 0
M  V30 10537 C 988.301 -2.15659 -0.895176 0
M  V30 10538 C 989.282 -1.08321 -1.31151 0
M  V30 10539 O 990.467 -1.36349 -1.38284 0
M  V30 10540 C 987.597 -2.71693 -2.16334 0
M  V30 10541 C 986.551 -3.84183 -1.88645 0
M  V30 10542 C 985.877 -4.26814 -3.22078 0
M  V30 10543 C 987.177 -5.08493 -1.19299 0
M  V30 10544 H 988.871 -2.96576 -0.410217 0
M  V30 10545 H 986.417 -1.42662 -0.195872 0
M  V30 10546 H 988.37 -3.11064 -2.84284 0
M  V30 10547 H 987.094 -1.87994 -2.67069 0
M  V30 10548 H 985.753 -3.45314 -1.23101 0
M  V30 10549 H 985.401 -3.40039 -3.70651 0
M  V30 10550 H 985.101 -5.02642 -3.04344 0
M  V30 10551 H 986.625 -4.68799 -3.91228 0
M  V30 10552 H 988.039 -5.4519 -1.77316 0
M  V30 10553 H 986.436 -5.89588 -1.11828 0
M  V30 10554 H 987.506 -4.84595 -0.171839 0
M  V30 10555 N 988.849 0.203349 -1.56283 0
M  V30 10556 C 989.779 1.2549 -1.96912 0
M  V30 10557 C 990.76 1.47919 -0.839884 0
M  V30 10558 O 991.945 1.59795 -1.10359 0
M  V30 10559 C 989.075 2.6009 -2.30153 0
M  V30 10560 C 988.029 2.52289 -3.45738 0
M  V30 10561 C 987.355 3.91086 -3.64632 0
M  V30 10562 C 988.655 2.05503 -4.80173 0
M  V30 10563 H 990.349 0.917306 -2.85002 0
M  V30 10564 H 987.895 0.439818 -1.37119 0
M  V30 10565 H 989.848 3.33829 -2.5717 0
M  V30 10566 H 988.572 2.95574 -1.38937 0
M  V30 10567 H 987.231 1.81006 -3.18798 0
M  V30 10568 H 986.879 4.23908 -2.7076 0
M  V30 10569 H 986.579 3.86742 -4.42385 0
M  V30 10570 H 988.103 4.66459 -3.94016 0
M  V30 10571 H 989.517 2.68995 -5.06275 0
M  V30 10572 H 987.914 2.1218 -5.61337 0
M  V30 10573 H 988.984 1.00793 -4.74309 0
M  V30 10574 N 990.327 1.50405 0.470755 0
M  V30 10575 C 991.275 1.6982 1.58946 0
M  V30 10576 C 992.269 0.56407 1.59733 0
M  V30 10577 O 993.475 0.744576 1.63878 0
M  V30 10578 H 989.85 0.536016 0.527438 0
M  V30 10579 H 991.821 2.63662 1.39732 0
M  V30 10580 C 990.57 1.80986 2.96883 0
M  V30 10581 H 989.893 2.67645 2.96996 0
M  V30 10582 H 991.333 1.98596 3.74614 0
M  V30 10583 C 989.792 0.561551 3.32187 0
M  V30 10584 O 990.322 -0.299136 4.00585 0
M  V30 10585 N 988.528 0.415476 2.87615 0
M  V30 10586 H 988.075 1.11691 2.32127 0
M  V30 10587 H 988.033 -0.418592 3.11601 0
M  V30 10588 N 991.805 -0.723954 1.39988 0
M  V30 10589 C 993.03 -1.5182 1.41299 0
M  V30 10590 C 993.455 -1.88096 0.0122636 0
M  V30 10591 O 992.813 -1.52687 -0.977559 0
M  V30 10592 C 992.861 -2.77532 2.30235 0
M  V30 10593 O 991.965 -3.73903 1.73984 0
M  V30 10594 H 991.306 -0.458058 0.480707 0
M  V30 10595 H 993.836 -0.892291 1.84118 0
M  V30 10596 H 993.846 -3.2615 2.45132 0
M  V30 10597 H 992.521 -2.50462 3.32026 0
M  V30 10598 H 991.098 -3.32715 1.68389 0
M  V30 10599 N 993.283 -1.25346 -0.955304 0
M  V30 10600 C 994.508 -1.12892 -1.73983 0
M  V30 10601 C 994.933 0.313455 -1.8547 0
M  V30 10602 O 994.291 1.22706 -1.33465 0
M  V30 10603 C 994.339 -1.78729 -3.1319 0
M  V30 10604 O 993.443 -1.06648 -3.98372 0
M  V30 10605 H 992.784 -0.394178 -0.534341 0
M  V30 10606 H 995.314 -1.65897 -1.19747 0
M  V30 10607 H 995.324 -1.84987 -3.63653 0
M  V30 10608 H 993.999 -2.83669 -3.04146 0
M  V30 10609 H 992.576 -1.08266 -3.56837 0
M  V30 10610 N 994.761 1.15782 -1.06922 0
M  V30 10611 C 996.01 1.85807 -0.784774 0
M  V30 10612 C 996.323 1.82967 0.691551 0
M  V30 10613 O 997.529 2.48632 1.0906 0
M  V30 10614 C 995.985 3.33469 -1.35375 0
M  V30 10615 C 995.593 3.44766 -2.86077 0
M  V30 10616 C 997.337 4.08707 -1.14713 0
M  V30 10617 C 995.244 4.86551 -3.36187 0
M  V30 10618 H 994.174 0.696046 -0.28989 0
M  V30 10619 H 996.825 1.30629 -1.28873 0
M  V30 10620 H 995.207 3.88292 -0.77754 0
M  V30 10621 H 996.381 3.00073 -3.49704 0
M  V30 10622 H 994.696 2.82969 -3.05479 0
M  V30 10623 H 997.293 5.13336 -1.49633 0
M  V30 10624 H 997.636 4.16211 -0.0858868 0
M  V30 10625 H 998.169 3.60142 -1.68946 0
M  V30 10626 H 994.908 4.84229 -4.41818 0
M  V30 10627 H 994.428 5.31844 -2.77312 0
M  V30 10628 H 996.107 5.55392 -3.31887 0
M  V30 10629 N 996.239 0.8527 1.3254 0
M  V30 10630 C 997.186 0.293905 2.28921 0
M  V30 10631 C 998.156 -0.598027 1.54961 0
M  V30 10632 O 999.341 -0.533355 1.83194 0
M  V30 10633 C 996.481 -0.513361 3.4126 0
M  V30 10634 C 995.594 0.404144 4.30105 0
M  V30 10635 C 994.729 -0.415564 5.29572 0
M  V30 10636 C 993.768 0.499461 6.10059 0
M  V30 10637 N 992.905 -0.282949 7.0153 0
M  V30 10638 H 997.745 1.12107 2.76109 0
M  V30 10639 H 995.282 0.564272 1.35847 0
M  V30 10640 H 997.24 -0.997008 4.05112 0
M  V30 10641 H 995.87 -1.30537 2.95229 0
M  V30 10642 H 994.922 1.00617 3.66852 0
M  V30 10643 H 996.234 1.10648 4.86373 0
M  V30 10644 H 995.388 -0.962458 5.99017 0
M  V30 10645 H 994.127 -1.15127 4.73917 0
M  V30 10646 H 993.132 1.05825 5.39519 0
M  V30 10647 H 994.357 1.23375 6.67799 0
M  V30 10648 H 992.303 -1.00179 6.48306 0
M  V30 10649 H 992.22 0.36039 7.55141 0
M  V30 10650 H 993.488 -0.811632 7.75263 0
M  V30 10651 N 997.718 -1.45297 0.610449 0
M  V30 10652 C 998.966 -2.01819 0.106548 0
M  V30 10653 C 999.287 -1.48102 -1.26849 0
M  V30 10654 O 998.557 -0.676411 -1.83852 0
M  V30 10655 H 997.137 -0.746113 0.0363982 0
M  V30 10656 H 999.799 -1.78061 0.792491 0
M  V30 10657 H 998.895 -3.12045 0.0585 0
M  V30 10658 N 999.196 -0.349774 -1.5367 0
M  V30 10659 C 1000.14 0.504121 -2.25227 0
M  V30 10660 C 1001.11 1.09048 -1.2529 0
M  V30 10661 O 1002.3 1.12594 -1.54037 0
M  V30 10662 C 999.438 1.64601 -3.03316 0
M  V30 10663 C 998.551 1.08635 -4.18118 0
M  V30 10664 C 997.686 2.19605 -4.83681 0
M  V30 10665 C 996.725 1.61023 -5.90541 0
M  V30 10666 N 995.862 2.6576 -6.49858 0
M  V30 10667 H 1000.7 -0.112621 -2.97787 0
M  V30 10668 H 998.239 -0.0673503 -1.46946 0
M  V30 10669 H 1000.2 2.31836 -3.46854 0
M  V30 10670 H 998.827 2.23364 -2.33041 0
M  V30 10671 H 997.879 0.304748 -3.79177 0
M  V30 10672 H 999.191 0.617911 -4.94958 0
M  V30 10673 H 998.345 2.94693 -5.30322 0
M  V30 10674 H 997.084 2.69795 -4.06278 0
M  V30 10675 H 996.089 0.844428 -5.43277 0
M  V30 10676 H 997.314 1.11677 -6.69855 0
M  V30 10677 H 995.26 3.15193 -5.75317 0
M  V30 10678 H 995.177 2.23557 -7.2219 0
M  V30 10679 H 996.445 3.40598 -7.01151 0
M  V30 10680 N 1000.67 1.57404 -0.0785433 0
M  V30 10681 C 1001.58 2.16612 0.900902 0
M  V30 10682 C 1002.6 1.13109 1.32221 0
M  V30 10683 O 1003.78 1.45406 1.39352 0
M  V30 10684 C 1000.84 2.7215 2.14791 0
M  V30 10685 C 999.902 3.90551 1.78237 0
M  V30 10686 C 999.135 4.43431 2.96993 0
M  V30 10687 O 999.358 3.95292 4.11218 0
M  V30 10688 O 998.292 5.34674 2.76418 0
M  V30 10689 H 1002.12 3.0068 0.427227 0
M  V30 10690 H 999.703 1.48696 0.144902 0
M  V30 10691 H 1001.58 3.07718 2.87902 0
M  V30 10692 H 1000.26 1.91139 2.61243 0
M  V30 10693 H 999.167 3.59825 1.02357 0
M  V30 10694 H 1000.5 4.72876 1.36562 0
M  V30 10695 N 1002.15 -0.195058 1.56388 0
M  V30 10696 C 1003.1 -1.26122 1.95438 0
M  V30 10697 C 1004.09 -1.47117 0.839818 0
M  V30 10698 O 1005.3 -1.47978 1.02482 0
M  V30 10699 H 1001.67 -0.423422 0.621464 0
M  V30 10700 H 1003.65 -0.904854 2.8435 0
M  V30 10701 C 1002.39 -2.59858 2.31017 0
M  V30 10702 H 1001.72 -2.44519 3.16308 0
M  V30 10703 H 1003.16 -3.33205 2.62203 0
M  V30 10704 C 1001.62 -3.16853 1.14481 0
M  V30 10705 O 1002.15 -3.995 0.419853 0
M  V30 10706 N 1000.35 -2.75599 0.921604 0
M  V30 10707 H 999.9 -2.08495 1.51287 0
M  V30 10708 H 999.858 -3.14072 0.143663 0
M  V30 10709 N 1003.63 -1.50653 -0.462772 0
M  V30 10710 C 1004.58 -1.70122 -1.55971 0
M  V30 10711 C 1005.55 -0.542581 -1.56988 0
M  V30 10712 O 1006.73 -0.774114 -1.74391 0
M  V30 10713 C 1003.87 -1.80899 -2.93887 0
M  V30 10714 C 1002.98 -3.08318 -3.02595 0
M  V30 10715 C 1002.12 -3.09841 -4.31477 0
M  V30 10716 C 1001.16 -4.3168 -4.33957 0
M  V30 10717 N 1000.3 -4.30894 -5.54323 0
M  V30 10718 H 1005.14 -2.63768 -1.38674 0
M  V30 10719 H 1002.67 -1.30746 -0.674091 0
M  V30 10720 H 1004.63 -1.85128 -3.73876 0
M  V30 10721 H 1003.26 -0.906854 -3.098 0
M  V30 10722 H 1002.31 -3.13521 -2.15427 0
M  V30 10723 H 1003.62 -3.98282 -3.00288 0
M  V30 10724 H 1002.78 -3.12845 -5.1982 0
M  V30 10725 H 1001.52 -2.17722 -4.36404 0
M  V30 10726 H 1000.52 -4.28879 -3.4401 0
M  V30 10727 H 1001.75 -5.25035 -4.30715 0
M  V30 10728 H 999.694 -3.41633 -5.6002 0
M  V30 10729 H 999.611 -5.14636 -5.53792 0
M  V30 10730 H 1000.88 -4.38056 -6.44769 0
M  V30 10731 N 1005.11 0.71652 -1.4037 0
M  V30 10732 C 1006.34 1.50563 -1.4191 0
M  V30 10733 C 1006.75 1.88791 -0.0185456 0
M  V30 10734 O 1006.11 1.55378 0.957289 0
M  V30 10735 C 1006.16 2.78155 -2.30894 0
M  V30 10736 O 1005.88 2.41543 -3.65497 0
M  V30 10737 C 1007.38 3.72057 -2.41016 0
M  V30 10738 H 1004.6 0.464679 -0.48406 0
M  V30 10739 H 1007.15 0.883927 -1.8441 0
M  V30 10740 H 1005.3 3.36611 -1.91759 0
M  V30 10741 H 1005.71 3.23636 -4.12747 0
M  V30 10742 H 1007.19 4.58426 -3.07489 0
M  V30 10743 H 1007.67 4.15098 -1.43492 0
M  V30 10744 H 1008.27 3.19512 -2.80699 0
M  V30 10745 N 1006.59 1.25851 0.948643 0
M  V30 10746 C 1007.53 1.06759 2.04625 0
M  V30 10747 C 1008.5 -0.0251144 1.66081 0
M  V30 10748 O 1009.69 0.133221 1.90334 0
M  V30 10749 C 1006.83 0.698724 3.37952 0
M  V30 10750 C 1005.94 1.8669 3.89578 0
M  V30 10751 C 1005.08 1.44184 5.11258 0
M  V30 10752 C 1004.12 2.57878 5.55126 0
M  V30 10753 N 1003.25 2.16106 6.68014 0
M  V30 10754 H 1008.09 2.00691 2.20289 0
M  V30 10755 H 1005.63 0.999327 1.07944 0
M  V30 10756 H 1007.59 0.465788 4.14592 0
M  V30 10757 H 1006.22 -0.203618 3.22157 0
M  V30 10758 H 1005.27 2.21298 3.09405 0
M  V30 10759 H 1006.58 2.72051 4.18079 0
M  V30 10760 H 1005.74 1.16891 5.95333 0
M  V30 10761 H 1004.47 0.559035 4.84485 0
M  V30 10762 H 1003.48 2.85909 4.69612 0
M  V30 10763 H 1004.7 3.46747 5.83904 0
M  V30 10764 H 1002.65 1.3025 6.42939 0
M  V30 10765 H 1002.57 2.95012 6.96063 0
M  V30 10766 H 1003.84 1.92005 7.55483 0
M  V30 10767 N 1008.06 -1.15214 1.07534 0
M  V30 10768 C 1009.01 -2.22078 0.69168 0
M  V30 10769 C 1010.01 -1.66751 -0.298382 0
M  V30 10770 O 1011.21 -1.7927 -0.161897 0
M  V30 10771 H 1007.59 -0.723347 0.205604 0
M  V30 10772 H 1009.56 -2.51716 1.60256 0
M  V30 10773 C 1008.31 -3.47534 0.107546 0
M  V30 10774 H 1007.63 -3.90429 0.860522 0
M  V30 10775 H 1009.07 -4.23821 -0.123215 0
M  V30 10776 C 1007.53 -3.16583 -1.15226 0
M  V30 10777 O 1008.06 -3.33551 -2.23845 0
M  V30 10778 N 1006.27 -2.70611 -1.05915 0
M  V30 10779 H 1005.81 -2.57004 -0.175198 0
M  V30 10780 H 1005.77 -2.50277 -1.90287 0
M  V30 10781 N 1009.54 -0.859717 -1.32086 0
M  V30 10782 C 1010.49 -0.306042 -2.28762 0
M  V30 10783 C 1011.46 0.589801 -1.55276 0
M  V30 10784 O 1012.64 0.523633 -1.83474 0
M  V30 10785 C 1009.78 0.495256 -3.41528 0
M  V30 10786 C 1008.9 -0.426947 -4.29885 0
M  V30 10787 C 1008.03 0.387474 -5.29785 0
M  V30 10788 C 1007.07 -0.531807 -6.09785 0
M  V30 10789 N 1006.21 0.245741 -7.0167 0
M  V30 10790 H 1011.05 -1.1357 -2.7551 0
M  V30 10791 H 1008.59 -0.571468 -1.35546 0
M  V30 10792 H 1010.54 0.97551 -4.05635 0
M  V30 10793 H 1009.17 1.28969 -2.95917 0
M  V30 10794 H 1008.23 -1.02561 -3.66313 0
M  V30 10795 H 1009.54 -1.13226 -4.85779 0
M  V30 10796 H 1008.69 0.930677 -5.99519 0
M  V30 10797 H 1007.43 1.12612 -4.74521 0
M  V30 10798 H 1006.44 -1.08685 -5.3895 0
M  V30 10799 H 1007.66 -1.26915 -6.67135 0
M  V30 10800 H 1005.61 0.967391 -6.48828 0
M  V30 10801 H 1005.52 -0.400432 -7.54939 0
M  V30 10802 H 1006.79 0.770507 -7.75683 0
M  V30 10803 N 1011.02 1.44971 -0.618145 0
M  V30 10804 C 1011.97 2.30606 0.09449 0
M  V30 10805 C 1012.94 1.42725 0.849633 0
M  V30 10806 O 1014.12 1.71643 0.833266 0
M  V30 10807 C 1011.26 3.27803 1.07886 0
M  V30 10808 C 1010.38 4.30787 0.323488 0
M  V30 10809 C 1009.51 5.15085 1.29851 0
M  V30 10810 C 1008.55 6.09788 0.531561 0
M  V30 10811 N 1007.69 6.86829 1.4564 0
M  V30 10812 H 1012.53 2.91008 -0.641738 0
M  V30 10813 H 1010.06 1.43391 -0.328259 0
M  V30 10814 H 1012.02 3.82631 1.66281 0
M  V30 10815 H 1010.65 2.69131 1.78237 0
M  V30 10816 H 1009.7 3.78536 -0.376164 0
M  V30 10817 H 1011.02 4.98044 -0.274443 0
M  V30 10818 H 1010.17 5.74365 1.95421 0
M  V30 10819 H 1008.91 4.4787 1.93037 0
M  V30 10820 H 1007.91 5.49628 -0.137702 0
M  V30 10821 H 1009.14 6.79033 -0.0953993 0
M  V30 10822 H 1007.08 6.22295 2.07571 0
M  V30 10823 H 1007 7.50477 0.912167 0
M  V30 10824 H 1008.27 7.50642 2.10134 0
M  V30 10825 N 1012.5 0.357919 1.53482 0
M  V30 10826 C 1013.72 -0.237769 2.06033 0
M  V30 10827 C 1014.15 -1.42292 1.23023 0
M  V30 10828 O 1013.51 -1.79604 0.247427 0
M  V30 10829 C 1013.55 -0.616806 3.55286 0
M  V30 10830 O 1012.66 -1.71503 3.75047 0
M  V30 10831 H 1012 -0.0364322 0.663 0
M  V30 10832 H 1014.53 0.516301 1.97979 0
M  V30 10833 H 1014.54 -0.88996 3.98175 0
M  V30 10834 H 1013.21 0.249825 4.15149 0
M  V30 10835 H 1011.79 -1.43803 3.44057 0
M  V30 10836 N 1013.98 -1.5736 0.0868897 0
M  V30 10837 C 1015.22 -1.9367 -0.577598 0
M  V30 10838 C 1015.55 -0.968844 -1.69229 0
M  V30 10839 O 1014.82 -0.0195061 -1.9589 0
M  V30 10840 H 1013.4 -0.714983 -0.216353 0
M  V30 10841 H 1016.06 -1.94335 0.148294 0
M  V30 10842 H 1015.15 -2.95877 -0.993128 0
M  V30 10843 N 1015.45 0.186762 -1.56489 0
M  V30 10844 C 1016.38 1.23395 -1.98232 0
M  V30 10845 C 1017.37 1.4702 -0.855526 0
M  V30 10846 O 1018.55 1.58616 -1.12048 0
M  V30 10847 C 1015.68 2.57635 -2.32898 0
M  V30 10848 C 1014.63 2.48607 -3.48394 0
M  V30 10849 C 1013.96 3.87196 -3.68759 0
M  V30 10850 C 1015.26 2.00398 -4.82325 0
M  V30 10851 H 1016.95 0.887026 -2.85958 0
M  V30 10852 H 1014.5 0.42525 -1.37578 0
M  V30 10853 H 1016.45 3.31082 -2.60696 0
M  V30 10854 H 1015.18 2.94084 -1.42064 0
M  V30 10855 H 1013.84 1.77615 -3.207 0
M  V30 10856 H 1013.48 4.21012 -2.75241 0
M  V30 10857 H 1013.18 3.82029 -4.46462 0
M  V30 10858 H 1014.71 4.62253 -3.98941 0
M  V30 10859 H 1016.12 2.6361 -5.091 0
M  V30 10860 H 1014.52 2.06214 -5.63556 0
M  V30 10861 H 1015.59 0.957562 -4.75351 0
M  V30 10862 N 1016.93 1.50896 0.454776 0
M  V30 10863 C 1018.18 1.62378 1.20324 0
M  V30 10864 C 1018.5 0.333883 1.9212 0
M  V30 10865 O 1017.77 -0.649477 1.8482 0
M  V30 10866 H 1016.35 0.598395 0.447139 0
M  V30 10867 H 1019.01 1.87749 0.523102 0
M  V30 10868 H 1018.11 2.44296 1.94232 0
M  V30 10869 N 1018.41 -0.709066 1.40748 0
M  V30 10870 C 1019.64 -1.49808 1.42707 0
M  V30 10871 C 1020.05 -1.88778 0.0285574 0
M  V30 10872 O 1019.41 -1.55883 -0.949035 0
M  V30 10873 C 1019.46 -2.76926 2.32366 0
M  V30 10874 O 1019.18 -2.39602 3.66773 0
M  V30 10875 C 1020.68 -3.70773 2.42986 0
M  V30 10876 H 1017.9 -0.462106 0.486517 0
M  V30 10877 H 1020.45 -0.874135 1.84876 0
M  V30 10878 H 1018.6 -3.3559 1.93541 0
M  V30 10879 H 1019.02 -3.21443 4.14457 0
M  V30 10880 H 1020.49 -4.56789 3.09916 0
M  V30 10881 H 1020.97 -4.14332 1.45691 0
M  V30 10882 H 1021.57 -3.18019 2.8239 0
M  V30 10883 N 1019.89 -1.26353 -0.941956 0
M  V30 10884 C 1021.17 -1.02601 -1.6653 0
M  V30 10885 C 1021.55 0.44381 -2.06382 0
M  V30 10886 O 1020.89 1.42399 -1.78703 0
M  V30 10887 C 1021.1 -1.97401 -2.87809 0
M  V30 10888 C 1022.45 -2.25967 -3.59478 0
M  V30 10889 O 1023.48 -1.95261 -2.97912 0
M  V30 10890 O 1022.34 -2.78244 -4.70364 0
M  V30 10891 H 1019.43 -0.39007 -0.729228 0
M  V30 10892 H 1021.98 -1.37559 -0.993754 0
M  V30 10893 H 1020.75 -2.9659 -2.55245 0
M  V30 10894 H 1020.37 -1.62918 -3.62689 0
M  V30 10895 N 1021.37 1.14642 -1.08144 0
M  V30 10896 C 1022.64 1.81774 -0.72232 0
M  V30 10897 C 1023.02 1.95587 0.794294 0
M  V30 10898 O 1022.37 1.51361 1.71178 0
M  V30 10899 C 1022.58 3.1763 -1.44611 0
M  V30 10900 C 1023.93 3.93161 -1.60343 0
M  V30 10901 O 1024.95 3.2721 -1.40755 0
M  V30 10902 O 1023.81 5.11422 -1.9264 0
M  V30 10903 H 1020.91 0.785733 -0.257978 0
M  V30 10904 H 1023.45 1.21683 -1.18285 0
M  V30 10905 H 1022.23 3.02723 -2.4794 0
M  V30 10906 H 1021.85 3.85412 -0.976892 0
M  V30 10907 N 1022.85 0.866709 1.31628 0
M  V30 10908 C 1023.79 0.309128 2.30537 0
M  V30 10909 C 1024.79 -0.574028 1.59378 0
M  V30 10910 O 1025.99 -0.460491 1.7401 0
M  V30 10911 H 1022.37 0.081279 0.747595 0
M  V30 10912 H 1024.34 1.15734 2.75042 0
M  V30 10913 C 1023.09 -0.477287 3.44409 0
M  V30 10914 H 1022.41 0.19301 3.99334 0
M  V30 10915 H 1023.85 -0.832818 4.1574 0
M  V30 10916 C 1022.31 -1.66727 2.92752 0
M  V30 10917 O 1022.84 -2.76654 2.91248 0
M  V30 10918 N 1021.05 -1.49833 2.48995 0
M  V30 10919 H 1020.59 -0.604073 2.50417 0
M  V30 10920 H 1020.55 -2.29594 2.14788 0
M  V30 10921 N 1024.32 -1.44642 0.625825 0
M  V30 10922 C 1025.27 -2.32408 -0.0945221 0
M  V30 10923 C 1026.27 -1.47038 -0.841198 0
M  V30 10924 O 1027.47 -1.63415 -0.754698 0
M  V30 10925 H 1023.85 -0.75038 -0.0493321 0
M  V30 10926 H 1025.82 -2.90922 0.663863 0
M  V30 10927 C 1024.57 -3.30951 -1.06615 0
M  V30 10928 H 1023.89 -3.96648 -0.501021 0
M  V30 10929 H 1025.33 -3.95054 -1.53976 0
M  V30 10930 C 1023.79 -2.59479 -2.14877 0
M  V30 10931 O 1024.32 -2.38974 -3.22885 0
M  V30 10932 N 1022.52 -2.19307 -1.90665 0
M  V30 10933 H 1022.07 -2.36184 -1.02835 0
M  V30 10934 H 1022.03 -1.71811 -2.63303 0
M  V30 10935 N 1025.8 -0.366053 -1.5329 0
M  V30 10936 C 1027.08 0.279902 -1.93587 0
M  V30 10937 C 1027.46 1.66352 -1.29963 0
M  V30 10938 O 1026.81 2.23845 -0.458895 0
M  V30 10939 C 1027.02 0.329634 -3.4744 0
M  V30 10940 C 1028.36 0.569754 -4.2076 0
M  V30 10941 O 1029.39 0.410823 -3.53823 0
M  V30 10942 O 1028.25 0.879262 -5.3938 0
M  V30 10943 H 1025.34 0.16802 -0.809752 0
M  V30 10944 H 1027.89 -0.418871 -1.64449 0
M  V30 10945 H 1026.66 -0.640434 -3.86023 0
M  V30 10946 H 1026.28 1.07428 -3.82812 0
M  V30 10947 N 1027.28 1.57312 -0.0952337 0
M  V30 10948 C 1028.23 2.15263 0.881167 0
M  V30 10949 C 1029.22 1.09552 1.29208 0
M  V30 10950 O 1030.43 1.27897 1.26659 0
M  V30 10951 H 1026.8 0.688611 0.302191 0
M  V30 10952 H 1028.77 2.96126 0.367694 0
M  V30 10953 C 1027.52 2.74779 2.13053 0
M  V30 10954 H 1026.85 3.55807 1.82323 0
M  V30 10955 H 1028.29 3.18895 2.79431 0
M  V30 10956 C 1026.74 1.7068 2.90465 0
M  V30 10957 O 1027.27 1.14582 3.85011 0
M  V30 10958 N 1025.48 1.41169 2.54007 0
M  V30 10959 H 1025.03 1.86977 1.77193 0
M  V30 10960 H 1024.99 0.717559 3.06102 0
M  V30 10961 N 1028.76 -0.17846 1.56586 0
M  V30 10962 C 1030.01 -0.894464 1.81228 0
M  V30 10963 C 1030.33 -1.83089 0.671062 0
M  V30 10964 O 1029.6 -1.93439 -0.309557 0
M  V30 10965 H 1028.18 -0.333288 0.668527 0
M  V30 10966 H 1030.84 -0.179986 1.94067 0
M  V30 10967 H 1029.93 -1.47565 2.75011 0
M  V30 10968 N 1030.24 -1.51135 -0.446768 0
M  V30 10969 C 1031.51 -1.5387 -1.20762 0
M  V30 10970 C 1031.89 -0.297446 -2.08994 0
M  V30 10971 O 1031.24 0.717975 -2.16927 0
M  V30 10972 C 1031.45 -2.84767 -2.01764 0
M  V30 10973 C 1032.8 -3.3636 -2.59128 0
M  V30 10974 O 1033.82 -2.86254 -2.11984 0
M  V30 10975 O 1032.68 -4.23765 -3.45088 0
M  V30 10976 H 1029.78 -0.618228 -0.549293 0
M  V30 10977 H 1032.32 -1.63442 -0.456605 0
M  V30 10978 H 1031.09 -3.6657 -1.36901 0
M  V30 10979 H 1030.72 -2.78313 -2.8395 0
M  V30 10980 N 1031.71 0.701592 -1.41122 0
M  V30 10981 C 1032.66 1.80755 -1.38966 0
M  V30 10982 C 1033.65 1.58703 -0.264964 0
M  V30 10983 O 1034.84 1.69638 -0.505168 0
M  V30 10984 C 1031.97 3.1901 -1.26836 0
M  V30 10985 C 1031.05 3.46777 -2.44144 0
M  V30 10986 N 1031.45 3.45278 -3.69617 0
M  V30 10987 C 1029.74 3.77299 -2.37826 0
M  V30 10988 C 1030.44 3.71782 -4.47385 0
M  V30 10989 N 1029.42 3.91228 -3.77415 0
M  V30 10990 H 1033.22 1.7795 -2.33904 0
M  V30 10991 H 1030.74 0.901325 -1.35092 0
M  V30 10992 H 1032.73 3.98227 -1.23373 0
M  V30 10993 H 1031.39 3.23031 -0.328777 0
M  V30 10994 H 1032.4 3.258 -4.02585 0
M  V30 10995 H 1029.08 3.88727 -1.52309 0
M  V30 10996 H 1030.47 3.7681 -5.56295 0
M  V30 10997 N 1033.19 1.2685 0.935242 0
M  V30 10998 C 1034.14 1.08746 2.05614 0
M  V30 10999 C 1035.13 0.012681 1.69395 0
M  V30 11000 O 1036.34 0.169822 1.79197 0
M  V30 11001 H 1032.71 0.33485 0.673335 0
M  V30 11002 H 1034.69 2.03725 2.18033 0
M  V30 11003 C 1033.43 0.74346 3.39659 0
M  V30 11004 H 1032.76 1.56236 3.68008 0
M  V30 11005 H 1034.2 0.656607 4.18885 0
M  V30 11006 C 1032.66 -0.551751 3.32351 0
M  V30 11007 O 1033.19 -1.58836 3.68963 0
M  V30 11008 N 1031.39 -0.544583 2.85452 0
M  V30 11009 H 1030.94 0.29939 2.55854 0
M  V30 11010 H 1030.9 -1.41129 2.80945 0
M  V30 11011 N 1034.67 -1.14067 1.0875 0
M  V30 11012 C 1035.62 -2.19261 0.720633 0
M  V30 11013 C 1036.59 -1.63462 -0.294847 0
M  V30 11014 O 1037.77 -1.89967 -0.178058 0
M  V30 11015 C 1034.91 -3.44816 0.139873 0
M  V30 11016 C 1034.03 -4.1475 1.20856 0
M  V30 11017 C 1033.16 -5.27899 0.591285 0
M  V30 11018 C 1032.2 -5.89672 1.64176 0
M  V30 11019 N 1031.34 -6.94264 1.04603 0
M  V30 11020 H 1036.18 -2.49991 1.62198 0
M  V30 11021 H 1033.71 -1.22757 0.810497 0
M  V30 11022 H 1035.67 -4.16648 -0.214587 0
M  V30 11023 H 1034.3 -3.14558 -0.724774 0
M  V30 11024 H 1033.35 -3.41272 1.6804 0
M  V30 11025 H 1034.67 -4.56753 2.00446 0
M  V30 11026 H 1033.82 -6.06417 0.185271 0
M  V30 11027 H 1032.56 -4.87128 -0.236236 0
M  V30 11028 H 1031.56 -5.09854 2.05739 0
M  V30 11029 H 1032.79 -6.32517 2.47182 0
M  V30 11030 H 1030.73 -6.55562 0.239664 0
M  V30 11031 H 1030.65 -7.34771 1.77898 0
M  V30 11032 H 1031.92 -7.7665 0.665989 0
M  V30 11033 N 1036.15 -0.873678 -1.31166 0
M  V30 11034 C 1037.1 -0.321349 -2.3037 0
M  V30 11035 C 1038.09 0.565568 -1.5968 0
M  V30 11036 O 1039.3 0.451257 -1.74252 0
M  V30 11037 H 1035.67 -0.0852425 -0.747153 0
M  V30 11038 H 1037.64 -1.17191 -2.74425 0
M  V30 11039 C 1036.39 0.459016 -3.44657 0
M  V30 11040 H 1035.71 -0.214185 -3.99226 0
M  V30 11041 H 1037.15 0.810758 -4.16176 0
M  V30 11042 C 1035.61 1.65173 -2.93632 0
M  V30 11043 O 1036.14 2.75105 -2.92711 0
M  V30 11044 N 1034.35 1.4851 -2.49786 0
M  V30 11045 H 1033.9 0.590785 -2.50734 0
M  V30 11046 H 1033.85 2.28452 -2.16002 0
M  V30 11047 N 1037.63 1.44308 -0.633487 0
M  V30 11048 C 1038.54 2.34492 0.0711787 0
M  V30 11049 C 1039.55 1.52754 0.8332 0
M  V30 11050 O 1040.73 1.85475 0.784929 0
M  V30 11051 C 1037.79 3.30767 1.03895 0
M  V30 11052 C 1036.85 4.28412 0.276043 0
M  V30 11053 C 1036.09 5.20087 1.19772 0
M  V30 11054 O 1036.31 5.15743 2.4365 0
M  V30 11055 O 1035.24 5.98038 0.680764 0
M  V30 11056 H 1039.07 2.96203 -0.67063 0
M  V30 11057 H 1036.66 1.4412 -0.393678 0
M  V30 11058 H 1038.54 3.90021 1.59566 0
M  V30 11059 H 1037.21 2.71586 1.76133 0
M  V30 11060 H 1036.12 3.72696 -0.32377 0
M  V30 11061 H 1037.45 4.9052 -0.406364 0
M  V30 11062 N 1039.1 0.374177 1.53094 0
M  V30 11063 C 1040.35 -0.212396 2.00981 0
M  V30 11064 C 1040.67 -1.48576 1.26293 0
M  V30 11065 O 1039.94 -1.92206 0.378642 0
M  V30 11066 H 1038.52 -0.0814763 0.742543 0
M  V30 11067 H 1041.19 0.502389 1.88314 0
M  V30 11068 H 1040.28 -0.433316 3.09077 0
M  V30 11069 N 1040.58 -1.57259 0.103575 0
M  V30 11070 C 1041.81 -1.99424 -0.569638 0
M  V30 11071 C 1042.23 -0.982475 -1.60403 0
M  V30 11072 O 1041.59 0.0479231 -1.81237 0
M  V30 11073 C 1041.64 -3.40527 -1.18633 0
M  V30 11074 O 1040.74 -3.42167 -2.30208 0
M  V30 11075 H 1040.08 -0.648251 -0.143759 0
M  V30 11076 H 1042.61 -2.03739 0.187493 0
M  V30 11077 H 1042.62 -3.78404 -1.5256 0
M  V30 11078 H 1041.3 -4.13686 -0.428582 0
M  V30 11079 H 1039.88 -3.16093 -1.97837 0
M  V30 11080 N 1042.06 0.170153 -1.56679 0
M  V30 11081 C 1043.01 1.22997 -1.9742 0
M  V30 11082 C 1044 1.45762 -0.863117 0
M  V30 11083 O 1045.21 1.46328 -1.04824 0
M  V30 11084 H 1041.58 0.413482 -0.628122 0
M  V30 11085 H 1043.55 0.859502 -2.85754 0
M  V30 11086 C 1042.3 2.5615 -2.35122 0
M  V30 11087 H 1041.63 2.39456 -3.20158 0
M  V30 11088 H 1043.07 3.28991 -2.67471 0
M  V30 11089 C 1041.53 3.14992 -1.19507 0
M  V30 11090 O 1042.06 3.98781 -0.483357 0
M  V30 11091 N 1040.26 2.74098 -0.965332 0
M  V30 11092 H 1039.81 2.06062 -1.54585 0
M  V30 11093 H 1039.77 3.13803 -0.193611 0
M  V30 11094 N 1043.54 1.5137 0.438746 0
M  V30 11095 C 1044.79 1.63202 1.18524 0
M  V30 11096 C 1045.1 0.353408 1.92381 0
M  V30 11097 O 1046.31 0.351086 2.6922 0
M  V30 11098 C 1044.76 2.88218 2.15542 0
M  V30 11099 C 1044.37 4.23078 1.47339 0
M  V30 11100 C 1046.11 3.09407 2.90633 0
M  V30 11101 C 1044.02 5.39246 2.42833 0
M  V30 11102 H 1042.95 0.607864 0.446114 0
M  V30 11103 H 1045.6 1.77835 0.452421 0
M  V30 11104 H 1043.98 2.67216 2.92253 0
M  V30 11105 H 1045.16 4.54457 0.761964 0
M  V30 11106 H 1043.47 4.07755 0.844065 0
M  V30 11107 H 1046.07 3.9337 3.62165 0
M  V30 11108 H 1046.41 2.22428 3.51897 0
M  V30 11109 H 1046.95 3.30743 2.21029 0
M  V30 11110 H 1043.69 6.2848 1.8626 0
M  V30 11111 H 1043.21 5.12245 3.12034 0
M  V30 11112 H 1044.88 5.71137 3.03992 0
M  V30 11113 N 1045.02 -0.694098 1.41492 0
M  V30 11114 C 1045.96 -1.82932 1.43662 0
M  V30 11115 C 1046.96 -1.66455 0.31449 0
M  V30 11116 O 1048.16 -1.73298 0.486589 0
M  V30 11117 H 1044.54 -0.602847 0.449533 0
M  V30 11118 H 1046.51 -1.78218 2.39334 0
M  V30 11119 C 1045.26 -3.20962 1.33712 0
M  V30 11120 H 1044.58 -3.34257 2.19345 0
M  V30 11121 H 1046.02 -4.00467 1.39291 0
M  V30 11122 C 1044.48 -3.36863 0.0496332 0
M  V30 11123 O 1045.01 -3.91371 -0.905093 0
M  V30 11124 N 1043.22 -2.90588 -0.0269299 0
M  V30 11125 H 1042.76 -2.46417 0.750752 0
M  V30 11126 H 1042.72 -3.01605 -0.887781 0
M  V30 11127 N 1046.49 -1.27344 -0.928501 0
M  V30 11128 C 1047.74 -1.13411 -1.67279 0
M  V30 11129 C 1048.06 0.320698 -1.92345 0
M  V30 11130 O 1047.33 1.2245 -1.52915 0
M  V30 11131 H 1045.91 -0.416712 -0.619968 0
M  V30 11132 H 1048.58 -1.5986 -1.11493 0
M  V30 11133 H 1047.67 -1.66256 -2.64131 0
M  V30 11134 N 1047.97 1.13488 -1.09353 0
M  V30 11135 C 1048.88 2.2248 -0.744307 0
M  V30 11136 C 1049.9 1.72145 0.253404 0
M  V30 11137 O 1051.07 2.01176 0.0949339 0
M  V30 11138 C 1048.14 3.46286 -0.16928 0
M  V30 11139 C 1047.2 4.11516 -1.22284 0
M  V30 11140 C 1046.43 5.29412 -0.675161 0
M  V30 11141 O 1046.66 5.68185 0.502182 0
M  V30 11142 O 1045.59 5.8467 -1.42983 0
M  V30 11143 H 1049.42 2.54723 -1.65378 0
M  V30 11144 H 1047 1.21607 -0.867879 0
M  V30 11145 H 1048.88 4.2114 0.14811 0
M  V30 11146 H 1047.56 3.15745 0.713214 0
M  V30 11147 H 1046.47 3.38492 -1.59292 0
M  V30 11148 H 1047.8 4.46186 -2.07796 0
M  V30 11149 N 1049.45 0.880621 1.30701 0
M  V30 11150 C 1050.4 0.315679 2.25804 0
M  V30 11151 C 1051.39 -0.553382 1.51084 0
M  V30 11152 O 1052.58 -0.398518 1.72455 0
M  V30 11153 C 1049.71 -0.472586 3.40032 0
M  V30 11154 C 1048.79 0.410318 4.2211 0
M  V30 11155 N 1049.18 1.50876 4.82773 0
M  V30 11156 C 1047.48 0.20465 4.4553 0
M  V30 11157 C 1048.18 2.05409 5.44226 0
M  V30 11158 N 1047.16 1.34964 5.26579 0
M  V30 11159 H 1050.96 1.15505 2.70251 0
M  V30 11160 H 1048.47 0.729547 1.45091 0
M  V30 11161 H 1050.47 -0.893918 4.07204 0
M  V30 11162 H 1049.13 -1.30945 2.97125 0
M  V30 11163 H 1050.14 1.89163 4.82118 0
M  V30 11164 H 1046.82 -0.595398 4.13233 0
M  V30 11165 H 1048.21 2.97627 6.02385 0
M  V30 11166 N 1050.93 -1.4397 0.641131 0
M  V30 11167 C 1052.18 -2.02246 0.14985 0
M  V30 11168 C 1052.51 -1.50387 -1.22871 0
M  V30 11169 O 1051.78 -0.692003 -1.81773 0
M  V30 11170 C 1052.07 -3.59798 0.147449 0
M  V30 11171 C 1051.92 -4.21916 1.55907 0
M  V30 11172 C 1053.24 -4.36985 -0.522667 0
M  V30 11173 H 1050.36 -0.734875 0.0559274 0
M  V30 11174 H 1053 -1.71418 0.819513 0
M  V30 11175 H 1051.15 -3.86193 -0.422789 0
M  V30 11176 H 1052.82 -4.06594 2.17896 0
M  V30 11177 H 1051.06 -3.79028 2.10998 0
M  V30 11178 H 1051.74 -5.30964 1.50934 0
M  V30 11179 H 1054.21 -4.16083 -0.0376226 0
M  V30 11180 H 1053.09 -5.46676 -0.493572 0
M  V30 11181 H 1053.35 -4.12335 -1.59475 0
M  V30 11182 N 1052.41 -0.382291 -1.52893 0
M  V30 11183 C 1053.63 0.204961 -2.06385 0
M  V30 11184 C 1054.06 1.40316 -1.25271 0
M  V30 11185 O 1053.42 1.79187 -0.275969 0
M  V30 11186 C 1053.46 0.560205 -3.56222 0
M  V30 11187 O 1052.57 1.65515 -3.77728 0
M  V30 11188 H 1051.91 0.0258798 -0.663495 0
M  V30 11189 H 1054.44 -0.547733 -1.97132 0
M  V30 11190 H 1054.45 0.826501 -3.99541 0
M  V30 11191 H 1053.12 -0.31584 -4.14699 0
M  V30 11192 H 1051.7 1.38311 -3.46301 0
M  V30 11193 N 1053.89 1.57202 -0.111913 0
M  V30 11194 C 1054.8 2.18475 0.854753 0
M  V30 11195 C 1055.81 1.15888 1.29792 0
M  V30 11196 O 1056.99 1.48329 1.36237 0
M  V30 11197 C 1054.05 2.76645 2.0897 0
M  V30 11198 C 1053.11 3.94244 1.69913 0
M  V30 11199 C 1052.35 4.49631 2.8752 0
M  V30 11200 O 1052.57 4.03926 4.02741 0
M  V30 11201 O 1051.5 5.40417 2.65015 0
M  V30 11202 H 1055.33 3.01519 0.363352 0
M  V30 11203 H 1052.91 1.4897 0.113329 0
M  V30 11204 H 1054.8 3.13755 2.81311 0
M  V30 11205 H 1053.47 1.96637 2.5713 0
M  V30 11206 H 1052.38 3.61915 0.947013 0
M  V30 11207 H 1053.71 4.75666 1.26501 0
M  V30 11208 N 1055.36 -0.161842 1.56767 0
M  V30 11209 C 1056.31 -1.20506 1.93552 0
M  V30 11210 C 1057.3 -1.39317 0.804952 0
M  V30 11211 O 1058.49 -1.41129 1.06825 0
M  V30 11212 C 1055.62 -2.54227 2.30702 0
M  V30 11213 C 1054.7 -2.3907 3.50295 0
M  V30 11214 N 1055.1 -1.93642 4.67265 0
M  V30 11215 C 1053.39 -2.69868 3.55088 0
M  V30 11216 C 1054.09 -1.91175 5.49388 0
M  V30 11217 N 1053.07 -2.33935 4.90689 0
M  V30 11218 H 1056.87 -0.845687 2.8147 0
M  V30 11219 H 1054.39 -0.370034 1.58128 0
M  V30 11220 H 1056.38 -3.29623 2.55254 0
M  V30 11221 H 1055.04 -2.90959 1.44128 0
M  V30 11222 H 1056.05 -1.63834 4.91303 0
M  V30 11223 H 1052.73 -3.10574 2.79016 0
M  V30 11224 H 1054.12 -1.57671 6.53138 0
M  V30 11225 N 1056.84 -1.516 -0.430713 0
M  V30 11226 C 1058.09 -1.63829 -1.17657 0
M  V30 11227 C 1058.4 -0.363605 -1.92191 0
M  V30 11228 O 1059.61 -0.365358 -2.6903 0
M  V30 11229 C 1058.07 -2.89357 -2.14011 0
M  V30 11230 C 1057.67 -4.23854 -1.45094 0
M  V30 11231 C 1059.42 -3.10944 -2.88988 0
M  V30 11232 C 1057.32 -5.40526 -2.3997 0
M  V30 11233 H 1056.25 -0.610221 -0.442884 0
M  V30 11234 H 1058.91 -1.78073 -0.442984 0
M  V30 11235 H 1057.29 -2.68762 -2.90832 0
M  V30 11236 H 1058.46 -4.54854 -0.737853 0
M  V30 11237 H 1056.78 -4.08197 -0.822429 0
M  V30 11238 H 1059.37 -3.95286 -3.60074 0
M  V30 11239 H 1059.72 -2.24291 -3.50712 0
M  V30 11240 H 1060.25 -3.3191 -2.19272 0
M  V30 11241 H 1056.99 -6.29459 -1.82925 0
M  V30 11242 H 1056.51 -5.13893 -3.09313 0
M  V30 11243 H 1058.19 -5.72741 -3.00959 0
M  V30 11244 N 1058.32 0.686584 -1.41858 0
M  V30 11245 C 1059.25 1.81264 -1.47193 0
M  V30 11246 C 1060.23 1.66875 -0.329657 0
M  V30 11247 O 1061.42 1.86473 -0.542347 0
M  V30 11248 C 1058.55 3.19472 -1.36216 0
M  V30 11249 C 1057.5 3.4858 -2.48347 0
M  V30 11250 C 1056.83 4.86239 -2.22432 0
M  V30 11251 C 1058.13 3.46653 -3.90678 0
M  V30 11252 H 1059.82 1.77057 -2.41436 0
M  V30 11253 H 1057.37 0.850415 -1.16206 0
M  V30 11254 H 1059.32 3.97969 -1.38558 0
M  V30 11255 H 1058.04 3.24327 -0.384611 0
M  V30 11256 H 1056.7 2.72437 -2.45303 0
M  V30 11257 H 1056.35 4.8773 -1.22999 0
M  V30 11258 H 1056.05 5.06677 -2.97577 0
M  V30 11259 H 1057.57 5.67034 -2.26505 0
M  V30 11260 H 1058.99 4.15139 -3.95389 0
M  V30 11261 H 1057.38 3.78625 -4.65578 0
M  V30 11262 H 1058.45 2.45451 -4.18189 0
M  V30 11263 N 1059.8 1.27835 0.921735 0
M  V30 11264 C 1060.75 1.1092 2.04449 0
M  V30 11265 C 1061.74 0.0306469 1.69372 0
M  V30 11266 O 1062.95 0.188818 1.79007 0
M  V30 11267 H 1059.32 0.341973 0.669745 0
M  V30 11268 H 1061.29 2.06026 2.1586 0
M  V30 11269 C 1060.04 0.779443 3.38851 0
M  V30 11270 H 1059.36 1.60131 3.66331 0
M  V30 11271 H 1060.8 0.700999 4.18165 0
M  V30 11272 C 1059.26 -0.51647 3.32918 0
M  V30 11273 O 1059.79 -1.54914 3.70627 0
M  V30 11274 N 1058 -0.514276 2.86013 0
M  V30 11275 H 1057.55 0.32651 2.55522 0
M  V30 11276 H 1057.5 -1.38141 2.82426 0
M  V30 11277 N 1061.28 -1.12907 1.09954 0
M  V30 11278 C 1062.19 -2.22082 0.756095 0
M  V30 11279 C 1063.2 -1.72277 -0.244272 0
M  V30 11280 O 1064.38 -2.01224 -0.0842637 0
M  V30 11281 C 1061.44 -3.46192 0.187642 0
M  V30 11282 C 1060.5 -4.10861 1.24465 0
M  V30 11283 C 1059.74 -5.29047 0.703227 0
M  V30 11284 O 1059.96 -5.68443 -0.472043 0
M  V30 11285 O 1058.89 -5.83904 1.46082 0
M  V30 11286 H 1062.72 -2.53842 1.66727 0
M  V30 11287 H 1060.3 -1.21145 0.874316 0
M  V30 11288 H 1062.19 -4.21212 -0.125774 0
M  V30 11289 H 1060.86 -3.16119 -0.696459 0
M  V30 11290 H 1059.77 -3.37643 1.61085 0
M  V30 11291 H 1061.1 -4.45078 2.10159 0
M  V30 11292 N 1062.75 -0.88754 -1.30232 0
M  V30 11293 C 1063.7 -0.354497 -2.28061 0
M  V30 11294 C 1064.67 0.556732 -1.56492 0
M  V30 11295 O 1065.86 0.484597 -1.84543 0
M  V30 11296 C 1063 0.422701 -3.42501 0
M  V30 11297 C 1062.11 -0.518036 -4.28883 0
M  V30 11298 C 1061.24 0.275011 -5.30488 0
M  V30 11299 C 1060.28 -0.661032 -6.0852 0
M  V30 11300 N 1059.42 0.0968509 -7.02033 0
M  V30 11301 H 1064.26 -1.19388 -2.73039 0
M  V30 11302 H 1061.8 -0.600091 -1.34303 0
M  V30 11303 H 1063.75 0.889249 -4.07613 0
M  V30 11304 H 1062.38 1.22664 -2.98586 0
M  V30 11305 H 1061.44 -1.10308 -3.64055 0
M  V30 11306 H 1062.75 -1.23504 -4.83268 0
M  V30 11307 H 1061.9 0.803301 -6.01358 0
M  V30 11308 H 1060.64 1.02522 -4.76802 0
M  V30 11309 H 1059.65 -1.20093 -5.36524 0
M  V30 11310 H 1060.87 -1.41037 -6.64293 0
M  V30 11311 H 1058.82 0.829548 -6.50734 0
M  V30 11312 H 1058.73 -0.560476 -7.5392 0
M  V30 11313 H 1060 0.6058 -7.77142 0
M  V30 11314 N 1064.23 1.43628 -0.648757 0
M  V30 11315 C 1065.18 2.32529 0.057536 0
M  V30 11316 C 1066.17 1.48358 0.817699 0
M  V30 11317 O 1067.38 1.64595 0.728605 0
M  V30 11318 H 1063.76 0.75107 0.037388 0
M  V30 11319 H 1065.73 2.89829 -0.710062 0
M  V30 11320 C 1064.48 3.32605 1.01336 0
M  V30 11321 H 1063.8 3.97395 0.437855 0
M  V30 11322 H 1065.24 3.97453 1.47672 0
M  V30 11323 C 1063.7 2.62865 2.10722 0
M  V30 11324 O 1064.23 2.4408 3.19042 0
M  V30 11325 N 1062.43 2.22312 1.87152 0
M  V30 11326 H 1061.98 2.3779 0.990644 0
M  V30 11327 H 1061.94 1.75979 2.60536 0
M  V30 11328 N 1065.71 0.390394 1.52688 0
M  V30 11329 C 1066.66 -0.4591 2.28024 0
M  V30 11330 C 1067.65 -1.06212 1.31967 0
M  V30 11331 O 1068.86 -1.00247 1.49501 0
M  V30 11332 H 1065.23 -0.16681 0.733266 0
M  V30 11333 H 1067.2 0.197747 2.97744 0
M  V30 11334 C 1065.95 -1.5737 3.10048 0
M  V30 11335 H 1065.28 -1.11901 3.83821 0
M  V30 11336 H 1066.72 -2.1423 3.65898 0
M  V30 11337 C 1065.18 -2.53036 2.22429 0
M  V30 11338 O 1065.71 -3.5647 1.85181 0
M  V30 11339 N 1063.91 -2.22802 1.86567 0
M  V30 11340 H 1063.46 -1.38723 2.17057 0
M  V30 11341 H 1063.42 -2.87061 1.28233 0
M  V30 11342 N 1067.19 -1.57141 0.120249 0
M  V30 11343 C 1068.42 -1.99589 -0.545136 0
M  V30 11344 C 1068.83 -0.999951 -1.60145 0
M  V30 11345 O 1068.19 0.00698897 -1.82499 0
M  V30 11346 C 1068.24 -3.42038 -1.17014 0
M  V30 11347 O 1067.96 -4.37822 -0.156044 0
M  V30 11348 C 1069.46 -3.99625 -1.91872 0
M  V30 11349 H 1066.68 -0.655318 -0.144222 0
M  V30 11350 H 1069.23 -2.0345 0.206955 0
M  V30 11351 H 1067.38 -3.39113 -1.873 0
M  V30 11352 H 1067.79 -5.20937 -0.610317 0
M  V30 11353 H 1069.27 -5.01374 -2.30928 0
M  V30 11354 H 1069.75 -3.38836 -2.7944 0
M  V30 11355 H 1070.35 -4.061 -1.26345 0
M  V30 11356 N 1068.67 0.153526 -1.5685 0
M  V30 11357 C 1069.61 1.20896 -1.98713 0
M  V30 11358 C 1070.61 1.44839 -0.878529 0
M  V30 11359 O 1071.81 1.45208 -1.0637 0
M  V30 11360 H 1068.19 0.406797 -0.632472 0
M  V30 11361 H 1070.16 0.829145 -2.86649 0
M  V30 11362 C 1068.91 2.53642 -2.37825 0
M  V30 11363 H 1068.23 2.36047 -3.22679 0
M  V30 11364 H 1069.67 3.26136 -2.70946 0
M  V30 11365 C 1068.13 3.13706 -1.22841 0
M  V30 11366 O 1068.66 3.98246 -0.525626 0
M  V30 11367 N 1066.87 2.73059 -0.99435 0
M  V30 11368 H 1066.41 2.0441 -1.56761 0
M  V30 11369 H 1066.37 3.1358 -0.226883 0
M  V30 11370 N 1070.14 1.51827 0.422667 0
M  V30 11371 C 1071.09 1.74791 1.53463 0
M  V30 11372 C 1072.09 0.614602 1.57858 0
M  V30 11373 O 1073.29 0.796336 1.61426 0
M  V30 11374 H 1069.67 0.552524 0.510118 0
M  V30 11375 H 1071.64 2.67974 1.31273 0
M  V30 11376 C 1070.39 1.90339 2.90975 0
M  V30 11377 H 1069.71 2.76958 2.8833 0
M  V30 11378 H 1071.15 2.10413 3.68106 0
M  V30 11379 C 1069.61 0.66695 3.30232 0
M  V30 11380 O 1070.14 -0.171542 4.01334 0
M  V30 11381 N 1068.35 0.506768 2.86147 0
M  V30 11382 H 1067.89 1.19019 2.28456 0
M  V30 11383 H 1067.85 -0.319247 3.12775 0
M  V30 11384 N 1071.62 -0.679052 1.4222 0
M  V30 11385 C 1072.87 -1.43978 1.43673 0
M  V30 11386 C 1073.22 -1.92333 0.0506711 0
M  V30 11387 O 1072.52 -1.67715 -0.926406 0
M  V30 11388 C 1072.71 -2.65528 2.39227 0
M  V30 11389 C 1072.54 -2.29065 3.86987 0
M  V30 11390 C 1071.31 -2.1863 4.55553 0
M  V30 11391 C 1073.51 -1.90983 4.77525 0
M  V30 11392 N 1071.49 -1.75227 5.88361 0
M  V30 11393 C 1072.86 -1.58465 5.99407 0
M  V30 11394 C 1074.92 -1.77938 4.65019 0
M  V30 11395 C 1073.62 -1.14212 7.10175 0
M  V30 11396 C 1075.64 -1.35089 5.75765 0
M  V30 11397 C 1075.01 -1.03493 6.96756 0
M  V30 11398 H 1071.11 -0.523503 0.58092 0
M  V30 11399 H 1073.69 -0.784043 1.78216 0
M  V30 11400 H 1071.86 -3.28797 2.06753 0
M  V30 11401 H 1073.59 -3.32096 2.31288 0
M  V30 11402 H 1070.35 -2.37562 4.09709 0
M  V30 11403 H 1070.77 -1.5596 6.58791 0
M  V30 11404 H 1075.41 -2.01013 3.71959 0
M  V30 11405 H 1073.13 -0.89882 8.03086 0
M  V30 11406 H 1076.72 -1.25522 5.68098 0
M  V30 11407 H 1075.6 -0.708396 7.80994 0
M  V30 11408 N 1073.1 -1.28322 -0.914942 0
M  V30 11409 C 1074.05 -1.12003 -2.03858 0
M  V30 11410 C 1075.04 -0.0396287 -1.69354 0
M  V30 11411 O 1076.25 -0.198309 -1.78904 0
M  V30 11412 H 1072.62 -0.34552 -0.667922 0
M  V30 11413 H 1074.59 -2.07168 -2.14765 0
M  V30 11414 C 1073.34 -0.797402 -3.38433 0
M  V30 11415 H 1072.67 -1.62071 -3.65476 0
M  V30 11416 H 1074.11 -0.723165 -4.17787 0
M  V30 11417 C 1072.57 0.498807 -3.33187 0
M  V30 11418 O 1073.1 1.52946 -3.71444 0
M  V30 11419 N 1071.3 0.499101 -2.86282 0
M  V30 11420 H 1070.85 -0.340056 -2.55346 0
M  V30 11421 H 1070.81 1.36641 -2.83155 0
M  V30 11422 N 1074.58 1.12322 -1.10551 0
M  V30 11423 C 1075.51 2.20176 -0.777486 0
M  V30 11424 C 1076.49 1.68252 0.250069 0
M  V30 11425 O 1077.67 1.93856 0.115574 0
M  V30 11426 C 1074.8 3.46666 -0.209822 0
M  V30 11427 C 1073.76 4.11749 -1.1682 0
M  V30 11428 C 1073.08 5.32703 -0.461684 0
M  V30 11429 C 1074.38 4.57746 -2.51527 0
M  V30 11430 H 1076.08 2.47872 -1.67928 0
M  V30 11431 H 1073.62 1.19136 -0.808863 0
M  V30 11432 H 1075.58 4.21388 0.0318068 0
M  V30 11433 H 1074.3 3.18401 0.727226 0
M  V30 11434 H 1072.96 3.39009 -1.3953 0
M  V30 11435 H 1072.61 5.00706 0.479875 0
M  V30 11436 H 1072.31 5.77197 -1.1008 0
M  V30 11437 H 1073.83 6.10172 -0.228629 0
M  V30 11438 H 1075.25 5.23835 -2.32958 0
M  V30 11439 H 1073.64 5.13021 -3.11335 0
M  V30 11440 H 1074.71 3.71667 -3.11435 0
M  V30 11441 N 1076.06 0.894434 1.2976 0
M  V30 11442 C 1077.3 0.516646 1.95385 0
M  V30 11443 C 1077.63 -0.939141 1.70895 0
M  V30 11444 O 1076.9 -1.66153 1.03778 0
M  V30 11445 H 1075.48 0.188072 0.722937 0
M  V30 11446 H 1078.14 1.13958 1.58113 0
M  V30 11447 H 1077.23 0.694819 3.04267 0
M  V30 11448 N 1077.53 -1.43282 0.656365 0
M  V30 11449 C 1078.78 -2.00996 0.168354 0
M  V30 11450 C 1079.1 -1.52408 -1.22601 0
M  V30 11451 O 1080.3 -2.02417 -1.80941 0
M  V30 11452 C 1078.76 -3.5903 0.250161 0
M  V30 11453 C 1078.37 -4.1661 1.64742 0
M  V30 11454 C 1080.11 -4.24118 -0.180084 0
M  V30 11455 C 1078.02 -5.66948 1.68299 0
M  V30 11456 H 1076.95 -0.751674 0.0591769 0
M  V30 11457 H 1079.6 -1.64216 0.818859 0
M  V30 11458 H 1077.98 -3.93226 -0.467908 0
M  V30 11459 H 1079.15 -3.93908 2.3911 0
M  V30 11460 H 1077.47 -3.63905 2.02391 0
M  V30 11461 H 1080.07 -5.34419 -0.173401 0
M  V30 11462 H 1080.41 -3.98264 -1.21208 0
M  V30 11463 H 1080.94 -3.94816 0.486343 0
M  V30 11464 H 1077.68 -5.97573 2.69419 0
M  V30 11465 H 1077.2 -5.91697 0.98261 0
M  V30 11466 H 1078.88 -6.31041 1.42813 0
M  V30 11467 N 1079.01 -0.398486 -1.52479 0
M  V30 11468 C 1079.92 0.439328 -2.3045 0
M  V30 11469 C 1080.94 1.06322 -1.37738 0
M  V30 11470 O 1082.12 1.06704 -1.7081 0
M  V30 11471 C 1079.18 1.54655 -3.10294 0
M  V30 11472 C 1078.24 0.946824 -4.18729 0
M  V30 11473 C 1077.47 2.00129 -4.94757 0
M  V30 11474 O 1077.7 3.2178 -4.70971 0
M  V30 11475 O 1076.63 1.61345 -5.79872 0
M  V30 11476 H 1080.46 -0.196118 -3.03066 0
M  V30 11477 H 1078.04 -0.161961 -1.4852 0
M  V30 11478 H 1079.92 2.18958 -3.60049 0
M  V30 11479 H 1078.6 2.1668 -2.40482 0
M  V30 11480 H 1077.51 0.266802 -3.73147 0
M  V30 11481 H 1078.84 0.370664 -4.90802 0
M  V30 11482 N 1080.49 1.57075 -0.12858 0
M  V30 11483 C 1081.45 2.14643 0.803813 0
M  V30 11484 C 1082.45 1.08363 1.18803 0
M  V30 11485 O 1083.64 1.34093 1.11197 0
M  V30 11486 C 1080.78 2.6945 2.08829 0
M  V30 11487 H 1081.97 2.98362 0.303347 0
M  V30 11488 H 1079.52 1.55833 0.120735 0
M  V30 11489 H 1080.26 1.89345 2.63285 0
M  V30 11490 H 1080.04 3.47187 1.82218 0
M  V30 11491 H 1081.53 3.13865 2.7546 0
M  V30 11492 N 1081.97 -0.145205 1.5693 0
M  V30 11493 C 1083.22 -0.855955 1.82637 0
M  V30 11494 C 1083.53 -1.82255 0.710109 0
M  V30 11495 O 1084.74 -2.57758 0.852837 0
M  V30 11496 C 1083.19 -1.57278 3.23715 0
M  V30 11497 C 1082.8 -0.648507 4.43281 0
M  V30 11498 C 1084.55 -2.27021 3.58695 0
M  V30 11499 C 1082.45 -1.36706 5.75383 0
M  V30 11500 H 1081.38 -0.323385 0.68113 0
M  V30 11501 H 1084.03 -0.10869 1.83178 0
M  V30 11502 H 1082.42 -2.36574 3.17567 0
M  V30 11503 H 1083.59 0.109355 4.6067 0
M  V30 11504 H 1081.9 -0.0594029 4.16358 0
M  V30 11505 H 1084.5 -2.81423 4.54648 0
M  V30 11506 H 1084.84 -3.03598 2.8484 0
M  V30 11507 H 1085.38 -1.54642 3.66512 0
M  V30 11508 H 1082.12 -0.6431 6.52338 0
M  V30 11509 H 1081.64 -2.09759 5.61926 0
M  V30 11510 H 1083.32 -1.90748 6.18243 0
M  V30 11511 N 1083.45 -1.52049 -0.414609 0
M  V30 11512 C 1084.7 -1.65067 -1.15912 0
M  V30 11513 C 1085.01 -0.383969 -1.91794 0
M  V30 11514 O 1086.22 -0.393872 -2.68628 0
M  V30 11515 C 1084.67 -2.91611 -2.1093 0
M  V30 11516 C 1084.28 -4.25369 -1.4059 0
M  V30 11517 C 1086.02 -3.13992 -2.85674 0
M  V30 11518 C 1083.93 -5.43041 -2.34223 0
M  V30 11519 H 1082.86 -0.614884 -0.436387 0
M  V30 11520 H 1085.51 -1.78533 -0.424072 0
M  V30 11521 H 1083.89 -2.71831 -2.87965 0
M  V30 11522 H 1085.07 -4.55611 -0.689568 0
M  V30 11523 H 1083.38 -4.09047 -0.779088 0
M  V30 11524 H 1085.98 -3.99082 -3.55861 0
M  V30 11525 H 1086.32 -2.27998 -3.48314 0
M  V30 11526 H 1086.86 -3.34217 -2.1574 0
M  V30 11527 H 1083.59 -6.31364 -1.76238 0
M  V30 11528 H 1083.11 -5.17144 -3.03845 0
M  V30 11529 H 1084.79 -5.75901 -2.94868 0
M  V30 11530 N 1084.93 0.6715 -1.42579 0
M  V30 11531 C 1085.87 1.78496 -1.46314 0
M  V30 11532 C 1086.84 1.63091 -0.314743 0
M  V30 11533 O 1088.03 1.83597 -0.519292 0
M  V30 11534 C 1085.17 3.16548 -1.37447 0
M  V30 11535 C 1084.28 3.43216 -2.62348 0
M  V30 11536 C 1083.42 4.71014 -2.456 0
M  V30 11537 C 1082.45 4.90728 -3.65859 0
M  V30 11538 N 1081.59 6.09769 -3.48032 0
M  V30 11539 H 1086.43 1.74638 -2.41466 0
M  V30 11540 H 1083.97 0.852491 -1.19879 0
M  V30 11541 H 1085.93 3.96329 -1.30303 0
M  V30 11542 H 1084.56 3.19522 -0.458891 0
M  V30 11543 H 1083.61 2.57664 -2.79846 0
M  V30 11544 H 1084.92 3.53675 -3.51732 0
M  V30 11545 H 1084.07 5.58892 -2.3606 0
M  V30 11546 H 1082.81 4.62843 -1.53712 0
M  V30 11547 H 1081.82 4.01291 -3.75827 0
M  V30 11548 H 1083.04 5.00741 -4.58732 0
M  V30 11549 H 1080.99 6.02765 -2.58864 0
M  V30 11550 H 1080.91 6.21104 -4.31005 0
M  V30 11551 H 1082.17 7.00317 -3.42311 0
M  V30 11552 N 1086.4 1.28806 0.908124 0
M  V30 11553 C 1087.31 1.15079 2.04436 0
M  V30 11554 C 1088.33 0.076012 1.73834 0
M  V30 11555 O 1089.51 0.286421 1.99353 0
M  V30 11556 C 1086.57 0.819733 3.3687 0
M  V30 11557 C 1085.63 1.97746 3.81045 0
M  V30 11558 C 1084.86 1.66211 5.07158 0
M  V30 11559 O 1085.09 0.579092 5.67453 0
M  V30 11560 O 1084.02 2.5075 5.47182 0
M  V30 11561 H 1087.85 2.10477 2.18937 0
M  V30 11562 H 1085.43 1.08177 1.03044 0
M  V30 11563 H 1087.31 0.649304 4.16368 0
M  V30 11564 H 1085.99 -0.10454 3.23531 0
M  V30 11565 H 1084.9 2.20308 3.02349 0
M  V30 11566 H 1086.23 2.88264 3.98955 0
M  V30 11567 N 1087.88 -1.11734 1.11145 0
M  V30 11568 C 1089.12 -1.85039 0.868318 0
M  V30 11569 C 1089.49 -1.82538 -0.595294 0
M  V30 11570 O 1090.69 -2.5126 -0.955071 0
M  V30 11571 C 1088.96 -3.28381 1.4107 0
M  V30 11572 S 1090.52 -4.18973 1.3041 0
M  V30 11573 H 1087.33 -0.638114 0.313578 0
M  V30 11574 H 1089.94 -1.34548 1.41835 0
M  V30 11575 H 1088.64 -3.27764 2.46979 0
M  V30 11576 H 1088.17 -3.83939 0.857576 0
M  V30 11577 H 1090.19 -4.95483 0.266605 0
M  V30 11578 N 1089.36 -0.901303 -1.29284 0
M  V30 11579 C 1090.61 -0.528826 -1.95784 0
M  V30 11580 C 1090.94 0.922833 -1.70873 0
M  V30 11581 O 1090.21 1.65448 -1.0226 0
M  V30 11582 C 1090.5 -0.823793 -3.50551 0
M  V30 11583 C 1090.35 -2.32727 -3.84913 0
M  V30 11584 C 1091.67 -0.311382 -4.38997 0
M  V30 11585 H 1088.79 -0.193604 -0.711116 0
M  V30 11586 H 1091.43 -1.12828 -1.52872 0
M  V30 11587 H 1089.58 -0.313612 -3.87232 0
M  V30 11588 H 1091.25 -2.90712 -3.58168 0
M  V30 11589 H 1089.49 -2.78735 -3.32399 0
M  V30 11590 H 1090.17 -2.48423 -4.9294 0
M  V30 11591 H 1092.64 -0.748265 -4.09317 0
M  V30 11592 H 1091.52 -0.546957 -5.46168 0
M  V30 11593 H 1091.78 0.787959 -4.35021 0
M  V30 11594 N 1090.84 1.42931 -0.663954 0
M  V30 11595 C 1091.77 2.33499 0.00731327 0
M  V30 11596 C 1092.75 1.50074 0.800733 0
M  V30 11597 O 1093.93 1.78708 0.760062 0
M  V30 11598 C 1091.06 3.33569 0.966897 0
M  V30 11599 C 1090.02 4.27064 0.282839 0
M  V30 11600 C 1089.34 5.17257 1.35461 0
M  V30 11601 C 1090.64 5.1564 -0.831438 0
M  V30 11602 H 1092.34 2.89879 -0.749044 0
M  V30 11603 H 1089.88 1.39385 -0.361656 0
M  V30 11604 H 1091.84 3.95833 1.44549 0
M  V30 11605 H 1090.56 2.75469 1.75455 0
M  V30 11606 H 1089.22 3.6618 -0.175417 0
M  V30 11607 H 1088.87 4.5549 2.13397 0
M  V30 11608 H 1088.57 5.80634 0.902098 0
M  V30 11609 H 1090.09 5.82395 1.83436 0
M  V30 11610 H 1091.51 5.71651 -0.434534 0
M  V30 11611 H 1089.9 5.87794 -1.20908 0
M  V30 11612 H 1090.97 4.54687 -1.68487 0
M  V30 11613 N 1092.32 0.406567 1.52266 0
M  V30 11614 C 1093.56 -0.171391 2.00971 0
M  V30 11615 C 1093.88 -1.46443 1.29668 0
M  V30 11616 O 1095.08 -2.12348 1.69176 0
M  V30 11617 C 1093.54 -0.35599 3.58135 0
M  V30 11618 C 1093.15 0.924803 4.38351 0
M  V30 11619 C 1094.89 -0.889378 4.15079 0
M  V30 11620 C 1092.8 0.707534 5.87152 0
M  V30 11621 H 1091.73 -0.0678253 0.750943 0
M  V30 11622 H 1094.38 0.531619 1.7563 0
M  V30 11623 H 1092.76 -1.12127 3.79794 0
M  V30 11624 H 1093.94 1.69603 4.28452 0
M  V30 11625 H 1092.25 1.38442 3.92712 0
M  V30 11626 H 1094.85 -1.06792 5.23927 0
M  V30 11627 H 1095.19 -1.86334 3.7227 0
M  V30 11628 H 1095.72 -0.183224 3.97378 0
M  V30 11629 H 1092.46 1.65299 6.34316 0
M  V30 11630 H 1091.98 -0.024446 5.99795 0
M  V30 11631 H 1093.66 0.348721 6.4606 0
M  V30 11632 N 1093.79 -1.57004 0.136909 0
M  V30 11633 C 1095.04 -1.9541 -0.51569 0
M  V30 11634 C 1095.36 -1.02219 -1.66061 0
M  V30 11635 O 1094.63 -0.0818172 -1.95729 0
M  V30 11636 H 1093.21 -0.721504 -0.193497 0
M  V30 11637 H 1095.88 -1.93765 0.210046 0
M  V30 11638 H 1094.97 -2.98887 -0.898494 0
M  V30 11639 N 1095.27 0.136881 -1.57004 0
M  V30 11640 C 1096.22 1.18782 -1.99984 0
M  V30 11641 C 1097.21 1.43899 -0.893841 0
M  V30 11642 O 1098.42 1.44072 -1.07904 0
M  V30 11643 H 1094.8 0.400065 -0.636751 0
M  V30 11644 H 1096.77 0.798696 -2.87512 0
M  V30 11645 C 1095.52 2.51105 -2.40502 0
M  V30 11646 H 1094.84 2.32611 -3.25165 0
M  V30 11647 H 1096.28 3.23244 -2.74389 0
M  V30 11648 C 1094.74 3.12386 -1.26161 0
M  V30 11649 O 1095.27 3.97666 -0.567836 0
M  V30 11650 N 1093.47 2.71989 -1.02326 0
M  V30 11651 H 1093.02 2.02736 -1.58921 0
M  V30 11652 H 1092.98 3.13322 -0.26013 0
M  V30 11653 N 1096.75 1.52266 0.40654 0
M  V30 11654 C 1098 1.6568 1.15035 0
M  V30 11655 C 1098.31 0.394135 1.91588 0
M  V30 11656 O 1099.52 0.408113 2.68415 0
M  V30 11657 C 1097.97 2.92725 2.0938 0
M  V30 11658 C 1097.58 4.26108 1.38332 0
M  V30 11659 C 1099.33 3.15502 2.84004 0
M  V30 11660 C 1097.23 5.44275 2.3134 0
M  V30 11661 H 1096.16 0.61719 0.43312 0
M  V30 11662 H 1098.81 1.78755 0.414598 0
M  V30 11663 H 1097.2 2.73355 2.86519 0
M  V30 11664 H 1098.37 4.55971 0.665396 0
M  V30 11665 H 1096.69 4.09454 0.757384 0
M  V30 11666 H 1099.28 4.00964 3.5374 0
M  V30 11667 H 1099.63 2.29842 3.471 0
M  V30 11668 H 1100.16 3.35357 2.13964 0
M  V30 11669 H 1096.9 6.3229 1.72887 0
M  V30 11670 H 1096.42 5.18749 3.01098 0
M  V30 11671 H 1098.1 5.77457 2.91809 0
M  V30 11672 N 1098.23 -0.663929 1.42933 0
M  V30 11673 C 1099.14 -1.80643 1.49683 0
M  V30 11674 C 1100.15 -1.69694 0.38472 0
M  V30 11675 O 1101.33 -1.91052 0.637256 0
M  V30 11676 C 1098.4 -3.16858 1.4072 0
M  V30 11677 C 1097.46 -3.39684 2.62514 0
M  V30 11678 C 1096.69 -4.69399 2.53969 0
M  V30 11679 O 1096.91 -5.48037 1.58152 0
M  V30 11680 O 1095.85 -4.93709 3.44289 0
M  V30 11681 H 1099.67 -1.77903 2.46138 0
M  V30 11682 H 1097.26 -0.821059 1.24816 0
M  V30 11683 H 1099.14 -3.9812 1.38124 0
M  V30 11684 H 1097.81 -3.20211 0.473954 0
M  V30 11685 H 1096.72 -2.58227 2.70684 0
M  V30 11686 H 1098.05 -3.41169 3.54774 0
M  V30 11687 N 1099.71 -1.29285 -0.901281 0
M  V30 11688 C 1100.93 -1.20048 -1.68511 0
M  V30 11689 C 1101.35 0.239128 -1.8728 0
M  V30 11690 O 1100.71 1.16027 -1.40869 0
M  V30 11691 C 1100.76 -1.90798 -3.07048 0
M  V30 11692 O 1100.48 -3.29137 -2.89138 0
M  V30 11693 C 1101.98 -1.88017 -4.01453 0
M  V30 11694 H 1099.2 -0.416157 -0.52636 0
M  V30 11695 H 1101.74 -1.7063 -1.12719 0
M  V30 11696 H 1099.9 -1.44055 -3.5962 0
M  V30 11697 H 1100.31 -3.64747 -3.76908 0
M  V30 11698 H 1101.79 -2.42088 -4.96082 0
M  V30 11699 H 1102.26 -0.855341 -4.30791 0
M  V30 11700 H 1102.87 -2.34497 -3.54812 0
M  V30 11701 N 1101.18 1.11143 -1.11736 0
M  V30 11702 C 1102.15 2.15456 -0.78174 0
M  V30 11703 C 1103.15 1.59547 0.200383 0
M  V30 11704 O 1104.34 1.74183 -0.0244893 0
M  V30 11705 C 1101.47 3.40523 -0.160364 0
M  V30 11706 H 1102.66 2.46658 -1.70586 0
M  V30 11707 H 1100.22 1.26381 -0.919644 0
M  V30 11708 H 1100.95 3.14932 0.773835 0
M  V30 11709 H 1100.74 3.82386 -0.867378 0
M  V30 11710 H 1102.23 4.17559 0.0582175 0
M  V30 11711 N 1102.66 0.908147 1.28804 0
M  V30 11712 C 1103.91 0.539201 1.95501 0
M  V30 11713 C 1104.24 -0.913759 1.7136 0
M  V30 11714 O 1103.52 -1.64904 1.03136 0
M  V30 11715 C 1103.8 0.842372 3.50109 0
M  V30 11716 C 1103.65 2.34765 3.83673 0
M  V30 11717 C 1104.97 0.334658 4.38826 0
M  V30 11718 H 1102.09 0.197373 0.71008 0
M  V30 11719 H 1104.73 1.13637 1.52272 0
M  V30 11720 H 1102.88 0.334143 3.8706 0
M  V30 11721 H 1104.55 2.92607 3.56621 0
M  V30 11722 H 1102.8 2.80494 3.30916 0
M  V30 11723 H 1103.47 2.51034 4.91616 0
M  V30 11724 H 1105.94 0.769961 4.08914 0
M  V30 11725 H 1104.82 0.575914 5.4587 0
M  V30 11726 H 1105.08 -0.764878 4.35433 0
M  V30 11727 N 1104.14 -1.42577 0.671525 0
M  V30 11728 C 1105.05 -2.34598 -0.00898225 0
M  V30 11729 C 1106.07 -1.54909 -0.792407 0
M  V30 11730 O 1107.24 -1.87491 -0.735477 0
M  V30 11731 C 1104.31 -3.33405 -0.950888 0
M  V30 11732 C 1103.37 -4.28993 -0.16236 0
M  V30 11733 C 1102.6 -5.2308 -1.0594 0
M  V30 11734 O 1102.82 -5.22022 -2.2989 0
M  V30 11735 O 1101.76 -5.99632 -0.521966 0
M  V30 11736 H 1105.58 -2.94321 0.748927 0
M  V30 11737 H 1103.17 -1.43025 0.43175 0
M  V30 11738 H 1105.05 -3.94115 -1.49169 0
M  V30 11739 H 1103.73 -2.7616 -1.68871 0
M  V30 11740 H 1102.63 -3.71707 0.42247 0
M  V30 11741 H 1103.97 -4.8927 0.536274 0
M  V30 11742 N 1105.62 -0.414636 -1.52048 0
M  V30 11743 C 1106.55 0.399119 -2.30064 0
M  V30 11744 C 1107.53 1.04126 -1.34506 0
M  V30 11745 O 1108.71 1.04923 -1.63416 0
M  V30 11746 C 1105.84 1.51305 -3.12608 0
M  V30 11747 C 1104.8 0.995621 -4.16259 0
M  V30 11748 C 1104.12 2.20357 -4.87183 0
M  V30 11749 C 1105.42 0.0458178 -5.2228 0
M  V30 11750 H 1107.12 -0.251879 -2.98339 0
M  V30 11751 H 1104.66 -0.122579 -1.43477 0
M  V30 11752 H 1106.62 2.08936 -3.65956 0
M  V30 11753 H 1105.34 2.19201 -2.42113 0
M  V30 11754 H 1104 0.441676 -3.6393 0
M  V30 11755 H 1103.65 2.8682 -4.13211 0
M  V30 11756 H 1103.35 1.86385 -5.57256 0
M  V30 11757 H 1104.87 2.78584 -5.43345 0
M  V30 11758 H 1106.29 0.531102 -5.70835 0
M  V30 11759 H 1104.68 -0.20536 -5.99749 0
M  V30 11760 H 1105.75 -0.897807 -4.76516 0
M  V30 11761 N 1107.1 1.56929 -0.145233 0
M  V30 11762 C 1108.34 1.97959 0.509092 0
M  V30 11763 C 1108.7 1.02813 1.62153 0
M  V30 11764 O 1109.9 1.3288 2.33659 0
M  V30 11765 C 1108.17 3.43012 1.00388 0
M  V30 11766 S 1109.73 4.06064 1.66305 0
M  V30 11767 H 1106.55 0.69167 0.164663 0
M  V30 11768 H 1109.15 1.94064 -0.236529 0
M  V30 11769 H 1107.86 4.0999 0.183454 0
M  V30 11770 H 1107.39 3.50615 1.78417 0
M  V30 11771 H 1109.4 3.98971 2.9502 0
M  V30 11772 N 1108.58 -0.128553 1.57075 0
M  V30 11773 C 1109.51 -1.15953 2.02675 0
M  V30 11774 C 1110.49 -1.43743 0.909501 0
M  V30 11775 O 1111.67 -1.54348 1.17857 0
M  V30 11776 C 1108.8 -2.48813 2.423 0
M  V30 11777 C 1107.76 -2.35506 3.57381 0
M  V30 11778 C 1107.08 -3.73243 3.82875 0
M  V30 11779 C 1108.38 -1.82359 4.89431 0
M  V30 11780 H 1110.08 -0.780283 2.89054 0
M  V30 11781 H 1107.62 -0.373896 1.39061 0
M  V30 11782 H 1109.57 -3.21179 2.72804 0
M  V30 11783 H 1108.3 -2.88609 1.52881 0
M  V30 11784 H 1106.96 -1.6559 3.27071 0
M  V30 11785 H 1106.61 -4.10507 2.90677 0
M  V30 11786 H 1106.31 -3.65195 4.60333 0
M  V30 11787 H 1107.83 -4.47128 4.15823 0
M  V30 11788 H 1109.24 -2.44533 5.18533 0
M  V30 11789 H 1107.64 -1.85156 5.70822 0
M  V30 11790 H 1108.71 -0.780478 4.78578 0
M  V30 11791 N 1110.05 -1.5248 -0.398459 0
M  V30 11792 C 1111 -1.72965 -1.4855 0
M  V30 11793 C 1111.99 -0.583628 -1.49942 0
M  V30 11794 O 1113.18 -0.841106 -1.55738 0
M  V30 11795 C 1110.31 -1.89339 -2.86366 0
M  V30 11796 C 1109.39 -3.09845 -2.8958 0
M  V30 11797 N 1109.79 -4.32365 -2.62477 0
M  V30 11798 C 1108.08 -3.09897 -3.20749 0
M  V30 11799 C 1108.78 -5.13908 -2.72532 0
M  V30 11800 N 1107.76 -4.49387 -3.05864 0
M  V30 11801 H 1111.56 -2.65327 -1.26406 0
M  V30 11802 H 1109.08 -1.50658 -0.606299 0
M  V30 11803 H 1111.07 -2.02134 -3.64619 0
M  V30 11804 H 1109.73 -0.981841 -3.095 0
M  V30 11805 H 1110.74 -4.60659 -2.36673 0
M  V30 11806 H 1107.42 -2.28518 -3.49408 0
M  V30 11807 H 1108.81 -6.21548 -2.55202 0
M  V30 11808 N 1111.53 0.65634 -1.43283 0
M  V30 11809 C 1112.48 1.76934 -1.48199 0
M  V30 11810 C 1113.45 1.62748 -0.332023 0
M  V30 11811 O 1114.63 1.83036 -0.538735 0
M  V30 11812 C 1111.77 3.15072 -1.40797 0
M  V30 11813 C 1110.89 3.40414 -2.65974 0
M  V30 11814 C 1110.02 4.68383 -2.50582 0
M  V30 11815 C 1109.06 4.8682 -3.71043 0
M  V30 11816 N 1108.2 6.06043 -3.5448 0
M  V30 11817 H 1113.04 1.72067 -2.43304 0
M  V30 11818 H 1110.57 0.839728 -1.20777 0
M  V30 11819 H 1112.53 3.94925 -1.345 0
M  V30 11820 H 1111.16 3.19017 -0.492754 0
M  V30 11821 H 1110.21 2.54681 -2.82563 0
M  V30 11822 H 1111.53 3.49925 -3.55463 0
M  V30 11823 H 1110.68 5.56357 -2.41975 0
M  V30 11824 H 1109.42 4.61187 -1.58612 0
M  V30 11825 H 1108.42 3.97282 -3.80062 0
M  V30 11826 H 1109.65 4.95847 -4.64017 0
M  V30 11827 H 1107.6 5.99985 -2.65242 0
M  V30 11828 H 1107.51 6.16498 -4.37568 0
M  V30 11829 H 1108.78 6.96647 -3.49719 0
M  V30 11830 N 1113.01 1.29761 0.894412 0
M  V30 11831 C 1113.96 1.15232 2.0205 0
M  V30 11832 C 1114.95 0.0665664 1.69269 0
M  V30 11833 O 1116.16 0.226746 1.78566 0
M  V30 11834 H 1112.53 0.356102 0.662341 0
M  V30 11835 H 1114.5 2.10559 2.11442 0
M  V30 11836 C 1113.25 0.851143 3.37121 0
M  V30 11837 H 1112.58 1.67865 3.62852 0
M  V30 11838 H 1114.02 0.78954 4.16584 0
M  V30 11839 C 1112.47 -0.445737 3.33938 0
M  V30 11840 O 1113 -1.47017 3.7383 0
M  V30 11841 N 1111.21 -0.453493 2.8704 0
M  V30 11842 H 1110.76 0.380636 2.54772 0
M  V30 11843 H 1110.72 -1.32119 2.85293 0
M  V30 11844 N 1114.49 -1.10549 1.12324 0
M  V30 11845 C 1115.9 -1.34508 0.85905 0
M  V30 11846 C 1116.1 -1.94901 -0.511468 0
M  V30 11847 O 1115.16 -2.18793 -1.2604 0
M  V30 11848 C 1116.47 -2.26788 1.97453 0
M  V30 11849 C 1118.02 -2.40328 2.00528 0
M  V30 11850 C 1118.5 -3.35936 3.11305 0
M  V30 11851 N 1119.99 -3.43504 3.1074 0
M  V30 11852 C 1120.72 -4.17449 3.93096 0
M  V30 11853 N 1120.22 -4.9429 4.85437 0
M  V30 11854 N 1122.01 -4.13055 3.81237 0
M  V30 11855 H 1114.16 -0.697171 2.00632 0
M  V30 11856 H 1116.42 -0.369548 0.873005 0
M  V30 11857 H 1116.13 -1.89621 2.96204 0
M  V30 11858 H 1116 -3.27086 1.87869 0
M  V30 11859 H 1118.39 -2.76765 1.02397 0
M  V30 11860 H 1118.47 -1.39849 2.14186 0
M  V30 11861 H 1118.12 -3.00225 4.09667 0
M  V30 11862 H 1118.05 -4.36291 2.94886 0
M  V30 11863 H 1120.54 -2.88702 2.43843 0
M  V30 11864 H 1120.85 -5.48109 5.4479 0
M  V30 11865 H 1119.2 -4.93419 4.89452 0
M  V30 11866 H 1122.39 -3.52117 3.08433 0
M  V30 11867 H 1122.56 -4.70424 4.45651 0
M  V30 11868 N 1115.97 -0.914965 -1.28321 0
M  V30 11869 C 1116.9 -0.348729 -2.2552 0
M  V30 11870 C 1117.88 0.547737 -1.53097 0
M  V30 11871 O 1119.06 0.491119 -1.8199 0
M  V30 11872 C 1116.19 0.501397 -3.34968 0
M  V30 11873 C 1115.23 -0.329859 -4.25223 0
M  V30 11874 S 1116.07 -1.73737 -5.06533 0
M  V30 11875 C 1117.22 -0.89458 -6.19474 0
M  V30 11876 H 1117.46 -1.17256 -2.732 0
M  V30 11877 H 1114.99 -0.716297 -1.36779 0
M  V30 11878 H 1116.95 0.986061 -3.98481 0
M  V30 11879 H 1115.61 1.29962 -2.85952 0
M  V30 11880 H 1114.8 0.320236 -5.02982 0
M  V30 11881 H 1114.4 -0.748221 -3.66439 0
M  V30 11882 H 1116.69 -0.124776 -6.77385 0
M  V30 11883 H 1117.64 -1.64475 -6.88733 0
M  V30 11884 H 1118.05 -0.442217 -5.62765 0
M  V30 11885 N 1117.44 1.42219 -0.679077 0
M  V30 11886 C 1118.41 2.29197 -0.0125475 0
M  V30 11887 C 1119.41 1.43544 0.724691 0
M  V30 11888 O 1120.6 1.64884 0.562052 0
M  V30 11889 C 1117.73 3.26122 0.992846 0
M  V30 11890 H 1118.92 2.89629 -0.778154 0
M  V30 11891 H 1116.47 1.4993 -0.44166 0
M  V30 11892 H 1117.21 2.70637 1.78679 0
M  V30 11893 H 1116.99 3.89302 0.467544 0
M  V30 11894 H 1118.48 3.91339 1.45751 0
M  V30 11895 N 1118.92 0.422693 1.51826 0
M  V30 11896 C 1120.2 -0.20786 1.94492 0
M  V30 11897 C 1120.58 -1.61414 1.36047 0
M  V30 11898 O 1119.93 -2.21987 0.541657 0
M  V30 11899 C 1120.14 -0.200457 3.48424 0
M  V30 11900 C 1121.48 -0.413199 4.22585 0
M  V30 11901 O 1122.51 -0.27922 3.55104 0
M  V30 11902 O 1121.37 -0.678469 5.42272 0
M  V30 11903 H 1118.46 -0.137851 0.81543 0
M  V30 11904 H 1121.01 0.479617 1.62781 0
M  V30 11905 H 1119.78 0.783263 3.83381 0
M  V30 11906 H 1119.4 -0.931464 3.86535 0
M  V30 11907 N 1120.4 -1.5685 0.153553 0
M  V30 11908 C 1121.36 -2.15894 -0.769564 0
M  V30 11909 C 1122.36 -1.10239 -1.17064 0
M  V30 11910 O 1123.55 -1.35845 -1.09049 0
M  V30 11911 C 1120.68 -2.72738 -2.04516 0
M  V30 11912 H 1121.88 -2.98807 -0.255842 0
M  V30 11913 H 1119.43 -1.56005 -0.0959279 0
M  V30 11914 H 1120.17 -1.9351 -2.60239 0
M  V30 11915 H 1119.95 -3.50042 -1.76672 0
M  V30 11916 H 1121.44 -3.18208 -2.70432 0
M  V30 11917 N 1121.88 0.120221 -1.57141 0
M  V30 11918 C 1122.81 1.14876 -2.03287 0
M  V30 11919 C 1123.79 1.43259 -0.917112 0
M  V30 11920 O 1124.97 1.53721 -1.18674 0
M  V30 11921 C 1122.1 2.47525 -2.43616 0
M  V30 11922 C 1121.06 2.33607 -3.58625 0
M  V30 11923 C 1120.38 3.71207 -3.84849 0
M  V30 11924 C 1121.68 1.79761 -4.90391 0
M  V30 11925 H 1123.38 0.764943 -2.89463 0
M  V30 11926 H 1120.92 0.366516 -1.39258 0
M  V30 11927 H 1122.88 3.19728 -2.74504 0
M  V30 11928 H 1121.6 2.87794 -1.54409 0
M  V30 11929 H 1120.26 1.63853 -3.27945 0
M  V30 11930 H 1119.91 4.0896 -2.9285 0
M  V30 11931 H 1119.61 3.62749 -4.62263 0
M  V30 11932 H 1121.13 4.44917 -4.18188 0
M  V30 11933 H 1122.55 2.4178 -5.19822 0
M  V30 11934 H 1120.94 1.82126 -5.71795 0
M  V30 11935 H 1122.01 0.755087 -4.78985 0
M  V30 11936 N 1123.36 1.52689 0.390367 0
M  V30 11937 C 1124.29 1.80338 1.48325 0
M  V30 11938 C 1125.27 0.655338 1.56969 0
M  V30 11939 O 1126.45 0.902792 1.7194 0
M  V30 11940 C 1123.58 1.97101 2.85952 0
M  V30 11941 C 1122.54 3.12783 2.92148 0
M  V30 11942 C 1121.86 3.14798 4.32211 0
M  V30 11943 C 1123.16 4.5188 2.61919 0
M  V30 11944 H 1124.86 2.71857 1.25437 0
M  V30 11945 H 1122.4 1.30813 0.601995 0
M  V30 11946 H 1124.36 2.15027 3.62411 0
M  V30 11947 H 1123.08 1.02271 3.10174 0
M  V30 11948 H 1121.74 2.94638 2.18137 0
M  V30 11949 H 1121.39 2.17653 4.53471 0
M  V30 11950 H 1121.09 3.92507 4.37278 0
M  V30 11951 H 1122.61 3.34877 5.10578 0
M  V30 11952 H 1124.02 4.70134 3.28096 0
M  V30 11953 H 1122.42 5.31647 2.78337 0
M  V30 11954 H 1123.49 4.58689 1.57266 0
M  V30 11955 N 1124.83 -0.648732 1.43629 0
M  V30 11956 C 1125.76 -1.77298 1.51947 0
M  V30 11957 C 1126.75 -1.65942 0.373785 0
M  V30 11958 O 1127.93 -1.8497 0.591596 0
M  V30 11959 C 1125.06 -3.15749 1.44638 0
M  V30 11960 C 1124.01 -3.41872 2.57502 0
M  V30 11961 C 1123.34 -4.8017 2.35246 0
M  V30 11962 C 1124.64 -3.36173 3.99731 0
M  V30 11963 H 1126.33 -1.70594 2.46045 0
M  V30 11964 H 1123.88 -0.819306 1.1842 0
M  V30 11965 H 1125.83 -3.94156 1.4906 0
M  V30 11966 H 1124.56 -3.23194 0.470466 0
M  V30 11967 H 1123.22 -2.65838 2.5244 0
M  V30 11968 H 1122.86 -4.84297 1.35887 0
M  V30 11969 H 1122.56 -4.9861 3.10906 0
M  V30 11970 H 1124.09 -5.6083 2.41459 0
M  V30 11971 H 1125.5 -4.0451 4.06257 0
M  V30 11972 H 1123.9 -3.66148 4.75453 0
M  V30 11973 H 1124.97 -2.34277 4.24549 0
M  V30 11974 N 1126.31 -1.30234 -0.887518 0
M  V30 11975 C 1127.54 -1.21955 -1.67755 0
M  V30 11976 C 1127.96 0.214701 -1.86871 0
M  V30 11977 O 1127.32 1.15459 -1.39782 0
M  V30 11978 C 1127.37 -1.95079 -3.03276 0
M  V30 11979 O 1126.47 -1.27615 -3.92158 0
M  V30 11980 H 1125.81 -0.421948 -0.512695 0
M  V30 11981 H 1128.34 -1.72011 -1.10785 0
M  V30 11982 H 1128.35 -2.04004 -3.53336 0
M  V30 11983 H 1127.03 -2.99392 -2.88682 0
M  V30 11984 H 1125.61 -1.27029 -3.50597 0
M  V30 11985 N 1127.79 1.09952 -1.12909 0
M  V30 11986 C 1129.02 1.8633 -0.910821 0
M  V30 11987 C 1129.44 1.80335 0.534874 0
M  V30 11988 O 1128.8 1.1769 1.37908 0
M  V30 11989 C 1128.85 3.32462 -1.39648 0
M  V30 11990 O 1127.95 4.08327 -0.578192 0
M  V30 11991 H 1127.29 0.577984 -0.32685 0
M  V30 11992 H 1129.82 1.38883 -1.50242 0
M  V30 11993 H 1129.83 3.83311 -1.39774 0
M  V30 11994 H 1128.51 3.36141 -2.44913 0
M  V30 11995 H 1127.08 3.67291 -0.644347 0
M  V30 11996 N 1129.27 0.921757 1.27833 0
M  V30 11997 C 1130.52 0.559078 1.94629 0
M  V30 11998 C 1130.84 -0.898641 1.72495 0
M  V30 11999 O 1130.1 -1.65546 1.0437 0
M  V30 12000 C 1130.4 0.824259 3.47765 0
M  V30 12001 C 1130.06 2.26278 3.90011 0
M  V30 12002 C 1128.73 2.65607 4.01256 0
M  V30 12003 C 1131.08 3.19853 4.11513 0
M  V30 12004 C 1128.41 3.97646 4.31387 0
M  V30 12005 C 1130.76 4.51467 4.43126 0
M  V30 12006 C 1129.42 4.90637 4.52583 0
M  V30 12007 H 1128.69 0.204581 0.712199 0
M  V30 12008 H 1131.34 1.1646 1.52018 0
M  V30 12009 H 1129.64 0.136011 3.91564 0
M  V30 12010 H 1131.34 0.522701 3.97579 0
M  V30 12011 H 1127.93 1.94765 3.81791 0
M  V30 12012 H 1132.11 2.90674 4.02271 0
M  V30 12013 H 1127.37 4.27685 4.36916 0
M  V30 12014 H 1131.54 5.23982 4.58711 0
M  V30 12015 H 1129.17 5.92982 4.75685 0
M  V30 12016 N 1130.75 -1.41857 0.686609 0
M  V30 12017 C 1131.99 -2.0097 0.213378 0
M  V30 12018 C 1132.32 -1.54618 -1.1882 0
M  V30 12019 O 1131.59 -0.772916 -1.80008 0
M  V30 12020 H 1130.17 -0.743134 0.0758968 0
M  V30 12021 H 1132.83 -1.73609 0.885763 0
M  V30 12022 H 1131.92 -3.11296 0.223826 0
M  V30 12023 N 1132.22 -0.430739 -1.51599 0
M  V30 12024 C 1133.47 0.137657 -2.01631 0
M  V30 12025 C 1133.79 1.43787 -1.31721 0
M  V30 12026 O 1133.06 1.90668 -0.449717 0
M  V30 12027 H 1131.64 0.0538611 -0.745056 0
M  V30 12028 H 1134.31 -0.571935 -1.86319 0
M  V30 12029 H 1133.4 0.318305 -3.10473 0
M  V30 12030 N 1133.7 1.56767 -0.161869 0
M  V30 12031 C 1134.61 2.21083 0.784814 0
M  V30 12032 C 1135.63 1.19959 1.26039 0
M  V30 12033 O 1136.8 1.52588 1.31449 0
M  V30 12034 C 1133.87 2.83153 2.00063 0
M  V30 12035 C 1132.93 3.9945 1.57285 0
M  V30 12036 C 1132.16 4.5855 2.7307 0
M  V30 12037 O 1132.39 4.16534 3.89686 0
M  V30 12038 O 1131.32 5.48575 2.47688 0
M  V30 12039 H 1135.15 3.02522 0.267243 0
M  V30 12040 H 1132.73 1.49255 0.0658783 0
M  V30 12041 H 1134.61 3.22546 2.71186 0
M  V30 12042 H 1133.29 2.04718 2.50744 0
M  V30 12043 H 1132.2 3.64745 0.831393 0
M  V30 12044 H 1133.53 4.7945 1.11304 0
M  V30 12045 N 1135.18 -0.111886 1.57202 0
M  V30 12046 C 1136.11 -1.16274 1.97517 0
M  V30 12047 C 1137.13 -1.37259 0.875425 0
M  V30 12048 O 1138.31 -1.36208 1.15367 0
M  V30 12049 C 1135.41 -2.52145 2.26442 0
M  V30 12050 C 1134.59 -2.51666 3.57747 0
M  V30 12051 C 1133.65 -3.69337 3.74802 0
M  V30 12052 O 1132.67 -3.52596 4.46839 0
M  V30 12053 N 1133.87 -4.88177 3.14108 0
M  V30 12054 H 1136.64 -0.819747 2.88271 0
M  V30 12055 H 1134.2 -0.301076 1.59076 0
M  V30 12056 H 1136.19 -3.29437 2.3506 0
M  V30 12057 H 1134.76 -2.78599 1.41779 0
M  V30 12058 H 1133.98 -1.60038 3.60252 0
M  V30 12059 H 1135.27 -2.48408 4.44039 0
M  V30 12060 H 1134.67 -5.04682 2.55564 0
M  V30 12061 H 1133.23 -5.6312 3.28237 0
M  V30 12062 N 1136.66 -1.52894 -0.382264 0
M  V30 12063 C 1137.59 -1.81122 -1.47367 0
M  V30 12064 C 1138.57 -0.663653 -1.56619 0
M  V30 12065 O 1139.75 -0.911898 -1.71459 0
M  V30 12066 C 1136.88 -1.98615 -2.84902 0
M  V30 12067 C 1135.84 -3.14328 -2.90485 0
M  V30 12068 C 1135.16 -3.17086 -4.30535 0
M  V30 12069 C 1136.46 -4.53263 -2.59519 0
M  V30 12070 H 1138.16 -2.72518 -1.23993 0
M  V30 12071 H 1135.7 -1.3113 -0.595049 0
M  V30 12072 H 1137.66 -2.16946 -3.61265 0
M  V30 12073 H 1136.38 -1.03915 -3.09628 0
M  V30 12074 H 1135.04 -2.95791 -2.16572 0
M  V30 12075 H 1134.69 -2.20055 -4.52311 0
M  V30 12076 H 1134.39 -3.94821 -4.3519 0
M  V30 12077 H 1135.91 -3.3758 -5.08795 0
M  V30 12078 H 1137.33 -4.71867 -3.25598 0
M  V30 12079 H 1135.72 -5.33115 -2.75514 0
M  V30 12080 H 1136.79 -4.59516 -1.54831 0
M  V30 12081 N 1138.14 0.641106 -1.43971 0
M  V30 12082 C 1139.38 1.40118 -1.4744 0
M  V30 12083 C 1139.74 1.92131 -0.101647 0
M  V30 12084 O 1139.03 1.70112 0.881614 0
M  V30 12085 C 1139.23 2.59092 -2.46183 0
M  V30 12086 C 1139.05 2.18725 -3.92924 0
M  V30 12087 C 1137.82 2.06475 -4.6119 0
M  V30 12088 C 1140.02 1.78255 -4.82421 0
M  V30 12089 N 1138 1.59566 -5.928 0
M  V30 12090 C 1139.38 1.42517 -6.03398 0
M  V30 12091 C 1141.43 1.65546 -4.69573 0
M  V30 12092 C 1140.13 0.953428 -7.12953 0
M  V30 12093 C 1142.16 1.19776 -5.79144 0
M  V30 12094 C 1141.52 0.84983 -6.99255 0
M  V30 12095 H 1137.62 0.507917 -0.594596 0
M  V30 12096 H 1140.2 0.736517 -1.80232 0
M  V30 12097 H 1138.38 3.232 -2.15398 0
M  V30 12098 H 1140.11 3.25847 -2.40012 0
M  V30 12099 H 1136.86 2.26615 -4.15863 0
M  V30 12100 H 1137.29 1.38438 -6.62694 0
M  V30 12101 H 1141.93 1.91081 -3.77158 0
M  V30 12102 H 1139.65 0.68558 -8.05187 0
M  V30 12103 H 1143.23 1.10415 -5.71226 0
M  V30 12104 H 1142.11 0.501081 -7.82597 0
M  V30 12105 N 1139.62 1.30703 0.880598 0
M  V30 12106 C 1140.57 1.14062 1.97418 0
M  V30 12107 C 1141.55 0.0545541 1.60807 0
M  V30 12108 O 1142.74 0.278344 1.74798 0
M  V30 12109 C 1139.87 0.839062 3.32888 0
M  V30 12110 C 1138.96 1.96559 3.75799 0
M  V30 12111 N 1139.35 3.21145 3.90768 0
M  V30 12112 C 1137.65 1.86294 4.05229 0
M  V30 12113 C 1138.35 3.94766 4.27241 0
M  V30 12114 N 1137.32 3.2285 4.37343 0
M  V30 12115 H 1141.12 2.08548 2.07087 0
M  V30 12116 H 1138.64 1.22106 1.0707 0
M  V30 12117 H 1140.64 0.700851 4.10967 0
M  V30 12118 H 1139.3 -0.0976808 3.24553 0
M  V30 12119 H 1140.31 3.56384 3.75781 0
M  V30 12120 H 1136.98 1.00016 4.05343 0
M  V30 12121 H 1138.37 5.02076 4.46508 0
M  V30 12122 N 1141.09 -1.09351 1.1349 0
M  V30 12123 C 1142.04 -2.16008 0.812981 0
M  V30 12124 C 1143.01 -1.64566 -0.225252 0
M  V30 12125 O 1144.2 -1.90552 -0.0973261 0
M  V30 12126 C 1141.34 -3.43913 0.285996 0
M  V30 12127 C 1140.45 -4.09251 1.38338 0
M  V30 12128 C 1139.58 -5.24916 0.814652 0
M  V30 12129 C 1138.62 -5.82178 1.89038 0
M  V30 12130 N 1137.76 -6.89203 1.33955 0
M  V30 12131 H 1142.6 -2.42887 1.72655 0
M  V30 12132 H 1140.14 -1.19209 0.861833 0
M  V30 12133 H 1142.09 -4.17183 -0.0376794 0
M  V30 12134 H 1140.72 -3.17349 -0.590707 0
M  V30 12135 H 1139.78 -3.33838 1.82363 0
M  V30 12136 H 1141.09 -4.4784 2.19638 0
M  V30 12137 H 1140.24 -6.05086 0.442306 0
M  V30 12138 H 1138.98 -4.87691 -0.029416 0
M  V30 12139 H 1137.99 -5.00669 2.27179 0
M  V30 12140 H 1139.21 -6.21464 2.73787 0
M  V30 12141 H 1137.16 -6.53956 0.517494 0
M  V30 12142 H 1137.07 -7.26565 2.08902 0
M  V30 12143 H 1138.34 -7.73126 0.994793 0
M  V30 12144 N 1142.57 -0.928524 -1.27343 0
M  V30 12145 C 1143.8 -0.585734 -1.98436 0
M  V30 12146 C 1144.21 0.83644 -1.69261 0
M  V30 12147 O 1143.57 1.55603 -0.953626 0
M  V30 12148 C 1143.62 -0.803092 -3.52467 0
M  V30 12149 O 1143.34 -2.16932 -3.80621 0
M  V30 12150 C 1144.84 -0.469127 -4.40811 0
M  V30 12151 H 1142.06 -0.221887 -0.633251 0
M  V30 12152 H 1144.61 -1.24577 -1.62175 0
M  V30 12153 H 1142.76 -0.189846 -3.86935 0
M  V30 12154 H 1143.18 -2.21992 -4.75205 0
M  V30 12155 H 1144.65 -0.671906 -5.47895 0
M  V30 12156 H 1145.13 0.595365 -4.35146 0
M  V30 12157 H 1145.73 -1.06055 -4.11865 0
M  V30 12158 N 1144.05 1.41491 -0.694123 0
M  V30 12159 C 1145 2.30783 -0.0278824 0
M  V30 12160 C 1145.97 1.47028 0.772783 0
M  V30 12161 O 1147.15 1.75819 0.74111 0
M  V30 12162 C 1144.29 3.33061 0.903579 0
M  V30 12163 C 1143.4 4.31896 0.0946823 0
M  V30 12164 C 1142.54 5.21243 1.02365 0
M  V30 12165 C 1141.58 6.11748 0.207578 0
M  V30 12166 N 1140.72 6.93583 1.09028 0
M  V30 12167 H 1145.56 2.87197 -0.795092 0
M  V30 12168 H 1143.09 1.41449 -0.403806 0
M  V30 12169 H 1145.05 3.90907 1.45765 0
M  V30 12170 H 1143.68 2.782 1.6372 0
M  V30 12171 H 1142.73 3.76009 -0.576289 0
M  V30 12172 H 1144.04 4.95889 -0.538059 0
M  V30 12173 H 1143.2 5.83917 1.647 0
M  V30 12174 H 1141.94 4.57473 1.69025 0
M  V30 12175 H 1140.94 5.48125 -0.428854 0
M  V30 12176 H 1142.17 6.77573 -0.455206 0
M  V30 12177 H 1140.11 6.32422 1.74292 0
M  V30 12178 H 1140.03 7.54257 0.513073 0
M  V30 12179 H 1141.3 7.60726 1.70048 0
M  V30 12180 N 1145.53 0.438773 1.51369 0
M  V30 12181 C 1146.76 -0.125847 2.06517 0
M  V30 12182 C 1147.17 -1.36336 1.30606 0
M  V30 12183 O 1146.53 -1.78792 0.36603 0
M  V30 12184 C 1146.58 -0.446619 3.5873 0
M  V30 12185 O 1146.3 0.741781 4.31775 0
M  V30 12186 C 1147.8 -1.06175 4.30397 0
M  V30 12187 H 1145.02 -0.00728868 0.67096 0
M  V30 12188 H 1147.56 0.618267 1.9493 0
M  V30 12189 H 1145.72 -1.14064 3.70227 0
M  V30 12190 H 1146.13 0.466907 5.22418 0
M  V30 12191 H 1147.61 -1.23619 5.3798 0
M  V30 12192 H 1148.08 -2.04317 3.88782 0
M  V30 12193 H 1148.69 -0.40708 4.23347 0
M  V30 12194 N 1147.01 -1.56678 0.170181 0
M  V30 12195 C 1148.25 -1.96024 -0.475147 0
M  V30 12196 C 1148.57 -1.0588 -1.64465 0
M  V30 12197 O 1149.77 -1.34901 -2.35614 0
M  V30 12198 C 1148.23 -3.4855 -0.896704 0
M  V30 12199 C 1147.84 -4.47318 0.247142 0
M  V30 12200 C 1149.58 -3.96716 -1.51052 0
M  V30 12201 C 1147.49 -5.91082 -0.193982 0
M  V30 12202 H 1146.42 -0.731883 -0.181282 0
M  V30 12203 H 1149.07 -1.81674 0.25823 0
M  V30 12204 H 1147.45 -3.58314 -1.68603 0
M  V30 12205 H 1148.63 -4.49268 1.02445 0
M  V30 12206 H 1146.94 -4.09203 0.770839 0
M  V30 12207 H 1149.54 -5.01581 -1.85258 0
M  V30 12208 H 1149.88 -3.39588 -2.40802 0
M  V30 12209 H 1150.41 -3.89965 -0.785652 0
M  V30 12210 H 1147.15 -6.5208 0.668714 0
M  V30 12211 H 1146.67 -5.92441 -0.936675 0
M  V30 12212 H 1148.35 -6.43844 -0.638237 0
M  V30 12213 N 1148.48 0.103547 -1.57259 0
M  V30 12214 C 1149.71 0.821158 -1.8958 0
M  V30 12215 C 1150.12 1.73213 -0.761184 0
M  V30 12216 O 1149.46 1.81611 0.27625 0
M  V30 12217 C 1149.53 1.69428 -3.17072 0
M  V30 12218 C 1149.19 0.956014 -4.46889 0
M  V30 12219 C 1150.19 0.289694 -5.19092 0
M  V30 12220 C 1147.87 0.932602 -4.93566 0
M  V30 12221 C 1149.87 -0.390164 -6.36205 0
M  V30 12222 C 1147.55 0.248954 -6.10593 0
M  V30 12223 C 1148.55 -0.411259 -6.81761 0
M  V30 12224 O 1148.24 -1.08396 -7.96559 0
M  V30 12225 H 1147.97 0.240508 -0.631769 0
M  V30 12226 H 1150.53 0.0877817 -2.05212 0
M  V30 12227 H 1148.76 2.46968 -2.97563 0
M  V30 12228 H 1150.44 2.28769 -3.3529 0
M  V30 12229 H 1151.21 0.299297 -4.84076 0
M  V30 12230 H 1147.09 1.43592 -4.38067 0
M  V30 12231 H 1150.63 -0.906057 -6.91691 0
M  V30 12232 H 1146.53 0.237168 -6.45064 0
M  V30 12233 H 1147.3 -0.990002 -8.12491 0
M  V30 12234 N 1149.96 1.53094 0.37415 0
M  V30 12235 C 1151.21 1.68082 1.11495 0
M  V30 12236 C 1151.52 0.434685 1.90709 0
M  V30 12237 O 1152.73 0.464956 2.67489 0
M  V30 12238 C 1151.19 2.97101 2.03124 0
M  V30 12239 C 1150.79 4.28947 1.29262 0
M  V30 12240 C 1152.54 3.21456 2.77248 0
M  V30 12241 C 1150.44 5.4906 2.19743 0
M  V30 12242 H 1149.37 0.626238 0.419931 0
M  V30 12243 H 1152.03 1.79594 0.376588 0
M  V30 12244 H 1150.41 2.79371 2.80656 0
M  V30 12245 H 1151.58 4.57279 0.568528 0
M  V30 12246 H 1149.9 4.10968 0.670362 0
M  V30 12247 H 1152.49 4.08377 3.45155 0
M  V30 12248 H 1152.84 2.37153 3.42146 0
M  V30 12249 H 1153.37 3.3982 2.06803 0
M  V30 12250 H 1150.11 6.35815 1.59437 0
M  V30 12251 H 1149.63 5.25019 2.90027 0
M  V30 12252 H 1151.31 5.83517 2.79495 0
M  V30 12253 N 1151.44 -0.633461 1.44309 0
M  V30 12254 C 1152.39 -1.74554 1.50995 0
M  V30 12255 C 1153.36 -1.62199 0.357873 0
M  V30 12256 O 1154.54 -1.82156 0.567787 0
M  V30 12257 C 1151.68 -3.12792 1.45791 0
M  V30 12258 C 1150.79 -3.3614 2.71356 0
M  V30 12259 C 1149.93 -4.64337 2.58002 0
M  V30 12260 C 1148.97 -4.80855 3.78741 0
M  V30 12261 N 1148.11 -6.00327 3.64077 0
M  V30 12262 H 1152.95 -1.68174 2.46011 0
M  V30 12263 H 1150.48 -0.820407 1.22097 0
M  V30 12264 H 1152.44 -3.92735 1.40765 0
M  V30 12265 H 1151.07 -3.18193 0.543445 0
M  V30 12266 H 1150.12 -2.50154 2.86579 0
M  V30 12267 H 1151.43 -3.44226 3.60985 0
M  V30 12268 H 1150.59 -5.52437 2.50795 0
M  V30 12269 H 1149.33 -4.58605 1.65929 0
M  V30 12270 H 1148.33 -3.91185 3.86334 0
M  V30 12271 H 1149.56 -4.88403 4.71847 0
M  V30 12272 H 1147.5 -5.9569 2.74754 0
M  V30 12273 H 1147.42 -6.09459 4.47321 0
M  V30 12274 H 1148.69 -6.90995 3.60758 0
M  V30 12275 N 1152.92 -1.31168 -0.873655 0
M  V30 12276 C 1153.87 -1.18507 -1.98052 0
M  V30 12277 C 1154.84 -0.0717583 -1.65945 0
M  V30 12278 O 1156.02 -0.243965 -1.89234 0
M  V30 12279 C 1153.16 -0.894571 -3.33304 0
M  V30 12280 C 1152.27 -2.09086 -3.7803 0
M  V30 12281 C 1151.41 -1.73747 -5.01982 0
M  V30 12282 C 1150.45 -2.89805 -5.39147 0
M  V30 12283 N 1149.58 -2.54686 -6.54278 0
M  V30 12284 H 1154.42 -2.13193 -2.08213 0
M  V30 12285 H 1151.96 -1.06056 -1.01934 0
M  V30 12286 H 1153.92 -0.706714 -4.11171 0
M  V30 12287 H 1152.55 0.0154449 -3.22796 0
M  V30 12288 H 1151.6 -2.38961 -2.95976 0
M  V30 12289 H 1152.91 -2.95963 -4.01506 0
M  V30 12290 H 1152.07 -1.51402 -5.87505 0
M  V30 12291 H 1150.81 -0.840553 -4.80402 0
M  V30 12292 H 1149.81 -3.12803 -4.52144 0
M  V30 12293 H 1151.04 -3.802 -5.62694 0
M  V30 12294 H 1148.98 -1.67513 -6.34252 0
M  V30 12295 H 1148.9 -3.35093 -6.77679 0
M  V30 12296 H 1150.17 -2.35725 -7.43003 0
M  V30 12297 N 1154.4 1.08748 -1.14068 0
M  V30 12298 C 1155.33 2.1544 -0.782199 0
M  V30 12299 C 1156.34 1.61575 0.199301 0
M  V30 12300 O 1157.53 1.78487 -0.0219044 0
M  V30 12301 C 1154.63 3.38611 -0.13983 0
M  V30 12302 C 1153.8 4.2187 -1.15518 0
M  V30 12303 C 1152.86 5.23451 -0.537216 0
M  V30 12304 O 1151.89 5.56424 -1.1992 0
M  V30 12305 N 1153.09 5.76413 0.6876 0
M  V30 12306 H 1155.86 2.46798 -1.70032 0
M  V30 12307 H 1153.42 1.24527 -1.03463 0
M  V30 12308 H 1155.41 4.03688 0.285999 0
M  V30 12309 H 1153.98 3.05084 0.681357 0
M  V30 12310 H 1153.2 3.52825 -1.75806 0
M  V30 12311 H 1154.49 4.74318 -1.84119 0
M  V30 12312 H 1153.88 5.51851 1.24406 0
M  V30 12313 H 1152.44 6.43189 1.05599 0
M  V30 12314 N 1155.87 0.935264 1.26849 0
M  V30 12315 C 1156.82 0.430895 2.28574 0
M  V30 12316 C 1157.82 -0.488739 1.62196 0
M  V30 12317 O 1159.02 -0.367605 1.76206 0
M  V30 12318 H 1155.4 0.120793 0.742235 0
M  V30 12319 H 1157.37 1.3015 2.68521 0
M  V30 12320 C 1156.12 -0.294053 3.46454 0
M  V30 12321 H 1155.44 0.404416 3.97749 0
M  V30 12322 H 1156.88 -0.611272 4.19571 0
M  V30 12323 C 1155.34 -1.50975 3.01178 0
M  V30 12324 O 1155.87 -2.60826 3.05504 0
M  V30 12325 N 1154.08 -1.36423 2.56587 0
M  V30 12326 H 1153.62 -0.470483 2.53267 0
M  V30 12327 H 1153.58 -2.17886 2.26656 0
M  V30 12328 N 1157.35 -1.41121 0.701616 0
M  V30 12329 C 1158.63 -1.9492 0.162911 0
M  V30 12330 C 1159.01 -1.64064 -1.32839 0
M  V30 12331 O 1158.36 -0.950848 -2.07777 0
M  V30 12332 C 1158.57 -3.45946 0.460673 0
M  V30 12333 C 1159.92 -4.22789 0.391706 0
M  V30 12334 O 1160.94 -3.53993 0.395931 0
M  V30 12335 O 1159.8 -5.45332 0.357071 0
M  V30 12336 H 1156.89 -0.826793 0.0185103 0
M  V30 12337 H 1159.44 -1.50805 0.778192 0
M  V30 12338 H 1158.21 -3.61711 1.49269 0
M  V30 12339 H 1157.83 -3.97168 -0.185277 0
M  V30 12340 N 1158.83 -0.446794 -1.51134 0
M  V30 12341 C 1159.78 0.374154 -2.29571 0
M  V30 12342 C 1160.77 1.01241 -1.35818 0
M  V30 12343 O 1161.98 0.946293 -1.53119 0
M  V30 12344 H 1158.35 0.13948 -0.738951 0
M  V30 12345 H 1160.32 -0.308117 -2.96805 0
M  V30 12346 C 1159.07 1.45754 -3.15675 0
M  V30 12347 H 1158.4 0.975787 -3.87709 0
M  V30 12348 H 1159.84 2.00502 -3.73597 0
M  V30 12349 C 1158.3 2.44606 -2.31667 0
M  V30 12350 O 1158.83 3.49352 -1.98284 0
M  V30 12351 N 1157.03 2.15725 -1.94708 0
M  V30 12352 H 1156.58 1.30572 -2.22056 0
M  V30 12353 H 1156.54 2.82103 -1.38798 0
M  V30 12354 N 1160.31 1.56586 -0.178487 0
M  V30 12355 C 1161.56 1.97098 0.464617 0
M  V30 12356 C 1161.88 1.06476 1.62767 0
M  V30 12357 O 1161.14 0.100337 1.95443 0
M  V30 12358 C 1161.44 3.43629 0.982552 0
M  V30 12359 C 1161.1 4.50853 -0.0653645 0
M  V30 12360 C 1159.77 4.79901 -0.353349 0
M  V30 12361 C 1162.12 5.15387 -0.776279 0
M  V30 12362 C 1159.45 5.70779 -1.35751 0
M  V30 12363 C 1161.8 6.07349 -1.76948 0
M  V30 12364 C 1160.46 6.34761 -2.06483 0
M  V30 12365 H 1159.73 0.721232 0.170016 0
M  V30 12366 H 1162.38 1.89559 -0.271959 0
M  V30 12367 H 1160.68 3.48155 1.79709 0
M  V30 12368 H 1162.38 3.7232 1.48926 0
M  V30 12369 H 1158.97 4.28266 0.169266 0
M  V30 12370 H 1163.15 4.9305 -0.567008 0
M  V30 12371 H 1158.41 5.90298 -1.59244 0
M  V30 12372 H 1162.58 6.56419 -2.32567 0
M  V30 12373 H 1160.21 7.0498 -2.84441 0
M  V30 12374 N 1161.79 -0.095206 1.57312 0
M  V30 12375 C 1162.72 -1.11627 2.05089 0
M  V30 12376 C 1163.7 -1.41782 0.939787 0
M  V30 12377 O 1164.88 -1.51813 1.21105 0
M  V30 12378 C 1162.01 -2.43618 2.47523 0
M  V30 12379 C 1160.97 -2.27872 3.62296 0
M  V30 12380 C 1160.29 -3.65038 3.90706 0
M  V30 12381 C 1161.59 -1.71936 4.93189 0
M  V30 12382 H 1163.29 -0.718795 2.90644 0
M  V30 12383 H 1160.83 -0.344315 1.39823 0
M  V30 12384 H 1162.79 -3.1532 2.79556 0
M  V30 12385 H 1161.51 -2.85301 1.58968 0
M  V30 12386 H 1160.17 -1.58615 3.3051 0
M  V30 12387 H 1159.82 -4.04249 2.99319 0
M  V30 12388 H 1159.52 -3.55349 4.67976 0
M  V30 12389 H 1161.04 -4.38208 4.25213 0
M  V30 12390 H 1162.45 -2.33479 5.23603 0
M  V30 12391 H 1160.85 -1.73006 5.74621 0
M  V30 12392 H 1161.92 -0.678789 4.80125 0
M  V30 12393 N 1163.26 -1.53291 -0.366026 0
M  V30 12394 C 1164.21 -1.79697 -1.44836 0
M  V30 12395 C 1165.18 -0.641321 -1.5322 0
M  V30 12396 O 1166.37 -0.883453 -1.69115 0
M  V30 12397 C 1163.51 -1.99223 -2.81788 0
M  V30 12398 C 1162.62 -3.26938 -2.82375 0
M  V30 12399 C 1161.75 -3.36654 -4.10898 0
M  V30 12400 C 1160.79 -4.58404 -4.05626 0
M  V30 12401 N 1159.93 -4.65275 -5.25798 0
M  V30 12402 H 1164.77 -2.72053 -1.21619 0
M  V30 12403 H 1162.31 -1.34768 -0.589577 0
M  V30 12404 H 1164.27 -2.0853 -3.61346 0
M  V30 12405 H 1162.9 -1.10204 -3.03406 0
M  V30 12406 H 1161.95 -3.26587 -1.95052 0
M  V30 12407 H 1163.26 -4.16573 -2.74351 0
M  V30 12408 H 1162.41 -3.4527 -4.98872 0
M  V30 12409 H 1161.15 -2.45035 -4.21674 0
M  V30 12410 H 1160.16 -4.49888 -3.16039 0
M  V30 12411 H 1161.38 -5.51364 -3.96453 0
M  V30 12412 H 1159.33 -3.76557 -5.3716 0
M  V30 12413 H 1159.25 -5.48814 -5.19942 0
M  V30 12414 H 1160.51 -4.78175 -6.15605 0
M  V30 12415 N 1164.74 0.6258 -1.44643 0
M  V30 12416 C 1165.69 1.75869 -1.52226 0
M  V30 12417 C 1166.68 1.64765 -0.39355 0
M  V30 12418 O 1167.89 1.70779 -0.568718 0
M  V30 12419 H 1164.27 0.580712 -0.477784 0
M  V30 12420 H 1166.24 1.66596 -2.47565 0
M  V30 12421 C 1164.99 3.14217 -1.48873 0
M  V30 12422 H 1164.31 3.23411 -2.35043 0
M  V30 12423 H 1165.75 3.93365 -1.58239 0
M  V30 12424 C 1164.21 3.36243 -0.210299 0
M  V30 12425 O 1164.74 3.95243 0.717335 0
M  V30 12426 N 1162.94 2.90385 -0.111744 0
M  V30 12427 H 1162.49 2.42555 -0.867466 0
M  V30 12428 H 1162.45 3.05498 0.742871 0
M  V30 12429 N 1166.22 1.31629 0.866686 0
M  V30 12430 C 1167.47 1.20861 1.61479 0
M  V30 12431 C 1167.78 -0.231208 1.94229 0
M  V30 12432 O 1168.99 -0.460618 2.67564 0
M  V30 12433 C 1167.44 2.11602 2.91123 0
M  V30 12434 C 1167.05 3.60598 2.65844 0
M  V30 12435 C 1168.8 2.09642 3.69121 0
M  V30 12436 C 1166.7 4.43337 3.91415 0
M  V30 12437 H 1165.63 0.448783 0.605896 0
M  V30 12438 H 1168.28 1.56507 0.958001 0
M  V30 12439 H 1166.67 1.68858 3.58194 0
M  V30 12440 H 1167.84 4.11609 2.07159 0
M  V30 12441 H 1166.16 3.64568 2.01194 0
M  V30 12442 H 1168.75 2.68701 4.62281 0
M  V30 12443 H 1169.1 1.08438 4.01929 0
M  V30 12444 H 1169.63 2.50603 3.08938 0
M  V30 12445 H 1166.37 5.45309 3.63756 0
M  V30 12446 H 1165.89 3.97083 4.49539 0
M  V30 12447 H 1167.57 4.5572 4.5927 0
M  V30 12448 N 1167.7 -1.08142 1.14644 0
M  V30 12449 C 1168.65 -2.17229 0.831513 0
M  V30 12450 C 1169.64 -1.68311 -0.19173 0
M  V30 12451 O 1170.85 -1.79937 -0.0475596 0
M  V30 12452 H 1167.22 -0.708807 0.25119 0
M  V30 12453 H 1169.19 -2.41014 1.75939 0
M  V30 12454 C 1167.94 -3.46146 0.328347 0
M  V30 12455 H 1167.27 -3.84166 1.10708 0
M  V30 12456 H 1168.71 -4.23747 0.146568 0
M  V30 12457 C 1167.16 -3.2327 -0.948594 0
M  V30 12458 O 1167.69 -3.47111 -2.0218 0
M  V30 12459 N 1165.9 -2.76799 -0.884909 0
M  V30 12460 H 1165.45 -2.57597 -0.011399 0
M  V30 12461 H 1165.41 -2.61871 -1.73985 0
M  V30 12462 N 1169.18 -0.941978 -1.26351 0
M  V30 12463 C 1170.41 -0.605868 -1.97517 0
M  V30 12464 C 1170.82 0.823583 -1.70334 0
M  V30 12465 O 1170.16 1.56085 -0.968662 0
M  V30 12466 C 1170.22 -0.769201 -3.51175 0
M  V30 12467 C 1169.88 -2.17343 -4.02009 0
M  V30 12468 C 1170.88 -3.14898 -4.13685 0
M  V30 12469 C 1168.57 -2.49422 -4.35998 0
M  V30 12470 C 1170.56 -4.42631 -4.58646 0
M  V30 12471 C 1168.25 -3.77388 -4.80647 0
M  V30 12472 C 1169.25 -4.73806 -4.91932 0
M  V30 12473 O 1168.93 -5.99493 -5.35596 0
M  V30 12474 H 1168.67 -0.227113 -0.636707 0
M  V30 12475 H 1171.22 -1.26523 -1.61806 0
M  V30 12476 H 1169.45 -0.0527104 -3.86664 0
M  V30 12477 H 1171.14 -0.436032 -4.03551 0
M  V30 12478 H 1171.9 -2.91438 -3.87671 0
M  V30 12479 H 1167.78 -1.7511 -4.26448 0
M  V30 12480 H 1171.33 -5.17892 -4.67369 0
M  V30 12481 H 1167.22 -4.0066 -5.06105 0
M  V30 12482 H 1167.99 -6.02687 -5.53815 0
M  V30 12483 N 1170.66 1.40747 -0.709091 0
M  V30 12484 C 1171.9 2.013 -0.246174 0
M  V30 12485 C 1172.23 1.56078 1.15556 0
M  V30 12486 O 1171.51 0.777941 1.78265 0
M  V30 12487 C 1171.79 3.58685 -0.318945 0
M  V30 12488 C 1171.65 4.13997 -1.75859 0
M  V30 12489 C 1172.96 4.38981 0.31358 0
M  V30 12490 H 1170.08 0.73137 -0.0909255 0
M  V30 12491 H 1172.73 1.67312 -0.900365 0
M  V30 12492 H 1170.88 3.8777 0.23805 0
M  V30 12493 H 1172.55 3.95735 -2.37047 0
M  V30 12494 H 1170.79 3.6853 -2.28841 0
M  V30 12495 H 1171.46 5.23158 -1.76095 0
M  V30 12496 H 1173.94 4.15789 -0.160939 0
M  V30 12497 H 1172.81 5.48409 0.232184 0
M  V30 12498 H 1173.07 4.19474 1.39621 0
M  V30 12499 N 1172.13 0.454803 1.50895 0
M  V30 12500 C 1173.06 -0.337982 2.31041 0
M  V30 12501 C 1174.04 -1.00523 1.37219 0
M  V30 12502 O 1175.23 -1.00553 1.66141 0
M  V30 12503 C 1172.36 -1.42964 3.1651 0
M  V30 12504 C 1171.31 -0.884907 4.18752 0
M  V30 12505 C 1170.64 -2.07363 4.92854 0
M  V30 12506 C 1171.94 0.0926716 5.22218 0
M  V30 12507 H 1173.63 0.33089 2.97566 0
M  V30 12508 H 1171.18 0.160577 1.43102 0
M  V30 12509 H 1173.13 -1.9916 3.71367 0
M  V30 12510 H 1171.86 -2.12705 2.47839 0
M  V30 12511 H 1170.52 -0.345031 3.64973 0
M  V30 12512 H 1170.16 -2.75764 4.2067 0
M  V30 12513 H 1169.86 -1.71545 5.62002 0
M  V30 12514 H 1171.39 -2.6408 5.5054 0
M  V30 12515 H 1172.8 -0.379568 5.72042 0
M  V30 12516 H 1171.2 0.3643 5.98993 0
M  V30 12517 H 1172.27 1.02383 4.73968 0
M  V30 12518 N 1173.61 -1.56489 0.186789 0
M  V30 12519 C 1174.89 -1.89066 -0.501337 0
M  V30 12520 C 1175.27 -1.09906 -1.80233 0
M  V30 12521 O 1174.62 -0.197626 -2.27644 0
M  V30 12522 C 1174.83 -3.41318 -0.728207 0
M  V30 12523 C 1176.17 -4.11379 -1.0513 0
M  V30 12524 O 1177.2 -3.46722 -0.816216 0
M  V30 12525 O 1176.06 -5.25638 -1.49557 0
M  V30 12526 H 1173.15 -0.784966 -0.260303 0
M  V30 12527 H 1175.7 -1.68183 0.226382 0
M  V30 12528 H 1174.47 -3.90834 0.19088 0
M  V30 12529 H 1174.09 -3.67865 -1.50869 0
M  V30 12530 N 1175.09 0.086862 -1.5736 0
M  V30 12531 C 1176.37 0.820984 -1.77537 0
M  V30 12532 C 1176.75 1.96534 -0.770554 0
M  V30 12533 O 1176.09 2.27629 0.199334 0
M  V30 12534 C 1176.3 1.30793 -3.23565 0
M  V30 12535 C 1177.65 1.7474 -3.86977 0
M  V30 12536 O 1178.68 1.40396 -3.27364 0
M  V30 12537 O 1177.54 2.38271 -4.91822 0
M  V30 12538 H 1174.63 0.392228 -0.72807 0
M  V30 12539 H 1177.18 0.0681051 -1.69563 0
M  V30 12540 H 1175.95 0.488409 -3.8824 0
M  V30 12541 H 1175.57 2.12258 -3.36203 0
M  V30 12542 N 1176.57 1.53483 0.357892 0
M  V30 12543 C 1177.51 1.80463 1.43881 0
M  V30 12544 C 1178.48 0.649438 1.52877 0
M  V30 12545 O 1179.67 0.892409 1.68644 0
M  V30 12546 C 1176.81 2.00714 2.80727 0
M  V30 12547 C 1175.92 3.28431 2.80637 0
M  V30 12548 C 1175.06 3.38828 4.09107 0
M  V30 12549 C 1174.1 4.60549 4.03189 0
M  V30 12550 N 1173.23 4.68057 5.23323 0
M  V30 12551 H 1178.07 2.72694 1.20174 0
M  V30 12552 H 1175.61 1.35079 0.582422 0
M  V30 12553 H 1177.57 2.10444 3.60235 0
M  V30 12554 H 1176.2 1.11811 3.02817 0
M  V30 12555 H 1175.25 3.27617 1.93317 0
M  V30 12556 H 1176.56 4.18022 2.72138 0
M  V30 12557 H 1175.72 3.47911 4.97034 0
M  V30 12558 H 1174.46 2.47267 4.20369 0
M  V30 12559 H 1173.46 4.51558 3.13649 0
M  V30 12560 H 1174.69 5.53459 3.93523 0
M  V30 12561 H 1172.63 3.794 5.35156 0
M  V30 12562 H 1172.55 5.51563 5.17024 0
M  V30 12563 H 1173.82 4.81433 6.1306 0
M  V30 12564 N 1178.05 -0.61812 1.44973 0
M  V30 12565 C 1178.98 -1.74035 1.55673 0
M  V30 12566 C 1179.96 -1.65112 0.4089 0
M  V30 12567 O 1181.14 -1.83673 0.630698 0
M  V30 12568 C 1178.27 -3.1261 1.51303 0
M  V30 12569 C 1177.23 -3.36334 2.64696 0
M  V30 12570 C 1176.55 -4.75072 2.45378 0
M  V30 12571 C 1177.85 -3.27618 4.06772 0
M  V30 12572 H 1179.55 -1.65336 2.49608 0
M  V30 12573 H 1177.09 -0.794003 1.20132 0
M  V30 12574 H 1179.04 -3.90906 1.57388 0
M  V30 12575 H 1177.77 -3.22123 0.538914 0
M  V30 12576 H 1176.43 -2.60423 2.58022 0
M  V30 12577 H 1176.08 -4.81306 1.46129 0
M  V30 12578 H 1175.78 -4.91903 3.21412 0
M  V30 12579 H 1177.3 -5.55582 2.53301 0
M  V30 12580 H 1178.71 -3.95802 4.14746 0
M  V30 12581 H 1177.11 -3.55981 4.83113 0
M  V30 12582 H 1178.18 -2.25219 4.29423 0
M  V30 12583 N 1179.52 -1.32087 -0.859693 0
M  V30 12584 C 1180.43 -1.22587 -2.00024 0
M  V30 12585 C 1181.45 -0.140477 -1.73432 0
M  V30 12586 O 1182.63 -0.360213 -1.98153 0
M  V30 12587 C 1179.69 -0.944195 -3.33595 0
M  V30 12588 C 1178.75 -2.11752 -3.73443 0
M  V30 12589 C 1177.98 -1.84919 -5.0064 0
M  V30 12590 O 1178.21 -0.789299 -5.64913 0
M  V30 12591 O 1177.14 -2.70885 -5.37499 0
M  V30 12592 H 1180.97 -2.18457 -2.10974 0
M  V30 12593 H 1178.55 -1.11927 -0.989577 0
M  V30 12594 H 1180.43 -0.803389 -4.13671 0
M  V30 12595 H 1179.11 -0.0156083 -3.23696 0
M  V30 12596 H 1178.02 -2.31378 -2.93965 0
M  V30 12597 H 1179.35 -3.02872 -3.87981 0
M  V30 12598 N 1181 1.07532 -1.15215 0
M  V30 12599 C 1181.95 2.16785 -0.843022 0
M  V30 12600 C 1182.94 1.68411 0.182802 0
M  V30 12601 O 1184.15 1.7996 0.0380164 0
M  V30 12602 H 1180.52 0.707465 -0.254945 0
M  V30 12603 H 1182.5 2.40078 -1.77215 0
M  V30 12604 C 1181.24 3.45967 -0.346699 0
M  V30 12605 H 1180.57 3.83574 -1.12744 0
M  V30 12606 H 1182.01 4.23663 -0.169039 0
M  V30 12607 C 1180.47 3.23768 0.931437 0
M  V30 12608 O 1181 3.48179 2.00336 0
M  V30 12609 N 1179.2 2.77264 0.870217 0
M  V30 12610 H 1178.75 2.576 -0.00226223 0
M  V30 12611 H 1178.71 2.6279 1.72594 0
M  V30 12612 N 1182.48 0.948665 1.2585 0
M  V30 12613 C 1183.41 0.482036 2.2847 0
M  V30 12614 C 1184.39 -0.468553 1.63519 0
M  V30 12615 O 1185.58 -0.368796 1.90666 0
M  V30 12616 C 1182.71 -0.246603 3.46423 0
M  V30 12617 C 1181.66 0.61815 4.23513 0
M  V30 12618 C 1180.99 -0.240884 5.34157 0
M  V30 12619 C 1182.29 1.89327 4.86778 0
M  V30 12620 H 1183.98 1.33973 2.67753 0
M  V30 12621 H 1181.53 0.645645 1.28715 0
M  V30 12622 H 1183.48 -0.584135 4.17332 0
M  V30 12623 H 1182.2 -1.13849 3.06114 0
M  V30 12624 H 1180.86 0.938682 3.54379 0
M  V30 12625 H 1180.51 -1.13235 4.90089 0
M  V30 12626 H 1180.21 0.334367 5.86648 0
M  V30 12627 H 1181.73 -0.573517 6.07901 0
M  V30 12628 H 1183.15 1.62252 5.49861 0
M  V30 12629 H 1181.55 2.41369 5.49419 0
M  V30 12630 H 1182.62 2.60006 4.09298 0
M  V30 12631 N 1183.96 -1.40369 0.716545 0
M  V30 12632 C 1185.21 -2.00101 0.253452 0
M  V30 12633 C 1185.52 -1.57471 -1.16027 0
M  V30 12634 O 1186.73 -2.09909 -1.72193 0
M  V30 12635 C 1185.18 -3.57645 0.402213 0
M  V30 12636 C 1184.79 -4.09248 1.82264 0
M  V30 12637 C 1186.53 -4.245 -3.88526e-05 0
M  V30 12638 C 1184.44 -5.59299 1.92193 0
M  V30 12639 H 1183.37 -0.748488 0.0910047 0
M  V30 12640 H 1186.02 -1.60595 0.887772 0
M  V30 12641 H 1184.4 -3.94857 -0.300706 0
M  V30 12642 H 1185.58 -3.83412 2.55601 0
M  V30 12643 H 1183.89 -3.54993 2.17644 0
M  V30 12644 H 1186.49 -5.34673 0.0534202 0
M  V30 12645 H 1186.83 -4.03046 -1.04208 0
M  V30 12646 H 1187.37 -3.92398 0.65336 0
M  V30 12647 H 1184.11 -5.85608 2.94522 0
M  V30 12648 H 1183.63 -5.86997 1.23268 0
M  V30 12649 H 1185.3 -6.24416 1.6945 0
M  V30 12650 N 1185.44 -0.462799 -1.50652 0
M  V30 12651 C 1186.38 0.349784 -2.29955 0
M  V30 12652 C 1187.38 0.997947 -1.36885 0
M  V30 12653 O 1188.58 0.93 -1.54114 0
M  V30 12654 H 1184.96 0.131635 -0.740389 0
M  V30 12655 H 1186.93 -0.33958 -2.96461 0
M  V30 12656 C 1185.68 1.42398 -3.17204 0
M  V30 12657 H 1185 0.934611 -3.88722 0
M  V30 12658 H 1186.44 1.96528 -3.75703 0
M  V30 12659 C 1184.9 2.42135 -2.34248 0
M  V30 12660 O 1185.43 3.47229 -2.01978 0
M  V30 12661 N 1183.64 2.13647 -1.96985 0
M  V30 12662 H 1183.18 1.28209 -2.23428 0
M  V30 12663 H 1183.14 2.80615 -1.41783 0
M  V30 12664 N 1186.91 1.56388 -0.195085 0
M  V30 12665 C 1187.86 2.20431 0.742484 0
M  V30 12666 C 1188.86 1.17548 1.21979 0
M  V30 12667 O 1190.06 1.35693 1.18269 0
M  V30 12668 H 1186.44 0.706435 0.257786 0
M  V30 12669 H 1188.41 2.97865 0.178624 0
M  V30 12670 C 1187.16 2.87772 1.95147 0
M  V30 12671 H 1186.48 3.66681 1.59326 0
M  V30 12672 H 1187.92 3.36021 2.58585 0
M  V30 12673 C 1186.38 1.88807 2.79022 0
M  V30 12674 O 1186.91 1.38836 3.76945 0
M  V30 12675 N 1185.12 1.57037 2.44515 0
M  V30 12676 H 1184.66 1.97868 1.64943 0
M  V30 12677 H 1184.62 0.910776 3.00919 0
M  V30 12678 N 1188.39 -0.0785156 1.57404 0
M  V30 12679 C 1189.64 -0.780092 1.87196 0
M  V30 12680 C 1189.97 -1.77562 0.78647 0
M  V30 12681 O 1189.25 -1.93428 -0.203935 0
M  V30 12682 C 1189.53 -1.49408 3.27642 0
M  V30 12683 C 1189.38 -0.515416 4.46837 0
M  V30 12684 C 1190.7 -2.44064 3.66225 0
M  V30 12685 H 1187.82 -0.282134 0.680859 0
M  V30 12686 H 1190.46 -0.0433926 1.8995 0
M  V30 12687 H 1188.61 -2.12205 3.25425 0
M  V30 12688 H 1190.28 0.106827 4.61176 0
M  V30 12689 H 1188.53 0.169832 4.33467 0
M  V30 12690 H 1189.2 -1.05247 5.41874 0
M  V30 12691 H 1191.67 -1.91349 3.69493 0
M  V30 12692 H 1190.55 -2.91029 4.65396 0
M  V30 12693 H 1190.81 -3.28569 2.95796 0
M  V30 12694 N 1189.87 -1.5367 -0.349747 0
M  V30 12695 C 1191.15 -1.61238 -1.10732 0
M  V30 12696 C 1191.53 -0.429756 -2.06679 0
M  V30 12697 O 1190.88 0.578564 -2.21054 0
M  V30 12698 C 1191.09 -2.97022 -1.83245 0
M  V30 12699 C 1192.43 -3.52158 -2.37212 0
M  V30 12700 O 1193.46 -2.99156 -1.9335 0
M  V30 12701 O 1192.32 -4.44853 -3.1744 0
M  V30 12702 H 1189.41 -0.65191 -0.508864 0
M  V30 12703 H 1191.96 -1.66015 -0.351738 0
M  V30 12704 H 1190.73 -3.74535 -1.13311 0
M  V30 12705 H 1190.35 -2.95808 -2.65675 0
M  V30 12706 N 1191.35 0.610423 -1.45298 0
M  V30 12707 C 1192.28 1.73207 -1.56594 0
M  V30 12708 C 1193.26 1.64893 -0.417651 0
M  V30 12709 O 1194.44 1.83336 -0.64043 0
M  V30 12710 C 1191.57 3.11803 -1.52959 0
M  V30 12711 C 1190.53 3.34925 -2.66475 0
M  V30 12712 C 1189.85 4.73764 -2.47894 0
M  V30 12713 C 1191.15 3.25456 -4.08504 0
M  V30 12714 H 1192.85 1.6401 -2.50482 0
M  V30 12715 H 1190.39 0.787621 -1.20551 0
M  V30 12716 H 1192.35 3.90065 -1.59458 0
M  V30 12717 H 1191.07 3.21833 -0.55599 0
M  V30 12718 H 1189.73 2.59051 -2.59399 0
M  V30 12719 H 1189.38 4.80524 -1.4868 0
M  V30 12720 H 1189.08 4.90191 -3.24016 0
M  V30 12721 H 1190.6 5.54231 -2.56243 0
M  V30 12722 H 1192.02 3.93597 -4.16839 0
M  V30 12723 H 1190.41 3.53414 -4.84994 0
M  V30 12724 H 1191.48 2.22939 -4.30612 0
M  V30 12725 N 1192.83 1.32541 0.852676 0
M  V30 12726 C 1193.77 1.21602 1.98282 0
M  V30 12727 C 1194.77 0.120384 1.68972 0
M  V30 12728 O 1195.97 0.283441 1.77754 0
M  V30 12729 H 1192.35 0.376994 0.650676 0
M  V30 12730 H 1194.32 2.17179 2.04636 0
M  V30 12731 C 1193.07 0.957965 3.34243 0
M  V30 12732 H 1192.39 1.79324 3.57327 0
M  V30 12733 H 1193.83 0.921673 4.13861 0
M  V30 12734 C 1192.29 -0.339271 3.35187 0
M  V30 12735 O 1192.82 -1.3505 3.78318 0
M  V30 12736 N 1191.03 -0.361944 2.88337 0
M  V30 12737 H 1190.57 0.461497 2.53432 0
M  V30 12738 H 1190.53 -1.22976 2.89352 0
M  V30 12739 N 1194.3 -1.0692 1.15784 0
M  V30 12740 C 1195.53 -1.83849 0.959903 0
M  V30 12741 C 1195.95 -1.8169 -0.486873 0
M  V30 12742 O 1195.31 -1.21305 -1.34739 0
M  V30 12743 C 1195.36 -3.28642 1.48414 0
M  V30 12744 O 1194.46 -4.0665 0.686249 0
M  V30 12745 H 1193.81 -0.569115 0.342059 0
M  V30 12746 H 1196.34 -1.34851 1.53871 0
M  V30 12747 H 1196.35 -3.7947 1.49888 0
M  V30 12748 H 1195.02 -3.29529 2.53739 0
M  V30 12749 H 1193.6 -3.65453 0.741501 0
M  V30 12750 N 1195.78 -0.955326 -1.25345 0
M  V30 12751 C 1197.03 -0.62095 -1.9369 0
M  V30 12752 C 1197.38 0.832995 -1.73433 0
M  V30 12753 O 1196.68 1.58991 -1.06922 0
M  V30 12754 C 1196.87 -0.916173 -3.45458 0
M  V30 12755 C 1196.7 -2.39726 -3.80475 0
M  V30 12756 C 1195.47 -3.05494 -4.02494 0
M  V30 12757 C 1197.67 -3.37664 -3.87927 0
M  V30 12758 N 1195.65 -4.43469 -4.2451 0
M  V30 12759 C 1197.02 -4.60949 -4.1464 0
M  V30 12760 C 1199.08 -3.32493 -3.70611 0
M  V30 12761 C 1197.78 -5.79703 -4.25837 0
M  V30 12762 C 1199.8 -4.50586 -3.83048 0
M  V30 12763 C 1199.17 -5.72657 -4.10174 0
M  V30 12764 H 1195.27 -0.277847 -0.730976 0
M  V30 12765 H 1197.85 -1.22764 -1.51119 0
M  V30 12766 H 1196.02 -0.338402 -3.86923 0
M  V30 12767 H 1197.75 -0.54163 -4.01059 0
M  V30 12768 H 1194.51 -2.56063 -3.98408 0
M  V30 12769 H 1194.93 -5.14927 -4.39522 0
M  V30 12770 H 1199.57 -2.39163 -3.48656 0
M  V30 12771 H 1197.29 -6.73473 -4.46609 0
M  V30 12772 H 1200.88 -4.48133 -3.71036 0
M  V30 12773 H 1199.76 -6.62512 -4.19581 0
M  V30 12774 N 1197.26 1.39987 -0.723979 0
M  V30 12775 C 1198.17 2.3447 -0.0780936 0
M  V30 12776 C 1199.19 1.57744 0.734368 0
M  V30 12777 O 1200.36 1.90091 0.665385 0
M  V30 12778 C 1197.43 3.36705 0.826492 0
M  V30 12779 C 1196.49 4.293 0.00303036 0
M  V30 12780 C 1195.72 5.26651 0.864535 0
M  V30 12781 O 1195.95 5.30194 2.10357 0
M  V30 12782 O 1194.88 6.01157 0.299057 0
M  V30 12783 H 1198.71 2.91338 -0.857646 0
M  V30 12784 H 1196.29 1.41324 -0.484536 0
M  V30 12785 H 1198.17 3.9938 1.34439 0
M  V30 12786 H 1196.85 2.82237 1.58505 0
M  V30 12787 H 1195.75 3.69883 -0.560136 0
M  V30 12788 H 1197.09 4.86942 -0.717494 0
M  V30 12789 N 1198.74 0.470782 1.50404 0
M  V30 12790 C 1199.65 -0.328877 2.32283 0
M  V30 12791 C 1200.67 -0.99629 1.42654 0
M  V30 12792 O 1201.84 -0.984331 1.75707 0
M  V30 12793 C 1198.91 -1.39675 3.1732 0
M  V30 12794 C 1197.97 -0.745965 4.22769 0
M  V30 12795 C 1197.2 -1.76295 5.03742 0
M  V30 12796 O 1197.42 -2.98943 4.85788 0
M  V30 12797 O 1196.36 -1.33495 5.86909 0
M  V30 12798 H 1200.18 0.340491 3.01785 0
M  V30 12799 H 1197.77 0.232637 1.47578 0
M  V30 12800 H 1199.65 -2.0153 3.70086 0
M  V30 12801 H 1198.33 -2.04959 2.50546 0
M  V30 12802 H 1197.23 -0.0884647 3.73995 0
M  V30 12803 H 1198.57 -0.136074 4.92012 0
M  V30 12804 N 1200.22 -1.56282 0.203376 0
M  V30 12805 C 1201.18 -2.18233 -0.700489 0
M  V30 12806 C 1202.18 -1.13908 -1.13497 0
M  V30 12807 O 1203.37 -1.39246 -1.04672 0
M  V30 12808 C 1200.5 -2.79107 -1.95735 0
M  V30 12809 H 1201.7 -2.99469 -0.160649 0
M  V30 12810 H 1199.25 -1.56232 -0.0462475 0
M  V30 12811 H 1199.98 -2.01691 -2.53951 0
M  V30 12812 H 1199.77 -3.55486 -1.65446 0
M  V30 12813 H 1201.26 -3.2665 -2.60172 0
M  V30 12814 N 1201.7 0.070167 -1.57444 0
M  V30 12815 C 1202.63 1.08351 -2.06839 0
M  V30 12816 C 1203.61 1.40269 -0.962224 0
M  V30 12817 O 1204.79 1.49867 -1.23505 0
M  V30 12818 C 1201.92 2.39649 -2.51368 0
M  V30 12819 C 1200.88 2.22079 -3.65875 0
M  V30 12820 C 1200.2 3.58776 -3.96464 0
M  V30 12821 C 1201.5 1.64069 -4.95862 0
M  V30 12822 H 1203.2 0.672465 -2.9175 0
M  V30 12823 H 1200.74 0.322027 -1.40353 0
M  V30 12824 H 1202.69 3.10833 -2.84537 0
M  V30 12825 H 1201.42 2.82736 -1.63487 0
M  V30 12826 H 1200.08 1.53337 -3.32992 0
M  V30 12827 H 1199.73 3.99436 -3.05712 0
M  V30 12828 H 1199.43 3.47859 -4.7357 0
M  V30 12829 H 1200.95 4.31387 -4.32131 0
M  V30 12830 H 1202.36 2.2512 -5.27251 0
M  V30 12831 H 1200.76 1.63843 -5.773 0
M  V30 12832 H 1201.83 0.60232 -4.81145 0
M  V30 12833 N 1203.17 1.53854 0.341593 0
M  V30 12834 C 1204.4 1.75447 1.10604 0
M  V30 12835 C 1204.82 0.493225 1.81518 0
M  V30 12836 O 1204.18 -0.554253 1.7262 0
M  V30 12837 C 1204.23 2.93593 2.09369 0
M  V30 12838 O 1203.33 2.63878 3.16926 0
M  V30 12839 H 1202.67 0.581923 0.319783 0
M  V30 12840 H 1205.2 2.00822 0.391388 0
M  V30 12841 H 1205.21 3.20437 2.52556 0
M  V30 12842 H 1203.89 3.85067 1.57151 0
M  V30 12843 H 1202.47 2.47929 2.78542 0
M  V30 12844 N 1204.65 -0.602709 1.4562 0
M  V30 12845 C 1205.9 -1.35769 1.49163 0
M  V30 12846 C 1206.21 -1.95102 0.139485 0
M  V30 12847 O 1207.42 -2.71449 0.0525919 0
M  V30 12848 C 1205.88 -2.45959 2.62739 0
M  V30 12849 C 1205.48 -1.93017 4.04288 0
M  V30 12850 C 1207.23 -3.22926 2.75534 0
M  V30 12851 C 1205.13 -3.00718 5.09237 0
M  V30 12852 H 1204.06 -0.510317 0.555061 0
M  V30 12853 H 1206.72 -0.645434 1.71774 0
M  V30 12854 H 1205.1 -3.19892 2.3342 0
M  V30 12855 H 1206.27 -1.2576 4.43307 0
M  V30 12856 H 1204.59 -1.2878 3.95986 0
M  V30 12857 H 1207.18 -4.03267 3.51112 0
M  V30 12858 H 1207.53 -3.74243 1.82339 0
M  V30 12859 H 1208.06 -2.56095 3.04402 0
M  V30 12860 H 1204.8 -2.54312 6.04157 0
M  V30 12861 H 1204.32 -3.66526 4.74783 0
M  V30 12862 H 1206 -3.65016 5.34202 0
M  V30 12863 N 1206.13 -1.32992 -0.845635 0
M  V30 12864 C 1207.06 -1.25301 -1.97033 0
M  V30 12865 C 1208.04 -0.134966 -1.69564 0
M  V30 12866 O 1209.23 -0.323629 -1.91484 0
M  V30 12867 C 1206.36 -0.984551 -3.33052 0
M  V30 12868 C 1205.31 -2.06481 -3.749 0
M  V30 12869 C 1204.64 -1.6486 -5.08651 0
M  V30 12870 C 1205.94 -3.48083 -3.89404 0
M  V30 12871 H 1207.63 -2.194 -2.03725 0
M  V30 12872 H 1205.18 -1.05621 -0.978783 0
M  V30 12873 H 1207.13 -0.917269 -4.11296 0
M  V30 12874 H 1205.85 -0.00793116 -3.26599 0
M  V30 12875 H 1204.51 -2.1224 -2.98915 0
M  V30 12876 H 1204.16 -0.659183 -4.98662 0
M  V30 12877 H 1203.86 -2.37145 -5.37621 0
M  V30 12878 H 1205.38 -1.59585 -5.89377 0
M  V30 12879 H 1206.8 -3.44863 -4.57976 0
M  V30 12880 H 1205.19 -4.18796 -4.29802 0
M  V30 12881 H 1206.26 -3.87084 -2.92051 0
M  V30 12882 N 1207.61 1.06304 -1.1635 0
M  V30 12883 C 1208.85 1.80686 -0.955614 0
M  V30 12884 C 1209.21 1.85171 0.507525 0
M  V30 12885 O 1210.41 2.55531 0.834103 0
M  V30 12886 C 1208.68 3.21276 -1.56577 0
M  V30 12887 S 1210.24 4.12274 -1.50251 0
M  V30 12888 H 1207.06 0.622426 -0.343666 0
M  V30 12889 H 1209.66 1.27628 -1.48092 0
M  V30 12890 H 1208.37 3.15607 -2.62336 0
M  V30 12891 H 1207.9 3.7941 -1.03978 0
M  V30 12892 H 1209.91 4.93647 -0.502703 0
M  V30 12893 N 1209.09 0.96196 1.24836 0
M  V30 12894 C 1210.31 0.63814 1.96813 0
M  V30 12895 C 1210.73 -0.79127 1.71419 0
M  V30 12896 O 1210.09 -1.5302 0.994546 0
M  V30 12897 C 1210.14 0.89626 3.50213 0
M  V30 12898 O 1209.86 2.26947 3.74735 0
M  V30 12899 C 1211.36 0.585836 4.39412 0
M  V30 12900 H 1208.58 0.238598 0.627146 0
M  V30 12901 H 1211.12 1.28833 1.58815 0
M  V30 12902 H 1209.28 0.292368 3.86295 0
M  V30 12903 H 1209.69 2.34514 4.69152 0
M  V30 12904 H 1211.17 0.816935 5.45921 0
M  V30 12905 H 1211.64 -0.479784 4.36572 0
M  V30 12906 H 1212.25 1.16938 4.08908 0
M  V30 12907 N 1210.56 -1.39601 0.731392 0
M  V30 12908 C 1211.79 -2.0459 0.287472 0
M  V30 12909 C 1212.2 -1.5525 -1.08139 0
M  V30 12910 O 1211.54 -0.710949 -1.69385 0
M  V30 12911 C 1211.61 -3.58904 0.206948 0
M  V30 12912 C 1211.27 -4.31204 1.51368 0
M  V30 12913 C 1212.27 -4.58088 2.45869 0
M  V30 12914 C 1209.95 -4.69818 1.77698 0
M  V30 12915 C 1211.95 -5.22591 3.64935 0
M  V30 12916 C 1209.63 -5.34049 2.97043 0
M  V30 12917 C 1210.63 -5.60368 3.90483 0
M  V30 12918 O 1210.32 -6.23268 5.07732 0
M  V30 12919 H 1210.05 -0.664515 0.12408 0
M  V30 12920 H 1212.61 -1.79701 0.994814 0
M  V30 12921 H 1210.84 -3.82675 -0.556466 0
M  V30 12922 H 1212.52 -4.05385 -0.204498 0
M  V30 12923 H 1213.29 -4.28706 2.26796 0
M  V30 12924 H 1209.17 -4.48692 1.05815 0
M  V30 12925 H 1212.71 -5.43049 4.37885 0
M  V30 12926 H 1208.61 -5.62852 3.16018 0
M  V30 12927 H 1209.38 -6.41763 5.08019 0
M  V30 12928 N 1212.04 -0.478751 -1.50152 0
M  V30 12929 C 1213.01 0.300181 -2.27226 0
M  V30 12930 C 1214.01 0.913705 -1.32318 0
M  V30 12931 O 1215.2 0.781692 -1.55677 0
M  V30 12932 C 1212.33 1.42838 -3.09532 0
M  V30 12933 H 1213.52 -0.375845 -2.97536 0
M  V30 12934 H 1211.07 -0.233037 -1.54553 0
M  V30 12935 H 1211.81 2.13923 -2.43737 0
M  V30 12936 H 1211.59 0.994161 -3.79287 0
M  V30 12937 H 1213.08 1.97765 -3.67802 0
M  V30 12938 N 1213.52 1.56172 -0.211661 0
M  V30 12939 C 1214.77 1.97214 0.423008 0
M  V30 12940 C 1215.08 1.10203 1.616 0
M  V30 12941 O 1216.29 1.411 2.31955 0
M  V30 12942 C 1214.74 3.50805 0.803977 0
M  V30 12943 C 1214.35 4.46505 -0.365654 0
M  V30 12944 C 1216.1 4.00582 1.4048 0
M  V30 12945 C 1214 5.91388 0.0371986 0
M  V30 12946 H 1212.93 0.736432 0.161814 0
M  V30 12947 H 1215.58 1.80925 -0.306307 0
M  V30 12948 H 1213.97 3.62659 1.59043 0
M  V30 12949 H 1215.14 4.46394 -1.14321 0
M  V30 12950 H 1213.46 4.07015 -0.879061 0
M  V30 12951 H 1216.05 5.06317 1.71894 0
M  V30 12952 H 1216.4 3.45853 2.31713 0
M  V30 12953 H 1216.93 3.9191 0.681984 0
M  V30 12954 H 1213.67 6.50078 -0.841367 0
M  V30 12955 H 1213.19 5.94716 0.77927 0
M  V30 12956 H 1214.87 6.4531 0.467309 0
M  V30 12957 N 1215 -0.0618163 1.57479 0
M  V30 12958 C 1215.95 -1.09105 2.05424 0
M  V30 12959 C 1216.94 -1.3947 0.961479 0
M  V30 12960 O 1218.15 -1.3876 1.14655 0
M  V30 12961 H 1214.52 -0.36923 0.655113 0
M  V30 12962 H 1216.49 -0.66061 2.90996 0
M  V30 12963 C 1215.24 -2.39345 2.52209 0
M  V30 12964 H 1214.56 -2.16832 3.35893 0
M  V30 12965 H 1216 -3.09784 2.89499 0
M  V30 12966 C 1214.46 -3.06011 1.40922 0
M  V30 12967 O 1214.99 -3.94504 0.756921 0
M  V30 12968 N 1213.2 -2.66797 1.15186 0
M  V30 12969 H 1212.75 -1.94923 1.68412 0
M  V30 12970 H 1212.7 -3.11724 0.409324 0
M  V30 12971 N 1216.48 -1.54033 -0.333429 0
M  V30 12972 C 1217.42 -1.83441 -1.43011 0
M  V30 12973 C 1218.42 -0.705592 -1.54006 0
M  V30 12974 O 1219.62 -0.889098 -1.56509 0
M  V30 12975 H 1216 -0.581326 -0.477037 0
M  V30 12976 H 1217.97 -2.75172 -1.15426 0
M  V30 12977 C 1216.72 -2.0698 -2.79382 0
M  V30 12978 H 1216.04 -2.93297 -2.71692 0
M  V30 12979 H 1217.48 -2.31517 -3.55212 0
M  V30 12980 C 1215.94 -0.85835 -3.25782 0
M  V30 12981 O 1216.47 -0.062739 -4.01651 0
M  V30 12982 N 1214.68 -0.672738 -2.82706 0
M  V30 12983 H 1214.22 -1.32136 -2.21128 0
M  V30 12984 H 1214.18 0.136347 -3.14104 0
M  V30 12985 N 1217.95 0.594978 -1.45938 0
M  V30 12986 C 1219.37 1.17703 -1.44924 0
M  V30 12987 C 1219.72 1.9534 -0.183522 0
M  V30 12988 O 1218.84 2.04276 0.714163 0
M  V30 12989 C 1219.44 2.14119 -2.62561 0
M  V30 12990 C 1218 2.67674 -2.64627 0
M  V30 12991 C 1217.14 1.43312 -2.37397 0
M  V30 12992 H 1220.09 0.383583 -1.53995 0
M  V30 12993 H 1220.11 2.97374 -2.3738 0
M  V30 12994 H 1219.63 1.57586 -3.54667 0
M  V30 12995 H 1217.73 3.28111 -1.76562 0
M  V30 12996 H 1217.84 3.11246 -3.64229 0
M  V30 12997 H 1216.2 1.72702 -1.87206 0
M  V30 12998 H 1216.99 0.886276 -3.31663 0
M  V30 12999 N 1219.43 1.33438 0.838571 0
M  V30 13000 C 1220.38 1.23698 1.96981 0
M  V30 13001 C 1221.37 0.138299 1.68835 0
M  V30 13002 O 1222.58 0.302278 1.77444 0
M  V30 13003 H 1218.96 0.383874 0.646641 0
M  V30 13004 H 1220.93 2.19337 2.02321 0
M  V30 13005 C 1219.68 0.993362 3.33208 0
M  V30 13006 H 1219 1.83104 3.55405 0
M  V30 13007 H 1220.44 0.965517 4.1286 0
M  V30 13008 C 1218.9 -0.303701 3.35528 0
M  V30 13009 O 1219.43 -1.3103 3.79729 0
M  V30 13010 N 1217.63 -0.331342 2.88705 0
M  V30 13011 H 1217.18 0.488351 2.52929 0
M  V30 13012 H 1217.14 -1.199 2.9064 0
M  V30 13013 N 1220.91 -1.05686 1.16912 0
M  V30 13014 C 1222.16 -1.78597 0.954425 0
M  V30 13015 C 1222.49 -1.87494 -0.517315 0
M  V30 13016 O 1221.74 -1.36736 -1.40006 0
M  V30 13017 C 1222.04 -3.22779 1.53455 0
M  V30 13018 C 1221.71 -3.3395 3.02965 0
M  V30 13019 C 1220.37 -3.36706 3.43777 0
M  V30 13020 C 1222.72 -3.35371 3.98969 0
M  V30 13021 C 1220.05 -3.38506 4.79198 0
M  V30 13022 C 1222.4 -3.38708 5.34284 0
M  V30 13023 C 1221.06 -3.39749 5.74567 0
M  V30 13024 H 1220.33 -0.653534 0.349249 0
M  V30 13025 H 1222.98 -1.24245 1.45723 0
M  V30 13026 H 1221.29 -3.80025 0.953331 0
M  V30 13027 H 1222.98 -3.77805 1.34404 0
M  V30 13028 H 1219.57 -3.32515 2.70429 0
M  V30 13029 H 1223.76 -3.32447 3.685 0
M  V30 13030 H 1219.01 -3.37619 5.09729 0
M  V30 13031 H 1223.19 -3.38755 6.08455 0
M  V30 13032 H 1220.81 -3.40897 6.7948 0
M  V30 13033 N 1222.39 -0.968567 -1.24324 0
M  V30 13034 C 1223.34 -0.491346 -2.27351 0
M  V30 13035 C 1224.33 0.445563 -1.63435 0
M  V30 13036 O 1225.54 0.320758 -1.77119 0
M  V30 13037 H 1221.91 -0.14043 -0.738772 0
M  V30 13038 H 1223.88 -1.37224 -2.64976 0
M  V30 13039 C 1222.63 0.202093 -3.47112 0
M  V30 13040 H 1221.95 -0.50973 -3.96537 0
M  V30 13041 H 1223.39 0.499815 -4.21044 0
M  V30 13042 C 1221.85 1.42937 -3.05075 0
M  V30 13043 O 1222.38 2.52635 -3.12312 0
M  V30 13044 N 1220.59 1.29572 -2.60114 0
M  V30 13045 H 1220.14 0.403169 -2.54425 0
M  V30 13046 H 1220.09 2.118 -2.32353 0
M  V30 13047 N 1223.87 1.39211 -0.738786 0
M  V30 13048 C 1225.09 2.05256 -0.297421 0
M  V30 13049 C 1225.52 1.55341 1.06069 0
M  V30 13050 O 1224.87 0.698823 1.67291 0
M  V30 13051 C 1224.92 3.59239 -0.312969 0
M  V30 13052 O 1224.03 4.06448 0.698112 0
M  V30 13053 H 1223.37 0.650245 -0.134454 0
M  V30 13054 H 1225.9 1.78173 -1.00577 0
M  V30 13055 H 1225.91 4.07691 -0.158675 0
M  V30 13056 H 1224.58 3.94931 -1.30394 0
M  V30 13057 H 1223.16 3.69401 0.509643 0
M  V30 13058 N 1225.34 0.486708 1.49896 0
M  V30 13059 C 1226.27 -0.288898 2.31706 0
M  V30 13060 C 1227.26 -0.975901 1.3932 0
M  V30 13061 O 1228.44 -0.970065 1.68236 0
M  V30 13062 C 1225.57 -1.36218 3.19471 0
M  V30 13063 C 1224.52 -0.795884 4.20535 0
M  V30 13064 C 1223.85 -1.96862 4.97141 0
M  V30 13065 C 1225.15 0.203421 5.21904 0
M  V30 13066 H 1226.84 0.393934 2.96797 0
M  V30 13067 H 1224.39 0.190894 1.42729 0
M  V30 13068 H 1226.34 -1.91238 3.75508 0
M  V30 13069 H 1225.07 -2.074 2.52295 0
M  V30 13070 H 1223.73 -0.267538 3.65622 0
M  V30 13071 H 1223.37 -2.66779 4.26425 0
M  V30 13072 H 1223.07 -1.59585 5.65514 0
M  V30 13073 H 1224.6 -2.52343 5.56017 0
M  V30 13074 H 1226.01 -0.258144 5.72719 0
M  V30 13075 H 1224.41 0.491273 5.98086 0
M  V30 13076 H 1225.48 1.12414 4.7169 0
M  V30 13077 N 1226.82 -1.56058 0.219941 0
M  V30 13078 C 1228.06 -2.00162 -0.414063 0
M  V30 13079 C 1228.43 -1.10432 -1.57063 0
M  V30 13080 O 1229.63 -1.43877 -2.27053 0
M  V30 13081 C 1227.9 -3.47411 -0.839084 0
M  V30 13082 S 1229.46 -4.13536 -1.46742 0
M  V30 13083 H 1226.28 -0.698738 -0.131475 0
M  V30 13084 H 1228.88 -1.92714 0.32885 0
M  V30 13085 H 1227.58 -4.10398 0.0123666 0
M  V30 13086 H 1227.11 -3.58728 -1.61485 0
M  V30 13087 H 1229.13 -4.12592 -2.75648 0
M  V30 13088 N 1228.3 0.053464 -1.57509 0
M  V30 13089 C 1229.21 1.07902 -2.08313 0
M  V30 13090 C 1230.23 1.41223 -1.01647 0
M  V30 13091 O 1231.4 1.51032 -1.33233 0
M  V30 13092 C 1228.47 2.36813 -2.5322 0
M  V30 13093 C 1227.53 2.10297 -3.74264 0
M  V30 13094 C 1226.76 3.33062 -4.1702 0
M  V30 13095 O 1226.99 4.42857 -3.59491 0
M  V30 13096 O 1225.92 3.20195 -5.09665 0
M  V30 13097 H 1229.75 0.677368 -2.9605 0
M  V30 13098 H 1227.33 0.268838 -1.46961 0
M  V30 13099 H 1229.21 3.12645 -2.82544 0
M  V30 13100 H 1227.89 2.76323 -1.68605 0
M  V30 13101 H 1226.79 1.32111 -3.49996 0
M  V30 13102 H 1228.13 1.75658 -4.59788 0
M  V30 13103 N 1229.78 1.54207 0.325255 0
M  V30 13104 C 1230.71 1.78318 1.42401 0
M  V30 13105 C 1231.69 0.633078 1.49769 0
M  V30 13106 O 1232.87 0.870324 1.67205 0
M  V30 13107 C 1230 1.89823 2.80509 0
M  V30 13108 C 1229.05 3.12102 2.9068 0
M  V30 13109 S 1229.88 4.70746 2.55262 0
M  V30 13110 C 1231.04 4.85154 3.95444 0
M  V30 13111 H 1231.27 2.71234 1.21736 0
M  V30 13112 H 1228.8 1.45309 0.521993 0
M  V30 13113 H 1230.76 1.97136 3.60066 0
M  V30 13114 H 1229.42 0.978873 2.98458 0
M  V30 13115 H 1228.61 3.16881 3.91921 0
M  V30 13116 H 1228.22 3.03109 2.19091 0
M  V30 13117 H 1230.51 4.67687 4.90178 0
M  V30 13118 H 1231.45 5.87254 3.95649 0
M  V30 13119 H 1231.86 4.13471 3.8432 0
M  V30 13120 N 1231.26 -0.58723 1.46251 0
M  V30 13121 C 1232.19 -1.70694 1.5933 0
M  V30 13122 C 1233.17 -1.64208 0.443831 0
M  V30 13123 O 1234.35 -1.82294 0.669516 0
M  V30 13124 C 1231.48 -3.0933 1.579 0
M  V30 13125 C 1230.44 -3.30643 2.7177 0
M  V30 13126 C 1229.76 -4.69761 2.554 0
M  V30 13127 C 1231.06 -3.18916 4.1363 0
M  V30 13128 H 1232.76 -1.60004 2.53059 0
M  V30 13129 H 1230.3 -0.768343 1.21789 0
M  V30 13130 H 1232.26 -3.87479 1.65644 0
M  V30 13131 H 1230.98 -3.20907 0.60712 0
M  V30 13132 H 1229.64 -2.54892 2.63488 0
M  V30 13133 H 1229.29 -4.78098 1.56306 0
M  V30 13134 H 1228.99 -4.84974 3.31774 0
M  V30 13135 H 1230.51 -5.50084 2.65028 0
M  V30 13136 H 1231.93 -3.86915 4.23048 0
M  V30 13137 H 1230.32 -3.45653 4.90555 0
M  V30 13138 H 1231.39 -2.1606 4.34104 0
M  V30 13139 N 1232.74 -1.33881 -0.831482 0
M  V30 13140 C 1233.7 -1.24654 -1.92339 0
M  V30 13141 C 1234.7 -0.163788 -1.59964 0
M  V30 13142 O 1235.89 -0.415829 -1.69164 0
M  V30 13143 C 1233.02 -0.922537 -3.2818 0
M  V30 13144 H 1234.21 -2.21717 -2.01944 0
M  V30 13145 H 1231.77 -1.18046 -1.02445 0
M  V30 13146 H 1232.5 0.0452872 -3.24268 0
M  V30 13147 H 1232.29 -1.70562 -3.53059 0
M  V30 13148 H 1233.78 -0.88292 -4.0816 0
M  V30 13149 N 1234.21 1.05064 -1.1747 0
M  V30 13150 C 1235.16 2.12841 -0.89259 0
M  V30 13151 C 1236.13 1.65288 0.16402 0
M  V30 13152 O 1237.32 1.90782 0.026537 0
M  V30 13153 C 1234.46 3.42614 -0.41344 0
M  V30 13154 C 1233.57 4.03835 -1.53432 0
M  V30 13155 C 1232.7 5.21531 -1.00891 0
M  V30 13156 C 1231.74 5.74761 -2.10515 0
M  V30 13157 N 1230.88 6.83756 -1.59442 0
M  V30 13158 H 1235.72 2.36312 -1.81551 0
M  V30 13159 H 1233.26 1.15929 -0.905483 0
M  V30 13160 H 1235.21 4.17035 -0.117181 0
M  V30 13161 H 1233.84 3.19323 0.472517 0
M  V30 13162 H 1232.9 3.2684 -1.94627 0
M  V30 13163 H 1234.21 4.3938 -2.36108 0
M  V30 13164 H 1233.36 6.03027 -0.666575 0
M  V30 13165 H 1232.1 4.87464 -0.151608 0
M  V30 13166 H 1231.11 4.91893 -2.45604 0
M  V30 13167 H 1232.33 6.10875 -2.96663 0
M  V30 13168 H 1230.28 6.51584 -0.759849 0
M  V30 13169 H 1230.19 7.18311 -2.35724 0
M  V30 13170 H 1231.46 7.68901 -1.28105 0
M  V30 13171 N 1235.69 0.975146 1.23809 0
M  V30 13172 C 1237.11 0.682899 1.44252 0
M  V30 13173 C 1237.31 -0.752739 1.86912 0
M  V30 13174 O 1236.36 -1.52579 2.01186 0
M  V30 13175 C 1237.68 1.67335 2.49839 0
M  V30 13176 C 1239.22 1.6868 2.63659 0
M  V30 13177 C 1239.7 2.66542 3.72451 0
M  V30 13178 N 1241.19 2.65028 3.79887 0
M  V30 13179 C 1241.93 3.37421 4.63611 0
M  V30 13180 N 1241.42 4.19355 5.51465 0
M  V30 13181 N 1243.21 3.2621 4.57759 0
M  V30 13182 H 1235.37 1.9026 0.94418 0
M  V30 13183 H 1237.63 0.819543 0.476502 0
M  V30 13184 H 1237.33 2.69978 2.25399 0
M  V30 13185 H 1237.21 1.45201 3.48133 0
M  V30 13186 H 1239.6 0.667438 2.87453 0
M  V30 13187 H 1239.68 1.94878 1.65699 0
M  V30 13188 H 1239.32 3.68617 3.49405 0
M  V30 13189 H 1239.25 2.3762 4.69941 0
M  V30 13190 H 1241.74 2.05562 3.171 0
M  V30 13191 H 1242.05 4.71461 6.12327 0
M  V30 13192 H 1240.4 4.23447 5.51106 0
M  V30 13193 H 1243.59 2.61656 3.88142 0
M  V30 13194 H 1243.76 3.82889 5.22781 0
M  V30 13195 N 1237.17 -1.38817 0.746158 0
M  V30 13196 C 1238.1 -2.33144 0.128836 0
M  V30 13197 C 1239.08 -1.54487 -0.711873 0
M  V30 13198 O 1240.27 -1.82836 -0.654577 0
M  V30 13199 C 1237.4 -3.38639 -0.770772 0
M  V30 13200 C 1236.35 -4.27987 -0.0333669 0
M  V30 13201 C 1235.68 -5.24274 -1.05073 0
M  V30 13202 C 1236.98 -5.09915 1.13066 0
M  V30 13203 H 1238.67 -2.85019 0.916778 0
M  V30 13204 H 1236.22 -1.37039 0.442306 0
M  V30 13205 H 1238.17 -4.03587 -1.21225 0
M  V30 13206 H 1236.89 -2.8523 -1.59095 0
M  V30 13207 H 1235.55 -3.64534 0.388612 0
M  V30 13208 H 1235.2 -4.67156 -1.86478 0
M  V30 13209 H 1234.9 -5.84906 -0.562037 0
M  V30 13210 H 1236.42 -5.92099 -1.49169 0
M  V30 13211 H 1237.84 -5.68145 0.767084 0
M  V30 13212 H 1236.23 -5.79744 1.54972 0
M  V30 13213 H 1237.3 -4.4409 1.94709 0
M  V30 13214 N 1238.65 -0.49465 -1.49636 0
M  V30 13215 C 1239.58 0.323781 -2.26902 0
M  V30 13216 C 1240.59 0.936281 -1.33183 0
M  V30 13217 O 1241.78 0.820695 -1.58514 0
M  V30 13218 C 1238.88 1.47025 -3.05347 0
M  V30 13219 C 1238.05 0.966228 -4.26594 0
M  V30 13220 C 1237.11 1.98955 -4.87138 0
M  V30 13221 O 1236.14 1.56065 -5.47387 0
M  V30 13222 N 1237.34 3.3195 -4.76224 0
M  V30 13223 H 1240.11 -0.338716 -2.9778 0
M  V30 13224 H 1237.67 -0.326817 -1.58567 0
M  V30 13225 H 1239.66 2.15225 -3.42725 0
M  V30 13226 H 1238.23 2.03702 -2.37117 0
M  V30 13227 H 1237.45 0.109336 -3.94048 0
M  V30 13228 H 1238.74 0.607781 -5.05157 0
M  V30 13229 H 1238.14 3.69488 -4.28363 0
M  V30 13230 H 1236.69 3.95881 -5.17805 0
M  V30 13231 N 1240.13 1.55939 -0.228214 0
M  V30 13232 C 1241.07 2.21957 0.69556 0
M  V30 13233 C 1242.07 1.20109 1.19458 0
M  V30 13234 O 1243.27 1.38171 1.15364 0
M  V30 13235 H 1239.65 0.711744 0.242744 0
M  V30 13236 H 1241.62 2.98177 0.115403 0
M  V30 13237 C 1240.37 2.91847 1.88999 0
M  V30 13238 H 1239.69 3.69978 1.51512 0
M  V30 13239 H 1241.13 3.4143 2.51399 0
M  V30 13240 C 1239.59 1.94683 2.74954 0
M  V30 13241 O 1240.12 1.468 3.73915 0
M  V30 13242 N 1238.33 1.62188 2.41129 0
M  V30 13243 H 1237.87 2.01322 1.60709 0
M  V30 13244 H 1237.83 0.9744 2.98919 0
M  V30 13245 N 1241.6 -0.0451101 1.57535 0
M  V30 13246 C 1242.51 -1.06796 2.08882 0
M  V30 13247 C 1243.53 -1.40682 1.02394 0
M  V30 13248 O 1244.71 -1.50324 1.34033 0
M  V30 13249 C 1241.77 -2.35467 2.54472 0
M  V30 13250 C 1240.83 -2.0831 3.75374 0
M  V30 13251 C 1240.07 -3.30846 4.1878 0
M  V30 13252 O 1240.29 -4.40945 3.61834 0
M  V30 13253 O 1239.22 -3.17488 5.11356 0
M  V30 13254 H 1243.05 -0.661658 2.96405 0
M  V30 13255 H 1240.63 -0.26104 1.47102 0
M  V30 13256 H 1242.52 -3.11143 2.84198 0
M  V30 13257 H 1241.19 -2.75425 1.70068 0
M  V30 13258 H 1240.1 -1.30254 3.50692 0
M  V30 13259 H 1241.43 -1.73218 4.60713 0
M  V30 13260 N 1243.08 -1.54377 -0.317073 0
M  V30 13261 C 1244.03 -1.84214 -1.39046 0
M  V30 13262 C 1245 -0.689742 -1.51102 0
M  V30 13263 O 1246.18 -0.936809 -1.66218 0
M  V30 13264 C 1243.32 -2.08087 -2.75307 0
M  V30 13265 C 1242.44 -3.35756 -2.7183 0
M  V30 13266 C 1241.57 -3.49556 -3.9998 0
M  V30 13267 C 1240.61 -4.71076 -3.90837 0
M  V30 13268 N 1239.75 -4.81767 -5.10729 0
M  V30 13269 H 1244.59 -2.75785 -1.12902 0
M  V30 13270 H 1242.13 -1.36575 -0.546404 0
M  V30 13271 H 1244.08 -2.19921 -3.54529 0
M  V30 13272 H 1242.71 -1.19801 -2.99746 0
M  V30 13273 H 1241.77 -3.32627 -1.84563 0
M  V30 13274 H 1243.08 -4.2509 -2.60959 0
M  V30 13275 H 1242.23 -3.60967 -4.87635 0
M  V30 13276 H 1240.97 -2.58326 -4.13665 0
M  V30 13277 H 1239.98 -4.59715 -3.01566 0
M  V30 13278 H 1241.2 -5.63698 -3.78711 0
M  V30 13279 H 1239.15 -3.93455 -5.24908 0
M  V30 13280 H 1239.06 -5.65077 -5.02219 0
M  V30 13281 H 1240.33 -4.97517 -6.00081 0
M  V30 13282 N 1244.56 0.579466 -1.4656 0
M  V30 13283 C 1245.81 1.33756 -1.52038 0
M  V30 13284 C 1246.14 1.93725 -0.173423 0
M  V30 13285 O 1245.39 1.77167 0.831293 0
M  V30 13286 C 1245.69 2.48417 -2.56951 0
M  V30 13287 C 1245.36 2.0642 -4.00876 0
M  V30 13288 C 1244.02 1.94682 -4.4006 0
M  V30 13289 C 1246.37 1.74066 -4.91274 0
M  V30 13290 C 1243.7 1.48852 -5.67503 0
M  V30 13291 C 1246.05 1.29714 -6.19158 0
M  V30 13292 C 1244.71 1.16555 -6.57245 0
M  V30 13293 H 1243.98 0.489447 -0.556347 0
M  V30 13294 H 1246.63 0.652176 -1.80053 0
M  V30 13295 H 1244.94 3.22416 -2.2261 0
M  V30 13296 H 1246.63 3.06629 -2.58418 0
M  V30 13297 H 1243.22 2.16492 -3.69904 0
M  V30 13298 H 1247.41 1.82019 -4.61717 0
M  V30 13299 H 1242.66 1.3731 -5.95782 0
M  V30 13300 H 1246.84 1.03734 -6.88631 0
M  V30 13301 H 1244.46 0.808193 -7.55892 0
M  V30 13302 N 1246.04 1.3432 0.824371 0
M  V30 13303 C 1247.32 1.17178 1.56616 0
M  V30 13304 C 1247.7 -0.256195 2.0954 0
M  V30 13305 O 1247.04 -1.25732 1.90798 0
M  V30 13306 C 1247.25 2.22511 2.68867 0
M  V30 13307 C 1248.6 2.57414 3.37673 0
M  V30 13308 O 1249.63 2.2129 2.79122 0
M  V30 13309 O 1248.48 3.19462 4.43403 0
M  V30 13310 H 1245.58 0.454141 0.691147 0
M  V30 13311 H 1248.12 1.45948 0.865869 0
M  V30 13312 H 1246.9 3.18366 2.27505 0
M  V30 13313 H 1246.52 1.9491 3.46548 0
M  V30 13314 N 1247.52 -1.0444 1.18026 0
M  V30 13315 C 1248.77 -1.7697 0.9677 0
M  V30 13316 C 1249.08 -1.88995 -0.503994 0
M  V30 13317 O 1250.28 -2.58342 -0.834968 0
M  V30 13318 C 1248.74 -3.1816 1.68232 0
M  V30 13319 C 1248.35 -3.14241 3.19307 0
M  V30 13320 C 1250.09 -3.95095 1.55244 0
M  V30 13321 C 1248 -4.50266 3.83425 0
M  V30 13322 H 1246.93 -0.663355 0.358436 0
M  V30 13323 H 1249.58 -1.17003 1.4136 0
M  V30 13324 H 1247.96 -3.78501 1.16418 0
M  V30 13325 H 1249.14 -2.63373 3.78115 0
M  V30 13326 H 1247.45 -2.50805 3.32394 0
M  V30 13327 H 1250.05 -4.95681 2.00511 0
M  V30 13328 H 1250.39 -4.13236 0.504125 0
M  V30 13329 H 1250.92 -3.4132 2.04317 0
M  V30 13330 H 1247.66 -4.37329 4.88286 0
M  V30 13331 H 1247.18 -5.01251 3.29404 0
M  V30 13332 H 1248.86 -5.1919 3.86071 0
M  V30 13333 N 1248.99 -0.981699 -1.2329 0
M  V30 13334 C 1250.41 -0.690539 -1.43888 0
M  V30 13335 C 1250.61 0.742816 -1.87309 0
M  V30 13336 O 1249.67 1.5151 -2.01993 0
M  V30 13337 C 1250.98 -1.68657 -2.48948 0
M  V30 13338 C 1252.53 -1.70076 -2.62761 0
M  V30 13339 C 1253 -2.68513 -3.71032 0
M  V30 13340 N 1254.49 -2.67039 -3.78476 0
M  V30 13341 C 1255.23 -3.39874 -4.61815 0
M  V30 13342 N 1254.72 -4.22273 -5.49233 0
M  V30 13343 N 1256.52 -3.28633 -4.56023 0
M  V30 13344 H 1248.67 -1.90758 -0.934077 0
M  V30 13345 H 1250.93 -0.822058 -0.472149 0
M  V30 13346 H 1250.64 -2.7117 -2.23964 0
M  V30 13347 H 1250.51 -1.47045 -3.47358 0
M  V30 13348 H 1252.9 -0.682673 -2.87095 0
M  V30 13349 H 1252.98 -1.95754 -1.64663 0
M  V30 13350 H 1252.62 -3.70464 -3.47446 0
M  V30 13351 H 1252.55 -2.40109 -4.68674 0
M  V30 13352 H 1255.04 -2.07241 -3.16006 0
M  V30 13353 H 1255.36 -4.74702 -6.09818 0
M  V30 13354 H 1253.7 -4.26364 -5.48852 0
M  V30 13355 H 1256.89 -2.6371 -3.86749 0
M  V30 13356 H 1257.07 -3.85656 -5.20743 0
M  V30 13357 N 1250.47 1.3842 -0.753509 0
M  V30 13358 C 1251.44 2.28808 -0.134022 0
M  V30 13359 C 1252.44 1.47184 0.647583 0
M  V30 13360 O 1253.63 1.67631 0.473861 0
M  V30 13361 C 1250.76 3.30926 0.81858 0
M  V30 13362 H 1251.95 2.85097 -0.930586 0
M  V30 13363 H 1249.5 1.47378 -0.520514 0
M  V30 13364 H 1250.24 2.79728 1.64082 0
M  V30 13365 H 1250.02 3.91234 0.260526 0
M  V30 13366 H 1251.51 3.98515 1.24802 0
M  V30 13367 N 1251.95 0.502579 1.49372 0
M  V30 13368 C 1252.91 -0.263993 2.27675 0
M  V30 13369 C 1253.91 -0.892538 1.33755 0
M  V30 13370 O 1255.1 -0.756826 1.56901 0
M  V30 13371 C 1252.24 -1.37895 3.11765 0
M  V30 13372 H 1253.43 0.423132 2.969 0
M  V30 13373 H 1250.98 0.257595 1.54163 0
M  V30 13374 H 1251.72 -2.10018 2.47109 0
M  V30 13375 H 1251.5 -0.933694 3.80821 0
M  V30 13376 H 1252.99 -1.91889 3.70902 0
M  V30 13377 N 1253.43 -1.55816 0.23648 0
M  V30 13378 C 1254.65 -2.03534 -0.398575 0
M  V30 13379 C 1255.08 -1.11488 -1.51499 0
M  V30 13380 O 1254.44 -0.105848 -1.80991 0
M  V30 13381 C 1254.48 -3.49356 -0.893467 0
M  V30 13382 O 1253.59 -3.60446 -2.00381 0
M  V30 13383 H 1252.93 -0.658102 -0.0883021 0
M  V30 13384 H 1255.46 -2.01417 0.359488 0
M  V30 13385 H 1255.47 -3.89972 -1.19941 0
M  V30 13386 H 1254.14 -4.1583 -0.0764388 0
M  V30 13387 H 1252.72 -3.31723 -1.70336 0
M  V30 13388 N 1254.91 0.036755 -1.57557 0
M  V30 13389 C 1256.16 0.728107 -1.881 0
M  V30 13390 C 1256.47 1.7693 -0.833974 0
M  V30 13391 O 1257.67 2.5127 -1.02837 0
M  V30 13392 C 1256.13 1.34604 -3.33781 0
M  V30 13393 C 1255.74 0.341599 -4.46696 0
M  V30 13394 C 1257.48 2.01772 -3.73481 0
M  V30 13395 C 1255.39 0.967444 -5.83433 0
M  V30 13396 H 1254.32 0.275695 -0.701789 0
M  V30 13397 H 1256.97 -0.0177555 -1.83491 0
M  V30 13398 H 1255.35 2.14135 -3.3311 0
M  V30 13399 H 1256.53 -0.426441 -4.58823 0
M  V30 13400 H 1254.84 -0.227558 -4.15778 0
M  V30 13401 H 1257.44 2.49435 -4.72955 0
M  V30 13402 H 1257.78 2.83255 -3.05077 0
M  V30 13403 H 1258.31 1.29026 -3.76294 0
M  V30 13404 H 1255.05 0.19219 -6.55218 0
M  V30 13405 H 1254.57 1.70551 -5.75041 0
M  V30 13406 H 1256.25 1.47705 -6.29914 0
M  V30 13407 N 1256.39 1.54543 0.308881 0
M  V30 13408 C 1257.63 1.75182 1.05312 0
M  V30 13409 C 1257.99 0.522347 1.84758 0
M  V30 13410 O 1259.19 0.606334 2.61872 0
M  V30 13411 C 1257.46 3.0007 1.94147 0
M  V30 13412 S 1259.02 3.41676 2.75323 0
M  V30 13413 H 1255.84 0.615862 0.355296 0
M  V30 13414 H 1258.44 1.92739 0.327413 0
M  V30 13415 H 1257.14 3.87685 1.34643 0
M  V30 13416 H 1256.68 2.85078 2.71098 0
M  V30 13417 H 1258.69 2.98128 3.96654 0
M  V30 13418 N 1257.86 -0.571685 1.46866 0
M  V30 13419 C 1259.09 -1.35327 1.56109 0
M  V30 13420 C 1259.5 -1.88086 0.20504 0
M  V30 13421 O 1258.84 -1.64896 -0.809626 0
M  V30 13422 C 1258.91 -2.56939 2.51441 0
M  V30 13423 C 1258.57 -2.2557 3.97451 0
M  V30 13424 C 1259.57 -1.83737 4.86351 0
M  V30 13425 C 1257.25 -2.37375 4.42672 0
M  V30 13426 C 1259.25 -1.54118 6.18487 0
M  V30 13427 C 1256.93 -2.07368 5.7484 0
M  V30 13428 C 1257.93 -1.65806 6.62569 0
M  V30 13429 O 1257.62 -1.36173 7.92283 0
M  V30 13430 H 1257.35 -0.419368 0.530194 0
M  V30 13431 H 1259.91 -0.700859 1.93073 0
M  V30 13432 H 1258.14 -3.25023 2.09517 0
M  V30 13433 H 1259.82 -3.19012 2.5097 0
M  V30 13434 H 1260.59 -1.74122 4.52666 0
M  V30 13435 H 1256.47 -2.68686 3.74605 0
M  V30 13436 H 1260.01 -1.21603 6.8692 0
M  V30 13437 H 1255.91 -2.16611 6.08071 0
M  V30 13438 H 1256.68 -1.49926 8.04652 0
M  V30 13439 N 1259.34 -1.34755 -0.817236 0
M  V30 13440 C 1260.27 -1.29452 -1.94331 0
M  V30 13441 C 1261.25 -0.170902 -1.69239 0
M  V30 13442 O 1262.44 -0.364173 -1.90755 0
M  V30 13443 C 1259.57 -1.05497 -3.30889 0
M  V30 13444 C 1258.52 -2.14386 -3.70436 0
M  V30 13445 C 1257.85 -1.75612 -5.05039 0
M  V30 13446 C 1259.15 -3.56265 -3.81933 0
M  V30 13447 H 1260.84 -2.23672 -1.99025 0
M  V30 13448 H 1258.39 -1.07674 -0.956159 0
M  V30 13449 H 1260.34 -1.0043 -4.09257 0
M  V30 13450 H 1259.06 -0.0772059 -3.26509 0
M  V30 13451 H 1257.72 -2.18532 -2.94345 0
M  V30 13452 H 1257.37 -0.764809 -4.97152 0
M  V30 13453 H 1257.07 -2.48495 -5.3247 0
M  V30 13454 H 1258.6 -1.72051 -5.85859 0
M  V30 13455 H 1260.01 -3.545 -4.50558 0
M  V30 13456 H 1258.41 -4.27818 -4.20822 0
M  V30 13457 H 1259.48 -3.93192 -2.83775 0
M  V30 13458 N 1260.82 1.03812 -1.18578 0
M  V30 13459 C 1262.06 1.78618 -0.993725 0
M  V30 13460 C 1262.42 1.86206 0.468133 0
M  V30 13461 O 1263.62 2.57243 0.779714 0
M  V30 13462 C 1261.9 3.17883 -1.63357 0
M  V30 13463 S 1263.45 4.08994 -1.58962 0
M  V30 13464 H 1260.27 0.614997 -0.356792 0
M  V30 13465 H 1262.87 1.24458 -1.50766 0
M  V30 13466 H 1261.58 3.09972 -2.68972 0
M  V30 13467 H 1261.11 3.77119 -1.12003 0
M  V30 13468 H 1263.12 4.9247 -0.6073 0
M  V30 13469 N 1262.3 0.988223 1.22768 0
M  V30 13470 C 1263.26 0.539813 2.22752 0
M  V30 13471 C 1264.26 -0.374796 1.56371 0
M  V30 13472 O 1265.45 -0.167402 1.73394 0
M  V30 13473 C 1262.58 -0.215461 3.40218 0
M  V30 13474 H 1263.78 1.42397 2.63938 0
M  V30 13475 H 1261.33 0.774933 1.35737 0
M  V30 13476 H 1262.06 -1.11581 3.045 0
M  V30 13477 H 1261.85 0.441173 3.8961 0
M  V30 13478 H 1263.34 -0.517517 4.14381 0
M  V30 13479 N 1263.78 -1.38018 0.760839 0
M  V30 13480 C 1265.02 -2.01795 0.325264 0
M  V30 13481 C 1265.38 -1.59092 -1.07489 0
M  V30 13482 O 1266.58 -2.15251 -1.60998 0
M  V30 13483 C 1264.85 -3.5453 0.452007 0
M  V30 13484 S 1266.41 -4.38686 0.100084 0
M  V30 13485 H 1263.23 -0.69979 0.125758 0
M  V30 13486 H 1265.83 -1.684 0.993054 0
M  V30 13487 H 1264.53 -3.83099 1.47186 0
M  V30 13488 H 1264.07 -3.92711 -0.232716 0
M  V30 13489 H 1266.08 -4.83672 -1.10797 0
M  V30 13490 N 1265.25 -0.510493 -1.49103 0
M  V30 13491 C 1266.2 0.276449 -2.30951 0
M  V30 13492 C 1267.2 0.953893 -1.3999 0
M  V30 13493 O 1268.4 0.880499 -1.56994 0
M  V30 13494 H 1264.78 0.108013 -0.744202 0
M  V30 13495 H 1266.75 -0.433725 -2.95231 0
M  V30 13496 C 1265.5 1.32234 -3.21573 0
M  V30 13497 H 1264.82 0.810468 -3.91499 0
M  V30 13498 H 1266.26 1.84476 -3.81765 0
M  V30 13499 C 1264.72 2.3456 -2.41833 0
M  V30 13500 O 1265.25 3.40627 -2.12922 0
M  V30 13501 N 1263.45 2.07272 -2.03682 0
M  V30 13502 H 1263 1.21036 -2.27394 0
M  V30 13503 H 1262.96 2.75963 -1.50638 0
M  V30 13504 N 1266.73 1.55688 -0.24474 0
M  V30 13505 C 1267.98 1.98891 0.380603 0
M  V30 13506 C 1268.31 1.13283 1.58105 0
M  V30 13507 O 1267.56 0.183141 1.94841 0
M  V30 13508 C 1267.86 3.47487 0.835923 0
M  V30 13509 C 1267.53 4.5017 -0.256528 0
M  V30 13510 C 1266.19 4.7797 -0.556573 0
M  V30 13511 C 1268.54 5.1163 -0.994174 0
M  V30 13512 C 1265.87 5.64508 -1.59838 0
M  V30 13513 C 1268.22 5.99297 -2.02548 0
M  V30 13514 C 1266.88 6.25432 -2.3322 0
M  V30 13515 H 1266.15 0.727794 0.139273 0
M  V30 13516 H 1268.8 1.88235 -0.352113 0
M  V30 13517 H 1267.11 3.55464 1.64781 0
M  V30 13518 H 1268.8 3.78301 1.33001 0
M  V30 13519 H 1265.39 4.28598 -0.0125284 0
M  V30 13520 H 1269.58 4.90202 -0.775617 0
M  V30 13521 H 1264.83 5.83012 -1.84138 0
M  V30 13522 H 1269.01 6.45964 -2.60198 0
M  V30 13523 H 1266.63 6.92282 -3.14085 0
M  V30 13524 N 1268.21 -0.0283989 1.57574 0
M  V30 13525 C 1269.43 -0.734537 1.93957 0
M  V30 13526 C 1269.86 -1.68062 0.844787 0
M  V30 13527 O 1269.22 -1.802 -0.199432 0
M  V30 13528 C 1269.27 -1.46716 3.29404 0
M  V30 13529 O 1268.37 -2.58036 3.217 0
M  V30 13530 H 1267.71 -0.197507 0.633946 0
M  V30 13531 H 1270.24 0.0163258 2.04593 0
M  V30 13532 H 1270.25 -1.83693 3.64309 0
M  V30 13533 H 1268.93 -0.773292 4.08648 0
M  V30 13534 H 1267.5 -2.23597 2.98427 0
M  V30 13535 N 1269.69 -1.54705 -0.300681 0
M  V30 13536 C 1270.6 -1.88736 -1.39341 0
M  V30 13537 C 1271.61 -0.78155 -1.5546 0
M  V30 13538 O 1272.79 -1.07804 -1.70118 0
M  V30 13539 C 1269.85 -2.12795 -2.73713 0
M  V30 13540 C 1268.92 -3.36504 -2.66577 0
M  V30 13541 C 1268.15 -3.59407 -3.94541 0
M  V30 13542 O 1268.37 -2.85315 -4.93914 0
M  V30 13543 O 1267.31 -4.52923 -3.96415 0
M  V30 13544 H 1271.13 -2.817 -1.13484 0
M  V30 13545 H 1268.72 -1.40899 -0.496771 0
M  V30 13546 H 1270.6 -2.29819 -3.53215 0
M  V30 13547 H 1269.27 -1.23017 -2.99414 0
M  V30 13548 H 1268.18 -3.24844 -1.85546 0
M  V30 13549 H 1269.51 -4.26414 -2.45829 0
M  V30 13550 N 1271.17 0.563888 -1.47167 0
M  V30 13551 C 1272.39 1.34693 -1.57052 0
M  V30 13552 C 1272.81 1.87534 -0.218308 0
M  V30 13553 O 1272.17 1.64639 0.787416 0
M  V30 13554 C 1272.22 2.52148 -2.59044 0
M  V30 13555 O 1271.94 2.01492 -3.89015 0
M  V30 13556 C 1273.44 3.4445 -2.7905 0
M  V30 13557 H 1270.66 0.410822 -0.530534 0
M  V30 13558 H 1273.2 0.683731 -1.92731 0
M  V30 13559 H 1271.36 3.14419 -2.26317 0
M  V30 13560 H 1271.77 2.78122 -4.44689 0
M  V30 13561 H 1273.25 4.23297 -3.54293 0
M  V30 13562 H 1273.72 3.97575 -1.86631 0
M  V30 13563 H 1274.33 2.88 -3.12948 0
M  V30 13564 N 1272.64 1.35187 0.810078 0
M  V30 13565 C 1273.89 1.28454 1.56931 0
M  V30 13566 C 1274.22 -0.141747 1.93682 0
M  V30 13567 O 1273.5 -1.09028 1.61069 0
M  V30 13568 C 1273.78 2.18771 2.86027 0
M  V30 13569 C 1273.63 3.69999 2.55774 0
M  V30 13570 C 1274.95 2.08265 3.87703 0
M  V30 13571 H 1272.07 0.467959 0.569371 0
M  V30 13572 H 1274.71 1.65556 0.932262 0
M  V30 13573 H 1272.86 1.8726 3.40391 0
M  V30 13574 H 1274.54 4.11936 2.07621 0
M  V30 13575 H 1272.78 3.90453 1.89021 0
M  V30 13576 H 1273.45 4.28577 3.47888 0
M  V30 13577 H 1275.93 2.35958 3.42729 0
M  V30 13578 H 1274.8 2.73663 4.75815 0
M  V30 13579 H 1275.06 1.06352 4.29117 0
M  V30 13580 N 1274.12 -1.03182 1.19127 0
M  V30 13581 C 1275.03 -2.14875 0.94159 0
M  V30 13582 C 1276.05 -1.73727 -0.0973872 0
M  V30 13583 O 1277.22 -2.01214 0.0865775 0
M  V30 13584 C 1274.29 -3.43356 0.480366 0
M  V30 13585 C 1273.35 -3.98835 1.58838 0
M  V30 13586 C 1272.58 -5.21183 1.14907 0
M  V30 13587 O 1272.81 -5.70399 0.0114141 0
M  V30 13588 O 1271.74 -5.69423 1.95042 0
M  V30 13589 H 1275.57 -2.38799 1.8764 0
M  V30 13590 H 1273.15 -1.13299 0.973841 0
M  V30 13591 H 1275.03 -4.20763 0.231658 0
M  V30 13592 H 1273.71 -3.20884 -0.426041 0
M  V30 13593 H 1272.62 -3.22776 1.8912 0
M  V30 13594 H 1273.95 -4.25665 2.47123 0
M  V30 13595 N 1275.6 -0.99472 -1.22242 0
M  V30 13596 C 1276.85 -0.667045 -1.90351 0
M  V30 13597 C 1277.16 0.804615 -1.78284 0
M  V30 13598 O 1278.37 1.24395 -2.41326 0
M  V30 13599 C 1276.82 -1.14256 -3.41282 0
M  V30 13600 C 1276.43 -2.63958 -3.61981 0
M  V30 13601 C 1278.18 -0.889302 -4.1508 0
M  V30 13602 C 1276.08 -3.05103 -5.06622 0
M  V30 13603 H 1275.01 -0.245795 -0.712812 0
M  V30 13604 H 1277.66 -1.20452 -1.38432 0
M  V30 13605 H 1276.05 -0.533203 -3.92394 0
M  V30 13606 H 1277.22 -3.30255 -3.21354 0
M  V30 13607 H 1275.54 -2.87186 -3.01518 0
M  V30 13608 H 1278.13 -1.17239 -5.21689 0
M  V30 13609 H 1278.48 0.174556 -4.15934 0
M  V30 13610 H 1279.01 -1.46095 -3.70002 0
M  V30 13611 H 1275.75 -4.10672 -5.1091 0
M  V30 13612 H 1275.27 -2.4351 -5.48145 0
M  V30 13613 H 1276.95 -2.96506 -5.75059 0
M  V30 13614 N 1277.08 1.37613 -0.768148 0
M  V30 13615 C 1278.32 2.00532 -0.340335 0
M  V30 13616 C 1278.68 1.59885 1.07026 0
M  V30 13617 O 1277.97 0.833239 1.72533 0
M  V30 13618 C 1278.17 3.54952 -0.417608 0
M  V30 13619 C 1278 4.10595 -1.83417 0
M  V30 13620 C 1276.77 4.41708 -2.45402 0
M  V30 13621 C 1278.96 4.31844 -2.79312 0
M  V30 13622 N 1276.95 4.83045 -3.78868 0
M  V30 13623 C 1278.32 4.75751 -3.97569 0
M  V30 13624 C 1280.37 4.13971 -2.76645 0
M  V30 13625 C 1279.07 5.03656 -5.13539 0
M  V30 13626 C 1281.1 4.4301 -3.91786 0
M  V30 13627 C 1280.46 4.87153 -5.08784 0
M  V30 13628 H 1276.56 0.762961 -0.171505 0
M  V30 13629 H 1279.15 1.66984 -1.00121 0
M  V30 13630 H 1277.32 3.87815 0.213071 0
M  V30 13631 H 1279.05 4.04687 0.0319154 0
M  V30 13632 H 1275.8 4.30661 -1.97048 0
M  V30 13633 H 1276.23 5.08028 -4.47478 0
M  V30 13634 H 1280.87 3.79017 -1.87365 0
M  V30 13635 H 1278.59 5.375 -6.03423 0
M  V30 13636 H 1282.17 4.30772 -3.91059 0
M  V30 13637 H 1281.05 5.09192 -5.964 0
M  V30 13638 N 1278.56 0.518393 1.4883 0
M  V30 13639 C 1279.5 -0.264197 2.31095 0
M  V30 13640 C 1280.5 -0.946455 1.40494 0
M  V30 13641 O 1281.7 -0.872161 1.57459 0
M  V30 13642 H 1278.08 -0.104065 0.744765 0
M  V30 13643 H 1280.05 0.449375 2.94997 0
M  V30 13644 C 1278.8 -1.30527 3.2227 0
M  V30 13645 H 1278.12 -0.789695 3.91923 0
M  V30 13646 H 1279.56 -1.82449 3.82738 0
M  V30 13647 C 1278.02 -2.33274 2.43073 0
M  V30 13648 O 1278.55 -3.39493 2.14726 0
M  V30 13649 N 1276.76 -2.06189 2.04779 0
M  V30 13650 H 1276.3 -1.19829 2.28033 0
M  V30 13651 H 1276.26 -2.7516 1.521 0
M  V30 13652 N 1280.03 -1.55556 0.252993 0
M  V30 13653 C 1280.98 -2.23035 -0.660161 0
M  V30 13654 C 1281.98 -1.21994 -1.17532 0
M  V30 13655 O 1283.18 -1.39989 -1.13151 0
M  V30 13656 H 1279.56 -0.715516 -0.23139 0
M  V30 13657 H 1281.53 -2.98323 -0.0679506 0
M  V30 13658 C 1280.28 -2.94817 -1.84332 0
M  V30 13659 H 1279.6 -3.72342 -1.45607 0
M  V30 13660 H 1281.04 -3.45386 -2.45936 0
M  V30 13661 C 1279.5 -1.99033 -2.71822 0
M  V30 13662 O 1280.03 -1.5273 -3.71533 0
M  V30 13663 N 1278.24 -1.66004 -2.38518 0
M  V30 13664 H 1277.78 -2.03853 -1.57485 0
M  V30 13665 H 1277.74 -1.02183 -2.97331 0
M  V30 13666 N 1281.51 0.0200419 -1.57587 0
M  V30 13667 C 1282.45 1.05118 -2.02547 0
M  V30 13668 C 1283.42 1.3465 -0.911494 0
M  V30 13669 O 1284.61 1.47154 -1.17805 0
M  V30 13670 C 1281.73 2.38373 -2.40615 0
M  V30 13671 C 1280.78 2.24639 -3.62546 0
M  V30 13672 S 1281.61 1.59129 -5.1131 0
M  V30 13673 C 1282.77 2.93856 -5.5263 0
M  V30 13674 H 1283 0.668271 -2.89692 0
M  V30 13675 H 1280.54 0.230301 -1.52673 0
M  V30 13676 H 1282.49 3.15002 -2.63218 0
M  V30 13677 H 1281.15 2.7381 -1.53906 0
M  V30 13678 H 1280.35 3.23032 -3.86867 0
M  V30 13679 H 1279.95 1.56153 -3.39841 0
M  V30 13680 H 1282.24 3.90179 -5.53865 0
M  V30 13681 H 1283.18 2.74258 -6.52831 0
M  V30 13682 H 1283.59 2.96844 -4.8015 0
M  V30 13683 N 1282.99 1.54862 0.292472 0
M  V30 13684 C 1284.4 1.65459 0.864891 0
M  V30 13685 C 1284.75 0.568808 1.87774 0
M  V30 13686 O 1283.88 -0.293107 2.14406 0
M  V30 13687 C 1284.47 2.99939 1.5755 0
M  V30 13688 C 1283.03 3.12628 2.09621 0
M  V30 13689 C 1282.18 2.61179 0.931713 0
M  V30 13690 H 1285.13 1.58549 0.0692679 0
M  V30 13691 H 1285.15 2.91839 2.44152 0
M  V30 13692 H 1284.66 3.78943 0.838088 0
M  V30 13693 H 1282.76 2.3836 2.86383 0
M  V30 13694 H 1282.88 4.18911 2.32488 0
M  V30 13695 H 1281.24 2.17846 1.31967 0
M  V30 13696 H 1282.02 3.42669 0.208121 0
M  V30 13697 N 1284.47 -0.556076 1.47464 0
M  V30 13698 C 1285.69 -1.3434 1.58011 0
M  V30 13699 C 1286.12 -1.86674 0.231138 0
M  V30 13700 O 1285.48 -1.63029 -0.793174 0
M  V30 13701 C 1285.52 -2.48844 2.60977 0
M  V30 13702 O 1284.63 -3.51108 2.16326 0
M  V30 13703 H 1283.97 -0.398986 0.53076 0
M  V30 13704 H 1286.5 -0.671898 1.93253 0
M  V30 13705 H 1286.51 -2.95398 2.81432 0
M  V30 13706 H 1285.18 -2.10109 3.58925 0
M  V30 13707 H 1283.76 -3.10852 2.05975 0
M  V30 13708 N 1285.95 -1.35615 -0.802897 0
M  V30 13709 C 1286.89 -1.28839 -1.91492 0
M  V30 13710 C 1287.86 -0.159621 -1.65331 0
M  V30 13711 O 1289.05 -0.343931 -1.87675 0
M  V30 13712 C 1286.19 -1.06999 -3.28093 0
M  V30 13713 C 1285.3 -2.28831 -3.66416 0
M  V30 13714 C 1284.44 -2.00111 -4.92066 0
M  V30 13715 C 1283.48 -3.17977 -5.23027 0
M  V30 13716 N 1282.61 -2.89009 -6.39858 0
M  V30 13717 H 1287.45 -2.2393 -1.96619 0
M  V30 13718 H 1284.99 -1.1131 -0.961687 0
M  V30 13719 H 1286.95 -0.923673 -4.06847 0
M  V30 13720 H 1285.58 -0.155684 -3.22424 0
M  V30 13721 H 1284.63 -2.54314 -2.82893 0
M  V30 13722 H 1285.94 -3.1683 -3.85253 0
M  V30 13723 H 1285.1 -1.82331 -5.78654 0
M  V30 13724 H 1283.84 -1.09402 -4.75271 0
M  V30 13725 H 1282.84 -3.3633 -4.34928 0
M  V30 13726 H 1284.07 -4.09493 -5.41749 0
M  V30 13727 H 1282.01 -2.00898 -6.24481 0
M  V30 13728 H 1281.93 -3.70544 -6.58964 0
M  V30 13729 H 1283.2 -2.74779 -7.29463 0
M  V30 13730 N 1287.43 1.02549 -1.19673 0
M  V30 13731 C 1288.37 2.109 -0.937536 0
M  V30 13732 C 1289.34 1.65599 0.128923 0
M  V30 13733 O 1290.53 1.90795 -0.0139366 0
M  V30 13734 C 1287.67 3.4166 -0.48602 0
M  V30 13735 C 1286.78 4.0049 -1.61963 0
M  V30 13736 C 1285.92 5.19273 -1.11931 0
M  V30 13737 C 1284.95 5.70166 -2.22659 0
M  V30 13738 N 1284.09 6.80221 -1.73909 0
M  V30 13739 H 1288.93 2.32408 -1.86523 0
M  V30 13740 H 1286.47 1.13982 -0.929869 0
M  V30 13741 H 1288.43 4.16693 -0.205614 0
M  V30 13742 H 1287.06 3.20253 0.404678 0
M  V30 13743 H 1286.11 3.22638 -2.01516 0
M  V30 13744 H 1287.42 4.34273 -2.45374 0
M  V30 13745 H 1286.57 6.01478 -0.794336 0
M  V30 13746 H 1285.31 4.87033 -0.254972 0
M  V30 13747 H 1284.32 4.86572 -2.55983 0
M  V30 13748 H 1285.54 6.04444 -3.09554 0
M  V30 13749 H 1283.49 6.49826 -0.897889 0
M  V30 13750 H 1283.41 7.13149 -2.50907 0
M  V30 13751 H 1284.67 7.66011 -1.44386 0
M  V30 13752 N 1288.9 1.00119 1.21713 0
M  V30 13753 C 1290.13 0.700431 1.94683 0
M  V30 13754 C 1290.55 -0.736333 1.73849 0
M  V30 13755 O 1289.9 -1.49778 1.04272 0
M  V30 13756 C 1289.95 1.00722 3.47185 0
M  V30 13757 O 1289.68 2.38754 3.67326 0
M  V30 13758 C 1291.18 0.725335 4.37326 0
M  V30 13759 H 1288.4 0.25843 0.619238 0
M  V30 13760 H 1290.94 1.3382 1.54636 0
M  V30 13761 H 1289.1 0.415117 3.85169 0
M  V30 13762 H 1289.51 2.49321 4.61454 0
M  V30 13763 H 1290.98 0.990202 5.43046 0
M  V30 13764 H 1291.46 -0.340649 4.37877 0
M  V30 13765 H 1292.07 1.29888 4.04981 0
M  V30 13766 N 1290.38 -1.37203 0.775435 0
M  V30 13767 C 1291.61 -2.04396 0.351737 0
M  V30 13768 C 1292.03 -1.58099 -1.01913 0
M  V30 13769 O 1291.39 -0.742932 -1.65379 0
M  V30 13770 C 1291.44 -3.58283 0.408105 0
M  V30 13771 O 1290.54 -4.08156 -0.590104 0
M  V30 13772 H 1289.88 -0.646451 0.151647 0
M  V30 13773 H 1292.41 -1.75443 1.05265 0
M  V30 13774 H 1292.42 -4.07127 0.266711 0
M  V30 13775 H 1291.1 -3.91335 1.40819 0
M  V30 13776 H 1289.67 -3.70622 -0.411524 0
M  V30 13777 N 1291.86 -0.526279 -1.48553 0
M  V30 13778 C 1292.79 0.227364 -2.3239 0
M  V30 13779 C 1293.77 0.93862 -1.41859 0
M  V30 13780 O 1294.96 0.925119 -1.70749 0
M  V30 13781 C 1292.09 1.277 -3.22971 0
M  V30 13782 C 1291.04 0.684107 -4.22497 0
M  V30 13783 C 1290.37 1.83612 -5.02186 0
M  V30 13784 C 1291.67 -0.341723 -5.21181 0
M  V30 13785 H 1293.36 -0.472486 -2.95648 0
M  V30 13786 H 1290.91 -0.228669 -1.42173 0
M  V30 13787 H 1292.86 1.81215 -3.80446 0
M  V30 13788 H 1291.58 2.00638 -2.57705 0
M  V30 13789 H 1290.24 0.170505 -3.66203 0
M  V30 13790 H 1289.89 2.55379 -4.33348 0
M  V30 13791 H 1289.59 1.44536 -5.69547 0
M  V30 13792 H 1291.11 2.37513 -5.62512 0
M  V30 13793 H 1292.53 0.106207 -5.73202 0
M  V30 13794 H 1290.92 -0.649673 -5.96573 0
M  V30 13795 H 1291.99 -1.2488 -4.68543 0
M  V30 13796 N 1293.34 1.5542 -0.261239 0
M  V30 13797 C 1294.27 2.24949 0.626126 0
M  V30 13798 C 1295.25 1.23474 1.16997 0
M  V30 13799 O 1296.43 1.52161 1.20667 0
M  V30 13800 C 1293.56 2.95996 1.81669 0
M  V30 13801 C 1292.52 4.04282 1.40499 0
M  V30 13802 C 1291.84 4.62831 2.67753 0
M  V30 13803 C 1293.14 5.1923 0.56543 0
M  V30 13804 H 1294.84 2.99364 0.0463164 0
M  V30 13805 H 1292.38 1.43985 0.0208366 0
M  V30 13806 H 1294.34 3.43343 2.44323 0
M  V30 13807 H 1293.06 2.19093 2.42211 0
M  V30 13808 H 1291.72 3.57726 0.801712 0
M  V30 13809 H 1291.37 3.82611 3.26524 0
M  V30 13810 H 1291.07 5.35938 2.40925 0
M  V30 13811 H 1292.59 5.12918 3.31281 0
M  V30 13812 H 1294.01 5.62714 1.09663 0
M  V30 13813 H 1292.4 5.98814 0.392607 0
M  V30 13814 H 1293.47 4.83086 -0.419059 0
M  V30 13815 N 1294.82 -0.0116844 1.57596 0
M  V30 13816 C 1295.76 -1.02514 2.08791 0
M  V30 13817 C 1296.76 -1.36341 1.00536 0
M  V30 13818 O 1297.96 -1.35042 1.19011 0
M  V30 13819 H 1294.34 -0.348201 0.666528 0
M  V30 13820 H 1296.31 -0.567698 2.9295 0
M  V30 13821 C 1295.06 -2.312 2.59696 0
M  V30 13822 H 1294.38 -2.06036 3.42621 0
M  V30 13823 H 1295.82 -3.00417 2.99208 0
M  V30 13824 C 1294.28 -3.01372 1.50586 0
M  V30 13825 O 1294.81 -3.91896 0.882046 0
M  V30 13826 N 1293.02 -2.62997 1.23616 0
M  V30 13827 H 1292.56 -1.89466 1.74529 0
M  V30 13828 H 1292.52 -3.10264 0.508289 0
M  V30 13829 N 1296.29 -1.55015 -0.284256 0
M  V30 13830 C 1297.54 -1.7535 -1.01884 0
M  V30 13831 C 1297.87 -0.546825 -1.86342 0
M  V30 13832 O 1297.15 0.455832 -1.89083 0
M  V30 13833 C 1297.43 -3.05219 -1.91084 0
M  V30 13834 C 1297.28 -4.36219 -1.09694 0
M  V30 13835 C 1298.6 -3.31056 -2.89983 0
M  V30 13836 H 1295.72 -0.637981 -0.368984 0
M  V30 13837 H 1298.36 -1.87741 -0.292116 0
M  V30 13838 H 1296.51 -2.94786 -2.53048 0
M  V30 13839 H 1298.19 -4.58594 -0.498876 0
M  V30 13840 H 1296.43 -4.31951 -0.400078 0
M  V30 13841 H 1297.1 -5.23392 -1.75399 0
M  V30 13842 H 1299.58 -3.41209 -2.38151 0
M  V30 13843 H 1298.45 -4.23212 -3.49547 0
M  V30 13844 H 1298.71 -2.50153 -3.64521 0
M  V30 13845 N 1297.77 0.548248 -1.47757 0
M  V30 13846 C 1298.7 1.66409 -1.63799 0
M  V30 13847 C 1299.68 1.62973 -0.487211 0
M  V30 13848 O 1300.87 1.80455 -0.717612 0
M  V30 13849 C 1298 3.05035 -1.66046 0
M  V30 13850 C 1296.95 3.23322 -2.80441 0
M  V30 13851 C 1296.28 4.62824 -2.67765 0
M  V30 13852 C 1297.58 3.07837 -4.2194 0
M  V30 13853 H 1299.27 1.53239 -2.57212 0
M  V30 13854 H 1296.82 0.735783 -1.23783 0
M  V30 13855 H 1298.77 3.82951 -1.75859 0
M  V30 13856 H 1297.49 3.19185 -0.69199 0
M  V30 13857 H 1296.15 2.47816 -2.70153 0
M  V30 13858 H 1295.8 4.73786 -1.68927 0
M  V30 13859 H 1295.5 4.76007 -3.44515 0
M  V30 13860 H 1297.03 5.42864 -2.7952 0
M  V30 13861 H 1298.44 3.75563 -4.33157 0
M  V30 13862 H 1296.84 3.32525 -4.99547 0
M  V30 13863 H 1297.91 2.04474 -4.3968 0
M  V30 13864 N 1299.25 1.36039 0.795694 0
M  V30 13865 C 1300.18 1.25713 1.91648 0
M  V30 13866 C 1301.19 0.177993 1.61824 0
M  V30 13867 O 1302.38 0.432186 1.73189 0
M  V30 13868 C 1299.48 0.915546 3.26299 0
M  V30 13869 C 1298.66 2.09528 3.83949 0
M  V30 13870 C 1297.72 1.72775 4.97026 0
M  V30 13871 O 1296.74 2.44786 5.13876 0
M  V30 13872 N 1297.94 0.65775 5.76762 0
M  V30 13873 H 1300.71 2.22277 2.01029 0
M  V30 13874 H 1298.27 1.2935 0.973657 0
M  V30 13875 H 1300.26 0.650958 3.9943 0
M  V30 13876 H 1298.83 0.0392343 3.12575 0
M  V30 13877 H 1298.05 2.52304 3.0288 0
M  V30 13878 H 1299.34 2.88361 4.19196 0
M  V30 13879 H 1298.74 0.0596875 5.65669 0
M  V30 13880 H 1297.29 0.45297 6.50224 0
M  V30 13881 N 1300.73 -1.01913 1.20215 0
M  V30 13882 C 1302.01 -1.7262 0.919867 0
M  V30 13883 C 1302.39 -2.03203 -0.572001 0
M  V30 13884 O 1301.73 -1.69448 -1.53296 0
M  V30 13885 C 1301.94 -2.9959 1.79016 0
M  V30 13886 C 1303.29 -3.72905 2.03045 0
M  V30 13887 O 1304.32 -3.0954 1.76249 0
M  V30 13888 O 1303.17 -4.86844 2.48285 0
M  V30 13889 H 1300.27 -0.752194 0.343705 0
M  V30 13890 H 1302.81 -1.07783 1.31076 0
M  V30 13891 H 1301.59 -2.73292 2.80048 0
M  V30 13892 H 1301.21 -3.72168 1.39918 0
M  V30 13893 N 1302.21 -1.00763 -1.2118 0
M  V30 13894 C 1303.46 -0.687197 -1.89633 0
M  V30 13895 C 1303.77 0.78566 -1.79128 0
M  V30 13896 O 1304.97 1.21828 -2.42632 0
M  V30 13897 C 1303.43 -1.1787 -3.40051 0
M  V30 13898 C 1303.04 -2.67782 -3.59161 0
M  V30 13899 C 1304.78 -0.933277 -4.14114 0
M  V30 13900 C 1302.69 -3.10459 -5.03358 0
M  V30 13901 H 1301.62 -0.253342 -0.710165 0
M  V30 13902 H 1304.27 -1.21914 -1.37147 0
M  V30 13903 H 1302.65 -0.574791 -3.91806 0
M  V30 13904 H 1303.83 -3.33645 -3.17833 0
M  V30 13905 H 1302.14 -2.90368 -2.98455 0
M  V30 13906 H 1304.74 -1.22766 -5.20416 0
M  V30 13907 H 1305.08 0.130431 -4.16096 0
M  V30 13908 H 1305.61 -1.50011 -3.68431 0
M  V30 13909 H 1302.35 -4.16068 -5.06525 0
M  V30 13910 H 1301.87 -2.4931 -5.45531 0
M  V30 13911 H 1303.55 -3.02589 -5.71882 0
M  V30 13912 N 1303.68 1.3679 -0.7827 0
M  V30 13913 C 1304.93 1.99712 -0.352533 0
M  V30 13914 C 1305.26 1.61984 1.0712 0
M  V30 13915 O 1304.54 0.871342 1.7389 0
M  V30 13916 C 1304.82 3.5649 -0.508628 0
M  V30 13917 C 1304.67 4.04093 -1.97557 0
M  V30 13918 C 1305.99 4.40026 0.0804447 0
M  V30 13919 H 1303.11 0.725522 -0.129566 0
M  V30 13920 H 1305.75 1.62305 -0.987788 0
M  V30 13921 H 1303.9 3.88487 0.0321664 0
M  V30 13922 H 1305.58 3.82613 -2.57691 0
M  V30 13923 H 1303.82 3.55881 -2.48055 0
M  V30 13924 H 1304.49 5.13088 -2.03579 0
M  V30 13925 H 1306.97 4.14351 -0.381113 0
M  V30 13926 H 1305.84 5.48868 -0.0588424 0
M  V30 13927 H 1306.1 4.26285 1.17189 0
M  V30 13928 N 1305.16 0.53415 1.48272 0
M  V30 13929 C 1306.07 -0.230062 2.33469 0
M  V30 13930 C 1307.09 -0.934889 1.46751 0
M  V30 13931 O 1308.26 -0.908921 1.79724 0
M  V30 13932 C 1305.33 -1.2609 3.22958 0
M  V30 13933 C 1304.39 -0.565983 4.25553 0
M  V30 13934 C 1303.62 -1.54771 5.10766 0
M  V30 13935 O 1303.85 -2.7807 4.9803 0
M  V30 13936 O 1302.78 -1.08482 5.92043 0
M  V30 13937 H 1306.61 0.468182 3.0007 0
M  V30 13938 H 1304.19 0.29502 1.46458 0
M  V30 13939 H 1306.07 -1.85652 3.783 0
M  V30 13940 H 1304.75 -1.94148 2.59014 0
M  V30 13941 H 1303.66 0.0702391 3.74034 0
M  V30 13942 H 1304.99 0.0727277 4.92146 0
M  V30 13943 N 1306.64 -1.55279 0.269478 0
M  V30 13944 C 1307.59 -2.22304 -0.620435 0
M  V30 13945 C 1308.56 -1.19457 -1.15409 0
M  V30 13946 O 1309.74 -1.4798 -1.20443 0
M  V30 13947 C 1306.88 -2.94356 -1.80134 0
M  V30 13948 C 1306 -4.1191 -1.30207 0
M  V30 13949 C 1305.13 -4.71621 -2.44433 0
M  V30 13950 C 1304.17 -5.81379 -1.91481 0
M  V30 13951 N 1303.31 -6.35176 -2.99158 0
M  V30 13952 H 1308.15 -2.9797 -0.0422165 0
M  V30 13953 H 1305.68 -1.47097 -0.00907173 0
M  V30 13954 H 1307.64 -3.34343 -2.4954 0
M  V30 13955 H 1306.27 -2.21124 -2.35168 0
M  V30 13956 H 1305.32 -3.77082 -0.501301 0
M  V30 13957 H 1306.64 -4.9108 -0.874183 0
M  V30 13958 H 1305.79 -5.14298 -3.21842 0
M  V30 13959 H 1304.53 -3.91715 -2.90535 0
M  V30 13960 H 1303.53 -5.38157 -1.12549 0
M  V30 13961 H 1304.76 -6.63149 -1.46322 0
M  V30 13962 H 1302.7 -5.58167 -3.44652 0
M  V30 13963 H 1302.62 -7.09602 -2.60769 0
M  V30 13964 H 1303.89 -6.82512 -3.7656 0
M  V30 13965 N 1308.12 0.00332656 -1.576 0
M  V30 13966 C 1309.05 1.02964 -2.03651 0
M  V30 13967 C 1310.03 1.33675 -0.925724 0
M  V30 13968 O 1311.21 1.45896 -1.19359 0
M  V30 13969 C 1308.34 2.35808 -2.4313 0
M  V30 13970 C 1307.39 2.20781 -3.64908 0
M  V30 13971 S 1308.22 1.53697 -5.12969 0
M  V30 13972 C 1309.38 2.87978 -5.55715 0
M  V30 13973 H 1309.61 0.637508 -2.90384 0
M  V30 13974 H 1307.14 0.214095 -1.52908 0
M  V30 13975 H 1309.1 3.12193 -2.66544 0
M  V30 13976 H 1307.76 2.72162 -1.56802 0
M  V30 13977 H 1306.95 3.1891 -3.90272 0
M  V30 13978 H 1306.56 1.5254 -3.41478 0
M  V30 13979 H 1308.85 3.84283 -5.57972 0
M  V30 13980 H 1309.79 2.67318 -6.55703 0
M  V30 13981 H 1310.2 2.91735 -4.83271 0
M  V30 13982 N 1309.6 1.55164 0.276031 0
M  V30 13983 C 1310.82 1.79649 1.02635 0
M  V30 13984 C 1311.24 0.568289 1.80044 0
M  V30 13985 O 1310.6 -0.462569 1.7654 0
M  V30 13986 C 1310.65 3.01974 1.98731 0
M  V30 13987 O 1310.37 4.2005 1.24459 0
M  V30 13988 C 1311.87 3.39039 2.856 0
M  V30 13989 H 1309.09 0.598529 0.303321 0
M  V30 13990 H 1311.63 2.02171 0.307733 0
M  V30 13991 H 1309.79 2.81586 2.6606 0
M  V30 13992 H 1310.2 4.89185 1.89205 0
M  V30 13993 H 1311.68 4.27809 3.48831 0
M  V30 13994 H 1312.15 2.58306 3.55211 0
M  V30 13995 H 1312.76 3.61674 2.23767 0
M  V30 13996 N 1311.07 -0.540404 1.48045 0
M  V30 13997 C 1312.32 -1.2932 1.54787 0
M  V30 13998 C 1312.64 -1.94335 0.222109 0
M  V30 13999 O 1313.84 -2.70982 0.167675 0
M  V30 14000 C 1312.3 -2.34594 2.72935 0
M  V30 14001 C 1311.91 -1.75696 4.1211 0
M  V30 14002 C 1313.65 -3.10949 2.88982 0
M  V30 14003 C 1311.56 -2.78849 5.21534 0
M  V30 14004 H 1310.49 -0.486315 0.576206 0
M  V30 14005 H 1313.14 -0.571998 1.74357 0
M  V30 14006 H 1311.52 -3.09704 2.46778 0
M  V30 14007 H 1312.69 -1.06845 4.48242 0
M  V30 14008 H 1311.01 -1.11869 4.01091 0
M  V30 14009 H 1313.61 -3.88012 3.679 0
M  V30 14010 H 1313.95 -3.66173 1.98048 0
M  V30 14011 H 1314.48 -2.42953 3.1499 0
M  V30 14012 H 1311.22 -2.28459 6.144 0
M  V30 14013 H 1310.74 -3.46059 4.89901 0
M  V30 14014 H 1312.42 -3.4203 5.49203 0
M  V30 14015 N 1312.55 -1.36459 -0.788468 0
M  V30 14016 C 1313.48 -1.33545 -1.91541 0
M  V30 14017 C 1314.46 -0.206762 -1.68839 0
M  V30 14018 O 1315.65 -0.404553 -1.89939 0
M  V30 14019 C 1312.78 -1.12492 -3.28577 0
M  V30 14020 C 1311.73 -2.22196 -3.65805 0
M  V30 14021 C 1311.06 -1.86285 -5.01201 0
M  V30 14022 C 1312.36 -3.64286 -3.7429 0
M  V30 14023 H 1314.05 -2.27844 -1.94236 0
M  V30 14024 H 1311.6 -1.09677 -0.933105 0
M  V30 14025 H 1313.55 -1.09089 -4.07035 0
M  V30 14026 H 1312.28 -0.146446 -3.26272 0
M  V30 14027 H 1310.93 -2.24727 -2.89644 0
M  V30 14028 H 1310.58 -0.87009 -4.95417 0
M  V30 14029 H 1310.28 -2.59734 -5.27079 0
M  V30 14030 H 1311.81 -1.84439 -5.82078 0
M  V30 14031 H 1313.22 -3.63977 -4.42937 0
M  V30 14032 H 1311.62 -4.36648 -4.11653 0
M  V30 14033 H 1312.69 -3.99123 -2.75371 0
M  V30 14034 N 1314.03 1.01274 -1.20754 0
M  V30 14035 C 1314.98 2.09894 -0.959852 0
M  V30 14036 C 1315.95 1.65726 0.111351 0
M  V30 14037 O 1317.13 1.90769 -0.0341721 0
M  V30 14038 C 1314.27 3.41126 -0.52223 0
M  V30 14039 C 1313.39 3.98749 -1.66202 0
M  V30 14040 C 1312.52 5.18057 -1.17432 0
M  V30 14041 C 1311.56 5.67772 -2.28694 0
M  V30 14042 N 1310.7 6.78338 -1.81114 0
M  V30 14043 H 1315.54 2.30416 -1.88977 0
M  V30 14044 H 1313.07 1.12989 -0.941906 0
M  V30 14045 H 1315.03 4.16451 -0.249799 0
M  V30 14046 H 1313.66 3.20665 0.370688 0
M  V30 14047 H 1312.71 3.20483 -2.04927 0
M  V30 14048 H 1314.03 4.31646 -2.49967 0
M  V30 14049 H 1313.18 6.00601 -0.858086 0
M  V30 14050 H 1311.92 4.86735 -0.306614 0
M  V30 14051 H 1310.92 4.8383 -2.61129 0
M  V30 14052 H 1312.15 6.01127 -3.15948 0
M  V30 14053 H 1310.09 6.48837 -0.966761 0
M  V30 14054 H 1310.01 7.10448 -2.58457 0
M  V30 14055 H 1311.28 7.64437 -1.52502 0
M  V30 14056 N 1315.51 1.01404 1.20644 0
M  V30 14057 C 1316.44 0.526835 2.22035 0
M  V30 14058 C 1317.42 -0.424347 1.56965 0
M  V30 14059 O 1318.6 -0.344947 1.85317 0
M  V30 14060 C 1315.73 -0.233628 3.37893 0
M  V30 14061 C 1314.78 0.666719 4.21257 0
M  V30 14062 S 1315.61 2.13439 4.91125 0
M  V30 14063 C 1316.77 1.38402 6.10406 0
M  V30 14064 H 1317 1.38595 2.63018 0
M  V30 14065 H 1314.53 0.822723 1.30655 0
M  V30 14066 H 1316.49 -0.666289 4.05057 0
M  V30 14067 H 1315.15 -1.06828 2.95375 0
M  V30 14068 H 1314.34 0.0804713 5.03936 0
M  V30 14069 H 1313.95 1.03705 3.59335 0
M  V30 14070 H 1316.24 0.662667 6.74251 0
M  V30 14071 H 1317.18 2.18686 6.73485 0
M  V30 14072 H 1317.59 0.888021 5.57471 0
M  V30 14073 N 1316.99 -1.36373 0.789944 0
M  V30 14074 C 1318.24 -1.98476 0.359165 0
M  V30 14075 C 1318.55 -1.634 -1.07517 0
M  V30 14076 O 1319.76 -2.18742 -1.60824 0
M  V30 14077 C 1318.21 -3.55011 0.591228 0
M  V30 14078 C 1317.82 -3.99011 2.03701 0
M  V30 14079 C 1319.56 -4.23903 0.224979 0
M  V30 14080 C 1317.47 -5.48325 2.2157 0
M  V30 14081 H 1316.4 -0.742612 0.130552 0
M  V30 14082 H 1319.05 -1.55664 0.971652 0
M  V30 14083 H 1317.43 -3.95895 -0.0909788 0
M  V30 14084 H 1318.61 -3.69324 2.75566 0
M  V30 14085 H 1316.92 -3.42957 2.36155 0
M  V30 14086 H 1319.52 -5.33638 0.336764 0
M  V30 14087 H 1319.86 -4.08004 -0.826964 0
M  V30 14088 H 1320.4 -3.88383 0.860443 0
M  V30 14089 H 1317.13 -5.69173 3.25149 0
M  V30 14090 H 1316.65 -5.79637 1.54211 0
M  V30 14091 H 1318.33 -6.14556 2.0231 0
M  V30 14092 N 1318.47 -0.542005 -1.47987 0
M  V30 14093 C 1319.71 -0.010246 -2.01697 0
M  V30 14094 C 1320.03 1.34173 -1.42327 0
M  V30 14095 O 1321.23 1.96254 -1.87607 0
M  V30 14096 C 1319.69 0.0321032 -3.59886 0
M  V30 14097 C 1319.3 -1.31571 -4.28244 0
M  V30 14098 C 1321.04 0.512056 -4.214 0
M  V30 14099 C 1318.95 -1.23329 -5.78398 0
M  V30 14100 H 1317.88 -6.02097e-05 -0.754 0
M  V30 14101 H 1320.53 -0.687586 -1.70131 0
M  V30 14102 H 1318.91 0.774774 -3.88347 0
M  V30 14103 H 1320.09 -2.07489 -4.11442 0
M  V30 14104 H 1318.4 -1.73237 -3.78653 0
M  V30 14105 H 1321 0.591875 -5.31414 0
M  V30 14106 H 1321.34 1.52061 -3.87535 0
M  V30 14107 H 1321.87 -0.175293 -3.97414 0
M  V30 14108 H 1318.61 -2.21737 -6.16857 0
M  V30 14109 H 1318.13 -0.51567 -5.97579 0
M  V30 14110 H 1319.81 -0.928975 -6.40296 0
M  V30 14111 N 1319.94 1.55134 -0.277709 0
M  V30 14112 C 1320.89 2.2263 0.608637 0
M  V30 14113 C 1321.86 1.20067 1.14774 0
M  V30 14114 O 1323.05 1.48617 1.19657 0
M  V30 14115 C 1320.19 2.95308 1.78571 0
M  V30 14116 C 1319.3 4.12595 1.28021 0
M  V30 14117 C 1318.43 4.7291 2.41929 0
M  V30 14118 C 1317.47 5.82386 1.88395 0
M  V30 14119 N 1316.61 6.36754 2.95786 0
M  V30 14120 H 1321.45 2.97988 0.0264138 0
M  V30 14121 H 1318.99 1.471 0.00127068 0
M  V30 14122 H 1320.94 3.35662 2.47764 0
M  V30 14123 H 1319.57 2.22368 2.33992 0
M  V30 14124 H 1318.63 3.77343 0.481297 0
M  V30 14125 H 1319.94 4.91537 0.848128 0
M  V30 14126 H 1319.09 5.15997 3.1911 0
M  V30 14127 H 1317.83 3.93251 2.88453 0
M  V30 14128 H 1316.84 5.38746 1.09694 0
M  V30 14129 H 1318.06 6.63916 1.42803 0
M  V30 14130 H 1316.01 5.59987 3.41687 0
M  V30 14131 H 1315.92 7.10975 2.57002 0
M  V30 14132 H 1317.19 6.845 3.72935 0
M  V30 14133 N 1321.42 0.00503138 1.57599 0
M  V30 14134 C 1322.65 -0.688609 1.94786 0
M  V30 14135 C 1323.06 -1.67558 0.878698 0
M  V30 14136 O 1322.4 -1.83083 -0.150486 0
M  V30 14137 C 1322.46 -1.47183 3.2799 0
M  V30 14138 C 1322.13 -0.64589 4.52413 0
M  V30 14139 C 1323.13 0.0685859 5.19855 0
M  V30 14140 C 1320.81 -0.590379 4.98818 0
M  V30 14141 C 1322.8 0.827505 6.32006 0
M  V30 14142 C 1320.49 0.172262 6.10857 0
M  V30 14143 C 1321.49 0.879932 6.77308 0
M  V30 14144 O 1321.18 1.63012 7.87199 0
M  V30 14145 H 1320.91 -0.196416 0.646836 0
M  V30 14146 H 1323.46 0.0537933 2.0533 0
M  V30 14147 H 1321.69 -2.25883 3.13869 0
M  V30 14148 H 1323.38 -2.05129 3.50253 0
M  V30 14149 H 1324.15 0.0348834 4.84987 0
M  V30 14150 H 1320.03 -1.13074 4.46918 0
M  V30 14151 H 1323.57 1.3804 6.83806 0
M  V30 14152 H 1319.47 0.207767 6.45166 0
M  V30 14153 H 1320.24 1.54736 8.03741 0
M  V30 14154 N 1322.9 -1.55308 -0.267798 0
M  V30 14155 C 1323.81 -1.91649 -1.35307 0
M  V30 14156 C 1324.83 -0.814349 -1.53767 0
M  V30 14157 O 1326 -1.11388 -1.67793 0
M  V30 14158 C 1323.07 -2.18553 -2.69138 0
M  V30 14159 C 1322.13 -3.42083 -2.5938 0
M  V30 14160 C 1321.36 -3.67695 -3.86828 0
M  V30 14161 O 1321.58 -2.95728 -4.87751 0
M  V30 14162 O 1320.52 -4.61229 -3.86718 0
M  V30 14163 H 1324.34 -2.84044 -1.07483 0
M  V30 14164 H 1321.93 -1.41921 -0.466772 0
M  V30 14165 H 1323.81 -2.3726 -3.48261 0
M  V30 14166 H 1322.49 -1.2934 -2.96737 0
M  V30 14167 H 1321.39 -3.28706 -1.78614 0
M  V30 14168 H 1322.73 -4.31532 -2.36729 0
M  V30 14169 N 1324.38 0.532545 -1.4833 0
M  V30 14170 C 1325.33 1.65832 -1.63103 0
M  V30 14171 C 1326.32 1.61929 -0.497538 0
M  V30 14172 O 1327.53 1.66817 -0.676176 0
M  V30 14173 H 1323.9 0.549152 -0.513748 0
M  V30 14174 H 1325.87 1.50515 -2.57658 0
M  V30 14175 C 1324.62 3.04113 -1.68555 0
M  V30 14176 H 1323.94 3.07809 -2.55135 0
M  V30 14177 H 1325.38 3.82506 -1.82936 0
M  V30 14178 C 1323.84 3.34225 -0.423711 0
M  V30 14179 O 1324.37 3.99005 0.464523 0
M  V30 14180 N 1322.58 2.89087 -0.296192 0
M  V30 14181 H 1322.13 2.36547 -1.01997 0
M  V30 14182 H 1322.08 3.09604 0.547082 0
M  V30 14183 N 1325.86 1.36875 0.78122 0
M  V30 14184 C 1327.1 1.31559 1.53943 0
M  V30 14185 C 1327.43 -0.10273 1.94229 0
M  V30 14186 O 1326.69 -1.07386 1.63605 0
M  V30 14187 C 1326.98 2.19173 2.82309 0
M  V30 14188 C 1326.65 3.67595 2.61121 0
M  V30 14189 C 1325.31 4.08047 2.55051 0
M  V30 14190 C 1327.66 4.61665 2.41898 0
M  V30 14191 C 1324.99 5.40697 2.27736 0
M  V30 14192 C 1327.34 5.94542 2.16108 0
M  V30 14193 C 1326.01 6.34109 2.08476 0
M  V30 14194 H 1325.28 0.48141 0.563317 0
M  V30 14195 H 1327.93 1.68999 0.900638 0
M  V30 14196 H 1326.23 1.74696 3.50697 0
M  V30 14197 H 1327.93 2.12379 3.40141 0
M  V30 14198 H 1324.52 3.35509 2.66705 0
M  V30 14199 H 1328.7 4.3128 2.45584 0
M  V30 14200 H 1323.96 5.70325 2.20315 0
M  V30 14201 H 1328.13 6.66994 2.0023 0
M  V30 14202 H 1325.76 7.36823 1.87073 0
M  V30 14203 N 1327.33 -1.00632 1.21289 0
M  V30 14204 C 1328.28 -2.11502 0.96798 0
M  V30 14205 C 1329.28 -1.6919 -0.0843024 0
M  V30 14206 O 1330.48 -1.79875 0.06697 0
M  V30 14207 H 1326.86 -0.691398 0.295759 0
M  V30 14208 H 1328.83 -2.29337 1.90911 0
M  V30 14209 C 1327.58 -3.43357 0.547818 0
M  V30 14210 H 1326.9 -3.76348 1.34915 0
M  V30 14211 H 1328.34 -4.21957 0.415759 0
M  V30 14212 C 1326.8 -3.28648 -0.741086 0
M  V30 14213 O 1327.33 -3.59267 -1.79695 0
M  V30 14214 N 1325.53 -2.81866 -0.707084 0
M  V30 14215 H 1325.08 -2.57149 0.152447 0
M  V30 14216 H 1325.04 -2.72406 -1.56979 0
M  V30 14217 N 1328.81 -1.02043 -1.20104 0
M  V30 14218 C 1330.04 -0.731142 -1.94085 0
M  V30 14219 C 1330.46 0.702467 -1.74491 0
M  V30 14220 O 1329.82 1.48387 -1.04168 0
M  V30 14221 C 1329.87 -1.07691 -3.44144 0
M  V30 14222 O 1328.97 -0.190751 -4.11959 0
M  V30 14223 H 1328.31 -0.270917 -0.606218 0
M  V30 14224 H 1330.84 -1.36483 -1.52426 0
M  V30 14225 H 1330.85 -1.03023 -3.94779 0
M  V30 14226 H 1329.53 -2.1214 -3.57728 0
M  V30 14227 H 1328.1 -0.29529 -3.71729 0
M  V30 14228 N 1330.29 1.35952 -0.797165 0
M  V30 14229 C 1331.54 1.98283 -0.369685 0
M  V30 14230 C 1331.85 1.63968 1.06649 0
M  V30 14231 O 1333.06 2.19591 1.59662 0
M  V30 14232 C 1331.51 3.54692 -0.610046 0
M  V30 14233 C 1331.12 3.97925 -2.05814 0
M  V30 14234 C 1332.87 4.23778 -0.247457 0
M  V30 14235 C 1330.77 5.47142 -2.24475 0
M  V30 14236 H 1329.7 0.741909 -0.134489 0
M  V30 14237 H 1332.35 1.55146 -0.979893 0
M  V30 14238 H 1330.74 3.95938 0.0699822 0
M  V30 14239 H 1331.91 3.67857 -2.77521 0
M  V30 14240 H 1330.23 3.417 -2.37971 0
M  V30 14241 H 1332.82 5.33452 -0.365059 0
M  V30 14242 H 1333.17 4.08436 0.805315 0
M  V30 14243 H 1333.7 3.87921 -0.881028 0
M  V30 14244 H 1330.44 5.67441 -3.28163 0
M  V30 14245 H 1329.96 5.78811 -1.57282 0
M  V30 14246 H 1331.64 6.13475 -2.05567 0
M  V30 14247 N 1331.77 0.549846 1.47697 0
M  V30 14248 C 1332.7 -0.249645 2.2683 0
M  V30 14249 C 1333.68 -0.926968 1.33589 0
M  V30 14250 O 1334.86 -0.947423 1.62961 0
M  V30 14251 C 1331.99 -1.35511 3.1041 0
M  V30 14252 C 1331.04 -0.787118 4.19174 0
M  V30 14253 S 1331.87 0.360564 5.34285 0
M  V30 14254 C 1333.03 -0.746898 6.21428 0
M  V30 14255 H 1333.26 0.421876 2.94292 0
M  V30 14256 H 1330.79 0.336017 1.50699 0
M  V30 14257 H 1332.75 -1.98825 3.59137 0
M  V30 14258 H 1331.41 -1.99844 2.42325 0
M  V30 14259 H 1330.6 -1.61704 4.77355 0
M  V30 14260 H 1330.21 -0.230301 3.7329 0
M  V30 14261 H 1332.5 -1.6408 6.57331 0
M  V30 14262 H 1333.44 -0.202608 7.0781 0
M  V30 14263 H 1333.85 -1.03625 5.54907 0
M  V30 14264 N 1333.25 -1.54984 0.285932 0
M  V30 14265 C 1334.19 -2.24385 -0.612703 0
M  V30 14266 C 1335.19 -1.24459 -1.14918 0
M  V30 14267 O 1336.39 -1.42357 -1.10156 0
M  V30 14268 H 1332.77 -0.720263 -0.21616 0
M  V30 14269 H 1334.74 -2.984 -0.00465668 0
M  V30 14270 C 1333.49 -2.98661 -1.78037 0
M  V30 14271 H 1332.81 -3.75347 -1.37676 0
M  V30 14272 H 1334.25 -3.50525 -2.38554 0
M  V30 14273 C 1332.71 -2.04754 -2.67539 0
M  V30 14274 O 1333.24 -1.60577 -3.68209 0
M  V30 14275 N 1331.45 -1.71026 -2.34944 0
M  V30 14276 H 1330.99 -2.07148 -1.53126 0
M  V30 14277 H 1330.95 -1.08467 -2.95097 0
M  V30 14278 N 1334.72 -0.0133892 -1.57594 0
M  V30 14279 C 1335.66 1.00211 -2.06132 0
M  V30 14280 C 1336.67 1.29869 -0.98173 0
M  V30 14281 O 1337.86 1.2661 -1.25826 0
M  V30 14282 C 1334.96 2.33354 -2.45763 0
M  V30 14283 C 1334.13 2.22441 -3.76615 0
M  V30 14284 C 1333.19 3.38385 -4.02967 0
M  V30 14285 O 1332.22 3.15973 -4.73445 0
M  V30 14286 N 1333.42 4.61672 -3.51908 0
M  V30 14287 H 1336.18 0.588079 -2.93874 0
M  V30 14288 H 1333.74 0.173714 -1.60965 0
M  V30 14289 H 1335.74 3.09716 -2.60496 0
M  V30 14290 H 1334.31 2.66451 -1.6347 0
M  V30 14291 H 1333.53 1.30905 -3.7183 0
M  V30 14292 H 1334.81 2.12337 -4.62375 0
M  V30 14293 H 1334.21 4.82777 -2.9486 0
M  V30 14294 H 1332.77 5.35256 -3.71947 0
M  V30 14295 N 1336.2 1.55448 0.259558 0
M  V30 14296 C 1337.15 1.89248 1.32113 0
M  V30 14297 C 1338.12 0.745348 1.48438 0
M  V30 14298 O 1339.3 0.997854 1.62627 0
M  V30 14299 C 1336.44 2.18161 2.67394 0
M  V30 14300 C 1335.56 3.45614 2.59182 0
M  V30 14301 C 1334.69 3.6416 3.86731 0
M  V30 14302 C 1333.73 4.85258 3.73084 0
M  V30 14303 N 1332.87 5.00391 4.92497 0
M  V30 14304 H 1337.71 2.79785 1.02589 0
M  V30 14305 H 1335.25 1.38509 0.495338 0
M  V30 14306 H 1337.2 2.32927 3.46122 0
M  V30 14307 H 1335.83 1.30843 2.95093 0
M  V30 14308 H 1334.89 3.39248 1.72091 0
M  V30 14309 H 1336.2 4.34483 2.45002 0
M  V30 14310 H 1335.35 3.78817 4.73902 0
M  V30 14311 H 1334.09 2.73501 4.03793 0
M  V30 14312 H 1333.1 4.70591 2.84296 0
M  V30 14313 H 1334.32 5.77365 3.57528 0
M  V30 14314 H 1332.27 4.12666 5.09944 0
M  V30 14315 H 1332.18 5.83328 4.809 0
M  V30 14316 H 1333.45 5.19446 5.81202 0
M  V30 14317 N 1337.68 -0.524672 1.4861 0
M  V30 14318 C 1338.93 -1.27671 1.5615 0
M  V30 14319 C 1339.24 -1.94088 0.242709 0
M  V30 14320 O 1340.45 -2.70789 0.196407 0
M  V30 14321 C 1338.9 -2.31686 2.75408 0
M  V30 14322 C 1338.51 -1.71315 4.13951 0
M  V30 14323 C 1340.26 -3.07867 2.92264 0
M  V30 14324 C 1338.16 -2.73302 5.24462 0
M  V30 14325 H 1337.09 -0.480177 0.581332 0
M  V30 14326 H 1339.74 -0.553473 1.74954 0
M  V30 14327 H 1338.13 -3.07069 2.50049 0
M  V30 14328 H 1339.3 -1.02085 4.4935 0
M  V30 14329 H 1337.62 -1.07608 4.02255 0
M  V30 14330 H 1340.21 -3.84088 3.71995 0
M  V30 14331 H 1340.56 -3.64052 2.01921 0
M  V30 14332 H 1341.09 -2.39599 3.17549 0
M  V30 14333 H 1337.83 -2.21929 6.16788 0
M  V30 14334 H 1337.35 -3.40843 4.93544 0
M  V30 14335 H 1339.03 -3.36186 5.528 0
M  V30 14336 N 1339.16 -1.37287 -0.77395 0
M  V30 14337 C 1340.38 -1.35734 -1.56815 0
M  V30 14338 C 1340.81 0.0555546 -1.88018 0
M  V30 14339 O 1340.17 1.03197 -1.49064 0
M  V30 14340 C 1340.21 -2.2008 -2.85652 0
M  V30 14341 O 1339.32 -1.60391 -3.79932 0
M  V30 14342 H 1338.66 -0.463881 -0.47509 0
M  V30 14343 H 1341.19 -1.80781 -0.958087 0
M  V30 14344 H 1341.2 -2.33215 -3.34776 0
M  V30 14345 H 1339.87 -3.22781 -2.6227 0
M  V30 14346 H 1338.45 -1.56285 -3.3857 0
M  V30 14347 N 1340.64 0.999871 -1.21821 0
M  V30 14348 C 1341.57 2.09044 -0.939852 0
M  V30 14349 C 1342.58 1.62609 0.0788987 0
M  V30 14350 O 1343.77 1.77832 -0.154241 0
M  V30 14351 C 1340.87 3.36641 -0.390618 0
M  V30 14352 C 1340.04 4.12139 -1.46493 0
M  V30 14353 C 1339.1 5.18023 -0.924019 0
M  V30 14354 O 1338.13 5.45996 -1.60864 0
M  V30 14355 N 1339.33 5.79926 0.258136 0
M  V30 14356 H 1342.1 2.33506 -1.8787 0
M  V30 14357 H 1339.66 1.16509 -1.12415 0
M  V30 14358 H 1341.65 4.04697 -0.0142349 0
M  V30 14359 H 1340.22 3.09298 0.453176 0
M  V30 14360 H 1339.44 3.38813 -2.01494 0
M  V30 14361 H 1340.73 4.59354 -2.18795 0
M  V30 14362 H 1340.12 5.59559 0.831288 0
M  V30 14363 H 1338.68 6.4925 0.575977 0
M  V30 14364 N 1342.11 1.02678 1.19562 0
M  V30 14365 C 1343.34 0.740493 1.92874 0
M  V30 14366 C 1343.75 -0.704287 1.75603 0
M  V30 14367 O 1343.1 -1.49042 1.07389 0
M  V30 14368 C 1343.16 1.00929 3.45041 0
M  V30 14369 C 1342.82 2.4452 3.86081 0
M  V30 14370 C 1343.82 3.42647 3.9101 0
M  V30 14371 C 1341.5 2.78865 4.1778 0
M  V30 14372 C 1343.5 4.73175 4.27065 0
M  V30 14373 C 1341.18 4.09603 4.53507 0
M  V30 14374 C 1342.18 5.06568 4.58124 0
M  V30 14375 O 1341.87 6.34965 4.93026 0
M  V30 14376 H 1341.6 0.270435 0.619549 0
M  V30 14377 H 1344.16 1.37369 1.52706 0
M  V30 14378 H 1342.39 0.31895 3.85382 0
M  V30 14379 H 1344.08 0.712994 3.99589 0
M  V30 14380 H 1344.84 3.17452 3.66673 0
M  V30 14381 H 1340.72 2.04071 4.13372 0
M  V30 14382 H 1344.26 5.48857 4.30583 0
M  V30 14383 H 1340.16 4.34573 4.77302 0
M  V30 14384 H 1340.93 6.39406 5.10982 0
M  V30 14385 N 1343.59 -1.35528 0.804364 0
M  V30 14386 C 1344.56 -2.28153 0.21885 0
M  V30 14387 C 1345.56 -1.49486 -0.592511 0
M  V30 14388 O 1346.75 -1.69274 -0.411319 0
M  V30 14389 C 1343.88 -3.33736 -0.695195 0
M  V30 14390 H 1345.07 -2.81446 1.03576 0
M  V30 14391 H 1342.62 -1.45345 0.574854 0
M  V30 14392 H 1343.36 -2.85625 -1.53587 0
M  V30 14393 H 1343.14 -3.91931 -0.115143 0
M  V30 14394 H 1344.63 -4.02872 -1.09925 0
M  V30 14395 N 1345.07 -0.557671 -1.47404 0
M  V30 14396 C 1345.98 0.19289 -2.33806 0
M  V30 14397 C 1347 0.911424 -1.4822 0
M  V30 14398 O 1348.17 0.880214 -1.81147 0
M  V30 14399 C 1345.24 1.20937 -3.24923 0
M  V30 14400 C 1344.3 0.498209 -4.26399 0
M  V30 14401 C 1343.53 1.46626 -5.13163 0
M  V30 14402 O 1343.76 2.70111 -5.0239 0
M  V30 14403 O 1342.69 0.990497 -5.93694 0
M  V30 14404 H 1346.52 -0.515861 -2.99287 0
M  V30 14405 H 1344.1 -0.318283 -1.4597 0
M  V30 14406 H 1345.98 1.7961 -3.81206 0
M  V30 14407 H 1344.66 1.90003 -2.6207 0
M  V30 14408 H 1343.56 -0.129736 -3.73875 0
M  V30 14409 H 1344.9 -0.151015 -4.91968 0
M  V30 14410 N 1346.55 1.54831 -0.294147 0
M  V30 14411 C 1347.48 2.26226 0.57827 0
M  V30 14412 C 1348.46 1.25928 1.14351 0
M  V30 14413 O 1349.65 1.54687 1.17412 0
M  V30 14414 C 1346.78 2.99783 1.75349 0
M  V30 14415 C 1345.73 4.07171 1.31892 0
M  V30 14416 C 1345.06 4.68406 2.57876 0
M  V30 14417 C 1346.36 5.20313 0.455167 0
M  V30 14418 H 1348.05 2.99395 -0.0171936 0
M  V30 14419 H 1345.6 1.43997 -0.00970944 0
M  V30 14420 H 1347.55 3.48448 2.36986 0
M  V30 14421 H 1346.27 2.24181 2.37509 0
M  V30 14422 H 1344.93 3.59346 0.725653 0
M  V30 14423 H 1344.58 3.89451 3.18335 0
M  V30 14424 H 1344.28 5.40927 2.29502 0
M  V30 14425 H 1345.8 5.1983 3.20327 0
M  V30 14426 H 1347.22 5.64913 0.977026 0
M  V30 14427 H 1345.61 5.99512 0.265501 0
M  V30 14428 H 1346.68 4.82088 -0.521434 0
M  V30 14429 N 1348.03 0.0217466 1.57585 0
M  V30 14430 C 1348.96 -0.961069 2.12804 0
M  V30 14431 C 1349.94 -1.3442 1.04237 0
M  V30 14432 O 1351.12 -1.42412 1.32032 0
M  V30 14433 C 1348.25 -2.24586 2.64912 0
M  V30 14434 C 1347.21 -2.0037 3.78201 0
M  V30 14435 C 1346.53 -3.35051 4.16708 0
M  V30 14436 C 1347.83 -1.34879 5.04584 0
M  V30 14437 H 1349.53 -0.501222 2.95175 0
M  V30 14438 H 1347.07 -0.239649 1.41992 0
M  V30 14439 H 1349.03 -2.93715 3.02175 0
M  V30 14440 H 1347.75 -2.72723 1.79693 0
M  V30 14441 H 1346.41 -1.33662 3.41365 0
M  V30 14442 H 1346.06 -3.80932 3.28481 0
M  V30 14443 H 1345.76 -3.19656 4.93045 0
M  V30 14444 H 1347.28 -4.05459 4.56547 0
M  V30 14445 H 1348.7 -1.93997 5.3948 0
M  V30 14446 H 1347.09 -1.29906 5.85871 0
M  V30 14447 H 1348.16 -0.320774 4.83838 0
M  V30 14448 N 1349.51 -1.55583 -0.251311 0
M  V30 14449 C 1350.47 -1.89148 -1.29443 0
M  V30 14450 C 1351.47 -0.7676 -1.41296 0
M  V30 14451 O 1352.66 -1.03563 -1.40073 0
M  V30 14452 C 1349.79 -2.11601 -2.67279 0
M  V30 14453 H 1350.98 -2.82416 -1.00901 0
M  V30 14454 H 1348.54 -1.48407 -0.490398 0
M  V30 14455 H 1349.27 -1.20787 -3.00967 0
M  V30 14456 H 1349.06 -2.93449 -2.60058 0
M  V30 14457 H 1350.55 -2.38768 -3.42607 0
M  V30 14458 N 1350.98 0.516783 -1.48886 0
M  V30 14459 C 1351.93 1.64093 -1.64853 0
M  V30 14460 C 1352.93 1.61392 -0.514685 0
M  V30 14461 O 1354.13 1.6609 -0.693831 0
M  V30 14462 H 1350.51 0.543672 -0.519543 0
M  V30 14463 H 1352.48 1.47774 -2.5924 0
M  V30 14464 C 1351.23 3.02308 -1.71771 0
M  V30 14465 H 1350.55 3.05085 -2.58385 0
M  V30 14466 H 1351.99 3.80544 -1.86982 0
M  V30 14467 C 1350.45 3.33757 -0.459136 0
M  V30 14468 O 1350.98 3.99475 0.422177 0
M  V30 14469 N 1349.18 2.88756 -0.326837 0
M  V30 14470 H 1348.73 2.35452 -1.045 0
M  V30 14471 H 1348.69 3.10166 0.514213 0
M  V30 14472 N 1352.46 1.37696 0.766659 0
M  V30 14473 C 1353.69 1.36564 1.56093 0
M  V30 14474 C 1354.11 -0.0455828 1.88045 0
M  V30 14475 O 1353.47 -1.02405 1.49609 0
M  V30 14476 C 1353.52 2.21592 2.84481 0
M  V30 14477 O 1352.62 1.62404 3.79076 0
M  V30 14478 H 1351.96 0.466394 0.472623 0
M  V30 14479 H 1354.49 1.81287 0.948486 0
M  V30 14480 H 1354.5 2.34987 3.33534 0
M  V30 14481 H 1353.18 3.24167 2.60554 0
M  V30 14482 H 1351.75 1.58078 3.37736 0
M  V30 14483 N 1353.94 -0.993397 1.22349 0
M  V30 14484 C 1355.19 -1.72945 1.04568 0
M  V30 14485 C 1355.51 -1.90419 -0.420178 0
M  V30 14486 O 1354.78 -1.46348 -1.30227 0
M  V30 14487 H 1353.36 -0.640777 0.383945 0
M  V30 14488 H 1356.02 -1.19647 1.53853 0
M  V30 14489 H 1355.12 -2.72411 1.52311 0
M  V30 14490 N 1355.42 -1.03311 -1.19015 0
M  V30 14491 C 1356.83 -0.750946 -1.4083 0
M  V30 14492 C 1357.03 0.662704 -1.90291 0
M  V30 14493 O 1356.09 1.42806 -2.08237 0
M  V30 14494 C 1357.4 -1.79064 -2.41571 0
M  V30 14495 C 1358.95 -1.81068 -2.55311 0
M  V30 14496 C 1359.43 -2.84008 -3.59309 0
M  V30 14497 N 1360.92 -2.82852 -3.6681 0
M  V30 14498 C 1361.65 -3.59156 -4.46984 0
M  V30 14499 N 1361.15 -4.45188 -5.30829 0
M  V30 14500 N 1362.94 -3.47679 -4.41674 0
M  V30 14501 H 1355.09 -1.94548 -0.852329 0
M  V30 14502 H 1357.35 -0.841344 -0.436858 0
M  V30 14503 H 1357.06 -2.80425 -2.12261 0
M  V30 14504 H 1356.93 -1.61646 -3.40809 0
M  V30 14505 H 1359.32 -0.803825 -2.83941 0
M  V30 14506 H 1359.4 -2.02562 -1.56212 0
M  V30 14507 H 1359.05 -3.84867 -3.3142 0
M  V30 14508 H 1358.98 -2.59771 -4.58069 0
M  V30 14509 H 1361.47 -2.20457 -3.06932 0
M  V30 14510 H 1361.78 -5.00139 -5.89135 0
M  V30 14511 H 1360.13 -4.49259 -5.30275 0
M  V30 14512 H 1363.32 -2.79876 -3.75216 0
M  V30 14513 H 1363.49 -4.07396 -5.03917 0
M  V30 14514 N 1356.9 1.35099 -0.81154 0
M  V30 14515 C 1357.83 2.32264 -0.239925 0
M  V30 14516 C 1358.81 1.57708 0.637354 0
M  V30 14517 O 1359.99 1.85751 0.566598 0
M  V30 14518 C 1357.12 3.41931 0.608325 0
M  V30 14519 C 1356.08 4.27659 -0.170869 0
M  V30 14520 C 1355.4 5.28691 0.799398 0
M  V30 14521 C 1356.7 5.0394 -1.37266 0
M  V30 14522 H 1358.4 2.8032 -1.05172 0
M  V30 14523 H 1355.94 1.34773 -0.507185 0
M  V30 14524 H 1357.89 4.08911 1.01832 0
M  V30 14525 H 1356.62 2.92496 1.45306 0
M  V30 14526 H 1355.28 3.62265 -0.562094 0
M  V30 14527 H 1354.93 4.75521 1.63977 0
M  V30 14528 H 1354.63 5.86921 0.282331 0
M  V30 14529 H 1356.15 5.98542 1.20749 0
M  V30 14530 H 1357.56 5.63838 -1.03728 0
M  V30 14531 H 1355.96 5.7169 -1.82456 0
M  V30 14532 H 1357.03 4.34295 -2.15676 0
M  V30 14533 N 1358.37 0.56548 1.47106 0
M  V30 14534 C 1359.32 -0.177564 2.30116 0
M  V30 14535 C 1360.29 -0.900534 1.39569 0
M  V30 14536 O 1361.48 -0.894603 1.68527 0
M  V30 14537 C 1358.62 -1.19633 3.237 0
M  V30 14538 C 1357.73 -0.47858 4.29341 0
M  V30 14539 C 1356.86 -1.48336 5.10068 0
M  V30 14540 C 1355.9 -0.751049 6.07475 0
M  V30 14541 N 1355.04 -1.70306 6.81132 0
M  V30 14542 H 1359.88 0.536409 2.93132 0
M  V30 14543 H 1357.42 0.276352 1.44481 0
M  V30 14544 H 1359.37 -1.79967 3.76388 0
M  V30 14545 H 1358 -1.87823 2.6253 0
M  V30 14546 H 1357.06 0.239454 3.79646 0
M  V30 14547 H 1358.37 0.0947147 4.9871 0
M  V30 14548 H 1357.52 -2.16 5.66947 0
M  V30 14549 H 1356.26 -2.09058 4.4062 0
M  V30 14550 H 1355.27 -0.0605336 5.49767 0
M  V30 14551 H 1356.49 -0.14946 6.78936 0
M  V30 14552 H 1354.44 -2.2987 6.14407 0
M  V30 14553 H 1354.35 -1.18213 7.46701 0
M  V30 14554 H 1355.62 -2.37058 7.42579 0
M  V30 14555 N 1359.85 -1.54672 0.302354 0
M  V30 14556 C 1360.82 -2.22246 -0.560283 0
M  V30 14557 C 1361.82 -1.20895 -1.06023 0
M  V30 14558 O 1363.01 -1.45621 -0.956047 0
M  V30 14559 C 1360.14 -2.9099 -1.77589 0
M  V30 14560 H 1361.33 -2.99885 0.0301274 0
M  V30 14561 H 1358.88 -1.56209 0.0532036 0
M  V30 14562 H 1359.62 -2.17433 -2.4061 0
M  V30 14563 H 1359.4 -3.65288 -1.42503 0
M  V30 14564 H 1360.89 -3.42535 -2.38871 0
M  V30 14565 N 1361.33 -0.0301034 -1.57571 0
M  V30 14566 C 1362.29 0.936465 -2.09196 0
M  V30 14567 C 1363.29 1.25347 -1.00722 0
M  V30 14568 O 1364.48 1.19364 -1.26877 0
M  V30 14569 C 1361.62 2.2527 -2.55864 0
M  V30 14570 H 1362.81 0.489332 -2.95881 0
M  V30 14571 H 1360.36 0.217948 -1.54773 0
M  V30 14572 H 1361.1 2.7461 -1.72511 0
M  V30 14573 H 1360.88 2.03573 -3.35113 0
M  V30 14574 H 1362.37 2.94549 -2.96025 0
M  V30 14575 N 1362.81 1.55714 0.243056 0
M  V30 14576 C 1363.74 1.85615 1.32748 0
M  V30 14577 C 1364.72 0.711577 1.46203 0
M  V30 14578 O 1365.9 0.957732 1.62357 0
M  V30 14579 C 1363.03 2.04425 2.70052 0
M  V30 14580 C 1362.08 3.27071 2.73727 0
M  V30 14581 S 1362.91 4.83615 2.2995 0
M  V30 14582 C 1364.07 5.05434 3.69171 0
M  V30 14583 H 1364.3 2.77305 1.07187 0
M  V30 14584 H 1361.83 1.47871 0.444234 0
M  V30 14585 H 1363.79 2.15946 3.4911 0
M  V30 14586 H 1362.45 1.1357 2.92849 0
M  V30 14587 H 1361.64 3.37211 3.74573 0
M  V30 14588 H 1361.25 3.14296 2.02716 0
M  V30 14589 H 1363.54 4.93013 4.64698 0
M  V30 14590 H 1364.48 6.07401 3.63963 0
M  V30 14591 H 1364.89 4.33262 3.61862 0
M  V30 14592 N 1364.29 -0.50888 1.49158 0
M  V30 14593 C 1365.51 -1.28771 1.61943 0
M  V30 14594 C 1365.93 -1.86594 0.287759 0
M  V30 14595 O 1365.29 -1.67448 -0.725769 0
M  V30 14596 C 1365.34 -2.4236 2.68224 0
M  V30 14597 O 1365.06 -1.86915 3.96225 0
M  V30 14598 C 1366.56 -3.33856 2.91642 0
M  V30 14599 H 1363.78 -0.390849 0.545416 0
M  V30 14600 H 1366.32 -0.611729 1.95136 0
M  V30 14601 H 1364.48 -3.05803 2.37831 0
M  V30 14602 H 1364.89 -2.61426 4.54705 0
M  V30 14603 H 1366.37 -4.09856 3.69759 0
M  V30 14604 H 1366.84 -3.90374 2.01258 0
M  V30 14605 H 1367.45 -2.76187 3.23421 0
M  V30 14606 N 1365.76 -1.381 -0.759346 0
M  V30 14607 C 1367.01 -1.33992 -1.5183 0
M  V30 14608 C 1367.34 0.0718172 -1.94367 0
M  V30 14609 O 1366.59 1.0477 -1.65293 0
M  V30 14610 C 1366.89 -2.23636 -2.78786 0
M  V30 14611 C 1366.56 -3.71703 -2.5524 0
M  V30 14612 C 1365.22 -4.12053 -2.48528 0
M  V30 14613 C 1367.57 -4.65455 -2.34523 0
M  V30 14614 C 1364.9 -5.44252 -2.19105 0
M  V30 14615 C 1367.25 -5.97905 -2.06622 0
M  V30 14616 C 1365.92 -6.37345 -1.98362 0
M  V30 14617 H 1365.19 -0.490311 -0.555587 0
M  V30 14618 H 1367.83 -1.70411 -0.873637 0
M  V30 14619 H 1366.14 -1.80253 -3.47874 0
M  V30 14620 H 1367.84 -2.17764 -3.36719 0
M  V30 14621 H 1364.43 -3.3971 -2.61333 0
M  V30 14622 H 1368.61 -4.35132 -2.38691 0
M  V30 14623 H 1363.87 -5.73758 -2.11214 0
M  V30 14624 H 1368.04 -6.70095 -1.89594 0
M  V30 14625 H 1365.67 -7.39706 -1.75328 0
M  V30 14626 N 1367.24 0.986894 -1.22875 0
M  V30 14627 C 1368.17 2.09628 -1.0285 0
M  V30 14628 C 1369.15 1.70019 0.0525118 0
M  V30 14629 O 1370.34 1.93883 -0.110874 0
M  V30 14630 C 1367.47 3.41866 -0.61194 0
M  V30 14631 C 1366.42 3.95351 -1.63956 0
M  V30 14632 C 1365.75 5.23707 -1.07865 0
M  V30 14633 C 1367.05 4.25354 -3.03102 0
M  V30 14634 H 1368.74 2.26639 -1.95641 0
M  V30 14635 H 1366.29 1.0891 -0.942048 0
M  V30 14636 H 1368.24 4.18893 -0.458936 0
M  V30 14637 H 1366.97 3.24701 0.35164 0
M  V30 14638 H 1365.62 3.20462 -1.78045 0
M  V30 14639 H 1365.27 5.02888 -0.106246 0
M  V30 14640 H 1364.97 5.60459 -1.76522 0
M  V30 14641 H 1366.5 6.03362 -0.937359 0
M  V30 14642 H 1367.91 4.93156 -2.92353 0
M  V30 14643 H 1366.31 4.73292 -3.68938 0
M  V30 14644 H 1367.38 3.32887 -3.52583 0
M  V30 14645 N 1368.72 1.0394 1.18466 0
M  V30 14646 C 1369.96 0.750905 1.90107 0
M  V30 14647 C 1370.32 -0.708278 1.78458 0
M  V30 14648 O 1371.53 -1.11033 2.44796 0
M  V30 14649 C 1369.8 1.20259 3.3656 0
M  V30 14650 S 1371.36 1.03954 4.26308 0
M  V30 14651 H 1368.17 0.273061 0.656475 0
M  V30 14652 H 1370.78 1.33143 1.43154 0
M  V30 14653 H 1369.48 2.26 3.42567 0
M  V30 14654 H 1369.01 0.615804 3.8855 0
M  V30 14655 H 1371.03 -0.0437629 4.96181 0
M  V30 14656 N 1370.2 -1.34667 0.818693 0
M  V30 14657 C 1371.13 -2.32134 0.252239 0
M  V30 14658 C 1372.11 -1.58044 -0.628982 0
M  V30 14659 O 1373.29 -1.86049 -0.55674 0
M  V30 14660 C 1370.42 -3.42249 -0.590183 0
M  V30 14661 C 1369.38 -4.27562 0.193547 0
M  V30 14662 C 1368.7 -5.29107 -0.771349 0
M  V30 14663 C 1370 -5.03205 1.39936 0
M  V30 14664 H 1371.7 -2.79758 1.06657 0
M  V30 14665 H 1369.24 -1.34502 0.514325 0
M  V30 14666 H 1371.2 -4.09445 -0.996616 0
M  V30 14667 H 1369.92 -2.93262 -1.43752 0
M  V30 14668 H 1368.58 -3.61962 0.581297 0
M  V30 14669 H 1368.23 -4.76384 -1.61453 0
M  V30 14670 H 1367.93 -5.87063 -0.251201 0
M  V30 14671 H 1369.45 -5.99174 -1.17573 0
M  V30 14672 H 1370.87 -5.6328 1.06717 0
M  V30 14673 H 1369.26 -5.70715 1.85485 0
M  V30 14674 H 1370.33 -4.33145 2.17976 0
M  V30 14675 N 1371.68 -0.573274 -1.46804 0
M  V30 14676 C 1372.93 -0.0530267 -2.0163 0
M  V30 14677 C 1373.24 1.31124 -1.45141 0
M  V30 14678 O 1374.44 1.92231 -1.91728 0
M  V30 14679 C 1372.9 -0.0442411 -3.59873 0
M  V30 14680 C 1372.51 -1.40625 -4.25357 0
M  V30 14681 C 1374.25 0.422556 -4.22392 0
M  V30 14682 C 1372.16 -1.3557 -5.75652 0
M  V30 14683 H 1371.09 -0.0160537 -0.753829 0
M  V30 14684 H 1373.74 -0.723518 -1.68634 0
M  V30 14685 H 1372.12 0.692225 -3.89903 0
M  V30 14686 H 1373.3 -2.1617 -4.06949 0
M  V30 14687 H 1371.61 -1.81229 -3.74893 0
M  V30 14688 H 1374.21 0.479021 -5.3255 0
M  V30 14689 H 1374.55 1.43806 -3.90673 0
M  V30 14690 H 1375.08 -0.259551 -3.96952 0
M  V30 14691 H 1371.82 -2.34772 -6.12015 0
M  V30 14692 H 1371.34 -0.642309 -5.96351 0
M  V30 14693 H 1373.02 -1.06458 -6.38182 0
M  V30 14694 N 1373.15 1.5451 -0.310553 0
M  V30 14695 C 1374.09 2.2134 0.595098 0
M  V30 14696 C 1375.1 1.20917 1.09009 0
M  V30 14697 O 1376.29 1.47458 1.0059 0
M  V30 14698 C 1373.39 2.85384 1.82782 0
M  V30 14699 C 1372.56 4.11826 1.47372 0
M  V30 14700 C 1371.62 4.59584 2.56259 0
M  V30 14701 O 1370.65 5.24567 2.20949 0
M  V30 14702 N 1371.85 4.32709 3.86967 0
M  V30 14703 H 1374.61 2.99691 0.0229291 0
M  V30 14704 H 1372.17 1.61351 -0.133173 0
M  V30 14705 H 1374.17 3.14263 2.54992 0
M  V30 14706 H 1372.74 2.10816 2.30815 0
M  V30 14707 H 1371.96 3.89853 0.583826 0
M  V30 14708 H 1373.24 4.94138 1.21265 0
M  V30 14709 H 1372.64 3.80669 4.18458 0
M  V30 14710 H 1371.2 4.66275 4.55446 0
M  V30 14711 N 1374.63 0.0384594 1.57553 0
M  V30 14712 C 1375.58 -0.949625 2.07283 0
M  V30 14713 C 1376.57 -1.27973 0.975284 0
M  V30 14714 O 1377.76 -1.26428 1.23875 0
M  V30 14715 C 1374.89 -2.22887 2.61106 0
M  V30 14716 C 1373.97 -1.92672 3.77807 0
M  V30 14717 N 1374.37 -1.32764 4.88065 0
M  V30 14718 C 1372.66 -2.22612 3.86471 0
M  V30 14719 C 1373.36 -1.19892 5.69211 0
M  V30 14720 N 1372.34 -1.69757 5.16414 0
M  V30 14721 H 1376.14 -0.481562 2.89928 0
M  V30 14722 H 1373.66 -0.166321 1.61546 0
M  V30 14723 H 1375.65 -2.94556 2.9503 0
M  V30 14724 H 1374.31 -2.70311 1.79895 0
M  V30 14725 H 1375.32 -1.00146 5.08125 0
M  V30 14726 H 1372 -2.72645 3.16182 0
M  V30 14727 H 1373.39 -0.734892 6.67869 0
M  V30 14728 N 1376.11 -1.55841 -0.234795 0
M  V30 14729 C 1377.39 -1.69008 -0.984665 0
M  V30 14730 C 1377.77 -0.581882 -2.02922 0
M  V30 14731 O 1377.12 0.412998 -2.24737 0
M  V30 14732 C 1377.33 -3.09796 -1.60708 0
M  V30 14733 C 1378.67 -3.68784 -2.10436 0
M  V30 14734 O 1379.7 -3.12674 -1.70627 0
M  V30 14735 O 1378.56 -4.67175 -2.83567 0
M  V30 14736 H 1375.65 -0.68786 -0.459105 0
M  V30 14737 H 1378.2 -1.68166 -0.227623 0
M  V30 14738 H 1376.97 -3.81908 -0.852169 0
M  V30 14739 H 1376.59 -3.147 -2.43001 0
M  V30 14740 N 1377.59 0.500963 -1.49426 0
M  V30 14741 C 1378.52 1.6192 -1.62217 0
M  V30 14742 C 1379.53 1.54774 -0.504868 0
M  V30 14743 O 1380.72 1.60705 -0.776919 0
M  V30 14744 C 1377.82 3.0071 -1.56291 0
M  V30 14745 C 1377 3.3304 -2.83555 0
M  V30 14746 C 1376.06 4.51241 -2.7068 0
M  V30 14747 O 1375.08 4.53023 -3.44615 0
M  V30 14748 N 1376.28 5.51156 -1.82228 0
M  V30 14749 H 1379.05 1.51374 -2.58662 0
M  V30 14750 H 1376.61 0.688837 -1.46515 0
M  V30 14751 H 1378.6 3.77705 -1.45332 0
M  V30 14752 H 1377.17 3.0518 -0.677043 0
M  V30 14753 H 1376.39 2.44942 -3.08865 0
M  V30 14754 H 1377.68 3.51437 -3.67926 0
M  V30 14755 H 1377.08 5.52516 -1.21417 0
M  V30 14756 H 1375.63 6.27253 -1.77192 0
M  V30 14757 N 1379.07 1.38501 0.752011 0
M  V30 14758 C 1380.29 1.38212 1.54636 0
M  V30 14759 C 1380.72 -0.0256356 1.88083 0
M  V30 14760 O 1380.08 -1.00812 1.50687 0
M  V30 14761 C 1380.12 2.24597 2.82114 0
M  V30 14762 O 1379.23 1.66415 3.77332 0
M  V30 14763 H 1378.57 0.47138 0.46765 0
M  V30 14764 H 1381.1 1.82283 0.929205 0
M  V30 14765 H 1381.11 2.38511 3.31023 0
M  V30 14766 H 1379.78 3.26913 2.57101 0
M  V30 14767 H 1378.36 1.61651 3.36041 0
M  V30 14768 N 1380.55 -0.980364 1.23396 0
M  V30 14769 C 1381.79 -1.71592 1.06015 0
M  V30 14770 C 1382.11 -1.91401 -0.403103 0
M  V30 14771 O 1383.31 -2.62405 -0.696853 0
M  V30 14772 C 1381.77 -3.08795 1.84861 0
M  V30 14773 C 1381.38 -2.96873 3.35515 0
M  V30 14774 C 1383.12 -3.8631 1.75968 0
M  V30 14775 C 1381.03 -4.29308 4.06753 0
M  V30 14776 H 1379.96 -0.643423 0.393095 0
M  V30 14777 H 1382.61 -1.09345 1.47363 0
M  V30 14778 H 1380.99 -3.71797 1.36318 0
M  V30 14779 H 1382.17 -2.4296 3.91544 0
M  V30 14780 H 1380.48 -2.32833 3.45221 0
M  V30 14781 H 1383.08 -4.84355 2.26504 0
M  V30 14782 H 1383.42 -4.09983 0.722464 0
M  V30 14783 H 1383.95 -3.3001 2.22122 0
M  V30 14784 H 1380.69 -4.10831 5.10782 0
M  V30 14785 H 1380.21 -4.83086 3.55511 0
M  V30 14786 H 1381.89 -4.97995 4.1305 0
M  V30 14787 N 1382.02 -1.04567 -1.17913 0
M  V30 14788 C 1382.93 -0.651674 -2.25367 0
M  V30 14789 C 1383.95 0.32437 -1.7095 0
M  V30 14790 O 1385.13 0.178039 -2.00612 0
M  V30 14791 C 1382.19 -0.0259452 -3.4669 0
M  V30 14792 C 1381.25 -1.05163 -4.1622 0
M  V30 14793 C 1380.48 -0.45567 -5.31751 0
M  V30 14794 O 1380.71 0.736698 -5.65623 0
M  V30 14795 O 1379.64 -1.18684 -5.90083 0
M  V30 14796 H 1383.47 -1.54704 -2.61344 0
M  V30 14797 H 1381.05 -0.816852 -1.25092 0
M  V30 14798 H 1382.93 0.322126 -4.20167 0
M  V30 14799 H 1381.61 0.843165 -3.12526 0
M  V30 14800 H 1380.52 -1.45159 -3.44789 0
M  V30 14801 H 1381.85 -1.89168 -4.54397 0
M  V30 14802 N 1383.5 1.34231 -0.825823 0
M  V30 14803 C 1384.73 2.02949 -0.427354 0
M  V30 14804 C 1385.15 1.61772 0.959755 0
M  V30 14805 O 1384.51 0.803799 1.62508 0
M  V30 14806 C 1384.56 3.56522 -0.540799 0
M  V30 14807 O 1383.66 4.10065 0.438213 0
M  V30 14808 H 1383 0.640378 -0.175535 0
M  V30 14809 H 1385.53 1.71416 -1.11704 0
M  V30 14810 H 1385.54 4.05857 -0.41763 0
M  V30 14811 H 1384.22 3.85839 -1.55246 0
M  V30 14812 H 1382.79 3.71894 0.273687 0
M  V30 14813 N 1384.98 0.581051 1.46498 0
M  V30 14814 C 1385.91 -0.140957 2.33074 0
M  V30 14815 C 1386.89 -0.885323 1.45245 0
M  V30 14816 O 1388.08 -0.86111 1.74065 0
M  V30 14817 C 1385.21 -1.15625 3.27488 0
M  V30 14818 C 1384.16 -0.526829 4.24745 0
M  V30 14819 C 1383.49 -1.64847 5.08655 0
M  V30 14820 C 1384.79 0.53492 5.19554 0
M  V30 14821 H 1386.48 0.581888 2.93691 0
M  V30 14822 H 1384.03 0.281278 1.41226 0
M  V30 14823 H 1385.98 -1.6697 3.8691 0
M  V30 14824 H 1384.7 -1.90935 2.64974 0
M  V30 14825 H 1383.36 -0.0344738 3.66584 0
M  V30 14826 H 1383.01 -2.3912 4.42528 0
M  V30 14827 H 1382.71 -1.23298 5.74518 0
M  V30 14828 H 1384.23 -2.16472 5.7094 0
M  V30 14829 H 1385.65 0.106606 5.73201 0
M  V30 14830 H 1384.04 0.870639 5.93751 0
M  V30 14831 H 1385.11 1.42184 4.63586 0
M  V30 14832 N 1386.46 -1.54343 0.318742 0
M  V30 14833 C 1387.71 -1.9966 -0.286146 0
M  V30 14834 C 1388.02 -1.21073 -1.53625 0
M  V30 14835 O 1389.23 -1.56744 -2.21684 0
M  V30 14836 C 1387.68 -3.5551 -0.560405 0
M  V30 14837 C 1387.29 -4.42926 0.672373 0
M  V30 14838 C 1389.03 -4.09307 -1.12551 0
M  V30 14839 C 1386.94 -5.9024 0.370285 0
M  V30 14840 H 1385.87 -0.74583 -0.110698 0
M  V30 14841 H 1388.52 -1.78386 0.430215 0
M  V30 14842 H 1386.9 -3.72753 -1.33683 0
M  V30 14843 H 1388.08 -4.37458 1.448 0
M  V30 14844 H 1386.39 -3.99993 1.15736 0
M  V30 14845 H 1388.99 -5.16955 -1.36607 0
M  V30 14846 H 1389.33 -3.60994 -2.07338 0
M  V30 14847 H 1389.87 -3.95677 -0.410385 0
M  V30 14848 H 1386.6 -6.42738 1.28719 0
M  V30 14849 H 1386.12 -5.98672 -0.367731 0
M  V30 14850 H 1387.8 -6.46996 -0.0216582 0
M  V30 14851 N 1387.94 -0.0468143 -1.5753 0
M  V30 14852 C 1388.87 0.927092 -2.14306 0
M  V30 14853 C 1389.85 1.32745 -1.06362 0
M  V30 14854 O 1391.03 1.40293 -1.34281 0
M  V30 14855 C 1388.16 2.20343 -2.68452 0
M  V30 14856 C 1387.12 1.94328 -3.81341 0
M  V30 14857 C 1386.44 3.28379 -4.21985 0
M  V30 14858 C 1387.74 1.26835 -5.06666 0
M  V30 14859 H 1389.44 0.454199 -2.95935 0
M  V30 14860 H 1386.98 0.217029 -1.42355 0
M  V30 14861 H 1388.93 2.8887 -3.0681 0
M  V30 14862 H 1387.66 2.6983 -1.84009 0
M  V30 14863 H 1386.32 1.28214 -3.43448 0
M  V30 14864 H 1385.97 3.75658 -3.34499 0
M  V30 14865 H 1385.67 3.11772 -4.98068 0
M  V30 14866 H 1387.19 3.98145 -4.6294 0
M  V30 14867 H 1388.6 1.85389 -5.42498 0
M  V30 14868 H 1387 1.20569 -5.87863 0
M  V30 14869 H 1388.07 0.243759 -4.84287 0
M  V30 14870 N 1389.41 1.55964 0.226527 0
M  V30 14871 C 1390.83 1.48844 0.575999 0
M  V30 14872 C 1391.03 0.740966 1.87382 0
M  V30 14873 O 1390.09 0.278599 2.50958 0
M  V30 14874 C 1391.4 2.93371 0.65984 0
M  V30 14875 C 1392.95 3.03862 0.750802 0
M  V30 14876 C 1393.42 4.49738 0.86603 0
M  V30 14877 N 1394.91 4.5376 0.930379 0
M  V30 14878 C 1395.65 5.63905 1.03916 0
M  V30 14879 N 1395.14 6.83814 1.1122 0
M  V30 14880 N 1396.94 5.51746 1.07391 0
M  V30 14881 H 1389.09 2.02991 -0.625179 0
M  V30 14882 H 1391.35 0.922435 -0.218674 0
M  V30 14883 H 1391.06 3.50985 -0.22411 0
M  V30 14884 H 1390.93 3.44994 1.52509 0
M  V30 14885 H 1393.32 2.46316 1.6252 0
M  V30 14886 H 1393.4 2.55416 -0.140019 0
M  V30 14887 H 1393.04 5.079 -0.00388632 0
M  V30 14888 H 1392.97 4.95884 1.77219 0
M  V30 14889 H 1395.46 3.67404 0.884451 0
M  V30 14890 H 1395.78 7.63507 1.19484 0
M  V30 14891 H 1394.12 6.86535 1.08142 0
M  V30 14892 H 1397.31 4.56997 1.01347 0
M  V30 14893 H 1397.49 6.37619 1.15523 0
M  V30 14894 N 1390.89 -0.493031 1.4969 0
M  V30 14895 C 1392.17 -1.25436 1.50084 0
M  V30 14896 C 1392.55 -2.0981 0.233038 0
M  V30 14897 O 1391.9 -2.14617 -0.784342 0
M  V30 14898 C 1392.11 -2.10425 2.78428 0
M  V30 14899 C 1393.46 -2.69349 3.28232 0
M  V30 14900 O 1394.48 -2.20686 2.796 0
M  V30 14901 O 1393.34 -3.57956 4.12953 0
M  V30 14902 H 1390.43 -0.568044 0.601045 0
M  V30 14903 H 1392.98 -0.506648 1.6196 0
M  V30 14904 H 1391.75 -1.48108 3.62187 0
M  V30 14905 H 1391.37 -2.92374 2.6945 0
M  V30 14906 N 1392.37 -1.38898 -0.744656 0
M  V30 14907 C 1393.79 -1.20291 -1.04892 0
M  V30 14908 C 1393.99 -0.0577705 -2.01417 0
M  V30 14909 O 1393.04 0.593638 -2.45422 0
M  V30 14910 C 1394.36 -2.53302 -1.62045 0
M  V30 14911 C 1395.9 -2.60063 -1.74173 0
M  V30 14912 C 1396.38 -3.93272 -2.34736 0
M  V30 14913 N 1397.87 -3.9486 -2.42157 0
M  V30 14914 C 1398.6 -4.94698 -2.89933 0
M  V30 14915 N 1398.1 -6.04934 -3.37678 0
M  V30 14916 N 1399.89 -4.82083 -2.89055 0
M  V30 14917 H 1392.04 -2.12144 -0.104294 0
M  V30 14918 H 1394.31 -0.941725 -0.108895 0
M  V30 14919 H 1394.01 -3.376 -0.985868 0
M  V30 14920 H 1393.89 -2.72335 -2.60986 0
M  V30 14921 H 1396.27 -1.76155 -2.36756 0
M  V30 14922 H 1396.36 -2.44889 -0.739115 0
M  V30 14923 H 1396 -4.77607 -1.72784 0
M  V30 14924 H 1395.93 -4.05762 -3.35656 0
M  V30 14925 H 1398.42 -3.15243 -2.08399 0
M  V30 14926 H 1398.73 -6.77036 -3.72616 0
M  V30 14927 H 1397.08 -6.08541 -3.35712 0
M  V30 14928 H 1400.27 -3.9507 -2.51072 0
M  V30 14929 H 1400.44 -5.60039 -3.25975 0
M  V30 14930 N 1393.85 0.973806 -1.23914 0
M  V30 14931 C 1395.1 1.71027 -1.06923 0
M  V30 14932 C 1395.41 1.91612 0.392947 0
M  V30 14933 O 1396.62 2.62771 0.682927 0
M  V30 14934 C 1395.07 3.07811 -1.86496 0
M  V30 14935 C 1394.68 2.9509 -3.37085 0
M  V30 14936 C 1396.42 3.85371 -1.78015 0
M  V30 14937 C 1394.33 4.27145 -4.09024 0
M  V30 14938 H 1393.26 0.641329 -0.396501 0
M  V30 14939 H 1395.91 1.08562 -1.47941 0
M  V30 14940 H 1394.29 3.71069 -1.38288 0
M  V30 14941 H 1395.47 2.4088 -3.92827 0
M  V30 14942 H 1393.78 2.30999 -3.46451 0
M  V30 14943 H 1396.38 4.83147 -2.2907 0
M  V30 14944 H 1396.72 4.09594 -0.744196 0
M  V30 14945 H 1397.26 3.28827 -2.23869 0
M  V30 14946 H 1394 4.08117 -5.12953 0
M  V30 14947 H 1393.52 4.81194 -3.58068 0
M  V30 14948 H 1395.19 4.95798 -4.15685 0
M  V30 14949 N 1395.33 1.05191 1.17357 0
M  V30 14950 C 1396.56 0.781238 1.9126 0
M  V30 14951 C 1396.96 -0.66688 1.77057 0
M  V30 14952 O 1396.31 -1.4673 1.10526 0
M  V30 14953 C 1396.37 1.08225 3.42823 0
M  V30 14954 C 1396.03 2.52655 3.80808 0
M  V30 14955 C 1397.03 3.50864 3.83654 0
M  V30 14956 C 1394.72 2.87664 4.11771 0
M  V30 14957 C 1396.71 4.82127 4.16932 0
M  V30 14958 C 1394.4 4.1913 4.44717 0
M  V30 14959 C 1395.39 5.16172 4.47276 0
M  V30 14960 O 1395.08 6.4528 4.79447 0
M  V30 14961 H 1394.81 0.283516 0.613673 0
M  V30 14962 H 1397.37 1.40577 1.49758 0
M  V30 14963 H 1395.6 0.400623 3.84619 0
M  V30 14964 H 1397.29 0.797593 3.97987 0
M  V30 14965 H 1398.05 3.25158 3.59857 0
M  V30 14966 H 1393.93 2.12793 4.0895 0
M  V30 14967 H 1397.48 5.57867 4.18844 0
M  V30 14968 H 1393.37 4.44599 4.67976 0
M  V30 14969 H 1394.14 6.50101 4.97304 0
M  V30 14970 N 1396.8 -1.33791 0.83293 0
M  V30 14971 C 1397.75 -2.31249 0.250357 0
M  V30 14972 C 1398.75 -1.57865 -0.614403 0
M  V30 14973 O 1399.95 -1.72782 -0.504627 0
M  V30 14974 H 1396.33 -0.749421 0.0622268 0
M  V30 14975 H 1398.3 -2.77899 1.08697 0
M  V30 14976 C 1397.05 -3.43082 -0.564783 0
M  V30 14977 H 1396.37 -3.99696 0.0913189 0
M  V30 14978 H 1397.81 -4.13486 -0.938351 0
M  V30 14979 C 1396.27 -2.88414 -1.74124 0
M  V30 14980 O 1396.8 -2.84113 -2.83976 0
M  V30 14981 N 1395.01 -2.45101 -1.56121 0
M  V30 14982 H 1394.55 -2.48799 -0.667607 0
M  V30 14983 H 1394.51 -2.08875 -2.34986 0
M  V30 14984 N 1398.28 -0.588812 -1.46187 0
M  V30 14985 C 1399.51 -0.0806571 -2.07243 0
M  V30 14986 C 1399.93 1.21766 -1.43369 0
M  V30 14987 O 1399.29 1.73694 -0.51964 0
M  V30 14988 C 1399.34 0.065267 -3.60541 0
M  V30 14989 O 1398.44 1.12026 -3.96893 0
M  V30 14990 H 1397.78 -0.0655622 -0.660755 0
M  V30 14991 H 1400.31 -0.813489 -1.87733 0
M  V30 14992 H 1400.32 0.269494 -4.07109 0
M  V30 14993 H 1399 -0.88284 -4.06422 0
M  V30 14994 H 1397.58 0.894 -3.62025 0
M  V30 14995 N 1399.76 1.54172 -0.326923 0
M  V30 14996 C 1400.72 2.2311 0.524855 0
M  V30 14997 C 1401.72 1.22567 1.04087 0
M  V30 14998 O 1402.91 1.47123 0.932759 0
M  V30 14999 C 1400.05 2.93778 1.72937 0
M  V30 15000 H 1401.24 2.99799 -0.0778327 0
M  V30 15001 H 1398.79 1.56105 -0.0780484 0
M  V30 15002 H 1399.53 2.21234 2.3712 0
M  V30 15003 H 1399.31 3.67509 1.36674 0
M  V30 15004 H 1400.8 3.46292 2.33392 0
M  V30 15005 N 1401.24 0.0551678 1.57503 0
M  V30 15006 C 1402.19 -0.935665 2.12951 0
M  V30 15007 C 1403.18 -1.31954 1.06229 0
M  V30 15008 O 1404.39 -1.29873 1.24632 0
M  V30 15009 H 1400.76 -0.319618 0.680697 0
M  V30 15010 H 1402.73 -0.442937 2.95094 0
M  V30 15011 C 1401.48 -2.19977 2.69268 0
M  V30 15012 H 1400.8 -1.91319 3.51051 0
M  V30 15013 H 1402.24 -2.87456 3.11681 0
M  V30 15014 C 1400.7 -2.94714 1.63233 0
M  V30 15015 O 1401.23 -3.87803 1.04747 0
M  V30 15016 N 1399.44 -2.57518 1.34659 0
M  V30 15017 H 1398.99 -1.81894 1.82407 0
M  V30 15018 H 1398.94 -3.07829 0.639425 0
M  V30 15019 N 1402.72 -1.56081 -0.218252 0
M  V30 15020 C 1403.67 -1.89082 -1.27405 0
M  V30 15021 C 1404.65 -0.754204 -1.42129 0
M  V30 15022 O 1405.84 -1.01668 -1.44888 0
M  V30 15023 C 1402.97 -2.21387 -2.62379 0
M  V30 15024 C 1402.06 -3.41448 -2.51543 0
M  V30 15025 N 1402.45 -4.5998 -2.10362 0
M  V30 15026 C 1400.75 -3.45128 -2.82494 0
M  V30 15027 C 1401.45 -5.42139 -2.10857 0
M  V30 15028 N 1400.42 -4.81936 -2.51472 0
M  V30 15029 H 1404.23 -2.78238 -0.946609 0
M  V30 15030 H 1401.74 -1.56691 -0.426801 0
M  V30 15031 H 1403.74 -2.43205 -3.38611 0
M  V30 15032 H 1402.4 -1.33545 -2.95966 0
M  V30 15033 H 1403.41 -4.85077 -1.8144 0
M  V30 15034 H 1400.08 -2.67638 -3.20431 0
M  V30 15035 H 1401.47 -6.47029 -1.81114 0
M  V30 15036 N 1404.2 0.485086 -1.49949 0
M  V30 15037 C 1405.44 1.23999 -1.60474 0
M  V30 15038 C 1405.77 1.91904 -0.297736 0
M  V30 15039 O 1405.05 1.81472 0.699857 0
M  V30 15040 C 1405.33 2.2946 -2.77525 0
M  V30 15041 C 1405.19 1.65952 -4.18067 0
M  V30 15042 C 1406.5 3.30893 -2.90169 0
M  V30 15043 H 1403.62 0.449462 -0.584083 0
M  V30 15044 H 1406.27 0.535795 -1.82289 0
M  V30 15045 H 1404.42 2.89521 -2.59056 0
M  V30 15046 H 1406.09 1.09596 -4.48092 0
M  V30 15047 H 1404.33 0.963079 -4.22974 0
M  V30 15048 H 1405 2.42521 -4.9587 0
M  V30 15049 H 1407.48 2.8084 -3.07031 0
M  V30 15050 H 1406.35 4.02027 -3.73718 0
M  V30 15051 H 1406.61 3.94178 -2.0019 0
M  V30 15052 N 1405.67 1.39291 0.737279 0
M  V30 15053 C 1406.6 1.40562 1.86452 0
M  V30 15054 C 1407.58 0.269283 1.67955 0
M  V30 15055 O 1408.77 0.474769 1.88307 0
M  V30 15056 C 1405.9 1.2461 3.24175 0
M  V30 15057 C 1404.85 2.35619 3.57306 0
M  V30 15058 C 1404.18 2.04758 4.93941 0
M  V30 15059 C 1405.48 3.77927 3.60512 0
M  V30 15060 H 1407.17 2.34896 1.85646 0
M  V30 15061 H 1404.72 1.13065 0.891756 0
M  V30 15062 H 1406.67 1.2412 4.02706 0
M  V30 15063 H 1405.4 0.267438 3.25503 0
M  V30 15064 H 1404.06 2.35322 2.81104 0
M  V30 15065 H 1403.7 1.05336 4.91847 0
M  V30 15066 H 1403.4 2.79117 5.17076 0
M  V30 15067 H 1404.93 2.05915 5.74832 0
M  V30 15068 H 1406.34 3.80166 4.29123 0
M  V30 15069 H 1404.74 4.51626 3.95164 0
M  V30 15070 H 1405.81 4.09068 2.60368 0
M  V30 15071 N 1407.15 -0.967221 1.24429 0
M  V30 15072 C 1408.39 -1.72521 1.09617 0
M  V30 15073 C 1408.76 -1.88618 -0.358774 0
M  V30 15074 O 1409.96 -2.61351 -0.628408 0
M  V30 15075 C 1408.23 -3.07818 1.81612 0
M  V30 15076 S 1409.79 -3.99031 1.82537 0
M  V30 15077 H 1406.6 -0.593148 0.392041 0
M  V30 15078 H 1409.21 -1.15456 1.57766 0
M  V30 15079 H 1407.91 -2.93762 2.86586 0
M  V30 15080 H 1407.44 -3.69948 1.33799 0
M  V30 15081 H 1409.46 -4.88091 0.893391 0
M  V30 15082 N 1408.63 -1.05812 -1.16797 0
M  V30 15083 C 1409.56 -0.622584 -2.20582 0
M  V30 15084 C 1410.57 0.316905 -1.59686 0
M  V30 15085 O 1411.76 0.108657 -1.78169 0
M  V30 15086 C 1408.86 0.108124 -3.38727 0
M  V30 15087 C 1408.04 -0.84363 -4.29187 0
M  V30 15088 C 1407.1 -0.15305 -5.25977 0
M  V30 15089 O 1406.12 -0.78915 -5.63703 0
M  V30 15090 N 1407.32 1.10721 -5.69843 0
M  V30 15091 H 1410.09 -1.51532 -2.5857 0
M  V30 15092 H 1407.65 -0.940815 -1.31758 0
M  V30 15093 H 1409.64 0.580395 -4.00517 0
M  V30 15094 H 1408.21 0.902599 -2.99286 0
M  V30 15095 H 1407.43 -1.49538 -3.64735 0
M  V30 15096 H 1408.72 -1.48946 -4.86511 0
M  V30 15097 H 1408.12 1.64423 -5.41278 0
M  V30 15098 H 1406.67 1.52344 -6.33746 0
M  V30 15099 N 1410.11 1.33347 -0.840014 0
M  V30 15100 C 1411.04 2.28029 -0.231432 0
M  V30 15101 C 1412.05 1.51792 0.588488 0
M  V30 15102 O 1413.24 1.736 0.415371 0
M  V30 15103 C 1410.34 3.31745 0.692721 0
M  V30 15104 C 1409.51 4.37311 -0.0881144 0
M  V30 15105 C 1408.57 5.20689 0.759557 0
M  V30 15106 O 1407.6 5.68854 0.198347 0
M  V30 15107 N 1408.8 5.42082 2.07672 0
M  V30 15108 H 1411.57 2.80893 -1.04495 0
M  V30 15109 H 1409.13 1.46053 -0.698586 0
M  V30 15110 H 1411.12 3.84428 1.2648 0
M  V30 15111 H 1409.69 2.79148 1.40695 0
M  V30 15112 H 1408.91 3.85112 -0.841579 0
M  V30 15113 H 1410.2 5.04947 -0.624986 0
M  V30 15114 H 1409.6 5.04654 2.55619 0
M  V30 15115 H 1408.15 5.97817 2.59726 0
M  V30 15116 N 1411.59 0.596556 1.45873 0
M  V30 15117 C 1412.83 0.0850976 2.0152 0
M  V30 15118 C 1413.15 -1.28799 1.47208 0
M  V30 15119 O 1414.35 -1.89156 1.94762 0
M  V30 15120 C 1412.81 0.101488 3.59757 0
M  V30 15121 C 1412.42 1.47374 4.23066 0
M  V30 15122 C 1414.16 -0.355303 4.2301 0
M  V30 15123 C 1412.07 1.44711 5.73422 0
M  V30 15124 H 1411 0.0280444 0.753478 0
M  V30 15125 H 1413.65 0.750255 1.67462 0
M  V30 15126 H 1412.03 -0.630108 3.90955 0
M  V30 15127 H 1413.21 2.22617 4.03458 0
M  V30 15128 H 1411.52 1.87171 3.71962 0
M  V30 15129 H 1414.12 -0.394236 5.33245 0
M  V30 15130 H 1414.46 -1.37573 3.92911 0
M  V30 15131 H 1414.99 0.32267 3.96489 0
M  V30 15132 H 1411.73 2.44479 6.08203 0
M  V30 15133 H 1411.25 0.737102 5.95254 0
M  V30 15134 H 1412.93 1.16598 6.36407 0
M  V30 15135 N 1413.06 -1.53996 0.335095 0
M  V30 15136 C 1414.01 -2.24736 -0.52559 0
M  V30 15137 C 1414.98 -1.24244 -1.10239 0
M  V30 15138 O 1416.17 -1.52955 -1.14058 0
M  V30 15139 C 1413.31 -3.01732 -1.67487 0
M  V30 15140 C 1412.42 -4.17062 -1.1262 0
M  V30 15141 C 1411.55 -4.81563 -2.2421 0
M  V30 15142 C 1410.59 -5.88977 -1.6665 0
M  V30 15143 N 1409.73 -6.47293 -2.71949 0
M  V30 15144 H 1414.57 -2.97881 0.0842008 0
M  V30 15145 H 1412.11 -1.47003 0.0533254 0
M  V30 15146 H 1414.06 -3.44626 -2.35135 0
M  V30 15147 H 1412.69 -2.30899 -2.25578 0
M  V30 15148 H 1411.75 -3.78869 -0.340917 0
M  V30 15149 H 1413.06 -4.94346 -0.665113 0
M  V30 15150 H 1412.21 -5.27486 -2.9974 0
M  V30 15151 H 1410.95 -4.03685 -2.73659 0
M  V30 15152 H 1409.96 -5.42446 -0.89623 0
M  V30 15153 H 1411.18 -6.68758 -1.18064 0
M  V30 15154 H 1409.13 -5.72283 -3.20668 0
M  V30 15155 H 1409.04 -7.20024 -2.30438 0
M  V30 15156 H 1410.31 -6.97869 -3.47273 0
M  V30 15157 N 1414.54 -0.0635198 -1.57472 0
M  V30 15158 C 1415.95 0.470372 -1.80678 0
M  V30 15159 C 1416.3 1.70158 -0.976771 0
M  V30 15160 O 1415.43 2.15502 -0.196893 0
M  V30 15161 C 1416.02 0.860129 -3.277 0
M  V30 15162 C 1414.58 1.33893 -3.51781 0
M  V30 15163 C 1413.73 0.320078 -2.75447 0
M  V30 15164 H 1416.68 -0.289295 -1.56041 0
M  V30 15165 H 1416.7 1.72216 -3.39296 0
M  V30 15166 H 1416.21 -0.0361525 -3.88083 0
M  V30 15167 H 1414.31 2.25399 -2.96692 0
M  V30 15168 H 1414.43 1.32257 -4.60483 0
M  V30 15169 H 1412.79 0.795601 -2.41955 0
M  V30 15170 H 1413.57 -0.568332 -3.38563 0
M  V30 15171 N 1416.02 1.56195 0.209972 0
M  V30 15172 C 1417.43 1.69811 0.775969 0
M  V30 15173 C 1417.78 0.667543 1.84495 0
M  V30 15174 O 1416.91 -0.179043 2.15658 0
M  V30 15175 C 1417.5 3.07869 1.41429 0
M  V30 15176 C 1416.06 3.233 1.92755 0
M  V30 15177 C 1415.21 2.6575 0.791958 0
M  V30 15178 H 1418.16 1.58693 -0.0148727 0
M  V30 15179 H 1418.18 3.04371 2.28339 0
M  V30 15180 H 1417.69 3.82853 0.63604 0
M  V30 15181 H 1415.79 2.53206 2.73345 0
M  V30 15182 H 1415.91 4.30645 2.09956 0
M  V30 15183 H 1414.27 2.24535 1.20234 0
M  V30 15184 H 1415.05 3.4329 0.0261877 0
M  V30 15185 N 1417.5 -0.477127 1.50204 0
M  V30 15186 C 1418.75 -1.22639 1.60133 0
M  V30 15187 C 1419.06 -1.93218 0.304333 0
M  V30 15188 O 1420.27 -2.70027 0.282457 0
M  V30 15189 C 1418.72 -2.22807 2.82639 0
M  V30 15190 C 1418.33 -1.58059 4.19191 0
M  V30 15191 C 1420.07 -2.98413 3.01911 0
M  V30 15192 C 1417.98 -2.56478 5.32891 0
M  V30 15193 H 1416.91 -0.461439 0.596314 0
M  V30 15194 H 1419.56 -0.497533 1.76626 0
M  V30 15195 H 1417.94 -2.98959 2.59692 0
M  V30 15196 H 1419.12 -0.877374 4.5237 0
M  V30 15197 H 1417.43 -0.947563 4.05475 0
M  V30 15198 H 1420.03 -3.72059 3.84026 0
M  V30 15199 H 1420.37 -3.57444 2.134 0
M  V30 15200 H 1420.91 -2.29375 3.25011 0
M  V30 15201 H 1417.64 -2.02194 6.23536 0
M  V30 15202 H 1417.16 -3.24969 5.04138 0
M  V30 15203 H 1418.84 -3.18429 5.63216 0
M  V30 15204 N 1418.98 -1.3968 -0.729882 0
M  V30 15205 C 1420.2 -1.40654 -1.52418 0
M  V30 15206 C 1420.63 -0.00428997 -1.881 0
M  V30 15207 O 1419.98 0.984023 -1.52272 0
M  V30 15208 C 1420.03 -2.29057 -2.78506 0
M  V30 15209 O 1419.14 -1.72397 -3.74637 0
M  V30 15210 H 1418.48 -0.478761 -0.460091 0
M  V30 15211 H 1421.01 -1.83738 -0.900087 0
M  V30 15212 H 1421.02 -2.43748 -3.27187 0
M  V30 15213 H 1419.69 -3.30961 -2.51868 0
M  V30 15214 H 1418.27 -1.66977 -3.33426 0
M  V30 15215 N 1420.45 0.960609 -1.2494 0
M  V30 15216 C 1421.87 1.51915 -1.0853 0
M  V30 15217 C 1422.22 1.93215 0.340949 0
M  V30 15218 O 1421.34 1.78031 1.2302 0
M  V30 15219 C 1421.94 2.76069 -1.96396 0
M  V30 15220 C 1420.5 3.28255 -1.84189 0
M  V30 15221 C 1419.64 2.01124 -1.90905 0
M  V30 15222 H 1422.59 0.778141 -1.38314 0
M  V30 15223 H 1422.61 3.49668 -1.50042 0
M  V30 15224 H 1422.13 2.45979 -3.00193 0
M  V30 15225 H 1420.23 3.6318 -0.832518 0
M  V30 15226 H 1420.34 3.96675 -2.68673 0
M  V30 15227 H 1418.7 2.16155 -1.34718 0
M  V30 15228 H 1419.49 1.73389 -2.96295 0
M  V30 15229 N 1421.93 1.0643 1.16234 0
M  V30 15230 C 1423.18 0.78184 1.86798 0
M  V30 15231 C 1423.51 -0.691734 1.81784 0
M  V30 15232 O 1422.76 -1.52271 1.22931 0
M  V30 15233 C 1423.06 1.22348 3.35806 0
M  V30 15234 C 1422.73 2.7014 3.61019 0
M  V30 15235 C 1421.39 3.1051 3.6761 0
M  V30 15236 C 1423.74 3.65582 3.71482 0
M  V30 15237 C 1421.07 4.45159 3.82165 0
M  V30 15238 C 1423.42 4.99981 3.87559 0
M  V30 15239 C 1422.09 5.39986 3.92392 0
M  V30 15240 H 1421.36 0.286096 0.683542 0
M  V30 15241 H 1424 1.33364 1.37427 0
M  V30 15242 H 1422.31 0.590896 3.87319 0
M  V30 15243 H 1424 0.981959 3.88791 0
M  V30 15244 H 1420.59 2.37884 3.56524 0
M  V30 15245 H 1424.78 3.35525 3.657 0
M  V30 15246 H 1420.03 4.75637 3.8416 0
M  V30 15247 H 1424.21 5.73817 3.94597 0
M  V30 15248 H 1421.84 6.44324 4.03423 0
M  V30 15249 N 1423.41 -1.329 0.847073 0
M  V30 15250 C 1424.34 -2.27903 0.243522 0
M  V30 15251 C 1425.36 -1.52101 -0.58043 0
M  V30 15252 O 1426.54 -1.73818 -0.406158 0
M  V30 15253 C 1423.64 -3.32107 -0.675118 0
M  V30 15254 C 1422.82 -4.37258 0.111305 0
M  V30 15255 C 1421.88 -5.21085 -0.731933 0
M  V30 15256 O 1420.9 -5.68951 -0.168176 0
M  V30 15257 N 1422.1 -5.43175 -2.04794 0
M  V30 15258 H 1424.87 -2.80335 1.05983 0
M  V30 15259 H 1422.43 -1.4568 0.706322 0
M  V30 15260 H 1424.42 -3.85093 -1.2444 0
M  V30 15261 H 1422.99 -2.79891 -1.39212 0
M  V30 15262 H 1422.21 -3.8466 0.861991 0
M  V30 15263 H 1423.5 -5.04608 0.651756 0
M  V30 15264 H 1422.9 -5.06002 -2.5294 0
M  V30 15265 H 1421.46 -5.99186 -2.56552 0
M  V30 15266 N 1424.89 -0.604284 -1.45555 0
M  V30 15267 C 1426.14 -0.0957836 -2.01472 0
M  V30 15268 C 1426.45 1.28016 -1.47889 0
M  V30 15269 O 1427.66 1.88121 -1.95762 0
M  V30 15270 C 1426.11 -0.120566 -3.59698 0
M  V30 15271 C 1425.72 -1.49616 -4.22278 0
M  V30 15272 C 1427.46 0.332865 -4.23193 0
M  V30 15273 C 1425.37 -1.4775 -5.72646 0
M  V30 15274 H 1424.3 -0.0320399 -0.753319 0
M  V30 15275 H 1426.95 -0.759125 -1.67061 0
M  V30 15276 H 1425.33 0.609365 -3.91283 0
M  V30 15277 H 1426.51 -2.24753 -4.02272 0
M  V30 15278 H 1424.82 -1.89141 -3.70965 0
M  V30 15279 H 1427.42 0.365951 -5.33446 0
M  V30 15280 H 1427.76 1.35487 -3.93635 0
M  V30 15281 H 1428.3 -0.343692 -3.96313 0
M  V30 15282 H 1425.04 -2.47701 -6.06898 0
M  V30 15283 H 1424.56 -0.768659 -5.94854 0
M  V30 15284 H 1426.23 -1.19971 -6.3578 0
M  V30 15285 N 1426.37 1.53816 -0.343257 0
M  V30 15286 C 1427.61 2.01207 0.253721 0
M  V30 15287 C 1427.95 1.23069 1.50225 0
M  V30 15288 O 1427.22 0.31824 1.91879 0
M  V30 15289 C 1427.5 3.5559 0.56815 0
M  V30 15290 C 1427.36 4.44438 -0.692457 0
M  V30 15291 C 1428.68 4.17974 1.37788 0
M  V30 15292 H 1425.79 0.731392 0.0907427 0
M  V30 15293 H 1428.44 1.84254 -0.463736 0
M  V30 15294 H 1426.59 3.70166 1.17937 0
M  V30 15295 H 1428.26 4.41698 -1.33042 0
M  V30 15296 H 1426.5 4.13312 -1.3174 0
M  V30 15297 H 1427.17 5.5034 -0.427715 0
M  V30 15298 H 1429.65 4.07094 0.861043 0
M  V30 15299 H 1428.52 5.26068 1.56663 0
M  V30 15300 H 1428.79 3.72577 2.3799 0
M  V30 15301 N 1427.84 0.0718701 1.57436 0
M  V30 15302 C 1429.12 -0.638233 1.84894 0
M  V30 15303 C 1429.5 -1.87786 0.964343 0
M  V30 15304 O 1428.85 -2.28479 0.0306523 0
M  V30 15305 C 1429.06 -0.975817 3.3508 0
M  V30 15306 C 1430.41 -1.34927 4.02591 0
M  V30 15307 O 1431.43 -1.06754 3.39826 0
M  V30 15308 O 1430.29 -1.87589 5.13296 0
M  V30 15309 H 1427.38 -0.317 0.763832 0
M  V30 15310 H 1429.93 0.102807 1.69388 0
M  V30 15311 H 1428.7 -0.0953948 3.91184 0
M  V30 15312 H 1428.33 -1.77362 3.55849 0
M  V30 15313 N 1429.32 -1.56304 -0.201686 0
M  V30 15314 C 1430.57 -1.79433 -0.921241 0
M  V30 15315 C 1430.88 -0.643943 -1.84696 0
M  V30 15316 O 1432.09 -0.759359 -2.60665 0
M  V30 15317 C 1430.55 -3.17835 -1.68846 0
M  V30 15318 C 1430.15 -4.40655 -0.807892 0
M  V30 15319 C 1431.9 -3.50277 -2.39805 0
M  V30 15320 C 1429.81 -5.7008 -1.5736 0
M  V30 15321 H 1428.74 -0.669029 -0.34773 0
M  V30 15322 H 1431.39 -1.82667 -0.174657 0
M  V30 15323 H 1429.77 -3.08832 -2.47869 0
M  V30 15324 H 1430.94 -4.60765 -0.0567923 0
M  V30 15325 H 1429.26 -4.15873 -0.209465 0
M  V30 15326 H 1431.85 -4.44207 -2.97631 0
M  V30 15327 H 1432.2 -2.7371 -3.1367 0
M  V30 15328 H 1432.73 -3.60698 -1.67754 0
M  V30 15329 H 1429.47 -6.49595 -0.877855 0
M  V30 15330 H 1428.99 -5.53999 -2.2988 0
M  V30 15331 H 1430.67 -6.10964 -2.12912 0
M  V30 15332 N 1430.8 0.469154 -1.50455 0
M  V30 15333 C 1431.75 1.56691 -1.6946 0
M  V30 15334 C 1432.72 1.57217 -0.535921 0
M  V30 15335 O 1433.9 1.74717 -0.766715 0
M  V30 15336 C 1431.04 2.94651 -1.79651 0
M  V30 15337 C 1430.16 3.03899 -3.07033 0
M  V30 15338 C 1429.29 4.32786 -3.08009 0
M  V30 15339 C 1428.33 4.35784 -4.29836 0
M  V30 15340 N 1427.47 5.56145 -4.28541 0
M  V30 15341 H 1432.31 1.39791 -2.63178 0
M  V30 15342 H 1429.84 0.679628 -1.30459 0
M  V30 15343 H 1431.8 3.74658 -1.83541 0
M  V30 15344 H 1430.43 3.10182 -0.893713 0
M  V30 15345 H 1429.48 2.16754 -3.12605 0
M  V30 15346 H 1430.8 3.01974 -3.97005 0
M  V30 15347 H 1429.95 5.21141 -3.10639 0
M  V30 15348 H 1428.69 4.37323 -2.1587 0
M  V30 15349 H 1427.69 3.45825 -4.27417 0
M  V30 15350 H 1428.92 4.32937 -5.23204 0
M  V30 15351 H 1426.86 5.61464 -3.39256 0
M  V30 15352 H 1426.78 5.55969 -5.12284 0
M  V30 15353 H 1428.05 6.4662 -4.35319 0
M  V30 15354 N 1432.28 1.40065 0.722464 0
M  V30 15355 C 1433.69 1.33876 1.30131 0
M  V30 15356 C 1434.04 0.00899369 1.96198 0
M  V30 15357 O 1433.17 -0.893082 1.97112 0
M  V30 15358 C 1433.76 2.42469 2.36631 0
M  V30 15359 C 1432.32 2.39762 2.90157 0
M  V30 15360 C 1431.47 2.23704 1.63865 0
M  V30 15361 H 1434.42 1.49971 0.519077 0
M  V30 15362 H 1434.44 2.0998 3.17315 0
M  V30 15363 H 1433.95 3.39239 1.88517 0
M  V30 15364 H 1432.05 1.46669 3.42519 0
M  V30 15365 H 1432.16 3.35092 3.42419 0
M  V30 15366 H 1430.53 1.71098 1.88674 0
M  V30 15367 H 1431.31 3.22462 1.17785 0
M  V30 15368 N 1433.76 -0.95397 1.25448 0
M  V30 15369 C 1434.98 -1.73863 1.13077 0
M  V30 15370 C 1435.41 -1.85503 -0.311481 0
M  V30 15371 O 1434.77 -1.33596 -1.22564 0
M  V30 15372 C 1434.81 -3.13 1.79062 0
M  V30 15373 O 1433.92 -3.98258 1.07072 0
M  V30 15374 H 1433.26 -0.533921 0.394746 0
M  V30 15375 H 1435.79 -1.19571 1.66024 0
M  V30 15376 H 1435.8 -3.63456 1.85374 0
M  V30 15377 H 1434.47 -3.03844 2.83992 0
M  V30 15378 H 1433.05 -3.56722 1.08645 0
M  V30 15379 N 1435.24 -1.07045 -1.15668 0
M  V30 15380 C 1436.65 -0.814932 -1.67975 0
M  V30 15381 C 1437 0.660408 -1.84751 0
M  V30 15382 O 1436.12 1.51156 -1.54857 0
M  V30 15383 C 1436.72 -1.47274 -3.05116 0
M  V30 15384 C 1435.28 -1.26481 -3.54513 0
M  V30 15385 C 1434.42 -1.54439 -2.30312 0
M  V30 15386 H 1437.37 -1.23291 -0.999251 0
M  V30 15387 H 1437.4 -0.892244 -3.69891 0
M  V30 15388 H 1436.91 -2.54649 -2.92874 0
M  V30 15389 H 1435.01 -0.211138 -3.72001 0
M  V30 15390 H 1435.12 -1.98283 -4.36143 0
M  V30 15391 H 1433.49 -0.965269 -2.357 0
M  V30 15392 H 1434.27 -2.6299 -2.20661 0
M  V30 15393 N 1436.71 1.32449 -0.85411 0
M  V30 15394 C 1437.66 2.30821 -0.287115 0
M  V30 15395 C 1438.66 1.58823 0.58921 0
M  V30 15396 O 1439.86 1.73563 0.477075 0
M  V30 15397 H 1436.24 0.748336 -0.0741416 0
M  V30 15398 H 1438.21 2.76134 -1.13104 0
M  V30 15399 C 1436.96 3.43937 0.51013 0
M  V30 15400 H 1436.28 3.995 -0.154895 0
M  V30 15401 H 1437.72 4.14927 0.872451 0
M  V30 15402 C 1436.18 2.91147 1.69513 0
M  V30 15403 O 1436.71 2.88595 2.7942 0
M  V30 15404 N 1434.91 2.47554 1.52202 0
M  V30 15405 H 1434.46 2.49829 0.627941 0
M  V30 15406 H 1434.42 2.12587 2.31633 0
M  V30 15407 N 1438.19 0.611994 1.45232 0
M  V30 15408 C 1439.44 0.109073 2.02506 0
M  V30 15409 C 1439.77 -1.25876 1.47881 0
M  V30 15410 O 1439.05 -1.83131 0.65524 0
M  V30 15411 C 1439.33 0.0749288 3.60022 0
M  V30 15412 C 1439.18 1.47374 4.24972 0
M  V30 15413 C 1440.5 -0.610602 4.35844 0
M  V30 15414 H 1437.62 0.0411101 0.735853 0
M  V30 15415 H 1440.26 0.78481 1.73034 0
M  V30 15416 H 1438.41 -0.500511 3.85262 0
M  V30 15417 H 1440.08 2.0966 4.10902 0
M  V30 15418 H 1438.33 2.03319 3.83202 0
M  V30 15419 H 1439 1.40206 5.33897 0
M  V30 15420 H 1441.47 -0.121445 4.15923 0
M  V30 15421 H 1440.35 -0.603614 5.45571 0
M  V30 15422 H 1440.61 -1.6775 4.09038 0
M  V30 15423 N 1439.67 -1.53632 0.351409 0
M  V30 15424 C 1440.9 -2.0516 -0.243498 0
M  V30 15425 C 1441.31 -1.22559 -1.44138 0
M  V30 15426 O 1440.65 -0.255726 -1.81911 0
M  V30 15427 C 1440.71 -3.52324 -0.71469 0
M  V30 15428 C 1440.38 -4.55543 0.364598 0
M  V30 15429 C 1441.37 -5.05626 1.20987 0
M  V30 15430 C 1439.06 -4.99593 0.520779 0
M  V30 15431 C 1441.05 -5.98347 2.1968 0
M  V30 15432 C 1438.74 -5.92123 1.51109 0
M  V30 15433 C 1439.74 -6.41389 2.34754 0
M  V30 15434 O 1439.43 -7.32097 3.32098 0
M  V30 15435 H 1439.16 -0.674193 -0.0493948 0
M  V30 15436 H 1441.71 -1.99123 0.503919 0
M  V30 15437 H 1439.94 -3.55852 -1.51348 0
M  V30 15438 H 1441.63 -3.86783 -1.23102 0
M  V30 15439 H 1442.4 -4.72353 1.10033 0
M  V30 15440 H 1438.28 -4.60843 -0.120466 0
M  V30 15441 H 1441.82 -6.36724 2.85005 0
M  V30 15442 H 1437.72 -6.24811 1.62116 0
M  V30 15443 H 1438.48 -7.50053 3.27662 0
M  V30 15444 N 1441.15 -0.0802183 -1.57396 0
M  V30 15445 C 1442.08 0.913777 -2.10197 0
M  V30 15446 C 1443.09 1.25588 -1.03593 0
M  V30 15447 O 1444.28 1.21159 -1.31083 0
M  V30 15448 C 1441.38 2.2272 -2.55439 0
M  V30 15449 C 1440.55 2.06268 -3.8571 0
M  V30 15450 C 1439.61 3.20989 -4.16956 0
M  V30 15451 O 1438.64 2.95608 -4.8642 0
M  V30 15452 N 1439.84 4.46331 -3.71172 0
M  V30 15453 H 1442.61 0.462908 -2.96103 0
M  V30 15454 H 1440.17 0.105287 -1.61557 0
M  V30 15455 H 1442.16 2.98389 -2.73397 0
M  V30 15456 H 1440.73 2.59278 -1.74624 0
M  V30 15457 H 1439.95 1.15016 -3.77048 0
M  V30 15458 H 1441.24 1.92535 -4.70965 0
M  V30 15459 H 1440.64 4.69837 -3.15071 0
M  V30 15460 H 1439.19 5.18999 -3.94314 0
M  V30 15461 N 1442.63 1.56409 0.193394 0
M  V30 15462 C 1443.57 1.95572 1.25914 0
M  V30 15463 C 1444.57 0.841384 1.47028 0
M  V30 15464 O 1445.77 1.0264 1.47868 0
M  V30 15465 H 1442.15 0.621914 0.422761 0
M  V30 15466 H 1444.12 2.84446 0.901827 0
M  V30 15467 C 1442.87 2.31293 2.59613 0
M  V30 15468 H 1442.19 3.16568 2.44182 0
M  V30 15469 H 1443.63 2.62558 3.32926 0
M  V30 15470 C 1442.09 1.14818 3.16731 0
M  V30 15471 O 1442.62 0.424105 3.99455 0
M  V30 15472 N 1440.83 0.924536 2.75501 0
M  V30 15473 H 1440.37 1.51509 2.08334 0
M  V30 15474 H 1440.33 0.147006 3.14056 0
M  V30 15475 N 1444.1 -0.461169 1.50702 0
M  V30 15476 C 1445.05 -1.57861 1.70829 0
M  V30 15477 C 1446.05 -1.59371 0.57423 0
M  V30 15478 O 1447.25 -1.63401 0.754996 0
M  V30 15479 H 1443.63 -0.524015 0.539363 0
M  V30 15480 H 1445.6 -1.3805 2.64546 0
M  V30 15481 C 1444.35 -2.95724 1.82873 0
M  V30 15482 H 1443.67 -2.95285 2.6953 0
M  V30 15483 H 1445.11 -3.73342 2.00977 0
M  V30 15484 C 1443.57 -3.31823 0.582691 0
M  V30 15485 O 1444.1 -4.00767 -0.273623 0
M  V30 15486 N 1442.3 -2.87344 0.433781 0
M  V30 15487 H 1441.85 -2.31411 1.13166 0
M  V30 15488 H 1441.81 -3.11861 -0.398743 0
M  V30 15489 N 1445.58 -1.40446 -0.715026 0
M  V30 15490 C 1446.51 -1.35159 -1.83868 0
M  V30 15491 C 1447.49 -0.221884 -1.61079 0
M  V30 15492 O 1448.68 -0.405635 -1.84084 0
M  V30 15493 C 1445.8 -1.10358 -3.20217 0
M  V30 15494 C 1444.85 -2.25787 -3.61832 0
M  V30 15495 S 1445.68 -3.88183 -3.68882 0
M  V30 15496 C 1446.84 -3.65647 -5.07989 0
M  V30 15497 H 1447.07 -2.30252 -1.88073 0
M  V30 15498 H 1444.6 -1.26738 -0.881859 0
M  V30 15499 H 1446.56 -0.967343 -3.9894 0
M  V30 15500 H 1445.22 -0.169178 -3.13644 0
M  V30 15501 H 1444.42 -2.04078 -4.60834 0
M  V30 15502 H 1444.02 -2.35717 -2.90368 0
M  V30 15503 H 1446.31 -3.24149 -5.94923 0
M  V30 15504 H 1447.25 -4.64182 -5.34734 0
M  V30 15505 H 1447.66 -2.99322 -4.78609 0
M  V30 15506 N 1447.06 0.947303 -1.25952 0
M  V30 15507 C 1448.29 1.72479 -1.1373 0
M  V30 15508 C 1448.7 1.86629 0.310871 0
M  V30 15509 O 1448.04 1.36882 1.22512 0
M  V30 15510 C 1448.1 3.15328 -1.72651 0
M  V30 15511 C 1447.77 3.24584 -3.21705 0
M  V30 15512 C 1448.76 3.08331 -4.18602 0
M  V30 15513 C 1446.45 3.4817 -3.62054 0
M  V30 15514 C 1448.44 3.15523 -5.53827 0
M  V30 15515 C 1446.13 3.54997 -4.97413 0
M  V30 15516 C 1447.13 3.38689 -5.93109 0
M  V30 15517 O 1446.82 3.45212 -7.26005 0
M  V30 15518 H 1446.55 0.547044 -0.397138 0
M  V30 15519 H 1449.1 1.19654 -1.66949 0
M  V30 15520 H 1447.33 3.69549 -1.13887 0
M  V30 15521 H 1449.02 3.74965 -1.55423 0
M  V30 15522 H 1449.79 2.89971 -3.88769 0
M  V30 15523 H 1445.67 3.59922 -2.88057 0
M  V30 15524 H 1449.21 3.02711 -6.285 0
M  V30 15525 H 1445.11 3.72876 -5.26909 0
M  V30 15526 H 1445.87 3.61796 -7.34198 0
M  V30 15527 N 1448.54 1.07657 1.15099 0
M  V30 15528 C 1449.49 0.694043 2.22004 0
M  V30 15529 C 1450.48 -0.296607 1.66783 0
M  V30 15530 O 1451.69 -0.159989 1.79288 0
M  V30 15531 H 1448.06 0.206374 0.723128 0
M  V30 15532 H 1450.03 1.60523 2.51545 0
M  V30 15533 C 1448.78 0.111245 3.47522 0
M  V30 15534 H 1448.1 0.864677 3.90338 0
M  V30 15535 H 1449.54 -0.118705 4.23834 0
M  V30 15536 C 1448 -1.14889 3.16705 0
M  V30 15537 O 1448.53 -2.2349 3.33789 0
M  V30 15538 N 1446.74 -1.05627 2.70724 0
M  V30 15539 H 1446.29 -0.172463 2.57022 0
M  V30 15540 H 1446.24 -1.9002 2.50479 0
M  V30 15541 N 1450.02 -1.31994 0.861122 0
M  V30 15542 C 1450.96 -2.30666 0.299352 0
M  V30 15543 C 1451.96 -1.59133 -0.580779 0
M  V30 15544 O 1453.16 -1.73813 -0.467864 0
M  V30 15545 H 1449.54 -0.747932 0.0781091 0
M  V30 15546 H 1451.51 -2.7553 1.14567 0
M  V30 15547 C 1450.26 -3.44203 -0.491883 0
M  V30 15548 H 1449.58 -3.99412 0.17608 0
M  V30 15549 H 1451.02 -4.15384 -0.850434 0
M  V30 15550 C 1449.48 -2.92042 -1.67967 0
M  V30 15551 O 1450.01 -2.90073 -2.77886 0
M  V30 15552 N 1448.22 -2.48358 -1.50887 0
M  V30 15553 H 1447.76 -2.50159 -0.614683 0
M  V30 15554 H 1447.72 -2.13813 -2.30503 0
M  V30 15555 N 1451.49 -0.619688 -1.44906 0
M  V30 15556 C 1452.44 0.104373 -2.32366 0
M  V30 15557 C 1453.44 0.847423 -1.4668 0
M  V30 15558 O 1454.64 0.761618 -1.63093 0
M  V30 15559 H 1451.02 0.0525126 -0.750164 0
M  V30 15560 H 1452.99 -0.651525 -2.912 0
M  V30 15561 C 1451.74 1.08017 -3.30496 0
M  V30 15562 H 1451.06 0.517831 -3.96432 0
M  V30 15563 H 1452.5 1.5565 -3.94397 0
M  V30 15564 C 1450.96 2.15975 -2.58566 0
M  V30 15565 O 1451.49 3.23895 -2.37603 0
M  V30 15566 N 1449.7 1.91593 -2.18496 0
M  V30 15567 H 1449.24 1.03835 -2.35746 0
M  V30 15568 H 1449.2 2.64028 -1.70694 0
M  V30 15569 N 1452.97 1.53444 -0.359552 0
M  V30 15570 C 1453.92 2.27053 0.504949 0
M  V30 15571 C 1454.91 1.29801 1.08849 0
M  V30 15572 O 1456.12 1.47451 1.03239 0
M  V30 15573 H 1452.5 0.729756 0.181549 0
M  V30 15574 H 1454.47 2.98082 -0.137719 0
M  V30 15575 C 1453.22 3.06815 1.63585 0
M  V30 15576 H 1452.54 3.81488 1.19611 0
M  V30 15577 H 1453.98 3.61508 2.21558 0
M  V30 15578 C 1452.44 2.17286 2.57466 0
M  V30 15579 O 1452.97 1.77961 3.60129 0
M  V30 15580 N 1451.17 1.82041 2.26516 0
M  V30 15581 H 1450.72 2.14218 1.43068 0
M  V30 15582 H 1450.68 1.22423 2.89586 0
M  V30 15583 N 1454.45 0.0885642 1.57351 0
M  V30 15584 C 1455.4 -0.890284 2.14888 0
M  V30 15585 C 1456.39 -1.29671 1.09004 0
M  V30 15586 O 1457.6 -1.272 1.27359 0
M  V30 15587 H 1453.97 -0.305107 0.687324 0
M  V30 15588 H 1455.94 -0.380243 2.95967 0
M  V30 15589 C 1454.69 -2.14216 2.73874 0
M  V30 15590 H 1454.02 -1.8383 3.55031 0
M  V30 15591 H 1455.46 -2.8078 3.17708 0
M  V30 15592 C 1453.92 -2.91186 1.69448 0
M  V30 15593 O 1454.45 -3.85494 1.12949 0
M  V30 15594 N 1452.65 -2.54603 1.40091 0
M  V30 15595 H 1452.2 -1.77984 1.86225 0
M  V30 15596 H 1452.16 -3.06403 0.704577 0
M  V30 15597 N 1455.93 -1.56509 -0.185096 0
M  V30 15598 C 1456.88 -1.96237 -1.24875 0
M  V30 15599 C 1457.87 -0.849169 -1.46579 0
M  V30 15600 O 1459.08 -1.03422 -1.47322 0
M  V30 15601 H 1455.45 -0.624147 -0.419457 0
M  V30 15602 H 1457.42 -2.8492 -0.88673 0
M  V30 15603 C 1456.17 -2.32667 -2.58382 0
M  V30 15604 H 1455.49 -3.17858 -2.425 0
M  V30 15605 H 1456.93 -2.6432 -3.31528 0
M  V30 15606 C 1455.39 -1.16496 -3.16118 0
M  V30 15607 O 1455.92 -0.445283 -3.99224 0
M  V30 15608 N 1454.13 -0.939133 -2.75007 0
M  V30 15609 H 1453.68 -1.52611 -2.07527 0
M  V30 15610 H 1453.63 -0.163659 -3.13974 0
M  V30 15611 N 1457.41 0.45317 -1.50944 0
M  V30 15612 C 1458.35 1.56953 -1.71664 0
M  V30 15613 C 1459.35 1.59064 -0.582673 0
M  V30 15614 O 1460.55 1.62998 -0.763651 0
M  V30 15615 H 1456.93 0.521147 -0.542135 0
M  V30 15616 H 1458.9 1.36645 -2.65275 0
M  V30 15617 C 1457.65 2.9475 -1.84438 0
M  V30 15618 H 1456.97 2.93852 -2.71093 0
M  V30 15619 H 1458.41 3.72271 -2.02954 0
M  V30 15620 C 1456.87 3.31509 -0.600281 0
M  V30 15621 O 1457.4 4.00906 0.252366 0
M  V30 15622 N 1455.61 2.8711 -0.449014 0
M  V30 15623 H 1455.15 2.30808 -1.14392 0
M  V30 15624 H 1455.11 3.12068 0.382199 0
M  V30 15625 N 1458.88 1.40823 0.707568 0
M  V30 15626 C 1459.83 1.4191 1.84294 0
M  V30 15627 C 1460.83 0.298592 1.66748 0
M  V30 15628 O 1462.03 0.47003 1.73755 0
M  V30 15629 H 1458.41 0.44376 0.607109 0
M  V30 15630 H 1460.38 2.37623 1.80494 0
M  V30 15631 C 1459.13 1.30643 3.22223 0
M  V30 15632 H 1458.45 2.16145 3.36335 0
M  V30 15633 H 1459.89 1.35463 4.01778 0
M  V30 15634 C 1458.35 0.0174867 3.36895 0
M  V30 15635 O 1458.88 -0.942398 3.90489 0
M  V30 15636 N 1457.09 -0.0546572 2.90549 0
M  V30 15637 H 1456.63 0.727204 2.47122 0
M  V30 15638 H 1456.59 -0.916521 3.00744 0
M  V30 15639 N 1460.36 -0.94061 1.26453 0
M  V30 15640 C 1461.61 -1.68132 1.1142 0
M  V30 15641 C 1461.92 -1.92587 -0.342006 0
M  V30 15642 O 1463.13 -2.64489 -0.613018 0
M  V30 15643 C 1461.59 -3.02758 1.94591 0
M  V30 15644 C 1461.19 -2.86049 3.4479 0
M  V30 15645 C 1462.94 -3.80516 1.88169 0
M  V30 15646 C 1460.85 -4.1615 4.20206 0
M  V30 15647 H 1459.78 -0.630591 0.413366 0
M  V30 15648 H 1462.43 -1.04602 1.50767 0
M  V30 15649 H 1460.81 -3.67272 1.48078 0
M  V30 15650 H 1461.98 -2.3038 3.99076 0
M  V30 15651 H 1460.3 -2.21732 3.52454 0
M  V30 15652 H 1462.89 -4.76904 2.41799 0
M  V30 15653 H 1463.24 -4.07477 0.852531 0
M  V30 15654 H 1463.77 -3.22776 2.32509 0
M  V30 15655 H 1460.51 -3.94373 5.23593 0
M  V30 15656 H 1460.03 -4.71531 3.707 0
M  V30 15657 H 1461.71 -4.84602 4.28684 0
M  V30 15658 N 1461.84 -1.08266 -1.14527 0
M  V30 15659 C 1462.79 -0.705807 -2.21633 0
M  V30 15660 C 1463.78 0.287758 -1.66938 0
M  V30 15661 O 1464.99 0.150479 -1.7937 0
M  V30 15662 H 1461.36 -0.210206 -0.722023 0
M  V30 15663 H 1463.33 -1.61855 -2.5069 0
M  V30 15664 C 1462.08 -0.129673 -3.47458 0
M  V30 15665 H 1461.41 -0.885365 -3.89873 0
M  V30 15666 H 1462.85 0.0962264 -4.23891 0
M  V30 15667 C 1461.31 1.13208 -3.1731 0
M  V30 15668 O 1461.84 2.21717 -3.34969 0
M  V30 15669 N 1460.04 1.0419 -2.7128 0
M  V30 15670 H 1459.59 0.15883 -2.5711 0
M  V30 15671 H 1459.55 1.88689 -2.51483 0
M  V30 15672 N 1463.32 1.31536 -0.86811 0
M  V30 15673 C 1464.57 1.96045 -0.474271 0
M  V30 15674 C 1464.88 1.6939 0.978071 0
M  V30 15675 O 1466.09 2.27746 1.47797 0
M  V30 15676 C 1464.54 3.5096 -0.797203 0
M  V30 15677 C 1464.15 3.86456 -2.26618 0
M  V30 15678 C 1465.9 4.21871 -0.471745 0
M  V30 15679 C 1463.8 5.34474 -2.53162 0
M  V30 15680 H 1462.73 0.733737 -0.173627 0
M  V30 15681 H 1465.38 1.49734 -1.06076 0
M  V30 15682 H 1463.77 3.95752 -0.139994 0
M  V30 15683 H 1464.94 3.52629 -2.9663 0
M  V30 15684 H 1463.25 3.28605 -2.55749 0
M  V30 15685 H 1465.85 5.30767 -0.647317 0
M  V30 15686 H 1466.19 4.12131 0.58768 0
M  V30 15687 H 1466.73 3.82706 -1.08542 0
M  V30 15688 H 1463.47 5.49248 -3.57781 0
M  V30 15689 H 1462.99 5.6966 -1.87743 0
M  V30 15690 H 1464.67 6.01716 -2.37797 0
M  V30 15691 N 1464.8 0.627364 1.44575 0
M  V30 15692 C 1465.75 -0.0920488 2.32418 0
M  V30 15693 C 1466.74 -0.839633 1.47128 0
M  V30 15694 O 1467.95 -0.752958 1.63495 0
M  V30 15695 H 1464.32 -0.0485336 0.750432 0
M  V30 15696 H 1466.29 0.666959 2.90851 0
M  V30 15697 C 1465.04 -1.06262 3.31064 0
M  V30 15698 H 1464.36 -0.4968 3.96701 0
M  V30 15699 H 1465.8 -1.53556 3.95217 0
M  V30 15700 C 1464.26 -2.14601 2.59707 0
M  V30 15701 O 1464.79 -3.2263 2.39317 0
M  V30 15702 N 1463 -1.90431 2.19509 0
M  V30 15703 H 1462.55 -1.02584 2.36293 0
M  V30 15704 H 1462.5 -2.6312 1.72091 0
M  V30 15705 N 1466.28 -1.53251 0.367684 0
M  V30 15706 C 1467.5 -2.0618 -0.224645 0
M  V30 15707 C 1467.93 -1.23927 -1.41505 0
M  V30 15708 O 1467.28 -0.258858 -1.79443 0
M  V30 15709 C 1467.33 -3.55671 -0.594171 0
M  V30 15710 O 1466.44 -3.76132 -1.69112 0
M  V30 15711 H 1465.78 -0.663218 -0.0322099 0
M  V30 15712 H 1468.31 -1.97646 0.528897 0
M  V30 15713 H 1468.32 -3.98734 -0.864589 0
M  V30 15714 H 1466.99 -4.14982 0.276254 0
M  V30 15715 H 1465.57 -3.44965 -1.41609 0
M  V30 15716 N 1467.75 -0.0969077 -1.57302 0
M  V30 15717 C 1468.98 0.578086 -1.99181 0
M  V30 15718 C 1469.4 1.60818 -0.975667 0
M  V30 15719 O 1468.76 1.81215 0.0556054 0
M  V30 15720 C 1468.81 1.20076 -3.40021 0
M  V30 15721 O 1467.91 2.31656 -3.41188 0
M  V30 15722 H 1467.25 0.146506 -0.647636 0
M  V30 15723 H 1469.78 -0.178855 -2.03817 0
M  V30 15724 H 1469.79 1.54162 -3.77754 0
M  V30 15725 H 1468.47 0.446114 -4.135 0
M  V30 15726 H 1467.05 1.99175 -3.15252 0
M  V30 15727 N 1469.23 1.56605 0.176793 0
M  V30 15728 C 1470.46 1.8617 0.91408 0
M  V30 15729 C 1470.88 0.68262 1.75277 0
M  V30 15730 O 1470.24 -0.368391 1.77518 0
M  V30 15731 C 1470.29 3.14109 1.7711 0
M  V30 15732 O 1469.39 2.95947 2.87209 0
M  V30 15733 H 1468.73 0.612507 0.25638 0
M  V30 15734 H 1471.26 2.03837 0.176586 0
M  V30 15735 H 1471.27 3.45373 2.17213 0
M  V30 15736 H 1469.95 3.9954 1.15502 0
M  V30 15737 H 1468.52 2.76024 2.50729 0
M  V30 15738 N 1470.71 -0.445159 1.51182 0
M  V30 15739 C 1471.66 -1.5604 1.72494 0
M  V30 15740 C 1472.65 -1.58753 0.591101 0
M  V30 15741 O 1473.86 -1.62591 0.772285 0
M  V30 15742 H 1470.23 -0.518265 0.544891 0
M  V30 15743 H 1472.2 -1.35237 2.65995 0
M  V30 15744 C 1470.95 -2.93768 1.85999 0
M  V30 15745 H 1470.28 -2.9241 2.72647 0
M  V30 15746 H 1471.72 -3.71189 2.04926 0
M  V30 15747 C 1470.17 -3.31186 0.617853 0
M  V30 15748 O 1470.7 -4.01035 -0.231101 0
M  V30 15749 N 1468.91 -2.86868 0.464234 0
M  V30 15750 H 1468.46 -2.30198 1.15614 0
M  V30 15751 H 1468.42 -3.12267 -0.365643 0
M  V30 15752 N 1472.19 -1.41197 -0.700089 0
M  V30 15753 C 1473.14 -1.42885 -1.83539 0
M  V30 15754 C 1474.13 -0.307431 -1.66587 0
M  V30 15755 O 1475.34 -0.479238 -1.73503 0
M  V30 15756 H 1471.71 -0.446973 -0.604747 0
M  V30 15757 H 1473.68 -2.38576 -1.79231 0
M  V30 15758 C 1472.43 -1.3235 -3.21526 0
M  V30 15759 H 1471.75 -2.17926 -3.35184 0
M  V30 15760 H 1473.19 -1.37592 -4.01054 0
M  V30 15761 C 1471.65 -0.0353528 -3.36881 0
M  V30 15762 O 1472.18 0.921676 -3.90983 0
M  V30 15763 N 1470.39 0.0392479 -2.90573 0
M  V30 15764 H 1469.94 -0.740299 -2.46733 0
M  V30 15765 H 1469.89 0.900559 -3.01226 0
M  V30 15766 N 1473.67 0.933891 -1.2695 0
M  V30 15767 C 1474.61 2.05498 -1.08964 0
M  V30 15768 C 1475.61 1.69394 -0.0144837 0
M  V30 15769 O 1476.81 1.79179 -0.171729 0
M  V30 15770 H 1473.19 0.672978 -0.335566 0
M  V30 15771 H 1475.16 2.17817 -2.03957 0
M  V30 15772 C 1473.91 3.39579 -0.747074 0
M  V30 15773 H 1473.23 3.67842 -1.56628 0
M  V30 15774 H 1474.67 4.18815 -0.661064 0
M  V30 15775 C 1473.13 3.3241 0.548214 0
M  V30 15776 O 1473.66 3.69132 1.58443 0
M  V30 15777 N 1471.87 2.85509 0.541545 0
M  V30 15778 H 1471.41 2.55822 -0.302112 0
M  V30 15779 H 1471.37 2.81095 1.4083 0
M  V30 15780 N 1475.14 1.08871 1.13951 0
M  V30 15781 C 1476.09 0.71755 2.21255 0
M  V30 15782 C 1477.09 -0.278901 1.67088 0
M  V30 15783 O 1478.29 -0.140964 1.79447 0
M  V30 15784 H 1474.67 0.214032 0.720898 0
M  V30 15785 H 1476.64 1.63182 2.49828 0
M  V30 15786 C 1475.39 0.148098 3.47384 0
M  V30 15787 H 1474.71 0.906028 3.89398 0
M  V30 15788 H 1476.15 -0.0737451 4.23936 0
M  V30 15789 C 1474.61 -1.11524 3.17906 0
M  V30 15790 O 1475.14 -2.19937 3.3614 0
M  V30 15791 N 1473.34 -1.0275 2.71829 0
M  V30 15792 H 1472.89 -0.145193 2.5719 0
M  V30 15793 H 1472.85 -1.87353 2.5248 0
M  V30 15794 N 1476.62 -1.31073 0.875073 0
M  V30 15795 C 1477.57 -2.30335 0.3238 0
M  V30 15796 C 1478.56 -1.5974 -0.563869 0
M  V30 15797 O 1479.77 -1.743 -0.449402 0
M  V30 15798 H 1476.14 -0.747062 0.0860376 0
M  V30 15799 H 1478.12 -2.743 1.17483 0
M  V30 15800 C 1476.86 -3.44705 -0.455348 0
M  V30 15801 H 1476.19 -3.99203 0.218433 0
M  V30 15802 H 1477.63 -4.16262 -0.806329 0
M  V30 15803 C 1476.09 -2.93807 -1.6486 0
M  V30 15804 O 1476.62 -2.93004 -2.74794 0
M  V30 15805 N 1474.82 -2.49944 -1.48244 0
M  V30 15806 H 1474.37 -2.50797 -0.588116 0
M  V30 15807 H 1474.33 -2.16245 -2.28222 0
M  V30 15808 N 1478.1 -0.635022 -1.4424 0
M  V30 15809 C 1479.05 0.0797218 -2.32463 0
M  V30 15810 C 1480.04 0.831818 -1.47571 0
M  V30 15811 O 1481.25 0.744277 -1.63892 0
M  V30 15812 H 1477.62 0.0445532 -0.750679 0
M  V30 15813 H 1479.59 -0.682374 -2.90493 0
M  V30 15814 C 1478.34 1.04505 -3.31623 0
M  V30 15815 H 1477.67 0.475755 -3.96959 0
M  V30 15816 H 1479.11 1.51458 -3.96026 0
M  V30 15817 C 1477.57 2.13221 -2.60842 0
M  V30 15818 O 1478.1 3.21357 -2.41025 0
M  V30 15819 N 1476.3 1.89264 -2.20516 0
M  V30 15820 H 1475.85 1.01329 -2.36834 0
M  V30 15821 H 1475.81 2.62203 -1.73484 0
M  V30 15822 N 1479.58 1.53054 -0.375806 0
M  V30 15823 C 1480.53 2.27576 0.480838 0
M  V30 15824 C 1481.52 1.30948 1.07466 0
M  V30 15825 O 1482.73 1.48538 1.01669 0
M  V30 15826 H 1479.1 0.731641 0.173799 0
M  V30 15827 H 1481.07 2.97919 -0.169327 0
M  V30 15828 C 1479.82 3.08533 1.60321 0
M  V30 15829 H 1479.14 3.82735 1.15558 0
M  V30 15830 H 1480.58 3.63837 2.17712 0
M  V30 15831 C 1479.04 2.20004 2.55147 0
M  V30 15832 O 1479.57 1.81771 3.58221 0
M  V30 15833 N 1477.78 1.84433 2.24573 0
M  V30 15834 H 1477.33 2.15723 1.40788 0
M  V30 15835 H 1477.28 1.25488 2.88271 0
M  V30 15836 N 1481.06 0.105248 1.57248 0
M  V30 15837 C 1482 -0.867443 2.1582 0
M  V30 15838 C 1483 -1.28508 1.10373 0
M  V30 15839 O 1484.2 -1.25842 1.287 0
M  V30 15840 H 1480.58 -0.2978 0.690521 0
M  V30 15841 H 1482.55 -0.348831 2.96354 0
M  V30 15842 C 1481.3 -2.11299 2.7613 0
M  V30 15843 H 1480.62 -1.80054 3.5696 0
M  V30 15844 H 1482.06 -2.77395 3.20668 0
M  V30 15845 C 1480.52 -2.89372 1.72527 0
M  V30 15846 O 1481.05 -3.84274 1.17032 0
M  V30 15847 N 1479.26 -2.53103 1.42784 0
M  V30 15848 H 1478.8 -1.75998 1.88102 0
M  V30 15849 H 1478.76 -3.05639 0.737035 0
M  V30 15850 N 1482.53 -1.56697 -0.168486 0
M  V30 15851 C 1483.48 -1.9755 -1.22787 0
M  V30 15852 C 1484.48 -0.864668 -1.4567 0
M  V30 15853 O 1485.68 -1.04979 -1.46217 0
M  V30 15854 H 1482.06 -0.628561 -0.412813 0
M  V30 15855 H 1484.03 -2.85845 -0.85646 0
M  V30 15856 C 1482.78 -2.35394 -2.559 0
M  V30 15857 H 1482.1 -3.20412 -2.39115 0
M  V30 15858 H 1483.54 -2.67821 -3.28706 0
M  V30 15859 C 1482 -1.19842 -3.14864 0
M  V30 15860 O 1482.53 -0.487601 -3.9873 0
M  V30 15861 N 1480.74 -0.968249 -2.73995 0
M  V30 15862 H 1480.28 -1.54804 -2.05897 0
M  V30 15863 H 1480.24 -0.196951 -3.13783 0
M  V30 15864 N 1484.01 0.437135 -1.51416 0
M  V30 15865 C 1484.96 1.53061 -1.72745 0
M  V30 15866 C 1485.93 1.56045 -0.569149 0
M  V30 15867 O 1487.11 1.73052 -0.803602 0
M  V30 15868 C 1484.25 2.90774 -1.85861 0
M  V30 15869 C 1483.37 2.97318 -3.1341 0
M  V30 15870 C 1482.5 4.26156 -3.1712 0
M  V30 15871 C 1481.54 4.26568 -4.38983 0
M  V30 15872 N 1480.68 5.4693 -4.40241 0
M  V30 15873 H 1485.52 1.34177 -2.66084 0
M  V30 15874 H 1483.06 0.651803 -1.31871 0
M  V30 15875 H 1485.01 3.7068 -1.91447 0
M  V30 15876 H 1483.64 3.08216 -0.959306 0
M  V30 15877 H 1482.7 2.10074 -3.17132 0
M  V30 15878 H 1484.01 2.93485 -4.03321 0
M  V30 15879 H 1483.16 5.14435 -3.21623 0
M  V30 15880 H 1481.9 4.32646 -2.25098 0
M  V30 15881 H 1480.91 3.36681 -4.34656 0
M  V30 15882 H 1482.13 4.21741 -5.3227 0
M  V30 15883 H 1480.08 5.54141 -3.51089 0
M  V30 15884 H 1479.99 5.44977 -5.23962 0
M  V30 15885 H 1481.26 6.37241 -4.48937 0
M  V30 15886 N 1485.49 1.41566 0.692592 0
M  V30 15887 C 1486.74 1.41292 1.4548 0
M  V30 15888 C 1487.07 0.0229093 1.94186 0
M  V30 15889 O 1486.34 -0.949849 1.6973 0
M  V30 15890 C 1486.63 2.42225 2.66457 0
M  V30 15891 C 1486.48 3.90345 2.23496 0
M  V30 15892 C 1487.8 2.40374 3.68658 0
M  V30 15893 H 1484.92 0.51453 0.527663 0
M  V30 15894 H 1487.56 1.72862 0.788598 0
M  V30 15895 H 1485.71 2.15435 3.23296 0
M  V30 15896 H 1487.38 4.2805 1.71962 0
M  V30 15897 H 1485.63 4.05068 1.55249 0
M  V30 15898 H 1486.3 4.56518 3.10314 0
M  V30 15899 H 1488.77 2.64156 3.21498 0
M  V30 15900 H 1487.65 3.13004 4.5091 0
M  V30 15901 H 1487.91 1.42338 4.1856 0
M  V30 15902 N 1486.97 -0.927146 1.27443 0
M  V30 15903 C 1487.9 -2.04483 1.12735 0
M  V30 15904 C 1488.88 -1.70076 0.0286662 0
M  V30 15905 O 1490.06 -1.93133 0.203252 0
M  V30 15906 C 1487.19 -3.38557 0.774352 0
M  V30 15907 C 1486.15 -3.87078 1.82632 0
M  V30 15908 C 1485.47 -5.17964 1.32729 0
M  V30 15909 C 1486.77 -4.10409 3.23051 0
M  V30 15910 H 1488.47 -2.17046 2.06231 0
M  V30 15911 H 1486.01 -1.04292 0.992937 0
M  V30 15912 H 1487.97 -4.16227 0.658273 0
M  V30 15913 H 1486.69 -3.26009 -0.196321 0
M  V30 15914 H 1485.35 -3.11602 1.93132 0
M  V30 15915 H 1485 -5.01808 0.346059 0
M  V30 15916 H 1484.7 -5.51398 2.03061 0
M  V30 15917 H 1486.22 -5.98203 1.22416 0
M  V30 15918 H 1487.64 -4.78646 3.15549 0
M  V30 15919 H 1486.03 -4.5515 3.91099 0
M  V30 15920 H 1487.1 -3.15685 3.68064 0
M  V30 15921 N 1488.45 -1.09474 -1.13372 0
M  V30 15922 C 1489.67 -0.853093 -1.89043 0
M  V30 15923 C 1490.1 0.590075 -1.78605 0
M  V30 15924 O 1489.45 1.41462 -1.13394 0
M  V30 15925 C 1489.5 -1.29359 -3.36599 0
M  V30 15926 O 1488.61 -0.452355 -4.09912 0
M  V30 15927 H 1487.95 -0.308922 -0.587761 0
M  V30 15928 H 1490.48 -1.459 -1.43437 0
M  V30 15929 H 1490.49 -1.27921 -3.87428 0
M  V30 15930 H 1489.16 -2.3446 -3.43513 0
M  V30 15931 H 1487.74 -0.531098 -3.69099 0
M  V30 15932 N 1489.92 1.30607 -0.882012 0
M  V30 15933 C 1491.15 2.00954 -0.513048 0
M  V30 15934 C 1491.57 1.65697 0.890279 0
M  V30 15935 O 1490.93 0.872001 1.58952 0
M  V30 15936 C 1490.98 3.53907 -0.691525 0
M  V30 15937 O 1490.08 4.11555 0.263896 0
M  V30 15938 H 1489.43 0.632356 -0.202537 0
M  V30 15939 H 1491.96 1.66524 -1.18874 0
M  V30 15940 H 1491.97 4.0372 -0.589392 0
M  V30 15941 H 1490.64 3.78907 -1.71471 0
M  V30 15942 H 1489.22 3.7272 0.115707 0
M  V30 15943 N 1491.4 0.642663 1.43901 0
M  V30 15944 C 1492.34 -0.104884 2.27959 0
M  V30 15945 C 1493.31 -0.840134 1.39214 0
M  V30 15946 O 1494.5 -0.841868 1.68656 0
M  V30 15947 C 1491.62 -1.15496 3.184 0
M  V30 15948 C 1490.67 -0.518946 4.23331 0
M  V30 15949 S 1491.5 0.699619 5.3091 0
M  V30 15950 C 1492.66 -0.350181 6.2492 0
M  V30 15951 H 1492.89 0.608181 2.91013 0
M  V30 15952 H 1490.43 0.431176 1.48257 0
M  V30 15953 H 1492.38 -1.75582 3.71054 0
M  V30 15954 H 1491.04 -1.84028 2.54544 0
M  V30 15955 H 1490.24 -1.31018 4.86673 0
M  V30 15956 H 1489.84 0.00756354 3.73999 0
M  V30 15957 H 1492.13 -1.21944 6.66435 0
M  V30 15958 H 1493.07 0.247942 7.07666 0
M  V30 15959 H 1493.48 -0.681254 5.60374 0
M  V30 15960 N 1492.88 -1.52852 0.383918 0
M  V30 15961 C 1493.83 -2.23089 -0.470652 0
M  V30 15962 C 1494.82 -1.23278 -1.03399 0
M  V30 15963 O 1496.01 -1.48641 -0.960985 0
M  V30 15964 C 1493.14 -3.03721 -1.60025 0
M  V30 15965 C 1492.22 -4.10924 -1.04892 0
M  V30 15966 N 1492.61 -5.05312 -0.222083 0
M  V30 15967 C 1490.91 -4.25958 -1.32195 0
M  V30 15968 C 1491.61 -5.81642 0.0818929 0
M  V30 15969 N 1490.59 -5.41101 -0.520629 0
M  V30 15970 H 1494.39 -2.93421 0.167663 0
M  V30 15971 H 1491.9 -1.6125 0.192927 0
M  V30 15972 H 1493.9 -3.52572 -2.22482 0
M  V30 15973 H 1492.56 -2.34924 -2.24145 0
M  V30 15974 H 1493.57 -5.1771 0.140223 0
M  V30 15975 H 1490.25 -3.68389 -1.96457 0
M  V30 15976 H 1491.64 -6.67684 0.751481 0
M  V30 15977 N 1494.36 -0.113586 -1.5719 0
M  V30 15978 C 1495.31 0.849646 -2.11577 0
M  V30 15979 C 1496.29 1.23174 -1.03523 0
M  V30 15980 O 1497.49 1.20373 -1.29766 0
M  V30 15981 C 1494.61 2.10175 -2.71443 0
M  V30 15982 C 1493.7 1.74427 -3.8657 0
M  V30 15983 N 1494.09 1.09326 -4.93843 0
M  V30 15984 C 1492.39 2.03919 -3.96652 0
M  V30 15985 C 1493.09 0.925979 -5.74283 0
M  V30 15986 N 1492.07 1.44924 -5.23925 0
M  V30 15987 H 1495.87 0.342685 -2.91895 0
M  V30 15988 H 1493.38 0.0890561 -1.62156 0
M  V30 15989 H 1495.38 2.80144 -3.08747 0
M  V30 15990 H 1494.04 2.6142 -1.92587 0
M  V30 15991 H 1495.05 0.757883 -5.12325 0
M  V30 15992 H 1491.73 2.57249 -3.2883 0
M  V30 15993 H 1493.12 0.415406 -6.70615 0
M  V30 15994 N 1495.84 1.56784 0.160173 0
M  V30 15995 C 1497.25 1.72193 0.721552 0
M  V30 15996 C 1497.6 0.725901 1.82278 0
M  V30 15997 O 1496.72 -0.110343 2.16118 0
M  V30 15998 C 1497.32 3.12212 1.31563 0
M  V30 15999 C 1495.88 3.29268 1.82371 0
M  V30 16000 C 1495.03 2.68136 0.70701 0
M  V30 16001 H 1497.98 1.58565 -0.0653521 0
M  V30 16002 H 1498 3.11481 2.1854 0
M  V30 16003 H 1497.51 3.84682 0.513917 0
M  V30 16004 H 1495.61 2.61774 2.65152 0
M  V30 16005 H 1495.72 4.37107 1.96149 0
M  V30 16006 H 1494.09 2.28246 1.1303 0
M  V30 16007 H 1494.87 3.432 -0.0830407 0
M  V30 16008 N 1497.32 -0.429099 1.51646 0
M  V30 16009 C 1498.25 -1.54168 1.68249 0
M  V30 16010 C 1499.23 -1.53718 0.530037 0
M  V30 16011 O 1500.41 -1.72723 0.754911 0
M  V30 16012 C 1497.54 -2.92738 1.7036 0
M  V30 16013 C 1496.58 -3.11179 2.91668 0
M  V30 16014 S 1497.42 -2.86603 4.52348 0
M  V30 16015 C 1498.57 -4.2744 4.57216 0
M  V30 16016 H 1498.81 -1.39852 2.62352 0
M  V30 16017 H 1496.34 -0.619348 1.41434 0
M  V30 16018 H 1498.3 -3.72608 1.7226 0
M  V30 16019 H 1496.96 -3.0441 0.774186 0
M  V30 16020 H 1496.15 -4.12512 2.89569 0
M  V30 16021 H 1495.75 -2.39146 2.87551 0
M  V30 16022 H 1498.04 -5.20771 4.33363 0
M  V30 16023 H 1498.99 -4.34569 5.59067 0
M  V30 16024 H 1499.4 -4.11479 3.86452 0
M  V30 16025 N 1498.79 -1.41931 -0.685074 0
M  V30 16026 C 1499.73 -1.40545 -1.81052 0
M  V30 16027 C 1500.74 -0.306024 -1.59898 0
M  V30 16028 O 1501.93 -0.568444 -1.69207 0
M  V30 16029 C 1499.03 -1.17194 -3.17992 0
M  V30 16030 C 1498.2 -2.39376 -3.66084 0
M  V30 16031 C 1497.26 -2.11725 -4.81725 0
M  V30 16032 O 1496.29 -2.84847 -4.92799 0
M  V30 16033 N 1497.49 -1.11399 -5.69711 0
M  V30 16034 H 1500.25 -2.37549 -1.8273 0
M  V30 16035 H 1497.81 -1.36679 -0.86779 0
M  V30 16036 H 1499.81 -0.966307 -3.92994 0
M  V30 16037 H 1498.38 -0.287499 -3.11275 0
M  V30 16038 H 1497.6 -2.75575 -2.81873 0
M  V30 16039 H 1498.88 -3.2076 -3.94956 0
M  V30 16040 H 1498.28 -0.509008 -5.63405 0
M  V30 16041 H 1496.84 -0.968239 -6.44568 0
M  V30 16042 N 1500.27 0.920374 -1.27933 0
M  V30 16043 C 1501.2 2.02644 -1.07089 0
M  V30 16044 C 1502.22 1.62781 -0.024674 0
M  V30 16045 O 1503.41 1.76491 -0.267023 0
M  V30 16046 C 1500.51 3.33476 -0.603919 0
M  V30 16047 C 1499.68 4.01988 -1.72407 0
M  V30 16048 C 1498.74 5.11098 -1.25159 0
M  V30 16049 O 1497.76 5.3466 -1.95261 0
M  V30 16050 N 1498.97 5.80393 -0.111197 0
M  V30 16051 H 1501.73 2.21085 -2.0234 0
M  V30 16052 H 1499.29 1.09124 -1.19597 0
M  V30 16053 H 1501.28 4.03788 -0.271579 0
M  V30 16054 H 1499.85 3.11554 0.255557 0
M  V30 16055 H 1499.07 3.25312 -2.22633 0
M  V30 16056 H 1500.36 4.4451 -2.47566 0
M  V30 16057 H 1499.76 5.63713 0.473746 0
M  V30 16058 H 1498.32 6.51599 0.161912 0
M  V30 16059 N 1501.75 1.10074 1.1279 0
M  V30 16060 C 1503 0.840873 1.84216 0
M  V30 16061 C 1503.32 -0.633551 1.83892 0
M  V30 16062 O 1502.58 -1.48283 1.27714 0
M  V30 16063 C 1502.88 1.32969 3.31744 0
M  V30 16064 C 1502.54 2.81489 3.52242 0
M  V30 16065 C 1501.21 3.22048 3.57545 0
M  V30 16066 C 1503.56 3.77216 3.59664 0
M  V30 16067 C 1500.89 4.57092 3.67809 0
M  V30 16068 C 1503.24 5.12057 3.71457 0
M  V30 16069 C 1501.9 5.52196 3.75014 0
M  V30 16070 H 1501.17 0.307697 0.674095 0
M  V30 16071 H 1503.82 1.37669 1.33115 0
M  V30 16072 H 1502.12 0.713819 3.85243 0
M  V30 16073 H 1503.82 1.10515 3.8547 0
M  V30 16074 H 1500.41 2.49106 3.48775 0
M  V30 16075 H 1504.6 3.4699 3.5484 0
M  V30 16076 H 1499.85 4.87618 3.68834 0
M  V30 16077 H 1504.03 5.86081 3.76142 0
M  V30 16078 H 1501.65 6.56833 3.8272 0
M  V30 16079 N 1503.23 -1.30138 0.888926 0
M  V30 16080 C 1504.18 -2.29979 0.348212 0
M  V30 16081 C 1505.17 -1.60329 -0.546894 0
M  V30 16082 O 1506.38 -1.74767 -0.43089 0
M  V30 16083 H 1502.75 -0.746107 0.0939563 0
M  V30 16084 H 1504.72 -2.73038 1.20385 0
M  V30 16085 C 1503.47 -3.45169 -0.418762 0
M  V30 16086 H 1502.79 -3.98949 0.260761 0
M  V30 16087 H 1504.23 -4.17094 -0.762133 0
M  V30 16088 C 1502.69 -2.95539 -1.61734 0
M  V30 16089 O 1503.22 -2.95902 -2.7167 0
M  V30 16090 N 1501.43 -2.51502 -1.45585 0
M  V30 16091 H 1500.98 -2.51406 -0.561483 0
M  V30 16092 H 1500.93 -2.18654 -2.25916 0
M  V30 16093 N 1504.71 -0.650285 -1.43559 0
M  V30 16094 C 1505.64 0.0817484 -2.29054 0
M  V30 16095 C 1506.65 0.790023 -1.42346 0
M  V30 16096 O 1507.84 0.648269 -1.66312 0
M  V30 16097 C 1504.94 1.13873 -3.19196 0
M  V30 16098 C 1504.11 0.509177 -4.34426 0
M  V30 16099 C 1503.17 1.46265 -5.05463 0
M  V30 16100 O 1502.2 0.972378 -5.60833 0
M  V30 16101 N 1503.4 2.79668 -5.08691 0
M  V30 16102 H 1506.16 -0.652062 -2.92521 0
M  V30 16103 H 1503.73 -0.49285 -1.54216 0
M  V30 16104 H 1505.72 1.77732 -3.63584 0
M  V30 16105 H 1504.29 1.77454 -2.5735 0
M  V30 16106 H 1503.51 -0.308444 -3.92991 0
M  V30 16107 H 1504.8 0.0695732 -5.08752 0
M  V30 16108 H 1504.19 3.22062 -4.65072 0
M  V30 16109 H 1502.75 3.38838 -5.56805 0
M  V30 16110 N 1506.18 1.52647 -0.392018 0
M  V30 16111 C 1507.42 2.03524 0.189041 0
M  V30 16112 C 1507.79 1.27204 1.43816 0
M  V30 16113 O 1508.99 1.6822 2.09656 0
M  V30 16114 C 1507.26 3.54584 0.447779 0
M  V30 16115 S 1508.82 4.27283 0.998734 0
M  V30 16116 H 1505.64 0.709022 0.0530042 0
M  V30 16117 H 1508.24 1.87866 -0.540993 0
M  V30 16118 H 1506.94 4.07718 -0.468401 0
M  V30 16119 H 1506.47 3.74453 1.20616 0
M  V30 16120 H 1508.49 4.40671 2.28086 0
M  V30 16121 N 1507.66 0.121921 1.57128 0
M  V30 16122 C 1508.61 -0.844503 2.16728 0
M  V30 16123 C 1509.6 -1.2733 1.1173 0
M  V30 16124 O 1510.81 -1.2447 1.30028 0
M  V30 16125 H 1507.19 -0.290459 0.693641 0
M  V30 16126 H 1509.16 -0.317379 2.96707 0
M  V30 16127 C 1507.91 -2.08359 2.78356 0
M  V30 16128 H 1507.23 -1.76258 3.5885 0
M  V30 16129 H 1508.67 -2.73978 3.23592 0
M  V30 16130 C 1507.13 -2.87526 1.75586 0
M  V30 16131 O 1507.66 -3.83011 1.21101 0
M  V30 16132 N 1505.86 -2.51575 1.4546 0
M  V30 16133 H 1505.41 -1.73993 1.89958 0
M  V30 16134 H 1505.37 -3.0484 0.769411 0
M  V30 16135 N 1509.14 -1.56867 -0.151857 0
M  V30 16136 C 1510.39 -1.83353 -0.866566 0
M  V30 16137 C 1510.72 -0.702784 -1.81038 0
M  V30 16138 O 1509.99 0.293944 -1.92266 0
M  V30 16139 C 1510.28 -3.20316 -1.64529 0
M  V30 16140 C 1510.13 -4.43946 -0.723297 0
M  V30 16141 C 1511.45 -3.54441 -2.60882 0
M  V30 16142 H 1508.57 -0.666957 -0.313588 0
M  V30 16143 H 1511.21 -1.89541 -0.131954 0
M  V30 16144 H 1509.36 -3.15172 -2.27154 0
M  V30 16145 H 1511.03 -4.61173 -0.10842 0
M  V30 16146 H 1509.28 -4.33788 -0.0325582 0
M  V30 16147 H 1509.95 -5.36374 -1.3041 0
M  V30 16148 H 1512.42 -3.60164 -2.08377 0
M  V30 16149 H 1511.3 -4.51314 -3.12422 0
M  V30 16150 H 1511.56 -2.80146 -3.42009 0
M  V30 16151 N 1510.62 0.421051 -1.51871 0
M  V30 16152 C 1511.57 1.53277 -1.74954 0
M  V30 16153 C 1512.56 1.57792 -0.616282 0
M  V30 16154 O 1513.77 1.61342 -0.798054 0
M  V30 16155 H 1510.14 0.50953 -0.553067 0
M  V30 16156 H 1512.11 1.30988 -2.68113 0
M  V30 16157 C 1510.86 2.90772 -1.90649 0
M  V30 16158 H 1510.18 2.88035 -2.77265 0
M  V30 16159 H 1511.62 3.67882 -2.10805 0
M  V30 16160 C 1510.08 3.30161 -0.670463 0
M  V30 16161 O 1510.61 4.01352 0.167271 0
M  V30 16162 N 1508.82 2.86093 -0.509813 0
M  V30 16163 H 1508.37 2.28329 -1.19262 0
M  V30 16164 H 1508.32 3.12809 0.315918 0
M  V30 16165 N 1512.1 1.42293 0.677538 0
M  V30 16166 C 1513.04 1.45556 1.79114 0
M  V30 16167 C 1514.01 0.307826 1.63223 0
M  V30 16168 O 1515.2 0.511504 1.83816 0
M  V30 16169 C 1512.34 1.36104 3.17127 0
M  V30 16170 C 1511.45 2.60891 3.44325 0
M  V30 16171 C 1510.59 2.43601 4.72051 0
M  V30 16172 C 1509.63 3.63775 4.92274 0
M  V30 16173 N 1508.76 3.45444 6.11239 0
M  V30 16174 H 1513.6 2.40723 1.7566 0
M  V30 16175 H 1511.14 1.19517 0.857565 0
M  V30 16176 H 1513.1 1.28622 3.96878 0
M  V30 16177 H 1511.73 0.445342 3.19713 0
M  V30 16178 H 1510.78 2.78751 2.58848 0
M  V30 16179 H 1512.09 3.50229 3.55163 0
M  V30 16180 H 1511.25 2.33689 5.59888 0
M  V30 16181 H 1509.98 1.51748 4.63491 0
M  V30 16182 H 1508.99 3.74122 4.0288 0
M  V30 16183 H 1510.21 4.56605 5.02681 0
M  V30 16184 H 1508.16 2.56306 6.03857 0
M  V30 16185 H 1508.08 4.28368 6.22926 0
M  V30 16186 H 1509.35 3.39339 7.01762 0
M  V30 16187 N 1513.57 -0.913576 1.28419 0
M  V30 16188 C 1514.51 -2.01727 1.06683 0
M  V30 16189 C 1515.49 -1.62591 -0.0171379 0
M  V30 16190 O 1516.67 -1.88045 0.130827 0
M  V30 16191 C 1513.8 -3.32954 0.621229 0
M  V30 16192 C 1512.84 -3.91074 1.70187 0
M  V30 16193 S 1513.68 -4.21902 3.29786 0
M  V30 16194 C 1514.83 -5.5619 2.8706 0
M  V30 16195 H 1515.06 -2.19855 2.00127 0
M  V30 16196 H 1512.6 -1.05846 1.1241 0
M  V30 16197 H 1514.56 -4.08822 0.370832 0
M  V30 16198 H 1513.22 -3.12727 -0.293381 0
M  V30 16199 H 1512.41 -4.85813 1.3417 0
M  V30 16200 H 1512.01 -3.21843 1.90507 0
M  V30 16201 H 1514.3 -6.36085 2.33242 0
M  V30 16202 H 1515.25 -5.97119 3.80598 0
M  V30 16203 H 1515.65 -5.17386 2.25771 0
M  V30 16204 N 1515.05 -1.1067 -1.12204 0
M  V30 16205 C 1516.28 -0.871601 -1.87314 0
M  V30 16206 C 1516.69 0.581644 -1.80038 0
M  V30 16207 O 1516.03 1.4129 -1.17401 0
M  V30 16208 C 1516.1 -1.24458 -3.37269 0
M  V30 16209 C 1515.76 -2.70536 -3.6832 0
M  V30 16210 C 1516.76 -3.68769 -3.66477 0
M  V30 16211 C 1514.44 -3.06982 -3.97577 0
M  V30 16212 C 1516.44 -5.01471 -3.93454 0
M  V30 16213 C 1514.12 -4.39871 -4.24213 0
M  V30 16214 C 1515.12 -5.36924 -4.22139 0
M  V30 16215 O 1514.81 -6.6742 -4.48113 0
M  V30 16216 H 1514.54 -0.312472 -0.599447 0
M  V30 16217 H 1517.09 -1.47562 -1.4288 0
M  V30 16218 H 1515.32 -0.583674 -3.8227 0
M  V30 16219 H 1517.01 -0.986569 -3.93728 0
M  V30 16220 H 1517.78 -3.41957 -3.43934 0
M  V30 16221 H 1513.66 -2.32062 -3.98332 0
M  V30 16222 H 1517.2 -5.77215 -3.9175 0
M  V30 16223 H 1513.1 -4.6642 -4.46231 0
M  V30 16224 H 1513.87 -6.73088 -4.6572 0
M  V30 16225 N 1516.53 1.29665 -0.895815 0
M  V30 16226 C 1517.76 1.99862 -0.535043 0
M  V30 16227 C 1518.17 1.67077 0.879245 0
M  V30 16228 O 1517.53 0.913717 1.57979 0
M  V30 16229 C 1517.58 3.54396 -0.713132 0
M  V30 16230 O 1517.3 3.86018 -2.07175 0
M  V30 16231 C 1518.8 4.41862 -0.356792 0
M  V30 16232 H 1516.02 0.638693 -0.205699 0
M  V30 16233 H 1518.57 1.65293 -1.20409 0
M  V30 16234 H 1516.72 3.87292 -0.0913116 0
M  V30 16235 H 1517.14 4.80701 -2.09827 0
M  V30 16236 H 1518.61 5.49428 -0.532252 0
M  V30 16237 H 1519.09 4.3349 0.705914 0
M  V30 16238 H 1519.69 4.1443 -0.95539 0
M  V30 16239 N 1518.01 0.657889 1.43212 0
M  V30 16240 C 1519.23 0.179444 2.06622 0
M  V30 16241 C 1519.66 -1.14787 1.49015 0
M  V30 16242 O 1519.02 -1.71016 0.60192 0
M  V30 16243 C 1519.06 0.106826 3.60442 0
M  V30 16244 O 1518.17 -0.92962 4.01786 0
M  V30 16245 H 1517.51 0.0970131 0.656875 0
M  V30 16246 H 1520.04 0.902132 1.83638 0
M  V30 16247 H 1520.05 -0.07495 4.07931 0
M  V30 16248 H 1518.72 1.07574 4.01747 0
M  V30 16249 H 1517.3 -0.720255 3.65878 0
M  V30 16250 N 1519.49 -1.52437 0.400108 0
M  V30 16251 C 1520.71 -2.0613 -0.178364 0
M  V30 16252 C 1521.13 -1.27094 -1.39616 0
M  V30 16253 O 1520.49 -0.320409 -1.79665 0
M  V30 16254 C 1520.54 -3.57478 -0.53777 0
M  V30 16255 O 1520.26 -4.33522 0.631657 0
M  V30 16256 C 1521.76 -4.27556 -1.17094 0
M  V30 16257 H 1518.98 -0.670558 -0.0243619 0
M  V30 16258 H 1521.52 -1.9644 0.568459 0
M  V30 16259 H 1519.68 -3.67205 -1.23449 0
M  V30 16260 H 1520.09 -5.23437 0.333803 0
M  V30 16261 H 1521.57 -5.3466 -1.3727 0
M  V30 16262 H 1522.04 -3.83456 -2.14145 0
M  V30 16263 H 1522.65 -4.22174 -0.514687 0
M  V30 16264 N 1520.96 -0.130252 -1.57061 0
M  V30 16265 C 1522.19 0.535707 -2.00362 0
M  V30 16266 C 1522.61 1.58712 -1.00956 0
M  V30 16267 O 1521.97 1.81292 0.0171546 0
M  V30 16268 C 1522.02 1.12836 -3.42491 0
M  V30 16269 O 1521.12 2.24367 -3.46025 0
M  V30 16270 H 1520.47 0.132735 -0.650598 0
M  V30 16271 H 1523 -0.222047 -2.03392 0
M  V30 16272 H 1523.01 1.46115 -3.80939 0
M  V30 16273 H 1521.68 0.358304 -4.14354 0
M  V30 16274 H 1520.26 1.92443 -3.19406 0
M  V30 16275 N 1522.44 1.56945 0.143535 0
M  V30 16276 C 1523.39 1.99479 1.19628 0
M  V30 16277 C 1524.39 0.887733 1.44276 0
M  V30 16278 O 1525.59 1.07292 1.44528 0
M  V30 16279 H 1521.97 0.635049 0.402761 0
M  V30 16280 H 1523.94 2.87171 0.810877 0
M  V30 16281 C 1522.69 2.39436 2.52123 0
M  V30 16282 H 1522.01 3.24176 2.33987 0
M  V30 16283 H 1523.45 2.73017 3.24404 0
M  V30 16284 C 1521.91 1.24836 3.12918 0
M  V30 16285 O 1522.44 0.550973 3.97903 0
M  V30 16286 N 1520.64 1.01172 2.7242 0
M  V30 16287 H 1520.19 1.5806 2.03408 0
M  V30 16288 H 1520.15 0.246846 3.13429 0
M  V30 16289 N 1523.92 -0.412991 1.52093 0
M  V30 16290 C 1525.17 -1.15737 1.65191 0
M  V30 16291 C 1525.48 -1.91753 0.38601 0
M  V30 16292 O 1526.69 -2.68586 0.396731 0
M  V30 16293 C 1525.15 -2.10619 2.91835 0
M  V30 16294 C 1524.75 -1.40137 4.25518 0
M  V30 16295 C 1526.5 -2.85339 3.14296 0
M  V30 16296 C 1524.4 -2.33645 5.4329 0
M  V30 16297 H 1523.33 -0.435732 0.615348 0
M  V30 16298 H 1525.99 -0.422172 1.78578 0
M  V30 16299 H 1524.37 -2.87675 2.72138 0
M  V30 16300 H 1525.54 -0.684719 4.55684 0
M  V30 16301 H 1523.86 -0.774734 4.09129 0
M  V30 16302 H 1526.45 -3.55437 3.99461 0
M  V30 16303 H 1526.8 -3.48071 2.28369 0
M  V30 16304 H 1527.33 -2.15384 3.34447 0
M  V30 16305 H 1524.07 -1.75566 6.31551 0
M  V30 16306 H 1523.59 -3.03294 5.17467 0
M  V30 16307 H 1525.27 -2.94255 5.76215 0
M  V30 16308 N 1525.4 -1.4265 -0.669982 0
M  V30 16309 C 1526.65 -1.42667 -1.42579 0
M  V30 16310 C 1526.96 -0.0483217 -1.9554 0
M  V30 16311 O 1528.17 0.0740917 -2.71399 0
M  V30 16312 C 1526.62 -2.5098 -2.57948 0
M  V30 16313 C 1526.23 -3.94844 -2.11666 0
M  V30 16314 C 1527.98 -2.6017 -3.35428 0
M  V30 16315 C 1525.88 -4.94655 -3.24146 0
M  V30 16316 H 1524.81 -0.530651 -0.535654 0
M  V30 16317 H 1527.46 -1.68576 -0.724861 0
M  V30 16318 H 1525.85 -2.18244 -3.30432 0
M  V30 16319 H 1527.02 -4.36958 -1.46303 0
M  V30 16320 H 1525.33 -3.89547 -1.47111 0
M  V30 16321 H 1527.93 -3.31918 -4.19207 0
M  V30 16322 H 1528.27 -1.64683 -3.82342 0
M  V30 16323 H 1528.81 -2.92124 -2.70016 0
M  V30 16324 H 1525.55 -5.91636 -2.82218 0
M  V30 16325 H 1525.07 -4.57168 -3.88275 0
M  V30 16326 H 1526.75 -5.16593 -3.89538 0
M  V30 16327 N 1526.88 0.906753 -1.28902 0
M  V30 16328 C 1527.83 2.03141 -1.13299 0
M  V30 16329 C 1528.82 1.69325 -0.0504114 0
M  V30 16330 O 1530.03 1.78774 -0.209696 0
M  V30 16331 H 1526.4 0.665709 -0.349766 0
M  V30 16332 H 1528.37 2.13441 -2.08531 0
M  V30 16333 C 1527.12 3.37918 -0.818935 0
M  V30 16334 H 1526.44 3.64437 -1.64395 0
M  V30 16335 H 1527.88 4.17318 -0.749753 0
M  V30 16336 C 1526.34 3.33498 0.477582 0
M  V30 16337 O 1526.87 3.7241 1.50578 0
M  V30 16338 N 1525.08 2.86594 0.480862 0
M  V30 16339 H 1524.63 2.55124 -0.356308 0
M  V30 16340 H 1524.58 2.84019 1.34835 0
M  V30 16341 N 1528.36 1.11264 1.11616 0
M  V30 16342 C 1529.3 0.764321 2.19684 0
M  V30 16343 C 1530.3 -0.243396 1.67642 0
M  V30 16344 O 1531.5 -0.102869 1.79706 0
M  V30 16345 H 1527.88 0.229275 0.716196 0
M  V30 16346 H 1529.85 1.68445 2.46311 0
M  V30 16347 C 1528.6 0.22175 3.46992 0
M  V30 16348 H 1527.92 0.988422 3.87389 0
M  V30 16349 H 1529.36 0.0161946 4.23997 0
M  V30 16350 C 1527.82 -1.04755 3.202 0
M  V30 16351 O 1528.35 -2.12758 3.4073 0
M  V30 16352 N 1526.56 -0.969608 2.73947 0
M  V30 16353 H 1526.1 -0.0906063 2.57441 0
M  V30 16354 H 1526.06 -1.81955 2.56397 0
M  V30 16355 N 1529.83 -1.29188 0.902679 0
M  V30 16356 C 1530.78 -2.29597 0.372585 0
M  V30 16357 C 1531.78 -1.609 -0.529858 0
M  V30 16358 O 1532.98 -1.75214 -0.41233 0
M  V30 16359 H 1529.36 -0.745069 0.101864 0
M  V30 16360 H 1531.33 -2.71746 1.23275 0
M  V30 16361 C 1530.08 -3.45594 -0.382128 0
M  V30 16362 H 1529.4 -3.9865 0.303061 0
M  V30 16363 H 1530.84 -4.17879 -0.717852 0
M  V30 16364 C 1529.3 -2.97238 -1.58591 0
M  V30 16365 O 1529.83 -2.98767 -2.68517 0
M  V30 16366 N 1528.03 -2.53032 -1.42909 0
M  V30 16367 H 1527.58 -2.51988 -0.534786 0
M  V30 16368 H 1527.54 -2.21038 -2.23584 0
M  V30 16369 N 1531.31 -0.665475 -1.42861 0
M  V30 16370 C 1532.54 -0.192 -2.06007 0
M  V30 16371 C 1532.95 1.1472 -1.49949 0
M  V30 16372 O 1532.31 1.71074 -0.635599 0
M  V30 16373 C 1532.36 -0.108189 -3.61338 0
M  V30 16374 O 1532.08 -1.39446 -4.15315 0
M  V30 16375 C 1533.58 0.3899 -4.41582 0
M  V30 16376 H 1530.8 -0.0955812 -0.664158 0
M  V30 16377 H 1533.35 -0.909582 -1.83158 0
M  V30 16378 H 1531.5 0.560024 -3.83331 0
M  V30 16379 H 1531.92 -1.26168 -5.09099 0
M  V30 16380 H 1533.39 0.39747 -5.50567 0
M  V30 16381 H 1533.87 1.42348 -4.15492 0
M  V30 16382 H 1534.47 -0.246248 -4.24587 0
M  V30 16383 N 1532.79 1.52222 -0.408187 0
M  V30 16384 C 1533.72 2.23468 0.462332 0
M  V30 16385 C 1534.7 1.24257 1.04876 0
M  V30 16386 O 1535.88 1.53305 1.0968 0
M  V30 16387 C 1533.01 2.96256 1.64165 0
M  V30 16388 C 1532.06 4.09889 1.1787 0
M  V30 16389 S 1532.89 5.35305 0.144629 0
M  V30 16390 C 1534.05 6.11621 1.3293 0
M  V30 16391 H 1534.28 2.96958 -0.142615 0
M  V30 16392 H 1531.81 1.53196 -0.19248 0
M  V30 16393 H 1533.77 3.38798 2.3179 0
M  V30 16394 H 1532.43 2.2241 2.21794 0
M  V30 16395 H 1531.62 4.59989 2.05977 0
M  V30 16396 H 1531.23 3.69458 0.581119 0
M  V30 16397 H 1533.52 6.38939 2.25306 0
M  V30 16398 H 1534.46 7.02749 0.86885 0
M  V30 16399 H 1534.87 5.4267 1.55466 0
M  V30 16400 N 1534.27 0.138579 1.5699 0
M  V30 16401 C 1535.22 -0.821469 2.17611 0
M  V30 16402 C 1536.21 -1.26137 1.13074 0
M  V30 16403 O 1537.42 -1.23084 1.31341 0
M  V30 16404 H 1533.79 -0.283086 0.696682 0
M  V30 16405 H 1535.76 -0.285891 2.97027 0
M  V30 16406 C 1534.51 -2.05395 2.8055 0
M  V30 16407 H 1533.83 -1.72442 3.60699 0
M  V30 16408 H 1535.27 -2.70531 3.2648 0
M  V30 16409 C 1533.73 -2.85647 1.78626 0
M  V30 16410 O 1534.26 -3.81705 1.25156 0
M  V30 16411 N 1532.47 -2.50018 1.4812 0
M  V30 16412 H 1532.02 -1.71969 1.91793 0
M  V30 16413 H 1531.97 -3.04007 0.8017 0
M  V30 16414 N 1535.75 -1.57019 -0.13521 0
M  V30 16415 C 1536.97 -1.88528 -0.864399 0
M  V30 16416 C 1537.4 -0.728852 -1.73405 0
M  V30 16417 O 1536.75 0.321196 -1.78432 0
M  V30 16418 C 1536.8 -3.18694 -1.6872 0
M  V30 16419 O 1535.91 -3.03458 -2.79262 0
M  V30 16420 H 1535.25 -0.61909 -0.24005 0
M  V30 16421 H 1537.78 -2.04233 -0.12248 0
M  V30 16422 H 1537.79 -3.51011 -2.0798 0
M  V30 16423 H 1536.46 -4.02462 -1.04868 0
M  V30 16424 H 1535.04 -2.82575 -2.43323 0
M  V30 16425 N 1537.22 0.404919 -1.52309 0
M  V30 16426 C 1538.17 1.51412 -1.7657 0
M  V30 16427 C 1539.17 1.5713 -0.632983 0
M  V30 16428 O 1540.37 1.60486 -0.815121 0
M  V30 16429 H 1536.75 0.503636 -0.55844 0
M  V30 16430 H 1538.72 1.28137 -2.69488 0
M  V30 16431 C 1537.47 2.88733 -1.93722 0
M  V30 16432 H 1536.79 2.85078 -2.80304 0
M  V30 16433 H 1538.23 3.65626 -2.14695 0
M  V30 16434 C 1536.69 3.29431 -0.705444 0
M  V30 16435 O 1537.22 4.01506 0.124693 0
M  V30 16436 N 1535.43 2.85536 -0.540128 0
M  V30 16437 H 1534.97 2.27052 -1.21677 0
M  V30 16438 H 1534.93 3.13126 0.282723 0
M  V30 16439 N 1538.7 1.43003 0.662408 0
M  V30 16440 C 1539.95 1.44133 1.42239 0
M  V30 16441 C 1540.28 0.062249 1.944 0
M  V30 16442 O 1539.53 -0.931341 1.72118 0
M  V30 16443 C 1539.83 2.4231 2.62718 0
M  V30 16444 C 1539.5 3.88403 2.29028 0
M  V30 16445 C 1538.16 4.28194 2.19552 0
M  V30 16446 C 1540.51 4.80505 2.01902 0
M  V30 16447 C 1537.84 5.58052 1.81092 0
M  V30 16448 C 1540.19 6.10718 1.64943 0
M  V30 16449 C 1538.86 6.49496 1.53985 0
M  V30 16450 H 1538.13 0.527419 0.52049 0
M  V30 16451 H 1540.77 1.76024 0.75417 0
M  V30 16452 H 1539.08 2.03789 3.3463 0
M  V30 16453 H 1540.77 2.40442 3.20918 0
M  V30 16454 H 1537.36 3.56906 2.37311 0
M  V30 16455 H 1541.55 4.50542 2.08149 0
M  V30 16456 H 1536.8 5.86945 1.71187 0
M  V30 16457 H 1540.98 6.81564 1.42982 0
M  V30 16458 H 1538.61 7.50026 1.23954 0
M  V30 16459 N 1540.18 -0.899904 1.29381 0
M  V30 16460 C 1541.13 -2.004 1.14493 0
M  V30 16461 C 1542.1 -1.66056 0.0383099 0
M  V30 16462 O 1543.28 -1.89687 0.20579 0
M  V30 16463 C 1540.42 -3.35039 0.827237 0
M  V30 16464 C 1539.54 -3.82166 2.01427 0
M  V30 16465 C 1538.67 -5.0538 1.63598 0
M  V30 16466 C 1537.71 -5.44876 2.78884 0
M  V30 16467 N 1536.85 -6.59276 2.41452 0
M  V30 16468 H 1541.69 -2.12466 2.08955 0
M  V30 16469 H 1539.22 -1.0405 1.03981 0
M  V30 16470 H 1541.18 -4.12511 0.62373 0
M  V30 16471 H 1539.81 -3.227 -0.0804772 0
M  V30 16472 H 1538.86 -3.00731 2.32949 0
M  V30 16473 H 1540.18 -4.07387 2.87814 0
M  V30 16474 H 1539.33 -5.90436 1.39534 0
M  V30 16475 H 1538.07 -4.81998 0.743593 0
M  V30 16476 H 1537.07 -4.58355 3.0363 0
M  V30 16477 H 1538.3 -5.7024 3.68786 0
M  V30 16478 H 1536.24 -6.37498 1.54701 0
M  V30 16479 H 1536.16 -6.84293 3.21372 0
M  V30 16480 H 1537.43 -7.47602 2.20708 0
M  V30 16481 N 1541.66 -1.11854 -1.11024 0
M  V30 16482 C 1542.88 -0.892999 -1.8719 0
M  V30 16483 C 1543.31 0.552058 -1.79816 0
M  V30 16484 O 1542.67 1.39025 -1.16369 0
M  V30 16485 C 1542.71 -1.3647 -3.33779 0
M  V30 16486 O 1541.82 -0.539202 -4.0886 0
M  V30 16487 H 1541.16 -0.321319 -0.581076 0
M  V30 16488 H 1543.69 -1.4891 -1.4031 0
M  V30 16489 H 1543.7 -1.3611 -3.84627 0
M  V30 16490 H 1542.37 -2.41694 -3.38462 0
M  V30 16491 H 1540.95 -0.60927 -3.67889 0
M  V30 16492 N 1543.14 1.28707 -0.909517 0
M  V30 16493 C 1544.38 1.95443 -0.541281 0
M  V30 16494 C 1544.72 1.71457 0.911934 0
M  V30 16495 O 1543.99 1.03312 1.64794 0
M  V30 16496 C 1544.27 3.50019 -0.846097 0
M  V30 16497 C 1544.13 3.83423 -2.35173 0
M  V30 16498 C 1545.45 4.3879 -0.339328 0
M  V30 16499 H 1542.56 0.709869 -0.198128 0
M  V30 16500 H 1545.21 1.52151 -1.13799 0
M  V30 16501 H 1543.36 3.87025 -0.338262 0
M  V30 16502 H 1545.03 3.5631 -2.92986 0
M  V30 16503 H 1543.27 3.30618 -2.80846 0
M  V30 16504 H 1543.94 4.91348 -2.51557 0
M  V30 16505 H 1546.42 4.08832 -0.774312 0
M  V30 16506 H 1545.29 5.45809 -0.581722 0
M  V30 16507 H 1545.56 4.35514 0.760244 0
M  V30 16508 N 1544.61 0.673042 1.42506 0
M  V30 16509 C 1545.86 0.1918 2.00786 0
M  V30 16510 C 1546.18 -1.20814 1.53829 0
M  V30 16511 O 1547.38 -1.78566 2.04515 0
M  V30 16512 C 1545.84 0.292045 3.58713 0
M  V30 16513 C 1545.45 1.69593 4.14659 0
M  V30 16514 C 1547.19 -0.130575 4.24299 0
M  V30 16515 C 1545.1 1.74904 5.64945 0
M  V30 16516 H 1544.03 0.0679452 0.750932 0
M  V30 16517 H 1546.68 0.837968 1.63249 0
M  V30 16518 H 1545.06 -0.421985 3.93745 0
M  V30 16519 H 1546.23 2.4369 3.9109 0
M  V30 16520 H 1544.55 2.06625 3.61518 0
M  V30 16521 H 1547.15 -0.11102 5.34585 0
M  V30 16522 H 1547.49 -1.16552 3.99651 0
M  V30 16523 H 1548.02 0.532386 3.94221 0
M  V30 16524 H 1544.76 2.76374 5.94388 0
M  V30 16525 H 1544.28 1.0516 5.9051 0
M  V30 16526 H 1545.96 1.50168 6.29332 0
M  V30 16527 N 1546.09 -1.52004 0.416254 0
M  V30 16528 C 1547.5 -1.86628 -0.0517247 0
M  V30 16529 C 1547.85 -1.33463 -1.43813 0
M  V30 16530 O 1546.98 -0.676793 -2.05544 0
M  V30 16531 C 1547.57 -3.38651 -0.100637 0
M  V30 16532 C 1546.13 -3.72888 -0.512969 0
M  V30 16533 C 1545.28 -2.75584 0.307975 0
M  V30 16534 H 1548.23 -1.45529 0.633018 0
M  V30 16535 H 1548.25 -3.69348 -0.914465 0
M  V30 16536 H 1547.76 -3.77316 0.908538 0
M  V30 16537 H 1545.87 -3.39804 -1.52852 0
M  V30 16538 H 1545.98 -4.78435 -0.252408 0
M  V30 16539 H 1544.34 -2.53653 -0.230717 0
M  V30 16540 H 1545.13 -3.1709 1.31563 0
M  V30 16541 N 1547.57 -0.146903 -1.56914 0
M  V30 16542 C 1548.98 0.373938 -1.82917 0
M  V30 16543 C 1549.33 1.64741 -1.06559 0
M  V30 16544 O 1548.46 2.14156 -0.310849 0
M  V30 16545 C 1549.05 0.685213 -3.31799 0
M  V30 16546 C 1547.61 1.15058 -3.58383 0
M  V30 16547 C 1546.76 0.17362 -2.76756 0
M  V30 16548 H 1549.71 -0.371602 -1.54288 0
M  V30 16549 H 1549.73 1.53989 -3.47948 0
M  V30 16550 H 1549.24 -0.241816 -3.87346 0
M  V30 16551 H 1547.34 2.09355 -3.08223 0
M  V30 16552 H 1547.46 1.07662 -4.66847 0
M  V30 16553 H 1545.82 0.666227 -2.45832 0
M  V30 16554 H 1546.6 -0.746998 -3.35074 0
M  V30 16555 N 1549.05 1.57088 0.126881 0
M  V30 16556 C 1550.46 1.73685 0.684865 0
M  V30 16557 C 1550.81 0.764401 1.80697 0
M  V30 16558 O 1549.94 -0.0644761 2.16304 0
M  V30 16559 C 1550.53 3.14933 1.24911 0
M  V30 16560 C 1549.09 3.33063 1.75346 0
M  V30 16561 C 1548.24 2.69575 0.649976 0
M  V30 16562 H 1551.19 1.58391 -0.0989715 0
M  V30 16563 H 1551.21 3.16047 2.11884 0
M  V30 16564 H 1550.72 3.85686 0.432204 0
M  V30 16565 H 1548.82 2.67339 2.59539 0
M  V30 16566 H 1548.93 4.41169 1.86833 0
M  V30 16567 H 1547.3 2.30592 1.08163 0
M  V30 16568 H 1548.08 3.42946 -0.15582 0
M  V30 16569 N 1550.53 -0.396836 1.52522 0
M  V30 16570 C 1551.46 -1.49088 1.79708 0
M  V30 16571 C 1552.44 -1.57246 0.648678 0
M  V30 16572 O 1553.62 -1.72321 0.895495 0
M  V30 16573 C 1550.75 -2.86785 1.95887 0
M  V30 16574 C 1549.71 -2.93472 3.11542 0
M  V30 16575 C 1549.03 -4.33542 3.12963 0
M  V30 16576 C 1550.33 -2.63832 4.50766 0
M  V30 16577 H 1552.03 -1.26588 2.71322 0
M  V30 16578 H 1549.57 -0.607535 1.30557 0
M  V30 16579 H 1551.53 -3.63319 2.13489 0
M  V30 16580 H 1550.25 -3.10605 1.00955 0
M  V30 16581 H 1548.91 -2.19384 2.93711 0
M  V30 16582 H 1548.56 -4.5439 2.15729 0
M  V30 16583 H 1548.26 -4.38938 3.9065 0
M  V30 16584 H 1549.78 -5.11993 3.32709 0
M  V30 16585 H 1551.19 -3.30086 4.68739 0
M  V30 16586 H 1549.59 -2.80589 5.30462 0
M  V30 16587 H 1550.66 -1.59209 4.58018 0
M  V30 16588 N 1552.01 -1.43353 -0.654814 0
M  V30 16589 C 1553.42 -1.39933 -1.23595 0
M  V30 16590 C 1553.77 -0.102592 -1.95932 0
M  V30 16591 O 1552.89 0.798021 -2.01148 0
M  V30 16592 C 1553.49 -2.53483 -2.24793 0
M  V30 16593 C 1552.05 -2.53333 -2.78387 0
M  V30 16594 C 1551.19 -2.31268 -1.53005 0
M  V30 16595 H 1554.14 -1.52277 -0.446932 0
M  V30 16596 H 1554.17 -2.2488 -3.06935 0
M  V30 16597 H 1553.68 -3.47847 -1.72116 0
M  V30 16598 H 1551.78 -1.62844 -3.35131 0
M  V30 16599 H 1551.89 -3.51047 -3.26041 0
M  V30 16600 H 1550.26 -1.79905 -1.80295 0
M  V30 16601 H 1551.04 -3.27714 -1.02266 0
M  V30 16602 N 1553.48 0.89303 -1.29857 0
M  V30 16603 C 1554.42 2.00005 -1.09879 0
M  V30 16604 C 1555.39 1.62598 -0.00873108 0
M  V30 16605 O 1556.58 1.87814 -0.160726 0
M  V30 16606 C 1553.71 3.31924 -0.67412 0
M  V30 16607 C 1552.75 3.88317 -1.76387 0
M  V30 16608 S 1553.58 4.16602 -3.36456 0
M  V30 16609 C 1554.74 5.51553 -2.95873 0
M  V30 16610 H 1554.97 2.16644 -2.036 0
M  V30 16611 H 1552.51 1.04045 -1.14079 0
M  V30 16612 H 1554.46 4.0818 -0.435825 0
M  V30 16613 H 1553.13 3.13154 0.243592 0
M  V30 16614 H 1552.32 4.83617 -1.41882 0
M  V30 16615 H 1551.92 3.18772 -1.95603 0
M  V30 16616 H 1554.21 6.32294 -2.43332 0
M  V30 16617 H 1555.16 5.90988 -3.90049 0
M  V30 16618 H 1555.56 5.13728 -2.33973 0
M  V30 16619 N 1554.96 1.12442 1.10429 0
M  V30 16620 C 1555.91 0.787578 2.18861 0
M  V30 16621 C 1556.9 -0.225602 1.67891 0
M  V30 16622 O 1558.11 -0.0838029 1.79805 0
M  V30 16623 H 1554.48 0.236858 0.713724 0
M  V30 16624 H 1556.46 1.71048 2.4451 0
M  V30 16625 C 1555.2 0.25854 3.46737 0
M  V30 16626 H 1554.53 1.02945 3.86319 0
M  V30 16627 H 1555.97 0.0611642 4.23956 0
M  V30 16628 C 1554.43 -1.01353 3.21293 0
M  V30 16629 O 1554.96 -2.09132 3.42967 0
M  V30 16630 N 1553.16 -0.940498 2.7496 0
M  V30 16631 H 1552.71 -0.0632962 2.57522 0
M  V30 16632 H 1552.67 -1.79226 2.58313 0
M  V30 16633 N 1556.44 -1.28223 0.91633 0
M  V30 16634 C 1557.67 -1.98986 0.566772 0
M  V30 16635 C 1558.08 -1.68455 -0.852553 0
M  V30 16636 O 1557.44 -0.938734 -1.56506 0
M  V30 16637 C 1557.49 -3.53217 0.769423 0
M  V30 16638 O 1557.21 -3.82674 2.1329 0
M  V30 16639 C 1558.71 -4.41238 0.427043 0
M  V30 16640 H 1555.93 -0.63534 0.215834 0
M  V30 16641 H 1558.48 -1.63357 1.23024 0
M  V30 16642 H 1556.63 -3.87098 0.152915 0
M  V30 16643 H 1557.05 -4.77302 2.17448 0
M  V30 16644 H 1558.52 -5.48512 0.619594 0
M  V30 16645 H 1559 -4.34558 -0.63686 0
M  V30 16646 H 1559.6 -4.12858 1.0212 0
M  V30 16647 N 1557.92 -0.68059 -1.42147 0
M  V30 16648 C 1558.85 0.0331442 -2.29176 0
M  V30 16649 C 1559.86 0.759652 -1.4399 0
M  V30 16650 O 1561.05 0.612846 -1.6765 0
M  V30 16651 C 1558.15 1.07077 -3.2154 0
M  V30 16652 C 1557.32 0.416914 -4.35409 0
M  V30 16653 C 1556.38 1.3551 -5.08452 0
M  V30 16654 O 1555.41 0.853198 -5.62769 0
M  V30 16655 N 1556.61 2.68815 -5.14508 0
M  V30 16656 H 1559.38 -0.713963 -2.91072 0
M  V30 16657 H 1556.94 -0.525451 -1.53136 0
M  V30 16658 H 1558.93 1.6998 -3.67272 0
M  V30 16659 H 1557.5 1.71955 -2.61056 0
M  V30 16660 H 1556.72 -0.391734 -3.92249 0
M  V30 16661 H 1558.01 -0.0383564 -5.08786 0
M  V30 16662 H 1557.41 3.12125 -4.71799 0
M  V30 16663 H 1555.96 3.26951 -5.63867 0
M  V30 16664 N 1559.4 1.51781 -0.424309 0
M  V30 16665 C 1560.33 2.23945 0.438604 0
M  V30 16666 C 1561.31 1.25363 1.03552 0
M  V30 16667 O 1562.49 1.5446 1.08048 0
M  V30 16668 C 1559.62 2.9798 1.61014 0
M  V30 16669 C 1558.66 4.11116 1.13516 0
M  V30 16670 S 1559.5 5.35428 0.0878448 0
M  V30 16671 C 1560.65 6.12997 1.26435 0
M  V30 16672 H 1560.89 2.9679 -0.174103 0
M  V30 16673 H 1558.42 1.52983 -0.208718 0
M  V30 16674 H 1560.38 3.41237 2.28183 0
M  V30 16675 H 1559.04 2.2475 2.19423 0
M  V30 16676 H 1558.23 4.62147 2.01086 0
M  V30 16677 H 1557.83 3.70053 0.5419 0
M  V30 16678 H 1560.12 6.41293 2.18517 0
M  V30 16679 H 1561.07 7.03631 0.794265 0
M  V30 16680 H 1561.48 5.44288 1.49702 0
M  V30 16681 N 1560.87 0.155222 1.56834 0
M  V30 16682 C 1561.82 -0.798342 2.1847 0
M  V30 16683 C 1562.82 -1.24931 1.14405 0
M  V30 16684 O 1564.02 -1.21684 1.32639 0
M  V30 16685 H 1560.4 -0.275681 0.699646 0
M  V30 16686 H 1562.37 -0.254371 2.97314 0
M  V30 16687 C 1561.12 -2.02407 2.82713 0
M  V30 16688 H 1560.44 -1.68606 3.62508 0
M  V30 16689 H 1561.88 -2.67053 3.29331 0
M  V30 16690 C 1560.34 -2.83737 1.81645 0
M  V30 16691 O 1560.87 -3.80356 1.29198 0
M  V30 16692 N 1559.07 -2.48433 1.50764 0
M  V30 16693 H 1558.62 -1.69925 1.93606 0
M  V30 16694 H 1558.58 -3.03139 0.833899 0
M  V30 16695 N 1562.35 -1.57153 -0.118549 0
M  V30 16696 C 1563.3 -2.01357 -1.1644 0
M  V30 16697 C 1564.29 -0.910574 -1.42846 0
M  V30 16698 O 1565.5 -1.09578 -1.42803 0
M  V30 16699 H 1561.87 -0.641376 -0.392607 0
M  V30 16700 H 1563.85 -2.88425 -0.765087 0
M  V30 16701 C 1562.59 -2.43416 -2.48282 0
M  V30 16702 H 1561.92 -3.27857 -2.288 0
M  V30 16703 H 1563.36 -2.78143 -3.20019 0
M  V30 16704 C 1561.82 -1.29799 -3.10892 0
M  V30 16705 O 1562.35 -0.614207 -3.96977 0
M  V30 16706 N 1560.55 -1.05493 -2.70776 0
M  V30 16707 H 1560.1 -1.61276 -2.00868 0
M  V30 16708 H 1560.06 -0.296678 -3.12997 0
M  V30 16709 N 1563.83 0.388742 -1.5273 0
M  V30 16710 C 1565.05 1.15946 -1.71963 0
M  V30 16711 C 1565.48 1.82949 -0.437173 0
M  V30 16712 O 1564.84 1.70834 0.607072 0
M  V30 16713 C 1564.89 2.18298 -2.87016 0
M  V30 16714 O 1563.99 3.24891 -2.54008 0
M  V30 16715 H 1563.33 0.337526 -0.571815 0
M  V30 16716 H 1565.86 0.452957 -1.99523 0
M  V30 16717 H 1565.87 2.6229 -3.12519 0
M  V30 16718 H 1564.55 1.68917 -3.80052 0
M  V30 16719 H 1563.12 2.86034 -2.39246 0
M  V30 16720 N 1565.31 1.43698 0.647203 0
M  V30 16721 C 1566.54 1.49085 1.43462 0
M  V30 16722 C 1566.95 0.110605 1.88476 0
M  V30 16723 O 1566.31 -0.880365 1.59862 0
M  V30 16724 C 1566.36 2.44186 2.66562 0
M  V30 16725 O 1566.08 3.76844 2.23429 0
M  V30 16726 C 1567.58 2.58876 3.59858 0
M  V30 16727 H 1564.8 0.506148 0.440517 0
M  V30 16728 H 1567.34 1.88502 0.792931 0
M  V30 16729 H 1565.5 2.07949 3.26858 0
M  V30 16730 H 1565.91 4.2804 3.0312 0
M  V30 16731 H 1567.39 3.29482 4.42883 0
M  V30 16732 H 1567.86 1.63567 4.07606 0
M  V30 16733 H 1568.47 2.95949 3.05441 0
M  V30 16734 N 1566.79 -0.886131 1.30328 0
M  V30 16735 C 1568.01 -1.67625 1.22134 0
M  V30 16736 C 1568.44 -1.86893 -0.212712 0
M  V30 16737 O 1567.79 -1.39905 -1.1531 0
M  V30 16738 C 1567.84 -3.03068 1.95402 0
M  V30 16739 O 1566.95 -3.92022 1.28032 0
M  V30 16740 H 1566.29 -0.512246 0.422493 0
M  V30 16741 H 1568.82 -1.10602 1.72129 0
M  V30 16742 H 1568.83 -3.53119 2.04379 0
M  V30 16743 H 1567.5 -2.88363 2.99699 0
M  V30 16744 H 1566.08 -3.50461 1.27402 0
M  V30 16745 N 1568.26 -1.13026 -1.09832 0
M  V30 16746 C 1569.49 -0.912803 -1.86233 0
M  V30 16747 C 1569.91 0.532955 -1.80392 0
M  V30 16748 O 1569.27 1.37783 -1.17837 0
M  V30 16749 C 1569.32 -1.40002 -3.32313 0
M  V30 16750 O 1568.42 -0.582537 -4.08265 0
M  V30 16751 H 1567.77 -0.327464 -0.577636 0
M  V30 16752 H 1570.3 -1.5039 -1.38723 0
M  V30 16753 H 1570.31 -1.40182 -3.83162 0
M  V30 16754 H 1568.98 -2.4527 -3.3588 0
M  V30 16755 H 1567.56 -0.648255 -3.67222 0
M  V30 16756 N 1569.74 1.27735 -0.923117 0
M  V30 16757 C 1570.99 1.93857 -0.556994 0
M  V30 16758 C 1571.3 1.73386 0.905346 0
M  V30 16759 O 1572.51 2.3381 1.38005 0
M  V30 16760 C 1570.97 3.47263 -0.94534 0
M  V30 16761 C 1570.57 3.76497 -2.42805 0
M  V30 16762 C 1572.32 4.1949 -0.65025 0
M  V30 16763 C 1570.23 5.23256 -2.75603 0
M  V30 16764 H 1569.16 0.725712 -0.204591 0
M  V30 16765 H 1571.81 1.451 -1.12331 0
M  V30 16766 H 1570.19 3.94803 -0.307721 0
M  V30 16767 H 1571.36 3.39731 -3.11319 0
M  V30 16768 H 1569.68 3.17463 -2.69456 0
M  V30 16769 H 1572.27 5.27544 -0.871851 0
M  V30 16770 H 1572.62 4.14253 0.412352 0
M  V30 16771 H 1573.15 3.77758 -1.24676 0
M  V30 16772 H 1569.89 5.33579 -3.80754 0
M  V30 16773 H 1569.41 5.61185 -2.11735 0
M  V30 16774 H 1571.09 5.91088 -2.63103 0
M  V30 16775 N 1571.22 0.688118 1.41784 0
M  V30 16776 C 1572.15 -0.02099 2.2919 0
M  V30 16777 C 1573.17 -0.752005 1.44391 0
M  V30 16778 O 1574.35 -0.603947 1.67972 0
M  V30 16779 C 1571.45 -1.0537 3.22103 0
M  V30 16780 C 1570.63 -0.393817 4.35624 0
M  V30 16781 C 1569.69 -1.32812 5.09163 0
M  V30 16782 O 1568.71 -0.823341 5.63214 0
M  V30 16783 N 1569.91 -2.66083 5.15927 0
M  V30 16784 H 1572.68 0.729389 2.90689 0
M  V30 16785 H 1570.24 0.533564 1.52855 0
M  V30 16786 H 1572.23 -1.6803 3.68169 0
M  V30 16787 H 1570.8 -1.70568 2.61964 0
M  V30 16788 H 1570.02 0.41253 3.92035 0
M  V30 16789 H 1571.31 0.065338 5.08758 0
M  V30 16790 H 1570.71 -3.09619 4.73448 0
M  V30 16791 H 1569.27 -3.23956 5.65593 0
M  V30 16792 N 1572.7 -1.51554 0.432352 0
M  V30 16793 C 1574.11 -1.86673 -0.0319274 0
M  V30 16794 C 1574.46 -1.34981 -1.42389 0
M  V30 16795 O 1573.59 -0.698556 -2.04815 0
M  V30 16796 C 1574.18 -3.38738 -0.0647127 0
M  V30 16797 C 1572.74 -3.73411 -0.47339 0
M  V30 16798 C 1571.89 -2.75242 0.337187 0
M  V30 16799 H 1574.84 -1.44849 0.648417 0
M  V30 16800 H 1574.86 -3.70297 -0.875239 0
M  V30 16801 H 1574.37 -3.76331 0.948507 0
M  V30 16802 H 1572.47 -3.41406 -1.4924 0
M  V30 16803 H 1572.58 -4.78675 -0.20165 0
M  V30 16804 H 1570.95 -2.53883 -0.203801 0
M  V30 16805 H 1571.73 -3.15677 1.34919 0
M  V30 16806 N 1574.18 -0.163538 -1.56749 0
M  V30 16807 C 1575.59 0.354516 -1.83303 0
M  V30 16808 C 1575.94 1.63601 -1.08301 0
M  V30 16809 O 1575.06 2.13814 -0.333546 0
M  V30 16810 C 1575.66 0.649983 -3.32507 0
M  V30 16811 C 1574.22 1.1125 -3.59584 0
M  V30 16812 C 1573.36 0.144257 -2.76925 0
M  V30 16813 H 1576.32 -0.387945 -1.53885 0
M  V30 16814 H 1576.34 1.5029 -3.49562 0
M  V30 16815 H 1575.85 -0.282886 -3.87068 0
M  V30 16816 H 1573.95 2.06074 -3.10426 0
M  V30 16817 H 1574.06 1.02704 -4.67962 0
M  V30 16818 H 1572.43 0.640116 -2.46525 0
M  V30 16819 H 1573.21 -0.782495 -3.34263 0
M  V30 16820 N 1575.65 1.57214 0.110213 0
M  V30 16821 C 1577.07 1.74402 0.666405 0
M  V30 16822 C 1577.42 0.783524 1.79876 0
M  V30 16823 O 1576.54 -0.0415306 2.1636 0
M  V30 16824 C 1577.14 3.1624 1.21564 0
M  V30 16825 C 1575.7 3.34904 1.71804 0
M  V30 16826 C 1574.84 2.70249 0.621347 0
M  V30 16827 H 1577.79 1.58277 -0.115765 0
M  V30 16828 H 1577.81 3.18276 2.0852 0
M  V30 16829 H 1577.33 3.86123 0.391273 0
M  V30 16830 H 1575.43 2.70077 2.56689 0
M  V30 16831 H 1575.54 4.43126 1.82143 0
M  V30 16832 H 1573.9 2.31727 1.05711 0
M  V30 16833 H 1574.69 3.42762 -0.192185 0
M  V30 16834 N 1577.13 -0.380637 1.52934 0
M  V30 16835 C 1578.36 -1.15033 1.72575 0
M  V30 16836 C 1578.78 -1.82715 0.446869 0
M  V30 16837 O 1578.14 -1.71154 -0.598004 0
M  V30 16838 C 1578.19 -2.16773 2.8817 0
M  V30 16839 O 1577.29 -3.23539 2.55727 0
M  V30 16840 H 1576.63 -0.334489 0.573597 0
M  V30 16841 H 1579.16 -0.442369 1.9976 0
M  V30 16842 H 1579.17 -2.60629 3.13905 0
M  V30 16843 H 1577.85 -1.669 3.80943 0
M  V30 16844 H 1576.43 -2.84761 2.4076 0
M  V30 16845 N 1578.61 -1.44039 -0.639573 0
M  V30 16846 C 1579.86 -1.46594 -1.40136 0
M  V30 16847 C 1580.19 -0.0949646 -1.93968 0
M  V30 16848 O 1579.46 0.886201 -1.73138 0
M  V30 16849 C 1579.75 -2.51947 -2.57283 0
M  V30 16850 C 1579.6 -3.98371 -2.08855 0
M  V30 16851 C 1580.92 -2.53891 -3.59482 0
M  V30 16852 H 1578.04 -0.533759 -0.508203 0
M  V30 16853 H 1580.68 -1.75669 -0.723898 0
M  V30 16854 H 1578.83 -2.27285 -3.15077 0
M  V30 16855 H 1580.5 -4.34137 -1.55956 0
M  V30 16856 H 1578.75 -4.10551 -1.40109 0
M  V30 16857 H 1579.42 -4.67721 -2.93157 0
M  V30 16858 H 1581.89 -2.75906 -3.11473 0
M  V30 16859 H 1580.77 -3.29524 -4.38982 0
M  V30 16860 H 1581.03 -1.57774 -4.12989 0
M  V30 16861 N 1580.09 0.879207 -1.30796 0
M  V30 16862 C 1581.5 1.44705 -1.17972 0
M  V30 16863 C 1581.85 1.94992 0.217381 0
M  V30 16864 O 1580.98 1.85494 1.11449 0
M  V30 16865 C 1581.57 2.6302 -2.13555 0
M  V30 16866 C 1580.13 3.15877 -2.04692 0
M  V30 16867 C 1579.28 1.88576 -2.03309 0
M  V30 16868 H 1582.23 0.688604 -1.42982 0
M  V30 16869 H 1582.25 3.39418 -1.71976 0
M  V30 16870 H 1581.76 2.2639 -3.15229 0
M  V30 16871 H 1579.86 3.57151 -1.0618 0
M  V30 16872 H 1579.97 3.78786 -2.93357 0
M  V30 16873 H 1578.34 2.0715 -1.48192 0
M  V30 16874 H 1579.12 1.54195 -3.06723 0
M  V30 16875 N 1581.57 1.13606 1.09231 0
M  V30 16876 C 1582.98 0.91148 1.62938 0
M  V30 16877 C 1583.33 -0.55157 1.88287 0
M  V30 16878 O 1582.45 -1.4187 1.63407 0
M  V30 16879 C 1583.05 1.64812 2.96011 0
M  V30 16880 C 1581.61 1.46935 3.46536 0
M  V30 16881 C 1580.76 1.67605 2.20916 0
M  V30 16882 H 1583.71 1.28907 0.925669 0
M  V30 16883 H 1583.73 1.10638 3.6406 0
M  V30 16884 H 1583.24 2.71291 2.77529 0
M  V30 16885 H 1581.34 0.427667 3.70138 0
M  V30 16886 H 1581.45 2.23374 4.2384 0
M  V30 16887 H 1579.82 1.10105 2.29672 0
M  V30 16888 H 1580.6 2.75408 2.04952 0
M  V30 16889 N 1583.05 -1.27244 0.929878 0
M  V30 16890 C 1584.27 -1.98373 0.587845 0
M  V30 16891 C 1584.69 -1.69349 -0.834638 0
M  V30 16892 O 1584.05 -0.955281 -1.55501 0
M  V30 16893 C 1584.1 -3.52381 0.806843 0
M  V30 16894 O 1583.82 -3.8039 2.17337 0
M  V30 16895 C 1585.32 -4.40761 0.473818 0
M  V30 16896 H 1582.54 -0.633015 0.22256 0
M  V30 16897 H 1585.08 -1.62043 1.2475 0
M  V30 16898 H 1583.24 -3.86914 0.193963 0
M  V30 16899 H 1583.65 -4.74968 2.22498 0
M  V30 16900 H 1585.13 -5.47824 0.677736 0
M  V30 16901 H 1585.6 -4.35209 -0.590734 0
M  V30 16902 H 1586.21 -4.11751 1.06493 0
M  V30 16903 N 1584.52 -0.695628 -1.41417 0
M  V30 16904 C 1585.47 -0.0303383 -2.3078 0
M  V30 16905 C 1586.44 0.771218 -1.4711 0
M  V30 16906 O 1587.63 0.739239 -1.75897 0
M  V30 16907 C 1584.77 0.900034 -3.33157 0
M  V30 16908 C 1583.88 0.0900862 -4.31906 0
M  V30 16909 C 1583.01 1.01811 -5.21352 0
M  V30 16910 C 1582.05 0.201068 -6.1177 0
M  V30 16911 N 1581.19 1.0829 -6.93699 0
M  V30 16912 H 1586.03 -0.798148 -2.87113 0
M  V30 16913 H 1583.57 -0.405311 -1.41406 0
M  V30 16914 H 1585.52 1.45349 -3.91062 0
M  V30 16915 H 1584.15 1.63424 -2.78375 0
M  V30 16916 H 1583.21 -0.58029 -3.75948 0
M  V30 16917 H 1584.52 -0.543336 -4.95832 0
M  V30 16918 H 1583.67 1.64079 -5.84092 0
M  V30 16919 H 1582.41 1.68538 -4.57653 0
M  V30 16920 H 1581.42 -0.434686 -5.48079 0
M  V30 16921 H 1582.64 -0.462416 -6.77524 0
M  V30 16922 H 1580.59 1.73619 -6.32608 0
M  V30 16923 H 1580.5 0.505046 -7.54311 0
M  V30 16924 H 1581.77 1.69239 -7.60906 0
M  V30 16925 N 1586 1.51322 -0.440383 0
M  V30 16926 C 1587.25 2.02113 0.125062 0
M  V30 16927 C 1587.58 1.32436 1.42446 0
M  V30 16928 O 1586.83 0.428981 1.9094 0
M  V30 16929 C 1587.13 3.55287 0.388079 0
M  V30 16930 C 1586.8 4.43272 -0.825876 0
M  V30 16931 C 1585.46 4.67039 -1.15878 0
M  V30 16932 C 1587.81 4.94872 -1.63557 0
M  V30 16933 C 1585.14 5.39652 -2.30201 0
M  V30 16934 C 1587.49 5.68739 -2.76981 0
M  V30 16935 C 1586.15 5.90769 -3.10722 0
M  V30 16936 H 1585.42 0.739585 0.0457635 0
M  V30 16937 H 1588.07 1.82243 -0.588201 0
M  V30 16938 H 1586.38 3.73505 1.18327 0
M  V30 16939 H 1588.07 3.92124 0.839055 0
M  V30 16940 H 1584.66 4.24972 -0.556468 0
M  V30 16941 H 1588.85 4.76391 -1.39158 0
M  V30 16942 H 1584.1 5.54923 -2.56653 0
M  V30 16943 H 1588.28 6.07711 -3.40089 0
M  V30 16944 H 1585.9 6.46814 -3.9942 0
M  V30 16945 N 1587.48 0.171848 1.5666 0
M  V30 16946 C 1588.43 -0.770535 2.14585 0
M  V30 16947 C 1589.41 -1.19247 1.08023 0
M  V30 16948 O 1590.61 -1.15474 1.34144 0
M  V30 16949 C 1587.73 -1.99956 2.79057 0
M  V30 16950 C 1586.82 -1.59959 3.92777 0
M  V30 16951 N 1587.21 -0.909224 4.97561 0
M  V30 16952 C 1585.51 -1.89057 4.03947 0
M  V30 16953 C 1586.21 -0.7122 5.77324 0
M  V30 16954 N 1585.19 -1.25379 5.28943 0
M  V30 16955 H 1588.99 -0.234114 2.92966 0
M  V30 16956 H 1586.5 -0.0288117 1.62374 0
M  V30 16957 H 1588.5 -2.68492 3.18932 0
M  V30 16958 H 1587.16 -2.54092 2.02157 0
M  V30 16959 H 1588.17 -0.567214 5.14785 0
M  V30 16960 H 1584.85 -2.44868 3.38151 0
M  V30 16961 H 1586.24 -0.166225 6.71694 0
M  V30 16962 N 1588.96 -1.5727 -0.101874 0
M  V30 16963 C 1590.19 -1.89943 -0.820329 0
M  V30 16964 C 1590.6 -0.764867 -1.72613 0
M  V30 16965 O 1589.96 0.263499 -1.80588 0
M  V30 16966 C 1590.01 -3.2219 -1.63939 0
M  V30 16967 O 1589.73 -4.31279 -0.770039 0
M  V30 16968 C 1591.23 -3.6868 -2.46151 0
M  V30 16969 H 1588.45 -0.628532 -0.234922 0
M  V30 16970 H 1590.99 -2.04339 -0.0811362 0
M  V30 16971 H 1589.15 -3.09411 -2.33117 0
M  V30 16972 H 1589.56 -5.07182 -1.33665 0
M  V30 16973 H 1591.04 -4.63928 -2.99124 0
M  V30 16974 H 1591.51 -2.96183 -3.24303 0
M  V30 16975 H 1592.12 -3.84303 -1.82185 0
M  V30 16976 N 1590.44 0.372521 -1.53134 0
M  V30 16977 C 1591.37 1.4759 -1.75357 0
M  V30 16978 C 1592.38 1.49938 -0.634223 0
M  V30 16979 O 1593.57 1.53543 -0.910322 0
M  V30 16980 C 1590.67 2.86382 -1.81214 0
M  V30 16981 C 1589.84 3.0781 -3.1076 0
M  V30 16982 C 1588.9 4.26677 -3.07949 0
M  V30 16983 O 1587.93 4.22186 -3.81769 0
M  V30 16984 N 1589.13 5.33729 -2.28283 0
M  V30 16985 H 1591.89 1.28908 -2.7056 0
M  V30 16986 H 1589.46 0.562186 -1.51826 0
M  V30 16987 H 1591.45 3.64029 -1.7682 0
M  V30 16988 H 1590.02 2.98344 -0.933249 0
M  V30 16989 H 1589.24 2.17884 -3.28512 0
M  V30 16990 H 1590.53 3.18991 -3.96386 0
M  V30 16991 H 1589.92 5.40238 -1.67806 0
M  V30 16992 H 1588.48 6.09979 -2.29714 0
M  V30 16993 N 1591.91 1.44376 0.631925 0
M  V30 16994 C 1593.16 1.46398 1.38747 0
M  V30 16995 C 1593.48 0.100149 1.95343 0
M  V30 16996 O 1594.68 -0.00210908 2.715 0
M  V30 16997 C 1593.14 2.57731 2.51203 0
M  V30 16998 C 1592.75 4.00317 2.01123 0
M  V30 16999 C 1594.49 2.68972 3.28412 0
M  V30 17000 C 1592.4 5.03075 3.10917 0
M  V30 17001 H 1591.33 0.544667 0.521396 0
M  V30 17002 H 1593.98 1.70439 0.679912 0
M  V30 17003 H 1592.36 2.26928 3.2453 0
M  V30 17004 H 1593.53 4.40683 1.34666 0
M  V30 17005 H 1591.85 3.93311 1.36732 0
M  V30 17006 H 1594.45 3.42916 4.10259 0
M  V30 17007 H 1594.79 1.74762 3.77841 0
M  V30 17008 H 1595.32 2.9918 2.62176 0
M  V30 17009 H 1592.06 5.98911 2.66433 0
M  V30 17010 H 1591.58 4.67302 3.76017 0
M  V30 17011 H 1593.26 5.2674 3.75705 0
M  V30 17012 N 1593.39 -0.872258 1.31261 0
M  V30 17013 C 1594.64 -1.6199 1.20176 0
M  V30 17014 C 1594.95 -1.94129 -0.239439 0
M  V30 17015 O 1596.16 -2.67366 -0.471956 0
M  V30 17016 C 1594.62 -2.92017 2.10366 0
M  V30 17017 C 1594.22 -2.6737 3.59468 0
M  V30 17018 C 1595.97 -3.70007 2.08075 0
M  V30 17019 C 1593.87 -3.93291 4.41674 0
M  V30 17020 H 1592.8 -0.607793 0.446211 0
M  V30 17021 H 1595.46 -0.964627 1.561 0
M  V30 17022 H 1593.84 -3.58907 1.67338 0
M  V30 17023 H 1595.01 -2.08902 4.10727 0
M  V30 17024 H 1593.33 -2.02738 3.63712 0
M  V30 17025 H 1595.92 -4.63416 2.66739 0
M  V30 17026 H 1596.27 -4.02385 1.06733 0
M  V30 17027 H 1596.8 -3.09998 2.49291 0
M  V30 17028 H 1593.54 -3.66064 5.43762 0
M  V30 17029 H 1593.06 -4.51218 3.95174 0
M  V30 17030 H 1594.74 -4.61197 4.53769 0
M  V30 17031 N 1594.87 -1.14184 -1.08627 0
M  V30 17032 C 1595.82 -0.822297 -2.1758 0
M  V30 17033 C 1596.81 0.198863 -1.68229 0
M  V30 17034 O 1598.02 0.0551869 -1.79915 0
M  V30 17035 H 1594.39 -0.248183 -0.709866 0
M  V30 17036 H 1596.36 -1.74916 -2.41758 0
M  V30 17037 C 1595.11 -0.313671 -3.46282 0
M  V30 17038 H 1594.44 -1.09078 -3.84632 0
M  V30 17039 H 1595.88 -0.128604 -4.23805 0
M  V30 17040 C 1594.33 0.962289 -3.22865 0
M  V30 17041 O 1594.86 2.03649 -3.46251 0
M  V30 17042 N 1593.07 0.896635 -2.76421 0
M  V30 17043 H 1592.62 0.0223186 -2.5759 0
M  V30 17044 H 1592.58 1.75093 -2.61132 0
M  V30 17045 N 1596.35 1.26749 -0.936613 0
M  V30 17046 C 1597.3 2.28528 -0.433328 0
M  V30 17047 C 1598.29 1.62248 0.487012 0
M  V30 17048 O 1599.5 1.76245 0.36573 0
M  V30 17049 H 1595.87 0.742106 -0.121583 0
M  V30 17050 H 1597.84 2.68382 -1.30436 0
M  V30 17051 C 1596.59 3.46485 0.290366 0
M  V30 17052 H 1595.91 3.97706 -0.408649 0
M  V30 17053 H 1597.35 4.19635 0.606807 0
M  V30 17054 C 1595.81 3.01339 1.50654 0
M  V30 17055 O 1596.34 3.05781 2.60501 0
M  V30 17056 N 1594.55 2.56732 1.3615 0
M  V30 17057 H 1594.1 2.53317 0.467788 0
M  V30 17058 H 1594.05 2.26888 2.17645 0
M  V30 17059 N 1597.83 0.703118 1.41046 0
M  V30 17060 C 1599.05 0.246552 2.05426 0
M  V30 17061 C 1599.47 -1.10704 1.52938 0
M  V30 17062 O 1598.83 -1.69329 0.680733 0
M  V30 17063 C 1598.88 0.203953 3.60924 0
M  V30 17064 O 1598.6 1.50408 4.11472 0
M  V30 17065 C 1600.1 -0.272686 4.42461 0
M  V30 17066 H 1597.32 0.113157 0.66139 0
M  V30 17067 H 1599.86 0.957823 1.80682 0
M  V30 17068 H 1598.02 -0.458194 3.84681 0
M  V30 17069 H 1598.43 1.39622 5.05575 0
M  V30 17070 H 1599.91 -0.251357 5.51427 0
M  V30 17071 H 1600.38 -1.31282 4.1912 0
M  V30 17072 H 1600.99 0.358733 4.23784 0
M  V30 17073 N 1599.3 -1.51086 0.448402 0
M  V30 17074 C 1600.24 -2.24615 -0.402921 0
M  V30 17075 C 1601.22 -1.26994 -1.01544 0
M  V30 17076 O 1602.4 -1.56159 -1.05577 0
M  V30 17077 C 1599.53 -3.00504 -1.56253 0
M  V30 17078 C 1598.57 -4.1287 -1.06961 0
M  V30 17079 S 1599.41 -5.355 -0.00265176 0
M  V30 17080 C 1600.56 -6.14931 -1.16667 0
M  V30 17081 H 1600.79 -2.96475 0.221298 0
M  V30 17082 H 1598.33 -1.52631 0.23303 0
M  V30 17083 H 1600.29 -3.44824 -2.22726 0
M  V30 17084 H 1598.95 -2.28212 -2.15819 0
M  V30 17085 H 1598.14 -4.65288 -1.93708 0
M  V30 17086 H 1597.74 -3.70869 -0.48296 0
M  V30 17087 H 1600.03 -6.44688 -2.08286 0
M  V30 17088 H 1600.98 -7.04806 -0.682223 0
M  V30 17089 H 1601.38 -5.46601 -1.41024 0
M  V30 17090 N 1600.78 -0.180154 -1.56567 0
M  V30 17091 C 1601.73 0.763484 -2.19713 0
M  V30 17092 C 1602.72 1.23095 -1.16378 0
M  V30 17093 O 1603.93 1.19558 -1.34558 0
M  V30 17094 H 1600.31 0.264515 -0.703943 0
M  V30 17095 H 1602.28 0.207039 -2.97681 0
M  V30 17096 C 1601.03 1.97884 -2.85897 0
M  V30 17097 H 1600.35 1.62818 -3.65144 0
M  V30 17098 H 1601.79 2.61779 -3.33538 0
M  V30 17099 C 1600.25 2.80811 -1.86136 0
M  V30 17100 O 1600.78 3.78253 -1.35232 0
M  V30 17101 N 1598.98 2.46003 -1.54697 0
M  V30 17102 H 1598.53 1.66823 -1.96285 0
M  V30 17103 H 1598.49 3.01774 -0.88202 0
M  V30 17104 N 1602.26 1.57322 0.0935319 0
M  V30 17105 C 1603.49 1.90754 0.814111 0
M  V30 17106 C 1603.91 0.774571 1.71412 0
M  V30 17107 O 1603.27 -0.273775 1.79221 0
M  V30 17108 C 1603.32 3.23055 1.60211 0
M  V30 17109 O 1602.42 3.10755 2.71118 0
M  V30 17110 H 1601.76 0.625237 0.223552 0
M  V30 17111 H 1604.29 2.04486 0.068288 0
M  V30 17112 H 1604.3 3.56401 1.986 0
M  V30 17113 H 1602.98 4.05101 0.941607 0
M  V30 17114 H 1601.55 2.88926 2.35745 0
M  V30 17115 N 1603.74 -0.364395 1.53329 0
M  V30 17116 C 1605.15 -0.706147 1.43128 0
M  V30 17117 C 1605.35 -1.93231 0.571307 0
M  V30 17118 O 1604.41 -2.52442 0.0542079 0
M  V30 17119 C 1605.72 -0.918245 2.86337 0
M  V30 17120 C 1607.27 -1.01818 2.95976 0
M  V30 17121 C 1607.75 -1.26274 4.40249 0
M  V30 17122 N 1609.24 -1.33042 4.43683 0
M  V30 17123 C 1609.97 -1.53677 5.52423 0
M  V30 17124 N 1609.47 -1.7162 6.71207 0
M  V30 17125 N 1611.26 -1.56056 5.40003 0
M  V30 17126 H 1603.41 0.442091 2.07748 0
M  V30 17127 H 1605.68 0.135735 0.938232 0
M  V30 17128 H 1605.38 -0.0890628 3.51587 0
M  V30 17129 H 1605.26 -1.826 3.30056 0
M  V30 17130 H 1607.64 -1.83791 2.30879 0
M  V30 17131 H 1607.72 -0.0877892 2.55649 0
M  V30 17132 H 1607.37 -0.448026 5.0592 0
M  V30 17133 H 1607.3 -2.20637 4.78149 0
M  V30 17134 H 1609.79 -1.20784 3.58078 0
M  V30 17135 H 1610.1 -1.86942 7.49848 0
M  V30 17136 H 1608.45 -1.68797 6.7419 0
M  V30 17137 H 1611.64 -1.41605 4.46168 0
M  V30 17138 H 1611.81 -1.71796 6.24812 0
M  V30 17139 N 1605.22 -1.44709 -0.62426 0
M  V30 17140 C 1606.44 -1.51573 -1.41564 0
M  V30 17141 C 1606.87 -0.143806 -1.87549 0
M  V30 17142 O 1606.22 0.868361 -1.59151 0
M  V30 17143 C 1606.27 -2.49085 -2.60747 0
M  V30 17144 O 1605.38 -1.99712 -3.60817 0
M  V30 17145 H 1604.72 -0.51157 -0.423311 0
M  V30 17146 H 1607.25 -1.89908 -0.761316 0
M  V30 17147 H 1607.26 -2.67346 -3.08205 0
M  V30 17148 H 1605.93 -3.48733 -2.26624 0
M  V30 17149 H 1604.51 -1.9125 -3.20122 0
M  V30 17150 N 1606.69 0.865285 -1.31722 0
M  V30 17151 C 1607.92 1.65661 -1.24785 0
M  V30 17152 C 1608.34 1.87208 0.182952 0
M  V30 17153 O 1607.7 1.41721 1.1307 0
M  V30 17154 C 1607.75 2.99921 -2.00199 0
M  V30 17155 O 1606.85 3.89936 -1.34253 0
M  V30 17156 H 1606.2 0.505459 -0.430589 0
M  V30 17157 H 1608.73 1.0785 -1.73867 0
M  V30 17158 H 1608.74 3.49823 -2.09971 0
M  V30 17159 H 1607.41 2.83559 -3.04249 0
M  V30 17160 H 1605.99 3.4839 -1.32961 0
M  V30 17161 N 1608.17 1.14759 1.0802 0
M  V30 17162 C 1609.42 0.912823 1.79862 0
M  V30 17163 C 1609.73 -0.561873 1.87356 0
M  V30 17164 O 1610.94 -0.914015 2.55652 0
M  V30 17165 C 1609.4 1.58369 3.23183 0
M  V30 17166 C 1609 3.09493 3.23911 0
M  V30 17167 C 1610.75 1.43021 3.99682 0
M  V30 17168 C 1608.66 3.69398 4.61843 0
M  V30 17169 H 1607.59 0.337868 0.674063 0
M  V30 17170 H 1610.24 1.37695 1.21294 0
M  V30 17171 H 1608.62 1.04724 3.81902 0
M  V30 17172 H 1609.79 3.69838 2.74876 0
M  V30 17173 H 1608.11 3.24524 2.60908 0
M  V30 17174 H 1610.7 1.85174 5.01612 0
M  V30 17175 H 1611.05 0.376814 4.14591 0
M  V30 17176 H 1611.58 1.93724 3.47442 0
M  V30 17177 H 1608.32 4.74607 4.52138 0
M  V30 17178 H 1607.84 3.13835 5.11144 0
M  V30 17179 H 1609.52 3.69923 5.30816 0
M  V30 17180 N 1609.65 -1.26251 0.943322 0
M  V30 17181 C 1610.61 -2.24554 0.459158 0
M  V30 17182 C 1611.61 -1.54918 -0.430926 0
M  V30 17183 O 1612.8 -1.72678 -0.229803 0
M  V30 17184 C 1609.94 -3.39221 -0.337973 0
M  V30 17185 H 1611.13 -2.689 1.32789 0
M  V30 17186 H 1608.68 -1.38442 0.725495 0
M  V30 17187 H 1609.42 -3.00279 -1.22486 0
M  V30 17188 H 1609.2 -3.90947 0.300428 0
M  V30 17189 H 1610.69 -4.12246 -0.666568 0
M  V30 17190 N 1611.13 -0.710588 -1.40671 0
M  V30 17191 C 1612.36 -0.257442 -2.05292 0
M  V30 17192 C 1612.77 1.09891 -1.53523 0
M  V30 17193 O 1612.13 1.68966 -0.689703 0
M  V30 17194 C 1612.18 -0.223091 -3.60811 0
M  V30 17195 O 1611.9 -1.52588 -4.10668 0
M  V30 17196 C 1613.4 0.249217 -4.42599 0
M  V30 17197 H 1610.62 -0.116663 -0.66078 0
M  V30 17198 H 1613.17 -0.967391 -1.80172 0
M  V30 17199 H 1611.32 0.437787 -3.84918 0
M  V30 17200 H 1611.74 -1.42301 -5.04827 0
M  V30 17201 H 1613.21 0.22211 -5.51553 0
M  V30 17202 H 1613.69 1.29057 -4.19811 0
M  V30 17203 H 1614.29 -0.381202 -4.23588 0
M  V30 17204 N 1612.61 1.50847 -0.456408 0
M  V30 17205 C 1613.84 2.0665 0.101737 0
M  V30 17206 C 1614.25 1.32188 1.34803 0
M  V30 17207 O 1613.61 0.38687 1.78352 0
M  V30 17208 C 1613.66 3.59227 0.404724 0
M  V30 17209 O 1613.38 4.30879 -0.79212 0
M  V30 17210 C 1614.88 4.31607 1.01145 0
M  V30 17211 H 1612.1 0.671 -0.000542219 0
M  V30 17212 H 1614.64 1.94195 -0.640974 0
M  V30 17213 H 1612.8 3.71533 1.09735 0
M  V30 17214 H 1613.21 5.21837 -0.527843 0
M  V30 17215 H 1614.69 5.39386 1.17332 0
M  V30 17216 H 1615.16 3.9114 1.99765 0
M  V30 17217 H 1615.77 4.23794 0.357645 0
M  V30 17218 N 1614.09 0.188454 1.56469 0
M  V30 17219 C 1615.31 -0.457846 2.01771 0
M  V30 17220 C 1615.73 -1.55646 1.06863 0
M  V30 17221 O 1615.09 -1.82356 0.0723619 0
M  V30 17222 C 1615.14 -1.02032 3.46802 0
M  V30 17223 O 1614.86 0.0344536 4.38086 0
M  V30 17224 C 1616.36 -1.74316 4.07589 0
M  V30 17225 H 1613.58 -0.115594 0.660968 0
M  V30 17226 H 1616.12 0.295213 2.02358 0
M  V30 17227 H 1614.28 -1.7238 3.46935 0
M  V30 17228 H 1614.69 -0.383254 5.23098 0
M  V30 17229 H 1616.17 -2.08912 5.1094 0
M  V30 17230 H 1616.64 -2.64445 3.50665 0
M  V30 17231 H 1617.25 -1.0857 4.11209 0
M  V30 17232 N 1615.56 -1.5737 -0.0851874 0
M  V30 17233 C 1616.51 -2.02758 -1.10262 0
M  V30 17234 C 1617.48 -0.905702 -1.39235 0
M  V30 17235 O 1618.67 -1.17241 -1.50529 0
M  V30 17236 C 1615.81 -2.46528 -2.41492 0
M  V30 17237 C 1614.92 -3.72278 -2.19165 0
M  V30 17238 C 1614.05 -4.04885 -3.43863 0
M  V30 17239 C 1613.09 -5.23715 -3.16842 0
M  V30 17240 N 1612.23 -5.52026 -4.33833 0
M  V30 17241 H 1617.07 -2.89453 -0.708583 0
M  V30 17242 H 1614.61 -1.43156 -0.338332 0
M  V30 17243 H 1616.56 -2.69952 -3.18091 0
M  V30 17244 H 1615.19 -1.62829 -2.78723 0
M  V30 17245 H 1614.25 -3.56272 -1.33321 0
M  V30 17246 H 1615.56 -4.5902 -1.95197 0
M  V30 17247 H 1614.71 -4.29138 -4.28865 0
M  V30 17248 H 1613.45 -3.16683 -3.70895 0
M  V30 17249 H 1612.46 -4.99272 -2.30234 0
M  V30 17250 H 1613.68 -6.13523 -2.91146 0
M  V30 17251 H 1611.63 -4.66784 -4.60922 0
M  V30 17252 H 1611.54 -6.3316 -4.13091 0
M  V30 17253 H 1612.81 -5.80822 -5.19871 0
M  V30 17254 N 1617.04 0.356258 -1.53521 0
M  V30 17255 C 1617.99 1.45718 -1.81298 0
M  V30 17256 C 1618.98 1.55036 -0.682652 0
M  V30 17257 O 1620.19 1.57812 -0.865766 0
M  V30 17258 H 1616.56 0.485614 -0.57418 0
M  V30 17259 H 1618.54 1.19498 -2.73428 0
M  V30 17260 C 1617.28 2.82424 -2.0281 0
M  V30 17261 H 1616.61 2.76016 -2.89232 0
M  V30 17262 H 1618.05 3.5861 -2.26218 0
M  V30 17263 C 1616.51 3.2702 -0.809893 0
M  V30 17264 O 1617.04 4.017 -0.00310668 0
M  V30 17265 N 1615.24 2.83673 -0.630696 0
M  V30 17266 H 1614.79 2.23066 -1.28839 0
M  V30 17267 H 1614.75 3.13867 0.182961 0
M  V30 17268 N 1618.52 1.45038 0.616577 0
M  V30 17269 C 1619.75 1.51874 1.40064 0
M  V30 17270 C 1620.16 0.147105 1.88627 0
M  V30 17271 O 1619.5 -0.85995 1.62329 0
M  V30 17272 C 1619.56 2.43421 2.64549 0
M  V30 17273 C 1619.23 3.90326 2.37685 0
M  V30 17274 C 1620.22 4.80471 1.98605 0
M  V30 17275 C 1617.91 4.35163 2.50875 0
M  V30 17276 C 1619.9 6.13456 1.73064 0
M  V30 17277 C 1617.59 5.68192 2.24947 0
M  V30 17278 C 1618.59 6.57157 1.86102 0
M  V30 17279 O 1618.28 7.87721 1.60472 0
M  V30 17280 H 1618.01 0.517048 0.435474 0
M  V30 17281 H 1620.56 1.90826 0.759899 0
M  V30 17282 H 1618.79 1.99423 3.31312 0
M  V30 17283 H 1620.48 2.41042 3.26579 0
M  V30 17284 H 1621.25 4.47098 1.87959 0
M  V30 17285 H 1617.13 3.66165 2.80078 0
M  V30 17286 H 1620.67 6.82855 1.42669 0
M  V30 17287 H 1616.57 6.01122 2.35207 0
M  V30 17288 H 1617.33 7.99661 1.74598 0
M  V30 17289 N 1620 -0.858287 1.32179 0
M  V30 17290 C 1621.41 -1.4281 1.20259 0
M  V30 17291 C 1621.76 -1.95313 -0.186332 0
M  V30 17292 O 1620.88 -1.87244 -1.08484 0
M  V30 17293 C 1621.48 -2.59589 2.17713 0
M  V30 17294 C 1620.04 -3.1258 2.09691 0
M  V30 17295 C 1619.19 -1.85317 2.06283 0
M  V30 17296 H 1622.14 -0.665769 1.4406 0
M  V30 17297 H 1622.16 -3.36639 1.77354 0
M  V30 17298 H 1621.67 -2.21346 3.18791 0
M  V30 17299 H 1619.77 -3.55416 1.11849 0
M  V30 17300 H 1619.88 -3.74071 2.99346 0
M  V30 17301 H 1618.25 -2.04766 1.51469 0
M  V30 17302 H 1619.03 -1.49296 3.09137 0
M  V30 17303 N 1621.48 -1.1533 -1.07409 0
M  V30 17304 C 1622.7 -0.951643 -1.83715 0
M  V30 17305 C 1623.12 0.500054 -1.82057 0
M  V30 17306 O 1622.48 1.3468 -1.23157 0
M  V30 17307 C 1622.53 -1.45734 -3.30823 0
M  V30 17308 O 1622.25 -2.85217 -3.3254 0
M  V30 17309 C 1623.75 -1.29709 -4.23899 0
M  V30 17310 H 1620.97 -0.338021 -0.57964 0
M  V30 17311 H 1623.51 -1.53088 -1.35589 0
M  V30 17312 H 1621.67 -0.920643 -3.76302 0
M  V30 17313 H 1622.08 -3.08134 -4.24445 0
M  V30 17314 H 1623.56 -1.69938 -5.2519 0
M  V30 17315 H 1624.03 -0.241185 -4.38537 0
M  V30 17316 H 1624.64 -1.82283 -3.84256 0
M  V30 17317 N 1622.95 1.25748 -0.950004 0
M  V30 17318 C 1624.18 1.97952 -0.618848 0
M  V30 17319 C 1624.6 1.70184 0.801194 0
M  V30 17320 O 1623.96 0.955032 1.54107 0
M  V30 17321 C 1624.01 3.49744 -0.878151 0
M  V30 17322 O 1623.11 4.12375 0.0453685 0
M  V30 17323 H 1622.45 0.620731 -0.235773 0
M  V30 17324 H 1624.98 1.59988 -1.27534 0
M  V30 17325 H 1624.99 4.00029 -0.802567 0
M  V30 17326 H 1623.67 3.69285 -1.91315 0
M  V30 17327 H 1622.25 3.7281 -0.0820265 0
M  V30 17328 N 1624.43 0.718038 1.40292 0
M  V30 17329 C 1625.38 0.0559466 2.32533 0
M  V30 17330 C 1626.37 -0.744365 1.5217 0
M  V30 17331 O 1627.58 -0.647458 1.67952 0
M  V30 17332 H 1623.95 -0.000710627 0.752 0
M  V30 17333 H 1625.93 0.850579 2.8602 0
M  V30 17334 C 1624.67 -0.849927 3.37152 0
M  V30 17335 H 1624 -0.243507 3.99058 0
M  V30 17336 H 1625.44 -1.28111 4.04183 0
M  V30 17337 C 1623.9 -1.9765 2.7283 0
M  V30 17338 O 1624.43 -3.06757 2.59351 0
M  V30 17339 N 1622.63 -1.76086 2.31176 0
M  V30 17340 H 1622.18 -0.873485 2.42339 0
M  V30 17341 H 1622.14 -2.51643 1.88477 0
M  V30 17342 N 1625.91 -1.50602 0.464402 0
M  V30 17343 C 1626.84 -2.31252 -0.323263 0
M  V30 17344 C 1627.82 -1.37856 -0.996476 0
M  V30 17345 O 1629.01 -1.66777 -0.994933 0
M  V30 17346 C 1626.14 -3.17414 -1.40945 0
M  V30 17347 C 1625.09 -4.19307 -0.858226 0
M  V30 17348 C 1624.42 -4.94164 -2.0422 0
M  V30 17349 C 1625.72 -5.22148 0.125921 0
M  V30 17350 H 1627.41 -2.97349 0.34983 0
M  V30 17351 H 1624.96 -1.42997 0.169685 0
M  V30 17352 H 1626.91 -3.72627 -1.96791 0
M  V30 17353 H 1625.63 -2.49189 -2.11122 0
M  V30 17354 H 1624.29 -3.65185 -0.321785 0
M  V30 17355 H 1623.94 -4.22417 -2.7308 0
M  V30 17356 H 1623.64 -5.63083 -1.67963 0
M  V30 17357 H 1625.16 -5.5221 -2.60569 0
M  V30 17358 H 1626.58 -5.72272 -0.343136 0
M  V30 17359 H 1624.98 -5.98749 0.402433 0
M  V30 17360 H 1626.05 -4.73307 1.05399 0
M  V30 17361 N 1627.39 -0.19675 -1.56367 0
M  V30 17362 C 1628.34 0.740138 -2.2051 0
M  V30 17363 C 1629.33 1.21854 -1.17677 0
M  V30 17364 O 1630.54 1.18124 -1.35819 0
M  V30 17365 H 1626.91 0.257034 -0.706709 0
M  V30 17366 H 1628.88 0.175454 -2.97884 0
M  V30 17367 C 1627.63 1.94841 -2.8798 0
M  V30 17368 H 1626.95 1.58936 -3.66851 0
M  V30 17369 H 1628.39 2.58227 -3.36296 0
M  V30 17370 C 1626.85 2.78821 -1.89104 0
M  V30 17371 O 1627.38 3.76797 -1.39237 0
M  V30 17372 N 1625.59 2.44348 -1.57297 0
M  V30 17373 H 1625.14 1.64732 -1.98043 0
M  V30 17374 H 1625.09 3.00822 -0.913978 0
M  V30 17375 N 1628.87 1.57413 0.0768405 0
M  V30 17376 C 1630.09 1.91607 0.793833 0
M  V30 17377 C 1630.52 0.792708 1.70581 0
M  V30 17378 O 1629.87 -0.25475 1.79501 0
M  V30 17379 C 1629.92 3.24736 1.56776 0
M  V30 17380 O 1629.03 3.13613 2.67807 0
M  V30 17381 H 1628.37 0.627572 0.216908 0
M  V30 17382 H 1630.9 2.04547 0.0465957 0
M  V30 17383 H 1630.91 3.58488 1.94809 0
M  V30 17384 H 1629.58 4.06077 0.898588 0
M  V30 17385 H 1628.16 2.91411 2.32668 0
M  V30 17386 N 1630.34 -0.348112 1.53707 0
M  V30 17387 C 1631.59 -1.09048 1.70987 0
M  V30 17388 C 1631.92 -1.88444 0.469305 0
M  V30 17389 O 1631.2 -1.87037 -0.533629 0
M  V30 17390 C 1631.48 -2.03542 2.97057 0
M  V30 17391 C 1631.33 -1.27638 4.3131 0
M  V30 17392 C 1632.65 -3.03424 3.18782 0
M  V30 17393 H 1629.77 -0.395049 0.622178 0
M  V30 17394 H 1632.41 -0.369498 1.86373 0
M  V30 17395 H 1630.56 -2.65021 2.8407 0
M  V30 17396 H 1632.24 -0.688079 4.56139 0
M  V30 17397 H 1630.48 -0.578349 4.29927 0
M  V30 17398 H 1631.15 -1.96891 5.15692 0
M  V30 17399 H 1633.63 -2.52056 3.31069 0
M  V30 17400 H 1632.5 -3.66748 4.08396 0
M  V30 17401 H 1632.76 -3.74553 2.34866 0
M  V30 17402 N 1631.82 -1.45363 -0.608876 0
M  V30 17403 C 1633.07 -1.48586 -1.364 0
M  V30 17404 C 1633.38 -0.131213 -1.95159 0
M  V30 17405 O 1634.59 -0.0410845 -2.71469 0
M  V30 17406 C 1633.05 -2.61694 -2.47071 0
M  V30 17407 C 1632.65 -4.03466 -1.94729 0
M  V30 17408 C 1634.4 -2.74162 -3.24091 0
M  V30 17409 C 1632.31 -5.07958 -3.02874 0
M  V30 17410 H 1631.24 -0.552893 -0.512665 0
M  V30 17411 H 1633.89 -1.71499 -0.65271 0
M  V30 17412 H 1632.27 -2.32062 -3.20879 0
M  V30 17413 H 1633.44 -4.4277 -1.27638 0
M  V30 17414 H 1631.76 -3.95436 -1.30457 0
M  V30 17415 H 1634.35 -3.494 -4.04752 0
M  V30 17416 H 1634.7 -1.80751 -3.75013 0
M  V30 17417 H 1635.23 -3.03313 -2.57383 0
M  V30 17418 H 1631.97 -6.03073 -2.56871 0
M  V30 17419 H 1631.49 -4.73225 -3.68535 0
M  V30 17420 H 1633.17 -5.3265 -3.67277 0
M  V30 17421 N 1633.3 0.851265 -1.32632 0
M  V30 17422 C 1634.71 1.4217 -1.21015 0
M  V30 17423 C 1635.06 1.95409 0.175972 0
M  V30 17424 O 1634.19 1.87816 1.07489 0
M  V30 17425 C 1634.78 2.58431 -2.19086 0
M  V30 17426 C 1633.34 3.11464 -2.11346 0
M  V30 17427 C 1632.49 1.84221 -2.07263 0
M  V30 17428 H 1635.44 0.65812 -1.44411 0
M  V30 17429 H 1635.46 3.35694 -1.79137 0
M  V30 17430 H 1634.97 2.19652 -3.1996 0
M  V30 17431 H 1633.07 3.54818 -1.13732 0
M  V30 17432 H 1633.19 3.72478 -3.01325 0
M  V30 17433 H 1631.55 2.0396 -1.52553 0
M  V30 17434 H 1632.33 1.47654 -3.09924 0
M  V30 17435 N 1634.78 1.15898 1.06796 0
M  V30 17436 C 1636.01 0.961372 1.83208 0
M  V30 17437 C 1636.42 -0.490392 1.8232 0
M  V30 17438 O 1635.78 -1.34025 1.2387 0
M  V30 17439 C 1635.83 1.47486 3.30045 0
M  V30 17440 O 1635.55 2.86976 3.31023 0
M  V30 17441 C 1637.05 1.31955 4.23205 0
M  V30 17442 H 1634.27 0.34109 0.57784 0
M  V30 17443 H 1636.82 1.53805 1.34775 0
M  V30 17444 H 1634.97 0.940586 3.75808 0
M  V30 17445 H 1635.38 3.1038 4.22805 0
M  V30 17446 H 1636.86 1.72721 5.24282 0
M  V30 17447 H 1637.34 0.264439 4.38403 0
M  V30 17448 H 1637.94 1.84319 3.83284 0
M  V30 17449 N 1636.26 -1.25243 0.956659 0
M  V30 17450 C 1637.48 -1.97621 0.629337 0
M  V30 17451 C 1637.91 -1.70606 -0.792158 0
M  V30 17452 O 1637.26 -0.963192 -1.53598 0
M  V30 17453 C 1637.31 -3.49273 0.896687 0
M  V30 17454 O 1636.42 -4.12393 -0.0234986 0
M  V30 17455 H 1635.76 -0.619472 0.239061 0
M  V30 17456 H 1638.29 -1.5931 1.28381 0
M  V30 17457 H 1638.3 -3.99597 0.82377 0
M  V30 17458 H 1636.97 -3.68265 1.93271 0
M  V30 17459 H 1635.55 -3.72761 0.101796 0
M  V30 17460 N 1637.73 -0.725468 -1.3991 0
M  V30 17461 C 1638.67 -0.0282009 -2.28183 0
M  V30 17462 C 1639.65 0.757539 -1.43875 0
M  V30 17463 O 1640.83 0.742105 -1.73277 0
M  V30 17464 C 1637.96 0.967357 -3.24592 0
M  V30 17465 C 1637 0.271249 -4.25637 0
M  V30 17466 S 1637.84 -1.00796 -5.25928 0
M  V30 17467 C 1638.99 -0.0147605 -6.25898 0
M  V30 17468 H 1639.22 -0.776815 -2.86972 0
M  V30 17469 H 1636.76 -0.516881 -1.45491 0
M  V30 17470 H 1638.72 1.5365 -3.8066 0
M  V30 17471 H 1637.38 1.68874 -2.6484 0
M  V30 17472 H 1636.57 1.02421 -4.93483 0
M  V30 17473 H 1636.17 -0.225603 -3.73319 0
M  V30 17474 H 1638.46 0.828816 -6.72411 0
M  V30 17475 H 1639.41 -0.66011 -7.05016 0
M  V30 17476 H 1639.81 0.353381 -5.63393 0
M  V30 17477 N 1639.21 1.50354 -0.472382 0
M  V30 17478 C 1640.16 2.30173 0.335135 0
M  V30 17479 C 1641.15 1.37517 0.98921 0
M  V30 17480 O 1642.36 1.54703 0.920168 0
M  V30 17481 H 1638.74 0.741212 0.126918 0
M  V30 17482 H 1640.71 2.96239 -0.358449 0
M  V30 17483 C 1639.46 3.18104 1.40375 0
M  V30 17484 H 1638.78 3.8931 0.90984 0
M  V30 17485 H 1640.22 3.76947 1.94132 0
M  V30 17486 C 1638.68 2.35785 2.40639 0
M  V30 17487 O 1639.21 2.04185 3.45936 0
M  V30 17488 N 1637.41 1.98342 2.12389 0
M  V30 17489 H 1636.96 2.2424 1.26784 0
M  V30 17490 H 1636.92 1.43567 2.79707 0
M  V30 17491 N 1640.69 0.205039 1.56261 0
M  V30 17492 C 1641.64 -0.728433 2.209 0
M  V30 17493 C 1642.63 -1.21228 1.18322 0
M  V30 17494 O 1643.84 -1.17402 1.36443 0
M  V30 17495 H 1640.21 -0.253283 0.708062 0
M  V30 17496 H 1642.19 -0.159654 2.97973 0
M  V30 17497 C 1640.93 -1.93311 2.89009 0
M  V30 17498 H 1640.26 -1.56988 3.67688 0
M  V30 17499 H 1641.7 -2.5644 3.3766 0
M  V30 17500 C 1640.16 -2.77814 1.9058 0
M  V30 17501 O 1640.69 -3.76053 1.41233 0
M  V30 17502 N 1638.89 -2.4351 1.58591 0
M  V30 17503 H 1638.44 -1.6368 1.98914 0
M  V30 17504 H 1638.4 -3.00333 0.929918 0
M  V30 17505 N 1642.17 -1.57451 -0.0684915 0
M  V30 17506 C 1643.1 -1.99219 -1.11297 0
M  V30 17507 C 1644.08 -0.869657 -1.37389 0
M  V30 17508 O 1645.26 -1.13224 -1.50707 0
M  V30 17509 C 1642.39 -2.33172 -2.4566 0
M  V30 17510 C 1641.44 -3.55467 -2.35681 0
M  V30 17511 S 1642.27 -5.06175 -1.74777 0
M  V30 17512 C 1643.43 -5.43332 -3.10711 0
M  V30 17513 H 1643.66 -2.875 -0.757037 0
M  V30 17514 H 1641.19 -1.51892 -0.27714 0
M  V30 17515 H 1643.15 -2.53407 -3.22947 0
M  V30 17516 H 1641.81 -1.45413 -2.78413 0
M  V30 17517 H 1641 -3.76751 -3.34775 0
M  V30 17518 H 1640.61 -3.34879 -1.6653 0
M  V30 17519 H 1642.9 -5.41605 -4.07026 0
M  V30 17520 H 1643.84 -6.44089 -2.94203 0
M  V30 17521 H 1644.25 -4.70795 -3.11468 0
M  V30 17522 N 1643.65 0.339955 -1.5389 0
M  V30 17523 C 1644.6 1.43787 -1.82833 0
M  V30 17524 C 1645.59 1.54303 -0.699058 0
M  V30 17525 O 1646.8 1.56884 -0.882455 0
M  V30 17526 H 1643.17 0.479497 -0.579298 0
M  V30 17527 H 1645.14 1.16592 -2.7468 0
M  V30 17528 C 1643.89 2.80257 -2.05794 0
M  V30 17529 H 1643.21 2.72933 -2.92143 0
M  V30 17530 H 1644.65 3.56191 -2.30009 0
M  V30 17531 C 1643.11 3.26143 -0.844532 0
M  V30 17532 O 1643.64 4.01674 -0.0457121 0
M  V30 17533 N 1641.85 2.82988 -0.660748 0
M  V30 17534 H 1641.4 2.21687 -1.31198 0
M  V30 17535 H 1641.35 3.14044 0.149661 0
M  V30 17536 N 1645.13 1.45684 0.601159 0
M  V30 17537 C 1646.35 1.53574 1.38646 0
M  V30 17538 C 1646.77 0.170511 1.88028 0
M  V30 17539 O 1646.13 -0.829061 1.62582 0
M  V30 17540 C 1646.18 2.52543 2.58658 0
M  V30 17541 O 1645.9 3.83761 2.11327 0
M  V30 17542 C 1647.4 2.70194 3.5144 0
M  V30 17543 H 1644.62 0.519907 0.424191 0
M  V30 17544 H 1647.16 1.90929 0.732559 0
M  V30 17545 H 1645.32 2.18242 3.20077 0
M  V30 17546 H 1645.73 4.37467 2.89349 0
M  V30 17547 H 1647.21 3.43405 4.32177 0
M  V30 17548 H 1647.68 1.76452 4.02196 0
M  V30 17549 H 1648.29 3.05517 2.95871 0
M  V30 17550 N 1646.6 -0.84422 1.33082 0
M  V30 17551 C 1647.55 -1.97504 1.22862 0
M  V30 17552 C 1648.55 -1.68892 0.131141 0
M  V30 17553 O 1649.75 -1.7757 0.294753 0
M  V30 17554 H 1646.13 -0.648263 0.381129 0
M  V30 17555 H 1648.1 -2.03249 2.18478 0
M  V30 17556 C 1646.85 -3.33626 0.979228 0
M  V30 17557 H 1646.17 -3.56178 1.81596 0
M  V30 17558 H 1647.61 -4.13266 0.948007 0
M  V30 17559 C 1646.07 -3.35397 -0.317922 0
M  V30 17560 O 1646.6 -3.7917 -1.32638 0
M  V30 17561 N 1644.8 -2.88562 -0.343577 0
M  V30 17562 H 1644.35 -2.53133 0.477625 0
M  V30 17563 H 1644.31 -2.90129 -1.21131 0
M  V30 17564 N 1648.08 -1.16463 -1.0618 0
M  V30 17565 C 1649.33 -0.941322 -1.78387 0
M  V30 17566 C 1649.64 0.531995 -1.88226 0
M  V30 17567 O 1650.85 0.873227 -2.57074 0
M  V30 17568 C 1649.31 -1.63491 -3.20623 0
M  V30 17569 C 1648.91 -3.14607 -3.18946 0
M  V30 17570 C 1650.66 -1.49361 -3.97356 0
M  V30 17571 C 1648.56 -3.76698 -4.55908 0
M  V30 17572 H 1647.49 -0.348549 -0.668603 0
M  V30 17573 H 1650.15 -1.39607 -1.19088 0
M  V30 17574 H 1648.53 -1.10787 -3.80187 0
M  V30 17575 H 1649.7 -3.74164 -2.68957 0
M  V30 17576 H 1648.02 -3.28634 -2.55712 0
M  V30 17577 H 1650.61 -1.93131 -4.98603 0
M  V30 17578 H 1650.96 -0.442724 -4.13939 0
M  V30 17579 H 1651.49 -1.99227 -3.44316 0
M  V30 17580 H 1648.23 -4.8174 -4.4453 0
M  V30 17581 H 1647.75 -3.21927 -5.06086 0
M  V30 17582 H 1649.43 -3.78321 -5.24864 0
M  V30 17583 N 1649.56 1.24734 -0.963288 0
M  V30 17584 C 1650.78 1.97285 -0.639808 0
M  V30 17585 C 1651.21 1.71024 0.783099 0
M  V30 17586 O 1650.57 0.971324 1.53085 0
M  V30 17587 C 1650.62 3.48793 -0.915197 0
M  V30 17588 O 1649.72 4.124 0.00162805 0
M  V30 17589 H 1649.06 0.618196 -0.242343 0
M  V30 17590 H 1651.59 1.58627 -1.29224 0
M  V30 17591 H 1651.6 3.99155 -0.84495 0
M  V30 17592 H 1650.28 3.67235 -1.95221 0
M  V30 17593 H 1648.85 3.72702 -0.121563 0
M  V30 17594 N 1651.04 0.732878 1.39523 0
M  V30 17595 C 1651.99 0.0676184 2.279 0
M  V30 17596 C 1652.97 -0.7148 1.44151 0
M  V30 17597 O 1654.16 -0.584158 1.67083 0
M  V30 17598 C 1651.29 -0.840482 3.32853 0
M  V30 17599 C 1650.38 -0.052326 4.24068 0
M  V30 17600 N 1650.77 0.973429 4.96345 0
M  V30 17601 C 1649.07 -0.282301 4.45106 0
M  V30 17602 C 1649.77 1.44851 5.63376 0
M  V30 17603 N 1648.74 0.767499 5.38155 0
M  V30 17604 H 1652.55 0.853533 2.81233 0
M  V30 17605 H 1650.06 0.567016 1.5218 0
M  V30 17606 H 1652.06 -1.33254 3.95031 0
M  V30 17607 H 1650.72 -1.62558 2.81078 0
M  V30 17608 H 1651.73 1.35474 4.99867 0
M  V30 17609 H 1648.41 -1.04237 4.04278 0
M  V30 17610 H 1649.8 2.30179 6.31242 0
M  V30 17611 N 1652.52 -1.50101 0.480349 0
M  V30 17612 C 1653.76 -2.01974 -0.0712904 0
M  V30 17613 C 1654.08 -1.36377 -1.39378 0
M  V30 17614 O 1653.35 -0.512162 -1.89087 0
M  V30 17615 H 1651.93 -0.746424 -0.0293362 0
M  V30 17616 H 1654.6 -1.84338 0.632883 0
M  V30 17617 H 1653.69 -3.11351 -0.216057 0
M  V30 17618 N 1653.99 -0.213323 -1.5615 0
M  V30 17619 C 1654.94 0.716708 -2.21283 0
M  V30 17620 C 1655.94 1.20599 -1.18963 0
M  V30 17621 O 1657.14 1.16677 -1.37064 0
M  V30 17622 H 1653.52 0.249524 -0.709395 0
M  V30 17623 H 1655.49 0.14385 -2.98053 0
M  V30 17624 C 1654.24 1.91775 -2.9003 0
M  V30 17625 H 1653.56 1.55036 -3.68516 0
M  V30 17626 H 1655 2.54646 -3.39016 0
M  V30 17627 C 1653.46 2.768 -1.92051 0
M  V30 17628 O 1653.99 3.75299 -1.43225 0
M  V30 17629 N 1652.19 2.42666 -1.5988 0
M  V30 17630 H 1651.74 1.62622 -1.99779 0
M  V30 17631 H 1651.7 2.99836 -0.945833 0
M  V30 17632 N 1655.47 1.57485 0.0601405 0
M  V30 17633 C 1656.42 2.0554 1.08886 0
M  V30 17634 C 1657.41 0.962963 1.39368 0
M  V30 17635 O 1658.62 1.14802 1.38638 0
M  V30 17636 H 1655 0.655506 0.368532 0
M  V30 17637 H 1656.97 2.91066 0.657513 0
M  V30 17638 C 1655.72 2.52464 2.39076 0
M  V30 17639 H 1655.04 3.36123 2.16475 0
M  V30 17640 H 1656.48 2.89829 3.09476 0
M  V30 17641 C 1654.94 1.41248 3.05861 0
M  V30 17642 O 1655.47 0.761119 3.94423 0
M  V30 17643 N 1653.67 1.1547 2.66674 0
M  V30 17644 H 1653.22 1.6862 1.94744 0
M  V30 17645 H 1653.18 0.412641 3.1168 0
M  V30 17646 N 1656.95 -0.331789 1.54068 0
M  V30 17647 C 1658.2 -1.07228 1.72134 0
M  V30 17648 C 1658.53 -1.87936 0.489265 0
M  V30 17649 O 1657.8 -1.87592 -0.513761 0
M  V30 17650 C 1658.09 -2.00379 2.99199 0
M  V30 17651 C 1657.94 -1.23056 4.3264 0
M  V30 17652 C 1659.26 -3.00026 3.21982 0
M  V30 17653 H 1656.38 -0.388428 0.626333 0
M  V30 17654 H 1659.02 -0.34971 1.86754 0
M  V30 17655 H 1657.17 -2.61993 2.86865 0
M  V30 17656 H 1658.84 -0.639661 4.56844 0
M  V30 17657 H 1657.09 -0.532717 4.30517 0
M  V30 17658 H 1657.76 -1.91411 5.17751 0
M  V30 17659 H 1660.23 -2.48531 3.33724 0
M  V30 17660 H 1659.11 -3.62395 4.12263 0
M  V30 17661 H 1659.37 -3.72041 2.38826 0
M  V30 17662 N 1658.43 -1.46001 -0.593424 0
M  V30 17663 C 1659.66 -1.54307 -1.3783 0
M  V30 17664 C 1660.07 -0.18048 -1.87935 0
M  V30 17665 O 1659.43 0.820427 -1.63019 0
M  V30 17666 C 1659.48 -2.53911 -2.57316 0
M  V30 17667 O 1659.2 -3.84876 -2.09289 0
M  V30 17668 C 1660.7 -2.72054 -3.50002 0
M  V30 17669 H 1657.92 -0.522149 -0.421428 0
M  V30 17670 H 1660.47 -1.91315 -0.722423 0
M  V30 17671 H 1658.62 -2.19937 -3.18915 0
M  V30 17672 H 1659.03 -4.38996 -2.87025 0
M  V30 17673 H 1660.51 -3.45692 -4.3035 0
M  V30 17674 H 1660.99 -1.78583 -4.01254 0
M  V30 17675 H 1661.59 -3.07082 -2.94246 0
M  V30 17676 N 1659.91 0.83715 -1.33527 0
M  V30 17677 C 1661.32 1.40878 -1.22516 0
M  V30 17678 C 1661.67 1.95585 0.155236 0
M  V30 17679 O 1660.79 1.88946 1.05491 0
M  V30 17680 C 1661.39 2.56093 -2.21815 0
M  V30 17681 C 1659.95 3.09205 -2.14638 0
M  V30 17682 C 1659.09 1.82012 -2.09205 0
M  V30 17683 H 1662.05 0.642766 -1.45101 0
M  V30 17684 H 1662.07 3.33775 -1.82687 0
M  V30 17685 H 1661.58 2.16246 -3.22272 0
M  V30 17686 H 1659.68 3.53592 -1.17489 0
M  V30 17687 H 1659.79 3.69261 -3.05259 0
M  V30 17688 H 1658.16 2.02331 -1.54707 0
M  V30 17689 H 1658.94 1.44359 -3.11473 0
M  V30 17690 N 1661.38 1.17024 1.05561 0
M  V30 17691 C 1662.8 0.962856 1.59956 0
M  V30 17692 C 1663.15 -0.491388 1.89947 0
M  V30 17693 O 1662.27 -1.366 1.67838 0
M  V30 17694 C 1662.87 1.74146 2.90617 0
M  V30 17695 C 1661.43 1.57885 3.41686 0
M  V30 17696 C 1660.57 1.74548 2.15472 0
M  V30 17697 H 1663.52 1.31787 0.88419 0
M  V30 17698 H 1663.54 1.22165 3.60355 0
M  V30 17699 H 1663.06 2.79984 2.68758 0
M  V30 17700 H 1661.16 0.545207 3.6859 0
M  V30 17701 H 1661.27 2.36745 4.16519 0
M  V30 17702 H 1659.63 1.17356 2.26052 0
M  V30 17703 H 1660.42 2.81789 1.96087 0
M  V30 17704 N 1662.86 -1.24221 0.969889 0
M  V30 17705 C 1664.09 -1.96118 0.649715 0
M  V30 17706 C 1664.5 -1.72127 -0.785436 0
M  V30 17707 O 1663.84 -1.00319 -1.53889 0
M  V30 17708 C 1663.91 -3.49374 0.847236 0
M  V30 17709 C 1663.57 -3.97067 2.26244 0
M  V30 17710 C 1664.57 -4.06568 3.24034 0
M  V30 17711 C 1662.25 -4.30333 2.59072 0
M  V30 17712 C 1664.25 -4.48672 4.52738 0
M  V30 17713 C 1661.93 -4.72121 3.88001 0
M  V30 17714 C 1662.93 -4.81256 4.84646 0
M  V30 17715 O 1662.62 -5.22109 6.11275 0
M  V30 17716 H 1662.35 -0.63149 0.24124 0
M  V30 17717 H 1664.9 -1.58948 1.30095 0
M  V30 17718 H 1663.13 -3.86451 0.138828 0
M  V30 17719 H 1664.82 -4.0248 0.525817 0
M  V30 17720 H 1665.59 -3.81083 3.00002 0
M  V30 17721 H 1661.47 -4.22441 1.84565 0
M  V30 17722 H 1665.01 -4.55717 5.28174 0
M  V30 17723 H 1660.91 -4.97054 4.11834 0
M  V30 17724 H 1661.68 -5.40252 6.14874 0
M  V30 17725 N 1664.34 -0.740267 -1.39132 0
M  V30 17726 C 1665.27 -0.0524011 -2.2814 0
M  V30 17727 C 1666.25 0.742237 -1.44671 0
M  V30 17728 O 1667.44 0.723684 -1.74055 0
M  V30 17729 C 1664.56 0.932876 -3.256 0
M  V30 17730 C 1663.61 0.226089 -4.259 0
M  V30 17731 S 1664.44 -1.06369 -5.24829 0
M  V30 17732 C 1665.6 -0.0811445 -6.25847 0
M  V30 17733 H 1665.83 -0.807208 -2.86132 0
M  V30 17734 H 1663.36 -0.532283 -1.44935 0
M  V30 17735 H 1665.32 1.49604 -3.82268 0
M  V30 17736 H 1663.98 1.66056 -2.66616 0
M  V30 17737 H 1663.18 0.971812 -4.94542 0
M  V30 17738 H 1662.78 -0.265186 -3.73059 0
M  V30 17739 H 1665.07 0.757451 -6.73252 0
M  V30 17740 H 1666.01 -0.734849 -7.04277 0
M  V30 17741 H 1666.42 0.293606 -5.63736 0
M  V30 17742 N 1665.82 1.49844 -0.488302 0
M  V30 17743 C 1667.04 2.07313 0.0600937 0
M  V30 17744 C 1667.47 1.3478 1.3121 0
M  V30 17745 O 1666.83 0.400634 1.76818 0
M  V30 17746 C 1666.87 3.59268 0.309658 0
M  V30 17747 O 1665.98 3.88381 1.38688 0
M  V30 17748 H 1665.32 0.663681 -0.0205947 0
M  V30 17749 H 1667.85 1.92818 -0.684284 0
M  V30 17750 H 1667.86 4.04344 0.545 0
M  V30 17751 H 1666.53 4.11474 -0.605146 0
M  V30 17752 H 1665.11 3.55128 1.13749 0
M  V30 17753 N 1667.3 0.221601 1.56034 0
M  V30 17754 C 1668.23 -0.720818 2.1757 0
M  V30 17755 C 1669.24 -1.15751 1.14479 0
M  V30 17756 O 1670.43 -1.08865 1.41459 0
M  V30 17757 C 1667.53 -1.98817 2.74454 0
M  V30 17758 C 1666.7 -1.70703 4.02715 0
M  V30 17759 C 1665.76 -2.82146 4.44162 0
M  V30 17760 O 1664.79 -2.50614 5.11059 0
M  V30 17761 N 1665.99 -4.11101 4.09849 0
M  V30 17762 H 1668.76 -0.194436 2.99069 0
M  V30 17763 H 1666.32 0.0405962 1.61849 0
M  V30 17764 H 1668.31 -2.72562 2.99152 0
M  V30 17765 H 1666.88 -2.42503 1.97258 0
M  V30 17766 H 1666.1 -0.806022 3.85872 0
M  V30 17767 H 1667.39 -1.49351 4.86387 0
M  V30 17768 H 1666.78 -4.39562 3.56092 0
M  V30 17769 H 1665.34 -4.81389 4.3944 0
M  V30 17770 N 1668.77 -1.57515 -0.0517878 0
M  V30 17771 C 1670 -1.92456 -0.759485 0
M  V30 17772 C 1670.42 -0.819396 -1.70092 0
M  V30 17773 O 1669.77 0.205913 -1.81335 0
M  V30 17774 C 1669.83 -3.27242 -1.53606 0
M  V30 17775 O 1669.55 -4.33511 -0.632441 0
M  V30 17776 C 1671.05 -3.76324 -2.34297 0
M  V30 17777 H 1668.27 -0.635688 -0.214807 0
M  V30 17778 H 1670.81 -2.04494 -0.0160862 0
M  V30 17779 H 1668.97 -3.16671 -2.23155 0
M  V30 17780 H 1669.38 -5.11178 -1.17462 0
M  V30 17781 H 1670.85 -4.73209 -2.84213 0
M  V30 17782 H 1671.33 -3.06351 -3.14716 0
M  V30 17783 H 1671.94 -3.89904 -1.69866 0
M  V30 17784 N 1670.25 0.323614 -1.54242 0
M  V30 17785 C 1671.2 1.4184 -1.84348 0
M  V30 17786 C 1672.2 1.53553 -0.715384 0
M  V30 17787 O 1673.4 1.5594 -0.899045 0
M  V30 17788 H 1669.78 0.473326 -0.584352 0
M  V30 17789 H 1671.75 1.13672 -2.75901 0
M  V30 17790 C 1670.5 2.78059 -2.08755 0
M  V30 17791 H 1669.82 2.69819 -2.95021 0
M  V30 17792 H 1671.26 3.53731 -2.33774 0
M  V30 17793 C 1669.72 3.25229 -0.879076 0
M  V30 17794 O 1670.25 4.01603 -0.0883125 0
M  V30 17795 N 1668.45 2.82272 -0.690726 0
M  V30 17796 H 1668 2.20283 -1.33542 0
M  V30 17797 H 1667.96 3.14185 0.116344 0
M  V30 17798 N 1671.73 1.46313 0.585673 0
M  V30 17799 C 1672.98 1.51694 1.34598 0
M  V30 17800 C 1673.31 0.166889 1.93482 0
M  V30 17801 O 1672.59 -0.821331 1.76308 0
M  V30 17802 C 1672.87 2.61322 2.47755 0
M  V30 17803 C 1672.72 4.05848 1.93926 0
M  V30 17804 C 1674.04 2.67058 3.49812 0
M  V30 17805 H 1671.16 0.552253 0.488043 0
M  V30 17806 H 1673.8 1.78235 0.658201 0
M  V30 17807 H 1671.95 2.38822 3.06425 0
M  V30 17808 H 1673.62 4.39626 1.39736 0
M  V30 17809 H 1671.87 4.15468 1.24775 0
M  V30 17810 H 1672.54 4.78279 2.75596 0
M  V30 17811 H 1675.01 2.87276 3.01018 0
M  V30 17812 H 1673.89 3.45589 4.2645 0
M  V30 17813 H 1674.15 1.72993 4.06849 0
M  V30 17814 N 1673.21 -0.830057 1.33969 0
M  V30 17815 C 1674.17 -1.92206 1.24858 0
M  V30 17816 C 1675.17 -1.59946 0.16549 0
M  V30 17817 O 1676.36 -1.6912 0.417629 0
M  V30 17818 C 1673.49 -3.28082 0.926029 0
M  V30 17819 H 1674.69 -2.01708 2.21932 0
M  V30 17820 H 1672.24 -1.02319 1.18154 0
M  V30 17821 H 1672.98 -3.24273 -0.0418364 0
M  V30 17822 H 1672.76 -3.52878 1.70938 0
M  V30 17823 H 1674.25 -4.08065 0.887263 0
M  V30 17824 N 1674.69 -1.17582 -1.04939 0
M  V30 17825 C 1675.93 -0.967208 -1.7825 0
M  V30 17826 C 1676.27 0.502711 -1.87581 0
M  V30 17827 O 1675.54 1.37318 -1.37746 0
M  V30 17828 C 1675.82 -1.61205 -3.22001 0
M  V30 17829 C 1675.68 -3.15424 -3.20667 0
M  V30 17830 C 1677 -1.31804 -4.199 0
M  V30 17831 H 1674.12 -0.35279 -0.647077 0
M  V30 17832 H 1676.76 -1.45119 -1.2264 0
M  V30 17833 H 1674.91 -1.20052 -3.69486 0
M  V30 17834 H 1676.58 -3.65653 -2.8124 0
M  V30 17835 H 1674.82 -3.48042 -2.58938 0
M  V30 17836 H 1675.49 -3.55674 -4.22138 0
M  V30 17837 H 1677.97 -1.67446 -3.80921 0
M  V30 17838 H 1676.85 -1.79505 -5.18719 0
M  V30 17839 H 1677.11 -0.239304 -4.41452 0
M  V30 17840 N 1676.17 1.23705 -0.976463 0
M  V30 17841 C 1677.58 1.73848 -0.680723 0
M  V30 17842 C 1677.93 1.79005 0.803228 0
M  V30 17843 O 1677.05 1.42529 1.62832 0
M  V30 17844 C 1677.65 3.15724 -1.22898 0
M  V30 17845 C 1676.21 3.63338 -0.982963 0
M  V30 17846 C 1675.35 2.41712 -1.35906 0
M  V30 17847 H 1678.3 1.09284 -1.15077 0
M  V30 17848 H 1678.33 3.75748 -0.599487 0
M  V30 17849 H 1677.84 3.11938 -2.30903 0
M  V30 17850 H 1675.94 3.72512 0.0811766 0
M  V30 17851 H 1676.05 4.50347 -1.63477 0
M  V30 17852 H 1674.42 2.42543 -0.777498 0
M  V30 17853 H 1675.2 2.40601 -2.4488 0
M  V30 17854 N 1677.64 0.747635 1.38738 0
M  V30 17855 C 1678.59 0.105258 2.32362 0
M  V30 17856 C 1679.59 -0.711921 1.53714 0
M  V30 17857 O 1680.79 -0.611687 1.69288 0
M  V30 17858 H 1677.17 0.0152406 0.751846 0
M  V30 17859 H 1679.14 0.911057 2.84152 0
M  V30 17860 C 1677.89 -0.778221 3.38879 0
M  V30 17861 H 1677.21 -0.158806 3.99484 0
M  V30 17862 H 1678.65 -1.19509 4.06809 0
M  V30 17863 C 1677.11 -1.91819 2.76961 0
M  V30 17864 O 1677.64 -3.01187 2.65799 0
M  V30 17865 N 1675.84 -1.71143 2.34859 0
M  V30 17866 H 1675.39 -0.821885 2.44137 0
M  V30 17867 H 1675.35 -2.47588 1.93772 0
M  V30 17868 N 1679.12 -1.49583 0.496242 0
M  V30 17869 C 1680.05 -2.25783 -0.331257 0
M  V30 17870 C 1681.03 -1.3016 -0.974526 0
M  V30 17871 O 1682.22 -1.59439 -1.00556 0
M  V30 17872 C 1679.34 -3.05323 -1.46614 0
M  V30 17873 C 1678.39 -4.16064 -0.937722 0
M  V30 17874 S 1679.22 -5.35237 0.167715 0
M  V30 17875 C 1680.38 -6.18331 -0.970443 0
M  V30 17876 H 1680.61 -2.95621 0.315507 0
M  V30 17877 H 1678.14 -1.51813 0.28147 0
M  V30 17878 H 1680.1 -3.51735 -2.11642 0
M  V30 17879 H 1678.76 -2.34963 -2.0845 0
M  V30 17880 H 1677.96 -4.71215 -1.78808 0
M  V30 17881 H 1677.56 -3.72217 -0.364726 0
M  V30 17882 H 1679.85 -6.50988 -1.87671 0
M  V30 17883 H 1680.79 -7.0662 -0.457649 0
M  V30 17884 H 1681.2 -5.50811 -1.23563 0
M  V30 17885 N 1680.6 -0.229873 -1.55915 0
M  V30 17886 C 1681.55 0.693198 -2.2203 0
M  V30 17887 C 1682.54 1.1933 -1.20236 0
M  V30 17888 O 1683.75 1.15217 -1.38294 0
M  V30 17889 H 1680.12 0.241986 -0.712002 0
M  V30 17890 H 1682.09 0.112229 -2.98189 0
M  V30 17891 C 1680.84 1.88688 -2.92048 0
M  V30 17892 H 1680.17 1.51119 -3.70139 0
M  V30 17893 H 1681.61 2.51036 -3.41697 0
M  V30 17894 C 1680.06 2.74747 -1.94976 0
M  V30 17895 O 1680.59 3.73759 -1.47198 0
M  V30 17896 N 1678.8 2.40956 -1.62445 0
M  V30 17897 H 1678.35 1.60494 -2.01493 0
M  V30 17898 H 1678.31 2.98816 -0.977581 0
M  V30 17899 N 1682.08 1.5754 0.0434337 0
M  V30 17900 C 1683.03 2.06683 1.067 0
M  V30 17901 C 1684.02 0.977691 1.38339 0
M  V30 17902 O 1685.23 1.16266 1.37412 0
M  V30 17903 H 1681.6 0.659378 0.361559 0
M  V30 17904 H 1683.57 2.91747 0.626605 0
M  V30 17905 C 1682.32 2.54985 2.36385 0
M  V30 17906 H 1681.64 3.384 2.12897 0
M  V30 17907 H 1683.08 2.93095 3.06384 0
M  V30 17908 C 1681.54 1.44484 3.04345 0
M  V30 17909 O 1682.07 0.80291 3.93594 0
M  V30 17910 N 1680.28 1.18292 2.65434 0
M  V30 17911 H 1679.83 1.70676 1.92944 0
M  V30 17912 H 1679.78 0.445676 3.11225 0
M  V30 17913 N 1683.56 -0.31543 1.54411 0
M  V30 17914 C 1684.5 -1.4086 1.85098 0
M  V30 17915 C 1685.5 -1.53172 0.723518 0
M  V30 17916 O 1686.7 -1.55461 0.907303 0
M  V30 17917 H 1683.08 -0.47022 0.586853 0
M  V30 17918 H 1685.05 -1.12207 2.765 0
M  V30 17919 C 1683.8 -2.76948 2.10227 0
M  V30 17920 H 1683.12 -2.68251 2.96448 0
M  V30 17921 H 1684.56 -3.52486 2.35647 0
M  V30 17922 C 1683.02 -3.24758 0.896312 0
M  V30 17923 O 1683.55 -4.0155 0.109609 0
M  V30 17924 N 1681.76 -2.81901 0.705685 0
M  V30 17925 H 1681.3 -2.19571 1.34708 0
M  V30 17926 H 1681.26 -3.14242 -0.0996804 0
M  V30 17927 N 1685.03 -1.46622 -0.577906 0
M  V30 17928 C 1685.98 -1.57926 -1.70769 0
M  V30 17929 C 1686.98 -0.447509 -1.63382 0
M  V30 17930 O 1688.18 -0.624559 -1.68817 0
M  V30 17931 H 1684.56 -0.496618 -0.56469 0
M  V30 17932 H 1686.53 -2.52908 -1.58367 0
M  V30 17933 C 1685.28 -1.59124 -3.09152 0
M  V30 17934 H 1684.6 -2.45549 -3.15509 0
M  V30 17935 H 1686.04 -1.71087 -3.8795 0
M  V30 17936 C 1684.5 -0.320734 -3.3537 0
M  V30 17937 O 1685.03 0.586999 -3.97388 0
M  V30 17938 N 1683.24 -0.207156 -2.89861 0
M  V30 17939 H 1682.78 -0.946744 -2.39572 0
M  V30 17940 H 1682.74 0.642028 -3.07775 0
M  V30 17941 N 1686.51 0.822941 -1.34408 0
M  V30 17942 C 1687.46 1.95524 -1.25988 0
M  V30 17943 C 1688.45 1.68662 -0.157994 0
M  V30 17944 O 1689.66 1.77079 -0.322966 0
M  V30 17945 H 1686.04 0.642117 -0.391394 0
M  V30 17946 H 1688.01 1.99747 -2.21683 0
M  V30 17947 C 1686.76 3.32026 -1.03218 0
M  V30 17948 H 1686.08 3.53244 -1.87239 0
M  V30 17949 H 1687.52 4.11706 -1.01363 0
M  V30 17950 C 1685.98 3.3586 0.264523 0
M  V30 17951 O 1686.51 3.81232 1.26589 0
M  V30 17952 N 1684.71 2.89072 0.297626 0
M  V30 17953 H 1684.26 2.52341 -0.517836 0
M  V30 17954 H 1684.22 2.92019 1.165 0
M  V30 17955 N 1687.99 1.18137 1.04314 0
M  V30 17956 C 1688.94 0.902484 2.14378 0
M  V30 17957 C 1689.93 -0.136289 1.68851 0
M  V30 17958 O 1691.14 0.0116256 1.79996 0
M  V30 17959 H 1687.51 0.274358 0.700165 0
M  V30 17960 H 1689.48 1.83768 2.35099 0
M  V30 17961 C 1688.23 0.441975 3.4488 0
M  V30 17962 H 1687.56 1.23279 3.80319 0
M  V30 17963 H 1689 0.285808 4.23036 0
M  V30 17964 C 1687.46 -0.841797 3.26214 0
M  V30 17965 O 1687.99 -1.90658 3.53571 0
M  V30 17966 N 1686.19 -0.793425 2.79559 0
M  V30 17967 H 1685.74 0.0732997 2.57496 0
M  V30 17968 H 1685.7 -1.65281 2.6745 0
M  V30 17969 N 1689.47 -1.23186 0.98301 0
M  V30 17970 C 1690.42 -2.26762 0.517846 0
M  V30 17971 C 1691.41 -1.63944 -0.426459 0
M  V30 17972 O 1692.62 -1.77481 -0.300065 0
M  V30 17973 H 1688.99 -0.737082 0.149042 0
M  V30 17974 H 1690.96 -2.63356 1.40307 0
M  V30 17975 C 1689.71 -3.47324 -0.16157 0
M  V30 17976 H 1689.03 -3.95915 0.555973 0
M  V30 17977 H 1690.47 -4.21598 -0.450644 0
M  V30 17978 C 1688.93 -3.06722 -1.39366 0
M  V30 17979 O 1689.46 -3.15239 -2.48973 0
M  V30 17980 N 1687.67 -2.61609 -1.26528 0
M  V30 17981 H 1687.22 -2.54879 -0.373449 0
M  V30 17982 H 1687.17 -2.34809 -2.09074 0
M  V30 17983 N 1690.95 -0.754982 -1.38339 0
M  V30 17984 C 1691.89 -0.117579 -2.32303 0
M  V30 17985 C 1692.89 0.703759 -1.5409 0
M  V30 17986 O 1694.09 0.602701 -1.6961 0
M  V30 17987 H 1690.47 -0.0192276 -0.751754 0
M  V30 17988 H 1692.44 -0.926113 -2.83665 0
M  V30 17989 C 1691.19 0.760239 -3.39287 0
M  V30 17990 H 1690.51 0.137619 -3.99563 0
M  V30 17991 H 1691.95 1.17349 -4.07437 0
M  V30 17992 C 1690.41 1.90347 -2.77974 0
M  V30 17993 O 1690.94 2.99773 -2.67393 0
M  V30 17994 N 1689.15 1.69895 -2.35763 0
M  V30 17995 H 1688.69 0.808926 -2.44569 0
M  V30 17996 H 1688.65 2.46557 -1.95082 0
M  V30 17997 N 1692.42 1.49318 -0.504168 0
M  V30 17998 C 1693.65 2.06869 0.0359415 0
M  V30 17999 C 1694.07 1.3641 1.30529 0
M  V30 18000 O 1693.42 0.443416 1.77031 0
M  V30 18001 C 1693.48 3.60333 0.290233 0
M  V30 18002 O 1693.2 4.28141 -0.928801 0
M  V30 18003 C 1694.7 4.34606 0.873628 0
M  V30 18004 H 1691.92 0.670643 -0.0218893 0
M  V30 18005 H 1694.46 1.92058 -0.702432 0
M  V30 18006 H 1692.62 3.74836 0.978594 0
M  V30 18007 H 1693.03 5.19894 -0.693595 0
M  V30 18008 H 1694.5 5.42846 1.00112 0
M  V30 18009 H 1694.98 3.97297 1.87221 0
M  V30 18010 H 1695.59 4.24717 0.222638 0
M  V30 18011 N 1693.9 0.238138 1.5579 0
M  V30 18012 C 1694.84 -0.705517 2.1702 0
M  V30 18013 C 1695.81 -1.17917 1.11957 0
M  V30 18014 O 1697 -1.2589 1.403 0
M  V30 18015 C 1694.12 -1.9578 2.76384 0
M  V30 18016 C 1693.17 -1.62275 3.94422 0
M  V30 18017 S 1694 -0.733018 5.30459 0
M  V30 18018 C 1695.16 -1.9945 5.93271 0
M  V30 18019 H 1695.39 -0.185146 2.96723 0
M  V30 18020 H 1692.93 0.0226713 1.54383 0
M  V30 18021 H 1694.88 -2.67676 3.11223 0
M  V30 18022 H 1693.54 -2.44929 1.96643 0
M  V30 18023 H 1692.74 -2.55361 4.34519 0
M  V30 18024 H 1692.34 -0.98429 3.60815 0
M  V30 18025 H 1694.63 -2.94272 6.10254 0
M  V30 18026 H 1695.57 -1.63716 6.88914 0
M  V30 18027 H 1695.98 -2.14259 5.22258 0
M  V30 18028 N 1695.38 -1.57561 -0.0350783 0
M  V30 18029 C 1696.33 -2.07246 -1.05602 0
M  V30 18030 C 1697.32 -0.985013 -1.37818 0
M  V30 18031 O 1698.53 -1.16993 -1.36794 0
M  V30 18032 H 1694.9 -0.661286 -0.358057 0
M  V30 18033 H 1696.87 -2.92075 -0.611124 0
M  V30 18034 C 1695.62 -2.56235 -2.3503 0
M  V30 18035 H 1694.95 -3.39525 -2.111 0
M  V30 18036 H 1696.39 -2.94716 -3.04826 0
M  V30 18037 C 1694.85 -1.46096 -3.03575 0
M  V30 18038 O 1695.38 -0.823772 -3.93163 0
M  V30 18039 N 1693.58 -1.19698 -2.64803 0
M  V30 18040 H 1693.13 -1.71697 -1.92036 0
M  V30 18041 H 1693.09 -0.462174 -3.10984 0
M  V30 18042 N 1696.86 0.307236 -1.54576 0
M  V30 18043 C 1698.27 0.88064 -1.64626 0
M  V30 18044 C 1698.62 1.88308 -0.550865 0
M  V30 18045 O 1697.75 2.14116 0.313553 0
M  V30 18046 C 1698.34 1.60405 -2.98422 0
M  V30 18047 C 1696.9 2.12595 -3.10613 0
M  V30 18048 C 1696.05 0.956593 -2.60278 0
M  V30 18049 H 1699 0.0843939 -1.58475 0
M  V30 18050 H 1699.02 2.46925 -2.89496 0
M  V30 18051 H 1698.53 0.874209 -3.78126 0
M  V30 18052 H 1696.63 2.88644 -2.35617 0
M  V30 18053 H 1696.74 2.36475 -4.16673 0
M  V30 18054 H 1695.11 1.3404 -2.16576 0
M  V30 18055 H 1695.89 0.24081 -3.42454 0
M  V30 18056 N 1698.34 1.46926 0.570122 0
M  V30 18057 C 1699.56 1.5648 1.35358 0
M  V30 18058 C 1699.98 0.210356 1.87624 0
M  V30 18059 O 1699.34 -0.794388 1.64304 0
M  V30 18060 C 1699.39 2.57973 2.53243 0
M  V30 18061 O 1699.11 3.88157 2.03139 0
M  V30 18062 C 1700.61 2.77587 3.4563 0
M  V30 18063 H 1697.83 0.528787 0.413068 0
M  V30 18064 H 1700.37 1.9244 0.691895 0
M  V30 18065 H 1698.53 2.24982 3.15375 0
M  V30 18066 H 1698.94 4.43506 2.80004 0
M  V30 18067 H 1700.42 3.52495 4.24795 0
M  V30 18068 H 1700.89 1.84944 3.98362 0
M  V30 18069 H 1701.5 3.11724 2.89324 0
M  V30 18070 N 1699.82 -0.815801 1.34842 0
M  V30 18071 C 1701.05 -1.60164 1.30503 0
M  V30 18072 C 1701.45 -1.88809 -0.121561 0
M  V30 18073 O 1700.8 -1.48511 -1.08121 0
M  V30 18074 C 1700.86 -2.96361 2.03495 0
M  V30 18075 C 1700.52 -2.90577 3.52724 0
M  V30 18076 C 1701.52 -2.6466 4.47495 0
M  V30 18077 C 1699.2 -3.09985 3.9524 0
M  V30 18078 C 1701.2 -2.58212 5.82757 0
M  V30 18079 C 1698.89 -3.03161 5.306 0
M  V30 18080 C 1699.88 -2.77309 6.2417 0
M  V30 18081 O 1699.57 -2.70431 7.57048 0
M  V30 18082 H 1699.3 -0.504321 0.450151 0
M  V30 18083 H 1701.86 -1.02254 1.78139 0
M  V30 18084 H 1700.09 -3.56219 1.50483 0
M  V30 18085 H 1701.78 -3.57429 1.92353 0
M  V30 18086 H 1702.54 -2.49394 4.15966 0
M  V30 18087 H 1698.42 -3.2912 3.22801 0
M  V30 18088 H 1701.97 -2.37954 6.55762 0
M  V30 18089 H 1697.86 -3.17982 5.61745 0
M  V30 18090 H 1698.63 -2.86107 7.66867 0
M  V30 18091 N 1701.29 -1.18689 -1.03686 0
M  V30 18092 C 1702.7 -0.988182 -1.58404 0
M  V30 18093 C 1703.06 0.461107 -1.90705 0
M  V30 18094 O 1702.18 1.33912 -1.6999 0
M  V30 18095 C 1702.78 -1.78748 -2.8781 0
M  V30 18096 C 1701.33 -1.63301 -3.39131 0
M  V30 18097 C 1700.48 -1.77954 -2.12668 0
M  V30 18098 H 1703.43 -1.33177 -0.863112 0
M  V30 18099 H 1703.45 -1.27882 -3.58366 0
M  V30 18100 H 1702.97 -2.84224 -2.6427 0
M  V30 18101 H 1701.07 -0.603777 -3.67676 0
M  V30 18102 H 1701.18 -2.43342 -4.127 0
M  V30 18103 H 1699.54 -1.20937 -2.24157 0
M  V30 18104 H 1700.33 -2.84873 -1.91579 0
M  V30 18105 N 1702.77 1.22662 -0.989529 0
M  V30 18106 C 1704 1.95883 -0.681511 0
M  V30 18107 C 1704.42 1.72646 0.746646 0
M  V30 18108 O 1703.78 1.00358 1.5099 0
M  V30 18109 C 1703.83 3.46773 -0.988975 0
M  V30 18110 O 1702.93 4.12311 -0.0858485 0
M  V30 18111 H 1702.27 0.612916 -0.255401 0
M  V30 18112 H 1704.8 1.5585 -1.32559 0
M  V30 18113 H 1704.81 3.97273 -0.929426 0
M  V30 18114 H 1703.49 3.63011 -2.02967 0
M  V30 18115 H 1702.06 3.7236 -0.200592 0
M  V30 18116 N 1704.25 0.762308 1.37937 0
M  V30 18117 C 1705.18 0.156036 2.32978 0
M  V30 18118 C 1706.16 -0.693795 1.55308 0
M  V30 18119 O 1707.35 -0.633195 1.83587 0
M  V30 18120 C 1704.48 -0.731199 3.39515 0
M  V30 18121 C 1703.43 0.0165834 4.27997 0
M  V30 18122 C 1702.76 -0.989476 5.25465 0
M  V30 18123 C 1704.06 1.19009 5.08561 0
M  V30 18124 H 1705.75 0.949978 2.83929 0
M  V30 18125 H 1703.3 0.458269 1.36513 0
M  V30 18126 H 1705.25 -1.16507 4.04974 0
M  V30 18127 H 1703.97 -1.55756 2.87067 0
M  V30 18128 H 1702.63 0.431128 3.64056 0
M  V30 18129 H 1702.28 -1.81013 4.69301 0
M  V30 18130 H 1701.98 -0.493738 5.85522 0
M  V30 18131 H 1703.5 -1.42248 5.93799 0
M  V30 18132 H 1704.92 0.833336 5.67211 0
M  V30 18133 H 1703.31 1.61727 5.77896 0
M  V30 18134 H 1704.38 1.99879 4.41788 0
M  V30 18135 N 1705.73 -1.49049 0.51208 0
M  V30 18136 C 1707.14 -1.86579 0.0670687 0
M  V30 18137 C 1707.49 -1.42339 -1.35034 0
M  V30 18138 O 1706.61 -0.806142 -2.00824 0
M  V30 18139 C 1707.21 -3.38605 0.114936 0
M  V30 18140 C 1705.77 -3.75396 -0.274787 0
M  V30 18141 C 1704.92 -2.73068 0.482613 0
M  V30 18142 H 1707.87 -1.41208 0.724287 0
M  V30 18143 H 1707.89 -3.74416 -0.677722 0
M  V30 18144 H 1707.4 -3.70774 1.14666 0
M  V30 18145 H 1705.5 -3.48837 -1.30933 0
M  V30 18146 H 1705.61 -4.79071 0.0523691 0
M  V30 18147 H 1703.98 -2.54607 -0.0689364 0
M  V30 18148 H 1704.76 -3.08081 1.51463 0
M  V30 18149 N 1707.21 -0.246397 -1.55662 0
M  V30 18150 C 1708.15 0.653368 -2.21359 0
M  V30 18151 C 1709.12 1.1717 -1.1773 0
M  V30 18152 O 1710.31 1.22626 -1.46176 0
M  V30 18153 C 1707.45 1.84484 -2.9165 0
M  V30 18154 C 1706.56 1.36308 -4.09932 0
M  V30 18155 C 1705.7 2.51407 -4.6794 0
M  V30 18156 C 1704.73 2.0009 -5.78472 0
M  V30 18157 N 1703.87 3.08555 -6.30665 0
M  V30 18158 H 1708.71 0.0864458 -2.97875 0
M  V30 18159 H 1706.25 0.0309074 -1.47068 0
M  V30 18160 H 1708.21 2.54476 -3.30602 0
M  V30 18161 H 1706.84 2.38425 -2.17609 0
M  V30 18162 H 1705.89 0.557224 -3.76297 0
M  V30 18163 H 1707.2 0.946988 -4.89728 0
M  V30 18164 H 1706.35 3.29442 -5.09463 0
M  V30 18165 H 1705.09 2.96318 -3.87359 0
M  V30 18166 H 1704.1 1.20526 -5.36427 0
M  V30 18167 H 1705.32 1.5615 -6.60904 0
M  V30 18168 H 1703.27 3.529 -5.52989 0
M  V30 18169 H 1703.19 2.71274 -7.05653 0
M  V30 18170 H 1704.45 3.8665 -6.76847 0
M  V30 18171 N 1708.68 1.57577 0.026722 0
M  V30 18172 C 1709.93 1.89379 0.717062 0
M  V30 18173 C 1710.26 0.843976 1.75235 0
M  V30 18174 O 1709.51 -0.154755 1.95087 0
M  V30 18175 C 1709.81 3.27927 1.42121 0
M  V30 18176 C 1709.48 4.47872 0.521676 0
M  V30 18177 C 1708.14 4.8042 0.273926 0
M  V30 18178 C 1710.49 5.21105 -0.0992493 0
M  V30 18179 C 1707.82 5.83588 -0.603488 0
M  V30 18180 C 1710.17 6.25206 -0.964379 0
M  V30 18181 C 1708.84 6.56227 -1.22157 0
M  V30 18182 H 1708.11 0.692988 0.262391 0
M  V30 18183 H 1710.75 1.91486 -0.0230629 0
M  V30 18184 H 1709.06 3.2182 2.23471 0
M  V30 18185 H 1710.76 3.49783 1.96094 0
M  V30 18186 H 1707.35 4.22425 0.724931 0
M  V30 18187 H 1711.53 4.96237 0.0791882 0
M  V30 18188 H 1706.79 6.05997 -0.811031 0
M  V30 18189 H 1710.96 6.81094 -1.45201 0
M  V30 18190 H 1708.59 7.35991 -1.90317 0
M  V30 18191 N 1710.16 -0.299034 1.54737 0
M  V30 18192 C 1711.57 -0.871897 1.6509 0
M  V30 18193 C 1711.92 -1.88013 0.560843 0
M  V30 18194 O 1711.05 -2.1428 -0.302194 0
M  V30 18195 C 1711.64 -1.5882 2.99269 0
M  V30 18196 C 1710.2 -2.10944 3.11736 0
M  V30 18197 C 1709.35 -0.942776 2.60782 0
M  V30 18198 H 1712.3 -0.0759883 1.58518 0
M  V30 18199 H 1712.32 -2.45387 2.90802 0
M  V30 18200 H 1711.83 -0.854144 3.78584 0
M  V30 18201 H 1709.93 -2.87391 2.37144 0
M  V30 18202 H 1710.05 -2.34262 4.17921 0
M  V30 18203 H 1708.41 -1.3289 2.17284 0
M  V30 18204 H 1709.19 -0.222646 3.42577 0
M  V30 18205 N 1711.64 -1.47227 -0.562322 0
M  V30 18206 C 1712.59 -1.59729 -1.69084 0
M  V30 18207 C 1713.58 -0.464812 -1.62898 0
M  V30 18208 O 1714.79 -0.642429 -1.68145 0
M  V30 18209 H 1711.16 -0.502579 -0.559391 0
M  V30 18210 H 1713.13 -2.54573 -1.55676 0
M  V30 18211 C 1711.88 -1.62394 -3.07447 0
M  V30 18212 H 1711.21 -2.48882 -3.12887 0
M  V30 18213 H 1712.65 -1.75192 -3.86114 0
M  V30 18214 C 1711.1 -0.356287 -3.35011 0
M  V30 18215 O 1711.63 0.544818 -3.97988 0
M  V30 18216 N 1709.84 -0.237888 -2.89625 0
M  V30 18217 H 1709.39 -0.9721 -2.38554 0
M  V30 18218 H 1709.35 0.609348 -3.08438 0
M  V30 18219 N 1713.12 0.808639 -1.35273 0
M  V30 18220 C 1714.35 1.5947 -1.31351 0
M  V30 18221 C 1714.76 1.88871 0.111546 0
M  V30 18222 O 1714.1 1.49082 1.07332 0
M  V30 18223 C 1714.16 2.95278 -2.05064 0
M  V30 18224 C 1713.82 2.88702 -3.5426 0
M  V30 18225 C 1714.82 2.62283 -4.48892 0
M  V30 18226 C 1712.51 3.07884 -3.96879 0
M  V30 18227 C 1714.5 2.55118 -5.84118 0
M  V30 18228 C 1712.19 3.00343 -5.322 0
M  V30 18229 C 1713.19 2.73995 -6.25632 0
M  V30 18230 O 1712.87 2.66413 -7.58472 0
M  V30 18231 H 1712.61 0.501927 -0.45282 0
M  V30 18232 H 1715.16 1.01307 -1.78678 0
M  V30 18233 H 1713.39 3.55416 -1.5237 0
M  V30 18234 H 1715.08 3.56403 -1.94246 0
M  V30 18235 H 1715.84 2.47184 -4.17283 0
M  V30 18236 H 1711.72 3.27404 -3.24542 0
M  V30 18237 H 1715.27 2.34473 -6.57015 0
M  V30 18238 H 1711.16 3.14999 -5.63424 0
M  V30 18239 H 1711.93 2.82036 -7.68374 0
M  V30 18240 N 1714.6 1.19237 1.03055 0
M  V30 18241 C 1715.54 0.925171 2.13409 0
M  V30 18242 C 1716.54 -0.118373 1.68986 0
M  V30 18243 O 1717.74 0.0307159 1.79974 0
M  V30 18244 H 1714.12 0.281769 0.697216 0
M  V30 18245 H 1716.09 1.86252 2.33137 0
M  V30 18246 C 1714.84 0.478529 3.44391 0
M  V30 18247 H 1714.16 1.27305 3.7899 0
M  V30 18248 H 1715.6 0.330661 4.22709 0
M  V30 18249 C 1714.06 -0.80715 3.27088 0
M  V30 18250 O 1714.59 -1.86897 3.55573 0
M  V30 18251 N 1712.8 -0.76373 2.80385 0
M  V30 18252 H 1712.34 0.100606 2.57403 0
M  V30 18253 H 1712.3 -1.62435 2.69188 0
M  V30 18254 N 1716.07 -1.22136 0.99602 0
M  V30 18255 C 1717 -2.26463 0.568909 0
M  V30 18256 C 1717.99 -1.65189 -0.405783 0
M  V30 18257 O 1719.17 -1.91935 -0.295735 0
M  V30 18258 C 1716.3 -3.47112 -0.114166 0
M  V30 18259 C 1715.25 -4.20844 0.779387 0
M  V30 18260 C 1714.58 -5.34687 -0.0367787 0
M  V30 18261 C 1715.88 -4.79195 2.07773 0
M  V30 18262 H 1717.57 -2.62443 1.44097 0
M  V30 18263 H 1715.12 -1.26156 0.694314 0
M  V30 18264 H 1717.07 -4.19258 -0.424381 0
M  V30 18265 H 1715.8 -3.10238 -1.02079 0
M  V30 18266 H 1714.46 -3.50537 1.07329 0
M  V30 18267 H 1714.1 -4.94054 -0.94442 0
M  V30 18268 H 1713.8 -5.84944 0.558092 0
M  V30 18269 H 1715.33 -6.09647 -0.341016 0
M  V30 18270 H 1716.74 -5.43266 1.83126 0
M  V30 18271 H 1715.14 -5.39803 2.62169 0
M  V30 18272 H 1716.21 -3.99073 2.75442 0
M  V30 18273 N 1717.55 -0.769612 -1.37531 0
M  V30 18274 C 1718.5 -0.142211 -2.32165 0
M  V30 18275 C 1719.49 0.687376 -1.54827 0
M  V30 18276 O 1720.7 0.584677 -1.7024 0
M  V30 18277 H 1717.08 -0.0271998 -0.751508 0
M  V30 18278 H 1719.05 -0.956148 -2.82667 0
M  V30 18279 C 1717.8 0.72421 -3.40074 0
M  V30 18280 H 1717.12 0.0952318 -3.99687 0
M  V30 18281 H 1718.56 1.13021 -4.08659 0
M  V30 18282 C 1717.02 1.87388 -2.79977 0
M  V30 18283 O 1717.55 2.96921 -2.70557 0
M  V30 18284 N 1715.75 1.67384 -2.37552 0
M  V30 18285 H 1715.3 0.782941 -2.45414 0
M  V30 18286 H 1715.26 2.44474 -1.97686 0
M  V30 18287 N 1719.03 1.48775 -0.519977 0
M  V30 18288 C 1720.26 2.07394 0.0161061 0
M  V30 18289 C 1720.68 1.37532 1.28322 0
M  V30 18290 O 1720.04 0.438049 1.75928 0
M  V30 18291 C 1720.09 3.59844 0.233382 0
M  V30 18292 O 1719.19 3.91235 1.30418 0
M  V30 18293 H 1718.53 0.663094 -0.0346678 0
M  V30 18294 H 1721.06 1.91323 -0.725029 0
M  V30 18295 H 1721.07 4.05409 0.45911 0
M  V30 18296 H 1719.75 4.10098 -0.69229 0
M  V30 18297 H 1718.32 3.5746 1.0619 0
M  V30 18298 N 1720.51 0.254649 1.55529 0
M  V30 18299 C 1721.44 -0.674506 2.1905 0
M  V30 18300 C 1722.45 -1.13297 1.16909 0
M  V30 18301 O 1723.64 -1.0584 1.43736 0
M  V30 18302 C 1720.74 -1.92951 2.78609 0
M  V30 18303 C 1719.92 -1.62123 4.06245 0
M  V30 18304 C 1718.97 -2.72661 4.50047 0
M  V30 18305 O 1718 -2.39717 5.1626 0
M  V30 18306 N 1719.2 -4.02315 4.18477 0
M  V30 18307 H 1721.97 -0.130956 2.99414 0
M  V30 18308 H 1719.53 0.0749176 1.61727 0
M  V30 18309 H 1721.52 -2.66155 3.04866 0
M  V30 18310 H 1720.09 -2.38265 2.02358 0
M  V30 18311 H 1719.31 -0.723991 3.87495 0
M  V30 18312 H 1720.6 -1.39 4.89445 0
M  V30 18313 H 1720 -4.3191 3.65336 0
M  V30 18314 H 1718.55 -4.7196 4.49552 0
M  V30 18315 N 1721.99 -1.57589 -0.0183649 0
M  V30 18316 C 1723.23 -1.90038 -0.708056 0
M  V30 18317 C 1723.57 -0.853686 -1.7443 0
M  V30 18318 O 1722.84 0.12994 -1.94065 0
M  V30 18319 C 1723.12 -3.33107 -1.3679 0
M  V30 18320 C 1722.98 -4.48479 -0.344448 0
M  V30 18321 C 1724.3 -3.75276 -2.29904 0
M  V30 18322 H 1721.41 -0.691134 -0.255934 0
M  V30 18323 H 1724.06 -1.89978 0.0291579 0
M  V30 18324 H 1722.21 -3.33289 -1.99626 0
M  V30 18325 H 1723.88 -4.60432 0.282816 0
M  V30 18326 H 1722.12 -4.32503 0.335196 0
M  V30 18327 H 1722.79 -5.45497 -0.844832 0
M  V30 18328 H 1725.27 -3.76529 -1.77103 0
M  V30 18329 H 1724.14 -4.76168 -2.73049 0
M  V30 18330 H 1724.41 -3.08124 -3.17036 0
M  V30 18331 N 1723.46 0.290824 -1.54893 0
M  V30 18332 C 1724.4 1.38087 -1.82933 0
M  V30 18333 C 1725.41 1.46365 -0.712811 0
M  V30 18334 O 1726.6 1.48501 -0.990432 0
M  V30 18335 C 1723.7 2.76374 -1.9614 0
M  V30 18336 C 1722.87 2.90905 -3.26639 0
M  V30 18337 C 1721.93 4.09754 -3.30134 0
M  V30 18338 O 1720.96 4.01356 -4.03611 0
M  V30 18339 N 1722.16 5.20878 -2.56254 0
M  V30 18340 H 1724.92 1.14385 -2.77013 0
M  V30 18341 H 1722.48 0.480916 -1.54592 0
M  V30 18342 H 1724.48 3.54144 -1.95868 0
M  V30 18343 H 1723.05 2.92978 -1.09008 0
M  V30 18344 H 1722.27 2.00164 -3.396 0
M  V30 18345 H 1723.55 2.97531 -4.12738 0
M  V30 18346 H 1722.95 5.30584 -1.96207 0
M  V30 18347 H 1721.51 5.96945 -2.61725 0
M  V30 18348 N 1724.94 1.47523 0.554506 0
M  V30 18349 C 1725.87 1.56275 1.67663 0
M  V30 18350 C 1726.89 0.448743 1.56493 0
M  V30 18351 O 1728.08 0.718478 1.63402 0
M  V30 18352 C 1725.18 1.45348 3.06149 0
M  V30 18353 C 1724.35 2.71364 3.43046 0
M  V30 18354 C 1723.41 2.54237 4.60706 0
M  V30 18355 O 1722.43 3.28059 4.65152 0
M  V30 18356 N 1723.64 1.6224 5.57367 0
M  V30 18357 H 1726.4 2.53036 1.60601 0
M  V30 18358 H 1723.96 1.43936 0.741209 0
M  V30 18359 H 1725.95 1.31621 3.82698 0
M  V30 18360 H 1724.52 0.566583 3.07423 0
M  V30 18361 H 1723.74 2.99833 2.55917 0
M  V30 18362 H 1725.03 3.55017 3.64473 0
M  V30 18363 H 1724.43 1.01419 5.56534 0
M  V30 18364 H 1722.99 1.54463 6.33233 0
M  V30 18365 N 1726.42 -0.801453 1.357 0
M  V30 18366 C 1727.37 -1.93495 1.29083 0
M  V30 18367 C 1728.36 -1.68389 0.184806 0
M  V30 18368 O 1729.57 -1.76543 0.351097 0
M  V30 18369 H 1725.94 -0.635809 0.40156 0
M  V30 18370 H 1727.91 -1.96195 2.24833 0
M  V30 18371 C 1726.66 -3.30342 1.08487 0
M  V30 18372 H 1725.99 -3.50221 1.92835 0
M  V30 18373 H 1727.43 -4.10041 1.079 0
M  V30 18374 C 1725.89 -3.36238 -0.211057 0
M  V30 18375 O 1726.42 -3.83198 -1.20508 0
M  V30 18376 N 1724.62 -2.89509 -0.251599 0
M  V30 18377 H 1724.17 -2.51486 0.557916 0
M  V30 18378 H 1724.13 -2.93836 -1.11839 0
M  V30 18379 N 1727.9 -1.19782 -1.02421 0
M  V30 18380 C 1729.12 -1.02939 -1.80051 0
M  V30 18381 C 1729.55 0.417153 -1.83416 0
M  V30 18382 O 1728.91 1.3001 -1.26361 0
M  V30 18383 C 1728.95 -1.60853 -3.22736 0
M  V30 18384 O 1728.06 -0.840999 -4.03734 0
M  V30 18385 H 1727.4 -0.363537 -0.555641 0
M  V30 18386 H 1729.93 -1.58908 -1.28878 0
M  V30 18387 H 1729.94 -1.64266 -3.73471 0
M  V30 18388 H 1728.61 -2.66135 -3.19602 0
M  V30 18389 H 1727.19 -0.880482 -3.62356 0
M  V30 18390 N 1729.38 1.21606 -1.00248 0
M  V30 18391 C 1730.63 1.89922 -0.679152 0
M  V30 18392 C 1730.94 1.78793 0.793246 0
M  V30 18393 O 1732.15 2.42113 1.22856 0
M  V30 18394 C 1730.6 3.40548 -1.16427 0
M  V30 18395 C 1730.21 3.60293 -2.66257 0
M  V30 18396 C 1731.95 4.14506 -0.915714 0
M  V30 18397 C 1729.86 5.04669 -3.08323 0
M  V30 18398 H 1728.79 0.711232 -0.250329 0
M  V30 18399 H 1731.44 1.37663 -1.21331 0
M  V30 18400 H 1729.82 3.92046 -0.558177 0
M  V30 18401 H 1731 3.19245 -3.32294 0
M  V30 18402 H 1729.31 2.99683 -2.891 0
M  V30 18403 H 1731.91 5.20932 -1.20558 0
M  V30 18404 H 1732.25 4.16037 0.148068 0
M  V30 18405 H 1732.79 3.69064 -1.48448 0
M  V30 18406 H 1729.52 5.08284 -4.13917 0
M  V30 18407 H 1729.04 5.46583 -2.46996 0
M  V30 18408 H 1730.72 5.7316 -3.00162 0
M  V30 18409 N 1730.86 0.776895 1.37121 0
M  V30 18410 C 1732.1 0.340209 1.9881 0
M  V30 18411 C 1732.42 -1.09071 1.62367 0
M  V30 18412 O 1733.62 -1.62904 2.17197 0
M  V30 18413 C 1732.08 0.557325 3.55559 0
M  V30 18414 C 1731.69 1.99884 4.00937 0
M  V30 18415 C 1733.43 0.184519 4.24099 0
M  V30 18416 C 1731.34 2.16328 5.50415 0
M  V30 18417 H 1730.27 0.12346 0.743824 0
M  V30 18418 H 1732.92 0.956754 1.56584 0
M  V30 18419 H 1731.3 -0.128752 3.95791 0
M  V30 18420 H 1732.48 2.72029 3.71937 0
M  V30 18421 H 1730.79 2.32872 3.45195 0
M  V30 18422 H 1733.39 0.285827 5.33935 0
M  V30 18423 H 1733.73 -0.865859 4.07196 0
M  V30 18424 H 1734.26 0.823343 3.89186 0
M  V30 18425 H 1731 3.19703 5.7225 0
M  V30 18426 H 1730.52 1.48673 5.81082 0
M  V30 18427 H 1732.2 1.96437 6.16459 0
M  V30 18428 N 1732.33 -1.48497 0.527859 0
M  V30 18429 C 1733.74 -1.86498 0.0868541 0
M  V30 18430 C 1734.1 -1.43763 -1.33517 0
M  V30 18431 O 1733.22 -0.827397 -1.99958 0
M  V30 18432 C 1733.82 -3.38464 0.150843 0
M  V30 18433 C 1732.37 -3.75666 -0.234956 0
M  V30 18434 C 1731.52 -2.72541 0.511549 0
M  V30 18435 H 1734.47 -1.40432 0.739223 0
M  V30 18436 H 1734.49 -3.75114 -0.637972 0
M  V30 18437 H 1734.01 -3.69537 1.18592 0
M  V30 18438 H 1732.11 -3.50206 -1.27225 0
M  V30 18439 H 1732.22 -4.78989 0.103178 0
M  V30 18440 H 1730.58 -2.54665 -0.0419281 0
M  V30 18441 H 1731.37 -3.06457 1.54722 0
M  V30 18442 N 1733.81 -0.262893 -1.55392 0
M  V30 18443 C 1734.72 0.640223 -2.25695 0
M  V30 18444 C 1735.74 1.18019 -1.27857 0
M  V30 18445 O 1736.91 1.21308 -1.60768 0
M  V30 18446 C 1733.98 1.81336 -2.95497 0
M  V30 18447 C 1733.04 1.31128 -4.08784 0
M  V30 18448 C 1732.27 2.4285 -4.75247 0
M  V30 18449 O 1732.5 3.61939 -4.40859 0
M  V30 18450 O 1731.43 2.11699 -5.63442 0
M  V30 18451 H 1735.26 0.0710781 -3.03617 0
M  V30 18452 H 1732.84 -0.030765 -1.49368 0
M  V30 18453 H 1734.72 2.49764 -3.39406 0
M  V30 18454 H 1733.4 2.36982 -2.20502 0
M  V30 18455 H 1732.3 0.593816 -3.69357 0
M  V30 18456 H 1733.64 0.800711 -4.85643 0
M  V30 18457 N 1735.29 1.57597 0.0100073 0
M  V30 18458 C 1736.24 2.07788 1.00463 0
M  V30 18459 C 1737.21 0.971101 1.34755 0
M  V30 18460 O 1738.39 1.2429 1.44764 0
M  V30 18461 C 1735.53 2.57769 2.29454 0
M  V30 18462 C 1734.64 3.8231 2.01153 0
M  V30 18463 C 1733.78 4.2083 3.24154 0
M  V30 18464 C 1732.82 5.38236 2.91494 0
M  V30 18465 N 1731.96 5.72096 4.07001 0
M  V30 18466 H 1736.8 2.92504 0.569675 0
M  V30 18467 H 1734.33 1.44607 0.269645 0
M  V30 18468 H 1736.29 2.84821 3.04849 0
M  V30 18469 H 1734.92 1.75942 2.70637 0
M  V30 18470 H 1733.97 3.62227 1.16171 0
M  V30 18471 H 1735.28 4.67811 1.73074 0
M  V30 18472 H 1734.44 4.49111 4.07902 0
M  V30 18473 H 1733.18 3.34019 3.55363 0
M  V30 18474 H 1732.18 5.09688 2.06151 0
M  V30 18475 H 1733.41 6.26716 2.61543 0
M  V30 18476 H 1731.35 4.88243 4.38126 0
M  V30 18477 H 1731.27 6.52148 3.82411 0
M  V30 18478 H 1732.54 6.04964 4.91567 0
M  V30 18479 N 1736.77 -0.282606 1.55045 0
M  V30 18480 C 1737.7 -1.37115 1.83663 0
M  V30 18481 C 1738.71 -1.45985 0.720563 0
M  V30 18482 O 1739.9 -1.47974 0.998294 0
M  V30 18483 C 1737 -2.7533 1.97603 0
M  V30 18484 C 1736.17 -2.89168 3.28177 0
M  V30 18485 C 1735.23 -4.07997 3.32302 0
M  V30 18486 O 1734.26 -3.9921 4.05734 0
M  V30 18487 N 1735.46 -5.19512 2.59013 0
M  V30 18488 H 1738.23 -1.12914 2.77616 0
M  V30 18489 H 1735.79 -0.472711 1.54845 0
M  V30 18490 H 1737.78 -3.531 1.97743 0
M  V30 18491 H 1736.35 -2.92396 1.1056 0
M  V30 18492 H 1735.57 -1.9836 3.40657 0
M  V30 18493 H 1736.86 -2.95338 4.1431 0
M  V30 18494 H 1736.26 -5.29536 1.99018 0
M  V30 18495 H 1734.81 -5.95549 2.64887 0
M  V30 18496 N 1738.25 -1.47815 -0.546675 0
M  V30 18497 C 1739.18 -1.63976 -1.66235 0
M  V30 18498 C 1740.16 -0.488945 -1.62921 0
M  V30 18499 O 1741.34 -0.719532 -1.80378 0
M  V30 18500 C 1738.47 -1.6637 -3.04858 0
M  V30 18501 C 1737.43 -2.80785 -3.23023 0
M  V30 18502 C 1736.75 -2.68257 -4.62539 0
M  V30 18503 C 1738.05 -4.22267 -3.07388 0
M  V30 18504 H 1739.75 -2.57375 -1.52965 0
M  V30 18505 H 1737.29 -1.23861 -0.734465 0
M  V30 18506 H 1739.24 -1.76266 -3.82764 0
M  V30 18507 H 1737.97 -0.695386 -3.19111 0
M  V30 18508 H 1736.63 -2.70417 -2.47529 0
M  V30 18509 H 1736.28 -1.69431 -4.73606 0
M  V30 18510 H 1735.98 -3.45022 -4.75641 0
M  V30 18511 H 1737.5 -2.80097 -5.42566 0
M  V30 18512 H 1738.91 -4.33557 -3.75102 0
M  V30 18513 H 1737.31 -4.999 -3.31994 0
M  V30 18514 H 1738.38 -4.39897 -2.04006 0
M  V30 18515 N 1739.72 0.794246 -1.36123 0
M  V30 18516 C 1740.95 1.58297 -1.33228 0
M  V30 18517 C 1741.37 1.88597 0.0875426 0
M  V30 18518 O 1740.72 1.49754 1.04307 0
M  V30 18519 C 1740.77 2.90687 -2.14904 0
M  V30 18520 O 1740.5 2.61695 -3.51351 0
M  V30 18521 C 1742 3.85009 -2.19734 0
M  V30 18522 H 1739.22 0.491139 -0.457191 0
M  V30 18523 H 1741.76 0.986129 -1.79153 0
M  V30 18524 H 1739.92 3.46852 -1.72546 0
M  V30 18525 H 1740.33 3.46313 -3.93913 0
M  V30 18526 H 1741.8 4.74976 -2.8125 0
M  V30 18527 H 1742.28 4.22504 -1.19946 0
M  V30 18528 H 1742.89 3.34777 -2.62307 0
M  V30 18529 N 1741.2 1.20323 1.01785 0
M  V30 18530 C 1742.43 1.03893 1.79502 0
M  V30 18531 C 1742.85 -0.407421 1.83635 0
M  V30 18532 O 1742.21 -1.29338 1.27049 0
M  V30 18533 C 1742.26 1.62562 3.21879 0
M  V30 18534 O 1741.36 0.862398 4.03282 0
M  V30 18535 H 1740.7 0.366479 0.553705 0
M  V30 18536 H 1743.23 1.59589 1.28034 0
M  V30 18537 H 1743.24 1.66244 3.72595 0
M  V30 18538 H 1741.92 2.67826 3.18186 0
M  V30 18539 H 1740.49 0.899687 3.61884 0
M  V30 18540 N 1742.68 -1.21073 1.00892 0
M  V30 18541 C 1744.09 -1.71982 0.726576 0
M  V30 18542 C 1744.44 -1.81071 -0.755486 0
M  V30 18543 O 1743.57 -1.46797 -1.58996 0
M  V30 18544 C 1744.16 -3.12354 1.31226 0
M  V30 18545 C 1742.72 -3.60605 1.07895 0
M  V30 18546 C 1741.87 -2.38024 1.42267 0
M  V30 18547 H 1744.82 -1.06195 1.17934 0
M  V30 18548 H 1744.84 -3.74026 0.6989 0
M  V30 18549 H 1744.35 -3.05707 2.39092 0
M  V30 18550 H 1742.45 -3.72596 0.0176168 0
M  V30 18551 H 1742.57 -4.45854 1.7536 0
M  V30 18552 H 1740.93 -2.40396 0.841531 0
M  V30 18553 H 1741.71 -2.34024 2.51173 0
M  V30 18554 N 1744.16 -0.784156 -1.36707 0
M  V30 18555 C 1745.09 -0.124956 -2.27858 0
M  V30 18556 C 1746.07 0.695835 -1.46959 0
M  V30 18557 O 1747.25 0.667944 -1.76269 0
M  V30 18558 C 1744.38 0.828816 -3.28403 0
M  V30 18559 C 1743.43 0.0904776 -4.26404 0
M  V30 18560 S 1744.26 -1.23012 -5.2118 0
M  V30 18561 C 1745.42 -0.280212 -6.25272 0
M  V30 18562 H 1745.65 -0.89783 -2.83419 0
M  V30 18563 H 1743.18 -0.578123 -1.43168 0
M  V30 18564 H 1745.14 1.37367 -3.86834 0
M  V30 18565 H 1743.8 1.5749 -2.71764 0
M  V30 18566 H 1742.99 0.813986 -4.97383 0
M  V30 18567 H 1742.6 -0.383737 -3.72026 0
M  V30 18568 H 1744.89 0.542878 -6.75321 0
M  V30 18569 H 1745.83 -0.958538 -7.01582 0
M  V30 18570 H 1746.24 0.114109 -5.64385 0
M  V30 18571 N 1745.64 1.48215 -0.535727 0
M  V30 18572 C 1746.88 2.025 -0.00372753 0
M  V30 18573 C 1747.21 1.41227 1.33735 0
M  V30 18574 O 1746.47 0.549544 1.87826 0
M  V30 18575 C 1746.77 3.57036 0.161344 0
M  V30 18576 C 1746.43 4.37122 -1.10611 0
M  V30 18577 C 1745.09 4.58724 -1.45346 0
M  V30 18578 C 1747.45 4.83469 -1.94698 0
M  V30 18579 C 1744.77 5.2392 -2.64055 0
M  V30 18580 C 1747.13 5.49973 -3.1259 0
M  V30 18581 C 1745.79 5.69812 -3.47664 0
M  V30 18582 H 1745.06 0.740999 -0.001364 0
M  V30 18583 H 1747.71 1.78133 -0.70291 0
M  V30 18584 H 1746.01 3.80274 0.943337 0
M  V30 18585 H 1747.71 3.96666 0.587981 0
M  V30 18586 H 1744.3 4.20573 -0.825608 0
M  V30 18587 H 1748.48 4.66577 -1.69173 0
M  V30 18588 H 1743.74 5.37477 -2.91424 0
M  V30 18589 H 1747.91 5.84852 -3.78049 0
M  V30 18590 H 1745.54 6.20103 -4.39746 0
M  V30 18591 N 1747.11 0.27113 1.5525 0
M  V30 18592 C 1748.34 -0.353138 2.04371 0
M  V30 18593 C 1748.76 -1.48978 1.14835 0
M  V30 18594 O 1748.12 -1.8071 0.146138 0
M  V30 18595 C 1748.17 -0.815425 3.51259 0
M  V30 18596 O 1747.27 -1.92302 3.6482 0
M  V30 18597 H 1746.62 -0.0736207 0.659906 0
M  V30 18598 H 1749.15 0.404266 2.00566 0
M  V30 18599 H 1749.16 -1.11224 3.92547 0
M  V30 18600 H 1747.83 0.0162079 4.15897 0
M  V30 18601 H 1746.41 -1.62904 3.35435 0
M  V30 18602 N 1748.59 -1.576 -0.00164943 0
M  V30 18603 C 1749.82 -1.95176 -0.701511 0
M  V30 18604 C 1750.24 -0.873191 -1.66604 0
M  V30 18605 O 1749.6 0.168818 -1.80512 0
M  V30 18606 C 1749.65 -3.31847 -1.41104 0
M  V30 18607 O 1748.75 -3.26034 -2.52539 0
M  V30 18608 H 1748.09 -0.637207 -0.186718 0
M  V30 18609 H 1750.62 -2.04536 0.0510494 0
M  V30 18610 H 1750.63 -3.67374 -1.77483 0
M  V30 18611 H 1749.31 -4.09901 -0.70382 0
M  V30 18612 H 1747.89 -3.0218 -2.18499 0
M  V30 18613 N 1750.07 0.274379 -1.55193 0
M  V30 18614 C 1751.02 1.35903 -1.88767 0
M  V30 18615 C 1752.01 1.512 -0.763874 0
M  V30 18616 O 1753.22 1.53 -0.948201 0
M  V30 18617 H 1749.59 0.454495 -0.599114 0
M  V30 18618 H 1751.56 1.04837 -2.79378 0
M  V30 18619 C 1750.31 2.71277 -2.17496 0
M  V30 18620 H 1749.64 2.60297 -3.03456 0
M  V30 18621 H 1751.08 3.46115 -2.44909 0
M  V30 18622 C 1749.54 3.22268 -0.982101 0
M  V30 18623 O 1750.07 4.01119 -0.216035 0
M  V30 18624 N 1748.27 2.79931 -0.780179 0
M  V30 18625 H 1747.82 2.15923 -1.40482 0
M  V30 18626 H 1747.78 3.14396 0.0163297 0
M  V30 18627 N 1751.55 1.48103 0.538828 0
M  V30 18628 C 1752.77 1.59568 1.32487 0
M  V30 18629 C 1753.2 0.252908 1.86392 0
M  V30 18630 O 1752.56 -0.774094 1.63944 0
M  V30 18631 C 1752.6 2.63863 2.45782 0
M  V30 18632 O 1751.71 2.20409 3.48559 0
M  V30 18633 H 1751.05 0.53538 0.392765 0
M  V30 18634 H 1753.58 1.94024 0.649299 0
M  V30 18635 H 1753.59 2.8486 2.92093 0
M  V30 18636 H 1752.26 3.61352 2.05906 0
M  V30 18637 H 1750.84 2.09588 3.08427 0
M  V30 18638 N 1753.03 -0.787016 1.36542 0
M  V30 18639 C 1754.26 -1.5736 1.33871 0
M  V30 18640 C 1754.66 -1.89024 -0.0814846 0
M  V30 18641 O 1754.01 -1.50771 -1.04947 0
M  V30 18642 C 1754.07 -2.91978 2.09735 0
M  V30 18643 C 1753.73 -2.8303 3.58808 0
M  V30 18644 C 1754.73 -2.55108 4.53008 0
M  V30 18645 C 1752.42 -3.01531 4.01727 0
M  V30 18646 C 1754.41 -2.45793 5.88103 0
M  V30 18647 C 1752.1 -2.91838 5.36911 0
M  V30 18648 C 1753.09 -2.64007 6.29912 0
M  V30 18649 O 1752.78 -2.54312 7.62614 0
M  V30 18650 H 1752.51 -0.494659 0.460748 0
M  V30 18651 H 1755.07 -0.984519 1.80268 0
M  V30 18652 H 1753.3 -3.52946 1.58005 0
M  V30 18653 H 1754.99 -3.53268 1.99891 0
M  V30 18654 H 1755.75 -2.40514 4.21163 0
M  V30 18655 H 1751.63 -3.22199 3.2971 0
M  V30 18656 H 1755.18 -2.23991 6.60662 0
M  V30 18657 H 1751.07 -3.05995 5.68364 0
M  V30 18658 H 1751.84 -2.69776 7.72763 0
M  V30 18659 N 1754.5 -1.20861 -1.01145 0
M  V30 18660 C 1755.75 -1.0199 -1.74478 0
M  V30 18661 C 1756.07 0.4484 -1.89775 0
M  V30 18662 O 1755.34 1.32386 -1.44398 0
M  V30 18663 H 1753.92 -0.37439 -0.646406 0
M  V30 18664 H 1756.59 -1.5206 -1.21917 0
M  V30 18665 H 1755.68 -1.48251 -2.74642 0
M  V30 18666 N 1755.98 1.20536 -1.01532 0
M  V30 18667 C 1756.93 2.2531 -0.577786 0
M  V30 18668 C 1757.92 1.65017 0.382843 0
M  V30 18669 O 1759.13 1.78214 0.252904 0
M  V30 18670 H 1755.51 0.732872 -0.168532 0
M  V30 18671 H 1757.48 2.59544 -1.4724 0
M  V30 18672 C 1756.23 3.47631 0.0694263 0
M  V30 18673 H 1755.55 3.94302 -0.660748 0
M  V30 18674 H 1756.99 4.22645 0.338706 0
M  V30 18675 C 1755.45 3.1031 1.31185 0
M  V30 18676 O 1755.98 3.21729 2.40527 0
M  V30 18677 N 1754.18 2.64871 1.19547 0
M  V30 18678 H 1753.73 2.55779 0.305741 0
M  V30 18679 H 1753.69 2.4027 2.02775 0
M  V30 18680 N 1757.46 0.791395 1.36289 0
M  V30 18681 C 1758.71 0.361277 1.98438 0
M  V30 18682 C 1759.02 -1.07343 1.63514 0
M  V30 18683 O 1760.23 -1.60591 2.18913 0
M  V30 18684 C 1758.68 0.595005 3.54947 0
M  V30 18685 C 1758.29 2.04125 3.98794 0
M  V30 18686 C 1760.04 0.22949 4.23879 0
M  V30 18687 C 1757.94 2.22154 5.48089 0
M  V30 18688 H 1756.87 0.131343 0.742472 0
M  V30 18689 H 1759.52 0.973308 1.5556 0
M  V30 18690 H 1757.91 -0.0867658 3.95905 0
M  V30 18691 H 1759.08 2.75959 3.6903 0
M  V30 18692 H 1757.4 2.3652 3.42706 0
M  V30 18693 H 1759.99 0.342442 5.33602 0
M  V30 18694 H 1760.34 -0.822622 4.08091 0
M  V30 18695 H 1760.87 0.864575 3.88291 0
M  V30 18696 H 1757.61 3.25755 5.68827 0
M  V30 18697 H 1757.13 1.54827 5.79473 0
M  V30 18698 H 1758.81 2.02964 6.14341 0
M  V30 18699 N 1758.94 -1.47929 0.54358 0
M  V30 18700 C 1759.89 -2.3151 -0.224935 0
M  V30 18701 C 1760.88 -1.4208 -0.922473 0
M  V30 18702 O 1762.09 -1.58917 -0.845309 0
M  V30 18703 H 1758.46 -0.746424 -0.0914091 0
M  V30 18704 H 1760.43 -2.94192 0.499381 0
M  V30 18705 C 1759.18 -3.24439 -1.25038 0
M  V30 18706 H 1758.51 -3.93207 -0.723059 0
M  V30 18707 H 1759.95 -3.8578 -1.75927 0
M  V30 18708 C 1758.4 -2.46998 -2.29115 0
M  V30 18709 O 1758.93 -2.20457 -3.358 0
M  V30 18710 N 1757.14 -2.08249 -2.02684 0
M  V30 18711 H 1756.69 -2.30034 -1.15941 0
M  V30 18712 H 1756.65 -1.56748 -2.72539 0
M  V30 18713 N 1760.42 -0.27936 -1.55104 0
M  V30 18714 C 1761.36 0.606268 -2.22695 0
M  V30 18715 C 1762.33 1.14646 -1.20189 0
M  V30 18716 O 1763.52 1.19498 -1.48744 0
M  V30 18717 C 1760.66 1.78256 -2.95497 0
M  V30 18718 C 1759.77 1.27582 -4.12731 0
M  V30 18719 C 1758.91 2.41425 -4.73167 0
M  V30 18720 C 1757.95 1.87775 -5.82586 0
M  V30 18721 N 1757.08 2.95108 -6.37068 0
M  V30 18722 H 1761.92 0.0232427 -2.97991 0
M  V30 18723 H 1759.46 -0.000294714 -1.471 0
M  V30 18724 H 1761.42 2.47406 -3.35925 0
M  V30 18725 H 1760.05 2.33755 -2.22617 0
M  V30 18726 H 1759.1 0.477281 -3.77394 0
M  V30 18727 H 1760.41 0.842897 -4.91627 0
M  V30 18728 H 1759.57 3.18561 -5.16337 0
M  V30 18729 H 1758.31 2.88035 -3.93557 0
M  V30 18730 H 1757.31 1.0912 -5.38862 0
M  V30 18731 H 1758.54 1.42096 -6.64067 0
M  V30 18732 H 1756.48 3.41091 -5.60351 0
M  V30 18733 H 1756.4 2.56246 -7.11248 0
M  V30 18734 H 1757.67 3.72206 -6.84896 0
M  V30 18735 N 1761.9 1.57599 -0.0067085 0
M  V30 18736 C 1763.12 1.95142 0.687533 0
M  V30 18737 C 1763.54 0.88196 1.66934 0
M  V30 18738 O 1762.9 -0.13847 1.81974 0
M  V30 18739 C 1762.95 3.32718 1.41355 0
M  V30 18740 O 1762.67 4.3556 0.471111 0
M  V30 18741 C 1764.17 3.84761 2.20168 0
M  V30 18742 H 1761.39 0.643222 0.191066 0
M  V30 18743 H 1763.93 2.04412 -0.0598214 0
M  V30 18744 H 1762.09 3.24735 2.11248 0
M  V30 18745 H 1762.5 5.15185 0.984091 0
M  V30 18746 H 1763.98 4.83432 2.66454 0
M  V30 18747 H 1764.45 3.1782 3.03129 0
M  V30 18748 H 1765.06 3.9594 1.55278 0
M  V30 18749 N 1763.37 -0.266145 1.55336 0
M  V30 18750 C 1764.32 -1.33159 1.85075 0
M  V30 18751 C 1765.31 -1.44381 0.710142 0
M  V30 18752 O 1766.5 -1.47946 0.971644 0
M  V30 18753 C 1763.63 -2.69063 2.13214 0
M  V30 18754 C 1762.71 -2.61924 3.33552 0
M  V30 18755 N 1763.11 -2.24407 4.53294 0
M  V30 18756 C 1761.4 -2.92973 3.36278 0
M  V30 18757 C 1762.1 -2.27428 5.35398 0
M  V30 18758 N 1761.08 -2.66173 4.73976 0
M  V30 18759 H 1764.88 -1.03172 2.75196 0
M  V30 18760 H 1762.4 -0.474782 1.55305 0
M  V30 18761 H 1764.39 -3.45929 2.32677 0
M  V30 18762 H 1763.05 -2.99933 1.2438 0
M  V30 18763 H 1764.06 -1.9627 4.79269 0
M  V30 18764 H 1760.74 -3.2851 2.57658 0
M  V30 18765 H 1762.13 -2.00925 6.41154 0
M  V30 18766 N 1764.85 -1.48386 -0.530967 0
M  V30 18767 C 1766.08 -1.60014 -1.31161 0
M  V30 18768 C 1766.49 -0.260028 -1.87001 0
M  V30 18769 O 1765.85 0.750547 -1.66352 0
M  V30 18770 C 1765.9 -2.64597 -2.46315 0
M  V30 18771 O 1765.62 -3.93407 -1.92777 0
M  V30 18772 C 1767.12 -2.86654 -3.38149 0
M  V30 18773 H 1764.34 -0.539553 -0.398902 0
M  V30 18774 H 1766.89 -1.94207 -0.64063 0
M  V30 18775 H 1765.04 -2.33265 -3.093 0
M  V30 18776 H 1765.46 -4.50774 -2.68147 0
M  V30 18777 H 1766.93 -3.63634 -4.153 0
M  V30 18778 H 1767.41 -1.95441 -3.93319 0
M  V30 18779 H 1768.01 -3.19285 -2.80957 0
M  V30 18780 N 1766.33 0.779763 -1.36958 0
M  V30 18781 C 1767.56 1.56875 -1.34899 0
M  V30 18782 C 1767.97 1.88679 0.0675345 0
M  V30 18783 O 1767.33 1.50852 1.02712 0
M  V30 18784 C 1767.38 2.88391 -2.17975 0
M  V30 18785 O 1767.1 2.57954 -3.54107 0
M  V30 18786 C 1768.6 3.82657 -2.23805 0
M  V30 18787 H 1765.82 0.486262 -0.462374 0
M  V30 18788 H 1768.37 0.967072 -1.80189 0
M  V30 18789 H 1766.52 3.45003 -1.76215 0
M  V30 18790 H 1766.94 3.42115 -3.97564 0
M  V30 18791 H 1768.41 4.71967 -2.86272 0
M  V30 18792 H 1768.89 4.21208 -1.24421 0
M  V30 18793 H 1769.49 3.31976 -2.65843 0
M  V30 18794 N 1767.81 1.21396 1.00503 0
M  V30 18795 C 1768.76 0.97023 2.11398 0
M  V30 18796 C 1769.75 -0.0825019 1.69199 0
M  V30 18797 O 1770.96 0.0688841 1.79868 0
M  V30 18798 H 1767.33 0.296494 0.691083 0
M  V30 18799 H 1769.3 1.91155 2.29134 0
M  V30 18800 C 1768.05 0.551472 3.43299 0
M  V30 18801 H 1767.37 1.35316 3.76204 0
M  V30 18802 H 1768.81 0.420249 4.21912 0
M  V30 18803 C 1767.27 -0.737588 3.28727 0
M  V30 18804 O 1767.8 -1.79313 3.59458 0
M  V30 18805 N 1766.01 -0.704084 2.81942 0
M  V30 18806 H 1765.56 0.155183 2.57132 0
M  V30 18807 H 1765.51 -1.56689 2.72573 0
M  V30 18808 N 1769.29 -1.19996 1.0217 0
M  V30 18809 C 1770.23 -2.25 0.589726 0
M  V30 18810 C 1771.23 -1.65218 -0.374086 0
M  V30 18811 O 1772.43 -1.78346 -0.243449 0
M  V30 18812 H 1768.81 -0.731968 0.172416 0
M  V30 18813 H 1770.78 -2.58759 1.48615 0
M  V30 18814 C 1769.53 -3.47663 -0.0509896 0
M  V30 18815 H 1768.85 -3.93946 0.681649 0
M  V30 18816 H 1770.29 -4.22819 -0.316287 0
M  V30 18817 C 1768.75 -3.11001 -1.29538 0
M  V30 18818 O 1769.28 -3.23 -2.38818 0
M  V30 18819 N 1767.49 -2.65502 -1.18141 0
M  V30 18820 H 1767.03 -2.55938 -0.292172 0
M  V30 18821 H 1766.99 -2.41342 -2.01498 0
M  V30 18822 N 1770.76 -0.798611 -1.35867 0
M  V30 18823 C 1771.73 -0.209177 -2.28243 0
M  V30 18824 C 1772.73 0.598842 -1.49233 0
M  V30 18825 O 1773.92 0.418491 -1.69098 0
M  V30 18826 C 1771.05 0.709336 -3.33438 0
M  V30 18827 H 1772.24 -1.02382 -2.81883 0
M  V30 18828 H 1769.79 -0.568687 -1.45587 0
M  V30 18829 H 1770.53 1.54797 -2.84971 0
M  V30 18830 H 1770.31 0.131756 -3.91879 0
M  V30 18831 H 1771.8 1.11632 -4.02403 0
M  V30 18832 N 1772.24 1.47639 -0.551417 0
M  V30 18833 C 1773.49 2.02784 -0.0252425 0
M  V30 18834 C 1773.82 1.42549 1.31884 0
M  V30 18835 O 1773.1 0.578954 1.85684 0
M  V30 18836 C 1773.38 3.60024 0.0740051 0
M  V30 18837 C 1773.23 4.30702 -1.29676 0
M  V30 18838 C 1774.55 4.32946 0.790302 0
M  V30 18839 H 1771.67 0.736923 -0.0106473 0
M  V30 18840 H 1774.31 1.76131 -0.712589 0
M  V30 18841 H 1772.46 3.82863 0.65939 0
M  V30 18842 H 1774.13 4.1922 -1.9249 0
M  V30 18843 H 1772.38 3.91282 -1.87299 0
M  V30 18844 H 1773.05 5.39238 -1.18009 0
M  V30 18845 H 1775.52 4.15065 0.293326 0
M  V30 18846 H 1774.4 5.42608 0.828692 0
M  V30 18847 H 1774.66 4.01752 1.84521 0
M  V30 18848 N 1773.72 0.287581 1.54954 0
M  V30 18849 C 1775.13 -0.207733 1.85541 0
M  V30 18850 C 1775.48 -1.54478 1.20959 0
M  V30 18851 O 1774.61 -2.10487 0.502399 0
M  V30 18852 C 1775.2 -0.383701 3.3662 0
M  V30 18853 C 1773.76 -0.82324 3.67287 0
M  V30 18854 C 1772.91 0.0762579 2.77195 0
M  V30 18855 H 1775.86 0.509004 1.50316 0
M  V30 18856 H 1775.88 -1.22036 3.60399 0
M  V30 18857 H 1775.39 0.589575 3.83596 0
M  V30 18858 H 1773.49 -1.80754 3.2582 0
M  V30 18859 H 1773.61 -0.651925 4.74644 0
M  V30 18860 H 1771.97 -0.44219 2.50832 0
M  V30 18861 H 1772.75 1.04564 3.26988 0
M  V30 18862 N 1775.2 -1.57593 0.0150662 0
M  V30 18863 C 1776.61 -1.79146 -0.525709 0
M  V30 18864 C 1776.96 -0.923985 -1.73081 0
M  V30 18865 O 1776.09 -0.130532 -2.16006 0
M  V30 18866 C 1776.68 -3.249 -0.960492 0
M  V30 18867 C 1775.24 -3.47497 -1.44647 0
M  V30 18868 C 1774.39 -2.74332 -0.404628 0
M  V30 18869 H 1777.34 -1.56857 0.241175 0
M  V30 18870 H 1777.36 -3.3384 -1.82568 0
M  V30 18871 H 1776.87 -3.88011 -0.0832025 0
M  V30 18872 H 1774.97 -2.8962 -2.34416 0
M  V30 18873 H 1775.08 -4.56199 -1.46354 0
M  V30 18874 H 1773.45 -2.39394 -0.869627 0
M  V30 18875 H 1774.23 -3.40151 0.463953 0
M  V30 18876 N 1776.68 0.257904 -1.55475 0
M  V30 18877 C 1778.09 0.82782 -1.67344 0
M  V30 18878 C 1778.44 1.8646 -0.610494 0
M  V30 18879 O 1777.56 2.15005 0.245275 0
M  V30 18880 C 1778.16 1.5083 -3.03374 0
M  V30 18881 C 1776.72 2.02605 -3.17219 0
M  V30 18882 C 1775.86 0.873303 -2.63189 0
M  V30 18883 H 1778.82 0.0339334 -1.58664 0
M  V30 18884 H 1778.84 2.3759 -2.97205 0
M  V30 18885 H 1778.35 0.753469 -3.80716 0
M  V30 18886 H 1776.45 2.81002 -2.4468 0
M  V30 18887 H 1776.56 2.23099 -4.23985 0
M  V30 18888 H 1774.93 1.27082 -2.20731 0
M  V30 18889 H 1775.71 0.131739 -3.43047 0
M  V30 18890 N 1778.15 1.48666 0.52309 0
M  V30 18891 C 1779.57 1.50492 1.10495 0
M  V30 18892 C 1779.92 0.278579 1.94212 0
M  V30 18893 O 1779.04 -0.613679 2.07516 0
M  V30 18894 C 1779.64 2.72692 2.01058 0
M  V30 18895 C 1778.2 2.77368 2.54448 0
M  V30 18896 C 1777.34 2.44104 1.31562 0
M  V30 18897 H 1780.29 1.55682 0.308017 0
M  V30 18898 H 1780.31 2.51601 2.85442 0
M  V30 18899 H 1779.83 3.61931 1.401 0
M  V30 18900 H 1777.93 1.92356 3.19108 0
M  V30 18901 H 1778.04 3.78976 2.93111 0
M  V30 18902 H 1776.4 1.95407 1.63366 0
M  V30 18903 H 1777.19 3.35591 0.723455 0
M  V30 18904 N 1779.63 -0.772489 1.37369 0
M  V30 18905 C 1780.58 -1.90713 1.33158 0
M  V30 18906 C 1781.57 -1.67959 0.220482 0
M  V30 18907 O 1782.78 -1.75758 0.388465 0
M  V30 18908 H 1779.16 -0.627149 0.414956 0
M  V30 18909 H 1781.13 -1.91382 2.28944 0
M  V30 18910 C 1779.88 -3.27966 1.1547 0
M  V30 18911 H 1779.2 -3.46052 2.00221 0
M  V30 18912 H 1780.64 -4.0766 1.16574 0
M  V30 18913 C 1779.1 -3.3661 -0.139688 0
M  V30 18914 O 1779.63 -3.85668 -1.12353 0
M  V30 18915 N 1777.83 -2.89977 -0.190134 0
M  V30 18916 H 1777.38 -2.50246 0.611134 0
M  V30 18917 H 1777.34 -2.96142 -1.05582 0
M  V30 18918 N 1781.11 -1.21927 -0.998575 0
M  V30 18919 C 1782.36 -1.04194 -1.73987 0
M  V30 18920 C 1782.69 0.4227 -1.89544 0
M  V30 18921 O 1781.96 1.31353 -1.43446 0
M  V30 18922 C 1782.25 -1.74717 -3.14874 0
M  V30 18923 C 1782.1 -3.28741 -3.07001 0
M  V30 18924 C 1783.42 -1.49495 -4.13931 0
M  V30 18925 H 1780.54 -0.379918 -0.631531 0
M  V30 18926 H 1783.18 -1.5019 -1.16374 0
M  V30 18927 H 1781.33 -1.35615 -3.64062 0
M  V30 18928 H 1783 -3.77252 -2.65478 0
M  V30 18929 H 1781.25 -3.58711 -2.43944 0
M  V30 18930 H 1781.92 -3.73258 -4.06672 0
M  V30 18931 H 1784.39 -1.83451 -3.73477 0
M  V30 18932 H 1783.27 -2.01344 -5.10639 0
M  V30 18933 H 1783.53 -0.426324 -4.4004 0
M  V30 18934 N 1782.59 1.19452 -1.02805 0
M  V30 18935 C 1783.82 1.93075 -0.743624 0
M  V30 18936 C 1784.23 1.75446 0.697425 0
M  V30 18937 O 1783.59 1.07583 1.47418 0
M  V30 18938 C 1783.64 3.44855 -1.08431 0
M  V30 18939 O 1783.36 3.61916 -2.46877 0
M  V30 18940 C 1784.86 4.35601 -0.822571 0
M  V30 18941 H 1782.08 0.613327 -0.272159 0
M  V30 18942 H 1784.63 1.51617 -1.37232 0
M  V30 18943 H 1782.78 3.84149 -0.500812 0
M  V30 18944 H 1783.19 4.55785 -2.59538 0
M  V30 18945 H 1784.67 5.40706 -1.11092 0
M  V30 18946 H 1785.15 4.38527 0.243026 0
M  V30 18947 H 1785.75 4.01987 -1.38876 0
M  V30 18948 N 1784.07 0.805805 1.35442 0
M  V30 18949 C 1785.29 0.397179 2.03561 0
M  V30 18950 C 1785.72 -0.983665 1.6033 0
M  V30 18951 O 1785.07 -1.63683 0.779586 0
M  V30 18952 C 1785.12 0.487813 3.57285 0
M  V30 18953 O 1784.23 -0.499039 4.09369 0
M  V30 18954 H 1783.57 0.166009 0.642913 0
M  V30 18955 H 1786.1 1.09147 1.73055 0
M  V30 18956 H 1786.11 0.357334 4.06432 0
M  V30 18957 H 1784.78 1.49501 3.88101 0
M  V30 18958 H 1783.36 -0.328864 3.71447 0
M  V30 18959 N 1785.54 -1.47344 0.559239 0
M  V30 18960 C 1786.77 -2.07364 0.0388864 0
M  V30 18961 C 1787.19 -1.40886 -1.2463 0
M  V30 18962 O 1786.55 -0.48454 -1.74705 0
M  V30 18963 C 1786.6 -3.60336 -0.137894 0
M  V30 18964 O 1785.7 -3.94555 -1.2 0
M  V30 18965 H 1785.05 -0.661942 0.0522363 0
M  V30 18966 H 1787.58 -1.89333 0.7755 0
M  V30 18967 H 1787.59 -4.06483 -0.351462 0
M  V30 18968 H 1786.26 -4.08118 0.800776 0
M  V30 18969 H 1784.84 -3.6015 -0.966757 0
M  V30 18970 N 1787.02 -0.295795 -1.54799 0
M  V30 18971 C 1788.27 0.315473 -2.00331 0
M  V30 18972 C 1788.6 1.53939 -1.18392 0
M  V30 18973 O 1787.88 1.92767 -0.259086 0
M  V30 18974 C 1788.16 0.677227 -3.53674 0
M  V30 18975 C 1788.01 -0.555462 -4.46357 0
M  V30 18976 C 1789.33 1.50576 -4.1354 0
M  V30 18977 H 1786.45 0.113191 -0.728256 0
M  V30 18978 H 1789.09 -0.406858 -1.85593 0
M  V30 18979 H 1787.24 1.29264 -3.66365 0
M  V30 18980 H 1788.91 -1.19397 -4.45581 0
M  V30 18981 H 1787.16 -1.18968 -4.17168 0
M  V30 18982 H 1787.83 -0.25828 -5.51395 0
M  V30 18983 H 1790.3 0.985819 -4.04253 0
M  V30 18984 H 1789.18 1.72766 -5.21002 0
M  V30 18985 H 1789.44 2.49334 -3.65082 0
M  V30 18986 N 1788.5 1.57583 -0.0234236 0
M  V30 18987 C 1789.75 1.91848 0.657422 0
M  V30 18988 C 1790.08 0.899633 1.72105 0
M  V30 18989 O 1789.36 -0.0784409 1.94342 0
M  V30 18990 C 1789.64 3.36617 1.2791 0
M  V30 18991 C 1789.49 4.49235 0.225421 0
M  V30 18992 C 1790.81 3.81239 2.19874 0
M  V30 18993 H 1787.93 0.697677 0.23752 0
M  V30 18994 H 1790.57 1.89834 -0.0795169 0
M  V30 18995 H 1788.72 3.38465 1.90719 0
M  V30 18996 H 1790.39 4.59521 -0.404792 0
M  V30 18997 H 1788.64 4.31462 -0.449749 0
M  V30 18998 H 1789.31 5.47545 0.699906 0
M  V30 18999 H 1791.78 3.81092 1.67058 0
M  V30 19000 H 1790.66 4.8324 2.60328 0
M  V30 19001 H 1790.92 3.16421 3.08755 0
M  V30 19002 N 1789.98 -0.249655 1.5561 0
M  V30 19003 C 1791.21 -0.995707 1.81365 0
M  V30 19004 C 1791.62 -1.79054 0.598767 0
M  V30 19005 O 1790.98 -1.773 -0.432538 0
M  V30 19006 C 1791.03 -1.93577 3.05303 0
M  V30 19007 O 1790.75 -1.17311 4.22102 0
M  V30 19008 C 1792.25 -2.79804 3.43838 0
M  V30 19009 H 1789.47 -0.293118 0.603591 0
M  V30 19010 H 1792.02 -0.273374 2.02665 0
M  V30 19011 H 1790.17 -2.61242 2.86062 0
M  V30 19012 H 1790.59 -1.80875 4.92326 0
M  V30 19013 H 1792.06 -3.4152 4.33668 0
M  V30 19014 H 1792.54 -3.50776 2.64298 0
M  V30 19015 H 1793.14 -2.17596 3.6542 0
M  V30 19016 N 1791.46 -1.48941 -0.515198 0
M  V30 19017 C 1792.87 -1.51076 -1.09695 0
M  V30 19018 C 1793.22 -0.288875 -1.94062 0
M  V30 19019 O 1792.34 0.602665 -2.07839 0
M  V30 19020 C 1792.94 -2.73755 -1.99609 0
M  V30 19021 C 1791.5 -2.78714 -2.52974 0
M  V30 19022 C 1790.65 -2.44798 -1.30266 0
M  V30 19023 H 1793.6 -1.55843 -0.299757 0
M  V30 19024 H 1793.62 -2.53112 -2.84103 0
M  V30 19025 H 1793.13 -3.62668 -1.38178 0
M  V30 19026 H 1791.23 -1.94045 -3.18084 0
M  V30 19027 H 1791.34 -3.80525 -2.91097 0
M  V30 19028 H 1789.71 -1.9627 -1.62327 0
M  V30 19029 H 1790.49 -3.35969 -0.705648 0
M  V30 19030 N 1792.94 0.765193 -1.37777 0
M  V30 19031 C 1794.35 1.34186 -1.29811 0
M  V30 19032 C 1794.7 1.96133 0.0513426 0
M  V30 19033 O 1793.82 1.94272 0.953273 0
M  V30 19034 C 1794.42 2.43975 -2.35078 0
M  V30 19035 C 1792.98 2.97393 -2.30726 0
M  V30 19036 C 1792.12 1.70667 -2.18559 0
M  V30 19037 H 1795.07 0.564948 -1.48304 0
M  V30 19038 H 1795.1 3.23622 -2.00123 0
M  V30 19039 H 1794.61 1.98859 -3.33282 0
M  V30 19040 H 1792.71 3.46867 -1.36067 0
M  V30 19041 H 1792.82 3.52561 -3.24403 0
M  V30 19042 H 1791.19 1.93846 -1.65215 0
M  V30 19043 H 1791.97 1.27645 -3.18687 0
M  V30 19044 N 1794.41 1.22455 0.992094 0
M  V30 19045 C 1795.35 0.938597 2.08004 0
M  V30 19046 C 1796.32 -0.118779 1.62166 0
M  V30 19047 O 1797.51 0.0129778 1.88496 0
M  V30 19048 C 1794.64 0.411803 3.36187 0
M  V30 19049 C 1793.68 1.45398 4.00951 0
M  V30 19050 S 1794.51 3.02757 4.417 0
M  V30 19051 C 1795.67 2.51718 5.73052 0
M  V30 19052 H 1795.9 1.85987 2.3194 0
M  V30 19053 H 1793.44 1.0557 1.12669 0
M  V30 19054 H 1795.39 0.114452 4.1034 0
M  V30 19055 H 1794.06 -0.488368 3.1028 0
M  V30 19056 H 1793.25 1.03528 4.93252 0
M  V30 19057 H 1792.85 1.70008 3.33127 0
M  V30 19058 H 1795.14 1.93009 6.49426 0
M  V30 19059 H 1796.09 3.42513 6.1975 0
M  V30 19060 H 1796.49 1.92974 5.30491 0
M  V30 19061 N 1795.89 -1.18905 1.03437 0
M  V30 19062 C 1797.3 -1.70402 0.762893 0
M  V30 19063 C 1797.65 -1.82633 -0.716908 0
M  V30 19064 O 1796.78 -1.50136 -1.55847 0
M  V30 19065 C 1797.37 -3.09501 1.37822 0
M  V30 19066 C 1795.93 -3.58235 1.1552 0
M  V30 19067 C 1795.08 -2.34953 1.47284 0
M  V30 19068 H 1798.03 -1.03669 1.2016 0
M  V30 19069 H 1798.05 -3.7246 0.778079 0
M  V30 19070 H 1797.56 -3.00566 2.45523 0
M  V30 19071 H 1795.66 -3.72475 0.096646 0
M  V30 19072 H 1795.78 -4.42034 1.84778 0
M  V30 19073 H 1794.14 -2.38557 0.892333 0
M  V30 19074 H 1794.92 -2.28643 2.5608 0
M  V30 19075 N 1797.37 -0.812977 -1.35013 0
M  V30 19076 C 1798.59 -0.407969 -2.03348 0
M  V30 19077 C 1799.02 0.975148 -1.60849 0
M  V30 19078 O 1798.38 1.63267 -0.788256 0
M  V30 19079 C 1798.43 -0.506754 -3.57022 0
M  V30 19080 O 1797.53 0.477322 -4.09628 0
M  V30 19081 H 1796.87 -0.169416 -0.642023 0
M  V30 19082 H 1799.4 -1.10064 -1.72474 0
M  V30 19083 H 1799.41 -0.378883 -4.06237 0
M  V30 19084 H 1798.09 -1.51557 -3.87302 0
M  V30 19085 H 1796.66 0.309161 -3.71616 0
M  V30 19086 N 1798.85 1.47045 -0.567045 0
M  V30 19087 C 1799.8 2.31838 0.188075 0
M  V30 19088 C 1800.79 1.4353 0.899752 0
M  V30 19089 O 1802 1.60241 0.81992 0
M  V30 19090 H 1798.37 0.747783 0.0795226 0
M  V30 19091 H 1800.34 2.9336 -0.546121 0
M  V30 19092 C 1799.09 3.26387 1.19861 0
M  V30 19093 H 1798.41 3.94308 0.660412 0
M  V30 19094 H 1799.85 3.8853 1.69767 0
M  V30 19095 C 1798.31 2.50612 2.25157 0
M  V30 19096 O 1798.84 2.25771 3.3225 0
M  V30 19097 N 1797.05 2.11447 1.99345 0
M  V30 19098 H 1796.6 2.31849 1.12267 0
M  V30 19099 H 1796.55 1.61064 2.7001 0
M  V30 19100 N 1800.33 0.304 1.5464 0
M  V30 19101 C 1801.26 -0.604475 2.21085 0
M  V30 19102 C 1802.27 -1.0952 1.20454 0
M  V30 19103 O 1803.46 -1.01214 1.47031 0
M  V30 19104 C 1800.56 -1.8399 2.84607 0
M  V30 19105 C 1799.73 -1.49116 4.11197 0
M  V30 19106 C 1798.79 -2.58205 4.58494 0
M  V30 19107 O 1797.82 -2.23171 5.23625 0
M  V30 19108 N 1799.02 -3.88798 4.31065 0
M  V30 19109 H 1801.78 -0.035633 2.99679 0
M  V30 19110 H 1799.35 0.126332 1.61406 0
M  V30 19111 H 1801.34 -2.56322 3.13179 0
M  V30 19112 H 1799.91 -2.31706 2.09836 0
M  V30 19113 H 1799.13 -0.600347 3.89602 0
M  V30 19114 H 1800.42 -1.23358 4.93619 0
M  V30 19115 H 1799.81 -4.20068 3.78892 0
M  V30 19116 H 1798.37 -4.57419 4.6434 0
M  V30 19117 N 1801.8 -1.57568 0.0317802 0
M  V30 19118 C 1802.73 -2.13412 -0.947499 0
M  V30 19119 C 1803.71 -1.05091 -1.33753 0
M  V30 19120 O 1804.9 -1.32936 -1.41568 0
M  V30 19121 C 1802.03 -2.66337 -2.22895 0
M  V30 19122 C 1800.98 -3.79469 -1.97958 0
M  V30 19123 C 1800.31 -4.18833 -3.3239 0
M  V30 19124 C 1801.61 -5.05432 -1.31664 0
M  V30 19125 H 1803.3 -2.95488 -0.482417 0
M  V30 19126 H 1800.85 -1.42142 -0.230603 0
M  V30 19127 H 1802.8 -3.04039 -2.91784 0
M  V30 19128 H 1801.53 -1.81426 -2.71574 0
M  V30 19129 H 1800.19 -3.42209 -1.31485 0
M  V30 19130 H 1799.83 -3.30899 -3.78833 0
M  V30 19131 H 1799.53 -4.95071 -3.16511 0
M  V30 19132 H 1801.06 -4.5912 -4.02544 0
M  V30 19133 H 1802.47 -5.40704 -1.90558 0
M  V30 19134 H 1800.87 -5.86686 -1.26173 0
M  V30 19135 H 1801.94 -4.84032 -0.28996 0
M  V30 19136 N 1803.28 0.241399 -1.5574 0
M  V30 19137 C 1804.23 1.31868 -1.91608 0
M  V30 19138 C 1805.22 1.49545 -0.795774 0
M  V30 19139 O 1806.43 1.50955 -0.980442 0
M  V30 19140 H 1802.81 0.441685 -0.60862 0
M  V30 19141 H 1804.78 0.98887 -2.81538 0
M  V30 19142 C 1803.53 2.66602 -2.23201 0
M  V30 19143 H 1802.85 2.53802 -3.08909 0
M  V30 19144 H 1804.29 3.40842 -2.52196 0
M  V30 19145 C 1802.75 3.20112 -1.05024 0
M  V30 19146 O 1803.28 4.0057 -0.301069 0
M  V30 19147 N 1801.48 2.78214 -0.839381 0
M  V30 19148 H 1801.03 2.12894 -1.4503 0
M  V30 19149 H 1800.99 3.1436 -0.050362 0
M  V30 19150 N 1804.76 1.49212 0.507292 0
M  V30 19151 C 1805.71 1.65894 1.6304 0
M  V30 19152 C 1806.7 0.524951 1.61061 0
M  V30 19153 O 1807.91 0.704392 1.65645 0
M  V30 19154 H 1804.28 0.522994 0.540353 0
M  V30 19155 H 1806.25 2.60176 1.4612 0
M  V30 19156 C 1805 1.73692 3.01208 0
M  V30 19157 H 1804.33 2.60323 3.03434 0
M  V30 19158 H 1805.77 1.89402 3.79346 0
M  V30 19159 C 1804.23 0.480378 3.33458 0
M  V30 19160 O 1804.76 -0.396732 3.99736 0
M  V30 19161 N 1802.96 0.345216 2.88542 0
M  V30 19162 H 1802.51 1.05997 2.34782 0
M  V30 19163 H 1802.47 -0.494453 3.10488 0
M  V30 19164 N 1806.24 -0.757876 1.38181 0
M  V30 19165 C 1807.47 -1.54709 1.37378 0
M  V30 19166 C 1807.88 -1.88763 -0.0375087 0
M  V30 19167 O 1807.24 -1.52467 -1.00299 0
M  V30 19168 C 1807.29 -2.84887 2.22535 0
M  V30 19169 O 1807.01 -2.52287 3.58166 0
M  V30 19170 C 1808.51 -3.79048 2.29865 0
M  V30 19171 H 1805.73 -0.478845 0.470052 0
M  V30 19172 H 1808.28 -0.938283 1.81704 0
M  V30 19173 H 1806.43 -3.42156 1.81682 0
M  V30 19174 H 1806.84 -3.35747 4.02957 0
M  V30 19175 H 1808.32 -4.67353 2.93744 0
M  V30 19176 H 1808.8 -4.19175 1.31106 0
M  V30 19177 H 1809.4 -3.27704 2.7109 0
M  V30 19178 N 1807.72 -1.22979 -0.985586 0
M  V30 19179 C 1809.13 -0.991329 -1.25079 0
M  V30 19180 C 1809.33 0.310701 -1.9909 0
M  V30 19181 O 1808.39 1.03147 -2.30471 0
M  V30 19182 C 1809.7 -2.19483 -2.05542 0
M  V30 19183 C 1811.25 -2.23918 -2.187 0
M  V30 19184 C 1811.72 -3.43841 -3.02552 0
M  V30 19185 N 1813.22 -3.44048 -3.10137 0
M  V30 19186 C 1813.95 -4.33493 -3.75328 0
M  V30 19187 N 1813.45 -5.33167 -4.42385 0
M  V30 19188 N 1815.24 -4.2125 -3.72163 0
M  V30 19189 H 1807.39 -2.0668 -0.489617 0
M  V30 19190 H 1809.65 -0.906048 -0.278892 0
M  V30 19191 H 1809.36 -3.13945 -1.5853 0
M  V30 19192 H 1809.23 -2.20144 -3.06295 0
M  V30 19193 H 1811.62 -1.3 -2.64923 0
M  V30 19194 H 1811.7 -2.27293 -1.17353 0
M  V30 19195 H 1811.35 -4.38063 -2.57027 0
M  V30 19196 H 1811.28 -3.37707 -4.04056 0
M  V30 19197 H 1813.77 -2.71927 -2.6242 0
M  V30 19198 H 1814.08 -5.97684 -4.89892 0
M  V30 19199 H 1812.42 -5.37073 -4.4111 0
M  V30 19200 H 1815.62 -3.42629 -3.18941 0
M  V30 19201 H 1815.79 -4.91162 -4.22687 0
M  V30 19202 N 1809.19 1.18355 -1.04066 0
M  V30 19203 C 1810.42 1.92816 -0.763979 0
M  V30 19204 C 1810.84 1.75658 0.672749 0
M  V30 19205 O 1810.2 1.06671 1.46598 0
M  V30 19206 C 1810.25 3.42267 -1.13516 0
M  V30 19207 O 1809.35 4.11576 -0.260646 0
M  V30 19208 H 1808.7 0.601532 -0.281167 0
M  V30 19209 H 1811.23 1.50087 -1.3905 0
M  V30 19210 H 1811.24 3.92973 -1.09709 0
M  V30 19211 H 1809.91 3.54076 -2.18181 0
M  V30 19212 H 1808.49 3.71174 -0.358342 0
M  V30 19213 N 1810.67 0.820125 1.3458 0
M  V30 19214 C 1811.9 0.418747 2.03129 0
M  V30 19215 C 1812.32 -0.966605 1.61364 0
M  V30 19216 O 1811.68 -1.62847 0.796903 0
M  V30 19217 C 1811.73 0.525681 3.56748 0
M  V30 19218 O 1810.83 -0.455592 4.09876 0
M  V30 19219 H 1810.17 0.172819 0.641116 0
M  V30 19220 H 1812.7 1.10977 1.71888 0
M  V30 19221 H 1812.71 0.400422 4.0603 0
M  V30 19222 H 1811.39 1.53609 3.86493 0
M  V30 19223 H 1809.97 -0.289449 3.71775 0
M  V30 19224 N 1812.15 -1.46743 0.574835 0
M  V30 19225 C 1813.4 -2.02419 0.0574154 0
M  V30 19226 C 1813.73 -1.44723 -1.29944 0
M  V30 19227 O 1812.98 -0.599149 -1.86303 0
M  V30 19228 C 1813.28 -3.57338 -0.0666259 0
M  V30 19229 C 1812.95 -4.34036 1.22161 0
M  V30 19230 C 1811.61 -4.5471 1.57457 0
M  V30 19231 C 1813.96 -4.78137 2.07448 0
M  V30 19232 C 1811.29 -5.16735 2.77852 0
M  V30 19233 C 1813.64 -5.41492 3.27062 0
M  V30 19234 C 1812.3 -5.60394 3.6265 0
M  V30 19235 H 1811.57 -0.740702 0.0210098 0
M  V30 19236 H 1814.22 -1.76207 0.749892 0
M  V30 19237 H 1812.53 -3.82642 -0.842183 0
M  V30 19238 H 1814.22 -3.98085 -0.482605 0
M  V30 19239 H 1810.81 -4.18236 0.936826 0
M  V30 19240 H 1815 -4.61928 1.81484 0
M  V30 19241 H 1810.25 -5.29562 3.05572 0
M  V30 19242 H 1814.43 -5.74623 3.93422 0
M  V30 19243 H 1812.05 -6.08226 4.56032 0
M  V30 19244 N 1813.63 -0.312197 -1.54477 0
M  V30 19245 C 1814.59 0.54612 -2.22599 0
M  V30 19246 C 1815.59 1.05252 -1.21568 0
M  V30 19247 O 1816.78 0.946756 -1.46226 0
M  V30 19248 C 1813.91 1.75733 -2.92114 0
M  V30 19249 H 1815.11 -0.0492216 -2.9986 0
M  V30 19250 H 1812.66 -0.063149 -1.56172 0
M  V30 19251 H 1813.39 2.39221 -2.18961 0
M  V30 19252 H 1813.18 1.40175 -3.66188 0
M  V30 19253 H 1814.67 2.36685 -3.44049 0
M  V30 19254 N 1815.11 1.57549 -0.040136 0
M  V30 19255 C 1816.38 1.83571 0.675355 0
M  V30 19256 C 1816.76 0.926313 1.89691 0
M  V30 19257 O 1816.11 -0.0153869 2.28495 0
M  V30 19258 C 1816.32 3.33046 1.04313 0
M  V30 19259 C 1817.67 3.99791 1.43011 0
M  V30 19260 O 1818.69 3.37607 1.13579 0
M  V30 19261 O 1817.55 5.09412 1.97893 0
M  V30 19262 H 1814.65 0.75729 0.332325 0
M  V30 19263 H 1817.19 1.69561 -0.0686584 0
M  V30 19264 H 1815.96 3.90912 0.174189 0
M  V30 19265 H 1815.59 3.52203 1.84495 0
M  V30 19266 N 1816.58 -0.233136 1.55866 0
M  V30 19267 C 1817.83 -0.957205 1.7754 0
M  V30 19268 C 1818.15 -1.85956 0.606601 0
M  V30 19269 O 1819.35 -2.62142 0.706687 0
M  V30 19270 C 1817.81 -1.75215 3.14369 0
M  V30 19271 C 1817.42 -0.896509 4.38938 0
M  V30 19272 C 1819.16 -2.46813 3.45374 0
M  V30 19273 C 1817.07 -1.68814 5.66794 0
M  V30 19274 H 1816 -0.361139 0.661887 0
M  V30 19275 H 1818.65 -0.211424 1.82278 0
M  V30 19276 H 1817.03 -2.54041 3.03775 0
M  V30 19277 H 1818.2 -0.149614 4.60557 0
M  V30 19278 H 1816.52 -0.293211 4.15366 0
M  V30 19279 H 1819.12 -3.0652 4.38121 0
M  V30 19280 H 1819.46 -3.19121 2.67334 0
M  V30 19281 H 1819.99 -1.74987 3.57245 0
M  V30 19282 H 1816.73 -1.00855 6.47695 0
M  V30 19283 H 1816.25 -2.40995 5.49255 0
M  V30 19284 H 1817.93 -2.25178 6.06551 0
M  V30 19285 N 1818.06 -1.49479 -0.499372 0
M  V30 19286 C 1819 -1.6239 -1.61748 0
M  V30 19287 C 1820.01 -0.506515 -1.5472 0
M  V30 19288 O 1821.2 -0.778629 -1.60623 0
M  V30 19289 C 1818.3 -1.56611 -3.00543 0
M  V30 19290 C 1817.47 -2.83909 -3.32738 0
M  V30 19291 C 1816.53 -2.7116 -4.50953 0
M  V30 19292 O 1815.56 -3.45097 -4.52656 0
M  V30 19293 N 1816.76 -1.82815 -5.50962 0
M  V30 19294 H 1819.52 -2.58823 -1.51099 0
M  V30 19295 H 1817.08 -1.46588 -0.687277 0
M  V30 19296 H 1819.08 -1.45734 -3.7755 0
M  V30 19297 H 1817.65 -0.68029 -3.05108 0
M  V30 19298 H 1816.87 -3.09125 -2.44613 0
M  V30 19299 H 1818.15 -3.68299 -3.51046 0
M  V30 19300 H 1817.55 -1.22005 -5.52387 0
M  V30 19301 H 1816.11 -1.77859 -6.27064 0
M  V30 19302 N 1819.54 0.750537 -1.38581 0
M  V30 19303 C 1820.49 1.88571 -1.36176 0
M  V30 19304 C 1821.48 1.67587 -0.247175 0
M  V30 19305 O 1822.69 1.75118 -0.416377 0
M  V30 19306 H 1819.06 0.620468 -0.424881 0
M  V30 19307 H 1821.04 1.87716 -2.3196 0
M  V30 19308 C 1819.78 3.26088 -1.20673 0
M  V30 19309 H 1819.11 3.42822 -2.05701 0
M  V30 19310 H 1820.55 4.05754 -1.23044 0
M  V30 19311 C 1819.01 3.3679 0.0861189 0
M  V30 19312 O 1819.54 3.87407 1.06203 0
M  V30 19313 N 1817.74 2.90243 0.143977 0
M  V30 19314 H 1817.29 2.49242 -0.650869 0
M  V30 19315 H 1817.25 2.97784 1.00857 0
M  V30 19316 N 1821.02 1.235 0.979051 0
M  V30 19317 C 1822.27 1.06949 1.72307 0
M  V30 19318 C 1822.6 -0.392491 1.90192 0
M  V30 19319 O 1821.87 -1.29054 1.45518 0
M  V30 19320 C 1822.16 1.79705 3.12055 0
M  V30 19321 C 1822.01 3.33583 3.01732 0
M  V30 19322 C 1823.33 1.56062 4.11501 0
M  V30 19323 H 1820.45 0.389917 0.625407 0
M  V30 19324 H 1823.09 1.52022 1.1397 0
M  V30 19325 H 1821.24 1.4139 3.61858 0
M  V30 19326 H 1822.91 3.81428 2.59443 0
M  V30 19327 H 1821.15 3.62547 2.38206 0
M  V30 19328 H 1821.83 3.79681 4.00683 0
M  V30 19329 H 1824.3 1.8937 3.70511 0
M  V30 19330 H 1823.18 2.09442 5.07371 0
M  V30 19331 H 1823.44 0.496276 4.39306 0
M  V30 19332 N 1822.5 -1.17802 1.04693 0
M  V30 19333 C 1823.74 -1.88217 0.755141 0
M  V30 19334 C 1824.08 -1.8053 -0.715731 0
M  V30 19335 O 1823.35 -1.20987 -1.52291 0
M  V30 19336 C 1823.63 -3.38447 1.22986 0
M  V30 19337 C 1823.49 -3.54911 2.7633 0
M  V30 19338 C 1824.81 -4.323 0.824891 0
M  V30 19339 H 1821.93 -0.683452 0.275795 0
M  V30 19340 H 1824.57 -1.38561 1.30004 0
M  V30 19341 H 1822.72 -3.80868 0.7663 0
M  V30 19342 H 1824.39 -3.2154 3.30771 0
M  V30 19343 H 1822.63 -2.97357 3.1585 0
M  V30 19344 H 1823.3 -4.60347 3.04606 0
M  V30 19345 H 1825.78 -3.97694 1.22389 0
M  V30 19346 H 1824.66 -5.35962 1.18472 0
M  V30 19347 H 1824.92 -4.41265 -0.27151 0
M  V30 19348 N 1823.98 -0.827251 -1.34143 0
M  V30 19349 C 1825.2 -0.429514 -2.02904 0
M  V30 19350 C 1825.63 0.958033 -1.61874 0
M  V30 19351 O 1824.98 1.62422 -0.805528 0
M  V30 19352 C 1825.03 -0.544592 -3.56464 0
M  V30 19353 O 1824.14 0.433849 -4.10112 0
M  V30 19354 H 1823.48 -0.176216 -0.64019 0
M  V30 19355 H 1826.01 -1.11887 -1.71297 0
M  V30 19356 H 1826.02 -0.421949 -4.05812 0
M  V30 19357 H 1824.69 -1.55657 -3.85673 0
M  V30 19358 H 1823.27 0.269729 -3.71923 0
M  V30 19359 N 1825.45 1.46436 -0.582609 0
M  V30 19360 C 1826.86 1.86047 -0.156012 0
M  V30 19361 C 1827.22 1.48619 1.28089 0
M  V30 19362 O 1826.34 0.90104 1.96749 0
M  V30 19363 C 1826.94 3.37671 -0.276358 0
M  V30 19364 C 1825.49 3.76279 0.0953682 0
M  V30 19365 C 1824.64 2.70454 -0.612348 0
M  V30 19366 H 1827.59 1.37592 -0.790834 0
M  V30 19367 H 1827.61 3.77223 0.498312 0
M  V30 19368 H 1827.13 3.64881 -1.32225 0
M  V30 19369 H 1825.23 3.54687 1.1414 0
M  V30 19370 H 1825.34 4.78276 -0.280881 0
M  V30 19371 H 1823.7 2.54646 -0.0526182 0
M  V30 19372 H 1824.49 3.00504 -1.65989 0
M  V30 19373 N 1826.93 0.320385 1.54309 0
M  V30 19374 C 1828.34 -0.16833 1.8594 0
M  V30 19375 C 1828.69 -1.51877 1.24208 0
M  V30 19376 O 1827.82 -2.09374 0.546933 0
M  V30 19377 C 1828.41 -0.312212 3.37358 0
M  V30 19378 C 1826.97 -0.745147 3.68951 0
M  V30 19379 C 1826.12 0.135038 2.76971 0
M  V30 19380 H 1829.07 0.540773 1.49202 0
M  V30 19381 H 1829.09 -1.14364 3.62906 0
M  V30 19382 H 1828.6 0.670809 3.82259 0
M  V30 19383 H 1826.7 -1.73803 3.29581 0
M  V30 19384 H 1826.82 -0.5511 4.7592 0
M  V30 19385 H 1825.18 -0.388886 2.51714 0
M  V30 19386 H 1825.96 1.11477 3.24697 0
M  V30 19387 N 1828.41 -1.57525 0.0484906 0
M  V30 19388 C 1829.83 -1.56599 -0.308041 0
M  V30 19389 C 1830.03 -1.05591 -1.71618 0
M  V30 19390 O 1829.08 -0.711302 -2.42274 0
M  V30 19391 C 1830.39 -3.00379 -0.138955 0
M  V30 19392 C 1831.94 -3.12293 -0.210262 0
M  V30 19393 C 1832.42 -4.57947 -0.0697369 0
M  V30 19394 N 1833.91 -4.63028 -0.1261 0
M  V30 19395 C 1834.64 -5.73385 -0.0414392 0
M  V30 19396 N 1834.14 -6.92734 0.0954164 0
M  V30 19397 N 1835.93 -5.62017 -0.0968281 0
M  V30 19398 H 1828.08 -1.89005 0.969069 0
M  V30 19399 H 1830.35 -0.87027 0.375944 0
M  V30 19400 H 1830.05 -3.41722 0.831808 0
M  V30 19401 H 1829.93 -3.66278 -0.901109 0
M  V30 19402 H 1832.31 -2.7085 -1.1715 0
M  V30 19403 H 1832.39 -2.49077 0.582601 0
M  V30 19404 H 1832.04 -5.00074 0.888161 0
M  V30 19405 H 1831.97 -5.19166 -0.881711 0
M  V30 19406 H 1834.46 -3.77192 -0.231232 0
M  V30 19407 H 1834.77 -7.72649 0.152796 0
M  V30 19408 H 1833.12 -6.94878 0.130465 0
M  V30 19409 H 1836.31 -4.67663 -0.202283 0
M  V30 19410 H 1836.48 -6.47994 -0.0273908 0
M  V30 19411 N 1829.89 0.224867 -1.55988 0
M  V30 19412 C 1830.84 1.29829 -1.92995 0
M  V30 19413 C 1831.83 1.48693 -0.81159 0
M  V30 19414 O 1833.04 1.49906 -0.996397 0
M  V30 19415 H 1829.41 0.435205 -0.61327 0
M  V30 19416 H 1831.38 0.958953 -2.82571 0
M  V30 19417 C 1830.13 2.6422 -2.26016 0
M  V30 19418 H 1829.45 2.50511 -3.11584 0
M  V30 19419 H 1830.89 3.38148 -2.55797 0
M  V30 19420 C 1829.35 3.1898 -1.08413 0
M  V30 19421 O 1829.88 4.00228 -0.343538 0
M  V30 19422 N 1828.09 2.77308 -0.868842 0
M  V30 19423 H 1827.64 2.11344 -1.4728 0
M  V30 19424 H 1827.59 3.14289 -0.0837012 0
M  V30 19425 N 1831.37 1.49742 0.491438 0
M  V30 19426 C 1832.31 1.67115 1.59189 0
M  V30 19427 C 1833.28 0.512523 1.57995 0
M  V30 19428 O 1834.47 0.740693 1.75836 0
M  V30 19429 C 1831.61 1.75258 2.97286 0
M  V30 19430 C 1830.72 3.02488 3.08424 0
M  V30 19431 C 1829.86 3.0155 4.37311 0
M  V30 19432 C 1828.89 4.2332 4.42116 0
M  V30 19433 N 1828.03 4.20238 5.62445 0
M  V30 19434 H 1832.87 2.61073 1.43683 0
M  V30 19435 H 1830.41 1.29435 0.69892 0
M  V30 19436 H 1832.37 1.77959 3.77341 0
M  V30 19437 H 1831 0.847568 3.11474 0
M  V30 19438 H 1830.05 3.09353 2.21371 0
M  V30 19439 H 1831.36 3.92479 3.07834 0
M  V30 19440 H 1830.51 3.02868 5.25695 0
M  V30 19441 H 1829.25 2.09354 4.4048 0
M  V30 19442 H 1828.26 4.22236 3.52132 0
M  V30 19443 H 1829.48 5.1672 4.40656 0
M  V30 19444 H 1827.43 3.30884 5.66438 0
M  V30 19445 H 1827.35 5.03974 5.63512 0
M  V30 19446 H 1828.61 4.25672 6.53011 0
M  V30 19447 N 1832.84 -0.743177 1.38977 0
M  V30 19448 C 1833.79 -1.87846 1.37174 0
M  V30 19449 C 1834.79 -1.67454 0.256059 0
M  V30 19450 O 1835.99 -1.74895 0.425658 0
M  V30 19451 H 1832.37 -0.618206 0.428166 0
M  V30 19452 H 1834.34 -1.86483 2.32952 0
M  V30 19453 C 1833.09 -3.25443 1.22401 0
M  V30 19454 H 1832.41 -3.41727 2.07516 0
M  V30 19455 H 1833.85 -4.05095 1.25195 0
M  V30 19456 C 1832.31 -3.36831 -0.0682569 0
M  V30 19457 O 1832.84 -3.87964 -1.04147 0
M  V30 19458 N 1831.05 -2.90315 -0.128582 0
M  V30 19459 H 1830.59 -2.48893 0.664077 0
M  V30 19460 H 1830.55 -2.98315 -0.992762 0
M  V30 19461 N 1834.32 -1.24018 -0.972487 0
M  V30 19462 C 1835.25 -0.986185 -2.06899 0
M  V30 19463 C 1836.27 0.0426574 -1.62744 0
M  V30 19464 O 1837.46 -0.193816 -1.77445 0
M  V30 19465 C 1834.56 -0.46551 -3.35688 0
M  V30 19466 C 1833.73 -1.55637 -4.08774 0
M  V30 19467 C 1832.79 -1.03918 -5.15837 0
M  V30 19468 O 1831.81 -1.72986 -5.42277 0
M  V30 19469 N 1833.02 0.128891 -5.80357 0
M  V30 19470 H 1835.78 -1.93025 -2.29263 0
M  V30 19471 H 1833.34 -1.14983 -1.13976 0
M  V30 19472 H 1835.33 -0.104379 -4.04565 0
M  V30 19473 H 1833.9 0.384166 -3.1023 0
M  V30 19474 H 1833.12 -2.08991 -3.3424 0
M  V30 19475 H 1834.41 -2.28973 -4.54366 0
M  V30 19476 H 1833.81 0.706438 -5.61272 0
M  V30 19477 H 1832.37 0.431211 -6.50372 0
M  V30 19478 N 1835.8 1.17245 -1.05316 0
M  V30 19479 C 1837.03 1.91995 -0.784387 0
M  V30 19480 C 1837.45 1.76362 0.65408 0
M  V30 19481 O 1836.81 1.0822 1.45458 0
M  V30 19482 C 1836.86 3.41043 -1.1714 0
M  V30 19483 O 1835.96 4.11276 -0.304285 0
M  V30 19484 H 1835.3 0.598516 -0.287532 0
M  V30 19485 H 1837.83 1.48604 -1.40634 0
M  V30 19486 H 1837.84 3.91788 -1.13871 0
M  V30 19487 H 1836.52 3.51742 -2.21924 0
M  V30 19488 H 1835.09 3.70773 -0.39769 0
M  V30 19489 N 1837.28 0.834353 1.33702 0
M  V30 19490 C 1838.53 0.424225 1.97188 0
M  V30 19491 C 1838.84 -1.02086 1.66846 0
M  V30 19492 O 1840.05 -1.53545 2.23911 0
M  V30 19493 C 1838.5 0.707628 3.52875 0
M  V30 19494 C 1838.11 2.16709 3.92098 0
M  V30 19495 C 1839.85 0.364228 4.22935 0
M  V30 19496 C 1837.76 2.39478 5.40744 0
M  V30 19497 H 1836.69 0.154897 0.737918 0
M  V30 19498 H 1839.34 1.02231 1.52385 0
M  V30 19499 H 1837.72 0.0392323 3.95981 0
M  V30 19500 H 1838.9 2.87559 3.60064 0
M  V30 19501 H 1837.21 2.47303 3.35008 0
M  V30 19502 H 1839.81 0.512031 5.32243 0
M  V30 19503 H 1840.15 -0.692375 4.10502 0
M  V30 19504 H 1840.69 0.98767 3.85344 0
M  V30 19505 H 1837.43 3.43687 5.58175 0
M  V30 19506 H 1836.95 1.73184 5.74254 0
M  V30 19507 H 1838.62 2.22406 6.07573 0
M  V30 19508 N 1838.76 -1.46125 0.590367 0
M  V30 19509 C 1839.98 -2.07234 0.0828625 0
M  V30 19510 C 1840.41 -1.43498 -1.21614 0
M  V30 19511 O 1839.76 -0.521488 -1.73638 0
M  V30 19512 C 1839.81 -3.60548 -0.0614302 0
M  V30 19513 O 1838.92 -3.97012 -1.11603 0
M  V30 19514 H 1838.26 -0.660685 0.0662654 0
M  V30 19515 H 1840.79 -1.87646 0.815486 0
M  V30 19516 H 1840.8 -4.07137 -0.265161 0
M  V30 19517 H 1839.47 -4.06328 0.887164 0
M  V30 19518 H 1838.05 -3.6212 -0.890146 0
M  V30 19519 N 1840.23 -0.328564 -1.54137 0
M  V30 19520 C 1841.46 0.277044 -2.05541 0
M  V30 19521 C 1841.88 1.44613 -1.20285 0
M  V30 19522 O 1841.24 1.80043 -0.213107 0
M  V30 19523 C 1841.29 0.684495 -3.54044 0
M  V30 19524 O 1840.39 1.78629 -3.71706 0
M  V30 19525 H 1839.74 0.049078 -0.662184 0
M  V30 19526 H 1842.27 -0.478426 -1.98928 0
M  V30 19527 H 1842.28 0.965784 -3.96405 0
M  V30 19528 H 1840.95 -0.170554 -4.1555 0
M  V30 19529 H 1839.53 1.50343 -3.4125 0
M  V30 19530 N 1841.71 1.57497 -0.0568439 0
M  V30 19531 C 1842.94 1.97231 0.625102 0
M  V30 19532 C 1843.36 0.934622 1.64043 0
M  V30 19533 O 1842.71 -0.0805064 1.82322 0
M  V30 19534 C 1842.76 3.37046 1.30698 0
M  V30 19535 O 1842.48 4.36838 0.332302 0
M  V30 19536 C 1843.99 3.9157 2.07816 0
M  V30 19537 H 1841.21 0.648975 0.170505 0
M  V30 19538 H 1843.75 2.04119 -0.124823 0
M  V30 19539 H 1841.9 3.31292 2.0081 0
M  V30 19540 H 1842.32 5.18055 0.819691 0
M  V30 19541 H 1843.79 4.91664 2.5094 0
M  V30 19542 H 1844.27 3.27303 2.92864 0
M  V30 19543 H 1844.88 4.0068 1.42603 0
M  V30 19544 N 1843.19 -0.216591 1.56105 0
M  V30 19545 C 1844.15 -1.25198 1.91985 0
M  V30 19546 C 1845.15 -1.39551 0.798884 0
M  V30 19547 O 1846.34 -1.37731 1.06657 0
M  V30 19548 C 1843.48 -2.62499 2.17502 0
M  V30 19549 H 1844.67 -0.945854 2.84594 0
M  V30 19550 H 1842.22 -0.457218 1.49463 0
M  V30 19551 H 1842.96 -2.98202 1.27461 0
M  V30 19552 H 1842.74 -2.53457 2.99169 0
M  V30 19553 H 1844.23 -3.37204 2.4634 0
M  V30 19554 N 1844.67 -1.5 -0.48349 0
M  V30 19555 C 1845.62 -1.68467 -1.6038 0
M  V30 19556 C 1846.61 -0.550508 -1.60205 0
M  V30 19557 O 1847.82 -0.730656 -1.64504 0
M  V30 19558 H 1844.19 -0.531525 -0.531964 0
M  V30 19559 H 1846.16 -2.62468 -1.41962 0
M  V30 19560 C 1844.91 -1.78462 -2.98407 0
M  V30 19561 H 1844.23 -2.65117 -2.99254 0
M  V30 19562 H 1845.67 -1.95413 -3.76284 0
M  V30 19563 C 1844.13 -0.533368 -3.32651 0
M  V30 19564 O 1844.66 0.333087 -4.00317 0
M  V30 19565 N 1842.87 -0.391077 -2.87957 0
M  V30 19566 H 1842.42 -1.09719 -2.33066 0
M  V30 19567 H 1842.37 0.444995 -3.11235 0
M  V30 19568 N 1846.15 0.735796 -1.39369 0
M  V30 19569 C 1847.08 1.86303 -1.4076 0
M  V30 19570 C 1848.06 1.67926 -0.27107 0
M  V30 19571 O 1849.24 1.88257 -0.476773 0
M  V30 19572 C 1846.37 3.24043 -1.24955 0
M  V30 19573 C 1845.33 3.57055 -2.35999 0
M  V30 19574 C 1844.65 4.93723 -2.05284 0
M  V30 19575 C 1845.95 3.60109 -3.7831 0
M  V30 19576 H 1847.65 1.85396 -2.35093 0
M  V30 19577 H 1845.19 0.890552 -1.1316 0
M  V30 19578 H 1847.15 4.02574 -1.24549 0
M  V30 19579 H 1845.87 3.25475 -0.270902 0
M  V30 19580 H 1844.53 2.80853 -2.35621 0
M  V30 19581 H 1844.18 4.91734 -1.05859 0
M  V30 19582 H 1843.88 5.16779 -2.79667 0
M  V30 19583 H 1845.4 5.74612 -2.06527 0
M  V30 19584 H 1846.81 4.28718 -3.80622 0
M  V30 19585 H 1845.21 3.94683 -4.52046 0
M  V30 19586 H 1846.28 2.59932 -4.09345 0
M  V30 19587 N 1847.63 1.24532 0.965897 0
M  V30 19588 C 1848.57 1.03699 2.08205 0
M  V30 19589 C 1849.57 -0.0286308 1.69376 0
M  V30 19590 O 1850.77 0.126073 1.79558 0
M  V30 19591 H 1847.15 0.318331 0.6813 0
M  V30 19592 H 1849.12 1.98348 2.22937 0
M  V30 19593 C 1847.87 0.660411 3.41371 0
M  V30 19594 H 1847.19 1.47216 3.71709 0
M  V30 19595 H 1848.63 0.554264 4.20362 0
M  V30 19596 C 1847.09 -0.632633 3.30907 0
M  V30 19597 O 1847.62 -1.67786 3.6498 0
M  V30 19598 N 1845.83 -0.61403 2.84039 0
M  V30 19599 H 1845.37 0.236909 2.56508 0
M  V30 19600 H 1845.33 -1.47938 2.7742 0
M  V30 19601 N 1849.1 -1.16685 1.05936 0
M  V30 19602 C 1850.33 -1.90758 0.793401 0
M  V30 19603 C 1850.74 -1.77479 -0.655593 0
M  V30 19604 O 1850.08 -1.11458 -1.46023 0
M  V30 19605 C 1850.15 -3.42127 1.10406 0
M  V30 19606 C 1849.81 -3.79191 2.55074 0
M  V30 19607 C 1850.81 -3.81412 3.533 0
M  V30 19608 C 1848.49 -4.09931 2.9028 0
M  V30 19609 C 1850.49 -4.13853 4.84772 0
M  V30 19610 C 1848.17 -4.42039 4.21953 0
M  V30 19611 C 1849.17 -4.4398 5.19009 0
M  V30 19612 O 1848.86 -4.75328 6.4832 0
M  V30 19613 H 1848.59 -0.611855 0.287418 0
M  V30 19614 H 1851.15 -1.48859 1.41527 0
M  V30 19615 H 1849.38 -3.84356 0.425106 0
M  V30 19616 H 1851.06 -3.97471 0.822918 0
M  V30 19617 H 1851.83 -3.5778 3.27443 0
M  V30 19618 H 1847.71 -4.07587 2.15393 0
M  V30 19619 H 1851.25 -4.15283 5.60523 0
M  V30 19620 H 1847.15 -4.65136 4.4757 0
M  V30 19621 H 1847.92 -4.93154 6.53254 0
M  V30 19622 N 1850.58 -0.841432 -1.33258 0
M  V30 19623 C 1851.51 -0.233859 -2.28004 0
M  V30 19624 C 1852.53 0.586872 -1.51854 0
M  V30 19625 O 1853.72 0.413523 -1.73644 0
M  V30 19626 C 1850.82 0.68919 -3.31818 0
M  V30 19627 C 1849.99 -0.0927681 -4.37302 0
M  V30 19628 C 1849.05 0.754015 -5.2077 0
M  V30 19629 O 1848.07 0.192293 -5.68875 0
M  V30 19630 N 1849.28 2.07095 -5.42302 0
M  V30 19631 H 1852.04 -1.04794 -2.80782 0
M  V30 19632 H 1849.6 -0.70014 -1.45978 0
M  V30 19633 H 1851.59 1.26071 -3.84562 0
M  V30 19634 H 1850.16 1.40397 -2.79298 0
M  V30 19635 H 1849.38 -0.845677 -3.85022 0
M  V30 19636 H 1850.67 -0.63036 -5.0488 0
M  V30 19637 H 1850.07 2.55082 -5.04925 0
M  V30 19638 H 1848.63 2.5909 -5.98093 0
M  V30 19639 N 1852.06 1.4581 -0.598108 0
M  V30 19640 C 1853.01 2.27522 0.147488 0
M  V30 19641 C 1853.99 1.36772 0.847487 0
M  V30 19642 O 1855.19 1.60833 0.739041 0
M  V30 19643 C 1852.31 3.23449 1.15047 0
M  V30 19644 C 1851.4 4.21687 0.451796 0
M  V30 19645 N 1851.79 5.0331 -0.501268 0
M  V30 19646 C 1850.09 4.40463 0.700576 0
M  V30 19647 C 1850.79 5.74521 -0.911055 0
M  V30 19648 N 1849.77 5.42993 -0.256847 0
M  V30 19649 H 1853.57 2.88026 -0.584658 0
M  V30 19650 H 1851.08 1.56847 -0.421055 0
M  V30 19651 H 1853.08 3.80712 1.69894 0
M  V30 19652 H 1851.74 2.64505 1.88327 0
M  V30 19653 H 1852.75 5.10411 -0.877558 0
M  V30 19654 H 1849.43 3.92654 1.41878 0
M  V30 19655 H 1850.82 6.50128 -1.69657 0
M  V30 19656 N 1853.54 0.336733 1.53961 0
M  V30 19657 C 1854.81 -0.316794 1.93018 0
M  V30 19658 C 1855.19 -1.68802 1.26764 0
M  V30 19659 O 1854.54 -2.2468 0.416094 0
M  V30 19660 C 1854.75 -0.395878 3.46747 0
M  V30 19661 C 1856.1 -0.649946 4.19596 0
M  V30 19662 O 1857.12 -0.47827 3.52975 0
M  V30 19663 O 1855.98 -0.982035 5.37604 0
M  V30 19664 H 1853.08 -0.183442 0.806398 0
M  V30 19665 H 1855.62 0.387412 1.65219 0
M  V30 19666 H 1854.4 0.56665 3.87175 0
M  V30 19667 H 1854.02 -1.14714 3.80692 0
M  V30 19668 N 1855.02 -1.57465 0.0651956 0
M  V30 19669 C 1855.96 -2.13542 -0.922087 0
M  V30 19670 C 1856.96 -1.07067 -1.31275 0
M  V30 19671 O 1858.16 -1.25456 -1.29076 0
M  V30 19672 H 1854.54 -0.682718 -0.315277 0
M  V30 19673 H 1856.51 -2.9537 -0.424138 0
M  V30 19674 C 1855.26 -2.70663 -2.18258 0
M  V30 19675 H 1854.58 -3.52262 -1.8908 0
M  V30 19676 H 1856.02 -3.13505 -2.85466 0
M  V30 19677 C 1854.48 -1.65106 -2.93669 0
M  V30 19678 O 1855.01 -1.07214 -3.87128 0
M  V30 19679 N 1853.22 -1.36296 -2.56655 0
M  V30 19680 H 1852.76 -1.83562 -1.80728 0
M  V30 19681 H 1852.72 -0.659013 -3.07416 0
M  V30 19682 N 1856.49 0.20831 -1.56217 0
M  V30 19683 C 1857.43 1.28196 -1.89996 0
M  V30 19684 C 1858.44 1.42381 -0.789394 0
M  V30 19685 O 1859.63 1.43043 -1.06776 0
M  V30 19686 C 1856.73 2.65588 -2.10514 0
M  V30 19687 C 1855.9 2.73181 -3.416 0
M  V30 19688 C 1854.96 3.91678 -3.5139 0
M  V30 19689 O 1853.99 3.79397 -4.24319 0
M  V30 19690 N 1855.19 5.06562 -2.83505 0
M  V30 19691 H 1857.95 0.995403 -2.82687 0
M  V30 19692 H 1855.51 0.398294 -1.56924 0
M  V30 19693 H 1857.51 3.43264 -2.14365 0
M  V30 19694 H 1856.08 2.86788 -1.24385 0
M  V30 19695 H 1855.3 1.81881 -3.49733 0
M  V30 19696 H 1856.58 2.75234 -4.27929 0
M  V30 19697 H 1855.98 5.19437 -2.24056 0
M  V30 19698 H 1854.54 5.82232 -2.93 0
M  V30 19699 N 1857.97 1.50255 0.475528 0
M  V30 19700 C 1859.22 1.61022 1.22793 0
M  V30 19701 C 1859.55 0.308508 1.92038 0
M  V30 19702 O 1858.8 -0.70533 1.82547 0
M  V30 19703 C 1859.1 2.73698 2.29835 0
M  V30 19704 C 1858.77 4.14333 1.77873 0
M  V30 19705 C 1857.43 4.526 1.63423 0
M  V30 19706 C 1859.78 5.02247 1.39275 0
M  V30 19707 C 1857.11 5.76525 1.08791 0
M  V30 19708 C 1859.46 6.26715 0.860869 0
M  V30 19709 C 1858.12 6.63788 0.702959 0
M  V30 19710 H 1857.39 0.589221 0.449332 0
M  V30 19711 H 1860.04 1.84173 0.524633 0
M  V30 19712 H 1858.35 2.44617 3.06055 0
M  V30 19713 H 1860.04 2.79233 2.87802 0
M  V30 19714 H 1856.63 3.84142 1.90087 0
M  V30 19715 H 1860.82 4.73319 1.49276 0
M  V30 19716 H 1856.07 6.03927 0.952987 0
M  V30 19717 H 1860.25 6.942 0.553109 0
M  V30 19718 H 1857.87 7.59693 0.277471 0
M  V30 19719 N 1859.45 -0.728395 1.39758 0
M  V30 19720 C 1860.4 -1.8638 1.39158 0
M  V30 19721 C 1861.39 -1.67173 0.273806 0
M  V30 19722 O 1862.6 -1.74433 0.444184 0
M  V30 19723 H 1858.97 -0.61363 0.434698 0
M  V30 19724 H 1860.94 -1.84002 2.34917 0
M  V30 19725 C 1859.69 -3.24127 1.25845 0
M  V30 19726 H 1859.02 -3.39507 2.11129 0
M  V30 19727 H 1860.46 -4.03745 1.29484 0
M  V30 19728 C 1858.91 -3.36884 -0.0325277 0
M  V30 19729 O 1859.44 -3.89047 -1.00026 0
M  V30 19730 N 1857.65 -2.90435 -0.0977834 0
M  V30 19731 H 1857.2 -2.48175 0.690438 0
M  V30 19732 H 1857.16 -2.99351 -0.961066 0
M  V30 19733 N 1860.93 -1.25042 -0.959279 0
M  V30 19734 C 1861.87 -1.0502 -2.05522 0
M  V30 19735 C 1862.84 0.039194 -1.66054 0
M  V30 19736 O 1864.03 -0.11708 -1.9044 0
M  V30 19737 C 1861.17 -0.670047 -3.38533 0
M  V30 19738 C 1860.28 -1.83381 -3.91146 0
M  V30 19739 C 1859.42 -1.39844 -5.12462 0
M  V30 19740 C 1858.46 -2.53163 -5.57293 0
M  V30 19741 N 1857.59 -2.10435 -6.69822 0
M  V30 19742 H 1862.43 -1.98816 -2.21982 0
M  V30 19743 H 1859.97 -0.990139 -1.08787 0
M  V30 19744 H 1861.93 -0.430621 -4.14972 0
M  V30 19745 H 1860.56 0.230924 -3.21973 0
M  V30 19746 H 1859.61 -2.18667 -3.1127 0
M  V30 19747 H 1860.92 -2.68497 -4.2037 0
M  V30 19748 H 1860.08 -1.1184 -5.96303 0
M  V30 19749 H 1858.82 -0.51794 -4.84942 0
M  V30 19750 H 1857.82 -2.81918 -4.7202 0
M  V30 19751 H 1859.05 -3.41784 -5.86822 0
M  V30 19752 H 1856.99 -1.24794 -6.44021 0
M  V30 19753 H 1856.91 -2.89101 -6.98539 0
M  V30 19754 H 1858.18 -1.85593 -7.57084 0
M  V30 19755 N 1862.41 1.16121 -1.06553 0
M  V30 19756 C 1863.82 1.38705 -0.789497 0
M  V30 19757 C 1864.02 1.92046 0.609975 0
M  V30 19758 O 1863.08 2.12096 1.37009 0
M  V30 19759 C 1864.39 2.36541 -1.85658 0
M  V30 19760 C 1865.94 2.5022 -1.88039 0
M  V30 19761 C 1866.41 3.51341 -2.93809 0
M  V30 19762 N 1867.91 3.5887 -2.92859 0
M  V30 19763 C 1868.64 4.3691 -3.71346 0
M  V30 19764 N 1868.14 5.1835 -4.59657 0
M  V30 19765 N 1869.93 4.31918 -3.59726 0
M  V30 19766 H 1862.08 0.798355 -1.96825 0
M  V30 19767 H 1864.34 0.41349 -0.853071 0
M  V30 19768 H 1864.05 2.04447 -2.86172 0
M  V30 19769 H 1863.92 3.36221 -1.70983 0
M  V30 19770 H 1866.31 2.81617 -0.881822 0
M  V30 19771 H 1866.39 1.50567 -2.06793 0
M  V30 19772 H 1866.04 3.20681 -3.93861 0
M  V30 19773 H 1865.97 4.50731 -2.72304 0
M  V30 19774 H 1868.46 3.00735 -2.28838 0
M  V30 19775 H 1868.77 5.75119 -5.16196 0
M  V30 19776 H 1867.11 5.17684 -4.63711 0
M  V30 19777 H 1870.31 3.67355 -2.90117 0
M  V30 19778 H 1870.48 4.92491 -4.21137 0
M  V30 19779 N 1863.88 0.848487 1.3281 0
M  V30 19780 C 1864.79 0.291355 2.32784 0
M  V30 19781 C 1865.81 -0.587621 1.63777 0
M  V30 19782 O 1866.99 -0.489458 1.95362 0
M  V30 19783 C 1864.05 -0.51634 3.42834 0
M  V30 19784 C 1863.11 0.388046 4.27543 0
M  V30 19785 C 1862.35 -0.381197 5.32337 0
M  V30 19786 O 1862.57 -1.61186 5.47152 0
M  V30 19787 O 1861.5 0.2498 6.01381 0
M  V30 19788 H 1865.33 1.11947 2.82315 0
M  V30 19789 H 1862.91 0.611259 1.36323 0
M  V30 19790 H 1864.8 -0.974995 4.09966 0
M  V30 19791 H 1863.47 -1.32136 2.95503 0
M  V30 19792 H 1862.38 0.894745 3.63243 0
M  V30 19793 H 1863.71 1.15808 4.78382 0
M  V30 19794 N 1865.36 -1.4549 0.605832 0
M  V30 19795 C 1866.6 -2.04139 0.103321 0
M  V30 19796 C 1866.97 -1.46425 -1.24193 0
M  V30 19797 O 1868.17 -1.96416 -1.83506 0
M  V30 19798 C 1866.44 -3.57345 0.0627925 0
M  V30 19799 S 1868 -4.37162 -0.378782 0
M  V30 19800 H 1864.82 -0.709329 0.0487152 0
M  V30 19801 H 1867.42 -1.78223 0.80354 0
M  V30 19802 H 1866.12 -3.96862 1.04542 0
M  V30 19803 H 1865.65 -3.87833 -0.659475 0
M  V30 19804 H 1867.67 -4.68709 -1.62868 0
M  V30 19805 N 1866.84 -0.344893 -1.5378 0
M  V30 19806 C 1867.77 0.55434 -2.21365 0
M  V30 19807 C 1868.75 1.09924 -1.19814 0
M  V30 19808 O 1869.94 1.15926 -1.48639 0
M  V30 19809 C 1867.06 1.76275 -2.89214 0
M  V30 19810 C 1866.11 1.34719 -4.04664 0
M  V30 19811 S 1866.94 0.365855 -5.34249 0
M  V30 19812 C 1868.1 1.58107 -6.05601 0
M  V30 19813 H 1868.33 -0.0197004 -2.97293 0
M  V30 19814 H 1865.86 -0.128969 -1.5386 0
M  V30 19815 H 1867.82 2.45601 -3.28923 0
M  V30 19816 H 1866.48 2.30801 -2.13049 0
M  V30 19817 H 1865.68 2.24821 -4.51078 0
M  V30 19818 H 1865.28 0.733393 -3.66739 0
M  V30 19819 H 1867.57 2.51534 -6.29076 0
M  V30 19820 H 1868.51 1.15869 -6.98556 0
M  V30 19821 H 1868.92 1.77773 -5.35777 0
M  V30 19822 N 1868.32 1.57428 -0.0735454 0
M  V30 19823 C 1869.23 2.16325 0.907775 0
M  V30 19824 C 1870.24 1.12689 1.32579 0
M  V30 19825 O 1871.42 1.44963 1.39813 0
M  V30 19826 C 1868.49 2.71467 2.15654 0
M  V30 19827 C 1867.55 3.89983 1.79476 0
M  V30 19828 C 1866.78 4.42486 2.98399 0
M  V30 19829 O 1867 3.93985 4.12471 0
M  V30 19830 O 1865.94 5.33794 2.78114 0
M  V30 19831 H 1869.76 3.00543 0.436771 0
M  V30 19832 H 1867.35 1.48649 0.149623 0
M  V30 19833 H 1869.23 3.06802 2.88878 0
M  V30 19834 H 1867.9 1.90308 2.61848 0
M  V30 19835 H 1866.81 3.59498 1.03499 0
M  V30 19836 H 1868.14 4.7244 1.38063 0
M  V30 19837 N 1869.8 -0.200022 1.56326 0
M  V30 19838 C 1870.73 -1.27187 1.90673 0
M  V30 19839 C 1871.74 -1.41961 0.796933 0
M  V30 19840 O 1872.93 -1.42474 1.07533 0
M  V30 19841 C 1870.03 -2.64468 2.11919 0
M  V30 19842 C 1869.2 -2.71366 3.43044 0
M  V30 19843 C 1868.26 -3.89809 3.53462 0
M  V30 19844 O 1867.29 -3.77142 4.26325 0
M  V30 19845 N 1868.49 -5.05052 2.86187 0
M  V30 19846 H 1871.26 -0.980397 2.83211 0
M  V30 19847 H 1868.82 -0.389967 1.57133 0
M  V30 19848 H 1870.81 -3.42122 2.16182 0
M  V30 19849 H 1869.38 -2.86124 1.25904 0
M  V30 19850 H 1868.6 -1.80024 3.50692 0
M  V30 19851 H 1869.89 -2.72961 4.29383 0
M  V30 19852 H 1869.28 -5.18242 2.26808 0
M  V30 19853 H 1867.84 -5.8067 2.96083 0
M  V30 19854 N 1871.27 -1.50505 -0.467553 0
M  V30 19855 C 1872.69 -1.54489 -1.04833 0
M  V30 19856 C 1873.04 -0.350468 -1.93044 0
M  V30 19857 O 1872.16 0.536238 -2.09651 0
M  V30 19858 C 1872.76 -2.79967 -1.90799 0
M  V30 19859 C 1871.32 -2.86621 -2.43979 0
M  V30 19860 C 1870.46 -2.48819 -1.22412 0
M  V30 19861 H 1873.41 -1.56718 -0.250025 0
M  V30 19862 H 1873.43 -2.62022 -2.75907 0
M  V30 19863 H 1872.95 -3.66881 -1.2657 0
M  V30 19864 H 1871.05 -2.04066 -3.11749 0
M  V30 19865 H 1871.16 -3.89594 -2.78843 0
M  V30 19866 H 1869.52 -2.01335 -1.56001 0
M  V30 19867 H 1870.31 -3.38044 -0.598405 0
M  V30 19868 N 1872.75 0.720973 -1.40142 0
M  V30 19869 C 1874 1.48297 -1.38332 0
M  V30 19870 C 1874.33 1.94193 0.0162191 0
M  V30 19871 O 1873.61 1.67781 0.983853 0
M  V30 19872 C 1873.89 2.71283 -2.36807 0
M  V30 19873 C 1873.74 2.31316 -3.85763 0
M  V30 19874 C 1875.06 3.73426 -2.32897 0
M  V30 19875 H 1872.18 0.537922 -0.503794 0
M  V30 19876 H 1874.82 0.823265 -1.71238 0
M  V30 19877 H 1872.97 3.27571 -2.08877 0
M  V30 19878 H 1874.64 1.80551 -4.24499 0
M  V30 19879 H 1872.89 1.63379 -4.01858 0
M  V30 19880 H 1873.56 3.19449 -4.50174 0
M  V30 19881 H 1876.03 3.26755 -2.57624 0
M  V30 19882 H 1874.91 4.57124 -3.03856 0
M  V30 19883 H 1875.17 4.21343 -1.33876 0
M  V30 19884 N 1874.23 1.25549 0.952634 0
M  V30 19885 C 1875.46 1.12998 1.7296 0
M  V30 19886 C 1875.87 -0.318779 1.86495 0
M  V30 19887 O 1875.21 -1.23091 1.36361 0
M  V30 19888 C 1875.27 1.71313 3.16057 0
M  V30 19889 C 1874.94 3.20326 3.25945 0
M  V30 19890 C 1875.93 4.17291 3.10103 0
M  V30 19891 C 1873.62 3.60574 3.49702 0
M  V30 19892 C 1875.61 5.52484 3.17868 0
M  V30 19893 C 1873.3 4.95904 3.57103 0
M  V30 19894 C 1874.3 5.91668 3.412 0
M  V30 19895 O 1873.99 7.24535 3.48287 0
M  V30 19896 H 1873.72 0.394815 0.548723 0
M  V30 19897 H 1876.27 1.66441 1.20361 0
M  V30 19898 H 1874.5 1.1232 3.70029 0
M  V30 19899 H 1876.19 1.53832 3.7562 0
M  V30 19900 H 1876.96 3.87537 2.91617 0
M  V30 19901 H 1872.84 2.86529 3.6114 0
M  V30 19902 H 1876.38 6.27211 3.05373 0
M  V30 19903 H 1872.28 5.25324 3.75106 0
M  V30 19904 H 1873.05 7.32657 3.64905 0
M  V30 19905 N 1875.71 -1.15554 1.07168 0
M  V30 19906 C 1877.12 -1.67889 0.816719 0
M  V30 19907 C 1877.47 -1.84821 -0.658442 0
M  V30 19908 O 1876.6 -1.55018 -1.50991 0
M  V30 19909 C 1877.19 -3.04959 1.47598 0
M  V30 19910 C 1875.75 -3.54378 1.26858 0
M  V30 19911 C 1874.9 -2.30148 1.54684 0
M  V30 19912 H 1877.85 -0.997938 1.23397 0
M  V30 19913 H 1877.87 -3.69796 0.89618 0
M  V30 19914 H 1877.38 -2.92603 2.54961 0
M  V30 19915 H 1875.48 -3.71979 0.215097 0
M  V30 19916 H 1875.59 -4.35932 1.98747 0
M  V30 19917 H 1873.96 -2.35597 0.967776 0
M  V30 19918 H 1874.74 -2.20381 2.63225 0
M  V30 19919 N 1877.19 -0.855519 -1.32358 0
M  V30 19920 C 1878.12 -0.245562 -2.26875 0
M  V30 19921 C 1879.1 0.616957 -1.50441 0
M  V30 19922 O 1880.28 0.573569 -1.79562 0
M  V30 19923 C 1877.41 0.653572 -3.32334 0
M  V30 19924 C 1876.46 -0.135677 -4.26284 0
M  V30 19925 S 1877.29 -1.50466 -5.13926 0
M  V30 19926 C 1878.44 -0.611261 -6.22908 0
M  V30 19927 H 1878.68 -1.0468 -2.78261 0
M  V30 19928 H 1876.21 -0.653201 -1.39902 0
M  V30 19929 H 1878.17 1.16668 -3.93572 0
M  V30 19930 H 1876.83 1.42863 -2.7973 0
M  V30 19931 H 1876.02 0.549189 -5.00999 0
M  V30 19932 H 1875.62 -0.580401 -3.69469 0
M  V30 19933 H 1877.92 0.184141 -6.7725 0
M  V30 19934 H 1878.86 -1.32908 -6.95515 0
M  V30 19935 H 1879.27 -0.185219 -5.64196 0
M  V30 19936 N 1878.67 1.45167 -0.61354 0
M  V30 19937 C 1879.89 2.06565 -0.117608 0
M  V30 19938 C 1880.31 1.45716 1.20051 0
M  V30 19939 O 1879.67 0.573512 1.73254 0
M  V30 19940 C 1879.72 3.61493 0.0221474 0
M  V30 19941 O 1879.44 4.20072 -1.24383 0
M  V30 19942 C 1880.94 4.39889 0.548841 0
M  V30 19943 H 1878.16 0.667172 -0.0715756 0
M  V30 19944 H 1880.7 1.86318 -0.84296 0
M  V30 19945 H 1878.86 3.81063 0.697854 0
M  V30 19946 H 1879.27 5.13317 -1.07733 0
M  V30 19947 H 1880.75 5.48776 0.595696 0
M  V30 19948 H 1881.22 4.1009 1.57234 0
M  V30 19949 H 1881.83 4.25198 -0.0930203 0
M  V30 19950 N 1880.14 0.353044 1.53595 0
M  V30 19951 C 1881.09 -0.514569 2.26837 0
M  V30 19952 C 1882.09 -1.09398 1.29338 0
M  V30 19953 O 1883.29 -1.03863 1.47012 0
M  V30 19954 H 1879.67 -0.184641 0.72898 0
M  V30 19955 H 1881.64 0.125082 2.98138 0
M  V30 19956 C 1880.39 -1.64884 3.06119 0
M  V30 19957 H 1879.71 -1.21227 3.80978 0
M  V30 19958 H 1881.15 -2.23089 3.60565 0
M  V30 19959 C 1879.61 -2.58385 2.16192 0
M  V30 19960 O 1880.14 -3.6088 1.76433 0
M  V30 19961 N 1878.34 -2.27286 1.81079 0
M  V30 19962 H 1877.89 -1.43975 2.13609 0
M  V30 19963 H 1877.85 -2.90102 1.21194 0
M  V30 19964 N 1881.62 -1.57387 0.0818932 0
M  V30 19965 C 1882.55 -2.10294 -0.911539 0
M  V30 19966 C 1883.57 -1.03726 -1.25478 0
M  V30 19967 O 1884.76 -1.31212 -1.2102 0
M  V30 19968 C 1881.86 -2.55676 -2.22448 0
M  V30 19969 C 1881.03 -3.8593 -2.05857 0
M  V30 19970 C 1880.09 -4.17297 -3.20545 0
M  V30 19971 O 1879.11 -4.86734 -2.9509 0
M  V30 19972 N 1880.32 -3.71647 -4.45936 0
M  V30 19973 H 1883.08 -2.96153 -0.459757 0
M  V30 19974 H 1880.64 -1.61568 -0.103568 0
M  V30 19975 H 1882.63 -2.73715 -2.98098 0
M  V30 19976 H 1881.2 -1.749 -2.59092 0
M  V30 19977 H 1880.42 -3.7717 -1.14615 0
M  V30 19978 H 1881.71 -4.71169 -1.92034 0
M  V30 19979 H 1881.11 -3.15571 -4.69501 0
M  V30 19980 H 1879.67 -3.94866 -5.18579 0
M  V30 19981 N 1883.1 0.191729 -1.56429 0
M  V30 19982 C 1884.32 0.931804 -1.85289 0
M  V30 19983 C 1884.75 1.7592 -0.665864 0
M  V30 19984 O 1884.11 1.77158 0.385313 0
M  V30 19985 C 1884.16 1.801 -3.12404 0
M  V30 19986 O 1883.26 2.9002 -2.93193 0
M  V30 19987 H 1882.6 0.262213 -0.610033 0
M  V30 19988 H 1885.13 0.196028 -2.03659 0
M  V30 19989 H 1885.14 2.20499 -3.43285 0
M  V30 19990 H 1883.82 1.19309 -3.9842 0
M  V30 19991 H 1882.39 2.53352 -2.73619 0
M  V30 19992 N 1884.58 1.50751 0.459565 0
M  V30 19993 C 1885.8 1.66367 1.23842 0
M  V30 19994 C 1886.23 0.351355 1.84789 0
M  V30 19995 O 1885.59 -0.686103 1.67816 0
M  V30 19996 C 1885.63 2.76521 2.31449 0
M  V30 19997 O 1884.74 2.38576 3.36386 0
M  V30 19998 H 1884.08 0.555447 0.363833 0
M  V30 19999 H 1886.61 1.97193 0.545538 0
M  V30 20000 H 1886.62 2.99943 2.76583 0
M  V30 20001 H 1885.29 3.71759 1.86462 0
M  V30 20002 H 1883.87 2.25643 2.96883 0
M  V30 20003 N 1886.06 -0.713531 1.40522 0
M  V30 20004 C 1886.99 -1.83724 1.35354 0
M  V30 20005 C 1887.97 -1.61055 0.223598 0
M  V30 20006 O 1889.15 -1.84041 0.407593 0
M  V30 20007 C 1886.28 -3.20099 1.10699 0
M  V30 20008 C 1885.32 -3.61592 2.26172 0
M  V30 20009 S 1886.16 -3.68469 3.88576 0
M  V30 20010 C 1887.31 -5.076 3.66188 0
M  V30 20011 H 1887.55 -1.87828 2.30452 0
M  V30 20012 H 1885.08 -0.88051 1.26832 0
M  V30 20013 H 1887.04 -3.98836 0.971588 0
M  V30 20014 H 1885.7 -3.13626 0.172515 0
M  V30 20015 H 1884.89 -4.60617 2.04568 0
M  V30 20016 H 1884.49 -2.90117 2.36026 0
M  V30 20017 H 1886.78 -5.94578 3.24782 0
M  V30 20018 H 1887.73 -5.3424 4.64751 0
M  V30 20019 H 1888.14 -4.7829 2.99831 0
M  V30 20020 N 1887.53 -1.26053 -0.945962 0
M  V30 20021 C 1888.78 -1.11315 -1.69161 0
M  V30 20022 C 1889.11 0.34437 -1.91427 0
M  V30 20023 O 1888.36 1.26968 -1.48921 0
M  V30 20024 C 1888.66 -1.8222 -3.07459 0
M  V30 20025 C 1888.33 -3.32126 -3.04964 0
M  V30 20026 C 1886.99 -3.73019 -3.03991 0
M  V30 20027 C 1889.34 -4.2786 -2.97633 0
M  V30 20028 C 1886.67 -5.08041 -2.93446 0
M  V30 20029 C 1889.02 -5.62917 -2.88631 0
M  V30 20030 C 1887.69 -6.03127 -2.85998 0
M  V30 20031 H 1886.96 -0.407329 -0.619002 0
M  V30 20032 H 1889.6 -1.56435 -1.10454 0
M  V30 20033 H 1887.91 -1.29554 -3.69761 0
M  V30 20034 H 1889.61 -1.68261 -3.63991 0
M  V30 20035 H 1886.2 -2.99594 -3.06498 0
M  V30 20036 H 1890.38 -3.97252 -2.97497 0
M  V30 20037 H 1885.64 -5.38364 -2.89782 0
M  V30 20038 H 1889.81 -6.36784 -2.81921 0
M  V30 20039 H 1887.44 -7.07709 -2.77583 0
M  V30 20040 N 1889.01 1.14984 -1.07779 0
M  V30 20041 C 1890.24 1.90288 -0.824935 0
M  V30 20042 C 1890.66 1.77709 0.616524 0
M  V30 20043 O 1890.02 1.11281 1.4313 0
M  V30 20044 C 1890.07 3.38482 -1.24348 0
M  V30 20045 O 1889.17 4.10538 -0.391454 0
M  V30 20046 H 1888.51 0.592283 -0.300162 0
M  V30 20047 H 1891.04 1.45588 -1.43755 0
M  V30 20048 H 1891.05 3.89284 -1.22155 0
M  V30 20049 H 1889.73 3.46956 -2.29335 0
M  V30 20050 H 1888.3 3.69846 -0.476247 0
M  V30 20051 N 1890.49 0.862526 1.31902 0
M  V30 20052 C 1891.42 0.257591 2.26742 0
M  V30 20053 C 1892.4 -0.60897 1.50766 0
M  V30 20054 O 1893.58 -0.564038 1.79863 0
M  V30 20055 C 1890.71 -0.635938 3.32676 0
M  V30 20056 C 1889.76 0.158282 4.26206 0
M  V30 20057 S 1890.59 1.53189 5.13121 0
M  V30 20058 C 1891.75 0.644287 6.22575 0
M  V30 20059 H 1891.98 1.06154 2.77702 0
M  V30 20060 H 1889.51 0.660611 1.39554 0
M  V30 20061 H 1891.47 -1.1458 3.94185 0
M  V30 20062 H 1890.13 -1.41377 2.80484 0
M  V30 20063 H 1889.32 -0.522612 5.01283 0
M  V30 20064 H 1888.93 0.599986 3.69156 0
M  V30 20065 H 1891.22 -0.148223 6.77338 0
M  V30 20066 H 1892.16 1.36595 6.948 0
M  V30 20067 H 1892.57 0.215137 5.6409 0
M  V30 20068 N 1891.97 -1.4484 0.62123 0
M  V30 20069 C 1892.92 -2.32377 -0.1019 0
M  V30 20070 C 1893.91 -1.4677 -0.845862 0
M  V30 20071 O 1895.12 -1.63174 -0.759882 0
M  V30 20072 H 1891.49 -0.75022 -0.0517143 0
M  V30 20073 H 1893.46 -2.91131 0.654623 0
M  V30 20074 C 1892.21 -3.30611 -1.07665 0
M  V30 20075 H 1891.53 -3.96487 -0.513612 0
M  V30 20076 H 1892.97 -3.94563 -1.5523 0
M  V30 20077 C 1891.43 -2.58795 -2.157 0
M  V30 20078 O 1891.96 -2.37947 -3.23642 0
M  V30 20079 N 1890.17 -2.187 -1.9136 0
M  V30 20080 H 1889.72 -2.35856 -1.03584 0
M  V30 20081 H 1889.67 -1.70975 -2.63847 0
M  V30 20082 N 1893.45 -0.361184 -1.53405 0
M  V30 20083 C 1894.39 0.502532 -2.27107 0
M  V30 20084 C 1895.39 1.08711 -1.29916 0
M  V30 20085 O 1896.59 1.03082 -1.47561 0
M  V30 20086 H 1892.97 0.180773 -0.729949 0
M  V30 20087 H 1894.94 -0.140891 -2.98067 0
M  V30 20088 C 1893.69 1.63258 -3.06989 0
M  V30 20089 H 1893.01 1.19205 -3.81615 0
M  V30 20090 H 1894.45 2.21174 -3.61743 0
M  V30 20091 C 1892.91 2.57234 -2.17559 0
M  V30 20092 O 1893.44 3.59939 -1.78345 0
M  V30 20093 N 1891.65 2.26322 -1.82282 0
M  V30 20094 H 1891.19 1.4284 -2.1437 0
M  V30 20095 H 1891.15 2.89455 -1.22731 0
M  V30 20096 N 1894.92 1.57341 -0.0902386 0
M  V30 20097 C 1896.15 1.98513 0.583126 0
M  V30 20098 C 1896.57 0.969208 1.62024 0
M  V30 20099 O 1895.92 -0.041815 1.82452 0
M  V30 20100 C 1895.98 3.39743 1.2352 0
M  V30 20101 O 1895.7 4.37444 0.239568 0
M  V30 20102 C 1897.2 3.9589 1.99463 0
M  V30 20103 H 1894.42 0.652446 0.156701 0
M  V30 20104 H 1896.96 2.03808 -0.168092 0
M  V30 20105 H 1895.12 3.35477 1.93738 0
M  V30 20106 H 1895.53 5.19677 0.709619 0
M  V30 20107 H 1897 4.96876 2.40454 0
M  V30 20108 H 1897.48 3.33441 2.85856 0
M  V30 20109 H 1898.09 4.03615 1.34072 0
M  V30 20110 N 1896.4 -0.183431 1.56529 0
M  V30 20111 C 1897.34 -1.25565 1.90548 0
M  V30 20112 C 1898.31 -1.4338 0.766876 0
M  V30 20113 O 1899.5 -1.58582 1.01902 0
M  V30 20114 C 1896.62 -2.62051 2.14586 0
M  V30 20115 C 1895.67 -2.61041 3.37283 0
M  V30 20116 S 1896.5 -2.11319 4.92041 0
M  V30 20117 C 1897.66 -3.49606 5.1916 0
M  V30 20118 H 1897.89 -0.96522 2.81195 0
M  V30 20119 H 1895.43 -0.387456 1.49459 0
M  V30 20120 H 1897.38 -3.40611 2.29116 0
M  V30 20121 H 1896.04 -2.883 1.24668 0
M  V30 20122 H 1895.24 -3.61426 3.51265 0
M  V30 20123 H 1894.84 -1.90569 3.21806 0
M  V30 20124 H 1897.13 -4.45537 5.10395 0
M  V30 20125 H 1898.07 -3.40509 6.20854 0
M  V30 20126 H 1898.48 -3.45057 4.46761 0
M  V30 20127 N 1897.88 -1.50992 -0.451564 0
M  V30 20128 C 1898.81 -1.67453 -1.56499 0
M  V30 20129 C 1899.83 -0.555481 -1.5303 0
M  V30 20130 O 1901.01 -0.829335 -1.58064 0
M  V30 20131 C 1898.11 -1.66093 -2.95409 0
M  V30 20132 C 1897.29 -2.94351 -3.23537 0
M  V30 20133 C 1896.35 -2.8537 -4.42098 0
M  V30 20134 O 1895.37 -3.59323 -4.41447 0
M  V30 20135 N 1896.57 -2.0025 -5.44867 0
M  V30 20136 H 1899.34 -2.63499 -1.42788 0
M  V30 20137 H 1896.9 -1.48701 -0.640293 0
M  V30 20138 H 1898.89 -1.57672 -3.72722 0
M  V30 20139 H 1897.46 -0.777014 -3.02789 0
M  V30 20140 H 1896.68 -3.16751 -2.34654 0
M  V30 20141 H 1897.97 -3.79281 -3.39151 0
M  V30 20142 H 1897.37 -1.39517 -5.48226 0
M  V30 20143 H 1895.93 -1.97719 -6.21088 0
M  V30 20144 N 1899.36 0.706069 -1.40899 0
M  V30 20145 C 1900.31 1.82011 -1.41918 0
M  V30 20146 C 1901.28 1.6381 -0.274879 0
M  V30 20147 O 1902.46 1.84809 -0.474366 0
M  V30 20148 C 1899.6 3.19805 -1.29687 0
M  V30 20149 C 1898.71 3.49512 -2.53901 0
M  V30 20150 C 1897.85 4.76863 -2.34041 0
M  V30 20151 C 1896.89 4.99504 -3.53783 0
M  V30 20152 N 1896.02 6.18074 -3.33059 0
M  V30 20153 H 1900.86 1.80474 -2.37135 0
M  V30 20154 H 1898.4 0.881471 -1.17765 0
M  V30 20155 H 1900.36 3.99389 -1.206 0
M  V30 20156 H 1898.99 3.20546 -0.380837 0
M  V30 20157 H 1898.04 2.64411 -2.73479 0
M  V30 20158 H 1899.35 3.62147 -3.43002 0
M  V30 20159 H 1898.51 5.64482 -2.22361 0
M  V30 20160 H 1897.25 4.66454 -1.42379 0
M  V30 20161 H 1896.25 4.10336 -3.65929 0
M  V30 20162 H 1897.48 5.11779 -4.46385 0
M  V30 20163 H 1895.42 6.08898 -2.44088 0
M  V30 20164 H 1895.34 6.3143 -4.15731 0
M  V30 20165 H 1896.61 7.08456 -3.25131 0
M  V30 20166 N 1900.84 1.26553 0.939264 0
M  V30 20167 C 1901.78 1.08276 2.03826 0
M  V30 20168 C 1902.75 -0.0127713 1.66095 0
M  V30 20169 O 1903.94 0.147362 1.9023 0
M  V30 20170 C 1901.08 0.723819 3.37424 0
M  V30 20171 C 1900.19 1.8958 3.88179 0
M  V30 20172 C 1899.33 1.4798 5.10172 0
M  V30 20173 C 1898.37 2.61997 5.53194 0
M  V30 20174 N 1897.5 2.21064 6.66389 0
M  V30 20175 H 1902.34 2.02323 2.18791 0
M  V30 20176 H 1899.88 1.00732 1.07198 0
M  V30 20177 H 1901.84 0.496585 4.14234 0
M  V30 20178 H 1900.47 -0.179671 3.223 0
M  V30 20179 H 1899.52 2.23591 3.07752 0
M  V30 20180 H 1900.83 2.7515 4.16045 0
M  V30 20181 H 1899.99 1.21312 5.94448 0
M  V30 20182 H 1898.72 0.595025 4.84057 0
M  V30 20183 H 1897.73 2.89391 4.67475 0
M  V30 20184 H 1898.95 3.51076 5.81311 0
M  V30 20185 H 1896.9 1.35024 6.41954 0
M  V30 20186 H 1896.82 3.00177 6.93851 0
M  V30 20187 H 1898.09 1.97614 7.54035 0
M  V30 20188 N 1902.31 -1.14411 1.08387 0
M  V30 20189 C 1903.26 -2.21558 0.708165 0
M  V30 20190 C 1904.26 -1.66969 -0.285982 0
M  V30 20191 O 1905.46 -1.79386 -0.14857 0
M  V30 20192 H 1901.84 -0.721799 0.210974 0
M  V30 20193 H 1903.81 -2.50518 1.62122 0
M  V30 20194 C 1902.56 -3.47444 0.13337 0
M  V30 20195 H 1901.88 -3.89779 0.889513 0
M  V30 20196 H 1903.32 -4.23901 -0.0917154 0
M  V30 20197 C 1901.78 -3.1743 -1.1287 0
M  V30 20198 O 1902.31 -3.35205 -2.2136 0
M  V30 20199 N 1900.52 -2.71391 -1.03901 0
M  V30 20200 H 1900.06 -2.57127 -0.156094 0
M  V30 20201 H 1900.02 -2.51684 -1.88422 0
M  V30 20202 N 1903.79 -0.869509 -1.31443 0
M  V30 20203 C 1905.04 -0.480925 -1.97015 0
M  V30 20204 C 1905.37 0.964227 -1.68571 0
M  V30 20205 O 1904.65 1.67893 -0.981953 0
M  V30 20206 C 1904.93 -0.738064 -3.52455 0
M  V30 20207 C 1904.78 -2.23272 -3.90474 0
M  V30 20208 C 1906.1 -0.204237 -4.39626 0
M  V30 20209 H 1903.22 -0.176206 -0.715626 0
M  V30 20210 H 1905.86 -1.09066 -1.55578 0
M  V30 20211 H 1904.01 -0.21909 -3.87882 0
M  V30 20212 H 1905.68 -2.81891 -3.65151 0
M  V30 20213 H 1903.93 -2.70546 -3.39098 0
M  V30 20214 H 1904.6 -2.36328 -4.98852 0
M  V30 20215 H 1907.07 -0.648228 -4.1102 0
M  V30 20216 H 1905.95 -0.413608 -5.47339 0
M  V30 20217 H 1906.21 0.893807 -4.32971 0
M  V30 20218 N 1905.27 1.44508 -0.628902 0
M  V30 20219 C 1906.68 1.85457 -0.215122 0
M  V30 20220 C 1907.03 1.52619 1.23296 0
M  V30 20221 O 1906.16 0.963178 1.93783 0
M  V30 20222 C 1906.75 3.36621 -0.383645 0
M  V30 20223 C 1905.31 3.76392 -0.0243904 0
M  V30 20224 C 1904.46 2.68369 -0.698081 0
M  V30 20225 H 1907.41 1.35006 -0.834208 0
M  V30 20226 H 1907.43 3.78617 0.378049 0
M  V30 20227 H 1906.94 3.6049 -1.43767 0
M  V30 20228 H 1905.04 3.58139 1.02798 0
M  V30 20229 H 1905.16 4.7714 -0.432898 0
M  V30 20230 H 1903.52 2.54349 -0.133605 0
M  V30 20231 H 1904.3 2.95071 -1.75465 0
M  V30 20232 N 1906.75 0.369315 1.53212 0
M  V30 20233 C 1908 -0.218776 2.00912 0
M  V30 20234 C 1908.32 -1.48977 1.25821 0
M  V30 20235 O 1907.59 -1.92325 0.372538 0
M  V30 20236 H 1906.17 -0.0838334 0.742281 0
M  V30 20237 H 1908.83 0.496408 1.88472 0
M  V30 20238 H 1907.93 -0.443127 3.08938 0
M  V30 20239 N 1908.23 -1.57291 0.0985816 0
M  V30 20240 C 1909.48 -1.94094 -0.563189 0
M  V30 20241 C 1909.8 -0.981394 -1.68504 0
M  V30 20242 O 1909.07 -0.0340632 -1.9587 0
M  V30 20243 H 1907.65 -0.716571 -0.211033 0
M  V30 20244 H 1910.31 -1.94219 0.162732 0
M  V30 20245 H 1909.4 -2.96607 -0.971113 0
M  V30 20246 N 1909.71 0.175127 -1.56624 0
M  V30 20247 C 1910.95 0.892368 -1.81777 0
M  V30 20248 C 1911.28 1.8241 -0.675051 0
M  V30 20249 O 1910.54 1.9276 0.337944 0
M  V30 20250 C 1910.83 1.72397 -3.13072 0
M  V30 20251 C 1910.5 0.941494 -4.40961 0
M  V30 20252 C 1909.16 0.725524 -4.75699 0
M  V30 20253 C 1911.51 0.392358 -5.19721 0
M  V30 20254 C 1908.84 -0.0507428 -5.86678 0
M  V30 20255 C 1911.19 -0.370801 -6.31512 0
M  V30 20256 C 1909.86 -0.597606 -6.64819 0
M  V30 20257 H 1909.13 0.326541 -0.665171 0
M  V30 20258 H 1911.78 0.157524 -1.90851 0
M  V30 20259 H 1910.08 2.52809 -2.99324 0
M  V30 20260 H 1911.78 2.28189 -3.29743 0
M  V30 20261 H 1908.37 1.11986 -4.13711 0
M  V30 20262 H 1912.55 0.546561 -4.93281 0
M  V30 20263 H 1907.81 -0.236241 -6.10943 0
M  V30 20264 H 1911.98 -0.803585 -6.91748 0
M  V30 20265 H 1909.61 -1.201 -7.50653 0
M  V30 20266 N 1911.18 1.5123 0.44355 0
M  V30 20267 C 1912.12 1.68281 1.55609 0
M  V30 20268 C 1913.13 0.563589 1.52733 0
M  V30 20269 O 1914.32 0.837706 1.57622 0
M  V30 20270 C 1911.42 1.67657 2.94524 0
M  V30 20271 C 1910.59 2.96063 3.21971 0
M  V30 20272 C 1909.65 2.8771 4.40578 0
M  V30 20273 O 1908.68 3.61659 4.39536 0
M  V30 20274 N 1909.88 2.03137 5.43797 0
M  V30 20275 H 1912.64 2.64252 1.41389 0
M  V30 20276 H 1910.2 1.49038 0.632398 0
M  V30 20277 H 1912.2 1.59646 3.71881 0
M  V30 20278 H 1910.77 0.79306 3.02373 0
M  V30 20279 H 1909.99 3.17991 2.32971 0
M  V30 20280 H 1911.27 3.81074 3.37135 0
M  V30 20281 H 1910.67 1.42422 5.47478 0
M  V30 20282 H 1909.23 2.0101 6.20031 0
M  V30 20283 N 1912.66 -0.698586 1.41271 0
M  V30 20284 C 1913.94 -1.45291 1.30957 0
M  V30 20285 C 1914.32 -2.11002 -0.0642533 0
M  V30 20286 O 1913.67 -2.01458 -1.07829 0
M  V30 20287 C 1913.88 -2.4748 2.46078 0
M  V30 20288 C 1915.22 -3.1282 2.87104 0
M  V30 20289 O 1916.25 -2.57804 2.45796 0
M  V30 20290 O 1915.11 -4.12458 3.58525 0
M  V30 20291 H 1912.2 -0.646905 0.515212 0
M  V30 20292 H 1914.75 -0.72932 1.53229 0
M  V30 20293 H 1913.52 -1.97558 3.37767 0
M  V30 20294 H 1913.14 -3.27353 2.25668 0
M  V30 20295 N 1914.14 -1.27049 -0.93254 0
M  V30 20296 C 1915.09 -1.09183 -2.05382 0
M  V30 20297 C 1916.08 -0.0162863 -1.69392 0
M  V30 20298 O 1917.29 -0.173635 -1.79161 0
M  V30 20299 H 1913.66 -0.336282 -0.67262 0
M  V30 20300 H 1915.63 -2.04189 -2.17599 0
M  V30 20301 C 1914.38 -0.750687 -3.395 0
M  V30 20302 H 1913.71 -1.57019 -3.67675 0
M  V30 20303 H 1915.15 -0.665521 -4.18744 0
M  V30 20304 C 1913.6 0.544676 -3.32468 0
M  V30 20305 O 1914.13 1.58051 -3.69301 0
M  V30 20306 N 1912.34 0.538506 -2.85567 0
M  V30 20307 H 1911.89 -0.304834 -2.5579 0
M  V30 20308 H 1911.85 1.4053 -2.81245 0
M  V30 20309 N 1915.62 1.13835 -1.08993 0
M  V30 20310 C 1916.85 1.88861 -0.844923 0
M  V30 20311 C 1917.26 1.78897 0.603444 0
M  V30 20312 O 1916.62 1.15246 1.41508 0
M  V30 20313 C 1916.67 3.38622 -1.26559 0
M  V30 20314 O 1916.39 3.48321 -2.65714 0
M  V30 20315 C 1917.89 4.30629 -1.05232 0
M  V30 20316 H 1915.11 0.598038 -0.304288 0
M  V30 20317 H 1917.65 1.44129 -1.45076 0
M  V30 20318 H 1915.81 3.80954 -0.703737 0
M  V30 20319 H 1916.22 4.41387 -2.83333 0
M  V30 20320 H 1917.7 5.34057 -1.39598 0
M  V30 20321 H 1918.17 4.39199 0.0102308 0
M  V30 20322 H 1918.78 3.9406 -1.5999 0
M  V30 20323 N 1917.1 0.876467 1.3098 0
M  V30 20324 C 1918.32 0.504524 2.0117 0
M  V30 20325 C 1918.75 -0.897295 1.65319 0
M  V30 20326 O 1918.1 -1.59321 0.865255 0
M  V30 20327 C 1918.15 0.676516 3.54197 0
M  V30 20328 O 1917.26 -0.28134 4.11439 0
M  V30 20329 H 1916.6 0.199855 0.633209 0
M  V30 20330 H 1919.13 1.18167 1.67026 0
M  V30 20331 H 1919.14 0.572273 4.03967 0
M  V30 20332 H 1917.81 1.69864 3.7963 0
M  V30 20333 H 1916.39 -0.131506 3.72668 0
M  V30 20334 N 1918.57 -1.44173 0.636557 0
M  V30 20335 C 1919.51 -2.28966 -0.103602 0
M  V30 20336 C 1920.52 -1.41586 -0.80357 0
M  V30 20337 O 1921.71 -1.65686 -0.66411 0
M  V30 20338 C 1918.81 -3.18095 -1.16913 0
M  V30 20339 C 1917.98 -4.33921 -0.550607 0
M  V30 20340 C 1917.04 -5.04044 -1.51081 0
M  V30 20341 O 1916.07 -5.59879 -1.02585 0
M  V30 20342 N 1917.27 -5.05999 -2.84509 0
M  V30 20343 H 1920.03 -2.93129 0.624119 0
M  V30 20344 H 1917.59 -1.54679 0.478112 0
M  V30 20345 H 1919.59 -3.61872 -1.81193 0
M  V30 20346 H 1918.16 -2.55645 -1.79902 0
M  V30 20347 H 1917.38 -3.93268 0.27093 0
M  V30 20348 H 1918.66 -5.08663 -0.118116 0
M  V30 20349 H 1918.06 -4.61978 -3.26486 0
M  V30 20350 H 1916.62 -5.53547 -3.44135 0
M  V30 20351 N 1920.05 -0.377435 -1.53014 0
M  V30 20352 C 1920.98 0.507261 -2.22491 0
M  V30 20353 C 1921.96 1.07358 -1.22119 0
M  V30 20354 O 1923.15 1.12747 -1.51064 0
M  V30 20355 C 1920.27 1.70101 -2.92888 0
M  V30 20356 C 1919.32 1.26105 -4.07431 0
M  V30 20357 S 1920.15 0.252451 -5.34905 0
M  V30 20358 C 1921.31 1.45225 -6.08819 0
M  V30 20359 H 1921.54 -0.0827563 -2.97185 0
M  V30 20360 H 1919.07 -0.161576 -1.53552 0
M  V30 20361 H 1921.03 2.38569 -3.34059 0
M  V30 20362 H 1919.69 2.2623 -2.17896 0
M  V30 20363 H 1918.89 2.15202 -4.55745 0
M  V30 20364 H 1918.49 0.655438 -3.68212 0
M  V30 20365 H 1920.78 2.38133 -6.3427 0
M  V30 20366 H 1921.72 1.01026 -7.00856 0
M  V30 20367 H 1922.13 1.66368 -5.39427 0
M  V30 20368 N 1921.53 1.57237 -0.106922 0
M  V30 20369 C 1922.48 2.15912 0.865145 0
M  V30 20370 C 1923.47 1.1051 1.2839 0
M  V30 20371 O 1924.68 1.28834 1.25705 0
M  V30 20372 H 1921.05 0.690837 0.297065 0
M  V30 20373 H 1923.02 2.96391 0.345677 0
M  V30 20374 C 1921.77 2.76355 2.11005 0
M  V30 20375 H 1921.1 3.57152 1.79674 0
M  V30 20376 H 1922.54 3.20963 2.77053 0
M  V30 20377 C 1921 1.72834 2.89188 0
M  V30 20378 O 1921.53 1.1744 3.84149 0
M  V30 20379 N 1919.73 1.43053 2.52951 0
M  V30 20380 H 1919.28 1.88289 1.75798 0
M  V30 20381 H 1919.24 0.740287 3.0556 0
M  V30 20382 N 1923.01 -0.166818 1.56715 0
M  V30 20383 C 1924.24 -0.896867 1.86118 0
M  V30 20384 C 1924.65 -1.76139 0.690784 0
M  V30 20385 O 1923.99 -1.80351 -0.349191 0
M  V30 20386 C 1924.05 -1.82064 3.09989 0
M  V30 20387 C 1923.72 -1.13527 4.42674 0
M  V30 20388 C 1924.71 -0.498585 5.17504 0
M  V30 20389 C 1922.4 -1.13069 4.89409 0
M  V30 20390 C 1924.39 0.13354 6.3726 0
M  V30 20391 C 1922.08 -0.494741 6.09094 0
M  V30 20392 C 1923.08 0.136265 6.82864 0
M  V30 20393 O 1922.76 0.762174 8.00279 0
M  V30 20394 H 1922.5 -0.265765 0.621567 0
M  V30 20395 H 1925.05 -0.170384 2.04692 0
M  V30 20396 H 1923.28 -2.58756 2.87372 0
M  V30 20397 H 1924.97 -2.42092 3.25801 0
M  V30 20398 H 1925.74 -0.494073 4.82477 0
M  V30 20399 H 1921.61 -1.61124 4.31926 0
M  V30 20400 H 1925.16 0.626661 6.9478 0
M  V30 20401 H 1921.06 -0.496852 6.43585 0
M  V30 20402 H 1921.82 0.66187 8.1582 0
M  V30 20403 N 1924.49 -1.51463 -0.435524 0
M  V30 20404 C 1925.73 -1.63897 -1.18247 0
M  V30 20405 C 1926.06 -0.358322 -1.9168 0
M  V30 20406 O 1925.33 0.625888 -1.85633 0
M  V30 20407 H 1923.91 -0.60404 -0.439482 0
M  V30 20408 H 1926.57 -1.884 -0.49915 0
M  V30 20409 H 1925.66 -2.46749 -1.91105 0
M  V30 20410 N 1925.96 0.691085 -1.4164 0
M  V30 20411 C 1926.9 1.81547 -1.3826 0
M  V30 20412 C 1927.88 1.60679 -0.249192 0
M  V30 20413 O 1929.06 1.83369 -0.436821 0
M  V30 20414 C 1926.19 3.18298 -1.15777 0
M  V30 20415 C 1925.23 3.57948 -2.31896 0
M  V30 20416 S 1926.07 3.6224 -3.94388 0
M  V30 20417 C 1927.22 5.0171 -3.74217 0
M  V30 20418 H 1927.45 1.84138 -2.33411 0
M  V30 20419 H 1924.99 0.860221 -1.28217 0
M  V30 20420 H 1926.95 3.9724 -1.03492 0
M  V30 20421 H 1925.61 3.13312 -0.222389 0
M  V30 20422 H 1924.8 4.57304 -2.1187 0
M  V30 20423 H 1924.4 2.86325 -2.40612 0
M  V30 20424 H 1926.69 5.89336 -3.342 0
M  V30 20425 H 1927.64 5.26778 -4.73192 0
M  V30 20426 H 1928.04 4.73459 -3.07403 0
M  V30 20427 N 1927.44 1.27542 0.925789 0
M  V30 20428 C 1928.37 1.06229 2.03096 0
M  V30 20429 C 1929.39 0.0177734 1.6279 0
M  V30 20430 O 1930.58 0.259539 1.76603 0
M  V30 20431 C 1927.68 0.589777 3.33729 0
M  V30 20432 C 1926.85 1.70701 4.02716 0
M  V30 20433 C 1925.91 1.22991 5.11624 0
M  V30 20434 O 1924.93 1.92993 5.35483 0
M  V30 20435 N 1926.14 0.086593 5.80435 0
M  V30 20436 H 1928.9 2.01401 2.21941 0
M  V30 20437 H 1926.46 1.19134 1.0963 0
M  V30 20438 H 1928.45 0.254459 4.03899 0
M  V30 20439 H 1927.02 -0.268762 3.11443 0
M  V30 20440 H 1926.24 2.21252 3.26253 0
M  V30 20441 H 1927.53 2.45679 4.45555 0
M  V30 20442 H 1926.93 -0.497638 5.63507 0
M  V30 20443 H 1925.49 -0.189533 6.51524 0
M  V30 20444 N 1928.92 -1.13255 1.09595 0
M  V30 20445 C 1930.33 -1.66118 0.852147 0
M  V30 20446 C 1930.68 -1.86177 -0.61909 0
M  V30 20447 O 1929.81 -1.58186 -1.47669 0
M  V30 20448 C 1930.4 -3.0176 1.54034 0
M  V30 20449 C 1928.96 -3.51608 1.34347 0
M  V30 20450 C 1928.11 -2.26815 1.59531 0
M  V30 20451 H 1931.06 -0.971539 1.25486 0
M  V30 20452 H 1931.08 -3.67812 0.974418 0
M  V30 20453 H 1930.59 -2.87129 2.6111 0
M  V30 20454 H 1928.69 -3.71439 0.293951 0
M  V30 20455 H 1928.81 -4.31618 2.07949 0
M  V30 20456 H 1927.17 -2.33492 1.01753 0
M  V30 20457 H 1927.95 -2.14748 2.6784 0
M  V30 20458 N 1930.4 -0.883401 -1.30514 0
M  V30 20459 C 1931.63 -0.515948 -2.00364 0
M  V30 20460 C 1932.04 0.895148 -1.6623 0
M  V30 20461 O 1931.4 1.58844 -0.898601 0
M  V30 20462 C 1931.45 -0.679282 -3.55061 0
M  V30 20463 O 1931.17 -2.03482 -3.87978 0
M  V30 20464 C 1932.67 -0.314612 -4.42182 0
M  V30 20465 H 1929.89 -0.199595 -0.640627 0
M  V30 20466 H 1932.44 -1.18827 -1.66435 0
M  V30 20467 H 1930.59 -0.0543511 -3.87362 0
M  V30 20468 H 1931 -2.0523 -4.82681 0
M  V30 20469 H 1932.48 -0.4798 -5.49911 0
M  V30 20470 H 1932.96 0.747247 -4.32797 0
M  V30 20471 H 1933.56 -0.9158 -4.15323 0
M  V30 20472 N 1931.88 1.43833 -0.644194 0
M  V30 20473 C 1933.12 2.01515 -0.153623 0
M  V30 20474 C 1933.45 1.51022 1.23358 0
M  V30 20475 O 1932.72 0.719137 1.82223 0
M  V30 20476 H 1931.3 0.74506 -0.053802 0
M  V30 20477 H 1933.96 1.76163 -0.833833 0
M  V30 20478 H 1933.05 3.11824 -0.131313 0
M  V30 20479 N 1933.35 0.385544 1.52811 0
M  V30 20480 C 1934.58 -0.200568 2.06428 0
M  V30 20481 C 1935 -1.40049 1.2557 0
M  V30 20482 O 1934.36 -1.79128 0.279782 0
M  V30 20483 C 1934.41 -0.552623 3.5634 0
M  V30 20484 O 1933.51 -1.64711 3.7808 0
M  V30 20485 H 1932.86 -0.0244676 0.663549 0
M  V30 20486 H 1935.39 0.551927 1.97015 0
M  V30 20487 H 1935.4 -0.817996 3.99716 0
M  V30 20488 H 1934.07 0.324665 4.14631 0
M  V30 20489 H 1932.65 -1.37574 3.46595 0
M  V30 20490 N 1934.83 -1.57178 0.115259 0
M  V30 20491 C 1936.24 -1.82126 -0.410715 0
M  V30 20492 C 1936.59 -1.03219 -1.66854 0
M  V30 20493 O 1935.72 -0.267639 -2.14739 0
M  V30 20494 C 1936.31 -3.30351 -0.751923 0
M  V30 20495 C 1934.87 -3.55993 -1.22255 0
M  V30 20496 C 1934.02 -2.7635 -0.229344 0
M  V30 20497 H 1936.97 -1.55005 0.340441 0
M  V30 20498 H 1936.99 -3.44775 -1.60968 0
M  V30 20499 H 1936.5 -3.87754 0.163726 0
M  V30 20500 H 1934.61 -3.03942 -2.15522 0
M  V30 20501 H 1934.72 -4.64583 -1.17046 0
M  V30 20502 H 1933.08 -2.4444 -0.715621 0
M  V30 20503 H 1933.87 -3.36511 0.679337 0
M  V30 20504 N 1936.31 0.158505 -1.56801 0
M  V30 20505 C 1937.72 0.71972 -1.7227 0
M  V30 20506 C 1938.07 1.822 -0.72784 0
M  V30 20507 O 1937.2 2.1613 0.108043 0
M  V30 20508 C 1937.79 1.31231 -3.12352 0
M  V30 20509 C 1936.35 1.82021 -3.29462 0
M  V30 20510 C 1935.5 0.704157 -2.68211 0
M  V30 20511 H 1938.45 -0.0670395 -1.58558 0
M  V30 20512 H 1938.47 2.18208 -3.11714 0
M  V30 20513 H 1937.98 0.509823 -3.84737 0
M  V30 20514 H 1936.08 2.64873 -2.62056 0
M  V30 20515 H 1936.2 1.95684 -4.37315 0
M  V30 20516 H 1934.56 1.12787 -2.28366 0
M  V30 20517 H 1935.34 -0.0866929 -3.43191 0
M  V30 20518 N 1937.79 1.51692 0.427485 0
M  V30 20519 C 1939.2 1.57214 1.007 0
M  V30 20520 C 1939.55 0.401527 1.92047 0
M  V30 20521 O 1938.68 -0.480464 2.10999 0
M  V30 20522 C 1939.27 2.84927 1.83309 0
M  V30 20523 C 1937.83 2.92989 2.36294 0
M  V30 20524 C 1936.98 2.51977 1.15772 0
M  V30 20525 H 1939.93 1.57326 0.208386 0
M  V30 20526 H 1939.95 2.69245 2.68863 0
M  V30 20527 H 1939.46 3.70108 1.16799 0
M  V30 20528 H 1937.56 2.1226 3.06229 0
M  V30 20529 H 1937.68 3.9685 2.68416 0
M  V30 20530 H 1936.04 2.054 1.50608 0
M  V30 20531 H 1936.82 3.39512 0.508568 0
M  V30 20532 N 1939.27 -0.683564 1.42004 0
M  V30 20533 C 1940.49 -1.47711 1.45589 0
M  V30 20534 C 1940.92 -1.87984 0.0661307 0
M  V30 20535 O 1940.28 -1.55425 -0.933428 0
M  V30 20536 C 1940.32 -2.70824 2.3809 0
M  V30 20537 O 1939.43 -3.68766 1.84622 0
M  V30 20538 H 1938.77 -0.444102 0.493629 0
M  V30 20539 H 1941.3 -0.839192 1.86598 0
M  V30 20540 H 1941.31 -3.18996 2.54373 0
M  V30 20541 H 1939.98 -2.4085 3.39063 0
M  V30 20542 H 1938.56 -3.27756 1.77849 0
M  V30 20543 N 1940.75 -1.28031 -0.919012 0
M  V30 20544 C 1941.97 -1.17828 -1.70679 0
M  V30 20545 C 1942.4 0.260207 -1.86292 0
M  V30 20546 O 1941.75 1.18833 -1.36925 0
M  V30 20547 C 1941.8 -1.87626 -3.07943 0
M  V30 20548 O 1940.91 -1.18014 -3.95154 0
M  V30 20549 H 1940.25 -0.40932 -0.522832 0
M  V30 20550 H 1942.78 -1.69258 -1.14947 0
M  V30 20551 H 1942.79 -1.95327 -3.58206 0
M  V30 20552 H 1941.46 -2.92263 -2.95897 0
M  V30 20553 H 1940.04 -1.18441 -3.5359 0
M  V30 20554 N 1942.22 1.12672 -1.10194 0
M  V30 20555 C 1943.15 2.20422 -0.770492 0
M  V30 20556 C 1944.13 1.68172 0.25541 0
M  V30 20557 O 1945.32 1.93818 0.121728 0
M  V30 20558 C 1942.45 3.4673 -0.198815 0
M  V30 20559 C 1941.4 4.12118 -1.15512 0
M  V30 20560 C 1940.73 5.32847 -0.444768 0
M  V30 20561 C 1942.03 4.58542 -2.50073 0
M  V30 20562 H 1943.72 2.48404 -1.67141 0
M  V30 20563 H 1941.27 1.19392 -0.805077 0
M  V30 20564 H 1943.22 4.21376 0.0451853 0
M  V30 20565 H 1941.95 3.18168 0.737331 0
M  V30 20566 H 1940.61 3.3945 -1.38453 0
M  V30 20567 H 1940.25 5.00551 0.49577 0
M  V30 20568 H 1939.95 5.77543 -1.08247 0
M  V30 20569 H 1941.48 6.10241 -0.209255 0
M  V30 20570 H 1942.89 5.24572 -2.31294 0
M  V30 20571 H 1941.29 5.14007 -3.09704 0
M  V30 20572 H 1942.36 3.72654 -3.10254 0
M  V30 20573 N 1943.7 0.89031 1.30043 0
M  V30 20574 C 1944.93 0.525833 2.00623 0
M  V30 20575 C 1945.35 -0.87971 1.66261 0
M  V30 20576 O 1944.71 -1.58394 0.882105 0
M  V30 20577 C 1944.76 0.714046 3.5346 0
M  V30 20578 O 1943.86 -0.237685 4.11714 0
M  V30 20579 H 1943.2 0.20656 0.631054 0
M  V30 20580 H 1945.73 1.19932 1.65763 0
M  V30 20581 H 1945.74 0.615086 4.03337 0
M  V30 20582 H 1944.42 1.73881 3.77807 0
M  V30 20583 H 1942.99 -0.0919722 3.72787 0
M  V30 20584 N 1945.18 -1.43489 0.651812 0
M  V30 20585 C 1946.41 -2.06181 0.172334 0
M  V30 20586 C 1946.82 -1.48848 -1.16145 0
M  V30 20587 O 1946.18 -0.619246 -1.71673 0
M  V30 20588 C 1946.23 -3.61425 0.0737039 0
M  V30 20589 O 1945.95 -4.16627 1.35476 0
M  V30 20590 C 1947.45 -4.4119 -0.432019 0
M  V30 20591 H 1944.67 -0.665039 0.0892394 0
M  V30 20592 H 1947.22 -1.84018 0.892063 0
M  V30 20593 H 1945.37 -3.82779 -0.596577 0
M  V30 20594 H 1945.79 -5.1028 1.21305 0
M  V30 20595 H 1947.26 -5.50163 -0.449989 0
M  V30 20596 H 1947.74 -4.14115 -1.46306 0
M  V30 20597 H 1948.34 -4.24802 0.205721 0
M  V30 20598 N 1946.66 -0.393643 -1.52605 0
M  V30 20599 C 1947.89 0.1871 -2.06052 0
M  V30 20600 C 1948.3 1.40154 -1.26501 0
M  V30 20601 O 1947.66 1.798 -0.31279 0
M  V30 20602 C 1947.71 0.552918 -3.57246 0
M  V30 20603 O 1947.43 -0.613274 -4.33786 0
M  V30 20604 C 1948.93 1.18906 -4.27055 0
M  V30 20605 H 1946.15 0.0272042 -0.670448 0
M  V30 20606 H 1948.69 -0.560126 -1.9668 0
M  V30 20607 H 1946.85 1.25004 -3.66678 0
M  V30 20608 H 1947.26 -0.311611 -5.23574 0
M  V30 20609 H 1948.74 1.39535 -5.34073 0
M  V30 20610 H 1949.21 2.15768 -3.82545 0
M  V30 20611 H 1949.82 0.532579 -4.21952 0
M  V30 20612 N 1948.14 1.57115 -0.123593 0
M  V30 20613 C 1949.36 2.00133 0.544196 0
M  V30 20614 C 1949.79 1.00282 1.59139 0
M  V30 20615 O 1949.14 -0.0248396 1.81283 0
M  V30 20616 C 1949.19 3.4201 1.14287 0
M  V30 20617 O 1948.3 3.45071 2.25832 0
M  V30 20618 H 1947.64 0.650029 0.135492 0
M  V30 20619 H 1950.17 2.03484 -0.213423 0
M  V30 20620 H 1950.18 3.80316 1.47728 0
M  V30 20621 H 1948.85 4.14198 0.375866 0
M  V30 20622 H 1947.43 3.18587 1.93795 0
M  V30 20623 N 1949.61 -0.150187 1.56883 0
M  V30 20624 C 1951.02 -0.710574 1.72649 0
M  V30 20625 C 1951.38 -1.81812 0.737493 0
M  V30 20626 O 1950.5 -2.16184 -0.0965795 0
M  V30 20627 C 1951.1 -1.29572 3.13044 0
M  V30 20628 C 1949.65 -1.80271 3.30423 0
M  V30 20629 C 1948.8 -0.689923 2.6858 0
M  V30 20630 H 1951.75 0.0754473 1.58521 0
M  V30 20631 H 1951.77 -2.16552 3.12867 0
M  V30 20632 H 1951.29 -0.489412 3.85002 0
M  V30 20633 H 1949.39 -2.63479 2.63457 0
M  V30 20634 H 1949.5 -1.93362 4.38347 0
M  V30 20635 H 1947.86 -1.11574 2.28961 0
M  V30 20636 H 1948.65 0.104892 3.4314 0
M  V30 20637 N 1951.09 -1.51916 -0.419434 0
M  V30 20638 C 1952.34 -1.64698 -1.16436 0
M  V30 20639 C 1952.65 -0.377878 -1.91915 0
M  V30 20640 O 1953.86 -0.385341 -2.68752 0
M  V30 20641 C 1952.32 -2.90939 -2.11854 0
M  V30 20642 C 1951.92 -4.2492 -1.4194 0
M  V30 20643 C 1953.67 -3.13083 -2.86669 0
M  V30 20644 C 1951.58 -5.42294 -2.35946 0
M  V30 20645 H 1950.51 -0.613496 -0.438337 0
M  V30 20646 H 1953.16 -1.78397 -0.429738 0
M  V30 20647 H 1951.54 -2.70916 -2.88826 0
M  V30 20648 H 1952.71 -4.5539 -0.70403 0
M  V30 20649 H 1951.03 -4.08797 -0.792071 0
M  V30 20650 H 1953.62 -3.97951 -3.57127 0
M  V30 20651 H 1953.97 -2.26891 -3.49036 0
M  V30 20652 H 1954.5 -3.33531 -2.168 0
M  V30 20653 H 1951.24 -6.30801 -1.78242 0
M  V30 20654 H 1950.76 -5.16177 -3.05485 0
M  V30 20655 H 1952.44 -5.74962 -2.96695 0
M  V30 20656 N 1952.57 0.676023 -1.42365 0
M  V30 20657 C 1953.53 1.77138 -1.45446 0
M  V30 20658 C 1954.53 1.57116 -0.342226 0
M  V30 20659 O 1955.72 1.63431 -0.602999 0
M  V30 20660 C 1952.86 3.15757 -1.28492 0
M  V30 20661 H 1954.05 1.75794 -2.42974 0
M  V30 20662 H 1951.6 0.885538 -1.28794 0
M  V30 20663 H 1952.34 3.22729 -0.318815 0
M  V30 20664 H 1952.12 3.31694 -2.09097 0
M  V30 20665 H 1953.61 3.95677 -1.33528 0
M  V30 20666 N 1954.05 1.28517 0.912209 0
M  V30 20667 C 1955.3 1.15532 1.65822 0
M  V30 20668 C 1955.62 -0.296177 1.92738 0
M  V30 20669 O 1954.89 -1.20492 1.54462 0
M  V30 20670 H 1953.47 0.424573 0.614611 0
M  V30 20671 H 1956.13 1.61267 1.09448 0
M  V30 20672 H 1955.23 1.69606 2.61993 0
M  V30 20673 N 1955.53 -1.12086 1.1079 0
M  V30 20674 C 1956.49 -2.16111 0.763446 0
M  V30 20675 C 1957.49 -1.59371 -0.213903 0
M  V30 20676 O 1958.68 -1.74197 0.00972099 0
M  V30 20677 C 1955.81 -3.40646 0.131488 0
M  V30 20678 H 1957 -2.48096 1.68489 0
M  V30 20679 H 1954.56 -1.27156 0.908896 0
M  V30 20680 H 1955.29 -3.14265 -0.800507 0
M  V30 20681 H 1955.08 -3.83108 0.834928 0
M  V30 20682 H 1956.57 -4.17495 -0.0936165 0
M  V30 20683 N 1957 -0.897194 -1.29569 0
M  V30 20684 C 1957.93 -0.389601 -2.30227 0
M  V30 20685 C 1958.92 0.53405 -1.61499 0
M  V30 20686 O 1960.1 0.44531 -1.89025 0
M  V30 20687 C 1957.23 0.385966 -3.45149 0
M  V30 20688 C 1956.18 -0.447028 -4.25659 0
M  V30 20689 C 1955.51 0.455883 -5.32753 0
M  V30 20690 C 1956.81 -1.69562 -4.9401 0
M  V30 20691 H 1958.5 -1.23077 -2.72933 0
M  V30 20692 H 1956.05 -0.593265 -1.31211 0
M  V30 20693 H 1958 0.751791 -4.1464 0
M  V30 20694 H 1956.73 1.26089 -3.01279 0
M  V30 20695 H 1955.39 -0.795152 -3.57873 0
M  V30 20696 H 1955.03 1.32887 -4.85129 0
M  V30 20697 H 1954.73 -0.0977528 -5.87519 0
M  V30 20698 H 1956.26 0.817956 -6.05097 0
M  V30 20699 H 1957.67 -1.39968 -5.55951 0
M  V30 20700 H 1956.07 -2.19039 -5.58697 0
M  V30 20701 H 1957.14 -2.43305 -4.19441 0
M  V30 20702 N 1958.48 1.43142 -0.659413 0
M  V30 20703 C 1959.71 2.06087 -0.183265 0
M  V30 20704 C 1960.13 1.49462 1.15354 0
M  V30 20705 O 1959.48 0.628341 1.71342 0
M  V30 20706 C 1959.53 3.61381 -0.0928701 0
M  V30 20707 O 1959.25 4.15902 -1.37684 0
M  V30 20708 C 1960.76 4.41413 0.408616 0
M  V30 20709 H 1957.98 0.664557 -0.092765 0
M  V30 20710 H 1960.52 1.83542 -0.901809 0
M  V30 20711 H 1958.67 3.8309 0.576268 0
M  V30 20712 H 1959.09 5.09629 -1.24009 0
M  V30 20713 H 1960.56 5.50394 0.420806 0
M  V30 20714 H 1961.04 4.14885 1.44108 0
M  V30 20715 H 1961.65 4.24687 -0.228247 0
M  V30 20716 N 1959.96 0.40173 1.52394 0
M  V30 20717 C 1961.21 -0.17672 2.02029 0
M  V30 20718 C 1961.54 -1.45417 1.28715 0
M  V30 20719 O 1960.81 -1.90524 0.391263 0
M  V30 20720 C 1961.1 -0.43198 3.575 0
M  V30 20721 C 1960.95 0.861628 4.4147 0
M  V30 20722 C 1962.27 -1.2173 4.2293 0
M  V30 20723 H 1959.39 -0.0627536 0.734323 0
M  V30 20724 H 1962.03 0.533742 1.82349 0
M  V30 20725 H 1960.18 -1.03719 3.74399 0
M  V30 20726 H 1961.85 1.49808 4.36297 0
M  V30 20727 H 1960.1 1.47424 4.07981 0
M  V30 20728 H 1960.77 0.637511 5.48306 0
M  V30 20729 H 1963.24 -0.704996 4.10084 0
M  V30 20730 H 1962.12 -1.36465 5.31666 0
M  V30 20731 H 1962.38 -2.23592 3.81391 0
M  V30 20732 N 1961.44 -1.57047 0.131923 0
M  V30 20733 C 1962.67 -1.99989 -0.530289 0
M  V30 20734 C 1963.08 -1.01182 -1.59397 0
M  V30 20735 O 1962.44 -0.00657368 -1.82499 0
M  V30 20736 C 1962.49 -3.42898 -1.14469 0
M  V30 20737 O 1962.21 -4.37926 -0.123503 0
M  V30 20738 C 1963.71 -4.0104 -1.88897 0
M  V30 20739 H 1960.93 -0.656371 -0.139348 0
M  V30 20740 H 1963.48 -2.03291 0.222069 0
M  V30 20741 H 1961.63 -3.40495 -1.84775 0
M  V30 20742 H 1962.04 -5.21376 -0.571587 0
M  V30 20743 H 1963.52 -5.03077 -2.27196 0
M  V30 20744 H 1964 -3.40903 -2.76915 0
M  V30 20745 H 1964.6 -4.07027 -1.23324 0
M  V30 20746 N 1962.92 0.141865 -1.5696 0
M  V30 20747 C 1964.33 0.701408 -1.73024 0
M  V30 20748 C 1964.68 1.81418 -0.747124 0
M  V30 20749 O 1963.8 2.16233 0.0851134 0
M  V30 20750 C 1964.4 1.2791 -3.13727 0
M  V30 20751 C 1962.96 1.78516 -3.31374 0
M  V30 20752 C 1962.1 0.67567 -2.68942 0
M  V30 20753 H 1965.06 -0.083853 -1.58478 0
M  V30 20754 H 1965.08 2.1489 -3.14011 0
M  V30 20755 H 1964.59 0.468988 -3.85256 0
M  V30 20756 H 1962.69 2.62078 -2.6485 0
M  V30 20757 H 1962.8 1.91034 -4.39366 0
M  V30 20758 H 1961.17 1.10358 -2.2955 0
M  V30 20759 H 1961.95 -0.123088 -3.43079 0
M  V30 20760 N 1964.39 1.52136 0.411372 0
M  V30 20761 C 1965.64 1.65757 1.15624 0
M  V30 20762 C 1965.96 0.388771 1.91085 0
M  V30 20763 O 1965.23 -0.596276 1.86605 0
M  V30 20764 H 1963.81 0.610955 0.429817 0
M  V30 20765 H 1966.48 1.8917 0.469114 0
M  V30 20766 H 1965.57 2.49759 1.87155 0
M  V30 20767 N 1965.87 -0.668464 1.42721 0
M  V30 20768 C 1966.81 -1.79325 1.41131 0
M  V30 20769 C 1967.78 -1.60262 0.274724 0
M  V30 20770 O 1968.97 -1.82651 0.465938 0
M  V30 20771 C 1966.1 -3.16415 1.20826 0
M  V30 20772 C 1965.14 -3.54213 2.37561 0
M  V30 20773 S 1965.97 -3.5592 4.00101 0
M  V30 20774 C 1967.13 -4.95693 3.82151 0
M  V30 20775 H 1967.36 -1.80401 2.36311 0
M  V30 20776 H 1964.9 -0.839714 1.29569 0
M  V30 20777 H 1966.85 -3.95543 1.09798 0
M  V30 20778 H 1965.52 -3.12918 0.272206 0
M  V30 20779 H 1964.71 -4.53876 2.19119 0
M  V30 20780 H 1964.31 -2.82461 2.45136 0
M  V30 20781 H 1966.6 -5.83944 3.43534 0
M  V30 20782 H 1967.55 -5.19183 4.81512 0
M  V30 20783 H 1967.95 -4.68509 3.14896 0
M  V30 20784 N 1967.35 -1.28999 -0.905381 0
M  V30 20785 C 1968.76 -1.15033 -1.47052 0
M  V30 20786 C 1969.11 0.256623 -1.94514 0
M  V30 20787 O 1968.24 1.15164 -1.83211 0
M  V30 20788 C 1968.83 -2.08213 -2.67269 0
M  V30 20789 C 1967.39 -1.98286 -3.19937 0
M  V30 20790 C 1966.54 -1.99468 -1.92634 0
M  V30 20791 H 1969.49 -1.41566 -0.717271 0
M  V30 20792 H 1969.51 -1.65102 -3.42814 0
M  V30 20793 H 1969.02 -3.10604 -2.32695 0
M  V30 20794 H 1967.12 -0.98963 -3.59217 0
M  V30 20795 H 1967.24 -2.85666 -3.84619 0
M  V30 20796 H 1965.6 -1.43988 -2.10094 0
M  V30 20797 H 1966.38 -3.03554 -1.60344 0
M  V30 20798 N 1968.83 1.11497 -1.11383 0
M  V30 20799 C 1970.08 1.83494 -0.863592 0
M  V30 20800 C 1970.41 1.84395 0.609259 0
M  V30 20801 O 1969.68 1.2966 1.44978 0
M  V30 20802 C 1969.97 3.30701 -1.42509 0
M  V30 20803 C 1969.82 3.38197 -2.96552 0
M  V30 20804 C 1971.14 4.26756 -1.07553 0
M  V30 20805 H 1968.26 0.666209 -0.315173 0
M  V30 20806 H 1970.9 1.30745 -1.37861 0
M  V30 20807 H 1969.05 3.75752 -0.987053 0
M  V30 20808 H 1970.72 3.01709 -3.48955 0
M  V30 20809 H 1968.96 2.78436 -3.3265 0
M  V30 20810 H 1969.64 4.41804 -3.30927 0
M  V30 20811 H 1972.11 3.89882 -1.45367 0
M  V30 20812 H 1970.99 5.28143 -1.49519 0
M  V30 20813 H 1971.25 4.42098 0.0137773 0
M  V30 20814 N 1970.31 0.904053 1.29092 0
M  V30 20815 C 1971.72 0.580096 1.77459 0
M  V30 20816 C 1972.07 -0.904375 1.74113 0
M  V30 20817 O 1971.19 -1.70724 1.32975 0
M  V30 20818 C 1971.79 1.04624 3.22241 0
M  V30 20819 C 1970.35 0.773375 3.68369 0
M  V30 20820 C 1969.5 1.21848 2.49095 0
M  V30 20821 H 1972.45 1.08633 1.15692 0
M  V30 20822 H 1972.47 0.383425 3.78563 0
M  V30 20823 H 1971.98 2.12669 3.24644 0
M  V30 20824 H 1970.08 -0.294271 3.71436 0
M  V30 20825 H 1970.19 1.37431 4.58966 0
M  V30 20826 H 1968.56 0.63739 2.46596 0
M  V30 20827 H 1969.34 2.30706 2.54223 0
M  V30 20828 N 1971.79 -1.4279 0.666995 0
M  V30 20829 C 1973.03 -2.02464 0.194957 0
M  V30 20830 C 1973.39 -1.51758 -1.18268 0
M  V30 20831 O 1972.68 -0.706754 -1.78089 0
M  V30 20832 C 1972.87 -3.57038 0.160763 0
M  V30 20833 C 1972.7 -4.22744 1.53354 0
M  V30 20834 C 1971.47 -4.58242 2.12937 0
M  V30 20835 C 1973.67 -4.50848 2.47469 0
M  V30 20836 N 1971.65 -5.09089 3.43077 0
M  V30 20837 C 1973.02 -5.03161 3.62255 0
M  V30 20838 C 1975.08 -4.32828 2.46098 0
M  V30 20839 C 1973.78 -5.3935 4.75914 0
M  V30 20840 C 1975.81 -4.70089 3.58846 0
M  V30 20841 C 1975.17 -5.22547 4.7236 0
M  V30 20842 H 1971.27 -0.773336 0.116084 0
M  V30 20843 H 1973.85 -1.73765 0.87829 0
M  V30 20844 H 1972.02 -3.85272 -0.491957 0
M  V30 20845 H 1973.76 -4.03406 -0.32343 0
M  V30 20846 H 1970.51 -4.4374 1.65505 0
M  V30 20847 H 1970.93 -5.3895 4.09709 0
M  V30 20848 H 1975.58 -3.91533 1.59568 0
M  V30 20849 H 1973.29 -5.79583 5.63125 0
M  V30 20850 H 1976.88 -4.5783 3.59003 0
M  V30 20851 H 1975.76 -5.50842 5.5816 0
M  V30 20852 N 1973.26 -0.409806 -1.52179 0
M  V30 20853 C 1974.67 0.0596356 -1.86605 0
M  V30 20854 C 1975.03 1.44377 -1.32852 0
M  V30 20855 O 1974.15 2.05829 -0.668074 0
M  V30 20856 C 1974.75 0.114992 -3.38605 0
M  V30 20857 C 1973.3 0.528771 -3.72667 0
M  V30 20858 C 1972.45 -0.29629 -2.75713 0
M  V30 20859 H 1975.4 -0.626843 -1.45796 0
M  V30 20860 H 1975.42 0.930114 -3.68957 0
M  V30 20861 H 1974.94 -0.892535 -3.77698 0
M  V30 20862 H 1973.04 1.54291 -3.39153 0
M  V30 20863 H 1973.15 0.272687 -4.78323 0
M  V30 20864 H 1971.51 0.241468 -2.53553 0
M  V30 20865 H 1972.3 -1.30218 -3.17645 0
M  V30 20866 N 1974.74 1.56975 -0.14025 0
M  V30 20867 C 1975.99 1.95081 0.512469 0
M  V30 20868 C 1976.3 1.02722 1.66456 0
M  V30 20869 O 1977.51 1.3038 2.38146 0
M  V30 20870 C 1975.97 3.46775 0.963057 0
M  V30 20871 C 1975.57 4.47708 -0.161733 0
M  V30 20872 C 1977.32 3.93761 1.58595 0
M  V30 20873 C 1975.22 5.90604 0.306746 0
M  V30 20874 H 1974.15 0.72829 0.195216 0
M  V30 20875 H 1976.81 1.82134 -0.223514 0
M  V30 20876 H 1975.19 3.55032 1.7541 0
M  V30 20877 H 1976.36 4.51141 -0.938529 0
M  V30 20878 H 1974.68 4.10599 -0.692608 0
M  V30 20879 H 1977.27 4.97954 1.94796 0
M  V30 20880 H 1977.62 3.34931 2.47238 0
M  V30 20881 H 1978.15 3.88394 0.859928 0
M  V30 20882 H 1974.89 6.53238 -0.544152 0
M  V30 20883 H 1974.41 5.90546 1.04956 0
M  V30 20884 H 1976.09 6.42509 0.760989 0
M  V30 20885 N 1976.22 -0.133539 1.57033 0
M  V30 20886 C 1977.63 -0.692222 1.73393 0
M  V30 20887 C 1977.98 -1.81019 0.756735 0
M  V30 20888 O 1977.11 -2.16275 -0.0736448 0
M  V30 20889 C 1977.7 -1.26245 3.144 0
M  V30 20890 C 1976.26 -1.76756 3.32316 0
M  V30 20891 C 1975.41 -0.661397 2.69297 0
M  V30 20892 H 1978.36 0.0922563 1.58432 0
M  V30 20893 H 1978.38 -2.13221 3.15146 0
M  V30 20894 H 1977.89 -0.44855 3.85499 0
M  V30 20895 H 1975.99 -2.6067 2.66236 0
M  V30 20896 H 1976.11 -1.88702 4.40373 0
M  V30 20897 H 1974.47 -1.0914 2.30132 0
M  V30 20898 H 1975.25 0.141281 3.43009 0
M  V30 20899 N 1977.7 -1.52352 -0.403298 0
M  V30 20900 C 1978.93 -1.70554 -1.17128 0
M  V30 20901 C 1979.34 -0.417576 -1.84124 0
M  V30 20902 O 1978.7 0.606862 -1.72115 0
M  V30 20903 C 1978.75 -2.8452 -2.23004 0
M  V30 20904 O 1978.47 -4.08329 -1.58742 0
M  V30 20905 C 1979.97 -3.14281 -3.12638 0
M  V30 20906 H 1977.19 -0.571419 -0.35174 0
M  V30 20907 H 1979.73 -1.98937 -0.473734 0
M  V30 20908 H 1977.89 -2.58639 -2.88417 0
M  V30 20909 H 1978.3 -4.71878 -2.28979 0
M  V30 20910 H 1979.78 -3.97523 -3.82988 0
M  V30 20911 H 1980.25 -2.28071 -3.7534 0
M  V30 20912 H 1980.86 -3.41948 -2.52887 0
M  V30 20913 N 1979.18 0.660885 -1.43074 0
M  V30 20914 C 1980.4 1.44878 -1.47709 0
M  V30 20915 C 1980.82 1.88573 -0.092615 0
M  V30 20916 O 1980.18 1.59015 0.89558 0
M  V30 20917 C 1980.23 2.6888 -2.41632 0
M  V30 20918 O 1979.95 2.27015 -3.74694 0
M  V30 20919 C 1981.45 3.62312 -2.5543 0
M  V30 20920 H 1978.67 0.445326 -0.501922 0
M  V30 20921 H 1981.21 0.810882 -1.87736 0
M  V30 20922 H 1979.37 3.28827 -2.0482 0
M  V30 20923 H 1979.78 3.07191 -4.25128 0
M  V30 20924 H 1981.26 4.46007 -3.25241 0
M  V30 20925 H 1981.73 4.09148 -1.59671 0
M  V30 20926 H 1982.34 3.08251 -2.93021 0
M  V30 20927 N 1980.65 1.29477 0.898527 0
M  V30 20928 C 1981.88 1.20406 1.68255 0
M  V30 20929 C 1982.3 -0.235141 1.8733 0
M  V30 20930 O 1981.65 -1.15727 1.41115 0
M  V30 20931 C 1981.71 1.91451 3.06641 0
M  V30 20932 O 1981.43 3.29751 2.88437 0
M  V30 20933 C 1982.93 1.88871 4.01052 0
M  V30 20934 H 1980.15 0.417276 0.525473 0
M  V30 20935 H 1982.69 1.7087 1.12356 0
M  V30 20936 H 1980.85 1.4482 3.59313 0
M  V30 20937 H 1981.26 3.65548 3.76131 0
M  V30 20938 H 1982.73 2.43144 4.95566 0
M  V30 20939 H 1983.21 0.864507 4.30608 0
M  V30 20940 H 1983.82 2.35251 3.54312 0
M  V30 20941 N 1982.13 -1.10905 1.11972 0
M  V30 20942 C 1983.06 -2.16893 0.740943 0
M  V30 20943 C 1984.08 -1.61166 -0.230099 0
M  V30 20944 O 1985.27 -1.78496 -0.0121612 0
M  V30 20945 C 1982.37 -3.38817 0.0751853 0
M  V30 20946 C 1981.54 -4.23998 1.07446 0
M  V30 20947 C 1980.6 -5.2438 0.437225 0
M  V30 20948 O 1979.62 -5.58611 1.09279 0
M  V30 20949 N 1980.83 -5.74996 -0.797475 0
M  V30 20950 H 1983.59 -2.49998 1.65291 0
M  V30 20951 H 1981.15 -1.26479 1.01068 0
M  V30 20952 H 1983.14 -4.03069 -0.362985 0
M  V30 20953 H 1981.71 -3.03728 -0.739454 0
M  V30 20954 H 1980.93 -3.56116 1.69041 0
M  V30 20955 H 1982.22 -4.77745 1.75034 0
M  V30 20956 H 1981.62 -5.49376 -1.34915 0
M  V30 20957 H 1980.18 -6.41057 -1.17854 0
M  V30 20958 N 1983.61 -0.910886 -1.2861 0
M  V30 20959 C 1984.54 -0.35439 -2.26444 0
M  V30 20960 C 1985.56 0.505552 -1.54751 0
M  V30 20961 O 1986.74 0.320897 -1.75592 0
M  V30 20962 C 1983.84 0.512332 -3.35005 0
M  V30 20963 C 1983.02 -0.324442 -4.36195 0
M  V30 20964 C 1982.08 0.476907 -5.24034 0
M  V30 20965 O 1981.1 -0.109526 -5.69095 0
M  V30 20966 N 1982.3 1.78057 -5.52518 0
M  V30 20967 H 1985.07 -1.1953 -2.74832 0
M  V30 20968 H 1982.63 -0.776536 -1.42062 0
M  V30 20969 H 1984.62 1.05509 -3.90704 0
M  V30 20970 H 1983.19 1.25395 -2.86347 0
M  V30 20971 H 1982.41 -1.04858 -3.79998 0
M  V30 20972 H 1983.7 -0.897099 -5.00829 0
M  V30 20973 H 1983.1 2.27959 -5.17737 0
M  V30 20974 H 1981.66 2.27022 -6.10986 0
M  V30 20975 N 1985.09 1.42434 -0.674558 0
M  V30 20976 C 1986.02 2.33498 -0.0100395 0
M  V30 20977 C 1987 1.50665 0.789558 0
M  V30 20978 O 1988.18 1.79268 0.74676 0
M  V30 20979 C 1985.31 3.34279 0.942081 0
M  V30 20980 C 1984.27 4.27263 0.251094 0
M  V30 20981 C 1983.59 5.18249 1.31614 0
M  V30 20982 C 1984.89 5.15008 -0.869735 0
M  V30 20983 H 1986.59 2.89314 -0.770566 0
M  V30 20984 H 1984.13 1.39112 -0.372004 0
M  V30 20985 H 1986.09 3.96896 1.41604 0
M  V30 20986 H 1984.81 2.76765 1.73403 0
M  V30 20987 H 1983.47 3.6604 -0.202625 0
M  V30 20988 H 1983.12 4.57063 2.10006 0
M  V30 20989 H 1982.82 5.81288 0.858923 0
M  V30 20990 H 1984.34 5.83742 1.79103 0
M  V30 20991 H 1985.76 5.71312 -0.477004 0
M  V30 20992 H 1984.15 5.86879 -1.25273 0
M  V30 20993 H 1985.22 4.53422 -1.71861 0
M  V30 20994 N 1986.57 0.417871 1.51959 0
M  V30 20995 C 1987.81 -0.154746 2.01507 0
M  V30 20996 C 1988.14 -1.44898 1.30497 0
M  V30 20997 O 1987.41 -1.91043 0.433536 0
M  V30 20998 H 1985.99 -0.0601759 0.744572 0
M  V30 20999 H 1988.65 0.556118 1.86798 0
M  V30 21000 H 1987.74 -0.344616 3.10192 0
M  V30 21001 N 1988.04 -1.56898 0.148573 0
M  V30 21002 C 1989.27 -2.00974 -0.512287 0
M  V30 21003 C 1989.69 -1.02801 -1.57523 0
M  V30 21004 O 1989.05 -0.00400411 -1.813 0
M  V30 21005 C 1989.1 -3.43785 -1.08832 0
M  V30 21006 O 1988.2 -3.4862 -2.20313 0
M  V30 21007 H 1987.55 -0.652102 -0.125133 0
M  V30 21008 H 1990.08 -2.03119 0.245769 0
M  V30 21009 H 1990.09 -3.82618 -1.41659 0
M  V30 21010 H 1988.76 -4.14744 -0.309923 0
M  V30 21011 H 1987.34 -3.2163 -1.88702 0
M  V30 21012 N 1989.52 0.125209 -1.57102 0
M  V30 21013 C 1990.75 0.848436 -1.88704 0
M  V30 21014 C 1991.17 1.73729 -0.739158 0
M  V30 21015 O 1990.52 1.80177 0.290278 0
M  V30 21016 C 1990.57 1.68704 -3.1972 0
M  V30 21017 O 1990.29 0.833978 -4.30089 0
M  V30 21018 C 1991.8 2.51596 -3.64985 0
M  V30 21019 H 1989.02 0.244227 -0.624975 0
M  V30 21020 H 1991.56 0.111462 -2.04196 0
M  V30 21021 H 1989.71 2.37684 -3.05917 0
M  V30 21022 H 1990.13 1.4118 -5.05142 0
M  V30 21023 H 1991.6 3.05978 -4.59436 0
M  V30 21024 H 1992.08 3.28664 -2.91336 0
M  V30 21025 H 1992.69 1.8787 -3.81556 0
M  V30 21026 N 1991 1.52564 0.395213 0
M  V30 21027 C 1992.23 1.71173 1.16222 0
M  V30 21028 C 1992.64 0.427335 1.839 0
M  V30 21029 O 1992 -0.597726 1.72434 0
M  V30 21030 C 1992.05 2.85698 2.21492 0
M  V30 21031 O 1991.77 4.09165 1.56574 0
M  V30 21032 C 1993.27 3.15934 3.10967 0
M  V30 21033 H 1990.49 0.573277 0.348705 0
M  V30 21034 H 1993.04 1.99186 0.463177 0
M  V30 21035 H 1991.19 2.60165 2.87042 0
M  V30 21036 H 1991.61 4.73086 2.26473 0
M  V30 21037 H 1993.08 3.99548 3.80874 0
M  V30 21038 H 1993.56 2.30059 3.74125 0
M  V30 21039 H 1994.16 3.43284 2.5107 0
M  V30 21040 N 1992.48 -0.653289 1.43422 0
M  V30 21041 C 1993.41 -1.77877 1.44543 0
M  V30 21042 C 1994.42 -1.59177 0.341566 0
M  V30 21043 O 1995.61 -1.67899 0.605995 0
M  V30 21044 C 1992.71 -3.15302 1.24249 0
M  V30 21045 C 1991.89 -3.60661 2.47472 0
M  V30 21046 C 1990.94 -4.76889 2.22403 0
M  V30 21047 O 1989.97 -4.86332 2.95754 0
M  V30 21048 N 1991.17 -5.67088 1.24062 0
M  V30 21049 H 1993.94 -1.77394 2.41561 0
M  V30 21050 H 1991.5 -0.837129 1.38578 0
M  V30 21051 H 1993.49 -3.90744 1.05361 0
M  V30 21052 H 1992.06 -3.10557 0.356765 0
M  V30 21053 H 1991.28 -2.75664 2.81785 0
M  V30 21054 H 1992.57 -3.87713 3.29478 0
M  V30 21055 H 1991.97 -5.62132 0.634383 0
M  V30 21056 H 1990.52 -6.42252 1.11158 0
M  V30 21057 N 1993.96 -1.29952 -0.891648 0
M  V30 21058 C 1995.18 -1.21422 -1.68141 0
M  V30 21059 C 1995.61 0.220633 -1.86802 0
M  V30 21060 O 1994.96 1.15902 -1.39414 0
M  V30 21061 C 1995.01 -1.94116 -3.03894 0
M  V30 21062 O 1994.12 -1.26369 -3.92562 0
M  V30 21063 H 1993.46 -0.420318 -0.514032 0
M  V30 21064 H 1995.99 -1.71658 -1.11331 0
M  V30 21065 H 1996 -2.02881 -3.53982 0
M  V30 21066 H 1994.67 -2.98474 -2.89631 0
M  V30 21067 H 1993.25 -1.25915 -3.50998 0
M  V30 21068 N 1995.44 1.1031 -1.12559 0
M  V30 21069 C 1996.66 1.86078 -0.90458 0
M  V30 21070 C 1997.08 1.80726 0.546224 0
M  V30 21071 O 1996.44 1.1969 1.3777 0
M  V30 21072 C 1996.49 3.34425 -1.37268 0
M  V30 21073 O 1996.21 3.39691 -2.76661 0
M  V30 21074 C 1997.71 4.27063 -1.18879 0
M  V30 21075 H 1994.93 0.588055 -0.32316 0
M  V30 21076 H 1997.47 1.39441 -1.49588 0
M  V30 21077 H 1995.63 3.78523 -0.824578 0
M  V30 21078 H 1996.04 4.3215 -2.97232 0
M  V30 21079 H 1997.52 5.29345 -1.56518 0
M  V30 21080 H 1997.99 4.39009 -0.129502 0
M  V30 21081 H 1998.6 3.88771 -1.72445 0
M  V30 21082 N 1996.91 0.917694 1.28125 0
M  V30 21083 C 1997.88 0.413823 2.25433 0
M  V30 21084 C 1998.88 -0.46205 1.54019 0
M  V30 21085 O 2000.07 -0.264546 1.7218 0
M  V30 21086 C 1997.2 -0.406249 3.38471 0
M  V30 21087 H 1998.39 1.27345 2.7152 0
M  V30 21088 H 1995.94 0.697455 1.39876 0
M  V30 21089 H 1996.68 -1.28511 2.97751 0
M  V30 21090 H 1996.46 0.221601 3.91473 0
M  V30 21091 H 1997.95 -0.749491 4.10819 0
M  V30 21092 N 1998.39 -1.42074 0.682102 0
M  V30 21093 C 1999.34 -2.326 -0.00324978 0
M  V30 21094 C 2000.33 -1.50226 -0.782851 0
M  V30 21095 O 2001.54 -1.6625 -0.689991 0
M  V30 21096 H 1997.91 -0.751738 -0.0198484 0
M  V30 21097 H 1999.89 -2.88093 0.777513 0
M  V30 21098 C 1998.63 -3.3488 -0.935455 0
M  V30 21099 H 1997.96 -3.98309 -0.344986 0
M  V30 21100 H 1999.4 -4.00791 -1.38355 0
M  V30 21101 C 1997.86 -2.67711 -2.0453 0
M  V30 21102 O 1998.39 -2.5146 -3.13258 0
M  V30 21103 N 1996.59 -2.2662 -1.81912 0
M  V30 21104 H 1996.14 -2.40037 -0.934876 0
M  V30 21105 H 1996.1 -1.82011 -2.56358 0
M  V30 21106 N 1999.87 -0.425924 -1.51735 0
M  V30 21107 C 2000.78 0.39769 -2.31205 0
M  V30 21108 C 2001.8 1.0382 -1.39633 0
M  V30 21109 O 2002.97 1.03606 -1.72707 0
M  V30 21110 C 2000.04 1.49033 -3.13033 0
M  V30 21111 C 1999.1 0.871143 -4.20368 0
M  V30 21112 C 1998.33 1.91172 -4.98286 0
M  V30 21113 O 1998.55 3.13232 -4.76699 0
M  V30 21114 O 1997.49 1.5086 -5.82688 0
M  V30 21115 H 2001.31 -0.25075 -3.02663 0
M  V30 21116 H 1998.9 -0.188723 -1.48203 0
M  V30 21117 H 2000.78 2.12428 -3.6394 0
M  V30 21118 H 1999.46 2.12307 -2.44351 0
M  V30 21119 H 1998.36 0.199453 -3.73568 0
M  V30 21120 H 1999.7 0.282077 -4.91391 0
M  V30 21121 N 2001.35 1.56817 -0.156891 0
M  V30 21122 C 2002.3 2.18555 0.796017 0
M  V30 21123 C 2003.29 1.14538 1.24809 0
M  V30 21124 O 2004.5 1.32768 1.21542 0
M  V30 21125 H 2000.87 0.699939 0.274936 0
M  V30 21126 H 2002.84 2.97341 0.251207 0
M  V30 21127 C 2001.59 2.82928 2.02106 0
M  V30 21128 H 2000.91 3.62687 1.6822 0
M  V30 21129 H 2002.35 3.29615 2.66702 0
M  V30 21130 C 2000.81 1.81947 2.83543 0
M  V30 21131 O 2001.34 1.29602 3.80219 0
M  V30 21132 N 1999.55 1.51028 2.48272 0
M  V30 21133 H 1999.1 1.93787 1.69719 0
M  V30 21134 H 1999.05 0.837124 3.0305 0
M  V30 21135 N 2002.83 -0.116876 1.57166 0
M  V30 21136 C 2003.77 -1.14325 2.00496 0
M  V30 21137 C 2004.74 -1.41031 0.877465 0
M  V30 21138 O 2005.93 -1.52861 1.14185 0
M  V30 21139 C 2003.07 -2.46409 2.41612 0
M  V30 21140 C 2002.18 -2.26621 3.67787 0
M  V30 21141 C 2001.32 -3.51951 3.97875 0
M  V30 21142 C 2000.35 -3.27329 5.17225 0
M  V30 21143 N 1999.49 -4.44867 5.43174 0
M  V30 21144 H 2004.33 -0.766757 2.87967 0
M  V30 21145 H 2001.87 -0.367106 1.42446 0
M  V30 21146 H 2003.83 -3.23465 2.63488 0
M  V30 21147 H 2002.46 -2.81947 1.5718 0
M  V30 21148 H 2001.51 -1.40472 3.53513 0
M  V30 21149 H 2002.82 -2.04405 4.54994 0
M  V30 21150 H 2001.97 -4.37424 4.20411 0
M  V30 21151 H 2000.71 -3.772 3.09147 0
M  V30 21152 H 1999.72 -2.40247 4.94532 0
M  V30 21153 H 2000.94 -3.03448 6.07533 0
M  V30 21154 H 1998.89 -4.70233 4.57403 0
M  V30 21155 H 1998.81 -4.25764 6.24709 0
M  V30 21156 H 2000.07 -5.31468 5.7023 0
M  V30 21157 N 2004.3 -1.52772 -0.387116 0
M  V30 21158 C 2005.25 -1.77684 -1.47299 0
M  V30 21159 C 2006.22 -0.620145 -1.54089 0
M  V30 21160 O 2007.41 -0.860064 -1.70316 0
M  V30 21161 C 2004.55 -1.95321 -2.84506 0
M  V30 21162 C 2003.66 -3.23016 -2.86853 0
M  V30 21163 C 2002.79 -3.30959 -4.15499 0
M  V30 21164 C 2001.83 -4.5277 -4.11905 0
M  V30 21165 N 2000.97 -4.57985 -5.3216 0
M  V30 21166 H 2005.81 -2.70351 -1.25356 0
M  V30 21167 H 2003.35 -1.33943 -0.608094 0
M  V30 21168 H 2005.3 -2.03531 -3.64185 0
M  V30 21169 H 2003.93 -1.06012 -3.04895 0
M  V30 21170 H 2002.99 -3.23868 -1.99534 0
M  V30 21171 H 2004.3 -4.12753 -2.80066 0
M  V30 21172 H 2003.45 -3.38363 -5.03583 0
M  V30 21173 H 2002.19 -2.392 -4.25011 0
M  V30 21174 H 2001.2 -4.4549 -3.22209 0
M  V30 21175 H 2002.42 -5.45848 -4.04013 0
M  V30 21176 H 2000.37 -3.69118 -5.42299 0
M  V30 21177 H 2000.28 -5.41596 -5.27456 0
M  V30 21178 H 2001.55 -4.69645 -6.22136 0
M  V30 21179 N 2005.78 0.645673 -1.43767 0
M  V30 21180 C 2007.03 1.40137 -1.45067 0
M  V30 21181 C 2007.34 1.9543 -0.0815041 0
M  V30 21182 O 2008.55 2.71486 0.0280161 0
M  V30 21183 C 2007.01 2.53651 -2.55322 0
M  V30 21184 C 2006.61 2.04934 -3.98379 0
M  V30 21185 C 2008.36 3.30964 -2.65826 0
M  V30 21186 C 2006.26 3.15703 -5.00086 0
M  V30 21187 H 2005.19 0.52657 -0.539667 0
M  V30 21188 H 2007.85 0.696144 -1.69782 0
M  V30 21189 H 2006.23 3.26681 -2.23821 0
M  V30 21190 H 2007.4 1.38865 -4.39378 0
M  V30 21191 H 2005.72 1.40478 -3.91988 0
M  V30 21192 H 2008.31 4.13513 -3.38986 0
M  V30 21193 H 2008.66 3.79492 -1.71149 0
M  V30 21194 H 2009.19 2.65018 -2.96665 0
M  V30 21195 H 2005.93 2.72136 -5.96341 0
M  V30 21196 H 2005.45 3.80459 -4.63693 0
M  V30 21197 H 2007.13 3.80714 -5.23131 0
M  V30 21198 N 2007.26 1.30423 0.884744 0
M  V30 21199 C 2008.19 1.12637 1.99613 0
M  V30 21200 C 2009.2 0.0695549 1.62651 0
M  V30 21201 O 2010.39 0.315593 1.75688 0
M  V30 21202 C 2007.49 0.695652 3.31683 0
M  V30 21203 C 2006.67 1.83427 3.97081 0
M  V30 21204 C 2005.73 1.39206 5.07453 0
M  V30 21205 O 2004.75 2.09931 5.29072 0
M  V30 21206 N 2005.95 0.27121 5.79866 0
M  V30 21207 H 2008.72 2.0836 2.15421 0
M  V30 21208 H 2006.28 1.22561 1.05784 0
M  V30 21209 H 2008.27 0.382828 4.02885 0
M  V30 21210 H 2006.84 -0.169542 3.1214 0
M  V30 21211 H 2006.06 2.31519 3.19049 0
M  V30 21212 H 2007.35 2.5973 4.37513 0
M  V30 21213 H 2006.75 -0.318111 5.64805 0
M  V30 21214 H 2005.3 0.0178406 6.51798 0
M  V30 21215 N 2008.74 -1.09711 1.13142 0
M  V30 21216 C 2009.97 -1.85595 0.914436 0
M  V30 21217 C 2010.38 -1.81013 -0.536632 0
M  V30 21218 O 2009.74 -1.20419 -1.37134 0
M  V30 21219 C 2009.79 -3.33692 1.39039 0
M  V30 21220 O 2009.51 -3.38219 2.78459 0
M  V30 21221 C 2011.01 -4.26427 1.21142 0
M  V30 21222 H 2008.23 -0.586333 0.326274 0
M  V30 21223 H 2010.77 -1.38646 1.50325 0
M  V30 21224 H 2008.93 -3.7808 0.844641 0
M  V30 21225 H 2009.34 -4.30567 2.9952 0
M  V30 21226 H 2010.82 -5.28508 1.59323 0
M  V30 21227 H 2011.29 -4.38934 0.152782 0
M  V30 21228 H 2011.9 -3.87851 1.74505 0
M  V30 21229 N 2010.22 -0.924476 -1.27637 0
M  V30 21230 C 2011.18 -0.425772 -2.25211 0
M  V30 21231 C 2012.18 0.453876 -1.54261 0
M  V30 21232 O 2013.37 0.255412 -1.72317 0
M  V30 21233 C 2010.5 0.388294 -3.38681 0
M  V30 21234 H 2011.69 -1.28783 -2.70841 0
M  V30 21235 H 2009.25 -0.704863 -1.39504 0
M  V30 21236 H 2009.98 1.2693 -2.98428 0
M  V30 21237 H 2009.77 -0.242358 -3.9135 0
M  V30 21238 H 2011.26 0.727693 -4.11211 0
M  V30 21239 N 2011.69 1.41711 -0.689627 0
M  V30 21240 C 2012.92 2.05652 -0.226938 0
M  V30 21241 C 2013.34 1.51875 1.12158 0
M  V30 21242 O 2012.69 0.664544 1.69971 0
M  V30 21243 C 2012.75 3.61102 -0.169503 0
M  V30 21244 O 2012.47 4.12888 -1.46475 0
M  V30 21245 C 2013.97 4.4218 0.314894 0
M  V30 21246 H 2011.19 0.66244 -0.10684 0
M  V30 21247 H 2013.73 1.81588 -0.940538 0
M  V30 21248 H 2011.89 3.84226 0.49488 0
M  V30 21249 H 2012.3 5.06884 -1.34791 0
M  V30 21250 H 2013.77 5.51162 0.303964 0
M  V30 21251 H 2014.25 4.17848 1.35275 0
M  V30 21252 H 2014.86 4.24107 -0.318278 0
M  V30 21253 N 2013.17 0.433965 1.51507 0
M  V30 21254 C 2014.12 -0.37918 2.27664 0
M  V30 21255 C 2015.09 -1.01975 1.31112 0
M  V30 21256 O 2016.27 -1.0393 1.6001 0
M  V30 21257 C 2013.41 -1.47628 3.1193 0
M  V30 21258 C 2012.53 -0.854176 4.23471 0
M  V30 21259 C 2011.66 -1.92604 4.95053 0
M  V30 21260 C 2010.7 -1.28219 5.9852 0
M  V30 21261 N 2009.84 -2.29527 6.63522 0
M  V30 21262 H 2014.68 0.276629 2.96713 0
M  V30 21263 H 2012.22 0.148264 1.46351 0
M  V30 21264 H 2014.17 -2.1236 3.59109 0
M  V30 21265 H 2012.8 -2.10176 2.45002 0
M  V30 21266 H 2011.86 -0.0952329 3.80281 0
M  V30 21267 H 2013.17 -0.344086 4.97612 0
M  V30 21268 H 2012.32 -2.65006 5.45762 0
M  V30 21269 H 2011.06 -2.46985 4.20535 0
M  V30 21270 H 2010.07 -0.543619 5.47106 0
M  V30 21271 H 2011.29 -0.745758 6.74993 0
M  V30 21272 H 2009.24 -2.82995 5.91819 0
M  V30 21273 H 2009.15 -1.834 7.33417 0
M  V30 21274 H 2010.42 -3.01423 7.18863 0
M  V30 21275 N 2014.65 -1.56732 0.165206 0
M  V30 21276 C 2015.56 -2.2125 -0.780107 0
M  V30 21277 C 2016.58 -1.20227 -1.25784 0
M  V30 21278 O 2017.75 -1.52868 -1.31124 0
M  V30 21279 C 2014.82 -2.83579 -1.99459 0
M  V30 21280 C 2013.88 -3.99784 -1.56434 0
M  V30 21281 C 2013.11 -4.5913 -2.72094 0
M  V30 21282 O 2013.33 -4.17363 -3.88799 0
M  V30 21283 O 2012.27 -5.49101 -2.46519 0
M  V30 21284 H 2016.09 -3.02578 -0.260803 0
M  V30 21285 H 2013.68 -1.49268 -0.0627015 0
M  V30 21286 H 2015.56 -3.23123 -2.70499 0
M  V30 21287 H 2014.24 -2.05251 -2.50307 0
M  V30 21288 H 2013.14 -3.64921 -0.823629 0
M  V30 21289 H 2014.48 -4.79686 -1.10284 0
M  V30 21290 N 2016.13 0.10854 -1.57226 0
M  V30 21291 C 2017.06 1.15853 -1.97764 0
M  V30 21292 C 2018.07 1.37073 -0.878345 0
M  V30 21293 O 2019.26 1.35963 -1.15657 0
M  V30 21294 C 2016.36 2.51663 -2.26978 0
M  V30 21295 C 2015.54 2.50904 -3.58282 0
M  V30 21296 C 2014.59 3.68538 -3.75588 0
M  V30 21297 O 2013.62 3.51644 -4.47588 0
M  V30 21298 N 2014.82 4.87507 -3.15146 0
M  V30 21299 H 2017.59 0.81361 -2.88445 0
M  V30 21300 H 2015.15 0.29769 -1.5914 0
M  V30 21301 H 2017.14 3.28936 -2.35761 0
M  V30 21302 H 2015.71 2.78297 -1.42372 0
M  V30 21303 H 2014.93 1.59271 -3.60592 0
M  V30 21304 H 2016.22 2.47463 -4.44567 0
M  V30 21305 H 2015.62 5.04137 -2.56637 0
M  V30 21306 H 2014.17 5.6242 -3.29434 0
M  V30 21307 N 2017.61 1.52975 0.379009 0
M  V30 21308 C 2018.55 1.79115 1.48393 0
M  V30 21309 C 2019.55 0.659562 1.56032 0
M  V30 21310 O 2020.75 0.842243 1.59079 0
M  V30 21311 H 2017.13 0.566908 0.494084 0
M  V30 21312 H 2019.1 2.71624 1.23544 0
M  V30 21313 C 2017.85 1.98595 2.85404 0
M  V30 21314 H 2017.17 2.85102 2.8028 0
M  V30 21315 H 2018.61 2.2087 3.61929 0
M  V30 21316 C 2017.07 0.761257 3.28187 0
M  V30 21317 O 2017.6 -0.0565264 4.0166 0
M  V30 21318 N 2015.81 0.588515 2.84578 0
M  V30 21319 H 2015.35 1.25513 2.24954 0
M  V30 21320 H 2015.31 -0.229535 3.13561 0
M  V30 21321 N 2019.08 -0.63804 1.44107 0
M  V30 21322 C 2020.33 -1.39496 1.46237 0
M  V30 21323 C 2020.65 -1.94776 0.093533 0
M  V30 21324 O 2019.92 -1.75361 -0.873231 0
M  V30 21325 H 2018.5 -0.517763 0.538452 0
M  V30 21326 H 2021.17 -0.751452 1.79831 0
M  V30 21327 H 2020.26 -2.22974 2.18378 0
M  V30 21328 N 2020.56 -1.3089 -0.877815 0
M  V30 21329 C 2021.81 -1.20303 -1.63264 0
M  V30 21330 C 2022.14 0.240114 -1.9271 0
M  V30 21331 O 2021.42 1.17082 -1.55313 0
M  V30 21332 C 2021.7 -2.03934 -2.96788 0
M  V30 21333 C 2021.55 -3.56506 -2.74269 0
M  V30 21334 C 2022.87 -1.88268 -3.97798 0
M  V30 21335 H 2019.99 -0.438382 -0.592445 0
M  V30 21336 H 2022.63 -1.60598 -1.01529 0
M  V30 21337 H 2020.78 -1.69698 -3.49478 0
M  V30 21338 H 2022.45 -4.00838 -2.28312 0
M  V30 21339 H 2020.7 -3.8033 -2.08643 0
M  V30 21340 H 2021.37 -4.1032 -3.69244 0
M  V30 21341 H 2023.84 -2.18214 -3.54291 0
M  V30 21342 H 2022.72 -2.49098 -4.89123 0
M  V30 21343 H 2022.98 -0.843802 -4.33973 0
M  V30 21344 N 2022.04 1.0911 -1.13723 0
M  V30 21345 C 2022.97 2.17859 -0.840227 0
M  V30 21346 C 2023.95 1.68899 0.201778 0
M  V30 21347 O 2025.14 1.94107 0.0600046 0
M  V30 21348 C 2022.27 3.45922 -0.309024 0
M  V30 21349 C 2021.22 4.08234 -1.28565 0
M  V30 21350 C 2020.55 5.31162 -0.614064 0
M  V30 21351 C 2021.85 4.50354 -2.64534 0
M  V30 21352 H 2023.54 2.4296 -1.74959 0
M  V30 21353 H 2021.09 1.16771 -0.842653 0
M  V30 21354 H 2023.04 4.21306 -0.088895 0
M  V30 21355 H 2021.76 3.20353 0.635735 0
M  V30 21356 H 2020.42 3.34873 -1.49183 0
M  V30 21357 H 2020.07 5.01875 0.336272 0
M  V30 21358 H 2019.77 5.73807 -1.26566 0
M  V30 21359 H 2021.29 6.09267 -0.403293 0
M  V30 21360 H 2022.71 5.16948 -2.47866 0
M  V30 21361 H 2021.11 5.03894 -3.259 0
M  V30 21362 H 2022.18 3.62594 -3.21952 0
M  V30 21363 N 2023.52 0.931232 1.27145 0
M  V30 21364 C 2024.45 0.377419 2.25057 0
M  V30 21365 C 2025.43 -0.528197 1.53782 0
M  V30 21366 O 2026.61 -0.467903 1.826 0
M  V30 21367 C 2023.74 -0.4587 3.3558 0
M  V30 21368 C 2022.79 0.383982 4.24768 0
M  V30 21369 S 2023.62 1.80173 5.0428 0
M  V30 21370 C 2024.78 0.973395 6.18285 0
M  V30 21371 H 2025.01 1.20726 2.71685 0
M  V30 21372 H 2022.54 0.733657 1.35856 0
M  V30 21373 H 2024.5 -0.935236 3.99704 0
M  V30 21374 H 2023.16 -1.2631 2.87584 0
M  V30 21375 H 2022.35 -0.256158 5.03349 0
M  V30 21376 H 2021.96 0.794824 3.65457 0
M  V30 21377 H 2024.25 0.211028 6.77171 0
M  V30 21378 H 2025.19 1.73233 6.86583 0
M  V30 21379 H 2025.6 0.513847 5.62156 0
M  V30 21380 N 2025 -1.41343 0.697132 0
M  V30 21381 C 2025.95 -2.3259 0.0214207 0
M  V30 21382 C 2026.94 -1.51048 -0.766873 0
M  V30 21383 O 2028.15 -1.66973 -0.672319 0
M  V30 21384 H 2024.52 -0.751906 -0.0118741 0
M  V30 21385 H 2026.49 -2.87252 0.808025 0
M  V30 21386 C 2025.24 -3.35853 -0.899884 0
M  V30 21387 H 2024.56 -3.98652 -0.302721 0
M  V30 21388 H 2026 -4.02236 -1.34097 0
M  V30 21389 C 2024.46 -2.69865 -2.01679 0
M  V30 21390 O 2024.99 -2.54768 -3.10574 0
M  V30 21391 N 2023.2 -2.28536 -1.79498 0
M  V30 21392 H 2022.75 -2.41015 -0.909364 0
M  V30 21393 H 2022.7 -1.8472 -2.54413 0
M  V30 21394 N 2026.48 -0.441993 -1.51275 0
M  V30 21395 C 2027.89 -0.0945327 -1.5932 0
M  V30 21396 C 2028.09 1.39653 -1.45256 0
M  V30 21397 O 2027.15 2.16693 -1.29616 0
M  V30 21398 C 2028.46 -0.618795 -2.94264 0
M  V30 21399 C 2030.01 -0.579646 -3.07586 0
M  V30 21400 C 2030.48 -1.08096 -4.45061 0
M  V30 21401 N 2031.97 -1.03914 -4.51393 0
M  V30 21402 C 2032.71 -1.39786 -5.561 0
M  V30 21403 N 2032.21 -1.82965 -6.68203 0
M  V30 21404 N 2034 -1.31573 -5.46484 0
M  V30 21405 H 2026.15 -1.4121 -1.58662 0
M  V30 21406 H 2028.41 -0.582182 -0.748176 0
M  V30 21407 H 2028.12 -1.66222 -3.09941 0
M  V30 21408 H 2027.99 -0.0462651 -3.77172 0
M  V30 21409 H 2030.38 0.454801 -2.91574 0
M  V30 21410 H 2030.46 -1.18863 -2.26506 0
M  V30 21411 H 2030.1 -2.1139 -4.61819 0
M  V30 21412 H 2030.03 -0.448465 -5.24687 0
M  V30 21413 H 2032.53 -0.722104 -3.70937 0
M  V30 21414 H 2032.84 -2.08561 -7.44125 0
M  V30 21415 H 2031.18 -1.86895 -6.69399 0
M  V30 21416 H 2034.37 -0.977017 -4.5779 0
M  V30 21417 H 2034.55 -1.59857 -6.27973 0
M  V30 21418 N 2027.95 1.56642 -0.173515 0
M  V30 21419 C 2028.9 2.19387 0.772791 0
M  V30 21420 C 2029.9 1.15856 1.23587 0
M  V30 21421 O 2031.1 1.3405 1.20127 0
M  V30 21422 H 2027.48 0.702815 0.267497 0
M  V30 21423 H 2029.45 2.9759 0.219656 0
M  V30 21424 C 2028.2 2.85056 1.99094 0
M  V30 21425 H 2027.52 3.64451 1.64364 0
M  V30 21426 H 2028.96 3.32425 2.63191 0
M  V30 21427 C 2027.42 1.84944 2.81598 0
M  V30 21428 O 2027.95 1.33628 3.78823 0
M  V30 21429 N 2026.15 1.53653 2.46656 0
M  V30 21430 H 2025.7 1.95576 1.67654 0
M  V30 21431 H 2025.66 0.86922 3.02146 0
M  V30 21432 N 2029.43 -0.1002 1.57281 0
M  V30 21433 C 2030.38 -1.12818 1.98132 0
M  V30 21434 C 2031.37 -1.36051 0.859002 0
M  V30 21435 O 2032.56 -1.36828 1.12281 0
M  V30 21436 C 2029.69 -2.44978 2.405 0
M  V30 21437 C 2028.77 -2.2514 3.59406 0
M  V30 21438 N 2029.16 -1.75157 4.74503 0
M  V30 21439 C 2027.46 -2.55726 3.65404 0
M  V30 21440 C 2028.16 -1.69469 5.56467 0
M  V30 21441 N 2027.14 -2.14499 4.99491 0
M  V30 21442 H 2030.94 -0.734583 2.84572 0
M  V30 21443 H 2028.45 -0.307698 1.59458 0
M  V30 21444 H 2030.45 -3.19352 2.67992 0
M  V30 21445 H 2029.11 -2.85079 1.55434 0
M  V30 21446 H 2030.12 -1.44429 4.97354 0
M  V30 21447 H 2026.8 -2.99386 2.90988 0
M  V30 21448 H 2028.19 -1.31919 6.58822 0
M  V30 21449 N 2030.91 -1.53174 -0.370891 0
M  V30 21450 C 2032.16 -1.68319 -1.11137 0
M  V30 21451 C 2032.47 -0.438743 -1.90616 0
M  V30 21452 O 2033.68 -0.470648 -2.6739 0
M  V30 21453 C 2032.13 -2.97532 -2.02491 0
M  V30 21454 C 2031.74 -4.29221 -1.28349 0
M  V30 21455 C 2033.49 -3.22045 -2.76563 0
M  V30 21456 C 2031.39 -5.49526 -2.18574 0
M  V30 21457 H 2030.32 -0.62713 -0.418597 0
M  V30 21458 H 2032.97 -1.79674 -0.372765 0
M  V30 21459 H 2031.36 -2.79967 -2.80061 0
M  V30 21460 H 2032.53 -4.57399 -0.558794 0
M  V30 21461 H 2030.84 -4.1111 -0.661614 0
M  V30 21462 H 2033.44 -4.09111 -3.44285 0
M  V30 21463 H 2033.78 -2.37881 -3.41641 0
M  V30 21464 H 2034.32 -3.40259 -2.06079 0
M  V30 21465 H 2031.06 -6.36152 -1.58083 0
M  V30 21466 H 2030.58 -5.25635 -2.88909 0
M  V30 21467 H 2032.26 -5.8411 -2.78252 0
M  V30 21468 N 2032.39 0.630389 -1.44443 0
M  V30 21469 C 2033.3 1.77101 -1.53859 0
M  V30 21470 C 2034.31 1.68749 -0.424221 0
M  V30 21471 O 2035.49 1.89513 -0.681673 0
M  V30 21472 C 2032.55 3.13487 -1.48077 0
M  V30 21473 C 2031.62 3.33464 -2.7037 0
M  V30 21474 C 2030.85 4.63344 -2.64855 0
M  V30 21475 O 2031.07 5.44196 -1.70899 0
M  V30 21476 O 2030.01 4.85539 -3.55718 0
M  V30 21477 H 2033.83 1.7211 -2.50223 0
M  V30 21478 H 2031.42 0.791704 -1.26698 0
M  V30 21479 H 2033.3 3.94788 -1.47378 0
M  V30 21480 H 2031.97 3.19018 -0.54856 0
M  V30 21481 H 2030.88 2.51839 -2.76637 0
M  V30 21482 H 2032.21 3.32795 -3.6264 0
M  V30 21483 N 2033.87 1.31354 0.870861 0
M  V30 21484 C 2034.81 1.18858 1.99939 0
M  V30 21485 C 2035.81 0.0970869 1.69122 0
M  V30 21486 O 2037.01 0.258917 1.78128 0
M  V30 21487 H 2033.39 0.367991 0.65581 0
M  V30 21488 H 2035.36 2.14338 2.07609 0
M  V30 21489 C 2034.11 0.911812 3.35531 0
M  V30 21490 H 2033.43 1.74383 3.59765 0
M  V30 21491 H 2034.87 0.864551 4.15092 0
M  V30 21492 C 2033.33 -0.385431 3.34688 0
M  V30 21493 O 2033.86 -1.40251 3.76421 0
M  V30 21494 N 2032.07 -0.401645 2.87811 0
M  V30 21495 H 2031.61 0.426528 2.54044 0
M  V30 21496 H 2031.57 -1.26952 2.87629 0
M  V30 21497 N 2035.34 -1.08505 1.143 0
M  V30 21498 C 2036.59 -1.80248 0.90519 0
M  V30 21499 C 2036.91 -1.87116 -0.56981 0
M  V30 21500 O 2038.11 -2.55262 -0.924844 0
M  V30 21501 C 2036.57 -3.23851 1.56998 0
M  V30 21502 C 2036.18 -3.2522 3.08117 0
M  V30 21503 C 2037.92 -4.00284 1.41325 0
M  V30 21504 C 2035.83 -4.63405 3.67437 0
M  V30 21505 H 2034.76 -0.67549 0.335007 0
M  V30 21506 H 2037.41 -1.21877 1.3718 0
M  V30 21507 H 2035.79 -3.82342 1.03104 0
M  V30 21508 H 2036.96 -2.76441 3.68669 0
M  V30 21509 H 2035.28 -2.62281 3.23415 0
M  V30 21510 H 2037.88 -5.02393 1.83046 0
M  V30 21511 H 2038.22 -4.14747 0.359236 0
M  V30 21512 H 2038.75 -3.4826 1.9225 0
M  V30 21513 H 2035.49 -4.54145 4.72686 0
M  V30 21514 H 2035.01 -5.1247 3.11665 0
M  V30 21515 H 2036.69 -5.3238 3.6767 0
M  V30 21516 N 2036.82 -0.937962 -1.26649 0
M  V30 21517 C 2037.77 -0.443717 -2.26495 0
M  V30 21518 C 2038.74 0.494894 -1.58556 0
M  V30 21519 O 2039.92 0.411807 -1.86303 0
M  V30 21520 C 2037.06 0.287974 -3.43896 0
M  V30 21521 C 2036.18 -0.685936 -4.2652 0
M  V30 21522 C 2035.31 0.0666303 -5.31158 0
M  V30 21523 C 2034.35 -0.899313 -6.05457 0
M  V30 21524 N 2033.49 -0.17871 -7.01873 0
M  V30 21525 H 2038.33 -1.3001 -2.68144 0
M  V30 21526 H 2035.86 -0.652331 -1.31845 0
M  V30 21527 H 2037.82 0.728613 -4.10788 0
M  V30 21528 H 2036.45 1.10852 -3.03169 0
M  V30 21529 H 2035.5 -1.24509 -3.59446 0
M  V30 21530 H 2036.82 -1.42373 -4.7805 0
M  V30 21531 H 2035.97 0.566702 -6.04047 0
M  V30 21532 H 2034.71 0.837326 -4.80458 0
M  V30 21533 H 2033.71 -1.41054 -5.31398 0
M  V30 21534 H 2034.94 -1.66996 -6.58247 0
M  V30 21535 H 2032.89 0.573553 -6.53488 0
M  V30 21536 H 2032.8 -0.855891 -7.51139 0
M  V30 21537 H 2034.07 0.300374 -7.78921 0
M  V30 21538 N 2038.3 1.40971 -0.704618 0
M  V30 21539 C 2039.25 2.30756 -0.0450323 0
M  V30 21540 C 2040.22 1.47598 0.761835 0
M  V30 21541 O 2041.4 1.76365 0.728023 0
M  V30 21542 C 2038.54 3.33723 0.878802 0
M  V30 21543 C 2037.65 4.31955 0.0625832 0
M  V30 21544 C 2036.79 5.2199 0.984889 0
M  V30 21545 C 2035.83 6.11885 0.16211 0
M  V30 21546 N 2034.97 6.94374 1.0387 0
M  V30 21547 H 2039.81 2.86598 -0.816414 0
M  V30 21548 H 2037.34 1.41145 -0.414306 0
M  V30 21549 H 2039.3 3.9198 1.42856 0
M  V30 21550 H 2037.93 2.79409 1.61648 0
M  V30 21551 H 2036.98 3.75571 -0.604216 0
M  V30 21552 H 2038.29 4.95476 -0.574897 0
M  V30 21553 H 2037.45 5.85125 1.60356 0
M  V30 21554 H 2036.19 4.58717 1.65621 0
M  V30 21555 H 2035.19 5.47791 -0.469576 0
M  V30 21556 H 2036.42 6.77216 -0.505547 0
M  V30 21557 H 2034.36 6.337 1.69588 0
M  V30 21558 H 2034.28 7.54617 0.457006 0
M  V30 21559 H 2035.55 7.61969 1.6439 0
M  V30 21560 N 2039.78 0.45001 1.51039 0
M  V30 21561 C 2041.01 -0.110496 2.06605 0
M  V30 21562 C 2041.42 -1.35362 1.31615 0
M  V30 21563 O 2040.78 -1.78515 0.379306 0
M  V30 21564 C 2040.83 -0.419948 3.59052 0
M  V30 21565 O 2040.55 0.773848 4.31211 0
M  V30 21566 C 2042.05 -1.02974 4.31174 0
M  V30 21567 H 2039.27 -0.00230221 0.670996 0
M  V30 21568 H 2041.82 0.632737 1.94465 0
M  V30 21569 H 2039.97 -1.11309 3.71065 0
M  V30 21570 H 2040.38 0.505717 5.22056 0
M  V30 21571 H 2041.86 -1.19617 5.38884 0
M  V30 21572 H 2042.34 -2.01422 3.9029 0
M  V30 21573 H 2042.94 -0.375607 4.23638 0
M  V30 21574 N 2041.26 -1.56548 0.18182 0
M  V30 21575 C 2042.51 -1.96371 -0.460566 0
M  V30 21576 C 2042.82 -1.07099 -1.63674 0
M  V30 21577 O 2044.02 -1.36648 -2.34605 0
M  V30 21578 C 2042.48 -3.49207 -0.870777 0
M  V30 21579 C 2042.09 -4.47122 0.280378 0
M  V30 21580 C 2043.83 -3.97828 -1.48099 0
M  V30 21581 C 2041.74 -5.9121 -0.15005 0
M  V30 21582 H 2040.67 -0.73321 -0.175838 0
M  V30 21583 H 2043.32 -1.81477 0.271724 0
M  V30 21584 H 2041.7 -3.59557 -1.65935 0
M  V30 21585 H 2042.88 -4.48494 1.05781 0
M  V30 21586 H 2041.19 -4.08619 0.801227 0
M  V30 21587 H 2043.79 -5.02944 -1.81525 0
M  V30 21588 H 2044.13 -3.41369 -2.38271 0
M  V30 21589 H 2044.66 -3.90538 -0.75665 0
M  V30 21590 H 2041.4 -6.51565 0.717155 0
M  V30 21591 H 2040.92 -5.93121 -0.892621 0
M  V30 21592 H 2042.6 -6.44301 -0.590372 0
M  V30 21593 N 2042.73 0.0918577 -1.57332 0
M  V30 21594 C 2043.96 0.81208 -1.9084 0
M  V30 21595 C 2044.38 1.71329 -0.776394 0
M  V30 21596 O 2043.74 1.7925 0.271867 0
M  V30 21597 C 2043.79 1.59867 -3.23226 0
M  V30 21598 O 2042.89 2.70787 -3.11044 0
M  V30 21599 H 2042.24 0.222886 -0.625474 0
M  V30 21600 H 2044.77 0.0661119 -2.04493 0
M  V30 21601 H 2044.78 1.98221 -3.56613 0
M  V30 21602 H 2043.45 0.937296 -4.05201 0
M  V30 21603 H 2042.03 2.35438 -2.89177 0
M  V30 21604 N 2044.21 1.53368 0.362763 0
M  V30 21605 C 2045.16 1.80679 1.46485 0
M  V30 21606 C 2046.15 0.676074 1.55324 0
M  V30 21607 O 2047.36 0.859068 1.58177 0
M  V30 21608 H 2043.74 0.572116 0.488044 0
M  V30 21609 H 2045.71 2.72919 1.20656 0
M  V30 21610 C 2044.46 2.01611 2.83281 0
M  V30 21611 H 2043.78 2.88059 2.7724 0
M  V30 21612 H 2045.22 2.24696 3.59566 0
M  V30 21613 C 2043.68 0.796023 3.27361 0
M  V30 21614 O 2044.21 -0.0139218 4.01698 0
M  V30 21615 N 2042.41 0.618665 2.83938 0
M  V30 21616 H 2041.96 1.27892 2.2361 0
M  V30 21617 H 2041.92 -0.196265 3.13787 0
M  V30 21618 N 2045.69 -0.62272 1.44776 0
M  V30 21619 C 2046.62 -1.74528 1.5512 0
M  V30 21620 C 2047.6 -1.65241 0.403656 0
M  V30 21621 O 2048.79 -1.83873 0.624863 0
M  V30 21622 C 2045.92 -3.13088 1.5031 0
M  V30 21623 C 2044.87 -3.37172 2.63626 0
M  V30 21624 C 2044.2 -4.75849 2.43868 0
M  V30 21625 C 2045.5 -3.28908 4.0573 0
M  V30 21626 H 2047.19 -1.66128 2.49082 0
M  V30 21627 H 2044.74 -0.797813 1.19879 0
M  V30 21628 H 2046.69 -3.91403 1.56146 0
M  V30 21629 H 2045.41 -3.22293 0.528684 0
M  V30 21630 H 2044.07 -2.61241 2.57194 0
M  V30 21631 H 2043.72 -4.81767 1.446 0
M  V30 21632 H 2043.42 -4.92921 3.19849 0
M  V30 21633 H 2044.94 -5.56383 2.51535 0
M  V30 21634 H 2046.36 -3.97117 4.13487 0
M  V30 21635 H 2044.76 -3.57513 4.8198 0
M  V30 21636 H 2045.83 -2.26581 4.28706 0
M  V30 21637 N 2047.17 -1.31814 -0.863883 0
M  V30 21638 C 2048.1 -1.22574 -1.98741 0
M  V30 21639 C 2049.08 -0.111585 -1.69734 0
M  V30 21640 O 2050.26 -0.29721 -1.91912 0
M  V30 21641 C 2047.39 -0.938559 -3.34378 0
M  V30 21642 C 2046.35 -2.01295 -3.7771 0
M  V30 21643 C 2045.67 -1.57834 -5.10874 0
M  V30 21644 C 2046.97 -3.42684 -3.94164 0
M  V30 21645 H 2048.67 -2.16572 -2.06729 0
M  V30 21646 H 2046.21 -1.04262 -0.993246 0
M  V30 21647 H 2048.17 -0.860501 -4.12521 0
M  V30 21648 H 2046.89 0.0370783 -3.26579 0
M  V30 21649 H 2045.55 -2.081 -3.01811 0
M  V30 21650 H 2045.2 -0.5904 -4.99523 0
M  V30 21651 H 2044.9 -2.29713 -5.40838 0
M  V30 21652 H 2046.42 -1.51448 -5.9152 0
M  V30 21653 H 2047.84 -3.38519 -4.62685 0
M  V30 21654 H 2046.23 -4.12833 -4.35533 0
M  V30 21655 H 2047.3 -3.83023 -2.97358 0
M  V30 21656 N 2048.65 1.07897 -1.14873 0
M  V30 21657 C 2049.59 2.17052 -0.836135 0
M  V30 21658 C 2050.59 1.68352 0.188148 0
M  V30 21659 O 2051.79 1.79947 0.0437298 0
M  V30 21660 H 2048.17 0.708271 -0.252698 0
M  V30 21661 H 2050.14 2.40639 -1.76452 0
M  V30 21662 C 2048.89 3.46076 -0.335713 0
M  V30 21663 H 2048.21 3.8393 -1.11525 0
M  V30 21664 H 2049.65 4.23714 -0.155587 0
M  V30 21665 C 2048.11 3.23471 0.941711 0
M  V30 21666 O 2048.64 3.47541 2.0144 0
M  V30 21667 N 2046.85 2.76987 0.879016 0
M  V30 21668 H 2046.39 2.57599 0.00591639 0
M  V30 21669 H 2046.35 2.62241 1.73427 0
M  V30 21670 N 2050.12 0.944665 1.2615 0
M  V30 21671 C 2051.37 0.589817 1.92884 0
M  V30 21672 C 2051.69 -0.875787 1.74898 0
M  V30 21673 O 2052.89 -1.34016 2.36118 0
M  V30 21674 C 2051.35 1.00415 3.45608 0
M  V30 21675 C 2050.96 2.4916 3.72321 0
M  V30 21676 C 2052.7 0.721357 4.18326 0
M  V30 21677 C 2050.61 2.84445 5.18503 0
M  V30 21678 H 2049.54 0.216879 0.722135 0
M  V30 21679 H 2052.19 1.14777 1.43173 0
M  V30 21680 H 2050.57 0.374687 3.94223 0
M  V30 21681 H 2051.74 3.1704 3.34398 0
M  V30 21682 H 2050.06 2.74805 3.12843 0
M  V30 21683 H 2052.66 0.961267 5.25988 0
M  V30 21684 H 2053 -0.341981 4.14893 0
M  V30 21685 H 2053.53 1.3107 3.75587 0
M  V30 21686 H 2050.27 3.89756 5.2704 0
M  V30 21687 H 2049.79 2.2123 5.5751 0
M  V30 21688 H 2051.47 2.73098 5.86538 0
M  V30 21689 N 2051.6 -1.40596 0.712085 0
M  V30 21690 C 2052.83 -2.04967 0.25925 0
M  V30 21691 C 2053.24 -1.53745 -1.10268 0
M  V30 21692 O 2052.58 -0.687539 -1.70348 0
M  V30 21693 C 2052.65 -3.59155 0.157468 0
M  V30 21694 C 2052.31 -4.33249 1.45411 0
M  V30 21695 C 2053.31 -4.61433 2.39533 0
M  V30 21696 C 2050.99 -4.72222 1.71207 0
M  V30 21697 C 2052.99 -5.2757 3.57699 0
M  V30 21698 C 2050.67 -5.38092 2.89655 0
M  V30 21699 C 2051.67 -5.65696 3.82723 0
M  V30 21700 O 2051.36 -6.30206 4.99095 0
M  V30 21701 H 2051.09 -0.666162 0.114911 0
M  V30 21702 H 2053.64 -1.81055 0.969955 0
M  V30 21703 H 2051.87 -3.81872 -0.60915 0
M  V30 21704 H 2053.56 -4.05064 -0.260344 0
M  V30 21705 H 2054.33 -4.3179 2.20867 0
M  V30 21706 H 2050.21 -4.50107 0.99621 0
M  V30 21707 H 2053.75 -5.49032 4.30359 0
M  V30 21708 H 2049.65 -5.67154 3.08231 0
M  V30 21709 H 2050.42 -6.48703 4.99126 0
M  V30 21710 N 2053.08 -0.458013 -1.50798 0
M  V30 21711 C 2054.31 0.0995379 -2.0666 0
M  V30 21712 C 2054.72 1.34662 -1.32331 0
M  V30 21713 O 2054.08 1.78311 -0.388768 0
M  V30 21714 C 2054.13 0.400901 -3.5927 0
M  V30 21715 O 2053.85 -0.796705 -4.30795 0
M  V30 21716 C 2055.35 1.00686 -4.31714 0
M  V30 21717 H 2052.57 -0.00125628 -0.670999 0
M  V30 21718 H 2055.12 -0.643041 -1.94127 0
M  V30 21719 H 2053.27 1.0934 -3.7165 0
M  V30 21720 H 2053.69 -0.533396 -5.21781 0
M  V30 21721 H 2055.16 1.16758 -5.39511 0
M  V30 21722 H 2055.64 1.99349 -3.91352 0
M  V30 21723 H 2056.24 0.353135 -4.23831 0
M  V30 21724 N 2054.56 1.56449 -0.190119 0
M  V30 21725 C 2055.78 2.02261 0.458823 0
M  V30 21726 C 2056.21 1.06942 1.54742 0
M  V30 21727 O 2055.57 0.0520711 1.81225 0
M  V30 21728 C 2055.62 3.46549 0.996786 0
M  V30 21729 O 2054.72 3.54338 2.10993 0
M  V30 21730 H 2054.06 0.655191 0.1078 0
M  V30 21731 H 2056.59 2.02396 -0.299535 0
M  V30 21732 H 2056.6 3.8624 1.31465 0
M  V30 21733 H 2055.28 4.1542 0.199852 0
M  V30 21734 H 2053.85 3.2652 1.80109 0
M  V30 21735 N 2056.04 -0.0835127 1.57379 0
M  V30 21736 C 2056.97 -1.12692 1.99582 0
M  V30 21737 C 2057.98 -1.35658 0.900041 0
M  V30 21738 O 2059.17 -1.34105 1.17805 0
M  V30 21739 C 2056.27 -2.4802 2.30953 0
M  V30 21740 C 2055.44 -2.45172 3.62228 0
M  V30 21741 C 2054.5 -3.62516 3.81403 0
M  V30 21742 O 2053.53 -3.44479 4.53126 0
M  V30 21743 N 2054.73 -4.82432 3.22862 0
M  V30 21744 H 2057.5 -0.767618 2.89703 0
M  V30 21745 H 2055.06 -0.272335 1.59593 0
M  V30 21746 H 2057.05 -3.25144 2.40964 0
M  V30 21747 H 2055.62 -2.75996 1.46781 0
M  V30 21748 H 2054.84 -1.53514 3.6308 0
M  V30 21749 H 2056.13 -2.40359 4.48448 0
M  V30 21750 H 2055.53 -4.9999 2.64625 0
M  V30 21751 H 2054.08 -5.57108 3.3834 0
M  V30 21752 N 2057.52 -1.53558 -0.354624 0
M  V30 21753 C 2058.43 -1.83745 -1.4586 0
M  V30 21754 C 2059.44 -0.72668 -1.58099 0
M  V30 21755 O 2060.62 -1.01786 -1.73786 0
M  V30 21756 C 2057.68 -2.03089 -2.80991 0
M  V30 21757 C 2056.74 -3.26971 -2.78187 0
M  V30 21758 C 2055.98 -3.45383 -4.06874 0
M  V30 21759 O 2056.2 -2.6786 -5.03594 0
M  V30 21760 O 2055.13 -4.38776 -4.12019 0
M  V30 21761 H 2058.96 -2.77557 -1.23271 0
M  V30 21762 H 2056.54 -1.39075 -0.545763 0
M  V30 21763 H 2058.43 -2.17321 -3.6104 0
M  V30 21764 H 2057.1 -1.12466 -3.03534 0
M  V30 21765 H 2056.01 -3.18153 -1.96798 0
M  V30 21766 H 2057.34 -4.17552 -2.60598 0
M  V30 21767 N 2058.99 0.615033 -1.45104 0
M  V30 21768 C 2060.22 1.40596 -1.52471 0
M  V30 21769 C 2060.64 1.87454 -0.155745 0
M  V30 21770 O 2060 1.59701 0.858209 0
M  V30 21771 C 2060.05 2.59156 -2.5074 0
M  V30 21772 O 2059.15 3.59538 -2.02006 0
M  V30 21773 H 2058.49 0.420045 -0.514255 0
M  V30 21774 H 2061.02 0.749208 -1.90389 0
M  V30 21775 H 2061.03 3.06496 -2.69303 0
M  V30 21776 H 2059.71 2.24399 -3.50169 0
M  V30 21777 H 2058.29 3.18897 -1.93284 0
M  V30 21778 N 2060.47 1.3227 0.85688 0
M  V30 21779 C 2061.72 1.22885 1.61329 0
M  V30 21780 C 2062.05 -0.209425 1.93067 0
M  V30 21781 O 2061.33 -1.14596 1.57156 0
M  V30 21782 C 2061.61 2.0863 2.93506 0
M  V30 21783 C 2061.46 3.60824 2.68563 0
M  V30 21784 C 2062.78 1.94573 3.94752 0
M  V30 21785 H 2059.9 0.447751 0.585395 0
M  V30 21786 H 2062.54 1.62193 0.989615 0
M  V30 21787 H 2060.69 1.75236 3.46734 0
M  V30 21788 H 2062.36 4.0442 2.21906 0
M  V30 21789 H 2060.61 3.83601 2.02566 0
M  V30 21790 H 2061.28 4.16143 3.6267 0
M  V30 21791 H 2063.75 2.23822 3.50775 0
M  V30 21792 H 2062.63 2.56848 4.85098 0
M  V30 21793 H 2062.89 0.912736 4.32575 0
M  V30 21794 N 2061.95 -1.07287 1.15444 0
M  V30 21795 C 2062.9 -2.14506 0.85181 0
M  V30 21796 C 2063.87 -1.64945 -0.195533 0
M  V30 21797 O 2065.05 -1.90696 -0.0629401 0
M  V30 21798 C 2062.19 -3.43341 0.347981 0
M  V30 21799 C 2061.3 -4.0669 1.45697 0
M  V30 21800 C 2060.44 -5.23361 0.9092 0
M  V30 21801 C 2059.48 -5.78673 1.99508 0
M  V30 21802 N 2058.62 -6.86675 1.46364 0
M  V30 21803 H 2063.46 -2.39733 1.77008 0
M  V30 21804 H 2060.99 -1.17635 0.883195 0
M  V30 21805 H 2062.95 -4.17183 0.0375747 0
M  V30 21806 H 2061.58 -3.18363 -0.53337 0
M  V30 21807 H 2060.63 -3.30495 1.88355 0
M  V30 21808 H 2061.94 -4.43806 2.2768 0
M  V30 21809 H 2061.1 -6.04189 0.551375 0
M  V30 21810 H 2059.84 -4.87665 0.0585544 0
M  V30 21811 H 2058.84 -4.9649 2.36173 0
M  V30 21812 H 2060.07 -6.16425 2.84952 0
M  V30 21813 H 2058.01 -6.52916 0.635365 0
M  V30 21814 H 2057.93 -7.22678 2.21973 0
M  V30 21815 H 2059.2 -7.71206 1.13408 0
M  V30 21816 N 2063.43 -0.951342 -1.25647 0
M  V30 21817 C 2064.37 -0.467715 -2.26011 0
M  V30 21818 C 2065.34 0.478049 -1.59072 0
M  V30 21819 O 2066.53 0.392024 -1.86729 0
M  V30 21820 C 2063.67 0.251483 -3.44182 0
M  V30 21821 C 2062.78 -0.731135 -4.25768 0
M  V30 21822 C 2061.92 0.0102901 -5.31199 0
M  V30 21823 C 2060.96 -0.963479 -6.0447 0
M  V30 21824 N 2060.09 -0.253142 -7.01643 0
M  V30 21825 H 2064.93 -1.32847 -2.6675 0
M  V30 21826 H 2062.47 -0.666278 -1.31146 0
M  V30 21827 H 2064.43 0.685002 -4.11538 0
M  V30 21828 H 2063.06 1.07631 -3.04328 0
M  V30 21829 H 2062.11 -1.28314 -3.58106 0
M  V30 21830 H 2063.42 -1.47435 -4.76513 0
M  V30 21831 H 2062.58 0.502603 -6.04615 0
M  V30 21832 H 2061.32 0.78632 -4.81319 0
M  V30 21833 H 2060.32 -1.46682 -5.29872 0
M  V30 21834 H 2061.55 -1.73968 -6.56439 0
M  V30 21835 H 2059.49 0.50421 -6.54059 0
M  V30 21836 H 2059.41 -0.935511 -7.50189 0
M  V30 21837 H 2060.68 0.217742 -7.79196 0
M  V30 21838 N 2064.91 1.40216 -0.719531 0
M  V30 21839 C 2065.85 2.30695 -0.0695046 0
M  V30 21840 C 2066.82 1.48398 0.746138 0
M  V30 21841 O 2068.01 1.77127 0.709277 0
M  V30 21842 C 2065.15 3.34636 0.843357 0
M  V30 21843 C 2064.26 4.31997 0.0167651 0
M  V30 21844 C 2063.4 5.23005 0.929469 0
M  V30 21845 C 2062.43 6.12023 0.0972024 0
M  V30 21846 N 2061.57 6.95437 0.964997 0
M  V30 21847 H 2066.41 2.85716 -0.846765 0
M  V30 21848 H 2063.95 1.40698 -0.429253 0
M  V30 21849 H 2065.91 3.93473 1.38691 0
M  V30 21850 H 2064.54 2.81108 1.58676 0
M  V30 21851 H 2063.59 3.74909 -0.644016 0
M  V30 21852 H 2064.9 4.94838 -0.627416 0
M  V30 21853 H 2064.05 5.86792 1.54141 0
M  V30 21854 H 2062.79 4.60447 1.60746 0
M  V30 21855 H 2061.8 5.47262 -0.52765 0
M  V30 21856 H 2063.02 6.76641 -0.577347 0
M  V30 21857 H 2060.97 6.35463 1.62857 0
M  V30 21858 H 2060.89 7.5506 0.376943 0
M  V30 21859 H 2062.15 7.63669 1.56299 0
M  V30 21860 N 2066.38 0.466004 1.50553 0
M  V30 21861 C 2067.35 -0.319434 2.26963 0
M  V30 21862 C 2068.35 -0.92489 1.31539 0
M  V30 21863 O 2069.54 -0.794862 1.55008 0
M  V30 21864 C 2066.67 -1.45457 3.0831 0
M  V30 21865 H 2067.86 0.350606 2.97844 0
M  V30 21866 H 2065.41 0.219925 1.54745 0
M  V30 21867 H 2066.15 -2.15982 2.41914 0
M  V30 21868 H 2065.93 -1.02628 3.78431 0
M  V30 21869 H 2067.42 -2.00876 3.66113 0
M  V30 21870 N 2067.86 -1.56346 0.198413 0
M  V30 21871 C 2069.14 -1.89433 -0.487272 0
M  V30 21872 C 2069.52 -1.11243 -1.79411 0
M  V30 21873 O 2068.87 -0.214538 -2.27491 0
M  V30 21874 C 2069.08 -3.4185 -0.702822 0
M  V30 21875 C 2070.42 -4.12149 -1.0207 0
M  V30 21876 O 2071.45 -3.47319 -0.790427 0
M  V30 21877 O 2070.31 -5.26735 -1.45647 0
M  V30 21878 H 2067.4 -0.786878 -0.254463 0
M  V30 21879 H 2069.95 -1.6801 0.238874 0
M  V30 21880 H 2068.72 -3.90682 0.219919 0
M  V30 21881 H 2068.34 -3.68976 -1.48131 0
M  V30 21882 N 2069.34 0.0751653 -1.57421 0
M  V30 21883 C 2070.62 0.807768 -1.78142 0
M  V30 21884 C 2071 1.95956 -0.785139 0
M  V30 21885 O 2070.35 2.27771 0.182413 0
M  V30 21886 C 2070.56 1.28385 -3.24528 0
M  V30 21887 C 2071.9 1.71859 -3.88265 0
M  V30 21888 O 2072.93 1.3796 -3.28398 0
M  V30 21889 O 2071.79 2.3461 -4.93579 0
M  V30 21890 H 2068.88 0.386806 -0.730965 0
M  V30 21891 H 2071.43 0.0555021 -1.69609 0
M  V30 21892 H 2070.2 0.459543 -3.88592 0
M  V30 21893 H 2069.82 2.09753 -3.37771 0
M  V30 21894 N 2070.82 1.53744 0.346476 0
M  V30 21895 C 2072.06 1.71103 1.08866 0
M  V30 21896 C 2072.4 0.47131 1.88394 0
M  V30 21897 O 2071.67 -0.531638 1.87093 0
M  V30 21898 C 2071.96 2.97273 2.03225 0
M  V30 21899 C 2071.81 4.31446 1.27179 0
M  V30 21900 C 2073.13 3.19105 3.03084 0
M  V30 21901 H 2070.25 0.622598 0.394387 0
M  V30 21902 H 2072.89 1.86412 0.367514 0
M  V30 21903 H 2071.04 2.84352 2.64719 0
M  V30 21904 H 2072.71 4.56212 0.683225 0
M  V30 21905 H 2070.95 4.29989 0.573773 0
M  V30 21906 H 2071.62 5.15901 1.96343 0
M  V30 21907 H 2074.1 3.31337 2.51704 0
M  V30 21908 H 2072.98 4.08786 3.66313 0
M  V30 21909 H 2073.24 2.35265 3.74303 0
M  V30 21910 N 2072.3 -0.607329 1.45428 0
M  V30 21911 C 2073.52 -1.39786 1.53214 0
M  V30 21912 C 2073.95 -1.87369 0.165684 0
M  V30 21913 O 2073.3 -1.60154 -0.849728 0
M  V30 21914 C 2073.35 -2.57823 2.52111 0
M  V30 21915 O 2072.46 -3.58462 2.03909 0
M  V30 21916 H 2071.8 -0.417312 0.516476 0
M  V30 21917 H 2074.33 -0.739101 1.90784 0
M  V30 21918 H 2074.34 -3.05064 2.70925 0
M  V30 21919 H 2073.01 -2.22539 3.51354 0
M  V30 21920 H 2071.59 -3.17868 1.94973 0
M  V30 21921 N 2073.77 -1.32722 -0.849853 0
M  V30 21922 C 2075 -1.2671 -1.64193 0
M  V30 21923 C 2075.42 0.161092 -1.87409 0
M  V30 21924 O 2074.78 1.11408 -1.43031 0
M  V30 21925 C 2074.83 -2.03686 -2.97564 0
M  V30 21926 O 2073.93 -1.38794 -3.88343 0
M  V30 21927 H 2073.28 -0.436459 -0.5004 0
M  V30 21928 H 2075.81 -1.75113 -1.05813 0
M  V30 21929 H 2075.82 -2.1404 -3.47349 0
M  V30 21930 H 2074.49 -3.07537 -2.79989 0
M  V30 21931 H 2073.07 -1.37018 -3.46815 0
M  V30 21932 N 2075.25 1.06673 -1.16011 0
M  V30 21933 C 2076.2 2.14051 -0.863174 0
M  V30 21934 C 2077.17 1.65046 0.186783 0
M  V30 21935 O 2078.35 1.90727 0.0528262 0
M  V30 21936 C 2075.49 3.43152 -0.366184 0
M  V30 21937 C 2074.61 4.05911 -1.47852 0
M  V30 21938 C 2073.74 5.22872 -0.936942 0
M  V30 21939 C 2072.78 5.77607 -2.02574 0
M  V30 21940 N 2071.92 6.85889 -1.50004 0
M  V30 21941 H 2076.76 2.38791 -1.78277 0
M  V30 21942 H 2074.3 1.17165 -0.889421 0
M  V30 21943 H 2076.25 4.17157 -0.0596984 0
M  V30 21944 H 2074.88 3.18641 0.516479 0
M  V30 21945 H 2073.94 3.29491 -1.90105 0
M  V30 21946 H 2075.25 4.42592 -2.3003 0
M  V30 21947 H 2074.4 6.03888 -0.583409 0
M  V30 21948 H 2073.14 4.87627 -0.0844157 0
M  V30 21949 H 2072.15 4.95231 -2.38802 0
M  V30 21950 H 2073.37 6.14905 -2.88217 0
M  V30 21951 H 2071.32 6.5257 -0.669982 0
M  V30 21952 H 2071.23 7.21491 -2.25802 0
M  V30 21953 H 2072.5 7.70594 -1.17496 0
M  V30 21954 N 2076.73 0.957992 1.25141 0
M  V30 21955 C 2077.98 0.615503 1.93234 0
M  V30 21956 C 2078.31 -0.845811 1.74813 0
M  V30 21957 O 2077.58 -1.60729 1.09528 0
M  V30 21958 C 2077.87 0.979109 3.46533 0
M  V30 21959 C 2077.72 2.4964 3.74165 0
M  V30 21960 C 2079.04 0.506601 4.37175 0
M  V30 21961 H 2076.16 0.225085 0.701787 0
M  V30 21962 H 2078.8 1.19525 1.47695 0
M  V30 21963 H 2076.95 0.485773 3.85451 0
M  V30 21964 H 2078.62 3.06376 3.44865 0
M  V30 21965 H 2076.87 2.93263 3.19655 0
M  V30 21966 H 2077.54 2.70132 4.81386 0
M  V30 21967 H 2080.01 0.929831 4.05578 0
M  V30 21968 H 2078.89 0.789676 5.4319 0
M  V30 21969 H 2079.15 -0.59342 4.38099 0
M  V30 21970 N 2078.21 -1.39832 0.726957 0
M  V30 21971 C 2079.44 -2.0468 0.280975 0
M  V30 21972 C 2079.85 -1.54906 -1.08631 0
M  V30 21973 O 2079.19 -0.705568 -1.6961 0
M  V30 21974 C 2079.25 -3.58968 0.195552 0
M  V30 21975 C 2078.92 -4.31682 1.49998 0
M  V30 21976 C 2079.91 -4.58866 2.44413 0
M  V30 21977 C 2077.6 -4.7038 1.76206 0
M  V30 21978 C 2079.59 -5.23747 3.63274 0
M  V30 21979 C 2077.28 -5.3499 2.95346 0
M  V30 21980 C 2078.28 -5.61605 3.88702 0
M  V30 21981 O 2077.96 -6.24877 5.05751 0
M  V30 21982 H 2077.7 -0.664906 0.12197 0
M  V30 21983 H 2080.25 -1.80016 0.989104 0
M  V30 21984 H 2078.48 -3.82497 -0.568613 0
M  V30 21985 H 2080.17 -4.05318 -0.217367 0
M  V30 21986 H 2080.94 -4.29424 2.25434 0
M  V30 21987 H 2076.81 -4.49025 1.04389 0
M  V30 21988 H 2080.36 -5.44437 4.36158 0
M  V30 21989 H 2076.26 -5.63853 3.14229 0
M  V30 21990 H 2077.02 -6.43372 5.05979 0
M  V30 21991 N 2079.69 -0.473982 -1.50304 0
M  V30 21992 C 2080.6 0.323933 -2.32353 0
M  V30 21993 C 2081.61 0.993251 -1.42865 0
M  V30 21994 O 2082.79 0.980589 -1.75916 0
M  V30 21995 C 2079.85 1.38999 -3.17616 0
M  V30 21996 C 2078.91 0.736965 -4.22927 0
M  V30 21997 C 2078.15 1.75223 -5.04116 0
M  V30 21998 O 2078.37 2.97908 -4.86423 0
M  V30 21999 O 2077.3 1.32246 -5.87192 0
M  V30 22000 H 2081.13 -0.346913 -3.01712 0
M  V30 22001 H 2078.72 -0.235777 -1.47528 0
M  V30 22002 H 2080.6 2.00742 -3.70514 0
M  V30 22003 H 2079.27 2.04425 -2.50982 0
M  V30 22004 H 2078.18 0.0805047 -3.74013 0
M  V30 22005 H 2079.51 0.125602 -4.9204 0
M  V30 22006 N 2081.16 1.56239 -0.206702 0
M  V30 22007 C 2082.09 2.2262 0.704446 0
M  V30 22008 C 2083.08 1.19305 1.21245 0
M  V30 22009 O 2084.26 1.47846 1.25917 0
M  V30 22010 C 2081.39 2.89459 1.91913 0
M  V30 22011 C 2080.34 3.99119 1.54558 0
M  V30 22012 C 2079.67 4.53179 2.83783 0
M  V30 22013 C 2080.97 5.16934 0.746749 0
M  V30 22014 H 2082.66 2.99019 0.151028 0
M  V30 22015 H 2080.21 1.43824 0.0712004 0
M  V30 22016 H 2082.16 3.34584 2.56186 0
M  V30 22017 H 2080.89 2.10484 2.49728 0
M  V30 22018 H 2079.55 3.54702 0.926381 0
M  V30 22019 H 2079.19 3.70952 3.39711 0
M  V30 22020 H 2078.89 5.2718 2.59528 0
M  V30 22021 H 2080.42 5.01013 3.49024 0
M  V30 22022 H 2081.83 5.58532 1.29284 0
M  V30 22023 H 2080.23 5.97074 0.601876 0
M  V30 22024 H 2081.3 4.84256 -0.249783 0
M  V30 22025 N 2082.64 -0.0668159 1.57458 0
M  V30 22026 C 2083.89 -0.765025 1.87493 0
M  V30 22027 C 2084.22 -1.77326 0.799106 0
M  V30 22028 O 2083.47 -1.9463 -0.204353 0
M  V30 22029 C 2083.77 -1.5042 3.24204 0
M  V30 22030 C 2083.44 -0.635488 4.46399 0
M  V30 22031 C 2082.1 -0.396101 4.79567 0
M  V30 22032 C 2084.45 -0.0334012 5.21189 0
M  V30 22033 C 2081.78 0.454772 5.84935 0
M  V30 22034 C 2084.13 0.804955 6.27458 0
M  V30 22035 C 2082.8 1.05417 6.59123 0
M  V30 22036 H 2082.07 -0.279943 0.686085 0
M  V30 22037 H 2084.71 -0.0256766 1.91483 0
M  V30 22038 H 2083.02 -2.31589 3.16028 0
M  V30 22039 H 2084.71 -2.04932 3.44679 0
M  V30 22040 H 2081.3 -0.832201 4.20443 0
M  V30 22041 H 2085.49 -0.205452 4.95875 0
M  V30 22042 H 2080.74 0.656546 6.07865 0
M  V30 22043 H 2084.92 1.27821 6.84569 0
M  V30 22044 H 2082.55 1.71525 7.40596 0
M  V30 22045 N 2084.12 -1.53926 -0.338317 0
M  V30 22046 C 2085.03 -1.85282 -1.43902 0
M  V30 22047 C 2086.05 -0.743407 -1.5732 0
M  V30 22048 O 2087.22 -1.03624 -1.72697 0
M  V30 22049 C 2084.29 -2.06058 -2.78821 0
M  V30 22050 C 2083.35 -3.29903 -2.74704 0
M  V30 22051 C 2082.58 -3.49679 -4.03188 0
M  V30 22052 O 2082.81 -2.73186 -5.00725 0
M  V30 22053 O 2081.74 -4.43121 -4.07342 0
M  V30 22054 H 2085.57 -2.78849 -1.2032 0
M  V30 22055 H 2083.15 -1.39646 -0.530982 0
M  V30 22056 H 2085.03 -2.21138 -3.58714 0
M  V30 22057 H 2083.71 -1.15679 -3.02325 0
M  V30 22058 H 2082.61 -3.20222 -1.93413 0
M  V30 22059 H 2083.95 -4.20292 -2.56155 0
M  V30 22060 N 2085.6 0.599608 -1.45748 0
M  V30 22061 C 2086.55 1.70982 -1.55028 0
M  V30 22062 C 2087.52 1.61319 -0.395631 0
M  V30 22063 O 2088.7 1.80781 -0.610146 0
M  V30 22064 C 2085.84 3.09304 -1.53052 0
M  V30 22065 C 2084.95 3.29715 -2.79127 0
M  V30 22066 C 2084.09 4.58189 -2.68769 0
M  V30 22067 C 2083.13 4.71885 -3.89861 0
M  V30 22068 N 2082.27 5.91666 -3.77989 0
M  V30 22069 H 2087.11 1.62387 -2.49869 0
M  V30 22070 H 2084.64 0.791687 -1.23979 0
M  V30 22071 H 2086.6 3.89343 -1.49893 0
M  V30 22072 H 2085.23 3.16838 -0.617561 0
M  V30 22073 H 2084.28 2.43397 -2.92339 0
M  V30 22074 H 2085.59 3.35707 -3.68921 0
M  V30 22075 H 2084.75 5.46433 -2.63621 0
M  V30 22076 H 2083.49 4.54608 -1.76587 0
M  V30 22077 H 2082.49 3.82062 -3.95359 0
M  V30 22078 H 2083.72 4.77257 -4.83118 0
M  V30 22079 H 2081.66 5.89115 -2.88582 0
M  V30 22080 H 2081.58 5.98853 -4.61423 0
M  V30 22081 H 2082.85 6.82387 -3.76787 0
M  V30 22082 N 2087.08 1.33171 0.842803 0
M  V30 22083 C 2088.01 1.2572 1.96766 0
M  V30 22084 C 2088.99 0.138574 1.69535 0
M  V30 22085 O 2090.17 0.327704 1.91415 0
M  V30 22086 C 2087.3 0.991637 3.32842 0
M  V30 22087 C 2086.26 2.07278 3.74459 0
M  V30 22088 C 2085.58 1.65942 5.08299 0
M  V30 22089 C 2086.88 3.48911 3.88662 0
M  V30 22090 H 2088.58 2.19834 2.03257 0
M  V30 22091 H 2086.12 1.05829 0.976533 0
M  V30 22092 H 2088.08 0.926021 4.111 0
M  V30 22093 H 2086.8 0.0148823 3.26597 0
M  V30 22094 H 2085.46 2.12875 2.98462 0
M  V30 22095 H 2085.11 0.669795 4.98521 0
M  V30 22096 H 2084.81 2.38288 5.37115 0
M  V30 22097 H 2086.33 1.60839 5.89036 0
M  V30 22098 H 2087.75 3.45837 4.57241 0
M  V30 22099 H 2086.14 4.1971 4.2891 0
M  V30 22100 H 2087.21 3.87705 2.91226 0
M  V30 22101 N 2088.56 -1.06056 1.16576 0
M  V30 22102 C 2089.83 -1.75733 0.858908 0
M  V30 22103 C 2090.21 -2.01077 -0.642746 0
M  V30 22104 O 2089.56 -1.63981 -1.5913 0
M  V30 22105 C 2089.77 -3.0567 1.68425 0
M  V30 22106 C 2091.12 -3.7978 1.89874 0
M  V30 22107 O 2092.14 -3.15517 1.65311 0
M  V30 22108 O 2091 -4.95232 2.311 0
M  V30 22109 H 2088.1 -0.763759 0.317177 0
M  V30 22110 H 2090.64 -1.12303 1.27225 0
M  V30 22111 H 2089.41 -2.82923 2.70315 0
M  V30 22112 H 2089.04 -3.76835 1.26811 0
M  V30 22113 N 2090.03 -0.964615 -1.24631 0
M  V30 22114 C 2091.27 -0.632622 -1.94364 0
M  V30 22115 C 2091.64 0.816641 -1.73767 0
M  V30 22116 O 2092.84 1.25871 -2.37508 0
M  V30 22117 C 2091.11 -0.993428 -3.43316 0
M  V30 22118 S 2092.67 -0.775518 -4.31893 0
M  V30 22119 H 2089.49 -0.232189 -0.672019 0
M  V30 22120 H 2092.09 -1.24091 -1.51068 0
M  V30 22121 H 2090.79 -2.04514 -3.55812 0
M  V30 22122 H 2090.32 -0.37579 -3.91601 0
M  V30 22123 H 2092.34 0.348693 -4.94973 0
M  V30 22124 N 2091.51 1.39445 -0.734362 0
M  V30 22125 C 2092.76 2.0013 -0.281468 0
M  V30 22126 C 2093.08 1.58562 1.13504 0
M  V30 22127 O 2092.35 0.833568 1.77281 0
M  V30 22128 H 2090.93 0.74013 -0.101076 0
M  V30 22129 H 2093.59 1.70503 -0.944178 0
M  V30 22130 H 2092.69 3.10357 -0.329356 0
M  V30 22131 N 2092.99 0.481946 1.5005 0
M  V30 22132 C 2093.95 -0.295344 2.27289 0
M  V30 22133 C 2094.95 -0.910886 1.32512 0
M  V30 22134 O 2096.14 -0.778377 1.55843 0
M  V30 22135 C 2093.27 -1.42179 3.09835 0
M  V30 22136 H 2094.47 0.382176 2.97455 0
M  V30 22137 H 2092.02 0.236325 1.54503 0
M  V30 22138 H 2092.76 -2.13404 2.44191 0
M  V30 22139 H 2092.54 -0.986087 3.79498 0
M  V30 22140 H 2094.03 -1.96982 3.68223 0
M  V30 22141 N 2094.47 -1.56127 0.214985 0
M  V30 22142 C 2095.71 -1.98129 -0.41849 0
M  V30 22143 C 2096.04 -1.10246 -1.60238 0
M  V30 22144 O 2095.3 -0.145925 -1.95155 0
M  V30 22145 C 2095.6 -3.45828 -0.902084 0
M  V30 22146 C 2095.26 -4.50577 0.170573 0
M  V30 22147 C 2093.92 -4.78945 0.465258 0
M  V30 22148 C 2096.28 -5.13434 0.896355 0
M  V30 22149 C 2093.6 -5.67455 1.49036 0
M  V30 22150 C 2095.96 -6.03053 1.91074 0
M  V30 22151 C 2094.62 -6.29768 2.21242 0
M  V30 22152 H 2093.89 -0.725004 -0.153136 0
M  V30 22153 H 2096.54 -1.88873 0.316127 0
M  V30 22154 H 2094.84 -3.52255 -1.71534 0
M  V30 22155 H 2096.54 -3.75694 -1.40196 0
M  V30 22156 H 2093.13 -4.28544 -0.0692657 0
M  V30 22157 H 2097.31 -4.91593 0.681928 0
M  V30 22158 H 2092.57 -5.8642 1.72978 0
M  V30 22159 H 2096.74 -6.50812 2.47824 0
M  V30 22160 H 2094.37 -6.9815 3.00817 0
M  V30 22161 N 2095.95 0.0584645 -1.57492 0
M  V30 22162 C 2096.89 1.08667 -2.05655 0
M  V30 22163 C 2097.89 1.39265 -0.964446 0
M  V30 22164 O 2099.09 1.38515 -1.1495 0
M  V30 22165 H 2095.47 0.367834 -0.655898 0
M  V30 22166 H 2097.44 0.654416 -2.91136 0
M  V30 22167 C 2096.19 2.38807 -2.52718 0
M  V30 22168 H 2095.51 2.16117 -3.36353 0
M  V30 22169 H 2096.95 3.09167 -2.90158 0
M  V30 22170 C 2095.41 3.0571 -1.41573 0
M  V30 22171 O 2095.94 3.94342 -0.765316 0
M  V30 22172 N 2094.15 2.66551 -1.15754 0
M  V30 22173 H 2093.69 1.94564 -1.68827 0
M  V30 22174 H 2093.65 3.11636 -0.415957 0
M  V30 22175 N 2097.42 1.54103 0.330149 0
M  V30 22176 C 2098.33 1.86042 1.42918 0
M  V30 22177 C 2099.35 0.75174 1.56923 0
M  V30 22178 O 2100.53 1.04538 1.72145 0
M  V30 22179 C 2097.59 2.07533 2.77724 0
M  V30 22180 C 2096.65 3.31356 2.7295 0
M  V30 22181 C 2095.88 3.51812 4.01328 0
M  V30 22182 O 2096.11 2.75838 4.99269 0
M  V30 22183 O 2095.04 4.45275 4.04986 0
M  V30 22184 H 2098.87 2.79483 1.18839 0
M  V30 22185 H 2096.45 1.39925 0.523569 0
M  V30 22186 H 2098.33 2.23037 3.57537 0
M  V30 22187 H 2097.01 1.1728 3.01707 0
M  V30 22188 H 2095.92 3.21243 1.91712 0
M  V30 22189 H 2097.25 4.21645 2.53922 0
M  V30 22190 N 2098.9 -0.59187 1.46064 0
M  V30 22191 C 2099.83 -1.71586 1.51957 0
M  V30 22192 C 2100.85 -1.57585 0.408771 0
M  V30 22193 O 2102.04 -1.65177 0.676661 0
M  V30 22194 C 2099.14 -3.09749 1.3751 0
M  V30 22195 C 2098.31 -3.49841 2.62546 0
M  V30 22196 C 2097.37 -4.67027 2.4243 0
M  V30 22197 O 2096.39 -4.7335 3.16115 0
M  V30 22198 N 2097.6 -5.61316 1.48003 0
M  V30 22199 H 2100.36 -1.66989 2.48867 0
M  V30 22200 H 2097.92 -0.7776 1.42003 0
M  V30 22201 H 2099.91 -3.85924 1.21839 0
M  V30 22202 H 2098.48 -3.08765 0.488162 0
M  V30 22203 H 2097.7 -2.63465 2.93223 0
M  V30 22204 H 2098.99 -3.7339 3.45626 0
M  V30 22205 H 2098.39 -5.58935 0.872231 0
M  V30 22206 H 2096.95 -6.36959 1.38298 0
M  V30 22207 N 2100.38 -1.33616 -0.835729 0
M  V30 22208 C 2101.63 -1.24597 -1.58614 0
M  V30 22209 C 2101.94 0.185813 -1.94715 0
M  V30 22210 O 2103.15 0.398045 -2.68566 0
M  V30 22211 C 2101.6 -2.18339 -2.86105 0
M  V30 22212 C 2101.21 -3.66705 -2.57355 0
M  V30 22213 C 2102.96 -2.182 -3.64128 0
M  V30 22214 C 2100.86 -4.52352 -3.80962 0
M  V30 22215 H 2099.79 -0.462802 -0.595256 0
M  V30 22216 H 2102.44 -1.58701 -0.921212 0
M  V30 22217 H 2100.83 -1.77172 -3.54156 0
M  V30 22218 H 2102 -4.16331 -1.97496 0
M  V30 22219 H 2100.32 -3.69164 -1.92631 0
M  V30 22220 H 2102.91 -2.79417 -4.55884 0
M  V30 22221 H 2103.26 -1.17789 -3.99289 0
M  V30 22222 H 2103.79 -2.57745 -3.03005 0
M  V30 22223 H 2100.53 -5.5365 -3.5093 0
M  V30 22224 H 2100.05 -4.07467 -4.40149 0
M  V30 22225 H 2101.73 -4.66315 -4.48508 0
M  V30 22226 N 2101.86 1.05436 -1.17136 0
M  V30 22227 C 2102.81 2.1523 -0.881986 0
M  V30 22228 C 2103.8 1.68713 0.152395 0
M  V30 22229 O 2105.01 1.79999 0.00555059 0
M  V30 22230 H 2101.38 0.702752 -0.267664 0
M  V30 22231 H 2103.35 2.36842 -1.81517 0
M  V30 22232 C 2102.1 3.45286 -0.409046 0
M  V30 22233 H 2101.42 3.81478 -1.19644 0
M  V30 22234 H 2102.86 4.23289 -0.245428 0
M  V30 22235 C 2101.32 3.25396 0.872886 0
M  V30 22236 O 2101.85 3.51736 1.94023 0
M  V30 22237 N 2100.06 2.78789 0.820065 0
M  V30 22238 H 2099.61 2.57554 -0.0487256 0
M  V30 22239 H 2099.56 2.65861 1.67826 0
M  V30 22240 N 2103.34 0.971211 1.24118 0
M  V30 22241 C 2104.61 0.551769 1.87656 0
M  V30 22242 C 2104.99 -0.97112 1.87437 0
M  V30 22243 O 2104.34 -1.84396 1.34946 0
M  V30 22244 C 2104.55 1.14731 3.29602 0
M  V30 22245 C 2105.9 1.23437 4.06262 0
M  V30 22246 O 2106.92 1.10009 3.38787 0
M  V30 22247 O 2105.78 1.44701 5.26995 0
M  V30 22248 H 2102.88 0.184487 0.80616 0
M  V30 22249 H 2105.42 1.06571 1.32064 0
M  V30 22250 H 2104.19 2.18994 3.2428 0
M  V30 22251 H 2103.82 0.617636 3.92773 0
M  V30 22252 N 2104.81 -1.39054 0.741747 0
M  V30 22253 C 2106.04 -2.05193 0.301789 0
M  V30 22254 C 2106.46 -1.55567 -1.05739 0
M  V30 22255 O 2105.82 -0.702382 -1.67141 0
M  V30 22256 C 2105.87 -3.59172 0.320615 0
M  V30 22257 O 2104.97 -4.06596 -0.68946 0
M  V30 22258 H 2104.32 -0.649957 0.135837 0
M  V30 22259 H 2106.85 -1.77958 1.00956 0
M  V30 22260 H 2106.86 -4.07657 0.167351 0
M  V30 22261 H 2105.53 -3.94652 1.31234 0
M  V30 22262 H 2104.11 -3.69509 -0.50178 0
M  V30 22263 N 2106.29 -0.489897 -1.49792 0
M  V30 22264 C 2107.22 0.283966 -2.31767 0
M  V30 22265 C 2108.2 0.972934 -1.39528 0
M  V30 22266 O 2109.39 0.966482 -1.68442 0
M  V30 22267 C 2106.52 1.35538 -3.19761 0
M  V30 22268 C 2105.47 0.786932 -4.20703 0
M  V30 22269 C 2104.8 1.95803 -4.97559 0
M  V30 22270 C 2106.1 -0.214528 -5.21859 0
M  V30 22271 H 2107.79 -0.40025 -2.96713 0
M  V30 22272 H 2105.34 -0.193932 -1.42688 0
M  V30 22273 H 2107.29 1.90438 -3.75914 0
M  V30 22274 H 2106.02 2.06862 -2.52736 0
M  V30 22275 H 2104.67 0.259755 -3.65679 0
M  V30 22276 H 2104.32 2.65871 -4.26992 0
M  V30 22277 H 2104.02 1.58381 -5.65853 0
M  V30 22278 H 2105.55 2.51159 -5.56553 0
M  V30 22279 H 2106.96 0.245954 -5.72772 0
M  V30 22280 H 2105.36 -0.504002 -5.9798 0
M  V30 22281 H 2106.43 -1.13417 -4.71449 0
M  V30 22282 N 2107.77 1.56011 -0.223262 0
M  V30 22283 C 2108.7 2.23355 0.680795 0
M  V30 22284 C 2109.68 1.20584 1.19973 0
M  V30 22285 O 2110.87 1.49174 1.24342 0
M  V30 22286 C 2108 2.91478 1.88833 0
M  V30 22287 C 2106.95 4.00736 1.50316 0
M  V30 22288 C 2106.28 4.56164 2.7896 0
M  V30 22289 C 2107.58 5.17697 0.69188 0
M  V30 22290 H 2109.27 2.99162 0.119304 0
M  V30 22291 H 2106.82 1.43891 0.055942 0
M  V30 22292 H 2108.77 3.37282 2.52623 0
M  V30 22293 H 2107.49 2.13121 2.47481 0
M  V30 22294 H 2106.15 3.55665 0.888708 0
M  V30 22295 H 2105.8 3.74535 3.35757 0
M  V30 22296 H 2105.5 5.29903 2.53922 0
M  V30 22297 H 2107.02 5.04687 3.43691 0
M  V30 22298 H 2108.44 5.59872 1.23353 0
M  V30 22299 H 2106.84 5.97679 0.538515 0
M  V30 22300 H 2107.91 4.83964 -0.301131 0
M  V30 22301 N 2109.25 -0.0501116 1.5752 0
M  V30 22302 C 2110.2 -1.07575 2.06229 0
M  V30 22303 C 2111.19 -1.38752 0.971818 0
M  V30 22304 O 2112.4 -1.37904 1.15683 0
M  V30 22305 H 2108.77 -0.364351 0.657839 0
M  V30 22306 H 2110.74 -0.638967 2.91479 0
M  V30 22307 C 2109.49 -2.37464 2.53981 0
M  V30 22308 H 2108.81 -2.1433 3.37495 0
M  V30 22309 H 2110.25 -3.07624 2.91793 0
M  V30 22310 C 2108.71 -3.04955 1.43192 0
M  V30 22311 O 2109.24 -3.93931 0.786218 0
M  V30 22312 N 2107.45 -2.65933 1.17165 0
M  V30 22313 H 2107 -1.93666 1.69856 0
M  V30 22314 H 2106.95 -3.11411 0.432478 0
M  V30 22315 N 2110.73 -1.54276 -0.321972 0
M  V30 22316 C 2111.66 -1.86766 -1.40146 0
M  V30 22317 C 2112.64 -0.724601 -1.53895 0
M  V30 22318 O 2113.82 -0.978478 -1.67748 0
M  V30 22319 C 2110.95 -2.09642 -2.76889 0
M  V30 22320 C 2109.91 -3.25485 -2.77927 0
M  V30 22321 C 2109.23 -3.33736 -4.17761 0
M  V30 22322 C 2110.53 -4.63097 -2.41533 0
M  V30 22323 H 2112.23 -2.77174 -1.13204 0
M  V30 22324 H 2109.77 -1.33364 -0.543134 0
M  V30 22325 H 2111.73 -2.30955 -3.52474 0
M  V30 22326 H 2110.45 -1.15985 -3.05311 0
M  V30 22327 H 2109.11 -3.04062 -2.04798 0
M  V30 22328 H 2108.76 -2.37634 -4.43327 0
M  V30 22329 H 2108.46 -4.11594 -4.19362 0
M  V30 22330 H 2109.98 -3.57285 -4.95156 0
M  V30 22331 H 2111.39 -4.84281 -3.06831 0
M  V30 22332 H 2109.79 -5.43516 -2.54382 0
M  V30 22333 H 2110.86 -4.65238 -1.3668 0
M  V30 22334 N 2112.2 0.584116 -1.46376 0
M  V30 22335 C 2113.45 1.34437 -1.51837 0
M  V30 22336 C 2113.78 1.93464 -0.168948 0
M  V30 22337 O 2113.06 1.76395 0.819455 0
M  V30 22338 C 2113.34 2.47477 -2.61586 0
M  V30 22339 C 2113.19 1.93494 -4.06054 0
M  V30 22340 C 2114.51 3.49527 -2.6743 0
M  V30 22341 H 2111.63 0.487455 -0.552772 0
M  V30 22342 H 2114.27 0.656303 -1.78305 0
M  V30 22343 H 2112.42 3.0617 -2.39148 0
M  V30 22344 H 2114.1 1.39268 -4.39775 0
M  V30 22345 H 2112.34 1.24333 -4.15601 0
M  V30 22346 H 2113.01 2.75087 -4.78572 0
M  V30 22347 H 2115.49 3.00712 -2.87596 0
M  V30 22348 H 2114.36 4.26082 -3.46043 0
M  V30 22349 H 2114.62 4.06664 -1.73426 0
M  V30 22350 N 2113.68 1.34058 0.828631 0
M  V30 22351 C 2114.63 1.25159 1.96056 0
M  V30 22352 C 2115.63 0.150843 1.68727 0
M  V30 22353 O 2116.83 0.315456 1.77214 0
M  V30 22354 H 2113.21 0.388669 0.643771 0
M  V30 22355 H 2115.18 2.20835 2.00685 0
M  V30 22356 C 2113.93 1.0181 3.32461 0
M  V30 22357 H 2113.25 1.8574 3.54035 0
M  V30 22358 H 2114.69 0.996172 4.12132 0
M  V30 22359 C 2113.15 -0.278758 3.35745 0
M  V30 22360 O 2113.68 -1.28204 3.80692 0
M  V30 22361 N 2111.88 -0.309877 2.88943 0
M  V30 22362 H 2111.43 0.507134 2.52559 0
M  V30 22363 H 2111.39 -1.17737 2.91523 0
M  V30 22364 N 2115.16 -1.04814 1.17694 0
M  V30 22365 C 2116.4 -1.79454 0.978546 0
M  V30 22366 C 2116.77 -1.85802 -0.483903 0
M  V30 22367 O 2117.97 -2.56573 -0.801495 0
M  V30 22368 C 2116.24 -3.19256 1.60656 0
M  V30 22369 S 2117.8 -4.10327 1.55489 0
M  V30 22370 H 2114.61 -0.617999 0.351565 0
M  V30 22371 H 2117.22 -1.25732 1.49706 0
M  V30 22372 H 2115.92 -3.12241 2.66334 0
M  V30 22373 H 2115.45 -3.78055 1.08801 0
M  V30 22374 H 2117.47 -4.92967 0.565526 0
M  V30 22375 N 2116.64 -0.977779 -1.23601 0
M  V30 22376 C 2117.89 -0.640749 -1.91252 0
M  V30 22377 C 2118.2 0.829108 -1.77159 0
M  V30 22378 O 2119.41 1.27709 -2.39589 0
M  V30 22379 C 2117.86 -1.09542 -3.42824 0
M  V30 22380 C 2117.47 -2.58944 -3.65584 0
M  V30 22381 C 2119.22 -0.832015 -4.16266 0
M  V30 22382 C 2117.12 -2.98092 -5.10779 0
M  V30 22383 H 2116.05 -0.235949 -0.716131 0
M  V30 22384 H 2118.7 -1.18533 -1.40079 0
M  V30 22385 H 2117.09 -0.479076 -3.93091 0
M  V30 22386 H 2118.26 -3.25795 -3.25875 0
M  V30 22387 H 2116.57 -2.83003 -3.05447 0
M  V30 22388 H 2119.17 -1.10039 -5.23255 0
M  V30 22389 H 2119.51 0.231859 -4.15654 0
M  V30 22390 H 2120.05 -1.40982 -3.7198 0
M  V30 22391 H 2116.79 -4.03592 -5.16521 0
M  V30 22392 H 2116.31 -2.35933 -5.51449 0
M  V30 22393 H 2117.99 -2.88553 -5.79091 0
M  V30 22394 N 2118.12 1.38658 -0.749111 0
M  V30 22395 C 2119.07 2.3235 -0.10773 0
M  V30 22396 C 2120.06 1.5379 0.710284 0
M  V30 22397 O 2121.27 1.69353 0.609885 0
M  V30 22398 H 2117.64 0.751829 -0.0160406 0
M  V30 22399 H 2119.61 2.84055 -0.91408 0
M  V30 22400 C 2118.36 3.38962 0.774615 0
M  V30 22401 H 2117.68 3.99501 0.154555 0
M  V30 22402 H 2119.12 4.06936 1.19076 0
M  V30 22403 C 2117.58 2.77165 1.91524 0
M  V30 22404 O 2118.11 2.66119 3.00904 0
M  V30 22405 N 2116.32 2.35041 1.70892 0
M  V30 22406 H 2115.87 2.44224 0.819286 0
M  V30 22407 H 2115.82 1.94035 2.47382 0
M  V30 22408 N 2119.6 0.497834 1.49531 0
M  V30 22409 C 2120.56 -0.27122 2.2759 0
M  V30 22410 C 2121.56 -0.89678 1.33471 0
M  V30 22411 O 2122.75 -0.761804 1.56659 0
M  V30 22412 C 2119.88 -1.38885 3.11326 0
M  V30 22413 H 2121.07 0.413704 2.97033 0
M  V30 22414 H 2118.63 0.252699 1.54244 0
M  V30 22415 H 2119.36 -2.10802 2.46441 0
M  V30 22416 H 2119.15 -0.94578 3.80523 0
M  V30 22417 H 2120.64 -1.93065 3.70291 0
M  V30 22418 N 2121.07 -1.5589 0.231532 0
M  V30 22419 C 2122.02 -2.22104 -0.690835 0
M  V30 22420 C 2123.02 -1.20363 -1.19202 0
M  V30 22421 O 2124.22 -1.38416 -1.1507 0
M  V30 22422 H 2120.6 -0.712259 -0.241228 0
M  V30 22423 H 2122.57 -2.98201 -0.109056 0
M  V30 22424 C 2121.32 -2.92249 -1.88377 0
M  V30 22425 H 2120.64 -3.703 -1.50725 0
M  V30 22426 H 2122.08 -3.41964 -2.50672 0
M  V30 22427 C 2120.54 -1.95268 -2.7454 0
M  V30 22428 O 2121.07 -1.47596 -3.73602 0
M  V30 22429 N 2119.27 -1.62701 -2.40783 0
M  V30 22430 H 2118.82 -2.01663 -1.6028 0
M  V30 22431 H 2118.78 -0.98076 -2.98711 0
M  V30 22432 N 2122.55 0.0417572 -1.57545 0
M  V30 22433 C 2123.83 0.769799 -1.79815 0
M  V30 22434 C 2124.21 1.94247 -0.826527 0
M  V30 22435 O 2123.56 2.28106 0.134058 0
M  V30 22436 C 2123.77 1.21472 -3.27178 0
M  V30 22437 C 2125.11 1.63585 -3.91823 0
M  V30 22438 O 2126.14 1.30963 -3.31251 0
M  V30 22439 O 2125 2.24087 -4.98445 0
M  V30 22440 H 2122.09 0.371214 -0.739005 0
M  V30 22441 H 2124.64 0.019513 -1.69689 0
M  V30 22442 H 2123.41 0.377014 -3.8948 0
M  V30 22443 H 2123.03 2.02541 -3.42144 0
M  V30 22444 N 2124.03 1.54445 0.313786 0
M  V30 22445 C 2125.28 1.73117 1.05056 0
M  V30 22446 C 2125.6 0.510078 1.87692 0
M  V30 22447 O 2124.86 -0.508109 1.88989 0
M  V30 22448 C 2125.16 2.96492 1.99568 0
M  V30 22449 C 2124.82 4.30835 1.3301 0
M  V30 22450 C 2123.49 4.67357 1.14589 0
M  V30 22451 C 2125.84 5.14169 0.853216 0
M  V30 22452 C 2123.17 5.84803 0.471447 0
M  V30 22453 C 2125.52 6.32307 0.192549 0
M  V30 22454 C 2124.18 6.675 -0.00372174 0
M  V30 22455 H 2123.45 0.633479 0.384428 0
M  V30 22456 H 2126.1 1.88693 0.326706 0
M  V30 22457 H 2124.4 2.75643 2.78438 0
M  V30 22458 H 2126.1 3.08133 2.56623 0
M  V30 22459 H 2122.69 4.02107 1.48351 0
M  V30 22460 H 2126.88 4.86462 0.983284 0
M  V30 22461 H 2122.13 6.10622 0.308274 0
M  V30 22462 H 2126.31 6.96154 -0.184925 0
M  V30 22463 H 2123.93 7.58362 -0.52835 0
M  V30 22464 N 2125.51 -0.576345 1.46683 0
M  V30 22465 C 2126.45 -1.68494 1.57729 0
M  V30 22466 C 2127.42 -1.6067 0.421246 0
M  V30 22467 O 2128.61 -1.79788 0.638829 0
M  V30 22468 C 2125.75 -3.0683 1.57953 0
M  V30 22469 C 2124.86 -3.25233 2.84337 0
M  V30 22470 C 2124 -4.53855 2.76024 0
M  V30 22471 C 2123.04 -4.65623 3.97319 0
M  V30 22472 N 2122.17 -5.85578 3.87354 0
M  V30 22473 H 2127.01 -1.58391 2.52421 0
M  V30 22474 H 2124.55 -0.771863 1.25223 0
M  V30 22475 H 2126.51 -3.86909 1.56068 0
M  V30 22476 H 2125.14 -3.15815 0.667889 0
M  V30 22477 H 2124.19 -2.38715 2.96174 0
M  V30 22478 H 2125.5 -3.29795 3.74215 0
M  V30 22479 H 2124.66 -5.4217 2.72281 0
M  V30 22480 H 2123.4 -4.51741 1.83797 0
M  V30 22481 H 2122.4 -3.75724 4.01387 0
M  V30 22482 H 2123.63 -4.69511 4.90649 0
M  V30 22483 H 2121.57 -5.84449 2.97918 0
M  V30 22484 H 2121.49 -5.91436 4.70892 0
M  V30 22485 H 2122.76 -6.76306 3.87596 0
M  V30 22486 N 2126.99 -1.34495 -0.82151 0
M  V30 22487 C 2128.21 -1.30011 -1.60949 0
M  V30 22488 C 2128.63 0.125523 -1.88382 0
M  V30 22489 O 2127.99 1.07303 -1.47623 0
M  V30 22490 C 2128.04 -2.09003 -2.94957 0
M  V30 22491 O 2127.76 -3.46007 -2.68721 0
M  V30 22492 C 2129.26 -2.11933 -3.89358 0
M  V30 22493 H 2126.48 -0.447203 -0.500251 0
M  V30 22494 H 2129.02 -1.7713 -1.02202 0
M  V30 22495 H 2127.18 -1.65523 -3.50258 0
M  V30 22496 H 2127.59 -3.86856 -3.54179 0
M  V30 22497 H 2129.07 -2.71623 -4.80547 0
M  V30 22498 H 2129.54 -1.11409 -4.24835 0
M  V30 22499 H 2130.15 -2.55508 -3.39993 0
M  V30 22500 N 2128.46 1.04188 -1.18248 0
M  V30 22501 C 2129.69 1.81021 -1.00194 0
M  V30 22502 C 2130.11 1.83367 0.449658 0
M  V30 22503 O 2129.46 1.26824 1.31232 0
M  V30 22504 C 2129.52 3.26678 -1.54802 0
M  V30 22505 O 2129.24 3.24548 -2.94279 0
M  V30 22506 C 2130.74 4.20161 -1.41349 0
M  V30 22507 H 2127.96 0.570098 -0.353877 0
M  V30 22508 H 2130.5 1.31316 -1.56769 0
M  V30 22509 H 2128.66 3.7362 -1.02407 0
M  V30 22510 H 2129.07 4.15787 -3.19721 0
M  V30 22511 H 2130.54 5.20304 -1.84357 0
M  V30 22512 H 2131.02 4.37705 -0.362029 0
M  V30 22513 H 2131.63 3.79083 -1.92811 0
M  V30 22514 N 2129.94 0.98432 1.23081 0
M  V30 22515 C 2130.89 0.520259 2.26707 0
M  V30 22516 C 2131.88 -0.424715 1.63989 0
M  V30 22517 O 2133.09 -0.298177 1.77513 0
M  V30 22518 H 2129.47 0.149826 0.736923 0
M  V30 22519 H 2131.44 1.40587 2.63207 0
M  V30 22520 C 2130.19 -0.157874 3.47341 0
M  V30 22521 H 2129.51 0.560186 3.95856 0
M  V30 22522 H 2130.95 -0.446157 4.21646 0
M  V30 22523 C 2129.41 -1.3904 3.0687 0
M  V30 22524 O 2129.94 -2.48637 3.15503 0
M  V30 22525 N 2128.14 -1.26249 2.61743 0
M  V30 22526 H 2127.69 -0.370736 2.54918 0
M  V30 22527 H 2127.65 -2.08824 2.35032 0
M  V30 22528 N 2131.42 -1.38259 0.756453 0
M  V30 22529 C 2132.37 -2.3043 0.130645 0
M  V30 22530 C 2133.34 -1.50324 -0.70653 0
M  V30 22531 O 2134.52 -1.78945 -0.662065 0
M  V30 22532 C 2131.66 -3.36755 -0.754338 0
M  V30 22533 C 2130.78 -4.31889 0.0977771 0
M  V30 22534 C 2129.91 -5.25286 -0.790477 0
M  V30 22535 C 2128.95 -6.12065 0.0650988 0
M  V30 22536 N 2128.09 -6.97751 -0.780275 0
M  V30 22537 H 2132.93 -2.83371 0.92222 0
M  V30 22538 H 2130.46 -1.3951 0.466406 0
M  V30 22539 H 2132.42 -3.97012 -1.2821 0
M  V30 22540 H 2131.05 -2.85216 -1.51167 0
M  V30 22541 H 2130.1 -3.73069 0.743191 0
M  V30 22542 H 2131.42 -4.93001 0.758393 0
M  V30 22543 H 2130.57 -5.90673 -1.38529 0
M  V30 22544 H 2129.31 -4.64548 -1.48482 0
M  V30 22545 H 2128.31 -5.45671 0.672561 0
M  V30 22546 H 2129.54 -6.74873 0.756543 0
M  V30 22547 H 2127.48 -6.39558 -1.45951 0
M  V30 22548 H 2127.4 -7.55794 -0.176619 0
M  V30 22549 H 2128.67 -7.67545 -1.35997 0
M  V30 22550 N 2132.9 -0.505757 -1.49264 0
M  V30 22551 C 2134.15 0.0389421 -2.01662 0
M  V30 22552 C 2134.46 1.37604 -1.39012 0
M  V30 22553 O 2135.67 2.00771 -1.82766 0
M  V30 22554 C 2134.12 0.119854 -3.597 0
M  V30 22555 C 2133.73 -1.21089 -4.31325 0
M  V30 22556 C 2135.47 0.614665 -4.20026 0
M  V30 22557 C 2133.38 -1.09188 -5.81233 0
M  V30 22558 H 2132.31 0.0183265 -0.753777 0
M  V30 22559 H 2134.96 -0.645894 -1.71757 0
M  V30 22560 H 2133.34 0.869244 -3.86342 0
M  V30 22561 H 2134.52 -1.97394 -4.1638 0
M  V30 22562 H 2132.83 -1.63951 -3.82765 0
M  V30 22563 H 2135.43 0.721287 -5.29813 0
M  V30 22564 H 2135.77 1.61466 -3.83711 0
M  V30 22565 H 2136.31 -0.0783291 -3.97723 0
M  V30 22566 H 2133.05 -2.06629 -6.22081 0
M  V30 22567 H 2132.57 -0.369793 -5.98659 0
M  V30 22568 H 2134.24 -0.772559 -6.42371 0
M  V30 22569 N 2134.38 1.55765 -0.239796 0
M  V30 22570 C 2135.63 1.97945 0.387367 0
M  V30 22571 C 2135.94 1.131 1.59586 0
M  V30 22572 O 2137.14 1.45261 2.29372 0
M  V30 22573 C 2135.6 3.52198 0.740571 0
M  V30 22574 C 2135.21 4.45773 -0.446131 0
M  V30 22575 C 2136.95 4.0305 1.33232 0
M  V30 22576 C 2134.86 5.91359 -0.0694771 0
M  V30 22577 H 2133.79 0.739231 0.148505 0
M  V30 22578 H 2136.44 1.80343 -0.338891 0
M  V30 22579 H 2134.82 3.65468 1.52476 0
M  V30 22580 H 2136 4.44259 -1.22354 0
M  V30 22581 H 2134.31 4.05364 -0.952332 0
M  V30 22582 H 2136.91 5.09335 1.62734 0
M  V30 22583 H 2137.25 3.49977 2.25437 0
M  V30 22584 H 2137.78 3.93077 0.611183 0
M  V30 22585 H 2134.52 6.48455 -0.958485 0
M  V30 22586 H 2134.04 5.96025 0.671873 0
M  V30 22587 H 2135.72 6.46048 0.350837 0
M  V30 22588 N 2135.85 -0.0334016 1.57565 0
M  V30 22589 C 2137.1 -0.726157 1.89354 0
M  V30 22590 C 2137.43 -1.75237 0.837002 0
M  V30 22591 O 2136.71 -1.93933 -0.148452 0
M  V30 22592 C 2136.99 -1.39963 3.31787 0
M  V30 22593 C 2136.84 -0.387227 4.4813 0
M  V30 22594 C 2138.16 -2.33475 3.73065 0
M  V30 22595 H 2135.28 -0.262518 0.688661 0
M  V30 22596 H 2137.92 0.0110285 1.89997 0
M  V30 22597 H 2136.07 -2.02797 3.31369 0
M  V30 22598 H 2137.75 0.238867 4.60681 0
M  V30 22599 H 2135.99 0.293911 4.32803 0
M  V30 22600 H 2136.66 -0.896846 5.44666 0
M  V30 22601 H 2139.14 -1.80688 3.74822 0
M  V30 22602 H 2138.01 -2.7758 4.73541 0
M  V30 22603 H 2138.27 -3.19962 3.05085 0
M  V30 22604 N 2137.33 -1.54609 -0.305591 0
M  V30 22605 C 2138.61 -1.64344 -1.06068 0
M  V30 22606 C 2138.99 -0.488774 -2.05364 0
M  V30 22607 O 2138.34 0.515015 -2.2262 0
M  V30 22608 C 2138.55 -3.02149 -1.74663 0
M  V30 22609 C 2139.9 -3.58808 -2.27029 0
M  V30 22610 O 2140.92 -3.04571 -1.84703 0
M  V30 22611 O 2139.78 -4.53762 -3.04568 0
M  V30 22612 H 2136.87 -0.666216 -0.489984 0
M  V30 22613 H 2139.42 -1.66954 -0.304046 0
M  V30 22614 H 2138.19 -3.77626 -1.02538 0
M  V30 22615 H 2137.81 -3.03296 -2.57094 0
M  V30 22616 N 2138.81 0.568558 -1.46987 0
M  V30 22617 C 2139.74 1.68651 -1.61491 0
M  V30 22618 C 2140.72 1.63629 -0.464706 0
M  V30 22619 O 2141.91 1.81427 -0.692676 0
M  V30 22620 C 2139.04 3.07294 -1.61826 0
M  V30 22621 C 2137.99 3.27156 -2.75959 0
M  V30 22622 C 2137.32 4.6647 -2.61361 0
M  V30 22623 C 2138.62 3.13623 -4.17658 0
M  V30 22624 H 2140.31 1.56769 -2.55076 0
M  V30 22625 H 2137.86 0.752771 -1.22757 0
M  V30 22626 H 2139.81 3.85338 -1.70565 0
M  V30 22627 H 2138.53 3.20108 -0.647937 0
M  V30 22628 H 2137.19 2.51516 -2.66712 0
M  V30 22629 H 2136.84 4.76069 -1.62381 0
M  V30 22630 H 2136.54 4.8071 -3.37923 0
M  V30 22631 H 2138.06 5.46664 -2.72012 0
M  V30 22632 H 2139.48 3.81497 -4.27941 0
M  V30 22633 H 2137.88 3.39378 -4.94917 0
M  V30 22634 H 2138.95 2.10514 -4.3682 0
M  V30 22635 N 2140.29 1.34929 0.814366 0
M  V30 22636 C 2141.51 1.31019 1.60776 0
M  V30 22637 C 2141.94 -0.111347 1.8777 0
M  V30 22638 O 2141.3 -1.07577 1.45935 0
M  V30 22639 C 2141.34 2.11503 2.92059 0
M  V30 22640 O 2140.45 1.49042 3.84526 0
M  V30 22641 H 2139.79 0.449572 0.488652 0
M  V30 22642 H 2142.32 1.77857 1.01133 0
M  V30 22643 H 2142.33 2.23174 3.41552 0
M  V30 22644 H 2141 3.14853 2.71736 0
M  V30 22645 H 2139.58 1.46165 3.4306 0
M  V30 22646 N 2141.77 -1.0356 1.18799 0
M  V30 22647 C 2143.18 -1.29071 0.938761 0
M  V30 22648 C 2143.38 -1.97635 -0.39276 0
M  V30 22649 O 2142.44 -2.26009 -1.12588 0
M  V30 22650 C 2143.75 -2.14442 2.10797 0
M  V30 22651 C 2145.3 -2.27772 2.14684 0
M  V30 22652 C 2145.77 -3.16511 3.31036 0
M  V30 22653 N 2147.27 -3.24099 3.30929 0
M  V30 22654 C 2148 -3.92932 4.17603 0
M  V30 22655 N 2147.5 -4.64053 5.14419 0
M  V30 22656 N 2149.29 -3.89263 4.05501 0
M  V30 22657 H 2141.44 -0.57466 2.04478 0
M  V30 22658 H 2143.7 -0.316119 0.893741 0
M  V30 22659 H 2143.41 -1.71376 3.07121 0
M  V30 22660 H 2143.28 -3.15136 2.0729 0
M  V30 22661 H 2145.67 -2.70072 1.18934 0
M  V30 22662 H 2145.75 -1.26651 2.22246 0
M  V30 22663 H 2145.4 -2.74921 4.27061 0
M  V30 22664 H 2145.33 -4.17675 3.20711 0
M  V30 22665 H 2147.82 -2.7344 2.60843 0
M  V30 22666 H 2148.13 -5.14187 5.76916 0
M  V30 22667 H 2146.47 -4.62941 5.18373 0
M  V30 22668 H 2149.67 -3.32836 3.29147 0
M  V30 22669 H 2149.84 -4.42635 4.73263 0
M  V30 22670 N 2143.25 -0.990834 -1.22557 0
M  V30 22671 C 2144.19 -0.532274 -2.26428 0
M  V30 22672 C 2145.19 0.416012 -1.64212 0
M  V30 22673 O 2146.39 0.288758 -1.77669 0
M  V30 22674 H 2142.77 -0.153732 -0.736118 0
M  V30 22675 H 2144.74 -1.41981 -2.62457 0
M  V30 22676 C 2143.49 0.139451 -3.4742 0
M  V30 22677 H 2142.81 -0.581172 -3.95553 0
M  V30 22678 H 2144.25 0.42379 -4.21877 0
M  V30 22679 C 2142.71 1.37411 -3.07604 0
M  V30 22680 O 2143.24 2.4696 -3.16818 0
M  V30 22681 N 2141.45 1.2486 -2.62409 0
M  V30 22682 H 2140.99 0.357212 -2.55111 0
M  V30 22683 H 2140.95 2.07575 -2.36136 0
M  V30 22684 N 2144.72 1.37856 -0.763775 0
M  V30 22685 C 2145.65 2.32961 -0.158515 0
M  V30 22686 C 2146.63 1.55381 0.692142 0
M  V30 22687 O 2147.82 1.83655 0.631241 0
M  V30 22688 C 2144.95 3.39593 0.727585 0
M  V30 22689 C 2143.9 4.27995 -0.0211379 0
M  V30 22690 C 2143.23 5.2557 0.983884 0
M  V30 22691 C 2144.53 5.08434 -1.1955 0
M  V30 22692 H 2146.22 2.83828 -0.952999 0
M  V30 22693 H 2143.77 1.36465 -0.459721 0
M  V30 22694 H 2145.72 4.05098 1.16076 0
M  V30 22695 H 2144.45 2.87233 1.5545 0
M  V30 22696 H 2143.11 3.6401 -0.435002 0
M  V30 22697 H 2142.75 4.69493 1.80514 0
M  V30 22698 H 2142.45 5.85574 0.487507 0
M  V30 22699 H 2143.98 5.9395 1.41616 0
M  V30 22700 H 2145.39 5.67122 -0.839372 0
M  V30 22701 H 2143.79 5.77724 -1.62342 0
M  V30 22702 H 2144.86 4.41575 -2.00349 0
M  V30 22703 N 2146.2 0.513665 1.48994 0
M  V30 22704 C 2147.45 -0.0183157 2.03392 0
M  V30 22705 C 2147.8 -1.33522 1.38527 0
M  V30 22706 O 2147.1 -1.84515 0.51621 0
M  V30 22707 C 2147.29 -0.214329 3.56757 0
M  V30 22708 C 2147.12 1.08203 4.36489 0
M  V30 22709 C 2145.89 1.63737 4.78036 0
M  V30 22710 C 2148.09 1.98854 4.74301 0
M  V30 22711 N 2146.07 2.87831 5.42242 0
M  V30 22712 C 2147.44 3.07525 5.38357 0
M  V30 22713 C 2149.49 1.99378 4.56238 0
M  V30 22714 C 2148.2 4.16764 5.8626 0
M  V30 22715 C 2150.22 3.07601 5.0511 0
M  V30 22716 C 2149.59 4.14991 5.69177 0
M  V30 22717 H 2145.68 0.0343931 0.781243 0
M  V30 22718 H 2148.27 0.691333 1.82013 0
M  V30 22719 H 2146.44 -0.893045 3.77994 0
M  V30 22720 H 2148.17 -0.744451 3.97794 0
M  V30 22721 H 2144.93 1.18086 4.58642 0
M  V30 22722 H 2145.35 3.50966 5.78923 0
M  V30 22723 H 2149.99 1.17654 4.061 0
M  V30 22724 H 2147.71 4.99278 6.35411 0
M  V30 22725 H 2151.3 3.09042 4.92935 0
M  V30 22726 H 2150.18 4.97353 6.06308 0
M  V30 22727 N 2147.68 -1.55636 0.248053 0
M  V30 22728 C 2148.96 -1.90888 -0.426759 0
M  V30 22729 C 2149.34 -1.16894 -1.75781 0
M  V30 22730 O 2148.68 -0.286804 -2.26693 0
M  V30 22731 C 2148.89 -3.43913 -0.593709 0
M  V30 22732 C 2150.24 -4.15188 -0.889059 0
M  V30 22733 O 2151.27 -3.49658 -0.67953 0
M  V30 22734 O 2150.13 -5.31102 -1.28815 0
M  V30 22735 H 2147.22 -0.794576 -0.2293 0
M  V30 22736 H 2149.77 -1.67165 0.292205 0
M  V30 22737 H 2148.54 -3.89784 0.3441 0
M  V30 22738 H 2148.16 -3.73502 -1.36317 0
M  V30 22739 N 2149.16 0.0250451 -1.5758 0
M  V30 22740 C 2150.41 0.713634 -1.89081 0
M  V30 22741 C 2150.73 1.7568 -0.846258 0
M  V30 22742 O 2150 1.95534 0.119612 0
M  V30 22743 H 2148.58 0.266566 -0.697819 0
M  V30 22744 H 2151.24 -0.00995501 -1.94897 0
M  V30 22745 H 2150.33 1.20068 -2.8808 0
M  V30 22746 N 2150.64 1.54769 0.297388 0
M  V30 22747 C 2151.86 1.78543 1.05533 0
M  V30 22748 C 2152.29 0.54501 1.80031 0
M  V30 22749 O 2151.64 -0.504585 1.74137 0
M  V30 22750 C 2151.69 2.99469 2.00874 0
M  V30 22751 O 2150.8 2.72847 3.09238 0
M  V30 22752 H 2150.14 0.590843 0.302985 0
M  V30 22753 H 2152.67 2.0186 0.333711 0
M  V30 22754 H 2152.68 3.27538 2.43275 0
M  V30 22755 H 2151.35 3.8941 1.46058 0
M  V30 22756 H 2149.93 2.55805 2.71327 0
M  V30 22757 N 2152.11 -0.560755 1.47286 0
M  V30 22758 C 2153.06 -1.68914 1.59908 0
M  V30 22759 C 2154.06 -1.62849 0.466545 0
M  V30 22760 O 2155.26 -1.68077 0.644218 0
M  V30 22761 H 2151.64 -0.558856 0.503174 0
M  V30 22762 H 2153.61 -1.55405 2.54739 0
M  V30 22763 C 2152.36 -3.07274 1.62721 0
M  V30 22764 H 2151.68 -3.12622 2.49214 0
M  V30 22765 H 2153.12 -3.85927 1.75603 0
M  V30 22766 C 2151.58 -3.34973 0.359852 0
M  V30 22767 O 2152.11 -3.98046 -0.540583 0
M  V30 22768 N 2150.31 -2.89599 0.24097 0
M  V30 22769 H 2149.86 -2.3845 0.974638 0
M  V30 22770 H 2149.82 -3.08503 -0.606066 0
M  V30 22771 N 2153.59 -1.35359 -0.807199 0
M  V30 22772 C 2154.54 -1.2823 -1.919 0
M  V30 22773 C 2155.51 -0.154371 -1.65381 0
M  V30 22774 O 2156.69 -0.337971 -1.87783 0
M  V30 22775 C 2153.83 -1.05957 -3.28431 0
M  V30 22776 C 2152.95 -2.27666 -3.6714 0
M  V30 22777 C 2152.08 -1.98548 -4.92699 0
M  V30 22778 C 2151.12 -3.16315 -5.24034 0
M  V30 22779 N 2150.26 -2.86976 -6.40772 0
M  V30 22780 H 2155.1 -2.23305 -1.97329 0
M  V30 22781 H 2152.63 -1.11004 -0.965216 0
M  V30 22782 H 2154.59 -0.910752 -4.07138 0
M  V30 22783 H 2153.22 -0.145447 -3.22472 0
M  V30 22784 H 2152.27 -2.53414 -2.83699 0
M  V30 22785 H 2153.59 -3.15606 -3.86257 0
M  V30 22786 H 2152.74 -1.80493 -5.7923 0
M  V30 22787 H 2151.48 -1.07893 -4.75616 0
M  V30 22788 H 2150.48 -3.34948 -4.35993 0
M  V30 22789 H 2151.71 -4.07771 -5.43047 0
M  V30 22790 H 2149.66 -1.98914 -6.25115 0
M  V30 22791 H 2149.57 -3.6845 -6.60137 0
M  V30 22792 H 2150.84 -2.72461 -7.30332 0
M  V30 22793 N 2155.07 1.02928 -1.19346 0
M  V30 22794 C 2156.03 2.09361 -0.932765 0
M  V30 22795 C 2157.03 1.60567 0.086582 0
M  V30 22796 O 2158.22 1.73569 -0.148116 0
M  V30 22797 C 2155.35 3.38524 -0.401767 0
M  V30 22798 H 2156.55 2.33922 -1.87671 0
M  V30 22799 H 2154.1 1.19532 -1.00707 0
M  V30 22800 H 2154.84 3.19632 0.548245 0
M  V30 22801 H 2154.62 3.75261 -1.13672 0
M  V30 22802 H 2156.11 4.16919 -0.238443 0
M  V30 22803 N 2156.55 0.997319 1.2203 0
M  V30 22804 C 2157.79 0.686333 1.91471 0
M  V30 22805 C 2158.15 -0.773649 1.7616 0
M  V30 22806 O 2157.44 -1.5527 1.12257 0
M  V30 22807 C 2157.64 1.0329 3.42149 0
M  V30 22808 C 2157.46 2.52502 3.72119 0
M  V30 22809 C 2156.23 3.18979 3.91893 0
M  V30 22810 C 2158.43 3.50637 3.76242 0
M  V30 22811 N 2156.41 4.57622 4.09213 0
M  V30 22812 C 2157.79 4.74757 3.98756 0
M  V30 22813 C 2159.84 3.44881 3.59112 0
M  V30 22814 C 2158.54 5.93822 4.05916 0
M  V30 22815 C 2160.57 4.63328 3.67534 0
M  V30 22816 C 2159.93 5.86249 3.90501 0
M  V30 22817 H 2156.03 0.302497 0.721124 0
M  V30 22818 H 2158.61 1.27823 1.46865 0
M  V30 22819 H 2156.79 0.469534 3.85551 0
M  V30 22820 H 2158.52 0.677443 3.9899 0
M  V30 22821 H 2155.27 2.69438 3.89487 0
M  V30 22822 H 2155.7 5.29548 4.21791 0
M  V30 22823 H 2160.34 2.50859 3.40338 0
M  V30 22824 H 2158.06 6.88244 4.23493 0
M  V30 22825 H 2161.64 4.60468 3.55612 0
M  V30 22826 H 2160.52 6.76371 3.96852 0
M  V30 22827 N 2158.03 -1.37449 0.771075 0
M  V30 22828 C 2159.28 -1.98953 0.331779 0
M  V30 22829 C 2159.59 -1.61903 -1.09758 0
M  V30 22830 O 2160.79 -2.16505 -1.63823 0
M  V30 22831 C 2159.25 -3.55792 0.542247 0
M  V30 22832 C 2158.86 -4.01781 1.98183 0
M  V30 22833 C 2160.6 -4.24173 0.16654 0
M  V30 22834 C 2158.51 -5.51327 2.13993 0
M  V30 22835 H 2157.44 -0.74434 0.120306 0
M  V30 22836 H 2160.09 -1.56988 0.950108 0
M  V30 22837 H 2158.47 -3.95733 -0.145529 0
M  V30 22838 H 2159.65 -3.73086 2.7045 0
M  V30 22839 H 2157.96 -3.46179 2.31406 0
M  V30 22840 H 2160.56 -5.34052 0.263191 0
M  V30 22841 H 2160.9 -4.06825 -0.883113 0
M  V30 22842 H 2161.43 -3.89532 0.806838 0
M  V30 22843 H 2158.17 -5.736 3.17275 0
M  V30 22844 H 2157.69 -5.81707 1.46208 0
M  V30 22845 H 2159.37 -6.17286 1.93822 0
M  V30 22846 N 2159.5 -0.52156 -1.4872 0
M  V30 22847 C 2160.44 0.292887 -2.26313 0
M  V30 22848 C 2161.42 0.952293 -1.31796 0
M  V30 22849 O 2162.6 0.978349 -1.61123 0
M  V30 22850 C 2159.73 1.4141 -3.07768 0
M  V30 22851 C 2158.77 0.866968 -4.17595 0
M  V30 22852 S 2159.61 -0.258537 -5.34876 0
M  V30 22853 C 2160.76 0.865353 -6.19889 0
M  V30 22854 H 2160.99 -0.365638 -2.95043 0
M  V30 22855 H 2158.53 -0.307197 -1.51313 0
M  V30 22856 H 2160.49 2.05642 -3.55277 0
M  V30 22857 H 2159.15 2.04432 -2.38467 0
M  V30 22858 H 2158.34 1.70784 -4.74182 0
M  V30 22859 H 2157.94 0.301497 -3.72783 0
M  V30 22860 H 2160.23 1.76594 -6.5408 0
M  V30 22861 H 2161.18 0.337647 -7.07295 0
M  V30 22862 H 2161.58 1.14196 -5.52829 0
M  V30 22863 N 2160.98 1.55502 -0.256304 0
M  V30 22864 C 2162.23 1.98775 0.36509 0
M  V30 22865 C 2162.55 1.14592 1.57778 0
M  V30 22866 O 2161.82 0.23092 1.94534 0
M  V30 22867 H 2160.4 0.734165 0.137882 0
M  V30 22868 H 2163.06 1.91597 -0.357276 0
M  V30 22869 H 2162.16 3.04871 0.667825 0
M  V30 22870 N 2162.46 -0.0166879 1.57591 0
M  V30 22871 C 2163.71 -0.706033 1.90113 0
M  V30 22872 C 2164.04 -1.74339 0.855541 0
M  V30 22873 O 2163.31 -1.94079 -0.127874 0
M  V30 22874 C 2163.6 -1.36436 3.33253 0
M  V30 22875 C 2163.45 -0.339675 4.48516 0
M  V30 22876 C 2164.77 -2.29505 3.7552 0
M  V30 22877 H 2161.89 -0.255199 0.691406 0
M  V30 22878 H 2164.53 0.0311796 1.89974 0
M  V30 22879 H 2162.68 -1.99271 3.33501 0
M  V30 22880 H 2164.35 0.287715 4.60402 0
M  V30 22881 H 2162.6 0.339799 4.32467 0
M  V30 22882 H 2163.27 -0.839026 5.45586 0
M  V30 22883 H 2165.74 -1.76702 3.76717 0
M  V30 22884 H 2164.62 -2.72542 4.76458 0
M  V30 22885 H 2164.88 -3.16708 3.08461 0
M  V30 22886 N 2163.94 -1.54924 -0.289176 0
M  V30 22887 C 2164.89 -1.86692 -1.35701 0
M  V30 22888 C 2165.86 -0.716885 -1.49833 0
M  V30 22889 O 2167.04 -0.966637 -1.64502 0
M  V30 22890 C 2164.18 -2.13019 -2.71509 0
M  V30 22891 C 2163.29 -3.40605 -2.6573 0
M  V30 22892 C 2162.43 -3.56714 -3.9361 0
M  V30 22893 C 2161.47 -4.78049 -3.82276 0
M  V30 22894 N 2160.6 -4.90901 -5.01957 0
M  V30 22895 H 2165.44 -2.77776 -1.07909 0
M  V30 22896 H 2162.98 -1.37539 -0.52168 0
M  V30 22897 H 2164.94 -2.2628 -3.50504 0
M  V30 22898 H 2163.57 -1.25188 -2.97536 0
M  V30 22899 H 2162.62 -3.35902 -1.78533 0
M  V30 22900 H 2163.93 -4.29728 -2.53249 0
M  V30 22901 H 2163.09 -3.69704 -4.81045 0
M  V30 22902 H 2161.83 -2.65745 -4.08939 0
M  V30 22903 H 2160.83 -4.6508 -2.93225 0
M  V30 22904 H 2162.06 -5.70437 -3.68482 0
M  V30 22905 H 2160 -4.02859 -5.17726 0
M  V30 22906 H 2159.92 -5.74044 -4.91945 0
M  V30 22907 H 2161.19 -5.0826 -5.91009 0
M  V30 22908 N 2165.42 0.552936 -1.47582 0
M  V30 22909 C 2166.37 1.65526 -1.56796 0
M  V30 22910 C 2167.35 1.55143 -0.426565 0
M  V30 22911 O 2168.54 1.63552 -0.67673 0
M  V30 22912 C 2165.67 3.04296 -1.58931 0
M  V30 22913 C 2164.76 3.19868 -2.7847 0
M  V30 22914 N 2165.15 3.05489 -4.03125 0
M  V30 22915 C 2163.45 3.50877 -2.75321 0
M  V30 22916 C 2164.15 3.23865 -4.83204 0
M  V30 22917 N 2163.12 3.50395 -4.15601 0
M  V30 22918 H 2166.93 1.52985 -2.50944 0
M  V30 22919 H 2164.44 0.757807 -1.43635 0
M  V30 22920 H 2166.44 3.83449 -1.63622 0
M  V30 22921 H 2165.1 3.17946 -0.658821 0
M  V30 22922 H 2166.11 2.82727 -4.33919 0
M  V30 22923 H 2162.78 3.71027 -1.91429 0
M  V30 22924 H 2164.17 3.17681 -5.92055 0
M  V30 22925 N 2166.89 1.35785 0.800009 0
M  V30 22926 C 2168.14 1.28759 1.55255 0
M  V30 22927 C 2168.46 -0.134123 1.9514 0
M  V30 22928 O 2169.66 -0.3267 2.69527 0
M  V30 22929 C 2168.12 2.25848 2.80215 0
M  V30 22930 C 2167.73 3.73399 2.47542 0
M  V30 22931 C 2169.47 2.27777 3.58215 0
M  V30 22932 C 2167.38 4.62293 3.68834 0
M  V30 22933 H 2166.31 0.478422 0.582777 0
M  V30 22934 H 2168.96 1.61087 0.878812 0
M  V30 22935 H 2167.34 1.86499 3.49334 0
M  V30 22936 H 2168.51 4.21421 1.86389 0
M  V30 22937 H 2166.83 3.74142 1.82775 0
M  V30 22938 H 2169.43 2.91406 4.48315 0
M  V30 22939 H 2169.77 1.28334 3.96025 0
M  V30 22940 H 2170.3 2.65688 2.96065 0
M  V30 22941 H 2167.04 5.6276 3.36127 0
M  V30 22942 H 2166.56 4.18993 4.29191 0
M  V30 22943 H 2168.24 4.78042 4.35987 0
M  V30 22944 N 2168.37 -1.02294 1.19891 0
M  V30 22945 C 2169.62 -1.75196 0.999463 0
M  V30 22946 C 2169.93 -1.89874 -0.469823 0
M  V30 22947 O 2171.14 -2.59806 -0.788235 0
M  V30 22948 C 2169.6 -3.15074 1.73944 0
M  V30 22949 C 2169.2 -3.0843 3.24923 0
M  V30 22950 C 2170.95 -3.9223 1.62345 0
M  V30 22951 C 2168.86 -4.43277 3.91484 0
M  V30 22952 H 2167.79 -0.656782 0.370342 0
M  V30 22953 H 2170.44 -1.14434 1.43447 0
M  V30 22954 H 2168.82 -3.76339 1.23227 0
M  V30 22955 H 2169.99 -2.5651 3.82804 0
M  V30 22956 H 2168.31 -2.44769 3.36864 0
M  V30 22957 H 2170.9 -4.91983 2.09419 0
M  V30 22958 H 2171.25 -4.1226 0.578579 0
M  V30 22959 H 2171.78 -3.37579 2.1044 0
M  V30 22960 H 2168.52 -4.28451 4.96095 0
M  V30 22961 H 2168.04 -4.95228 3.38392 0
M  V30 22962 H 2169.72 -5.12142 3.95373 0
M  V30 22963 N 2169.85 -1.00378 -1.21499 0
M  V30 22964 C 2171.26 -0.719279 -1.72288 0
M  V30 22965 C 2171.61 0.763155 -1.8075 0
M  V30 22966 O 2170.74 1.59617 -1.46121 0
M  V30 22967 C 2171.33 -1.299 -3.12908 0
M  V30 22968 C 2169.89 -1.06365 -3.61059 0
M  V30 22969 C 2169.04 -1.41257 -2.38625 0
M  V30 22970 H 2171.99 -1.17483 -1.06694 0
M  V30 22971 H 2172.01 -0.683038 -3.74319 0
M  V30 22972 H 2171.52 -2.37794 -3.06718 0
M  V30 22973 H 2169.62 -0.00182202 -3.726 0
M  V30 22974 H 2169.74 -1.73468 -4.46593 0
M  V30 22975 H 2168.1 -0.831332 -2.40751 0
M  V30 22976 H 2168.88 -2.50179 -2.35086 0
M  V30 22977 N 2171.33 1.37038 -0.778354 0
M  V30 22978 C 2172.28 2.30193 -0.167288 0
M  V30 22979 C 2173.25 1.51429 0.682526 0
M  V30 22980 O 2174.43 1.79976 0.633513 0
M  V30 22981 C 2171.57 3.37912 0.700668 0
M  V30 22982 C 2170.68 4.31679 -0.166475 0
M  V30 22983 C 2169.82 5.26477 0.706809 0
M  V30 22984 C 2168.86 6.11884 -0.162465 0
M  V30 22985 N 2167.99 6.98904 0.66917 0
M  V30 22986 H 2172.83 2.81868 -0.967185 0
M  V30 22987 H 2170.37 1.3875 -0.488542 0
M  V30 22988 H 2172.33 3.99001 1.21877 0
M  V30 22989 H 2170.96 2.87585 1.4661 0
M  V30 22990 H 2170.01 3.7184 -0.802449 0
M  V30 22991 H 2171.32 4.91732 -0.836729 0
M  V30 22992 H 2170.48 5.92802 1.29115 0
M  V30 22993 H 2169.22 4.66851 1.41073 0
M  V30 22994 H 2168.22 5.44532 -0.759288 0
M  V30 22995 H 2169.45 6.73584 -0.863814 0
M  V30 22996 H 2167.39 6.41799 1.35758 0
M  V30 22997 H 2167.31 7.55979 0.0563568 0
M  V30 22998 H 2168.58 7.69611 1.23769 0
M  V30 22999 N 2172.81 0.529439 1.48441 0
M  V30 23000 C 2174.05 -0.00285821 2.044 0
M  V30 23001 C 2174.41 -1.31631 1.39776 0
M  V30 23002 O 2175.61 -1.93461 1.86618 0
M  V30 23003 C 2173.88 -0.122915 3.57189 0
M  V30 23004 S 2175.44 -0.605355 4.34604 0
M  V30 23005 H 2172.26 0.0118032 0.710902 0
M  V30 23006 H 2174.86 0.709877 1.82157 0
M  V30 23007 H 2173.57 0.837857 4.01756 0
M  V30 23008 H 2173.1 -0.860045 3.83884 0
M  V30 23009 H 2175.11 -1.86995 4.59616 0
M  V30 23010 O 2174.32 -1.56302 0.406435 0
M  V30 23011 H 2175.02 -1.93231 -0.13471 0
M  V30 END ATOM
M  V30 BEGIN BOND
M  V30 END BOND
M  V30 END CTAB
M  END
$$$$
