drugbank_target|O97313 40S ribosomal protein S3a (DB11638)
 OpenBabel12092121103D

  0  0  0     0  0            999 V3000
M  V30 BEGIN CTAB
M  V30 COUNTS 4364 4391 0 0 0
M  V30 BEGIN ATOM
M  V30 1 H -0.908 1.98254 -0.117106 0
M  V30 2 N 0 1.576 0 0
M  V30 3 C 0.933 2.03868 1.02534 0
M  V30 4 C 1.911 0.928543 1.3348 0
M  V30 5 O 3.095 1.19667 1.45644 0
M  V30 6 C 0.222 2.43627 2.35294 0
M  V30 7 C -0.732 3.65373 2.2001 0
M  V30 8 S 0.101 5.13292 1.52614 0
M  V30 9 C 1.257 5.56322 2.86805 0
M  V30 10 H 1.49 2.90518 0.631377 0
M  V30 11 H -0.977 1.52953 0.210867 0
M  V30 12 H 0.981 2.67203 3.11629 0
M  V30 13 H -0.358 1.57376 2.7183 0
M  V30 14 H -1.165 3.90944 3.18086 0
M  V30 15 H -1.563 3.418 1.51819 0
M  V30 16 H 0.729 5.58782 3.83104 0
M  V30 17 H 1.672 6.56266 2.65933 0
M  V30 18 H 2.08 4.83886 2.90714 0
M  V30 19 N 1.4781 -0.272755 1.55222 0
M  V30 20 C 2.4411 -1.32041 1.87344 0
M  V30 21 C 3.4411 -1.42342 0.74803 0
M  V30 22 O 4.6311 -1.41488 1.0162 0
M  V30 23 C 1.7631 -2.70173 2.07893 0
M  V30 24 H 2.9561 -1.04789 2.80997 0
M  V30 25 H 0.5091 -0.51083 1.47717 0
M  V30 26 H 1.2441 -3.02605 1.16622 0
M  V30 27 H 1.0291 -2.64082 2.89833 0
M  V30 28 H 2.5191 -3.45869 2.34017 0
M  V30 29 N 2.9562 -1.48159 -0.537278 0
M  V30 30 C 4.2022 -1.56035 -1.29541 0
M  V30 31 C 4.5352 -0.230377 -1.92829 0
M  V30 32 O 3.8102 0.762952 -1.78911 0
M  V30 33 C 4.0932 -2.69323 -2.39034 0
M  V30 34 C 3.9462 -4.12002 -1.80485 0
M  V30 35 C 5.2652 -2.78408 -3.40847 0
M  V30 36 H 2.3842 -0.567992 -0.469632 0
M  V30 37 H 5.0262 -1.80302 -0.599277 0
M  V30 38 H 3.1762 -2.48763 -2.98412 0
M  V30 39 H 4.8482 -4.43981 -1.25215 0
M  V30 40 H 3.0912 -4.19344 -1.11055 0
M  V30 41 H 3.7622 -4.87077 -2.59731 0
M  V30 42 H 6.2382 -2.97012 -2.91416 0
M  V30 43 H 5.1142 -3.59416 -4.14863 0
M  V30 44 H 5.3752 -1.86269 -4.00944 0
M  V30 45 N 4.4343 0.785586 -1.36625 0
M  V30 46 C 5.6823 1.54057 -1.30808 0
M  V30 47 C 6.0033 1.94683 0.111157 0
M  V30 48 O 5.2733 1.65241 1.05224 0
M  V30 49 H 3.8533 0.571354 -0.481211 0
M  V30 50 H 6.5153 0.935821 -1.70963 0
M  V30 51 H 5.6113 2.44637 -1.93801 0
M  V30 52 N 5.9124 1.20967 1.01018 0
M  V30 53 C 6.8594 0.964281 2.09691 0
M  V30 54 C 7.8294 -0.107853 1.65749 0
M  V30 55 O 9.0144 0.0381987 1.90762 0
M  V30 56 C 6.1544 0.52943 3.41015 0
M  V30 57 C 5.2674 1.67043 3.98398 0
M  V30 58 C 4.4024 1.18525 5.17808 0
M  V30 59 C 3.4414 2.29892 5.67288 0
M  V30 60 N 2.5784 1.82546 6.77954 0
M  V30 61 H 7.4184 1.89463 2.30017 0
M  V30 62 H 4.9554 0.944289 1.1279 0
M  V30 63 H 6.9134 0.258588 4.16398 0
M  V30 64 H 5.5434 -0.363919 3.20742 0
M  V30 65 H 4.5954 2.05603 3.20049 0
M  V30 66 H 5.9074 2.50877 4.31117 0
M  V30 67 H 5.0614 0.870762 6.00419 0
M  V30 68 H 3.8004 0.316887 4.86669 0
M  V30 69 H 2.8054 2.6215 4.83278 0
M  V30 70 H 4.0304 3.17216 6.00459 0
M  V30 71 H 1.9764 0.980454 6.48632 0
M  V30 72 H 1.8934 2.59956 7.09901 0
M  V30 73 H 3.1614 1.54115 7.64113 0
M  V30 74 N 7.3905 -1.2043 1.01659 0
M  V30 75 C 8.3385 -2.25249 0.580143 0
M  V30 76 C 9.3325 -1.65057 -0.381115 0
M  V30 77 O 10.5385 -1.78241 -0.251039 0
M  V30 78 H 6.9135 -0.732695 0.169299 0
M  V30 79 H 8.8845 -2.59389 1.47512 0
M  V30 80 C 7.6335 -3.47638 -0.065788 0
M  V30 81 H 6.9565 -3.94233 0.664874 0
M  V30 82 H 8.3965 -4.2268 -0.334282 0
M  V30 83 C 6.8555 -3.10447 -1.3086 0
M  V30 84 O 7.3855 -3.21981 -2.4019 0
M  V30 85 N 5.5915 -2.64996 -1.1927 0
M  V30 86 H 5.1385 -2.55811 -0.303064 0
M  V30 87 H 5.0965 -2.40482 -2.02523 0
M  V30 88 N 8.8686 -0.792821 -1.36206 0
M  V30 89 C 9.8156 -0.191653 -2.30003 0
M  V30 90 C 10.7856 0.666453 -1.52143 0
M  V30 91 O 11.9706 0.61442 -1.80636 0
M  V30 92 C 9.1106 0.664848 -3.38635 0
M  V30 93 C 8.2236 -0.212175 -4.31479 0
M  V30 94 C 7.3586 0.651022 -5.27196 0
M  V30 95 C 6.3976 -0.227247 -6.11678 0
M  V30 96 N 5.5346 0.595127 -6.99573 0
M  V30 97 H 10.3746 -0.996978 -2.80828 0
M  V30 98 H 7.9116 -0.503206 -1.38225 0
M  V30 99 H 9.8696 1.17645 -4.00269 0
M  V30 100 H 8.4996 1.43557 -2.89122 0
M  V30 101 H 7.5516 -0.841777 -3.70969 0
M  V30 102 H 8.8636 -0.888751 -4.90818 0
M  V30 103 H 8.0176 1.2283 -5.94136 0
M  V30 104 H 6.7566 1.36121 -4.68319 0
M  V30 105 H 5.7616 -0.816904 -5.43697 0
M  V30 106 H 6.9866 -0.93509 -6.72631 0
M  V30 107 H 4.9326 1.28955 -6.432 0
M  V30 108 H 4.8496 -0.0236952 -7.55996 0
M  V30 109 H 6.1176 1.15613 -7.70879 0
M  V30 110 N 10.3467 1.47872 -0.545128 0
M  V30 111 C 11.7627 1.5829 -0.204032 0
M  V30 112 C 11.9627 1.54529 1.29317 0
M  V30 113 O 11.0187 1.44232 2.07252 0
M  V30 114 C 12.3317 2.89304 -0.819987 0
M  V30 115 C 13.8797 3.02864 -0.790105 0
M  V30 116 C 14.3547 4.3656 -1.38491 0
M  V30 117 N 15.8457 4.43165 -1.34755 0
M  V30 118 C 16.5807 5.45153 -1.77753 0
M  V30 119 N 16.0767 6.54016 -2.2855 0
M  V30 120 N 17.8697 5.36125 -1.68897 0
M  V30 121 H 10.0207 1.4856 -1.51802 0
M  V30 122 H 12.2837 0.706305 -0.632327 0
M  V30 123 H 11.9897 2.97757 -1.87173 0
M  V30 124 H 11.8637 3.75957 -0.305915 0
M  V30 125 H 14.2507 2.94014 0.252913 0
M  V30 126 H 14.3317 2.17782 -1.34181 0
M  V30 127 H 13.9757 4.46164 -2.42693 0
M  V30 128 H 13.9057 5.20353 -0.808754 0
M  V30 129 H 16.3967 3.65083 -0.975855 0
M  V30 130 H 16.7097 7.27994 -2.59314 0
M  V30 131 H 15.0547 6.54938 -2.32553 0
M  V30 132 H 18.2457 4.49975 -1.28998 0
M  V30 133 H 18.4187 6.15472 -2.02726 0
M  V30 134 N 11.8248 0.280983 1.55075 0
M  V30 135 C 13.0528 -0.337293 2.04132 0
M  V30 136 C 13.4678 -1.4903 1.15912 0
M  V30 137 O 12.8248 -1.81606 0.180459 0
M  V30 138 C 12.8758 -0.812706 3.52246 0
M  V30 139 O 12.5968 0.294387 4.3711 0
M  V30 140 C 14.0978 -1.4982 4.17216 0
M  V30 141 H 11.3178 -0.0761638 0.666663 0
M  V30 142 H 13.8618 0.414787 2.00249 0
M  V30 143 H 12.0168 -1.51486 3.56554 0
M  V30 144 H 12.4308 -0.0721325 5.2445 0
M  V30 145 H 13.9048 -1.7822 5.22438 0
M  V30 146 H 14.3818 -2.43168 3.65741 0
M  V30 147 H 14.9878 -0.839742 4.16927 0
M  V30 148 N 13.3029 -1.57598 0.00835791 0
M  V30 149 C 14.5279 -1.95617 -0.689103 0
M  V30 150 C 14.9529 -0.883753 -1.66046 0
M  V30 151 O 14.3109 0.157352 -1.80616 0
M  V30 152 C 14.3589 -3.32736 -1.38994 0
M  V30 153 O 13.4629 -3.27631 -2.50463 0
M  V30 154 H 12.8039 -0.638379 -0.182668 0
M  V30 155 H 15.3339 -2.045 0.064036 0
M  V30 156 H 15.3439 -3.68494 -1.75147 0
M  V30 157 H 14.0189 -4.1034 -0.677778 0
M  V30 158 H 12.5959 -3.03561 -2.16576 0
M  V30 159 N 14.781 0.264519 -1.55364 0
M  V30 160 C 15.728 1.32717 -1.88825 0
M  V30 161 C 16.698 1.48675 -0.740605 0
M  V30 162 O 17.883 1.62945 -0.992657 0
M  V30 163 C 15.023 2.68089 -2.17307 0
M  V30 164 C 14.136 2.60284 -3.44785 0
M  V30 165 C 13.271 3.87892 -3.62924 0
M  V30 166 C 12.31 3.74631 -4.84064 0
M  V30 167 N 11.447 4.94092 -4.98816 0
M  V30 168 H 16.287 1.03481 -2.79456 0
M  V30 169 H 13.824 0.499757 -1.3835 0
M  V30 170 H 15.782 3.46864 -2.31821 0
M  V30 171 H 14.412 2.95509 -1.299 0
M  V30 172 H 13.464 1.73173 -3.38697 0
M  V30 173 H 14.776 2.46388 -4.33698 0
M  V30 174 H 13.93 4.75109 -3.77302 0
M  V30 175 H 12.669 4.04664 -2.7221 0
M  V30 176 H 11.674 2.85797 -4.69681 0
M  V30 177 H 12.899 3.5937 -5.76221 0
M  V30 178 H 10.845 5.11259 -4.11036 0
M  V30 179 H 10.762 4.8276 -5.81789 0
M  V30 180 H 12.03 5.82857 -5.17588 0
M  V30 181 N 16.2591 1.48442 0.529413 0
M  V30 182 C 17.5071 1.56179 1.28267 0
M  V30 183 C 17.8281 0.237721 1.93546 0
M  V30 184 O 17.0981 -0.740779 1.81354 0
M  V30 185 H 15.6781 0.575367 0.476405 0
M  V30 186 H 18.3401 1.84909 0.61602 0
M  V30 187 H 17.4361 2.34312 2.06165 0
M  V30 188 N 17.7372 -0.778329 1.37039 0
M  V30 189 C 18.6842 -1.89139 1.32269 0
M  V30 190 C 19.6542 -1.65017 0.189387 0
M  V30 191 O 20.8392 -1.87024 0.377693 0
M  V30 192 C 17.9792 -3.26112 1.12894 0
M  V30 193 C 17.0922 -3.62233 2.35396 0
M  V30 194 C 16.2272 -4.8838 2.08946 0
M  V30 195 C 15.2662 -5.17212 3.2735 0
M  V30 196 N 14.4032 -6.34546 3.00492 0
M  V30 197 H 19.2432 -1.92552 2.27437 0
M  V30 198 H 16.7802 -0.941473 1.13025 0
M  V30 199 H 18.7382 -4.05116 0.996835 0
M  V30 200 H 17.3682 -3.22091 0.213758 0
M  V30 201 H 16.4202 -2.78265 2.5937 0
M  V30 202 H 17.7322 -3.79481 3.23721 0
M  V30 203 H 16.8862 -5.75274 1.92729 0
M  V30 204 H 15.6252 -4.73222 1.17949 0
M  V30 205 H 14.6302 -4.28796 3.44113 0
M  V30 206 H 15.8552 -5.34283 4.19188 0
M  V30 207 H 13.8012 -6.20759 2.12118 0
M  V30 208 H 13.7182 -6.52179 3.82358 0
M  V30 209 H 14.9862 -7.24394 2.87879 0
M  V30 210 N 19.2153 -1.21501 -1.00376 0
M  V30 211 C 20.1623 -0.975387 -2.09177 0
M  V30 212 C 21.1323 0.0990615 -1.65804 0
M  V30 213 O 22.3173 -0.0483147 -1.90739 0
M  V30 214 C 19.4573 -0.547507 -3.40729 0
M  V30 215 C 18.5703 -1.69153 -3.97506 0
M  V30 216 C 17.7053 -1.2127 -5.17172 0
M  V30 217 C 16.7443 -2.32897 -5.66061 0
M  V30 218 N 15.8813 -1.86138 -6.76976 0
M  V30 219 H 20.7213 -1.9068 -2.29009 0
M  V30 220 H 18.2583 -0.950257 -1.12288 0
M  V30 221 H 20.2163 -0.280667 -4.16255 0
M  V30 222 H 18.8463 0.346904 -3.20931 0
M  V30 223 H 17.8983 -2.07298 -3.18954 0
M  V30 224 H 19.2103 -2.5316 -4.29781 0
M  V30 225 H 18.3643 -0.902591 -5.99948 0
M  V30 226 H 17.1033 -0.342692 -4.86495 0
M  V30 227 H 16.1083 -2.64709 -4.81881 0
M  V30 228 H 17.3333 -3.20396 -5.98768 0
M  V30 229 H 15.2793 -1.01484 -6.48103 0
M  V30 230 H 15.1963 -2.63717 -7.08512 0
M  V30 231 H 16.4643 -1.58165 -7.63285 0
M  V30 232 N 20.6934 1.19889 -1.02296 0
M  V30 233 C 21.9414 1.89046 -0.714558 0
M  V30 234 C 22.2624 1.79636 0.758681 0
M  V30 235 O 21.5324 1.20292 1.54618 0
M  V30 236 H 20.1124 0.699802 -0.261317 0
M  V30 237 H 22.7744 1.45574 -1.29592 0
M  V30 238 H 21.8704 2.95524 -1.0036 0
M  V30 239 N 22.1715 0.800033 1.35784 0
M  V30 240 C 23.4195 0.376597 1.9856 0
M  V30 241 C 23.7405 -1.05812 1.63795 0
M  V30 242 O 23.0105 -1.73103 0.917171 0
M  V30 243 H 21.5905 0.136261 0.734467 0
M  V30 244 H 24.2525 1.02442 1.65806 0
M  V30 245 H 23.3485 0.477002 3.08433 0
M  V30 246 N 23.6496 -1.47581 0.552962 0
M  V30 247 C 24.5966 -2.29957 -0.197108 0
M  V30 248 C 25.5666 -1.38799 -0.912359 0
M  V30 249 O 26.7516 -1.67761 -0.908888 0
M  V30 250 C 23.8916 -3.22672 -1.22379 0
M  V30 251 C 23.0046 -4.28919 -0.515038 0
M  V30 252 C 22.1396 -5.0879 -1.52664 0
M  V30 253 C 21.1786 -6.06815 -0.802631 0
M  V30 254 N 20.3156 -6.7966 -1.76086 0
M  V30 255 H 25.1556 -2.93578 0.511486 0
M  V30 256 H 22.6926 -1.4471 0.264067 0
M  V30 257 H 24.6506 -3.74845 -1.83159 0
M  V30 258 H 23.2806 -2.60925 -1.90047 0
M  V30 259 H 22.3326 -3.79835 0.207192 0
M  V30 260 H 23.6446 -4.98773 0.0523425 0
M  V30 261 H 22.7986 -5.65091 -2.20809 0
M  V30 262 H 21.5376 -4.38828 -2.12794 0
M  V30 263 H 20.5426 -5.49695 -0.107238 0
M  V30 264 H 21.7676 -6.78784 -0.207135 0
M  V30 265 H 19.7136 -6.12432 -2.35081 0
M  V30 266 H 19.6306 -7.45669 -1.24552 0
M  V30 267 H 20.8986 -7.40538 -2.43359 0
M  V30 268 N 25.1277 -0.289203 -1.54924 0
M  V30 269 C 26.0747 0.592115 -2.23075 0
M  V30 270 C 27.0447 1.13881 -1.20915 0
M  V30 271 O 28.2297 1.18551 -1.495 0
M  V30 272 C 25.3697 1.76376 -2.96623 0
M  V30 273 C 24.4827 1.24959 -4.13533 0
M  V30 274 C 23.6177 2.38416 -4.74691 0
M  V30 275 C 22.6567 1.84072 -5.83767 0
M  V30 276 N 21.7937 2.91057 -6.38929 0
M  V30 277 H 26.6337 0.00432038 -2.98 0
M  V30 278 H 24.1707 -0.00963529 -1.47097 0
M  V30 279 H 26.1287 2.45268 -3.3749 0
M  V30 280 H 24.7587 2.32337 -2.24097 0
M  V30 281 H 23.8107 0.453307 -3.77689 0
M  V30 282 H 25.1227 0.811662 -4.92152 0
M  V30 283 H 24.2767 3.15276 -5.18349 0
M  V30 284 H 23.0157 2.8553 -3.95378 0
M  V30 285 H 22.0207 1.05697 -5.39545 0
M  V30 286 H 23.2457 1.37877 -6.64956 0
M  V30 287 H 21.1917 3.37526 -5.62505 0
M  V30 288 H 21.1087 2.51724 -7.12861 0
M  V30 289 H 22.3767 3.6785 -6.87246 0
M  V30 290 N 26.6058 1.57591 -0.0167156 0
M  V30 291 C 27.5528 2.09462 0.969251 0
M  V30 292 C 28.5228 0.99381 1.33089 0
M  V30 293 O 29.7078 1.26726 1.42636 0
M  V30 294 C 26.8478 2.61622 2.25051 0
M  V30 295 C 25.9608 3.85666 1.94642 0
M  V30 296 C 25.0958 4.26266 3.16972 0
M  V30 297 C 24.1348 5.43101 2.82326 0
M  V30 298 N 23.2718 5.78915 3.97243 0
M  V30 299 H 28.1118 2.93428 0.519997 0
M  V30 300 H 25.6488 1.45044 0.245087 0
M  V30 301 H 27.6068 2.89949 2.99976 0
M  V30 302 H 26.2368 1.80505 2.67615 0
M  V30 303 H 25.2888 3.64145 1.10013 0
M  V30 304 H 26.6008 4.70678 1.65117 0
M  V30 305 H 25.7548 4.55963 4.00228 0
M  V30 306 H 24.4938 3.39996 3.49648 0
M  V30 307 H 23.4988 5.1311 1.97479 0
M  V30 308 H 24.7238 6.3106 2.50879 0
M  V30 309 H 22.6698 4.95602 4.29785 0
M  V30 310 H 22.5868 6.58539 3.71299 0
M  V30 311 H 23.8548 6.13212 4.81239 0
M  V30 312 N 28.0839 -0.256276 1.55502 0
M  V30 313 C 29.3299 -0.987079 1.77157 0
M  V30 314 C 29.6629 -1.85327 0.580315 0
M  V30 315 O 28.9379 -1.89874 -0.421686 0
M  V30 316 C 29.2209 -1.85553 3.08613 0
M  V30 317 C 29.0739 -1.01816 4.38125 0
M  V30 318 C 30.3929 -2.8397 3.36228 0
M  V30 319 H 27.5119 -0.357428 0.644526 0
M  V30 320 H 30.1539 -0.258239 1.88237 0
M  V30 321 H 28.3039 -2.47695 2.99298 0
M  V30 322 H 29.9759 -0.416159 4.59419 0
M  V30 323 H 28.2189 -0.322178 4.32602 0
M  V30 324 H 28.8899 -1.65939 5.26468 0
M  V30 325 H 31.3659 -2.31964 3.45445 0
M  V30 326 H 30.2419 -3.41864 4.29442 0
M  V30 327 H 30.5029 -3.59955 2.56681 0
M  V30 328 N 29.562 -1.4872 -0.521534 0
M  V30 329 C 30.79 -1.60843 -1.30142 0
M  V30 330 C 31.205 -0.271897 -1.86832 0
M  V30 331 O 30.562 0.739969 -1.66825 0
M  V30 332 C 30.613 -2.66155 -2.4463 0
M  V30 333 O 30.334 -3.94623 -1.90275 0
M  V30 334 C 31.835 -2.88795 -3.36322 0
M  V30 335 H 29.055 -0.542075 -0.395468 0
M  V30 336 H 31.599 -1.94609 -0.628285 0
M  V30 337 H 29.754 -2.35224 -3.07812 0
M  V30 338 H 30.168 -4.52468 -2.65279 0
M  V30 339 H 31.642 -3.66264 -4.12983 0
M  V30 340 H 32.119 -1.97934 -3.9207 0
M  V30 341 H 32.725 -3.21063 -2.78924 0
M  V30 342 N 31.0401 0.771051 -1.3745 0
M  V30 343 C 32.3171 1.519 -1.23231 0
M  V30 344 C 32.6971 2.10383 0.173809 0
M  V30 345 O 32.0451 1.95583 1.18151 0
M  V30 346 C 32.2551 2.59933 -2.32886 0
M  V30 347 C 33.6031 3.27316 -2.70461 0
M  V30 348 O 34.6271 2.70228 -2.32068 0
M  V30 349 O 33.4861 4.30531 -3.36608 0
M  V30 350 H 30.5801 0.672803 -0.480901 0
M  V30 351 H 33.1261 0.807957 -1.49232 0
M  V30 352 H 31.8981 2.14842 -3.27045 0
M  V30 353 H 31.5211 3.38637 -2.08353 0
M  V30 354 N 32.5182 1.22032 0.997298 0
M  V30 355 C 33.7642 1.04376 1.73878 0
M  V30 356 C 34.0972 -0.420716 1.89588 0
M  V30 357 O 33.3722 -1.31202 1.43583 0
M  V30 358 C 33.6552 1.75047 3.14691 0
M  V30 359 C 33.5082 3.29062 3.06656 0
M  V30 360 C 34.8272 1.49928 4.13775 0
M  V30 361 H 31.9462 0.380578 0.631133 0
M  V30 362 H 34.5882 1.50312 1.16217 0
M  V30 363 H 32.7382 1.35996 3.63919 0
M  V30 364 H 34.4102 3.7753 2.65083 0
M  V30 365 H 32.6532 3.58967 2.43568 0
M  V30 366 H 33.3242 3.73683 4.06282 0
M  V30 367 H 35.8002 1.83842 3.73285 0
M  V30 368 H 34.6762 2.01878 5.10428 0
M  V30 369 H 34.9372 0.430929 4.39995 0
M  V30 370 N 33.9963 -1.19345 1.0293 0
M  V30 371 C 35.2433 -1.89038 0.726008 0
M  V30 372 C 35.5713 -1.79649 -0.745427 0
M  V30 373 O 34.8263 -1.18354 -1.55855 0
M  V30 374 C 35.1253 -3.39292 1.12319 0
M  V30 375 C 34.7913 -3.68885 2.59297 0
M  V30 376 C 33.4533 -3.76671 2.99453 0
M  V30 377 C 35.8053 -3.82178 3.54386 0
M  V30 378 C 33.1333 -3.9522 4.33611 0
M  V30 379 C 35.4853 -4.0224 4.88248 0
M  V30 380 C 34.1493 -4.08259 5.28092 0
M  V30 381 H 33.4193 -0.691739 0.265665 0
M  V30 382 H 36.0663 -1.41328 1.29223 0
M  V30 383 H 34.3713 -3.88903 0.475584 0
M  V30 384 H 36.0683 -3.91536 0.866037 0
M  V30 385 H 32.6583 -3.63433 2.27189 0
M  V30 386 H 36.8423 -3.75505 3.24514 0
M  V30 387 H 32.0983 -3.98119 4.64016 0
M  V30 388 H 36.2723 -4.11468 5.61843 0
M  V30 389 H 33.8993 -4.22384 6.32057 0
M  V30 390 N 35.4744 -0.807222 -1.35358 0
M  V30 391 C 36.7024 -0.400377 -2.02989 0
M  V30 392 C 37.1174 0.988859 -1.60832 0
M  V30 393 O 36.4744 1.63729 -0.806175 0
M  V30 394 C 36.5254 -0.474867 -3.58368 0
M  V30 395 O 36.2464 -1.80933 -3.98992 0
M  V30 396 C 37.7474 -0.0609112 -4.43258 0
M  V30 397 H 34.9674 -0.162587 -0.651004 0
M  V30 398 H 37.5114 -1.09102 -1.72965 0
M  V30 399 H 35.6664 0.167534 -3.87038 0
M  V30 400 H 36.0804 -1.77256 -4.9364 0
M  V30 401 H 37.5544 -0.164145 -5.51756 0
M  V30 402 H 38.0314 0.993831 -4.27808 0
M  V30 403 H 38.6374 -0.676492 -4.19885 0
M  V30 404 N 36.9525 1.47285 -0.560781 0
M  V30 405 C 37.8995 2.30058 0.18491 0
M  V30 406 C 38.8695 1.39281 0.904986 0
M  V30 407 O 40.0545 1.68241 0.899979 0
M  V30 408 C 37.1945 3.23317 1.20666 0
M  V30 409 C 36.3075 4.29186 0.492285 0
M  V30 410 C 35.4425 5.09592 1.49964 0
M  V30 411 C 34.4815 6.07232 0.770439 0
M  V30 412 N 33.6185 6.80584 1.72479 0
M  V30 413 H 38.4585 2.93302 -0.527048 0
M  V30 414 H 35.9955 1.44568 -0.271738 0
M  V30 415 H 37.9535 3.75811 1.81168 0
M  V30 416 H 36.5835 2.61929 1.88661 0
M  V30 417 H 35.6355 3.7972 -0.227333 0
M  V30 418 H 36.9475 4.98738 -0.0787929 0
M  V30 419 H 36.1015 5.66254 2.17809 0
M  V30 420 H 34.8405 4.3995 2.10464 0
M  V30 421 H 33.8455 5.49745 0.0780846 0
M  V30 422 H 35.0705 6.78884 0.171134 0
M  V30 423 H 33.0165 6.1367 2.3183 0
M  V30 424 H 32.9335 7.46319 1.20596 0
M  V30 425 H 34.2015 7.41818 2.39428 0
M  V30 426 N 38.4306 0.297415 1.54768 0
M  V30 427 C 39.3776 -0.580276 2.23386 0
M  V30 428 C 40.3476 -1.13238 1.21517 0
M  V30 429 O 41.5326 -1.17757 1.50126 0
M  V30 430 C 38.6726 -1.74801 2.97555 0
M  V30 431 C 37.7856 -1.22764 4.1419 0
M  V30 432 C 36.9206 -2.35895 4.75949 0
M  V30 433 C 35.9596 -1.80974 5.84735 0
M  V30 434 N 35.0966 -2.87664 6.40464 0
M  V30 435 H 39.9366 0.0114833 2.97998 0
M  V30 436 H 37.4736 0.0174361 1.4709 0
M  V30 437 H 39.4316 -2.43475 3.38786 0
M  V30 438 H 38.0616 -2.31145 2.25326 0
M  V30 439 H 37.1136 -0.433271 3.77924 0
M  V30 440 H 38.4256 -0.785551 4.92575 0
M  V30 441 H 37.5796 -3.12523 5.20014 0
M  V30 442 H 36.3186 -2.83429 3.96887 0
M  V30 443 H 35.3236 -1.02834 5.40097 0
M  V30 444 H 36.5486 -1.34348 6.65678 0
M  V30 445 H 34.4946 -3.34538 5.64287 0
M  V30 446 H 34.4116 -2.4794 7.14186 0
M  V30 447 H 35.6796 -3.642 6.89187 0
M  V30 448 N 39.9087 -1.5758 0.0250728 0
M  V30 449 C 40.8187 -2.1343 -0.973905 0
M  V30 450 C 41.8347 -1.08556 -1.35984 0
M  V30 451 O 43.0107 -1.40592 -1.44207 0
M  V30 452 C 40.0757 -2.64703 -2.23904 0
M  V30 453 C 39.1367 -3.84276 -1.91391 0
M  V30 454 C 38.3697 -4.33095 -3.11873 0
M  V30 455 O 38.5927 -3.81107 -4.24398 0
M  V30 456 O 37.5267 -5.24984 -2.94406 0
M  V30 457 H 41.3527 -2.99057 -0.529036 0
M  V30 458 H 38.9377 -1.48118 -0.195288 0
M  V30 459 H 40.8197 -2.97769 -2.98181 0
M  V30 460 H 39.4947 -1.82161 -2.6758 0
M  V30 461 H 38.4017 -3.56143 -1.14511 0
M  V30 462 H 39.7347 -4.67968 -1.52534 0
M  V30 463 N 41.3868 0.248026 -1.55636 0
M  V30 464 C 42.6328 0.973427 -1.78594 0
M  V30 465 C 42.9878 1.83007 -0.593823 0
M  V30 466 O 42.2808 1.87097 0.412961 0
M  V30 467 C 42.4748 1.86819 -3.04686 0
M  V30 468 C 42.3038 1.09965 -4.36048 0
M  V30 469 C 41.0738 0.805204 -4.98843 0
M  V30 470 C 43.2718 0.477783 -5.12076 0
M  V30 471 N 41.2538 0.0124859 -6.13899 0
M  V30 472 C 42.6248 -0.179565 -6.1974 0
M  V30 473 C 44.6798 0.388136 -4.96385 0
M  V30 474 C 43.3828 -0.91795 -7.13419 0
M  V30 475 C 45.4088 -0.336716 -5.90441 0
M  V30 476 C 44.7708 -0.982705 -6.97511 0
M  V30 477 H 40.8698 0.337348 -0.705493 0
M  V30 478 H 43.4538 0.24667 -1.93131 0
M  V30 479 H 41.6248 2.56698 -2.9148 0
M  V30 480 H 43.3568 2.52907 -3.15944 0
M  V30 481 H 40.1118 1.11671 -4.60246 0
M  V30 482 H 40.5358 -0.371933 -6.75978 0
M  V30 483 H 45.1778 0.873237 -4.13684 0
M  V30 484 H 42.8958 -1.41466 -7.95621 0
M  V30 485 H 46.4818 -0.406731 -5.80377 0
M  V30 486 H 45.3618 -1.53464 -7.69037 0
M  V30 487 N 42.8649 1.48995 0.513639 0
M  V30 488 C 44.0949 1.61297 1.291 0
M  V30 489 C 44.5029 0.278656 1.87137 0
M  V30 490 O 43.8459 -0.744325 1.67945 0
M  V30 491 C 43.9079 2.61326 2.46879 0
M  V30 492 C 43.5719 4.05993 2.09807 0
M  V30 493 C 44.5689 4.93183 1.64519 0
M  V30 494 C 42.2539 4.51642 2.19829 0
M  V30 495 C 44.2479 6.24056 1.2974 0
M  V30 496 C 41.9349 5.82532 1.84662 0
M  V30 497 C 42.9329 6.68562 1.3969 0
M  V30 498 O 42.6209 7.97014 1.04992 0
M  V30 499 H 42.3529 0.546236 0.39825 0
M  V30 500 H 44.9069 1.95673 0.62459 0
M  V30 501 H 43.1369 2.22104 3.16554 0
M  V30 502 H 44.8259 2.6329 3.08923 0
M  V30 503 H 45.5919 4.59147 1.56233 0
M  V30 504 H 41.4709 3.84855 2.53786 0
M  V30 505 H 45.0149 6.91161 0.945659 0
M  V30 506 H 40.9119 6.16099 1.92594 0
M  V30 507 H 41.6799 8.09913 1.18249 0
M  V30 508 N 44.343 -0.763751 1.37857 0
M  V30 509 C 45.62 -1.51244 1.24035 0
M  V30 510 C 46 -2.10472 -0.162649 0
M  V30 511 O 45.348 -1.96206 -1.17112 0
M  V30 512 C 45.558 -2.58694 2.34261 0
M  V30 513 C 46.906 -3.25878 2.72193 0
M  V30 514 O 47.93 -2.68993 2.33497 0
M  V30 515 O 46.789 -4.2874 3.38887 0
M  V30 516 H 43.883 -0.670243 0.484462 0
M  V30 517 H 46.429 -0.800031 1.49658 0
M  V30 518 H 45.201 -2.13105 3.2818 0
M  V30 519 H 44.824 -3.37527 2.10146 0
M  V30 520 N 45.8211 -1.22559 -0.990812 0
M  V30 521 C 46.7511 -1.0218 -2.09956 0
M  V30 522 C 47.7321 0.0579394 -1.70001 0
M  V30 523 O 48.9171 -0.104684 -1.93918 0
M  V30 524 C 46.0471 -0.601023 -3.4206 0
M  V30 525 C 45.0011 -1.62694 -3.95872 0
M  V30 526 C 44.3271 -1.06193 -5.24049 0
M  V30 527 C 45.6271 -3.01743 -4.2632 0
M  V30 528 H 47.3211 -1.94916 -2.27262 0
M  V30 529 H 44.8671 -0.938566 -1.09211 0
M  V30 530 H 46.8201 -0.445561 -4.19038 0
M  V30 531 H 45.5441 0.362005 -3.24588 0
M  V30 532 H 44.2031 -1.77021 -3.21028 0
M  V30 533 H 43.8511 -0.0901903 -5.02919 0
M  V30 534 H 43.5511 -1.74732 -5.61019 0
M  V30 535 H 45.0751 -0.918092 -6.03658 0
M  V30 536 H 46.4891 -2.90777 -4.94087 0
M  V30 537 H 44.8861 -3.67425 -4.74467 0
M  V30 538 H 45.9561 -3.51518 -3.34011 0
M  V30 539 N 47.2992 1.18797 -1.03562 0
M  V30 540 C 48.2462 2.22253 -0.622259 0
M  V30 541 C 49.2162 1.61987 0.36736 0
M  V30 542 O 50.4012 1.88986 0.262492 0
M  V30 543 C 47.5412 3.45097 0.0138462 0
M  V30 544 C 46.6542 4.19722 -1.02263 0
M  V30 545 C 45.7892 5.30009 -0.355573 0
M  V30 546 C 44.8282 5.96399 -1.37749 0
M  V30 547 N 43.9652 6.98234 -0.735766 0
M  V30 548 H 48.8052 2.56968 -1.50903 0
M  V30 549 H 46.3422 1.26245 -0.755017 0
M  V30 550 H 48.3002 4.15279 0.399948 0
M  V30 551 H 46.9302 3.11018 0.864158 0
M  V30 552 H 45.9822 3.48418 -1.52673 0
M  V30 553 H 47.2942 4.65227 -1.79903 0
M  V30 554 H 46.4482 6.0664 0.0850095 0
M  V30 555 H 45.1872 4.85592 0.452967 0
M  V30 556 H 44.1922 5.18512 -1.82826 0
M  V30 557 H 45.4172 6.42899 -2.18764 0
M  V30 558 H 43.3632 6.55979 0.0525597 0
M  V30 559 H 43.2802 7.41965 -1.44995 0
M  V30 560 H 44.5482 7.78845 -0.31941 0
M  V30 561 N 48.7773 0.814389 1.34928 0
M  V30 562 C 49.7403 0.235759 2.27984 0
M  V30 563 C 50.7403 -0.581412 1.49921 0
M  V30 564 O 51.9303 -0.398758 1.69575 0
M  V30 565 C 49.0623 -0.670433 3.34242 0
M  V30 566 H 50.2553 1.05659 2.80671 0
M  V30 567 H 47.8083 0.585614 1.44915 0
M  V30 568 H 48.5433 -1.51466 2.86755 0
M  V30 569 H 48.3283 -0.0860822 3.92005 0
M  V30 570 H 49.8183 -1.06935 4.03676 0
M  V30 571 N 50.2554 -1.46986 0.568584 0
M  V30 572 C 51.6664 -1.86188 0.138219 0
M  V30 573 C 52.0174 -1.47388 -1.29504 0
M  V30 574 O 51.1424 -0.88219 -1.97602 0
M  V30 575 C 51.7374 -3.3792 0.244065 0
M  V30 576 C 50.2964 -3.76171 -0.131335 0
M  V30 577 C 49.4434 -2.71027 0.586465 0
M  V30 578 H 52.3944 -1.38342 0.777645 0
M  V30 579 H 52.4154 -3.76729 -0.534351 0
M  V30 580 H 51.9274 -3.66128 1.28731 0
M  V30 581 H 50.0284 -3.5358 -1.17526 0
M  V30 582 H 50.1414 -4.78523 0.235146 0
M  V30 583 H 48.5054 -2.54684 0.0282722 0
M  V30 584 H 49.2884 -3.02077 1.63109 0
M  V30 585 N 51.7335 -0.305618 -1.54608 0
M  V30 586 C 52.6805 0.568421 -2.23691 0
M  V30 587 C 53.6505 1.12592 -1.22116 0
M  V30 588 O 54.8355 1.16959 -1.50749 0
M  V30 589 C 51.9755 1.7322 -2.98477 0
M  V30 590 C 51.0885 1.20566 -4.14835 0
M  V30 591 C 50.2235 2.33368 -4.77193 0
M  V30 592 C 49.2625 1.7787 -5.85686 0
M  V30 593 N 48.3995 2.84263 -6.4198 0
M  V30 594 H 53.2395 -0.0272867 -2.97988 0
M  V30 595 H 50.7765 -0.0252363 -1.47078 0
M  V30 596 H 52.7345 2.41675 -3.40072 0
M  V30 597 H 51.3645 2.29947 -2.26548 0
M  V30 598 H 50.4165 0.413223 -3.78149 0
M  V30 599 H 51.7285 0.759417 -4.92985 0
M  V30 600 H 50.8825 3.09761 -5.21664 0
M  V30 601 H 49.6215 2.8132 -3.98385 0
M  V30 602 H 48.6265 0.99968 -5.40635 0
M  V30 603 H 49.8515 1.30816 -6.66381 0
M  V30 604 H 47.7975 3.31541 -5.66053 0
M  V30 605 H 47.7145 2.44149 -7.15491 0
M  V30 606 H 48.9825 3.6054 -6.91109 0
M  V30 607 N 53.2116 1.57565 -0.0334293 0
M  V30 608 C 54.1446 2.05997 0.981866 0
M  V30 609 C 55.1226 0.956647 1.3148 0
M  V30 610 O 56.3066 1.22729 1.43073 0
M  V30 611 C 53.4336 2.48564 2.30074 0
M  V30 612 C 52.4796 3.69958 2.12211 0
M  V30 613 S 53.3126 5.16414 1.41692 0
M  V30 614 C 54.4686 5.6228 2.7494 0
M  V30 615 H 54.7016 2.91792 0.569612 0
M  V30 616 H 52.2346 1.53366 0.178376 0
M  V30 617 H 54.1926 2.73753 3.05892 0
M  V30 618 H 52.8536 1.63106 2.68431 0
M  V30 619 H 52.0466 3.97603 3.09722 0
M  V30 620 H 51.6486 3.44943 1.44535 0
M  V30 621 H 53.9406 5.66783 3.71165 0
M  V30 622 H 54.8836 6.61759 2.51953 0
M  V30 623 H 55.2916 4.89944 2.80384 0
M  V30 624 N 54.6897 -0.239769 1.55765 0
M  V30 625 C 55.9367 -0.966801 1.7793 0
M  V30 626 C 56.2647 -1.85046 0.599015 0
M  V30 627 O 55.5197 -1.91197 -0.417395 0
M  V30 628 C 55.8187 -1.852 3.05672 0
M  V30 629 C 55.4847 -1.1231 4.36689 0
M  V30 630 C 54.1467 -0.921689 4.72291 0
M  V30 631 C 56.4987 -0.607019 5.17653 0
M  V30 632 C 53.8267 -0.191996 5.86386 0
M  V30 633 C 56.1787 0.109241 6.32506 0
M  V30 634 C 54.8427 0.322073 6.66723 0
M  V30 635 H 54.1127 -0.353778 0.651093 0
M  V30 636 H 56.7597 -0.23634 1.90036 0
M  V30 637 H 55.0647 -2.64975 2.8861 0
M  V30 638 H 56.7617 -2.41635 3.20021 0
M  V30 639 H 53.3517 -1.29004 4.08725 0
M  V30 640 H 57.5357 -0.750153 4.90598 0
M  V30 641 H 52.7917 -0.0166949 6.11398 0
M  V30 642 H 56.9657 0.516737 6.9448 0
M  V30 643 H 54.5927 0.88944 7.54979 0
M  V30 644 N 56.1678 -1.49265 -0.50573 0
M  V30 645 C 57.0978 -1.68495 -1.61653 0
M  V30 646 C 58.0788 -0.53366 -1.61512 0
M  V30 647 O 59.2638 -0.76897 -1.78327 0
M  V30 648 C 56.3938 -1.74709 -3.00157 0
M  V30 649 C 55.3478 -2.89581 -3.15162 0
M  V30 650 C 54.6738 -2.80903 -4.5497 0
M  V30 651 C 55.9738 -4.30578 -2.95634 0
M  V30 652 H 57.6678 -2.61493 -1.45814 0
M  V30 653 H 55.2138 -1.25838 -0.70005 0
M  V30 654 H 57.1668 -1.86748 -3.77761 0
M  V30 655 H 55.8908 -0.783067 -3.17074 0
M  V30 656 H 54.5498 -2.77136 -2.39982 0
M  V30 657 H 54.1978 -1.82419 -4.68756 0
M  V30 658 H 53.8978 -3.57999 -4.65951 0
M  V30 659 H 55.4218 -2.94944 -5.34641 0
M  V30 660 H 56.8358 -4.4373 -3.63011 0
M  V30 661 H 55.2328 -5.0886 -3.18091 0
M  V30 662 H 56.3028 -4.45352 -1.91806 0
M  V30 663 N 57.6459 0.756429 -1.3826 0
M  V30 664 C 58.8919 1.51772 -1.34511 0
M  V30 665 C 59.2249 1.94089 0.0656691 0
M  V30 666 O 58.4999 1.65221 1.02626 0
M  V30 667 C 58.7829 2.77226 -2.29821 0
M  V30 668 C 58.6359 2.41065 -3.79747 0
M  V30 669 C 59.9549 3.79236 -2.23312 0
M  V30 670 H 57.0739 0.550578 -0.489931 0
M  V30 671 H 59.7159 0.866607 -1.69086 0
M  V30 672 H 57.8659 3.32784 -2.00467 0
M  V30 673 H 59.5379 1.91303 -4.19763 0
M  V30 674 H 57.7809 1.7356 -3.97567 0
M  V30 675 H 58.4519 3.3081 -4.41892 0
M  V30 676 H 60.9279 3.3321 -2.49219 0
M  V30 677 H 59.8039 4.64714 -2.92116 0
M  V30 678 H 60.0649 4.24615 -1.23102 0
M  V30 679 N 59.124 1.23083 0.984299 0
M  V30 680 C 60.54 0.992637 1.24975 0
M  V30 681 C 60.74 -0.308618 1.99123 0
M  V30 682 O 59.796 -1.02905 2.30579 0
M  V30 683 C 61.109 2.19698 2.05312 0
M  V30 684 C 62.657 2.24147 2.18465 0
M  V30 685 C 63.132 3.44157 3.02192 0
M  V30 686 N 64.623 3.44372 3.09777 0
M  V30 687 C 65.358 4.33886 3.74874 0
M  V30 688 N 64.854 5.3363 4.41827 0
M  V30 689 N 66.647 4.21639 3.71721 0
M  V30 690 H 58.798 2.06731 0.487453 0
M  V30 691 H 61.061 0.906339 0.277944 0
M  V30 692 H 60.767 3.1411 1.58201 0
M  V30 693 H 60.641 2.20465 3.06064 0
M  V30 694 H 63.028 1.30277 2.64786 0
M  V30 695 H 63.109 2.27415 1.17115 0
M  V30 696 H 62.753 4.38332 2.56568 0
M  V30 697 H 62.683 3.3813 4.03702 0
M  V30 698 H 65.174 2.72201 2.62135 0
M  V30 699 H 65.487 5.98196 4.89266 0
M  V30 700 H 63.832 5.37534 4.40548 0
M  V30 701 H 67.023 3.42962 3.18582 0
M  V30 702 H 67.196 4.91604 4.22173 0
M  V30 703 N 60.6021 -1.18246 1.0419 0
M  V30 704 C 61.5501 -2.23968 0.627792 0
M  V30 705 C 62.5441 -1.65828 -0.346019 0
M  V30 706 O 63.7501 -1.78733 -0.213175 0
M  V30 707 H 60.1251 -0.728939 0.184802 0
M  V30 708 H 62.0961 -2.56202 1.52981 0
M  V30 709 C 60.8451 -3.47699 0.00796591 0
M  V30 710 H 60.1681 -3.92734 0.748347 0
M  V30 711 H 61.6081 -4.23294 -0.24455 0
M  V30 712 C 60.0671 -3.13153 -1.24246 0
M  V30 713 O 60.5971 -3.27003 -2.33307 0
M  V30 714 N 58.8031 -2.67467 -1.13622 0
M  V30 715 H 58.3501 -2.56396 -0.248734 0
M  V30 716 H 58.3081 -2.44724 -1.97377 0
M  V30 717 N 62.0802 -0.821533 -1.34494 0
M  V30 718 C 63.3272 -0.408946 -1.98328 0
M  V30 719 C 63.6552 1.02764 -1.65136 0
M  V30 720 O 62.9102 1.73026 -0.914349 0
M  V30 721 C 63.2092 -0.556512 -3.53041 0
M  V30 722 C 62.8752 -1.95861 -4.0614 0
M  V30 723 C 61.5372 -2.34217 -4.20352 0
M  V30 724 C 63.8892 -2.87523 -4.34718 0
M  V30 725 C 61.2172 -3.63572 -4.6047 0
M  V30 726 C 63.5692 -4.1634 -4.76281 0
M  V30 727 C 62.2332 -4.54675 -4.88699 0
M  V30 728 H 61.5032 -0.149644 -0.725732 0
M  V30 729 H 64.1502 -1.04521 -1.6046 0
M  V30 730 H 62.4552 0.163148 -3.9146 0
M  V30 731 H 64.1522 -0.217826 -4.00408 0
M  V30 732 H 60.7422 -1.65066 -3.95539 0
M  V30 733 H 64.9262 -2.59133 -4.23277 0
M  V30 734 H 60.1822 -3.93101 -4.68275 0
M  V30 735 H 64.3562 -4.87455 -4.97354 0
M  V30 736 H 61.9832 -5.54959 -5.19542 0
M  V30 737 N 63.5583 1.46682 -0.576371 0
M  V30 738 C 64.8063 2.02013 -0.0594163 0
M  V30 739 C 65.1273 1.45101 1.30271 0
M  V30 740 O 64.3973 0.633317 1.8538 0
M  V30 741 H 62.9773 0.746759 -0.0189745 0
M  V30 742 H 65.6393 1.79862 -0.750717 0
M  V30 743 H 64.7353 3.12097 0.014345 0
M  V30 744 N 65.0364 0.313813 1.54444 0
M  V30 745 C 65.9834 -0.55655 2.23989 0
M  V30 746 C 66.9534 -1.11943 1.22711 0
M  V30 747 O 68.1384 -1.16158 1.51367 0
M  V30 748 C 65.2784 -1.71635 2.99392 0
M  V30 749 C 64.3914 -1.18364 4.15468 0
M  V30 750 C 63.5264 -2.30834 4.78424 0
M  V30 751 C 62.5654 -1.74762 5.86622 0
M  V30 752 N 61.7024 -2.80855 6.43479 0
M  V30 753 H 66.5424 0.0430893 2.97969 0
M  V30 754 H 64.0794 0.0330359 1.47063 0
M  V30 755 H 66.0374 -2.39868 3.41349 0
M  V30 756 H 64.6674 -2.28742 2.27765 0
M  V30 757 H 63.7194 -0.393163 3.78363 0
M  V30 758 H 65.0314 -0.733262 4.93381 0
M  V30 759 H 64.1854 -3.0699 5.23299 0
M  V30 760 H 62.9244 -2.79204 3.99871 0
M  V30 761 H 61.9294 -0.970995 5.41158 0
M  V30 762 H 63.1544 -1.2728 6.67066 0
M  V30 763 H 61.1004 -3.28535 5.67804 0
M  V30 764 H 61.0174 -2.40351 7.16776 0
M  V30 765 H 62.2854 -3.5687 6.93011 0
M  V30 766 N 66.5145 -1.57545 0.0417849 0
M  V30 767 C 67.7425 -1.96624 -0.643928 0
M  V30 768 C 68.1575 -0.918897 -1.64929 0
M  V30 769 O 67.5145 0.0979323 -1.82237 0
M  V30 770 C 67.5655 -3.35781 -1.33914 0
M  V30 771 O 67.2865 -4.365 -0.374048 0
M  V30 772 C 68.7875 -3.89566 -2.1155 0
M  V30 773 H 66.0075 -0.647316 -0.176702 0
M  V30 774 H 68.5515 -2.04229 0.105304 0
M  V30 775 H 66.7065 -3.29357 -2.03968 0
M  V30 776 H 67.1205 -5.17248 -0.869179 0
M  V30 777 H 68.5945 -4.89242 -2.55628 0
M  V30 778 H 69.0715 -3.24488 -2.9598 0
M  V30 779 H 69.6775 -3.99298 -1.46427 0
M  V30 780 N 67.9926 0.231505 -1.5589 0
M  V30 781 C 68.9226 1.29022 -1.94617 0
M  V30 782 C 69.9036 1.4941 -0.813067 0
M  V30 783 O 71.0886 1.6176 -1.07459 0
M  V30 784 C 68.2186 2.64199 -2.25424 0
M  V30 785 C 67.1726 2.58484 -3.41131 0
M  V30 786 C 66.4986 3.97599 -3.57518 0
M  V30 787 C 67.7986 2.1413 -4.76388 0
M  V30 788 H 69.4926 0.968563 -2.83301 0
M  V30 789 H 67.0386 0.464479 -1.36303 0
M  V30 790 H 68.9916 3.38413 -2.51107 0
M  V30 791 H 67.7156 2.98032 -1.33583 0
M  V30 792 H 66.3746 1.86727 -3.15481 0
M  V30 793 H 66.0226 4.28723 -2.6307 0
M  V30 794 H 65.7226 3.94659 -4.35337 0
M  V30 795 H 67.2466 4.7349 -3.85538 0
M  V30 796 H 68.6606 2.78083 -5.01341 0
M  V30 797 H 67.0576 2.2227 -5.57419 0
M  V30 798 H 68.1276 1.09331 -4.72414 0
M  V30 799 N 69.4707 1.49531 0.497807 0
M  V30 800 C 70.7167 1.59415 1.25358 0
M  V30 801 C 71.0497 0.281422 1.9215 0
M  V30 802 O 70.3247 -0.715249 1.80871 0
M  V30 803 C 70.6077 2.75566 2.3181 0
M  V30 804 C 70.4607 4.16642 1.69498 0
M  V30 805 C 71.7797 2.87347 3.33346 0
M  V30 806 H 68.8987 0.580244 0.454408 0
M  V30 807 H 71.5407 1.81827 0.551262 0
M  V30 808 H 69.6907 2.56587 2.91711 0
M  V30 809 H 71.3627 4.47145 1.13399 0
M  V30 810 H 69.6057 4.22141 0.998978 0
M  V30 811 H 70.2767 4.93792 2.46725 0
M  V30 812 H 72.7527 3.04634 2.83438 0
M  V30 813 H 71.6287 3.70289 4.05188 0
M  V30 814 H 71.8897 1.96834 3.95865 0
M  V30 815 N 70.9488 -0.749086 1.3866 0
M  V30 816 C 72.1768 -1.53834 1.38358 0
M  V30 817 C 72.5918 -1.88783 -0.0255219 0
M  V30 818 O 71.9488 -1.53101 -0.993292 0
M  V30 819 C 71.9998 -2.83468 2.2434 0
M  V30 820 O 71.7208 -2.50008 3.5976 0
M  V30 821 C 73.2218 -3.7758 2.32267 0
M  V30 822 H 70.4418 -0.47585 0.473083 0
M  V30 823 H 72.9858 -0.926726 1.82297 0
M  V30 824 H 71.1408 -3.40995 1.83851 0
M  V30 825 H 71.5548 -3.33182 4.05081 0
M  V30 826 H 73.0288 -4.65478 2.96706 0
M  V30 827 H 73.5058 -4.18334 1.33765 0
M  V30 828 H 74.1118 -3.25976 2.73166 0
M  V30 829 N 72.4269 -1.23603 -0.977757 0
M  V30 830 C 73.3739 -1.01954 -2.07061 0
M  V30 831 C 74.3439 0.0638697 -1.65977 0
M  V30 832 O 75.5289 -0.0887624 -1.90593 0
M  V30 833 C 72.6689 -0.619658 -3.39491 0
M  V30 834 C 71.7819 -1.77547 -3.93829 0
M  V30 835 C 70.9169 -1.32212 -5.14484 0
M  V30 836 C 69.9559 -2.44852 -5.60994 0
M  V30 837 N 69.0929 -2.00456 -6.72876 0
M  V30 838 H 73.9329 -1.95495 -2.24913 0
M  V30 839 H 71.4699 -0.973861 -1.10247 0
M  V30 840 H 73.4279 -0.368898 -4.15566 0
M  V30 841 H 72.0579 0.278752 -3.21594 0
M  V30 842 H 71.1099 -2.14016 -3.14486 0
M  V30 843 H 72.4219 -2.62219 -4.24314 0
M  V30 844 H 71.5759 -1.02965 -5.97899 0
M  V30 845 H 70.3149 -0.445808 -4.85658 0
M  V30 846 H 69.3199 -2.74871 -4.76157 0
M  V30 847 H 70.5449 -3.33024 -5.91837 0
M  V30 848 H 68.4909 -1.15208 -6.45804 0
M  V30 849 H 68.4079 -2.78687 -7.02759 0
M  V30 850 H 69.6759 -1.7432 -7.59758 0
M  V30 851 N 73.905 1.17692 -1.04816 0
M  V30 852 C 75.133 1.91786 -0.776254 0
M  V30 853 C 75.548 1.76604 0.667577 0
M  V30 854 O 74.905 1.10067 1.45573 0
M  V30 855 C 74.956 3.42967 -1.14263 0
M  V30 856 O 74.677 3.57678 -2.52978 0
M  V30 857 C 76.178 4.34144 -0.896311 0
M  V30 858 H 73.398 0.608624 -0.282519 0
M  V30 859 H 75.942 1.49268 -1.39783 0
M  V30 860 H 74.097 3.83245 -0.565874 0
M  V30 861 H 74.511 4.51319 -2.67229 0
M  V30 862 H 75.985 5.38744 -1.20244 0
M  V30 863 H 76.462 4.38876 0.168636 0
M  V30 864 H 77.068 3.99574 -1.45672 0
M  V30 865 N 75.3831 0.828654 1.34056 0
M  V30 866 C 76.6321 0.415828 1.97367 0
M  V30 867 C 76.9451 -1.02796 1.6641 0
M  V30 868 O 78.1511 -1.54497 2.23255 0
M  V30 869 C 76.6071 0.692601 3.53173 0
M  V30 870 C 76.2151 2.15038 3.93017 0
M  V30 871 C 77.9591 0.346222 4.23086 0
M  V30 872 C 75.8661 2.37174 5.41758 0
M  V30 873 H 74.7961 0.151755 0.738571 0
M  V30 874 H 77.4471 1.01581 1.52819 0
M  V30 875 H 75.8291 0.0223764 3.95994 0
M  V30 876 H 77.0031 2.86024 3.61285 0
M  V30 877 H 75.3181 2.45875 3.36057 0
M  V30 878 H 77.9151 0.48937 5.32456 0
M  V30 879 H 78.2581 -0.709842 4.10204 0
M  V30 880 H 78.7911 0.971258 3.85761 0
M  V30 881 H 75.5301 3.41308 5.59633 0
M  V30 882 H 75.0501 1.70738 5.74986 0
M  V30 883 H 76.7291 2.19818 6.08514 0
M  V30 884 N 76.8612 -1.46375 0.584142 0
M  V30 885 C 78.1092 -2.01978 0.0701287 0
M  V30 886 C 78.4302 -1.4579 -1.295 0
M  V30 887 O 77.7002 -0.64314 -1.85042 0
M  V30 888 H 76.2802 -0.746648 0.0229345 0
M  V30 889 H 78.9422 -1.79461 0.760245 0
M  V30 890 H 78.0382 -3.121 0.0022064 0
M  V30 891 N 78.3393 -0.321999 -1.54275 0
M  V30 892 C 79.2863 0.544664 -2.24281 0
M  V30 893 C 80.2563 1.1129 -1.23303 0
M  V30 894 O 81.4413 1.15354 -1.51981 0
M  V30 895 C 78.5813 1.70045 -3.00298 0
M  V30 896 C 77.6943 1.16159 -4.1609 0
M  V30 897 C 76.8293 2.28293 -4.79641 0
M  V30 898 C 75.8683 1.71648 -5.8754 0
M  V30 899 N 75.0053 2.77438 -6.44959 0
M  V30 900 H 79.8453 -0.0588907 -2.97942 0
M  V30 901 H 77.3823 -0.0408345 -1.47043 0
M  V30 902 H 79.3403 2.38054 -3.42616 0
M  V30 903 H 77.9703 2.27531 -2.28975 0
M  V30 904 H 77.0223 0.373092 -3.78566 0
M  V30 905 H 78.3343 0.707087 -4.93763 0
M  V30 906 H 77.4883 3.0421 -5.2492 0
M  V30 907 H 76.2273 2.77079 -4.01346 0
M  V30 908 H 75.2323 0.942282 -5.41665 0
M  V30 909 H 76.4573 1.23741 -6.67731 0
M  V30 910 H 74.4033 3.25519 -5.69538 0
M  V30 911 H 74.3203 2.36547 -7.1804 0
M  V30 912 H 75.5883 3.53189 -6.94894 0
M  V30 913 N 79.8174 1.5752 -0.0501392 0
M  V30 914 C 80.7644 2.1147 0.924603 0
M  V30 915 C 81.7344 1.02182 1.30951 0
M  V30 916 O 82.9194 1.29723 1.39916 0
M  V30 917 C 80.0594 2.66337 2.19451 0
M  V30 918 C 79.1724 3.89708 1.86418 0
M  V30 919 C 78.3074 4.32893 3.07859 0
M  V30 920 C 77.3464 5.48967 2.70742 0
M  V30 921 N 76.4834 5.87211 3.84874 0
M  V30 922 H 81.3234 2.94465 0.457639 0
M  V30 923 H 78.8604 1.45531 0.214266 0
M  V30 924 H 80.8184 2.96247 2.93758 0
M  V30 925 H 79.4484 1.86141 2.63726 0
M  V30 926 H 78.5004 3.66396 1.02264 0
M  V30 927 H 79.8124 4.74074 1.55096 0
M  V30 928 H 78.9664 4.6435 3.90466 0
M  V30 929 H 77.7054 3.47336 3.42358 0
M  V30 930 H 76.7104 5.17183 1.86551 0
M  V30 931 H 77.9354 6.3624 2.37436 0
M  V30 932 H 75.8814 5.04607 4.19175 0
M  V30 933 H 75.7984 6.66266 3.57247 0
M  V30 934 H 77.0664 6.23282 4.68123 0
M  V30 935 N 81.2955 -0.223234 1.56011 0
M  V30 936 C 82.2255 -1.27988 1.95298 0
M  V30 937 C 83.2065 -1.48976 0.820979 0
M  V30 938 O 84.3915 -1.61188 1.08315 0
M  V30 939 C 81.5215 -2.63 2.26822 0
M  V30 940 C 80.4755 -2.56671 3.42497 0
M  V30 941 C 79.8015 -3.95697 3.59622 0
M  V30 942 C 81.1015 -2.11601 4.77517 0
M  V30 943 H 82.7955 -0.953525 2.8381 0
M  V30 944 H 80.3415 -0.457244 1.36548 0
M  V30 945 H 82.2945 -3.37077 2.52898 0
M  V30 946 H 81.0185 -2.9732 1.35161 0
M  V30 947 H 79.6775 -1.85051 3.16467 0
M  V30 948 H 79.3255 -4.27322 2.6534 0
M  V30 949 H 79.0255 -3.92345 4.37424 0
M  V30 950 H 80.5495 -4.71438 3.88044 0
M  V30 951 H 81.9635 -2.7542 5.02809 0
M  V30 952 H 80.3605 -2.19311 5.5859 0
M  V30 953 H 81.4305 -1.06824 4.72987 0
M  V30 954 N 82.7736 -1.49793 -0.48987 0
M  V30 955 C 83.7366 -1.66752 -1.57246 0
M  V30 956 C 84.7366 -0.538867 -1.51502 0
M  V30 957 O 85.9266 -0.805545 -1.54456 0
M  V30 958 C 83.0586 -1.67528 -2.96896 0
M  V30 959 H 84.2516 -2.63321 -1.43534 0
M  V30 960 H 81.8046 -1.38992 -0.714914 0
M  V30 961 H 82.5396 -0.725837 -3.16073 0
M  V30 962 H 82.3246 -2.49504 -3.02473 0
M  V30 963 H 83.8146 -1.82667 -3.7553 0
M  V30 964 N 84.2517 0.741722 -1.39055 0
M  V30 965 C 85.4797 1.53098 -1.39171 0
M  V30 966 C 85.8947 1.88794 0.0155099 0
M  V30 967 O 85.2517 1.53626 0.985159 0
M  V30 968 C 85.3027 2.82274 -2.2584 0
M  V30 969 O 85.0237 2.48097 -3.61081 0
M  V30 970 C 86.5247 3.76343 -2.34266 0
M  V30 971 H 83.7447 0.473335 -0.4756 0
M  V30 972 H 86.2887 0.917045 -1.82785 0
M  V30 973 H 84.4437 3.40015 -1.85656 0
M  V30 974 H 84.8577 3.31029 -4.06842 0
M  V30 975 H 86.3317 4.63898 -2.9917 0
M  V30 976 H 86.8087 4.17619 -1.35982 0
M  V30 977 H 87.4147 3.24523 -2.74891 0
M  V30 978 N 85.7298 1.2412 0.971189 0
M  V30 979 C 87.0068 0.986867 1.6888 0
M  V30 980 C 87.3868 -0.491857 2.0529 0
M  V30 981 O 86.7348 -1.46531 1.75331 0
M  V30 982 C 86.9448 1.9063 2.92338 0
M  V30 983 C 88.2928 2.17515 3.64654 0
M  V30 984 O 89.3168 1.88254 3.02388 0
M  V30 985 O 88.1758 2.6719 4.7673 0
M  V30 986 H 85.2698 0.372944 0.738134 0
M  V30 987 H 87.8158 1.35203 1.02559 0
M  V30 988 H 86.5878 2.90552 2.62097 0
M  V30 989 H 86.2108 1.54408 3.66393 0
M  V30 990 N 87.2079 -1.17134 1.05439 0
M  V30 991 C 88.4329 -1.91913 0.786396 0
M  V30 992 C 88.8579 -1.7643 -0.652234 0
M  V30 993 O 88.2159 -1.08372 -1.45345 0
M  V30 994 C 88.2639 -3.40921 1.17497 0
M  V30 995 O 87.3679 -4.11244 0.308589 0
M  V30 996 H 86.7089 -0.598215 0.288158 0
M  V30 997 H 89.2389 -1.48457 1.4079 0
M  V30 998 H 89.2489 -3.91668 1.14281 0
M  V30 999 H 87.9239 -3.5151 2.22292 0
M  V30 1000 H 86.5009 -3.70731 0.40157 0
M  V30 1001 N 88.686 -0.835752 -1.33615 0
M  V30 1002 C 89.616 -0.281739 -2.31794 0
M  V30 1003 C 90.597 0.608833 -1.58831 0
M  V30 1004 O 91.782 0.533035 -1.86741 0
M  V30 1005 C 88.912 0.546612 -3.42971 0
M  V30 1006 C 87.866 -0.247904 -4.27281 0
M  V30 1007 C 87.192 0.704001 -5.30045 0
M  V30 1008 C 88.492 -1.46324 -5.01385 0
M  V30 1009 H 90.186 -1.10206 -2.78379 0
M  V30 1010 H 87.732 -0.531388 -1.33837 0
M  V30 1011 H 89.685 0.944467 -4.1068 0
M  V30 1012 H 88.409 1.40011 -2.95067 0
M  V30 1013 H 87.068 -0.627281 -3.61194 0
M  V30 1014 H 86.716 1.55381 -4.78399 0
M  V30 1015 H 86.416 0.176524 -5.87335 0
M  V30 1016 H 87.94 1.09944 -6.0062 0
M  V30 1017 H 89.354 -1.13871 -5.61877 0
M  V30 1018 H 87.751 -1.92728 -5.6831 0
M  V30 1019 H 88.821 -2.23467 -4.30338 0
M  V30 1020 N 90.1641 1.46063 -0.591896 0
M  V30 1021 C 91.1111 2.30399 0.136069 0
M  V30 1022 C 92.0811 1.41169 0.875238 0
M  V30 1023 O 93.2661 1.70112 0.86409 0
M  V30 1024 C 90.4061 3.25804 1.13781 0
M  V30 1025 C 89.5191 4.30134 0.401137 0
M  V30 1026 C 88.6541 5.12659 1.39121 0
M  V30 1027 C 87.6931 6.0873 0.641462 0
M  V30 1028 N 86.8301 6.8409 1.58004 0
M  V30 1029 H 91.6701 2.92118 -0.589144 0
M  V30 1030 H 89.2071 1.43959 -0.302342 0
M  V30 1031 H 91.1651 3.79569 1.73156 0
M  V30 1032 H 89.7951 2.65872 1.83062 0
M  V30 1033 H 88.8471 3.79152 -0.307826 0
M  V30 1034 H 90.1591 4.98458 -0.184565 0
M  V30 1035 H 89.3131 5.70747 2.05749 0
M  V30 1036 H 88.0521 4.44316 2.01084 0
M  V30 1037 H 87.0571 5.49786 -0.0385419 0
M  V30 1038 H 88.2821 6.79095 0.0270945 0
M  V30 1039 H 86.2281 6.18449 2.18761 0
M  V30 1040 H 86.1451 7.48709 1.04738 0
M  V30 1041 H 87.4131 7.4673 2.23639 0
M  V30 1042 N 91.6422 0.330177 1.54103 0
M  V30 1043 C 92.8902 -0.269871 2.0029 0
M  V30 1044 C 93.2112 -1.52133 1.21986 0
M  V30 1045 O 92.4812 -1.93212 0.323438 0
M  V30 1046 H 91.0612 -0.10271 0.739905 0
M  V30 1047 H 93.7232 0.448249 1.89675 0
M  V30 1048 H 92.8192 -0.52166 3.07709 0
M  V30 1049 N 93.1203 -1.57491 0.0584922 0
M  V30 1050 C 94.5363 -1.56792 -0.298091 0
M  V30 1051 C 94.7363 -1.06679 -1.70944 0
M  V30 1052 O 93.7923 -0.726672 -2.41818 0
M  V30 1053 C 95.1053 -3.00461 -0.119879 0
M  V30 1054 C 96.6533 -3.1242 -0.190428 0
M  V30 1055 C 97.1283 -4.57982 -0.0406567 0
M  V30 1056 N 98.6193 -4.63099 -0.0966958 0
M  V30 1057 C 99.3543 -5.734 -0.00502943 0
M  V30 1058 N 98.8503 -6.9266 0.139402 0
M  V30 1059 N 100.643 -5.62067 -0.0611391 0
M  V30 1060 H 92.7943 -1.88386 0.98105 0
M  V30 1061 H 95.0573 -0.867865 0.381463 0
M  V30 1062 H 94.7633 -3.41187 0.85349 0
M  V30 1063 H 94.6373 -3.66843 -0.877833 0
M  V30 1064 H 97.0243 -2.71589 -1.15427 0
M  V30 1065 H 97.1053 -2.48702 0.598405 0
M  V30 1066 H 96.7493 -4.995 0.919897 0
M  V30 1067 H 96.6793 -5.19715 -0.848727 0
M  V30 1068 H 99.1703 -3.77331 -0.207277 0
M  V30 1069 H 99.4833 -7.72536 0.201855 0
M  V30 1070 H 97.8283 -6.94781 0.174586 0
M  V30 1071 H 101.019 -4.67782 -0.172583 0
M  V30 1072 H 101.192 -6.47999 0.0137562 0
M  V30 1073 N 94.5984 0.214957 -1.56127 0
M  V30 1074 C 95.8474 0.936451 -1.78643 0
M  V30 1075 C 96.1604 1.85237 -0.628229 0
M  V30 1076 O 97.3664 2.613 -0.737186 0
M  V30 1077 C 95.8224 1.7154 -3.16389 0
M  V30 1078 C 95.4304 0.845299 -4.39953 0
M  V30 1079 C 97.1744 2.42772 -3.48227 0
M  V30 1080 C 95.0814 1.62198 -5.68723 0
M  V30 1081 H 94.0114 0.353401 -0.666051 0
M  V30 1082 H 96.6624 0.190169 -1.82512 0
M  V30 1083 H 95.0444 2.50484 -3.06715 0
M  V30 1084 H 96.2184 0.0959353 -4.607 0
M  V30 1085 H 94.5334 0.244789 -4.1568 0
M  V30 1086 H 97.1304 3.01394 -4.41663 0
M  V30 1087 H 97.4734 3.15984 -2.71035 0
M  V30 1088 H 98.0064 1.70813 -3.5926 0
M  V30 1089 H 94.7454 0.933011 -6.48826 0
M  V30 1090 H 94.2654 2.34579 -5.52026 0
M  V30 1091 H 95.9444 2.18095 -6.09133 0
M  V30 1092 N 96.0765 1.50051 0.48192 0
M  V30 1093 C 97.3065 1.63999 1.2565 0
M  V30 1094 C 97.7145 0.318288 1.86504 0
M  V30 1095 O 97.0575 -0.708534 1.69486 0
M  V30 1096 C 97.1195 2.66504 2.4128 0
M  V30 1097 C 96.7835 4.10352 2.01148 0
M  V30 1098 C 97.7805 4.96562 1.54021 0
M  V30 1099 C 95.4655 4.56203 2.10199 0
M  V30 1100 C 97.4595 6.26668 1.16473 0
M  V30 1101 C 95.1465 5.86318 1.72264 0
M  V30 1102 C 96.1445 6.71375 1.25477 0
M  V30 1103 O 95.8325 7.99062 0.880626 0
M  V30 1104 H 95.5645 0.55456 0.386574 0
M  V30 1105 H 98.1185 1.96954 0.582944 0
M  V30 1106 H 96.3485 2.28769 3.11772 0
M  V30 1107 H 98.0375 2.69783 3.03268 0
M  V30 1108 H 98.8035 4.62358 1.46458 0
M  V30 1109 H 94.6825 3.90152 2.45566 0
M  V30 1110 H 98.2265 6.93011 0.798841 0
M  V30 1111 H 94.1235 6.20046 1.79482 0
M  V30 1112 H 94.8915 8.12239 1.01043 0
M  V30 1113 N 97.5546 -0.734337 1.39446 0
M  V30 1114 C 98.4646 -1.87879 1.40495 0
M  V30 1115 C 99.4806 -1.714 0.299672 0
M  V30 1116 O 100.657 -1.93991 0.541249 0
M  V30 1117 C 97.7216 -3.23477 1.24754 0
M  V30 1118 C 96.7826 -3.52344 2.45259 0
M  V30 1119 C 96.0156 -4.81473 2.30259 0
M  V30 1120 O 96.2386 -5.55237 1.30643 0
M  V30 1121 O 95.1726 -5.10254 3.19256 0
M  V30 1122 H 98.9986 -1.89949 2.36966 0
M  V30 1123 H 96.5836 -0.882243 1.20569 0
M  V30 1124 H 98.4656 -4.04509 1.18111 0
M  V30 1125 H 97.1406 -3.22176 0.313781 0
M  V30 1126 H 96.0476 -2.71396 2.57478 0
M  V30 1127 H 97.3806 -3.58426 3.37331 0
M  V30 1128 N 99.0327 -1.24633 -0.964593 0
M  V30 1129 C 100.279 -1.08949 -1.71049 0
M  V30 1130 C 100.612 0.370302 -1.90637 0
M  V30 1131 O 99.8867 1.27349 -1.47011 0
M  V30 1132 C 100.17 -1.83329 -3.0994 0
M  V30 1133 C 100.023 -3.37077 -2.97824 0
M  V30 1134 C 101.342 -1.60846 -4.09654 0
M  V30 1135 H 98.4607 -0.397178 -0.620821 0
M  V30 1136 H 101.103 -1.5334 -1.12191 0
M  V30 1137 H 99.2527 -1.45597 -3.60186 0
M  V30 1138 H 100.925 -3.84425 -2.5498 0
M  V30 1139 H 99.1677 -3.65298 -2.33965 0
M  V30 1140 H 99.8387 -3.84324 -3.96231 0
M  V30 1141 H 102.315 -1.93674 -3.68279 0
M  V30 1142 H 101.191 -2.1534 -5.04896 0
M  V30 1143 H 101.452 -0.547434 -4.38698 0
M  V30 1144 N 100.511 1.16574 -1.06058 0
M  V30 1145 C 101.459 2.22941 -0.663343 0
M  V30 1146 C 102.453 1.66358 0.319593 0
M  V30 1147 O 103.659 1.7905 0.184713 0
M  V30 1148 H 100.034 0.725907 -0.196376 0
M  V30 1149 H 102.005 2.53736 -1.57037 0
M  V30 1150 C 100.754 3.47642 -0.0632808 0
M  V30 1151 H 100.077 3.91493 -0.810733 0
M  V30 1152 H 101.517 4.2363 0.177177 0
M  V30 1153 C 99.9758 3.1509 1.19248 0
M  V30 1154 O 100.506 3.30673 2.28075 0
M  V30 1155 N 98.7118 2.6924 1.09353 0
M  V30 1156 H 98.2588 2.5676 0.207912 0
M  V30 1157 H 98.2168 2.47833 1.93458 0
M  V30 1158 N 101.989 0.842826 1.3317 0
M  V30 1159 C 102.919 0.294028 2.31641 0
M  V30 1160 C 103.9 -0.600401 1.59151 0
M  V30 1161 O 105.085 -0.523124 1.87022 0
M  V30 1162 C 102.215 -0.528416 3.43257 0
M  V30 1163 C 101.169 0.27056 4.27144 0
M  V30 1164 C 100.495 -0.675881 5.30411 0
M  V30 1165 C 101.795 1.48981 5.00602 0
M  V30 1166 H 103.489 1.11681 2.77791 0
M  V30 1167 H 101.035 0.538478 1.33553 0
M  V30 1168 H 102.988 -0.922674 4.11175 0
M  V30 1169 H 101.712 -1.38445 2.95805 0
M  V30 1170 H 100.371 0.646427 3.60856 0
M  V30 1171 H 100.019 -1.52842 4.79216 0
M  V30 1172 H 99.7189 -0.145374 5.8742 0
M  V30 1173 H 101.243 -1.06757 6.01195 0
M  V30 1174 H 102.657 1.16849 5.61266 0
M  V30 1175 H 101.054 1.95739 5.6728 0
M  V30 1176 H 102.124 2.25746 4.29147 0
M  V30 1177 N 103.467 -1.45747 0.599634 0
M  V30 1178 C 104.43 -2.28917 -0.113835 0
M  V30 1179 C 105.43 -1.3933 -0.802729 0
M  V30 1180 O 106.62 -1.61534 -0.652103 0
M  V30 1181 C 103.752 -3.20152 -1.17114 0
M  V30 1182 H 104.945 -2.93478 0.617289 0
M  V30 1183 H 102.498 -1.52137 0.358327 0
M  V30 1184 H 103.233 -2.60374 -1.93329 0
M  V30 1185 H 103.018 -3.86133 -0.681468 0
M  V30 1186 H 104.508 -3.82708 -1.67105 0
M  V30 1187 N 104.945 -0.338344 -1.53925 0
M  V30 1188 C 106.222 0.314774 -1.93051 0
M  V30 1189 C 106.602 1.68669 -1.26941 0
M  V30 1190 O 105.95 2.24636 -0.418445 0
M  V30 1191 C 106.16 0.392249 -3.46789 0
M  V30 1192 C 107.508 0.645554 -4.19664 0
M  V30 1193 O 108.532 0.474575 -3.53024 0
M  V30 1194 O 107.391 0.976408 -5.37707 0
M  V30 1195 H 104.485 0.182598 -0.80659 0
M  V30 1196 H 107.031 -0.389141 -1.65178 0
M  V30 1197 H 105.803 -0.570702 -3.87116 0
M  V30 1198 H 105.426 1.14316 -3.80812 0
M  V30 1199 N 106.423 1.57458 -0.0668435 0
M  V30 1200 C 107.353 2.15468 0.899764 0
M  V30 1201 C 108.334 1.08042 1.31381 0
M  V30 1202 O 109.519 1.36054 1.38574 0
M  V30 1203 C 106.649 2.71232 2.16911 0
M  V30 1204 C 105.603 3.83781 1.89463 0
M  V30 1205 C 104.929 4.26127 3.22986 0
M  V30 1206 C 106.229 5.08238 1.20381 0
M  V30 1207 H 107.923 2.96488 0.416529 0
M  V30 1208 H 105.469 1.4262 0.198908 0
M  V30 1209 H 107.422 3.10458 2.84945 0
M  V30 1210 H 106.146 1.87426 2.67468 0
M  V30 1211 H 104.805 3.45051 1.23836 0
M  V30 1212 H 104.453 3.39249 3.71374 0
M  V30 1213 H 104.153 5.01993 3.05413 0
M  V30 1214 H 105.677 4.67966 3.92225 0
M  V30 1215 H 107.091 5.44811 1.78475 0
M  V30 1216 H 105.488 5.89349 1.13083 0
M  V30 1217 H 106.558 4.84558 0.182153 0
M  V30 1218 N 107.901 -0.206675 1.56239 0
M  V30 1219 C 108.849 -1.27571 1.94495 0
M  V30 1220 C 109.843 -1.47737 0.828862 0
M  V30 1221 O 111.049 -1.48735 1.0138 0
M  V30 1222 H 107.424 -0.428029 0.6183 0
M  V30 1223 H 109.395 -0.925961 2.8367 0
M  V30 1224 C 108.144 -2.61568 2.29079 0
M  V30 1225 H 107.467 -2.46863 3.14482 0
M  V30 1226 H 108.907 -3.35144 2.5972 0
M  V30 1227 C 107.366 -3.17695 1.12123 0
M  V30 1228 O 107.896 -3.99801 0.390153 0
M  V30 1229 N 106.102 -2.76276 0.901097 0
M  V30 1230 H 105.649 -2.09613 1.49733 0
M  V30 1231 H 105.607 -3.1417 0.120319 0
M  V30 1232 N 109.379 -1.50304 -0.473955 0
M  V30 1233 C 110.327 -1.69482 -1.59307 0
M  V30 1234 C 111.321 -0.560669 -1.59853 0
M  V30 1235 O 112.527 -0.741087 -1.64036 0
M  V30 1236 H 108.902 -0.534892 -0.528578 0
M  V30 1237 H 110.873 -2.63364 -1.40293 0
M  V30 1238 C 109.622 -1.80354 -2.97267 0
M  V30 1239 H 108.945 -2.67012 -2.97564 0
M  V30 1240 H 110.385 -1.97798 -3.75036 0
M  V30 1241 C 108.844 -0.55448 -3.32306 0
M  V30 1242 O 109.374 0.307661 -4.0052 0
M  V30 1243 N 107.58 -0.409354 -2.87702 0
M  V30 1244 H 107.127 -1.11196 -2.32364 0
M  V30 1245 H 107.085 0.425223 -3.11511 0
M  V30 1246 N 110.857 0.726932 -1.39834 0
M  V30 1247 C 112.134 1.47902 -1.28001 0
M  V30 1248 C 112.514 2.1083 0.106789 0
M  V30 1249 O 111.862 1.99242 1.11869 0
M  V30 1250 C 112.072 2.52392 -2.41038 0
M  V30 1251 C 113.42 3.18546 -2.80737 0
M  V30 1252 O 114.444 2.62708 -2.40547 0
M  V30 1253 O 113.303 4.19604 -3.50135 0
M  V30 1254 H 110.397 0.657163 -0.502062 0
M  V30 1255 H 112.943 0.760071 -1.51727 0
M  V30 1256 H 111.715 2.04329 -3.33715 0
M  V30 1257 H 111.338 3.31837 -2.19021 0
M  V30 1258 N 112.336 1.25143 0.95797 0
M  V30 1259 C 113.246 1.06968 2.08794 0
M  V30 1260 C 114.262 0.00773911 1.73998 0
M  V30 1261 O 115.438 0.207972 2.00323 0
M  V30 1262 C 112.503 0.68691 3.39827 0
M  V30 1263 C 111.564 1.82641 3.88511 0
M  V30 1264 C 110.797 1.46181 5.1329 0
M  V30 1265 O 111.02 0.355971 5.69288 0
M  V30 1266 O 109.954 2.29085 5.566 0
M  V30 1267 H 113.78 2.01723 2.27027 0
M  V30 1268 H 111.365 1.04051 1.07209 0
M  V30 1269 H 113.247 0.485417 4.18595 0
M  V30 1270 H 111.922 -0.231417 3.22872 0
M  V30 1271 H 110.829 2.08274 3.10762 0
M  V30 1272 H 112.162 2.72386 4.09959 0
M  V30 1273 N 113.814 -1.1601 1.06675 0
M  V30 1274 C 115.091 -1.82679 0.699114 0
M  V30 1275 C 115.471 -1.94559 -0.819137 0
M  V30 1276 O 114.819 -1.49169 -1.73092 0
M  V30 1277 C 115.029 -3.19445 1.40555 0
M  V30 1278 C 116.377 -3.95171 1.55323 0
M  V30 1279 O 117.401 -3.28976 1.36577 0
M  V30 1280 O 116.26 -5.13833 1.86112 0
M  V30 1281 H 113.354 -0.788954 0.247951 0
M  V30 1282 H 115.9 -1.23179 1.16726 0
M  V30 1283 H 114.672 -3.05856 2.44065 0
M  V30 1284 H 114.295 -3.86625 0.927733 0
M  V30 1285 N 115.292 -0.849877 -1.32721 0
M  V30 1286 C 116.224 -0.248332 -2.27851 0
M  V30 1287 C 117.237 0.577218 -1.52224 0
M  V30 1288 O 118.426 0.402489 -1.73903 0
M  V30 1289 C 115.526 0.668107 -3.32249 0
M  V30 1290 C 114.699 -0.120534 -4.37234 0
M  V30 1291 C 113.758 0.720932 -5.21238 0
M  V30 1292 O 112.784 0.156166 -5.68986 0
M  V30 1293 N 113.986 2.03647 -5.43607 0
M  V30 1294 H 116.751 -1.06575 -2.80111 0
M  V30 1295 H 114.312 -0.709395 -1.45531 0
M  V30 1296 H 116.304 1.23627 -3.85355 0
M  V30 1297 H 114.874 1.38621 -2.80184 0
M  V30 1298 H 114.094 -0.870108 -3.84477 0
M  V30 1299 H 115.382 -0.662406 -5.0447 0
M  V30 1300 H 114.78 2.51871 -5.06535 0
M  V30 1301 H 113.337 2.55287 -5.99727 0
M  V30 1302 N 116.77 1.45427 -0.607355 0
M  V30 1303 C 117.733 2.28974 0.101693 0
M  V30 1304 C 118.733 1.39754 0.795329 0
M  V30 1305 O 119.923 1.61878 0.643527 0
M  V30 1306 C 117.055 3.20768 1.15414 0
M  V30 1307 H 118.248 2.93147 -0.632844 0
M  V30 1308 H 115.801 1.51945 -0.366391 0
M  V30 1309 H 116.536 2.61395 1.91945 0
M  V30 1310 H 116.321 3.86489 0.66098 0
M  V30 1311 H 117.811 3.83589 1.65073 0
M  V30 1312 N 118.248 0.346503 1.53744 0
M  V30 1313 C 119.198 -0.524953 2.21874 0
M  V30 1314 C 120.182 -1.06376 1.20718 0
M  V30 1315 O 121.374 -0.996972 1.46251 0
M  V30 1316 C 118.503 -1.6739 2.99726 0
M  V30 1317 C 117.589 -1.14888 4.08242 0
M  V30 1318 N 117.98 -0.345329 5.0462 0
M  V30 1319 C 116.278 -1.4255 4.22606 0
M  V30 1320 C 116.979 -0.0600706 5.81669 0
M  V30 1321 N 115.955 -0.65252 5.39669 0
M  V30 1322 H 119.757 0.0960091 2.93743 0
M  V30 1323 H 117.271 0.15352 1.61673 0
M  V30 1324 H 119.268 -2.3102 3.47038 0
M  V30 1325 H 117.928 -2.29811 2.29384 0
M  V30 1326 H 118.939 0.0138439 5.17898 0
M  V30 1327 H 115.616 -2.05389 3.63486 0
M  V30 1328 H 117.006 0.588321 6.69319 0
M  V30 1329 N 119.726 -1.57421 0.075193 0
M  V30 1330 C 120.673 -2.12915 -0.890843 0
M  V30 1331 C 121.643 -1.04252 -1.29309 0
M  V30 1332 O 122.828 -1.31933 -1.37834 0
M  V30 1333 C 119.968 -2.69795 -2.15186 0
M  V30 1334 C 119.081 -3.92624 -1.80194 0
M  V30 1335 C 118.216 -4.37736 -3.00933 0
M  V30 1336 C 117.255 -5.53205 -2.61974 0
M  V30 1337 N 116.392 -5.9326 -3.75483 0
M  V30 1338 H 121.232 -2.95156 -0.410735 0
M  V30 1339 H 118.769 -1.45854 -0.191086 0
M  V30 1340 H 120.727 -3.00883 -2.89008 0
M  V30 1341 H 119.357 -1.90313 -2.60731 0
M  V30 1342 H 118.409 -3.67977 -0.964218 0
M  V30 1343 H 119.721 -4.76482 -1.47534 0
M  V30 1344 H 118.875 -4.70503 -3.8303 0
M  V30 1345 H 117.614 -3.52739 -3.36789 0
M  V30 1346 H 116.619 -5.20086 -1.783 0
M  V30 1347 H 117.844 -6.39936 -2.27284 0
M  V30 1348 H 115.79 -5.11212 -4.11094 0
M  V30 1349 H 115.707 -6.71865 -3.46602 0
M  V30 1350 H 116.975 -6.30651 -4.58148 0
M  V30 1351 N 121.204 0.198386 -1.56346 0
M  V30 1352 C 122.151 1.24589 -1.94284 0
M  V30 1353 C 123.121 1.454 -0.802997 0
M  V30 1354 O 124.306 1.58588 -1.06087 0
M  V30 1355 C 121.446 2.58631 -2.28482 0
M  V30 1356 C 120.559 2.45426 -3.55514 0
M  V30 1357 C 119.694 3.7215 -3.79049 0
M  V30 1358 C 118.733 3.53763 -4.99518 0
M  V30 1359 N 117.87 4.72491 -5.19323 0
M  V30 1360 H 122.71 0.915356 -2.83593 0
M  V30 1361 H 120.247 0.440629 -1.40346 0
M  V30 1362 H 122.205 3.3672 -2.46324 0
M  V30 1363 H 120.835 2.89734 -1.42317 0
M  V30 1364 H 119.887 1.58652 -3.45737 0
M  V30 1365 H 121.199 2.27772 -4.43758 0
M  V30 1366 H 120.353 4.58679 -3.97113 0
M  V30 1367 H 119.092 3.92754 -2.89129 0
M  V30 1368 H 118.097 2.65619 -4.8138 0
M  V30 1369 H 119.322 3.34607 -5.90944 0
M  V30 1370 H 117.268 4.93365 -4.3235 0
M  V30 1371 H 117.185 4.5765 -6.01741 0
M  V30 1372 H 118.453 5.6038 -5.41843 0
M  V30 1373 N 122.682 1.50554 0.465978 0
M  V30 1374 C 123.931 1.61038 1.21448 0
M  V30 1375 C 124.244 0.31865 1.92987 0
M  V30 1376 O 125.45 0.302469 2.6981 0
M  V30 1377 C 123.906 2.84283 2.20706 0
M  V30 1378 C 123.514 4.20352 1.54946 0
M  V30 1379 C 125.258 3.04115 2.96166 0
M  V30 1380 C 123.165 5.34778 2.5252 0
M  V30 1381 H 122.095 0.599718 0.457005 0
M  V30 1382 H 124.746 1.7699 0.484424 0
M  V30 1383 H 123.128 2.61901 2.97025 0
M  V30 1384 H 124.302 4.53008 0.843811 0
M  V30 1385 H 122.617 4.06167 0.917475 0
M  V30 1386 H 125.214 3.86774 3.69202 0
M  V30 1387 H 125.557 2.16045 3.55852 0
M  V30 1388 H 126.09 3.26702 2.26959 0
M  V30 1389 H 122.829 6.25018 1.97566 0
M  V30 1390 H 122.349 5.06534 3.21222 0
M  V30 1391 H 124.028 5.65561 3.14245 0
M  V30 1392 N 124.16 -0.719506 1.40217 0
M  V30 1393 C 125.107 -1.83359 1.40172 0
M  V30 1394 C 126.077 -1.64065 0.259206 0
M  V30 1395 O 127.262 -1.85254 0.456677 0
M  V30 1396 C 124.402 -3.2103 1.26624 0
M  V30 1397 C 123.515 -3.51923 2.50548 0
M  V30 1398 C 122.65 -4.79079 2.29471 0
M  V30 1399 C 121.689 -5.02863 3.48992 0
M  V30 1400 N 120.826 -6.2123 3.27135 0
M  V30 1401 H 125.666 -1.82733 2.35399 0
M  V30 1402 H 123.203 -0.892688 1.16917 0
M  V30 1403 H 125.161 -4.00524 1.16776 0
M  V30 1404 H 123.791 -3.20895 0.350176 0
M  V30 1405 H 122.843 -2.67014 2.70939 0
M  V30 1406 H 124.155 -3.6541 3.39525 0
M  V30 1407 H 123.309 -5.66582 2.16955 0
M  V30 1408 H 122.048 -4.67794 1.37913 0
M  V30 1409 H 121.053 -4.13816 3.6199 0
M  V30 1410 H 122.278 -5.16023 4.41472 0
M  V30 1411 H 120.224 -6.11204 2.38256 0
M  V30 1412 H 120.141 -6.35375 4.09675 0
M  V30 1413 H 121.409 -7.11532 3.18344 0
M  V30 1414 N 125.638 -1.25649 -0.95132 0
M  V30 1415 C 126.568 -1.08808 -2.06599 0
M  V30 1416 C 127.549 0.00382547 -1.701 0
M  V30 1417 O 128.734 -0.166325 -1.93486 0
M  V30 1418 C 125.864 -0.709542 -3.39975 0
M  V30 1419 C 124.818 -1.75206 -3.90496 0
M  V30 1420 C 124.144 -1.22811 -5.20405 0
M  V30 1421 C 125.444 -3.15153 -4.16504 0
M  V30 1422 H 127.138 -2.02048 -2.20946 0
M  V30 1423 H 124.684 -0.972835 -1.06169 0
M  V30 1424 H 126.637 -0.578649 -4.17408 0
M  V30 1425 H 125.361 0.258556 -3.25575 0
M  V30 1426 H 124.02 -1.87145 -3.15234 0
M  V30 1427 H 123.668 -0.250145 -5.02378 0
M  V30 1428 H 123.368 -1.92492 -5.55176 0
M  V30 1429 H 124.892 -1.10968 -6.00432 0
M  V30 1430 H 126.306 -3.06349 -4.84586 0
M  V30 1431 H 124.703 -3.82333 -4.62538 0
M  V30 1432 H 125.773 -3.61966 -3.22658 0
M  V30 1433 N 127.117 1.15442 -1.07289 0
M  V30 1434 C 128.342 1.90638 -0.816828 0
M  V30 1435 C 128.767 1.77445 0.624083 0
M  V30 1436 O 128.125 1.10671 1.43602 0
M  V30 1437 C 128.173 3.39008 -1.22906 0
M  V30 1438 O 127.277 4.10701 -0.373975 0
M  V30 1439 H 126.618 0.593555 -0.297638 0
M  V30 1440 H 129.148 1.46198 -1.43134 0
M  V30 1441 H 129.158 3.89801 -1.20497 0
M  V30 1442 H 127.833 3.47929 -2.27856 0
M  V30 1443 H 126.41 3.70046 -0.460499 0
M  V30 1444 N 128.595 0.856903 1.32268 0
M  V30 1445 C 129.835 0.467705 1.98977 0
M  V30 1446 C 130.199 -0.959231 1.66321 0
M  V30 1447 O 131.4 -1.4531 2.26138 0
M  V30 1448 C 129.671 0.70256 3.50427 0
M  V30 1449 S 131.23 0.411269 4.36868 0
M  V30 1450 H 128.048 0.175121 0.689096 0
M  V30 1451 H 130.65 1.1101 1.60925 0
M  V30 1452 H 129.354 1.74012 3.71683 0
M  V30 1453 H 128.885 0.0466707 3.93372 0
M  V30 1454 H 130.9 -0.761799 4.90317 0
M  V30 1455 N 130.073 -1.45103 0.615059 0
M  V30 1456 C 131.35 -1.95549 0.0448276 0
M  V30 1457 C 131.73 -1.55737 -1.4251 0
M  V30 1458 O 131.078 -0.823556 -2.13143 0
M  V30 1459 C 131.288 -3.48098 0.250785 0
M  V30 1460 C 132.636 -4.24384 0.135509 0
M  V30 1461 O 133.66 -3.55738 0.181299 0
M  V30 1462 O 132.519 -5.46493 0.0268878 0
M  V30 1463 H 129.613 -0.8264 -0.0314845 0
M  V30 1464 H 132.159 -1.55232 0.685642 0
M  V30 1465 H 130.931 -3.7007 1.27139 0
M  V30 1466 H 130.554 -3.95323 -0.424937 0
M  V30 1467 N 131.551 -0.354651 -1.53558 0
M  V30 1468 C 132.501 0.513179 -2.2215 0
M  V30 1469 C 133.485 1.05734 -1.21281 0
M  V30 1470 O 134.677 0.989202 -1.46778 0
M  V30 1471 C 131.806 1.65798 -3.00609 0
M  V30 1472 C 130.892 1.12722 -4.08845 0
M  V30 1473 N 131.283 0.318563 -5.04796 0
M  V30 1474 C 129.581 1.40307 -4.23356 0
M  V30 1475 C 130.282 0.0292224 -5.81693 0
M  V30 1476 N 129.258 0.623891 -5.40008 0
M  V30 1477 H 133.06 -0.111586 -2.93688 0
M  V30 1478 H 130.574 -0.162091 -1.61589 0
M  V30 1479 H 132.571 2.29176 -3.48258 0
M  V30 1480 H 131.231 2.28591 -2.306 0
M  V30 1481 H 132.242 -0.0413091 -5.17884 0
M  V30 1482 H 128.919 2.03458 -3.6457 0
M  V30 1483 H 130.309 -0.623808 -6.68998 0
M  V30 1484 N 133.029 1.57378 -0.0835403 0
M  V30 1485 C 134.278 1.93106 0.582498 0
M  V30 1486 C 134.591 0.96651 1.70053 0
M  V30 1487 O 135.797 1.21705 2.42693 0
M  V30 1488 C 134.253 3.43076 1.08751 0
M  V30 1489 C 133.861 4.48 -0.000146404 0
M  V30 1490 C 135.605 3.87785 1.72694 0
M  V30 1491 C 133.512 5.89113 0.519568 0
M  V30 1492 H 132.442 0.720775 0.221358 0
M  V30 1493 H 135.093 1.82821 -0.157675 0
M  V30 1494 H 133.475 3.48474 1.88101 0
M  V30 1495 H 134.649 4.54233 -0.775199 0
M  V30 1496 H 132.964 4.1283 -0.54406 0
M  V30 1497 H 135.561 4.90604 2.1263 0
M  V30 1498 H 135.904 3.25796 2.59158 0
M  V30 1499 H 136.437 3.8504 0.999457 0
M  V30 1500 H 133.176 6.54775 -0.308186 0
M  V30 1501 H 132.696 5.86376 1.26188 0
M  V30 1502 H 134.375 6.39346 0.992237 0
M  V30 1503 N 134.507 -0.190092 1.56449 0
M  V30 1504 C 135.756 -0.907912 1.80111 0
M  V30 1505 C 136.069 -1.84214 0.657619 0
M  V30 1506 O 137.275 -2.60094 0.778663 0
M  V30 1507 C 135.731 -1.66485 3.19078 0
M  V30 1508 C 135.339 -0.7752 4.41242 0
M  V30 1509 C 137.083 -2.37201 3.52045 0
M  V30 1510 C 134.99 -1.53129 5.71231 0
M  V30 1511 H 133.92 -0.34276 0.671589 0
M  V30 1512 H 136.571 -0.161109 1.82791 0
M  V30 1513 H 134.953 -2.45572 3.10661 0
M  V30 1514 H 136.127 -0.0226298 4.60794 0
M  V30 1515 H 134.442 -0.178627 4.16017 0
M  V30 1516 H 137.039 -2.94329 4.46402 0
M  V30 1517 H 137.382 -3.11632 2.76028 0
M  V30 1518 H 137.915 -1.65075 3.61932 0
M  V30 1519 H 134.654 -0.82967 6.50228 0
M  V30 1520 H 134.174 -2.25767 5.55688 0
M  V30 1521 H 135.853 -2.08377 6.12526 0
M  V30 1522 N 135.985 -1.50799 -0.457987 0
M  V30 1523 C 136.933 -1.71162 -1.575 0
M  V30 1524 C 137.927 -0.577592 -1.59249 0
M  V30 1525 O 139.133 -0.758443 -1.63241 0
M  V30 1526 H 135.508 -0.540468 -0.522875 0
M  V30 1527 H 137.479 -2.64837 -1.37492 0
M  V30 1528 C 136.228 -1.83496 -2.95338 0
M  V30 1529 H 135.551 -2.70153 -2.94716 0
M  V30 1530 H 136.991 -2.01765 -3.72917 0
M  V30 1531 C 135.45 -0.589694 -3.31699 0
M  V30 1532 O 135.98 0.265163 -4.00824 0
M  V30 1533 N 134.186 -0.439845 -2.87252 0
M  V30 1534 H 133.733 -1.13655 -2.31172 0
M  V30 1535 H 133.691 0.392159 -3.11945 0
M  V30 1536 N 137.463 0.71206 -1.40597 0
M  V30 1537 C 138.879 1.02058 -1.22704 0
M  V30 1538 C 139.079 2.01228 -0.104729 0
M  V30 1539 O 138.135 2.4674 0.53624 0
M  V30 1540 C 139.448 1.56094 -2.57012 0
M  V30 1541 C 140.996 1.6806 -2.64054 0
M  V30 1542 C 141.471 2.25501 -3.9864 0
M  V30 1543 N 142.962 2.32882 -4.004 0
M  V30 1544 C 143.697 2.78317 -5.01325 0
M  V30 1545 N 143.193 3.23478 -6.12645 0
M  V30 1546 N 144.986 2.77733 -4.88693 0
M  V30 1547 H 137.137 0.0547896 -2.12329 0
M  V30 1548 H 139.4 0.0869027 -0.944008 0
M  V30 1549 H 139.106 0.906865 -3.39807 0
M  V30 1550 H 138.98 2.54564 -2.78347 0
M  V30 1551 H 141.367 2.32583 -1.81629 0
M  V30 1552 H 141.448 0.681802 -2.46546 0
M  V30 1553 H 141.092 1.61598 -4.81506 0
M  V30 1554 H 141.022 3.26102 -4.13479 0
M  V30 1555 H 143.513 2.00991 -3.20017 0
M  V30 1556 H 143.826 3.56725 -6.85542 0
M  V30 1557 H 142.171 3.21429 -6.16205 0
M  V30 1558 H 145.362 2.4179 -4.00818 0
M  V30 1559 H 145.535 3.12826 -5.67489 0
M  V30 1560 N 138.941 1.26152 0.944643 0
M  V30 1561 C 140.218 1.02247 1.66748 0
M  V30 1562 C 140.598 -0.448202 2.06287 0
M  V30 1563 O 139.946 -1.42779 1.78399 0
M  V30 1564 C 140.156 1.96788 2.88228 0
M  V30 1565 C 141.504 2.25201 3.59958 0
M  V30 1566 O 142.528 1.94626 2.98327 0
M  V30 1567 O 141.387 2.77242 4.70956 0
M  V30 1568 H 138.481 0.388517 0.730057 0
M  V30 1569 H 141.027 1.37348 0.99668 0
M  V30 1570 H 139.799 2.96047 2.55875 0
M  V30 1571 H 139.422 1.62145 3.63035 0
M  V30 1572 N 140.419 -1.14872 1.07899 0
M  V30 1573 C 141.659 -1.8745 0.814965 0
M  V30 1574 C 142.023 -1.80758 -0.64733 0
M  V30 1575 O 143.224 -2.48422 -1.02664 0
M  V30 1576 C 141.495 -3.32286 1.31607 0
M  V30 1577 S 143.054 -4.22537 1.18357 0
M  V30 1578 H 139.872 -0.646833 0.295174 0
M  V30 1579 H 142.474 -1.38555 1.37923 0
M  V30 1580 H 141.178 -3.34703 2.37491 0
M  V30 1581 H 140.709 -3.86238 0.747261 0
M  V30 1582 H 142.724 -4.96044 0.124586 0
M  V30 1583 N 141.898 -0.863906 -1.31812 0
M  V30 1584 C 143.128 -0.485406 -2.00817 0
M  V30 1585 C 143.536 0.925007 -1.65046 0
M  V30 1586 O 142.879 1.61653 -0.872574 0
M  V30 1587 C 142.941 -0.555589 -3.55181 0
M  V30 1588 C 142.605 -1.92654 -4.14407 0
M  V30 1589 C 143.602 -2.89324 -4.31958 0
M  V30 1590 C 141.287 -2.2262 -4.50273 0
M  V30 1591 C 143.281 -4.14108 -4.84555 0
M  V30 1592 C 140.968 -3.47654 -5.02573 0
M  V30 1593 C 141.966 -4.43214 -5.19664 0
M  V30 1594 O 141.654 -5.66033 -5.70843 0
M  V30 1595 H 141.386 -0.188224 -0.649267 0
M  V30 1596 H 143.94 -1.16514 -1.69156 0
M  V30 1597 H 142.17 0.181037 -3.86276 0
M  V30 1598 H 143.859 -0.19138 -4.05449 0
M  V30 1599 H 144.625 -2.6748 -4.04573 0
M  V30 1600 H 140.504 -1.4902 -4.3625 0
M  V30 1601 H 144.048 -4.88703 -4.9781 0
M  V30 1602 H 139.945 -3.69345 -5.29391 0
M  V30 1603 H 140.713 -5.6812 -5.89222 0
M  V30 1604 N 143.376 1.44774 -0.622745 0
M  V30 1605 C 144.604 2.06487 -0.130722 0
M  V30 1606 C 145.019 1.46476 1.19123 0
M  V30 1607 O 144.376 0.584502 1.72887 0
M  V30 1608 C 144.427 3.615 -0.000807207 0
M  V30 1609 O 144.148 4.19274 -1.27048 0
M  V30 1610 C 145.649 4.40229 0.520898 0
M  V30 1611 H 142.869 0.666704 -0.0758106 0
M  V30 1612 H 145.413 1.85779 -0.854774 0
M  V30 1613 H 143.568 3.81498 0.673643 0
M  V30 1614 H 143.982 5.12622 -1.1099 0
M  V30 1615 H 145.456 5.49144 0.560838 0
M  V30 1616 H 145.933 4.1108 1.54627 0
M  V30 1617 H 146.539 4.25131 -0.120018 0
M  V30 1618 N 144.854 0.36279 1.53368 0
M  V30 1619 C 146.131 -0.284021 1.93527 0
M  V30 1620 C 146.511 -1.66628 1.29608 0
M  V30 1621 O 145.859 -2.23942 0.45413 0
M  V30 1622 C 146.069 -0.337028 3.47369 0
M  V30 1623 C 147.417 -0.578708 4.20638 0
M  V30 1624 O 148.441 -0.418352 3.53735 0
M  V30 1625 O 147.3 -0.89074 5.39192 0
M  V30 1626 H 144.394 -0.169743 0.809393 0
M  V30 1627 H 146.94 0.41537 1.64538 0
M  V30 1628 H 145.712 0.632217 3.86159 0
M  V30 1629 H 145.335 -1.08243 3.82582 0
M  V30 1630 N 146.332 -1.57332 0.0918853 0
M  V30 1631 C 147.579 -1.94236 -0.572577 0
M  V30 1632 C 147.907 -0.973398 -1.6839 0
M  V30 1633 O 147.162 0.00756912 -1.95699 0
M  V30 1634 C 147.461 -3.37689 -1.17051 0
M  V30 1635 C 147.127 -4.50527 -0.183304 0
M  V30 1636 C 145.789 -4.81119 0.0882276 0
M  V30 1637 C 148.141 -5.18883 0.49095 0
M  V30 1638 C 145.469 -5.77395 1.04076 0
M  V30 1639 C 147.821 -6.1618 1.43193 0
M  V30 1640 C 146.485 -6.45179 1.71173 0
M  V30 1641 H 145.755 -0.710762 -0.209521 0
M  V30 1642 H 148.402 -1.9077 0.167036 0
M  V30 1643 H 146.707 -3.37718 -1.9863 0
M  V30 1644 H 148.404 -3.63543 -1.69227 0
M  V30 1645 H 144.994 -4.26681 -0.405124 0
M  V30 1646 H 149.178 -4.95427 0.294312 0
M  V30 1647 H 144.434 -5.98179 1.26457 0
M  V30 1648 H 148.608 -6.68243 1.96023 0
M  V30 1649 H 146.235 -7.1959 2.4514 0
M  V30 1650 N 147.81 0.181792 -1.56548 0
M  V30 1651 C 149.05 0.906711 -1.83189 0
M  V30 1652 C 149.414 1.79882 -0.671312 0
M  V30 1653 O 150.615 2.56054 -0.81792 0
M  V30 1654 C 148.886 1.69023 -3.14906 0
M  V30 1655 S 150.445 2.46535 -3.62996 0
M  V30 1656 H 147.263 0.303877 -0.642791 0
M  V30 1657 H 149.865 0.169107 -1.94767 0
M  V30 1658 H 148.569 1.02571 -3.97376 0
M  V30 1659 H 148.1 2.46941 -3.06241 0
M  V30 1660 H 150.115 3.71014 -3.29489 0
M  V30 1661 N 149.288 1.51039 0.449983 0
M  V30 1662 C 150.536 1.62759 1.19808 0
M  V30 1663 C 150.857 0.339981 1.92013 0
M  V30 1664 O 150.127 -0.643606 1.85026 0
M  V30 1665 H 148.707 0.599811 0.445237 0
M  V30 1666 H 151.369 1.87914 0.517138 0
M  V30 1667 H 150.465 2.44911 1.93455 0
M  V30 1668 N 150.766 -0.704594 1.40972 0
M  V30 1669 C 151.696 -1.83124 1.44872 0
M  V30 1670 C 152.677 -1.67281 0.30838 0
M  V30 1671 O 153.862 -1.87149 0.518556 0
M  V30 1672 C 150.992 -3.21181 1.32136 0
M  V30 1673 C 149.946 -3.51714 2.43888 0
M  V30 1674 C 149.272 -4.89032 2.16222 0
M  V30 1675 C 150.572 -3.516 3.86232 0
M  V30 1676 H 152.266 -1.80117 2.39161 0
M  V30 1677 H 149.812 -0.865145 1.15114 0
M  V30 1678 H 151.765 -3.99702 1.33479 0
M  V30 1679 H 150.489 -3.24791 0.343279 0
M  V30 1680 H 149.148 -2.75539 2.41813 0
M  V30 1681 H 148.796 -4.89256 1.16778 0
M  V30 1682 H 148.496 -5.10426 2.911 0
M  V30 1683 H 150.02 -5.69873 2.19265 0
M  V30 1684 H 151.434 -4.2014 3.9007 0
M  V30 1685 H 149.831 -3.84523 4.60719 0
M  V30 1686 H 150.901 -2.50757 4.15029 0
M  V30 1687 N 152.244 -1.26651 -0.937939 0
M  V30 1688 C 153.469 -1.15279 -1.72411 0
M  V30 1689 C 153.894 0.287866 -1.85884 0
M  V30 1690 O 153.252 1.20855 -1.35143 0
M  V30 1691 C 153.3 -1.83028 -3.10698 0
M  V30 1692 O 152.404 -1.12128 -3.96864 0
M  V30 1693 H 151.745 -0.401504 -0.528858 0
M  V30 1694 H 154.275 -1.67531 -1.1745 0
M  V30 1695 H 154.285 -1.89981 -3.6107 0
M  V30 1696 H 152.96 -2.87833 -3.00208 0
M  V30 1697 H 151.537 -1.13173 -3.55312 0
M  V30 1698 N 153.722 1.14298 -1.08507 0
M  V30 1699 C 154.971 1.84708 -0.810305 0
M  V30 1700 C 155.284 1.83903 0.666271 0
M  V30 1701 O 156.49 2.50112 1.05624 0
M  V30 1702 C 154.946 3.31572 -1.39957 0
M  V30 1703 C 154.554 3.40791 -2.90801 0
M  V30 1704 C 156.298 4.07087 -1.20334 0
M  V30 1705 C 154.205 4.81872 -3.4286 0
M  V30 1706 H 153.135 0.691985 -0.299454 0
M  V30 1707 H 155.786 1.28841 -1.30661 0
M  V30 1708 H 154.168 3.87183 -0.830976 0
M  V30 1709 H 155.342 2.95225 -3.53806 0
M  V30 1710 H 153.657 2.78732 -3.0935 0
M  V30 1711 H 156.254 5.11225 -1.56693 0
M  V30 1712 H 156.597 4.16054 -0.143237 0
M  V30 1713 H 157.13 3.57779 -1.73893 0
M  V30 1714 H 153.869 4.78094 -4.48449 0
M  V30 1715 H 153.389 5.27972 -2.84615 0
M  V30 1716 H 155.068 5.50765 -3.39509 0
M  V30 1717 N 155.201 0.870884 1.31352 0
M  V30 1718 C 156.429 0.49677 2.00848 0
M  V30 1719 C 156.844 -0.910998 1.65367 0
M  V30 1720 O 156.201 -1.59696 0.883374 0
M  V30 1721 C 156.252 0.645308 3.55694 0
M  V30 1722 O 155.973 1.99764 3.89905 0
M  V30 1723 C 157.474 0.272326 4.42463 0
M  V30 1724 H 154.694 0.193462 0.642506 0
M  V30 1725 H 157.238 1.1723 1.67563 0
M  V30 1726 H 155.393 0.0173176 3.87396 0
M  V30 1727 H 155.807 2.00607 4.84621 0
M  V30 1728 H 157.281 0.427208 5.50344 0
M  V30 1729 H 157.758 -0.788587 4.32062 0
M  V30 1730 H 158.364 0.876054 4.1618 0
M  V30 1731 N 156.679 -1.44442 0.630414 0
M  V30 1732 C 158.095 -1.56832 0.295973 0
M  V30 1733 C 158.295 -1.61806 -1.20088 0
M  V30 1734 O 157.351 -1.5607 -1.9849 0
M  V30 1735 C 158.664 -2.84031 0.987264 0
M  V30 1736 C 160.212 -2.97742 0.96534 0
M  V30 1737 C 160.687 -4.27743 1.63708 0
M  V30 1738 N 162.178 -4.34555 1.60364 0
M  V30 1739 C 162.913 -5.33862 2.09234 0
M  V30 1740 N 162.409 -6.39578 2.66292 0
M  V30 1741 N 164.202 -5.25366 1.99867 0
M  V30 1742 H 156.353 -1.39457 1.60205 0
M  V30 1743 H 158.616 -0.668237 0.672431 0
M  V30 1744 H 158.322 -2.86338 2.04215 0
M  V30 1745 H 158.196 -3.73534 0.524588 0
M  V30 1746 H 160.583 -2.94989 -0.0810639 0
M  V30 1747 H 160.664 -2.09589 1.4665 0
M  V30 1748 H 160.308 -4.31255 2.68293 0
M  V30 1749 H 160.238 -5.14752 1.11076 0
M  V30 1750 H 162.729 -3.58772 1.18705 0
M  V30 1751 H 163.042 -7.11637 3.01317 0
M  V30 1752 H 161.387 -6.40265 2.70343 0
M  V30 1753 H 164.578 -4.41688 1.55013 0
M  V30 1754 H 164.751 -6.02606 2.38265 0
M  V30 1755 N 158.157 -0.370918 -1.53173 0
M  V30 1756 C 159.434 0.273754 -1.93675 0
M  V30 1757 C 159.814 1.65938 -1.3049 0
M  V30 1758 O 159.162 2.23698 -0.465999 0
M  V30 1759 C 159.372 0.318602 -3.47543 0
M  V30 1760 C 160.72 0.556392 -4.20939 0
M  V30 1761 O 161.744 0.399587 -3.53952 0
M  V30 1762 O 160.603 0.862133 -5.39657 0
M  V30 1763 H 157.697 0.165448 -0.810281 0
M  V30 1764 H 160.243 -0.42409 -1.64315 0
M  V30 1765 H 159.015 -0.652687 -3.85818 0
M  V30 1766 H 158.638 1.06212 -3.83151 0
M  V30 1767 N 159.635 1.57281 -0.100228 0
M  V30 1768 C 160.582 2.14305 0.856858 0
M  V30 1769 C 161.552 1.06296 1.27634 0
M  V30 1770 O 162.737 1.34109 1.35718 0
M  V30 1771 C 159.877 2.73184 2.10866 0
M  V30 1772 C 158.99 3.95442 1.73925 0
M  V30 1773 C 158.125 4.42468 2.93931 0
M  V30 1774 C 157.164 5.57303 2.5314 0
M  V30 1775 N 156.301 5.99158 3.65997 0
M  V30 1776 H 161.141 2.95772 0.363726 0
M  V30 1777 H 158.678 1.46139 0.167858 0
M  V30 1778 H 160.636 3.05442 2.84185 0
M  V30 1779 H 159.266 1.94437 2.57671 0
M  V30 1780 H 158.318 3.69464 0.905554 0
M  V30 1781 H 159.63 4.78769 1.39935 0
M  V30 1782 H 158.784 4.76537 3.75496 0
M  V30 1783 H 157.523 3.58052 3.31134 0
M  V30 1784 H 156.528 5.22857 1.70003 0
M  V30 1785 H 157.753 6.43471 2.17075 0
M  V30 1786 H 155.699 5.17687 4.02909 0
M  V30 1787 H 155.616 6.77295 3.35869 0
M  V30 1788 H 156.884 6.3786 4.48057 0
M  V30 1789 N 161.113 -0.173488 1.56642 0
M  V30 1790 C 162.043 -1.2171 1.99271 0
M  V30 1791 C 163.024 -1.46289 0.867959 0
M  V30 1792 O 164.209 -1.5766 1.13388 0
M  V30 1793 C 161.339 -2.55651 2.35074 0
M  V30 1794 C 160.293 -2.45645 3.50489 0
M  V30 1795 C 159.619 -3.84056 3.72028 0
M  V30 1796 C 160.919 -1.96302 4.84007 0
M  V30 1797 H 162.613 -0.86275 2.867 0
M  V30 1798 H 160.159 -0.413571 1.37933 0
M  V30 1799 H 162.112 -3.2886 2.63494 0
M  V30 1800 H 160.836 -2.92869 1.44552 0
M  V30 1801 H 159.495 -1.7489 3.22194 0
M  V30 1802 H 159.143 -4.18664 2.788 0
M  V30 1803 H 158.843 -3.7823 4.49684 0
M  V30 1804 H 160.367 -4.58854 4.02846 0
M  V30 1805 H 161.781 -2.59284 5.11317 0
M  V30 1806 H 160.178 -2.01429 5.65284 0
M  V30 1807 H 161.248 -0.917226 4.76146 0
M  V30 1808 N 162.591 -1.51276 -0.441967 0
M  V30 1809 C 163.831 -1.65372 -1.20132 0
M  V30 1810 C 164.195 -0.359871 -1.88597 0
M  V30 1811 O 165.396 -0.376551 -2.66149 0
M  V30 1812 C 163.667 -2.8207 -2.1948 0
M  V30 1813 S 165.226 -3.16467 -3.03964 0
M  V30 1814 H 162.044 -0.582669 -0.407453 0
M  V30 1815 H 164.646 -1.89166 -0.493609 0
M  V30 1816 H 163.35 -3.74523 -1.67812 0
M  V30 1817 H 162.881 -2.6045 -2.94838 0
M  V30 1818 H 164.896 -2.62543 -4.21053 0
M  V30 1819 N 164.069 0.697108 -1.41344 0
M  V30 1820 C 165.294 1.49096 -1.44171 0
M  V30 1821 C 165.719 1.88038 -0.0481568 0
M  V30 1822 O 165.077 1.54525 0.948243 0
M  V30 1823 C 165.125 2.73088 -2.3549 0
M  V30 1824 O 164.229 3.70514 -1.81088 0
M  V30 1825 H 163.57 0.448801 -0.489361 0
M  V30 1826 H 166.1 0.856992 -1.85787 0
M  V30 1827 H 166.11 3.21413 -2.51312 0
M  V30 1828 H 164.785 2.44081 -3.36745 0
M  V30 1829 H 163.362 3.29441 -1.74708 0
M  V30 1830 N 165.547 1.27147 0.931209 0
M  V30 1831 C 166.477 1.12081 2.04842 0
M  V30 1832 C 167.458 0.0232364 1.70084 0
M  V30 1833 O 168.643 0.197085 1.93197 0
M  V30 1834 C 165.773 0.76354 3.38803 0
M  V30 1835 C 164.727 1.81396 3.87659 0
M  V30 1836 C 164.053 1.31075 5.18385 0
M  V30 1837 C 165.353 3.21739 4.11438 0
M  V30 1838 H 167.047 2.05537 2.17703 0
M  V30 1839 H 164.593 0.989603 1.04608 0
M  V30 1840 H 166.546 0.644982 4.16435 0
M  V30 1841 H 165.27 -0.206727 3.25945 0
M  V30 1842 H 163.929 1.92136 3.12217 0
M  V30 1843 H 163.577 0.330037 5.01916 0
M  V30 1844 H 163.277 2.013 5.52044 0
M  V30 1845 H 164.801 1.20506 5.98591 0
M  V30 1846 H 166.215 3.14019 4.79651 0
M  V30 1847 H 164.612 3.89644 4.56397 0
M  V30 1848 H 165.682 3.67054 3.16859 0
M  V30 1849 N 167.025 -1.13721 1.09112 0
M  V30 1850 C 168.274 -1.84275 0.82009 0
M  V30 1851 C 168.587 -1.84253 -0.656509 0
M  V30 1852 O 169.793 -2.50668 -1.04296 0
M  V30 1853 C 168.249 -3.30825 1.41714 0
M  V30 1854 C 167.857 -3.39244 2.92605 0
M  V30 1855 C 169.601 -4.06443 1.22492 0
M  V30 1856 C 167.508 -4.80047 3.45411 0
M  V30 1857 H 166.438 -0.690387 0.30312 0
M  V30 1858 H 169.089 -1.28146 1.31343 0
M  V30 1859 H 167.471 -3.86737 0.851498 0
M  V30 1860 H 168.645 -2.93344 3.55367 0
M  V30 1861 H 166.96 -2.77088 3.10823 0
M  V30 1862 H 169.557 -5.10387 1.59402 0
M  V30 1863 H 169.9 -4.15972 0.165299 0
M  V30 1864 H 170.433 -3.56852 1.75788 0
M  V30 1865 H 167.172 -4.75709 4.50978 0
M  V30 1866 H 166.692 -5.26455 2.87411 0
M  V30 1867 H 168.371 -5.48957 3.42425 0
M  V30 1868 N 168.503 -0.877838 -1.30888 0
M  V30 1869 C 169.919 -0.570844 -1.49042 0
M  V30 1870 C 170.119 0.893159 -1.80624 0
M  V30 1871 O 169.175 1.67485 -1.88958 0
M  V30 1872 C 170.488 -1.47784 -2.61878 0
M  V30 1873 C 172.036 -1.48071 -2.75761 0
M  V30 1874 C 172.511 -2.37347 -3.91702 0
M  V30 1875 N 174.002 -2.35271 -3.99001 0
M  V30 1876 C 174.737 -3.01063 -4.88004 0
M  V30 1877 N 174.233 -3.76055 -5.81854 0
M  V30 1878 N 176.026 -2.90332 -4.81315 0
M  V30 1879 H 168.177 -1.82502 -1.0866 0
M  V30 1880 H 170.44 -0.780797 -0.537644 0
M  V30 1881 H 170.146 -2.51993 -2.45341 0
M  V30 1882 H 170.02 -1.18215 -3.58197 0
M  V30 1883 H 172.407 -0.446166 -2.91708 0
M  V30 1884 H 172.488 -1.81668 -1.80085 0
M  V30 1885 H 172.132 -3.40883 -3.76512 0
M  V30 1886 H 172.062 -2.01071 -4.86701 0
M  V30 1887 H 174.553 -1.80768 -3.3186 0
M  V30 1888 H 174.866 -4.23366 -6.46514 0
M  V30 1889 H 173.211 -3.80163 -5.81808 0
M  V30 1890 H 176.402 -2.31278 -4.06974 0
M  V30 1891 H 176.575 -3.41885 -5.50471 0
M  V30 1892 N 169.982 1.44106 -0.638065 0
M  V30 1893 C 170.929 2.30715 0.062701 0
M  V30 1894 C 171.899 1.43882 0.829883 0
M  V30 1895 O 173.084 1.72775 0.809532 0
M  V30 1896 C 170.224 3.29258 1.03358 0
M  V30 1897 C 169.337 4.31192 0.26409 0
M  V30 1898 C 168.472 5.16825 1.22741 0
M  V30 1899 C 167.511 6.10462 0.447475 0
M  V30 1900 N 166.648 6.8877 1.36161 0
M  V30 1901 H 171.488 2.90096 -0.681781 0
M  V30 1902 H 169.025 1.42925 -0.347988 0
M  V30 1903 H 170.983 3.84886 1.60992 0
M  V30 1904 H 169.613 2.71562 1.74511 0
M  V30 1905 H 168.665 3.77981 -0.428295 0
M  V30 1906 H 169.977 4.97619 -0.343052 0
M  V30 1907 H 169.131 5.77004 1.87487 0
M  V30 1908 H 167.87 4.50488 1.86847 0
M  V30 1909 H 166.875 5.49386 -0.213433 0
M  V30 1910 H 168.1 6.78837 -0.188968 0
M  V30 1911 H 166.046 6.25096 1.98975 0
M  V30 1912 H 165.963 7.51663 0.808656 0
M  V30 1913 H 167.231 7.53467 1.99769 0
M  V30 1914 N 171.46 0.379036 1.52974 0
M  V30 1915 C 172.708 -0.206014 2.01047 0
M  V30 1916 C 173.029 -1.48175 1.26765 0
M  V30 1917 O 172.299 -1.92085 0.384743 0
M  V30 1918 H 170.879 -0.0791184 0.742798 0
M  V30 1919 H 173.541 0.508366 1.88153 0
M  V30 1920 H 172.637 -0.423501 3.09213 0
M  V30 1921 N 172.938 -1.57226 0.108567 0
M  V30 1922 C 174.168 -1.9889 -0.559142 0
M  V30 1923 C 174.576 -0.986889 -1.61422 0
M  V30 1924 O 173.919 0.0298705 -1.83676 0
M  V30 1925 C 173.981 -3.36952 -1.25315 0
M  V30 1926 C 173.645 -4.55679 -0.347248 0
M  V30 1927 C 174.642 -5.18281 0.409996 0
M  V30 1928 C 172.327 -5.0162 -0.261367 0
M  V30 1929 C 174.321 -6.25203 1.24096 0
M  V30 1930 C 172.008 -6.08405 0.573238 0
M  V30 1931 C 173.006 -6.70063 1.32304 0
M  V30 1932 O 172.694 -7.74788 2.14381 0
M  V30 1933 H 172.426 -0.658343 -0.153492 0
M  V30 1934 H 174.98 -2.04532 0.188584 0
M  V30 1935 H 173.21 -3.28032 -2.04773 0
M  V30 1936 H 174.899 -3.62974 -1.81673 0
M  V30 1937 H 175.665 -4.8371 0.353457 0
M  V30 1938 H 171.544 -4.53381 -0.834656 0
M  V30 1939 H 175.088 -6.73259 1.82669 0
M  V30 1940 H 170.985 -6.42406 0.631208 0
M  V30 1941 H 171.753 -7.91837 2.07209 0
M  V30 1942 N 174.416 0.165178 -1.56732 0
M  V30 1943 C 175.644 0.896218 -1.86482 0
M  V30 1944 C 176.059 1.75555 -0.694675 0
M  V30 1945 O 175.416 1.79379 0.33607 0
M  V30 1946 C 175.467 1.76792 -3.1532 0
M  V30 1947 O 175.188 0.943239 -4.27825 0
M  V30 1948 C 176.689 2.6081 -3.58459 0
M  V30 1949 H 173.909 0.260064 -0.618553 0
M  V30 1950 H 176.453 0.163428 -2.03846 0
M  V30 1951 H 174.608 2.45398 -2.99764 0
M  V30 1952 H 175.022 1.53998 -5.01383 0
M  V30 1953 H 176.496 3.17579 -4.51495 0
M  V30 1954 H 176.973 3.35977 -2.82872 0
M  V30 1955 H 177.579 1.97526 -3.76648 0
M  V30 1956 N 175.894 1.51508 0.433938 0
M  V30 1957 C 176.824 1.76016 1.53429 0
M  V30 1958 C 177.805 0.610112 1.58782 0
M  V30 1959 O 178.99 0.853177 1.74455 0
M  V30 1960 C 176.12 1.88831 2.9148 0
M  V30 1961 C 175.074 3.04288 3.00987 0
M  V30 1962 C 174.4 3.0229 4.4105 0
M  V30 1963 C 175.7 4.44193 2.74754 0
M  V30 1964 H 177.394 2.68152 1.33171 0
M  V30 1965 H 174.94 1.29035 0.639214 0
M  V30 1966 H 176.893 2.04559 3.6842 0
M  V30 1967 H 175.617 0.933455 3.12976 0
M  V30 1968 H 174.276 2.8827 2.26486 0
M  V30 1969 H 173.924 2.04576 4.59519 0
M  V30 1970 H 173.624 3.79822 4.4834 0
M  V30 1971 H 175.148 3.20116 5.1996 0
M  V30 1972 H 176.562 4.60544 3.41426 0
M  V30 1973 H 174.959 5.23457 2.9345 0
M  V30 1974 H 176.029 4.53996 1.70339 0
M  V30 1975 N 177.372 -0.689602 1.41712 0
M  V30 1976 C 178.621 -1.44534 1.40686 0
M  V30 1977 C 178.934 -1.95588 0.0213352 0
M  V30 1978 O 180.14 -2.71271 -0.111534 0
M  V30 1979 C 178.596 -2.61387 2.47396 0
M  V30 1980 C 178.204 -2.17094 3.91885 0
M  V30 1981 C 179.948 -3.38986 2.55517 0
M  V30 1982 C 177.855 -3.3094 4.90135 0
M  V30 1983 H 176.785 -0.542925 0.52321 0
M  V30 1984 H 179.436 -0.748054 1.6756 0
M  V30 1985 H 177.818 -3.33412 2.13664 0
M  V30 1986 H 178.992 -1.52318 4.34897 0
M  V30 1987 H 177.307 -1.52473 3.8748 0
M  V30 1988 H 179.904 -4.23747 3.26102 0
M  V30 1989 H 180.247 -3.84578 1.59391 0
M  V30 1990 H 180.78 -2.74021 2.8837 0
M  V30 1991 H 177.519 -2.90355 5.87685 0
M  V30 1992 H 177.039 -3.94546 4.51767 0
M  V30 1993 H 178.718 -3.9663 5.11169 0
M  V30 1994 N 178.85 -1.27639 -0.924453 0
M  V30 1995 C 179.76 -1.12466 -2.05885 0
M  V30 1996 C 180.776 -0.053869 -1.73917 0
M  V30 1997 O 181.952 -0.261012 -1.99702 0
M  V30 1998 C 179.017 -0.776768 -3.37886 0
M  V30 1999 C 178.078 -1.92878 -3.83532 0
M  V30 2000 C 177.311 -1.59739 -5.09234 0
M  V30 2001 O 177.534 -0.506782 -5.68144 0
M  V30 2002 O 176.468 -2.43761 -5.50331 0
M  V30 2003 H 180.294 -2.07671 -2.21599 0
M  V30 2004 H 177.879 -1.06857 -1.04413 0
M  V30 2005 H 179.761 -0.596229 -4.17161 0
M  V30 2006 H 178.436 0.145732 -3.23372 0
M  V30 2007 H 177.343 -2.1644 -3.0513 0
M  V30 2008 H 178.676 -2.8316 -4.02593 0
M  V30 2009 N 180.328 1.1314 -1.09713 0
M  V30 2010 C 181.576 1.84119 -0.833338 0
M  V30 2011 C 181.897 1.84097 0.642904 0
M  V30 2012 O 181.167 1.29881 1.46655 0
M  V30 2013 H 179.747 0.681766 -0.305293 0
M  V30 2014 H 182.409 1.37038 -1.38588 0
M  V30 2015 H 181.505 2.88543 -1.18951 0
M  V30 2016 N 181.806 0.884767 1.30421 0
M  V30 2017 C 182.756 0.322846 2.25703 0
M  V30 2018 C 183.74 -0.548582 1.51259 0
M  V30 2019 O 184.932 -0.39304 1.72581 0
M  V30 2020 C 182.061 -0.461787 3.4018 0
M  V30 2021 C 181.147 0.423717 4.21978 0
M  V30 2022 N 181.538 1.52408 4.82292 0
M  V30 2023 C 179.836 0.218795 4.45463 0
M  V30 2024 C 180.537 2.07136 5.43571 0
M  V30 2025 N 179.513 1.36635 5.26148 0
M  V30 2026 H 183.315 1.16363 2.69883 0
M  V30 2027 H 180.829 0.73415 1.44859 0
M  V30 2028 H 182.826 -0.880985 4.07485 0
M  V30 2029 H 181.486 -1.30001 2.9754 0
M  V30 2030 H 182.497 1.90693 4.81515 0
M  V30 2031 H 179.174 -0.582275 4.1342 0
M  V30 2032 H 180.564 2.99538 6.01437 0
M  V30 2033 N 183.284 -1.43765 0.645699 0
M  V30 2034 C 184.512 -2.06253 0.163556 0
M  V30 2035 C 184.927 -1.48352 -1.16778 0
M  V30 2036 O 184.284 -0.611932 -1.71935 0
M  V30 2037 C 184.335 -3.61453 0.0583186 0
M  V30 2038 O 184.056 -4.172 1.33702 0
M  V30 2039 C 185.557 -4.41002 -0.450795 0
M  V30 2040 H 182.777 -0.665413 0.0864077 0
M  V30 2041 H 185.321 -1.84396 0.884222 0
M  V30 2042 H 183.476 -3.82522 -0.612865 0
M  V30 2043 H 183.89 -5.10791 1.19131 0
M  V30 2044 H 185.364 -5.49966 -0.473403 0
M  V30 2045 H 185.841 -4.13488 -1.48068 0
M  V30 2046 H 186.447 -4.24886 0.187637 0
M  V30 2047 N 184.763 -0.387143 -1.52771 0
M  V30 2048 C 186.04 0.253197 -1.93954 0
M  V30 2049 C 186.42 1.64545 -1.32243 0
M  V30 2050 O 185.768 2.23191 -0.489699 0
M  V30 2051 C 185.978 0.281722 -3.47861 0
M  V30 2052 C 187.326 0.511715 -4.21505 0
M  V30 2053 O 188.35 0.362023 -3.54356 0
M  V30 2054 O 187.209 0.804847 -5.40541 0
M  V30 2055 H 184.303 0.156845 -0.811991 0
M  V30 2056 H 186.849 -0.441494 -1.63856 0
M  V30 2057 H 185.621 -0.693571 -3.85104 0
M  V30 2058 H 185.244 1.02142 -3.84256 0
M  V30 2059 N 186.241 1.57166 -0.116904 0
M  V30 2060 C 187.487 1.95412 0.542405 0
M  V30 2061 C 187.82 1.00019 1.66463 0
M  V30 2062 O 187.095 0.0370346 1.94465 0
M  V30 2063 C 187.378 3.43615 1.07708 0
M  V30 2064 C 187.231 4.49781 -0.0415868 0
M  V30 2065 C 188.55 3.93616 1.96861 0
M  V30 2066 H 185.669 0.710543 0.195696 0
M  V30 2067 H 188.311 1.89027 -0.192038 0
M  V30 2068 H 186.461 3.49187 1.70296 0
M  V30 2069 H 188.133 4.56308 -0.676793 0
M  V30 2070 H 186.376 4.28033 -0.705019 0
M  V30 2071 H 187.047 5.50733 0.373717 0
M  V30 2072 H 189.523 3.90335 1.44146 0
M  V30 2073 H 188.399 4.97838 2.3119 0
M  V30 2074 H 188.66 3.34188 2.89432 0
M  V30 2075 N 187.719 -0.156864 1.56817 0
M  V30 2076 C 188.666 -1.19394 1.97519 0
M  V30 2077 C 189.636 -1.4322 0.841265 0
M  V30 2078 O 190.821 -1.55719 1.10255 0
M  V30 2079 C 187.961 -2.52483 2.35258 0
M  V30 2080 C 187.074 -2.35914 3.61896 0
M  V30 2081 C 186.209 -3.61969 3.88782 0
M  V30 2082 C 185.248 -3.40395 5.08722 0
M  V30 2083 N 184.385 -4.58556 5.31668 0
M  V30 2084 H 189.225 -0.839845 2.85921 0
M  V30 2085 H 186.762 -0.403264 1.41464 0
M  V30 2086 H 188.72 -3.30071 2.55165 0
M  V30 2087 H 187.35 -2.85859 1.49949 0
M  V30 2088 H 186.402 -1.49429 3.49821 0
M  V30 2089 H 187.714 -2.15926 4.49641 0
M  V30 2090 H 186.868 -4.47989 4.09135 0
M  V30 2091 H 185.607 -3.84951 2.9944 0
M  V30 2092 H 184.612 -2.52763 4.88253 0
M  V30 2093 H 185.837 -3.18822 5.99608 0
M  V30 2094 H 183.783 -4.81729 4.45279 0
M  V30 2095 H 183.7 -4.41535 6.13664 0
M  V30 2096 H 184.968 -5.45817 5.5651 0
M  V30 2097 N 189.197 -1.51736 -0.425897 0
M  V30 2098 C 190.425 -1.68794 -1.1965 0
M  V30 2099 C 190.84 -0.390164 -1.84725 0
M  V30 2100 O 190.197 0.632376 -1.71194 0
M  V30 2101 C 190.248 -2.81174 -2.27208 0
M  V30 2102 O 189.969 -4.05925 -1.64793 0
M  V30 2103 C 191.47 -3.09599 -3.17275 0
M  V30 2104 H 188.69 -0.566128 -0.360194 0
M  V30 2105 H 191.234 -1.98211 -0.503249 0
M  V30 2106 H 189.389 -2.54324 -2.9223 0
M  V30 2107 H 189.803 -4.68423 -2.35967 0
M  V30 2108 H 191.277 -3.91786 -3.88854 0
M  V30 2109 H 191.754 -2.22468 -3.78688 0
M  V30 2110 H 192.36 -3.38151 -2.57941 0
M  V30 2111 N 190.675 0.682077 -1.42076 0
M  V30 2112 C 191.605 1.80796 -1.47767 0
M  V30 2113 C 192.586 1.6677 -0.334954 0
M  V30 2114 O 193.771 1.863 -0.548264 0
M  V30 2115 C 190.901 3.19038 -1.37229 0
M  V30 2116 C 189.855 3.47789 -2.49453 0
M  V30 2117 C 189.181 4.8553 -2.23975 0
M  V30 2118 C 190.481 3.45411 -3.91776 0
M  V30 2119 H 192.175 1.7629 -2.41997 0
M  V30 2120 H 189.721 0.846721 -1.16476 0
M  V30 2121 H 191.674 3.97528 -1.39821 0
M  V30 2122 H 190.398 3.24204 -0.394907 0
M  V30 2123 H 189.057 2.71657 -2.46166 0
M  V30 2124 H 188.705 4.87337 -1.24547 0
M  V30 2125 H 188.405 5.0573 -2.99184 0
M  V30 2126 H 189.929 5.66312 -2.28304 0
M  V30 2127 H 191.343 4.13882 -3.96705 0
M  V30 2128 H 189.74 3.77145 -4.66778 0
M  V30 2129 H 190.81 2.44122 -4.18966 0
M  V30 2130 N 192.153 1.28127 0.917671 0
M  V30 2131 C 193.43 1.05761 1.64542 0
M  V30 2132 C 193.81 -0.404344 2.07191 0
M  V30 2133 O 193.158 -1.38963 1.81388 0
M  V30 2134 C 193.368 2.02857 2.83989 0
M  V30 2135 C 194.716 2.32786 3.551 0
M  V30 2136 O 195.74 2.0091 2.94132 0
M  V30 2137 O 194.599 2.87169 4.64969 0
M  V30 2138 H 191.693 0.403916 0.721652 0
M  V30 2139 H 194.239 1.39431 0.967322 0
M  V30 2140 H 193.011 3.01407 2.49538 0
M  V30 2141 H 192.634 1.69809 3.59514 0
M  V30 2142 N 193.631 -1.12557 1.10312 0
M  V30 2143 C 194.579 -2.20325 0.745629 0
M  V30 2144 C 195.573 -1.67429 -0.25763 0
M  V30 2145 O 196.779 -1.79612 -0.118132 0
M  V30 2146 H 193.154 -0.718118 0.223182 0
M  V30 2147 H 195.125 -2.47733 1.66346 0
M  V30 2148 C 193.874 -3.47168 0.192262 0
M  V30 2149 H 193.197 -3.88215 0.955475 0
M  V30 2150 H 194.637 -4.23995 -0.0198274 0
M  V30 2151 C 193.096 -3.19298 -1.07472 0
M  V30 2152 O 193.626 -3.3891 -2.15645 0
M  V30 2153 N 191.832 -2.73113 -0.992847 0
M  V30 2154 H 191.379 -2.57354 -0.112474 0
M  V30 2155 H 191.337 -2.54842 -1.84127 0
M  V30 2156 N 195.109 -0.891671 -1.2995 0
M  V30 2157 C 196.339 -0.527893 -1.99742 0
M  V30 2158 C 196.747 0.88979 -1.66971 0
M  V30 2159 O 196.09 1.59766 -0.906667 0
M  V30 2160 C 196.152 -0.630804 -3.53922 0
M  V30 2161 C 195.816 -2.01401 -4.10228 0
M  V30 2162 C 196.813 -2.98422 -4.25724 0
M  V30 2163 C 194.498 -2.32121 -4.45449 0
M  V30 2164 C 196.492 -4.24293 -4.75662 0
M  V30 2165 C 194.179 -3.58237 -4.95086 0
M  V30 2166 C 195.177 -4.54137 -5.10146 0
M  V30 2167 O 194.865 -5.78014 -5.58708 0
M  V30 2168 H 194.597 -0.201953 -0.645129 0
M  V30 2169 H 197.151 -1.20076 -1.66646 0
M  V30 2170 H 195.381 0.0990616 -3.86573 0
M  V30 2171 H 197.07 -0.277338 -4.04951 0
M  V30 2172 H 197.836 -2.76001 -3.98809 0
M  V30 2173 H 193.715 -1.5824 -4.32991 0
M  V30 2174 H 197.259 -4.99153 -4.87332 0
M  V30 2175 H 193.156 -3.80491 -5.21437 0
M  V30 2176 H 193.924 -5.8049 -5.77039 0
M  V30 2177 N 196.587 1.43421 -0.653314 0
M  V30 2178 C 197.537 2.2792 0.060558 0
M  V30 2179 C 198.521 1.39906 0.794677 0
M  V30 2180 O 199.713 1.63536 0.677128 0
M  V30 2181 C 196.842 3.27603 1.0262 0
M  V30 2182 C 195.928 4.23104 0.290551 0
M  V30 2183 N 196.319 5.01031 -0.692967 0
M  V30 2184 C 194.617 4.42816 0.531984 0
M  V30 2185 C 195.318 5.70626 -1.12963 0
M  V30 2186 N 194.294 5.41617 -0.463867 0
M  V30 2187 H 198.096 2.85585 -0.694143 0
M  V30 2188 H 195.61 1.55126 -0.480602 0
M  V30 2189 H 197.607 3.86918 1.55242 0
M  V30 2190 H 196.267 2.71499 1.78096 0
M  V30 2191 H 197.278 5.0669 -1.07169 0
M  V30 2192 H 193.955 3.97782 1.26791 0
M  V30 2193 H 195.345 6.4318 -1.94343 0
M  V30 2194 N 198.065 0.39524 1.52563 0
M  V30 2195 C 198.995 -0.428384 2.29537 0
M  V30 2196 C 199.976 -1.05831 1.33169 0
M  V30 2197 O 201.161 -1.06995 1.62067 0
M  V30 2198 C 198.291 -1.55274 3.10656 0
M  V30 2199 C 197.245 -1.04855 4.14957 0
M  V30 2200 C 196.571 -2.26543 4.84337 0
M  V30 2201 C 197.871 -0.112324 5.22179 0
M  V30 2202 H 199.565 0.213867 2.98635 0
M  V30 2203 H 197.111 0.104298 1.43622 0
M  V30 2204 H 199.064 -2.1358 3.63265 0
M  V30 2205 H 197.788 -2.22266 2.39302 0
M  V30 2206 H 196.447 -0.487985 3.63338 0
M  V30 2207 H 196.095 -2.92059 4.09525 0
M  V30 2208 H 195.795 -1.93466 5.54837 0
M  V30 2209 H 197.319 -2.85481 5.39753 0
M  V30 2210 H 198.733 -0.603752 5.70112 0
M  V30 2211 H 197.13 0.128968 5.99961 0
M  V30 2212 H 198.2 0.837052 4.77621 0
M  V30 2213 N 199.544 -1.57102 0.125237 0
M  V30 2214 C 200.96 -1.57915 -0.231322 0
M  V30 2215 C 201.16 -1.13833 -1.66266 0
M  V30 2216 O 200.216 -0.828581 -2.38518 0
M  V30 2217 C 201.529 -3.00699 0.00766489 0
M  V30 2218 C 203.077 -3.12947 -0.0577483 0
M  V30 2219 C 203.552 -4.57742 0.153626 0
M  V30 2220 N 205.043 -4.63092 0.0998073 0
M  V30 2221 C 205.778 -5.72905 0.238174 0
M  V30 2222 N 205.274 -6.91445 0.433057 0
M  V30 2223 N 207.067 -5.6182 0.177308 0
M  V30 2224 H 199.218 -1.84055 1.06007 0
M  V30 2225 H 201.481 -0.850905 0.417929 0
M  V30 2226 H 201.187 -3.3726 0.997431 0
M  V30 2227 H 201.061 -3.70236 -0.721452 0
M  V30 2228 H 203.448 -2.7624 -1.03804 0
M  V30 2229 H 203.529 -2.4594 0.70335 0
M  V30 2230 H 203.173 -4.95149 1.13092 0
M  V30 2231 H 203.103 -5.22848 -0.627534 0
M  V30 2232 H 205.594 -3.77871 -0.047051 0
M  V30 2233 H 205.907 -7.70985 0.529332 0
M  V30 2234 H 204.252 -6.93415 0.469109 0
M  V30 2235 H 207.443 -4.68093 0.0259748 0
M  V30 2236 H 207.616 -6.47357 0.288582 0
M  V30 2237 N 201.022 0.148545 -1.56898 0
M  V30 2238 C 201.955 1.21293 -1.93296 0
M  V30 2239 C 202.933 1.41637 -0.798599 0
M  V30 2240 O 204.117 1.56275 -1.05406 0
M  V30 2241 C 201.244 2.5721 -2.20365 0
M  V30 2242 C 200.29 2.53469 -3.4301 0
M  V30 2243 S 201.123 2.00315 -4.96623 0
M  V30 2244 C 202.279 3.37964 -5.26812 0
M  V30 2245 H 202.512 0.902393 -2.83274 0
M  V30 2246 H 200.045 0.354094 -1.50285 0
M  V30 2247 H 202.003 3.35427 -2.36641 0
M  V30 2248 H 200.664 2.85454 -1.31054 0
M  V30 2249 H 199.857 3.53518 -3.59223 0
M  V30 2250 H 199.459 1.83359 -3.25968 0
M  V30 2251 H 201.751 4.34066 -5.20185 0
M  V30 2252 H 202.694 3.26606 -6.28279 0
M  V30 2253 H 203.102 3.35028 -4.54331 0
M  V30 2254 N 202.5 1.5196 0.417844 0
M  V30 2255 C 203.747 1.65591 1.16559 0
M  V30 2256 C 204.075 0.381565 1.90721 0
M  V30 2257 O 203.33 -0.635156 1.85106 0
M  V30 2258 C 203.629 2.82269 2.19223 0
M  V30 2259 C 203.295 4.20819 1.61933 0
M  V30 2260 C 201.957 4.58506 1.46033 0
M  V30 2261 C 204.309 5.07196 1.20008 0
M  V30 2262 C 201.637 5.80257 0.867113 0
M  V30 2263 C 203.989 6.29544 0.621086 0
M  V30 2264 C 202.653 6.65987 0.449144 0
M  V30 2265 H 201.923 0.605939 0.42652 0
M  V30 2266 H 204.57 1.86041 0.45397 0
M  V30 2267 H 202.875 2.56118 2.96498 0
M  V30 2268 H 204.572 2.90012 2.76936 0
M  V30 2269 H 201.162 3.91116 1.7529 0
M  V30 2270 H 205.346 4.7867 1.31105 0
M  V30 2271 H 200.602 6.07124 0.721833 0
M  V30 2272 H 204.776 6.95805 0.287798 0
M  V30 2273 H 202.403 7.60199 -0.012632 0
M  V30 2274 N 203.978 -0.674533 1.42435 0
M  V30 2275 C 205.218 -1.4466 1.44405 0
M  V30 2276 C 205.582 -1.91911 0.0585784 0
M  V30 2277 O 206.783 -2.68759 -0.0469991 0
M  V30 2278 C 205.054 -2.61136 2.44013 0
M  V30 2279 S 206.613 -3.49981 2.64687 0
M  V30 2280 H 203.431 -0.494074 0.511284 0
M  V30 2281 H 206.033 -0.785162 1.7904 0
M  V30 2282 H 204.737 -2.24662 3.43446 0
M  V30 2283 H 204.268 -3.32153 2.10803 0
M  V30 2284 H 206.283 -4.57124 1.93007 0
M  V30 2285 N 205.456 -1.28612 -0.910864 0
M  V30 2286 C 206.705 -1.15311 -1.65488 0
M  V30 2287 C 207.018 0.296999 -1.93332 0
M  V30 2288 O 208.224 0.551168 -2.65847 0
M  V30 2289 C 206.68 -2.01599 -2.98137 0
M  V30 2290 C 206.288 -3.51367 -2.7793 0
M  V30 2291 C 208.032 -1.96993 -3.76024 0
M  V30 2292 C 205.939 -4.29797 -4.06237 0
M  V30 2293 H 204.869 -0.42796 -0.620779 0
M  V30 2294 H 207.52 -1.53166 -1.01057 0
M  V30 2295 H 205.902 -1.56603 -3.63719 0
M  V30 2296 H 207.076 -4.0434 -2.21011 0
M  V30 2297 H 205.391 -3.57529 -2.13452 0
M  V30 2298 H 207.988 -2.52856 -4.71135 0
M  V30 2299 H 208.331 -0.94733 -4.05378 0
M  V30 2300 H 208.864 -2.39973 -3.17266 0
M  V30 2301 H 205.603 -5.32648 -3.82055 0
M  V30 2302 H 205.123 -3.81596 -4.62757 0
M  V30 2303 H 206.802 -4.39869 -4.74473 0
M  V30 2304 N 206.934 1.1197 -1.10907 0
M  V30 2305 C 207.897 2.16031 -0.765707 0
M  V30 2306 C 208.897 1.59393 0.212235 0
M  V30 2307 O 210.087 1.74196 -0.0115441 0
M  V30 2308 C 207.219 3.40632 -0.135053 0
M  V30 2309 H 208.412 2.47919 -1.68748 0
M  V30 2310 H 205.965 1.27061 -0.910226 0
M  V30 2311 H 206.7 3.14348 0.797218 0
M  V30 2312 H 206.485 3.8302 -0.838937 0
M  V30 2313 H 207.975 4.17505 0.0892469 0
M  V30 2314 N 208.412 0.89855 1.29475 0
M  V30 2315 C 209.659 0.523882 1.95606 0
M  V30 2316 C 209.987 -0.929608 1.70847 0
M  V30 2317 O 209.242 -1.67401 1.01367 0
M  V30 2318 C 209.541 0.761398 3.49195 0
M  V30 2319 C 209.207 2.19207 3.94029 0
M  V30 2320 C 207.869 2.58326 4.05982 0
M  V30 2321 C 210.221 3.12379 4.17216 0
M  V30 2322 C 207.549 3.898 4.38489 0
M  V30 2323 C 209.901 4.43401 4.51197 0
M  V30 2324 C 208.565 4.82394 4.61359 0
M  V30 2325 H 207.835 0.191702 0.715773 0
M  V30 2326 H 210.482 1.13699 1.54094 0
M  V30 2327 H 208.787 0.0653622 3.91745 0
M  V30 2328 H 210.484 0.450904 3.98457 0
M  V30 2329 H 207.074 1.87846 3.85242 0
M  V30 2330 H 211.258 2.83371 4.07449 0
M  V30 2331 H 206.514 4.19734 4.44559 0
M  V30 2332 H 210.688 5.15623 4.68087 0
M  V30 2333 H 208.315 5.84306 4.86303 0
M  V30 2334 N 209.89 -1.43072 0.660911 0
M  V30 2335 C 211.118 -2.06067 0.185422 0
M  V30 2336 C 211.533 -1.49582 -1.15198 0
M  V30 2337 O 210.89 -0.630134 -1.71276 0
M  V30 2338 C 210.941 -3.61371 0.0966523 0
M  V30 2339 O 210.662 -4.15758 1.38119 0
M  V30 2340 C 212.163 -4.41455 -0.403996 0
M  V30 2341 H 209.383 -0.664459 0.0934604 0
M  V30 2342 H 211.927 -1.83447 0.90373 0
M  V30 2343 H 210.082 -3.8315 -0.572259 0
M  V30 2344 H 210.496 -5.09499 1.24542 0
M  V30 2345 H 211.97 -5.50437 -0.415045 0
M  V30 2346 H 212.447 -4.15036 -1.43674 0
M  V30 2347 H 213.053 -4.24663 0.232691 0
M  V30 2348 N 211.368 -0.403325 -1.52352 0
M  V30 2349 C 212.315 0.425011 -2.26853 0
M  V30 2350 C 213.285 1.04598 -1.29029 0
M  V30 2351 O 214.47 1.07135 -1.57882 0
M  V30 2352 C 211.61 1.53888 -3.08889 0
M  V30 2353 C 210.723 0.939396 -4.21663 0
M  V30 2354 C 209.858 2.02547 -4.91068 0
M  V30 2355 C 208.897 1.40263 -5.95813 0
M  V30 2356 N 208.034 2.4286 -6.58759 0
M  V30 2357 H 212.874 -0.21674 -2.97211 0
M  V30 2358 H 210.411 -0.118722 -1.4662 0
M  V30 2359 H 212.369 2.19558 -3.54753 0
M  V30 2360 H 210.999 2.15074 -2.40714 0
M  V30 2361 H 210.051 0.171898 -3.80011 0
M  V30 2362 H 211.363 0.44436 -4.96817 0
M  V30 2363 H 210.517 2.75958 -5.40308 0
M  V30 2364 H 209.256 2.55415 -4.15469 0
M  V30 2365 H 208.261 0.653833 -5.45898 0
M  V30 2366 H 209.486 0.881719 -6.73352 0
M  V30 2367 H 207.432 2.94871 -5.85992 0
M  V30 2368 H 207.349 1.98152 -7.2957 0
M  V30 2369 H 208.617 3.15858 -7.12639 0
M  V30 2370 N 212.846 1.57033 -0.133567 0
M  V30 2371 C 213.793 2.16074 0.811208 0
M  V30 2372 C 214.763 1.08979 1.2535 0
M  V30 2373 O 215.948 1.36958 1.32843 0
M  V30 2374 C 213.088 2.77595 2.05024 0
M  V30 2375 C 212.201 3.99042 1.65498 0
M  V30 2376 C 211.336 4.48603 2.84479 0
M  V30 2377 C 210.375 5.62547 2.41262 0
M  V30 2378 N 209.512 6.06787 3.53206 0
M  V30 2379 H 214.352 2.96477 0.300906 0
M  V30 2380 H 211.889 1.46462 0.136822 0
M  V30 2381 H 213.847 3.11402 2.77642 0
M  V30 2382 H 212.477 1.99859 2.53488 0
M  V30 2383 H 211.529 3.71302 0.826981 0
M  V30 2384 H 212.841 4.81629 1.29748 0
M  V30 2385 H 211.995 4.84395 3.65303 0
M  V30 2386 H 210.734 3.64995 3.23465 0
M  V30 2387 H 209.739 5.26345 1.58874 0
M  V30 2388 H 210.964 6.47931 2.03377 0
M  V30 2389 H 208.91 5.26117 3.91838 0
M  V30 2390 H 208.827 6.84266 3.21427 0
M  V30 2391 H 210.095 6.4722 4.34427 0
M  V30 2392 N 214.325 -0.140222 1.56975 0
M  V30 2393 C 215.741 -0.493088 1.51792 0
M  V30 2394 C 215.941 -1.83013 0.843116 0
M  V30 2395 O 214.997 -2.49041 0.416493 0
M  V30 2396 C 216.31 -0.497144 2.96562 0
M  V30 2397 C 217.858 -0.582186 3.07538 0
M  V30 2398 C 218.333 -0.616838 4.53827 0
M  V30 2399 N 219.824 -0.678873 4.58198 0
M  V30 2400 C 220.559 -0.726782 5.68775 0
M  V30 2401 N 220.055 -0.733623 6.88905 0
M  V30 2402 N 221.848 -0.768179 5.56826 0
M  V30 2403 H 213.999 0.736108 1.99237 0
M  V30 2404 H 216.262 0.269182 0.90898 0
M  V30 2405 H 215.968 0.417217 3.49217 0
M  V30 2406 H 215.842 -1.33263 3.52875 0
M  V30 2407 H 218.229 -1.48697 2.54899 0
M  V30 2408 H 218.31 0.280581 2.54257 0
M  V30 2409 H 217.954 0.283812 5.07106 0
M  V30 2410 H 217.884 -1.49619 5.04898 0
M  V30 2411 H 220.375 -0.68061 3.7172 0
M  V30 2412 H 220.688 -0.772215 7.68932 0
M  V30 2413 H 219.033 -0.701389 6.91452 0
M  V30 2414 H 222.224 -0.760051 4.61888 0
M  V30 2415 H 222.397 -0.80205 6.43017 0
M  V30 2416 N 215.803 -1.52179 -0.40978 0
M  V30 2417 C 216.735 -1.71703 -1.51825 0
M  V30 2418 C 217.748 -0.597445 -1.51441 0
M  V30 2419 O 218.937 -0.872582 -1.55719 0
M  V30 2420 C 216.037 -1.74171 -2.90719 0
M  V30 2421 C 215.21 -3.03156 -3.15302 0
M  V30 2422 C 214.269 -2.97445 -4.34065 0
M  V30 2423 O 213.295 -3.71352 -4.31377 0
M  V30 2424 N 214.497 -2.15191 -5.39141 0
M  V30 2425 H 217.262 -2.67334 -1.35472 0
M  V30 2426 H 214.823 -1.50409 -0.599069 0
M  V30 2427 H 216.815 -1.67884 -3.68235 0
M  V30 2428 H 215.385 -0.860166 -3.00533 0
M  V30 2429 H 214.605 -3.23097 -2.25836 0
M  V30 2430 H 215.893 -3.88484 -3.28569 0
M  V30 2431 H 215.291 -1.54573 -5.44173 0
M  V30 2432 H 213.848 -2.1476 -6.15403 0
M  V30 2433 N 217.281 0.66697 -1.42791 0
M  V30 2434 C 218.229 1.80157 -1.47127 0
M  V30 2435 C 219.223 1.65825 -0.346199 0
M  V30 2436 O 220.429 1.72338 -0.519572 0
M  V30 2437 H 216.804 0.594158 -0.460956 0
M  V30 2438 H 218.775 1.73619 -2.42692 0
M  V30 2439 C 217.524 3.18351 -1.39813 0
M  V30 2440 H 216.847 3.3001 -2.25684 0
M  V30 2441 H 218.287 3.97736 -1.46908 0
M  V30 2442 C 216.746 3.36707 -0.11391 0
M  V30 2443 O 217.276 3.93027 0.830241 0
M  V30 2444 N 215.482 2.90586 -0.0285295 0
M  V30 2445 H 215.029 2.4494 -0.79764 0
M  V30 2446 H 214.987 3.03245 0.830063 0
M  V30 2447 N 218.759 1.29093 0.90403 0
M  V30 2448 C 219.691 1.09658 2.01266 0
M  V30 2449 C 220.704 0.0453729 1.62737 0
M  V30 2450 O 221.893 0.289446 1.76138 0
M  V30 2451 C 218.993 0.646278 3.32681 0
M  V30 2452 C 218.166 1.77505 3.99763 0
M  V30 2453 C 217.225 1.31649 5.09465 0
M  V30 2454 O 216.251 2.02045 5.32134 0
M  V30 2455 N 217.453 0.184997 5.80205 0
M  V30 2456 H 220.218 2.05135 2.18494 0
M  V30 2457 H 217.779 1.20975 1.07594 0
M  V30 2458 H 219.771 0.322906 4.0341 0
M  V30 2459 H 218.341 -0.215916 3.11853 0
M  V30 2460 H 217.561 2.26752 3.22455 0
M  V30 2461 H 218.849 2.53198 4.41325 0
M  V30 2462 H 218.247 -0.402021 5.6427 0
M  V30 2463 H 216.804 -0.0790358 6.51752 0
M  V30 2464 N 220.237 -1.11381 1.11499 0
M  V30 2465 C 221.465 -1.86934 0.88675 0
M  V30 2466 C 221.88 -1.80195 -0.563476 0
M  V30 2467 O 221.237 -1.18367 -1.38908 0
M  V30 2468 C 221.288 -3.35722 1.34064 0
M  V30 2469 O 221.009 -3.4232 2.73401 0
M  V30 2470 C 222.51 -4.2818 1.14791 0
M  V30 2471 H 219.73 -0.591117 0.317523 0
M  V30 2472 H 222.274 -1.40865 1.48248 0
M  V30 2473 H 220.429 -3.79294 0.788355 0
M  V30 2474 H 220.843 -4.34971 2.93087 0
M  V30 2475 H 222.317 -5.30817 1.5145 0
M  V30 2476 H 222.794 -4.39113 0.0875279 0
M  V30 2477 H 223.4 -3.90402 1.68721 0
M  V30 2478 N 221.715 -0.905404 -1.28997 0
M  V30 2479 C 222.662 -0.385892 -2.27551 0
M  V30 2480 C 223.632 0.535113 -1.57244 0
M  V30 2481 O 224.817 0.459119 -1.85194 0
M  V30 2482 C 221.957 0.375461 -3.43051 0
M  V30 2483 C 221.07 -0.577092 -4.28128 0
M  V30 2484 C 220.205 0.201879 -5.30816 0
M  V30 2485 C 219.244 -0.744829 -6.07551 0
M  V30 2486 N 218.381 9.42587e-05 -7.021 0
M  V30 2487 H 223.221 -1.23139 -2.71368 0
M  V30 2488 H 220.758 -0.618542 -1.33463 0
M  V30 2489 H 222.716 0.832992 -4.088 0
M  V30 2490 H 221.346 1.18537 -3.00248 0
M  V30 2491 H 220.398 -1.15315 -3.62501 0
M  V30 2492 H 221.71 -1.30152 -4.8152 0
M  V30 2493 H 220.864 0.720351 -6.02408 0
M  V30 2494 H 219.603 0.959413 -4.7817 0
M  V30 2495 H 218.608 -1.27475 -5.34818 0
M  V30 2496 H 219.833 -1.50178 -6.62286 0
M  V30 2497 H 217.779 0.739791 -6.51815 0
M  V30 2498 H 217.696 -0.664321 -7.53076 0
M  V30 2499 H 218.964 0.498644 -7.77903 0
M  V30 2500 N 223.193 1.4272 -0.668489 0
M  V30 2501 C 224.418 2.06484 -0.194758 0
M  V30 2502 C 224.843 1.49862 1.13679 0
M  V30 2503 O 224.201 0.614582 1.70565 0
M  V30 2504 C 224.249 3.60353 -0.133546 0
M  V30 2505 O 223.353 4.02464 0.899806 0
M  V30 2506 H 222.694 0.656137 -0.10188 0
M  V30 2507 H 225.224 1.82964 -0.915722 0
M  V30 2508 H 225.234 4.07976 0.0447041 0
M  V30 2509 H 223.909 4.00938 -1.1055 0
M  V30 2510 H 222.486 3.66402 0.693109 0
M  V30 2511 N 224.671 0.411399 1.52136 0
M  V30 2512 C 225.899 -0.163076 2.06256 0
M  V30 2513 C 226.314 -1.3867 1.28125 0
M  V30 2514 O 225.671 -1.79423 0.333721 0
M  V30 2515 C 225.722 -0.511252 3.57867 0
M  V30 2516 O 225.443 0.66378 4.33042 0
M  V30 2517 C 226.944 -1.13921 4.28412 0
M  V30 2518 H 224.164 -0.0193897 0.67072 0
M  V30 2519 H 226.708 0.583007 1.96013 0
M  V30 2520 H 224.863 -1.20723 3.6811 0
M  V30 2521 H 225.277 0.372601 5.23175 0
M  V30 2522 H 226.751 -1.33302 5.35663 0
M  V30 2523 H 227.228 -2.11296 3.85033 0
M  V30 2524 H 227.834 -0.483373 4.22544 0
M  V30 2525 N 226.149 -1.5696 0.141893 0
M  V30 2526 C 227.389 -1.9785 -0.513304 0
M  V30 2527 C 227.753 -1.02467 -1.62371 0
M  V30 2528 O 228.954 -1.32382 -2.33941 0
M  V30 2529 C 227.225 -3.42797 -1.01118 0
M  V30 2530 S 228.784 -4.05709 -1.67169 0
M  V30 2531 H 225.602 -0.691318 -0.166135 0
M  V30 2532 H 228.204 -1.94114 0.232398 0
M  V30 2533 H 226.908 -4.0995 -0.192179 0
M  V30 2534 H 226.439 -3.50235 -1.79162 0
M  V30 2535 H 228.454 -3.98342 -2.95868 0
M  V30 2536 N 227.627 0.131896 -1.57047 0
M  V30 2537 C 228.857 0.855219 -1.88068 0
M  V30 2538 C 229.265 1.74557 -0.729817 0
M  V30 2539 O 228.608 1.81083 0.308962 0
M  V30 2540 C 228.67 1.75119 -3.13964 0
M  V30 2541 C 228.334 1.03646 -4.45091 0
M  V30 2542 C 229.331 0.383276 -5.18485 0
M  V30 2543 C 227.016 1.02148 -4.91804 0
M  V30 2544 C 229.01 -0.275347 -6.36805 0
M  V30 2545 C 226.697 0.359047 -6.10044 0
M  V30 2546 C 227.695 -0.288222 -6.82392 0
M  V30 2547 O 227.383 -0.94011 -7.98384 0
M  V30 2548 H 227.115 0.251864 -0.627328 0
M  V30 2549 H 229.669 0.124782 -2.05021 0
M  V30 2550 H 227.899 2.52295 -2.9306 0
M  V30 2551 H 229.588 2.3478 -3.31109 0
M  V30 2552 H 230.354 0.386562 -4.83457 0
M  V30 2553 H 226.233 1.5147 -4.35405 0
M  V30 2554 H 229.777 -0.781148 -6.93213 0
M  V30 2555 H 225.674 0.35348 -6.44531 0
M  V30 2556 H 226.442 -0.84329 -8.14144 0
M  V30 2557 N 229.106 1.52395 0.401703 0
M  V30 2558 C 230.069 1.75636 1.47257 0
M  V30 2559 C 231.069 0.62628 1.48103 0
M  V30 2560 O 232.259 0.894227 1.49497 0
M  V30 2561 C 229.391 1.84553 2.86624 0
M  V30 2562 H 230.584 2.71241 1.27938 0
M  V30 2563 H 228.137 1.42923 0.632662 0
M  V30 2564 H 228.872 0.908882 3.11303 0
M  V30 2565 H 228.657 2.66715 2.87412 0
M  V30 2566 H 230.147 2.04251 3.64241 0
M  V30 2567 N 230.584 -0.659388 1.43143 0
M  V30 2568 C 231.516 -1.7849 1.43784 0
M  V30 2569 C 232.529 -1.5932 0.334787 0
M  V30 2570 O 233.718 -1.68155 0.598842 0
M  V30 2571 C 230.818 -3.15828 1.22906 0
M  V30 2572 C 229.991 -3.61711 2.45934 0
M  V30 2573 C 229.05 -4.77831 2.20371 0
M  V30 2574 O 228.076 -4.87586 2.93681 0
M  V30 2575 N 229.278 -5.67611 1.21647 0
M  V30 2576 H 232.043 -1.7842 2.40803 0
M  V30 2577 H 229.604 -0.84302 1.3822 0
M  V30 2578 H 231.596 -3.91189 1.03697 0
M  V30 2579 H 230.166 -3.10707 0.343542 0
M  V30 2580 H 229.386 -2.76861 2.80609 0
M  V30 2581 H 230.674 -3.89112 3.27825 0
M  V30 2582 H 230.072 -5.62397 0.610449 0
M  V30 2583 H 228.629 -6.42719 1.08423 0
M  V30 2584 N 232.062 -1.29571 -0.897171 0
M  V30 2585 C 233.29 -1.20583 -1.68129 0
M  V30 2586 C 233.705 0.233181 -1.87354 0
M  V30 2587 O 233.062 1.15579 -1.41236 0
M  V30 2588 C 233.113 -1.91772 -3.06441 0
M  V30 2589 O 232.834 -3.30053 -2.88091 0
M  V30 2590 C 234.335 -1.89291 -4.00854 0
M  V30 2591 H 231.555 -0.417826 -0.525036 0
M  V30 2592 H 234.099 -1.70987 -1.12177 0
M  V30 2593 H 232.254 -1.45196 -3.59161 0
M  V30 2594 H 232.668 -3.65942 -3.75748 0
M  V30 2595 H 234.142 -2.43662 -4.95311 0
M  V30 2596 H 234.619 -0.869014 -4.30517 0
M  V30 2597 H 235.225 -2.35622 -3.54066 0
M  V30 2598 N 233.54 1.10788 -1.12088 0
M  V30 2599 C 234.765 1.87002 -0.896949 0
M  V30 2600 C 235.19 1.79933 0.548261 0
M  V30 2601 O 234.548 1.16662 1.38779 0
M  V30 2602 C 234.596 3.3349 -1.37174 0
M  V30 2603 O 233.7 4.08745 -0.547831 0
M  V30 2604 H 233.041 0.580397 -0.322545 0
M  V30 2605 H 235.571 1.39996 -1.49206 0
M  V30 2606 H 235.581 3.84339 -1.36922 0
M  V30 2607 H 234.256 3.37951 -2.42408 0
M  V30 2608 H 232.833 3.6776 -0.617034 0
M  V30 2609 N 235.018 0.912232 1.28515 0
M  V30 2610 C 235.95 0.35676 2.26406 0
M  V30 2611 C 236.963 -0.503933 1.54804 0
M  V30 2612 O 238.152 -0.319059 1.75625 0
M  V30 2613 C 235.252 -0.508825 3.35058 0
M  V30 2614 C 234.425 0.329007 4.36161 0
M  V30 2615 C 233.484 -0.471422 5.24084 0
M  V30 2616 O 232.51 0.115482 5.69083 0
M  V30 2617 N 233.712 -1.77479 5.52704 0
M  V30 2618 H 236.477 1.19818 2.74707 0
M  V30 2619 H 234.038 0.778022 1.4198 0
M  V30 2620 H 236.03 -1.051 3.90815 0
M  V30 2621 H 234.6 -1.25095 2.86478 0
M  V30 2622 H 233.82 1.05256 3.79888 0
M  V30 2623 H 235.108 0.90234 5.00735 0
M  V30 2624 H 234.506 -2.27417 5.17975 0
M  V30 2625 H 233.063 -2.26382 6.11224 0
M  V30 2626 N 236.496 -1.42363 0.676048 0
M  V30 2627 C 237.745 -2.00745 0.196037 0
M  V30 2628 C 238.058 -1.54083 -1.20489 0
M  V30 2629 O 239.264 -2.04891 -1.78134 0
M  V30 2630 C 237.72 -3.58651 0.299616 0
M  V30 2631 C 237.328 -4.143 1.70468 0
M  V30 2632 C 239.072 -4.24326 -0.121619 0
M  V30 2633 C 236.979 -5.64574 1.76096 0
M  V30 2634 H 235.909 -0.750787 0.0695301 0
M  V30 2635 H 238.56 -1.63072 0.841412 0
M  V30 2636 H 236.942 -3.93833 -0.413673 0
M  V30 2637 H 238.116 -3.90575 2.44515 0
M  V30 2638 H 236.431 -3.61081 2.07387 0
M  V30 2639 H 239.028 -5.34607 -0.0997362 0
M  V30 2640 H 239.371 -3.99897 -1.15708 0
M  V30 2641 H 239.904 -3.94108 0.540706 0
M  V30 2642 H 236.643 -5.93804 2.77628 0
M  V30 2643 H 236.163 -5.90286 1.06406 0
M  V30 2644 H 237.842 -6.29013 1.51496 0
M  V30 2645 N 237.974 -0.419461 -1.51915 0
M  V30 2646 C 238.921 0.400927 -2.27291 0
M  V30 2647 C 239.891 1.03224 -1.30131 0
M  V30 2648 O 241.076 1.05455 -1.59009 0
M  V30 2649 C 238.216 1.50603 -3.10504 0
M  V30 2650 C 237.329 0.89462 -4.22635 0
M  V30 2651 C 236.464 1.97328 -4.93189 0
M  V30 2652 C 235.503 1.33935 -5.97267 0
M  V30 2653 N 234.64 2.3586 -6.61298 0
M  V30 2654 H 239.48 -0.248251 -2.96964 0
M  V30 2655 H 237.017 -0.134266 -1.46486 0
M  V30 2656 H 238.975 2.15783 -3.57062 0
M  V30 2657 H 237.605 2.12509 -2.42981 0
M  V30 2658 H 236.657 0.131583 -3.80172 0
M  V30 2659 H 237.969 0.391641 -4.9726 0
M  V30 2660 H 237.123 2.70211 -5.43204 0
M  V30 2661 H 235.862 2.50994 -4.18155 0
M  V30 2662 H 234.867 0.595896 -5.46561 0
M  V30 2663 H 236.092 0.810252 -6.74249 0
M  V30 2664 H 234.038 2.88639 -5.89087 0
M  V30 2665 H 233.955 1.90403 -7.3163 0
M  V30 2666 H 235.223 3.08282 -7.15949 0
M  V30 2667 N 239.452 1.56882 -0.150215 0
M  V30 2668 C 240.399 2.16922 0.788244 0
M  V30 2669 C 241.369 1.10303 1.24187 0
M  V30 2670 O 242.554 1.38359 1.31383 0
M  V30 2671 C 239.694 2.79754 2.02068 0
M  V30 2672 C 238.807 4.00775 1.61257 0
M  V30 2673 C 237.942 4.51595 2.79705 0
M  V30 2674 C 236.981 5.65074 2.35282 0
M  V30 2675 N 236.118 6.10499 3.4675 0
M  V30 2676 H 240.958 2.96779 0.269444 0
M  V30 2677 H 238.495 1.46599 0.12128 0
M  V30 2678 H 240.453 3.14329 2.74323 0
M  V30 2679 H 239.083 2.02536 2.51354 0
M  V30 2680 H 238.135 3.72158 0.787553 0
M  V30 2681 H 239.447 4.82978 1.24633 0
M  V30 2682 H 238.601 4.88242 3.60145 0
M  V30 2683 H 237.34 3.68406 3.19576 0
M  V30 2684 H 236.345 5.28 1.53283 0
M  V30 2685 H 237.57 6.50052 1.96493 0
M  V30 2686 H 235.516 5.30243 3.86236 0
M  V30 2687 H 235.433 6.87637 3.14152 0
M  V30 2688 H 236.701 6.51791 4.27537 0
M  V30 2689 N 240.93 -0.123565 1.57115 0
M  V30 2690 C 242.179 -0.830704 1.83799 0
M  V30 2691 C 242.492 -1.81259 0.735158 0
M  V30 2692 O 243.698 -2.56558 0.888278 0
M  V30 2693 C 242.154 -1.52802 3.25852 0
M  V30 2694 C 241.762 -0.587356 4.44133 0
M  V30 2695 C 243.506 -2.22056 3.61789 0
M  V30 2696 C 241.413 -1.28764 5.77212 0
M  V30 2697 H 240.343 -0.313967 0.685522 0
M  V30 2698 H 242.994 -0.0834359 1.8331 0
M  V30 2699 H 241.376 -2.32175 3.20797 0
M  V30 2700 H 242.55 0.172829 4.60476 0
M  V30 2701 H 240.865 -0.00201892 4.164 0
M  V30 2702 H 243.462 -2.75131 4.58483 0
M  V30 2703 H 243.805 -2.99644 2.88997 0
M  V30 2704 H 244.338 -1.49576 3.68608 0
M  V30 2705 H 241.077 -0.55314 6.53162 0
M  V30 2706 H 240.597 -2.01995 5.64764 0
M  V30 2707 H 242.276 -1.8221 6.20813 0
M  V30 2708 N 242.408 -1.52605 -0.393616 0
M  V30 2709 C 243.824 -1.41753 -0.733357 0
M  V30 2710 C 244.024 -0.534293 -1.94287 0
M  V30 2711 O 243.08 -0.0059787 -2.52499 0
M  V30 2712 C 244.393 -2.84531 -0.972772 0
M  V30 2713 C 245.941 -2.93978 -1.07453 0
M  V30 2714 C 246.416 -4.37756 -1.3466 0
M  V30 2715 N 247.907 -4.4106 -1.41492 0
M  V30 2716 C 248.642 -5.49387 -1.642 0
M  V30 2717 N 248.138 -6.67806 -1.8441 0
M  V30 2718 N 249.931 -5.36923 -1.66342 0
M  V30 2719 H 242.082 -2.08555 0.402328 0
M  V30 2720 H 244.345 -0.940654 0.117789 0
M  V30 2721 H 244.051 -3.51353 -0.156204 0
M  V30 2722 H 243.925 -3.26508 -1.88871 0
M  V30 2723 H 246.312 -2.27326 -1.88167 0
M  V30 2724 H 246.393 -2.55435 -0.136605 0
M  V30 2725 H 246.037 -5.04972 -0.544581 0
M  V30 2726 H 245.967 -4.73848 -2.2973 0
M  V30 2727 H 248.458 -3.55705 -1.27601 0
M  V30 2728 H 248.771 -7.46141 -2.01231 0
M  V30 2729 H 247.116 -6.70843 -1.81644 0
M  V30 2730 H 250.307 -4.43381 -1.50102 0
M  V30 2731 H 250.48 -6.21416 -1.837 0
M  V30 2732 N 243.887 0.651787 -1.4349 0
M  V30 2733 C 244.834 1.76462 -1.4876 0
M  V30 2734 C 245.804 1.62641 -0.337189 0
M  V30 2735 O 246.989 1.82864 -0.544544 0
M  V30 2736 C 244.129 3.14623 -1.41796 0
M  V30 2737 C 243.242 3.39568 -2.67053 0
M  V30 2738 C 242.377 4.67585 -2.52068 0
M  V30 2739 C 241.416 4.85639 -3.72587 0
M  V30 2740 N 240.553 6.04915 -3.56402 0
M  V30 2741 H 245.393 1.71293 -2.43849 0
M  V30 2742 H 242.93 0.835889 -1.21043 0
M  V30 2743 H 244.888 3.94496 -1.35753 0
M  V30 2744 H 243.518 3.18859 -0.50288 0
M  V30 2745 H 242.57 2.53783 -2.8337 0
M  V30 2746 H 243.882 3.48795 -3.56572 0
M  V30 2747 H 243.036 5.55586 -2.4374 0
M  V30 2748 H 241.775 4.60681 -1.60075 0
M  V30 2749 H 240.78 3.96073 -3.81321 0
M  V30 2750 H 242.005 4.94372 -4.65589 0
M  V30 2751 H 239.951 5.9914 -2.67146 0
M  V30 2752 H 239.868 6.15106 -4.39524 0
M  V30 2753 H 241.136 6.95533 -3.51929 0
M  V30 2754 N 245.365 1.30045 0.890287 0
M  V30 2755 C 246.312 1.15976 1.99545 0
M  V30 2756 C 247.282 0.0506202 1.66023 0
M  V30 2757 O 248.467 0.219847 1.89529 0
M  V30 2758 C 245.607 0.852054 3.34416 0
M  V30 2759 C 244.72 2.04255 3.80662 0
M  V30 2760 C 243.855 1.6734 5.04154 0
M  V30 2761 C 242.894 2.82916 5.42794 0
M  V30 2762 N 242.031 2.46333 6.57468 0
M  V30 2763 H 246.871 2.10524 2.10911 0
M  V30 2764 H 244.408 1.04749 1.03276 0
M  V30 2765 H 246.366 0.654296 4.12037 0
M  V30 2766 H 244.996 -0.0565502 3.2275 0
M  V30 2767 H 244.048 2.35172 2.98995 0
M  V30 2768 H 245.36 2.90826 4.05242 0
M  V30 2769 H 244.514 1.43908 5.89386 0
M  V30 2770 H 243.253 0.779308 4.81433 0
M  V30 2771 H 242.258 3.0702 4.56091 0
M  V30 2772 H 243.483 3.73004 5.6749 0
M  V30 2773 H 241.429 1.59423 6.36334 0
M  V30 2774 H 241.346 3.26436 6.81891 0
M  V30 2775 H 242.614 2.26244 7.45945 0
M  V30 2776 N 246.843 -1.10192 1.12674 0
M  V30 2777 C 247.776 -2.15847 0.740625 0
M  V30 2778 C 248.754 -1.60352 -0.269421 0
M  V30 2779 O 249.938 -1.87796 -0.16278 0
M  V30 2780 C 247.065 -3.38562 0.096641 0
M  V30 2781 C 246.111 -4.12758 1.07391 0
M  V30 2782 S 246.944 -4.67997 2.60267 0
M  V30 2783 C 248.1 -5.94021 1.97206 0
M  V30 2784 H 248.333 -2.48266 1.63558 0
M  V30 2785 H 245.866 -1.22019 0.946087 0
M  V30 2786 H 247.824 -4.09621 -0.268535 0
M  V30 2787 H 246.485 -3.04377 -0.775462 0
M  V30 2788 H 245.678 -5.00755 0.570997 0
M  V30 2789 H 245.28 -3.47523 1.38216 0
M  V30 2790 H 247.572 -6.64589 1.31634 0
M  V30 2791 H 248.515 -6.48979 2.83253 0
M  V30 2792 H 248.923 -5.46169 1.42686 0
M  V30 2793 N 248.321 -0.919034 -1.28029 0
M  V30 2794 C 249.567 -0.555757 -1.95036 0
M  V30 2795 C 249.9 0.899198 -1.72128 0
M  V30 2796 O 249.175 1.64023 -1.04531 0
M  V30 2797 C 249.458 -0.872024 -3.49382 0
M  V30 2798 C 249.311 -2.3801 -3.81669 0
M  V30 2799 C 250.63 -0.37185 -4.38526 0
M  V30 2800 H 247.749 -0.203386 -0.708381 0
M  V30 2801 H 250.391 -1.14924 -1.51303 0
M  V30 2802 H 248.541 -0.366946 -3.86763 0
M  V30 2803 H 250.213 -2.9562 -3.54128 0
M  V30 2804 H 248.456 -2.83289 -3.28526 0
M  V30 2805 H 249.127 -2.55192 -4.8947 0
M  V30 2806 H 251.603 -0.804602 -4.08247 0
M  V30 2807 H 250.479 -0.622173 -5.45362 0
M  V30 2808 H 250.74 0.727934 -4.36066 0
M  V30 2809 N 249.799 1.42003 -0.683588 0
M  V30 2810 C 251.076 1.95112 -0.138075 0
M  V30 2811 C 251.456 1.62359 1.34918 0
M  V30 2812 O 250.804 0.924311 2.08971 0
M  V30 2813 C 251.014 3.46505 -0.416581 0
M  V30 2814 C 252.362 4.23254 -0.337834 0
M  V30 2815 O 253.386 3.54468 -0.35082 0
M  V30 2816 O 252.245 5.45743 -0.287596 0
M  V30 2817 H 249.339 0.826961 -0.00797996 0
M  V30 2818 H 251.885 1.51784 -0.758924 0
M  V30 2819 H 250.657 3.63582 -1.4465 0
M  V30 2820 H 250.28 3.969 0.235839 0
M  V30 2821 N 251.277 0.427512 1.51691 0
M  V30 2822 C 252.526 -0.143679 2.01188 0
M  V30 2823 C 252.839 -1.44642 1.31674 0
M  V30 2824 O 254.045 -2.09997 1.72086 0
M  V30 2825 C 252.501 -0.306602 3.58592 0
M  V30 2826 C 252.109 0.985125 4.37035 0
M  V30 2827 C 253.853 -0.832091 4.16265 0
M  V30 2828 C 251.76 0.788382 5.86122 0
M  V30 2829 H 250.69 -0.0574701 0.751807 0
M  V30 2830 H 253.341 0.555772 1.74881 0
M  V30 2831 H 251.723 -1.06882 3.81303 0
M  V30 2832 H 252.897 1.75492 4.26074 0
M  V30 2833 H 251.212 1.4384 3.90767 0
M  V30 2834 H 253.809 -0.995617 5.25349 0
M  V30 2835 H 254.152 -1.81186 3.74803 0
M  V30 2836 H 254.685 -0.128444 3.97593 0
M  V30 2837 H 251.424 1.74025 6.31978 0
M  V30 2838 H 250.944 0.0582143 5.99772 0
M  V30 2839 H 252.623 0.437722 6.45518 0
M  V30 2840 N 252.755 -1.56801 0.158532 0
M  V30 2841 C 253.688 -2.13148 -0.815065 0
M  V30 2842 C 254.666 -1.0581 -1.23462 0
M  V30 2843 O 255.85 -1.3371 -1.32868 0
M  V30 2844 C 252.977 -2.6606 -2.09594 0
M  V30 2845 C 252.023 -3.85651 -1.82141 0
M  V30 2846 S 252.856 -5.26041 -1.00207 0
M  V30 2847 C 254.012 -5.8235 -2.29389 0
M  V30 2848 H 254.245 -2.95396 -0.335937 0
M  V30 2849 H 251.778 -1.54299 -0.0559391 0
M  V30 2850 H 253.736 -2.97195 -2.8317 0
M  V30 2851 H 252.397 -1.83921 -2.54621 0
M  V30 2852 H 251.59 -4.20958 -2.77147 0
M  V30 2853 H 251.192 -3.55338 -1.16667 0
M  V30 2854 H 253.484 -5.94485 -3.24952 0
M  V30 2855 H 254.427 -6.79688 -1.9857 0
M  V30 2856 H 254.835 -5.10675 -2.40564 0
M  V30 2857 N 254.233 0.115231 -1.57178 0
M  V30 2858 C 255.461 0.836437 -1.89239 0
M  V30 2859 C 255.876 1.73256 -0.750175 0
M  V30 2860 O 255.233 1.80357 0.278832 0
M  V30 2861 C 255.284 1.66671 -3.20785 0
M  V30 2862 O 255.005 0.806652 -4.3061 0
M  V30 2863 C 256.506 2.49274 -3.66575 0
M  V30 2864 H 253.726 0.240253 -0.626514 0
M  V30 2865 H 256.27 0.0984932 -2.04263 0
M  V30 2866 H 254.425 2.35737 -3.0742 0
M  V30 2867 H 254.839 1.37969 -5.06028 0
M  V30 2868 H 256.313 3.03055 -4.6137 0
M  V30 2869 H 256.79 3.26807 -2.93417 0
M  V30 2870 H 257.396 1.85443 -3.82741 0
M  V30 2871 N 255.711 1.52812 0.385517 0
M  V30 2872 C 256.674 1.77188 1.45386 0
M  V30 2873 C 257.674 0.641953 1.4743 0
M  V30 2874 O 258.864 0.910033 1.4854 0
M  V30 2875 C 255.996 1.87582 2.8465 0
M  V30 2876 H 257.189 2.72583 1.25054 0
M  V30 2877 H 254.742 1.43586 0.617467 0
M  V30 2878 H 255.477 0.941849 3.10322 0
M  V30 2879 H 255.262 2.69748 2.84567 0
M  V30 2880 H 256.752 2.08102 3.62054 0
M  V30 2881 N 257.189 -0.644168 1.43834 0
M  V30 2882 C 258.099 -1.78563 1.52159 0
M  V30 2883 C 259.115 -1.69147 0.408069 0
M  V30 2884 O 260.291 -1.90156 0.663524 0
M  V30 2885 C 257.356 -3.14888 1.45073 0
M  V30 2886 C 256.417 -3.36034 2.6717 0
M  V30 2887 C 255.65 -4.65855 2.60413 0
M  V30 2888 O 255.873 -5.45805 1.65689 0
M  V30 2889 O 254.807 -4.88918 3.5106 0
M  V30 2890 H 258.633 -1.74494 2.48567 0
M  V30 2891 H 256.218 -0.80378 1.25935 0
M  V30 2892 H 258.1 -3.96179 1.43597 0
M  V30 2893 H 256.775 -3.19528 0.518037 0
M  V30 2894 H 255.682 -2.54472 2.74217 0
M  V30 2895 H 257.015 -3.36247 3.59442 0
M  V30 2896 N 258.668 -1.30515 -0.883378 0
M  V30 2897 C 259.631 -1.1701 -1.97082 0
M  V30 2898 C 260.631 -0.10089 -1.60483 0
M  V30 2899 O 261.821 -0.349127 -1.70666 0
M  V30 2900 C 258.953 -0.793045 -3.31547 0
M  V30 2901 H 260.146 -2.13622 -2.10489 0
M  V30 2902 H 257.699 -1.13935 -1.06998 0
M  V30 2903 H 258.434 0.172499 -3.23841 0
M  V30 2904 H 258.219 -1.56576 -3.5948 0
M  V30 2905 H 259.709 -0.722073 -4.1131 0
M  V30 2906 N 260.146 1.09593 -1.13257 0
M  V30 2907 C 261.371 1.8604 -0.916732 0
M  V30 2908 C 261.796 1.80504 0.529146 0
M  V30 2909 O 261.154 1.18127 1.37534 0
M  V30 2910 C 261.202 3.32017 -1.40703 0
M  V30 2911 O 260.306 4.08141 -0.591153 0
M  V30 2912 H 259.647 0.576943 -0.328683 0
M  V30 2913 H 262.177 1.38405 -1.50682 0
M  V30 2914 H 262.187 3.82865 -1.4099 0
M  V30 2915 H 260.862 3.35361 -2.45979 0
M  V30 2916 H 259.439 3.67084 -0.656005 0
M  V30 2917 N 261.624 0.925811 1.2754 0
M  V30 2918 C 262.571 0.422045 2.26908 0
M  V30 2919 C 263.541 -0.510029 1.58076 0
M  V30 2920 O 264.726 -0.429599 1.85901 0
M  V30 2921 C 261.866 -0.320837 3.43605 0
M  V30 2922 C 260.979 0.64513 4.27156 0
M  V30 2923 C 260.114 -0.117405 5.3107 0
M  V30 2924 C 259.153 0.841391 6.0629 0
M  V30 2925 N 258.29 0.111604 7.02011 0
M  V30 2926 H 263.13 1.27441 2.69375 0
M  V30 2927 H 260.667 0.639697 1.32462 0
M  V30 2928 H 262.625 -0.76785 4.10073 0
M  V30 2929 H 261.255 -1.13745 3.02096 0
M  V30 2930 H 260.307 1.21067 3.6062 0
M  V30 2931 H 261.619 1.37797 4.79389 0
M  V30 2932 H 260.773 -0.624422 6.03478 0
M  V30 2933 H 259.512 -0.883219 4.79636 0
M  V30 2934 H 258.517 1.35967 5.32722 0
M  V30 2935 H 259.742 1.60696 6.59813 0
M  V30 2936 H 257.688 -0.635999 6.5291 0
M  V30 2937 H 257.605 0.784044 7.51923 0
M  V30 2938 H 258.873 -0.374823 7.78598 0
M  V30 2939 N 263.102 -1.41638 0.69111 0
M  V30 2940 C 264.348 -2.01598 0.220519 0
M  V30 2941 C 264.681 -1.54594 -1.17535 0
M  V30 2942 O 263.956 -0.755177 -1.79241 0
M  V30 2943 C 264.239 -3.59062 0.273243 0
M  V30 2944 C 264.092 -4.16203 1.70573 0
M  V30 2945 C 265.411 -4.38546 -0.369457 0
M  V30 2946 H 262.53 -0.732468 0.0816045 0
M  V30 2947 H 265.172 -1.68445 0.878986 0
M  V30 2948 H 263.322 -3.87435 -0.287411 0
M  V30 2949 H 264.994 -3.98722 2.31989 0
M  V30 2950 H 263.237 -3.71414 2.2413 0
M  V30 2951 H 263.908 -5.25358 1.69419 0
M  V30 2952 H 266.384 -4.1596 0.107977 0
M  V30 2953 H 265.26 -5.48069 -0.302002 0
M  V30 2954 H 265.521 -4.17662 -1.44951 0
M  V30 2955 N 264.58 -0.43555 -1.51462 0
M  V30 2956 C 265.51 0.367376 -2.30592 0
M  V30 2957 C 266.491 1.02263 -1.35928 0
M  V30 2958 O 267.676 1.02661 -1.64847 0
M  V30 2959 C 264.806 1.46983 -3.14664 0
M  V30 2960 C 263.76 0.938161 -4.17591 0
M  V30 2961 C 263.086 2.13622 -4.90173 0
M  V30 2962 C 264.386 -0.0261621 -5.22293 0
M  V30 2963 H 266.08 -0.292969 -2.97963 0
M  V30 2964 H 263.626 -0.14234 -1.43295 0
M  V30 2965 H 265.579 2.03873 -3.688 0
M  V30 2966 H 264.303 2.15843 -2.4511 0
M  V30 2967 H 262.962 0.391481 -3.64504 0
M  V30 2968 H 262.61 2.81098 -4.17124 0
M  V30 2969 H 262.31 1.78688 -5.59772 0
M  V30 2970 H 263.834 2.7107 -5.47132 0
M  V30 2971 H 265.248 0.452384 -5.71512 0
M  V30 2972 H 263.645 -0.287992 -5.99409 0
M  V30 2973 H 264.715 -0.963391 -4.75233 0
M  V30 2974 N 266.058 1.56714 -0.166846 0
M  V30 2975 C 266.988 2.20754 0.760913 0
M  V30 2976 C 267.969 1.16178 1.24244 0
M  V30 2977 O 269.154 1.44592 1.29641 0
M  V30 2978 C 266.284 2.84478 1.99223 0
M  V30 2979 C 265.238 3.95053 1.64672 0
M  V30 2980 C 264.564 4.45805 2.95232 0
M  V30 2981 C 265.864 5.14865 0.878155 0
M  V30 2982 H 267.558 2.98537 0.22713 0
M  V30 2983 H 265.104 1.43596 0.107805 0
M  V30 2984 H 267.057 3.27951 2.64624 0
M  V30 2985 H 265.781 2.04056 2.55007 0
M  V30 2986 H 264.44 3.52228 1.01641 0
M  V30 2987 H 264.088 3.62181 3.49047 0
M  V30 2988 H 263.788 5.204 2.7287 0
M  V30 2989 H 265.312 4.91962 3.6167 0
M  V30 2990 H 266.726 5.55059 1.43466 0
M  V30 2991 H 265.123 5.95348 0.753738 0
M  V30 2992 H 266.193 4.84735 -0.126377 0
M  V30 2993 N 267.536 -0.106894 1.57237 0
M  V30 2994 C 268.483 -1.13049 2.01217 0
M  V30 2995 C 269.453 -1.40471 0.886403 0
M  V30 2996 O 270.638 -1.52133 1.15153 0
M  V30 2997 C 267.778 -2.4487 2.43172 0
M  V30 2998 C 266.891 -2.24281 3.69218 0
M  V30 2999 C 266.026 -3.49417 4.00101 0
M  V30 3000 C 265.065 -3.24038 5.19294 0
M  V30 3001 N 264.202 -4.41409 5.45988 0
M  V30 3002 H 269.042 -0.748456 2.88448 0
M  V30 3003 H 266.579 -0.358054 1.42676 0
M  V30 3004 H 268.537 -3.21786 2.65537 0
M  V30 3005 H 267.167 -2.80944 1.58967 0
M  V30 3006 H 266.219 -1.38224 3.54398 0
M  V30 3007 H 267.531 -2.01512 4.56283 0
M  V30 3008 H 266.685 -4.34746 4.2318 0
M  V30 3009 H 265.424 -3.75229 3.11535 0
M  V30 3010 H 264.429 -2.37102 4.96047 0
M  V30 3011 H 265.654 -2.99584 6.09447 0
M  V30 3012 H 263.6 -4.67319 4.60379 0
M  V30 3013 H 263.517 -4.21788 6.274 0
M  V30 3014 H 264.785 -5.27836 5.73593 0
M  V30 3015 N 269.014 -1.53014 -0.377408 0
M  V30 3016 C 270.291 -1.59215 -1.13622 0
M  V30 3017 C 270.671 -0.392407 -2.07421 0
M  V30 3018 O 270.019 0.618342 -2.19975 0
M  V30 3019 C 270.229 -2.93669 -1.88573 0
M  V30 3020 C 271.577 -3.47822 -2.43526 0
M  V30 3021 O 272.601 -2.9562 -1.98715 0
M  V30 3022 O 271.46 -4.39055 -3.25412 0
M  V30 3023 H 268.554 -0.642625 -0.52054 0
M  V30 3024 H 271.1 -1.65353 -0.381625 0
M  V30 3025 H 269.872 -3.7243 -1.20048 0
M  V30 3026 H 269.495 -2.90968 -2.70968 0
M  V30 3027 N 270.492 0.636531 -1.44174 0
M  V30 3028 C 271.422 1.76003 -1.53444 0
M  V30 3029 C 272.403 1.65619 -0.387841 0
M  V30 3030 O 273.588 1.84461 -0.607257 0
M  V30 3031 C 270.718 3.14511 -1.4731 0
M  V30 3032 C 269.672 3.39677 -2.60391 0
M  V30 3033 C 268.998 4.78159 -2.39308 0
M  V30 3034 C 270.298 3.32772 -4.02567 0
M  V30 3035 H 271.992 1.68501 -2.47483 0
M  V30 3036 H 269.538 0.809237 -1.19111 0
M  V30 3037 H 271.491 3.92878 -1.52397 0
M  V30 3038 H 270.215 3.22783 -0.49785 0
M  V30 3039 H 268.874 2.63688 -2.54684 0
M  V30 3040 H 268.522 4.83128 -1.39988 0
M  V30 3041 H 268.222 4.95956 -3.15122 0
M  V30 3042 H 269.746 5.58762 -2.46205 0
M  V30 3043 H 271.16 4.01051 -4.09672 0
M  V30 3044 H 269.557 3.62104 -4.7854 0
M  V30 3045 H 270.627 2.30669 -4.2652 0
M  V30 3046 N 271.97 1.30982 0.876444 0
M  V30 3047 C 273.216 1.20474 1.63138 0
M  V30 3048 C 273.549 -0.238096 1.92735 0
M  V30 3049 O 272.824 -1.1692 1.55435 0
M  V30 3050 C 273.107 2.04244 2.96574 0
M  V30 3051 C 272.96 3.56793 2.73896 0
M  V30 3052 C 274.279 1.88684 3.97601 0
M  V30 3053 H 271.398 0.439001 0.591985 0
M  V30 3054 H 274.04 1.60704 1.01361 0
M  V30 3055 H 272.19 1.70063 3.493 0
M  V30 3056 H 273.862 4.01077 2.27892 0
M  V30 3057 H 272.105 3.80548 2.08245 0
M  V30 3058 H 272.776 4.10706 3.68815 0
M  V30 3059 H 275.252 2.18584 3.54062 0
M  V30 3060 H 274.128 2.4961 4.88862 0
M  V30 3061 H 274.389 0.848343 4.33884 0
M  V30 3062 N 273.449 -1.08991 1.13837 0
M  V30 3063 C 274.396 -2.15748 0.819835 0
M  V30 3064 C 275.366 -1.64636 -0.220026 0
M  V30 3065 O 276.551 -1.90582 -0.0912757 0
M  V30 3066 C 273.691 -3.4382 0.296913 0
M  V30 3067 C 272.804 -4.0881 1.39636 0
M  V30 3068 C 271.939 -5.24655 0.831314 0
M  V30 3069 C 270.978 -5.81575 1.90886 0
M  V30 3070 N 270.115 -6.88774 1.36142 0
M  V30 3071 H 274.955 -2.42338 1.73426 0
M  V30 3072 H 272.492 -1.18935 0.865613 0
M  V30 3073 H 274.45 -4.17193 -0.0244339 0
M  V30 3074 H 273.08 -3.17535 -0.580628 0
M  V30 3075 H 272.132 -3.33258 1.83422 0
M  V30 3076 H 273.444 -4.47141 2.21058 0
M  V30 3077 H 272.598 -6.04942 0.461515 0
M  V30 3078 H 271.337 -4.87698 -0.013932 0
M  V30 3079 H 270.342 -4.99946 2.28767 0
M  V30 3080 H 271.567 -6.20592 2.75758 0
M  V30 3081 H 269.513 -6.53788 0.538254 0
M  V30 3082 H 269.43 -7.25898 2.11208 0
M  V30 3083 H 270.698 -7.72806 1.01933 0
M  V30 3084 N 274.927 -0.932562 -1.27047 0
M  V30 3085 C 275.874 -0.434072 -2.26681 0
M  V30 3086 C 276.844 0.501639 -1.58344 0
M  V30 3087 O 278.029 0.419734 -1.86126 0
M  V30 3088 C 275.169 0.30261 -3.43771 0
M  V30 3089 C 274.282 -0.667774 -4.26808 0
M  V30 3090 C 273.417 0.0892393 -5.31125 0
M  V30 3091 C 272.456 -0.873532 -6.05835 0
M  V30 3092 N 271.593 -0.148832 -7.01942 0
M  V30 3093 H 276.433 -1.28868 -2.68695 0
M  V30 3094 H 273.97 -0.646713 -1.32121 0
M  V30 3095 H 275.928 0.746092 -4.10474 0
M  V30 3096 H 274.558 1.12142 -3.02695 0
M  V30 3097 H 273.61 -1.22978 -3.59973 0
M  V30 3098 H 274.922 -1.40337 -4.78651 0
M  V30 3099 H 274.076 0.592409 -6.03801 0
M  V30 3100 H 272.815 0.85777 -4.80097 0
M  V30 3101 H 271.82 -1.38791 -5.31994 0
M  V30 3102 H 273.045 -1.64193 -6.58952 0
M  V30 3103 H 270.991 0.601365 -6.53238 0
M  V30 3104 H 270.908 -0.82391 -7.51497 0
M  V30 3105 H 272.176 0.333527 -7.78786 0
M  V30 3106 N 276.405 1.4127 -0.698611 0
M  V30 3107 C 277.652 2.0118 -0.230865 0
M  V30 3108 C 277.98 1.55338 1.17049 0
M  V30 3109 O 277.235 0.756775 1.80475 0
M  V30 3110 C 277.534 3.56592 -0.240192 0
M  V30 3111 C 277.2 4.21955 -1.58948 0
M  V30 3112 C 275.862 4.39524 -1.95887 0
M  V30 3113 C 278.214 4.58576 -2.47704 0
M  V30 3114 C 275.542 4.90992 -3.2116 0
M  V30 3115 C 277.894 5.11435 -3.72313 0
M  V30 3116 C 276.558 5.27215 -4.0939 0
M  V30 3117 H 275.828 0.736169 -0.0844796 0
M  V30 3118 H 278.475 1.69124 -0.8983 0
M  V30 3119 H 276.78 3.88456 0.510797 0
M  V30 3120 H 278.477 4.00758 0.139296 0
M  V30 3121 H 275.067 4.08657 -1.29219 0
M  V30 3122 H 279.251 4.44654 -2.20445 0
M  V30 3123 H 274.507 5.01393 -3.49878 0
M  V30 3124 H 278.681 5.38752 -4.4127 0
M  V30 3125 H 276.308 5.66859 -5.06533 0
M  V30 3126 N 277.883 0.443576 1.51229 0
M  V30 3127 C 279.132 -0.122332 2.01329 0
M  V30 3128 C 279.445 -1.43237 1.33201 0
M  V30 3129 O 280.651 -2.0816 1.74304 0
M  V30 3130 C 279.107 -0.268551 3.58897 0
M  V30 3131 C 278.715 1.03142 4.35965 0
M  V30 3132 C 280.459 -0.787894 4.17124 0
M  V30 3133 C 278.366 0.850504 5.85252 0
M  V30 3134 H 277.296 -0.0494929 0.752374 0
M  V30 3135 H 279.947 0.574289 1.74282 0
M  V30 3136 H 278.329 -1.02832 3.82415 0
M  V30 3137 H 279.503 1.80001 4.24189 0
M  V30 3138 H 277.818 1.47977 3.89219 0
M  V30 3139 H 280.415 -0.939841 5.26375 0
M  V30 3140 H 280.758 -1.77201 3.76703 0
M  V30 3141 H 281.291 -0.0862669 3.97706 0
M  V30 3142 H 278.03 1.80718 6.30096 0
M  V30 3143 H 277.55 0.121825 5.99676 0
M  V30 3144 H 279.229 0.506163 6.45017 0
M  V30 3145 N 279.361 -1.56624 0.175154 0
M  V30 3146 C 280.772 -1.83561 -0.340916 0
M  V30 3147 C 281.123 -1.09511 -1.62794 0
M  V30 3148 O 280.248 -0.349389 -2.13561 0
M  V30 3149 C 280.843 -3.32979 -0.625313 0
M  V30 3150 C 279.402 -3.60399 -1.08581 0
M  V30 3151 C 278.549 -2.77024 -0.123722 0
M  V30 3152 H 281.5 -1.53593 0.399344 0
M  V30 3153 H 281.521 -3.50666 -1.47694 0
M  V30 3154 H 281.033 -3.86847 0.311575 0
M  V30 3155 H 279.134 -3.11945 -2.03767 0
M  V30 3156 H 279.247 -4.68711 -0.992317 0
M  V30 3157 H 277.611 -2.46993 -0.621821 0
M  V30 3158 H 278.394 -3.33674 0.807256 0
M  V30 3159 N 280.839 0.0985539 -1.57292 0
M  V30 3160 C 281.749 1.13824 -2.05137 0
M  V30 3161 C 282.765 1.44076 -0.975604 0
M  V30 3162 O 283.941 1.54786 -1.28853 0
M  V30 3163 C 281.006 2.43969 -2.46333 0
M  V30 3164 C 280.067 2.2093 -3.68087 0
M  V30 3165 C 279.3 3.44869 -4.0731 0
M  V30 3166 O 279.523 4.52972 -3.46659 0
M  V30 3167 O 278.457 3.34661 -5.00285 0
M  V30 3168 H 282.283 0.761881 -2.93988 0
M  V30 3169 H 279.868 0.310818 -1.46131 0
M  V30 3170 H 281.75 3.20609 -2.73473 0
M  V30 3171 H 280.425 2.81038 -1.60621 0
M  V30 3172 H 279.332 1.42081 -3.46069 0
M  V30 3173 H 280.665 1.88755 -4.54568 0
M  V30 3174 N 282.317 1.53212 0.369288 0
M  V30 3175 C 283.542 1.73423 1.1375 0
M  V30 3176 C 283.967 0.460404 1.82378 0
M  V30 3177 O 283.325 -0.585298 1.71592 0
M  V30 3178 C 283.373 2.89769 2.1463 0
M  V30 3179 O 282.477 2.58119 3.21634 0
M  V30 3180 H 281.818 0.576061 0.330227 0
M  V30 3181 H 284.348 2.00083 0.427547 0
M  V30 3182 H 284.358 3.15829 2.58294 0
M  V30 3183 H 283.033 3.8217 1.64071 0
M  V30 3184 H 281.61 2.42864 2.82969 0
M  V30 3185 N 283.795 -0.628877 1.44509 0
M  V30 3186 C 285.044 -1.38437 1.4669 0
M  V30 3187 C 285.357 -1.95322 0.104272 0
M  V30 3188 O 286.563 -2.715 0.00362163 0
M  V30 3189 C 285.019 -2.50659 2.5826 0
M  V30 3190 C 284.627 -2.00277 4.0074 0
M  V30 3191 C 286.371 -3.27844 2.69664 0
M  V30 3192 C 284.278 -3.09854 5.0373 0
M  V30 3193 H 283.208 -0.520245 0.545766 0
M  V30 3194 H 285.859 -0.676313 1.70582 0
M  V30 3195 H 284.241 -3.2405 2.27612 0
M  V30 3196 H 285.415 -1.33736 4.40966 0
M  V30 3197 H 283.73 -1.35901 3.93599 0
M  V30 3198 H 286.327 -4.09534 3.43781 0
M  V30 3199 H 286.67 -3.77471 1.75559 0
M  V30 3200 H 287.203 -2.61543 2.99733 0
M  V30 3201 H 283.942 -2.65168 5.99472 0
M  V30 3202 H 283.462 -3.7503 4.68095 0
M  V30 3203 H 285.141 -3.74592 5.27532 0
M  V30 3204 N 285.273 -1.31445 -0.869486 0
M  V30 3205 C 286.521 -1.20918 -1.61936 0
M  V30 3206 C 286.842 0.232683 -1.93607 0
M  V30 3207 O 286.112 1.15352 -1.58338 0
M  V30 3208 H 284.692 -0.44454 -0.600328 0
M  V30 3209 H 287.354 -1.64776 -1.0409 0
M  V30 3210 H 286.45 -1.78124 -2.56278 0
M  V30 3211 N 286.751 1.08385 -1.14413 0
M  V30 3212 C 287.698 2.15311 -0.831265 0
M  V30 3213 C 288.668 1.64751 0.211292 0
M  V30 3214 O 289.853 1.90627 0.0811674 0
M  V30 3215 C 286.993 3.43658 -0.315143 0
M  V30 3216 C 286.106 4.08064 -1.41802 0
M  V30 3217 C 285.241 5.24207 -0.859126 0
M  V30 3218 C 284.28 5.80554 -1.93967 0
M  V30 3219 N 283.417 6.88042 -1.39793 0
M  V30 3220 H 288.257 2.41415 -1.74708 0
M  V30 3221 H 285.794 1.18474 -0.871909 0
M  V30 3222 H 287.752 4.172 0.00230884 0
M  V30 3223 H 286.382 3.17839 0.56378 0
M  V30 3224 H 285.434 3.3228 -1.85187 0
M  V30 3225 H 286.746 4.45962 -2.23427 0
M  V30 3226 H 285.9 6.04689 -0.49359 0
M  V30 3227 H 284.639 4.87699 -0.011932 0
M  V30 3228 H 283.644 4.98725 -2.31415 0
M  V30 3229 H 284.869 6.19121 -2.79046 0
M  V30 3230 H 282.815 6.53493 -0.572919 0
M  V30 3231 H 282.732 7.24767 -2.15054 0
M  V30 3232 H 284 7.72255 -1.0603 0
M  V30 3233 N 288.23 0.939286 1.26551 0
M  V30 3234 C 289.14 0.453432 2.30176 0
M  V30 3235 C 290.156 -0.471649 1.67486 0
M  V30 3236 O 291.332 -0.35164 1.98306 0
M  V30 3237 C 288.397 -0.275326 3.45605 0
M  V30 3238 C 287.458 0.686084 4.23782 0
M  V30 3239 C 286.691 -0.00798994 5.33699 0
M  V30 3240 O 286.914 -1.22528 5.57085 0
M  V30 3241 O 285.848 0.669746 5.98162 0
M  V30 3242 H 289.674 1.31416 2.73795 0
M  V30 3243 H 287.259 0.705095 1.31715 0
M  V30 3244 H 289.141 -0.685911 4.1578 0
M  V30 3245 H 287.816 -1.11147 3.0402 0
M  V30 3246 H 286.723 1.14658 3.56096 0
M  V30 3247 H 288.056 1.48979 4.69112 0
M  V30 3248 N 289.708 -1.40897 0.706093 0
M  V30 3249 C 290.957 -2.00284 0.238574 0
M  V30 3250 C 291.27 -1.56604 -1.17194 0
M  V30 3251 O 292.476 -2.08624 -1.73748 0
M  V30 3252 C 290.932 -3.57934 0.375623 0
M  V30 3253 C 290.54 -4.10591 1.79217 0
M  V30 3254 C 292.284 -4.24488 -0.0315857 0
M  V30 3255 C 290.191 -5.60712 1.88032 0
M  V30 3256 H 289.121 -0.749144 0.0854398 0
M  V30 3257 H 291.772 -1.61251 0.875813 0
M  V30 3258 H 290.154 -3.94622 -0.330042 0
M  V30 3259 H 291.328 -3.85301 2.52745 0
M  V30 3260 H 289.643 -3.56601 2.15 0
M  V30 3261 H 292.24 -5.34698 0.0136842 0
M  V30 3262 H 292.583 -4.02261 -1.072 0
M  V30 3263 H 293.116 -3.92873 0.624181 0
M  V30 3264 H 289.855 -5.87781 2.90161 0
M  V30 3265 H 289.375 -5.87896 1.18903 0
M  V30 3266 H 291.054 -6.25658 1.64805 0
M  V30 3267 N 291.186 -0.45159 -1.50991 0
M  V30 3268 C 292.096 0.358431 -2.31846 0
M  V30 3269 C 293.112 1.01438 -1.41373 0
M  V30 3270 O 294.288 1.00663 -1.74439 0
M  V30 3271 C 291.353 1.43704 -3.15515 0
M  V30 3272 C 290.414 0.799742 -4.21785 0
M  V30 3273 C 289.647 1.82696 -5.01456 0
M  V30 3274 O 289.87 3.05105 -4.81941 0
M  V30 3275 O 288.804 1.40958 -5.85162 0
M  V30 3276 H 292.63 -0.302032 -3.02194 0
M  V30 3277 H 290.215 -0.213825 -1.47862 0
M  V30 3278 H 292.097 2.06227 -3.67489 0
M  V30 3279 H 290.772 2.08133 -2.47916 0
M  V30 3280 H 289.679 0.136084 -3.73852 0
M  V30 3281 H 291.012 0.198718 -4.91799 0
M  V30 3282 N 292.664 1.56529 -0.183458 0
M  V30 3283 C 293.611 2.18546 0.742055 0
M  V30 3284 C 294.581 1.12912 1.2182 0
M  V30 3285 O 295.766 1.41115 1.28418 0
M  V30 3286 C 292.906 2.83977 1.96089 0
M  V30 3287 C 292.019 4.04105 1.52719 0
M  V30 3288 C 291.154 4.57427 2.70063 0
M  V30 3289 C 290.193 5.69938 2.23243 0
M  V30 3290 N 289.33 6.17717 3.33722 0
M  V30 3291 H 294.17 2.97284 0.206432 0
M  V30 3292 H 291.707 1.46823 0.0901571 0
M  V30 3293 H 293.665 3.20077 2.67594 0
M  V30 3294 H 292.295 2.07822 2.47002 0
M  V30 3295 H 291.347 3.73745 0.708436 0
M  V30 3296 H 292.659 4.85513 1.1436 0
M  V30 3297 H 291.813 4.95772 3.49708 0
M  V30 3298 H 290.552 3.75101 3.11689 0
M  V30 3299 H 289.557 5.31133 1.42048 0
M  V30 3300 H 290.782 6.54073 1.82661 0
M  V30 3301 H 288.728 5.38317 3.74902 0
M  V30 3302 H 288.645 6.94146 2.99495 0
M  V30 3303 H 289.913 6.60713 4.13616 0
M  V30 3304 N 294.142 -0.090211 1.57342 0
M  V30 3305 C 295.074 -1.13541 1.99101 0
M  V30 3306 C 296.087 -1.3604 0.894258 0
M  V30 3307 O 297.276 -1.34606 1.17233 0
M  V30 3308 C 294.376 -2.49001 2.29895 0
M  V30 3309 C 293.549 -2.46712 3.61182 0
M  V30 3310 C 292.608 -3.64136 3.79857 0
M  V30 3311 O 291.634 -3.46405 4.51655 0
M  V30 3312 N 292.836 -4.83802 3.20806 0
M  V30 3313 H 295.601 -0.779942 2.89373 0
M  V30 3314 H 293.162 -0.279125 1.59476 0
M  V30 3315 H 295.154 -3.26166 2.39578 0
M  V30 3316 H 293.724 -2.76619 1.45605 0
M  V30 3317 H 292.944 -1.55058 3.62423 0
M  V30 3318 H 294.232 -2.42265 4.4742 0
M  V30 3319 H 293.63 -5.01112 2.62494 0
M  V30 3320 H 292.187 -5.58543 3.35966 0
M  V30 3321 N 295.62 -1.53406 -0.361157 0
M  V30 3322 C 296.86 -1.71507 -1.11197 0
M  V30 3323 C 297.224 -0.459337 -1.86425 0
M  V30 3324 O 298.425 -0.517102 -2.63779 0
M  V30 3325 C 296.696 -2.93307 -2.0422 0
M  V30 3326 S 298.255 -3.32135 -2.86761 0
M  V30 3327 H 295.073 -0.603448 -0.375995 0
M  V30 3328 H 297.675 -1.91516 -0.392642 0
M  V30 3329 H 296.379 -3.82891 -1.47724 0
M  V30 3330 H 295.91 -2.75712 -2.80618 0
M  V30 3331 H 297.925 -2.84493 -4.06544 0
M  V30 3332 N 297.098 0.621204 -1.44841 0
M  V30 3333 C 298.045 1.73267 -1.5247 0
M  V30 3334 C 299.015 1.6189 -0.371611 0
M  V30 3335 O 300.2 1.81668 -0.58321 0
M  V30 3336 C 297.34 3.11545 -1.48438 0
M  V30 3337 C 296.453 3.33827 -2.74196 0
M  V30 3338 C 295.588 4.62133 -2.61929 0
M  V30 3339 C 294.627 4.77627 -3.82804 0
M  V30 3340 N 293.764 5.97219 -3.69153 0
M  V30 3341 H 298.604 1.66082 -2.47428 0
M  V30 3342 H 296.141 0.810026 -1.22788 0
M  V30 3343 H 298.099 3.91528 -1.4409 0
M  V30 3344 H 296.729 3.1772 -0.570402 0
M  V30 3345 H 295.781 2.47715 -2.88689 0
M  V30 3346 H 297.093 3.41153 -3.6389 0
M  V30 3347 H 296.247 5.50291 -2.5547 0
M  V30 3348 H 294.986 4.57182 -1.69811 0
M  V30 3349 H 293.991 3.87896 -3.89637 0
M  V30 3350 H 295.216 4.84385 -4.75971 0
M  V30 3351 H 293.162 5.93339 -2.79794 0
M  V30 3352 H 293.079 6.05644 -4.52472 0
M  V30 3353 H 294.347 6.87912 -3.66603 0
M  V30 3354 N 298.576 1.31904 0.862503 0
M  V30 3355 C 299.523 1.20182 1.9704 0
M  V30 3356 C 300.493 0.0858247 1.65878 0
M  V30 3357 O 301.678 0.26 1.8902 0
M  V30 3358 C 298.818 0.922797 3.32533 0
M  V30 3359 C 297.931 2.12284 3.76244 0
M  V30 3360 C 297.066 1.77996 5.00491 0
M  V30 3361 C 296.105 2.94366 5.36671 0
M  V30 3362 N 295.242 2.60223 6.52095 0
M  V30 3363 H 300.082 2.14951 2.06398 0
M  V30 3364 H 297.619 1.06917 1.01031 0
M  V30 3365 H 299.577 0.741548 4.10557 0
M  V30 3366 H 298.207 0.0119227 3.22798 0
M  V30 3367 H 297.259 2.41461 2.9394 0
M  V30 3368 H 298.571 2.99357 3.98982 0
M  V30 3369 H 297.725 1.56377 5.862 0
M  V30 3370 H 296.464 0.881252 4.79672 0
M  V30 3371 H 295.469 3.16625 4.49476 0
M  V30 3372 H 296.694 3.84957 5.59451 0
M  V30 3373 H 294.64 1.72884 6.32809 0
M  V30 3374 H 294.557 3.40827 6.74814 0
M  V30 3375 H 295.825 2.42016 7.40978 0
M  V30 3376 N 300.054 -1.07777 1.14986 0
M  V30 3377 C 301.303 -1.79669 0.916617 0
M  V30 3378 C 301.616 -1.87474 -0.557917 0
M  V30 3379 O 302.822 -2.55845 -0.908617 0
M  V30 3380 C 301.278 -3.22848 1.59051 0
M  V30 3381 C 300.886 -3.23257 3.10176 0
M  V30 3382 C 302.63 -3.99379 1.43864 0
M  V30 3383 C 300.537 -4.61063 3.70372 0
M  V30 3384 H 299.467 -0.673349 0.33929 0
M  V30 3385 H 302.118 -1.21003 1.37951 0
M  V30 3386 H 300.5 -3.8168 1.0553 0
M  V30 3387 H 301.674 -2.74095 3.70417 0
M  V30 3388 H 299.989 -2.60222 3.25074 0
M  V30 3389 H 302.586 -5.0122 1.86232 0
M  V30 3390 H 302.929 -4.14511 0.385564 0
M  V30 3391 H 303.462 -3.47032 1.94457 0
M  V30 3392 H 300.201 -4.51135 4.7556 0
M  V30 3393 H 299.721 -5.1048 3.14913 0
M  V30 3394 H 301.4 -5.30034 3.71043 0
M  V30 3395 N 301.532 -0.945985 -1.26051 0
M  V30 3396 C 302.762 -0.612136 -1.97323 0
M  V30 3397 C 303.17 0.818171 -1.70595 0
M  V30 3398 O 302.513 1.55777 -0.973613 0
M  V30 3399 C 302.575 -0.780347 -3.50929 0
M  V30 3400 C 302.239 -2.18619 -4.01317 0
M  V30 3401 C 303.236 -3.16209 -4.12683 0
M  V30 3402 C 300.921 -2.50805 -4.35203 0
M  V30 3403 C 302.915 -4.44085 -4.57238 0
M  V30 3404 C 300.602 -3.78912 -4.79446 0
M  V30 3405 C 301.6 -4.75365 -4.90425 0
M  V30 3406 O 301.288 -6.01191 -5.3369 0
M  V30 3407 H 301.02 -0.229134 -0.635982 0
M  V30 3408 H 303.574 -1.27036 -1.61404 0
M  V30 3409 H 301.804 -0.0649864 -3.86645 0
M  V30 3410 H 303.493 -0.448842 -4.03411 0
M  V30 3411 H 304.259 -2.92668 -3.86744 0
M  V30 3412 H 300.138 -1.76463 -4.2589 0
M  V30 3413 H 303.682 -5.19373 -4.65723 0
M  V30 3414 H 299.579 -4.02265 -5.0483 0
M  V30 3415 H 300.347 -6.04442 -5.51899 0
M  V30 3416 N 303.011 1.40521 -0.713556 0
M  V30 3417 C 304.422 1.83853 -0.324807 0
M  V30 3418 C 304.773 1.59667 1.14021 0
M  V30 3419 O 303.898 1.07649 1.87725 0
M  V30 3420 C 304.493 3.33751 -0.582746 0
M  V30 3421 C 303.052 3.75584 -0.247727 0
M  V30 3422 C 302.199 2.63753 -0.856121 0
M  V30 3423 H 305.15 1.29817 -0.91286 0
M  V30 3424 H 305.171 3.80194 0.152682 0
M  V30 3425 H 304.683 3.51322 -1.64908 0
M  V30 3426 H 302.784 3.63608 0.813624 0
M  V30 3427 H 302.897 4.7373 -0.715307 0
M  V30 3428 H 301.261 2.53108 -0.28432 0
M  V30 3429 H 302.044 2.84137 -1.92668 0
M  V30 3430 N 304.489 0.459591 1.5075 0
M  V30 3431 C 305.419 -0.330644 2.31147 0
M  V30 3432 C 306.4 -1.00087 1.37538 0
M  V30 3433 O 307.585 -1.00025 1.66459 0
M  V30 3434 C 304.715 -1.41958 3.16962 0
M  V30 3435 C 303.669 -0.871608 4.19031 0
M  V30 3436 C 302.995 -2.05797 4.9351 0
M  V30 3437 C 304.295 0.109251 5.22186 0
M  V30 3438 H 305.989 0.340336 2.97459 0
M  V30 3439 H 303.535 0.165119 1.4305 0
M  V30 3440 H 305.488 -1.9798 3.71997 0
M  V30 3441 H 304.212 -2.11917 2.48513 0
M  V30 3442 H 302.871 -0.333442 3.6508 0
M  V30 3443 H 302.519 -2.74427 4.21544 0
M  V30 3444 H 302.219 -1.6976 5.62544 0
M  V30 3445 H 303.743 -2.62331 5.51375 0
M  V30 3446 H 305.157 -0.361405 5.7216 0
M  V30 3447 H 303.554 0.383316 5.98875 0
M  V30 3448 H 304.624 1.03887 4.73641 0
M  V30 3449 N 305.967 -1.56429 0.191757 0
M  V30 3450 C 306.899 -2.16154 -0.762245 0
M  V30 3451 C 307.912 -1.12247 -1.17917 0
M  V30 3452 O 309.101 -1.39353 -1.11548 0
M  V30 3453 C 306.201 -2.70606 -2.04024 0
M  V30 3454 C 305.374 -3.99381 -1.78364 0
M  V30 3455 C 304.433 -4.38692 -2.90578 0
M  V30 3456 O 303.459 -5.06179 -2.6033 0
M  V30 3457 N 304.661 -4.01922 -4.18854 0
M  V30 3458 H 307.426 -2.98643 -0.251526 0
M  V30 3459 H 304.987 -1.61897 0.00967373 0
M  V30 3460 H 306.979 -2.93891 -2.78227 0
M  V30 3461 H 305.549 -1.9259 -2.46227 0
M  V30 3462 H 304.769 -3.84262 -0.879581 0
M  V30 3463 H 306.057 -4.83445 -1.58614 0
M  V30 3464 H 305.455 -3.47631 -4.46283 0
M  V30 3465 H 304.012 -4.30165 -4.89695 0
M  V30 3466 N 307.445 0.0818655 -1.57387 0
M  V30 3467 C 308.393 1.11712 -2.04018 0
M  V30 3468 C 309.387 1.40683 -0.94364 0
M  V30 3469 O 310.593 1.40209 -1.12878 0
M  V30 3470 H 306.968 0.377542 -0.650358 0
M  V30 3471 H 308.939 0.697614 -2.90131 0
M  V30 3472 C 307.688 2.42537 -2.49141 0
M  V30 3473 H 307.011 2.21092 -3.33104 0
M  V30 3474 H 308.451 3.13446 -2.85531 0
M  V30 3475 C 306.91 3.0778 -1.37014 0
M  V30 3476 O 307.44 3.95436 -0.706621 0
M  V30 3477 N 305.646 2.68242 -1.11779 0
M  V30 3478 H 305.193 1.97052 -1.65917 0
M  V30 3479 H 305.151 3.1222 -0.369594 0
M  V30 3480 N 308.923 1.53595 0.353017 0
M  V30 3481 C 310.169 1.70638 1.09593 0
M  V30 3482 C 310.502 0.463286 1.88593 0
M  V30 3483 O 309.777 -0.539597 1.86865 0
M  V30 3484 C 310.06 2.96406 2.04489 0
M  V30 3485 C 309.913 4.30901 1.29014 0
M  V30 3486 C 311.232 3.17812 3.0444 0
M  V30 3487 H 308.351 0.620913 0.397034 0
M  V30 3488 H 310.993 1.86254 0.375446 0
M  V30 3489 H 309.143 2.83223 2.65927 0
M  V30 3490 H 310.815 4.55917 0.702638 0
M  V30 3491 H 309.058 4.29741 0.592071 0
M  V30 3492 H 309.729 5.1506 1.98537 0
M  V30 3493 H 312.205 3.30263 2.53112 0
M  V30 3494 H 311.081 4.07223 3.6805 0
M  V30 3495 H 311.342 2.33669 3.75301 0
M  V30 3496 N 310.401 -0.613514 1.45168 0
M  V30 3497 C 311.331 -1.7354 1.56225 0
M  V30 3498 C 312.312 -1.64981 0.41414 0
M  V30 3499 O 313.497 -1.83472 0.636526 0
M  V30 3500 C 310.627 -3.12128 1.52295 0
M  V30 3501 C 309.581 -3.35491 2.65762 0
M  V30 3502 C 308.907 -4.74291 2.46885 0
M  V30 3503 C 310.207 -3.26325 4.0781 0
M  V30 3504 H 311.901 -1.64543 2.50132 0
M  V30 3505 H 309.447 -0.790185 1.20383 0
M  V30 3506 H 311.4 -3.90404 1.58628 0
M  V30 3507 H 310.124 -3.2195 0.549139 0
M  V30 3508 H 308.783 -2.59603 2.58847 0
M  V30 3509 H 308.431 -4.80839 1.47657 0
M  V30 3510 H 308.131 -4.9088 3.22972 0
M  V30 3511 H 309.655 -5.54775 2.55063 0
M  V30 3512 H 311.069 -3.94483 4.16 0
M  V30 3513 H 309.466 -3.54445 4.8424 0
M  V30 3514 H 310.536 -2.23855 4.30136 0
M  V30 3515 N 311.879 -1.3236 -0.855495 0
M  V30 3516 C 313.128 -1.22226 -1.60448 0
M  V30 3517 C 313.441 0.214733 -1.94418 0
M  V30 3518 O 314.647 0.437917 -2.67945 0
M  V30 3519 C 313.103 -2.14063 -2.89318 0
M  V30 3520 C 312.711 -3.62839 -2.62777 0
M  V30 3521 C 314.455 -2.12764 -3.67331 0
M  V30 3522 C 312.362 -4.4664 -3.87643 0
M  V30 3523 H 311.292 -0.453904 -0.602069 0
M  V30 3524 H 313.943 -1.57314 -0.944698 0
M  V30 3525 H 312.325 -1.71889 -3.5675 0
M  V30 3526 H 313.499 -4.1335 -2.03662 0
M  V30 3527 H 311.814 -3.66261 -1.98096 0
M  V30 3528 H 314.411 -2.72611 -4.59987 0
M  V30 3529 H 314.754 -1.11841 -4.00995 0
M  V30 3530 H 315.287 -2.53214 -3.06802 0
M  V30 3531 H 312.026 -5.48373 -3.5912 0
M  V30 3532 H 311.546 -4.0088 -4.46156 0
M  V30 3533 H 313.225 -4.59597 -4.55389 0
M  V30 3534 N 313.357 1.07166 -1.15556 0
M  V30 3535 C 314.773 1.31899 -0.898603 0
M  V30 3536 C 314.973 1.96333 0.453383 0
M  V30 3537 O 314.029 2.22438 1.19489 0
M  V30 3538 C 315.342 2.20826 -2.04099 0
M  V30 3539 C 316.89 2.34269 -2.07574 0
M  V30 3540 C 317.365 3.26546 -3.21141 0
M  V30 3541 N 318.856 3.34127 -3.20801 0
M  V30 3542 C 319.591 4.05595 -4.05315 0
M  V30 3543 N 319.087 4.79661 -4.99897 0
M  V30 3544 N 320.88 4.01555 -3.93332 0
M  V30 3545 H 313.031 0.637302 -2.02613 0
M  V30 3546 H 315.294 0.343468 -0.883591 0
M  V30 3547 H 315 1.80744 -3.01703 0
M  V30 3548 H 314.874 3.21364 -1.97496 0
M  V30 3549 H 317.261 2.73603 -1.10568 0
M  V30 3550 H 317.342 1.33429 -2.18244 0
M  V30 3551 H 316.986 2.87931 -4.184 0
M  V30 3552 H 316.916 4.27345 -3.07708 0
M  V30 3553 H 319.407 2.81336 -2.52306 0
M  V30 3554 H 319.72 5.31694 -5.60822 0
M  V30 3555 H 318.065 4.78671 -5.03884 0
M  V30 3556 H 321.256 3.42806 -3.18751 0
M  V30 3557 H 321.429 4.56987 -4.5942 0
M  V30 3558 N 314.835 0.952656 1.25548 0
M  V30 3559 C 315.782 0.47008 2.25962 0
M  V30 3560 C 316.752 -0.476384 1.59122 0
M  V30 3561 O 317.937 -0.39007 1.8677 0
M  V30 3562 C 315.077 -0.247881 3.44209 0
M  V30 3563 C 314.19 0.735591 4.25691 0
M  V30 3564 C 313.325 -0.0047306 5.312 0
M  V30 3565 C 312.364 0.969805 6.04368 0
M  V30 3566 N 311.501 0.260486 7.01617 0
M  V30 3567 H 316.341 1.33126 2.66611 0
M  V30 3568 H 313.878 0.66765 1.31076 0
M  V30 3569 H 315.836 -0.680695 4.1161 0
M  V30 3570 H 314.466 -1.07312 3.0444 0
M  V30 3571 H 313.518 1.28689 3.57971 0
M  V30 3572 H 314.83 1.47934 4.76358 0
M  V30 3573 H 313.984 -0.496275 6.04667 0
M  V30 3574 H 312.723 -0.781282 4.81401 0
M  V30 3575 H 311.728 1.47237 5.29718 0
M  V30 3576 H 312.953 1.74655 6.56256 0
M  V30 3577 H 310.899 -0.497364 6.54112 0
M  V30 3578 H 310.816 0.943362 7.50091 0
M  V30 3579 H 312.084 -0.209587 7.79218 0
M  V30 3580 N 316.313 -1.40141 0.720998 0
M  V30 3581 C 317.559 -2.01084 0.263231 0
M  V30 3582 C 317.892 -1.57052 -1.14229 0
M  V30 3583 O 317.167 -0.793027 -1.77599 0
M  V30 3584 C 317.45 -3.58401 0.349344 0
M  V30 3585 C 317.303 -4.12491 1.79363 0
M  V30 3586 C 318.622 -4.39231 -0.276351 0
M  V30 3587 H 315.741 -0.730572 0.0971228 0
M  V30 3588 H 318.383 -1.66543 0.914518 0
M  V30 3589 H 316.533 -3.87958 -0.205165 0
M  V30 3590 H 318.205 -3.93711 2.40394 0
M  V30 3591 H 316.448 -3.66576 2.31958 0
M  V30 3592 H 317.119 -5.21646 1.80524 0
M  V30 3593 H 319.595 -4.15637 0.196184 0
M  V30 3594 H 318.471 -5.48586 -0.185681 0
M  V30 3595 H 318.732 -4.20643 -1.36059 0
M  V30 3596 N 317.792 -0.46758 -1.50504 0
M  V30 3597 C 318.739 0.328413 -2.28452 0
M  V30 3598 C 319.709 0.990313 -1.33349 0
M  V30 3599 O 320.894 1.00343 -1.62284 0
M  V30 3600 C 318.034 1.40648 -3.15138 0
M  V30 3601 C 317.147 0.759709 -4.25267 0
M  V30 3602 C 316.282 1.81537 -4.99217 0
M  V30 3603 C 315.321 1.14866 -6.01226 0
M  V30 3604 N 314.458 2.14702 -6.68467 0
M  V30 3605 H 319.298 -0.342603 -2.96024 0
M  V30 3606 H 316.835 -0.180801 -1.45985 0
M  V30 3607 H 318.793 2.04315 -3.63746 0
M  V30 3608 H 317.423 2.04671 -2.49619 0
M  V30 3609 H 316.475 0.0105671 -3.80399 0
M  V30 3610 H 317.787 0.233243 -4.98254 0
M  V30 3611 H 316.941 2.52793 -5.51526 0
M  V30 3612 H 315.68 2.37564 -4.25928 0
M  V30 3613 H 314.685 0.42171 -5.4818 0
M  V30 3614 H 315.91 0.595334 -6.76485 0
M  V30 3615 H 313.856 2.69752 -5.97972 0
M  V30 3616 H 313.773 1.6703 -7.37317 0
M  V30 3617 H 315.041 2.85348 -7.25394 0
M  V30 3618 N 319.27 1.56325 -0.20005 0
M  V30 3619 C 320.519 1.96895 0.437652 0
M  V30 3620 C 320.832 1.08999 1.62415 0
M  V30 3621 O 322.038 1.39372 2.32997 0
M  V30 3622 C 320.494 3.50198 0.830025 0
M  V30 3623 C 320.102 4.46765 -0.332461 0
M  V30 3624 C 321.846 3.99526 1.43453 0
M  V30 3625 C 319.753 5.91344 0.0811468 0
M  V30 3626 H 318.683 0.735209 0.167282 0
M  V30 3627 H 321.334 1.81148 -0.292853 0
M  V30 3628 H 319.716 3.61467 1.61734 0
M  V30 3629 H 320.89 4.47231 -1.11 0
M  V30 3630 H 319.205 4.07657 -0.848789 0
M  V30 3631 H 321.802 5.05025 1.75652 0
M  V30 3632 H 322.145 3.44122 2.34277 0
M  V30 3633 H 322.678 3.91393 0.71109 0
M  V30 3634 H 319.417 6.50685 -0.793033 0
M  V30 3635 H 318.937 5.94121 0.823445 0
M  V30 3636 H 320.616 6.44945 0.515252 0
M  V30 3637 N 320.748 -0.0735177 1.57428 0
M  V30 3638 C 321.678 -1.0879 2.06608 0
M  V30 3639 C 322.659 -1.40473 0.959237 0
M  V30 3640 O 323.844 -1.5013 1.23185 0
M  V30 3641 C 320.974 -2.40183 2.50857 0
M  V30 3642 C 319.928 -2.22858 3.65402 0
M  V30 3643 C 319.254 -3.59619 3.957 0
M  V30 3644 C 320.554 -1.65123 4.95511 0
M  V30 3645 H 322.248 -0.678673 2.91607 0
M  V30 3646 H 319.794 -0.325013 1.40284 0
M  V30 3647 H 321.747 -3.11437 2.83874 0
M  V30 3648 H 320.471 -2.83083 1.62885 0
M  V30 3649 H 319.13 -1.54045 3.32664 0
M  V30 3650 H 318.778 -4.00086 3.04861 0
M  V30 3651 H 318.478 -3.48866 4.72828 0
M  V30 3652 H 320.002 -4.32306 4.31212 0
M  V30 3653 H 321.416 -2.26241 5.26771 0
M  V30 3654 H 319.813 -1.65071 5.7695 0
M  V30 3655 H 320.883 -0.612559 4.81015 0
M  V30 3656 N 322.226 -1.5378 -0.344866 0
M  V30 3657 C 323.173 -1.81676 -1.42346 0
M  V30 3658 C 324.143 -0.662376 -1.52321 0
M  V30 3659 O 325.328 -0.906675 -1.67881 0
M  V30 3660 C 322.468 -2.03087 -2.79015 0
M  V30 3661 C 321.581 -3.30799 -2.77842 0
M  V30 3662 C 320.716 -3.42285 -4.0622 0
M  V30 3663 C 319.755 -4.6395 -3.9927 0
M  V30 3664 N 318.892 -4.72477 -5.19336 0
M  V30 3665 H 323.732 -2.73703 -1.17858 0
M  V30 3666 H 321.269 -1.35568 -0.570949 0
M  V30 3667 H 323.227 -2.1349 -3.58438 0
M  V30 3668 H 321.857 -1.14375 -3.01858 0
M  V30 3669 H 320.909 -3.29244 -1.90533 0
M  V30 3670 H 322.221 -4.20314 -2.68584 0
M  V30 3671 H 321.375 -3.52113 -4.94066 0
M  V30 3672 H 320.114 -2.50823 -4.18258 0
M  V30 3673 H 319.119 -4.54201 -3.09809 0
M  V30 3674 H 320.344 -5.56775 -3.88817 0
M  V30 3675 H 318.29 -3.83924 -5.3192 0
M  V30 3676 H 318.207 -5.55927 -5.12329 0
M  V30 3677 H 319.475 -4.86613 -6.08957 0
M  V30 3678 N 323.704 0.605807 -1.45491 0
M  V30 3679 C 325.12 0.926751 -1.29936 0
M  V30 3680 C 325.32 1.99896 -0.253706 0
M  V30 3681 O 324.376 2.50038 0.351737 0
M  V30 3682 C 325.689 1.36599 -2.67883 0
M  V30 3683 C 327.237 1.4801 -2.75793 0
M  V30 3684 C 327.712 1.95309 -4.14268 0
M  V30 3685 N 329.203 2.0254 -4.16571 0
M  V30 3686 C 329.938 2.40363 -5.20589 0
M  V30 3687 N 329.434 2.77143 -6.34952 0
M  V30 3688 N 331.227 2.40718 -5.07948 0
M  V30 3689 H 323.378 -0.102862 -2.12151 0
M  V30 3690 H 325.641 0.016639 -0.947854 0
M  V30 3691 H 325.347 0.652306 -3.45598 0
M  V30 3692 H 325.221 2.33215 -2.96463 0
M  V30 3693 H 327.608 2.1847 -1.98381 0
M  V30 3694 H 327.689 0.497041 -2.50925 0
M  V30 3695 H 327.333 1.25436 -4.92167 0
M  V30 3696 H 327.263 2.94532 -4.3653 0
M  V30 3697 H 329.754 1.76699 -3.34045 0
M  V30 3698 H 330.067 3.0489 -7.10114 0
M  V30 3699 H 328.412 2.74834 -6.3835 0
M  V30 3700 H 331.603 2.11392 -4.1765 0
M  V30 3701 H 331.776 2.69869 -5.89131 0
M  V30 3702 N 325.182 1.32811 0.848464 0
M  V30 3703 C 326.593 1.21315 1.41914 0
M  V30 3704 C 326.944 -0.171847 1.95446 0
M  V30 3705 O 326.069 -1.07093 1.88043 0
M  V30 3706 C 326.664 2.19631 2.57968 0
M  V30 3707 C 325.223 2.12003 3.11017 0
M  V30 3708 C 324.37 2.07651 1.83783 0
M  V30 3709 H 327.321 1.44549 0.655071 0
M  V30 3710 H 327.342 1.79845 3.35315 0
M  V30 3711 H 326.854 3.20423 2.18976 0
M  V30 3712 H 324.955 1.14481 3.54577 0
M  V30 3713 H 325.068 3.02111 3.71841 0
M  V30 3714 H 323.432 1.52983 2.03638 0
M  V30 3715 H 324.215 3.10235 1.47 0
M  V30 3716 N 326.66 -1.06551 1.16123 0
M  V30 3717 C 327.607 -2.13961 0.865414 0
M  V30 3718 C 328.577 -1.65066 -0.185055 0
M  V30 3719 O 329.762 -1.90732 -0.05083 0
M  V30 3720 C 326.902 -3.43113 0.369776 0
M  V30 3721 C 326.015 -4.05756 1.48276 0
M  V30 3722 C 325.15 -5.22773 0.942414 0
M  V30 3723 C 324.189 -5.77395 2.03179 0
M  V30 3724 N 323.326 -6.85731 1.50721 0
M  V30 3725 H 328.166 -2.38605 1.78527 0
M  V30 3726 H 325.703 -1.17072 0.890646 0
M  V30 3727 H 327.661 -4.17151 0.0640643 0
M  V30 3728 H 326.291 -3.18695 -0.513143 0
M  V30 3729 H 325.343 -3.29292 1.9045 0
M  V30 3730 H 326.655 -4.42351 2.30493 0
M  V30 3731 H 325.809 -6.03827 0.589729 0
M  V30 3732 H 324.548 -4.87618 0.0895191 0
M  V30 3733 H 323.553 -4.94981 2.3932 0
M  V30 3734 H 324.778 -6.14603 2.8886 0
M  V30 3735 H 322.724 -6.52499 0.676811 0
M  V30 3736 H 322.641 -7.21254 2.26557 0
M  V30 3737 H 323.909 -7.7047 1.18303 0
M  V30 3738 N 328.138 -0.959301 -1.25041 0
M  V30 3739 C 329.068 -0.501388 -2.28053 0
M  V30 3740 C 330.049 0.454673 -1.63911 0
M  V30 3741 O 331.234 0.352618 -1.90972 0
M  V30 3742 C 328.364 0.217224 -3.4662 0
M  V30 3743 C 327.318 -0.654034 -4.22973 0
M  V30 3744 C 326.644 0.195589 -5.34342 0
M  V30 3745 C 327.944 -1.93447 -4.85155 0
M  V30 3746 H 329.638 -1.36238 -2.66608 0
M  V30 3747 H 327.184 -0.656534 -1.28163 0
M  V30 3748 H 329.137 0.548732 -4.17812 0
M  V30 3749 H 327.861 1.1125 -3.07068 0
M  V30 3750 H 326.52 -0.968693 -3.5357 0
M  V30 3751 H 326.168 1.09076 -4.91031 0
M  V30 3752 H 325.868 -0.384091 -5.86343 0
M  V30 3753 H 327.392 0.521958 -6.08365 0
M  V30 3754 H 328.806 -1.66908 -5.48466 0
M  V30 3755 H 327.203 -2.46018 -5.47353 0
M  V30 3756 H 328.273 -2.63466 -4.07079 0
M  V30 3757 N 329.616 1.39756 -0.72842 0
M  V30 3758 C 330.893 1.94574 -0.200079 0
M  V30 3759 C 331.273 1.66569 1.29684 0
M  V30 3760 O 330.621 0.990326 2.05924 0
M  V30 3761 C 330.831 3.45004 -0.526608 0
M  V30 3762 C 332.179 4.21965 -0.472318 0
M  V30 3763 O 333.203 3.53173 -0.463413 0
M  V30 3764 O 332.062 5.44552 -0.461075 0
M  V30 3765 H 329.156 0.826289 -0.0342851 0
M  V30 3766 H 331.702 1.49293 -0.806829 0
M  V30 3767 H 330.474 3.58796 -1.56144 0
M  V30 3768 H 330.097 3.97449 0.109449 0
M  V30 3769 N 331.094 0.475555 1.50254 0
M  V30 3770 C 332.343 -0.0795996 2.01543 0
M  V30 3771 C 332.656 -1.4038 1.36209 0
M  V30 3772 O 333.862 -2.04415 1.7868 0
M  V30 3773 C 332.318 -0.192363 3.59386 0
M  V30 3774 C 331.926 1.12367 4.33679 0
M  V30 3775 C 333.67 -0.699238 4.18701 0
M  V30 3776 C 331.577 0.974453 5.83317 0
M  V30 3777 H 330.507 -0.0335228 0.753254 0
M  V30 3778 H 333.158 0.611128 1.73025 0
M  V30 3779 H 331.54 -0.946974 3.84511 0
M  V30 3780 H 332.714 1.88958 4.20276 0
M  V30 3781 H 331.029 1.562 3.85993 0
M  V30 3782 H 333.626 -0.827978 5.28251 0
M  V30 3783 H 333.969 -1.69171 3.80377 0
M  V30 3784 H 334.502 -0.00188807 3.978 0
M  V30 3785 H 331.241 1.94042 6.26121 0
M  V30 3786 H 330.761 0.248998 5.99283 0
M  V30 3787 H 332.44 0.642867 6.43798 0
M  V30 3788 N 332.573 -1.56217 0.208337 0
M  V30 3789 C 333.798 -2.02782 -0.435222 0
M  V30 3790 C 334.223 -1.08738 -1.53485 0
M  V30 3791 O 333.581 -0.0731855 -1.81152 0
M  V30 3792 C 333.629 -3.47687 -0.956335 0
M  V30 3793 O 332.733 -3.56773 -2.06849 0
M  V30 3794 H 332.074 -0.656403 -0.100158 0
M  V30 3795 H 334.604 -2.02033 0.3231 0
M  V30 3796 H 334.614 -3.87745 -1.26955 0
M  V30 3797 H 333.289 -4.15624 -0.15143 0
M  V30 3798 H 331.866 -3.28597 -1.76292 0
M  V30 3799 N 334.051 0.0651679 -1.57465 0
M  V30 3800 C 334.998 1.07675 -2.04144 0
M  V30 3801 C 335.968 1.38071 -0.923335 0
M  V30 3802 O 337.153 1.49026 -1.19146 0
M  V30 3803 C 334.293 2.38337 -2.49579 0
M  V30 3804 C 333.406 2.14413 -3.75035 0
M  V30 3805 C 332.541 3.38686 -4.09225 0
M  V30 3806 C 331.58 3.10156 -5.27702 0
M  V30 3807 N 330.717 4.26778 -5.57499 0
M  V30 3808 H 335.557 0.671716 -2.90331 0
M  V30 3809 H 333.094 0.3201 -1.43575 0
M  V30 3810 H 335.052 3.14632 -2.73975 0
M  V30 3811 H 333.682 2.7663 -1.6636 0
M  V30 3812 H 332.734 1.2878 -3.57939 0
M  V30 3813 H 334.046 1.89344 -4.61466 0
M  V30 3814 H 333.2 4.23373 -4.34558 0
M  V30 3815 H 331.939 3.66837 -3.21374 0
M  V30 3816 H 330.944 2.23866 -5.02159 0
M  V30 3817 H 332.169 2.8332 -6.17176 0
M  V30 3818 H 330.115 4.54948 -4.72608 0
M  V30 3819 H 330.032 4.05005 -6.38362 0
M  V30 3820 H 331.3 5.12443 -5.87386 0
M  V30 3821 N 335.529 1.53961 0.336706 0
M  V30 3822 C 336.459 1.85417 1.41925 0
M  V30 3823 C 337.44 0.709856 1.5458 0
M  V30 3824 O 338.625 0.962396 1.68676 0
M  V30 3825 C 335.755 2.06985 2.78881 0
M  V30 3826 C 334.709 3.22813 2.81026 0
M  V30 3827 C 334.035 3.29727 4.20932 0
M  V30 3828 C 335.335 4.60767 2.45949 0
M  V30 3829 H 337.029 2.76079 1.15848 0
M  V30 3830 H 334.575 1.32839 0.555859 0
M  V30 3831 H 336.528 2.27575 3.54665 0
M  V30 3832 H 335.252 1.13061 3.06406 0
M  V30 3833 H 333.911 3.0209 2.07695 0
M  V30 3834 H 333.559 2.33385 4.45579 0
M  V30 3835 H 333.259 4.07566 4.23277 0
M  V30 3836 H 334.783 3.52536 4.98549 0
M  V30 3837 H 336.197 4.81325 3.11446 0
M  V30 3838 H 334.594 5.4106 2.59566 0
M  V30 3839 H 335.664 4.6391 1.41122 0
M  V30 3840 N 337.007 -0.598083 1.45811 0
M  V30 3841 C 337.94 -1.7223 1.49706 0
M  V30 3842 C 338.918 -1.58732 0.352535 0
M  V30 3843 O 340.102 -1.80162 0.554438 0
M  V30 3844 C 337.229 -3.10148 1.3611 0
M  V30 3845 C 336.275 -3.42209 2.54549 0
M  V30 3846 S 337.108 -3.35989 4.16979 0
M  V30 3847 C 338.264 -4.76471 4.05865 0
M  V30 3848 H 338.497 -1.68665 2.44826 0
M  V30 3849 H 336.03 -0.775541 1.33509 0
M  V30 3850 H 337.988 -3.8972 1.28953 0
M  V30 3851 H 336.649 -3.11219 0.424451 0
M  V30 3852 H 335.842 -4.42652 2.40988 0
M  V30 3853 H 335.444 -2.70173 2.58617 0
M  V30 3854 H 337.736 -5.665 3.71596 0
M  V30 3855 H 338.679 -4.95089 5.06253 0
M  V30 3856 H 339.087 -4.52599 3.37364 0
M  V30 3857 N 338.485 -1.33259 -0.841409 0
M  V30 3858 C 339.395 -1.25332 -1.98316 0
M  V30 3859 C 340.411 -0.164364 -1.73222 0
M  V30 3860 O 341.587 -0.387486 -1.97637 0
M  V30 3861 C 338.652 -0.990078 -3.32262 0
M  V30 3862 C 337.713 -2.16879 -3.70489 0
M  V30 3863 C 336.946 -1.91801 -4.98044 0
M  V30 3864 O 337.169 -0.867075 -5.63771 0
M  V30 3865 O 336.103 -2.78267 -5.33714 0
M  V30 3866 H 339.929 -2.21344 -2.07944 0
M  V30 3867 H 337.514 -1.1328 -0.974058 0
M  V30 3868 H 339.396 -0.860321 -4.12524 0
M  V30 3869 H 338.071 -0.0602155 -3.23644 0
M  V30 3870 H 336.978 -2.35407 -2.90748 0
M  V30 3871 H 338.311 -3.0819 -3.8377 0
M  V30 3872 N 339.963 1.05934 -1.16686 0
M  V30 3873 C 340.893 2.1546 -0.899949 0
M  V30 3874 C 341.874 1.69391 0.155154 0
M  V30 3875 O 343.059 1.94199 0.00648693 0
M  V30 3876 C 340.189 3.44939 -0.404241 0
M  V30 3877 C 339.143 4.04536 -1.39767 0
M  V30 3878 C 338.469 5.29268 -0.760216 0
M  V30 3879 C 339.769 4.42893 -2.76845 0
M  V30 3880 H 341.463 2.38046 -1.81588 0
M  V30 3881 H 339.009 1.14404 -0.874514 0
M  V30 3882 H 340.962 4.20901 -0.204971 0
M  V30 3883 H 339.686 3.21983 0.547206 0
M  V30 3884 H 338.345 3.30635 -1.58355 0
M  V30 3885 H 337.993 5.02611 0.197831 0
M  V30 3886 H 337.693 5.70101 -1.42332 0
M  V30 3887 H 339.217 6.07924 -0.57105 0
M  V30 3888 H 340.631 5.09921 -2.62019 0
M  V30 3889 H 339.028 4.94721 -3.39663 0
M  V30 3890 H 340.098 3.53584 -3.31823 0
M  V30 3891 N 341.441 0.965919 1.2453 0
M  V30 3892 C 342.391 0.465731 2.23193 0
M  V30 3893 C 343.375 -0.451277 1.54442 0
M  V30 3894 O 344.567 -0.282489 1.74731 0
M  V30 3895 C 341.696 -0.244511 3.42428 0
M  V30 3896 C 340.782 0.691222 4.18429 0
M  V30 3897 N 341.173 1.82771 4.71623 0
M  V30 3898 C 339.471 0.501649 4.4317 0
M  V30 3899 C 340.172 2.41285 5.29298 0
M  V30 3900 N 339.148 1.69819 5.16394 0
M  V30 3901 H 342.95 1.33291 2.61937 0
M  V30 3902 H 340.464 0.824789 1.39896 0
M  V30 3903 H 342.461 -0.620056 4.12263 0
M  V30 3904 H 341.121 -1.10815 3.05205 0
M  V30 3905 H 342.132 2.20929 4.68413 0
M  V30 3906 H 338.809 -0.318177 4.16286 0
M  V30 3907 H 340.199 3.37181 5.8117 0
M  V30 3908 N 342.919 -1.39368 0.735821 0
M  V30 3909 C 344.147 -2.04795 0.294393 0
M  V30 3910 C 344.562 -1.55478 -1.07107 0
M  V30 3911 O 343.919 -0.720038 -1.67695 0
M  V30 3912 C 343.97 -3.6035 0.288071 0
M  V30 3913 O 343.691 -4.07852 1.59963 0
M  V30 3914 C 345.192 -4.42976 -0.169422 0
M  V30 3915 H 342.412 -0.658571 0.128551 0
M  V30 3916 H 344.956 -1.78399 0.999701 0
M  V30 3917 H 343.111 -3.85645 -0.368355 0
M  V30 3918 H 343.525 -5.02181 1.51375 0
M  V30 3919 H 344.999 -5.51864 -0.122687 0
M  V30 3920 H 345.476 -4.22068 -1.21472 0
M  V30 3921 H 346.082 -4.22832 0.457469 0
M  V30 3922 N 344.397 -0.483516 -1.5 0
M  V30 3923 C 345.674 0.129337 -1.95172 0
M  V30 3924 C 346.054 1.55802 -1.4244 0
M  V30 3925 O 345.402 2.19625 -0.630649 0
M  V30 3926 C 345.612 0.0599251 -3.48949 0
M  V30 3927 C 346.96 0.242617 -4.23906 0
M  V30 3928 O 347.984 0.135933 -3.55941 0
M  V30 3929 O 346.843 0.459454 -5.44565 0
M  V30 3930 H 343.937 0.104887 -0.820322 0
M  V30 3931 H 346.483 -0.544807 -1.60717 0
M  V30 3932 H 345.255 -0.937079 -3.79914 0
M  V30 3933 H 344.878 0.774984 -3.89974 0
M  V30 3934 N 345.875 1.56104 -0.216619 0
M  V30 3935 C 347.286 1.844 0.292128 0
M  V30 3936 C 347.637 1.13788 1.59833 0
M  V30 3937 O 346.762 0.405888 2.12559 0
M  V30 3938 C 347.357 3.3452 0.53681 0
M  V30 3939 C 345.916 3.63151 0.989876 0
M  V30 3940 C 345.063 2.77255 0.0502302 0
M  V30 3941 H 348.014 1.52481 -0.439926 0
M  V30 3942 H 348.035 3.54459 1.38345 0
M  V30 3943 H 347.547 3.85885 -0.414031 0
M  V30 3944 H 345.648 3.17238 1.95425 0
M  V30 3945 H 345.761 4.71177 0.867698 0
M  V30 3946 H 344.125 2.48555 0.556117 0
M  V30 3947 H 344.908 3.31416 -0.89544 0
M  V30 3948 N 347.353 -0.0568162 1.57498 0
M  V30 3949 C 348.3 -1.06591 2.04712 0
M  V30 3950 C 349.27 -1.3758 0.930644 0
M  V30 3951 O 350.455 -1.48392 1.19935 0
M  V30 3952 C 347.595 -2.3701 2.50839 0
M  V30 3953 C 346.708 -2.12421 3.76167 0
M  V30 3954 C 345.843 -3.36511 4.11015 0
M  V30 3955 C 344.882 -3.07353 5.2934 0
M  V30 3956 N 344.019 -4.23816 5.59754 0
M  V30 3957 H 348.859 -0.65631 2.90683 0
M  V30 3958 H 346.396 -0.312481 1.43743 0
M  V30 3959 H 348.354 -3.13175 2.7564 0
M  V30 3960 H 346.984 -2.75744 1.67825 0
M  V30 3961 H 346.036 -1.2688 3.58616 0
M  V30 3962 H 347.348 -1.86894 4.62463 0
M  V30 3963 H 346.502 -4.21062 4.36797 0
M  V30 3964 H 345.241 -3.65128 3.23315 0
M  V30 3965 H 344.246 -2.212 5.03339 0
M  V30 3966 H 345.471 -2.80043 6.1867 0
M  V30 3967 H 343.417 -4.52436 4.75014 0
M  V30 3968 H 343.334 -4.01614 6.40501 0
M  V30 3969 H 344.602 -5.0932 5.90096 0
M  V30 3970 N 348.832 -1.54138 -0.328536 0
M  V30 3971 C 349.742 -1.86192 -1.42723 0
M  V30 3972 C 350.758 -0.753382 -1.56844 0
M  V30 3973 O 351.934 -1.04718 -1.72035 0
M  V30 3974 C 348.999 -2.07824 -2.77507 0
M  V30 3975 C 348.06 -3.31641 -2.72603 0
M  V30 3976 C 347.293 -3.52232 -4.00959 0
M  V30 3977 O 347.516 -2.7636 -4.9898 0
M  V30 3978 O 346.45 -4.45699 -4.0452 0
M  V30 3979 H 350.276 -2.79608 -1.18547 0
M  V30 3980 H 347.861 -1.3998 -0.522104 0
M  V30 3981 H 349.743 -2.23411 -3.57303 0
M  V30 3982 H 348.418 -1.17596 -3.01584 0
M  V30 3983 H 347.325 -3.21444 -1.91376 0
M  V30 3984 H 348.658 -4.2191 -2.53481 0
M  V30 3985 N 350.31 0.590341 -1.46126 0
M  V30 3986 C 351.22 1.72793 -1.58681 0
M  V30 3987 C 352.236 1.67516 -0.470566 0
M  V30 3988 O 353.412 1.87562 -0.733642 0
M  V30 3989 C 350.477 3.09287 -1.5666 0
M  V30 3990 C 349.538 3.25886 -2.79458 0
M  V30 3991 C 348.771 4.55869 -2.77524 0
M  V30 3992 O 348.994 5.3928 -1.85832 0
M  V30 3993 O 347.928 4.75552 -3.68964 0
M  V30 3994 H 351.754 1.65149 -2.54872 0
M  V30 3995 H 349.339 0.756486 -1.28832 0
M  V30 3996 H 351.221 3.90577 -1.58202 0
M  V30 3997 H 349.896 3.17385 -0.636271 0
M  V30 3998 H 348.803 2.44119 -2.83472 0
M  V30 3999 H 350.136 3.22675 -3.71674 0
M  V30 4000 N 351.788 1.33704 0.83433 0
M  V30 4001 C 353.013 1.28615 1.62705 0
M  V30 4002 C 353.438 -0.139242 1.87584 0
M  V30 4003 O 352.796 -1.09734 1.4432 0
M  V30 4004 C 352.844 2.07139 2.95171 0
M  V30 4005 O 351.948 1.4331 3.86699 0
M  V30 4006 H 351.289 0.44226 0.49528 0
M  V30 4007 H 353.819 1.76335 1.03766 0
M  V30 4008 H 353.829 2.18073 3.44831 0
M  V30 4009 H 352.504 3.10779 2.76386 0
M  V30 4010 H 351.081 1.4105 3.45195 0
M  V30 4011 N 353.266 -1.05314 1.17247 0
M  V30 4012 C 354.514 -1.77941 0.958194 0
M  V30 4013 C 354.835 -1.88089 -0.514556 0
M  V30 4014 O 354.105 -1.39676 -1.37359 0
M  V30 4015 H 352.685 -0.659116 0.351533 0
M  V30 4016 H 355.347 -1.27166 1.47699 0
M  V30 4017 H 354.443 -2.79663 1.38546 0
M  V30 4018 N 354.744 -0.972509 -1.24016 0
M  V30 4019 C 355.691 -0.505969 -2.25186 0
M  V30 4020 C 356.661 0.451009 -1.5986 0
M  V30 4021 O 357.846 0.360307 -1.87367 0
M  V30 4022 C 354.986 0.193089 -3.44559 0
M  V30 4023 C 354.099 -0.803222 -4.24467 0
M  V30 4024 C 353.234 -0.0797793 -5.3114 0
M  V30 4025 C 352.273 -1.06583 -6.02749 0
M  V30 4026 N 351.41 -0.372074 -7.01113 0
M  V30 4027 H 356.25 -1.37351 -2.64459 0
M  V30 4028 H 353.787 -0.688419 -1.29997 0
M  V30 4029 H 355.745 0.615125 -4.1264 0
M  V30 4030 H 354.375 1.02455 -3.06109 0
M  V30 4031 H 353.427 -1.34368 -3.55878 0
M  V30 4032 H 354.739 -1.55494 -4.73944 0
M  V30 4033 H 353.893 0.400015 -6.0538 0
M  V30 4034 H 352.632 0.704597 -4.82583 0
M  V30 4035 H 351.637 -1.55645 -5.27309 0
M  V30 4036 H 352.862 -1.85074 -6.53395 0
M  V30 4037 H 350.808 0.393238 -6.5482 0
M  V30 4038 H 350.725 -1.06258 -7.48495 0
M  V30 4039 H 351.993 0.0855932 -7.79453 0
M  V30 4040 N 356.222 1.38976 -0.743202 0
M  V30 4041 C 357.17 2.32394 -0.0978389 0
M  V30 4042 C 358.164 1.53486 0.716824 0
M  V30 4043 O 359.37 1.69092 0.617088 0
M  V30 4044 H 355.745 0.75189 -0.0128402 0
M  V30 4045 H 357.716 2.84441 -0.901981 0
M  V30 4046 C 356.465 3.38629 0.789036 0
M  V30 4047 H 355.788 3.99432 0.171559 0
M  V30 4048 H 357.228 4.06426 1.20807 0
M  V30 4049 C 355.687 2.76347 1.92702 0
M  V30 4050 O 356.217 2.64836 3.02034 0
M  V30 4051 N 354.423 2.34311 1.71891 0
M  V30 4052 H 353.97 2.43873 0.829675 0
M  V30 4053 H 353.928 1.9298 2.48205 0
M  V30 4054 N 357.7 0.491464 1.49741 0
M  V30 4055 C 358.946 -0.0565092 2.02721 0
M  V30 4056 C 359.279 -1.37522 1.37118 0
M  V30 4057 O 358.554 -1.87866 0.503645 0
M  V30 4058 C 358.837 -0.219051 3.59433 0
M  V30 4059 C 358.69 1.12211 4.35579 0
M  V30 4060 C 360.009 -0.964157 4.29409 0
M  V30 4061 H 357.128 -0.0190627 0.736753 0
M  V30 4062 H 359.77 0.641021 1.7886 0
M  V30 4063 H 357.92 -0.813165 3.79895 0
M  V30 4064 H 359.592 1.75437 4.26637 0
M  V30 4065 H 357.835 1.71377 3.98513 0
M  V30 4066 H 358.506 0.961794 5.43556 0
M  V30 4067 H 360.982 -0.460378 4.13545 0
M  V30 4068 H 359.858 -1.04671 5.38828 0
M  V30 4069 H 360.119 -2.00563 3.93988 0
M  V30 4070 N 359.178 -1.55987 0.224894 0
M  V30 4071 C 360.126 -2.21808 -0.700283 0
M  V30 4072 C 361.12 -1.19854 -1.19714 0
M  V30 4073 O 362.326 -1.37925 -1.15658 0
M  V30 4074 H 358.701 -0.711226 -0.244258 0
M  V30 4075 H 360.672 -2.98152 -0.121749 0
M  V30 4076 C 359.421 -2.91444 -1.8962 0
M  V30 4077 H 358.744 -3.69655 -1.52299 0
M  V30 4078 H 360.184 -3.40894 -2.52125 0
M  V30 4079 C 358.643 -1.94098 -2.75368 0
M  V30 4080 O 359.173 -1.46004 -3.74227 0
M  V30 4081 N 357.379 -1.61675 -2.41474 0
M  V30 4082 H 356.926 -2.00979 -1.61137 0
M  V30 4083 H 356.884 -0.968036 -2.99126 0
M  V30 4084 N 360.656 0.0484629 -1.57525 0
M  V30 4085 C 361.619 1.03956 -2.04269 0
M  V30 4086 C 362.619 1.30211 -0.943496 0
M  V30 4087 O 363.809 1.25539 -1.20771 0
M  V30 4088 C 360.941 2.37742 -2.44319 0
M  V30 4089 H 362.134 0.636182 -2.93075 0
M  V30 4090 H 359.687 0.294811 -1.53494 0
M  V30 4091 H 360.422 2.82866 -1.5861 0
M  V30 4092 H 360.207 2.20021 -3.24551 0
M  V30 4093 H 361.697 3.08936 -2.80978 0
M  V30 4094 N 362.134 1.5431 0.320358 0
M  V30 4095 C 363.064 1.86912 1.3995 0
M  V30 4096 C 364.045 0.726211 1.53819 0
M  V30 4097 O 365.23 0.980233 1.67646 0
M  V30 4098 C 362.36 2.09932 2.7667 0
M  V30 4099 C 361.314 3.25776 2.77586 0
M  V30 4100 C 360.64 3.34173 4.17412 0
M  V30 4101 C 361.94 4.6335 2.41048 0
M  V30 4102 H 363.634 2.77292 1.12914 0
M  V30 4103 H 361.18 1.33421 0.541738 0
M  V30 4104 H 363.133 2.31324 3.52232 0
M  V30 4105 H 361.857 1.16304 3.0519 0
M  V30 4106 H 360.516 3.04276 2.04479 0
M  V30 4107 H 360.164 2.38098 4.43078 0
M  V30 4108 H 359.864 4.12033 4.18931 0
M  V30 4109 H 361.388 3.57803 4.94782 0
M  V30 4110 H 362.802 4.84602 3.06324 0
M  V30 4111 H 361.199 5.43782 2.53813 0
M  V30 4112 H 362.269 4.65381 1.36193 0
M  V30 4113 N 363.613 -0.582584 1.46437 0
M  V30 4114 C 365.024 -1.1647 1.45916 0
M  V30 4115 C 365.375 -1.95177 0.200077 0
M  V30 4116 O 364.5 -2.04874 -0.696819 0
M  V30 4117 C 365.095 -2.11885 2.64367 0
M  V30 4118 C 363.654 -2.65421 2.66887 0
M  V30 4119 C 362.801 -1.41294 2.38603 0
M  V30 4120 H 365.752 -0.370514 1.54314 0
M  V30 4121 H 365.773 -2.9535 2.39892 0
M  V30 4122 H 365.285 -1.54573 3.5599 0
M  V30 4123 H 363.386 -3.26602 1.79338 0
M  V30 4124 H 363.499 -3.08147 3.66854 0
M  V30 4125 H 361.863 -1.71109 1.88663 0
M  V30 4126 H 362.646 -0.858125 3.32402 0
M  V30 4127 N 365.091 -1.34144 -0.827227 0
M  V30 4128 C 366.001 -1.27428 -1.96975 0
M  V30 4129 C 367.017 -0.182728 -1.73038 0
M  V30 4130 O 368.193 -0.408426 -1.97215 0
M  V30 4131 C 365.258 -1.02526 -3.31194 0
M  V30 4132 C 364.319 -2.20796 -3.68168 0
M  V30 4133 C 363.552 -1.97073 -4.95982 0
M  V30 4134 O 363.775 -0.926822 -5.6282 0
M  V30 4135 O 362.709 -2.83912 -5.30733 0
M  V30 4136 H 366.535 -2.23537 -2.05584 0
M  V30 4137 H 364.12 -1.14307 -0.961989 0
M  V30 4138 H 366.002 -0.904026 -4.11589 0
M  V30 4139 H 364.677 -0.0945389 -3.23562 0
M  V30 4140 H 363.584 -2.38477 -2.88235 0
M  V30 4141 H 364.917 -3.12243 -3.8048 0
M  V30 4142 N 366.569 1.04691 -1.17803 0
M  V30 4143 C 367.794 1.81984 -0.994813 0
M  V30 4144 C 368.219 1.82586 0.452112 0
M  V30 4145 O 367.577 1.23854 1.324 0
M  V30 4146 C 367.625 3.2575 -1.54659 0
M  V30 4147 O 366.729 4.05267 -0.763728 0
M  V30 4148 H 366.07 0.562483 -0.352857 0
M  V30 4149 H 368.6 1.3189 -1.56417 0
M  V30 4150 H 368.61 3.76541 -1.57102 0
M  V30 4151 H 367.285 3.24627 -2.59981 0
M  V30 4152 H 365.862 3.63972 -0.811108 0
M  V30 4153 N 368.047 0.979072 1.23499 0
M  V30 4154 C 368.994 0.517904 2.24914 0
M  V30 4155 C 369.964 -0.442525 1.60097 0
M  V30 4156 O 371.149 -0.350365 1.87556 0
M  V30 4157 C 368.289 -0.174813 3.44657 0
M  V30 4158 C 367.402 0.825721 4.24035 0
M  V30 4159 C 366.537 0.107946 5.3109 0
M  V30 4160 C 365.576 1.09778 6.02175 0
M  V30 4161 N 364.713 0.40925 7.00906 0
M  V30 4162 H 369.553 1.38751 2.63727 0
M  V30 4163 H 367.09 0.695303 1.2963 0
M  V30 4164 H 369.048 -0.593233 4.12961 0
M  V30 4165 H 367.678 -1.0083 3.06648 0
M  V30 4166 H 366.73 1.36253 3.55161 0
M  V30 4167 H 368.042 1.58005 4.73113 0
M  V30 4168 H 367.196 -0.367904 6.05583 0
M  V30 4169 H 365.935 -0.678994 4.8295 0
M  V30 4170 H 364.94 1.5844 5.26476 0
M  V30 4171 H 366.165 1.88536 6.52404 0
M  V30 4172 H 364.111 -0.358506 6.5502 0
M  V30 4173 H 364.028 1.10226 7.47921 0
M  V30 4174 H 365.296 -0.0442557 7.79487 0
M  V30 4175 N 369.525 -1.3858 0.750561 0
M  V30 4176 C 370.435 -2.34278 0.122825 0
M  V30 4177 C 371.451 -1.59116 -0.704131 0
M  V30 4178 O 372.627 -1.91326 -0.628987 0
M  V30 4179 C 369.692 -3.38221 -0.762086 0
M  V30 4180 C 368.753 -4.29227 0.078896 0
M  V30 4181 C 367.986 -5.28205 -0.763874 0
M  V30 4182 O 368.209 -5.34112 -2.00201 0
M  V30 4183 O 367.143 -6.01618 -0.18428 0
M  V30 4184 H 370.969 -2.89649 0.913088 0
M  V30 4185 H 368.554 -1.40374 0.511417 0
M  V30 4186 H 370.436 -4.01872 -1.26793 0
M  V30 4187 H 369.111 -2.85211 -1.5309 0
M  V30 4188 H 368.018 -3.68747 0.630621 0
M  V30 4189 H 369.351 -4.85484 0.810289 0
M  V30 4190 N 371.003 -0.499398 -1.49478 0
M  V30 4191 C 371.966 0.268838 -2.27618 0
M  V30 4192 C 372.966 0.895383 -1.33565 0
M  V30 4193 O 374.156 0.760164 -1.56739 0
M  V30 4194 C 371.288 1.38559 -3.11471 0
M  V30 4195 H 372.481 -0.416812 -2.96989 0
M  V30 4196 H 370.034 -0.254313 -1.54217 0
M  V30 4197 H 370.769 2.10544 -2.46661 0
M  V30 4198 H 370.554 0.941797 -3.80621 0
M  V30 4199 H 372.044 1.92678 -3.70493 0
M  V30 4200 N 372.481 1.55866 -0.233164 0
M  V30 4201 C 373.709 2.02998 0.399905 0
M  V30 4202 C 374.124 1.11274 1.52524 0
M  V30 4203 O 373.481 0.124528 1.82075 0
M  V30 4204 C 373.532 3.4958 0.920639 0
M  V30 4205 O 373.253 4.37808 -0.159834 0
M  V30 4206 C 374.754 4.12411 1.62578 0
M  V30 4207 H 371.974 0.664006 0.0966281 0
M  V30 4208 H 374.518 2.0143 -0.353013 0
M  V30 4209 H 372.673 3.51727 1.62379 0
M  V30 4210 H 373.087 5.23981 0.23337 0
M  V30 4211 H 374.561 5.16711 1.94201 0
M  V30 4212 H 375.038 3.5809 2.54299 0
M  V30 4213 H 375.644 4.14148 0.967553 0
M  V30 4214 N 373.959 -0.0401083 1.57549 0
M  V30 4215 C 374.907 -1.06264 2.06908 0
M  V30 4216 C 375.901 -1.38132 0.980608 0
M  V30 4217 O 377.107 -1.37167 1.16556 0
M  V30 4218 H 373.482 -0.360166 0.660139 0
M  V30 4219 H 375.453 -0.620445 2.91878 0
M  V30 4220 C 374.202 -2.35846 2.55483 0
M  V30 4221 H 373.525 -2.12183 3.38849 0
M  V30 4222 H 374.965 -3.05765 2.93741 0
M  V30 4223 C 373.424 -3.0404 1.45126 0
M  V30 4224 O 373.954 -3.93424 0.811216 0
M  V30 4225 N 372.16 -2.65184 1.18852 0
M  V30 4226 H 371.707 -1.92584 1.71083 0
M  V30 4227 H 371.665 -3.1113 0.452244 0
M  V30 4228 N 375.437 -1.54477 -0.31217 0
M  V30 4229 C 376.686 -1.72438 -1.04633 0
M  V30 4230 C 376.999 -0.511163 -1.88803 0
M  V30 4231 O 378.205 -0.572341 -2.65399 0
M  V30 4232 C 376.661 -3.05043 -1.9099 0
M  V30 4233 C 376.269 -4.33806 -1.11877 0
M  V30 4234 C 378.013 -3.32364 -2.64073 0
M  V30 4235 C 375.92 -5.57467 -1.97445 0
M  V30 4236 H 374.85 -0.642647 -0.394361 0
M  V30 4237 H 377.501 -1.80966 -0.303929 0
M  V30 4238 H 375.883 -2.90451 -2.69173 0
M  V30 4239 H 377.057 -4.59199 -0.383843 0
M  V30 4240 H 375.372 -4.13336 -0.504252 0
M  V30 4241 H 377.969 -4.21951 -3.28423 0
M  V30 4242 H 378.312 -2.50745 -3.32314 0
M  V30 4243 H 378.845 -3.47875 -1.92944 0
M  V30 4244 H 375.584 -6.41722 -1.33692 0
M  V30 4245 H 375.104 -5.36277 -2.6864 0
M  V30 4246 H 376.783 -5.94303 -2.5576 0
M  V30 4247 N 376.915 0.57481 -1.46744 0
M  V30 4248 C 377.845 1.69337 -1.60771 0
M  V30 4249 C 378.826 1.63825 -0.457736 0
M  V30 4250 O 380.011 1.8172 -0.684947 0
M  V30 4251 C 377.141 3.0798 -1.60517 0
M  V30 4252 C 376.095 3.28327 -2.74564 0
M  V30 4253 C 375.421 4.67578 -2.59373 0
M  V30 4254 C 376.721 3.15398 -4.16319 0
M  V30 4255 H 378.415 1.57853 -2.54407 0
M  V30 4256 H 375.961 0.75799 -1.22436 0
M  V30 4257 H 377.914 3.86061 -1.68923 0
M  V30 4258 H 376.638 3.20381 -0.634305 0
M  V30 4259 H 375.297 2.52649 -2.65639 0
M  V30 4260 H 374.945 4.76755 -1.60353 0
M  V30 4261 H 374.645 4.82144 -3.35873 0
M  V30 4262 H 376.169 5.47817 -2.69682 0
M  V30 4263 H 377.583 3.83315 -4.26313 0
M  V30 4264 H 375.98 3.41482 -4.93468 0
M  V30 4265 H 377.05 2.12372 -4.3592 0
M  V30 4266 N 378.394 1.34581 0.820102 0
M  V30 4267 C 379.622 1.3018 1.60813 0
M  V30 4268 C 380.037 -0.123551 1.88395 0
M  V30 4269 O 379.394 -1.07148 1.47735 0
M  V30 4270 C 379.445 2.09312 2.94739 0
M  V30 4271 O 379.166 3.46288 2.68358 0
M  V30 4272 C 380.667 2.1234 3.89136 0
M  V30 4273 H 377.887 0.447726 0.499782 0
M  V30 4274 H 380.431 1.77237 1.02017 0
M  V30 4275 H 378.586 1.65889 3.50085 0
M  V30 4276 H 379 3.87227 3.53774 0
M  V30 4277 H 380.474 2.72126 4.80262 0
M  V30 4278 H 380.951 1.11854 4.24718 0
M  V30 4279 H 381.557 2.55864 3.39726 0
M  V30 4280 N 379.872 -1.04064 1.18357 0
M  V30 4281 C 380.835 -2.10243 0.912707 0
M  V30 4282 C 381.835 -1.60477 -0.101928 0
M  V30 4283 O 383.025 -1.73703 0.131517 0
M  V30 4284 C 380.157 -3.38893 0.369387 0
M  V30 4285 H 381.35 -2.35706 1.85426 0
M  V30 4286 H 378.903 -1.20489 0.995594 0
M  V30 4287 H 379.638 -3.19094 -0.578776 0
M  V30 4288 H 379.423 -3.76331 1.1008 0
M  V30 4289 H 380.913 -4.17128 0.198575 0
M  V30 4290 N 381.35 -0.985608 -1.22978 0
M  V30 4291 C 382.26 -0.538548 -2.28335 0
M  V30 4292 C 383.276 0.409163 -1.69121 0
M  V30 4293 O 384.452 0.277797 -1.99475 0
M  V30 4294 C 381.517 0.146867 -3.46389 0
M  V30 4295 C 380.578 -0.842896 -4.20944 0
M  V30 4296 C 379.811 -0.190095 -5.33361 0
M  V30 4297 O 380.034 1.01767 -5.61248 0
M  V30 4298 O 378.968 -0.891289 -5.95264 0
M  V30 4299 H 382.794 -1.41487 -2.68729 0
M  V30 4300 H 380.379 -0.753495 -1.29007 0
M  V30 4301 H 382.261 0.531125 -4.1804 0
M  V30 4302 H 380.936 0.997871 -3.07935 0
M  V30 4303 H 379.843 -1.27795 -3.51595 0
M  V30 4304 H 381.176 -1.66287 -4.6326 0
M  V30 4305 N 382.828 1.3818 -0.7579 0
M  V30 4306 C 383.758 2.33027 -0.148597 0
M  V30 4307 C 384.739 1.55085 0.69875 0
M  V30 4308 O 385.924 1.83384 0.639053 0
M  V30 4309 C 383.054 3.3928 0.742034 0
M  V30 4310 C 382.008 4.28 -0.00291946 0
M  V30 4311 C 381.334 5.25146 1.00625 0
M  V30 4312 C 382.634 5.08938 -1.17385 0
M  V30 4313 H 384.328 2.84231 -0.940909 0
M  V30 4314 H 381.874 1.36659 -0.453908 0
M  V30 4315 H 383.827 4.046 1.17799 0
M  V30 4316 H 382.551 2.86569 1.56671 0
M  V30 4317 H 381.21 3.64192 -0.419504 0
M  V30 4318 H 380.858 4.68721 1.8251 0
M  V30 4319 H 380.558 5.85361 0.512428 0
M  V30 4320 H 382.082 5.93342 1.44143 0
M  V30 4321 H 383.496 5.67474 -0.815224 0
M  V30 4322 H 381.893 5.7841 -1.59882 0
M  V30 4323 H 382.963 4.42424 -1.98468 0
M  V30 4324 N 384.306 0.507319 1.49211 0
M  V30 4325 C 385.253 -0.267728 2.29242 0
M  V30 4326 C 386.223 -0.954609 1.35928 0
M  V30 4327 O 387.408 -0.960046 1.64887 0
M  V30 4328 C 384.548 -1.32243 3.18756 0
M  V30 4329 C 383.661 -0.64669 4.27132 0
M  V30 4330 C 382.796 -1.68238 5.03855 0
M  V30 4331 C 381.835 -0.98885 6.0406 0
M  V30 4332 N 380.972 -1.96903 6.73924 0
M  V30 4333 H 385.812 0.420968 2.95012 0
M  V30 4334 H 383.349 0.219443 1.45454 0
M  V30 4335 H 385.307 -1.94599 3.69036 0
M  V30 4336 H 383.937 -1.97981 2.54958 0
M  V30 4337 H 382.989 0.0902926 3.80293 0
M  V30 4338 H 384.301 -0.101058 4.98698 0
M  V30 4339 H 383.455 -2.38081 5.58034 0
M  V30 4340 H 382.194 -2.26187 4.32077 0
M  V30 4341 H 381.199 -0.276222 5.49106 0
M  V30 4342 H 382.424 -0.415767 6.77826 0
M  V30 4343 H 380.37 -2.53803 6.04913 0
M  V30 4344 H 380.287 -1.47423 7.41487 0
M  V30 4345 H 381.555 -2.66015 7.32705 0
M  V30 4346 N 385.784 -1.5574 0.241426 0
M  V30 4347 C 386.734 -2.17803 -0.674233 0
M  V30 4348 C 387.718 -1.13225 -1.14319 0
M  V30 4349 O 388.91 -1.39153 -1.09387 0
M  V30 4350 C 386.039 -2.87682 -1.87333 0
M  V30 4351 C 385.125 -3.99509 -1.42313 0
M  V30 4352 N 385.516 -5.01115 -0.686798 0
M  V30 4353 C 383.814 -4.11964 -1.70885 0
M  V30 4354 C 384.515 -5.79922 -0.454456 0
M  V30 4355 N 383.491 -5.34001 -1.01705 0
M  V30 4356 H 387.293 -2.93718 -0.103447 0
M  V30 4357 H 384.807 -1.62342 0.0435095 0
M  V30 4358 H 386.804 -3.3057 -2.54026 0
M  V30 4359 H 385.464 -2.13269 -2.4484 0
M  V30 4360 H 386.475 -5.16799 -0.337459 0
M  V30 4361 H 383.152 -3.48718 -2.2957 0
M  V30 4362 H 384.542 -6.71768 0.132992 0
M  V30 4363 O 387.301 -0.105854 -1.61153 0
M  V30 4364 H 387.992 0.494986 -1.87269 0
M  V30 END ATOM
M  V30 BEGIN BOND
M  V30 END BOND
M  V30 END CTAB
M  END
$$$$
