drugbank_target|P00137 Cytochrome c3 (DB03317)
 OpenBabel12092120273D

  0  0  0     0  0            999 V3000
M  V30 BEGIN CTAB
M  V30 COUNTS 1003 1012 0 0 0
M  V30 BEGIN ATOM
M  V30 1 H -0.908 1.98254 -0.117106 0
M  V30 2 N 0 1.576 0 0
M  V30 3 C 0.963 2.07369 0.976253 0
M  V30 4 C 1.963 0.98309 1.27248 0
M  V30 5 O 3.153 1.24574 1.21766 0
M  V30 6 C 0.285 2.51514 2.30116 0
M  V30 7 H 1.478 2.94892 0.545759 0
M  V30 8 H -0.969 1.54328 0.247471 0
M  V30 9 H -0.234 1.67234 2.77855 0
M  V30 10 H -0.449 3.31163 2.09937 0
M  V30 11 H 1.041 2.90345 3.00149 0
M  V30 12 N 1.4781 -0.272755 1.55222 0
M  V30 13 C 2.7551 -1.02562 1.66555 0
M  V30 14 C 3.1351 -2.04282 0.532189 0
M  V30 15 O 2.4831 -2.23662 -0.467717 0
M  V30 16 C 2.6931 -1.6822 3.05782 0
M  V30 17 C 4.0411 -2.19373 3.63539 0
M  V30 18 O 5.0651 -1.78206 3.08417 0
M  V30 19 O 3.9241 -2.94883 4.60115 0
M  V30 20 H 1.0181 -0.475755 0.676451 0
M  V30 21 H 3.5641 -0.268593 1.67561 0
M  V30 22 H 2.3361 -0.945112 3.79715 0
M  V30 23 H 1.9591 -2.50609 3.08676 0
M  V30 24 N 2.9562 -1.48159 -0.537278 0
M  V30 25 C 4.2022 -1.56035 -1.29541 0
M  V30 26 C 4.5352 -0.230377 -1.92829 0
M  V30 27 O 3.8102 0.762952 -1.78911 0
M  V30 28 C 4.0932 -2.69323 -2.39034 0
M  V30 29 C 3.9462 -4.12002 -1.80485 0
M  V30 30 C 5.2652 -2.78408 -3.40847 0
M  V30 31 H 2.3842 -0.567992 -0.469632 0
M  V30 32 H 5.0262 -1.80302 -0.599277 0
M  V30 33 H 3.1762 -2.48763 -2.98412 0
M  V30 34 H 4.8482 -4.43981 -1.25215 0
M  V30 35 H 3.0912 -4.19344 -1.11055 0
M  V30 36 H 3.7622 -4.87077 -2.59731 0
M  V30 37 H 6.2382 -2.97012 -2.91416 0
M  V30 38 H 5.1142 -3.59416 -4.14863 0
M  V30 39 H 5.3752 -1.86269 -4.00944 0
M  V30 40 N 4.4343 0.785586 -1.36625 0
M  V30 41 C 5.6803 1.54591 -1.31261 0
M  V30 42 C 6.0133 1.93906 0.106823 0
M  V30 43 O 5.2883 1.63007 1.06108 0
M  V30 44 C 5.5713 2.82038 -2.23889 0
M  V30 45 C 5.4243 2.49066 -3.74548 0
M  V30 46 C 6.7433 3.83887 -2.15217 0
M  V30 47 H 3.8623 0.560846 -0.478143 0
M  V30 48 H 6.5043 0.902278 -1.67209 0
M  V30 49 H 4.6543 3.36961 -1.93363 0
M  V30 50 H 6.3263 2.00164 -4.15611 0
M  V30 51 H 4.5693 1.81954 -3.93796 0
M  V30 52 H 5.2403 3.40109 -4.34776 0
M  V30 53 H 7.7163 3.38421 -2.42096 0
M  V30 54 H 6.5923 4.70806 -2.82193 0
M  V30 55 H 6.8533 4.27131 -1.14068 0
M  V30 56 N 5.9124 1.20967 1.01018 0
M  V30 57 C 7.1404 1.04956 1.78303 0
M  V30 58 C 7.5554 -0.400915 1.84494 0
M  V30 59 O 6.9124 -1.27826 1.30257 0
M  V30 60 C 6.9634 1.63403 3.22462 0
M  V30 61 O 6.6844 3.02775 3.16637 0
M  V30 62 C 8.1854 1.52432 4.16268 0
M  V30 63 H 5.4054 0.368858 0.560522 0
M  V30 64 H 7.9494 1.60193 1.27116 0
M  V30 65 H 6.1044 1.1227 3.70775 0
M  V30 66 H 6.5184 3.30626 4.07169 0
M  V30 67 H 7.9924 1.98078 5.15237 0
M  V30 68 H 8.4694 0.477875 4.36592 0
M  V30 69 H 9.0754 2.02787 3.73841 0
M  V30 70 N 7.3905 -1.2043 1.01659 0
M  V30 71 C 8.6205 -1.93496 0.724081 0
M  V30 72 C 9.0285 -1.74998 -0.71918 0
M  V30 73 O 8.3715 -1.06118 -1.49949 0
M  V30 74 C 8.4335 -3.45886 0.97994 0
M  V30 75 C 8.0975 -3.88145 2.41232 0
M  V30 76 C 9.0945 -3.93907 3.39313 0
M  V30 77 C 6.7795 -4.20134 2.75305 0
M  V30 78 C 8.7735 -4.31069 4.6953 0
M  V30 79 C 6.4605 -4.56971 4.05735 0
M  V30 80 C 7.4585 -4.62411 5.02658 0
M  V30 81 O 7.1465 -4.98403 6.30754 0
M  V30 82 H 6.8785 -0.621824 0.265162 0
M  V30 83 H 9.4325 -1.53867 1.36066 0
M  V30 84 H 7.6625 -3.85639 0.286198 0
M  V30 85 H 9.3515 -4.0018 0.679021 0
M  V30 86 H 10.1175 -3.69357 3.14325 0
M  V30 87 H 5.9965 -4.1509 2.00551 0
M  V30 88 H 9.5405 -4.3523 5.45179 0
M  V30 89 H 5.4375 -4.80977 4.30502 0
M  V30 90 H 6.2055 -5.16395 6.35042 0
M  V30 91 N 8.8686 -0.792821 -1.36206 0
M  V30 92 C 9.7786 -0.194808 -2.3379 0
M  V30 93 C 10.7946 0.654869 -1.61206 0
M  V30 94 O 11.9706 0.569856 -1.9317 0
M  V30 95 C 9.0356 0.657721 -3.40404 0
M  V30 96 C 8.0966 -0.210849 -4.28782 0
M  V30 97 C 7.3296 0.601086 -5.30304 0
M  V30 98 O 7.5526 1.83682 -5.40016 0
M  V30 99 O 6.4866 -0.000808277 -6.019 0
M  V30 100 H 10.3126 -1.00172 -2.86704 0
M  V30 101 H 7.8976 -0.554341 -1.38735 0
M  V30 102 H 9.7796 1.14375 -4.05581 0
M  V30 103 H 8.4546 1.44247 -2.89784 0
M  V30 104 H 7.3616 -0.743714 -3.66633 0
M  V30 105 H 8.6946 -0.959195 -4.82763 0
M  V30 106 N 10.3467 1.47872 -0.545128 0
M  V30 107 C 11.2947 2.31533 0.222512 0
M  V30 108 C 12.2887 1.42177 0.920985 0
M  V30 109 O 13.4947 1.59005 0.843645 0
M  V30 110 H 9.8697 0.746519 0.0906278 0
M  V30 111 H 11.8407 2.94139 -0.50246 0
M  V30 112 C 10.5897 3.2457 1.24699 0
M  V30 113 H 9.9127 3.93283 0.718944 0
M  V30 114 H 11.3527 3.85963 1.75523 0
M  V30 115 C 9.8117 2.47237 2.28856 0
M  V30 116 O 10.3417 2.20808 3.35569 0
M  V30 117 N 8.5477 2.08461 2.02466 0
M  V30 118 H 8.0947 2.30155 1.157 0
M  V30 119 H 8.0527 1.57033 2.72375 0
M  V30 120 N 11.8248 0.280983 1.55075 0
M  V30 121 C 12.7718 -0.603937 2.22758 0
M  V30 122 C 13.7418 -1.1452 1.20309 0
M  V30 123 O 14.9268 -1.19343 1.48869 0
M  V30 124 C 12.0668 -1.77947 2.95684 0
M  V30 125 C 11.1798 -1.2715 4.12864 0
M  V30 126 C 10.3148 -2.4093 4.7342 0
M  V30 127 C 9.3538 -1.87165 5.82783 0
M  V30 128 N 8.4908 -2.94441 6.37377 0
M  V30 129 H 13.3308 -0.020124 2.97993 0
M  V30 130 H 10.8678 0.00183425 1.471 0
M  V30 131 H 12.8258 -2.47055 3.36184 0
M  V30 132 H 11.4558 -2.33522 2.22861 0
M  V30 133 H 10.5078 -0.473331 3.77444 0
M  V30 134 H 11.8198 -0.837751 4.91715 0
M  V30 135 H 10.9738 -3.18021 5.1667 0
M  V30 136 H 9.7128 -2.87623 3.93859 0
M  V30 137 H 8.7178 -1.08556 5.38976 0
M  V30 138 H 9.9428 -1.41401 6.64216 0
M  V30 139 H 7.8888 -3.40505 5.60707 0
M  V30 140 H 7.8058 -2.55501 7.11516 0
M  V30 141 H 9.0738 -3.71489 6.85285 0
M  V30 142 N 13.3029 -1.57598 0.00835791 0
M  V30 143 C 14.2499 -2.08945 -0.980346 0
M  V30 144 C 15.2199 -0.986738 -1.33614 0
M  V30 145 O 16.4049 -1.25968 -1.43306 0
M  V30 146 C 13.5449 -2.60425 -2.26435 0
M  V30 147 C 12.6579 -3.84628 -1.96685 0
M  V30 148 C 11.7929 -4.24579 -3.19228 0
M  V30 149 C 10.8319 -5.41596 -2.85202 0
M  V30 150 N 9.9689 -5.768 -4.00307 0
M  V30 151 H 14.8089 -2.93148 -0.535551 0
M  V30 152 H 12.3459 -1.44912 -0.252776 0
M  V30 153 H 14.3039 -2.88354 -3.01509 0
M  V30 154 H 12.9339 -1.79083 -2.68568 0
M  V30 155 H 11.9859 -3.63556 -1.11942 0
M  V30 156 H 13.2979 -4.69796 -1.67611 0
M  V30 157 H 12.4519 -4.53834 -4.02641 0
M  V30 158 H 11.1909 -3.38137 -3.51447 0
M  V30 159 H 10.1959 -5.12056 -2.00198 0
M  V30 160 H 11.4209 -6.29721 -2.54222 0
M  V30 161 H 9.3669 -4.93316 -4.32407 0
M  V30 162 H 9.2839 -6.5656 -3.74786 0
M  V30 163 H 10.5519 -6.10652 -4.84484 0
M  V30 164 N 14.781 0.264519 -1.55364 0
M  V30 165 C 16.029 0.993021 -1.76021 0
M  V30 166 C 16.35 1.86511 -0.569099 0
M  V30 167 O 15.62 1.91438 0.415735 0
M  V30 168 H 14.2 0.369639 -0.649135 0
M  V30 169 H 16.862 0.286707 -1.9278 0
M  V30 170 H 15.958 1.62502 -2.66457 0
M  V30 171 N 16.2591 1.48442 0.529413 0
M  V30 172 C 17.2071 1.63452 1.65487 0
M  V30 173 C 18.2011 0.500955 1.61823 0
M  V30 174 O 19.4071 0.679695 1.66674 0
M  V30 175 H 15.7821 0.514905 0.548066 0
M  V30 176 H 17.7531 2.57975 1.49971 0
M  V30 177 C 16.5021 1.69196 3.03756 0
M  V30 178 H 15.8251 2.55784 3.07269 0
M  V30 179 H 17.2651 1.83743 3.82119 0
M  V30 180 C 15.7241 0.430765 3.34135 0
M  V30 181 O 16.2541 -0.4561 3.99102 0
M  V30 182 N 14.4601 0.302293 2.89023 0
M  V30 183 H 14.0071 1.02496 2.36331 0
M  V30 184 H 13.9651 -0.540546 3.09718 0
M  V30 185 N 17.7372 -0.778329 1.37039 0
M  V30 186 C 18.9832 -1.53892 1.32079 0
M  V30 187 C 19.3162 -1.9396 -0.0965386 0
M  V30 188 O 18.5912 -1.63568 -1.05242 0
M  V30 189 C 18.8742 -2.80847 2.25382 0
M  V30 190 C 18.7272 -2.47076 3.75864 0
M  V30 191 C 20.0462 -3.82741 2.1725 0
M  V30 192 H 17.1652 -0.558303 0.48111 0
M  V30 193 H 19.8072 -0.893397 1.67685 0
M  V30 194 H 17.9572 -3.35931 1.95148 0
M  V30 195 H 19.6292 -1.97957 4.16666 0
M  V30 196 H 17.8722 -1.79863 3.94755 0
M  V30 197 H 18.5432 -3.37798 4.36574 0
M  V30 198 H 21.0192 -3.37133 2.43887 0
M  V30 199 H 19.8952 -4.69303 2.84686 0
M  V30 200 H 20.1562 -4.2652 1.16331 0
M  V30 201 N 19.2153 -1.21501 -1.00376 0
M  V30 202 C 20.4433 -1.059 -1.77744 0
M  V30 203 C 20.8583 0.391125 -1.84704 0
M  V30 204 O 20.2153 1.27133 -1.30933 0
M  V30 205 C 20.2663 -1.65111 -3.21591 0
M  V30 206 O 19.9873 -3.0445 -3.15027 0
M  V30 207 C 21.4883 -1.54637 -4.15454 0
M  V30 208 H 18.7083 -0.371825 -0.558558 0
M  V30 209 H 21.2523 -1.60865 -1.26264 0
M  V30 210 H 19.4073 -1.14235 -3.70175 0
M  V30 211 H 19.8213 -3.3278 -4.0541 0
M  V30 212 H 21.2953 -2.00808 -5.14179 0
M  V30 213 H 21.7723 -0.501022 -4.36333 0
M  V30 214 H 22.3783 -2.04767 -3.72761 0
M  V30 215 N 20.6934 1.19889 -1.02296 0
M  V30 216 C 21.9404 1.8942 -0.715972 0
M  V30 217 C 22.2684 1.79251 0.754944 0
M  V30 218 O 21.5234 1.17526 1.56481 0
M  V30 219 C 21.8224 3.39883 -1.10518 0
M  V30 220 C 21.4884 3.70254 -2.57337 0
M  V30 221 C 20.1504 3.78254 -2.97452 0
M  V30 222 C 22.5024 3.84052 -3.52354 0
M  V30 223 C 19.8304 3.97514 -4.31509 0
M  V30 224 C 22.1824 4.04824 -4.86108 0
M  V30 225 C 20.8464 4.11054 -5.25919 0
M  V30 226 H 20.1164 0.693138 -0.261993 0
M  V30 227 H 22.7634 1.42012 -1.28472 0
M  V30 228 H 21.0684 3.8915 -0.454953 0
M  V30 229 H 22.7654 3.9199 -0.845261 0
M  V30 230 H 19.3554 3.64632 -2.25258 0
M  V30 231 H 23.5394 3.77221 -3.22518 0
M  V30 232 H 18.7954 4.00574 -4.61898 0
M  V30 233 H 22.9694 4.14442 -5.59653 0
M  V30 234 H 20.5964 4.2573 -6.29808 0
M  V30 235 N 22.1715 0.800033 1.35784 0
M  V30 236 C 23.4485 0.30088 1.93272 0
M  V30 237 C 23.8285 -1.20857 1.73081 0
M  V30 238 O 23.1765 -2.00502 1.09596 0
M  V30 239 C 23.3865 0.70511 3.41803 0
M  V30 240 C 24.7345 0.690871 4.18942 0
M  V30 241 O 25.7585 0.646244 3.50289 0
M  V30 242 O 24.6175 0.74332 5.41421 0
M  V30 243 H 21.7115 0.0771605 0.823393 0
M  V30 244 H 24.2575 0.88329 1.449 0
M  V30 245 H 23.0295 1.74571 3.50201 0
M  V30 246 H 22.6525 0.0971541 3.97481 0
M  V30 247 N 23.6496 -1.47581 0.552962 0
M  V30 248 C 24.5996 -2.26961 -0.217423 0
M  V30 249 C 25.5836 -1.34099 -0.889168 0
M  V30 250 O 26.7756 -1.58483 -0.788176 0
M  V30 251 C 23.9046 -3.19756 -1.24944 0
M  V30 252 C 22.9906 -4.20097 -0.581327 0
M  V30 253 N 23.3816 -5.04614 0.346171 0
M  V30 254 C 21.6796 -4.38099 -0.835767 0
M  V30 255 C 22.3806 -5.77052 0.733854 0
M  V30 256 N 21.3566 -5.43526 0.0896567 0
M  V30 257 H 25.1586 -2.89688 0.495761 0
M  V30 258 H 22.6726 -1.58068 0.372597 0
M  V30 259 H 24.6696 -3.75305 -1.81527 0
M  V30 260 H 23.3296 -2.58585 -1.96376 0
M  V30 261 H 24.3406 -5.12869 0.720098 0
M  V30 262 H 21.0176 -3.88102 -1.53892 0
M  V30 263 H 22.4076 -6.5504 1.49574 0
M  V30 264 N 25.1277 -0.289203 -1.54924 0
M  V30 265 C 26.0747 0.592115 -2.23075 0
M  V30 266 C 27.0447 1.13881 -1.20915 0
M  V30 267 O 28.2297 1.18551 -1.495 0
M  V30 268 C 25.3697 1.76376 -2.96623 0
M  V30 269 C 24.4827 1.24959 -4.13533 0
M  V30 270 C 23.6177 2.38416 -4.74691 0
M  V30 271 C 22.6567 1.84072 -5.83767 0
M  V30 272 N 21.7937 2.91057 -6.38929 0
M  V30 273 H 26.6337 0.00432038 -2.98 0
M  V30 274 H 24.1707 -0.00963529 -1.47097 0
M  V30 275 H 26.1287 2.45268 -3.3749 0
M  V30 276 H 24.7587 2.32337 -2.24097 0
M  V30 277 H 23.8107 0.453307 -3.77689 0
M  V30 278 H 25.1227 0.811662 -4.92152 0
M  V30 279 H 24.2767 3.15276 -5.18349 0
M  V30 280 H 23.0157 2.8553 -3.95378 0
M  V30 281 H 22.0207 1.05697 -5.39545 0
M  V30 282 H 23.2457 1.37877 -6.64956 0
M  V30 283 H 21.1917 3.37526 -5.62505 0
M  V30 284 H 21.1087 2.51724 -7.12861 0
M  V30 285 H 22.3767 3.6785 -6.87246 0
M  V30 286 N 26.6058 1.57591 -0.0167156 0
M  V30 287 C 27.5688 2.08393 0.954204 0
M  V30 288 C 28.5688 0.996531 1.26198 0
M  V30 289 O 29.7588 1.25858 1.20438 0
M  V30 290 C 26.8908 2.5394 2.27436 0
M  V30 291 H 28.0838 2.95455 0.514451 0
M  V30 292 H 25.6368 1.54582 0.231089 0
M  V30 293 H 26.3718 1.70171 2.76066 0
M  V30 294 H 26.1568 3.33371 2.06412 0
M  V30 295 H 27.6468 2.93512 2.97053 0
M  V30 296 N 28.0839 -0.256276 1.55502 0
M  V30 297 C 29.0339 -1.31981 1.85916 0
M  V30 298 C 30.0179 -1.43927 0.719296 0
M  V30 299 O 31.2099 -1.47326 0.981019 0
M  V30 300 C 28.3389 -2.67703 2.14918 0
M  V30 301 C 27.4249 -2.59801 3.35208 0
M  V30 302 N 27.8159 -2.21524 4.54709 0
M  V30 303 C 26.1139 -2.90832 3.38131 0
M  V30 304 C 26.8149 -2.24024 5.36832 0
M  V30 305 N 25.7909 -2.63158 4.75656 0
M  V30 306 H 29.5929 -1.01423 2.75845 0
M  V30 307 H 27.1069 -0.464911 1.55603 0
M  V30 308 H 29.1039 -3.44445 2.34869 0
M  V30 309 H 27.7639 -2.99137 1.26282 0
M  V30 310 H 28.7749 -1.93223 4.80505 0
M  V30 311 H 25.4519 -3.26867 2.59739 0
M  V30 312 H 26.8419 -1.9685 6.42417 0
M  V30 313 N 29.562 -1.4872 -0.521534 0
M  V30 314 C 30.525 -1.63379 -1.60748 0
M  V30 315 C 31.525 -0.50661 -1.52611 0
M  V30 316 O 32.715 -0.772601 -1.5613 0
M  V30 317 C 29.847 -1.61192 -3.00383 0
M  V30 318 H 31.04 -2.60217 -1.49087 0
M  V30 319 H 28.593 -1.37444 -0.744235 0
M  V30 320 H 29.328 -0.65863 -3.17541 0
M  V30 321 H 29.113 -2.43032 -3.07698 0
M  V30 322 H 30.603 -1.7466 -3.7932 0
M  V30 323 N 31.0401 0.771051 -1.3745 0
M  V30 324 C 31.9501 1.91538 -1.35464 0
M  V30 325 C 32.9661 1.72134 -0.254123 0
M  V30 326 O 34.1421 1.95358 -0.489626 0
M  V30 327 C 31.2071 3.26671 -1.16134 0
M  V30 328 C 30.2681 3.58723 -2.35831 0
M  V30 329 C 29.5011 4.87409 -2.17413 0
M  V30 330 O 29.7241 5.58506 -1.15876 0
M  V30 331 O 28.6581 5.18539 -3.05615 0
M  V30 332 H 32.4841 1.96165 -2.31847 0
M  V30 333 H 30.0691 0.9139 -1.18187 0
M  V30 334 H 31.9511 4.07499 -1.07345 0
M  V30 335 H 30.6261 3.22894 -0.228251 0
M  V30 336 H 29.5331 2.78127 -2.50192 0
M  V30 337 H 30.8661 3.67243 -3.27709 0
M  V30 338 N 32.5182 1.22032 0.997298 0
M  V30 339 C 33.4652 0.986467 2.08656 0
M  V30 340 C 34.4352 -0.0902671 1.65855 0
M  V30 341 O 35.6202 0.0584294 1.90711 0
M  V30 342 C 32.7602 0.565569 3.40434 0
M  V30 343 C 31.8732 1.71259 3.96604 0
M  V30 344 C 31.0082 1.24011 5.16522 0
M  V30 345 C 30.0472 2.35896 5.64818 0
M  V30 346 N 29.1842 1.89726 6.7598 0
M  V30 347 H 34.0242 1.91892 2.27994 0
M  V30 348 H 31.5612 0.956199 1.11782 0
M  V30 349 H 33.5192 0.302738 4.161 0
M  V30 350 H 32.1492 -0.329879 3.2111 0
M  V30 351 H 31.2012 2.08986 3.17851 0
M  V30 352 H 32.5132 2.55436 4.28432 0
M  V30 353 H 31.6672 0.934395 5.99461 0
M  V30 354 H 30.4062 0.368487 4.86306 0
M  V30 355 H 29.4112 2.67261 4.8047 0
M  V30 356 H 30.6362 3.23567 5.97061 0
M  V30 357 H 28.5822 1.0492 6.47555 0
M  V30 358 H 28.4992 2.67471 7.07103 0
M  V30 359 H 29.7672 1.62211 7.62435 0
M  V30 360 N 33.9963 -1.19345 1.0293 0
M  V30 361 C 34.9263 -2.2481 0.631105 0
M  V30 362 C 35.9073 -1.66245 -0.360104 0
M  V30 363 O 37.0923 -1.92677 -0.242726 0
M  V30 364 C 34.2223 -3.47295 -0.0184607 0
M  V30 365 C 33.1763 -4.18536 0.895073 0
M  V30 366 C 32.5023 -5.34586 0.110592 0
M  V30 367 C 33.8023 -4.73287 2.209 0
M  V30 368 H 35.4963 -2.58372 1.51275 0
M  V30 369 H 33.0423 -1.24194 0.728818 0
M  V30 370 H 34.9953 -4.20268 -0.308675 0
M  V30 371 H 33.7193 -3.12933 -0.934907 0
M  V30 372 H 32.3783 -3.47446 1.16949 0
M  V30 373 H 32.0263 -4.96469 -0.807902 0
M  V30 374 H 31.7263 -5.83183 0.719087 0
M  V30 375 H 33.2503 -6.10355 -0.172871 0
M  V30 376 H 34.6643 -5.38013 1.98028 0
M  V30 377 H 33.0613 -5.32373 2.76946 0
M  V30 378 H 34.1313 -3.91331 2.86336 0
M  V30 379 N 35.4744 -0.807222 -1.35358 0
M  V30 380 C 36.7224 -0.387122 -1.98358 0
M  V30 381 C 37.0434 1.04942 -1.64354 0
M  V30 382 O 36.3134 1.72615 -0.926339 0
M  V30 383 H 34.8934 -0.140154 -0.733734 0
M  V30 384 H 37.5554 -1.0332 -1.6526 0
M  V30 385 H 36.6514 -0.493352 -3.08176 0
M  V30 386 N 36.9525 1.47285 -0.560781 0
M  V30 387 C 38.1925 2.0436 -0.0404627 0
M  V30 388 C 38.5565 1.42534 1.28639 0
M  V30 389 O 39.7575 1.90677 1.89462 0
M  V30 390 C 38.0285 3.57369 0.0471856 0
M  V30 391 S 39.5875 4.3579 0.513109 0
M  V30 392 H 36.4055 0.710492 -0.0268674 0
M  V30 393 H 39.0075 1.80611 -0.748323 0
M  V30 394 H 37.7115 3.9989 -0.922817 0
M  V30 395 H 37.2425 3.8562 0.778491 0
M  V30 396 H 39.2575 4.63476 1.77212 0
M  V30 397 N 38.4306 0.297415 1.54768 0
M  V30 398 C 39.7076 -0.365847 1.92148 0
M  V30 399 C 40.0876 -1.71975 1.22424 0
M  V30 400 O 39.4356 -2.25666 0.358739 0
M  V30 401 C 39.6456 -0.484056 3.45627 0
M  V30 402 C 40.9936 -0.756594 4.17805 0
M  V30 403 O 42.0176 -0.568007 3.51642 0
M  V30 404 O 40.8766 -1.11863 5.34929 0
M  V30 405 H 37.9706 -0.203919 0.801465 0
M  V30 406 H 40.5166 0.34521 1.66152 0
M  V30 407 H 39.2886 0.467865 3.88493 0
M  V30 408 H 38.9116 -1.24372 3.77647 0
M  V30 409 N 39.9087 -1.5758 0.0250728 0
M  V30 410 C 40.8717 -2.08896 -0.943139 0
M  V30 411 C 41.8717 -1.00321 -1.25668 0
M  V30 412 O 43.0617 -1.26495 -1.19769 0
M  V30 413 C 40.1937 -2.55143 -2.26086 0
M  V30 414 H 41.3867 -2.95723 -0.498775 0
M  V30 415 H 38.9397 -1.54703 -0.222888 0
M  V30 416 H 39.6747 -1.71633 -2.75159 0
M  V30 417 H 39.4597 -3.34461 -2.04641 0
M  V30 418 H 40.9497 -2.95083 -2.95492 0
M  V30 419 N 41.3868 0.248026 -1.55636 0
M  V30 420 C 42.6268 0.983592 -1.79178 0
M  V30 421 C 42.9908 1.82567 -0.594414 0
M  V30 422 O 44.1918 2.59292 -0.708583 0
M  V30 423 C 42.4628 1.82228 -3.07454 0
M  V30 424 S 44.0218 2.61709 -3.52213 0
M  V30 425 H 40.8398 0.330866 -0.629324 0
M  V30 426 H 43.4418 0.251562 -1.93875 0
M  V30 427 H 42.1458 1.19333 -3.92668 0
M  V30 428 H 41.6768 2.59708 -2.95492 0
M  V30 429 H 43.6918 3.84655 -3.13457 0
M  V30 430 N 42.8649 1.48995 0.513639 0
M  V30 431 C 43.8149 1.61127 1.61314 0
M  V30 432 C 44.7989 0.467521 1.53958 0
M  V30 433 O 45.9909 0.719826 1.61702 0
M  V30 434 C 43.1199 1.66937 2.99978 0
M  V30 435 C 42.2059 2.86847 3.12377 0
M  V30 436 N 42.5969 4.11078 2.94701 0
M  V30 437 C 40.8949 2.84521 3.43459 0
M  V30 438 C 41.5959 4.91615 3.10949 0
M  V30 439 N 40.5719 4.24739 3.3926 0
M  V30 440 H 44.3739 2.54909 1.46282 0
M  V30 441 H 41.8879 1.45593 0.719483 0
M  V30 442 H 43.8849 1.73725 3.78979 0
M  V30 443 H 42.5449 0.742831 3.16089 0
M  V30 444 H 43.5559 4.41258 2.71131 0
M  V30 445 H 40.2329 2.01192 3.65825 0
M  V30 446 H 41.6229 6.00264 3.01882 0
M  V30 447 N 44.343 -0.763751 1.37857 0
M  V30 448 C 45.253 -1.90817 1.36478 0
M  V30 449 C 46.269 -1.71997 0.263248 0
M  V30 450 O 47.445 -1.95095 0.499979 0
M  V30 451 C 44.51 -3.2605 1.17864 0
M  V30 452 C 43.571 -3.57467 2.3773 0
M  V30 453 C 42.804 -4.86249 2.19995 0
M  V30 454 O 43.027 -5.57884 1.18836 0
M  V30 455 O 41.961 -5.16911 3.08361 0
M  V30 456 H 45.787 -1.94933 2.32884 0
M  V30 457 H 43.372 -0.907619 1.1867 0
M  V30 458 H 45.254 -4.06924 1.09504 0
M  V30 459 H 43.929 -3.22769 0.245372 0
M  V30 460 H 42.836 -2.76796 2.51664 0
M  V30 461 H 44.169 -3.655 3.29652 0
M  V30 462 N 45.8211 -1.22559 -0.990812 0
M  V30 463 C 47.0691 -1.04933 -1.72724 0
M  V30 464 C 47.3901 0.416158 -1.90508 0
M  V30 465 O 46.6601 1.29918 -1.46622 0
M  V30 466 H 45.2401 -0.385296 -0.639965 0
M  V30 467 H 47.9021 -1.54105 -1.19322 0
M  V30 468 H 46.9981 -1.52886 -2.72089 0
M  V30 469 N 47.2992 1.18797 -1.03562 0
M  V30 470 C 48.5272 1.92599 -0.755869 0
M  V30 471 C 48.9422 1.75886 0.686271 0
M  V30 472 O 48.2992 1.08517 1.46732 0
M  V30 473 C 48.3502 3.44159 -1.10619 0
M  V30 474 O 48.0712 3.60341 -2.4917 0
M  V30 475 C 49.5722 4.3507 -0.850214 0
M  V30 476 H 46.7922 0.611587 -0.276048 0
M  V30 477 H 49.3362 1.50742 -1.38192 0
M  V30 478 H 47.4912 3.83823 -0.525194 0
M  V30 479 H 47.9052 4.54128 -2.62427 0
M  V30 480 H 49.3792 5.39989 -1.14523 0
M  V30 481 H 49.8562 4.38673 0.215176 0
M  V30 482 H 50.4622 4.01097 -1.41426 0
M  V30 483 N 48.7773 0.814389 1.34928 0
M  V30 484 C 50.1883 0.458364 1.80986 0
M  V30 485 C 50.5393 -1.02042 1.67577 0
M  V30 486 O 49.6643 -1.79352 1.21086 0
M  V30 487 C 50.2593 0.825212 3.28597 0
M  V30 488 C 48.8183 0.521677 3.72767 0
M  V30 489 C 47.9653 1.04668 2.56788 0
M  V30 490 H 50.9163 1.00533 1.22795 0
M  V30 491 H 50.9373 0.12571 3.80292 0
M  V30 492 H 50.4493 1.90154 3.38324 0
M  V30 493 H 48.5503 -0.545589 3.68584 0
M  V30 494 H 48.6633 1.05977 4.67232 0
M  V30 495 H 47.0273 0.468622 2.50352 0
M  V30 496 H 47.8103 2.12927 2.6929 0
M  V30 497 N 50.2554 -1.46986 0.568584 0
M  V30 498 C 51.2184 -2.28624 -0.162366 0
M  V30 499 C 52.2184 -1.37596 -0.832103 0
M  V30 500 O 53.4084 -1.60115 -0.68622 0
M  V30 501 C 50.5404 -3.17596 -1.23878 0
M  V30 502 H 51.7334 -2.94722 0.554899 0
M  V30 503 H 49.2864 -1.52863 0.325976 0
M  V30 504 H 50.0214 -2.56214 -1.98808 0
M  V30 505 H 49.8064 -3.846 -0.763219 0
M  V30 506 H 51.2964 -3.79078 -1.75185 0
M  V30 507 N 51.7335 -0.305618 -1.54608 0
M  V30 508 C 52.6805 0.568421 -2.23691 0
M  V30 509 C 53.6505 1.12592 -1.22116 0
M  V30 510 O 54.8355 1.16959 -1.50749 0
M  V30 511 C 51.9755 1.7322 -2.98477 0
M  V30 512 C 51.0885 1.20566 -4.14835 0
M  V30 513 C 50.2235 2.33368 -4.77193 0
M  V30 514 C 49.2625 1.7787 -5.85686 0
M  V30 515 N 48.3995 2.84263 -6.4198 0
M  V30 516 H 53.2395 -0.0272867 -2.97988 0
M  V30 517 H 50.7765 -0.0252363 -1.47078 0
M  V30 518 H 52.7345 2.41675 -3.40072 0
M  V30 519 H 51.3645 2.29947 -2.26548 0
M  V30 520 H 50.4165 0.413223 -3.78149 0
M  V30 521 H 51.7285 0.759417 -4.92985 0
M  V30 522 H 50.8825 3.09761 -5.21664 0
M  V30 523 H 49.6215 2.8132 -3.98385 0
M  V30 524 H 48.6265 0.99968 -5.40635 0
M  V30 525 H 49.8515 1.30816 -6.66381 0
M  V30 526 H 47.7975 3.31541 -5.66053 0
M  V30 527 H 47.7145 2.44149 -7.15491 0
M  V30 528 H 48.9825 3.6054 -6.91109 0
M  V30 529 N 53.2116 1.57565 -0.0334293 0
M  V30 530 C 54.4606 1.91155 0.643639 0
M  V30 531 C 54.7736 0.91192 1.73042 0
M  V30 532 O 55.9796 1.13923 2.46442 0
M  V30 533 C 54.4356 3.39443 1.1961 0
M  V30 534 C 54.0436 4.47774 0.142381 0
M  V30 535 C 55.7876 3.82094 1.84944 0
M  V30 536 C 53.6946 5.87162 0.706727 0
M  V30 537 H 52.6246 0.713368 0.244176 0
M  V30 538 H 55.2756 1.8323 -0.0994323 0
M  V30 539 H 53.6576 3.42313 1.99092 0
M  V30 540 H 54.8316 4.56469 -0.630296 0
M  V30 541 H 53.1466 4.14352 -0.412446 0
M  V30 542 H 55.7436 4.83591 2.2813 0
M  V30 543 H 56.0866 3.17386 2.69392 0
M  V30 544 H 56.6196 3.81665 1.12145 0
M  V30 545 H 53.3586 6.55424 -0.0997178 0
M  V30 546 H 52.8786 5.82064 1.44779 0
M  V30 547 H 54.5576 6.35866 1.19514 0
M  V30 548 N 54.6897 -0.239769 1.55765 0
M  V30 549 C 55.6527 -1.28038 1.90103 0
M  V30 550 C 56.6527 -1.40723 0.778055 0
M  V30 551 O 57.8427 -1.39301 1.04599 0
M  V30 552 C 54.9747 -2.65702 2.13577 0
M  V30 553 H 56.1677 -0.988048 2.83157 0
M  V30 554 H 53.7207 -0.479382 1.48767 0
M  V30 555 H 54.4557 -3.00063 1.23015 0
M  V30 556 H 54.2407 -2.57875 2.95369 0
M  V30 557 H 55.7307 -3.40828 2.41301 0
M  V30 558 N 56.1678 -1.49265 -0.50573 0
M  V30 559 C 57.4168 -1.57761 -1.25675 0
M  V30 560 C 57.7298 -0.267371 -1.93764 0
M  V30 561 O 58.9358 -0.230827 -2.70517 0
M  V30 562 C 57.3918 -2.78332 -2.28165 0
M  V30 563 C 56.9998 -4.16096 -1.66037 0
M  V30 564 C 58.7438 -2.96155 -3.04125 0
M  V30 565 C 56.6508 -5.27895 -2.6661 0
M  V30 566 H 55.5808 -0.587391 -0.472745 0
M  V30 567 H 58.2318 -1.75644 -0.53118 0
M  V30 568 H 56.6138 -2.53934 -3.03865 0
M  V30 569 H 57.7878 -4.50612 -0.963622 0
M  V30 570 H 56.1028 -4.03591 -1.02484 0
M  V30 571 H 58.6998 -3.76849 -3.79327 0
M  V30 572 H 59.0428 -2.06534 -3.61455 0
M  V30 573 H 59.5758 -3.2057 -2.35541 0
M  V30 574 H 56.3148 -6.1956 -2.14068 0
M  V30 575 H 55.8348 -4.97839 -3.34539 0
M  V30 576 H 57.5138 -5.57031 -3.29129 0
M  V30 577 N 57.6459 0.756429 -1.3826 0
M  V30 578 C 58.9229 1.50584 -1.24835 0
M  V30 579 C 59.3029 2.10556 0.151485 0
M  V30 580 O 58.6509 1.96825 1.1607 0
M  V30 581 C 58.8609 2.57448 -2.3563 0
M  V30 582 C 60.2089 3.24429 -2.73917 0
M  V30 583 O 61.2329 2.67751 -2.34921 0
M  V30 584 O 60.0919 4.26937 -3.41156 0
M  V30 585 H 57.1859 0.667664 -0.48801 0
M  V30 586 H 59.7319 0.792083 -1.5008 0
M  V30 587 H 58.5039 2.11362 -3.29305 0
M  V30 588 H 58.1269 3.36408 -2.11933 0
M  V30 589 N 59.124 1.23083 0.984299 0
M  V30 590 C 60.071 1.00854 2.07598 0
M  V30 591 C 61.041 -0.0726709 1.65941 0
M  V30 592 O 62.226 0.0786535 1.90638 0
M  V30 593 C 59.366 0.601645 3.39815 0
M  V30 594 C 58.479 1.75456 3.94765 0
M  V30 595 C 57.614 1.29482 5.15177 0
M  V30 596 C 56.653 2.41873 5.62284 0
M  V30 597 N 55.79 1.96885 6.73929 0
M  V30 598 H 60.63 1.943 2.25946 0
M  V30 599 H 58.167 0.968001 1.10762 0
M  V30 600 H 60.125 0.346854 4.15756 0
M  V30 601 H 58.755 -0.295803 3.21442 0
M  V30 602 H 57.807 2.12346 3.15616 0
M  V30 603 H 59.119 2.59965 4.25699 0
M  V30 604 H 58.273 0.997923 5.98437 0
M  V30 605 H 57.012 0.420046 4.85888 0
M  V30 606 H 56.017 2.72342 4.77608 0
M  V30 607 H 57.242 3.29881 5.93595 0
M  V30 608 H 55.188 1.11782 6.46406 0
M  V30 609 H 55.105 2.74956 7.04227 0
M  V30 610 H 56.373 1.70289 7.60672 0
M  V30 611 N 60.6021 -1.18246 1.0419 0
M  V30 612 C 61.5491 -2.2192 0.634037 0
M  V30 613 C 62.5191 -1.62179 -0.358765 0
M  V30 614 O 63.7041 -1.89122 -0.252466 0
M  V30 615 C 60.8441 -3.451 0.00445535 0
M  V30 616 C 59.9571 -4.19174 1.04487 0
M  V30 617 C 59.0921 -5.29813 0.383676 0
M  V30 618 C 58.1311 -5.9566 1.4091 0
M  V30 619 N 57.2681 -6.97834 0.772784 0
M  V30 620 H 62.1081 -2.56164 1.52263 0
M  V30 621 H 59.6451 -1.25843 0.761701 0
M  V30 622 H 61.6031 -4.15485 -0.377919 0
M  V30 623 H 60.2331 -3.11472 -0.847652 0
M  V30 624 H 59.2851 -3.47604 1.54518 0
M  V30 625 H 60.5971 -4.64267 1.82368 0
M  V30 626 H 59.7511 -6.06677 -0.0528366 0
M  V30 627 H 58.4901 -4.85825 -0.427208 0
M  V30 628 H 57.4951 -5.17535 1.85574 0
M  V30 629 H 58.7201 -6.4173 2.22171 0
M  V30 630 H 56.6661 -6.55998 -0.0177708 0
M  V30 631 H 56.5831 -7.41186 1.48928 0
M  V30 632 H 57.8511 -7.78665 0.36071 0
M  V30 633 N 62.0802 -0.821533 -1.34494 0
M  V30 634 C 63.3052 -0.420873 -2.03085 0
M  V30 635 C 63.7302 0.964915 -1.61465 0
M  V30 636 O 63.0882 1.62763 -0.798607 0
M  V30 637 C 63.1362 -0.529414 -3.56693 0
M  V30 638 O 62.2402 0.451302 -4.09923 0
M  V30 639 H 61.5812 -0.173489 -0.640935 0
M  V30 640 H 64.1112 -1.11157 -1.71771 0
M  V30 641 H 64.1212 -0.404671 -4.05988 0
M  V30 642 H 62.7962 -1.54014 -3.86332 0
M  V30 643 H 61.3732 0.285558 -3.71805 0
M  V30 644 N 63.5583 1.46682 -0.576371 0
M  V30 645 C 64.5213 2.28707 0.150239 0
M  V30 646 C 65.5213 1.38035 0.824794 0
M  V30 647 O 66.7113 1.60476 0.677719 0
M  V30 648 C 63.8433 3.18248 1.22192 0
M  V30 649 H 65.0363 2.94423 -0.570521 0
M  V30 650 H 62.5893 1.52688 -0.334078 0
M  V30 651 H 63.3243 2.57265 1.97447 0
M  V30 652 H 63.1093 3.85 0.742812 0
M  V30 653 H 64.5993 3.80001 1.73172 0
M  V30 654 N 65.0364 0.313813 1.54444 0
M  V30 655 C 65.9864 -0.571898 2.20711 0
M  V30 656 C 66.9704 -1.08913 1.18435 0
M  V30 657 O 68.1624 -1.02777 1.44104 0
M  V30 658 C 65.2914 -1.7371 2.96108 0
M  V30 659 C 64.3774 -1.23522 4.05713 0
M  V30 660 N 64.7684 -0.452288 5.03774 0
M  V30 661 C 63.0664 -1.51482 4.19487 0
M  V30 662 C 63.7674 -0.183438 5.81411 0
M  V30 663 N 62.7434 -0.766845 5.38164 0
M  V30 664 H 66.5454 0.0336802 2.93881 0
M  V30 665 H 64.0594 0.119192 1.61962 0
M  V30 666 H 66.0564 -2.38329 3.4206 0
M  V30 667 H 64.7164 -2.34625 2.24458 0
M  V30 668 H 65.7274 -0.0960131 5.17811 0
M  V30 669 H 62.4044 -2.13053 3.59047 0
M  V30 670 H 63.7944 0.446216 6.70417 0
M  V30 671 N 66.5145 -1.57545 0.0417849 0
M  V30 672 C 67.4615 -2.10977 -0.935805 0
M  V30 673 C 68.4315 -1.01486 -1.31491 0
M  V30 674 O 69.6165 -1.2898 -1.40602 0
M  V30 675 C 66.7565 -2.65169 -2.2086 0
M  V30 676 C 65.8695 -3.88714 -1.88482 0
M  V30 677 C 65.0045 -4.31254 -3.1015 0
M  V30 678 C 64.0435 -5.47524 -2.7365 0
M  V30 679 N 63.1805 -5.85162 -3.87982 0
M  V30 680 H 68.0205 -2.94218 -0.473249 0
M  V30 681 H 65.5575 -1.45415 -0.221981 0
M  V30 682 H 67.5155 -2.94685 -2.95325 0
M  V30 683 H 66.1455 -1.8474 -2.64709 0
M  V30 684 H 65.1975 -3.65849 -1.04205 0
M  V30 685 H 66.5095 -4.73245 -1.57608 0
M  V30 686 H 65.6635 -4.62273 -3.92923 0
M  V30 687 H 64.4025 -3.45516 -3.44195 0
M  V30 688 H 63.4075 -5.16187 -1.89291 0
M  V30 689 H 64.6325 -6.34971 -2.40807 0
M  V30 690 H 62.5785 -5.02377 -4.21846 0
M  V30 691 H 62.4955 -6.64362 -3.60775 0
M  V30 692 H 63.7635 -6.20791 -4.71422 0
M  V30 693 N 67.9926 0.231505 -1.5589 0
M  V30 694 C 69.2696 0.981096 -1.69215 0
M  V30 695 C 69.6496 2.02799 -0.586164 0
M  V30 696 O 68.9976 2.24823 0.408253 0
M  V30 697 C 69.2076 1.60054 -3.10135 0
M  V30 698 C 70.5556 2.09658 -3.69227 0
M  V30 699 O 71.5796 1.69967 -3.13033 0
M  V30 700 O 70.4386 2.8258 -4.67772 0
M  V30 701 H 67.5326 0.457653 -0.688827 0
M  V30 702 H 70.0786 0.224073 -1.68214 0
M  V30 703 H 68.8506 0.844105 -3.82087 0
M  V30 704 H 68.4736 2.42336 -3.15212 0
M  V30 705 N 69.4707 1.49531 0.497807 0
M  V30 706 C 70.4337 1.65916 1.58128 0
M  V30 707 C 71.4337 0.530825 1.51786 0
M  V30 708 O 72.6237 0.797342 1.54881 0
M  V30 709 C 69.7557 1.65951 2.9778 0
M  V30 710 H 70.9487 2.62556 1.44929 0
M  V30 711 H 68.5017 1.38611 0.722275 0
M  V30 712 H 69.2367 0.709065 3.16453 0
M  V30 713 H 69.0217 2.47897 3.03792 0
M  V30 714 H 70.5117 1.80673 3.76493 0
M  V30 715 N 70.9488 -0.749086 1.3866 0
M  V30 716 C 72.1888 -1.52112 1.36534 0
M  V30 717 C 72.5528 -1.91951 -0.0432316 0
M  V30 718 O 73.7538 -2.68132 -0.189396 0
M  V30 719 C 72.0248 -2.73704 2.29828 0
M  V30 720 S 73.5838 -3.63519 2.45763 0
M  V30 721 H 70.4018 -0.520482 0.484375 0
M  V30 722 H 73.0038 -0.878963 1.74627 0
M  V30 723 H 71.7078 -2.42552 3.31054 0
M  V30 724 H 71.2388 -3.4286 1.929 0
M  V30 725 H 73.2538 -4.66712 1.68505 0
M  V30 726 N 72.4269 -1.23603 -0.977757 0
M  V30 727 C 73.3739 -1.01954 -2.07061 0
M  V30 728 C 74.3439 0.0638697 -1.65977 0
M  V30 729 O 75.5289 -0.0887624 -1.90593 0
M  V30 730 C 72.6689 -0.619658 -3.39491 0
M  V30 731 C 71.7819 -1.77547 -3.93829 0
M  V30 732 C 70.9169 -1.32212 -5.14484 0
M  V30 733 C 69.9559 -2.44852 -5.60994 0
M  V30 734 N 69.0929 -2.00456 -6.72876 0
M  V30 735 H 73.9329 -1.95495 -2.24913 0
M  V30 736 H 71.4699 -0.973861 -1.10247 0
M  V30 737 H 73.4279 -0.368898 -4.15566 0
M  V30 738 H 72.0579 0.278752 -3.21594 0
M  V30 739 H 71.1099 -2.14016 -3.14486 0
M  V30 740 H 72.4219 -2.62219 -4.24314 0
M  V30 741 H 71.5759 -1.02965 -5.97899 0
M  V30 742 H 70.3149 -0.445808 -4.85658 0
M  V30 743 H 69.3199 -2.74871 -4.76157 0
M  V30 744 H 70.5449 -3.33024 -5.91837 0
M  V30 745 H 68.4909 -1.15208 -6.45804 0
M  V30 746 H 68.4079 -2.78687 -7.02759 0
M  V30 747 H 69.6759 -1.7432 -7.59758 0
M  V30 748 N 73.905 1.17692 -1.04816 0
M  V30 749 C 75.133 1.91786 -0.776254 0
M  V30 750 C 75.548 1.76604 0.667577 0
M  V30 751 O 74.905 1.10067 1.45573 0
M  V30 752 C 74.956 3.42967 -1.14263 0
M  V30 753 O 74.677 3.57678 -2.52978 0
M  V30 754 C 76.178 4.34144 -0.896311 0
M  V30 755 H 73.398 0.608624 -0.282519 0
M  V30 756 H 75.942 1.49268 -1.39783 0
M  V30 757 H 74.097 3.83245 -0.565874 0
M  V30 758 H 74.511 4.51319 -2.67229 0
M  V30 759 H 75.985 5.38744 -1.20244 0
M  V30 760 H 76.462 4.38876 0.168636 0
M  V30 761 H 77.068 3.99574 -1.45672 0
M  V30 762 N 75.3831 0.828654 1.34056 0
M  V30 763 C 76.6231 0.425394 1.99924 0
M  V30 764 C 76.9871 -0.994294 1.64249 0
M  V30 765 O 78.1881 -1.50074 2.23005 0
M  V30 766 C 76.4591 0.628071 3.51838 0
M  V30 767 S 78.0181 0.318511 4.37642 0
M  V30 768 H 74.8361 0.160465 0.692656 0
M  V30 769 H 77.4381 1.07572 1.63244 0
M  V30 770 H 76.1421 1.66089 3.7529 0
M  V30 771 H 75.6731 -0.0367799 3.93383 0
M  V30 772 H 77.6881 -0.865632 4.88591 0
M  V30 773 N 76.8612 -1.46375 0.584142 0
M  V30 774 C 77.8112 -2.27371 -0.169232 0
M  V30 775 C 78.7952 -1.35955 -0.860523 0
M  V30 776 O 79.9872 -1.60119 -0.754382 0
M  V30 777 C 77.1162 -3.22334 -1.18134 0
M  V30 778 C 76.2022 -4.21235 -0.492088 0
M  V30 779 N 76.5932 -5.03766 0.453129 0
M  V30 780 C 74.8912 -4.39773 -0.742652 0
M  V30 781 C 75.5922 -5.75366 0.85609 0
M  V30 782 N 74.5682 -5.43214 0.204926 0
M  V30 783 H 78.3702 -2.88572 0.557097 0
M  V30 784 H 75.8842 -1.57242 0.406042 0
M  V30 785 H 77.8812 -3.79071 -1.73525 0
M  V30 786 H 76.5412 -2.62693 -1.90847 0
M  V30 787 H 77.5522 -5.11227 0.828723 0
M  V30 788 H 74.2292 -3.91279 -1.45625 0
M  V30 789 H 75.6192 -6.5172 1.63434 0
M  V30 790 N 78.3393 -0.321999 -1.54275 0
M  V30 791 C 79.2863 0.544664 -2.24281 0
M  V30 792 C 80.2563 1.1129 -1.23303 0
M  V30 793 O 81.4413 1.15354 -1.51981 0
M  V30 794 C 78.5813 1.70045 -3.00298 0
M  V30 795 C 77.6943 1.16159 -4.1609 0
M  V30 796 C 76.8293 2.28293 -4.79641 0
M  V30 797 C 75.8683 1.71648 -5.8754 0
M  V30 798 N 75.0053 2.77438 -6.44959 0
M  V30 799 H 79.8453 -0.0588907 -2.97942 0
M  V30 800 H 77.3823 -0.0408345 -1.47043 0
M  V30 801 H 79.3403 2.38054 -3.42616 0
M  V30 802 H 77.9703 2.27531 -2.28975 0
M  V30 803 H 77.0223 0.373092 -3.78566 0
M  V30 804 H 78.3343 0.707087 -4.93763 0
M  V30 805 H 77.4883 3.0421 -5.2492 0
M  V30 806 H 76.2273 2.77079 -4.01346 0
M  V30 807 H 75.2323 0.942282 -5.41665 0
M  V30 808 H 76.4573 1.23741 -6.67731 0
M  V30 809 H 74.4033 3.25519 -5.69538 0
M  V30 810 H 74.3203 2.36547 -7.1804 0
M  V30 811 H 75.5883 3.53189 -6.94894 0
M  V30 812 N 79.8174 1.5752 -0.0501392 0
M  V30 813 C 81.0424 1.97376 0.636997 0
M  V30 814 C 81.4674 0.927466 1.63645 0
M  V30 815 O 80.8254 -0.10941 1.8097 0
M  V30 816 C 80.8734 3.36304 1.30123 0
M  V30 817 O 79.9774 3.34156 2.41689 0
M  V30 818 H 79.3184 0.642998 0.165679 0
M  V30 819 H 81.8484 2.04258 -0.118233 0
M  V30 820 H 81.8584 3.73008 1.65315 0
M  V30 821 H 80.5334 4.11993 0.568746 0
M  V30 822 H 79.1104 3.09196 2.08451 0
M  V30 823 N 81.2955 -0.223234 1.56011 0
M  V30 824 C 82.2435 -1.29627 1.93131 0
M  V30 825 C 83.2375 -1.48608 0.813146 0
M  V30 826 O 84.4435 -1.49802 0.997966 0
M  V30 827 H 80.8185 -0.434563 0.613726 0
M  V30 828 H 82.7895 -0.955995 2.82672 0
M  V30 829 C 81.5385 -2.63983 2.26292 0
M  V30 830 H 80.8615 -2.50185 3.11846 0
M  V30 831 H 82.3015 -3.3788 2.56151 0
M  V30 832 C 80.7605 -3.18866 1.08747 0
M  V30 833 O 81.2905 -4.00192 0.347727 0
M  V30 834 N 79.4965 -2.77217 0.871743 0
M  V30 835 H 79.0435 -2.1119 1.47501 0
M  V30 836 H 79.0015 -3.1428 0.0869905 0
M  V30 837 N 82.7736 -1.49793 -0.48987 0
M  V30 838 C 83.7216 -1.67783 -1.61095 0
M  V30 839 C 84.7156 -0.543683 -1.60438 0
M  V30 840 O 85.9216 -0.723647 -1.64813 0
M  V30 841 H 82.2966 -0.529255 -0.534222 0
M  V30 842 H 84.2676 -2.61861 -1.43078 0
M  V30 843 C 83.0166 -1.77191 -2.99164 0
M  V30 844 H 82.3396 -2.63841 -3.0038 0
M  V30 845 H 83.7796 -1.93809 -3.77113 0
M  V30 846 C 82.2386 -0.519203 -3.32875 0
M  V30 847 O 82.7686 0.350124 -4.00171 0
M  V30 848 N 80.9746 -0.378816 -2.8812 0
M  V30 849 H 80.5216 -1.08725 -2.33531 0
M  V30 850 H 80.4796 0.458239 -3.11043 0
M  V30 851 N 84.2517 0.741722 -1.39055 0
M  V30 852 C 85.4997 1.49818 -1.35643 0
M  V30 853 C 85.8207 1.94938 0.0491642 0
M  V30 854 O 85.0907 1.68505 0.999141 0
M  V30 855 H 83.6707 0.555755 -0.499144 0
M  V30 856 H 86.3327 0.880957 -1.73854 0
M  V30 857 H 85.4287 2.38348 -2.01486 0
M  V30 858 N 85.7298 1.2412 0.971189 0
M  V30 859 C 87.1408 1.07236 1.52831 0
M  V30 860 C 87.4918 -0.357352 1.92918 0
M  V30 861 O 86.6168 -1.24528 1.76979 0
M  V30 862 C 87.2118 1.94043 2.77728 0
M  V30 863 C 85.7708 1.81394 3.29808 0
M  V30 864 C 84.9178 1.89189 2.02738 0
M  V30 865 H 87.8688 1.37648 0.789864 0
M  V30 866 H 87.8898 1.47066 3.5093 0
M  V30 867 H 87.4018 2.98093 2.4852 0
M  V30 868 H 85.5028 0.801634 3.63874 0
M  V30 869 H 85.6158 2.65294 3.98944 0
M  V30 870 H 83.9798 1.32877 2.17292 0
M  V30 871 H 84.7628 2.94812 1.759 0
M  V30 872 N 87.2079 -1.17134 1.05439 0
M  V30 873 C 88.4359 -1.91372 0.786414 0
M  V30 874 C 88.8509 -1.76955 -0.658202 0
M  V30 875 O 88.2079 -1.10838 -1.44987 0
M  V30 876 C 88.2589 -3.42356 1.1608 0
M  V30 877 O 87.9799 -3.56332 2.54871 0
M  V30 878 C 89.4809 -4.33663 0.919322 0
M  V30 879 H 86.7009 -0.607118 0.285743 0
M  V30 880 H 89.2449 -1.48525 1.40572 0
M  V30 881 H 87.3999 -3.82939 0.586191 0
M  V30 882 H 87.8139 -4.49896 2.69618 0
M  V30 883 H 89.2879 -5.38099 1.231 0
M  V30 884 H 89.7649 -4.38959 -0.145359 0
M  V30 885 H 90.3709 -3.98796 1.47789 0
M  V30 886 N 88.686 -0.835752 -1.33615 0
M  V30 887 C 89.633 -0.26473 -2.29277 0
M  V30 888 C 90.603 0.617712 -1.54187 0
M  V30 889 O 91.788 0.556641 -1.825 0
M  V30 890 C 88.928 0.556777 -3.40579 0
M  V30 891 C 88.041 -0.349339 -4.30585 0
M  V30 892 C 87.176 0.482969 -5.29 0
M  V30 893 C 86.215 -0.421732 -6.10645 0
M  V30 894 N 85.352 0.372262 -7.01112 0
M  V30 895 H 90.192 -1.08582 -2.77514 0
M  V30 896 H 87.729 -0.546927 -1.36554 0
M  V30 897 H 89.687 1.04852 -4.03809 0
M  V30 898 H 88.317 1.34286 -2.93542 0
M  V30 899 H 87.369 -0.959372 -3.68104 0
M  V30 900 H 88.681 -1.04445 -4.87742 0
M  V30 901 H 87.835 1.03866 -5.97743 0
M  V30 902 H 86.574 1.21153 -4.72412 0
M  V30 903 H 85.579 -0.989464 -5.40823 0
M  V30 904 H 86.804 -1.14861 -6.69316 0
M  V30 905 H 84.75 1.08426 -6.46977 0
M  V30 906 H 84.667 -0.264198 -7.55538 0
M  V30 907 H 85.935 0.910293 -7.74167 0
M  V30 908 N 90.1641 1.46063 -0.591896 0
M  V30 909 C 91.4041 2.04228 -0.0838014 0
M  V30 910 C 91.7681 1.45231 1.25587 0
M  V30 911 O 92.9691 1.94653 1.85375 0
M  V30 912 C 91.2401 3.57389 -0.0286282 0
M  V30 913 S 92.7991 4.3678 0.420557 0
M  V30 914 H 89.6171 0.709762 -0.0419319 0
M  V30 915 H 92.2191 1.78983 -0.786465 0
M  V30 916 H 90.9231 3.97843 -1.00743 0
M  V30 917 H 90.4541 3.87185 0.69652 0
M  V30 918 H 92.4691 4.67131 1.67341 0
M  V30 919 N 91.6422 0.330177 1.54103 0
M  V30 920 C 92.8902 -0.269871 2.0029 0
M  V30 921 C 93.2112 -1.52133 1.21986 0
M  V30 922 O 92.4812 -1.93212 0.323438 0
M  V30 923 H 91.0612 -0.10271 0.739905 0
M  V30 924 H 93.7232 0.448249 1.89675 0
M  V30 925 H 92.8192 -0.52166 3.07709 0
M  V30 926 N 93.1203 -1.57491 0.0584922 0
M  V30 927 C 94.3683 -1.92597 -0.612436 0
M  V30 928 C 94.6893 -0.938162 -1.70949 0
M  V30 929 O 93.9593 0.0158301 -1.95894 0
M  V30 930 H 92.5393 -0.710964 -0.229214 0
M  V30 931 H 95.2013 -1.94571 0.113218 0
M  V30 932 H 94.2973 -2.94038 -1.04633 0
M  V30 933 N 94.5984 0.214957 -1.56127 0
M  V30 934 C 95.8384 0.945364 -1.81224 0
M  V30 935 C 96.2024 1.81265 -0.633005 0
M  V30 936 O 97.4034 2.57731 -0.763423 0
M  V30 937 C 95.6744 1.75665 -3.1125 0
M  V30 938 S 97.2334 2.54179 -3.57685 0
M  V30 939 H 94.0514 0.317443 -0.6362 0
M  V30 940 H 96.6534 0.210381 -1.94365 0
M  V30 941 H 95.3574 1.10977 -3.9511 0
M  V30 942 H 94.8884 2.53381 -3.00934 0
M  V30 943 H 96.9034 3.7792 -3.21545 0
M  V30 944 N 96.0765 1.50051 0.48192 0
M  V30 945 C 97.0265 1.64512 1.5786 0
M  V30 946 C 98.0105 0.500073 1.52932 0
M  V30 947 O 99.2025 0.753964 1.60139 0
M  V30 948 C 96.3315 1.73263 2.9637 0
M  V30 949 C 95.4175 2.93409 3.06222 0
M  V30 950 N 95.8085 4.17236 2.85915 0
M  V30 951 C 94.1065 2.91742 3.37346 0
M  V30 952 C 94.8075 4.981 3.00451 0
M  V30 953 N 93.7835 4.3184 3.30174 0
M  V30 954 H 97.5855 2.57955 1.40842 0
M  V30 955 H 95.0995 1.47086 0.688439 0
M  V30 956 H 97.0965 1.81724 3.75209 0
M  V30 957 H 95.7565 0.809711 3.14442 0
M  V30 958 H 96.7675 4.46909 2.6171 0
M  V30 959 H 93.4445 2.08907 3.61475 0
M  V30 960 H 94.8345 6.06532 2.89082 0
M  V30 961 N 97.5546 -0.734337 1.39446 0
M  V30 962 C 98.8036 -1.48937 1.36017 0
M  V30 963 C 99.1166 -1.95557 -0.0409005 0
M  V30 964 O 100.323 -2.70779 -0.19778 0
M  V30 965 C 98.7786 -2.69125 2.38955 0
M  V30 966 C 98.3866 -2.29452 3.8478 0
M  V30 967 C 100.131 -3.46944 2.44603 0
M  V30 968 C 98.0376 -3.46366 4.79358 0
M  V30 969 H 96.9676 -0.559296 0.505672 0
M  V30 970 H 99.6186 -0.800983 1.65095 0
M  V30 971 H 98.0006 -3.40041 2.02948 0
M  V30 972 H 99.1746 -1.66077 4.29831 0
M  V30 973 H 97.4896 -1.64723 3.82433 0
M  V30 974 H 100.087 -4.33907 3.12456 0
M  V30 975 H 100.43 -3.89454 1.47076 0
M  V30 976 H 100.963 -2.83056 2.79507 0
M  V30 977 H 97.7016 -3.08905 5.78151 0
M  V30 978 H 97.2216 -4.08719 4.38986 0
M  V30 979 H 98.9006 -4.12691 4.98292 0
M  V30 980 N 99.0327 -1.24633 -0.964593 0
M  V30 981 C 99.9797 -1.04144 -2.05968 0
M  V30 982 C 100.95 0.046262 -1.66036 0
M  V30 983 O 102.135 -0.108972 -1.90489 0
M  V30 984 C 99.2747 -0.65563 -3.38815 0
M  V30 985 C 98.3877 -1.81714 -3.91923 0
M  V30 986 C 97.5227 -1.37662 -5.13052 0
M  V30 987 C 96.5617 -2.50788 -5.58365 0
M  V30 988 N 95.6987 -2.07582 -6.70712 0
M  V30 989 H 100.539 -1.9787 -2.22827 0
M  V30 990 H 98.0757 -0.9855 -1.09208 0
M  V30 991 H 100.034 -0.412954 -4.15151 0
M  V30 992 H 98.6637 0.244627 -3.21872 0
M  V30 993 H 97.7157 -2.1734 -3.12198 0
M  V30 994 H 99.0277 -2.66705 -4.21509 0
M  V30 995 H 98.1817 -1.093 -5.96773 0
M  V30 996 H 96.9207 -0.497293 -4.85158 0
M  V30 997 H 95.9257 -2.79906 -4.73215 0
M  V30 998 H 97.1507 -3.39283 -5.88272 0
M  V30 999 H 95.0967 -1.22051 -6.44546 0
M  V30 1000 H 95.0137 -2.86125 -6.99763 0
M  V30 1001 H 96.2817 -1.82369 -7.57867 0
M  V30 1002 O 100.55 1.09713 -1.18513 0
M  V30 1003 H 101.241 1.69993 -0.928547 0
M  V30 END ATOM
M  V30 BEGIN BOND
M  V30 END BOND
M  V30 END CTAB
M  END
$$$$
