drugbank_target|P00167 Cytochrome b5 (DB04009; DB11136; DB14526; DB14527; DB14528; DB14529; DB14530)
 OpenBabel12092119493D

  0  0  0     0  0            999 V3000
M  V30 BEGIN CTAB
M  V30 COUNTS 2112 2140 0 0 0
M  V30 BEGIN ATOM
M  V30 1 H -0.908 1.98254 -0.117106 0
M  V30 2 N 0 1.576 0 0
M  V30 3 C 0.933 2.03868 1.02534 0
M  V30 4 C 1.911 0.928543 1.3348 0
M  V30 5 O 3.095 1.19667 1.45644 0
M  V30 6 C 0.222 2.43627 2.35294 0
M  V30 7 C -0.732 3.65373 2.2001 0
M  V30 8 S 0.101 5.13292 1.52614 0
M  V30 9 C 1.257 5.56322 2.86805 0
M  V30 10 H 1.49 2.90518 0.631377 0
M  V30 11 H -0.977 1.52953 0.210867 0
M  V30 12 H 0.981 2.67203 3.11629 0
M  V30 13 H -0.358 1.57376 2.7183 0
M  V30 14 H -1.165 3.90944 3.18086 0
M  V30 15 H -1.563 3.418 1.51819 0
M  V30 16 H 0.729 5.58782 3.83104 0
M  V30 17 H 1.672 6.56266 2.65933 0
M  V30 18 H 2.08 4.83886 2.90714 0
M  V30 19 N 1.4781 -0.272755 1.55222 0
M  V30 20 C 2.4411 -1.32041 1.87344 0
M  V30 21 C 3.4411 -1.42342 0.74803 0
M  V30 22 O 4.6311 -1.41488 1.0162 0
M  V30 23 C 1.7631 -2.70173 2.07893 0
M  V30 24 H 2.9561 -1.04789 2.80997 0
M  V30 25 H 0.5091 -0.51083 1.47717 0
M  V30 26 H 1.2441 -3.02605 1.16622 0
M  V30 27 H 1.0291 -2.64082 2.89833 0
M  V30 28 H 2.5191 -3.45869 2.34017 0
M  V30 29 N 2.9562 -1.48159 -0.537278 0
M  V30 30 C 3.8662 -1.64807 -1.6696 0
M  V30 31 C 4.8822 -0.530651 -1.65711 0
M  V30 32 O 6.0582 -0.800784 -1.84796 0
M  V30 33 C 3.1232 -1.67708 -3.03438 0
M  V30 34 C 2.1842 -2.91025 -3.156 0
M  V30 35 C 1.4172 -2.93778 -4.45567 0
M  V30 36 O 1.6402 -2.05153 -5.3223 0
M  V30 37 O 0.5742 -3.85868 -4.61941 0
M  V30 38 H 4.4002 -2.6066 -1.55853 0
M  V30 39 H 1.9852 -1.31475 -0.709549 0
M  V30 40 H 3.8672 -1.7218 -3.84619 0
M  V30 41 H 2.5422 -0.750278 -3.14885 0
M  V30 42 H 1.4492 -2.92089 -2.33741 0
M  V30 43 H 2.7822 -3.83065 -3.09066 0
M  V30 44 N 4.4343 0.785586 -1.36625 0
M  V30 45 C 5.3663 1.90711 -1.2713 0
M  V30 46 C 6.3793 1.61688 -0.189986 0
M  V30 47 O 7.5683 1.72864 -0.445014 0
M  V30 48 C 4.6683 3.25611 -0.939713 0
M  V30 49 C 3.8413 3.82385 -2.12369 0
M  V30 50 C 2.9003 4.95732 -1.76456 0
M  V30 51 O 1.9263 5.12047 -2.48589 0
M  V30 52 N 3.1283 5.76258 -0.700492 0
M  V30 53 H 5.8933 1.99376 -2.23762 0
M  V30 54 H 3.4543 0.964041 -1.30069 0
M  V30 55 H 5.4463 3.98937 -0.680554 0
M  V30 56 H 4.0163 3.12538 -0.0624074 0
M  V30 57 H 3.2363 3.01001 -2.54543 0
M  V30 58 H 4.5243 4.17047 -2.9146 0
M  V30 59 H 3.9223 5.65609 -0.101624 0
M  V30 60 H 2.4793 6.4987 -0.501165 0
M  V30 61 N 5.9124 1.20967 1.01018 0
M  V30 62 C 7.1374 1.0503 1.78839 0
M  V30 63 C 7.5624 -0.395752 1.8389 0
M  V30 64 O 6.9204 -1.28529 1.27867 0
M  V30 65 C 6.9684 1.64602 3.2084 0
M  V30 66 O 6.0724 0.887988 4.02726 0
M  V30 67 H 5.4134 0.369987 0.551367 0
M  V30 68 H 7.9434 1.60399 1.27018 0
M  V30 69 H 7.9534 1.68607 3.71532 0
M  V30 70 H 6.6284 2.69841 3.16479 0
M  V30 71 H 5.2054 0.922648 3.61305 0
M  V30 72 N 7.3905 -1.2043 1.01659 0
M  V30 73 C 8.6675 -1.8548 0.621004 0
M  V30 74 C 9.0475 -1.9091 -0.900919 0
M  V30 75 O 8.3955 -1.41694 -1.79263 0
M  V30 76 C 8.6055 -3.25119 1.2688 0
M  V30 77 C 9.9535 -4.01403 1.38423 0
M  V30 78 O 10.9775 -3.34473 1.22501 0
M  V30 79 O 9.8365 -5.21265 1.64151 0
M  V30 80 H 6.9305 -0.798761 0.214266 0
M  V30 81 H 9.4765 -1.28019 1.11396 0
M  V30 82 H 8.2485 -3.15932 2.30873 0
M  V30 83 H 7.8715 -3.90212 0.762917 0
M  V30 84 N 8.8686 -0.792821 -1.36206 0
M  V30 85 C 9.7786 -0.194808 -2.3379 0
M  V30 86 C 10.7946 0.654869 -1.61206 0
M  V30 87 O 11.9706 0.569856 -1.9317 0
M  V30 88 C 9.0356 0.657721 -3.40404 0
M  V30 89 C 8.0966 -0.210849 -4.28782 0
M  V30 90 C 7.3296 0.601086 -5.30304 0
M  V30 91 O 7.5526 1.83682 -5.40016 0
M  V30 92 O 6.4866 -0.000808277 -6.019 0
M  V30 93 H 10.3126 -1.00172 -2.86704 0
M  V30 94 H 7.8976 -0.554341 -1.38735 0
M  V30 95 H 9.7796 1.14375 -4.05581 0
M  V30 96 H 8.4546 1.44247 -2.89784 0
M  V30 97 H 7.3616 -0.743714 -3.66633 0
M  V30 98 H 8.6946 -0.959195 -4.82763 0
M  V30 99 N 10.3467 1.47872 -0.545128 0
M  V30 100 C 11.3097 2.28337 0.198717 0
M  V30 101 C 12.3097 1.36255 0.853888 0
M  V30 102 O 13.4997 1.59003 0.711606 0
M  V30 103 C 10.6317 3.15585 1.28915 0
M  V30 104 H 11.8247 2.95567 -0.507941 0
M  V30 105 H 9.3777 1.53362 -0.301616 0
M  V30 106 H 10.1127 2.53019 2.02859 0
M  V30 107 H 9.8977 3.83337 0.824309 0
M  V30 108 H 11.3877 3.76243 1.81194 0
M  V30 109 N 11.8248 0.280983 1.55075 0
M  V30 110 C 13.0708 -0.33461 2.00021 0
M  V30 111 C 13.4038 -1.55063 1.16915 0
M  V30 112 O 12.6788 -1.93006 0.240646 0
M  V30 113 C 12.9618 -0.711007 3.53011 0
M  V30 114 C 12.8148 0.512766 4.46868 0
M  V30 115 C 14.1338 -1.54522 4.12081 0
M  V30 116 H 11.2528 -0.120147 0.727141 0
M  V30 117 H 13.8948 0.389097 1.85973 0
M  V30 118 H 12.0448 -1.32761 3.65112 0
M  V30 119 H 13.7168 1.15131 4.46702 0
M  V30 120 H 11.9598 1.14975 4.18286 0
M  V30 121 H 12.6308 0.205556 5.51617 0
M  V30 122 H 15.1068 -1.02442 4.03293 0
M  V30 123 H 13.9828 -1.77739 5.19327 0
M  V30 124 H 14.2438 -2.52813 3.62682 0
M  V30 125 N 13.3029 -1.57598 0.00835791 0
M  V30 126 C 14.2499 -2.08945 -0.980346 0
M  V30 127 C 15.2199 -0.986738 -1.33614 0
M  V30 128 O 16.4049 -1.25968 -1.43306 0
M  V30 129 C 13.5449 -2.60425 -2.26435 0
M  V30 130 C 12.6579 -3.84628 -1.96685 0
M  V30 131 C 11.7929 -4.24579 -3.19228 0
M  V30 132 C 10.8319 -5.41596 -2.85202 0
M  V30 133 N 9.9689 -5.768 -4.00307 0
M  V30 134 H 14.8089 -2.93148 -0.535551 0
M  V30 135 H 12.3459 -1.44912 -0.252776 0
M  V30 136 H 14.3039 -2.88354 -3.01509 0
M  V30 137 H 12.9339 -1.79083 -2.68568 0
M  V30 138 H 11.9859 -3.63556 -1.11942 0
M  V30 139 H 13.2979 -4.69796 -1.67611 0
M  V30 140 H 12.4519 -4.53834 -4.02641 0
M  V30 141 H 11.1909 -3.38137 -3.51447 0
M  V30 142 H 10.1959 -5.12056 -2.00198 0
M  V30 143 H 11.4209 -6.29721 -2.54222 0
M  V30 144 H 9.3669 -4.93316 -4.32407 0
M  V30 145 H 9.2839 -6.5656 -3.74786 0
M  V30 146 H 10.5519 -6.10652 -4.84484 0
M  V30 147 N 14.781 0.264519 -1.55364 0
M  V30 148 C 16.011 1.01153 -1.80143 0
M  V30 149 C 16.419 1.80115 -0.579253 0
M  V30 150 O 15.762 1.77813 0.46132 0
M  V30 151 C 15.824 2.01098 -2.97993 0
M  V30 152 C 15.488 1.40995 -4.34706 0
M  V30 153 C 16.485 0.821316 -5.13372 0
M  V30 154 C 14.17 1.43461 -4.81378 0
M  V30 155 C 16.164 0.265339 -6.36847 0
M  V30 156 C 13.851 0.874771 -6.04807 0
M  V30 157 C 14.849 0.291146 -6.82379 0
M  V30 158 O 14.537 -0.260093 -8.03479 0
M  V30 159 H 14.269 0.304125 -0.603725 0
M  V30 160 H 16.823 0.298089 -2.03225 0
M  V30 161 H 15.053 2.76224 -2.70623 0
M  V30 162 H 16.742 2.61997 -3.1002 0
M  V30 163 H 17.508 0.794903 -4.78442 0
M  V30 164 H 13.387 1.87826 -4.21002 0
M  V30 165 H 16.931 -0.190837 -6.97339 0
M  V30 166 H 12.828 0.898452 -6.39217 0
M  V30 167 H 13.596 -0.150265 -8.18362 0
M  V30 168 N 16.2591 1.48442 0.529413 0
M  V30 169 C 17.4891 1.59919 1.30804 0
M  V30 170 C 17.8971 0.258792 1.87422 0
M  V30 171 O 17.2401 -0.762096 1.67146 0
M  V30 172 C 17.3021 2.58693 2.49636 0
M  V30 173 C 16.9661 4.03745 2.14101 0
M  V30 174 C 17.9631 4.9141 1.6974 0
M  V30 175 C 15.6481 4.49285 2.24607 0
M  V30 176 C 17.6421 6.22645 1.36351 0
M  V30 177 C 15.3291 5.8054 1.9083 0
M  V30 178 C 16.3271 6.67043 1.46773 0
M  V30 179 O 16.0151 7.95856 1.1344 0
M  V30 180 H 15.7471 0.541981 0.404021 0
M  V30 181 H 18.3011 1.95 0.645309 0
M  V30 182 H 16.5311 2.18734 3.18892 0
M  V30 183 H 18.2201 2.59999 3.11698 0
M  V30 184 H 18.9861 4.57465 1.61094 0
M  V30 185 H 14.8651 3.82142 2.57854 0
M  V30 186 H 18.4091 6.90119 1.01891 0
M  V30 187 H 14.3061 6.14022 1.99117 0
M  V30 188 H 15.0741 8.08613 1.26832 0
M  V30 189 N 17.7372 -0.778329 1.37039 0
M  V30 190 C 18.9652 -1.56734 1.35063 0
M  V30 191 C 19.3802 -1.88686 -0.0655597 0
M  V30 192 O 18.7372 -1.5096 -1.02554 0
M  V30 193 C 18.7882 -2.88163 2.18276 0
M  V30 194 O 18.5092 -2.57583 3.54376 0
M  V30 195 C 20.0102 -3.82422 2.24206 0
M  V30 196 H 17.2302 -0.485778 0.462883 0
M  V30 197 H 19.7742 -0.965185 1.8029 0
M  V30 198 H 17.9292 -3.44818 1.76576 0
M  V30 199 H 18.3432 -3.41699 3.97922 0
M  V30 200 H 19.8172 -4.71667 2.86765 0
M  V30 201 H 20.2942 -4.21078 1.24861 0
M  V30 202 H 20.9002 -3.31697 2.6619 0
M  V30 203 N 19.2153 -1.21501 -1.00376 0
M  V30 204 C 20.1453 -0.999478 -2.11028 0
M  V30 205 C 21.1263 0.0759671 -1.6993 0
M  V30 206 O 22.3113 -0.0841106 -1.94018 0
M  V30 207 C 19.4413 -0.564709 -3.42678 0
M  V30 208 C 18.3953 -1.58486 -3.97576 0
M  V30 209 C 17.7213 -1.00628 -5.25146 0
M  V30 210 C 19.0213 -2.97204 -4.29496 0
M  V30 211 H 20.7153 -1.92495 -2.29317 0
M  V30 212 H 18.2613 -0.92693 -1.102 0
M  V30 213 H 20.2143 -0.401091 -4.19487 0
M  V30 214 H 18.9383 0.396411 -3.24185 0
M  V30 215 H 17.5973 -1.73606 -3.22888 0
M  V30 216 H 17.2453 -0.0368439 -5.02987 0
M  V30 217 H 16.9453 -1.68771 -5.62841 0
M  V30 218 H 18.4693 -0.854015 -6.04598 0
M  V30 219 H 19.8833 -2.8552 -4.97143 0
M  V30 220 H 18.2803 -3.62372 -4.78338 0
M  V30 221 H 19.3503 -3.47956 -3.3772 0
M  V30 222 N 20.6934 1.19889 -1.02296 0
M  V30 223 C 21.6034 2.26571 -0.608508 0
M  V30 224 C 22.6194 1.70299 0.356964 0
M  V30 225 O 23.7954 2.00235 0.216326 0
M  V30 226 C 20.8604 3.46677 0.0402814 0
M  V30 227 C 19.9214 4.18153 -0.97194 0
M  V30 228 C 19.1544 5.32525 -0.354016 0
M  V30 229 O 19.3774 5.64112 0.844604 0
M  V30 230 O 18.3114 5.92242 -1.07391 0
M  V30 231 H 22.1374 2.64251 -1.49684 0
M  V30 232 H 19.7224 1.26629 -0.792809 0
M  V30 233 H 21.6044 4.19475 0.402324 0
M  V30 234 H 20.2794 3.10858 0.902707 0
M  V30 235 H 19.1864 3.47499 -1.38546 0
M  V30 236 H 20.5194 4.57927 -1.80454 0
M  V30 237 N 22.1715 0.800033 1.35784 0
M  V30 238 C 23.0815 0.207204 2.33683 0
M  V30 239 C 24.0975 -0.64631 1.61551 0
M  V30 240 O 25.2735 -0.559604 1.93469 0
M  V30 241 C 22.3385 -0.639659 3.40748 0
M  V30 242 C 21.3995 0.233585 4.28664 0
M  V30 243 C 20.6325 -0.572954 5.30616 0
M  V30 244 O 20.8555 -1.80816 5.40982 0
M  V30 245 O 19.7895 0.0327285 6.01891 0
M  V30 246 H 23.6155 1.01692 2.86169 0
M  V30 247 H 21.2005 0.561691 1.38439 0
M  V30 248 H 23.0825 -1.12223 4.06182 0
M  V30 249 H 21.7575 -1.42708 2.90544 0
M  V30 250 H 20.6645 0.763147 3.66233 0
M  V30 251 H 21.9975 0.984784 4.82248 0
M  V30 252 N 23.6496 -1.47581 0.552962 0
M  V30 253 C 24.8986 -2.01684 0.0251995 0
M  V30 254 C 25.2116 -1.43317 -1.33115 0
M  V30 255 O 26.4176 -1.89057 -1.94858 0
M  V30 256 C 24.8736 -3.599 -0.00542052 0
M  V30 257 C 24.4816 -4.27257 1.34742 0
M  V30 258 C 26.2256 -4.21768 -0.4808 0
M  V30 259 C 24.1326 -5.77467 1.27614 0
M  V30 260 H 23.0626 -0.753979 0.00565033 0
M  V30 261 H 25.7136 -1.69616 0.70018 0
M  V30 262 H 24.0956 -3.88911 -0.745961 0
M  V30 263 H 25.2696 -4.09893 2.10534 0
M  V30 264 H 23.5846 -3.77358 1.76039 0
M  V30 265 H 26.1816 -5.31838 -0.55246 0
M  V30 266 H 26.5246 -3.88651 -1.49184 0
M  V30 267 H 27.0576 -3.97273 0.204752 0
M  V30 268 H 23.7966 -6.15196 2.26304 0
M  V30 269 H 23.3166 -5.9718 0.55996 0
M  V30 270 H 24.9956 -6.3959 0.976421 0
M  V30 271 N 25.1277 -0.289203 -1.54924 0
M  V30 272 C 26.0597 0.625583 -2.20497 0
M  V30 273 C 27.0727 1.10667 -1.19402 0
M  V30 274 O 28.2617 1.02615 -1.46056 0
M  V30 275 C 25.3617 1.86702 -2.82835 0
M  V30 276 C 24.5347 1.5304 -4.09753 0
M  V30 277 C 23.5937 2.62576 -4.56005 0
M  V30 278 O 22.6197 2.28167 -5.21468 0
M  V30 279 N 23.8217 3.92901 -4.27328 0
M  V30 280 H 26.5867 0.0642801 -2.99631 0
M  V30 281 H 24.1477 -0.110896 -1.6152 0
M  V30 282 H 26.1397 2.59304 -3.10715 0
M  V30 283 H 24.7097 2.33702 -2.07611 0
M  V30 284 H 23.9297 0.637564 -3.8901 0
M  V30 285 H 25.2177 1.28072 -4.92418 0
M  V30 286 H 24.6157 4.23671 -3.74859 0
M  V30 287 H 23.1727 4.61837 -4.59946 0
M  V30 288 N 26.6058 1.57591 -0.0167156 0
M  V30 289 C 27.5528 2.09462 0.969251 0
M  V30 290 C 28.5228 0.99381 1.33089 0
M  V30 291 O 29.7078 1.26726 1.42636 0
M  V30 292 C 26.8478 2.61622 2.25051 0
M  V30 293 C 25.9608 3.85666 1.94642 0
M  V30 294 C 25.0958 4.26266 3.16972 0
M  V30 295 C 24.1348 5.43101 2.82326 0
M  V30 296 N 23.2718 5.78915 3.97243 0
M  V30 297 H 28.1118 2.93428 0.519997 0
M  V30 298 H 25.6488 1.45044 0.245087 0
M  V30 299 H 27.6068 2.89949 2.99976 0
M  V30 300 H 26.2368 1.80505 2.67615 0
M  V30 301 H 25.2888 3.64145 1.10013 0
M  V30 302 H 26.6008 4.70678 1.65117 0
M  V30 303 H 25.7548 4.55963 4.00228 0
M  V30 304 H 24.4938 3.39996 3.49648 0
M  V30 305 H 23.4988 5.1311 1.97479 0
M  V30 306 H 24.7238 6.3106 2.50879 0
M  V30 307 H 22.6698 4.95602 4.29785 0
M  V30 308 H 22.5868 6.58539 3.71299 0
M  V30 309 H 23.8548 6.13212 4.81239 0
M  V30 310 N 28.0839 -0.256276 1.55502 0
M  V30 311 C 29.0339 -1.31981 1.85916 0
M  V30 312 C 30.0179 -1.43927 0.719296 0
M  V30 313 O 31.2099 -1.47326 0.981019 0
M  V30 314 C 28.3389 -2.67703 2.14918 0
M  V30 315 C 27.4249 -2.59801 3.35208 0
M  V30 316 N 27.8159 -2.21524 4.54709 0
M  V30 317 C 26.1139 -2.90832 3.38131 0
M  V30 318 C 26.8149 -2.24024 5.36832 0
M  V30 319 N 25.7909 -2.63158 4.75656 0
M  V30 320 H 29.5929 -1.01423 2.75845 0
M  V30 321 H 27.1069 -0.464911 1.55603 0
M  V30 322 H 29.1039 -3.44445 2.34869 0
M  V30 323 H 27.7639 -2.99137 1.26282 0
M  V30 324 H 28.7749 -1.93223 4.80505 0
M  V30 325 H 25.4519 -3.26867 2.59739 0
M  V30 326 H 26.8419 -1.9685 6.42417 0
M  V30 327 N 29.562 -1.4872 -0.521534 0
M  V30 328 C 30.51 -1.64328 -1.64618 0
M  V30 329 C 31.504 -0.50953 -1.61555 0
M  V30 330 O 32.71 -0.688525 -1.66311 0
M  V30 331 H 29.085 -0.517805 -0.545328 0
M  V30 332 H 31.056 -2.58767 -1.48601 0
M  V30 333 C 29.805 -1.70805 -3.02855 0
M  V30 334 H 29.128 -2.5741 -3.05909 0
M  V30 335 H 30.568 -1.85766 -3.81139 0
M  V30 336 C 29.027 -0.448479 -3.33902 0
M  V30 337 O 29.557 0.434928 -3.99339 0
M  V30 338 N 27.763 -0.317616 -2.88859 0
M  V30 339 H 27.31 -1.03748 -2.35784 0
M  V30 340 H 27.268 0.524113 -3.10001 0
M  V30 341 N 31.0401 0.771051 -1.3745 0
M  V30 342 C 31.9901 1.87456 -1.29785 0
M  V30 343 C 32.9741 1.59827 -0.185541 0
M  V30 344 O 34.1661 1.71945 -0.419997 0
M  V30 345 C 31.2951 3.24935 -1.1078 0
M  V30 346 C 30.3811 3.58514 -2.26558 0
M  V30 347 N 30.7721 3.6327 -3.5195 0
M  V30 348 C 29.0701 3.88683 -2.18727 0
M  V30 349 C 29.7711 3.93616 -4.283 0
M  V30 350 N 28.7471 4.09551 -3.57448 0
M  V30 351 H 32.5491 1.89386 -2.24745 0
M  V30 352 H 30.0631 0.967531 -1.30432 0
M  V30 353 H 32.0601 4.03881 -1.03374 0
M  V30 354 H 30.7201 3.24268 -0.16738 0
M  V30 355 H 31.7311 3.45458 -3.85848 0
M  V30 356 H 28.4081 3.95834 -1.32746 0
M  V30 357 H 29.7981 4.04066 -5.36824 0
M  V30 358 N 32.5182 1.22032 0.997298 0
M  V30 359 C 33.7432 1.06921 1.77715 0
M  V30 360 C 34.1682 -0.376226 1.84299 0
M  V30 361 O 33.5262 -1.27165 1.29223 0
M  V30 362 C 33.5742 1.67996 3.19076 0
M  V30 363 O 32.6782 0.930653 4.01762 0
M  V30 364 H 32.0192 0.375814 0.547412 0
M  V30 365 H 34.5492 1.61737 1.25309 0
M  V30 366 H 34.5592 1.72538 3.69723 0
M  V30 367 H 33.2342 2.73182 3.13599 0
M  V30 368 H 31.8112 0.960917 3.60307 0
M  V30 369 N 33.9963 -1.19345 1.0293 0
M  V30 370 C 34.9433 -2.2258 0.610464 0
M  V30 371 C 35.9133 -1.6179 -0.375946 0
M  V30 372 O 37.0983 -1.88844 -0.272511 0
M  V30 373 C 34.2383 -3.45085 -0.0321473 0
M  V30 374 C 33.3513 -4.20258 1.00035 0
M  V30 375 C 32.4863 -5.3019 0.32746 0
M  V30 376 C 31.5253 -5.97121 1.34584 0
M  V30 377 N 30.6623 -6.98615 0.698726 0
M  V30 378 H 35.5023 -2.57764 1.49538 0
M  V30 379 H 33.0393 -1.26644 0.748311 0
M  V30 380 H 34.9973 -4.15061 -0.421966 0
M  V30 381 H 33.6273 -3.10555 -0.88064 0
M  V30 382 H 32.6793 -3.49223 1.50823 0
M  V30 383 H 33.9913 -4.66175 1.77433 0
M  V30 384 H 33.1453 -6.06587 -0.11718 0
M  V30 385 H 31.8843 -4.85345 -0.478713 0
M  V30 386 H 30.8893 -5.19474 1.80074 0
M  V30 387 H 32.1143 -6.4405 2.15352 0
M  V30 388 H 30.0603 -6.55942 -0.0873471 0
M  V30 389 H 29.9773 -7.42724 1.41058 0
M  V30 390 H 31.2453 -7.79004 0.278102 0
M  V30 391 N 35.4744 -0.807222 -1.35358 0
M  V30 392 C 36.6994 -0.399309 -2.0352 0
M  V30 393 C 37.1244 0.981986 -1.60433 0
M  V30 394 O 36.4824 1.63601 -0.781299 0
M  V30 395 C 36.5304 -0.491552 -3.57234 0
M  V30 396 O 35.6344 0.494754 -4.09421 0
M  V30 397 H 34.9754 -0.166682 -0.642739 0
M  V30 398 H 37.5054 -1.09328 -1.72941 0
M  V30 399 H 37.5154 -0.361588 -4.06395 0
M  V30 400 H 36.1904 -1.49907 -3.87944 0
M  V30 401 H 34.7674 0.324977 -3.71481 0
M  V30 402 N 36.9525 1.47285 -0.560781 0
M  V30 403 C 38.1805 2.06855 -0.0430262 0
M  V30 404 C 38.5955 1.41291 1.25229 0
M  V30 405 O 37.9525 0.510648 1.7521 0
M  V30 406 C 38.0035 3.61178 0.152518 0
M  V30 407 O 37.7245 4.24285 -1.0915 0
M  V30 408 C 39.2255 4.37624 0.707145 0
M  V30 409 H 36.4455 0.669319 -0.0474652 0
M  V30 410 H 38.9895 1.89237 -0.77521 0
M  V30 411 H 37.1445 3.78298 0.834843 0
M  V30 412 H 37.5585 5.16868 -0.891482 0
M  V30 413 H 39.0325 5.46271 0.793244 0
M  V30 414 H 39.5095 4.04152 1.71923 0
M  V30 415 H 40.1155 4.25257 0.0604027 0
M  V30 416 N 38.4306 0.297415 1.54768 0
M  V30 417 C 39.6766 -0.306263 2.01081 0
M  V30 418 C 40.0316 -1.518 1.18214 0
M  V30 419 O 39.3246 -1.89967 0.249613 0
M  V30 420 C 39.5186 -0.717561 3.50123 0
M  V30 421 C 39.3476 0.45277 4.47415 0
M  V30 422 C 38.1176 0.943651 4.9641 0
M  V30 423 C 40.3156 1.29657 4.97688 0
M  V30 424 N 38.2976 2.08112 5.77549 0
M  V30 425 C 39.6686 2.28158 5.76493 0
M  V30 426 C 41.7236 1.32735 4.79881 0
M  V30 427 C 40.4266 3.29509 6.39387 0
M  V30 428 C 42.4526 2.32943 5.43591 0
M  V30 429 C 41.8146 3.30174 6.22225 0
M  V30 430 H 37.9136 -0.0766274 0.778237 0
M  V30 431 H 40.4976 0.426515 1.89971 0
M  V30 432 H 38.6686 -1.41952 3.6153 0
M  V30 433 H 40.4006 -1.30047 3.83236 0
M  V30 434 H 37.1556 0.51922 4.70745 0
M  V30 435 H 37.5796 2.65414 6.22803 0
M  V30 436 H 42.2216 0.589375 4.18672 0
M  V30 437 H 39.9396 4.04228 6.99732 0
M  V30 438 H 43.5256 2.36094 5.31743 0
M  V30 439 H 42.4056 4.06445 6.7065 0
M  V30 440 N 39.9087 -1.5758 0.0250728 0
M  V30 441 C 40.8387 -2.13007 -0.956575 0
M  V30 442 C 41.8197 -1.0452 -1.342 0
M  V30 443 O 43.0047 -1.32332 -1.42133 0
M  V30 444 C 40.1347 -2.65386 -2.24026 0
M  V30 445 C 39.0887 -3.78623 -1.99571 0
M  V30 446 C 38.4147 -4.17414 -3.3417 0
M  V30 447 C 39.7147 -5.04867 -1.33814 0
M  V30 448 H 41.4087 -2.9528 -0.494991 0
M  V30 449 H 38.9547 -1.42042 -0.236651 0
M  V30 450 H 40.9077 -3.02794 -2.93076 0
M  V30 451 H 39.6317 -1.80268 -2.72343 0
M  V30 452 H 38.2907 -3.41646 -1.32941 0
M  V30 453 H 37.9387 -3.29284 -3.80238 0
M  V30 454 H 37.6387 -4.93719 -3.18615 0
M  V30 455 H 39.1627 -4.57402 -4.04495 0
M  V30 456 H 40.5767 -5.39888 -1.92857 0
M  V30 457 H 38.9737 -5.86144 -1.28669 0
M  V30 458 H 40.0437 -4.83904 -0.310561 0
M  V30 459 N 41.3868 0.248026 -1.55636 0
M  V30 460 C 42.6358 0.974134 -1.76617 0
M  V30 461 C 42.9488 1.86528 -0.588796 0
M  V30 462 O 44.1548 2.62805 -0.681594 0
M  V30 463 C 42.6108 1.78213 -3.12679 0
M  V30 464 C 42.2188 0.93843 -4.38061 0
M  V30 465 C 43.9628 2.50104 -3.42999 0
M  V30 466 C 41.8698 1.74225 -5.65155 0
M  V30 467 H 40.7998 0.36745 -0.658405 0
M  V30 468 H 43.4508 0.22884 -1.82067 0
M  V30 469 H 41.8328 2.56933 -3.01333 0
M  V30 470 H 43.0068 0.193635 -4.60393 0
M  V30 471 H 41.3218 0.332905 -4.15067 0
M  V30 472 H 43.9188 3.10694 -4.3517 0
M  V30 473 H 44.2618 3.21662 -2.64271 0
M  V30 474 H 44.7948 1.78395 -3.55556 0
M  V30 475 H 41.5338 1.07043 -6.46701 0
M  V30 476 H 41.0538 2.46235 -5.46926 0
M  V30 477 H 42.7328 2.30967 -6.0437 0
M  V30 478 N 42.8649 1.48995 0.513639 0
M  V30 479 C 43.7949 1.67636 1.62544 0
M  V30 480 C 44.7759 0.525087 1.61793 0
M  V30 481 O 45.9609 0.759502 1.78732 0
M  V30 482 C 43.0909 1.73114 3.01079 0
M  V30 483 C 42.0449 2.87905 3.16693 0
M  V30 484 C 41.3709 2.78486 4.56453 0
M  V30 485 C 42.6709 4.29005 2.97913 0
M  V30 486 H 44.3649 2.60716 1.47198 0
M  V30 487 H 41.9109 1.25465 0.706714 0
M  V30 488 H 43.8639 1.84742 3.78746 0
M  V30 489 H 42.5879 0.766241 3.17484 0
M  V30 490 H 41.2469 2.75859 2.41448 0
M  V30 491 H 40.8949 1.7993 4.69717 0
M  V30 492 H 40.5949 3.55523 4.67843 0
M  V30 493 H 42.1189 2.92104 5.36197 0
M  V30 494 H 43.5329 4.41798 3.65359 0
M  V30 495 H 41.9299 5.07166 3.20785 0
M  V30 496 H 42.9999 4.44329 1.94165 0
M  V30 497 N 44.343 -0.763751 1.37857 0
M  V30 498 C 45.293 -1.86765 1.30777 0
M  V30 499 C 46.277 -1.59726 0.194015 0
M  V30 500 O 47.469 -1.7172 0.42911 0
M  V30 501 C 44.598 -3.24343 1.12502 0
M  V30 502 C 43.684 -3.57307 2.28456 0
M  V30 503 N 44.075 -3.61398 3.53871 0
M  V30 504 C 42.373 -3.87517 2.20786 0
M  V30 505 C 43.074 -3.91339 4.30382 0
M  V30 506 N 42.05 -4.07649 3.59615 0
M  V30 507 H 45.852 -1.88191 2.25746 0
M  V30 508 H 43.366 -0.9606 1.30944 0
M  V30 509 H 45.363 -4.03327 1.05514 0
M  V30 510 H 44.023 -3.24175 0.184574 0
M  V30 511 H 45.034 -3.43407 3.87675 0
M  V30 512 H 41.711 -3.95125 1.34844 0
M  V30 513 H 43.101 -4.01213 5.3896 0
M  V30 514 N 45.8211 -1.22559 -0.990812 0
M  V30 515 C 46.7711 -0.964807 -2.0658 0
M  V30 516 C 47.7551 0.0853472 -1.60673 0
M  V30 517 O 48.9471 -0.125443 -1.76555 0
M  V30 518 C 46.0761 -0.546707 -3.38919 0
M  V30 519 C 45.1621 -1.6317 -3.91454 0
M  V30 520 N 45.5531 -2.85985 -4.17189 0
M  V30 521 C 43.8511 -1.50387 -4.19881 0
M  V30 522 C 44.5521 -3.56159 -4.59919 0
M  V30 523 N 43.5281 -2.83637 -4.63736 0
M  V30 524 H 47.3301 -1.89769 -2.24421 0
M  V30 525 H 44.8441 -1.12343 -1.17273 0
M  V30 526 H 46.8411 -0.34119 -4.15502 0
M  V30 527 H 45.5011 0.379254 -3.22478 0
M  V30 528 H 46.5121 -3.22392 -4.05319 0
M  V30 529 H 43.1891 -0.644254 -4.12499 0
M  V30 530 H 44.5791 -4.6139 -4.88435 0
M  V30 531 N 47.2992 1.18797 -1.03562 0
M  V30 532 C 48.2462 2.22253 -0.622259 0
M  V30 533 C 49.2162 1.61987 0.36736 0
M  V30 534 O 50.4012 1.88986 0.262492 0
M  V30 535 C 47.5412 3.45097 0.0138462 0
M  V30 536 C 46.6542 4.19722 -1.02263 0
M  V30 537 C 45.7892 5.30009 -0.355573 0
M  V30 538 C 44.8282 5.96399 -1.37749 0
M  V30 539 N 43.9652 6.98234 -0.735766 0
M  V30 540 H 48.8052 2.56968 -1.50903 0
M  V30 541 H 46.3422 1.26245 -0.755017 0
M  V30 542 H 48.3002 4.15279 0.399948 0
M  V30 543 H 46.9302 3.11018 0.864158 0
M  V30 544 H 45.9822 3.48418 -1.52673 0
M  V30 545 H 47.2942 4.65227 -1.79903 0
M  V30 546 H 46.4482 6.0664 0.0850095 0
M  V30 547 H 45.1872 4.85592 0.452967 0
M  V30 548 H 44.1922 5.18512 -1.82826 0
M  V30 549 H 45.4172 6.42899 -2.18764 0
M  V30 550 H 43.3632 6.55979 0.0525597 0
M  V30 551 H 43.2802 7.41965 -1.44995 0
M  V30 552 H 44.5482 7.78845 -0.31941 0
M  V30 553 N 48.7773 0.814389 1.34928 0
M  V30 554 C 50.0233 0.399013 1.98836 0
M  V30 555 C 50.3563 -1.03314 1.64438 0
M  V30 556 O 49.6313 -1.71811 0.911659 0
M  V30 557 C 49.9143 0.591629 3.55207 0
M  V30 558 C 49.7673 2.06928 3.99376 0
M  V30 559 C 51.0863 0.022199 4.40094 0
M  V30 560 H 48.2053 0.146451 0.722303 0
M  V30 561 H 50.8473 1.02537 1.59957 0
M  V30 562 H 48.9973 0.0584441 3.88456 0
M  V30 563 H 50.6693 2.66544 3.76499 0
M  V30 564 H 48.9123 2.56287 3.49999 0
M  V30 565 H 49.5833 2.1549 5.08201 0
M  V30 566 H 52.0593 0.477643 4.13349 0
M  V30 567 H 50.9353 0.186832 5.48582 0
M  V30 568 H 51.1963 -1.07215 4.28902 0
M  V30 569 N 50.2554 -1.46986 0.568584 0
M  V30 570 C 51.4854 -2.0653 0.0539173 0
M  V30 571 C 51.8934 -1.42004 -1.25026 0
M  V30 572 O 51.2364 -0.514541 -1.76347 0
M  V30 573 C 51.2984 -3.58938 -0.200854 0
M  V30 574 C 50.9624 -4.45572 1.01559 0
M  V30 575 C 51.9594 -4.82986 1.92407 0
M  V30 576 C 49.6444 -4.8692 1.23346 0
M  V30 577 C 51.6384 -5.60559 3.03402 0
M  V30 578 C 49.3254 -5.64255 2.34649 0
M  V30 579 C 50.3234 -6.00986 3.24507 0
M  V30 580 O 50.0114 -6.76761 4.33878 0
M  V30 581 H 49.7434 -0.674292 0.0480234 0
M  V30 582 H 52.2974 -1.89812 0.784896 0
M  V30 583 H 50.5274 -3.73911 -0.986279 0
M  V30 584 H 52.2164 -4.0046 -0.662294 0
M  V30 585 H 52.9824 -4.51633 1.76785 0
M  V30 586 H 48.8614 -4.57789 0.543178 0
M  V30 587 H 52.4054 -5.89147 3.73565 0
M  V30 588 H 48.3024 -5.95021 2.5024 0
M  V30 589 H 49.0704 -6.95168 4.32068 0
M  V30 590 N 51.7335 -0.305618 -1.54608 0
M  V30 591 C 53.0105 0.355652 -1.92339 0
M  V30 592 C 53.3905 1.71324 -1.23335 0
M  V30 593 O 52.7385 2.25473 -0.370702 0
M  V30 594 C 52.9485 0.46572 -3.45879 0
M  V30 595 C 54.2965 0.734426 -4.182 0
M  V30 596 O 55.3205 0.54935 -3.51938 0
M  V30 597 O 54.1795 1.09024 -5.35515 0
M  V30 598 H 51.2735 0.199666 -0.802535 0
M  V30 599 H 53.8195 -0.354017 -1.65966 0
M  V30 600 H 52.5915 -0.488461 -3.88239 0
M  V30 601 H 52.2145 1.22367 -3.78301 0
M  V30 602 N 53.2116 1.57565 -0.0334293 0
M  V30 603 C 54.1416 2.13511 0.945265 0
M  V30 604 C 55.1226 1.05231 1.33643 0
M  V30 605 O 56.3076 1.33084 1.41429 0
M  V30 606 C 53.4376 2.6657 2.22616 0
M  V30 607 C 52.3916 3.79676 1.97561 0
M  V30 608 C 51.7176 4.1918 3.31952 0
M  V30 609 C 53.0176 5.0557 1.31135 0
M  V30 610 H 54.7116 2.95538 0.479325 0
M  V30 611 H 52.2576 1.42166 0.229115 0
M  V30 612 H 54.2106 3.04344 2.91466 0
M  V30 613 H 52.9346 1.8171 2.71384 0
M  V30 614 H 51.5936 3.42347 1.31127 0
M  V30 615 H 51.2416 3.31296 3.78487 0
M  V30 616 H 50.9416 4.95402 3.15992 0
M  V30 617 H 52.4656 4.59541 4.02063 0
M  V30 618 H 53.8796 5.40903 1.89992 0
M  V30 619 H 52.2766 5.86818 1.25559 0
M  V30 620 H 53.3466 4.84062 0.284894 0
M  V30 621 N 54.6897 -0.239769 1.55765 0
M  V30 622 C 55.9177 -0.98417 1.81994 0
M  V30 623 C 56.3327 -1.7867 0.610124 0
M  V30 624 O 55.6897 -1.77571 -0.421271 0
M  V30 625 C 55.7407 -1.91635 3.06526 0
M  V30 626 O 55.4617 -1.14629 4.22838 0
M  V30 627 C 56.9627 -2.77616 3.45607 0
M  V30 628 H 54.1827 -0.28928 0.605441 0
M  V30 629 H 56.7267 -0.260499 2.02834 0
M  V30 630 H 54.8817 -2.5942 2.87715 0
M  V30 631 H 55.2957 -1.77745 4.93464 0
M  V30 632 H 56.7697 -3.38759 4.35828 0
M  V30 633 H 57.2467 -3.4909 2.6652 0
M  V30 634 H 57.8527 -2.15271 3.66795 0
M  V30 635 N 56.1678 -1.49265 -0.50573 0
M  V30 636 C 57.1148 -1.65585 -1.6078 0
M  V30 637 C 58.0848 -0.497396 -1.58478 0
M  V30 638 O 59.2698 -0.72385 -1.76536 0
M  V30 639 C 56.4098 -1.72408 -2.98948 0
M  V30 640 C 55.5228 -2.99525 -3.11301 0
M  V30 641 C 54.6578 -2.97356 -4.40174 0
M  V30 642 C 53.6968 -4.19074 -4.46143 0
M  V30 643 N 52.8338 -4.14841 -5.66437 0
M  V30 644 H 57.6738 -2.59688 -1.46172 0
M  V30 645 H 55.2108 -1.28761 -0.711261 0
M  V30 646 H 57.1688 -1.74344 -3.79025 0
M  V30 647 H 55.7988 -0.817753 -3.1227 0
M  V30 648 H 54.8508 -3.07222 -2.24318 0
M  V30 649 H 56.1628 -3.89518 -3.11572 0
M  V30 650 H 55.3168 -2.97829 -5.28567 0
M  V30 651 H 54.0558 -2.05133 -4.42461 0
M  V30 652 H 53.0608 -4.1885 -3.56153 0
M  V30 653 H 54.2858 -5.12483 -4.45575 0
M  V30 654 H 52.2318 -3.25453 -5.69575 0
M  V30 655 H 52.1488 -4.98564 -5.68304 0
M  V30 656 H 53.4168 -4.1941 -6.57051 0
M  V30 657 N 57.6459 0.756429 -1.3826 0
M  V30 658 C 58.8929 1.51547 -1.34312 0
M  V30 659 C 59.2209 1.94382 0.0677144 0
M  V30 660 O 58.4759 1.65514 1.04421 0
M  V30 661 C 58.7749 2.78313 -2.24224 0
M  V30 662 C 58.4409 2.54455 -3.72241 0
M  V30 663 C 57.1029 2.47657 -4.12576 0
M  V30 664 C 59.4549 2.3354 -4.65949 0
M  V30 665 C 56.7829 2.17956 -5.44713 0
M  V30 666 C 59.1349 2.05359 -5.9834 0
M  V30 667 C 57.7989 1.97016 -6.37762 0
M  V30 668 H 57.0689 0.55455 -0.491482 0
M  V30 669 H 59.7159 0.870039 -1.70595 0
M  V30 670 H 58.0209 3.47492 -1.80987 0
M  V30 671 H 59.7179 3.36259 -2.18474 0
M  V30 672 H 56.3079 2.60616 -3.40261 0
M  V30 673 H 60.4919 2.37772 -4.35635 0
M  V30 674 H 55.7479 2.10003 -5.74203 0
M  V30 675 H 59.9219 1.88179 -6.70494 0
M  V30 676 H 57.5489 1.73766 -7.40074 0
M  V30 677 N 59.124 1.23083 0.984299 0
M  V30 678 C 60.054 1.03292 2.09411 0
M  V30 679 C 61.035 -0.048923 1.7003 0
M  V30 680 O 62.22 0.114967 1.93859 0
M  V30 681 C 59.35 0.619155 3.41736 0
M  V30 682 C 58.304 1.64791 3.95004 0
M  V30 683 C 57.63 1.0897 5.23478 0
M  V30 684 C 58.93 3.03999 4.24714 0
M  V30 685 H 60.624 1.96119 2.26225 0
M  V30 686 H 58.17 0.944344 1.08711 0
M  V30 687 H 60.123 0.467777 4.18796 0
M  V30 688 H 58.847 -0.344786 3.24775 0
M  V30 689 H 57.506 1.78721 3.20085 0
M  V30 690 H 57.154 0.11686 5.02864 0
M  V30 691 H 56.854 1.77704 5.60085 0
M  V30 692 H 58.378 0.950093 6.03163 0
M  V30 693 H 59.792 2.93393 4.92538 0
M  V30 694 H 58.189 3.69936 4.72512 0
M  V30 695 H 59.259 3.53285 3.32142 0
M  V30 696 N 60.6021 -1.18246 1.0419 0
M  V30 697 C 61.5121 -2.25574 0.644476 0
M  V30 698 C 62.5281 -1.70845 -0.329826 0
M  V30 699 O 63.7041 -2.00554 -0.184443 0
M  V30 700 C 60.7691 -3.46697 0.014877 0
M  V30 701 C 59.8301 -4.16554 1.03834 0
M  V30 702 C 59.0631 -5.31894 0.438692 0
M  V30 703 O 59.2861 -5.65385 -0.754752 0
M  V30 704 O 58.2201 -5.90459 1.168 0
M  V30 705 H 62.0461 -2.61836 1.53869 0
M  V30 706 H 59.6311 -1.25352 0.812854 0
M  V30 707 H 61.5131 -4.20062 -0.335538 0
M  V30 708 H 60.1881 -3.12255 -0.853138 0
M  V30 709 H 59.0951 -3.45251 1.44057 0
M  V30 710 H 60.4281 -4.54998 1.87716 0
M  V30 711 N 62.0802 -0.821533 -1.34494 0
M  V30 712 C 62.9902 -0.244355 -2.33324 0
M  V30 713 C 64.0062 0.620527 -1.62559 0
M  V30 714 O 65.1822 0.528754 -1.94335 0
M  V30 715 C 62.2472 0.585368 -3.41723 0
M  V30 716 C 61.3082 -0.301752 -4.28238 0
M  V30 717 C 60.5412 0.488466 -5.3146 0
M  V30 718 O 60.7642 1.72186 -5.4379 0
M  V30 719 O 59.6982 -0.12848 -6.01763 0
M  V30 720 H 63.5242 -1.06231 -2.84515 0
M  V30 721 H 61.1092 -0.583645 -1.37528 0
M  V30 722 H 62.9912 1.05747 -4.07916 0
M  V30 723 H 61.6662 1.38068 -2.92778 0
M  V30 724 H 60.5732 -0.821315 -3.64973 0
M  V30 725 H 61.9062 -1.06138 -4.8062 0
M  V30 726 N 63.5583 1.46682 -0.576371 0
M  V30 727 C 64.5083 2.27278 0.181288 0
M  V30 728 C 65.4923 1.35497 0.867721 0
M  V30 729 O 66.6843 1.59717 0.762863 0
M  V30 730 C 63.8133 3.21703 1.19841 0
M  V30 731 C 62.8993 4.20969 0.51442 0
M  V30 732 N 63.2903 5.03999 -0.426407 0
M  V30 733 C 61.5883 4.39373 0.765963 0
M  V30 734 C 62.2893 5.75812 -0.825565 0
M  V30 735 N 61.2653 5.43315 -0.176116 0
M  V30 736 H 65.0673 2.88863 -0.541785 0
M  V30 737 H 62.5813 1.57455 -0.397697 0
M  V30 738 H 64.5783 3.78145 1.75533 0
M  V30 739 H 63.2383 2.61677 1.92238 0
M  V30 740 H 64.2493 5.11659 -0.8016 0
M  V30 741 H 60.9263 3.90502 1.47698 0
M  V30 742 H 62.3163 6.52577 -1.59976 0
M  V30 743 N 65.0364 0.313813 1.54444 0
M  V30 744 C 66.4474 -0.176243 1.85866 0
M  V30 745 C 66.7984 -1.52405 1.23561 0
M  V30 746 O 65.9234 -2.09605 0.538016 0
M  V30 747 C 66.5184 -0.32657 3.37222 0
M  V30 748 C 65.0774 -0.760846 3.6863 0
M  V30 749 C 64.2244 0.123247 2.77026 0
M  V30 750 H 67.1754 0.534418 1.49431 0
M  V30 751 H 67.1964 -1.15908 3.62416 0
M  V30 752 H 66.7084 0.654531 3.82541 0
M  V30 753 H 64.8094 -1.75204 3.28838 0
M  V30 754 H 64.9224 -0.571353 4.75681 0
M  V30 755 H 63.2864 -0.399597 2.51546 0
M  V30 756 H 64.0694 1.10094 3.25168 0
M  V30 757 N 66.5145 -1.57545 0.0417849 0
M  V30 758 C 67.7625 -1.91937 -0.632829 0
M  V30 759 C 68.0835 -0.919978 -1.71934 0
M  V30 760 O 67.3535 0.0366064 -1.95866 0
M  V30 761 H 65.9335 -0.708493 -0.236742 0
M  V30 762 H 68.5955 -1.9468 0.0925745 0
M  V30 763 H 67.6915 -2.92912 -1.07746 0
M  V30 764 N 67.9926 0.231505 -1.5589 0
M  V30 765 C 69.2406 0.955461 -1.78088 0
M  V30 766 C 69.5616 1.85262 -0.608533 0
M  V30 767 O 68.8316 1.92277 0.375035 0
M  V30 768 H 67.4116 0.355787 -0.656829 0
M  V30 769 H 70.0736 0.245751 -1.93344 0
M  V30 770 H 69.1696 1.56814 -2.69844 0
M  V30 771 N 69.4707 1.49531 0.497807 0
M  V30 772 C 70.3807 1.69176 1.62532 0
M  V30 773 C 71.3967 0.5744 1.64246 0
M  V30 774 O 72.5727 0.849497 1.82608 0
M  V30 775 C 69.6377 1.75695 2.98885 0
M  V30 776 C 68.6987 2.9929 3.07773 0
M  V30 777 C 67.9317 3.05488 4.37622 0
M  V30 778 O 68.1547 2.19192 5.26603 0
M  V30 779 O 67.0887 3.9798 4.51548 0
M  V30 780 H 70.9147 2.647 1.48887 0
M  V30 781 H 68.4997 1.3331 0.674441 0
M  V30 782 H 70.3817 1.82317 3.79919 0
M  V30 783 H 69.0567 0.8335 3.12785 0
M  V30 784 H 67.9637 2.98183 2.25915 0
M  V30 785 H 69.2967 3.91125 2.98801 0
M  V30 786 N 70.9488 -0.749086 1.3866 0
M  V30 787 C 71.8588 -1.89358 1.38494 0
M  V30 788 C 72.8748 -1.71708 0.281476 0
M  V30 789 O 74.0508 -1.94554 0.520643 0
M  V30 790 C 71.1158 -3.24782 1.21316 0
M  V30 791 C 70.1768 -3.54926 2.41508 0
M  V30 792 C 69.4098 -4.83888 2.2514 0
M  V30 793 O 69.6328 -5.56592 1.24746 0
M  V30 794 O 68.5668 -5.13612 3.13826 0
M  V30 795 H 72.3928 -1.92452 2.34938 0
M  V30 796 H 69.9778 -0.894981 1.19626 0
M  V30 797 H 71.8598 -4.05739 1.13814 0
M  V30 798 H 70.5348 -3.2249 0.279592 0
M  V30 799 H 69.4418 -2.74112 2.54585 0
M  V30 800 H 70.7748 -3.61983 3.3351 0
M  V30 801 N 72.4269 -1.23603 -0.977757 0
M  V30 802 C 73.6729 -1.07129 -1.72195 0
M  V30 803 C 74.0059 0.390501 -1.90233 0
M  V30 804 O 73.2809 1.28902 -1.45653 0
M  V30 805 C 73.5639 -1.80031 -3.11867 0
M  V30 806 C 73.4169 -3.33899 -3.01383 0
M  V30 807 C 74.7359 -1.56492 -4.11337 0
M  V30 808 H 71.8549 -0.390571 -0.624999 0
M  V30 809 H 74.4969 -1.52142 -1.13811 0
M  V30 810 H 72.6469 -1.41768 -3.6171 0
M  V30 811 H 74.3189 -3.81699 -2.59043 0
M  V30 812 H 72.5619 -3.62796 -2.37827 0
M  V30 813 H 73.2329 -3.801 -4.00285 0
M  V30 814 H 75.7089 -1.89757 -3.70313 0
M  V30 815 H 74.5849 -2.09973 -5.07151 0
M  V30 816 H 74.8459 -0.500874 -4.39254 0
M  V30 817 N 73.905 1.17692 -1.04816 0
M  V30 818 C 74.835 2.23777 -0.666791 0
M  V30 819 C 75.816 1.66796 0.33361 0
M  V30 820 O 77.001 1.93039 0.212042 0
M  V30 821 C 74.131 3.47281 -0.0367933 0
M  V30 822 C 73.085 4.17059 -0.961546 0
M  V30 823 C 72.411 5.34342 -0.195626 0
M  V30 824 C 73.711 4.69713 -2.28402 0
M  V30 825 H 75.405 2.55933 -1.55367 0
M  V30 826 H 72.951 1.23019 -0.748484 0
M  V30 827 H 74.904 4.20706 0.241775 0
M  V30 828 H 73.628 3.14381 0.885004 0
M  V30 829 H 72.287 3.45541 -1.22462 0
M  V30 830 H 71.935 4.97692 0.728816 0
M  V30 831 H 71.635 5.81966 -0.811775 0
M  V30 832 H 73.159 6.10553 0.0757473 0
M  V30 833 H 74.573 5.34794 -2.06563 0
M  V30 834 H 72.97 5.279 -2.8538 0
M  V30 835 H 74.04 3.86726 -2.92525 0
M  V30 836 N 75.3831 0.828654 1.34056 0
M  V30 837 C 76.7991 0.515135 1.51058 0
M  V30 838 C 76.9991 -0.959581 1.77184 0
M  V30 839 O 76.0551 -1.74382 1.82612 0
M  V30 840 C 77.3681 1.37963 2.67183 0
M  V30 841 C 78.9161 1.37735 2.81066 0
M  V30 842 C 79.3911 2.22645 4.00241 0
M  V30 843 N 80.8821 2.203 4.07458 0
M  V30 844 C 81.6171 2.82744 4.98842 0
M  V30 845 N 81.1131 3.54201 5.9541 0
M  V30 846 N 82.9061 2.72268 4.91759 0
M  V30 847 H 75.0571 1.78343 1.15358 0
M  V30 848 H 77.3201 0.760304 0.566252 0
M  V30 849 H 77.0261 2.42714 2.54525 0
M  V30 850 H 76.9001 1.0484 3.62338 0
M  V30 851 H 79.2871 0.337593 2.93163 0
M  V30 852 H 79.3681 1.74859 1.86703 0
M  V30 853 H 79.0121 3.26674 3.88905 0
M  V30 854 H 78.9421 1.82869 4.93829 0
M  V30 855 H 81.4331 1.68327 3.38341 0
M  V30 856 H 81.7461 3.9908 6.61782 0
M  V30 857 H 80.0911 3.58308 5.95517 0
M  V30 858 H 83.2821 2.16014 4.15278 0
M  V30 859 H 83.4551 3.21219 5.62781 0
M  V30 860 N 76.8612 -1.46375 0.584142 0
M  V30 861 C 77.7712 -2.34115 -0.150728 0
M  V30 862 C 78.7872 -1.49838 -0.884567 0
M  V30 863 O 79.9632 -1.82704 -0.847429 0
M  V30 864 C 77.0282 -3.2705 -1.15062 0
M  V30 865 C 76.0892 -4.27228 -0.421293 0
M  V30 866 C 75.3222 -5.15722 -1.37355 0
M  V30 867 O 75.5452 -5.07176 -2.61014 0
M  V30 868 O 74.4792 -5.95383 -0.883355 0
M  V30 869 H 78.3052 -2.98309 0.569708 0
M  V30 870 H 75.8902 -1.45373 0.344535 0
M  V30 871 H 77.7722 -3.84381 -1.72712 0
M  V30 872 H 76.4472 -2.65451 -1.8525 0
M  V30 873 H 75.3542 -3.7358 0.197085 0
M  V30 874 H 76.6872 -4.91616 0.239641 0
M  V30 875 N 78.3393 -0.321999 -1.54275 0
M  V30 876 C 79.2713 0.578671 -2.21775 0
M  V30 877 C 80.2843 1.08109 -1.21722 0
M  V30 878 O 81.4733 0.994938 -1.482 0
M  V30 879 C 78.5733 1.80661 -2.86731 0
M  V30 880 C 77.7463 1.44314 -4.12907 0
M  V30 881 C 76.8053 2.52845 -4.61472 0
M  V30 882 O 75.8313 2.17054 -5.2619 0
M  V30 883 N 77.0333 3.83748 -4.35566 0
M  V30 884 H 79.7983 0.000709447 -2.997 0
M  V30 885 H 77.3593 -0.145132 -1.61248 0
M  V30 886 H 79.3513 2.52655 -3.16145 0
M  V30 887 H 77.9213 2.29245 -2.12521 0
M  V30 888 H 77.1413 0.554906 -3.90275 0
M  V30 889 H 78.4293 1.17598 -4.95023 0
M  V30 890 H 77.8273 4.15625 -3.83761 0
M  V30 891 H 76.3843 4.51977 -4.69638 0
M  V30 892 N 79.8174 1.5752 -0.0501392 0
M  V30 893 C 80.7804 2.1037 0.909786 0
M  V30 894 C 81.7804 1.02308 1.24056 0
M  V30 895 O 82.9704 1.28385 1.17741 0
M  V30 896 C 80.1024 2.58708 2.21998 0
M  V30 897 H 81.2954 2.96479 0.451665 0
M  V30 898 H 78.8484 1.55038 0.198248 0
M  V30 899 H 79.5834 1.75989 2.72394 0
M  V30 900 H 79.3684 3.37675 1.99295 0
M  V30 901 H 80.8584 2.99747 2.9076 0
M  V30 902 N 81.2955 -0.223234 1.56011 0
M  V30 903 C 82.5435 -0.946003 1.78592 0
M  V30 904 C 82.8645 -1.84936 0.618349 0
M  V30 905 O 82.1345 -1.92473 -0.364833 0
M  V30 906 H 80.7145 -0.352298 0.658707 0
M  V30 907 H 83.3765 -0.235494 1.93472 0
M  V30 908 H 82.4725 -1.55381 2.70672 0
M  V30 909 N 82.7736 -1.49793 -0.48987 0
M  V30 910 C 84.0216 -1.59525 -1.24081 0
M  V30 911 C 84.3426 -0.288953 -1.92847 0
M  V30 912 O 83.6126 0.692436 -1.83254 0
M  V30 913 H 82.1926 -0.587796 -0.460983 0
M  V30 914 H 84.8546 -1.86477 -0.566778 0
M  V30 915 H 83.9506 -2.39696 -1.99881 0
M  V30 916 N 84.2517 0.741722 -1.39055 0
M  V30 917 C 85.5287 1.49252 -1.26425 0
M  V30 918 C 85.9087 2.10705 0.129144 0
M  V30 919 O 85.2567 1.98045 1.13976 0
M  V30 920 C 85.4667 2.54934 -2.38347 0
M  V30 921 C 86.8147 3.21506 -2.77343 0
M  V30 922 O 87.8387 2.65245 -2.37747 0
M  V30 923 O 86.6977 4.23294 -3.45665 0
M  V30 924 H 83.7917 0.662451 -0.495064 0
M  V30 925 H 86.3377 0.776121 -1.50912 0
M  V30 926 H 85.1097 2.07857 -3.31529 0
M  V30 927 H 84.7327 3.34141 -2.15489 0
M  V30 928 N 85.7298 1.2412 0.971189 0
M  V30 929 C 86.6928 1.03156 2.04674 0
M  V30 930 C 87.6928 -0.00990322 1.60797 0
M  V30 931 O 88.8828 0.230729 1.72665 0
M  V30 932 C 86.0148 0.562765 3.36223 0
M  V30 933 H 87.2078 1.98614 2.24705 0
M  V30 934 H 84.7608 1.06293 1.14593 0
M  V30 935 H 85.4958 -0.395176 3.21883 0
M  V30 936 H 85.2808 1.31441 3.69413 0
M  V30 937 H 86.7708 0.437015 4.15307 0
M  V30 938 N 87.2079 -1.17134 1.05439 0
M  V30 939 C 88.4359 -1.91372 0.786414 0
M  V30 940 C 88.8509 -1.76955 -0.658202 0
M  V30 941 O 88.2079 -1.10838 -1.44987 0
M  V30 942 C 88.2589 -3.42356 1.1608 0
M  V30 943 O 87.9799 -3.56332 2.54871 0
M  V30 944 C 89.4809 -4.33663 0.919322 0
M  V30 945 H 86.7009 -0.607118 0.285743 0
M  V30 946 H 89.2449 -1.48525 1.40572 0
M  V30 947 H 87.3999 -3.82939 0.586191 0
M  V30 948 H 87.8139 -4.49896 2.69618 0
M  V30 949 H 89.2879 -5.38099 1.231 0
M  V30 950 H 89.7649 -4.38959 -0.145359 0
M  V30 951 H 90.3709 -3.98796 1.47789 0
M  V30 952 N 88.686 -0.835752 -1.33615 0
M  V30 953 C 89.596 -0.269088 -2.33052 0
M  V30 954 C 90.612 0.603251 -1.63208 0
M  V30 955 O 91.788 0.508112 -1.94885 0
M  V30 956 C 88.853 0.549091 -3.42324 0
M  V30 957 C 87.914 -0.347156 -4.27894 0
M  V30 958 C 87.147 0.43207 -5.31948 0
M  V30 959 O 87.37 1.66409 -5.45586 0
M  V30 960 O 86.304 -0.192298 -6.01593 0
M  V30 961 H 90.13 -1.09243 -2.83372 0
M  V30 962 H 87.715 -0.598198 -1.36901 0
M  V30 963 H 89.597 1.01414 -4.09015 0
M  V30 964 H 88.272 1.34955 -2.94226 0
M  V30 965 H 87.179 -0.859979 -3.64081 0
M  V30 966 H 88.512 -1.1123 -4.79467 0
M  V30 967 N 90.1641 1.46063 -0.591896 0
M  V30 968 C 91.1121 2.32124 0.148739 0
M  V30 969 C 92.1061 1.45035 0.875286 0
M  V30 970 O 93.3121 1.61609 0.792632 0
M  V30 971 H 89.6871 0.749024 0.066832 0
M  V30 972 H 91.6581 2.92392 -0.595783 0
M  V30 973 C 90.4071 3.28373 1.1431 0
M  V30 974 H 89.7301 3.95371 0.59346 0
M  V30 975 H 91.1701 3.91352 1.63155 0
M  V30 976 C 89.6291 2.54393 2.20875 0
M  V30 977 O 90.1591 2.31373 3.28374 0
M  V30 978 N 88.3651 2.14797 1.95731 0
M  V30 979 H 87.9121 2.33719 1.08319 0
M  V30 980 H 87.8701 1.65619 2.67241 0
M  V30 981 N 91.6422 0.330177 1.54103 0
M  V30 982 C 92.8892 -0.270405 2.00686 0
M  V30 983 C 93.2172 -1.51621 1.21825 0
M  V30 984 O 92.4722 -1.93536 0.29025 0
M  V30 985 C 92.7712 -0.643134 3.51566 0
M  V30 986 C 92.4372 0.504251 4.48072 0
M  V30 987 C 91.0992 0.819163 4.74176 0
M  V30 988 C 93.4512 1.27465 5.05373 0
M  V30 989 C 90.7792 1.90708 5.5484 0
M  V30 990 C 93.1312 2.35271 5.87223 0
M  V30 991 C 91.7952 2.67336 6.11627 0
M  V30 992 H 91.0652 -0.0989482 0.734364 0
M  V30 993 H 93.7122 0.455324 1.86008 0
M  V30 994 H 92.0172 -1.44938 3.64006 0
M  V30 995 H 93.7142 -1.11949 3.85056 0
M  V30 996 H 90.3042 0.248733 4.27878 0
M  V30 997 H 94.4882 1.04462 4.85182 0
M  V30 998 H 89.7442 2.15991 5.71977 0
M  V30 999 H 93.9182 2.95405 6.30641 0
M  V30 1000 H 91.5452 3.51763 6.73919 0
M  V30 1001 N 93.1203 -1.57491 0.0584922 0
M  V30 1002 C 94.0303 -2.15448 -0.928414 0
M  V30 1003 C 95.0463 -1.11416 -1.3365 0
M  V30 1004 O 96.2223 -1.4362 -1.41193 0
M  V30 1005 C 93.2873 -2.69393 -2.18239 0
M  V30 1006 C 92.3483 -3.88249 -1.83196 0
M  V30 1007 C 91.5813 -4.39613 -3.02616 0
M  V30 1008 O 91.8043 -3.90023 -4.16219 0
M  V30 1009 O 90.7383 -5.31111 -2.83204 0
M  V30 1010 H 94.5643 -3.00112 -0.465483 0
M  V30 1011 H 92.1493 -1.48499 -0.163826 0
M  V30 1012 H 94.0313 -3.04026 -2.91798 0
M  V30 1013 H 92.7063 -1.87796 -2.63656 0
M  V30 1014 H 91.6133 -3.58492 -1.06931 0
M  V30 1015 H 92.9463 -4.71098 -1.42573 0
M  V30 1016 N 94.5984 0.214957 -1.56127 0
M  V30 1017 C 95.8754 0.963093 -1.70247 0
M  V30 1018 C 96.2554 2.02166 -0.60764 0
M  V30 1019 O 95.6034 2.25244 0.384385 0
M  V30 1020 C 95.8134 1.56756 -3.11815 0
M  V30 1021 C 97.1614 2.0573 -3.7143 0
M  V30 1022 O 98.1854 1.66637 -3.14818 0
M  V30 1023 O 97.0444 2.77603 -4.70743 0
M  V30 1024 H 94.1384 0.450321 -0.693643 0
M  V30 1025 H 96.6844 0.206219 -1.68442 0
M  V30 1026 H 95.4564 0.803533 -3.82961 0
M  V30 1027 H 95.0794 2.3898 -3.17765 0
M  V30 1028 N 96.0765 1.50051 0.48192 0
M  V30 1029 C 97.3225 1.60736 1.2366 0
M  V30 1030 C 97.6555 0.301786 1.91841 0
M  V30 1031 O 96.9305 -0.696025 1.8162 0
M  V30 1032 C 97.2135 2.78009 2.28874 0
M  V30 1033 C 97.0665 4.18416 1.65069 0
M  V30 1034 C 98.3855 2.90867 3.30279 0
M  V30 1035 H 95.5045 0.585031 0.448228 0
M  V30 1036 H 98.1465 1.82402 0.531946 0
M  V30 1037 H 96.2965 2.59667 2.88973 0
M  V30 1038 H 97.9685 4.48322 1.0865 0
M  V30 1039 H 96.2115 4.23177 0.954148 0
M  V30 1040 H 96.8825 4.96381 2.41474 0
M  V30 1041 H 99.3585 3.07623 2.80191 0
M  V30 1042 H 98.2345 3.74566 4.01238 0
M  V30 1043 H 98.4955 2.01021 3.93755 0
M  V30 1044 N 97.5546 -0.734337 1.39446 0
M  V30 1045 C 98.8026 -1.49096 1.36436 0
M  V30 1046 C 99.1236 -1.94961 -0.0388255 0
M  V30 1047 O 98.3936 -1.69033 -0.990191 0
M  V30 1048 H 96.9736 -0.5531 0.502085 0
M  V30 1049 H 99.6356 -0.871725 1.74319 0
M  V30 1050 H 98.7316 -2.37276 2.02747 0
M  V30 1051 N 99.0327 -1.24633 -0.964593 0
M  V30 1052 C 99.9827 -1.00841 -2.04487 0
M  V30 1053 C 100.967 0.0512468 -1.60818 0
M  V30 1054 O 102.159 -0.162865 -1.76249 0
M  V30 1055 C 99.2877 -0.618474 -3.37683 0
M  V30 1056 C 98.3737 -1.71437 -3.87905 0
M  V30 1057 N 98.7647 -2.9477 -4.11029 0
M  V30 1058 C 97.0627 -1.5926 -4.16596 0
M  V30 1059 C 97.7637 -3.65834 -4.52261 0
M  V30 1060 N 96.7397 -2.9341 -4.57615 0
M  V30 1061 H 100.542 -1.94487 -2.20345 0
M  V30 1062 H 98.0557 -1.14805 -1.14863 0
M  V30 1063 H 100.053 -0.429247 -4.14684 0
M  V30 1064 H 98.7127 0.310766 -3.23209 0
M  V30 1065 H 99.7237 -3.30917 -3.9839 0
M  V30 1066 H 96.4007 -0.731606 -4.1104 0
M  V30 1067 H 97.7907 -4.71646 -4.78539 0
M  V30 1068 N 100.511 1.16574 -1.06058 0
M  V30 1069 C 101.736 1.91493 -0.796562 0
M  V30 1070 C 102.161 1.76773 0.642868 0
M  V30 1071 O 101.519 1.09142 1.44768 0
M  V30 1072 C 101.567 3.40293 -1.19303 0
M  V30 1073 O 100.671 4.11074 -0.330394 0
M  V30 1074 H 100.012 0.596678 -0.291326 0
M  V30 1075 H 102.542 1.47708 -1.41575 0
M  V30 1076 H 102.552 3.91057 -1.16356 0
M  V30 1077 H 101.227 3.50326 -2.24153 0
M  V30 1078 H 99.8038 3.70513 -0.421225 0
M  V30 1079 N 101.989 0.842826 1.3317 0
M  V30 1080 C 103.217 0.454055 2.01856 0
M  V30 1081 C 103.632 -0.94587 1.63397 0
M  V30 1082 O 102.989 -1.61534 0.849302 0
M  V30 1083 C 103.04 0.569715 3.56982 0
M  V30 1084 O 102.761 1.91448 3.94055 0
M  V30 1085 C 104.262 0.178412 4.42941 0
M  V30 1086 H 101.482 0.17979 0.646465 0
M  V30 1087 H 104.026 1.1365 1.70012 0
M  V30 1088 H 102.181 -0.0648587 3.87346 0
M  V30 1089 H 102.595 1.90282 4.88767 0
M  V30 1090 H 104.069 0.310376 5.51127 0
M  V30 1091 H 104.546 -0.880056 4.30293 0
M  V30 1092 H 105.152 0.787579 4.17944 0
M  V30 1093 N 103.467 -1.45747 0.599634 0
M  V30 1094 C 104.744 -1.95585 0.0240846 0
M  V30 1095 C 105.124 -1.54217 -1.44154 0
M  V30 1096 O 104.472 -0.800903 -2.14004 0
M  V30 1097 C 104.682 -3.48344 0.21385 0
M  V30 1098 C 106.03 -4.24504 0.0904902 0
M  V30 1099 O 107.054 -3.55911 0.143558 0
M  V30 1100 O 105.913 -5.46491 -0.0310766 0
M  V30 1101 H 103.007 -0.82602 -0.0402478 0
M  V30 1102 H 105.553 -1.55951 0.669139 0
M  V30 1103 H 104.325 -3.71397 1.23206 0
M  V30 1104 H 103.948 -3.9485 -0.466842 0
M  V30 1105 N 104.945 -0.338344 -1.53925 0
M  V30 1106 C 105.908 0.508299 -2.23493 0
M  V30 1107 C 106.908 1.03175 -1.23335 0
M  V30 1108 O 108.098 0.921826 -1.47811 0
M  V30 1109 C 105.23 1.70754 -2.95052 0
M  V30 1110 H 106.423 -0.100058 -2.99733 0
M  V30 1111 H 103.976 -0.0896198 -1.56043 0
M  V30 1112 H 104.711 2.35474 -2.22986 0
M  V30 1113 H 104.496 1.33946 -3.68512 0
M  V30 1114 H 105.986 2.30818 -3.48013 0
M  V30 1115 N 106.423 1.57458 -0.0668435 0
M  V30 1116 C 107.839 1.56947 0.289772 0
M  V30 1117 C 108.039 1.07584 1.70376 0
M  V30 1118 O 107.095 0.739486 2.41429 0
M  V30 1119 C 108.408 3.0052 0.103943 0
M  V30 1120 C 109.956 3.12517 0.173857 0
M  V30 1121 C 110.431 4.57997 0.0163682 0
M  V30 1122 N 111.922 4.63144 0.0721352 0
M  V30 1123 C 112.657 5.73394 -0.0253794 0
M  V30 1124 N 112.153 6.92576 -0.176133 0
M  V30 1125 N 113.946 5.62091 0.0313305 0
M  V30 1126 H 106.097 1.87863 -0.991027 0
M  V30 1127 H 108.36 0.86583 -0.38606 0
M  V30 1128 H 108.066 3.40729 -0.871572 0
M  V30 1129 H 107.94 3.67304 0.858366 0
M  V30 1130 H 110.327 2.72197 1.13985 0
M  V30 1131 H 110.408 2.48381 -0.611586 0
M  V30 1132 H 110.052 4.99005 -0.946374 0
M  V30 1133 H 109.982 5.20158 0.821153 0
M  V30 1134 H 112.473 3.77436 0.187263 0
M  V30 1135 H 112.786 7.72418 -0.242821 0
M  V30 1136 H 111.131 6.94678 -0.211429 0
M  V30 1137 H 114.322 4.67867 0.147773 0
M  V30 1138 H 114.495 6.47982 -0.048121 0
M  V30 1139 N 107.901 -0.206675 1.56239 0
M  V30 1140 C 108.811 -1.27686 1.96808 0
M  V30 1141 C 109.827 -1.50455 0.874035 0
M  V30 1142 O 111.003 -1.63295 1.17884 0
M  V30 1143 C 108.068 -2.60358 2.28942 0
M  V30 1144 C 107.129 -2.45762 3.51994 0
M  V30 1145 C 106.362 -3.72108 3.82585 0
M  V30 1146 O 106.585 -4.75776 3.14631 0
M  V30 1147 O 105.519 -3.6833 4.76043 0
M  V30 1148 H 109.345 -0.962593 2.88041 0
M  V30 1149 H 106.93 -0.410746 1.43643 0
M  V30 1150 H 108.812 -3.38687 2.50737 0
M  V30 1151 H 107.487 -2.91435 1.4088 0
M  V30 1152 H 106.394 -1.65584 3.35459 0
M  V30 1153 H 107.727 -2.19621 4.40486 0
M  V30 1154 N 109.379 -1.50304 -0.473955 0
M  V30 1155 C 110.312 -1.63595 -1.59097 0
M  V30 1156 C 111.29 -0.484142 -1.55225 0
M  V30 1157 O 112.474 -0.703271 -1.7489 0
M  V30 1158 C 109.601 -1.61589 -2.97669 0
M  V30 1159 C 108.647 -2.82295 -3.19705 0
M  V30 1160 S 109.48 -4.43635 -2.99913 0
M  V30 1161 C 110.636 -4.44317 -4.40832 0
M  V30 1162 H 110.869 -2.58082 -1.47583 0
M  V30 1163 H 108.402 -1.39531 -0.661087 0
M  V30 1164 H 110.36 -1.61116 -3.7756 0
M  V30 1165 H 109.021 -0.683421 -3.06575 0
M  V30 1166 H 108.214 -2.77188 -4.20931 0
M  V30 1167 H 107.816 -2.8032 -2.47582 0
M  V30 1168 H 110.108 -4.17703 -5.33414 0
M  V30 1169 H 111.051 -5.45911 -4.50984 0
M  V30 1170 H 111.459 -3.74059 -4.22777 0
M  V30 1171 N 110.857 0.726932 -1.39834 0
M  V30 1172 C 112.082 1.52121 -1.40976 0
M  V30 1173 C 112.507 1.88098 -0.00826029 0
M  V30 1174 O 111.865 1.52479 0.980807 0
M  V30 1175 C 111.913 2.78021 -2.29644 0
M  V30 1176 O 111.017 3.74272 -1.73188 0
M  V30 1177 H 110.358 0.45908 -0.479731 0
M  V30 1178 H 112.888 0.896207 -1.83927 0
M  V30 1179 H 112.898 3.26671 -2.44438 0
M  V30 1180 H 111.573 2.51169 -3.31492 0
M  V30 1181 H 110.15 3.33073 -1.6768 0
M  V30 1182 N 112.336 1.25143 0.95797 0
M  V30 1183 C 113.283 1.05235 2.05412 0
M  V30 1184 C 114.253 -0.0374561 1.66058 0
M  V30 1185 O 115.438 0.119073 1.90428 0
M  V30 1186 C 112.578 0.673589 3.38462 0
M  V30 1187 C 111.691 1.8379 3.90954 0
M  V30 1188 C 110.826 1.40381 5.12315 0
M  V30 1189 C 109.865 2.53746 5.57027 0
M  V30 1190 N 109.002 2.11136 6.69601 0
M  V30 1191 H 113.842 1.99048 2.21774 0
M  V30 1192 H 111.379 0.991277 1.08683 0
M  V30 1193 H 113.337 0.434964 4.14926 0
M  V30 1194 H 111.967 -0.227554 3.21997 0
M  V30 1195 H 111.019 2.18992 3.11041 0
M  V30 1196 H 112.331 2.68937 4.20089 0
M  V30 1197 H 111.485 1.12464 5.96185 0
M  V30 1198 H 110.224 0.523015 4.84887 0
M  V30 1199 H 109.229 2.82412 4.71724 0
M  V30 1200 H 110.454 3.42398 5.86464 0
M  V30 1201 H 108.4 1.25468 6.4389 0
M  V30 1202 H 108.317 2.89832 6.98236 0
M  V30 1203 H 109.585 1.86385 7.56889 0
M  V30 1204 N 113.814 -1.1601 1.06675 0
M  V30 1205 C 115.042 -1.90527 0.806667 0
M  V30 1206 C 115.457 -1.77643 -0.639396 0
M  V30 1207 O 114.814 -1.12369 -1.43803 0
M  V30 1208 C 114.865 -3.41106 1.19705 0
M  V30 1209 O 114.586 -3.53608 2.58636 0
M  V30 1210 C 116.087 -4.32663 0.965266 0
M  V30 1211 H 113.307 -0.604053 0.292166 0
M  V30 1212 H 115.851 -1.47026 1.4214 0
M  V30 1213 H 114.006 -3.82296 0.626774 0
M  V30 1214 H 114.42 -4.47011 2.74375 0
M  V30 1215 H 115.894 -5.36763 1.288 0
M  V30 1216 H 116.371 -4.39089 -0.0987936 0
M  V30 1217 H 116.977 -3.97206 1.52011 0
M  V30 1218 N 115.292 -0.849877 -1.32721 0
M  V30 1219 C 116.539 -0.450923 -1.97416 0
M  V30 1220 C 116.867 0.992376 -1.67279 0
M  V30 1221 O 116.122 1.71048 -0.950845 0
M  V30 1222 C 116.421 -0.631272 -3.51781 0
M  V30 1223 C 116.087 -2.04432 -4.01894 0
M  V30 1224 C 114.749 -2.4308 -4.1529 0
M  V30 1225 C 117.101 -2.96679 -4.28522 0
M  V30 1226 C 114.429 -3.73257 -4.52654 0
M  V30 1227 C 116.781 -4.26349 -4.67343 0
M  V30 1228 C 115.445 -4.64939 -4.78945 0
M  V30 1229 H 114.715 -0.165004 -0.722395 0
M  V30 1230 H 117.362 -1.07901 -1.58207 0
M  V30 1231 H 115.667 0.0800767 -3.91718 0
M  V30 1232 H 117.364 -0.302709 -3.99856 0
M  V30 1233 H 113.954 -1.73419 -3.91949 0
M  V30 1234 H 118.138 -2.68054 -4.17685 0
M  V30 1235 H 113.394 -4.02946 -4.59831 0
M  V30 1236 H 117.568 -4.97895 -4.86902 0
M  V30 1237 H 115.195 -5.65855 -5.07654 0
M  V30 1238 N 116.77 1.45427 -0.607355 0
M  V30 1239 C 118.019 2.01452 -0.100036 0
M  V30 1240 C 118.332 1.48159 1.27704 0
M  V30 1241 O 119.538 1.96159 1.87707 0
M  V30 1242 C 117.994 3.59672 -0.128158 0
M  V30 1243 C 117.602 4.21962 -1.50507 0
M  V30 1244 C 119.346 4.23262 0.323932 0
M  V30 1245 C 117.253 5.72333 -1.48959 0
M  V30 1246 H 116.183 0.75325 -0.0336299 0
M  V30 1247 H 118.834 1.66901 -0.76265 0
M  V30 1248 H 117.216 3.91411 0.601105 0
M  V30 1249 H 118.39 4.01796 -2.25602 0
M  V30 1250 H 116.705 3.70565 -1.89923 0
M  V30 1251 H 119.302 5.33522 0.354691 0
M  V30 1252 H 119.645 3.93921 1.34656 0
M  V30 1253 H 120.178 3.96239 -0.352056 0
M  V30 1254 H 116.917 6.06373 -2.48981 0
M  V30 1255 H 116.437 5.94691 -0.781214 0
M  V30 1256 H 118.116 6.35525 -1.21313 0
M  V30 1257 N 118.248 0.346503 1.53744 0
M  V30 1258 C 119.497 -0.250122 2.00143 0
M  V30 1259 C 119.81 -1.51418 1.23822 0
M  V30 1260 O 121.016 -2.18823 1.60713 0
M  V30 1261 C 119.472 -0.496252 3.56462 0
M  V30 1262 C 119.08 0.752077 4.41642 0
M  V30 1263 C 120.824 -1.05157 4.11269 0
M  V30 1264 C 118.731 0.476583 5.89477 0
M  V30 1265 H 117.661 -0.0972409 0.747703 0
M  V30 1266 H 120.312 0.46229 1.77581 0
M  V30 1267 H 118.694 -1.26944 3.75102 0
M  V30 1268 H 119.868 1.5266 4.34778 0
M  V30 1269 H 118.183 1.22925 3.97842 0
M  V30 1270 H 120.78 -1.27269 5.19333 0
M  V30 1271 H 121.123 -2.00799 3.64672 0
M  V30 1272 H 121.656 -0.339019 3.96353 0
M  V30 1273 H 118.395 1.4028 6.40314 0
M  V30 1274 H 117.915 -0.259794 5.99237 0
M  V30 1275 H 119.594 0.0949315 6.4693 0
M  V30 1276 N 119.726 -1.57421 0.075193 0
M  V30 1277 C 120.974 -1.93236 -0.591974 0
M  V30 1278 C 121.295 -0.956241 -1.69944 0
M  V30 1279 O 120.565 -0.00494792 -1.95899 0
M  V30 1280 H 119.145 -0.713355 -0.22166 0
M  V30 1281 H 121.807 -1.9444 0.133848 0
M  V30 1282 H 120.903 -2.95131 -1.01509 0
M  V30 1283 N 121.204 0.198386 -1.56346 0
M  V30 1284 C 122.114 1.2664 -1.97483 0
M  V30 1285 C 123.13 1.49989 -0.882002 0
M  V30 1286 O 124.306 1.62668 -1.18748 0
M  V30 1287 C 121.371 2.59141 -2.30319 0
M  V30 1288 C 120.432 2.43892 -3.53292 0
M  V30 1289 C 119.665 3.70074 -3.84553 0
M  V30 1290 O 119.888 4.74101 -3.1715 0
M  V30 1291 O 118.822 3.658 -4.7799 0
M  V30 1292 H 122.648 0.947304 -2.88548 0
M  V30 1293 H 120.233 0.403123 -1.43859 0
M  V30 1294 H 122.115 3.37352 -2.5253 0
M  V30 1295 H 120.79 2.90684 -1.42423 0
M  V30 1296 H 119.697 1.63803 -3.36332 0
M  V30 1297 H 121.03 2.17282 -4.41644 0
M  V30 1298 N 122.682 1.50554 0.465978 0
M  V30 1299 C 123.612 1.72722 1.57128 0
M  V30 1300 C 124.593 0.576294 1.6004 0
M  V30 1301 O 125.778 0.81598 1.76225 0
M  V30 1302 C 122.908 1.82605 2.95419 0
M  V30 1303 C 121.862 2.97835 3.07373 0
M  V30 1304 C 121.188 2.92867 4.47363 0
M  V30 1305 C 122.488 4.38265 2.84114 0
M  V30 1306 H 124.182 2.65267 1.38829 0
M  V30 1307 H 121.728 1.2765 0.666441 0
M  V30 1308 H 123.681 1.96698 3.72677 0
M  V30 1309 H 122.405 0.866858 3.14886 0
M  V30 1310 H 121.064 2.83401 2.3255 0
M  V30 1311 H 120.712 1.94783 4.63755 0
M  V30 1312 H 120.412 3.70227 4.56296 0
M  V30 1313 H 121.936 3.09015 5.26633 0
M  V30 1314 H 123.35 4.53198 3.51118 0
M  V30 1315 H 121.747 5.17115 3.04487 0
M  V30 1316 H 122.817 4.50281 1.7993 0
M  V30 1317 N 124.16 -0.719506 1.40217 0
M  V30 1318 C 125.11 -1.8251 1.36653 0
M  V30 1319 C 126.094 -1.59028 0.244732 0
M  V30 1320 O 127.286 -1.70268 0.483524 0
M  V30 1321 C 124.415 -3.20599 1.22763 0
M  V30 1322 C 123.501 -3.49858 2.39708 0
M  V30 1323 N 123.892 -3.49957 3.6519 0
M  V30 1324 C 122.19 -3.80297 2.33002 0
M  V30 1325 C 122.891 -3.77449 4.42614 0
M  V30 1326 N 121.867 -3.96002 3.72402 0
M  V30 1327 H 125.669 -1.80914 2.31619 0
M  V30 1328 H 123.183 -0.918455 1.33933 0
M  V30 1329 H 125.18 -3.99766 1.18292 0
M  V30 1330 H 123.84 -3.23424 0.287614 0
M  V30 1331 H 124.851 -3.309 3.98404 0
M  V30 1332 H 121.528 -3.90635 1.47346 0
M  V30 1333 H 122.918 -3.83863 5.51451 0
M  V30 1334 N 125.638 -1.25649 -0.95132 0
M  V30 1335 C 127.049 -1.09654 -1.51106 0
M  V30 1336 C 127.4 0.326615 -1.93462 0
M  V30 1337 O 126.525 1.21697 -1.78938 0
M  V30 1338 C 127.12 -1.98437 -2.74605 0
M  V30 1339 C 125.679 -1.86618 -3.2688 0
M  V30 1340 C 124.826 -1.9239 -1.99703 0
M  V30 1341 H 127.777 -1.38887 -0.767865 0
M  V30 1342 H 127.798 -1.5263 -3.48546 0
M  V30 1343 H 127.31 -3.02009 -2.43746 0
M  V30 1344 H 125.411 -0.859421 -3.62553 0
M  V30 1345 H 125.524 -2.71607 -3.94673 0
M  V30 1346 H 123.888 -1.36317 -2.15151 0
M  V30 1347 H 124.671 -2.97573 -1.71188 0
M  V30 1348 N 127.117 1.15442 -1.07289 0
M  V30 1349 C 128.394 1.82306 -0.708792 0
M  V30 1350 C 128.774 1.94991 0.808807 0
M  V30 1351 O 128.122 1.50085 1.72298 0
M  V30 1352 C 128.332 3.18695 -1.42247 0
M  V30 1353 C 129.68 3.94341 -1.57417 0
M  V30 1354 O 130.704 3.28247 -1.38319 0
M  V30 1355 O 129.563 5.12839 -1.88834 0
M  V30 1356 H 126.657 0.787628 -0.252132 0
M  V30 1357 H 129.203 1.22559 -1.17377 0
M  V30 1358 H 127.975 3.04557 -2.45684 0
M  V30 1359 H 127.598 3.86128 -0.948223 0
M  V30 1360 N 128.595 0.856903 1.32268 0
M  V30 1361 C 129.872 0.382583 1.91822 0
M  V30 1362 C 130.252 -1.13407 1.78051 0
M  V30 1363 O 129.6 -1.95673 1.18001 0
M  V30 1364 C 129.81 0.849446 3.38505 0
M  V30 1365 C 131.158 0.867936 4.15634 0
M  V30 1366 O 132.182 0.794232 3.47232 0
M  V30 1367 O 131.041 0.972286 5.37781 0
M  V30 1368 H 128.135 0.112014 0.819379 0
M  V30 1369 H 130.681 0.943952 1.41024 0
M  V30 1370 H 129.453 1.89267 3.42482 0
M  V30 1371 H 129.076 0.265652 3.96712 0
M  V30 1372 N 130.073 -1.45103 0.615059 0
M  V30 1373 C 131.489 -1.57137 0.279322 0
M  V30 1374 C 131.689 -1.60523 -1.21797 0
M  V30 1375 O 130.745 -1.53956 -2.00134 0
M  V30 1376 C 132.058 -2.85062 0.957083 0
M  V30 1377 C 133.606 -2.98749 0.933706 0
M  V30 1378 C 134.081 -4.29455 1.59162 0
M  V30 1379 N 135.572 -4.36231 1.55746 0
M  V30 1380 C 136.307 -5.36051 2.0356 0
M  V30 1381 N 135.803 -6.42367 2.59494 0
M  V30 1382 N 137.596 -5.27456 1.94284 0
M  V30 1383 H 129.747 -1.41148 1.58717 0
M  V30 1384 H 132.01 -0.675331 0.665306 0
M  V30 1385 H 131.716 -2.88488 2.01166 0
M  V30 1386 H 131.59 -3.7407 0.48494 0
M  V30 1387 H 133.977 -2.94886 -0.112347 0
M  V30 1388 H 134.058 -2.11132 1.44419 0
M  V30 1389 H 133.702 -4.34077 2.63704 0
M  V30 1390 H 133.632 -5.15901 1.0561 0
M  V30 1391 H 136.123 -3.60011 1.14893 0
M  V30 1392 H 136.436 -7.14793 2.93752 0
M  V30 1393 H 134.781 -6.43097 2.63537 0
M  V30 1394 H 137.972 -4.43308 1.5032 0
M  V30 1395 H 138.145 -6.05099 2.3186 0
M  V30 1396 N 131.551 -0.354651 -1.53558 0
M  V30 1397 C 132.962 0.126902 -1.86268 0
M  V30 1398 C 133.313 1.49075 -1.27558 0
M  V30 1399 O 132.438 2.08105 -0.5934 0
M  V30 1400 C 133.033 0.237046 -3.3797 0
M  V30 1401 C 131.592 0.662842 -3.70518 0
M  V30 1402 C 130.739 -0.196652 -2.76602 0
M  V30 1403 H 133.69 -0.573849 -1.47962 0
M  V30 1404 H 133.711 1.06259 -3.65362 0
M  V30 1405 H 133.223 -0.755725 -3.80671 0
M  V30 1406 H 131.324 1.66424 -3.33367 0
M  V30 1407 H 131.437 0.445034 -4.77029 0
M  V30 1408 H 129.801 0.332763 -2.52517 0
M  V30 1409 H 130.584 -1.18676 -3.22135 0
M  V30 1410 N 133.029 1.57378 -0.0835403 0
M  V30 1411 C 133.976 2.13384 0.879539 0
M  V30 1412 C 134.946 1.04936 1.28754 0
M  V30 1413 O 136.131 1.32662 1.37133 0
M  V30 1414 C 133.271 2.70932 2.13752 0
M  V30 1415 C 132.384 3.93575 1.7811 0
M  V30 1416 C 131.519 4.39326 2.98607 0
M  V30 1417 C 130.558 5.54587 2.59037 0
M  V30 1418 N 129.695 5.95243 3.72331 0
M  V30 1419 H 134.535 2.9537 0.395076 0
M  V30 1420 H 132.072 1.45953 0.183349 0
M  V30 1421 H 134.03 3.02411 2.87408 0
M  V30 1422 H 132.66 1.91693 2.59718 0
M  V30 1423 H 131.712 3.68483 0.94469 0
M  V30 1424 H 133.024 4.77258 1.45005 0
M  V30 1425 H 132.178 4.72528 3.80529 0
M  V30 1426 H 130.917 3.5452 3.34913 0
M  V30 1427 H 129.922 5.21024 1.75539 0
M  V30 1428 H 131.147 6.41133 2.23887 0
M  V30 1429 H 129.093 5.13385 4.08378 0
M  V30 1430 H 129.01 6.73694 3.43034 0
M  V30 1431 H 130.278 6.33072 4.54797 0
M  V30 1432 N 134.507 -0.190092 1.56449 0
M  V30 1433 C 135.437 -1.23816 1.97969 0
M  V30 1434 C 136.418 -1.47201 0.852395 0
M  V30 1435 O 137.603 -1.58854 1.1171 0
M  V30 1436 C 134.733 -2.5813 2.3235 0
M  V30 1437 C 133.687 -2.49348 3.47864 0
M  V30 1438 C 133.013 -3.8798 3.67934 0
M  V30 1439 C 134.313 -2.01424 4.81898 0
M  V30 1440 H 136.007 -0.89311 2.85769 0
M  V30 1441 H 133.553 -0.428177 1.37487 0
M  V30 1442 H 135.506 -3.31637 2.59991 0
M  V30 1443 H 134.23 -2.94386 1.41438 0
M  V30 1444 H 132.889 -1.78297 3.20321 0
M  V30 1445 H 132.537 -4.21597 2.74344 0
M  V30 1446 H 132.237 -3.82978 4.45648 0
M  V30 1447 H 133.761 -4.63101 3.97957 0
M  V30 1448 H 135.175 -2.64693 5.08538 0
M  V30 1449 H 133.572 -2.07413 5.63116 0
M  V30 1450 H 134.642 -0.967677 4.75146 0
M  V30 1451 N 135.985 -1.50799 -0.457987 0
M  V30 1452 C 136.933 -1.71162 -1.575 0
M  V30 1453 C 137.927 -0.577592 -1.59249 0
M  V30 1454 O 139.133 -0.758443 -1.63241 0
M  V30 1455 H 135.508 -0.540468 -0.522875 0
M  V30 1456 H 137.479 -2.64837 -1.37492 0
M  V30 1457 C 136.228 -1.83496 -2.95338 0
M  V30 1458 H 135.551 -2.70153 -2.94716 0
M  V30 1459 H 136.991 -2.01765 -3.72917 0
M  V30 1460 C 135.45 -0.589694 -3.31699 0
M  V30 1461 O 135.98 0.265163 -4.00824 0
M  V30 1462 N 134.186 -0.439845 -2.87252 0
M  V30 1463 H 133.733 -1.13655 -2.31172 0
M  V30 1464 H 133.691 0.392159 -3.11945 0
M  V30 1465 N 137.463 0.71206 -1.40597 0
M  V30 1466 C 138.41 1.82613 -1.41142 0
M  V30 1467 C 139.38 1.63925 -0.267903 0
M  V30 1468 O 140.565 1.85009 -0.466495 0
M  V30 1469 C 137.705 3.20354 -1.28324 0
M  V30 1470 C 136.818 3.50589 -2.52411 0
M  V30 1471 C 135.953 4.77855 -2.32009 0
M  V30 1472 C 134.992 5.01005 -3.51654 0
M  V30 1473 N 134.129 6.19487 -3.30425 0
M  V30 1474 H 138.969 1.81482 -2.36365 0
M  V30 1475 H 136.506 0.886475 -1.17388 0
M  V30 1476 H 138.464 3.99899 -1.18899 0
M  V30 1477 H 137.094 3.20705 -0.367189 0
M  V30 1478 H 136.146 2.65573 -2.72351 0
M  V30 1479 H 137.458 3.63604 -3.41458 0
M  V30 1480 H 136.612 5.65424 -2.19956 0
M  V30 1481 H 135.351 4.67056 -1.40392 0
M  V30 1482 H 134.356 4.1189 -3.64179 0
M  V30 1483 H 135.581 5.13674 -4.44202 0
M  V30 1484 H 133.527 6.09932 -2.41494 0
M  V30 1485 H 133.444 6.33194 -4.13039 0
M  V30 1486 H 134.712 7.09834 -3.22113 0
M  V30 1487 N 138.941 1.26152 0.944643 0
M  V30 1488 C 140.352 1.10454 1.50522 0
M  V30 1489 C 140.703 -0.31635 1.93633 0
M  V30 1490 O 139.828 -1.20746 1.79581 0
M  V30 1491 C 140.423 1.99891 2.73549 0
M  V30 1492 C 138.982 1.88348 3.25886 0
M  V30 1493 C 138.129 1.93447 1.9868 0
M  V30 1494 H 141.08 1.39292 0.760489 0
M  V30 1495 H 141.101 1.54477 3.47732 0
M  V30 1496 H 140.613 3.03297 2.42141 0
M  V30 1497 H 138.714 0.878636 3.62092 0
M  V30 1498 H 138.827 2.73696 3.93227 0
M  V30 1499 H 137.191 1.37456 2.14425 0
M  V30 1500 H 137.974 2.98476 1.69607 0
M  V30 1501 N 140.419 -1.14872 1.07899 0
M  V30 1502 C 141.83 -1.67367 0.827363 0
M  V30 1503 C 142.181 -1.85236 -0.646693 0
M  V30 1504 O 141.306 -1.55974 -1.50004 0
M  V30 1505 C 141.901 -3.04016 1.49532 0
M  V30 1506 C 140.46 -3.53566 1.29106 0
M  V30 1507 C 139.607 -2.29161 1.56143 0
M  V30 1508 H 142.558 -0.990083 1.24028 0
M  V30 1509 H 142.579 -3.69219 0.919643 0
M  V30 1510 H 142.091 -2.90978 2.56814 0
M  V30 1511 H 140.192 -3.71835 0.238713 0
M  V30 1512 H 140.305 -4.34661 2.01511 0
M  V30 1513 H 138.669 -2.34978 0.982717 0
M  V30 1514 H 139.452 -2.18705 2.64619 0
M  V30 1515 N 141.898 -0.863906 -1.31812 0
M  V30 1516 C 142.808 -0.318461 -2.32428 0
M  V30 1517 C 143.824 0.568496 -1.64451 0
M  V30 1518 O 145 0.46666 -1.95919 0
M  V30 1519 C 142.065 0.476355 -3.43412 0
M  V30 1520 C 141.126 -0.43784 -4.27061 0
M  V30 1521 C 140.359 0.319138 -5.32745 0
M  V30 1522 O 140.582 1.54799 -5.48993 0
M  V30 1523 O 139.516 -0.319861 -6.01049 0
M  V30 1524 H 143.342 -1.15229 -2.80991 0
M  V30 1525 H 140.927 -0.627103 -1.35602 0
M  V30 1526 H 142.809 0.927156 -4.11074 0
M  V30 1527 H 141.484 1.28683 -2.97022 0
M  V30 1528 H 140.391 -0.937013 -3.62175 0
M  V30 1529 H 141.724 -1.21375 -4.77 0
M  V30 1530 N 143.376 1.44774 -0.622745 0
M  V30 1531 C 144.604 2.06487 -0.130722 0
M  V30 1532 C 145.019 1.46476 1.19123 0
M  V30 1533 O 144.376 0.584502 1.72887 0
M  V30 1534 C 144.427 3.615 -0.000807207 0
M  V30 1535 O 144.148 4.19274 -1.27048 0
M  V30 1536 C 145.649 4.40229 0.520898 0
M  V30 1537 H 142.869 0.666704 -0.0758106 0
M  V30 1538 H 145.413 1.85779 -0.854774 0
M  V30 1539 H 143.568 3.81498 0.673643 0
M  V30 1540 H 143.982 5.12622 -1.1099 0
M  V30 1541 H 145.456 5.49144 0.560838 0
M  V30 1542 H 145.933 4.1108 1.54627 0
M  V30 1543 H 146.539 4.25131 -0.120018 0
M  V30 1544 N 144.854 0.36279 1.53368 0
M  V30 1545 C 145.784 -0.476976 2.28576 0
M  V30 1546 C 146.765 -1.08631 1.30894 0
M  V30 1547 O 147.95 -1.10409 1.59761 0
M  V30 1548 C 145.08 -1.61828 3.07293 0
M  V30 1549 C 144.034 -1.13633 4.1264 0
M  V30 1550 C 143.36 -2.36766 4.79423 0
M  V30 1551 C 144.66 -0.223061 5.21823 0
M  V30 1552 H 146.354 0.150474 2.99022 0
M  V30 1553 H 143.9 0.0738103 1.43811 0
M  V30 1554 H 145.853 -2.21237 3.58653 0
M  V30 1555 H 144.577 -2.27292 2.34533 0
M  V30 1556 H 143.236 -0.564945 3.62221 0
M  V30 1557 H 142.884 -3.0068 4.03238 0
M  V30 1558 H 142.584 -2.05192 5.50609 0
M  V30 1559 H 144.108 -2.96865 5.33576 0
M  V30 1560 H 145.522 -0.724545 5.68703 0
M  V30 1561 H 143.919 0.001678 6.001 0
M  V30 1562 H 144.989 0.735553 4.79289 0
M  V30 1563 N 146.332 -1.57332 0.0918853 0
M  V30 1564 C 147.581 -1.93412 -0.572249 0
M  V30 1565 C 147.894 -0.975515 -1.69538 0
M  V30 1566 O 149.1 -1.22991 -2.42045 0
M  V30 1567 C 147.556 -3.43648 -1.0693 0
M  V30 1568 C 147.164 -4.47994 0.0239049 0
M  V30 1569 C 148.908 -3.88695 -1.70635 0
M  V30 1570 C 146.815 -5.89381 -0.488319 0
M  V30 1571 H 145.745 -0.721939 -0.217532 0
M  V30 1572 H 148.396 -1.82735 0.167369 0
M  V30 1573 H 146.778 -3.49466 -1.8625 0
M  V30 1574 H 147.952 -4.53815 0.799277 0
M  V30 1575 H 146.267 -4.12536 0.565946 0
M  V30 1576 H 148.864 -4.91725 -2.10025 0
M  V30 1577 H 149.207 -3.27166 -2.57426 0
M  V30 1578 H 149.74 -3.85564 -0.979023 0
M  V30 1579 H 146.479 -6.54602 0.342906 0
M  V30 1580 H 145.999 -5.87037 -1.23077 0
M  V30 1581 H 147.678 -6.39863 -0.958317 0
M  V30 1582 N 147.81 0.181792 -1.56548 0
M  V30 1583 C 149.038 0.915947 -1.85521 0
M  V30 1584 C 149.453 1.76282 -0.676016 0
M  V30 1585 O 148.81 1.79012 0.355077 0
M  V30 1586 C 148.861 1.80126 -3.13427 0
M  V30 1587 O 148.582 0.988562 -4.26801 0
M  V30 1588 C 150.083 2.64597 -3.55673 0
M  V30 1589 H 147.303 0.26661 -0.61576 0
M  V30 1590 H 149.847 0.185039 -2.03661 0
M  V30 1591 H 148.002 2.48563 -2.97145 0
M  V30 1592 H 148.416 1.59308 -4.99721 0
M  V30 1593 H 149.89 3.2235 -4.48101 0
M  V30 1594 H 150.367 3.38958 -2.79292 0
M  V30 1595 H 150.973 2.0151 -3.74532 0
M  V30 1596 N 149.288 1.51039 0.449983 0
M  V30 1597 C 150.516 1.66869 1.2232 0
M  V30 1598 C 150.931 0.360727 1.85322 0
M  V30 1599 O 150.288 -0.659531 1.70166 0
M  V30 1600 C 150.339 2.77524 2.31652 0
M  V30 1601 O 150.06 4.03252 1.7123 0
M  V30 1602 C 151.561 3.04512 3.2216 0
M  V30 1603 H 148.781 0.560326 0.369155 0
M  V30 1604 H 151.325 1.97385 0.534719 0
M  V30 1605 H 149.48 2.49642 2.96239 0
M  V30 1606 H 149.894 4.64609 2.43389 0
M  V30 1607 H 151.368 3.85551 3.95038 0
M  V30 1608 H 151.845 2.16415 3.8218 0
M  V30 1609 H 152.451 3.34005 2.63288 0
M  V30 1610 N 150.766 -0.704594 1.40972 0
M  V30 1611 C 152.015 -1.46018 1.39146 0
M  V30 1612 C 152.328 -1.956 0.000589254 0
M  V30 1613 O 153.534 -2.71137 -0.1403 0
M  V30 1614 C 151.99 -2.63996 2.4461 0
M  V30 1615 C 151.598 -2.21238 3.89561 0
M  V30 1616 C 153.342 -3.41677 2.51907 0
M  V30 1617 C 151.249 -3.3612 4.86598 0
M  V30 1618 H 150.179 -0.548444 0.517422 0
M  V30 1619 H 152.83 -0.765784 1.66757 0
M  V30 1620 H 151.212 -3.3566 2.10115 0
M  V30 1621 H 152.386 -1.56923 4.33257 0
M  V30 1622 H 150.701 -1.56574 3.85841 0
M  V30 1623 H 153.298 -4.27182 3.2159 0
M  V30 1624 H 153.641 -3.86247 1.55303 0
M  V30 1625 H 154.174 -2.77064 2.85448 0
M  V30 1626 H 150.913 -2.96572 5.84573 0
M  V30 1627 H 150.433 -3.99315 4.47557 0
M  V30 1628 H 152.112 -4.02029 5.06934 0
M  V30 1629 N 152.244 -1.26651 -0.937939 0
M  V30 1630 C 153.521 -1.0313 -1.66204 0
M  V30 1631 C 153.901 0.437256 -2.06522 0
M  V30 1632 O 153.249 1.41831 -1.79154 0
M  V30 1633 C 153.459 -1.98314 -2.87181 0
M  V30 1634 C 154.807 -2.27107 -3.58758 0
M  V30 1635 O 155.831 -1.96205 -2.97291 0
M  V30 1636 O 154.69 -2.79736 -4.69479 0
M  V30 1637 H 151.784 -0.392384 -0.727986 0
M  V30 1638 H 154.33 -1.37874 -0.989382 0
M  V30 1639 H 153.102 -2.97399 -2.54302 0
M  V30 1640 H 152.725 -1.64068 -3.6217 0
M  V30 1641 N 153.722 1.14298 -1.08507 0
M  V30 1642 C 154.947 1.8976 -0.837001 0
M  V30 1643 C 155.372 1.78097 0.605228 0
M  V30 1644 O 154.73 1.12188 1.4242 0
M  V30 1645 C 154.778 3.37685 -1.26495 0
M  V30 1646 O 153.882 4.10281 -0.417514 0
M  V30 1647 H 153.223 0.590365 -0.303917 0
M  V30 1648 H 155.753 1.44672 -1.44676 0
M  V30 1649 H 155.763 3.88501 -1.24625 0
M  V30 1650 H 154.438 3.45492 -2.31534 0
M  V30 1651 H 153.015 3.69536 -0.499722 0
M  V30 1652 N 155.201 0.870884 1.31352 0
M  V30 1653 C 156.426 0.495957 2.01383 0
M  V30 1654 C 156.851 -0.904324 1.64935 0
M  V30 1655 O 156.209 -1.59687 0.858466 0
M  V30 1656 C 156.257 0.661433 3.54482 0
M  V30 1657 O 155.361 -0.298851 4.11316 0
M  V30 1658 H 154.702 0.197158 0.634054 0
M  V30 1659 H 157.232 1.17455 1.67527 0
M  V30 1660 H 157.242 0.555072 4.04207 0
M  V30 1661 H 155.917 1.68246 3.8035 0
M  V30 1662 H 154.494 -0.147368 3.72609 0
M  V30 1663 N 156.679 -1.44442 0.630414 0
M  V30 1664 C 157.904 -2.06927 0.139944 0
M  V30 1665 C 158.329 -1.46795 -1.17613 0
M  V30 1666 O 157.687 -0.569144 -1.72135 0
M  V30 1667 C 157.735 -3.6058 0.0379581 0
M  V30 1668 O 156.839 -3.99937 -1.0062 0
M  V30 1669 H 156.18 -0.658608 0.0844483 0
M  V30 1670 H 158.71 -1.85327 0.866891 0
M  V30 1671 H 158.72 -4.07714 -0.152856 0
M  V30 1672 H 157.395 -4.03728 0.998809 0
M  V30 1673 H 155.972 -3.64436 -0.79001 0
M  V30 1674 N 158.157 -0.370918 -1.53173 0
M  V30 1675 C 159.382 0.220293 -2.06227 0
M  V30 1676 C 159.807 1.41243 -1.24225 0
M  V30 1677 O 159.165 1.79387 -0.262645 0
M  V30 1678 C 159.213 0.586663 -3.55796 0
M  V30 1679 O 158.317 1.68317 -3.76488 0
M  V30 1680 H 157.658 0.0308099 -0.663285 0
M  V30 1681 H 160.188 -0.533068 -1.97534 0
M  V30 1682 H 160.198 0.85617 -3.98916 0
M  V30 1683 H 158.873 -0.285013 -4.14922 0
M  V30 1684 H 157.45 1.40881 -3.45264 0
M  V30 1685 N 159.635 1.57281 -0.100228 0
M  V30 1686 C 160.881 1.95626 0.556946 0
M  V30 1687 C 161.236 0.981655 1.65473 0
M  V30 1688 O 160.529 0.00849847 1.91598 0
M  V30 1689 C 160.723 3.38305 1.15259 0
M  V30 1690 C 160.552 4.49555 0.114035 0
M  V30 1691 C 159.322 5.0434 -0.311266 0
M  V30 1692 C 161.52 5.10051 -0.659768 0
M  V30 1693 N 159.502 5.99152 -1.33755 0
M  V30 1694 C 160.873 6.00628 -1.53774 0
M  V30 1695 C 162.928 4.92772 -0.712723 0
M  V30 1696 C 161.631 6.7578 -2.46403 0
M  V30 1697 C 163.657 5.6859 -1.62663 0
M  V30 1698 C 163.019 6.58838 -2.49222 0
M  V30 1699 H 159.118 0.7624 0.173982 0
M  V30 1700 H 161.702 1.93829 -0.183988 0
M  V30 1701 H 159.873 3.40786 1.86332 0
M  V30 1702 H 161.605 3.63817 1.77254 0
M  V30 1703 H 158.36 4.73537 0.0774812 0
M  V30 1704 H 158.784 6.5126 -1.84905 0
M  V30 1705 H 163.426 4.22761 -0.0576648 0
M  V30 1706 H 161.144 7.4505 -3.12931 0
M  V30 1707 H 164.73 5.57233 -1.67281 0
M  V30 1708 H 163.61 7.16479 -3.18791 0
M  V30 1709 N 161.113 -0.173488 1.56642 0
M  V30 1710 C 162.359 -0.887108 1.83035 0
M  V30 1711 C 162.714 -1.79965 0.680461 0
M  V30 1712 O 162.007 -1.88854 -0.323225 0
M  V30 1713 C 162.201 -1.72069 3.13252 0
M  V30 1714 C 162.03 -0.89035 4.40798 0
M  V30 1715 C 160.8 -0.566282 5.02117 0
M  V30 1716 C 162.998 -0.232921 5.13772 0
M  V30 1717 N 160.98 0.280427 6.13259 0
M  V30 1718 C 162.351 0.475046 6.18177 0
M  V30 1719 C 164.406 -0.150863 4.97671 0
M  V30 1720 C 163.109 1.25729 7.08227 0
M  V30 1721 C 165.135 0.618039 5.88162 0
M  V30 1722 C 164.497 1.31438 6.92029 0
M  V30 1723 H 160.596 -0.303303 0.720785 0
M  V30 1724 H 163.18 -0.154244 1.94088 0
M  V30 1725 H 161.351 -2.42499 3.03395 0
M  V30 1726 H 163.083 -2.37545 3.2765 0
M  V30 1727 H 159.838 -0.895852 4.6505 0
M  V30 1728 H 160.262 0.694027 6.73433 0
M  V30 1729 H 164.904 -0.674868 4.17379 0
M  V30 1730 H 162.622 1.79265 7.87966 0
M  V30 1731 H 166.208 0.683173 5.77775 0
M  V30 1732 H 165.088 1.89981 7.6084 0
M  V30 1733 N 162.591 -1.51276 -0.441967 0
M  V30 1734 C 163.819 -1.67516 -1.21434 0
M  V30 1735 C 164.234 -0.37055 -1.85128 0
M  V30 1736 O 163.591 0.650498 -1.70513 0
M  V30 1737 C 163.642 -2.78748 -2.30177 0
M  V30 1738 O 163.363 -4.04154 -1.69089 0
M  V30 1739 C 164.864 -3.06217 -3.20541 0
M  V30 1740 H 162.084 -0.562276 -0.366178 0
M  V30 1741 H 164.628 -1.97666 -0.524244 0
M  V30 1742 H 162.783 -2.5121 -2.94911 0
M  V30 1743 H 163.197 -4.65894 -2.40922 0
M  V30 1744 H 164.671 -3.8764 -3.92987 0
M  V30 1745 H 165.148 -2.18439 -3.81026 0
M  V30 1746 H 165.754 -3.35397 -2.61513 0
M  V30 1747 N 164.069 0.697108 -1.41344 0
M  V30 1748 C 165.017 1.83237 -1.43272 0
M  V30 1749 C 166.011 1.66522 -0.310947 0
M  V30 1750 O 167.217 1.73402 -0.482899 0
M  V30 1751 H 163.592 0.603802 -0.448249 0
M  V30 1752 H 165.563 1.78727 -2.38954 0
M  V30 1753 C 164.312 3.21245 -1.33029 0
M  V30 1754 H 163.635 3.34723 -2.18633 0
M  V30 1755 H 165.075 4.00763 -1.38439 0
M  V30 1756 C 163.534 3.36873 -0.0424635 0
M  V30 1757 O 164.064 3.91177 0.913421 0
M  V30 1758 N 162.27 2.90581 0.0331145 0
M  V30 1759 H 161.817 2.46577 -0.745506 0
M  V30 1760 H 161.775 3.01416 0.894199 0
M  V30 1761 N 165.547 1.27147 0.931209 0
M  V30 1762 C 166.793 1.14455 1.68141 0
M  V30 1763 C 167.148 -0.307172 1.89932 0
M  V30 1764 O 166.441 -1.22158 1.47607 0
M  V30 1765 C 166.635 1.8579 3.05314 0
M  V30 1766 C 166.464 3.3775 2.96909 0
M  V30 1767 C 165.234 4.07062 2.99381 0
M  V30 1768 C 167.432 4.33783 2.76291 0
M  V30 1769 N 165.414 5.45618 2.8138 0
M  V30 1770 C 166.785 5.59582 2.6696 0
M  V30 1771 C 168.84 4.23915 2.61152 0
M  V30 1772 C 167.543 6.76639 2.44033 0
M  V30 1773 C 169.569 5.40689 2.39602 0
M  V30 1774 C 168.931 6.65443 2.3101 0
M  V30 1775 H 165.03 0.473667 0.622225 0
M  V30 1776 H 167.614 1.60568 1.10118 0
M  V30 1777 H 165.785 1.42138 3.61457 0
M  V30 1778 H 167.517 1.65634 3.69253 0
M  V30 1779 H 164.272 3.585 3.09475 0
M  V30 1780 H 164.696 6.184 2.75519 0
M  V30 1781 H 169.338 3.28189 2.66555 0
M  V30 1782 H 167.056 7.72451 2.3737 0
M  V30 1783 H 170.642 5.34932 2.28778 0
M  V30 1784 H 169.522 7.54277 2.14558 0
M  V30 1785 N 167.025 -1.13721 1.09112 0
M  V30 1786 C 168.271 -1.85198 0.826414 0
M  V30 1787 C 168.604 -1.83129 -0.646319 0
M  V30 1788 O 167.879 -1.2671 -1.47563 0
M  V30 1789 C 168.162 -3.33507 1.35812 0
M  V30 1790 C 168.015 -3.44108 2.89672 0
M  V30 1791 C 169.334 -4.28838 0.989256 0
M  V30 1792 H 166.453 -0.67243 0.301675 0
M  V30 1793 H 169.095 -1.33499 1.35197 0
M  V30 1794 H 167.245 -3.77666 0.911082 0
M  V30 1795 H 168.917 -3.08684 3.428 0
M  V30 1796 H 167.16 -2.85087 3.26967 0
M  V30 1797 H 167.831 -4.48388 3.21951 0
M  V30 1798 H 170.307 -3.92734 1.37475 0
M  V30 1799 H 169.183 -5.31051 1.38838 0
M  V30 1800 H 169.444 -4.4198 -0.102924 0
M  V30 1801 N 168.503 -0.877838 -1.30888 0
M  V30 1802 C 169.752 -0.488793 -1.95688 0
M  V30 1803 C 170.065 0.965485 -1.70111 0
M  V30 1804 O 171.271 1.46104 -2.28836 0
M  V30 1805 C 169.727 -0.823201 -3.50359 0
M  V30 1806 C 169.335 -2.29477 -3.84765 0
M  V30 1807 C 171.079 -0.503009 -4.21509 0
M  V30 1808 C 168.986 -2.57118 -5.32583 0
M  V30 1809 H 167.916 -0.179062 -0.732429 0
M  V30 1810 H 170.567 -1.07183 -1.48943 0
M  V30 1811 H 168.949 -0.169331 -3.95638 0
M  V30 1812 H 170.123 -2.99236 -3.5042 0
M  V30 1813 H 168.438 -2.58178 -3.267 0
M  V30 1814 H 171.035 -0.68665 -5.30273 0
M  V30 1815 H 171.378 0.557109 -4.12555 0
M  V30 1816 H 171.911 -1.11376 -3.8189 0
M  V30 1817 H 168.65 -3.61843 -5.4658 0
M  V30 1818 H 168.17 -1.91961 -5.68253 0
M  V30 1819 H 169.849 -2.42251 -5.99936 0
M  V30 1820 N 169.982 1.44106 -0.638065 0
M  V30 1821 C 171.393 1.85316 -0.226894 0
M  V30 1822 C 171.744 1.53399 1.22324 0
M  V30 1823 O 170.869 0.975463 1.93167 0
M  V30 1824 C 171.464 3.3637 -0.405013 0
M  V30 1825 C 170.023 3.76369 -0.0482902 0
M  V30 1826 C 169.17 2.67921 -0.715108 0
M  V30 1827 H 172.121 1.34474 -0.842764 0
M  V30 1828 H 172.142 3.7885 0.354 0
M  V30 1829 H 171.654 3.59569 -1.46053 0
M  V30 1830 H 169.755 3.58784 1.00522 0
M  V30 1831 H 169.868 4.76856 -0.463187 0
M  V30 1832 H 168.232 2.54259 -0.149753 0
M  V30 1833 H 169.015 2.93951 -1.77335 0
M  V30 1834 N 171.46 0.379036 1.52974 0
M  V30 1835 C 172.423 -0.448865 2.24762 0
M  V30 1836 C 173.423 -0.998689 1.26027 0
M  V30 1837 O 174.613 -0.882313 1.50203 0
M  V30 1838 C 171.745 -1.62872 2.99476 0
M  V30 1839 H 172.938 0.179491 2.99362 0
M  V30 1840 H 170.491 0.13096 1.5575 0
M  V30 1841 H 171.226 -2.29479 2.29151 0
M  V30 1842 H 171.011 -1.24128 3.71934 0
M  V30 1843 H 172.501 -2.2151 3.5401 0
M  V30 1844 N 172.938 -1.57226 0.108567 0
M  V30 1845 C 174.187 -1.94008 -0.551703 0
M  V30 1846 C 174.5 -0.993442 -1.68494 0
M  V30 1847 O 175.706 -1.25551 -2.40726 0
M  V30 1848 C 174.162 -3.44763 -1.03279 0
M  V30 1849 C 173.77 -4.47943 0.0714193 0
M  V30 1850 C 175.514 -3.90483 -1.66503 0
M  V30 1851 C 173.421 -5.89865 -0.425779 0
M  V30 1852 H 172.351 -0.724206 -0.209863 0
M  V30 1853 H 175.002 -1.82547 0.186741 0
M  V30 1854 H 173.384 -3.51422 -1.82533 0
M  V30 1855 H 174.558 -4.52942 0.847365 0
M  V30 1856 H 172.873 -4.11913 0.609669 0
M  V30 1857 H 175.47 -4.93925 -2.04798 0
M  V30 1858 H 175.813 -3.29877 -2.53942 0
M  V30 1859 H 176.346 -3.86581 -0.938074 0
M  V30 1860 H 173.085 -6.54202 0.412316 0
M  V30 1861 H 172.605 -5.88309 -1.16843 0
M  V30 1862 H 174.284 -6.40844 -0.890397 0
M  V30 1863 N 174.416 0.165178 -1.56732 0
M  V30 1864 C 175.641 0.900253 -1.86843 0
M  V30 1865 C 176.066 1.74766 -0.695596 0
M  V30 1866 O 175.424 1.77786 0.35522 0
M  V30 1867 C 175.472 1.74777 -3.15413 0
M  V30 1868 O 174.576 2.85007 -2.98068 0
M  V30 1869 H 173.917 0.251832 -0.614391 0
M  V30 1870 H 176.447 0.161468 -2.03962 0
M  V30 1871 H 176.457 2.14646 -3.46974 0
M  V30 1872 H 175.132 1.12537 -4.00385 0
M  V30 1873 H 173.709 2.48676 -2.77875 0
M  V30 1874 N 175.894 1.51508 0.433938 0
M  V30 1875 C 176.857 1.72473 1.50949 0
M  V30 1876 C 177.857 0.594725 1.49398 0
M  V30 1877 O 179.047 0.862315 1.5136 0
M  V30 1878 C 176.179 1.78431 2.90474 0
M  V30 1879 H 177.372 2.68467 1.33662 0
M  V30 1880 H 174.925 1.41549 0.662836 0
M  V30 1881 H 175.66 0.842645 3.13161 0
M  V30 1882 H 175.445 2.60558 2.93005 0
M  V30 1883 H 176.935 1.96479 3.68491 0
M  V30 1884 N 177.372 -0.689602 1.41712 0
M  V30 1885 C 178.618 -1.45181 1.41599 0
M  V30 1886 C 178.951 -1.94181 0.0270081 0
M  V30 1887 O 178.226 -1.6993 -0.946265 0
M  V30 1888 C 178.509 -2.65945 2.42787 0
M  V30 1889 C 178.362 -2.22672 3.90816 0
M  V30 1890 C 179.681 -3.68149 2.41151 0
M  V30 1891 H 176.8 -0.526576 0.515642 0
M  V30 1892 H 179.442 -0.784947 1.73028 0
M  V30 1893 H 177.592 -3.2284 2.16116 0
M  V30 1894 H 179.264 -1.71058 4.28412 0
M  V30 1895 H 177.507 -1.54394 4.05395 0
M  V30 1896 H 178.178 -3.0935 4.57172 0
M  V30 1897 H 180.654 -3.2094 2.64834 0
M  V30 1898 H 179.53 -4.50248 3.13955 0
M  V30 1899 H 179.791 -4.18259 1.43221 0
M  V30 1900 N 178.85 -1.27639 -0.924453 0
M  V30 1901 C 179.813 -1.10681 -2.00705 0
M  V30 1902 C 180.813 -0.0497823 -1.60723 0
M  V30 1903 O 182.003 -0.294654 -1.7169 0
M  V30 1904 C 179.135 -0.687164 -3.33902 0
M  V30 1905 H 180.328 -2.06817 -2.17179 0
M  V30 1906 H 177.881 -1.10473 -1.10569 0
M  V30 1907 H 178.616 0.275439 -3.23128 0
M  V30 1908 H 178.401 -1.45061 -3.6428 0
M  V30 1909 H 179.891 -0.590853 -4.13399 0
M  V30 1910 N 180.328 1.1314 -1.09713 0
M  V30 1911 C 181.574 1.84757 -0.836224 0
M  V30 1912 C 181.907 1.8347 0.636598 0
M  V30 1913 O 181.182 1.27491 1.46889 0
M  V30 1914 C 181.465 3.32782 -1.37578 0
M  V30 1915 C 181.318 3.42567 -2.91493 0
M  V30 1916 C 182.637 4.28307 -1.01198 0
M  V30 1917 H 179.756 0.67082 -0.305236 0
M  V30 1918 H 182.398 1.3278 -1.35903 0
M  V30 1919 H 180.548 3.77177 -0.931097 0
M  V30 1920 H 182.22 3.06862 -3.44432 0
M  V30 1921 H 180.463 2.83349 -3.28475 0
M  V30 1922 H 181.134 4.46674 -3.24324 0
M  V30 1923 H 183.61 3.91999 -1.39556 0
M  V30 1924 H 182.486 5.30307 -1.41653 0
M  V30 1925 H 182.747 4.42029 0.0794833 0
M  V30 1926 N 181.806 0.884767 1.30421 0
M  V30 1927 C 182.769 0.356277 2.26414 0
M  V30 1928 C 183.769 -0.501124 1.52792 0
M  V30 1929 O 184.959 -0.30831 1.7145 0
M  V30 1930 C 182.091 -0.492316 3.37326 0
M  V30 1931 H 183.284 1.20389 2.74675 0
M  V30 1932 H 180.837 0.661607 1.41607 0
M  V30 1933 H 181.572 -1.36052 2.94381 0
M  V30 1934 H 181.357 0.121832 3.91911 0
M  V30 1935 H 182.847 -0.853871 4.08777 0
M  V30 1936 N 183.284 -1.43765 0.645699 0
M  V30 1937 C 184.214 -2.33471 -0.0370477 0
M  V30 1938 C 185.195 -1.49042 -0.819779 0
M  V30 1939 O 186.38 -1.77726 -0.782758 0
M  V30 1940 C 183.51 -3.32311 -1.0093 0
M  V30 1941 C 182.464 -4.2667 -0.337201 0
M  V30 1942 C 181.79 -5.1549 -1.42037 0
M  V30 1943 C 183.09 -5.16657 0.765706 0
M  V30 1944 H 184.784 -2.90809 0.712069 0
M  V30 1945 H 182.33 -1.39834 0.343876 0
M  V30 1946 H 184.283 -3.9396 -1.49578 0
M  V30 1947 H 183.007 -2.73213 -1.78948 0
M  V30 1948 H 181.666 -3.66374 0.128771 0
M  V30 1949 H 181.314 -4.52735 -2.1918 0
M  V30 1950 H 181.014 -5.79438 -0.975966 0
M  V30 1951 H 182.538 -5.80012 -1.90838 0
M  V30 1952 H 183.952 -5.72158 0.361702 0
M  V30 1953 H 182.349 -5.89286 1.13413 0
M  V30 1954 H 183.419 -4.56796 1.62683 0
M  V30 1955 N 184.763 -0.387143 -1.52771 0
M  V30 1956 C 185.696 0.493123 -2.22808 0
M  V30 1957 C 186.674 1.0658 -1.22798 0
M  V30 1958 O 187.858 1.11785 -1.51777 0
M  V30 1959 C 184.985 1.68238 -2.93962 0
M  V30 1960 C 184.031 1.23515 -4.08223 0
M  V30 1961 S 184.864 0.21848 -5.35054 0
M  V30 1962 C 186.02 1.41357 -6.09729 0
M  V30 1963 H 186.253 -0.101625 -2.97126 0
M  V30 1964 H 183.786 -0.171323 -1.53447 0
M  V30 1965 H 185.744 2.36443 -3.35567 0
M  V30 1966 H 184.405 2.24842 -2.19328 0
M  V30 1967 H 183.598 2.12304 -4.57103 0
M  V30 1968 H 183.2 0.632044 -3.68621 0
M  V30 1969 H 185.492 2.34101 -6.3577 0
M  V30 1970 H 186.435 0.965736 -7.01484 0
M  V30 1971 H 186.843 1.6294 -5.40473 0
M  V30 1972 N 186.241 1.57166 -0.116904 0
M  V30 1973 C 187.471 1.99184 0.548586 0
M  V30 1974 C 187.879 0.995436 1.60897 0
M  V30 1975 O 187.222 -0.0201293 1.83689 0
M  V30 1976 C 187.284 3.37611 1.23526 0
M  V30 1977 C 186.948 4.55857 0.323077 0
M  V30 1978 C 187.945 5.18056 -0.437476 0
M  V30 1979 C 185.63 5.01751 0.234761 0
M  V30 1980 C 187.624 6.24536 -1.2741 0
M  V30 1981 C 185.311 6.08093 -0.605496 0
M  V30 1982 C 186.309 6.69352 -1.35856 0
M  V30 1983 O 185.997 7.7364 -2.18487 0
M  V30 1984 H 185.729 0.659148 0.149999 0
M  V30 1985 H 188.283 2.0443 -0.199428 0
M  V30 1986 H 186.513 3.29113 2.0303 0
M  V30 1987 H 188.202 3.63932 1.79745 0
M  V30 1988 H 188.968 4.83516 -0.379105 0
M  V30 1989 H 184.847 4.53817 0.810601 0
M  V30 1990 H 188.391 6.72281 -1.86237 0
M  V30 1991 H 184.288 6.42063 -0.665268 0
M  V30 1992 H 185.056 7.90727 -2.11406 0
M  V30 1993 N 187.719 -0.156864 1.56817 0
M  V30 1994 C 189.135 -0.50916 1.5126 0
M  V30 1995 C 189.335 -1.83897 0.823658 0
M  V30 1996 O 188.391 -2.49469 0.390055 0
M  V30 1997 C 189.704 -0.52857 2.96018 0
M  V30 1998 C 191.252 -0.614771 3.06903 0
M  V30 1999 C 191.727 -0.664938 4.53147 0
M  V30 2000 N 193.218 -0.727433 4.57452 0
M  V30 2001 C 193.953 -0.787067 5.67973 0
M  V30 2002 N 193.449 -0.806649 6.88088 0
M  V30 2003 N 195.242 -0.827195 5.5598 0
M  V30 2004 H 187.393 0.714935 2.00006 0
M  V30 2005 H 189.656 0.259526 0.911784 0
M  V30 2006 H 189.362 0.380154 3.49639 0
M  V30 2007 H 189.236 -1.36998 3.51442 0
M  V30 2008 H 191.623 -1.51392 2.53307 0
M  V30 2009 H 191.704 0.253597 2.5454 0
M  V30 2010 H 191.348 0.230011 5.07379 0
M  V30 2011 H 191.278 -1.54966 5.03282 0
M  V30 2012 H 193.769 -0.719998 3.70978 0
M  V30 2013 H 194.082 -0.853727 7.6807 0
M  V30 2014 H 192.427 -0.774687 6.90669 0
M  V30 2015 H 195.618 -0.808998 4.61056 0
M  V30 2016 H 195.791 -0.870206 6.4213 0
M  V30 2017 N 189.197 -1.51736 -0.425897 0
M  V30 2018 C 190.127 -1.76827 -1.52494 0
M  V30 2019 C 191.108 -0.618524 -1.58456 0
M  V30 2020 O 192.293 -0.862416 -1.74 0
M  V30 2021 C 189.423 -1.90374 -2.90474 0
M  V30 2022 C 188.377 -3.0588 -2.99369 0
M  V30 2023 C 187.703 -3.04625 -4.3944 0
M  V30 2024 C 189.003 -4.45644 -2.72394 0
M  V30 2025 H 190.697 -2.68855 -1.31748 0
M  V30 2026 H 188.243 -1.29372 -0.632362 0
M  V30 2027 H 190.196 -2.0651 -3.6733 0
M  V30 2028 H 188.92 -0.95004 -3.12477 0
M  V30 2029 H 187.579 -2.89467 -2.24954 0
M  V30 2030 H 187.227 -2.0701 -4.58428 0
M  V30 2031 H 186.927 -3.82195 -4.46319 0
M  V30 2032 H 188.451 -3.22869 -5.18255 0
M  V30 2033 H 189.865 -4.62348 -3.38979 0
M  V30 2034 H 188.262 -5.25006 -2.9067 0
M  V30 2035 H 189.332 -4.54893 -1.67929 0
M  V30 2036 N 190.675 0.682077 -1.42076 0
M  V30 2037 C 191.905 1.46844 -1.45329 0
M  V30 2038 C 192.313 1.89102 -0.0609328 0
M  V30 2039 O 191.656 1.58238 0.933082 0
M  V30 2040 C 191.718 2.75375 -2.31104 0
M  V30 2041 C 191.382 2.55238 -3.79081 0
M  V30 2042 C 192.379 2.20309 -4.70914 0
M  V30 2043 C 190.064 2.70459 -4.2327 0
M  V30 2044 C 192.058 2.00859 -6.04925 0
M  V30 2045 C 189.745 2.50624 -5.57343 0
M  V30 2046 C 190.743 2.15876 -6.47986 0
M  V30 2047 O 190.431 1.96227 -7.79583 0
M  V30 2048 H 190.163 0.4586 -0.496651 0
M  V30 2049 H 192.717 0.846131 -1.87162 0
M  V30 2050 H 190.947 3.40061 -1.84107 0
M  V30 2051 H 192.636 3.37231 -2.25898 0
M  V30 2052 H 193.402 2.08153 -4.38061 0
M  V30 2053 H 189.281 2.96485 -3.53012 0
M  V30 2054 H 192.825 1.7366 -6.75639 0
M  V30 2055 H 188.722 2.62375 -5.89771 0
M  V30 2056 H 189.49 2.10883 -7.90867 0
M  V30 2057 N 192.153 1.28127 0.917671 0
M  V30 2058 C 193.086 1.06039 2.02067 0
M  V30 2059 C 194.064 -0.0223285 1.62585 0
M  V30 2060 O 195.248 0.124823 1.88086 0
M  V30 2061 C 192.375 0.610596 3.33151 0
M  V30 2062 C 191.421 1.68937 3.91615 0
M  V30 2063 S 192.254 3.28437 4.22953 0
M  V30 2064 C 193.41 2.85283 5.57103 0
M  V30 2065 H 193.643 1.99425 2.20493 0
M  V30 2066 H 191.176 1.12071 1.06205 0
M  V30 2067 H 193.134 0.357778 4.08938 0
M  V30 2068 H 191.795 -0.303364 3.12632 0
M  V30 2069 H 190.988 1.32619 4.86239 0
M  V30 2070 H 190.59 1.89478 3.2245 0
M  V30 2071 H 192.882 2.3121 6.36827 0
M  V30 2072 H 193.825 3.7869 5.98331 0
M  V30 2073 H 194.233 2.24118 5.18104 0
M  V30 2074 N 193.631 -1.12557 1.10312 0
M  V30 2075 C 194.594 -2.16434 0.75424 0
M  V30 2076 C 195.594 -1.59278 -0.220685 0
M  V30 2077 O 196.784 -1.742 0.00230591 0
M  V30 2078 C 193.916 -3.40699 0.116987 0
M  V30 2079 H 195.109 -2.48811 1.67431 0
M  V30 2080 H 192.662 -1.27542 0.903475 0
M  V30 2081 H 193.397 -3.13921 -0.813877 0
M  V30 2082 H 193.182 -3.83459 0.818613 0
M  V30 2083 H 194.672 -4.17451 -0.111387 0
M  V30 2084 N 195.109 -0.891671 -1.2995 0
M  V30 2085 C 196.019 -0.367691 -2.31701 0
M  V30 2086 C 197.035 0.533486 -1.6562 0
M  V30 2087 O 198.211 0.424997 -1.96865 0
M  V30 2088 C 195.276 0.403406 -3.44345 0
M  V30 2089 C 194.337 -0.528328 -4.26037 0
M  V30 2090 C 193.57 0.206063 -5.33302 0
M  V30 2091 O 193.793 1.43119 -5.52153 0
M  V30 2092 O 192.727 -0.447281 -6.00236 0
M  V30 2093 H 196.553 -1.21163 -2.78484 0
M  V30 2094 H 194.138 -0.655725 -1.34241 0
M  V30 2095 H 196.02 0.839753 -4.12948 0
M  V30 2096 H 194.695 1.22354 -2.99685 0
M  V30 2097 H 193.602 -1.01362 -3.60106 0
M  V30 2098 H 194.935 -1.31465 -4.74318 0
M  V30 2099 N 196.587 1.43421 -0.653314 0
M  V30 2100 C 197.864 1.95361 -0.0966581 0
M  V30 2101 C 198.244 1.59461 1.38331 0
M  V30 2102 O 197.592 0.879777 2.10884 0
M  V30 2103 C 197.802 3.47311 -0.342988 0
M  V30 2104 C 199.15 4.23875 -0.24798 0
M  V30 2105 O 200.174 3.55133 -0.275553 0
M  V30 2106 O 199.033 5.4623 -0.171771 0
M  V30 2107 H 196.127 0.826945 0.00956291 0
M  V30 2108 H 198.673 1.5336 -0.726558 0
M  V30 2109 H 197.445 3.66569 -1.36906 0
M  V30 2110 H 197.068 3.9631 0.319975 0
M  V30 2111 O 198.104 0.537413 1.52296 0
M  V30 2112 H 198.795 0.0295046 1.93678 0
M  V30 END ATOM
M  V30 BEGIN BOND
M  V30 END BOND
M  V30 END CTAB
M  END
$$$$
