drugbank_target|P00136 Cytochrome c3, 13 kDa (DB03317)
 OpenBabel12092120273D

  0  0  0     0  0            999 V3000
M  V30 BEGIN CTAB
M  V30 COUNTS 1751 1770 0 0 0
M  V30 BEGIN ATOM
M  V30 1 H -0.908 1.98254 -0.117106 0
M  V30 2 N 0 1.576 0 0
M  V30 3 C 0.963 2.07369 0.976253 0
M  V30 4 C 1.963 0.98309 1.27248 0
M  V30 5 O 3.153 1.24574 1.21766 0
M  V30 6 C 0.285 2.51514 2.30116 0
M  V30 7 H 1.478 2.94892 0.545759 0
M  V30 8 H -0.969 1.54328 0.247471 0
M  V30 9 H -0.234 1.67234 2.77855 0
M  V30 10 H -0.449 3.31163 2.09937 0
M  V30 11 H 1.041 2.90345 3.00149 0
M  V30 12 N 1.4781 -0.272755 1.55222 0
M  V30 13 C 2.7551 -1.02562 1.66555 0
M  V30 14 C 3.1351 -2.04282 0.532189 0
M  V30 15 O 2.4831 -2.23662 -0.467717 0
M  V30 16 C 2.6931 -1.6822 3.05782 0
M  V30 17 C 4.0411 -2.19373 3.63539 0
M  V30 18 O 5.0651 -1.78206 3.08417 0
M  V30 19 O 3.9241 -2.94883 4.60115 0
M  V30 20 H 1.0181 -0.475755 0.676451 0
M  V30 21 H 3.5641 -0.268593 1.67561 0
M  V30 22 H 2.3361 -0.945112 3.79715 0
M  V30 23 H 1.9591 -2.50609 3.08676 0
M  V30 24 N 2.9562 -1.48159 -0.537278 0
M  V30 25 C 3.9192 -1.61665 -1.62472 0
M  V30 26 C 4.9192 -0.490395 -1.5314 0
M  V30 27 O 6.1092 -0.755998 -1.5694 0
M  V30 28 C 3.2412 -1.57997 -3.02076 0
M  V30 29 H 4.4342 -2.58621 -1.51839 0
M  V30 30 H 1.9872 -1.36647 -0.758771 0
M  V30 31 H 2.7222 -0.624913 -3.18222 0
M  V30 32 H 2.5072 -2.39755 -3.10258 0
M  V30 33 H 3.9972 -1.70627 -3.81151 0
M  V30 34 N 4.4343 0.785586 -1.36625 0
M  V30 35 C 5.8453 1.36101 -1.27803 0
M  V30 36 C 6.1963 1.96035 0.0804875 0
M  V30 37 O 5.3213 1.92834 0.982042 0
M  V30 38 C 5.9163 2.47442 -2.31426 0
M  V30 39 C 4.4753 3.00789 -2.26281 0
M  V30 40 C 3.6223 1.73896 -2.15999 0
M  V30 41 H 6.5733 0.586928 -1.47448 0
M  V30 42 H 6.5943 3.2656 -1.95291 0
M  V30 43 H 6.1063 2.03791 -3.30289 0
M  V30 44 H 4.2073 3.48851 -1.30896 0
M  V30 45 H 4.3203 3.57343 -3.19128 0
M  V30 46 H 2.6843 1.9628 -1.62316 0
M  V30 47 H 3.4673 1.32368 -3.16755 0
M  V30 48 N 5.9124 1.20967 1.01018 0
M  V30 49 C 7.1604 1.02172 1.74371 0
M  V30 50 C 7.4814 -0.446414 1.89821 0
M  V30 51 O 6.7514 -1.32234 1.44537 0
M  V30 52 H 5.3314 0.375066 0.646014 0
M  V30 53 H 7.9934 1.52187 1.21758 0
M  V30 54 H 7.0894 1.48538 2.74487 0
M  V30 55 N 7.3905 -1.2043 1.01659 0
M  V30 56 C 8.6675 -1.8548 0.621004 0
M  V30 57 C 9.0475 -1.9091 -0.900919 0
M  V30 58 O 8.3955 -1.41694 -1.79263 0
M  V30 59 C 8.6055 -3.25119 1.2688 0
M  V30 60 C 9.9535 -4.01403 1.38423 0
M  V30 61 O 10.9775 -3.34473 1.22501 0
M  V30 62 O 9.8365 -5.21265 1.64151 0
M  V30 63 H 6.9305 -0.798761 0.214266 0
M  V30 64 H 9.4765 -1.28019 1.11396 0
M  V30 65 H 8.2485 -3.15932 2.30873 0
M  V30 66 H 7.8715 -3.90212 0.762917 0
M  V30 67 N 8.8686 -0.792821 -1.36206 0
M  V30 68 C 10.1456 -0.290627 -1.93429 0
M  V30 69 C 10.5256 1.21773 -1.72437 0
M  V30 70 O 9.8736 2.0108 -1.08531 0
M  V30 71 C 10.0836 -0.686973 -3.42172 0
M  V30 72 C 11.4316 -0.668643 -4.19302 0
M  V30 73 O 12.4556 -0.627658 -3.50626 0
M  V30 74 O 11.3146 -0.714597 -5.41808 0
M  V30 75 H 8.4086 -0.0727927 -0.82379 0
M  V30 76 H 10.9546 -0.875593 -1.45367 0
M  V30 77 H 9.7266 -1.72711 -3.51122 0
M  V30 78 H 9.3496 -0.0760733 -3.97527 0
M  V30 79 N 10.3467 1.47872 -0.545128 0
M  V30 80 C 11.5767 2.06589 -0.0210534 0
M  V30 81 C 11.9847 1.39997 1.27269 0
M  V30 82 O 11.3277 0.486421 1.77143 0
M  V30 83 C 11.3897 3.58574 0.257933 0
M  V30 84 C 11.0537 4.47132 -0.944573 0
M  V30 85 C 12.0507 4.85986 -1.84699 0
M  V30 86 C 9.7357 4.88821 -1.15584 0
M  V30 87 C 11.7297 5.65314 -2.94446 0
M  V30 88 C 9.4167 5.67916 -2.25642 0
M  V30 89 C 10.4147 6.06073 -3.14905 0
M  V30 90 O 10.1027 6.83578 -4.23057 0
M  V30 91 H 9.8347 0.674971 -0.0372899 0
M  V30 92 H 12.3887 1.91037 -0.754599 0
M  V30 93 H 10.6187 3.72295 1.04564 0
M  V30 94 H 12.3077 3.99356 0.72592 0
M  V30 95 H 13.0737 4.54388 -1.69577 0
M  V30 96 H 8.9527 4.58595 -0.470279 0
M  V30 97 H 12.4967 5.95016 -3.64145 0
M  V30 98 H 8.3937 5.98927 -2.40742 0
M  V30 99 H 9.1617 7.01954 -4.20954 0
M  V30 100 N 11.8248 0.280983 1.55075 0
M  V30 101 C 13.0708 -0.33461 2.00021 0
M  V30 102 C 13.4038 -1.55063 1.16915 0
M  V30 103 O 12.6788 -1.93006 0.240646 0
M  V30 104 C 12.9618 -0.711007 3.53011 0
M  V30 105 C 12.8148 0.512766 4.46868 0
M  V30 106 C 14.1338 -1.54522 4.12081 0
M  V30 107 H 11.2528 -0.120147 0.727141 0
M  V30 108 H 13.8948 0.389097 1.85973 0
M  V30 109 H 12.0448 -1.32761 3.65112 0
M  V30 110 H 13.7168 1.15131 4.46702 0
M  V30 111 H 11.9598 1.14975 4.18286 0
M  V30 112 H 12.6308 0.205556 5.51617 0
M  V30 113 H 15.1068 -1.02442 4.03293 0
M  V30 114 H 13.9828 -1.77739 5.19327 0
M  V30 115 H 14.2438 -2.52813 3.62682 0
M  V30 116 N 13.3029 -1.57598 0.00835791 0
M  V30 117 C 14.5519 -1.90107 -0.673968 0
M  V30 118 C 14.8649 -0.884275 -1.7447 0
M  V30 119 O 16.0709 -1.09987 -2.48224 0
M  V30 120 C 14.5269 -3.37497 -1.24995 0
M  V30 121 C 14.1349 -4.47491 -0.2136 0
M  V30 122 C 15.8789 -3.79104 -1.90999 0
M  V30 123 C 13.7859 -5.85963 -0.80005 0
M  V30 124 H 12.7159 -0.709393 -0.255495 0
M  V30 125 H 15.3669 -1.83365 0.0702693 0
M  V30 126 H 13.7489 -3.39102 -2.04513 0
M  V30 127 H 14.9229 -4.57414 0.557596 0
M  V30 128 H 13.2379 -4.14956 0.346474 0
M  V30 129 H 15.8349 -4.79901 -2.35795 0
M  V30 130 H 16.1779 -3.1306 -2.74407 0
M  V30 131 H 16.7109 -3.79833 -1.18203 0
M  V30 132 H 13.4499 -6.555 -0.00456708 0
M  V30 133 H 12.9699 -5.79687 -1.54021 0
M  V30 134 H 14.6489 -6.33884 -1.29615 0
M  V30 135 N 14.781 0.264519 -1.55364 0
M  V30 136 C 16.006 1.01726 -1.80739 0
M  V30 137 C 16.431 1.78836 -0.583044 0
M  V30 138 O 15.789 1.75167 0.467566 0
M  V30 139 C 15.837 1.94482 -3.03659 0
M  V30 140 O 14.941 3.03386 -2.7934 0
M  V30 141 H 14.282 0.290395 -0.597132 0
M  V30 142 H 16.812 0.290854 -2.02522 0
M  V30 143 H 16.822 2.36278 -3.32621 0
M  V30 144 H 15.497 1.37772 -3.92418 0
M  V30 145 H 14.074 2.65844 -2.61498 0
M  V30 146 N 16.2591 1.48442 0.529413 0
M  V30 147 C 17.2221 1.62524 1.61612 0
M  V30 148 C 18.2221 0.498509 1.52877 0
M  V30 149 O 19.4121 0.76431 1.56537 0
M  V30 150 C 16.5441 1.59597 3.01233 0
M  V30 151 H 17.7371 2.59423 1.50465 0
M  V30 152 H 15.2901 1.37047 0.751514 0
M  V30 153 H 16.0251 0.641781 3.17886 0
M  V30 154 H 15.8101 2.41397 3.08982 0
M  V30 155 H 17.3001 1.72646 3.80241 0
M  V30 156 N 17.7372 -0.778329 1.37039 0
M  V30 157 C 19.1482 -1.35421 1.28523 0
M  V30 158 C 19.4992 -1.96075 -0.0700901 0
M  V30 159 O 18.6242 -1.93352 -0.971801 0
M  V30 160 C 19.2192 -2.46211 2.32735 0
M  V30 161 C 17.7782 -2.99585 2.27873 0
M  V30 162 C 16.9252 -1.72748 2.16918 0
M  V30 163 H 19.8762 -0.5791 1.47757 0
M  V30 164 H 19.8972 -3.2552 1.9702 0
M  V30 165 H 19.4092 -2.02036 3.31365 0
M  V30 166 H 17.5102 -3.48152 1.32745 0
M  V30 167 H 17.6232 -3.55646 3.21018 0
M  V30 168 H 15.9872 -1.95416 1.63354 0
M  V30 169 H 16.7702 -1.30686 3.17452 0
M  V30 170 N 19.2153 -1.21501 -1.00376 0
M  V30 171 C 20.1253 -0.991447 -2.12621 0
M  V30 172 C 21.1413 0.0568446 -1.73907 0
M  V30 173 O 22.3173 -0.13348 -2.00957 0
M  V30 174 C 19.3823 -0.560312 -3.42142 0
M  V30 175 C 18.4433 -1.68096 -3.95022 0
M  V30 176 C 17.6763 -1.2703 -5.18362 0
M  V30 177 O 17.8993 -0.144438 -5.70217 0
M  V30 178 O 16.8333 -2.08269 -5.64719 0
M  V30 179 H 20.6593 -1.93158 -2.34358 0
M  V30 180 H 18.2443 -0.999999 -1.10997 0
M  V30 181 H 20.1263 -0.329724 -4.20108 0
M  V30 182 H 18.8013 0.351089 -3.2179 0
M  V30 183 H 17.7083 -1.96597 -3.18278 0
M  V30 184 H 19.0413 -2.56983 -4.19786 0
M  V30 185 N 20.6934 1.19889 -1.02296 0
M  V30 186 C 21.9414 1.89046 -0.714558 0
M  V30 187 C 22.2624 1.79636 0.758681 0
M  V30 188 O 21.5324 1.20292 1.54618 0
M  V30 189 H 20.1124 0.699802 -0.261317 0
M  V30 190 H 22.7744 1.45574 -1.29592 0
M  V30 191 H 21.8704 2.95524 -1.0036 0
M  V30 192 N 22.1715 0.800033 1.35784 0
M  V30 193 C 23.1045 0.151499 2.27697 0
M  V30 194 C 24.0825 -0.678663 1.4776 0
M  V30 195 O 25.2665 -0.647358 1.77035 0
M  V30 196 C 22.3935 -0.790492 3.29346 0
M  V30 197 C 21.4395 -0.0407832 4.26481 0
M  V30 198 S 22.2725 1.29077 5.19711 0
M  V30 199 C 23.4285 0.353055 6.24903 0
M  V30 200 H 23.6615 0.930796 2.82353 0
M  V30 201 H 21.1945 0.594767 1.42485 0
M  V30 202 H 23.1525 -1.3285 3.88409 0
M  V30 203 H 21.8135 -1.54312 2.73581 0
M  V30 204 H 21.0065 -0.755971 4.98298 0
M  V30 205 H 20.6085 0.427063 3.71554 0
M  V30 206 H 22.9005 -0.464147 6.75908 0
M  V30 207 H 23.8435 1.04023 7.00418 0
M  V30 208 H 24.2515 -0.0483344 5.64479 0
M  V30 209 N 23.6496 -1.47581 0.552962 0
M  V30 210 C 24.5966 -2.29957 -0.197108 0
M  V30 211 C 25.5666 -1.38799 -0.912359 0
M  V30 212 O 26.7516 -1.67761 -0.908888 0
M  V30 213 C 23.8916 -3.22672 -1.22379 0
M  V30 214 C 23.0046 -4.28919 -0.515038 0
M  V30 215 C 22.1396 -5.0879 -1.52664 0
M  V30 216 C 21.1786 -6.06815 -0.802631 0
M  V30 217 N 20.3156 -6.7966 -1.76086 0
M  V30 218 H 25.1556 -2.93578 0.511486 0
M  V30 219 H 22.6926 -1.4471 0.264067 0
M  V30 220 H 24.6506 -3.74845 -1.83159 0
M  V30 221 H 23.2806 -2.60925 -1.90047 0
M  V30 222 H 22.3326 -3.79835 0.207192 0
M  V30 223 H 23.6446 -4.98773 0.0523425 0
M  V30 224 H 22.7986 -5.65091 -2.20809 0
M  V30 225 H 21.5376 -4.38828 -2.12794 0
M  V30 226 H 20.5426 -5.49695 -0.107238 0
M  V30 227 H 21.7676 -6.78784 -0.207135 0
M  V30 228 H 19.7136 -6.12432 -2.35081 0
M  V30 229 H 19.6306 -7.45669 -1.24552 0
M  V30 230 H 20.8986 -7.40538 -2.43359 0
M  V30 231 N 25.1277 -0.289203 -1.54924 0
M  V30 232 C 26.0907 0.579144 -2.21762 0
M  V30 233 C 27.0907 1.07047 -1.1999 0
M  V30 234 O 28.2807 0.968384 -1.44803 0
M  V30 235 C 25.4127 1.80055 -2.8947 0
M  V30 236 H 26.6057 -0.00464908 -2.999 0
M  V30 237 H 24.1587 -0.0399306 -1.56249 0
M  V30 238 H 24.8937 2.42449 -2.15381 0
M  V30 239 H 24.6787 1.45602 -3.64064 0
M  V30 240 H 26.1687 2.41773 -3.40493 0
M  V30 241 N 26.6058 1.57591 -0.0167156 0
M  V30 242 C 27.5528 2.09462 0.969251 0
M  V30 243 C 28.5228 0.99381 1.33089 0
M  V30 244 O 29.7078 1.26726 1.42636 0
M  V30 245 C 26.8478 2.61622 2.25051 0
M  V30 246 C 25.9608 3.85666 1.94642 0
M  V30 247 C 25.0958 4.26266 3.16972 0
M  V30 248 C 24.1348 5.43101 2.82326 0
M  V30 249 N 23.2718 5.78915 3.97243 0
M  V30 250 H 28.1118 2.93428 0.519997 0
M  V30 251 H 25.6488 1.45044 0.245087 0
M  V30 252 H 27.6068 2.89949 2.99976 0
M  V30 253 H 26.2368 1.80505 2.67615 0
M  V30 254 H 25.2888 3.64145 1.10013 0
M  V30 255 H 26.6008 4.70678 1.65117 0
M  V30 256 H 25.7548 4.55963 4.00228 0
M  V30 257 H 24.4938 3.39996 3.49648 0
M  V30 258 H 23.4988 5.1311 1.97479 0
M  V30 259 H 24.7238 6.3106 2.50879 0
M  V30 260 H 22.6698 4.95602 4.29785 0
M  V30 261 H 22.5868 6.58539 3.71299 0
M  V30 262 H 23.8548 6.13212 4.81239 0
M  V30 263 N 28.0839 -0.256276 1.55502 0
M  V30 264 C 29.4949 -0.826068 1.67431 0
M  V30 265 C 29.8459 -1.86396 0.612446 0
M  V30 266 O 28.9709 -2.15031 -0.243025 0
M  V30 267 C 29.5659 -1.50512 3.03532 0
M  V30 268 C 28.1249 -2.02273 3.17431 0
M  V30 269 C 27.2719 -0.870548 2.63281 0
M  V30 270 H 30.2229 -0.0322728 1.58667 0
M  V30 271 H 30.2439 -2.37279 2.97454 0
M  V30 272 H 29.7559 -0.749484 3.80794 0
M  V30 273 H 27.8569 -2.80746 2.44974 0
M  V30 274 H 27.9699 -2.22655 4.24219 0
M  V30 275 H 26.3339 -1.26851 2.20864 0
M  V30 276 H 27.1169 -0.128149 3.43061 0
M  V30 277 N 29.562 -1.4872 -0.521534 0
M  V30 278 C 30.509 -1.63871 -1.62527 0
M  V30 279 C 31.479 -0.480559 -1.58996 0
M  V30 280 O 32.664 -0.705085 -1.77294 0
M  V30 281 C 29.804 -1.69227 -3.00759 0
M  V30 282 C 28.917 -2.96207 -3.14461 0
M  V30 283 C 28.052 -2.92671 -4.43303 0
M  V30 284 C 27.091 -4.14318 -4.50563 0
M  V30 285 N 26.228 -4.0881 -5.70805 0
M  V30 286 H 31.068 -2.58123 -1.48918 0
M  V30 287 H 28.605 -1.28 -0.724878 0
M  V30 288 H 30.563 -1.70314 -3.80853 0
M  V30 289 H 29.193 -0.784586 -3.1312 0
M  V30 290 H 28.245 -3.04826 -2.27564 0
M  V30 291 H 29.557 -3.86192 -3.15686 0
M  V30 292 H 28.711 -2.92206 -5.31696 0
M  V30 293 H 27.45 -2.00429 -4.44612 0
M  V30 294 H 26.455 -4.15049 -3.60575 0
M  V30 295 H 27.68 -5.07729 -4.50986 0
M  V30 296 H 25.626 -3.19394 -5.72995 0
M  V30 297 H 25.543 -4.92509 -5.7356 0
M  V30 298 H 26.811 -4.12418 -6.61462 0
M  V30 299 N 31.0401 0.771051 -1.3745 0
M  V30 300 C 32.2881 1.52661 -1.32435 0
M  V30 301 C 32.6091 1.9479 0.0905024 0
M  V30 302 O 31.8791 1.66348 1.03466 0
M  V30 303 H 30.4591 0.566218 -0.487244 0
M  V30 304 H 33.1211 0.917636 -1.71946 0
M  V30 305 H 32.2171 2.42568 -1.96385 0
M  V30 306 N 32.5182 1.22032 0.997298 0
M  V30 307 C 33.7952 0.950823 1.70935 0
M  V30 308 C 34.1752 -0.535292 2.042 0
M  V30 309 O 33.5232 -1.50217 1.72183 0
M  V30 310 C 33.7332 1.84386 2.96315 0
M  V30 311 C 35.0812 2.09732 3.69185 0
M  V30 312 O 36.1052 1.81798 3.06314 0
M  V30 313 O 34.9642 2.57018 4.82291 0
M  V30 314 H 32.0582 0.357204 0.745878 0
M  V30 315 H 34.6042 1.32997 1.05404 0
M  V30 316 H 33.3762 2.84928 2.68201 0
M  V30 317 H 32.9992 1.46602 3.69586 0
M  V30 318 N 33.9963 -1.19345 1.0293 0
M  V30 319 C 34.9433 -2.2258 0.610464 0
M  V30 320 C 35.9133 -1.6179 -0.375946 0
M  V30 321 O 37.0983 -1.88844 -0.272511 0
M  V30 322 C 34.2383 -3.45085 -0.0321473 0
M  V30 323 C 33.3513 -4.20258 1.00035 0
M  V30 324 C 32.4863 -5.3019 0.32746 0
M  V30 325 C 31.5253 -5.97121 1.34584 0
M  V30 326 N 30.6623 -6.98615 0.698726 0
M  V30 327 H 35.5023 -2.57764 1.49538 0
M  V30 328 H 33.0393 -1.26644 0.748311 0
M  V30 329 H 34.9973 -4.15061 -0.421966 0
M  V30 330 H 33.6273 -3.10555 -0.88064 0
M  V30 331 H 32.6793 -3.49223 1.50823 0
M  V30 332 H 33.9913 -4.66175 1.77433 0
M  V30 333 H 33.1453 -6.06587 -0.11718 0
M  V30 334 H 31.8843 -4.85345 -0.478713 0
M  V30 335 H 30.8893 -5.19474 1.80074 0
M  V30 336 H 32.1143 -6.4405 2.15352 0
M  V30 337 H 30.0603 -6.55942 -0.0873471 0
M  V30 338 H 29.9773 -7.42724 1.41058 0
M  V30 339 H 31.2453 -7.79004 0.278102 0
M  V30 340 N 35.4744 -0.807222 -1.35358 0
M  V30 341 C 36.8854 -0.44876 -1.81226 0
M  V30 342 C 37.2364 1.02929 -1.67033 0
M  V30 343 O 36.3614 1.79991 -1.20133 0
M  V30 344 C 36.9564 -0.807774 -3.2903 0
M  V30 345 C 35.5154 -0.501901 -3.73039 0
M  V30 346 C 34.6624 -1.03304 -2.57339 0
M  V30 347 H 37.6134 -0.998808 -1.23327 0
M  V30 348 H 37.6344 -0.10554 -3.80354 0
M  V30 349 H 37.1464 -1.88357 -3.39328 0
M  V30 350 H 35.2474 0.565128 -3.68289 0
M  V30 351 H 35.3604 -1.03497 -4.67787 0
M  V30 352 H 33.7244 -0.455339 -2.50597 0
M  V30 353 H 34.5074 -2.11496 -2.70415 0
M  V30 354 N 36.9525 1.47285 -0.560781 0
M  V30 355 C 38.2005 2.02064 -0.0379868 0
M  V30 356 C 38.5215 1.43711 1.31803 0
M  V30 357 O 37.7915 0.61362 1.86042 0
M  V30 358 H 36.3715 0.746918 -0.0110531 0
M  V30 359 H 39.0335 1.80648 -0.731598 0
M  V30 360 H 38.1295 3.12064 0.0474463 0
M  V30 361 N 38.4306 0.297415 1.54768 0
M  V30 362 C 39.3936 -0.567375 2.22066 0
M  V30 363 C 40.3936 -1.06409 1.20556 0
M  V30 364 O 41.5836 -0.960691 1.45315 0
M  V30 365 C 38.7156 -1.78517 2.90421 0
M  V30 366 H 39.9086 0.0205534 2.99893 0
M  V30 367 H 37.4616 0.0482163 1.56226 0
M  V30 368 H 38.1966 -2.41303 2.16664 0
M  V30 369 H 37.9816 -1.43669 3.64831 0
M  V30 370 H 39.4716 -2.39964 3.41771 0
M  V30 371 N 39.9087 -1.5758 0.0250728 0
M  V30 372 C 40.8387 -2.13007 -0.956575 0
M  V30 373 C 41.8197 -1.0452 -1.342 0
M  V30 374 O 43.0047 -1.32332 -1.42133 0
M  V30 375 C 40.1347 -2.65386 -2.24026 0
M  V30 376 C 39.0887 -3.78623 -1.99571 0
M  V30 377 C 38.4147 -4.17414 -3.3417 0
M  V30 378 C 39.7147 -5.04867 -1.33814 0
M  V30 379 H 41.4087 -2.9528 -0.494991 0
M  V30 380 H 38.9547 -1.42042 -0.236651 0
M  V30 381 H 40.9077 -3.02794 -2.93076 0
M  V30 382 H 39.6317 -1.80268 -2.72343 0
M  V30 383 H 38.2907 -3.41646 -1.32941 0
M  V30 384 H 37.9387 -3.29284 -3.80238 0
M  V30 385 H 37.6387 -4.93719 -3.18615 0
M  V30 386 H 39.1627 -4.57402 -4.04495 0
M  V30 387 H 40.5767 -5.39888 -1.92857 0
M  V30 388 H 38.9737 -5.86144 -1.28669 0
M  V30 389 H 40.0437 -4.83904 -0.310561 0
M  V30 390 N 41.3868 0.248026 -1.55636 0
M  V30 391 C 42.3188 1.32993 -1.8667 0
M  V30 392 C 43.3318 1.44345 -0.752877 0
M  V30 393 O 44.5208 1.45715 -1.03098 0
M  V30 394 C 41.6208 2.70863 -2.03682 0
M  V30 395 C 40.7938 2.81792 -3.34532 0
M  V30 396 C 39.8528 4.005 -3.41301 0
M  V30 397 O 38.8788 3.9008 -4.14519 0
M  V30 398 N 40.0808 5.13618 -2.70512 0
M  V30 399 H 42.8458 1.06707 -2.8006 0
M  V30 400 H 40.4068 0.438129 -1.55859 0
M  V30 401 H 42.3988 3.48612 -2.05553 0
M  V30 402 H 40.9688 2.89862 -1.17041 0
M  V30 403 H 40.1888 1.90729 -3.44987 0
M  V30 404 H 41.4768 2.86043 -4.20781 0
M  V30 405 H 40.8748 5.24975 -2.10755 0
M  V30 406 H 39.4318 5.89505 -2.78077 0
M  V30 407 N 42.8649 1.48995 0.513639 0
M  V30 408 C 43.8119 1.6473 1.61656 0
M  V30 409 C 44.7819 0.488984 1.58739 0
M  V30 410 O 45.9669 0.714478 1.76918 0
M  V30 411 C 43.1069 1.7082 2.99858 0
M  V30 412 C 42.2199 2.9787 3.12885 0
M  V30 413 C 41.3549 2.95017 4.41744 0
M  V30 414 C 40.3939 4.16702 4.48359 0
M  V30 415 N 39.5309 4.11832 5.68629 0
M  V30 416 H 44.3709 2.58909 1.47547 0
M  V30 417 H 41.9079 1.28382 0.71808 0
M  V30 418 H 43.8659 1.72331 3.79944 0
M  V30 419 H 42.4959 0.801181 3.12699 0
M  V30 420 H 41.5479 3.06029 2.25944 0
M  V30 421 H 42.8599 3.8786 3.13633 0
M  V30 422 H 42.0139 2.95021 5.30139 0
M  V30 423 H 40.7529 2.02784 4.43542 0
M  V30 424 H 39.7579 4.16955 3.58369 0
M  V30 425 H 40.9829 5.10113 4.48287 0
M  V30 426 H 38.9289 3.22428 5.71293 0
M  V30 427 H 38.8459 4.95543 5.7094 0
M  V30 428 H 40.1139 4.1592 6.59266 0
M  V30 429 N 44.343 -0.763751 1.37857 0
M  V30 430 C 45.571 -1.55293 1.36718 0
M  V30 431 C 45.986 -1.88745 -0.0455434 0
M  V30 432 O 45.343 -1.52039 -1.00947 0
M  V30 433 C 45.394 -2.85831 2.2132 0
M  V30 434 O 45.115 -2.5381 3.57089 0
M  V30 435 C 46.616 -3.80023 2.28249 0
M  V30 436 H 43.836 -0.480841 0.468009 0
M  V30 437 H 46.38 -0.946009 1.81303 0
M  V30 438 H 44.535 -3.42926 1.80223 0
M  V30 439 H 44.949 -3.37459 4.01524 0
M  V30 440 H 46.423 -4.68599 2.91752 0
M  V30 441 H 46.9 -4.1973 1.2932 0
M  V30 442 H 47.506 -3.28855 2.69693 0
M  V30 443 N 45.8211 -1.22559 -0.990812 0
M  V30 444 C 47.0671 -1.05297 -1.73322 0
M  V30 445 C 47.4001 0.410655 -1.89808 0
M  V30 446 O 46.6751 1.30439 -1.44277 0
M  V30 447 C 46.9581 -1.76713 -3.13759 0
M  V30 448 C 46.8111 -3.30684 -3.04907 0
M  V30 449 C 48.1301 -1.52121 -4.12974 0
M  V30 450 H 45.2491 -0.38392 -0.629106 0
M  V30 451 H 47.8911 -1.50926 -1.15418 0
M  V30 452 H 46.0411 -1.37924 -3.63193 0
M  V30 453 H 47.7131 -3.7893 -2.63077 0
M  V30 454 H 45.9561 -3.60253 -2.41661 0
M  V30 455 H 46.6271 -3.75833 -4.04294 0
M  V30 456 H 49.1031 -1.85819 -3.72304 0
M  V30 457 H 47.9791 -2.04582 -5.0935 0
M  V30 458 H 48.2401 -0.454257 -4.3976 0
M  V30 459 N 47.2992 1.18797 -1.03562 0
M  V30 460 C 48.7102 1.70322 -0.764676 0
M  V30 461 C 49.0612 1.82708 0.714996 0
M  V30 462 O 48.1862 1.50299 1.55689 0
M  V30 463 C 48.7812 3.09356 -1.38145 0
M  V30 464 C 47.3402 3.58114 -1.15895 0
M  V30 465 C 46.4872 2.34798 -1.4753 0
M  V30 466 H 49.4382 1.03543 -1.20268 0
M  V30 467 H 49.4592 3.72378 -0.781977 0
M  V30 468 H 48.9712 3.00309 -2.45837 0
M  V30 469 H 47.0722 3.72464 -0.100544 0
M  V30 470 H 47.1852 4.4184 -1.8524 0
M  V30 471 H 45.5492 2.38464 -0.894829 0
M  V30 472 H 46.3322 2.28375 -2.56319 0
M  V30 473 N 48.7773 0.814389 1.34928 0
M  V30 474 C 50.0243 0.398423 1.98542 0
M  V30 475 C 50.3523 -1.03638 1.64589 0
M  V30 476 O 49.6073 -1.73509 0.90516 0
M  V30 477 C 49.9063 0.537781 3.53331 0
M  V30 478 C 49.5723 1.93704 4.07172 0
M  V30 479 C 48.2343 2.31984 4.21589 0
M  V30 480 C 50.5863 2.85213 4.36237 0
M  V30 481 C 47.9143 3.61125 4.62391 0
M  V30 482 C 50.2663 4.13809 4.78482 0
M  V30 483 C 48.9303 4.52077 4.91104 0
M  V30 484 H 48.2003 0.145793 0.726516 0
M  V30 485 H 50.8473 1.03669 1.61012 0
M  V30 486 H 49.1523 -0.183906 3.91368 0
M  V30 487 H 50.8493 0.196588 4.00518 0
M  V30 488 H 47.4393 1.62966 3.96409 0
M  V30 489 H 51.6233 2.56885 4.24645 0
M  V30 490 H 46.8793 3.90612 4.70353 0
M  V30 491 H 51.0533 4.84811 4.99932 0
M  V30 492 H 48.6803 5.52196 5.22478 0
M  V30 493 N 50.2554 -1.46986 0.568584 0
M  V30 494 C 51.6664 -1.86188 0.138219 0
M  V30 495 C 52.0174 -1.47388 -1.29504 0
M  V30 496 O 51.1424 -0.88219 -1.97602 0
M  V30 497 C 51.7374 -3.3792 0.244065 0
M  V30 498 C 50.2964 -3.76171 -0.131335 0
M  V30 499 C 49.4434 -2.71027 0.586465 0
M  V30 500 H 52.3944 -1.38342 0.777645 0
M  V30 501 H 52.4154 -3.76729 -0.534351 0
M  V30 502 H 51.9274 -3.66128 1.28731 0
M  V30 503 H 50.0284 -3.5358 -1.17526 0
M  V30 504 H 50.1414 -4.78523 0.235146 0
M  V30 505 H 48.5054 -2.54684 0.0282722 0
M  V30 506 H 49.2884 -3.02077 1.63109 0
M  V30 507 N 51.7335 -0.305618 -1.54608 0
M  V30 508 C 52.6835 0.583595 -2.20405 0
M  V30 509 C 53.6675 1.09539 -1.17856 0
M  V30 510 O 54.8595 1.0354 -1.43557 0
M  V30 511 C 51.9885 1.75277 -2.95183 0
M  V30 512 C 51.0745 1.25672 -4.05052 0
M  V30 513 N 51.4655 0.478998 -5.03527 0
M  V30 514 C 49.7635 1.53704 -4.18678 0
M  V30 515 C 50.4645 0.214269 -5.81305 0
M  V30 516 N 49.4405 0.795374 -5.3775 0
M  V30 517 H 53.2425 -0.0180946 -2.93894 0
M  V30 518 H 50.7565 -0.110601 -1.62023 0
M  V30 519 H 52.7535 2.4014 -3.40791 0
M  V30 520 H 51.4135 2.35812 -2.23211 0
M  V30 521 H 52.4245 0.123473 -5.17753 0
M  V30 522 H 49.1015 2.14954 -3.57912 0
M  V30 523 H 50.4915 -0.410656 -6.70644 0
M  V30 524 N 53.2116 1.57565 -0.0334293 0
M  V30 525 C 54.4396 1.9628 0.654347 0
M  V30 526 C 54.8546 0.910138 1.65414 0
M  V30 527 O 54.2116 -0.107595 1.82183 0
M  V30 528 C 54.2626 3.35067 1.35693 0
M  V30 529 O 53.9836 4.36296 0.397191 0
M  V30 530 C 55.4846 3.88439 2.13613 0
M  V30 531 H 52.7046 0.646369 0.180132 0
M  V30 532 H 55.2486 2.04282 -0.0944721 0
M  V30 533 H 53.4036 3.2827 2.05712 0
M  V30 534 H 53.8176 5.1678 0.896597 0
M  V30 535 H 55.2916 4.8788 2.58219 0
M  V30 536 H 55.7686 3.22914 2.97696 0
M  V30 537 H 56.3746 3.98516 1.48543 0
M  V30 538 N 54.6897 -0.239769 1.55765 0
M  V30 539 C 55.6367 -1.29696 1.90913 0
M  V30 540 C 56.6067 -1.47478 0.764164 0
M  V30 541 O 57.7917 -1.61345 1.01845 0
M  V30 542 C 54.9317 -2.64598 2.21544 0
M  V30 543 C 54.0447 -2.54765 3.48882 0
M  V30 544 C 53.1797 -3.82069 3.69049 0
M  V30 545 C 52.2187 -3.66883 4.89963 0
M  V30 546 N 51.3557 -4.86094 5.06614 0
M  V30 547 H 56.1957 -0.990224 2.81067 0
M  V30 548 H 53.7327 -0.477684 1.39128 0
M  V30 549 H 55.6907 -3.43132 2.3731 0
M  V30 550 H 54.3207 -2.93405 1.34585 0
M  V30 551 H 53.3727 -1.67763 3.41409 0
M  V30 552 H 54.6847 -2.39457 4.37563 0
M  V30 553 H 53.8387 -4.69046 3.84812 0
M  V30 554 H 52.5777 -4.00282 2.78614 0
M  V30 555 H 51.5827 -2.78289 4.74168 0
M  V30 556 H 52.8077 -3.50157 5.81865 0
M  V30 557 H 50.7537 -5.04655 4.19117 0
M  V30 558 H 50.6707 -4.73443 5.89396 0
M  V30 559 H 51.9387 -5.74549 5.26795 0
M  V30 560 N 56.1678 -1.49265 -0.50573 0
M  V30 561 C 57.1178 -1.6198 -1.60457 0
M  V30 562 C 58.1018 -0.47568 -1.53708 0
M  V30 563 O 59.2938 -0.728392 -1.61318 0
M  V30 564 C 56.4228 -1.68526 -2.99089 0
M  V30 565 C 55.5088 -2.885 -3.10852 0
M  V30 566 N 55.8998 -4.12635 -2.92517 0
M  V30 567 C 54.1978 -2.86338 -3.41945 0
M  V30 568 C 54.8988 -4.93258 -3.08337 0
M  V30 569 N 53.8748 -4.26533 -3.37003 0
M  V30 570 H 57.6768 -2.55681 -1.44928 0
M  V30 571 H 55.1908 -1.45972 -0.711752 0
M  V30 572 H 57.1878 -1.75732 -3.78053 0
M  V30 573 H 55.8478 -0.759584 -3.1569 0
M  V30 574 H 56.8588 -4.42689 -2.68787 0
M  V30 575 H 53.5358 -2.03129 -3.64753 0
M  V30 576 H 54.9258 -6.01856 -2.98695 0
M  V30 577 N 57.6459 0.756429 -1.3826 0
M  V30 578 C 58.6089 1.85176 -1.35065 0
M  V30 579 C 59.6089 1.58818 -0.251703 0
M  V30 580 O 60.7989 1.66615 -0.508433 0
M  V30 581 C 57.9309 3.22596 -1.10201 0
M  V30 582 H 59.1239 1.89417 -2.3251 0
M  V30 583 H 56.6769 0.95783 -1.23512 0
M  V30 584 H 57.4119 3.24025 -0.133504 0
M  V30 585 H 57.1969 3.43122 -1.89762 0
M  V30 586 H 58.6869 4.02673 -1.10654 0
M  V30 587 N 59.124 1.23083 0.984299 0
M  V30 588 C 60.352 1.08714 1.76037 0
M  V30 589 C 60.767 -0.361691 1.85303 0
M  V30 590 O 60.124 -1.25034 1.32939 0
M  V30 591 C 60.175 1.70206 3.18923 0
M  V30 592 O 59.896 3.09423 3.10144 0
M  V30 593 C 61.397 1.61227 4.12941 0
M  V30 594 H 58.617 0.380664 0.552572 0
M  V30 595 H 61.161 1.62853 1.23689 0
M  V30 596 H 59.316 1.20109 3.6831 0
M  V30 597 H 59.73 3.39188 4.00065 0
M  V30 598 H 61.204 2.08962 5.10919 0
M  V30 599 H 61.681 0.570375 4.35481 0
M  V30 600 H 62.287 2.10671 3.69456 0
M  V30 601 N 60.6021 -1.18246 1.0419 0
M  V30 602 C 61.8481 -1.88536 0.747122 0
M  V30 603 C 62.1811 -1.80223 -0.723409 0
M  V30 604 O 61.4561 -1.20337 -1.52804 0
M  V30 605 C 61.7391 -3.38968 1.21544 0
M  V30 606 C 61.5921 -3.56084 2.74816 0
M  V30 607 C 62.9111 -4.32648 0.806482 0
M  V30 608 H 60.0301 -0.684619 0.272883 0
M  V30 609 H 62.6721 -1.39113 1.29413 0
M  V30 610 H 60.8221 -3.8119 0.750081 0
M  V30 611 H 62.4941 -3.22946 3.29399 0
M  V30 612 H 60.7371 -2.98699 3.14582 0
M  V30 613 H 61.4081 -4.61639 3.02644 0
M  V30 614 H 63.8841 -3.98211 1.20695 0
M  V30 615 H 62.7601 -5.36462 1.1619 0
M  V30 616 H 63.0211 -4.41146 -0.29029 0
M  V30 617 N 62.0802 -0.821533 -1.34494 0
M  V30 618 C 62.9902 -0.244355 -2.33324 0
M  V30 619 C 64.0062 0.620527 -1.62559 0
M  V30 620 O 65.1822 0.528754 -1.94335 0
M  V30 621 C 62.2472 0.585368 -3.41723 0
M  V30 622 C 61.3082 -0.301752 -4.28238 0
M  V30 623 C 60.5412 0.488466 -5.3146 0
M  V30 624 O 60.7642 1.72186 -5.4379 0
M  V30 625 O 59.6982 -0.12848 -6.01763 0
M  V30 626 H 63.5242 -1.06231 -2.84515 0
M  V30 627 H 61.1092 -0.583645 -1.37528 0
M  V30 628 H 62.9912 1.05747 -4.07916 0
M  V30 629 H 61.6662 1.38068 -2.92778 0
M  V30 630 H 60.5732 -0.821315 -3.64973 0
M  V30 631 H 61.9062 -1.06138 -4.8062 0
M  V30 632 N 63.5583 1.46682 -0.576371 0
M  V30 633 C 64.7983 2.04306 -0.0621356 0
M  V30 634 C 65.1623 1.4389 1.2712 0
M  V30 635 O 66.3633 1.92675 1.87429 0
M  V30 636 C 64.6343 3.57399 0.00927922 0
M  V30 637 S 66.1933 4.36309 0.466859 0
M  V30 638 H 63.0113 0.710167 -0.0344016 0
M  V30 639 H 65.6133 1.79807 -0.767437 0
M  V30 640 H 64.3173 3.98889 -0.965178 0
M  V30 641 H 63.8483 3.86424 0.737547 0
M  V30 642 H 65.8633 4.6533 1.72287 0
M  V30 643 N 65.0364 0.313813 1.54444 0
M  V30 644 C 66.2824 -0.292108 2.00685 0
M  V30 645 C 66.6154 -1.52548 1.20177 0
M  V30 646 O 65.8904 -1.92452 0.281531 0
M  V30 647 C 66.1734 -0.635968 3.5444 0
M  V30 648 C 66.0264 0.607437 4.4568 0
M  V30 649 C 67.3454 -1.45747 4.15266 0
M  V30 650 H 64.4644 -0.104697 0.729526 0
M  V30 651 H 67.1064 0.428457 1.85106 0
M  V30 652 H 65.2564 -1.24986 3.67846 0
M  V30 653 H 66.9284 1.24581 4.44159 0
M  V30 654 H 65.1714 1.23822 4.15753 0
M  V30 655 H 65.8424 0.322515 5.51057 0
M  V30 656 H 68.3184 -0.938645 4.05375 0
M  V30 657 H 67.1944 -1.66683 5.2298 0
M  V30 658 H 67.4554 -2.45063 3.67963 0
M  V30 659 N 66.5145 -1.57545 0.0417849 0
M  V30 660 C 67.4465 -2.07904 -0.964799 0
M  V30 661 C 68.4595 -1.00497 -1.28079 0
M  V30 662 O 69.6485 -1.28087 -1.24322 0
M  V30 663 C 66.7485 -2.49928 -2.28887 0
M  V30 664 C 65.9215 -3.80562 -2.15619 0
M  V30 665 C 64.9805 -4.08999 -3.31069 0
M  V30 666 O 64.0065 -4.79061 -3.0739 0
M  V30 667 N 65.2085 -3.6017 -4.55256 0
M  V30 668 H 67.9735 -2.94886 -0.535029 0
M  V30 669 H 65.5345 -1.61252 -0.144681 0
M  V30 670 H 67.5265 -2.66034 -3.04972 0
M  V30 671 H 66.0965 -1.68245 -2.63463 0
M  V30 672 H 65.3165 -3.74129 -1.24183 0
M  V30 673 H 66.6045 -4.66126 -2.03971 0
M  V30 674 H 66.0025 -3.03512 -4.77386 0
M  V30 675 H 64.5595 -3.81532 -5.28466 0
M  V30 676 N 67.9926 0.231505 -1.5589 0
M  V30 677 C 69.2326 0.964533 -1.80211 0
M  V30 678 C 69.5966 1.81926 -0.613744 0
M  V30 679 O 70.7976 2.58526 -0.736045 0
M  V30 680 C 69.0686 1.78956 -3.09369 0
M  V30 681 S 70.6276 2.57959 -3.54969 0
M  V30 682 H 67.4456 0.324173 -0.632798 0
M  V30 683 H 70.0476 0.230985 -1.94131 0
M  V30 684 H 68.7516 1.15161 -3.93911 0
M  V30 685 H 68.2826 2.56559 -2.9823 0
M  V30 686 H 70.2976 3.81309 -3.17519 0
M  V30 687 N 69.4707 1.49531 0.497807 0
M  V30 688 C 70.4207 1.62829 1.59596 0
M  V30 689 C 71.4047 0.483824 1.53453 0
M  V30 690 O 72.5967 0.736937 1.60929 0
M  V30 691 C 69.7257 1.7011 2.98191 0
M  V30 692 C 68.8117 2.90144 3.09317 0
M  V30 693 N 69.2027 4.1418 2.90324 0
M  V30 694 C 67.5007 2.88148 3.40422 0
M  V30 695 C 68.2017 4.94886 3.05717 0
M  V30 696 N 67.1777 4.28314 3.34736 0
M  V30 697 H 70.9797 2.56446 1.4357 0
M  V30 698 H 68.4937 1.46347 0.704001 0
M  V30 699 H 70.4907 1.77735 3.77115 0
M  V30 700 H 69.1507 0.776315 3.15283 0
M  V30 701 H 70.1617 4.44109 2.66436 0
M  V30 702 H 66.8387 2.05061 3.63671 0
M  V30 703 H 68.2287 6.03432 2.95499 0
M  V30 704 N 70.9488 -0.749086 1.3866 0
M  V30 705 C 71.8988 -1.85368 1.32751 0
M  V30 706 C 72.8828 -1.59511 0.210945 0
M  V30 707 O 74.0748 -1.71255 0.447299 0
M  V30 708 C 71.2038 -3.23131 1.15935 0
M  V30 709 C 70.2898 -3.54864 2.32233 0
M  V30 710 N 70.6808 -3.57625 3.57684 0
M  V30 711 C 68.9788 -3.85154 2.24883 0
M  V30 712 C 69.6798 -3.86753 4.34508 0
M  V30 713 N 68.6558 -4.03812 3.63918 0
M  V30 714 H 72.4578 -1.85787 2.27729 0
M  V30 715 H 69.9718 -0.946658 1.31955 0
M  V30 716 H 71.9688 -4.02185 1.09786 0
M  V30 717 H 70.6288 -3.23961 0.218947 0
M  V30 718 H 71.6398 -3.39276 3.91295 0
M  V30 719 H 68.3168 -3.93672 1.39027 0
M  V30 720 H 69.7068 -3.95474 5.43185 0
M  V30 721 N 72.4269 -1.23603 -0.977757 0
M  V30 722 C 73.6549 -1.09646 -1.75458 0
M  V30 723 C 74.0699 0.351859 -1.85492 0
M  V30 724 O 73.4269 1.24327 -1.336 0
M  V30 725 C 73.4779 -1.71895 -3.18016 0
M  V30 726 O 73.1989 -3.11063 -3.08498 0
M  V30 727 C 74.6999 -1.63415 -4.12081 0
M  V30 728 H 71.9199 -0.38359 -0.550545 0
M  V30 729 H 74.4639 -1.63507 -1.22824 0
M  V30 730 H 72.6189 -1.22061 -3.67668 0
M  V30 731 H 73.0329 -3.41305 -3.9826 0
M  V30 732 H 74.5069 -2.11669 -5.09804 0
M  V30 733 H 74.9839 -0.593462 -4.35172 0
M  V30 734 H 75.5899 -2.12628 -3.68334 0
M  V30 735 N 73.905 1.17692 -1.04816 0
M  V30 736 C 74.835 2.23777 -0.666791 0
M  V30 737 C 75.816 1.66796 0.33361 0
M  V30 738 O 77.001 1.93039 0.212042 0
M  V30 739 C 74.131 3.47281 -0.0367933 0
M  V30 740 C 73.085 4.17059 -0.961546 0
M  V30 741 C 72.411 5.34342 -0.195626 0
M  V30 742 C 73.711 4.69713 -2.28402 0
M  V30 743 H 75.405 2.55933 -1.55367 0
M  V30 744 H 72.951 1.23019 -0.748484 0
M  V30 745 H 74.904 4.20706 0.241775 0
M  V30 746 H 73.628 3.14381 0.885004 0
M  V30 747 H 72.287 3.45541 -1.22462 0
M  V30 748 H 71.935 4.97692 0.728816 0
M  V30 749 H 71.635 5.81966 -0.811775 0
M  V30 750 H 73.159 6.10553 0.0757473 0
M  V30 751 H 74.573 5.34794 -2.06563 0
M  V30 752 H 72.97 5.279 -2.8538 0
M  V30 753 H 74.04 3.86726 -2.92525 0
M  V30 754 N 75.3831 0.828654 1.34056 0
M  V30 755 C 76.2931 0.256725 2.33191 0
M  V30 756 C 77.3091 -0.611898 1.62886 0
M  V30 757 O 78.4851 -0.51844 1.94613 0
M  V30 758 C 75.5501 -0.567238 3.42028 0
M  V30 759 C 74.6111 0.324458 4.28072 0
M  V30 760 C 73.8441 -0.460274 5.31712 0
M  V30 761 O 74.0671 -1.693 5.44696 0
M  V30 762 O 73.0011 0.160391 6.01686 0
M  V30 763 H 76.8271 1.07739 2.83947 0
M  V30 764 H 74.4121 0.59093 1.37217 0
M  V30 765 H 76.2941 -1.03582 4.08471 0
M  V30 766 H 74.9691 -1.36513 2.93506 0
M  V30 767 H 73.8761 0.840659 3.64532 0
M  V30 768 H 75.2091 1.08685 4.8005 0
M  V30 769 N 76.8612 -1.46375 0.584142 0
M  V30 770 C 77.8242 -2.28784 -0.138108 0
M  V30 771 C 78.8242 -1.38471 -0.817462 0
M  V30 772 O 80.0142 -1.60833 -0.669199 0
M  V30 773 C 77.1462 -3.18892 -1.20503 0
M  V30 774 H 78.3392 -2.94117 0.586127 0
M  V30 775 H 75.8922 -1.52509 0.342171 0
M  V30 776 H 76.6272 -2.58309 -1.96079 0
M  V30 777 H 76.4122 -3.85388 -0.722384 0
M  V30 778 H 77.9022 -3.80914 -1.71155 0
M  V30 779 N 78.3393 -0.321999 -1.54275 0
M  V30 780 C 79.6163 0.335232 -1.92706 0
M  V30 781 C 79.9963 1.70006 -1.25145 0
M  V30 782 O 79.3443 2.25067 -0.394596 0
M  V30 783 C 79.5543 0.429008 -3.46353 0
M  V30 784 C 80.9023 0.690029 -4.18956 0
M  V30 785 O 81.9263 0.511992 -3.52501 0
M  V30 786 O 80.7853 1.03338 -5.36641 0
M  V30 787 H 77.8793 0.191143 -0.804608 0
M  V30 788 H 80.4253 -0.3716 -1.65581 0
M  V30 789 H 79.1973 -0.529611 -3.87699 0
M  V30 790 H 78.8203 1.18348 -3.79578 0
M  V30 791 N 79.8174 1.5752 -0.0501392 0
M  V30 792 C 81.0654 1.9227 0.622642 0
M  V30 793 C 81.3864 0.929083 1.71444 0
M  V30 794 O 80.6564 -0.0262186 1.95882 0
M  V30 795 H 79.2364 0.709739 0.232981 0
M  V30 796 H 81.8984 1.94628 -0.102898 0
M  V30 797 H 80.9944 2.93479 1.06191 0
M  V30 798 N 81.2955 -0.223234 1.56011 0
M  V30 799 C 82.5435 -0.946003 1.78592 0
M  V30 800 C 82.8645 -1.84936 0.618349 0
M  V30 801 O 82.1345 -1.92473 -0.364833 0
M  V30 802 H 80.7145 -0.352298 0.658707 0
M  V30 803 H 83.3765 -0.235494 1.93472 0
M  V30 804 H 82.4725 -1.55381 2.70672 0
M  V30 805 N 82.7736 -1.49793 -0.48987 0
M  V30 806 C 83.7366 -1.66752 -1.57246 0
M  V30 807 C 84.7366 -0.538867 -1.51502 0
M  V30 808 O 85.9266 -0.805545 -1.54456 0
M  V30 809 C 83.0586 -1.67528 -2.96896 0
M  V30 810 H 84.2516 -2.63321 -1.43534 0
M  V30 811 H 81.8046 -1.38992 -0.714914 0
M  V30 812 H 82.5396 -0.725837 -3.16073 0
M  V30 813 H 82.3246 -2.49504 -3.02473 0
M  V30 814 H 83.8146 -1.82667 -3.7553 0
M  V30 815 N 84.2517 0.741722 -1.39055 0
M  V30 816 C 85.4977 1.50336 -1.36113 0
M  V30 817 C 85.8307 1.94148 0.0450796 0
M  V30 818 O 85.1057 1.66301 1.00868 0
M  V30 819 C 85.3887 2.74773 -2.32749 0
M  V30 820 C 85.2417 2.37023 -3.82283 0
M  V30 821 C 86.5607 3.76846 -2.27322 0
M  V30 822 H 83.6797 0.545351 -0.495743 0
M  V30 823 H 86.3217 0.848624 -1.69995 0
M  V30 824 H 84.4717 3.30639 -2.03986 0
M  V30 825 H 86.1437 1.8684 -4.21768 0
M  V30 826 H 84.3867 1.69334 -3.99385 0
M  V30 827 H 85.0577 3.26104 -4.45376 0
M  V30 828 H 87.5337 3.30548 -2.5274 0
M  V30 829 H 86.4097 4.6159 -2.97028 0
M  V30 830 H 86.6707 4.23286 -1.27599 0
M  V30 831 N 85.7298 1.2412 0.971189 0
M  V30 832 C 86.6768 1.0305 2.06517 0
M  V30 833 C 87.6468 -0.0550666 1.66009 0
M  V30 834 O 88.8318 0.0988688 1.90544 0
M  V30 835 C 85.9718 0.637653 3.39158 0
M  V30 836 C 85.0848 1.79633 3.92882 0
M  V30 837 C 84.2198 1.34939 5.13775 0
M  V30 838 C 83.2588 2.47823 5.59687 0
M  V30 839 N 82.3958 2.04022 6.71803 0
M  V30 840 H 87.2358 1.96685 2.23873 0
M  V30 841 H 84.7728 0.979694 1.09729 0
M  V30 842 H 86.7308 0.390931 4.15364 0
M  V30 843 H 85.3608 -0.261693 3.21737 0
M  V30 844 H 84.4128 2.15681 3.13346 0
M  V30 845 H 85.7248 2.64466 4.22918 0
M  V30 846 H 84.8788 1.06134 5.97345 0
M  V30 847 H 83.6178 0.471557 4.85415 0
M  V30 848 H 82.6228 2.77392 4.74693 0
M  V30 849 H 83.8478 3.36158 5.90063 0
M  V30 850 H 81.7938 1.18632 6.45184 0
M  V30 851 H 81.7108 2.82409 7.01271 0
M  V30 852 H 82.9788 1.78347 7.58823 0
M  V30 853 N 87.2079 -1.17134 1.05439 0
M  V30 854 C 88.1549 -2.21235 0.657539 0
M  V30 855 C 89.1249 -1.62551 -0.341543 0
M  V30 856 O 90.3099 -1.89379 -0.232393 0
M  V30 857 C 87.4499 -3.45076 0.0410575 0
M  V30 858 C 86.5629 -4.18042 1.08927 0
M  V30 859 C 85.6979 -5.29376 0.439848 0
M  V30 860 C 84.7369 -5.94132 1.4722 0
M  V30 861 N 83.8739 -6.96975 0.846756 0
M  V30 862 H 88.7139 -2.54534 1.54972 0
M  V30 863 H 86.2509 -1.25028 0.775006 0
M  V30 864 H 88.2089 -4.15862 -0.33383 0
M  V30 865 H 86.8389 -3.12353 -0.814568 0
M  V30 866 H 85.8909 -3.45945 1.58196 0
M  V30 867 H 87.2029 -4.62306 1.87282 0
M  V30 868 H 86.3569 -6.06699 0.0115125 0
M  V30 869 H 85.0959 -4.86251 -0.375656 0
M  V30 870 H 84.1009 -5.15538 1.91052 0
M  V30 871 H 85.3259 -6.39337 2.28965 0
M  V30 872 H 83.2719 -6.5598 0.0518075 0
M  V30 873 H 83.1889 -7.39565 1.5678 0
M  V30 874 H 84.4569 -7.78239 0.443277 0
M  V30 875 N 88.686 -0.835752 -1.33615 0
M  V30 876 C 89.926 -0.43599 -1.99696 0
M  V30 877 C 90.29 0.98557 -1.64774 0
M  V30 878 O 91.491 1.48889 -2.23798 0
M  V30 879 C 89.762 -0.646721 -3.515 0
M  V30 880 S 91.321 -0.341715 -4.37467 0
M  V30 881 H 88.139 -0.164136 -0.691795 0
M  V30 882 H 90.741 -1.08436 -1.62671 0
M  V30 883 H 89.445 -1.68077 -3.74404 0
M  V30 884 H 88.976 0.0159173 -3.93397 0
M  V30 885 H 90.991 0.839708 -4.89043 0
M  V30 886 N 90.1641 1.46063 -0.591896 0
M  V30 887 C 91.3921 2.06717 -0.0868936 0
M  V30 888 C 91.8071 1.43916 1.22203 0
M  V30 889 O 91.1641 0.547698 1.74088 0
M  V30 890 C 91.2151 3.6142 0.0758725 0
M  V30 891 O 90.9361 4.21874 -1.18126 0
M  V30 892 C 92.4371 4.39025 0.61416 0
M  V30 893 H 89.6571 0.668162 -0.0616518 0
M  V30 894 H 92.2011 1.8755 -0.815175 0
M  V30 895 H 90.3561 3.79983 0.754413 0
M  V30 896 H 90.7701 5.14861 -1.00092 0
M  V30 897 H 92.2441 5.4783 0.677193 0
M  V30 898 H 92.7211 4.07708 1.63312 0
M  V30 899 H 93.3271 4.2529 -0.0298142 0
M  V30 900 N 91.6422 0.330177 1.54103 0
M  V30 901 C 92.8702 -0.272179 2.05102 0
M  V30 902 C 93.2852 -1.45267 1.20595 0
M  V30 903 O 92.6422 -1.8094 0.238144 0
M  V30 904 C 92.6932 -0.70023 3.54653 0
M  V30 905 O 92.4142 0.433301 4.35952 0
M  V30 906 C 93.9152 -1.3647 4.21771 0
M  V30 907 H 91.1352 -0.0549159 0.668749 0
M  V30 908 H 93.6792 0.478285 1.98828 0
M  V30 909 H 91.8342 -1.40066 3.61193 0
M  V30 910 H 92.2482 0.0947539 5.24414 0
M  V30 911 H 93.7222 -1.61509 5.27843 0
M  V30 912 H 94.1992 -2.31409 3.73292 0
M  V30 913 H 94.8052 -0.706675 4.19388 0
M  V30 914 N 93.1203 -1.57491 0.0584922 0
M  V30 915 C 94.3453 -1.97711 -0.62652 0
M  V30 916 C 94.7703 -0.936132 -1.63151 0
M  V30 917 O 94.1283 0.099811 -1.81025 0
M  V30 918 C 94.1763 -3.36989 -1.28338 0
M  V30 919 O 93.2803 -3.35433 -2.39913 0
M  V30 920 H 92.6213 -0.643868 -0.162266 0
M  V30 921 H 95.1513 -2.04193 0.129064 0
M  V30 922 H 95.1613 -3.73879 -1.63335 0
M  V30 923 H 93.8363 -4.12289 -0.546889 0
M  V30 924 H 92.4133 -3.10298 -2.06809 0
M  V30 925 N 94.5984 0.214957 -1.56127 0
M  V30 926 C 95.8464 0.936518 -1.79091 0
M  V30 927 C 96.1674 1.84606 -0.628148 0
M  V30 928 O 95.4374 1.92664 0.35462 0
M  V30 929 H 94.0174 0.3488 -0.660566 0
M  V30 930 H 96.6794 0.22523 -1.93594 0
M  V30 931 H 95.7754 1.53943 -2.71492 0
M  V30 932 N 96.0765 1.50051 0.48192 0
M  V30 933 C 97.3165 1.62128 1.24474 0
M  V30 934 C 97.6805 0.309742 1.89485 0
M  V30 935 O 98.8815 0.305854 2.67054 0
M  V30 936 C 97.1525 2.76151 2.26882 0
M  V30 937 S 98.7115 3.08297 3.12247 0
M  V30 938 H 95.5295 0.571661 0.422759 0
M  V30 939 H 98.1315 1.87791 0.54359 0
M  V30 940 H 96.8355 3.69942 1.77683 0
M  V30 941 H 96.3665 2.52541 3.0164 0
M  V30 942 H 98.3815 2.51287 4.27866 0
M  V30 943 N 97.5546 -0.734337 1.39446 0
M  V30 944 C 98.5046 -1.83949 1.34709 0
M  V30 945 C 99.4886 -1.59279 0.227851 0
M  V30 946 O 100.681 -1.70771 0.465438 0
M  V30 947 C 97.8096 -3.21884 1.19356 0
M  V30 948 C 96.8956 -3.52381 2.35984 0
M  V30 949 N 97.2866 -3.53811 3.61457 0
M  V30 950 C 95.5846 -3.82747 2.28956 0
M  V30 951 C 96.2856 -3.82122 4.38586 0
M  V30 952 N 95.2616 -3.9993 3.68181 0
M  V30 953 H 99.0636 -1.83361 2.29687 0
M  V30 954 H 96.5776 -0.932609 1.32952 0
M  V30 955 H 98.5746 -4.00998 1.14046 0
M  V30 956 H 97.2346 -3.23711 0.253295 0
M  V30 957 H 98.2456 -3.35107 3.94872 0
M  V30 958 H 94.9226 -3.92175 1.43194 0
M  V30 959 H 96.3126 -3.89691 5.47349 0
M  V30 960 N 99.0327 -1.24633 -0.964593 0
M  V30 961 C 100.31 -0.995809 -1.68354 0
M  V30 962 C 100.69 0.480964 -2.05548 0
M  V30 963 O 100.038 1.45599 -1.76105 0
M  V30 964 C 100.248 -1.92177 -2.91323 0
M  V30 965 C 101.596 -2.19446 -3.63495 0
M  V30 966 O 102.62 -1.89855 -3.01386 0
M  V30 967 O 101.479 -2.69714 -4.75307 0
M  V30 968 H 98.5727 -0.376854 -0.736146 0
M  V30 969 H 101.119 -1.35745 -1.0184 0
M  V30 970 H 99.8907 -2.91938 -2.60553 0
M  V30 971 H 99.5137 -1.56349 -3.65569 0
M  V30 972 N 100.511 1.16574 -1.06058 0
M  V30 973 C 101.736 1.91493 -0.796562 0
M  V30 974 C 102.161 1.76773 0.642868 0
M  V30 975 O 101.519 1.09142 1.44768 0
M  V30 976 C 101.567 3.40293 -1.19303 0
M  V30 977 O 100.671 4.11074 -0.330394 0
M  V30 978 H 100.012 0.596678 -0.291326 0
M  V30 979 H 102.542 1.47708 -1.41575 0
M  V30 980 H 102.552 3.91057 -1.16356 0
M  V30 981 H 101.227 3.50326 -2.24153 0
M  V30 982 H 99.8038 3.70513 -0.421225 0
M  V30 983 N 101.989 0.842826 1.3317 0
M  V30 984 C 102.919 0.294028 2.31641 0
M  V30 985 C 103.9 -0.600401 1.59151 0
M  V30 986 O 105.085 -0.523124 1.87022 0
M  V30 987 C 102.215 -0.528416 3.43257 0
M  V30 988 C 101.169 0.27056 4.27144 0
M  V30 989 C 100.495 -0.675881 5.30411 0
M  V30 990 C 101.795 1.48981 5.00602 0
M  V30 991 H 103.489 1.11681 2.77791 0
M  V30 992 H 101.035 0.538478 1.33553 0
M  V30 993 H 102.988 -0.922674 4.11175 0
M  V30 994 H 101.712 -1.38445 2.95805 0
M  V30 995 H 100.371 0.646427 3.60856 0
M  V30 996 H 100.019 -1.52842 4.79216 0
M  V30 997 H 99.7189 -0.145374 5.8742 0
M  V30 998 H 101.243 -1.06757 6.01195 0
M  V30 999 H 102.657 1.16849 5.61266 0
M  V30 1000 H 101.054 1.95739 5.6728 0
M  V30 1001 H 102.124 2.25746 4.29147 0
M  V30 1002 N 103.467 -1.45747 0.599634 0
M  V30 1003 C 104.377 -2.34262 -0.125888 0
M  V30 1004 C 105.393 -1.50768 -0.868625 0
M  V30 1005 O 106.569 -1.83592 -0.828003 0
M  V30 1006 C 103.634 -3.28252 -1.11587 0
M  V30 1007 C 102.695 -4.27651 -0.375956 0
M  V30 1008 C 101.928 -5.1715 -1.31877 0
M  V30 1009 O 102.151 -5.09916 -2.55621 0
M  V30 1010 O 101.085 -5.96286 -0.820157 0
M  V30 1011 H 104.911 -2.97688 0.601315 0
M  V30 1012 H 102.496 -1.44999 0.359934 0
M  V30 1013 H 104.378 -3.86191 -1.68626 0
M  V30 1014 H 103.053 -2.67401 -1.82424 0
M  V30 1015 H 101.96 -3.7335 0.236698 0
M  V30 1016 H 103.293 -4.91334 0.29177 0
M  V30 1017 N 104.945 -0.338344 -1.53925 0
M  V30 1018 C 106.192 0.259758 -2.00827 0
M  V30 1019 C 106.52 1.50973 -1.22628 0
M  V30 1020 O 105.775 1.93379 -0.300509 0
M  V30 1021 C 106.074 0.62448 -3.51902 0
M  V30 1022 C 105.74 -0.528006 -4.47798 0
M  V30 1023 C 104.402 -0.844298 -4.73735 0
M  V30 1024 C 106.754 -1.30143 -5.0469 0
M  V30 1025 C 104.082 -1.93648 -5.53821 0
M  V30 1026 C 106.434 -2.38382 -5.85967 0
M  V30 1027 C 105.098 -2.70576 -6.10201 0
M  V30 1028 H 104.368 0.0950523 -0.734878 0
M  V30 1029 H 107.015 -0.465182 -1.85764 0
M  V30 1030 H 105.32 1.43006 -3.64769 0
M  V30 1031 H 107.017 1.09905 -3.85645 0
M  V30 1032 H 103.607 -0.271421 -4.2774 0
M  V30 1033 H 107.791 -1.07033 -4.84621 0
M  V30 1034 H 103.047 -2.19021 -5.70824 0
M  V30 1035 H 107.221 -2.98746 -6.29066 0
M  V30 1036 H 104.848 -3.55333 -6.72044 0
M  V30 1037 N 106.423 1.57458 -0.0668435 0
M  V30 1038 C 107.839 1.56947 0.289772 0
M  V30 1039 C 108.039 1.07584 1.70376 0
M  V30 1040 O 107.095 0.739486 2.41429 0
M  V30 1041 C 108.408 3.0052 0.103943 0
M  V30 1042 C 109.956 3.12517 0.173857 0
M  V30 1043 C 110.431 4.57997 0.0163682 0
M  V30 1044 N 111.922 4.63144 0.0721352 0
M  V30 1045 C 112.657 5.73394 -0.0253794 0
M  V30 1046 N 112.153 6.92576 -0.176133 0
M  V30 1047 N 113.946 5.62091 0.0313305 0
M  V30 1048 H 106.097 1.87863 -0.991027 0
M  V30 1049 H 108.36 0.86583 -0.38606 0
M  V30 1050 H 108.066 3.40729 -0.871572 0
M  V30 1051 H 107.94 3.67304 0.858366 0
M  V30 1052 H 110.327 2.72197 1.13985 0
M  V30 1053 H 110.408 2.48381 -0.611586 0
M  V30 1054 H 110.052 4.99005 -0.946374 0
M  V30 1055 H 109.982 5.20158 0.821153 0
M  V30 1056 H 112.473 3.77436 0.187263 0
M  V30 1057 H 112.786 7.72418 -0.242821 0
M  V30 1058 H 111.131 6.94678 -0.211429 0
M  V30 1059 H 114.322 4.67867 0.147773 0
M  V30 1060 H 114.495 6.47982 -0.048121 0
M  V30 1061 N 107.901 -0.206675 1.56239 0
M  V30 1062 C 109.178 -0.954051 1.70755 0
M  V30 1063 C 109.558 -2.01841 0.618353 0
M  V30 1064 O 108.906 -2.25444 -0.372434 0
M  V30 1065 C 109.116 -1.551 3.12642 0
M  V30 1066 C 110.464 -2.03757 3.72516 0
M  V30 1067 O 111.488 -1.64965 3.15698 0
M  V30 1068 O 110.347 -2.75103 4.72208 0
M  V30 1069 H 107.441 -0.446636 0.696021 0
M  V30 1070 H 109.987 -0.197283 1.68549 0
M  V30 1071 H 108.759 -0.783212 3.83382 0
M  V30 1072 H 108.382 -2.37291 3.19028 0
M  V30 1073 N 109.379 -1.50304 -0.473955 0
M  V30 1074 C 110.326 -1.68959 -1.57231 0
M  V30 1075 C 111.296 -0.530899 -1.57387 0
M  V30 1076 O 112.481 -0.761133 -1.74961 0
M  V30 1077 C 109.621 -1.7871 -2.95223 0
M  V30 1078 C 108.734 -3.06061 -3.04878 0
M  V30 1079 C 107.869 -3.06626 -4.33767 0
M  V30 1080 C 106.908 -4.28443 -4.37154 0
M  V30 1081 N 106.045 -4.26763 -5.5751 0
M  V30 1082 H 110.885 -2.6273 -1.40631 0
M  V30 1083 H 108.422 -1.30241 -0.683789 0
M  V30 1084 H 110.38 -1.82344 -3.75242 0
M  V30 1085 H 109.01 -0.883806 -3.10465 0
M  V30 1086 H 108.062 -3.11911 -2.17751 0
M  V30 1087 H 109.374 -3.96039 -3.0324 0
M  V30 1088 H 108.528 -3.08973 -5.22131 0
M  V30 1089 H 107.267 -2.14473 -4.3801 0
M  V30 1090 H 106.272 -4.2631 -3.47188 0
M  V30 1091 H 107.497 -5.2182 -4.34605 0
M  V30 1092 H 105.443 -3.37462 -5.62544 0
M  V30 1093 H 105.36 -5.10507 -5.57601 0
M  V30 1094 H 106.628 -4.33253 -6.48006 0
M  V30 1095 N 110.857 0.726932 -1.39834 0
M  V30 1096 C 111.82 1.82269 -1.38962 0
M  V30 1097 C 112.82 1.58248 -0.285334 0
M  V30 1098 O 114.01 1.65499 -0.54366 0
M  V30 1099 C 111.142 3.20186 -1.17019 0
M  V30 1100 H 112.335 1.84443 -2.36476 0
M  V30 1101 H 109.888 0.931416 -1.25516 0
M  V30 1102 H 110.623 3.23669 -0.202204 0
M  V30 1103 H 110.408 3.3902 -1.96998 0
M  V30 1104 H 111.898 4.00235 -1.1917 0
M  V30 1105 N 112.336 1.25143 0.95797 0
M  V30 1106 C 113.284 1.05019 2.07542 0
M  V30 1107 C 114.278 -0.0178751 1.69391 0
M  V30 1108 O 115.484 0.137472 1.79474 0
M  V30 1109 H 111.859 0.32265 0.679265 0
M  V30 1110 H 113.83 1.99759 2.21673 0
M  V30 1111 C 112.579 0.682074 3.40944 0
M  V30 1112 H 111.902 1.49573 3.70767 0
M  V30 1113 H 113.342 0.580945 4.20001 0
M  V30 1114 C 111.801 -0.611608 3.31302 0
M  V30 1115 O 112.331 -1.65465 3.66038 0
M  V30 1116 N 110.537 -0.595982 2.84423 0
M  V30 1117 H 110.084 0.253192 2.56353 0
M  V30 1118 H 110.042 -1.46173 2.78354 0
M  V30 1119 N 113.814 -1.1601 1.06675 0
M  V30 1120 C 114.777 -2.18724 0.685001 0
M  V30 1121 C 115.777 -1.58496 -0.271246 0
M  V30 1122 O 116.967 -1.74119 -0.0531156 0
M  V30 1123 C 114.099 -3.40899 0.00853648 0
M  V30 1124 H 115.292 -2.54011 1.59431 0
M  V30 1125 H 112.845 -1.30352 0.862441 0
M  V30 1126 H 113.58 -3.11173 -0.913337 0
M  V30 1127 H 113.365 -3.8587 0.696204 0
M  V30 1128 H 114.855 -4.16886 -0.24414 0
M  V30 1129 N 115.292 -0.849877 -1.32721 0
M  V30 1130 C 116.239 -0.289033 -2.28983 0
M  V30 1131 C 117.209 0.601324 -1.54833 0
M  V30 1132 O 118.394 0.537253 -1.8308 0
M  V30 1133 C 115.534 0.520623 -3.4115 0
M  V30 1134 C 114.647 -0.394989 -4.3019 0
M  V30 1135 C 113.782 0.426834 -5.29482 0
M  V30 1136 C 112.821 -0.486476 -6.10164 0
M  V30 1137 N 111.958 0.297879 -7.01468 0
M  V30 1138 H 116.798 -1.11519 -2.76347 0
M  V30 1139 H 114.335 -0.56138 -1.35967 0
M  V30 1140 H 116.293 1.00563 -4.04899 0
M  V30 1141 H 114.923 1.31165 -2.9495 0
M  V30 1142 H 113.975 -0.99836 -3.67065 0
M  V30 1143 H 115.287 -1.09612 -4.86607 0
M  V30 1144 H 114.441 0.975205 -5.98811 0
M  V30 1145 H 113.18 1.16136 -4.73671 0
M  V30 1146 H 112.185 -1.04677 -5.39743 0
M  V30 1147 H 113.41 -1.21953 -6.6806 0
M  V30 1148 H 111.356 1.01558 -6.48091 0
M  V30 1149 H 111.273 -0.344318 -7.55216 0
M  V30 1150 H 112.541 0.828131 -7.75089 0
M  V30 1151 N 116.77 1.45427 -0.607355 0
M  V30 1152 C 118.047 1.9557 -0.0344566 0
M  V30 1153 C 118.427 1.54979 1.43334 0
M  V30 1154 O 117.775 0.812241 2.13576 0
M  V30 1155 C 117.985 3.48226 -0.232321 0
M  V30 1156 C 119.333 4.2445 -0.113001 0
M  V30 1157 O 120.357 3.55829 -0.162431 0
M  V30 1158 O 119.216 5.465 0.00209442 0
M  V30 1159 H 116.31 0.826222 0.0358667 0
M  V30 1160 H 118.856 1.55594 -0.6774 0
M  V30 1161 H 117.628 3.70739 -1.25174 0
M  V30 1162 H 117.251 3.95092 0.445896 0
M  V30 1163 N 118.248 0.346503 1.53744 0
M  V30 1164 C 119.497 -0.250122 2.00143 0
M  V30 1165 C 119.81 -1.51418 1.23822 0
M  V30 1166 O 121.016 -2.18823 1.60713 0
M  V30 1167 C 119.472 -0.496252 3.56462 0
M  V30 1168 C 119.08 0.752077 4.41642 0
M  V30 1169 C 120.824 -1.05157 4.11269 0
M  V30 1170 C 118.731 0.476583 5.89477 0
M  V30 1171 H 117.661 -0.0972409 0.747703 0
M  V30 1172 H 120.312 0.46229 1.77581 0
M  V30 1173 H 118.694 -1.26944 3.75102 0
M  V30 1174 H 119.868 1.5266 4.34778 0
M  V30 1175 H 118.183 1.22925 3.97842 0
M  V30 1176 H 120.78 -1.27269 5.19333 0
M  V30 1177 H 121.123 -2.00799 3.64672 0
M  V30 1178 H 121.656 -0.339019 3.96353 0
M  V30 1179 H 118.395 1.4028 6.40314 0
M  V30 1180 H 117.915 -0.259794 5.99237 0
M  V30 1181 H 119.594 0.0949315 6.4693 0
M  V30 1182 N 119.726 -1.57421 0.075193 0
M  V30 1183 C 120.673 -2.12915 -0.890843 0
M  V30 1184 C 121.643 -1.04252 -1.29309 0
M  V30 1185 O 122.828 -1.31933 -1.37834 0
M  V30 1186 C 119.968 -2.69795 -2.15186 0
M  V30 1187 C 119.081 -3.92624 -1.80194 0
M  V30 1188 C 118.216 -4.37736 -3.00933 0
M  V30 1189 C 117.255 -5.53205 -2.61974 0
M  V30 1190 N 116.392 -5.9326 -3.75483 0
M  V30 1191 H 121.232 -2.95156 -0.410735 0
M  V30 1192 H 118.769 -1.45854 -0.191086 0
M  V30 1193 H 120.727 -3.00883 -2.89008 0
M  V30 1194 H 119.357 -1.90313 -2.60731 0
M  V30 1195 H 118.409 -3.67977 -0.964218 0
M  V30 1196 H 119.721 -4.76482 -1.47534 0
M  V30 1197 H 118.875 -4.70503 -3.8303 0
M  V30 1198 H 117.614 -3.52739 -3.36789 0
M  V30 1199 H 116.619 -5.20086 -1.783 0
M  V30 1200 H 117.844 -6.39936 -2.27284 0
M  V30 1201 H 115.79 -5.11212 -4.11094 0
M  V30 1202 H 115.707 -6.71865 -3.46602 0
M  V30 1203 H 116.975 -6.30651 -4.58148 0
M  V30 1204 N 121.204 0.198386 -1.56346 0
M  V30 1205 C 122.134 1.24865 -1.9731 0
M  V30 1206 C 123.115 1.47651 -0.844576 0
M  V30 1207 O 124.3 1.59444 -1.10866 0
M  V30 1208 C 121.43 2.59358 -2.30977 0
M  V30 1209 C 120.384 2.5119 -3.46537 0
M  V30 1210 C 119.71 3.89926 -3.65871 0
M  V30 1211 C 121.01 2.03977 -4.80823 0
M  V30 1212 H 122.704 0.908252 -2.85291 0
M  V30 1213 H 120.25 0.435462 -1.37258 0
M  V30 1214 H 122.203 3.33011 -2.58228 0
M  V30 1215 H 120.927 2.95132 -1.39874 0
M  V30 1216 H 119.586 1.79993 -3.19371 0
M  V30 1217 H 119.234 4.23046 -2.72105 0
M  V30 1218 H 118.934 3.85336 -4.4361 0
M  V30 1219 H 120.458 4.65205 -3.95495 0
M  V30 1220 H 121.872 2.67386 -5.07127 0
M  V30 1221 H 120.269 2.10397 -5.62008 0
M  V30 1222 H 121.339 0.992861 -4.74626 0
M  V30 1223 N 122.682 1.50554 0.465978 0
M  V30 1224 C 123.928 1.62038 1.21949 0
M  V30 1225 C 124.261 0.322116 1.9151 0
M  V30 1226 O 123.536 -0.676723 1.82348 0
M  V30 1227 C 123.819 2.80421 2.25912 0
M  V30 1228 C 123.672 4.20144 1.60622 0
M  V30 1229 C 124.991 2.94354 3.27176 0
M  V30 1230 H 122.11 0.589752 0.441998 0
M  V30 1231 H 124.752 1.82956 0.51257 0
M  V30 1232 H 122.902 2.62717 2.86203 0
M  V30 1233 H 124.574 4.49449 1.03889 0
M  V30 1234 H 122.817 4.24165 0.909211 0
M  V30 1235 H 123.488 4.98914 2.36196 0
M  V30 1236 H 125.964 3.10578 2.76913 0
M  V30 1237 H 124.84 3.788 3.97242 0
M  V30 1238 H 125.101 2.05186 3.916 0
M  V30 1239 N 124.16 -0.719506 1.40217 0
M  V30 1240 C 125.07 -1.86378 1.42479 0
M  V30 1241 C 126.086 -1.71073 0.317834 0
M  V30 1242 O 127.262 -1.93406 0.561794 0
M  V30 1243 C 124.327 -3.22136 1.28178 0
M  V30 1244 C 123.388 -3.49723 2.48982 0
M  V30 1245 C 122.621 -4.79004 2.35353 0
M  V30 1246 O 122.844 -5.53821 1.36524 0
M  V30 1247 O 121.778 -5.06839 3.2465 0
M  V30 1248 H 125.604 -1.87425 2.38968 0
M  V30 1249 H 123.189 -0.869405 1.21498 0
M  V30 1250 H 125.071 -4.03234 1.22395 0
M  V30 1251 H 123.746 -3.21825 0.347934 0
M  V30 1252 H 122.653 -2.6865 2.60342 0
M  V30 1253 H 123.986 -3.54828 3.41113 0
M  V30 1254 N 125.638 -1.25649 -0.95132 0
M  V30 1255 C 126.586 -1.06118 -2.06982 0
M  V30 1256 C 127.58 0.00889169 -1.69398 0
M  V30 1257 O 128.786 -0.146988 -1.79399 0
M  V30 1258 H 125.161 -0.326248 -0.677544 0
M  V30 1259 H 127.132 -2.00932 -2.2061 0
M  V30 1260 C 125.881 -0.700145 -3.40578 0
M  V30 1261 H 125.204 -1.51537 -3.69968 0
M  V30 1262 H 126.644 -0.603211 -4.19687 0
M  V30 1263 C 125.103 0.59403 -3.31622 0
M  V30 1264 O 125.633 1.63522 -3.66911 0
M  V30 1265 N 123.839 0.58089 -2.84735 0
M  V30 1266 H 123.386 -0.266783 -2.56215 0
M  V30 1267 H 123.344 1.44695 -2.79125 0
M  V30 1268 N 127.117 1.15442 -1.07289 0
M  V30 1269 C 128.08 2.18358 -0.696591 0
M  V30 1270 C 129.08 1.58637 0.262837 0
M  V30 1271 O 130.27 1.74145 0.0438809 0
M  V30 1272 C 127.402 3.4089 -0.0266151 0
M  V30 1273 H 128.595 2.53162 -1.60776 0
M  V30 1274 H 126.148 1.29893 -0.869342 0
M  V30 1275 H 126.883 3.11653 0.896822 0
M  V30 1276 H 126.668 3.85495 -0.716657 0
M  V30 1277 H 128.158 4.17009 0.222028 0
M  V30 1278 N 128.595 0.856903 1.32268 0
M  V30 1279 C 129.842 0.461386 1.97174 0
M  V30 1280 C 130.17 -0.983491 1.67803 0
M  V30 1281 O 129.425 -1.70541 0.959903 0
M  V30 1282 C 129.724 0.649919 3.51441 0
M  V30 1283 C 129.39 2.0656 4.00804 0
M  V30 1284 C 128.052 2.45279 4.13995 0
M  V30 1285 C 130.404 2.98947 4.26943 0
M  V30 1286 C 127.732 3.75653 4.50668 0
M  V30 1287 C 130.084 4.28822 4.65075 0
M  V30 1288 C 128.748 4.67472 4.76472 0
M  V30 1289 H 128.018 0.168833 0.72151 0
M  V30 1290 H 130.665 1.08739 1.57633 0
M  V30 1291 H 128.97 -0.0593018 3.91755 0
M  V30 1292 H 130.667 0.32391 3.9969 0
M  V30 1293 H 127.257 1.75495 3.91024 0
M  V30 1294 H 131.441 2.70265 4.16258 0
M  V30 1295 H 126.697 4.05379 4.57688 0
M  V30 1296 H 130.871 5.0047 4.84255 0
M  V30 1297 H 128.498 5.68539 5.04646 0
M  V30 1298 N 130.073 -1.45103 0.615059 0
M  V30 1299 C 131.023 -2.27679 -0.120966 0
M  V30 1300 C 132.007 -1.3775 -0.831491 0
M  V30 1301 O 133.199 -1.61683 -0.720249 0
M  V30 1302 C 130.328 -3.24767 -1.1127 0
M  V30 1303 C 129.414 -4.22184 -0.402627 0
M  V30 1304 N 129.805 -5.02692 0.559884 0
M  V30 1305 C 128.103 -4.4125 -0.649202 0
M  V30 1306 C 128.804 -5.73421 0.977942 0
M  V30 1307 N 127.78 -5.42657 0.320104 0
M  V30 1308 H 131.582 -2.87325 0.618181 0
M  V30 1309 H 129.096 -1.56345 0.439304 0
M  V30 1310 H 131.093 -3.82666 -1.65446 0
M  V30 1311 H 129.753 -2.66682 -1.85232 0
M  V30 1312 H 130.764 -5.09354 0.936976 0
M  V30 1313 H 127.441 -3.9428 -1.37293 0
M  V30 1314 H 128.831 -6.48107 1.77222 0
M  V30 1315 N 131.551 -0.354651 -1.53558 0
M  V30 1316 C 132.779 0.239515 -2.05509 0
M  V30 1317 C 133.194 1.4333 -1.2289 0
M  V30 1318 O 132.551 1.80538 -0.266899 0
M  V30 1319 C 132.602 0.643719 -3.55723 0
M  V30 1320 O 132.323 -0.502602 -4.35207 0
M  V30 1321 C 133.824 1.29743 -4.23889 0
M  V30 1322 H 131.044 0.0442697 -0.669538 0
M  V30 1323 H 133.588 -0.509856 -1.98042 0
M  V30 1324 H 131.743 1.34302 -3.63376 0
M  V30 1325 H 132.157 -0.178172 -5.24197 0
M  V30 1326 H 133.631 1.53091 -5.30346 0
M  V30 1327 H 134.108 2.25441 -3.76926 0
M  V30 1328 H 134.714 0.639865 -4.20459 0
M  V30 1329 N 133.029 1.57378 -0.0835403 0
M  V30 1330 C 133.961 2.10389 0.909338 0
M  V30 1331 C 134.974 1.03858 1.25369 0
M  V30 1332 O 136.163 1.31338 1.20882 0
M  V30 1333 C 133.263 2.55908 2.2218 0
M  V30 1334 C 132.436 3.86145 2.05453 0
M  V30 1335 C 131.495 4.17633 3.20108 0
M  V30 1336 O 130.521 4.87043 2.94581 0
M  V30 1337 N 131.723 3.72113 4.45547 0
M  V30 1338 H 134.488 2.962 0.456657 0
M  V30 1339 H 132.049 1.61579 0.101877 0
M  V30 1340 H 134.041 2.74027 2.97811 0
M  V30 1341 H 132.611 1.75171 2.58909 0
M  V30 1342 H 131.831 3.7729 1.1422 0
M  V30 1343 H 133.119 4.7137 1.91541 0
M  V30 1344 H 132.517 3.16062 4.69171 0
M  V30 1345 H 131.074 3.95409 5.18165 0
M  V30 1346 N 134.507 -0.190092 1.56449 0
M  V30 1347 C 135.747 -0.916414 1.82705 0
M  V30 1348 C 136.111 -1.80235 0.661763 0
M  V30 1349 O 137.312 -2.56484 0.80433 0
M  V30 1350 C 135.583 -1.70691 3.14005 0
M  V30 1351 S 137.142 -2.48457 3.61683 0
M  V30 1352 H 133.96 -0.307281 0.64117 0
M  V30 1353 H 136.562 -0.179433 1.94675 0
M  V30 1354 H 135.266 -1.04677 3.96826 0
M  V30 1355 H 134.797 -2.48562 3.04927 0
M  V30 1356 H 136.812 -3.72756 3.27517 0
M  V30 1357 N 135.985 -1.50799 -0.457987 0
M  V30 1358 C 137.234 -1.6168 -1.20593 0
M  V30 1359 C 137.547 -0.32888 -1.92815 0
M  V30 1360 O 138.753 -0.316773 -2.69646 0
M  V30 1361 C 137.209 -2.8545 -2.19195 0
M  V30 1362 C 136.817 -4.21168 -1.52715 0
M  V30 1363 C 138.561 -3.05681 -2.94549 0
M  V30 1364 C 136.468 -5.3611 -2.4968 0
M  V30 1365 H 135.398 -0.602134 -0.453818 0
M  V30 1366 H 138.049 -1.77245 -0.475031 0
M  V30 1367 H 136.431 -2.63472 -2.95632 0
M  V30 1368 H 137.605 -4.53449 -0.819775 0
M  V30 1369 H 135.92 -4.06648 -0.895922 0
M  V30 1370 H 138.517 -3.88727 -3.67145 0
M  V30 1371 H 138.86 -2.17929 -3.54701 0
M  V30 1372 H 139.393 -3.27901 -2.25223 0
M  V30 1373 H 136.132 -6.26057 -1.94249 0
M  V30 1374 H 135.652 -5.0823 -3.18532 0
M  V30 1375 H 137.331 -5.6722 -3.11241 0
M  V30 1376 N 137.463 0.71206 -1.40597 0
M  V30 1377 C 138.74 1.46536 -1.29563 0
M  V30 1378 C 139.12 2.10931 0.0844217 0
M  V30 1379 O 138.468 2.00418 1.0975 0
M  V30 1380 C 138.678 2.49821 -2.43701 0
M  V30 1381 C 140.026 3.15551 -2.841 0
M  V30 1382 O 141.05 2.60142 -2.4332 0
M  V30 1383 O 139.909 4.15867 -3.54566 0
M  V30 1384 H 137.003 0.651801 -0.509004 0
M  V30 1385 H 139.549 0.743935 -1.52524 0
M  V30 1386 H 138.321 2.00778 -3.35863 0
M  V30 1387 H 137.944 3.29495 -2.22528 0
M  V30 1388 N 138.941 1.26152 0.944643 0
M  V30 1389 C 140.181 1.12708 1.70517 0
M  V30 1390 C 140.545 -0.324727 1.89234 0
M  V30 1391 O 141.746 -0.581211 2.62441 0
M  V30 1392 C 140.017 1.8713 3.04495 0
M  V30 1393 S 141.576 1.89698 3.95677 0
M  V30 1394 H 138.394 0.402665 0.585988 0
M  V30 1395 H 140.996 1.59821 1.12594 0
M  V30 1396 H 139.7 2.91833 2.88551 0
M  V30 1397 H 139.231 1.40444 3.67477 0
M  V30 1398 H 141.246 0.981198 4.86402 0
M  V30 1399 N 140.419 -1.14872 1.07899 0
M  V30 1400 C 141.369 -2.17809 0.674027 0
M  V30 1401 C 142.353 -1.58008 -0.303699 0
M  V30 1402 O 143.545 -1.76616 -0.11654 0
M  V30 1403 C 140.674 -3.43208 0.0793318 0
M  V30 1404 C 139.76 -4.10051 1.08253 0
M  V30 1405 N 140.151 -4.52296 2.2641 0
M  V30 1406 C 138.449 -4.36469 0.917124 0
M  V30 1407 C 139.15 -5.04199 2.901 0
M  V30 1408 N 138.126 -4.98088 2.17736 0
M  V30 1409 H 141.928 -2.48207 1.57386 0
M  V30 1410 H 139.442 -1.315 0.952976 0
M  V30 1411 H 141.439 -4.16272 -0.228719 0
M  V30 1412 H 140.099 -3.14291 -0.815551 0
M  V30 1413 H 141.11 -4.45504 2.64096 0
M  V30 1414 H 137.787 -4.17432 0.0756078 0
M  V30 1415 H 139.177 -5.46802 3.90458 0
M  V30 1416 N 141.898 -0.863906 -1.31812 0
M  V30 1417 C 142.845 -0.313303 -2.28664 0
M  V30 1418 C 143.815 0.584868 -1.55462 0
M  V30 1419 O 145 0.517805 -1.83639 0
M  V30 1420 C 142.14 0.48441 -3.41683 0
M  V30 1421 C 141.253 -0.440594 -4.29747 0
M  V30 1422 C 140.388 0.370652 -5.29905 0
M  V30 1423 C 139.427 -0.551164 -6.09613 0
M  V30 1424 N 138.564 0.223462 -7.01744 0
M  V30 1425 H 143.404 -1.14444 -2.75148 0
M  V30 1426 H 140.941 -0.575769 -1.35364 0
M  V30 1427 H 142.899 0.962627 -4.05943 0
M  V30 1428 H 141.529 1.28029 -2.96325 0
M  V30 1429 H 140.581 -1.03724 -3.65986 0
M  V30 1430 H 141.893 -1.14767 -4.85417 0
M  V30 1431 H 141.047 0.911638 -5.99812 0
M  V30 1432 H 139.786 1.11105 -4.74876 0
M  V30 1433 H 138.791 -1.10396 -5.38603 0
M  V30 1434 H 140.016 -1.29032 -6.66729 0
M  V30 1435 H 137.962 0.946787 -6.49132 0
M  V30 1436 H 137.879 -0.424399 -7.54808 0
M  V30 1437 H 139.147 0.745876 -7.75923 0
M  V30 1438 N 143.376 1.44774 -0.622745 0
M  V30 1439 C 144.339 2.29069 0.0774015 0
M  V30 1440 C 145.339 1.4059 0.780461 0
M  V30 1441 O 146.529 1.62551 0.626322 0
M  V30 1442 C 143.661 3.21974 1.12006 0
M  V30 1443 H 144.854 2.92459 -0.663901 0
M  V30 1444 H 142.407 1.51548 -0.382486 0
M  V30 1445 H 143.142 2.63417 1.89162 0
M  V30 1446 H 142.927 3.87168 0.619951 0
M  V30 1447 H 144.417 3.85318 1.60995 0
M  V30 1448 N 144.854 0.36279 1.53368 0
M  V30 1449 C 145.784 -0.476976 2.28576 0
M  V30 1450 C 146.765 -1.08631 1.30894 0
M  V30 1451 O 147.95 -1.10409 1.59761 0
M  V30 1452 C 145.08 -1.61828 3.07293 0
M  V30 1453 C 144.034 -1.13633 4.1264 0
M  V30 1454 C 143.36 -2.36766 4.79423 0
M  V30 1455 C 144.66 -0.223061 5.21823 0
M  V30 1456 H 146.354 0.150474 2.99022 0
M  V30 1457 H 143.9 0.0738103 1.43811 0
M  V30 1458 H 145.853 -2.21237 3.58653 0
M  V30 1459 H 144.577 -2.27292 2.34533 0
M  V30 1460 H 143.236 -0.564945 3.62221 0
M  V30 1461 H 142.884 -3.0068 4.03238 0
M  V30 1462 H 142.584 -2.05192 5.50609 0
M  V30 1463 H 144.108 -2.96865 5.33576 0
M  V30 1464 H 145.522 -0.724545 5.68703 0
M  V30 1465 H 143.919 0.001678 6.001 0
M  V30 1466 H 144.989 0.735553 4.79289 0
M  V30 1467 N 146.332 -1.57332 0.0918853 0
M  V30 1468 C 147.279 -2.13847 -0.868211 0
M  V30 1469 C 148.249 -1.05618 -1.28196 0
M  V30 1470 O 149.434 -1.33387 -1.36427 0
M  V30 1471 C 146.574 -2.72062 -2.12312 0
M  V30 1472 C 145.687 -3.94514 -1.7602 0
M  V30 1473 C 144.822 -4.40903 -2.96273 0
M  V30 1474 C 143.861 -5.55953 -2.56092 0
M  V30 1475 N 142.998 -5.97209 -3.69169 0
M  V30 1476 H 147.838 -2.95575 -0.379406 0
M  V30 1477 H 145.375 -1.46048 -0.175606 0
M  V30 1478 H 147.333 -3.03931 -2.858 0
M  V30 1479 H 145.963 -1.93068 -2.58698 0
M  V30 1480 H 145.015 -3.68979 -0.925135 0
M  V30 1481 H 146.327 -4.7802 -1.42472 0
M  V30 1482 H 145.481 -4.74539 -3.78018 0
M  V30 1483 H 144.22 -3.56291 -3.33029 0
M  V30 1484 H 143.225 -5.21948 -1.72773 0
M  V30 1485 H 144.45 -6.42311 -2.20484 0
M  V30 1486 H 142.396 -5.15543 -4.05649 0
M  V30 1487 H 142.313 -6.75504 -3.39456 0
M  V30 1488 H 143.581 -6.35475 -4.51434 0
M  V30 1489 N 147.81 0.181792 -1.56548 0
M  V30 1490 C 148.757 1.22521 -1.95595 0
M  V30 1491 C 149.727 1.4454 -0.818373 0
M  V30 1492 O 150.912 1.57454 -1.07763 0
M  V30 1493 C 148.052 2.56193 -2.31212 0
M  V30 1494 C 147.165 2.41641 -3.58097 0
M  V30 1495 C 146.3 3.68108 -3.82975 0
M  V30 1496 C 145.339 3.48445 -5.03242 0
M  V30 1497 N 144.476 4.66956 -5.24306 0
M  V30 1498 H 149.316 0.885226 -2.84548 0
M  V30 1499 H 146.853 0.425718 -1.40805 0
M  V30 1500 H 148.811 3.34088 -2.49882 0
M  V30 1501 H 147.441 2.88208 -1.45382 0
M  V30 1502 H 146.493 1.54976 -3.474 0
M  V30 1503 H 147.805 2.23052 -4.46149 0
M  V30 1504 H 146.959 4.54441 -4.01956 0
M  V30 1505 H 145.698 3.89666 -2.93278 0
M  V30 1506 H 144.703 2.60499 -4.8417 0
M  V30 1507 H 145.928 3.2832 -5.9446 0
M  V30 1508 H 143.874 4.88752 -4.37559 0
M  V30 1509 H 143.791 4.51242 -6.06561 0
M  V30 1510 H 145.059 5.54602 -5.47756 0
M  V30 1511 N 149.288 1.51039 0.449983 0
M  V30 1512 C 150.565 1.53612 1.21089 0
M  V30 1513 C 150.945 0.292997 2.09057 0
M  V30 1514 O 150.293 -0.72259 2.16774 0
M  V30 1515 C 150.503 2.84337 2.0237 0
M  V30 1516 C 151.851 3.35807 2.59843 0
M  V30 1517 O 152.875 2.85802 2.12593 0
M  V30 1518 O 151.734 4.23029 3.45989 0
M  V30 1519 H 148.828 0.617057 0.550608 0
M  V30 1520 H 151.374 1.63344 0.460082 0
M  V30 1521 H 150.146 3.66278 1.37681 0
M  V30 1522 H 149.769 2.77708 2.84542 0
M  V30 1523 N 150.766 -0.704594 1.40972 0
M  V30 1524 C 151.713 -1.81862 1.42109 0
M  V30 1525 C 152.683 -1.63781 0.276593 0
M  V30 1526 O 153.868 -1.84759 0.4763 0
M  V30 1527 C 151.008 -3.19669 1.30022 0
M  V30 1528 C 150.121 -3.49246 2.54267 0
M  V30 1529 C 149.256 -4.76618 2.3454 0
M  V30 1530 C 148.295 -4.99133 3.54306 0
M  V30 1531 N 147.432 -6.17726 3.33706 0
M  V30 1532 H 152.272 -1.80226 2.37324 0
M  V30 1533 H 149.809 -0.880238 1.17857 0
M  V30 1534 H 151.767 -3.99263 1.21018 0
M  V30 1535 H 150.397 -3.20506 0.384192 0
M  V30 1536 H 149.449 -2.64125 2.73756 0
M  V30 1537 H 150.761 -3.61788 3.43381 0
M  V30 1538 H 149.915 -5.64249 2.22952 0
M  V30 1539 H 148.654 -4.66305 1.42867 0
M  V30 1540 H 147.659 -4.09953 3.66359 0
M  V30 1541 H 148.884 -5.11311 4.4692 0
M  V30 1542 H 146.83 -6.08642 2.44725 0
M  V30 1543 H 146.747 -6.30995 4.16391 0
M  V30 1544 H 148.015 -7.08115 3.25873 0
M  V30 1545 N 152.244 -1.26651 -0.937939 0
M  V30 1546 C 153.191 -1.0849 -2.03712 0
M  V30 1547 C 154.161 0.011033 -1.66096 0
M  V30 1548 O 155.346 -0.149353 -1.90215 0
M  V30 1549 C 152.486 -0.72735 -3.37348 0
M  V30 1550 C 151.599 -1.89986 -3.87981 0
M  V30 1551 C 150.734 -1.48513 -5.10017 0
M  V30 1552 C 149.773 -2.62575 -5.5292 0
M  V30 1553 N 148.91 -2.21762 -6.66158 0
M  V30 1554 H 153.75 -2.02551 -2.18579 0
M  V30 1555 H 151.287 -1.00844 -1.07093 0
M  V30 1556 H 153.245 -0.50092 -4.14182 0
M  V30 1557 H 151.875 0.176298 -3.22318 0
M  V30 1558 H 150.927 -2.23913 -3.07518 0
M  V30 1559 H 152.239 -2.75586 -4.15757 0
M  V30 1560 H 151.393 -1.21934 -5.94321 0
M  V30 1561 H 150.132 -0.60009 -4.83994 0
M  V30 1562 H 149.137 -2.8988 -4.67172 0
M  V30 1563 H 150.362 -3.51685 -5.80943 0
M  V30 1564 H 148.308 -1.35696 -6.41812 0
M  V30 1565 H 148.225 -3.00903 -6.93537 0
M  V30 1566 H 149.493 -1.98403 -7.53828 0
M  V30 1567 N 153.722 1.14298 -1.08507 0
M  V30 1568 C 155.133 1.66926 -0.836227 0
M  V30 1569 C 155.484 1.85576 0.63686 0
M  V30 1570 O 154.609 1.56767 1.49175 0
M  V30 1571 C 155.204 3.03219 -1.51142 0
M  V30 1572 C 153.763 3.52876 -1.30979 0
M  V30 1573 C 152.91 2.2833 -1.57356 0
M  V30 1574 H 155.861 0.983491 -1.24552 0
M  V30 1575 H 155.882 3.68726 -0.939211 0
M  V30 1576 H 155.394 2.89612 -2.58353 0
M  V30 1577 H 153.495 3.71703 -0.258429 0
M  V30 1578 H 153.608 4.33586 -2.03814 0
M  V30 1579 H 151.972 2.34454 -0.995164 0
M  V30 1580 H 152.755 2.17298 -2.65775 0
M  V30 1581 N 155.201 0.870884 1.31352 0
M  V30 1582 C 156.429 0.49677 2.00848 0
M  V30 1583 C 156.844 -0.910998 1.65367 0
M  V30 1584 O 156.201 -1.59696 0.883374 0
M  V30 1585 C 156.252 0.645308 3.55694 0
M  V30 1586 O 155.973 1.99764 3.89905 0
M  V30 1587 C 157.474 0.272326 4.42463 0
M  V30 1588 H 154.694 0.193462 0.642506 0
M  V30 1589 H 157.238 1.1723 1.67563 0
M  V30 1590 H 155.393 0.0173176 3.87396 0
M  V30 1591 H 155.807 2.00607 4.84621 0
M  V30 1592 H 157.281 0.427208 5.50344 0
M  V30 1593 H 157.758 -0.788587 4.32062 0
M  V30 1594 H 158.364 0.876054 4.1618 0
M  V30 1595 N 156.679 -1.44442 0.630414 0
M  V30 1596 C 157.927 -2.01653 0.134351 0
M  V30 1597 C 158.248 -1.49836 -1.24796 0
M  V30 1598 O 157.518 -0.701684 -1.82902 0
M  V30 1599 H 156.098 -0.74554 0.0466769 0
M  V30 1600 H 158.76 -1.76952 0.816955 0
M  V30 1601 H 157.856 -3.11935 0.101498 0
M  V30 1602 N 158.157 -0.370918 -1.53173 0
M  V30 1603 C 159.568 0.107139 -1.86392 0
M  V30 1604 C 159.919 1.47714 -1.29132 0
M  V30 1605 O 159.044 2.07464 -0.615439 0
M  V30 1606 C 159.639 0.201187 -3.38202 0
M  V30 1607 C 158.198 0.623507 -3.712 0
M  V30 1608 C 157.345 -0.225978 -2.76378 0
M  V30 1609 H 160.296 -0.58951 -1.47345 0
M  V30 1610 H 160.317 1.02377 -3.66468 0
M  V30 1611 H 159.829 -0.796058 -3.79848 0
M  V30 1612 H 157.93 1.62879 -3.35114 0
M  V30 1613 H 158.043 0.394414 -4.77474 0
M  V30 1614 H 156.407 0.305962 -2.52856 0
M  V30 1615 H 157.19 -1.22086 -3.20858 0
M  V30 1616 N 159.635 1.57281 -0.100228 0
M  V30 1617 C 160.863 1.98879 0.570509 0
M  V30 1618 C 161.278 0.979476 1.61405 0
M  V30 1619 O 160.635 -0.0302288 1.82475 0
M  V30 1620 C 160.686 3.4052 1.2136 0
M  V30 1621 O 160.407 4.37588 0.211786 0
M  V30 1622 C 161.908 3.97149 1.96945 0
M  V30 1623 H 159.128 0.653428 0.152555 0
M  V30 1624 H 161.672 2.03697 -0.18103 0
M  V30 1625 H 159.827 3.367 1.91603 0
M  V30 1626 H 160.241 5.20118 0.676607 0
M  V30 1627 H 161.715 4.98393 2.37294 0
M  V30 1628 H 162.192 3.3525 2.83733 0
M  V30 1629 H 162.798 4.04458 1.31506 0
M  V30 1630 N 161.113 -0.173488 1.56642 0
M  V30 1631 C 162.076 -1.19859 1.95362 0
M  V30 1632 C 163.076 -1.37296 0.83704 0
M  V30 1633 O 164.266 -1.34739 1.10413 0
M  V30 1634 C 161.398 -2.56405 2.24654 0
M  V30 1635 H 162.591 -0.867062 2.87092 0
M  V30 1636 H 160.144 -0.415853 1.50666 0
M  V30 1637 H 160.879 -2.94576 1.35631 0
M  V30 1638 H 160.664 -2.45115 3.06041 0
M  V30 1639 H 162.154 -3.30287 2.5554 0
M  V30 1640 N 162.591 -1.51276 -0.441967 0
M  V30 1641 C 163.831 -1.65372 -1.20132 0
M  V30 1642 C 164.195 -0.359871 -1.88597 0
M  V30 1643 O 165.396 -0.376551 -2.66149 0
M  V30 1644 C 163.667 -2.8207 -2.1948 0
M  V30 1645 S 165.226 -3.16467 -3.03964 0
M  V30 1646 H 162.044 -0.582669 -0.407453 0
M  V30 1647 H 164.646 -1.89166 -0.493609 0
M  V30 1648 H 163.35 -3.74523 -1.67812 0
M  V30 1649 H 162.881 -2.6045 -2.94838 0
M  V30 1650 H 164.896 -2.62543 -4.21053 0
M  V30 1651 N 164.069 0.697108 -1.41344 0
M  V30 1652 C 165.317 1.45426 -1.40341 0
M  V30 1653 C 165.638 1.94996 -0.0128787 0
M  V30 1654 O 164.908 1.71599 0.945027 0
M  V30 1655 H 163.488 0.539594 -0.516573 0
M  V30 1656 H 166.15 0.825201 -1.76569 0
M  V30 1657 H 165.246 2.31817 -2.08967 0
M  V30 1658 N 165.547 1.27147 0.931209 0
M  V30 1659 C 166.494 1.09568 2.03134 0
M  V30 1660 C 167.464 -0.00222433 1.661 0
M  V30 1661 O 168.649 0.159439 1.90133 0
M  V30 1662 C 165.789 0.745231 3.36957 0
M  V30 1663 C 164.902 1.92041 3.86968 0
M  V30 1664 C 164.037 1.51216 5.09222 0
M  V30 1665 C 163.076 2.65504 5.5152 0
M  V30 1666 N 162.213 2.25291 6.64972 0
M  V30 1667 H 167.053 2.03708 2.17502 0
M  V30 1668 H 164.59 1.01411 1.06556 0
M  V30 1669 H 166.548 0.522878 4.1391 0
M  V30 1670 H 165.178 -0.159202 3.22407 0
M  V30 1671 H 164.23 2.25541 3.06326 0
M  V30 1672 H 165.542 2.77787 4.1429 0
M  V30 1673 H 164.696 1.25084 5.93666 0
M  V30 1674 H 163.435 0.625749 4.83669 0
M  V30 1675 H 162.44 2.92354 4.65628 0
M  V30 1676 H 163.665 3.54761 5.7907 0
M  V30 1677 H 161.611 1.39098 6.41083 0
M  V30 1678 H 161.528 3.04577 6.91931 0
M  V30 1679 H 162.796 2.02398 7.52765 0
M  V30 1680 N 167.025 -1.13721 1.09112 0
M  V30 1681 C 168.265 -1.86576 0.834801 0
M  V30 1682 C 168.629 -1.81435 -0.628122 0
M  V30 1683 O 169.83 -2.49497 -1.00024 0
M  V30 1684 C 168.101 -3.30872 1.35124 0
M  V30 1685 S 169.66 -4.21257 1.22832 0
M  V30 1686 H 166.478 -0.643666 0.302017 0
M  V30 1687 H 169.08 -1.37085 1.39385 0
M  V30 1688 H 167.784 -3.32166 2.41027 0
M  V30 1689 H 167.315 -3.85423 0.788185 0
M  V30 1690 H 169.33 -4.95884 0.177191 0
M  V30 1691 N 168.503 -0.877838 -1.30888 0
M  V30 1692 C 169.453 -0.310872 -2.25871 0
M  V30 1693 C 170.437 0.556596 -1.50966 0
M  V30 1694 O 171.629 0.402187 -1.7237 0
M  V30 1695 C 168.758 0.479821 -3.3993 0
M  V30 1696 C 167.844 -0.401333 -4.22197 0
M  V30 1697 N 168.235 -1.49848 -4.83093 0
M  V30 1698 C 166.533 -0.195167 -4.45573 0
M  V30 1699 C 167.234 -2.0425 -5.44662 0
M  V30 1700 N 166.21 -1.33843 -5.26865 0
M  V30 1701 H 170.012 -1.1493 -2.70496 0
M  V30 1702 H 167.526 -0.726458 -1.45246 0
M  V30 1703 H 169.523 0.902582 -4.07012 0
M  V30 1704 H 168.183 1.31577 -2.96846 0
M  V30 1705 H 169.194 -1.88137 -4.82519 0
M  V30 1706 H 165.871 0.604192 -4.13105 0
M  V30 1707 H 167.261 -2.96345 -6.03017 0
M  V30 1708 N 169.982 1.44106 -0.638065 0
M  V30 1709 C 171.21 2.06336 -0.152615 0
M  V30 1710 C 171.625 1.47731 1.17563 0
M  V30 1711 O 170.982 0.602806 1.72257 0
M  V30 1712 C 171.033 3.61479 -0.0391491 0
M  V30 1713 O 170.754 4.17903 -1.31487 0
M  V30 1714 C 172.255 4.40757 0.474176 0
M  V30 1715 H 169.475 0.665862 -0.0828776 0
M  V30 1716 H 172.019 1.84862 -0.87443 0
M  V30 1717 H 170.174 3.82191 0.633142 0
M  V30 1718 H 170.588 5.11416 -1.16421 0
M  V30 1719 H 172.062 5.49707 0.502562 0
M  V30 1720 H 172.539 4.12697 1.50258 0
M  V30 1721 H 173.145 4.24979 -0.165102 0
M  V30 1722 N 171.46 0.379036 1.52974 0
M  V30 1723 C 172.688 -0.20679 2.05864 0
M  V30 1724 C 173.103 -1.41356 1.25155 0
M  V30 1725 O 172.46 -1.8009 0.295588 0
M  V30 1726 C 172.511 -0.587045 3.56702 0
M  V30 1727 O 172.232 0.571776 4.34353 0
M  V30 1728 C 173.733 -1.22983 4.25899 0
M  V30 1729 H 170.953 -0.0336123 0.670158 0
M  V30 1730 H 173.497 0.541298 1.97206 0
M  V30 1731 H 171.652 -1.28504 3.65466 0
M  V30 1732 H 172.066 0.261544 5.23847 0
M  V30 1733 H 173.54 -1.44635 5.32715 0
M  V30 1734 H 174.017 -2.19416 3.80465 0
M  V30 1735 H 174.623 -0.572892 4.21424 0
M  V30 1736 N 172.938 -1.57226 0.108567 0
M  V30 1737 C 173.886 -2.16002 -0.862885 0
M  V30 1738 C 174.88 -1.10644 -1.28274 0
M  V30 1739 O 176.086 -1.28966 -1.2557 0
M  V30 1740 H 172.461 -0.691148 -0.296342 0
M  V30 1741 H 174.432 -2.96427 -0.342575 0
M  V30 1742 C 173.181 -2.76576 -2.10716 0
M  V30 1743 H 172.504 -3.5734 -1.793 0
M  V30 1744 H 173.944 -3.21253 -2.76717 0
M  V30 1745 C 172.403 -1.73137 -2.89007 0
M  V30 1746 O 172.933 -1.17842 -3.84026 0
M  V30 1747 N 171.139 -1.43317 -2.52801 0
M  V30 1748 H 170.686 -1.88473 -1.75601 0
M  V30 1749 H 170.644 -0.743485 -3.05483 0
M  V30 1750 O 174.455 0.0311049 -1.6147 0
M  V30 1751 H 175.146 0.651916 -1.824 0
M  V30 END ATOM
M  V30 BEGIN BOND
M  V30 END BOND
M  V30 END CTAB
M  END
$$$$
