drugbank_target|P00101 Cytochrome c-551 (DB03317)
 OpenBabel12092120273D

  0  0  0     0  0            999 V3000
M  V30 BEGIN CTAB
M  V30 COUNTS 1546 1561 0 0 0
M  V30 BEGIN ATOM
M  V30 1 H -0.908 1.98254 -0.117106 0
M  V30 2 N 0 1.576 0 0
M  V30 3 C 0.933 2.03868 1.02534 0
M  V30 4 C 1.911 0.928543 1.3348 0
M  V30 5 O 3.095 1.19667 1.45644 0
M  V30 6 C 0.222 2.43627 2.35294 0
M  V30 7 C -0.732 3.65373 2.2001 0
M  V30 8 S 0.101 5.13292 1.52614 0
M  V30 9 C 1.257 5.56322 2.86805 0
M  V30 10 H 1.49 2.90518 0.631377 0
M  V30 11 H -0.977 1.52953 0.210867 0
M  V30 12 H 0.981 2.67203 3.11629 0
M  V30 13 H -0.358 1.57376 2.7183 0
M  V30 14 H -1.165 3.90944 3.18086 0
M  V30 15 H -1.563 3.418 1.51819 0
M  V30 16 H 0.729 5.58782 3.83104 0
M  V30 17 H 1.672 6.56266 2.65933 0
M  V30 18 H 2.08 4.83886 2.90714 0
M  V30 19 N 1.4781 -0.272755 1.55222 0
M  V30 20 C 2.4251 -1.33716 1.88119 0
M  V30 21 C 3.3951 -1.49066 0.73271 0
M  V30 22 O 4.5801 -1.63469 0.984002 0
M  V30 23 C 1.7201 -2.69238 2.15882 0
M  V30 24 C 0.8331 -2.62108 3.43399 0
M  V30 25 C -0.0319 -3.89811 3.60861 0
M  V30 26 C -0.9929 -3.77193 4.8207 0
M  V30 27 N -1.8559 -4.9673 4.96189 0
M  V30 28 H 2.9841 -1.04962 2.78903 0
M  V30 29 H 0.5211 -0.507088 1.38083 0
M  V30 30 H 2.4791 -3.48089 2.29978 0
M  V30 31 H 1.1091 -2.96194 1.28331 0
M  V30 32 H 0.1611 -1.74967 3.37773 0
M  V30 33 H 1.4731 -2.48685 4.32386 0
M  V30 34 H 0.6271 -4.77103 3.74777 0
M  V30 35 H -0.6339 -4.06102 2.7006 0
M  V30 36 H -1.6289 -2.88284 4.68159 0
M  V30 37 H -0.4039 -3.62421 5.74307 0
M  V30 38 H -2.4579 -5.13431 4.08319 0
M  V30 39 H -2.5409 -4.85839 5.79221 0
M  V30 40 H -1.2729 -5.85594 5.1449 0
M  V30 41 N 2.9562 -1.48159 -0.537278 0
M  V30 42 C 3.9032 -1.62138 -1.64256 0
M  V30 43 C 4.8732 -0.463668 -1.59497 0
M  V30 44 O 6.0582 -0.686241 -1.78032 0
M  V30 45 C 3.1982 -1.66028 -3.02537 0
M  V30 46 C 2.3112 -2.92855 -3.17585 0
M  V30 47 C 1.4462 -2.87952 -4.46382 0
M  V30 48 C 0.4852 -4.09516 -4.54932 0
M  V30 49 N -0.3778 -4.02733 -5.75109 0
M  V30 50 H 4.4622 -2.56529 -1.51647 0
M  V30 51 H 1.9992 -1.27224 -0.738414 0
M  V30 52 H 3.9572 -1.66265 -3.82638 0
M  V30 53 H 2.5872 -0.751331 -3.13934 0
M  V30 54 H 1.6392 -3.02395 -2.30784 0
M  V30 55 H 2.9512 -3.82822 -3.19764 0
M  V30 56 H 2.1052 -2.8655 -5.34765 0
M  V30 57 H 0.8442 -1.95702 -4.46712 0
M  V30 58 H -0.1508 -4.11201 -3.64957 0
M  V30 59 H 1.0742 -5.02917 -4.56346 0
M  V30 60 H -0.9798 -3.13299 -5.76351 0
M  V30 61 H -1.0628 -4.86397 -5.78752 0
M  V30 62 H 0.2052 -4.05379 -6.65799 0
M  V30 63 N 4.4343 0.785586 -1.36625 0
M  V30 64 C 5.6833 1.53883 -1.30396 0
M  V30 65 C 5.9963 1.95271 0.113452 0
M  V30 66 O 7.2023 2.69858 0.298142 0
M  V30 67 C 5.6583 2.77808 -2.28802 0
M  V30 68 C 5.2663 2.43574 -3.75999 0
M  V30 69 C 7.0103 3.55783 -2.31558 0
M  V30 70 C 4.9173 3.63919 -4.66173 0
M  V30 71 H 3.8473 0.577678 -0.484566 0
M  V30 72 H 6.4983 0.861705 -1.62009 0
M  V30 73 H 4.8803 3.47339 -1.90188 0
M  V30 74 H 6.0543 1.81916 -4.23371 0
M  V30 75 H 4.3693 1.78803 -3.76056 0
M  V30 76 H 6.9663 4.45205 -2.96137 0
M  V30 77 H 7.3093 3.94644 -1.3252 0
M  V30 78 H 7.8423 2.93235 -2.68809 0
M  V30 79 H 4.5813 3.3015 -5.66287 0
M  V30 80 H 4.1013 4.2473 -4.23515 0
M  V30 81 H 5.7803 4.30901 -4.82632 0
M  V30 82 N 5.9124 1.20967 1.01018 0
M  V30 83 C 6.8424 0.988272 2.11555 0
M  V30 84 C 7.8234 -0.0849778 1.69888 0
M  V30 85 O 9.0084 0.0738202 1.9406 0
M  V30 86 C 6.1384 0.546528 3.42973 0
M  V30 87 C 5.0924 1.56375 3.9841 0
M  V30 88 C 4.4184 0.97842 5.25672 0
M  V30 89 C 5.7184 2.94922 4.31066 0
M  V30 90 H 7.4124 1.91276 2.30334 0
M  V30 91 H 4.9584 0.921073 1.1069 0
M  V30 92 H 6.9114 0.378839 4.19694 0
M  V30 93 H 5.6354 -0.413598 3.23971 0
M  V30 94 H 4.2944 1.71891 3.23804 0
M  V30 95 H 3.9424 0.0101688 5.02999 0
M  V30 96 H 3.6424 1.65784 5.63728 0
M  V30 97 H 5.1664 0.821939 6.05043 0
M  V30 98 H 6.5804 2.8288 4.9865 0
M  V30 99 H 4.9774 3.5983 4.80253 0
M  V30 100 H 6.0474 3.4616 3.39561 0
M  V30 101 N 7.3905 -1.2043 1.01659 0
M  V30 102 C 8.6395 -1.89118 0.701237 0
M  V30 103 C 8.9525 -1.79705 -0.772358 0
M  V30 104 O 10.1585 -2.43528 -1.20026 0
M  V30 105 C 8.6145 -3.39168 1.20388 0
M  V30 106 C 8.2225 -3.57166 2.70438 0
M  V30 107 C 9.9665 -4.1341 0.963953 0
M  V30 108 C 7.8735 -5.01042 3.14183 0
M  V30 109 H 6.8035 -0.708267 0.2586 0
M  V30 110 H 9.4545 -1.36239 1.22927 0
M  V30 111 H 7.8365 -3.91369 0.603824 0
M  V30 112 H 9.0105 -3.15351 3.35992 0
M  V30 113 H 7.3255 -2.96294 2.92572 0
M  V30 114 H 9.9225 -5.19491 1.26621 0
M  V30 115 H 10.2655 -4.16181 -0.099578 0
M  V30 116 H 10.7985 -3.67309 1.52738 0
M  V30 117 H 7.5375 -5.03426 4.19812 0
M  V30 118 H 7.0575 -5.43668 2.53348 0
M  V30 119 H 8.7365 -5.69623 3.0682 0
M  V30 120 N 8.8686 -0.792821 -1.36206 0
M  V30 121 C 10.2796 -0.429513 -1.81692 0
M  V30 122 C 10.6306 1.04695 -1.65932 0
M  V30 123 O 9.7556 1.81256 -1.18218 0
M  V30 124 C 10.3506 -0.772831 -3.29868 0
M  V30 125 C 8.9096 -0.462307 -3.7355 0
M  V30 126 C 8.0566 -1.00569 -2.5842 0
M  V30 127 H 11.0076 -0.985672 -1.24379 0
M  V30 128 H 11.0286 -0.0651928 -3.80444 0
M  V30 129 H 10.5406 -1.84747 -3.41307 0
M  V30 130 H 8.6416 0.604158 -3.67669 0
M  V30 131 H 8.7546 -0.985299 -4.68859 0
M  V30 132 H 7.1186 -0.428734 -2.51066 0
M  V30 133 H 7.9016 -2.08616 -2.72643 0
M  V30 134 N 10.3467 1.47872 -0.545128 0
M  V30 135 C 11.2797 2.2675 0.256885 0
M  V30 136 C 12.2577 1.33293 0.931228 0
M  V30 137 O 13.4417 1.62657 0.95262 0
M  V30 138 C 10.5687 3.09976 1.36501 0
M  V30 139 C 9.6147 4.1892 0.800496 0
M  V30 140 S 10.4477 5.34397 -0.343505 0
M  V30 141 C 11.6037 6.21186 0.766733 0
M  V30 142 H 11.8367 2.94425 -0.412479 0
M  V30 143 H 9.3697 1.50806 -0.331204 0
M  V30 144 H 11.3277 3.585 1.9997 0
M  V30 145 H 9.9887 2.41686 2.00616 0
M  V30 146 H 9.1817 4.76836 1.63227 0
M  V30 147 H 8.7837 3.73215 0.242217 0
M  V30 148 H 11.0757 6.56804 1.66178 0
M  V30 149 H 12.0187 7.07742 0.225204 0
M  V30 150 H 12.4267 5.54574 1.05396 0
M  V30 151 N 11.8248 0.280983 1.55075 0
M  V30 152 C 12.7548 -0.597469 2.25727 0
M  V30 153 C 13.7358 -1.15417 1.24952 0
M  V30 154 O 14.9208 -1.18722 1.53684 0
M  V30 155 C 12.0508 -1.7789 2.98283 0
M  V30 156 C 11.0048 -1.35347 4.06036 0
M  V30 157 C 10.3308 -2.61846 4.66198 0
M  V30 158 C 11.6308 -0.499354 5.19907 0
M  V30 159 H 13.3248 -0.00824265 2.99399 0
M  V30 160 H 10.8708 -0.0025244 1.44 0
M  V30 161 H 12.8238 -2.39937 3.46422 0
M  V30 162 H 11.5478 -2.39405 2.22155 0
M  V30 163 H 10.2068 -0.756156 3.58717 0
M  V30 164 H 9.8548 -3.21632 3.86732 0
M  V30 165 H 9.5548 -2.3409 5.38958 0
M  V30 166 H 11.0788 -3.24732 5.1709 0
M  V30 167 H 12.4928 -1.02498 5.64063 0
M  V30 168 H 10.8898 -0.316424 5.99265 0
M  V30 169 H 11.9598 0.480459 4.82514 0
M  V30 170 N 13.3029 -1.57598 0.00835791 0
M  V30 171 C 14.2659 -2.07884 -0.965242 0
M  V30 172 C 15.2659 -0.989825 -1.26725 0
M  V30 173 O 16.4559 -1.25218 -1.21104 0
M  V30 174 C 13.5879 -2.52731 -2.28779 0
M  V30 175 H 14.7809 -2.95178 -0.530112 0
M  V30 176 H 12.3339 -1.54458 -0.239283 0
M  V30 177 H 13.0689 -1.68705 -2.76964 0
M  V30 178 H 12.8539 -3.32272 -2.08177 0
M  V30 179 H 14.3439 -2.91933 -2.98605 0
M  V30 180 N 14.781 0.264519 -1.55364 0
M  V30 181 C 15.711 1.33121 -1.91836 0
M  V30 182 C 16.692 1.51101 -0.781192 0
M  V30 183 O 17.877 1.64003 -1.04003 0
M  V30 184 C 15.007 2.68921 -2.19769 0
M  V30 185 C 13.961 2.65661 -3.35571 0
M  V30 186 C 13.287 4.05093 -3.49004 0
M  V30 187 C 14.587 2.24187 -4.71739 0
M  V30 188 H 16.281 1.02844 -2.81182 0
M  V30 189 H 13.827 0.493286 -1.35287 0
M  V30 190 H 15.78 3.43663 -2.43872 0
M  V30 191 H 14.504 3.00799 -1.27231 0
M  V30 192 H 13.163 1.93377 -3.1145 0
M  V30 193 H 12.811 4.34206 -2.53917 0
M  V30 194 H 12.511 4.03804 -4.26868 0
M  V30 195 H 14.035 4.81561 -3.75408 0
M  V30 196 H 15.449 2.88654 -4.9533 0
M  V30 197 H 13.846 2.34044 -5.52579 0
M  V30 198 H 14.916 1.19327 -4.69988 0
M  V30 199 N 16.2591 1.48442 0.529413 0
M  V30 200 C 17.5071 1.56179 1.28267 0
M  V30 201 C 17.8281 0.237721 1.93546 0
M  V30 202 O 17.0981 -0.740779 1.81354 0
M  V30 203 H 15.6781 0.575367 0.476405 0
M  V30 204 H 18.3401 1.84909 0.61602 0
M  V30 205 H 17.4361 2.34312 2.06165 0
M  V30 206 N 17.7372 -0.778329 1.37039 0
M  V30 207 C 18.9852 -1.53361 1.31623 0
M  V30 208 C 19.3062 -1.94739 -0.100831 0
M  V30 209 O 18.5762 -1.65797 -1.04347 0
M  V30 210 H 17.1562 -0.568794 0.484234 0
M  V30 211 H 19.8182 -0.926742 1.71457 0
M  V30 212 H 18.9142 -2.43606 1.95096 0
M  V30 213 N 19.2153 -1.21501 -1.00376 0
M  V30 214 C 20.1783 -0.976927 -2.07337 0
M  V30 215 C 21.1783 0.0525322 -1.60714 0
M  V30 216 O 22.3683 -0.184869 -1.73216 0
M  V30 217 C 19.5003 -0.473423 -3.37597 0
M  V30 218 H 20.6933 -1.92587 -2.29892 0
M  V30 219 H 18.2463 -1.03217 -1.17371 0
M  V30 220 H 18.9813 0.480379 -3.20722 0
M  V30 221 H 18.7663 -1.216 -3.72768 0
M  V30 222 H 20.2563 -0.32675 -4.1632 0
M  V30 223 N 20.6934 1.19889 -1.02296 0
M  V30 224 C 21.6234 2.25141 -0.619174 0
M  V30 225 C 22.6044 1.66051 0.368915 0
M  V30 226 O 23.7894 1.92546 0.252941 0
M  V30 227 C 20.9194 3.4728 0.0368783 0
M  V30 228 C 19.8734 4.19005 -0.872865 0
M  V30 229 C 19.1994 5.34637 -0.0822402 0
M  V30 230 C 20.4994 4.74452 -2.18387 0
M  V30 231 H 22.1934 2.59171 -1.49903 0
M  V30 232 H 19.7394 1.24579 -0.722222 0
M  V30 233 H 21.6924 4.20098 0.330958 0
M  V30 234 H 20.4164 3.12433 0.95149 0
M  V30 235 H 19.0754 3.48061 -1.15105 0
M  V30 236 H 18.7234 4.96034 0.83422 0
M  V30 237 H 18.4234 5.83557 -0.688149 0
M  V30 238 H 19.9474 6.10255 0.205238 0
M  V30 239 H 21.3614 5.39055 -1.95172 0
M  V30 240 H 19.7584 5.33834 -2.74119 0
M  V30 241 H 20.8284 3.92844 -2.84257 0
M  V30 242 N 22.1715 0.800033 1.35784 0
M  V30 243 C 23.1345 0.211565 2.28221 0
M  V30 244 C 24.1345 -0.59728 1.49296 0
M  V30 245 O 25.3245 -0.416721 1.69142 0
M  V30 246 C 22.4565 -0.705846 3.33513 0
M  V30 247 H 23.6495 1.02677 2.81776 0
M  V30 248 H 21.2025 0.570211 1.45528 0
M  V30 249 H 21.9375 -1.54498 2.85133 0
M  V30 250 H 21.7225 -0.127655 3.91892 0
M  V30 251 H 23.2125 -1.11211 4.02519 0
M  V30 252 N 23.6496 -1.47581 0.552962 0
M  V30 253 C 24.5826 -2.26883 -0.244857 0
M  V30 254 C 25.5606 -1.33784 -0.924147 0
M  V30 255 O 26.7446 -1.6316 -0.943981 0
M  V30 256 C 23.8716 -3.10695 -1.34856 0
M  V30 257 C 22.9176 -4.19339 -0.778268 0
M  V30 258 S 23.7506 -5.34207 0.37184 0
M  V30 259 C 24.9066 -6.21584 -0.733779 0
M  V30 260 H 25.1396 -2.94202 0.428087 0
M  V30 261 H 22.6726 -1.50628 0.339197 0
M  V30 262 H 24.6306 -3.59555 -1.98066 0
M  V30 263 H 23.2916 -2.42746 -1.99332 0
M  V30 264 H 22.4846 -4.77695 -1.60696 0
M  V30 265 H 22.0866 -3.73338 -0.222422 0
M  V30 266 H 24.3786 -6.57676 -1.62692 0
M  V30 267 H 25.3216 -7.07851 -0.187668 0
M  V30 268 H 25.7296 -5.55125 -1.02454 0
M  V30 269 N 25.1277 -0.289203 -1.54924 0
M  V30 270 C 26.0597 0.625583 -2.20497 0
M  V30 271 C 27.0727 1.10667 -1.19402 0
M  V30 272 O 28.2617 1.02615 -1.46056 0
M  V30 273 C 25.3617 1.86702 -2.82835 0
M  V30 274 C 24.5347 1.5304 -4.09753 0
M  V30 275 C 23.5937 2.62576 -4.56005 0
M  V30 276 O 22.6197 2.28167 -5.21468 0
M  V30 277 N 23.8217 3.92901 -4.27328 0
M  V30 278 H 26.5867 0.0642801 -2.99631 0
M  V30 279 H 24.1477 -0.110896 -1.6152 0
M  V30 280 H 26.1397 2.59304 -3.10715 0
M  V30 281 H 24.7097 2.33702 -2.07611 0
M  V30 282 H 23.9297 0.637564 -3.8901 0
M  V30 283 H 25.2177 1.28072 -4.92418 0
M  V30 284 H 24.6157 4.23671 -3.74859 0
M  V30 285 H 23.1727 4.61837 -4.59946 0
M  V30 286 N 26.6058 1.57591 -0.0167156 0
M  V30 287 C 28.0168 1.79201 0.523834 0
M  V30 288 C 28.3678 0.925796 1.72984 0
M  V30 289 O 27.4928 0.132792 2.15992 0
M  V30 290 C 28.0878 3.25 0.957091 0
M  V30 291 C 26.6468 3.47648 1.44283 0
M  V30 292 C 25.7938 2.74374 0.401757 0
M  V30 293 H 28.7448 1.56831 -0.242816 0
M  V30 294 H 28.7658 3.34031 1.82219 0
M  V30 295 H 28.2778 3.88019 0.0791415 0
M  V30 296 H 26.3788 2.89866 2.34113 0
M  V30 297 H 26.4918 4.56352 1.45877 0
M  V30 298 H 24.8558 2.39485 0.867121 0
M  V30 299 H 25.6388 3.40102 -0.467513 0
M  V30 300 N 28.0839 -0.256276 1.55502 0
M  V30 301 C 29.0469 -1.30047 1.88734 0
M  V30 302 C 30.0469 -1.4154 0.763086 0
M  V30 303 O 31.2369 -1.40403 1.03115 0
M  V30 304 C 28.3689 -2.67953 2.10747 0
M  V30 305 H 29.5619 -1.01802 2.82093 0
M  V30 306 H 27.1149 -0.495134 1.4825 0
M  V30 307 H 27.8499 -3.01351 1.19825 0
M  V30 308 H 27.6349 -2.60993 2.92617 0
M  V30 309 H 29.1249 -3.43368 2.37673 0
M  V30 310 N 29.562 -1.4872 -0.521534 0
M  V30 311 C 30.492 -1.66771 -1.63431 0
M  V30 312 C 31.473 -0.516499 -1.62069 0
M  V30 313 O 32.658 -0.750013 -1.79132 0
M  V30 314 C 29.788 -1.71515 -3.01993 0
M  V30 315 C 28.742 -2.86222 -3.18216 0
M  V30 316 C 28.068 -2.76061 -4.57924 0
M  V30 317 C 29.368 -4.27419 -3.00184 0
M  V30 318 H 31.062 -2.59932 -1.48579 0
M  V30 319 H 28.608 -1.25089 -0.713358 0
M  V30 320 H 30.561 -1.82731 -3.7972 0
M  V30 321 H 29.285 -0.749393 -3.17886 0
M  V30 322 H 27.944 -2.74575 -2.42908 0
M  V30 323 H 27.592 -1.77437 -4.70665 0
M  V30 324 H 27.292 -3.53037 -4.69722 0
M  V30 325 H 28.816 -2.89256 -5.37739 0
M  V30 326 H 30.23 -4.39855 -3.67697 0
M  V30 327 H 28.627 -5.05458 -3.2347 0
M  V30 328 H 29.697 -4.43293 -1.96518 0
M  V30 329 N 31.0401 0.771051 -1.3745 0
M  V30 330 C 32.0031 1.86598 -1.33093 0
M  V30 331 C 33.0031 1.59076 -0.234845 0
M  V30 332 O 34.1931 1.67145 -0.490732 0
M  V30 333 C 31.3251 3.23747 -1.06773 0
M  V30 334 H 32.5181 1.91873 -2.30488 0
M  V30 335 H 30.0711 0.970876 -1.2249 0
M  V30 336 H 30.8061 3.24148 -0.099129 0
M  V30 337 H 30.5911 3.45115 -1.86112 0
M  V30 338 H 32.0811 4.03824 -1.06377 0
M  V30 339 N 32.5182 1.22032 0.997298 0
M  V30 340 C 33.4502 0.944263 2.08845 0
M  V30 341 C 34.4632 -0.0754663 1.62625 0
M  V30 342 O 35.6522 0.157994 1.77799 0
M  V30 343 C 32.7522 0.397723 3.36558 0
M  V30 344 C 31.9252 1.47362 4.11829 0
M  V30 345 C 30.9842 0.934951 5.17827 0
M  V30 346 O 30.0102 1.62016 5.45655 0
M  V30 347 N 31.2122 -0.245895 5.79979 0
M  V30 348 H 33.9772 1.88363 2.33109 0
M  V30 349 H 31.5382 1.12661 1.16272 0
M  V30 350 H 33.5302 0.0227771 4.04694 0
M  V30 351 H 32.1002 -0.446646 3.09393 0
M  V30 352 H 31.3202 2.02208 3.38386 0
M  V30 353 H 32.6082 2.19764 4.58891 0
M  V30 354 H 32.0062 -0.819475 5.59733 0
M  V30 355 H 30.5632 -0.562272 6.4937 0
M  V30 356 N 33.9963 -1.19345 1.0293 0
M  V30 357 C 35.2733 -1.84811 0.640642 0
M  V30 358 C 35.6533 -1.91855 -0.88062 0
M  V30 359 O 35.0013 -1.43587 -1.7775 0
M  V30 360 C 35.2113 -3.23755 1.30321 0
M  V30 361 C 36.5593 -3.99912 1.42673 0
M  V30 362 O 37.5833 -3.33155 1.26041 0
M  V30 363 O 36.4423 -5.19494 1.6967 0
M  V30 364 H 33.5363 -0.796443 0.222726 0
M  V30 365 H 36.0823 -1.26831 1.12748 0
M  V30 366 H 34.8543 -3.13466 2.34211 0
M  V30 367 H 34.4773 -3.89381 0.804261 0
M  V30 368 N 35.4744 -0.807222 -1.35358 0
M  V30 369 C 36.7224 -0.387122 -1.98358 0
M  V30 370 C 37.0434 1.04942 -1.64354 0
M  V30 371 O 36.3134 1.72615 -0.926339 0
M  V30 372 H 34.8934 -0.140154 -0.733734 0
M  V30 373 H 37.5554 -1.0332 -1.6526 0
M  V30 374 H 36.6514 -0.493352 -3.08176 0
M  V30 375 N 36.9525 1.47285 -0.560781 0
M  V30 376 C 37.8625 2.33846 0.187954 0
M  V30 377 C 38.8785 1.48412 0.908293 0
M  V30 378 O 40.0545 1.81332 0.876388 0
M  V30 379 C 37.1195 3.25178 1.2025 0
M  V30 380 C 36.1805 4.26504 0.489208 0
M  V30 381 C 35.4135 5.13472 1.45542 0
M  V30 382 O 35.6365 5.02959 2.6905 0
M  V30 383 O 34.5705 5.93902 0.977963 0
M  V30 384 H 38.3965 2.99177 -0.522177 0
M  V30 385 H 35.9815 1.45903 -0.321364 0
M  V30 386 H 37.8635 3.81584 1.78805 0
M  V30 387 H 36.5385 2.6247 1.89449 0
M  V30 388 H 35.4455 3.73847 -0.137627 0
M  V30 389 H 36.7785 4.91935 -0.161399 0
M  V30 390 N 38.4306 0.297415 1.54768 0
M  V30 391 C 39.3936 -0.567375 2.22066 0
M  V30 392 C 40.3936 -1.06409 1.20556 0
M  V30 393 O 41.5836 -0.960691 1.45315 0
M  V30 394 C 38.7156 -1.78517 2.90421 0
M  V30 395 H 39.9086 0.0205534 2.99893 0
M  V30 396 H 37.4616 0.0482163 1.56226 0
M  V30 397 H 38.1966 -2.41303 2.16664 0
M  V30 398 H 37.9816 -1.43669 3.64831 0
M  V30 399 H 39.4716 -2.39964 3.41771 0
M  V30 400 N 39.9087 -1.5758 0.0250728 0
M  V30 401 C 40.8387 -2.13007 -0.956575 0
M  V30 402 C 41.8197 -1.0452 -1.342 0
M  V30 403 O 43.0047 -1.32332 -1.42133 0
M  V30 404 C 40.1347 -2.65386 -2.24026 0
M  V30 405 C 39.0887 -3.78623 -1.99571 0
M  V30 406 C 38.4147 -4.17414 -3.3417 0
M  V30 407 C 39.7147 -5.04867 -1.33814 0
M  V30 408 H 41.4087 -2.9528 -0.494991 0
M  V30 409 H 38.9547 -1.42042 -0.236651 0
M  V30 410 H 40.9077 -3.02794 -2.93076 0
M  V30 411 H 39.6317 -1.80268 -2.72343 0
M  V30 412 H 38.2907 -3.41646 -1.32941 0
M  V30 413 H 37.9387 -3.29284 -3.80238 0
M  V30 414 H 37.6387 -4.93719 -3.18615 0
M  V30 415 H 39.1627 -4.57402 -4.04495 0
M  V30 416 H 40.5767 -5.39888 -1.92857 0
M  V30 417 H 38.9737 -5.86144 -1.28669 0
M  V30 418 H 40.0437 -4.83904 -0.310561 0
M  V30 419 N 41.3868 0.248026 -1.55636 0
M  V30 420 C 42.6338 0.976224 -1.77415 0
M  V30 421 C 42.9618 1.85361 -0.589193 0
M  V30 422 O 42.2168 1.90973 0.427529 0
M  V30 423 C 42.5158 1.86819 -3.04686 0
M  V30 424 C 42.1818 1.14625 -4.36087 0
M  V30 425 C 40.8438 0.946723 -4.71795 0
M  V30 426 C 43.1958 0.634463 -5.17324 0
M  V30 427 C 40.5238 0.223091 -5.86276 0
M  V30 428 C 42.8758 -0.0756959 -6.32555 0
M  V30 429 C 41.5398 -0.286711 -6.66884 0
M  V30 430 H 40.8098 0.357226 -0.649208 0
M  V30 431 H 43.4568 0.246415 -1.89908 0
M  V30 432 H 41.7618 2.66502 -2.872 0
M  V30 433 H 43.4588 2.43329 -3.18735 0
M  V30 434 H 40.0488 1.3117 -4.08035 0
M  V30 435 H 44.2328 0.77616 -4.90193 0
M  V30 436 H 39.4888 0.0491185 -6.1138 0
M  V30 437 H 43.6628 -0.479899 -6.94745 0
M  V30 438 H 41.2898 -0.849389 -7.5544 0
M  V30 439 N 42.8649 1.48995 0.513639 0
M  V30 440 C 43.8119 1.6473 1.61656 0
M  V30 441 C 44.7819 0.488984 1.58739 0
M  V30 442 O 45.9669 0.714478 1.76918 0
M  V30 443 C 43.1069 1.7082 2.99858 0
M  V30 444 C 42.2199 2.9787 3.12885 0
M  V30 445 C 41.3549 2.95017 4.41744 0
M  V30 446 C 40.3939 4.16702 4.48359 0
M  V30 447 N 39.5309 4.11832 5.68629 0
M  V30 448 H 44.3709 2.58909 1.47547 0
M  V30 449 H 41.9079 1.28382 0.71808 0
M  V30 450 H 43.8659 1.72331 3.79944 0
M  V30 451 H 42.4959 0.801181 3.12699 0
M  V30 452 H 41.5479 3.06029 2.25944 0
M  V30 453 H 42.8599 3.8786 3.13633 0
M  V30 454 H 42.0139 2.95021 5.30139 0
M  V30 455 H 40.7529 2.02784 4.43542 0
M  V30 456 H 39.7579 4.16955 3.58369 0
M  V30 457 H 40.9829 5.10113 4.48287 0
M  V30 458 H 38.9289 3.22428 5.71293 0
M  V30 459 H 38.8459 4.95543 5.7094 0
M  V30 460 H 40.1139 4.1592 6.59266 0
M  V30 461 N 44.343 -0.763751 1.37857 0
M  V30 462 C 45.568 -1.55805 1.36893 0
M  V30 463 C 45.993 -1.88054 -0.0416135 0
M  V30 464 O 45.351 -1.49825 -1.02089 0
M  V30 465 C 45.399 -2.84012 2.22192 0
M  V30 466 O 44.503 -3.78732 1.63204 0
M  V30 467 H 43.844 -0.471638 0.46739 0
M  V30 468 H 46.374 -0.944657 1.81487 0
M  V30 469 H 46.384 -3.33037 2.35691 0
M  V30 470 H 45.059 -2.59869 3.24716 0
M  V30 471 H 43.636 -3.37402 1.58791 0
M  V30 472 N 45.8211 -1.22559 -0.990812 0
M  V30 473 C 46.7681 -0.997519 -2.0813 0
M  V30 474 C 47.7381 0.0814702 -1.659 0
M  V30 475 O 48.9231 -0.0685424 -1.90677 0
M  V30 476 C 46.0631 -0.583615 -3.40129 0
M  V30 477 C 45.1761 -1.7336 -3.9569 0
M  V30 478 C 44.3111 -1.26748 -5.15857 0
M  V30 479 C 43.3501 -2.38888 -5.63559 0
M  V30 480 N 42.4871 -1.93308 -6.74964 0
M  V30 481 H 47.3271 -1.93099 -2.26973 0
M  V30 482 H 44.8641 -0.962114 -1.11273 0
M  V30 483 H 46.8221 -0.324801 -4.15934 0
M  V30 484 H 45.4521 0.312845 -3.2128 0
M  V30 485 H 44.5041 -2.10669 -3.16738 0
M  V30 486 H 45.8161 -2.57704 -4.27071 0
M  V30 487 H 44.9701 -0.966173 -5.98957 0
M  V30 488 H 43.7091 -0.394272 -4.86104 0
M  V30 489 H 42.7141 -2.69805 -4.79046 0
M  V30 490 H 43.9391 -3.26728 -5.95336 0
M  V30 491 H 41.8851 -1.08352 -6.4699 0
M  V30 492 H 41.8021 -2.71217 -7.05675 0
M  V30 493 H 43.0701 -1.66252 -7.61564 0
M  V30 494 N 47.2992 1.18797 -1.03562 0
M  V30 495 C 48.7102 1.70322 -0.764676 0
M  V30 496 C 49.0612 1.82708 0.714996 0
M  V30 497 O 48.1862 1.50299 1.55689 0
M  V30 498 C 48.7812 3.09356 -1.38145 0
M  V30 499 C 47.3402 3.58114 -1.15895 0
M  V30 500 C 46.4872 2.34798 -1.4753 0
M  V30 501 H 49.4382 1.03543 -1.20268 0
M  V30 502 H 49.4592 3.72378 -0.781977 0
M  V30 503 H 48.9712 3.00309 -2.45837 0
M  V30 504 H 47.0722 3.72464 -0.100544 0
M  V30 505 H 47.1852 4.4184 -1.8524 0
M  V30 506 H 45.5492 2.38464 -0.894829 0
M  V30 507 H 46.3322 2.28375 -2.56319 0
M  V30 508 N 48.7773 0.814389 1.34928 0
M  V30 509 C 50.0173 0.404165 2.00364 0
M  V30 510 C 50.3813 -1.01166 1.63185 0
M  V30 511 O 51.5823 -1.52431 2.21401 0
M  V30 512 C 49.8533 0.590718 3.52484 0
M  V30 513 S 51.4123 0.272075 4.37956 0
M  V30 514 H 48.2303 0.15311 0.694319 0
M  V30 515 H 50.8323 1.05834 1.64376 0
M  V30 516 H 49.5363 1.62099 3.77031 0
M  V30 517 H 49.0673 -0.0785013 3.93322 0
M  V30 518 H 51.0823 -0.917405 4.87645 0
M  V30 519 N 50.2554 -1.46986 0.568584 0
M  V30 520 C 51.2184 -2.28624 -0.162366 0
M  V30 521 C 52.2184 -1.37596 -0.832103 0
M  V30 522 O 53.4084 -1.60115 -0.68622 0
M  V30 523 C 50.5404 -3.17596 -1.23878 0
M  V30 524 H 51.7334 -2.94722 0.554899 0
M  V30 525 H 49.2864 -1.52863 0.325976 0
M  V30 526 H 50.0214 -2.56214 -1.98808 0
M  V30 527 H 49.8064 -3.846 -0.763219 0
M  V30 528 H 51.2964 -3.79078 -1.75185 0
M  V30 529 N 51.7335 -0.305618 -1.54608 0
M  V30 530 C 52.6965 0.555591 -2.22364 0
M  V30 531 C 53.6965 1.05768 -1.21119 0
M  V30 532 O 54.8865 0.952972 -1.45822 0
M  V30 533 C 52.0185 1.76974 -2.91364 0
M  V30 534 H 53.2115 -0.0364572 -2.99878 0
M  V30 535 H 50.7645 -0.0565007 -1.56198 0
M  V30 536 H 51.4995 2.40151 -2.17941 0
M  V30 537 H 51.2845 1.41732 -3.65588 0
M  V30 538 H 52.7745 2.38148 -3.43038 0
M  V30 539 N 53.2116 1.57565 -0.0334293 0
M  V30 540 C 54.4516 1.93844 0.648379 0
M  V30 541 C 54.8156 0.910387 1.69044 0
M  V30 542 O 56.0166 1.15952 2.42505 0
M  V30 543 C 54.2876 3.35017 1.24492 0
M  V30 544 S 55.8466 3.93229 1.94721 0
M  V30 545 H 52.6646 0.678231 0.213364 0
M  V30 546 H 55.2666 1.95254 -0.0981253 0
M  V30 547 H 53.9706 4.07652 0.474128 0
M  V30 548 H 53.5016 3.37061 2.02864 0
M  V30 549 H 55.5166 3.77014 3.22606 0
M  V30 550 N 54.6897 -0.239769 1.55765 0
M  V30 551 C 55.6397 -1.30002 1.87306 0
M  V30 552 C 56.6237 -1.43156 0.73452 0
M  V30 553 O 57.8157 -1.46277 0.99659 0
M  V30 554 C 54.9447 -2.65409 2.17745 0
M  V30 555 C 54.0307 -2.56231 3.37945 0
M  V30 556 N 54.4217 -2.16689 4.57033 0
M  V30 557 C 52.7197 -2.87229 3.41197 0
M  V30 558 C 53.4207 -2.18318 5.39177 0
M  V30 559 N 52.3967 -2.58098 4.78421 0
M  V30 560 H 56.1987 -0.984912 2.76906 0
M  V30 561 H 53.7127 -0.448381 1.56087 0
M  V30 562 H 55.7097 -3.41934 2.38509 0
M  V30 563 H 54.3697 -2.97781 1.29448 0
M  V30 564 H 55.3807 -1.88116 4.82528 0
M  V30 565 H 52.0577 -3.24094 2.63191 0
M  V30 566 H 53.4477 -1.90025 6.44469 0
M  V30 567 N 56.1678 -1.49265 -0.50573 0
M  V30 568 C 57.3928 -1.62478 -1.28902 0
M  V30 569 C 57.8178 -0.294332 -1.85783 0
M  V30 570 O 57.1758 0.737412 -1.65626 0
M  V30 571 C 57.2238 -2.69268 -2.39848 0
M  V30 572 O 56.3278 -2.28113 -3.43567 0
M  V30 573 H 55.6688 -0.54399 -0.380751 0
M  V30 574 H 58.1988 -1.95421 -0.605952 0
M  V30 575 H 58.2088 -2.91291 -2.85681 0
M  V30 576 H 56.8838 -3.65846 -1.97812 0
M  V30 577 H 55.4608 -2.16401 -3.03685 0
M  V30 578 N 57.6459 0.756429 -1.3826 0
M  V30 579 C 58.8919 1.51772 -1.34511 0
M  V30 580 C 59.2249 1.94089 0.0656691 0
M  V30 581 O 58.4999 1.65221 1.02626 0
M  V30 582 C 58.7829 2.77226 -2.29821 0
M  V30 583 C 58.6359 2.41065 -3.79747 0
M  V30 584 C 59.9549 3.79236 -2.23312 0
M  V30 585 H 57.0739 0.550578 -0.489931 0
M  V30 586 H 59.7159 0.866607 -1.69086 0
M  V30 587 H 57.8659 3.32784 -2.00467 0
M  V30 588 H 59.5379 1.91303 -4.19763 0
M  V30 589 H 57.7809 1.7356 -3.97567 0
M  V30 590 H 58.4519 3.3081 -4.41892 0
M  V30 591 H 60.9279 3.3321 -2.49219 0
M  V30 592 H 59.8039 4.64714 -2.92116 0
M  V30 593 H 60.0649 4.24615 -1.23102 0
M  V30 594 N 59.124 1.23083 0.984299 0
M  V30 595 C 60.401 0.9689 1.69917 0
M  V30 596 C 60.781 -0.513604 2.04757 0
M  V30 597 O 60.129 -1.48383 1.73767 0
M  V30 598 C 60.339 1.87518 2.94343 0
M  V30 599 C 61.687 2.13636 3.6694 0
M  V30 600 O 62.711 1.85036 3.04368 0
M  V30 601 O 61.57 2.62119 4.79537 0
M  V30 602 H 58.664 0.365095 0.742048 0
M  V30 603 H 61.21 1.34107 1.03987 0
M  V30 604 H 59.982 2.87756 2.65164 0
M  V30 605 H 59.605 1.50514 3.6801 0
M  V30 606 N 60.6021 -1.18246 1.0419 0
M  V30 607 C 61.8301 -1.92195 0.766072 0
M  V30 608 C 62.2451 -1.76247 -0.676933 0
M  V30 609 O 61.6021 -1.09293 -1.46155 0
M  V30 610 C 61.6531 -3.43568 1.12442 0
M  V30 611 O 61.3741 -3.59015 2.51078 0
M  V30 612 C 62.8751 -4.34613 0.873275 0
M  V30 613 H 60.0951 -0.610114 0.279288 0
M  V30 614 H 62.6391 -1.50007 1.38989 0
M  V30 615 H 60.7941 -3.8354 0.545542 0
M  V30 616 H 61.2081 -4.5273 2.64831 0
M  V30 617 H 62.6821 -5.39374 1.17385 0
M  V30 618 H 63.1591 -4.38781 -0.191909 0
M  V30 619 H 63.7651 -4.00341 1.43551 0
M  V30 620 N 62.0802 -0.821533 -1.34494 0
M  V30 621 C 63.0272 -0.240397 -2.29545 0
M  V30 622 C 63.9972 0.634031 -1.53523 0
M  V30 623 O 65.1822 0.575966 -1.81899 0
M  V30 624 C 62.3222 0.592869 -3.39969 0
M  V30 625 C 61.4352 -0.30365 -4.30932 0
M  V30 626 C 60.5702 0.539049 -5.28458 0
M  V30 627 C 59.6092 -0.356942 -6.11058 0
M  V30 628 N 58.7462 0.446603 -7.00678 0
M  V30 629 H 63.5862 -1.05632 -2.7865 0
M  V30 630 H 61.1232 -0.532413 -1.37127 0
M  V30 631 H 63.0812 1.09129 -4.02675 0
M  V30 632 H 61.7112 1.37392 -2.92102 0
M  V30 633 H 60.7632 -0.920276 -3.691 0
M  V30 634 H 62.0752 -0.992661 -4.88823 0
M  V30 635 H 61.2292 1.102 -5.96608 0
M  V30 636 H 59.9682 1.26157 -4.71101 0
M  V30 637 H 58.9732 -0.932047 -5.41842 0
M  V30 638 H 60.1982 -1.07755 -6.70497 0
M  V30 639 H 58.1442 1.15282 -6.45791 0
M  V30 640 H 58.0612 -0.184048 -7.55776 0
M  V30 641 H 59.3292 0.992352 -7.73158 0
M  V30 642 N 63.5583 1.46682 -0.576371 0
M  V30 643 C 64.4913 2.27243 0.208731 0
M  V30 644 C 65.4693 1.35238 0.902746 0
M  V30 645 O 66.6533 1.64641 0.917904 0
M  V30 646 C 63.7803 3.12802 1.29896 0
M  V30 647 C 62.8263 4.20524 0.711457 0
M  V30 648 S 63.6593 5.33548 -0.456781 0
M  V30 649 C 64.8153 6.22673 0.634798 0
M  V30 650 H 65.0483 2.93484 -0.474838 0
M  V30 651 H 62.5813 1.50069 -0.363118 0
M  V30 652 H 64.5393 3.62661 1.92321 0
M  V30 653 H 63.2003 2.45887 1.95444 0
M  V30 654 H 62.3933 4.80191 1.53076 0
M  V30 655 H 61.9953 3.73645 0.162999 0
M  V30 656 H 64.2873 6.60181 1.52209 0
M  V30 657 H 65.2303 7.0806 0.0750311 0
M  V30 658 H 65.6383 5.56684 0.936092 0
M  V30 659 N 65.0364 0.313813 1.54444 0
M  V30 660 C 66.2824 -0.292108 2.00685 0
M  V30 661 C 66.6154 -1.52548 1.20177 0
M  V30 662 O 65.8904 -1.92452 0.281531 0
M  V30 663 C 66.1734 -0.635968 3.5444 0
M  V30 664 C 66.0264 0.607437 4.4568 0
M  V30 665 C 67.3454 -1.45747 4.15266 0
M  V30 666 H 64.4644 -0.104697 0.729526 0
M  V30 667 H 67.1064 0.428457 1.85106 0
M  V30 668 H 65.2564 -1.24986 3.67846 0
M  V30 669 H 66.9284 1.24581 4.44159 0
M  V30 670 H 65.1714 1.23822 4.15753 0
M  V30 671 H 65.8424 0.322515 5.51057 0
M  V30 672 H 68.3184 -0.938645 4.05375 0
M  V30 673 H 67.1944 -1.66683 5.2298 0
M  V30 674 H 67.4554 -2.45063 3.67963 0
M  V30 675 N 66.5145 -1.57545 0.0417849 0
M  V30 676 C 67.7625 -1.91937 -0.632829 0
M  V30 677 C 68.0835 -0.919978 -1.71934 0
M  V30 678 O 67.3535 0.0366064 -1.95866 0
M  V30 679 H 65.9335 -0.708493 -0.236742 0
M  V30 680 H 68.5955 -1.9468 0.0925745 0
M  V30 681 H 67.6915 -2.92912 -1.07746 0
M  V30 682 N 67.9926 0.231505 -1.5589 0
M  V30 683 C 69.4036 0.799327 -1.68724 0
M  V30 684 C 69.7546 1.85398 -0.642022 0
M  V30 685 O 68.8796 2.1539 0.208784 0
M  V30 686 C 69.4746 1.45664 -3.05888 0
M  V30 687 C 68.0336 1.97197 -3.20609 0
M  V30 688 C 67.1806 0.828552 -2.64632 0
M  V30 689 H 70.1316 0.00702616 -1.58698 0
M  V30 690 H 70.1526 2.32517 -3.01191 0
M  V30 691 H 69.6646 0.688808 -3.81939 0
M  V30 692 H 67.7656 2.76813 -2.4941 0
M  V30 693 H 67.8786 2.15878 -4.27707 0
M  V30 694 H 66.2426 1.23321 -2.22854 0
M  V30 695 H 67.0256 0.0735544 -3.43221 0
M  V30 696 N 69.4707 1.49531 0.497807 0
M  V30 697 C 70.4337 1.65916 1.58128 0
M  V30 698 C 71.4337 0.530825 1.51786 0
M  V30 699 O 72.6237 0.797342 1.54881 0
M  V30 700 C 69.7557 1.65951 2.9778 0
M  V30 701 H 70.9487 2.62556 1.44929 0
M  V30 702 H 68.5017 1.38611 0.722275 0
M  V30 703 H 69.2367 0.709065 3.16453 0
M  V30 704 H 69.0217 2.47897 3.03792 0
M  V30 705 H 70.5117 1.80673 3.76493 0
M  V30 706 N 70.9488 -0.749086 1.3866 0
M  V30 707 C 71.8788 -1.8764 1.38973 0
M  V30 708 C 72.8598 -1.68178 0.255004 0
M  V30 709 O 74.0448 -1.88704 0.458754 0
M  V30 710 C 71.1748 -3.25222 1.21851 0
M  V30 711 C 70.1288 -3.59295 2.32575 0
M  V30 712 C 69.4548 -4.95663 2.00555 0
M  V30 713 C 70.7548 -3.63709 3.7485 0
M  V30 714 H 72.4488 -1.87635 2.3331 0
M  V30 715 H 69.9948 -0.901329 1.12303 0
M  V30 716 H 71.9478 -4.03746 1.20695 0
M  V30 717 H 70.6718 -3.25719 0.239775 0
M  V30 718 H 69.3308 -2.83093 2.32925 0
M  V30 719 H 68.9788 -4.92724 1.01154 0
M  V30 720 H 68.6788 -5.19429 2.74714 0
M  V30 721 H 70.2028 -5.7656 2.01024 0
M  V30 722 H 71.6168 -4.32338 3.76506 0
M  V30 723 H 70.0138 -3.98986 4.48252 0
M  V30 724 H 71.0838 -2.63834 4.06841 0
M  V30 725 N 72.4269 -1.23603 -0.977757 0
M  V30 726 C 73.3739 -1.01954 -2.07061 0
M  V30 727 C 74.3439 0.0638697 -1.65977 0
M  V30 728 O 75.5289 -0.0887624 -1.90593 0
M  V30 729 C 72.6689 -0.619658 -3.39491 0
M  V30 730 C 71.7819 -1.77547 -3.93829 0
M  V30 731 C 70.9169 -1.32212 -5.14484 0
M  V30 732 C 69.9559 -2.44852 -5.60994 0
M  V30 733 N 69.0929 -2.00456 -6.72876 0
M  V30 734 H 73.9329 -1.95495 -2.24913 0
M  V30 735 H 71.4699 -0.973861 -1.10247 0
M  V30 736 H 73.4279 -0.368898 -4.15566 0
M  V30 737 H 72.0579 0.278752 -3.21594 0
M  V30 738 H 71.1099 -2.14016 -3.14486 0
M  V30 739 H 72.4219 -2.62219 -4.24314 0
M  V30 740 H 71.5759 -1.02965 -5.97899 0
M  V30 741 H 70.3149 -0.445808 -4.85658 0
M  V30 742 H 69.3199 -2.74871 -4.76157 0
M  V30 743 H 70.5449 -3.33024 -5.91837 0
M  V30 744 H 68.4909 -1.15208 -6.45804 0
M  V30 745 H 68.4079 -2.78687 -7.02759 0
M  V30 746 H 69.6759 -1.7432 -7.59758 0
M  V30 747 N 73.905 1.17692 -1.04816 0
M  V30 748 C 74.815 2.25229 -0.65643 0
M  V30 749 C 75.831 1.71018 0.320761 0
M  V30 750 O 77.007 2.00649 0.173805 0
M  V30 751 C 74.072 3.46684 -0.0332629 0
M  V30 752 C 73.133 4.15997 -1.06042 0
M  V30 753 C 72.366 5.31654 -0.466893 0
M  V30 754 O 72.589 5.65777 0.724758 0
M  V30 755 O 71.523 5.89831 -1.1993 0
M  V30 756 H 75.349 2.61016 -1.55255 0
M  V30 757 H 72.934 1.24919 -0.81949 0
M  V30 758 H 74.816 4.20234 0.313256 0
M  V30 759 H 73.491 3.12703 0.836566 0
M  V30 760 H 72.398 3.44482 -1.45886 0
M  V30 761 H 73.731 4.53996 -1.90127 0
M  V30 762 N 75.3831 0.828654 1.34056 0
M  V30 763 C 76.6291 0.42008 1.98402 0
M  V30 764 C 76.9621 -1.01564 1.65525 0
M  V30 765 O 76.2371 -1.70834 0.929831 0
M  V30 766 C 76.5201 0.62927 3.54559 0
M  V30 767 C 76.3731 2.11152 3.97159 0
M  V30 768 C 77.6921 0.0688756 4.40046 0
M  V30 769 H 74.8111 0.154104 0.720709 0
M  V30 770 H 77.4531 1.04228 1.5886 0
M  V30 771 H 75.6031 0.0996418 3.88372 0
M  V30 772 H 77.2751 2.70522 3.73651 0
M  V30 773 H 75.5181 2.59985 3.47261 0
M  V30 774 H 76.1891 2.20868 5.05887 0
M  V30 775 H 78.6651 0.521458 4.1282 0
M  V30 776 H 77.5411 0.245006 5.48353 0
M  V30 777 H 77.8021 -1.0266 4.30015 0
M  V30 778 N 76.8612 -1.46375 0.584142 0
M  V30 779 C 77.8242 -2.28784 -0.138108 0
M  V30 780 C 78.8242 -1.38471 -0.817462 0
M  V30 781 O 80.0142 -1.60833 -0.669199 0
M  V30 782 C 77.1462 -3.18892 -1.20503 0
M  V30 783 H 78.3392 -2.94117 0.586127 0
M  V30 784 H 75.8922 -1.52509 0.342171 0
M  V30 785 H 76.6272 -2.58309 -1.96079 0
M  V30 786 H 76.4122 -3.85388 -0.722384 0
M  V30 787 H 77.9022 -3.80914 -1.71155 0
M  V30 788 N 78.3393 -0.321999 -1.54275 0
M  V30 789 C 79.3023 0.531975 -2.22941 0
M  V30 790 C 80.3023 1.04478 -1.22234 0
M  V30 791 O 81.4923 0.937452 -1.46825 0
M  V30 792 C 78.6243 1.73874 -2.93224 0
M  V30 793 H 79.8173 -0.0682612 -2.99822 0
M  V30 794 H 77.3703 -0.0730644 -1.56129 0
M  V30 795 H 78.1053 2.37825 -2.20476 0
M  V30 796 H 77.8903 1.37847 -3.6707 0
M  V30 797 H 79.3803 2.34496 -3.45545 0
M  V30 798 N 79.8174 1.5752 -0.0501392 0
M  V30 799 C 80.7644 2.1147 0.924603 0
M  V30 800 C 81.7344 1.02182 1.30951 0
M  V30 801 O 82.9194 1.29723 1.39916 0
M  V30 802 C 80.0594 2.66337 2.19451 0
M  V30 803 C 79.1724 3.89708 1.86418 0
M  V30 804 C 78.3074 4.32893 3.07859 0
M  V30 805 C 77.3464 5.48967 2.70742 0
M  V30 806 N 76.4834 5.87211 3.84874 0
M  V30 807 H 81.3234 2.94465 0.457639 0
M  V30 808 H 78.8604 1.45531 0.214266 0
M  V30 809 H 80.8184 2.96247 2.93758 0
M  V30 810 H 79.4484 1.86141 2.63726 0
M  V30 811 H 78.5004 3.66396 1.02264 0
M  V30 812 H 79.8124 4.74074 1.55096 0
M  V30 813 H 78.9664 4.6435 3.90466 0
M  V30 814 H 77.7054 3.47336 3.42358 0
M  V30 815 H 76.7104 5.17183 1.86551 0
M  V30 816 H 77.9354 6.3624 2.37436 0
M  V30 817 H 75.8814 5.04607 4.19175 0
M  V30 818 H 75.7984 6.66266 3.57247 0
M  V30 819 H 77.0664 6.23282 4.68123 0
M  V30 820 N 81.2955 -0.223234 1.56011 0
M  V30 821 C 82.2435 -1.29627 1.93131 0
M  V30 822 C 83.2375 -1.48608 0.813146 0
M  V30 823 O 84.4435 -1.49802 0.997966 0
M  V30 824 H 80.8185 -0.434563 0.613726 0
M  V30 825 H 82.7895 -0.955995 2.82672 0
M  V30 826 C 81.5385 -2.63983 2.26292 0
M  V30 827 H 80.8615 -2.50185 3.11846 0
M  V30 828 H 82.3015 -3.3788 2.56151 0
M  V30 829 C 80.7605 -3.18866 1.08747 0
M  V30 830 O 81.2905 -4.00192 0.347727 0
M  V30 831 N 79.4965 -2.77217 0.871743 0
M  V30 832 H 79.0435 -2.1119 1.47501 0
M  V30 833 H 79.0015 -3.1428 0.0869905 0
M  V30 834 N 82.7736 -1.49793 -0.48987 0
M  V30 835 C 83.7366 -1.66752 -1.57246 0
M  V30 836 C 84.7366 -0.538867 -1.51502 0
M  V30 837 O 85.9266 -0.805545 -1.54456 0
M  V30 838 C 83.0586 -1.67528 -2.96896 0
M  V30 839 H 84.2516 -2.63321 -1.43534 0
M  V30 840 H 81.8046 -1.38992 -0.714914 0
M  V30 841 H 82.5396 -0.725837 -3.16073 0
M  V30 842 H 82.3246 -2.49504 -3.02473 0
M  V30 843 H 83.8146 -1.82667 -3.7553 0
M  V30 844 N 84.2517 0.741722 -1.39055 0
M  V30 845 C 85.4997 1.49818 -1.35643 0
M  V30 846 C 85.8207 1.94938 0.0491642 0
M  V30 847 O 85.0907 1.68505 0.999141 0
M  V30 848 H 83.6707 0.555755 -0.499144 0
M  V30 849 H 86.3327 0.880957 -1.73854 0
M  V30 850 H 85.4287 2.38348 -2.01486 0
M  V30 851 N 85.7298 1.2412 0.971189 0
M  V30 852 C 86.9758 1.08041 1.71625 0
M  V30 853 C 87.3088 -0.380407 1.90438 0
M  V30 854 O 86.5838 -1.28127 1.46334 0
M  V30 855 C 86.8668 1.81682 3.10908 0
M  V30 856 C 86.7198 3.35493 2.99608 0
M  V30 857 C 88.0388 1.58671 4.10501 0
M  V30 858 H 85.1578 0.39388 0.622919 0
M  V30 859 H 87.7998 1.52743 1.13003 0
M  V30 860 H 85.9498 1.43684 3.60953 0
M  V30 861 H 87.6218 3.83068 2.57015 0
M  V30 862 H 85.8648 3.64052 2.35899 0
M  V30 863 H 86.5358 3.82217 3.98264 0
M  V30 864 H 89.0118 1.91719 3.69301 0
M  V30 865 H 87.8878 2.1266 5.06031 0
M  V30 866 H 88.1488 0.524161 4.38982 0
M  V30 867 N 87.2079 -1.17134 1.05439 0
M  V30 868 C 88.1179 -2.24878 0.668365 0
M  V30 869 C 89.1339 -1.71186 -0.311687 0
M  V30 870 O 90.3099 -2.00738 -0.163161 0
M  V30 871 C 87.3749 -3.46662 0.051648 0
M  V30 872 C 86.4359 -4.15429 1.08246 0
M  V30 873 C 85.6689 -5.31399 0.495082 0
M  V30 874 O 85.8919 -5.66153 -0.694743 0
M  V30 875 O 84.8259 -5.89187 1.23056 0
M  V30 876 H 88.6519 -2.60189 1.56637 0
M  V30 877 H 86.2369 -1.24482 0.826104 0
M  V30 878 H 88.1189 -4.20394 -0.290966 0
M  V30 879 H 86.7939 -3.13142 -0.819971 0
M  V30 880 H 85.7009 -3.43704 1.47711 0
M  V30 881 H 87.0339 -4.52982 1.92532 0
M  V30 882 N 88.686 -0.835752 -1.33615 0
M  V30 883 C 89.934 -0.429109 -1.97492 0
M  V30 884 C 90.255 1.01433 -1.66543 0
M  V30 885 O 89.525 1.70611 -0.962744 0
M  V30 886 H 88.105 -0.155686 -0.730596 0
M  V30 887 H 90.767 -1.06802 -1.63031 0
M  V30 888 H 89.863 -0.55861 -3.0706 0
M  V30 889 N 90.1641 1.46063 -0.591896 0
M  V30 890 C 91.1271 2.28854 0.125973 0
M  V30 891 C 92.1271 1.38903 0.810107 0
M  V30 892 O 93.3171 1.61186 0.66066 0
M  V30 893 C 90.4491 3.19526 1.1881 0
M  V30 894 H 91.6421 2.93802 -0.601717 0
M  V30 895 H 89.1951 1.52325 -0.350254 0
M  V30 896 H 89.9301 2.59345 1.94707 0
M  V30 897 H 89.7151 3.85766 0.701936 0
M  V30 898 H 91.2051 3.81817 1.69132 0
M  V30 899 N 91.6422 0.330177 1.54103 0
M  V30 900 C 92.6052 -0.520144 2.2322 0
M  V30 901 C 93.6052 -1.03828 1.22786 0
M  V30 902 O 94.7952 -0.929652 1.4732 0
M  V30 903 C 91.9272 -1.72317 2.94142 0
M  V30 904 H 93.1202 0.0841605 2.99782 0
M  V30 905 H 90.6732 0.0813433 1.56088 0
M  V30 906 H 91.4082 -2.36653 2.21734 0
M  V30 907 H 91.1932 -1.35898 3.67796 0
M  V30 908 H 92.6832 -2.3266 3.46784 0
M  V30 909 N 93.1203 -1.57491 0.0584922 0
M  V30 910 C 94.3973 -1.84346 -0.653918 0
M  V30 911 C 94.7773 -0.948355 -1.88599 0
M  V30 912 O 94.1253 -0.0112403 -2.28497 0
M  V30 913 C 94.3353 -3.34239 -1.00425 0
M  V30 914 C 95.6833 -4.01431 -1.38342 0
M  V30 915 O 96.7073 -3.38907 -1.09637 0
M  V30 916 O 95.5663 -5.11683 -1.91943 0
M  V30 917 H 92.6603 -0.761112 -0.323478 0
M  V30 918 H 95.2063 -1.6947 0.0884125 0
M  V30 919 H 93.9783 -3.91089 -0.128625 0
M  V30 920 H 93.6013 -3.54329 -1.80378 0
M  V30 921 N 94.5984 0.214957 -1.56127 0
M  V30 922 C 95.8264 0.955092 -1.83536 0
M  V30 923 C 96.2414 1.77677 -0.638472 0
M  V30 924 O 95.5984 1.78219 0.392968 0
M  V30 925 C 95.6494 1.86734 -3.09536 0
M  V30 926 O 95.3704 1.07887 -4.24608 0
M  V30 927 C 96.8714 2.72082 -3.4998 0
M  V30 928 H 94.0914 0.279611 -0.609966 0
M  V30 929 H 96.6354 0.228197 -2.03223 0
M  V30 930 H 94.7904 2.5481 -2.91806 0
M  V30 931 H 95.2044 1.69872 -4.9623 0
M  V30 932 H 96.6784 3.31782 -4.41163 0
M  V30 933 H 97.1554 3.44806 -2.7204 0
M  V30 934 H 97.7614 2.09409 -3.70173 0
M  V30 935 N 96.0765 1.50051 0.48192 0
M  V30 936 C 97.0065 1.71046 1.58951 0
M  V30 937 C 97.9875 0.559288 1.60642 0
M  V30 938 O 99.1725 0.797243 1.77081 0
M  V30 939 C 96.3025 1.79462 2.97339 0
M  V30 940 C 95.2565 2.94558 3.10515 0
M  V30 941 C 94.5825 2.88105 4.50444 0
M  V30 942 C 95.8825 4.35227 2.88747 0
M  V30 943 H 97.5765 2.6378 1.41635 0
M  V30 944 H 95.1225 1.26936 0.679942 0
M  V30 945 H 97.0755 1.92734 3.74742 0
M  V30 946 H 95.7995 0.833412 3.15788 0
M  V30 947 H 94.4585 2.80918 2.35543 0
M  V30 948 H 94.1065 1.89853 4.65795 0
M  V30 949 H 93.8065 3.65366 4.60197 0
M  V30 950 H 95.3305 3.03412 5.29881 0
M  V30 951 H 96.7445 4.49449 3.55905 0
M  V30 952 H 95.1415 5.13856 3.09955 0
M  V30 953 H 96.2115 4.48347 1.84696 0
M  V30 954 N 97.5546 -0.734337 1.39446 0
M  V30 955 C 98.5176 -1.83004 1.37994 0
M  V30 956 C 99.5176 -1.58397 0.276938 0
M  V30 957 O 100.708 -1.65785 0.534875 0
M  V30 958 C 97.8396 -3.20802 1.1532 0
M  V30 959 H 99.0326 -1.85694 2.35494 0
M  V30 960 H 96.5856 -0.938059 1.25021 0
M  V30 961 H 97.3206 -3.23772 0.185036 0
M  V30 962 H 97.1056 -3.4006 1.95197 0
M  V30 963 H 98.5956 -4.00862 1.17046 0
M  V30 964 N 99.0327 -1.24633 -0.964593 0
M  V30 965 C 99.9627 -1.06611 -2.07741 0
M  V30 966 C 100.944 0.0218666 -1.70086 0
M  V30 967 O 102.129 -0.145793 -1.93652 0
M  V30 968 C 99.2587 -0.673444 -3.40708 0
M  V30 969 C 98.2127 -1.71054 -3.92332 0
M  V30 970 C 97.5387 -1.17285 -5.21678 0
M  V30 971 C 98.8387 -3.10718 -4.19824 0
M  V30 972 H 100.533 -1.99693 -2.23076 0
M  V30 973 H 98.0787 -0.96152 -1.07195 0
M  V30 974 H 100.032 -0.534345 -4.17998 0
M  V30 975 H 98.7557 0.293073 -3.25282 0
M  V30 976 H 97.4147 -1.83791 -3.17201 0
M  V30 977 H 97.0627 -0.196847 -5.02615 0
M  V30 978 H 96.7627 -1.86592 -5.57187 0
M  V30 979 H 98.2867 -1.04593 -6.01575 0
M  V30 980 H 99.7007 -3.01192 -4.87808 0
M  V30 981 H 98.0977 -3.77406 -4.66567 0
M  V30 982 H 99.1677 -3.58524 -3.26479 0
M  V30 983 N 100.511 1.16574 -1.06058 0
M  V30 984 C 101.461 2.18854 -0.63929 0
M  V30 985 C 102.445 1.57505 0.328798 0
M  V30 986 O 103.637 1.76408 0.144623 0
M  V30 987 C 100.766 3.43291 -0.0247203 0
M  V30 988 C 99.8518 4.11722 -1.01716 0
M  V30 989 N 100.243 4.55841 -2.19186 0
M  V30 990 C 98.5408 4.37872 -0.847569 0
M  V30 991 C 99.2418 5.08751 -2.82042 0
M  V30 992 N 98.2178 5.01489 -2.09784 0
M  V30 993 H 102.02 2.5068 -1.53417 0
M  V30 994 H 99.5338 1.32999 -0.931935 0
M  V30 995 H 101.531 4.15856 0.294915 0
M  V30 996 H 100.191 3.12954 0.865448 0
M  V30 997 H 101.202 4.49649 -2.56975 0
M  V30 998 H 97.8788 4.17499 -0.00918848 0
M  V30 999 H 99.2688 5.52944 -3.81709 0
M  V30 1000 N 101.989 0.842826 1.3317 0
M  V30 1001 C 103.238 0.436738 1.96915 0
M  V30 1002 C 103.551 -1.01025 1.67491 0
M  V30 1003 O 104.757 -1.5212 2.24881 0
M  V30 1004 C 103.213 0.730021 3.52418 0
M  V30 1005 C 102.821 2.19195 3.90714 0
M  V30 1006 C 104.565 0.391076 4.22695 0
M  V30 1007 C 102.472 2.42907 5.39212 0
M  V30 1008 H 101.402 0.15958 0.736919 0
M  V30 1009 H 104.053 1.03196 1.51733 0
M  V30 1010 H 102.435 0.0643755 3.95948 0
M  V30 1011 H 103.609 2.8984 3.58231 0
M  V30 1012 H 101.924 2.49425 3.33431 0
M  V30 1013 H 104.521 0.545817 5.31907 0
M  V30 1014 H 104.864 -0.666294 4.10933 0
M  V30 1015 H 105.397 1.01212 3.84709 0
M  V30 1016 H 102.136 3.47224 5.55982 0
M  V30 1017 H 101.656 1.76827 5.73142 0
M  V30 1018 H 103.335 2.2626 6.06148 0
M  V30 1019 N 103.467 -1.45747 0.599634 0
M  V30 1020 C 104.414 -2.30467 -0.123849 0
M  V30 1021 C 105.384 -1.41632 -0.86774 0
M  V30 1022 O 106.569 -1.70568 -0.855056 0
M  V30 1023 C 103.709 -3.26402 -1.12051 0
M  V30 1024 C 102.822 -4.3034 -0.37832 0
M  V30 1025 C 101.957 -5.13389 -1.364 0
M  V30 1026 C 100.996 -6.09061 -0.609171 0
M  V30 1027 N 100.133 -6.84918 -1.54374 0
M  V30 1028 H 104.973 -2.91802 0.604627 0
M  V30 1029 H 102.51 -1.43797 0.309972 0
M  V30 1030 H 104.468 -3.80482 -1.7114 0
M  V30 1031 H 103.098 -2.66839 -1.8165 0
M  V30 1032 H 102.15 -3.78984 0.327929 0
M  V30 1033 H 103.462 -4.98354 0.210997 0
M  V30 1034 H 102.616 -5.7183 -2.02719 0
M  V30 1035 H 101.355 -4.45376 -1.98725 0
M  V30 1036 H 100.36 -5.49758 0.0676979 0
M  V30 1037 H 101.585 -6.79099 0.00891991 0
M  V30 1038 H 99.531 -6.19601 -2.15478 0
M  V30 1039 H 99.448 -7.49254 -1.00766 0
M  V30 1040 H 100.716 -7.47906 -2.19676 0
M  V30 1041 N 104.945 -0.338344 -1.53925 0
M  V30 1042 C 105.893 0.536231 -2.26335 0
M  V30 1043 C 106.887 1.1063 -1.28286 0
M  V30 1044 O 108.093 1.05264 -1.46012 0
M  V30 1045 H 104.468 0.191602 -0.727181 0
M  V30 1046 H 106.439 -0.0965747 -2.98244 0
M  V30 1047 C 105.188 1.67803 -3.04528 0
M  V30 1048 H 104.511 1.24864 -3.79801 0
M  V30 1049 H 105.951 2.26526 -3.58416 0
M  V30 1050 C 104.41 2.60439 -2.13712 0
M  V30 1051 O 104.94 3.6255 -1.72975 0
M  V30 1052 N 103.146 2.29006 -1.78898 0
M  V30 1053 H 102.693 1.46011 -2.12223 0
M  V30 1054 H 102.651 2.91248 -1.18416 0
M  V30 1055 N 106.423 1.57458 -0.0668435 0
M  V30 1056 C 107.671 1.92919 0.602214 0
M  V30 1057 C 107.992 0.947215 1.70449 0
M  V30 1058 O 107.262 -0.00544117 1.95899 0
M  V30 1059 H 105.842 0.71217 0.22544 0
M  V30 1060 H 108.504 1.94508 -0.123535 0
M  V30 1061 H 107.6 2.94589 1.03073 0
M  V30 1062 N 107.901 -0.206675 1.56239 0
M  V30 1063 C 109.126 -0.949474 1.8439 0
M  V30 1064 C 109.551 -1.76549 0.649016 0
M  V30 1065 O 108.909 -1.76782 -0.402231 0
M  V30 1066 C 108.957 -1.83078 3.10668 0
M  V30 1067 O 108.061 -2.9281 2.90407 0
M  V30 1068 H 107.402 -0.268033 0.607499 0
M  V30 1069 H 109.932 -0.215488 2.03462 0
M  V30 1070 H 109.942 -2.2377 3.41161 0
M  V30 1071 H 108.617 -1.23112 3.97261 0
M  V30 1072 H 107.194 -2.55956 2.71184 0
M  V30 1073 N 109.379 -1.50304 -0.473955 0
M  V30 1074 C 110.311 -1.65109 -1.58971 0
M  V30 1075 C 111.324 -0.532676 -1.53839 0
M  V30 1076 O 112.513 -0.805751 -1.59279 0
M  V30 1077 C 109.613 -1.61684 -2.97845 0
M  V30 1078 C 108.786 -2.8951 -3.27876 0
M  V30 1079 C 107.845 -2.78768 -4.4629 0
M  V30 1080 O 106.871 -3.52722 -4.46739 0
M  V30 1081 N 108.073 -1.9213 -5.47783 0
M  V30 1082 H 110.838 -2.61347 -1.46689 0
M  V30 1083 H 108.399 -1.47732 -0.662324 0
M  V30 1084 H 110.391 -1.52114 -3.75024 0
M  V30 1085 H 108.961 -0.731925 -3.03911 0
M  V30 1086 H 108.181 -3.13228 -2.39336 0
M  V30 1087 H 109.469 -3.74199 -3.4475 0
M  V30 1088 H 108.867 -1.31353 -5.50239 0
M  V30 1089 H 107.424 -1.88466 -6.23958 0
M  V30 1090 N 110.857 0.726932 -1.39834 0
M  V30 1091 C 112.105 1.4837 -1.37225 0
M  V30 1092 C 112.426 1.94979 0.0284857 0
M  V30 1093 O 111.696 1.69555 0.981213 0
M  V30 1094 H 110.276 0.55043 -0.505011 0
M  V30 1095 H 112.938 0.862468 -1.74778 0
M  V30 1096 H 112.034 2.36198 -2.04003 0
M  V30 1097 N 112.336 1.25143 0.95797 0
M  V30 1098 C 113.582 1.09855 1.70469 0
M  V30 1099 C 113.915 -0.360187 1.90831 0
M  V30 1100 O 113.19 -1.26568 1.47685 0
M  V30 1101 C 113.473 1.8497 3.08963 0
M  V30 1102 C 113.326 3.38652 2.96032 0
M  V30 1103 C 114.645 1.63016 4.08795 0
M  V30 1104 H 111.764 0.400465 0.618706 0
M  V30 1105 H 114.406 1.53933 1.11376 0
M  V30 1106 H 112.556 1.47505 3.59409 0
M  V30 1107 H 114.228 3.85772 2.52938 0
M  V30 1108 H 112.471 3.66534 2.32025 0
M  V30 1109 H 113.142 3.8642 3.94187 0
M  V30 1110 H 115.618 1.95625 3.67247 0
M  V30 1111 H 114.494 2.18015 5.03747 0
M  V30 1112 H 114.755 0.570692 4.38401 0
M  V30 1113 N 113.814 -1.1601 1.06675 0
M  V30 1114 C 115.06 -1.87145 0.796766 0
M  V30 1115 C 115.415 -1.8037 -0.669658 0
M  V30 1116 O 114.708 -1.21116 -1.48463 0
M  V30 1117 C 114.902 -3.35547 1.23057 0
M  V30 1118 C 114.731 -3.56769 2.73762 0
M  V30 1119 C 113.501 -3.72635 3.41279 0
M  V30 1120 C 115.699 -3.55166 3.7197 0
M  V30 1121 N 113.681 -3.81845 4.80695 0
M  V30 1122 C 115.052 -3.70406 4.97191 0
M  V30 1123 C 117.107 -3.384 3.65226 0
M  V30 1124 C 115.81 -3.70615 6.16471 0
M  V30 1125 C 117.836 -3.39904 4.83962 0
M  V30 1126 C 117.198 -3.55667 6.08013 0
M  V30 1127 H 113.297 -0.702267 0.344014 0
M  V30 1128 H 115.881 -1.39165 1.36166 0
M  V30 1129 H 114.052 -3.82159 0.693456 0
M  V30 1130 H 115.784 -3.94363 0.908844 0
M  V30 1131 H 112.539 -3.73121 2.91681 0
M  V30 1132 H 112.963 -3.90209 5.53232 0
M  V30 1133 H 117.605 -3.25138 2.70269 0
M  V30 1134 H 115.323 -3.82658 7.11757 0
M  V30 1135 H 118.909 -3.28169 4.80413 0
M  V30 1136 H 117.789 -3.56755 6.98352 0
M  V30 1137 N 115.292 -0.849877 -1.32721 0
M  V30 1138 C 116.54 -0.450032 -1.97026 0
M  V30 1139 C 116.861 0.996604 -1.67609 0
M  V30 1140 O 116.131 1.6958 -0.980786 0
M  V30 1141 H 114.711 -0.163426 -0.728904 0
M  V30 1142 H 117.373 -1.08526 -1.6189 0
M  V30 1143 H 116.469 -0.591146 -3.0645 0
M  V30 1144 N 116.77 1.45427 -0.607355 0
M  V30 1145 C 118.181 1.85756 -0.187535 0
M  V30 1146 C 118.532 1.5077 1.25551 0
M  V30 1147 O 117.657 0.93427 1.95193 0
M  V30 1148 C 118.252 3.37154 -0.333572 0
M  V30 1149 C 116.811 3.76387 0.0315542 0
M  V30 1150 C 115.958 2.69377 -0.658117 0
M  V30 1151 H 118.909 1.36231 -0.81405 0
M  V30 1152 H 118.93 3.78014 0.43428 0
M  V30 1153 H 118.442 3.62586 -1.38393 0
M  V30 1154 H 116.543 3.56571 1.0811 0
M  V30 1155 H 116.656 4.77731 -0.361935 0
M  V30 1156 H 115.02 2.5452 -0.0957873 0
M  V30 1157 H 115.803 2.97646 -1.7106 0
M  V30 1158 N 118.248 0.346503 1.53744 0
M  V30 1159 C 119.497 -0.250122 2.00143 0
M  V30 1160 C 119.81 -1.51418 1.23822 0
M  V30 1161 O 121.016 -2.18823 1.60713 0
M  V30 1162 C 119.472 -0.496252 3.56462 0
M  V30 1163 C 119.08 0.752077 4.41642 0
M  V30 1164 C 120.824 -1.05157 4.11269 0
M  V30 1165 C 118.731 0.476583 5.89477 0
M  V30 1166 H 117.661 -0.0972409 0.747703 0
M  V30 1167 H 120.312 0.46229 1.77581 0
M  V30 1168 H 118.694 -1.26944 3.75102 0
M  V30 1169 H 119.868 1.5266 4.34778 0
M  V30 1170 H 118.183 1.22925 3.97842 0
M  V30 1171 H 120.78 -1.27269 5.19333 0
M  V30 1172 H 121.123 -2.00799 3.64672 0
M  V30 1173 H 121.656 -0.339019 3.96353 0
M  V30 1174 H 118.395 1.4028 6.40314 0
M  V30 1175 H 117.915 -0.259794 5.99237 0
M  V30 1176 H 119.594 0.0949315 6.4693 0
M  V30 1177 N 119.726 -1.57421 0.075193 0
M  V30 1178 C 121.137 -1.81021 -0.456964 0
M  V30 1179 C 121.488 -0.98936 -1.69429 0
M  V30 1180 O 120.613 -0.212865 -2.15351 0
M  V30 1181 C 121.208 -3.28329 -0.83581 0
M  V30 1182 C 119.767 -3.52764 -1.31281 0
M  V30 1183 C 118.914 -2.75676 -0.299648 0
M  V30 1184 H 121.865 -1.55822 0.300856 0
M  V30 1185 H 121.886 -3.40564 -1.69696 0
M  V30 1186 H 121.398 -3.88046 0.0649238 0
M  V30 1187 H 119.499 -2.98355 -2.23193 0
M  V30 1188 H 119.612 -4.61451 -1.28839 0
M  V30 1189 H 117.976 -2.42538 -0.777641 0
M  V30 1190 H 118.759 -3.38132 0.593417 0
M  V30 1191 N 121.204 0.198386 -1.56346 0
M  V30 1192 C 122.137 1.27381 -1.89339 0
M  V30 1193 C 123.115 1.44106 -0.753134 0
M  V30 1194 O 124.299 1.59549 -1.00381 0
M  V30 1195 C 121.426 2.6409 -2.12071 0
M  V30 1196 C 120.472 2.64253 -3.34772 0
M  V30 1197 S 121.305 2.16013 -4.89999 0
M  V30 1198 C 122.461 3.54553 -5.15794 0
M  V30 1199 H 122.694 0.992058 -2.8026 0
M  V30 1200 H 120.227 0.401726 -1.49082 0
M  V30 1201 H 122.185 3.42786 -2.2585 0
M  V30 1202 H 120.846 2.89478 -1.21906 0
M  V30 1203 H 120.039 3.64768 -3.47794 0
M  V30 1204 H 119.641 1.93637 -3.1997 0
M  V30 1205 H 121.933 4.50396 -5.06112 0
M  V30 1206 H 122.876 3.46428 -6.1757 0
M  V30 1207 H 123.284 3.49313 -4.43442 0
M  V30 1208 N 122.682 1.50554 0.465978 0
M  V30 1209 C 124.093 1.54599 1.04671 0
M  V30 1210 C 124.444 0.352488 1.93008 0
M  V30 1211 O 123.569 -0.534044 2.09707 0
M  V30 1212 C 124.164 2.80166 1.90505 0
M  V30 1213 C 122.723 2.86876 2.43678 0
M  V30 1214 C 121.87 2.48947 1.22151 0
M  V30 1215 H 124.821 1.56744 0.248384 0
M  V30 1216 H 124.842 2.62311 2.75633 0
M  V30 1217 H 124.354 3.67013 1.26186 0
M  V30 1218 H 122.455 2.04393 3.11536 0
M  V30 1219 H 122.568 3.89885 2.78436 0
M  V30 1220 H 120.932 2.01498 1.5579 0
M  V30 1221 H 121.715 3.38107 0.594866 0
M  V30 1222 N 124.16 -0.719506 1.40217 0
M  V30 1223 C 125.571 -1.29848 1.34151 0
M  V30 1224 C 125.922 -1.96196 0.0131349 0
M  V30 1225 O 125.047 -1.973 -0.88892 0
M  V30 1226 C 125.642 -2.36118 2.42968 0
M  V30 1227 C 124.201 -2.8965 2.40374 0
M  V30 1228 C 123.348 -1.63393 2.24049 0
M  V30 1229 H 126.299 -0.51591 1.5008 0
M  V30 1230 H 126.32 -3.16871 2.10649 0
M  V30 1231 H 125.832 -1.878 3.39636 0
M  V30 1232 H 123.933 -3.42208 1.47392 0
M  V30 1233 H 124.046 -3.4171 3.35814 0
M  V30 1234 H 122.41 -1.88312 1.71495 0
M  V30 1235 H 123.193 -1.17104 3.2271 0
M  V30 1236 N 125.638 -1.25649 -0.95132 0
M  V30 1237 C 126.586 -1.06118 -2.06982 0
M  V30 1238 C 127.58 0.00889169 -1.69398 0
M  V30 1239 O 128.786 -0.146988 -1.79399 0
M  V30 1240 H 125.161 -0.326248 -0.677544 0
M  V30 1241 H 127.132 -2.00932 -2.2061 0
M  V30 1242 C 125.881 -0.700145 -3.40578 0
M  V30 1243 H 125.204 -1.51537 -3.69968 0
M  V30 1244 H 126.644 -0.603211 -4.19687 0
M  V30 1245 C 125.103 0.59403 -3.31622 0
M  V30 1246 O 125.633 1.63522 -3.66911 0
M  V30 1247 N 123.839 0.58089 -2.84735 0
M  V30 1248 H 123.386 -0.266783 -2.56215 0
M  V30 1249 H 123.344 1.44695 -2.79125 0
M  V30 1250 N 127.117 1.15442 -1.07289 0
M  V30 1251 C 128.528 1.67803 -0.818475 0
M  V30 1252 C 128.879 1.8489 0.656507 0
M  V30 1253 O 128.004 1.55176 1.50829 0
M  V30 1254 C 128.599 3.04805 -1.47917 0
M  V30 1255 C 127.158 3.54245 -1.27229 0
M  V30 1256 C 126.305 2.29986 -1.54925 0
M  V30 1257 H 129.256 0.996646 -1.23502 0
M  V30 1258 H 129.277 3.69702 -0.90005 0
M  V30 1259 H 128.789 2.92336 -2.55267 0
M  V30 1260 H 126.89 3.71956 -0.21899 0
M  V30 1261 H 127.003 4.35723 -1.99203 0
M  V30 1262 H 125.367 2.35496 -0.970242 0
M  V30 1263 H 126.15 2.20105 -2.63455 0
M  V30 1264 N 128.595 0.856903 1.32268 0
M  V30 1265 C 129.841 0.462069 1.97466 0
M  V30 1266 C 130.174 -0.980298 1.67642 0
M  V30 1267 O 129.449 -1.68824 0.965858 0
M  V30 1268 C 129.732 0.704336 3.53145 0
M  V30 1269 C 129.585 2.19529 3.9259 0
M  V30 1270 C 130.904 0.1622 4.39801 0
M  V30 1271 H 128.023 0.169357 0.717278 0
M  V30 1272 H 130.665 1.07574 1.56614 0
M  V30 1273 H 128.815 0.181999 3.88073 0
M  V30 1274 H 130.487 2.78387 3.67829 0
M  V30 1275 H 128.73 2.67292 3.41668 0
M  V30 1276 H 129.401 2.31549 5.01088 0
M  V30 1277 H 131.877 0.608905 4.11621 0
M  V30 1278 H 130.753 0.361265 5.4771 0
M  V30 1279 H 131.014 -0.935158 4.32096 0
M  V30 1280 N 130.073 -1.45103 0.615059 0
M  V30 1281 C 131.301 -2.06553 0.11977 0
M  V30 1282 C 131.716 -1.45842 -1.19898 0
M  V30 1283 O 131.073 -0.575325 -1.73194 0
M  V30 1284 C 131.124 -3.61495 -0.018364 0
M  V30 1285 O 130.845 -4.19942 1.24822 0
M  V30 1286 C 132.346 -4.39947 -0.544237 0
M  V30 1287 H 129.566 -0.667096 0.0722739 0
M  V30 1288 H 132.11 -1.8623 0.84491 0
M  V30 1289 H 130.265 -3.81135 -0.693865 0
M  V30 1290 H 130.679 -5.13204 1.0827 0
M  V30 1291 H 132.153 -5.48838 -0.589953 0
M  V30 1292 H 132.63 -4.10255 -1.56805 0
M  V30 1293 H 133.236 -4.25188 0.0974703 0
M  V30 1294 N 131.551 -0.354651 -1.53558 0
M  V30 1295 C 132.461 0.50515 -2.29097 0
M  V30 1296 C 133.477 1.10223 -1.34636 0
M  V30 1297 O 134.653 1.11553 -1.67684 0
M  V30 1298 C 131.718 1.63479 -3.05738 0
M  V30 1299 C 130.779 1.06636 -4.15845 0
M  V30 1300 C 130.012 2.14217 -4.88822 0
M  V30 1301 O 130.235 3.35137 -4.61562 0
M  V30 1302 O 129.169 1.77887 -5.75013 0
M  V30 1303 H 132.995 -0.109237 -3.03503 0
M  V30 1304 H 130.58 -0.119357 -1.48922 0
M  V30 1305 H 132.462 2.2918 -3.5363 0
M  V30 1306 H 131.137 2.23478 -2.34178 0
M  V30 1307 H 130.044 0.373565 -3.7223 0
M  V30 1308 H 131.377 0.511081 -4.89539 0
M  V30 1309 N 133.029 1.57378 -0.0835403 0
M  V30 1310 C 133.939 2.16897 0.894021 0
M  V30 1311 C 134.955 1.13528 1.31861 0
M  V30 1312 O 136.131 1.45848 1.3889 0
M  V30 1313 C 133.196 2.72831 2.13925 0
M  V30 1314 C 132.257 3.91115 1.76997 0
M  V30 1315 C 131.49 4.44371 2.95584 0
M  V30 1316 O 131.713 3.96596 4.09961 0
M  V30 1317 O 130.647 5.35549 2.74719 0
M  V30 1318 H 134.473 3.00814 0.417679 0
M  V30 1319 H 132.058 1.48741 0.140181 0
M  V30 1320 H 133.94 3.0863 2.86924 0
M  V30 1321 H 132.615 1.91967 2.60635 0
M  V30 1322 H 131.522 3.60148 1.01214 0
M  V30 1323 H 132.855 4.73307 1.3506 0
M  V30 1324 N 134.507 -0.190092 1.56449 0
M  V30 1325 C 135.417 -1.25591 1.98152 0
M  V30 1326 C 136.433 -1.49519 0.889944 0
M  V30 1327 O 137.609 -1.62036 1.19609 0
M  V30 1328 C 134.674 -2.57916 2.3169 0
M  V30 1329 C 133.735 -2.42015 3.5458 0
M  V30 1330 C 132.968 -3.6803 3.8651 0
M  V30 1331 O 133.191 -4.72413 3.1966 0
M  V30 1332 O 132.125 -3.6326 4.79923 0
M  V30 1333 H 135.951 -0.931988 2.89046 0
M  V30 1334 H 133.536 -0.395488 1.4407 0
M  V30 1335 H 135.418 -3.36008 2.54316 0
M  V30 1336 H 134.093 -2.89925 1.43963 0
M  V30 1337 H 133 -1.62017 3.37196 0
M  V30 1338 H 134.333 -2.14937 4.4279 0
M  V30 1339 N 135.985 -1.50799 -0.457987 0
M  V30 1340 C 136.948 -1.7005 -1.53674 0
M  V30 1341 C 137.948 -0.570881 -1.50325 0
M  V30 1342 O 139.138 -0.838126 -1.52712 0
M  V30 1343 C 136.27 -1.73788 -2.93276 0
M  V30 1344 H 137.463 -2.66306 -1.37917 0
M  V30 1345 H 135.016 -1.40477 -0.685271 0
M  V30 1346 H 135.751 -0.792717 -3.14462 0
M  V30 1347 H 135.536 -2.55864 -2.97113 0
M  V30 1348 H 137.026 -1.90591 -3.71571 0
M  V30 1349 N 137.463 0.71206 -1.40597 0
M  V30 1350 C 138.41 1.82613 -1.41142 0
M  V30 1351 C 139.38 1.63925 -0.267903 0
M  V30 1352 O 140.565 1.85009 -0.466495 0
M  V30 1353 C 137.705 3.20354 -1.28324 0
M  V30 1354 C 136.818 3.50589 -2.52411 0
M  V30 1355 C 135.953 4.77855 -2.32009 0
M  V30 1356 C 134.992 5.01005 -3.51654 0
M  V30 1357 N 134.129 6.19487 -3.30425 0
M  V30 1358 H 138.969 1.81482 -2.36365 0
M  V30 1359 H 136.506 0.886475 -1.17388 0
M  V30 1360 H 138.464 3.99899 -1.18899 0
M  V30 1361 H 137.094 3.20705 -0.367189 0
M  V30 1362 H 136.146 2.65573 -2.72351 0
M  V30 1363 H 137.458 3.63604 -3.41458 0
M  V30 1364 H 136.612 5.65424 -2.19956 0
M  V30 1365 H 135.351 4.67056 -1.40392 0
M  V30 1366 H 134.356 4.1189 -3.64179 0
M  V30 1367 H 135.581 5.13674 -4.44202 0
M  V30 1368 H 133.527 6.09932 -2.41494 0
M  V30 1369 H 133.444 6.33194 -4.13039 0
M  V30 1370 H 134.712 7.09834 -3.22113 0
M  V30 1371 N 138.941 1.26152 0.944643 0
M  V30 1372 C 140.19 1.10883 1.68487 0
M  V30 1373 C 140.503 -0.348153 1.92477 0
M  V30 1374 O 141.709 -0.621459 2.64292 0
M  V30 1375 C 140.165 1.93624 3.03377 0
M  V30 1376 C 139.773 3.43875 2.87148 0
M  V30 1377 C 141.517 1.86954 3.81115 0
M  V30 1378 C 139.424 4.18875 4.1749 0
M  V30 1379 H 138.354 0.41135 0.631907 0
M  V30 1380 H 141.005 1.50433 1.05082 0
M  V30 1381 H 139.387 1.46904 3.67743 0
M  V30 1382 H 140.561 3.98338 2.31653 0
M  V30 1383 H 138.876 3.51744 2.22856 0
M  V30 1384 H 141.473 2.40275 4.77673 0
M  V30 1385 H 141.816 0.839518 4.07747 0
M  V30 1386 H 142.349 2.31477 3.23517 0
M  V30 1387 H 139.088 5.22332 3.96043 0
M  V30 1388 H 138.608 3.69193 4.72712 0
M  V30 1389 H 140.287 4.27134 4.85968 0
M  V30 1390 N 140.419 -1.14872 1.07899 0
M  V30 1391 C 141.349 -2.2193 0.725887 0
M  V30 1392 C 142.33 -1.67622 -0.28927 0
M  V30 1393 O 143.515 -1.93533 -0.160787 0
M  V30 1394 C 140.645 -3.47061 0.128856 0
M  V30 1395 C 139.599 -4.14363 1.07178 0
M  V30 1396 C 138.925 -5.33636 0.337229 0
M  V30 1397 C 140.225 -4.63492 2.40775 0
M  V30 1398 H 141.919 -2.51724 1.62097 0
M  V30 1399 H 139.465 -1.20991 0.780838 0
M  V30 1400 H 141.418 -4.21199 -0.130147 0
M  V30 1401 H 140.142 -3.16617 -0.80134 0
M  V30 1402 H 138.801 -3.42173 1.3158 0
M  V30 1403 H 138.449 -4.99449 -0.596606 0
M  V30 1404 H 138.149 -5.79609 0.965788 0
M  V30 1405 H 139.673 -6.10539 0.0861567 0
M  V30 1406 H 141.087 -5.2913 2.20669 0
M  V30 1407 H 139.484 -5.20148 2.99276 0
M  V30 1408 H 140.554 -3.78834 3.02676 0
M  V30 1409 N 141.898 -0.863906 -1.31812 0
M  V30 1410 C 142.861 -0.320212 -2.26952 0
M  V30 1411 C 143.861 0.525369 -1.51975 0
M  V30 1412 O 145.051 0.335547 -1.70938 0
M  V30 1413 C 142.183 0.545919 -3.365 0
M  V30 1414 H 143.376 -1.16004 -2.76556 0
M  V30 1415 H 140.929 -0.638995 -1.42641 0
M  V30 1416 H 141.664 1.40718 -2.92179 0
M  V30 1417 H 141.449 -0.0594674 -3.92055 0
M  V30 1418 H 142.939 0.918796 -4.07367 0
M  V30 1419 N 143.376 1.44774 -0.622745 0
M  V30 1420 C 144.286 2.34433 0.0886031 0
M  V30 1421 C 145.302 1.52131 0.844529 0
M  V30 1422 O 146.478 1.84886 0.798691 0
M  V30 1423 C 143.543 3.29986 1.0635 0
M  V30 1424 C 142.604 4.28195 0.307873 0
M  V30 1425 C 141.837 5.19183 1.23633 0
M  V30 1426 O 142.06 5.13918 2.47476 0
M  V30 1427 O 140.994 5.97515 0.725189 0
M  V30 1428 H 144.82 2.96693 -0.648599 0
M  V30 1429 H 142.405 1.44408 -0.382957 0
M  V30 1430 H 144.287 3.88825 1.6246 0
M  V30 1431 H 142.962 2.70269 1.78146 0
M  V30 1432 H 141.869 3.72927 -0.296064 0
M  V30 1433 H 143.202 4.90808 -0.3699 0
M  V30 1434 N 144.854 0.36279 1.53368 0
M  V30 1435 C 146.1 -0.220702 2.02199 0
M  V30 1436 C 146.455 -1.46649 1.24546 0
M  V30 1437 O 145.748 -1.88737 0.32996 0
M  V30 1438 C 145.942 -0.568417 3.52851 0
M  V30 1439 C 145.771 0.642126 4.45092 0
M  V30 1440 C 144.541 1.15335 4.91961 0
M  V30 1441 C 146.739 1.50649 4.91741 0
M  V30 1442 N 144.721 2.3242 5.68202 0
M  V30 1443 C 146.092 2.52404 5.66297 0
M  V30 1444 C 148.147 1.52969 4.73819 0
M  V30 1445 C 146.85 3.56331 6.24836 0
M  V30 1446 C 148.876 2.55789 5.33222 0
M  V30 1447 C 148.238 3.56268 6.07662 0
M  V30 1448 H 144.337 -0.0435508 0.780786 0
M  V30 1449 H 146.921 0.506704 1.87991 0
M  V30 1450 H 145.092 -1.2649 3.67226 0
M  V30 1451 H 146.824 -1.13676 3.88407 0
M  V30 1452 H 143.579 0.718412 4.68119 0
M  V30 1453 H 144.003 2.91591 6.10986 0
M  V30 1454 H 148.645 0.766418 4.15795 0
M  V30 1455 H 146.363 4.33543 6.81958 0
M  V30 1456 H 149.949 2.58435 5.21251 0
M  V30 1457 H 148.829 4.34524 6.52808 0
M  V30 1458 N 146.332 -1.57332 0.0918853 0
M  V30 1459 C 147.578 -1.94524 -0.573425 0
M  V30 1460 C 147.911 -0.973578 -1.68033 0
M  V30 1461 O 147.186 -0.00609226 -1.94499 0
M  V30 1462 C 147.469 -3.41858 -1.13161 0
M  V30 1463 C 147.322 -4.4979 -0.0299747 0
M  V30 1464 C 148.641 -3.90435 -2.03098 0
M  V30 1465 H 145.76 -0.70734 -0.206975 0
M  V30 1466 H 148.402 -1.89309 0.161942 0
M  V30 1467 H 146.552 -3.46433 -1.7583 0
M  V30 1468 H 148.224 -4.57327 0.604112 0
M  V30 1469 H 146.467 -4.291 0.636833 0
M  V30 1470 H 147.138 -5.50069 -0.461287 0
M  V30 1471 H 149.614 -3.87992 -1.50338 0
M  V30 1472 H 148.49 -4.94097 -2.39081 0
M  V30 1473 H 148.751 -3.29541 -2.94712 0
M  V30 1474 N 147.81 0.181792 -1.56548 0
M  V30 1475 C 148.74 1.22765 -1.98623 0
M  V30 1476 C 149.721 1.46747 -0.860189 0
M  V30 1477 O 150.906 1.58259 -1.12551 0
M  V30 1478 C 148.036 2.56894 -2.33715 0
M  V30 1479 C 146.99 2.475 -3.49182 0
M  V30 1480 C 146.316 3.86023 -3.69986 0
M  V30 1481 C 147.616 1.98866 -4.82959 0
M  V30 1482 H 149.31 0.877942 -2.86239 0
M  V30 1483 H 146.856 0.42088 -1.37712 0
M  V30 1484 H 148.809 3.30253 -2.61746 0
M  V30 1485 H 147.533 2.93632 -1.42997 0
M  V30 1486 H 146.192 1.76596 -3.21262 0
M  V30 1487 H 145.84 4.20136 -2.76576 0
M  V30 1488 H 145.54 3.80609 -4.47672 0
M  V30 1489 H 147.064 4.60984 -4.00407 0
M  V30 1490 H 148.478 2.61992 -5.09934 0
M  V30 1491 H 146.875 2.04424 -5.64208 0
M  V30 1492 H 147.945 0.942465 -4.75653 0
M  V30 1493 N 149.288 1.51039 0.449983 0
M  V30 1494 C 150.513 1.6715 1.22783 0
M  V30 1495 C 150.938 0.363081 1.84563 0
M  V30 1496 O 150.296 -0.675433 1.68249 0
M  V30 1497 C 150.344 2.77985 2.29689 0
M  V30 1498 O 149.448 2.40707 3.34864 0
M  V30 1499 H 148.789 0.557746 0.360299 0
M  V30 1500 H 151.319 1.97535 0.533005 0
M  V30 1501 H 151.329 3.01693 2.74673 0
M  V30 1502 H 150.004 3.72935 1.84098 0
M  V30 1503 H 148.581 2.27523 2.95445 0
M  V30 1504 N 150.766 -0.704594 1.40972 0
M  V30 1505 C 151.696 -1.83124 1.44872 0
M  V30 1506 C 152.677 -1.67281 0.30838 0
M  V30 1507 O 153.862 -1.87149 0.518556 0
M  V30 1508 C 150.992 -3.21181 1.32136 0
M  V30 1509 C 149.946 -3.51714 2.43888 0
M  V30 1510 C 149.272 -4.89032 2.16222 0
M  V30 1511 C 150.572 -3.516 3.86232 0
M  V30 1512 H 152.266 -1.80117 2.39161 0
M  V30 1513 H 149.812 -0.865145 1.15114 0
M  V30 1514 H 151.765 -3.99702 1.33479 0
M  V30 1515 H 150.489 -3.24791 0.343279 0
M  V30 1516 H 149.148 -2.75539 2.41813 0
M  V30 1517 H 148.796 -4.89256 1.16778 0
M  V30 1518 H 148.496 -5.10426 2.911 0
M  V30 1519 H 150.02 -5.69873 2.19265 0
M  V30 1520 H 151.434 -4.2014 3.9007 0
M  V30 1521 H 149.831 -3.84523 4.60719 0
M  V30 1522 H 150.901 -2.50757 4.15029 0
M  V30 1523 N 152.244 -1.26651 -0.937939 0
M  V30 1524 C 153.191 -1.0849 -2.03712 0
M  V30 1525 C 154.161 0.011033 -1.66096 0
M  V30 1526 O 155.346 -0.149353 -1.90215 0
M  V30 1527 C 152.486 -0.72735 -3.37348 0
M  V30 1528 C 151.599 -1.89986 -3.87981 0
M  V30 1529 C 150.734 -1.48513 -5.10017 0
M  V30 1530 C 149.773 -2.62575 -5.5292 0
M  V30 1531 N 148.91 -2.21762 -6.66158 0
M  V30 1532 H 153.75 -2.02551 -2.18579 0
M  V30 1533 H 151.287 -1.00844 -1.07093 0
M  V30 1534 H 153.245 -0.50092 -4.14182 0
M  V30 1535 H 151.875 0.176298 -3.22318 0
M  V30 1536 H 150.927 -2.23913 -3.07518 0
M  V30 1537 H 152.239 -2.75586 -4.15757 0
M  V30 1538 H 151.393 -1.21934 -5.94321 0
M  V30 1539 H 150.132 -0.60009 -4.83994 0
M  V30 1540 H 149.137 -2.8988 -4.67172 0
M  V30 1541 H 150.362 -3.51685 -5.80943 0
M  V30 1542 H 148.308 -1.35696 -6.41812 0
M  V30 1543 H 148.225 -3.00903 -6.93537 0
M  V30 1544 H 149.493 -1.98403 -7.53828 0
M  V30 1545 O 153.761 1.07174 -1.20814 0
M  V30 1546 H 154.452 1.67985 -0.964396 0
M  V30 END ATOM
M  V30 BEGIN BOND
M  V30 END BOND
M  V30 END CTAB
M  END
$$$$
