drugbank_target|P00148 Cytochrome c' (DB03317)
 OpenBabel12092120273D

  0  0  0     0  0            999 V3000
M  V30 BEGIN CTAB
M  V30 COUNTS 2150 2170 0 0 0
M  V30 BEGIN ATOM
M  V30 1 H -0.908 1.98254 -0.117106 0
M  V30 2 N 0 1.576 0 0
M  V30 3 C 0.933 2.03868 1.02534 0
M  V30 4 C 1.911 0.928543 1.3348 0
M  V30 5 O 3.095 1.19667 1.45644 0
M  V30 6 C 0.222 2.43627 2.35294 0
M  V30 7 C -0.732 3.65373 2.2001 0
M  V30 8 S 0.101 5.13292 1.52614 0
M  V30 9 C 1.257 5.56322 2.86805 0
M  V30 10 H 1.49 2.90518 0.631377 0
M  V30 11 H -0.977 1.52953 0.210867 0
M  V30 12 H 0.981 2.67203 3.11629 0
M  V30 13 H -0.358 1.57376 2.7183 0
M  V30 14 H -1.165 3.90944 3.18086 0
M  V30 15 H -1.563 3.418 1.51819 0
M  V30 16 H 0.729 5.58782 3.83104 0
M  V30 17 H 1.672 6.56266 2.65933 0
M  V30 18 H 2.08 4.83886 2.90714 0
M  V30 19 N 1.4781 -0.272755 1.55222 0
M  V30 20 C 2.8941 -0.619959 1.47067 0
M  V30 21 C 3.0941 -1.895 0.684978 0
M  V30 22 O 2.1501 -2.51675 0.203931 0
M  V30 23 C 3.4631 -0.746693 2.91282 0
M  V30 24 C 5.0111 -0.840731 3.01497 0
M  V30 25 C 5.4861 -0.99924 4.46967 0
M  V30 26 N 6.9771 -1.06476 4.50796 0
M  V30 27 C 7.7121 -1.20621 5.6057 0
M  V30 28 N 7.2081 -1.31483 6.80209 0
M  V30 29 N 9.0011 -1.23733 5.48312 0
M  V30 30 H 1.1521 0.564606 2.04758 0
M  V30 31 H 3.4151 0.191177 0.928523 0
M  V30 32 H 3.1211 0.119753 3.51496 0
M  V30 33 H 2.9951 -1.6269 3.40311 0
M  V30 34 H 5.3821 -1.69764 2.41379 0
M  V30 35 H 5.4631 0.0640874 2.5572 0
M  V30 36 H 5.1071 -0.146984 5.07687 0
M  V30 37 H 5.0371 -1.91871 4.90401 0
M  V30 38 H 7.5281 -0.993196 3.64615 0
M  V30 39 H 7.8411 -1.42111 7.59621 0
M  V30 40 H 6.1861 -1.28487 6.8302 0
M  V30 41 H 9.3771 -1.14877 4.53785 0
M  V30 42 H 9.5501 -1.34412 6.33906 0
M  V30 43 N 2.9562 -1.48159 -0.537278 0
M  V30 44 C 4.3722 -1.34118 -0.865129 0
M  V30 45 C 4.5722 -0.346678 -1.98495 0
M  V30 46 O 3.6282 0.234715 -2.51407 0
M  V30 47 C 4.9412 -2.73963 -1.23954 0
M  V30 48 C 6.4892 -2.82397 -1.34984 0
M  V30 49 C 6.9642 -4.22928 -1.75772 0
M  V30 50 N 8.4552 -4.25566 -1.82887 0
M  V30 51 C 9.1902 -5.31235 -2.15817 0
M  V30 52 N 8.6862 -6.47189 -2.47222 0
M  V30 53 N 10.4792 -5.18624 -2.16761 0
M  V30 54 H 2.6302 -2.1144 0.201715 0
M  V30 55 H 4.8932 -0.947598 0.0275949 0
M  V30 56 H 4.5992 -3.48264 -0.490381 0
M  V30 57 H 4.4732 -3.0702 -2.19132 0
M  V30 58 H 6.8602 -2.08356 -2.08978 0
M  V30 59 H 6.9412 -2.5297 -0.379448 0
M  V30 60 H 6.5852 -4.97482 -1.02341 0
M  V30 61 H 6.5152 -4.49794 -2.73848 0
M  V30 62 H 9.0062 -3.41924 -1.60924 0
M  V30 63 H 9.3192 -7.23564 -2.71433 0
M  V30 64 H 7.6642 -6.50476 -2.44757 0
M  V30 65 H 10.8552 -4.27056 -1.91679 0
M  V30 66 H 11.0282 -6.01078 -2.42093 0
M  V30 67 N 4.4343 0.785586 -1.36625 0
M  V30 68 C 5.6803 1.54591 -1.31261 0
M  V30 69 C 6.0133 1.93906 0.106823 0
M  V30 70 O 5.2883 1.63007 1.06108 0
M  V30 71 C 5.5713 2.82038 -2.23889 0
M  V30 72 C 5.4243 2.49066 -3.74548 0
M  V30 73 C 6.7433 3.83887 -2.15217 0
M  V30 74 H 3.8623 0.560846 -0.478143 0
M  V30 75 H 6.5043 0.902278 -1.67209 0
M  V30 76 H 4.6543 3.36961 -1.93363 0
M  V30 77 H 6.3263 2.00164 -4.15611 0
M  V30 78 H 4.5693 1.81954 -3.93796 0
M  V30 79 H 5.2403 3.40109 -4.34776 0
M  V30 80 H 7.7163 3.38421 -2.42096 0
M  V30 81 H 6.5923 4.70806 -2.82193 0
M  V30 82 H 6.8533 4.27131 -1.14068 0
M  V30 83 N 5.9124 1.20967 1.01018 0
M  V30 84 C 6.8424 0.988272 2.11555 0
M  V30 85 C 7.8234 -0.0849778 1.69888 0
M  V30 86 O 9.0084 0.0738202 1.9406 0
M  V30 87 C 6.1384 0.546528 3.42973 0
M  V30 88 C 5.0924 1.56375 3.9841 0
M  V30 89 C 4.4184 0.97842 5.25672 0
M  V30 90 C 5.7184 2.94922 4.31066 0
M  V30 91 H 7.4124 1.91276 2.30334 0
M  V30 92 H 4.9584 0.921073 1.1069 0
M  V30 93 H 6.9114 0.378839 4.19694 0
M  V30 94 H 5.6354 -0.413598 3.23971 0
M  V30 95 H 4.2944 1.71891 3.23804 0
M  V30 96 H 3.9424 0.0101688 5.02999 0
M  V30 97 H 3.6424 1.65784 5.63728 0
M  V30 98 H 5.1664 0.821939 6.05043 0
M  V30 99 H 6.5804 2.8288 4.9865 0
M  V30 100 H 4.9774 3.5983 4.80253 0
M  V30 101 H 6.0474 3.4616 3.39561 0
M  V30 102 N 7.3905 -1.2043 1.01659 0
M  V30 103 C 8.3205 -2.25466 0.607226 0
M  V30 104 C 9.3015 -1.65853 -0.377716 0
M  V30 105 O 10.4865 -1.92409 -0.263149 0
M  V30 106 C 7.6165 -3.47256 -0.0552949 0
M  V30 107 C 6.5705 -4.19462 0.850632 0
M  V30 108 C 5.8965 -5.34673 0.0538859 0
M  V30 109 C 7.1965 -4.75603 2.15868 0
M  V30 110 H 8.8905 -2.59962 1.48526 0
M  V30 111 H 6.4365 -1.2496 0.715605 0
M  V30 112 H 8.3895 -4.19917 -0.353233 0
M  V30 113 H 7.1135 -3.11924 -0.968045 0
M  V30 114 H 5.7725 -3.48667 1.13257 0
M  V30 115 H 5.4205 -4.95585 -0.860514 0
M  V30 116 H 5.1205 -5.83913 0.657192 0
M  V30 117 H 6.6445 -6.10138 -0.237598 0
M  V30 118 H 8.0585 -5.40083 1.92311 0
M  V30 119 H 6.4555 -5.3528 2.71284 0
M  V30 120 H 7.5255 -3.94346 2.82169 0
M  V30 121 N 8.8686 -0.792821 -1.36206 0
M  V30 122 C 9.8316 -0.199459 -2.2833 0
M  V30 123 C 10.8316 0.605189 -1.48977 0
M  V30 124 O 12.0216 0.425685 -1.68919 0
M  V30 125 C 9.1536 0.723523 -3.33134 0
M  V30 126 H 10.3466 -1.01181 -2.82316 0
M  V30 127 H 7.8996 -0.562485 -1.45828 0
M  V30 128 H 8.6346 1.56008 -2.84309 0
M  V30 129 H 8.4196 0.148436 -3.91819 0
M  V30 130 H 9.9096 1.13344 -4.01924 0
M  V30 131 N 10.3467 1.47872 -0.545128 0
M  V30 132 C 11.5747 2.06889 -0.021084 0
M  V30 133 C 11.9897 1.39955 1.2672 0
M  V30 134 O 11.3467 0.492036 1.75742 0
M  V30 135 C 11.3977 3.60996 0.190817 0
M  V30 136 O 11.1187 4.25419 -1.04644 0
M  V30 137 C 12.6197 4.36849 0.753521 0
M  V30 138 H 9.8397 0.669785 -0.0403635 0
M  V30 139 H 12.3837 1.90049 -0.755095 0
M  V30 140 H 10.5387 3.77391 0.87492 0
M  V30 141 H 10.9527 5.17785 -0.836611 0
M  V30 142 H 12.4267 5.45399 0.851139 0
M  V30 143 H 12.9037 4.02306 1.762 0
M  V30 144 H 13.5097 4.25169 0.105503 0
M  V30 145 N 11.8248 0.280983 1.55075 0
M  V30 146 C 12.7548 -0.597469 2.25727 0
M  V30 147 C 13.7358 -1.15417 1.24952 0
M  V30 148 O 14.9208 -1.18722 1.53684 0
M  V30 149 C 12.0508 -1.7789 2.98283 0
M  V30 150 C 11.0048 -1.35347 4.06036 0
M  V30 151 C 10.3308 -2.61846 4.66198 0
M  V30 152 C 11.6308 -0.499354 5.19907 0
M  V30 153 H 13.3248 -0.00824265 2.99399 0
M  V30 154 H 10.8708 -0.0025244 1.44 0
M  V30 155 H 12.8238 -2.39937 3.46422 0
M  V30 156 H 11.5478 -2.39405 2.22155 0
M  V30 157 H 10.2068 -0.756156 3.58717 0
M  V30 158 H 9.8548 -3.21632 3.86732 0
M  V30 159 H 9.5548 -2.3409 5.38958 0
M  V30 160 H 11.0788 -3.24732 5.1709 0
M  V30 161 H 12.4928 -1.02498 5.64063 0
M  V30 162 H 10.8898 -0.316424 5.99265 0
M  V30 163 H 11.9598 0.480459 4.82514 0
M  V30 164 N 13.3029 -1.57598 0.00835791 0
M  V30 165 C 14.2359 -2.04409 -1.01451 0
M  V30 166 C 15.2139 -0.935609 -1.32985 0
M  V30 167 O 16.3979 -1.20437 -1.45007 0
M  V30 168 C 13.5249 -2.44872 -2.33999 0
M  V30 169 C 12.5709 -3.66535 -2.18069 0
M  V30 170 S 13.4039 -5.14095 -1.4989 0
M  V30 171 C 14.5599 -5.57835 -2.8385 0
M  V30 172 H 14.7929 -2.90849 -0.615961 0
M  V30 173 H 12.3259 -1.53063 -0.202752 0
M  V30 174 H 14.2839 -2.68852 -3.10208 0
M  V30 175 H 12.9449 -1.58815 -2.70992 0
M  V30 176 H 12.1379 -3.92626 -3.16008 0
M  V30 177 H 11.7399 -3.426 -1.50004 0
M  V30 178 H 14.0319 -5.60806 -3.80136 0
M  V30 179 H 14.9749 -6.57667 -2.62449 0
M  V30 180 H 15.3829 -4.85421 -2.88144 0
M  V30 181 N 14.781 0.264519 -1.55364 0
M  V30 182 C 15.744 1.31046 -1.88042 0
M  V30 183 C 16.744 1.41943 -0.755569 0
M  V30 184 O 17.934 1.40947 -1.02369 0
M  V30 185 C 15.066 2.69067 -2.09323 0
M  V30 186 H 16.259 1.03297 -2.81549 0
M  V30 187 H 13.812 0.502989 -1.47986 0
M  V30 188 H 14.547 3.01982 -1.18226 0
M  V30 189 H 14.332 2.62542 -2.91229 0
M  V30 190 H 15.822 3.44623 -2.35848 0
M  V30 191 N 16.2591 1.48442 0.529413 0
M  V30 192 C 17.2221 1.62524 1.61612 0
M  V30 193 C 18.2221 0.498509 1.52877 0
M  V30 194 O 19.4121 0.76431 1.56537 0
M  V30 195 C 16.5441 1.59597 3.01233 0
M  V30 196 H 17.7371 2.59423 1.50465 0
M  V30 197 H 15.2901 1.37047 0.751514 0
M  V30 198 H 16.0251 0.641781 3.17886 0
M  V30 199 H 15.8101 2.41397 3.08982 0
M  V30 200 H 17.3001 1.72646 3.80241 0
M  V30 201 N 17.7372 -0.778329 1.37039 0
M  V30 202 C 18.6672 -1.90546 1.34962 0
M  V30 203 C 19.6482 -1.68681 0.219274 0
M  V30 204 O 20.8332 -1.89634 0.418624 0
M  V30 205 C 17.9632 -3.27734 1.14925 0
M  V30 206 C 16.9172 -3.64147 2.24902 0
M  V30 207 C 16.2432 -4.99806 1.89996 0
M  V30 208 C 17.5432 -3.71579 3.67051 0
M  V30 209 H 19.2372 -1.92541 2.29277 0
M  V30 210 H 16.7832 -0.924948 1.10366 0
M  V30 211 H 18.7362 -4.06215 1.12104 0
M  V30 212 H 17.4602 -3.26154 0.170631 0
M  V30 213 H 16.1192 -2.8797 2.26868 0
M  V30 214 H 15.7672 -4.94759 0.906796 0
M  V30 215 H 15.4672 -5.25139 2.63634 0
M  V30 216 H 16.9912 -5.80694 1.88749 0
M  V30 217 H 18.4052 -4.40227 3.67251 0
M  V30 218 H 16.8022 -4.08405 4.39688 0
M  V30 219 H 17.8722 -2.72404 4.01154 0
M  V30 220 N 19.2153 -1.21501 -1.00376 0
M  V30 221 C 20.6263 -1.03146 -1.55621 0
M  V30 222 C 20.9773 0.408375 -1.91903 0
M  V30 223 O 20.1023 1.29177 -1.73616 0
M  V30 224 C 20.6973 -1.86612 -2.82775 0
M  V30 225 C 19.2563 -1.72586 -3.34501 0
M  V30 226 C 18.4033 -1.83747 -2.07683 0
M  V30 227 H 21.3543 -1.35505 -0.826081 0
M  V30 228 H 21.3753 -1.3771 -3.54706 0
M  V30 229 H 20.8873 -2.91399 -2.56336 0
M  V30 230 H 18.9883 -0.704877 -3.65872 0
M  V30 231 H 19.1013 -2.54623 -4.05837 0
M  V30 232 H 17.4653 -1.27069 -2.20739 0
M  V30 233 H 18.2483 -2.90044 -1.83655 0
M  V30 234 N 20.6934 1.19889 -1.02296 0
M  V30 235 C 21.6564 2.21116 -0.603351 0
M  V30 236 C 22.6564 1.5738 0.329884 0
M  V30 237 O 23.8464 1.73802 0.117702 0
M  V30 238 C 20.9784 3.40696 0.117992 0
M  V30 239 H 22.1714 2.59754 -1.49893 0
M  V30 240 H 19.7244 1.33463 -0.813468 0
M  V30 241 H 20.4594 3.07569 1.0282 0
M  V30 242 H 20.2444 3.88188 -0.552511 0
M  V30 243 H 21.7344 4.15692 0.398696 0
M  V30 244 N 22.1715 0.800033 1.35784 0
M  V30 245 C 23.1345 0.211565 2.28221 0
M  V30 246 C 24.1345 -0.59728 1.49296 0
M  V30 247 O 25.3245 -0.416721 1.69142 0
M  V30 248 C 22.4565 -0.705846 3.33513 0
M  V30 249 H 23.6495 1.02677 2.81776 0
M  V30 250 H 21.2025 0.570211 1.45528 0
M  V30 251 H 21.9375 -1.54498 2.85133 0
M  V30 252 H 21.7225 -0.127655 3.91892 0
M  V30 253 H 23.2125 -1.11211 4.02519 0
M  V30 254 N 23.6496 -1.47581 0.552962 0
M  V30 255 C 24.6126 -2.28439 -0.186605 0
M  V30 256 C 25.6126 -1.36706 -0.84665 0
M  V30 257 O 26.8026 -1.59378 -0.703164 0
M  V30 258 C 23.9346 -3.16264 -1.2724 0
M  V30 259 H 25.1276 -2.95294 0.523609 0
M  V30 260 H 22.6806 -1.532 0.309745 0
M  V30 261 H 23.4156 -2.54091 -2.01514 0
M  V30 262 H 23.2006 -3.83769 -0.803968 0
M  V30 263 H 24.6906 -3.77198 -1.79196 0
M  V30 264 N 25.1277 -0.289203 -1.54924 0
M  V30 265 C 26.0607 0.633823 -2.19221 0
M  V30 266 C 27.0387 1.14174 -1.15772 0
M  V30 267 O 28.2227 1.21211 -1.44361 0
M  V30 268 C 25.3497 1.86592 -2.82668 0
M  V30 269 C 24.3957 1.49227 -3.99542 0
M  V30 270 S 25.2287 0.558312 -5.32582 0
M  V30 271 C 26.3847 1.79847 -5.99505 0
M  V30 272 H 26.6177 0.0875416 -2.97171 0
M  V30 273 H 24.1507 -0.0733899 -1.54225 0
M  V30 274 H 26.1087 2.57305 -3.19851 0
M  V30 275 H 24.7697 2.38335 -2.04585 0
M  V30 276 H 23.9627 2.40945 -4.42676 0
M  V30 277 H 23.5647 0.865193 -3.63855 0
M  V30 278 H 25.8567 2.7406 -6.19595 0
M  V30 279 H 26.7997 1.4099 -6.93922 0
M  V30 280 H 27.2077 1.96982 -5.29016 0
M  V30 281 N 26.6058 1.57591 -0.0167156 0
M  V30 282 C 27.5688 2.08393 0.954204 0
M  V30 283 C 28.5688 0.996531 1.26198 0
M  V30 284 O 29.7588 1.25858 1.20438 0
M  V30 285 C 26.8908 2.5394 2.27436 0
M  V30 286 H 28.0838 2.95455 0.514451 0
M  V30 287 H 25.6368 1.54582 0.231089 0
M  V30 288 H 26.3718 1.70171 2.76066 0
M  V30 289 H 26.1568 3.33371 2.06412 0
M  V30 290 H 27.6468 2.93512 2.97053 0
M  V30 291 N 28.0839 -0.256276 1.55502 0
M  V30 292 C 29.0469 -1.30047 1.88734 0
M  V30 293 C 30.0469 -1.4154 0.763086 0
M  V30 294 O 31.2369 -1.40403 1.03115 0
M  V30 295 C 28.3689 -2.67953 2.10747 0
M  V30 296 H 29.5619 -1.01802 2.82093 0
M  V30 297 H 27.1149 -0.495134 1.4825 0
M  V30 298 H 27.8499 -3.01351 1.19825 0
M  V30 299 H 27.6349 -2.60993 2.92617 0
M  V30 300 H 29.1249 -3.43368 2.37673 0
M  V30 301 N 29.562 -1.4872 -0.521534 0
M  V30 302 C 30.839 -1.4766 -1.2828 0
M  V30 303 C 31.219 -0.19292 -2.10217 0
M  V30 304 O 30.567 0.825193 -2.13079 0
M  V30 305 C 30.777 -2.74358 -2.15705 0
M  V30 306 C 32.125 -3.23028 -2.75569 0
M  V30 307 O 33.149 -2.75333 -2.25987 0
M  V30 308 O 32.008 -4.0604 -3.65778 0
M  V30 309 H 29.102 -0.590085 -0.579421 0
M  V30 310 H 31.648 -1.60963 -0.537492 0
M  V30 311 H 30.42 -3.59292 -1.54999 0
M  V30 312 H 30.043 -2.63816 -2.97467 0
M  V30 313 N 31.0401 0.771051 -1.3745 0
M  V30 314 C 32.0031 1.86598 -1.33093 0
M  V30 315 C 33.0031 1.59076 -0.234845 0
M  V30 316 O 34.1931 1.67145 -0.490732 0
M  V30 317 C 31.3251 3.23747 -1.06773 0
M  V30 318 H 32.5181 1.91873 -2.30488 0
M  V30 319 H 30.0711 0.970876 -1.2249 0
M  V30 320 H 30.8061 3.24148 -0.099129 0
M  V30 321 H 30.5911 3.45115 -1.86112 0
M  V30 322 H 32.0811 4.03824 -1.06377 0
M  V30 323 N 32.5182 1.22032 0.997298 0
M  V30 324 C 33.4282 1.00271 2.12092 0
M  V30 325 C 34.4442 -0.047621 1.73935 0
M  V30 326 O 35.6202 0.144136 2.00884 0
M  V30 327 C 32.6852 0.578449 3.4184 0
M  V30 328 C 31.7462 1.70189 3.94125 0
M  V30 329 C 30.9792 1.29778 5.17681 0
M  V30 330 O 31.2022 0.174676 5.70132 0
M  V30 331 O 30.1362 2.11261 5.63607 0
M  V30 332 H 33.9622 1.94398 2.3333 0
M  V30 333 H 31.5472 1.00587 1.10465 0
M  V30 334 H 33.4292 0.351998 4.19927 0
M  V30 335 H 32.1042 -0.334019 3.21972 0
M  V30 336 H 31.0112 1.98282 3.1723 0
M  V30 337 H 32.3442 2.59206 4.18417 0
M  V30 338 N 33.9963 -1.19345 1.0293 0
M  V30 339 C 34.9463 -2.20472 0.58104 0
M  V30 340 C 35.9303 -1.56578 -0.370442 0
M  V30 341 O 37.1223 -1.75963 -0.191344 0
M  V30 342 C 34.2513 -3.43236 -0.066306 0
M  V30 343 C 33.3373 -4.14274 0.907642 0
M  V30 344 N 33.7283 -4.61492 2.07023 0
M  V30 345 C 32.0263 -4.39966 0.731177 0
M  V30 346 C 32.7273 -5.1605 2.68454 0
M  V30 347 N 31.7033 -5.06875 1.96414 0
M  V30 348 H 35.5053 -2.54659 1.46717 0
M  V30 349 H 33.0193 -1.35423 0.896345 0
M  V30 350 H 35.0163 -4.14927 -0.405068 0
M  V30 351 H 33.6763 -3.10549 -0.948118 0
M  V30 352 H 34.6873 -4.56304 2.44963 0
M  V30 353 H 31.3643 -4.17377 -0.101507 0
M  V30 354 H 32.7543 -5.6287 3.66915 0
M  V30 355 N 35.4744 -0.807222 -1.35358 0
M  V30 356 C 36.7204 -0.388463 -1.99045 0
M  V30 357 C 37.0534 1.04184 -1.63888 0
M  V30 358 O 36.3284 1.72292 -0.902535 0
M  V30 359 C 36.6114 -0.572783 -3.55515 0
M  V30 360 C 36.4644 -2.04807 -4.00468 0
M  V30 361 C 37.7834 0.00114064 -4.401 0
M  V30 362 H 34.9024 -0.142619 -0.723069 0
M  V30 363 H 37.5444 -1.01687 -1.60498 0
M  V30 364 H 35.6944 -0.0378425 -3.88482 0
M  V30 365 H 37.3664 -2.64544 -3.77908 0
M  V30 366 H 35.6094 -2.54427 -3.51353 0
M  V30 367 H 36.2804 -2.12792 -5.09337 0
M  V30 368 H 38.7564 -0.455716 -4.13597 0
M  V30 369 H 37.6324 -0.157737 -5.48673 0
M  V30 370 H 37.8934 1.09488 -4.28328 0
M  V30 371 N 36.9525 1.47285 -0.560781 0
M  V30 372 C 38.1985 2.02764 -0.0381184 0
M  V30 373 C 38.5315 1.43384 1.30976 0
M  V30 374 O 37.8065 0.590733 1.85312 0
M  V30 375 C 38.0895 3.60064 0.0511427 0
M  V30 376 C 37.9425 4.2987 -1.32408 0
M  V30 377 C 39.2615 4.33439 0.762795 0
M  V30 378 H 36.3805 0.736841 -0.0153264 0
M  V30 379 H 39.0225 1.75675 -0.723759 0
M  V30 380 H 37.1725 3.83274 0.635065 0
M  V30 381 H 38.8445 4.17989 -1.95148 0
M  V30 382 H 37.0875 3.90085 -1.8978 0
M  V30 383 H 37.7585 5.38478 -1.21431 0
M  V30 384 H 40.2345 4.15243 0.266965 0
M  V30 385 H 39.1105 5.43124 0.794221 0
M  V30 386 H 39.3715 4.02915 1.81966 0
M  V30 387 N 38.4306 0.297415 1.54768 0
M  V30 388 C 39.3406 -0.58983 2.27064 0
M  V30 389 C 40.3566 -1.15144 1.30453 0
M  V30 390 O 41.5326 -1.17699 1.63428 0
M  V30 391 C 38.5976 -1.74714 2.9946 0
M  V30 392 C 37.6586 -1.21997 4.11601 0
M  V30 393 C 36.8916 -2.32212 4.80535 0
M  V30 394 O 37.1146 -3.52036 4.48806 0
M  V30 395 O 36.0486 -1.99106 5.68014 0
M  V30 396 H 39.8746 -0.00348199 3.037 0
M  V30 397 H 37.4596 0.0640035 1.49263 0
M  V30 398 H 39.3416 -2.42147 3.44881 0
M  V30 399 H 38.0166 -2.32016 2.25722 0
M  V30 400 H 36.9236 -0.511458 3.70587 0
M  V30 401 H 38.2566 -0.692419 4.87305 0
M  V30 402 N 39.9087 -1.5758 0.0250728 0
M  V30 403 C 40.8717 -2.08896 -0.943139 0
M  V30 404 C 41.8717 -1.00321 -1.25668 0
M  V30 405 O 43.0617 -1.26495 -1.19769 0
M  V30 406 C 40.1937 -2.55143 -2.26086 0
M  V30 407 H 41.3867 -2.95723 -0.498775 0
M  V30 408 H 38.9397 -1.54703 -0.222888 0
M  V30 409 H 39.6747 -1.71633 -2.75159 0
M  V30 410 H 39.4597 -3.34461 -2.04641 0
M  V30 411 H 40.9497 -2.95083 -2.95492 0
M  V30 412 N 41.3868 0.248026 -1.55636 0
M  V30 413 C 42.8028 0.596483 -1.48035 0
M  V30 414 C 43.0028 1.88386 -0.715039 0
M  V30 415 O 42.0588 2.51319 -0.243944 0
M  V30 416 C 43.3718 0.700258 -2.92433 0
M  V30 417 C 44.9198 0.792659 -3.02797 0
M  V30 418 C 45.3948 0.928005 -4.485 0
M  V30 419 N 46.8858 0.992903 -4.52433 0
M  V30 420 C 47.6208 1.11687 -5.62418 0
M  V30 421 N 47.1168 1.20645 -6.82214 0
M  V30 422 N 48.9098 1.14994 -5.50212 0
M  V30 423 H 41.0608 -0.597109 -2.03834 0
M  V30 424 H 43.3238 -0.205925 -0.925364 0
M  V30 425 H 43.0298 -0.175658 -3.51261 0
M  V30 426 H 42.9038 1.57255 -3.42857 0
M  V30 427 H 45.2908 1.65903 -2.4405 0
M  V30 428 H 45.3718 -0.104762 -2.55585 0
M  V30 429 H 45.0158 0.0661971 -5.07857 0
M  V30 430 H 44.9458 1.84045 -4.93391 0
M  V30 431 H 47.4368 0.935064 -3.66149 0
M  V30 432 H 47.7498 1.30008 -7.61786 0
M  V30 433 H 46.0948 1.17605 -6.84977 0
M  V30 434 H 49.2858 1.07643 -4.55555 0
M  V30 435 H 49.4588 1.24311 -6.35965 0
M  V30 436 N 42.8649 1.48995 0.513639 0
M  V30 437 C 43.8119 1.6473 1.61656 0
M  V30 438 C 44.7819 0.488984 1.58739 0
M  V30 439 O 45.9669 0.714478 1.76918 0
M  V30 440 C 43.1069 1.7082 2.99858 0
M  V30 441 C 42.2199 2.9787 3.12885 0
M  V30 442 C 41.3549 2.95017 4.41744 0
M  V30 443 C 40.3939 4.16702 4.48359 0
M  V30 444 N 39.5309 4.11832 5.68629 0
M  V30 445 H 44.3709 2.58909 1.47547 0
M  V30 446 H 41.9079 1.28382 0.71808 0
M  V30 447 H 43.8659 1.72331 3.79944 0
M  V30 448 H 42.4959 0.801181 3.12699 0
M  V30 449 H 41.5479 3.06029 2.25944 0
M  V30 450 H 42.8599 3.8786 3.13633 0
M  V30 451 H 42.0139 2.95021 5.30139 0
M  V30 452 H 40.7529 2.02784 4.43542 0
M  V30 453 H 39.7579 4.16955 3.58369 0
M  V30 454 H 40.9829 5.10113 4.48287 0
M  V30 455 H 38.9289 3.22428 5.71293 0
M  V30 456 H 38.8459 4.95543 5.7094 0
M  V30 457 H 40.1139 4.1592 6.59266 0
M  V30 458 N 44.343 -0.763751 1.37857 0
M  V30 459 C 45.591 -1.51957 1.33243 0
M  V30 460 C 45.912 -1.94835 -0.0801709 0
M  V30 461 O 45.182 -1.66894 -1.02582 0
M  V30 462 H 43.762 -0.563626 0.49024 0
M  V30 463 H 46.424 -0.908504 1.7243 0
M  V30 464 H 45.52 -2.41523 1.97669 0
M  V30 465 N 45.8211 -1.22559 -0.990812 0
M  V30 466 C 47.0511 -1.07623 -1.76355 0
M  V30 467 C 47.4591 0.37601 -1.85426 0
M  V30 468 O 46.8021 1.27228 -1.32509 0
M  V30 469 C 46.8641 -1.61507 -3.21179 0
M  V30 470 C 46.5281 -3.10146 -3.35646 0
M  V30 471 C 47.5251 -4.07553 -3.22796 0
M  V30 472 C 45.2101 -3.49644 -3.60631 0
M  V30 473 C 47.2041 -5.42442 -3.34716 0
M  V30 474 C 44.8911 -4.84682 -3.72192 0
M  V30 475 C 45.8891 -5.8089 -3.59243 0
M  V30 476 O 45.5771 -7.13476 -3.70415 0
M  V30 477 H 45.3091 -0.377745 -0.560611 0
M  V30 478 H 47.8631 -1.62658 -1.25425 0
M  V30 479 H 46.0931 -1.00881 -3.73309 0
M  V30 480 H 47.7821 -1.42202 -3.80175 0
M  V30 481 H 48.5481 -3.78381 -3.03403 0
M  V30 482 H 44.4271 -2.75282 -3.69785 0
M  V30 483 H 47.9711 -6.17518 -3.24526 0
M  V30 484 H 43.8681 -5.13534 -3.91092 0
M  V30 485 H 44.6361 -7.21083 -3.87275 0
M  V30 486 N 47.2992 1.18797 -1.03562 0
M  V30 487 C 48.5462 1.8865 -0.736023 0
M  V30 488 C 48.8742 1.80041 0.735889 0
M  V30 489 O 48.1292 1.19179 1.55225 0
M  V30 490 C 48.4282 3.38692 -1.14117 0
M  V30 491 C 48.0942 3.67504 -2.6125 0
M  V30 492 C 46.7562 3.75078 -3.01447 0
M  V30 493 C 49.1082 3.80293 -3.56408 0
M  V30 494 C 46.4362 3.92915 -4.35701 0
M  V30 495 C 48.7882 3.99645 -4.90374 0
M  V30 496 C 47.4522 4.05453 -5.30249 0
M  V30 497 H 46.7222 0.690321 -0.26933 0
M  V30 498 H 49.3692 1.40641 -1.29971 0
M  V30 499 H 47.6742 3.88645 -0.496202 0
M  V30 500 H 49.3712 3.91072 -0.886789 0
M  V30 501 H 45.9612 3.62223 -2.29113 0
M  V30 502 H 50.1452 3.73779 -3.26501 0
M  V30 503 H 45.4012 3.95653 -4.66121 0
M  V30 504 H 49.5752 4.08482 -5.64017 0
M  V30 505 H 47.2022 4.19027 -6.34288 0
M  V30 506 N 48.7773 0.814389 1.34928 0
M  V30 507 C 50.0023 0.410097 2.03305 0
M  V30 508 C 50.4273 -0.973464 1.60951 0
M  V30 509 O 49.7853 -1.63185 0.789964 0
M  V30 510 C 49.8333 0.51049 3.56968 0
M  V30 511 O 48.9373 -0.473035 4.09678 0
M  V30 512 H 48.2783 0.170088 0.641846 0
M  V30 513 H 50.8083 1.10244 1.72358 0
M  V30 514 H 50.8183 0.383135 4.06197 0
M  V30 515 H 49.4933 1.51963 3.87144 0
M  V30 516 H 48.0703 -0.305272 3.71648 0
M  V30 517 N 50.2554 -1.46986 0.568584 0
M  V30 518 C 51.1854 -2.32946 -0.160753 0
M  V30 519 C 52.1664 -1.44487 -0.897631 0
M  V30 520 O 53.3514 -1.73327 -0.875867 0
M  V30 521 C 50.4814 -3.26494 -1.18403 0
M  V30 522 C 49.4354 -4.24282 -0.562895 0
M  V30 523 C 48.7614 -5.07236 -1.69163 0
M  V30 524 C 50.0614 -5.19989 0.490761 0
M  V30 525 H 51.7554 -2.94175 0.556916 0
M  V30 526 H 49.3014 -1.4146 0.26927 0
M  V30 527 H 51.2544 -3.85477 -1.70251 0
M  V30 528 H 49.9784 -2.63343 -1.93179 0
M  V30 529 H 48.6374 -3.66541 -0.0656164 0
M  V30 530 H 48.2854 -4.4048 -2.42871 0
M  V30 531 H 47.9854 -5.7345 -1.28174 0
M  V30 532 H 49.5094 -5.6908 -2.21314 0
M  V30 533 H 50.9234 -5.73271 0.0579047 0
M  V30 534 H 49.3204 -5.94469 0.820165 0
M  V30 535 H 50.3904 -4.64777 1.3824 0
M  V30 536 N 51.7335 -0.305618 -1.54608 0
M  V30 537 C 52.9795 0.302746 -2.00528 0
M  V30 538 C 53.3125 1.53184 -1.19367 0
M  V30 539 O 52.5875 1.92598 -0.271321 0
M  V30 540 C 52.8705 0.654756 -3.54097 0
M  V30 541 C 52.7235 -0.583793 -4.45995 0
M  V30 542 C 54.0425 1.47947 -4.14487 0
M  V30 543 H 51.1615 0.108564 -0.72896 0
M  V30 544 H 53.8035 -0.418634 -1.85331 0
M  V30 545 H 51.9535 1.26935 -3.67178 0
M  V30 546 H 53.6255 -1.22224 -4.44814 0
M  V30 547 H 51.8685 -1.21615 -4.16404 0
M  V30 548 H 52.5395 -0.293287 -5.5122 0
M  V30 549 H 55.0155 0.96013 -4.04871 0
M  V30 550 H 53.8915 1.69454 -5.22088 0
M  V30 551 H 54.1525 2.47011 -3.66658 0
M  V30 552 N 53.2116 1.57565 -0.0334293 0
M  V30 553 C 54.1746 2.09393 0.932048 0
M  V30 554 C 55.1746 1.00986 1.25134 0
M  V30 555 O 56.3646 1.27129 1.19096 0
M  V30 556 C 53.4966 2.56338 2.2473 0
M  V30 557 H 54.6896 2.95984 0.483085 0
M  V30 558 H 52.2426 1.54819 0.21468 0
M  V30 559 H 52.9776 1.7309 2.74245 0
M  V30 560 H 52.7626 3.35542 2.02865 0
M  V30 561 H 54.2526 2.96646 2.93923 0
M  V30 562 N 54.6897 -0.239769 1.55765 0
M  V30 563 C 55.6197 -1.30052 1.9393 0
M  V30 564 C 56.6007 -1.49839 0.805132 0
M  V30 565 O 57.7857 -1.62328 1.06599 0
M  V30 566 C 54.9157 -2.65391 2.2402 0
M  V30 567 C 53.8697 -2.60289 3.39755 0
M  V30 568 C 53.1957 -3.99489 3.55405 0
M  V30 569 C 54.4957 -2.16654 4.75246 0
M  V30 570 H 56.1897 -0.983573 2.82783 0
M  V30 571 H 53.7357 -0.471701 1.36055 0
M  V30 572 H 55.6887 -3.3974 2.49308 0
M  V30 573 H 54.4127 -2.98736 1.32 0
M  V30 574 H 53.0717 -1.88398 3.14487 0
M  V30 575 H 52.7197 -4.30112 2.60793 0
M  V30 576 H 52.4197 -3.96962 4.33238 0
M  V30 577 H 53.9437 -4.75528 3.83022 0
M  V30 578 H 55.3577 -2.80737 4.99859 0
M  V30 579 H 53.7547 -2.25223 5.56232 0
M  V30 580 H 54.8247 -1.11835 4.71827 0
M  V30 581 N 56.1678 -1.49265 -0.50573 0
M  V30 582 C 57.0778 -1.68312 -1.63427 0
M  V30 583 C 58.0938 -0.565682 -1.64548 0
M  V30 584 O 59.2698 -0.839801 -1.83055 0
M  V30 585 C 56.3348 -1.74107 -2.99813 0
M  V30 586 C 55.3958 -2.97653 -3.09356 0
M  V30 587 C 54.6288 -3.03163 -4.39236 0
M  V30 588 O 54.8518 -2.16396 -5.27758 0
M  V30 589 O 53.7858 -3.9558 -4.53652 0
M  V30 590 H 57.6118 -2.63907 -1.50289 0
M  V30 591 H 55.1968 -1.32951 -0.681502 0
M  V30 592 H 57.0788 -1.803 -3.80881 0
M  V30 593 H 55.7538 -0.816901 -3.13223 0
M  V30 594 H 54.6608 -2.96981 -2.27493 0
M  V30 595 H 55.9938 -3.89535 -3.00871 0
M  V30 596 N 57.6459 0.756429 -1.3826 0
M  V30 597 C 58.8929 1.51547 -1.34312 0
M  V30 598 C 59.2209 1.94382 0.0677144 0
M  V30 599 O 58.4759 1.65514 1.04421 0
M  V30 600 C 58.7749 2.78313 -2.24224 0
M  V30 601 C 58.4409 2.54455 -3.72241 0
M  V30 602 C 57.1029 2.47657 -4.12576 0
M  V30 603 C 59.4549 2.3354 -4.65949 0
M  V30 604 C 56.7829 2.17956 -5.44713 0
M  V30 605 C 59.1349 2.05359 -5.9834 0
M  V30 606 C 57.7989 1.97016 -6.37762 0
M  V30 607 H 57.0689 0.55455 -0.491482 0
M  V30 608 H 59.7159 0.870039 -1.70595 0
M  V30 609 H 58.0209 3.47492 -1.80987 0
M  V30 610 H 59.7179 3.36259 -2.18474 0
M  V30 611 H 56.3079 2.60616 -3.40261 0
M  V30 612 H 60.4919 2.37772 -4.35635 0
M  V30 613 H 55.7479 2.10003 -5.74203 0
M  V30 614 H 59.9219 1.88179 -6.70494 0
M  V30 615 H 57.5489 1.73766 -7.40074 0
M  V30 616 N 59.124 1.23083 0.984299 0
M  V30 617 C 60.372 1.05848 1.72165 0
M  V30 618 C 60.693 -0.406049 1.90726 0
M  V30 619 O 59.963 -1.29139 1.47309 0
M  V30 620 H 58.543 0.388685 0.637913 0
M  V30 621 H 61.205 1.54736 1.18503 0
M  V30 622 H 60.301 1.54327 2.71274 0
M  V30 623 N 60.6021 -1.18246 1.0419 0
M  V30 624 C 62.0131 -1.69914 0.773698 0
M  V30 625 C 62.3641 -1.83085 -0.705297 0
M  V30 626 O 61.4891 -1.51123 -1.5489 0
M  V30 627 C 62.0841 -3.08619 1.39784 0
M  V30 628 C 60.6431 -3.57494 1.17792 0
M  V30 629 C 59.7901 -2.34013 1.48773 0
M  V30 630 H 62.7411 -1.02904 1.20816 0
M  V30 631 H 62.7621 -3.71958 0.801714 0
M  V30 632 H 62.2741 -2.99001 2.47426 0
M  V30 633 H 60.3751 -3.72406 0.120295 0
M  V30 634 H 60.4881 -4.40852 1.87581 0
M  V30 635 H 58.8521 -2.37986 0.907463 0
M  V30 636 H 59.6351 -2.27013 2.57527 0
M  V30 637 N 62.0802 -0.821533 -1.34494 0
M  V30 638 C 63.0102 -0.257138 -2.3208 0
M  V30 639 C 63.9912 0.625645 -1.58176 0
M  V30 640 O 65.1762 0.552811 -1.86166 0
M  V30 641 C 62.3062 0.582958 -3.42372 0
M  V30 642 C 61.2602 -0.202571 -4.2752 0
M  V30 643 C 60.5862 0.760179 -5.29269 0
M  V30 644 C 61.8862 -1.40998 -5.02908 0
M  V30 645 H 63.5802 -1.07247 -2.79532 0
M  V30 646 H 61.1262 -0.517163 -1.34393 0
M  V30 647 H 63.0792 0.987972 -4.09655 0
M  V30 648 H 61.8032 1.43133 -2.93565 0
M  V30 649 H 60.4622 -0.588936 -3.61838 0
M  V30 650 H 60.1102 1.60447 -4.76724 0
M  V30 651 H 59.8102 0.238809 -5.87115 0
M  V30 652 H 61.3342 1.16308 -5.9942 0
M  V30 653 H 62.7482 -1.07905 -5.63054 0
M  V30 654 H 61.1452 -1.86689 -5.70322 0
M  V30 655 H 62.2152 -2.1889 -4.32684 0
M  V30 656 N 63.5583 1.46682 -0.576371 0
M  V30 657 C 64.5213 2.28707 0.150239 0
M  V30 658 C 65.5213 1.38035 0.824794 0
M  V30 659 O 66.7113 1.60476 0.677719 0
M  V30 660 C 63.8433 3.18248 1.22192 0
M  V30 661 H 65.0363 2.94423 -0.570521 0
M  V30 662 H 62.5893 1.52688 -0.334078 0
M  V30 663 H 63.3243 2.57265 1.97447 0
M  V30 664 H 63.1093 3.85 0.742812 0
M  V30 665 H 64.5993 3.80001 1.73172 0
M  V30 666 N 65.0364 0.313813 1.54444 0
M  V30 667 C 65.9994 -0.54379 2.22656 0
M  V30 668 C 66.9994 -1.05124 1.21678 0
M  V30 669 O 68.1894 -0.945225 1.46325 0
M  V30 670 C 65.3214 -1.75427 2.92298 0
M  V30 671 H 66.5144 0.0523599 2.99854 0
M  V30 672 H 64.0674 0.0647834 1.56166 0
M  V30 673 H 64.8024 -2.38991 2.19211 0
M  V30 674 H 64.5874 -1.39791 3.66334 0
M  V30 675 H 66.0774 -2.36325 3.44297 0
M  V30 676 N 66.5145 -1.57545 0.0417849 0
M  V30 677 C 67.4475 -2.06514 -0.970928 0
M  V30 678 C 68.4255 -0.963607 -1.30971 0
M  V30 679 O 69.6095 -1.23486 -1.4242 0
M  V30 680 C 66.7365 -2.4978 -2.28752 0
M  V30 681 C 65.7825 -3.71078 -2.10246 0
M  V30 682 S 66.6155 -5.17158 -1.38952 0
M  V30 683 C 67.7715 -5.6373 -2.71954 0
M  V30 684 H 68.0045 -2.9209 -0.554129 0
M  V30 685 H 65.5375 -1.53459 -0.17024 0
M  V30 686 H 67.4955 -2.75371 -3.04435 0
M  V30 687 H 66.1565 -1.64527 -2.67562 0
M  V30 688 H 65.3495 -3.9924 -3.07609 0
M  V30 689 H 64.9515 -3.45705 -1.42704 0
M  V30 690 H 67.2435 -5.68743 -3.68154 0
M  V30 691 H 68.1865 -6.63086 -2.4844 0
M  V30 692 H 68.5945 -4.91424 -2.77782 0
M  V30 693 N 67.9926 0.231505 -1.5589 0
M  V30 694 C 68.9556 1.27028 -1.90779 0
M  V30 695 C 69.9556 1.40308 -0.785507 0
M  V30 696 O 71.1456 1.38744 -1.05336 0
M  V30 697 C 68.2776 2.64566 -2.14983 0
M  V30 698 H 69.4706 0.973017 -2.83677 0
M  V30 699 H 67.0236 0.471486 -1.49019 0
M  V30 700 H 67.7586 2.99406 -1.24604 0
M  V30 701 H 67.5436 2.56305 -2.96732 0
M  V30 702 H 69.0336 3.39543 -2.43105 0
M  V30 703 N 69.4707 1.49531 0.497807 0
M  V30 704 C 70.4177 1.66436 1.59899 0
M  V30 705 C 71.3877 0.505793 1.58212 0
M  V30 706 O 72.5727 0.733202 1.7615 0
M  V30 707 C 69.7127 1.7399 2.98029 0
M  V30 708 C 68.8257 3.01172 3.09708 0
M  V30 709 C 67.9607 2.99686 4.38591 0
M  V30 710 C 66.9997 4.21434 4.43914 0
M  V30 711 N 66.1367 4.1784 5.64229 0
M  V30 712 H 70.9767 2.60459 1.44793 0
M  V30 713 H 68.5137 1.29137 0.704423 0
M  V30 714 H 70.4717 1.76352 3.78095 0
M  V30 715 H 69.1017 0.834301 3.11832 0
M  V30 716 H 68.1537 3.08408 2.22685 0
M  V30 717 H 69.4657 3.91165 3.09502 0
M  V30 718 H 68.6197 3.00628 5.2698 0
M  V30 719 H 67.3587 2.07477 4.41367 0
M  V30 720 H 66.3637 4.20733 3.53926 0
M  V30 721 H 67.5887 5.14839 4.42851 0
M  V30 722 H 65.5347 3.28469 5.67841 0
M  V30 723 H 65.4517 5.01571 5.65652 0
M  V30 724 H 66.7197 4.22889 6.54817 0
M  V30 725 N 70.9488 -0.749086 1.3866 0
M  V30 726 C 72.1968 -1.50535 1.34847 0
M  V30 727 C 72.5178 -1.94909 -0.0595016 0
M  V30 728 O 71.7878 -1.67973 -1.00806 0
M  V30 729 H 70.3678 -0.558395 0.49619 0
M  V30 730 H 73.0298 -0.890165 1.73384 0
M  V30 731 H 72.1258 -2.39413 2.00219 0
M  V30 732 N 72.4269 -1.23603 -0.977757 0
M  V30 733 C 73.3369 -1.03632 -2.1047 0
M  V30 734 C 74.3529 0.0199435 -1.73989 0
M  V30 735 O 75.5289 -0.176076 -2.00629 0
M  V30 736 C 72.5939 -0.63276 -3.40877 0
M  V30 737 C 71.6549 -1.76437 -3.91367 0
M  V30 738 C 70.8879 -1.37997 -5.15551 0
M  V30 739 O 71.1109 -0.265357 -5.69782 0
M  V30 740 O 70.0449 -2.20201 -5.60174 0
M  V30 741 H 73.8709 -1.98086 -2.30208 0
M  V30 742 H 71.4559 -1.02332 -1.08851 0
M  V30 743 H 73.3379 -0.418761 -4.19314 0
M  V30 744 H 72.0129 0.282754 -3.22463 0
M  V30 745 H 70.9199 -2.03304 -3.14036 0
M  V30 746 H 72.2529 -2.6583 -4.14241 0
M  V30 747 N 73.905 1.17692 -1.04816 0
M  V30 748 C 74.838 2.20436 -0.590173 0
M  V30 749 C 75.816 1.58115 0.379244 0
M  V30 750 O 77 1.86228 0.291762 0
M  V30 751 C 74.127 3.38424 0.136817 0
M  V30 752 C 73.173 4.19176 -0.787023 0
M  V30 753 S 74.006 4.84815 -2.27409 0
M  V30 754 C 75.162 6.06195 -1.55817 0
M  V30 755 H 75.395 2.58944 -1.46067 0
M  V30 756 H 72.928 1.28246 -0.859784 0
M  V30 757 H 74.886 4.06798 0.550076 0
M  V30 758 H 73.547 2.98312 0.983299 0
M  V30 759 H 72.74 5.03499 -0.224681 0
M  V30 760 H 72.342 3.56219 -1.13947 0
M  V30 761 H 74.634 6.72078 -0.855387 0
M  V30 762 H 75.577 6.6695 -2.37873 0
M  V30 763 H 75.985 5.54701 -1.04722 0
M  V30 764 N 75.3831 0.828654 1.34056 0
M  V30 765 C 76.7941 0.477534 1.8049 0
M  V30 766 C 77.1451 -1.00258 1.6865 0
M  V30 767 O 76.2701 -1.78057 1.22982 0
M  V30 768 C 76.8651 0.860018 3.27703 0
M  V30 769 C 75.4241 0.561185 3.72193 0
M  V30 770 C 74.5711 1.07385 2.55663 0
M  V30 771 H 77.5221 1.0183 1.21722 0
M  V30 772 H 77.5431 0.166038 3.80138 0
M  V30 773 H 77.0551 1.93731 3.36288 0
M  V30 774 H 75.1561 -0.506465 3.69142 0
M  V30 775 H 75.2691 1.10926 4.66082 0
M  V30 776 H 73.6331 0.495149 2.49841 0
M  V30 777 H 74.4161 2.15771 2.67016 0
M  V30 778 N 76.8612 -1.46375 0.584142 0
M  V30 779 C 78.0912 -2.06461 0.0758195 0
M  V30 780 C 78.4992 -1.43322 -1.23512 0
M  V30 781 O 77.8422 -0.533216 -1.75791 0
M  V30 782 C 77.9042 -3.59131 -0.162773 0
M  V30 783 C 77.5682 -4.4447 1.06279 0
M  V30 784 C 78.5652 -4.80918 1.97519 0
M  V30 785 C 76.2502 -4.85584 1.28504 0
M  V30 786 C 78.2442 -5.57309 3.09331 0
M  V30 787 C 75.9312 -5.61734 2.4062 0
M  V30 788 C 76.9292 -5.9751 3.30863 0
M  V30 789 O 76.6172 -6.72121 4.41032 0
M  V30 790 H 76.3492 -0.673745 0.0551725 0
M  V30 791 H 78.9032 -1.88969 0.804984 0
M  V30 792 H 77.1332 -3.74936 -0.946565 0
M  V30 793 H 78.8222 -4.0114 -0.619782 0
M  V30 794 H 79.5882 -4.49732 1.81565 0
M  V30 795 H 75.4672 -4.57187 0.591702 0
M  V30 796 H 79.0112 -5.85152 3.79793 0
M  V30 797 H 74.9082 -5.92334 2.56537 0
M  V30 798 H 75.6762 -6.90547 4.39417 0
M  V30 799 N 78.3393 -0.321999 -1.54275 0
M  V30 800 C 79.6163 0.335232 -1.92706 0
M  V30 801 C 79.9963 1.70006 -1.25145 0
M  V30 802 O 79.3443 2.25067 -0.394596 0
M  V30 803 C 79.5543 0.429008 -3.46353 0
M  V30 804 C 80.9023 0.690029 -4.18956 0
M  V30 805 O 81.9263 0.511992 -3.52501 0
M  V30 806 O 80.7853 1.03338 -5.36641 0
M  V30 807 H 77.8793 0.191143 -0.804608 0
M  V30 808 H 80.4253 -0.3716 -1.65581 0
M  V30 809 H 79.1973 -0.529611 -3.87699 0
M  V30 810 H 78.8203 1.18348 -3.79578 0
M  V30 811 N 79.8174 1.5752 -0.0501392 0
M  V30 812 C 80.7804 2.1037 0.909786 0
M  V30 813 C 81.7804 1.02308 1.24056 0
M  V30 814 O 82.9704 1.28385 1.17741 0
M  V30 815 C 80.1024 2.58708 2.21998 0
M  V30 816 H 81.2954 2.96479 0.451665 0
M  V30 817 H 78.8484 1.55038 0.198248 0
M  V30 818 H 79.5834 1.75989 2.72394 0
M  V30 819 H 79.3684 3.37675 1.99295 0
M  V30 820 H 80.8584 2.99747 2.9076 0
M  V30 821 N 81.2955 -0.223234 1.56011 0
M  V30 822 C 82.2585 -1.26014 1.9145 0
M  V30 823 C 83.2585 -1.3989 0.792937 0
M  V30 824 O 84.4485 -1.38184 1.0607 0
M  V30 825 C 81.5805 -2.63422 2.16383 0
M  V30 826 H 82.7735 -0.95796 2.84189 0
M  V30 827 H 80.3265 -0.463576 1.49267 0
M  V30 828 H 81.0615 -2.98741 1.2619 0
M  V30 829 H 80.8465 -2.54728 2.98088 0
M  V30 830 H 82.3365 -3.38249 2.44903 0
M  V30 831 N 82.7736 -1.49793 -0.48987 0
M  V30 832 C 83.7366 -1.66752 -1.57246 0
M  V30 833 C 84.7366 -0.538867 -1.51502 0
M  V30 834 O 85.9266 -0.805545 -1.54456 0
M  V30 835 C 83.0586 -1.67528 -2.96896 0
M  V30 836 H 84.2516 -2.63321 -1.43534 0
M  V30 837 H 81.8046 -1.38992 -0.714914 0
M  V30 838 H 82.5396 -0.725837 -3.16073 0
M  V30 839 H 82.3246 -2.49504 -3.02473 0
M  V30 840 H 83.8146 -1.82667 -3.7553 0
M  V30 841 N 84.2517 0.741722 -1.39055 0
M  V30 842 C 85.2147 1.83733 -1.37021 0
M  V30 843 C 86.2147 1.58542 -0.268534 0
M  V30 844 O 87.4047 1.66067 -0.526076 0
M  V30 845 C 84.5367 3.2141 -1.13617 0
M  V30 846 H 85.7297 1.86941 -2.34506 0
M  V30 847 H 83.2827 0.944676 -1.24521 0
M  V30 848 H 84.0177 3.23865 -0.167863 0
M  V30 849 H 83.8027 3.4109 -1.93391 0
M  V30 850 H 85.2927 4.01477 -1.14918 0
M  V30 851 N 85.7298 1.2412 0.971189 0
M  V30 852 C 86.6768 1.0305 2.06517 0
M  V30 853 C 87.6468 -0.0550666 1.66009 0
M  V30 854 O 88.8318 0.0988688 1.90544 0
M  V30 855 C 85.9718 0.637653 3.39158 0
M  V30 856 C 85.0848 1.79633 3.92882 0
M  V30 857 C 84.2198 1.34939 5.13775 0
M  V30 858 C 83.2588 2.47823 5.59687 0
M  V30 859 N 82.3958 2.04022 6.71803 0
M  V30 860 H 87.2358 1.96685 2.23873 0
M  V30 861 H 84.7728 0.979694 1.09729 0
M  V30 862 H 86.7308 0.390931 4.15364 0
M  V30 863 H 85.3608 -0.261693 3.21737 0
M  V30 864 H 84.4128 2.15681 3.13346 0
M  V30 865 H 85.7248 2.64466 4.22918 0
M  V30 866 H 84.8788 1.06134 5.97345 0
M  V30 867 H 83.6178 0.471557 4.85415 0
M  V30 868 H 82.6228 2.77392 4.74693 0
M  V30 869 H 83.8478 3.36158 5.90063 0
M  V30 870 H 81.7938 1.18632 6.45184 0
M  V30 871 H 81.7108 2.82409 7.01271 0
M  V30 872 H 82.9788 1.78347 7.58823 0
M  V30 873 N 87.2079 -1.17134 1.05439 0
M  V30 874 C 88.1709 -2.19439 0.661764 0
M  V30 875 C 89.1709 -1.58199 -0.288042 0
M  V30 876 O 90.3609 -1.74053 -0.0715803 0
M  V30 877 C 87.4929 -3.40889 -0.0276209 0
M  V30 878 H 88.6859 -2.55688 1.56728 0
M  V30 879 H 86.2389 -1.31259 0.848567 0
M  V30 880 H 86.9739 -3.10187 -0.94629 0
M  V30 881 H 86.7589 -3.86586 0.655238 0
M  V30 882 H 88.2489 -4.16603 -0.288342 0
M  V30 883 N 88.686 -0.835752 -1.33615 0
M  V30 884 C 89.636 -0.238856 -2.26745 0
M  V30 885 C 90.62 0.604343 -1.49119 0
M  V30 886 O 91.812 0.456822 -1.71003 0
M  V30 887 C 88.941 0.587725 -3.38232 0
M  V30 888 C 88.027 -0.266811 -4.2326 0
M  V30 889 N 88.418 -1.34403 -4.87616 0
M  V30 890 C 86.716 -0.0533131 -4.45968 0
M  V30 891 C 87.417 -1.86819 -5.50884 0
M  V30 892 N 86.393 -1.17013 -5.30857 0
M  V30 893 H 90.195 -1.06266 -2.74016 0
M  V30 894 H 87.709 -0.679881 -1.47483 0
M  V30 895 H 89.706 1.03161 -4.03935 0
M  V30 896 H 88.366 1.40954 -2.9251 0
M  V30 897 H 89.377 -1.7269 -4.88261 0
M  V30 898 H 86.054 0.735312 -4.10974 0
M  V30 899 H 87.444 -2.7701 -6.1214 0
M  V30 900 N 90.1641 1.46063 -0.591896 0
M  V30 901 C 91.1271 2.28854 0.125973 0
M  V30 902 C 92.1271 1.38903 0.810107 0
M  V30 903 O 93.3171 1.61186 0.66066 0
M  V30 904 C 90.4491 3.19526 1.1881 0
M  V30 905 H 91.6421 2.93802 -0.601717 0
M  V30 906 H 89.1951 1.52325 -0.350254 0
M  V30 907 H 89.9301 2.59345 1.94707 0
M  V30 908 H 89.7151 3.85766 0.701936 0
M  V30 909 H 91.2051 3.81817 1.69132 0
M  V30 910 N 91.6422 0.330177 1.54103 0
M  V30 911 C 92.8672 -0.274893 2.0557 0
M  V30 912 C 93.2922 -1.44487 1.20437 0
M  V30 913 O 92.6502 -1.80021 0.214991 0
M  V30 914 C 92.6982 -0.68079 3.54115 0
M  V30 915 O 91.8022 -1.7824 3.71893 0
M  V30 916 H 91.1432 -0.0483849 0.662235 0
M  V30 917 H 93.6732 0.480508 1.98878 0
M  V30 918 H 93.6832 -0.961635 3.96505 0
M  V30 919 H 92.3582 0.174903 4.15532 0
M  V30 920 H 90.9352 -1.49985 3.41407 0
M  V30 921 N 93.1203 -1.57491 0.0584922 0
M  V30 922 C 94.3973 -1.84346 -0.653918 0
M  V30 923 C 94.7773 -0.948355 -1.88599 0
M  V30 924 O 94.1253 -0.0112403 -2.28497 0
M  V30 925 C 94.3353 -3.34239 -1.00425 0
M  V30 926 C 95.6833 -4.01431 -1.38342 0
M  V30 927 O 96.7073 -3.38907 -1.09637 0
M  V30 928 O 95.5663 -5.11683 -1.91943 0
M  V30 929 H 92.6603 -0.761112 -0.323478 0
M  V30 930 H 95.2063 -1.6947 0.0884125 0
M  V30 931 H 93.9783 -3.91089 -0.128625 0
M  V30 932 H 93.6013 -3.54329 -1.80378 0
M  V30 933 N 94.5984 0.214957 -1.56127 0
M  V30 934 C 95.5284 1.2695 -1.95974 0
M  V30 935 C 96.5094 1.48539 -0.828868 0
M  V30 936 O 97.6944 1.60611 -1.09168 0
M  V30 937 C 94.8244 2.61794 -2.28214 0
M  V30 938 C 93.7784 2.54851 -3.43853 0
M  V30 939 C 93.1044 3.93785 -3.61715 0
M  V30 940 C 94.4044 2.09065 -4.78632 0
M  V30 941 H 96.0984 0.93846 -2.84312 0
M  V30 942 H 93.6444 0.449996 -1.36788 0
M  V30 943 H 95.5974 3.35731 -2.54682 0
M  V30 944 H 94.3214 2.96599 -1.36736 0
M  V30 945 H 92.9804 1.8337 -3.17444 0
M  V30 946 H 92.6284 4.25908 -2.67602 0
M  V30 947 H 92.3284 3.90019 -4.39498 0
M  V30 948 H 93.8524 4.69374 -3.90539 0
M  V30 949 H 95.2664 2.7275 -5.04262 0
M  V30 950 H 93.6634 2.16346 -5.59745 0
M  V30 951 H 94.7334 1.04315 -4.73547 0
M  V30 952 N 96.0765 1.50051 0.48192 0
M  V30 953 C 97.3225 1.60736 1.2366 0
M  V30 954 C 97.6555 0.301786 1.91841 0
M  V30 955 O 96.9305 -0.696025 1.8162 0
M  V30 956 C 97.2135 2.78009 2.28874 0
M  V30 957 C 97.0665 4.18416 1.65069 0
M  V30 958 C 98.3855 2.90867 3.30279 0
M  V30 959 H 95.5045 0.585031 0.448228 0
M  V30 960 H 98.1465 1.82402 0.531946 0
M  V30 961 H 96.2965 2.59667 2.88973 0
M  V30 962 H 97.9685 4.48322 1.0865 0
M  V30 963 H 96.2115 4.23177 0.954148 0
M  V30 964 H 96.8825 4.96381 2.41474 0
M  V30 965 H 99.3585 3.07623 2.80191 0
M  V30 966 H 98.2345 3.74566 4.01238 0
M  V30 967 H 98.4955 2.01021 3.93755 0
M  V30 968 N 97.5546 -0.734337 1.39446 0
M  V30 969 C 98.7826 -1.52358 1.39981 0
M  V30 970 C 99.1976 -1.88799 -0.0054975 0
M  V30 971 O 98.5546 -1.54146 -0.976998 0
M  V30 972 C 98.6056 -2.81072 2.27333 0
M  V30 973 O 98.3266 -2.46178 3.62392 0
M  V30 974 C 99.8276 -3.75096 2.36259 0
M  V30 975 H 97.0476 -0.470806 0.478103 0
M  V30 976 H 99.5916 -0.907339 1.83269 0
M  V30 977 H 97.7466 -3.39026 1.87457 0
M  V30 978 H 98.1606 -3.28866 4.08592 0
M  V30 979 H 99.6346 -4.62305 3.01626 0
M  V30 980 H 100.112 -4.16892 1.38194 0
M  V30 981 H 100.718 -3.23061 2.76608 0
M  V30 982 N 99.0327 -1.24633 -0.964593 0
M  V30 983 C 99.9627 -1.06611 -2.07741 0
M  V30 984 C 100.944 0.0218666 -1.70086 0
M  V30 985 O 102.129 -0.145793 -1.93652 0
M  V30 986 C 99.2587 -0.673444 -3.40708 0
M  V30 987 C 98.2127 -1.71054 -3.92332 0
M  V30 988 C 97.5387 -1.17285 -5.21678 0
M  V30 989 C 98.8387 -3.10718 -4.19824 0
M  V30 990 H 100.533 -1.99693 -2.23076 0
M  V30 991 H 98.0787 -0.96152 -1.07195 0
M  V30 992 H 100.032 -0.534345 -4.17998 0
M  V30 993 H 98.7557 0.293073 -3.25282 0
M  V30 994 H 97.4147 -1.83791 -3.17201 0
M  V30 995 H 97.0627 -0.196847 -5.02615 0
M  V30 996 H 96.7627 -1.86592 -5.57187 0
M  V30 997 H 98.2867 -1.04593 -6.01575 0
M  V30 998 H 99.7007 -3.01192 -4.87808 0
M  V30 999 H 98.0977 -3.77406 -4.66567 0
M  V30 1000 H 99.1677 -3.58524 -3.26479 0
M  V30 1001 N 100.511 1.16574 -1.06058 0
M  V30 1002 C 101.739 1.90952 -0.796552 0
M  V30 1003 C 102.154 1.77302 0.648808 0
M  V30 1004 O 101.511 1.11605 1.44397 0
M  V30 1005 C 101.562 3.41736 -1.17894 0
M  V30 1006 O 101.283 3.54975 -2.56758 0
M  V30 1007 C 102.784 4.33169 -0.942308 0
M  V30 1008 H 100.004 0.605594 -0.288959 0
M  V30 1009 H 102.548 1.47777 -1.41358 0
M  V30 1010 H 100.703 3.82623 -0.606491 0
M  V30 1011 H 101.117 4.4846 -2.72 0
M  V30 1012 H 102.591 5.37439 -1.25952 0
M  V30 1013 H 103.068 4.3903 0.122078 0
M  V30 1014 H 103.674 3.98007 -1.49902 0
M  V30 1015 N 101.989 0.842826 1.3317 0
M  V30 1016 C 102.936 0.276885 2.29133 0
M  V30 1017 C 103.906 -0.609527 1.54512 0
M  V30 1018 O 105.091 -0.546955 1.82792 0
M  V30 1019 C 102.231 -0.538707 3.40869 0
M  V30 1020 C 101.344 0.372169 4.30394 0
M  V30 1021 C 100.479 -0.454908 5.29249 0
M  V30 1022 C 99.5179 0.45411 6.10413 0
M  V30 1023 N 98.6549 -0.335075 7.013 0
M  V30 1024 H 103.495 1.10052 2.76934 0
M  V30 1025 H 101.032 0.554161 1.36262 0
M  V30 1026 H 102.99 -1.02709 4.0436 0
M  V30 1027 H 101.62 -1.32727 2.9425 0
M  V30 1028 H 100.672 0.97888 3.6759 0
M  V30 1029 H 101.984 1.0703 4.87182 0
M  V30 1030 H 101.138 -1.00695 5.98285 0
M  V30 1031 H 99.8769 -1.18646 4.73048 0
M  V30 1032 H 98.8819 1.01813 5.40291 0
M  V30 1033 H 100.107 1.18409 6.68697 0
M  V30 1034 H 98.0529 -1.04994 6.47543 0
M  V30 1035 H 97.9699 0.304262 7.55387 0
M  V30 1036 H 99.2379 -0.869224 7.74638 0
M  V30 1037 N 103.467 -1.45747 0.599634 0
M  V30 1038 C 104.697 -2.06369 0.0977132 0
M  V30 1039 C 105.105 -1.44624 -1.21985 0
M  V30 1040 O 104.448 -0.551831 -1.75216 0
M  V30 1041 C 104.51 -3.59284 -0.124673 0
M  V30 1042 C 104.174 -4.43318 1.10987 0
M  V30 1043 C 105.171 -4.78796 2.02609 0
M  V30 1044 C 102.856 -4.84194 1.33647 0
M  V30 1045 C 104.85 -5.53997 3.15224 0
M  V30 1046 C 102.537 -5.5915 2.46565 0
M  V30 1047 C 103.535 -5.93968 3.37182 0
M  V30 1048 O 103.223 -6.67405 4.48136 0
M  V30 1049 H 102.955 -0.673122 0.0623153 0
M  V30 1050 H 105.509 -1.88104 0.824981 0
M  V30 1051 H 103.739 -3.75919 -0.906745 0
M  V30 1052 H 105.428 -4.01775 -0.577201 0
M  V30 1053 H 106.194 -4.47781 1.86325 0
M  V30 1054 H 102.073 -4.56534 0.64016 0
M  V30 1055 H 105.617 -5.81091 3.85978 0
M  V30 1056 H 101.514 -5.89579 2.62805 0
M  V30 1057 H 102.282 -6.85847 4.46717 0
M  V30 1058 N 104.945 -0.338344 -1.53925 0
M  V30 1059 C 106.222 0.314774 -1.93051 0
M  V30 1060 C 106.602 1.68669 -1.26941 0
M  V30 1061 O 105.95 2.24636 -0.418445 0
M  V30 1062 C 106.16 0.392249 -3.46789 0
M  V30 1063 C 107.508 0.645554 -4.19664 0
M  V30 1064 O 108.532 0.474575 -3.53024 0
M  V30 1065 O 107.391 0.976408 -5.37707 0
M  V30 1066 H 104.485 0.182598 -0.80659 0
M  V30 1067 H 107.031 -0.389141 -1.65178 0
M  V30 1068 H 105.803 -0.570702 -3.87116 0
M  V30 1069 H 105.426 1.14316 -3.80812 0
M  V30 1070 N 106.423 1.57458 -0.0668435 0
M  V30 1071 C 107.834 1.80776 0.466558 0
M  V30 1072 C 108.185 0.980361 1.69951 0
M  V30 1073 O 107.31 0.201441 2.1546 0
M  V30 1074 C 107.905 3.27881 0.85321 0
M  V30 1075 C 106.464 3.52062 1.3315 0
M  V30 1076 C 105.611 2.75513 0.314264 0
M  V30 1077 H 108.562 1.5598 -0.292588 0
M  V30 1078 H 108.583 3.39659 1.715 0
M  V30 1079 H 108.095 3.88075 -0.0443439 0
M  V30 1080 H 106.196 2.97167 2.24772 0
M  V30 1081 H 106.309 4.60762 1.31285 0
M  V30 1082 H 104.673 2.42123 0.790492 0
M  V30 1083 H 105.456 3.38442 -0.575477 0
M  V30 1084 N 107.901 -0.206675 1.56239 0
M  V30 1085 C 109.126 -0.949474 1.8439 0
M  V30 1086 C 109.551 -1.76549 0.649016 0
M  V30 1087 O 108.909 -1.76782 -0.402231 0
M  V30 1088 C 108.957 -1.83078 3.10668 0
M  V30 1089 O 108.061 -2.9281 2.90407 0
M  V30 1090 H 107.402 -0.268033 0.607499 0
M  V30 1091 H 109.932 -0.215488 2.03462 0
M  V30 1092 H 109.942 -2.2377 3.41161 0
M  V30 1093 H 108.617 -1.23112 3.97261 0
M  V30 1094 H 107.194 -2.55956 2.71184 0
M  V30 1095 N 109.379 -1.50304 -0.473955 0
M  V30 1096 C 110.656 -1.51667 -1.23518 0
M  V30 1097 C 111.036 -0.259701 -2.09496 0
M  V30 1098 O 110.384 0.756986 -2.15597 0
M  V30 1099 C 110.594 -2.81082 -2.06868 0
M  V30 1100 C 111.942 -3.31631 -2.65153 0
M  V30 1101 O 112.966 -2.82384 -2.17113 0
M  V30 1102 O 111.825 -4.17471 -3.52675 0
M  V30 1103 H 108.919 -0.60822 -0.560355 0
M  V30 1104 H 111.465 -1.62592 -0.486011 0
M  V30 1105 H 110.237 -3.64041 -1.4349 0
M  V30 1106 H 109.86 -2.73146 -2.88924 0
M  V30 1107 N 110.857 0.726932 -1.39834 0
M  V30 1108 C 111.787 1.85405 -1.41941 0
M  V30 1109 C 112.768 1.67751 -0.281728 0
M  V30 1110 O 113.953 1.8795 -0.488717 0
M  V30 1111 C 111.083 3.23243 -1.2701 0
M  V30 1112 C 110.037 3.55549 -2.38262 0
M  V30 1113 C 109.363 4.9241 -2.08415 0
M  V30 1114 C 110.663 3.577 -3.80589 0
M  V30 1115 H 112.357 1.83899 -2.36266 0
M  V30 1116 H 109.903 0.883349 -1.13723 0
M  V30 1117 H 111.856 4.01775 -1.27103 0
M  V30 1118 H 110.58 3.25296 -0.291564 0
M  V30 1119 H 109.239 2.79351 -2.37399 0
M  V30 1120 H 108.887 4.91052 -1.0898 0
M  V30 1121 H 108.587 5.14992 -2.82943 0
M  V30 1122 H 110.111 5.73289 -2.10171 0
M  V30 1123 H 111.525 4.26293 -3.83337 0
M  V30 1124 H 109.922 3.91804 -4.54543 0
M  V30 1125 H 110.992 2.57328 -4.10987 0
M  V30 1126 N 112.336 1.25143 0.95797 0
M  V30 1127 C 113.566 1.12261 1.73439 0
M  V30 1128 C 113.974 -0.326715 1.86358 0
M  V30 1129 O 113.317 -1.2367 1.35836 0
M  V30 1130 C 113.379 1.69966 3.16784 0
M  V30 1131 C 113.043 3.18936 3.27305 0
M  V30 1132 C 114.04 4.15968 3.11877 0
M  V30 1133 C 111.725 3.59083 3.51234 0
M  V30 1134 C 113.719 5.51126 3.20217 0
M  V30 1135 C 111.406 4.9438 3.5921 0
M  V30 1136 C 112.404 5.90211 3.43716 0
M  V30 1137 O 112.092 7.23046 3.51368 0
M  V30 1138 H 111.824 0.392476 0.550399 0
M  V30 1139 H 114.378 1.65927 1.21068 0
M  V30 1140 H 112.608 1.10744 3.70503 0
M  V30 1141 H 114.297 1.52232 3.76272 0
M  V30 1142 H 115.063 3.86292 2.93264 0
M  V30 1143 H 110.942 2.84989 3.62356 0
M  V30 1144 H 114.486 6.25905 3.0804 0
M  V30 1145 H 110.383 5.23723 3.77339 0
M  V30 1146 H 111.151 7.31097 3.6802 0
M  V30 1147 N 113.814 -1.1601 1.06675 0
M  V30 1148 C 114.777 -2.18724 0.685001 0
M  V30 1149 C 115.777 -1.58496 -0.271246 0
M  V30 1150 O 116.967 -1.74119 -0.0531156 0
M  V30 1151 C 114.099 -3.40899 0.00853648 0
M  V30 1152 H 115.292 -2.54011 1.59431 0
M  V30 1153 H 112.845 -1.30352 0.862441 0
M  V30 1154 H 113.58 -3.11173 -0.913337 0
M  V30 1155 H 113.365 -3.8587 0.696204 0
M  V30 1156 H 114.855 -4.16886 -0.24414 0
M  V30 1157 N 115.292 -0.849877 -1.32721 0
M  V30 1158 C 116.703 -0.506188 -1.79707 0
M  V30 1159 C 117.054 0.975627 -1.70223 0
M  V30 1160 O 116.179 1.76078 -1.25799 0
M  V30 1161 C 116.774 -0.912044 -3.26293 0
M  V30 1162 C 115.333 -0.620326 -3.71253 0
M  V30 1163 C 114.48 -1.11439 -2.53922 0
M  V30 1164 H 117.431 -1.03754 -1.20087 0
M  V30 1165 H 117.452 -0.226493 -3.79825 0
M  V30 1166 H 116.964 -1.99057 -3.33164 0
M  V30 1167 H 115.065 0.447674 -3.69901 0
M  V30 1168 H 115.178 -1.18327 -4.64258 0
M  V30 1169 H 113.542 -0.534834 -2.49021 0
M  V30 1170 H 114.325 -2.19992 -2.6355 0
M  V30 1171 N 116.77 1.45427 -0.607355 0
M  V30 1172 C 118.018 2.01841 -0.102253 0
M  V30 1173 C 118.339 1.47832 1.27164 0
M  V30 1174 O 117.609 0.672497 1.83995 0
M  V30 1175 H 116.189 0.746188 -0.0348101 0
M  V30 1176 H 118.851 1.78229 -0.7887 0
M  V30 1177 H 117.947 3.12057 -0.0518585 0
M  V30 1178 N 118.248 0.346503 1.53744 0
M  V30 1179 C 119.476 -0.25041 2.05379 0
M  V30 1180 C 119.891 -1.43979 1.22129 0
M  V30 1181 O 119.248 -1.80677 0.257321 0
M  V30 1182 C 119.299 -0.662575 3.55376 0
M  V30 1183 O 119.02 0.479515 4.35468 0
M  V30 1184 C 120.521 -1.31989 4.23195 0
M  V30 1185 H 117.741 -0.0478198 0.669294 0
M  V30 1186 H 120.285 0.499346 1.9831 0
M  V30 1187 H 118.44 -1.36227 3.62658 0
M  V30 1188 H 118.854 0.15037 5.24284 0
M  V30 1189 H 120.328 -1.55902 5.29527 0
M  V30 1190 H 120.805 -2.27436 3.75725 0
M  V30 1191 H 121.411 -0.662154 4.20114 0
M  V30 1192 N 119.726 -1.57421 0.075193 0
M  V30 1193 C 120.951 -1.98364 -0.605515 0
M  V30 1194 C 121.376 -0.953383 -1.62149 0
M  V30 1195 O 120.734 0.0806053 -1.81121 0
M  V30 1196 C 120.782 -3.38332 -1.24756 0
M  V30 1197 O 119.886 -3.37959 -2.36342 0
M  V30 1198 H 119.227 -0.645553 -0.155428 0
M  V30 1199 H 121.757 -2.04044 0.150714 0
M  V30 1200 H 121.767 -3.75591 -1.5936 0
M  V30 1201 H 120.442 -4.12846 -0.503129 0
M  V30 1202 H 119.019 -3.12474 -2.03506 0
M  V30 1203 N 121.204 0.198386 -1.56346 0
M  V30 1204 C 122.167 1.22952 -1.93431 0
M  V30 1205 C 123.167 1.38611 -0.815092 0
M  V30 1206 O 124.357 1.36479 -1.08255 0
M  V30 1207 C 121.489 2.59946 -2.20546 0
M  V30 1208 H 122.682 0.912626 -2.85677 0
M  V30 1209 H 120.235 0.43977 -1.49986 0
M  V30 1210 H 120.97 2.96696 -1.30927 0
M  V30 1211 H 120.755 2.49953 -3.02102 0
M  V30 1212 H 122.245 3.3431 -2.50253 0
M  V30 1213 N 122.682 1.50554 0.465978 0
M  V30 1214 C 123.959 1.5232 1.22712 0
M  V30 1215 C 124.339 0.270807 2.09356 0
M  V30 1216 O 123.687 -0.745541 2.15995 0
M  V30 1217 C 123.897 2.82175 2.05374 0
M  V30 1218 C 125.245 3.33033 2.6339 0
M  V30 1219 O 126.269 2.83531 2.15612 0
M  V30 1220 O 125.128 4.19336 3.50456 0
M  V30 1221 H 122.222 0.611183 0.557122 0
M  V30 1222 H 124.768 1.62847 0.477381 0
M  V30 1223 H 123.54 3.64797 1.41558 0
M  V30 1224 H 123.163 2.74675 2.87471 0
M  V30 1225 N 124.16 -0.719506 1.40217 0
M  V30 1226 C 125.437 -1.47221 1.28784 0
M  V30 1227 C 125.817 -2.10883 -0.0956067 0
M  V30 1228 O 125.165 -1.99833 -1.10811 0
M  V30 1229 C 125.375 -2.5111 2.42373 0
M  V30 1230 C 126.723 -3.17053 2.82423 0
M  V30 1231 O 127.747 -2.61429 2.41937 0
M  V30 1232 O 126.606 -4.17742 3.52355 0
M  V30 1233 H 123.7 -0.654491 0.50554 0
M  V30 1234 H 126.246 -0.752014 1.52128 0
M  V30 1235 H 125.018 -2.02556 3.34793 0
M  V30 1236 H 124.641 -3.3067 2.20778 0
M  V30 1237 N 125.638 -1.25649 -0.95132 0
M  V30 1238 C 126.884 -1.10757 -1.69884 0
M  V30 1239 C 127.217 0.350061 -1.91019 0
M  V30 1240 O 126.492 1.25783 -1.48354 0
M  V30 1241 C 126.775 -1.86606 -3.07978 0
M  V30 1242 C 126.628 -3.40217 -2.94232 0
M  V30 1243 C 127.947 -1.65182 -4.07925 0
M  V30 1244 H 125.066 -0.40374 -0.616574 0
M  V30 1245 H 127.708 -1.54521 -1.10558 0
M  V30 1246 H 125.858 -1.49409 -3.58621 0
M  V30 1247 H 127.53 -3.87108 -2.50889 0
M  V30 1248 H 125.773 -3.67759 -2.30078 0
M  V30 1249 H 126.444 -3.88505 -3.92133 0
M  V30 1250 H 128.92 -1.9757 -3.66204 0
M  V30 1251 H 127.796 -2.20683 -5.02583 0
M  V30 1252 H 128.057 -0.593933 -4.38092 0
M  V30 1253 N 127.117 1.15442 -1.07289 0
M  V30 1254 C 128.064 2.20161 -0.692653 0
M  V30 1255 C 129.034 1.63073 0.31564 0
M  V30 1256 O 130.219 1.89725 0.202235 0
M  V30 1257 C 127.359 3.44967 -0.0959509 0
M  V30 1258 C 126.472 4.16256 -1.15564 0
M  V30 1259 C 125.607 5.28609 -0.524011 0
M  V30 1260 C 124.646 5.91715 -1.56653 0
M  V30 1261 N 123.783 6.9554 -0.957531 0
M  V30 1262 H 128.623 2.52037 -1.59002 0
M  V30 1263 H 126.16 1.2378 -0.794798 0
M  V30 1264 H 128.118 4.16341 0.267628 0
M  V30 1265 H 126.748 3.1361 0.764772 0
M  V30 1266 H 125.8 3.43385 -1.6368 0
M  V30 1267 H 127.112 4.59268 -1.94613 0
M  V30 1268 H 126.266 6.06604 -0.108032 0
M  V30 1269 H 125.005 4.86787 0.29825 0
M  V30 1270 H 124.01 5.12433 -1.9923 0
M  V30 1271 H 125.235 6.35614 -2.39107 0
M  V30 1272 H 123.181 6.55814 -0.156162 0
M  V30 1273 H 123.098 7.36977 -1.68526 0
M  V30 1274 H 124.366 7.77435 -0.567032 0
M  V30 1275 N 128.595 0.856903 1.32268 0
M  V30 1276 C 129.843 0.460474 1.96784 0
M  V30 1277 C 130.164 -0.987701 1.68135 0
M  V30 1278 O 129.434 -1.69058 0.989765 0
M  V30 1279 H 128.014 0.167289 0.728027 0
M  V30 1280 H 130.676 1.09383 1.61312 0
M  V30 1281 H 129.772 0.60739 3.06133 0
M  V30 1282 N 130.073 -1.45103 0.615059 0
M  V30 1283 C 131.301 -2.06553 0.11977 0
M  V30 1284 C 131.716 -1.45842 -1.19898 0
M  V30 1285 O 131.073 -0.575325 -1.73194 0
M  V30 1286 C 131.124 -3.61495 -0.018364 0
M  V30 1287 O 130.845 -4.19942 1.24822 0
M  V30 1288 C 132.346 -4.39947 -0.544237 0
M  V30 1289 H 129.566 -0.667096 0.0722739 0
M  V30 1290 H 132.11 -1.8623 0.84491 0
M  V30 1291 H 130.265 -3.81135 -0.693865 0
M  V30 1292 H 130.679 -5.13204 1.0827 0
M  V30 1293 H 132.153 -5.48838 -0.589953 0
M  V30 1294 H 132.63 -4.10255 -1.56805 0
M  V30 1295 H 133.236 -4.25188 0.0974703 0
M  V30 1296 N 131.551 -0.354651 -1.53558 0
M  V30 1297 C 132.514 0.484566 -2.24019 0
M  V30 1298 C 133.514 1.01861 -1.24422 0
M  V30 1299 O 134.704 0.906097 -1.4878 0
M  V30 1300 C 131.836 1.67615 -2.96847 0
M  V30 1301 H 133.029 -0.131843 -2.9961 0
M  V30 1302 H 130.582 -0.106165 -1.55939 0
M  V30 1303 H 131.317 2.33095 -2.25471 0
M  V30 1304 H 131.102 1.30029 -3.69912 0
M  V30 1305 H 132.592 2.27114 -3.50441 0
M  V30 1306 N 133.029 1.57378 -0.0835403 0
M  V30 1307 C 133.992 2.12252 0.864959 0
M  V30 1308 C 134.992 1.04916 1.21858 0
M  V30 1309 O 136.182 1.30853 1.14991 0
M  V30 1310 C 133.314 2.63358 2.16461 0
M  V30 1311 H 134.507 2.97371 0.388676 0
M  V30 1312 H 132.06 1.55423 0.165317 0
M  V30 1313 H 132.795 1.81727 2.686 0
M  V30 1314 H 132.58 3.41826 1.92087 0
M  V30 1315 H 134.07 3.05847 2.84337 0
M  V30 1316 N 134.507 -0.190092 1.56449 0
M  V30 1317 C 135.454 -1.23557 1.94942 0
M  V30 1318 C 136.424 -1.44972 0.810696 0
M  V30 1319 O 137.609 -1.58023 1.06927 0
M  V30 1320 C 134.749 -2.57416 2.2985 0
M  V30 1321 C 133.862 -2.43537 3.5681 0
M  V30 1322 C 132.997 -3.70134 3.81017 0
M  V30 1323 C 132.036 -3.51109 5.01387 0
M  V30 1324 N 131.173 -4.6973 5.21822 0
M  V30 1325 H 136.013 -0.900304 2.84075 0
M  V30 1326 H 133.55 -0.43318 1.40577 0
M  V30 1327 H 135.508 -3.35409 2.48106 0
M  V30 1328 H 134.138 -2.88975 1.43852 0
M  V30 1329 H 133.19 -1.56816 3.46573 0
M  V30 1330 H 134.502 -2.25415 4.4496 0
M  V30 1331 H 133.656 -4.56566 3.9954 0
M  V30 1332 H 132.395 -3.91215 2.91207 0
M  V30 1333 H 131.4 -2.63063 4.82782 0
M  V30 1334 H 132.625 -3.31468 5.9271 0
M  V30 1335 H 130.571 -4.91065 4.34961 0
M  V30 1336 H 130.488 -4.54452 6.0416 0
M  V30 1337 H 131.756 -5.57499 5.44808 0
M  V30 1338 N 135.985 -1.50799 -0.457987 0
M  V30 1339 C 136.948 -1.7005 -1.53674 0
M  V30 1340 C 137.948 -0.570881 -1.50325 0
M  V30 1341 O 139.138 -0.838126 -1.52712 0
M  V30 1342 C 136.27 -1.73788 -2.93276 0
M  V30 1343 H 137.463 -2.66306 -1.37917 0
M  V30 1344 H 135.016 -1.40477 -0.685271 0
M  V30 1345 H 135.751 -0.792717 -3.14462 0
M  V30 1346 H 135.536 -2.55864 -2.97113 0
M  V30 1347 H 137.026 -1.90591 -3.71571 0
M  V30 1348 N 137.463 0.71206 -1.40597 0
M  V30 1349 C 138.426 1.80785 -1.40888 0
M  V30 1350 C 139.426 1.57937 -0.302103 0
M  V30 1351 O 140.616 1.64913 -0.561182 0
M  V30 1352 C 137.748 3.18927 -1.20409 0
M  V30 1353 H 138.941 1.81924 -2.38419 0
M  V30 1354 H 136.494 0.91805 -1.26497 0
M  V30 1355 H 137.229 3.23436 -0.236522 0
M  V30 1356 H 137.014 3.36911 -2.00582 0
M  V30 1357 H 138.504 3.98949 -1.23408 0
M  V30 1358 N 138.941 1.26152 0.944643 0
M  V30 1359 C 140.19 1.10883 1.68487 0
M  V30 1360 C 140.503 -0.348153 1.92477 0
M  V30 1361 O 141.709 -0.621459 2.64292 0
M  V30 1362 C 140.165 1.93624 3.03377 0
M  V30 1363 C 139.773 3.43875 2.87148 0
M  V30 1364 C 141.517 1.86954 3.81115 0
M  V30 1365 C 139.424 4.18875 4.1749 0
M  V30 1366 H 138.354 0.41135 0.631907 0
M  V30 1367 H 141.005 1.50433 1.05082 0
M  V30 1368 H 139.387 1.46904 3.67743 0
M  V30 1369 H 140.561 3.98338 2.31653 0
M  V30 1370 H 138.876 3.51744 2.22856 0
M  V30 1371 H 141.473 2.40275 4.77673 0
M  V30 1372 H 141.816 0.839518 4.07747 0
M  V30 1373 H 142.349 2.31477 3.23517 0
M  V30 1374 H 139.088 5.22332 3.96043 0
M  V30 1375 H 138.608 3.69193 4.72712 0
M  V30 1376 H 140.287 4.27134 4.85968 0
M  V30 1377 N 140.419 -1.14872 1.07899 0
M  V30 1378 C 141.665 -1.86289 0.81657 0
M  V30 1379 C 142.02 -1.8107 -0.65049 0
M  V30 1380 O 141.313 -1.22684 -1.47171 0
M  V30 1381 C 141.507 -3.34223 1.26609 0
M  V30 1382 C 141.336 -3.53846 2.77531 0
M  V30 1383 C 140.106 -3.68995 3.45212 0
M  V30 1384 C 142.304 -3.51201 3.75716 0
M  V30 1385 N 140.286 -3.76725 4.84718 0
M  V30 1386 C 141.657 -3.65112 5.01092 0
M  V30 1387 C 143.712 -3.34507 3.68794 0
M  V30 1388 C 142.415 -3.64056 6.20368 0
M  V30 1389 C 144.441 -3.34752 4.8754 0
M  V30 1390 C 143.803 -3.49199 6.11751 0
M  V30 1391 H 139.902 -0.698579 0.351443 0
M  V30 1392 H 142.486 -1.37713 1.37634 0
M  V30 1393 H 140.657 -3.81402 0.73395 0
M  V30 1394 H 142.389 -3.93377 0.95062 0
M  V30 1395 H 139.144 -3.70006 2.95622 0
M  V30 1396 H 139.568 -3.8432 5.5734 0
M  V30 1397 H 144.21 -3.22253 2.73702 0
M  V30 1398 H 141.928 -3.75087 7.15776 0
M  V30 1399 H 145.514 -3.23055 4.83866 0
M  V30 1400 H 144.394 -3.49328 7.02097 0
M  V30 1401 N 141.898 -0.863906 -1.31812 0
M  V30 1402 C 142.83 -0.272485 -2.27575 0
M  V30 1403 C 143.843 0.56104 -1.52827 0
M  V30 1404 O 145.032 0.384021 -1.7432 0
M  V30 1405 C 142.132 0.63283 -3.32939 0
M  V30 1406 C 141.305 -0.166902 -4.37081 0
M  V30 1407 C 140.364 0.665608 -5.21973 0
M  V30 1408 O 139.39 0.0958091 -5.69119 0
M  V30 1409 N 140.592 1.9787 -5.45736 0
M  V30 1410 H 143.357 -1.0954 -2.78964 0
M  V30 1411 H 140.918 -0.724791 -1.4477 0
M  V30 1412 H 142.91 1.19532 -3.86645 0
M  V30 1413 H 141.48 1.35642 -2.81638 0
M  V30 1414 H 140.7 -0.910838 -3.83533 0
M  V30 1415 H 141.988 -0.715874 -5.03739 0
M  V30 1416 H 141.386 2.46484 -5.09178 0
M  V30 1417 H 139.943 2.48911 -6.024 0
M  V30 1418 N 143.376 1.44774 -0.622745 0
M  V30 1419 C 144.653 1.95522 -0.0551974 0
M  V30 1420 C 145.033 1.5649 1.41683 0
M  V30 1421 O 144.381 0.834848 2.12703 0
M  V30 1422 C 144.591 3.4796 -0.269242 0
M  V30 1423 C 145.939 4.24306 -0.158014 0
M  V30 1424 O 146.963 3.55637 -0.200162 0
M  V30 1425 O 145.822 5.46471 -0.0558693 0
M  V30 1426 H 142.916 0.826556 0.0271015 0
M  V30 1427 H 145.462 1.54866 -0.693864 0
M  V30 1428 H 144.234 3.6939 -1.29099 0
M  V30 1429 H 143.857 3.95543 0.403966 0
M  V30 1430 N 144.854 0.36279 1.53368 0
M  V30 1431 C 145.817 -0.472679 2.24273 0
M  V30 1432 C 146.817 -1.012 1.24961 0
M  V30 1433 O 148.007 -0.898194 1.49259 0
M  V30 1434 C 145.139 -1.66039 2.97731 0
M  V30 1435 H 146.332 0.14773 2.99536 0
M  V30 1436 H 143.885 0.114434 1.55881 0
M  V30 1437 H 144.62 -2.31896 2.26704 0
M  V30 1438 H 144.405 -1.28066 3.70596 0
M  V30 1439 H 145.895 -2.25252 3.51641 0
M  V30 1440 N 146.332 -1.57332 0.0918853 0
M  V30 1441 C 147.609 -1.85691 -0.614668 0
M  V30 1442 C 147.989 -0.988146 -1.86545 0
M  V30 1443 O 147.337 -0.0597055 -2.28422 0
M  V30 1444 C 147.547 -3.36294 -0.933126 0
M  V30 1445 C 148.895 -4.04275 -1.29796 0
M  V30 1446 O 149.919 -3.41157 -1.02424 0
M  V30 1447 O 148.778 -5.1564 -1.81047 0
M  V30 1448 H 145.872 -0.767802 -0.307261 0
M  V30 1449 H 148.418 -1.69244 0.12434 0
M  V30 1450 H 147.19 -3.91273 -0.0456404 0
M  V30 1451 H 146.813 -3.58076 -1.72822 0
M  V30 1452 N 147.81 0.181792 -1.56548 0
M  V30 1453 C 149.058 0.89832 -1.81038 0
M  V30 1454 C 149.379 1.83232 -0.667164 0
M  V30 1455 O 148.649 1.93372 0.313673 0
M  V30 1456 H 147.229 0.33471 -0.667816 0
M  V30 1457 H 149.891 0.184116 -1.94028 0
M  V30 1458 H 148.987 1.4815 -2.74696 0
M  V30 1459 N 149.288 1.51039 0.449983 0
M  V30 1460 C 150.535 1.63081 1.20045 0
M  V30 1461 C 150.863 0.341024 1.91487 0
M  V30 1462 O 150.118 -0.674276 1.83717 0
M  V30 1463 C 150.417 2.77556 2.25161 0
M  V30 1464 C 150.083 4.17289 1.70823 0
M  V30 1465 C 148.745 4.55305 1.55725 0
M  V30 1466 C 151.097 5.04536 1.3074 0
M  V30 1467 C 148.425 5.78287 0.989999 0
M  V30 1468 C 150.777 6.28085 0.754482 0
M  V30 1469 C 149.441 6.64885 0.590308 0
M  V30 1470 H 148.711 0.596755 0.439277 0
M  V30 1471 H 151.358 1.85037 0.49333 0
M  V30 1472 H 149.663 2.49771 3.01863 0
M  V30 1473 H 151.36 2.84073 2.83026 0
M  V30 1474 H 147.95 3.8731 1.83546 0
M  V30 1475 H 152.134 4.75782 1.41229 0
M  V30 1476 H 147.39 6.05456 0.850451 0
M  V30 1477 H 151.564 6.95038 0.435324 0
M  V30 1478 H 149.191 7.60055 0.14862 0
M  V30 1479 N 150.766 -0.704594 1.40972 0
M  V30 1480 C 151.698 -1.82974 1.38033 0
M  V30 1481 C 152.711 -1.60305 0.283931 0
M  V30 1482 O 153.9 -1.69975 0.545042 0
M  V30 1483 C 151 -3.19578 1.12795 0
M  V30 1484 C 150.173 -3.69352 2.34302 0
M  V30 1485 C 149.232 -4.84601 2.05058 0
M  V30 1486 O 148.258 -4.96682 2.7802 0
M  V30 1487 N 149.46 -5.71194 1.03528 0
M  V30 1488 H 152.225 -1.85991 2.35005 0
M  V30 1489 H 149.786 -0.886567 1.35468 0
M  V30 1490 H 151.778 -3.9429 0.911987 0
M  V30 1491 H 150.348 -3.11642 0.24452 0
M  V30 1492 H 149.568 -2.85649 2.71659 0
M  V30 1493 H 150.856 -3.99345 3.1528 0
M  V30 1494 H 150.254 -5.64054 0.431217 0
M  V30 1495 H 148.811 -6.45843 0.879205 0
M  V30 1496 N 152.244 -1.26651 -0.937939 0
M  V30 1497 C 153.207 -1.08546 -2.01867 0
M  V30 1498 C 154.207 -0.0327327 -1.60767 0
M  V30 1499 O 155.397 -0.276427 -1.71993 0
M  V30 1500 C 152.529 -0.651711 -3.34613 0
M  V30 1501 H 153.722 -2.04502 -2.1936 0
M  V30 1502 H 151.275 -1.09294 -1.11734 0
M  V30 1503 H 152.01 0.309696 -3.22818 0
M  V30 1504 H 151.795 -1.41189 -3.65798 0
M  V30 1505 H 153.285 -0.546973 -4.14002 0
M  V30 1506 N 153.722 1.14298 -1.08507 0
M  V30 1507 C 154.669 2.19414 -0.715965 0
M  V30 1508 C 155.639 1.63399 0.298326 0
M  V30 1509 O 156.824 1.89929 0.182101 0
M  V30 1510 C 153.964 3.44845 -0.132534 0
M  V30 1511 C 153.077 4.15007 -1.19973 0
M  V30 1512 C 152.212 5.28024 -0.580048 0
M  V30 1513 C 151.251 5.9002 -1.62921 0
M  V30 1514 N 150.388 6.94485 -1.03125 0
M  V30 1515 H 155.228 2.50336 -1.61666 0
M  V30 1516 H 152.765 1.2293 -0.807882 0
M  V30 1517 H 154.723 4.16601 0.223454 0
M  V30 1518 H 153.353 3.14403 0.731467 0
M  V30 1519 H 152.405 3.41629 -1.67313 0
M  V30 1520 H 153.717 4.57178 -1.99473 0
M  V30 1521 H 152.871 6.06455 -0.172364 0
M  V30 1522 H 151.61 4.87076 0.246603 0
M  V30 1523 H 150.615 5.10291 -2.04654 0
M  V30 1524 H 151.84 6.33042 -2.45835 0
M  V30 1525 H 149.786 6.55612 -0.225711 0
M  V30 1526 H 149.703 7.35148 -1.76334 0
M  V30 1527 H 150.971 7.7679 -0.649458 0
M  V30 1528 N 155.201 0.870884 1.31352 0
M  V30 1529 C 156.449 0.48132 1.96285 0
M  V30 1530 C 156.77 -0.969813 1.69173 0
M  V30 1531 O 156.04 -1.67998 1.00764 0
M  V30 1532 H 154.62 0.175002 0.726212 0
M  V30 1533 H 157.282 1.11087 1.60143 0
M  V30 1534 H 156.378 0.639825 3.05471 0
M  V30 1535 N 156.679 -1.44442 0.630414 0
M  V30 1536 C 157.612 -2.27862 -0.124247 0
M  V30 1537 C 158.59 -1.38495 -0.851931 0
M  V30 1538 O 159.774 -1.67935 -0.856166 0
M  V30 1539 C 156.901 -3.17407 -1.18197 0
M  V30 1540 C 155.947 -4.22875 -0.554892 0
M  V30 1541 S 156.78 -5.31485 0.654489 0
M  V30 1542 C 157.936 -6.246 -0.40326 0
M  V30 1543 H 158.169 -2.91519 0.583435 0
M  V30 1544 H 155.702 -1.48618 0.418565 0
M  V30 1545 H 157.66 -3.69549 -1.78728 0
M  V30 1546 H 156.321 -2.52971 -1.86184 0
M  V30 1547 H 155.514 -4.85542 -1.35148 0
M  V30 1548 H 155.116 -3.73992 -0.0242105 0
M  V30 1549 H 157.408 -6.65375 -1.27602 0
M  V30 1550 H 158.351 -7.07851 0.187813 0
M  V30 1551 H 158.759 -5.59775 -0.728837 0
M  V30 1552 N 158.157 -0.370918 -1.53173 0
M  V30 1553 C 159.12 0.460778 -2.24521 0
M  V30 1554 C 160.12 1.00536 -1.25496 0
M  V30 1555 O 161.31 0.890266 -1.49733 0
M  V30 1556 C 158.442 1.64457 -2.98608 0
M  V30 1557 H 159.635 -0.163613 -2.99453 0
M  V30 1558 H 157.188 -0.122699 -1.55818 0
M  V30 1559 H 157.923 2.30691 -2.2793 0
M  V30 1560 H 157.708 1.26099 -3.7127 0
M  V30 1561 H 159.198 2.23384 -3.5283 0
M  V30 1562 N 159.635 1.57281 -0.100228 0
M  V30 1563 C 160.882 1.94537 0.562268 0
M  V30 1564 C 161.21 0.982315 1.67871 0
M  V30 1565 O 160.465 0.00280936 1.957 0
M  V30 1566 C 160.764 3.38305 1.15259 0
M  V30 1567 C 160.43 4.50618 0.159409 0
M  V30 1568 C 159.092 4.81066 -0.113741 0
M  V30 1569 C 161.444 5.18615 -0.518461 0
M  V30 1570 C 158.772 5.76835 -1.07137 0
M  V30 1571 C 161.124 6.15412 -1.46459 0
M  V30 1572 C 159.788 6.44262 -1.74592 0
M  V30 1573 H 159.058 0.711863 0.205748 0
M  V30 1574 H 161.705 1.90679 -0.17715 0
M  V30 1575 H 160.01 3.38766 1.96836 0
M  V30 1576 H 161.707 3.64435 1.67297 0
M  V30 1577 H 158.297 4.2689 0.382491 0
M  V30 1578 H 162.481 4.95264 -0.320581 0
M  V30 1579 H 157.737 5.975 -1.29628 0
M  V30 1580 H 161.911 6.67194 -1.99564 0
M  V30 1581 H 159.538 7.1828 -2.48953 0
M  V30 1582 N 161.113 -0.173488 1.56642 0
M  V30 1583 C 162.36 -0.890465 1.81871 0
M  V30 1584 C 162.688 -1.82339 0.67696 0
M  V30 1585 O 161.943 -1.92795 -0.335926 0
M  V30 1586 C 162.242 -1.72069 3.13252 0
M  V30 1587 C 161.908 -0.936878 4.41059 0
M  V30 1588 C 160.57 -0.720545 4.75775 0
M  V30 1589 C 162.922 -0.386919 5.19762 0
M  V30 1590 C 160.25 0.0568829 5.86672 0
M  V30 1591 C 162.602 0.37741 6.31473 0
M  V30 1592 C 161.266 0.604563 6.64757 0
M  V30 1593 H 160.536 -0.325844 0.665512 0
M  V30 1594 H 163.183 -0.155527 1.90867 0
M  V30 1595 H 161.488 -2.52496 2.99588 0
M  V30 1596 H 163.185 -2.27844 3.29982 0
M  V30 1597 H 159.775 -1.11553 4.13828 0
M  V30 1598 H 163.959 -0.541398 4.93338 0
M  V30 1599 H 159.215 0.242635 6.10918 0
M  V30 1600 H 163.389 0.810825 6.91664 0
M  V30 1601 H 161.016 1.20885 7.50527 0
M  V30 1602 N 162.591 -1.51276 -0.441967 0
M  V30 1603 C 163.501 -1.75092 -1.56141 0
M  V30 1604 C 164.517 -0.634963 -1.62001 0
M  V30 1605 O 165.693 -0.916686 -1.79329 0
M  V30 1606 C 162.758 -1.86666 -2.92158 0
M  V30 1607 C 161.819 -3.10506 -2.96453 0
M  V30 1608 C 161.052 -3.21519 -4.25982 0
M  V30 1609 O 161.275 -2.38586 -5.18105 0
M  V30 1610 O 160.209 -4.14465 -4.36466 0
M  V30 1611 H 164.035 -2.70044 -1.38961 0
M  V30 1612 H 161.62 -1.35722 -0.624499 0
M  V30 1613 H 163.502 -1.96292 -3.72891 0
M  V30 1614 H 162.177 -0.949014 -3.09476 0
M  V30 1615 H 161.084 -3.06363 -2.14692 0
M  V30 1616 H 162.417 -4.01945 -2.84079 0
M  V30 1617 N 164.069 0.697108 -1.41344 0
M  V30 1618 C 165.032 1.79281 -1.42797 0
M  V30 1619 C 166.032 1.57607 -0.318837 0
M  V30 1620 O 167.222 1.64309 -0.578642 0
M  V30 1621 C 164.354 3.17632 -1.23785 0
M  V30 1622 H 165.547 1.79385 -2.40335 0
M  V30 1623 H 163.1 0.904582 -1.27464 0
M  V30 1624 H 163.835 3.23167 -0.270814 0
M  V30 1625 H 163.62 3.34765 -2.04144 0
M  V30 1626 H 165.11 3.97617 -1.27633 0
M  V30 1627 N 165.547 1.27147 0.931209 0
M  V30 1628 C 166.793 1.13446 1.68101 0
M  V30 1629 C 167.126 -0.319628 1.91552 0
M  V30 1630 O 166.401 -1.23407 1.50336 0
M  V30 1631 C 166.684 1.91482 3.0497 0
M  V30 1632 C 166.537 3.44855 2.88782 0
M  V30 1633 C 167.856 1.71651 4.05246 0
M  V30 1634 H 164.975 0.413498 0.610072 0
M  V30 1635 H 167.617 1.56261 1.08086 0
M  V30 1636 H 165.767 1.55095 3.56199 0
M  V30 1637 H 167.439 3.9105 2.44698 0
M  V30 1638 H 165.682 3.71373 2.24198 0
M  V30 1639 H 166.353 3.94694 3.85902 0
M  V30 1640 H 168.829 2.0337 3.63015 0
M  V30 1641 H 167.705 2.28651 4.99009 0
M  V30 1642 H 167.966 0.663555 4.37092 0
M  V30 1643 N 167.025 -1.13721 1.09112 0
M  V30 1644 C 167.988 -2.17222 0.731241 0
M  V30 1645 C 168.988 -1.59035 -0.237566 0
M  V30 1646 O 170.178 -1.74192 -0.0161704 0
M  V30 1647 C 167.31 -3.40804 0.0808443 0
M  V30 1648 H 168.503 -2.50573 1.64783 0
M  V30 1649 H 166.056 -1.28493 0.889897 0
M  V30 1650 H 166.791 -3.1304 -0.847127 0
M  V30 1651 H 166.576 -3.84306 0.777896 0
M  V30 1652 H 168.066 -4.1731 -0.155657 0
M  V30 1653 N 168.503 -0.877838 -1.30888 0
M  V30 1654 C 169.466 -0.344265 -2.266 0
M  V30 1655 C 170.466 0.50922 -1.52524 0
M  V30 1656 O 171.656 0.317398 -1.71284 0
M  V30 1657 C 168.788 0.510198 -3.37061 0
M  V30 1658 H 169.981 -1.1893 -2.7531 0
M  V30 1659 H 167.534 -0.654088 -1.41956 0
M  V30 1660 H 168.269 1.37612 -2.93655 0
M  V30 1661 H 168.054 -0.101047 -3.9197 0
M  V30 1662 H 169.544 0.875537 -4.08319 0
M  V30 1663 N 169.982 1.44106 -0.638065 0
M  V30 1664 C 170.912 2.33448 0.0494287 0
M  V30 1665 C 171.893 1.48606 0.827672 0
M  V30 1666 O 173.078 1.77308 0.792173 0
M  V30 1667 C 170.208 3.31771 1.02691 0
M  V30 1668 C 169.162 4.26485 0.359823 0
M  V30 1669 C 168.488 5.14729 1.44769 0
M  V30 1670 C 169.788 5.17056 -0.738296 0
M  V30 1671 H 171.482 2.91183 -0.696636 0
M  V30 1672 H 169.028 1.40014 -0.336456 0
M  V30 1673 H 170.981 3.93161 1.51666 0
M  V30 1674 H 169.705 2.7226 1.80395 0
M  V30 1675 H 168.364 3.66437 -0.10934 0
M  V30 1676 H 168.012 4.51566 2.21578 0
M  V30 1677 H 167.712 5.78913 1.00668 0
M  V30 1678 H 169.236 5.78991 1.93911 0
M  V30 1679 H 170.65 5.72342 -0.331354 0
M  V30 1680 H 169.047 5.89879 -1.10286 0
M  V30 1681 H 170.117 4.57652 -1.60258 0
M  V30 1682 N 171.46 0.379036 1.52974 0
M  V30 1683 C 172.37 -0.468639 2.29872 0
M  V30 1684 C 173.386 -1.08067 1.36373 0
M  V30 1685 O 174.562 -1.08871 1.69438 0
M  V30 1686 C 171.627 -1.58594 3.083 0
M  V30 1687 C 170.688 -1.00007 4.17489 0
M  V30 1688 C 169.921 -2.06413 4.92168 0
M  V30 1689 O 170.144 -3.27751 4.66835 0
M  V30 1690 O 169.078 -1.68717 5.7777 0
M  V30 1691 H 172.904 0.157508 3.03291 0
M  V30 1692 H 170.489 0.143035 1.48714 0
M  V30 1693 H 172.371 -2.23525 3.57232 0
M  V30 1694 H 171.046 -2.19724 2.37703 0
M  V30 1695 H 169.953 -0.314299 3.72777 0
M  V30 1696 H 171.286 -0.433135 4.90291 0
M  V30 1697 N 172.938 -1.57226 0.108567 0
M  V30 1698 C 174.349 -1.8195 -0.418464 0
M  V30 1699 C 174.7 -1.02508 -1.67292 0
M  V30 1700 O 173.825 -0.258496 -2.14851 0
M  V30 1701 C 174.42 -3.30028 -0.765979 0
M  V30 1702 C 172.979 -3.55469 -1.23769 0
M  V30 1703 C 172.126 -2.7625 -0.241106 0
M  V30 1704 H 175.077 -1.55149 0.33384 0
M  V30 1705 H 175.098 -3.44086 -1.62434 0
M  V30 1706 H 174.61 -3.87821 0.147219 0
M  V30 1707 H 172.711 -3.03022 -2.16814 0
M  V30 1708 H 172.824 -4.6408 -1.19022 0
M  V30 1709 H 171.188 -2.44133 -0.72602 0
M  V30 1710 H 171.971 -3.36797 0.665007 0
M  V30 1711 N 174.416 0.165178 -1.56732 0
M  V30 1712 C 175.379 1.18822 -1.95995 0
M  V30 1713 C 176.379 1.3685 -0.84431 0
M  V30 1714 O 177.569 1.34152 -1.11126 0
M  V30 1715 C 174.701 2.5521 -2.26011 0
M  V30 1716 H 175.894 0.851825 -2.87548 0
M  V30 1717 H 173.447 0.407857 -1.50885 0
M  V30 1718 H 174.182 2.93852 -1.37191 0
M  V30 1719 H 173.967 2.43489 -3.07336 0
M  V30 1720 H 175.457 3.28927 -2.57288 0
M  V30 1721 N 175.894 1.51508 0.433938 0
M  V30 1722 C 176.857 1.72473 1.50949 0
M  V30 1723 C 177.857 0.594725 1.49398 0
M  V30 1724 O 179.047 0.862315 1.5136 0
M  V30 1725 C 176.179 1.78431 2.90474 0
M  V30 1726 H 177.372 2.68467 1.33662 0
M  V30 1727 H 174.925 1.41549 0.662836 0
M  V30 1728 H 175.66 0.842645 3.13161 0
M  V30 1729 H 175.445 2.60558 2.93005 0
M  V30 1730 H 176.935 1.96479 3.68491 0
M  V30 1731 N 177.372 -0.689602 1.41712 0
M  V30 1732 C 178.62 -1.4468 1.4111 0
M  V30 1733 C 178.941 -1.94986 0.0232196 0
M  V30 1734 O 178.211 -1.72097 -0.935913 0
M  V30 1735 H 176.791 -0.536847 0.519427 0
M  V30 1736 H 179.453 -0.815825 1.77004 0
M  V30 1737 H 178.549 -2.30706 2.10193 0
M  V30 1738 N 178.85 -1.27639 -0.924453 0
M  V30 1739 C 179.813 -1.10681 -2.00705 0
M  V30 1740 C 180.813 -0.0497823 -1.60723 0
M  V30 1741 O 182.003 -0.294654 -1.7169 0
M  V30 1742 C 179.135 -0.687164 -3.33902 0
M  V30 1743 H 180.328 -2.06817 -2.17179 0
M  V30 1744 H 177.881 -1.10473 -1.10569 0
M  V30 1745 H 178.616 0.275439 -3.23128 0
M  V30 1746 H 178.401 -1.45061 -3.6428 0
M  V30 1747 H 179.891 -0.590853 -4.13399 0
M  V30 1748 N 180.328 1.1314 -1.09713 0
M  V30 1749 C 181.576 1.84119 -0.833338 0
M  V30 1750 C 181.897 1.84097 0.642904 0
M  V30 1751 O 181.167 1.29881 1.46655 0
M  V30 1752 H 179.747 0.681766 -0.305293 0
M  V30 1753 H 182.409 1.37038 -1.38588 0
M  V30 1754 H 181.505 2.88543 -1.18951 0
M  V30 1755 N 181.806 0.884767 1.30421 0
M  V30 1756 C 182.738 0.308655 2.27112 0
M  V30 1757 C 183.751 -0.536655 1.53701 0
M  V30 1758 O 184.94 -0.35624 1.74909 0
M  V30 1759 C 182.04 -0.579782 3.33904 0
M  V30 1760 C 181.213 0.236417 4.36761 0
M  V30 1761 C 180.272 -0.582482 5.22966 0
M  V30 1762 O 179.298 -0.00525502 5.692 0
M  V30 1763 N 180.5 -1.89163 5.48815 0
M  V30 1764 H 183.265 1.13964 2.77186 0
M  V30 1765 H 180.826 0.747731 1.43599 0
M  V30 1766 H 182.818 -1.13366 3.88497 0
M  V30 1767 H 181.388 -1.31144 2.83761 0
M  V30 1768 H 180.608 0.97174 3.82035 0
M  V30 1769 H 181.896 0.795924 5.02536 0
M  V30 1770 H 181.294 -2.38352 5.13035 0
M  V30 1771 H 179.851 -2.39296 6.06284 0
M  V30 1772 N 183.284 -1.43765 0.645699 0
M  V30 1773 C 184.231 -2.30745 -0.0504648 0
M  V30 1774 C 185.201 -1.4432 -0.822241 0
M  V30 1775 O 186.386 -1.73202 -0.800358 0
M  V30 1776 C 183.526 -3.29802 -1.0161 0
M  V30 1777 C 182.639 -4.31326 -0.241219 0
M  V30 1778 C 181.774 -5.17469 -1.19998 0
M  V30 1779 C 180.813 -6.10691 -0.415094 0
M  V30 1780 N 179.95 -6.89483 -1.32506 0
M  V30 1781 H 184.79 -2.8973 0.697155 0
M  V30 1782 H 182.327 -1.42738 0.355563 0
M  V30 1783 H 184.285 -3.85734 -1.58949 0
M  V30 1784 H 182.915 -2.72483 -1.73069 0
M  V30 1785 H 181.967 -3.77749 0.448334 0
M  V30 1786 H 183.279 -4.9743 0.369437 0
M  V30 1787 H 182.433 -5.7799 -1.84424 0
M  V30 1788 H 181.172 -4.51473 -1.84455 0
M  V30 1789 H 180.177 -5.49265 0.242565 0
M  V30 1790 H 181.402 -6.78727 0.224966 0
M  V30 1791 H 179.348 -6.26142 -1.95657 0
M  V30 1792 H 179.265 -7.52081 -0.768783 0
M  V30 1793 H 180.533 -7.54516 -1.9577 0
M  V30 1794 N 184.763 -0.387143 -1.52771 0
M  V30 1795 C 185.673 0.456442 -2.30117 0
M  V30 1796 C 186.689 1.07342 -1.36944 0
M  V30 1797 O 187.865 1.07971 -1.70013 0
M  V30 1798 C 184.93 1.56957 -3.09136 0
M  V30 1799 C 183.991 0.977916 -4.18014 0
M  V30 1800 C 183.224 2.038 -4.93256 0
M  V30 1801 O 183.447 3.25271 -4.68567 0
M  V30 1802 O 182.381 1.6565 -5.78657 0
M  V30 1803 H 186.207 -0.17359 -3.03203 0
M  V30 1804 H 183.792 -0.150919 -1.48636 0
M  V30 1805 H 185.674 2.21628 -3.58412 0
M  V30 1806 H 184.349 2.18461 -2.38865 0
M  V30 1807 H 183.256 0.294525 -3.72939 0
M  V30 1808 H 184.589 0.407128 -4.90513 0
M  V30 1809 N 186.241 1.57166 -0.116904 0
M  V30 1810 C 187.171 2.18222 0.830759 0
M  V30 1811 C 188.152 1.12167 1.27877 0
M  V30 1812 O 189.337 1.40394 1.34176 0
M  V30 1813 C 186.467 2.77996 2.08172 0
M  V30 1814 C 185.421 3.89614 1.77157 0
M  V30 1815 C 184.747 4.36187 3.09265 0
M  V30 1816 C 186.047 5.1181 1.04151 0
M  V30 1817 H 187.741 2.97664 0.321992 0
M  V30 1818 H 185.287 1.4318 0.153434 0
M  V30 1819 H 187.24 3.19366 2.74924 0
M  V30 1820 H 185.964 1.9584 2.6137 0
M  V30 1821 H 184.623 3.48816 1.12796 0
M  V30 1822 H 184.271 3.50893 3.60393 0
M  V30 1823 H 183.971 5.11455 2.89288 0
M  V30 1824 H 185.495 4.80207 3.77139 0
M  V30 1825 H 186.909 5.50214 1.61052 0
M  V30 1826 H 185.306 5.92648 0.942762 0
M  V30 1827 H 186.376 4.84892 0.0279022 0
M  V30 1828 N 187.719 -0.156864 1.56817 0
M  V30 1829 C 188.682 -1.17781 1.96622 0
M  V30 1830 C 189.682 -1.36401 0.851555 0
M  V30 1831 O 190.872 -1.33561 1.11836 0
M  V30 1832 C 188.004 -2.54008 2.27361 0
M  V30 1833 H 189.197 -0.836564 2.87996 0
M  V30 1834 H 186.75 -0.39985 1.51099 0
M  V30 1835 H 187.485 -2.9312 1.38748 0
M  V30 1836 H 187.27 -2.41856 3.08623 0
M  V30 1837 H 188.76 -3.27558 2.59029 0
M  V30 1838 N 189.197 -1.51736 -0.425897 0
M  V30 1839 C 190.16 -1.73271 -1.50032 0
M  V30 1840 C 191.16 -0.602639 -1.4908 0
M  V30 1841 O 192.35 -0.87033 -1.509 0
M  V30 1842 C 189.482 -1.79969 -2.89523 0
M  V30 1843 H 190.675 -2.69172 -1.32237 0
M  V30 1844 H 188.228 -1.41899 -0.65532 0
M  V30 1845 H 188.963 -0.859241 -3.1271 0
M  V30 1846 H 188.748 -2.62109 -2.91619 0
M  V30 1847 H 190.238 -1.9843 -3.67444 0
M  V30 1848 N 190.675 0.682077 -1.42076 0
M  V30 1849 C 191.638 1.77756 -1.44691 0
M  V30 1850 C 192.638 1.5726 -0.335535 0
M  V30 1851 O 193.828 1.63686 -0.596037 0
M  V30 1852 C 190.96 3.16301 -1.27146 0
M  V30 1853 H 192.153 1.76826 -2.42224 0
M  V30 1854 H 189.706 0.891012 -1.28416 0
M  V30 1855 H 190.441 3.22862 -0.305075 0
M  V30 1856 H 190.226 3.32581 -2.07683 0
M  V30 1857 H 191.716 3.96241 -1.31843 0
M  V30 1858 N 192.153 1.28127 0.917671 0
M  V30 1859 C 193.399 1.15223 1.66888 0
M  V30 1860 C 193.732 -0.299293 1.9188 0
M  V30 1861 O 193.007 -1.21805 1.51637 0
M  V30 1862 C 193.29 1.94706 3.02922 0
M  V30 1863 C 193.143 3.47898 2.85109 0
M  V30 1864 C 194.462 1.75939 4.03402 0
M  V30 1865 H 191.581 0.419946 0.605652 0
M  V30 1866 H 194.223 1.57398 1.06423 0
M  V30 1867 H 192.373 1.58864 3.54534 0
M  V30 1868 H 194.045 3.93624 2.40537 0
M  V30 1869 H 192.288 3.7373 2.20246 0
M  V30 1870 H 192.959 3.98765 3.81694 0
M  V30 1871 H 195.435 2.07209 3.60837 0
M  V30 1872 H 194.311 2.33931 4.96556 0
M  V30 1873 H 194.572 0.709877 4.36364 0
M  V30 1874 N 193.631 -1.12557 1.10312 0
M  V30 1875 C 194.879 -1.83675 0.843091 0
M  V30 1876 C 195.2 -1.84435 -0.633131 0
M  V30 1877 O 194.47 -1.30657 -1.45964 0
M  V30 1878 H 193.05 -0.680138 0.308904 0
M  V30 1879 H 195.712 -1.36301 1.39313 0
M  V30 1880 H 194.808 -2.87908 1.2048 0
M  V30 1881 N 195.109 -0.891671 -1.2995 0
M  V30 1882 C 196.056 -0.361736 -2.27948 0
M  V30 1883 C 197.026 0.551761 -1.56668 0
M  V30 1884 O 198.211 0.478736 -1.84696 0
M  V30 1885 C 195.351 0.411825 -3.42634 0
M  V30 1886 C 194.464 -0.531651 -4.28716 0
M  V30 1887 C 193.599 0.258167 -5.30572 0
M  V30 1888 C 192.638 -0.680349 -6.08307 0
M  V30 1889 N 191.775 0.0745613 -7.0206 0
M  V30 1890 H 196.615 -1.20254 -2.72659 0
M  V30 1891 H 194.152 -0.604352 -1.34112 0
M  V30 1892 H 196.11 0.876304 -4.07893 0
M  V30 1893 H 194.74 1.21715 -2.98974 0
M  V30 1894 H 193.792 -1.11463 -3.63703 0
M  V30 1895 H 195.104 -1.25038 -4.82874 0
M  V30 1896 H 194.258 0.784204 -6.0161 0
M  V30 1897 H 192.997 1.01008 -4.77126 0
M  V30 1898 H 192.002 -1.21796 -5.3614 0
M  V30 1899 H 193.227 -1.43145 -6.63842 0
M  V30 1900 H 191.173 0.808883 -6.50994 0
M  V30 1901 H 191.09 -0.584409 -7.53738 0
M  V30 1902 H 192.358 0.581123 -7.77331 0
M  V30 1903 N 196.587 1.43421 -0.653314 0
M  V30 1904 C 197.833 2.02111 -0.166992 0
M  V30 1905 C 198.166 1.51423 1.21592 0
M  V30 1906 O 197.441 0.707389 1.8118 0
M  V30 1907 C 197.724 3.5966 -0.177948 0
M  V30 1908 C 197.577 4.20579 -1.59478 0
M  V30 1909 C 198.896 4.37413 0.4856 0
M  V30 1910 H 196.015 0.734374 -0.0621557 0
M  V30 1911 H 198.657 1.70717 -0.834016 0
M  V30 1912 H 196.807 3.86537 0.390032 0
M  V30 1913 H 198.479 4.04732 -2.21336 0
M  V30 1914 H 196.722 3.77226 -2.14204 0
M  V30 1915 H 197.393 5.29665 -1.5543 0
M  V30 1916 H 199.869 4.161 0.00234528 0
M  V30 1917 H 198.745 5.47075 0.447207 0
M  V30 1918 H 199.006 4.13672 1.55974 0
M  V30 1919 N 198.065 0.39524 1.52563 0
M  V30 1920 C 199.313 -0.184678 2.01254 0
M  V30 1921 C 199.634 -1.46822 1.28329 0
M  V30 1922 O 198.904 -1.91666 0.405094 0
M  V30 1923 H 197.484 -0.0712355 0.743596 0
M  V30 1924 H 200.146 0.528293 1.87603 0
M  V30 1925 H 199.242 -0.390681 3.09645 0
M  V30 1926 N 199.544 -1.57102 0.125237 0
M  V30 1927 C 200.792 -1.95021 -0.530198 0
M  V30 1928 C 201.113 -1.00982 -1.66816 0
M  V30 1929 O 200.383 -0.0672693 -1.95784 0
M  V30 1930 H 198.963 -0.720046 -0.198853 0
M  V30 1931 H 201.625 -1.93916 0.19564 0
M  V30 1932 H 200.721 -2.98211 -0.920681 0
M  V30 1933 N 201.022 0.148545 -1.56898 0
M  V30 1934 C 202.25 0.876389 -1.87422 0
M  V30 1935 C 202.665 1.74809 -0.713256 0
M  V30 1936 O 202.022 1.79725 0.317025 0
M  V30 1937 C 202.073 1.73438 -3.17178 0
M  V30 1938 O 201.794 0.897809 -4.28802 0
M  V30 1939 C 203.295 2.56993 -3.61205 0
M  V30 1940 H 200.515 0.253489 -0.621277 0
M  V30 1941 H 203.059 0.141798 -2.04008 0
M  V30 1942 H 201.214 2.42205 -3.0235 0
M  V30 1943 H 201.628 1.48672 -5.02988 0
M  V30 1944 H 203.102 3.12773 -4.54838 0
M  V30 1945 H 203.579 3.32958 -2.86419 0
M  V30 1946 H 204.185 1.9352 -3.78722 0
M  V30 1947 N 202.5 1.5196 0.417844 0
M  V30 1948 C 203.74 1.67262 1.17486 0
M  V30 1949 C 204.104 0.38983 1.88001 0
M  V30 1950 O 205.305 0.418845 2.65517 0
M  V30 1951 C 203.576 2.85526 2.14965 0
M  V30 1952 S 205.135 3.21263 2.98891 0
M  V30 1953 H 201.953 0.589077 0.398132 0
M  V30 1954 H 204.555 1.89927 0.463452 0
M  V30 1955 H 203.259 3.77145 1.61833 0
M  V30 1956 H 202.79 2.65107 2.90657 0
M  V30 1957 H 204.805 2.69208 4.16823 0
M  V30 1958 N 203.978 -0.674533 1.42435 0
M  V30 1959 C 204.925 -1.78807 1.45934 0
M  V30 1960 C 205.895 -1.63157 0.311271 0
M  V30 1961 O 207.08 -1.83707 0.515383 0
M  V30 1962 C 204.22 -3.16839 1.36773 0
M  V30 1963 C 203.333 -3.43774 2.61617 0
M  V30 1964 C 202.468 -4.71536 2.44597 0
M  V30 1965 C 201.507 -4.91505 3.64814 0
M  V30 1966 N 200.644 -6.10508 3.46734 0
M  V30 1967 H 205.484 -1.75151 2.41093 0
M  V30 1968 H 203.021 -0.85504 1.19697 0
M  V30 1969 H 204.979 -3.96606 1.29459 0
M  V30 1970 H 203.609 -3.19619 0.452089 0
M  V30 1971 H 202.661 -2.58259 2.79297 0
M  V30 1972 H 203.973 -3.54423 3.50978 0
M  V30 1973 H 203.127 -5.59393 2.3487 0
M  V30 1974 H 201.866 -4.6317 1.52726 0
M  V30 1975 H 200.871 -4.0209 3.74972 0
M  V30 1976 H 202.096 -5.01716 4.57665 0
M  V30 1977 H 200.042 -6.03315 2.5758 0
M  V30 1978 H 199.959 -6.2202 4.29682 0
M  V30 1979 H 201.227 -7.01044 3.40819 0
M  V30 1980 N 205.456 -1.28612 -0.910864 0
M  V30 1981 C 206.681 -1.1891 -1.69927 0
M  V30 1982 C 207.106 0.248372 -1.86453 0
M  V30 1983 O 206.464 1.17961 -1.37676 0
M  V30 1984 C 206.512 -1.89578 -3.06745 0
M  V30 1985 O 205.616 -1.20521 -3.94396 0
M  V30 1986 H 204.957 -0.412632 -0.520222 0
M  V30 1987 H 207.487 -1.69985 -1.1387 0
M  V30 1988 H 207.497 -1.97597 -3.56958 0
M  V30 1989 H 206.172 -2.94136 -2.94035 0
M  V30 1990 H 204.749 -1.20684 -3.52831 0
M  V30 1991 N 206.934 1.1197 -1.10907 0
M  V30 1992 C 208.174 1.85224 -0.864378 0
M  V30 1993 C 208.538 1.82411 0.599178 0
M  V30 1994 O 209.739 2.51057 0.960416 0
M  V30 1995 C 208.01 3.2868 -1.40371 0
M  V30 1996 S 209.569 4.1925 -1.29518 0
M  V30 1997 H 206.387 0.63878 -0.312219 0
M  V30 1998 H 208.989 1.3485 -1.41548 0
M  V30 1999 H 207.693 3.28289 -2.46281 0
M  V30 2000 H 207.224 3.84121 -0.849402 0
M  V30 2001 H 209.239 4.95539 -0.256059 0
M  V30 2002 N 208.412 0.89855 1.29475 0
M  V30 2003 C 209.362 0.346767 2.25348 0
M  V30 2004 C 210.346 -0.532509 1.51833 0
M  V30 2005 O 211.538 -0.374714 1.72988 0
M  V30 2006 C 208.667 -0.425681 3.40651 0
M  V30 2007 C 207.753 0.46845 4.21505 0
M  V30 2008 N 208.144 1.57514 4.80648 0
M  V30 2009 C 206.442 0.26603 4.45206 0
M  V30 2010 C 207.143 2.12889 5.41344 0
M  V30 2011 N 206.119 1.42208 5.24669 0
M  V30 2012 H 209.921 1.19219 2.68634 0
M  V30 2013 H 207.435 0.749473 1.44072 0
M  V30 2014 H 209.432 -0.837716 4.08397 0
M  V30 2015 H 208.092 -1.26838 2.98902 0
M  V30 2016 H 209.103 1.95789 4.79465 0
M  V30 2017 H 205.78 -0.538394 4.14014 0
M  V30 2018 H 207.17 3.05901 5.98226 0
M  V30 2019 N 209.89 -1.43072 0.660911 0
M  V30 2020 C 211.167 -1.95307 0.107017 0
M  V30 2021 C 211.547 -1.60192 -1.37484 0
M  V30 2022 O 210.895 -0.890949 -2.10415 0
M  V30 2023 C 211.105 -3.47124 0.361402 0
M  V30 2024 C 212.453 -4.23738 0.270455 0
M  V30 2025 O 213.477 -3.54981 0.294382 0
M  V30 2026 O 212.336 -5.46131 0.200737 0
M  V30 2027 H 209.43 -0.826984 -0.00517729 0
M  V30 2028 H 211.976 -1.52972 0.734681 0
M  V30 2029 H 210.748 -3.65837 1.38848 0
M  V30 2030 H 210.371 -3.96475 -0.298953 0
M  V30 2031 N 211.368 -0.403325 -1.52352 0
M  V30 2032 C 212.645 0.232611 -1.94212 0
M  V30 2033 C 213.025 1.63133 -1.33981 0
M  V30 2034 O 212.373 2.22659 -0.513344 0
M  V30 2035 C 212.583 0.244811 -3.4814 0
M  V30 2036 C 213.931 0.46698 -4.22024 0
M  V30 2037 O 214.955 0.324419 -3.5472 0
M  V30 2038 O 213.814 0.74747 -5.41364 0
M  V30 2039 H 210.908 0.148223 -0.813609 0
M  V30 2040 H 213.454 -0.458848 -1.63379 0
M  V30 2041 H 212.226 -0.734378 -3.84347 0
M  V30 2042 H 211.849 0.980611 -3.85318 0
M  V30 2043 N 212.846 1.57033 -0.133567 0
M  V30 2044 C 214.093 1.95686 0.520877 0
M  V30 2045 C 214.421 1.0177 1.6575 0
M  V30 2046 O 213.676 0.0443195 1.9565 0
M  V30 2047 C 213.975 3.40674 1.08057 0
M  V30 2048 C 213.641 4.50855 0.0637899 0
M  V30 2049 C 212.303 4.80716 -0.215757 0
M  V30 2050 C 214.655 5.17398 -0.62835 0
M  V30 2051 C 211.983 5.74433 -1.19348 0
M  V30 2052 C 214.335 6.12167 -1.5948 0
M  V30 2053 C 212.999 6.40414 -1.88218 0
M  V30 2054 H 212.269 0.716067 0.190602 0
M  V30 2055 H 214.916 1.9026 -0.217556 0
M  V30 2056 H 213.221 3.42865 1.89606 0
M  V30 2057 H 214.918 3.67902 1.59529 0
M  V30 2058 H 211.508 4.27605 0.291855 0
M  V30 2059 H 215.692 4.94472 -0.425562 0
M  V30 2060 H 210.948 5.94616 -1.42272 0
M  V30 2061 H 215.122 6.6281 -2.13671 0
M  V30 2062 H 212.749 7.12838 -2.64133 0
M  V30 2063 N 214.325 -0.140222 1.56975 0
M  V30 2064 C 215.741 -0.493088 1.51792 0
M  V30 2065 C 215.941 -1.83013 0.843116 0
M  V30 2066 O 214.997 -2.49041 0.416493 0
M  V30 2067 C 216.31 -0.497144 2.96562 0
M  V30 2068 C 217.858 -0.582186 3.07538 0
M  V30 2069 C 218.333 -0.616838 4.53827 0
M  V30 2070 N 219.824 -0.678873 4.58198 0
M  V30 2071 C 220.559 -0.726782 5.68775 0
M  V30 2072 N 220.055 -0.733623 6.88905 0
M  V30 2073 N 221.848 -0.768179 5.56826 0
M  V30 2074 H 213.999 0.736108 1.99237 0
M  V30 2075 H 216.262 0.269182 0.90898 0
M  V30 2076 H 215.968 0.417217 3.49217 0
M  V30 2077 H 215.842 -1.33263 3.52875 0
M  V30 2078 H 218.229 -1.48697 2.54899 0
M  V30 2079 H 218.31 0.280581 2.54257 0
M  V30 2080 H 217.954 0.283812 5.07106 0
M  V30 2081 H 217.884 -1.49619 5.04898 0
M  V30 2082 H 220.375 -0.68061 3.7172 0
M  V30 2083 H 220.688 -0.772215 7.68932 0
M  V30 2084 H 219.033 -0.701389 6.91452 0
M  V30 2085 H 222.224 -0.760051 4.61888 0
M  V30 2086 H 222.397 -0.80205 6.43017 0
M  V30 2087 N 215.803 -1.52179 -0.40978 0
M  V30 2088 C 217.049 -1.66453 -1.15851 0
M  V30 2089 C 217.382 -0.392972 -1.90182 0
M  V30 2090 O 216.657 0.608579 -1.84734 0
M  V30 2091 C 216.94 -2.88612 -2.15349 0
M  V30 2092 C 216.793 -4.25815 -1.44918 0
M  V30 2093 C 218.112 -3.06294 -3.16026 0
M  V30 2094 H 215.231 -0.60575 -0.419805 0
M  V30 2095 H 217.873 -1.84732 -0.444314 0
M  V30 2096 H 216.023 -2.73158 -2.76255 0
M  V30 2097 H 217.695 -4.52995 -0.871365 0
M  V30 2098 H 215.938 -4.27247 -0.751159 0
M  V30 2099 H 216.609 -5.07337 -2.17516 0
M  V30 2100 H 219.085 -3.20641 -2.65195 0
M  V30 2101 H 217.961 -3.93283 -3.8291 0
M  V30 2102 H 218.222 -2.19579 -3.83715 0
M  V30 2103 N 217.281 0.66697 -1.42791 0
M  V30 2104 C 218.228 1.7803 -1.4688 0
M  V30 2105 C 219.198 1.6299 -0.319919 0
M  V30 2106 O 220.383 1.83432 -0.525118 0
M  V30 2107 C 217.523 3.1611 -1.38451 0
M  V30 2108 C 216.636 3.42381 -2.63437 0
M  V30 2109 C 215.771 4.70232 -2.47094 0
M  V30 2110 C 214.81 4.89564 -3.67415 0
M  V30 2111 N 213.947 6.08661 -3.49966 0
M  V30 2112 H 218.787 1.7387 -2.42019 0
M  V30 2113 H 216.324 0.84868 -1.20149 0
M  V30 2114 H 218.282 3.95914 -1.31561 0
M  V30 2115 H 216.912 3.19374 -0.469033 0
M  V30 2116 H 215.964 2.56774 -2.80662 0
M  V30 2117 H 217.276 3.52557 -3.52853 0
M  V30 2118 H 216.43 5.5814 -2.37834 0
M  V30 2119 H 215.169 4.62353 -1.5518 0
M  V30 2120 H 214.174 4.00096 -3.77099 0
M  V30 2121 H 215.399 4.99282 -4.6032 0
M  V30 2122 H 213.345 6.0194 -2.60776 0
M  V30 2123 H 213.262 6.19733 -4.32975 0
M  V30 2124 H 214.53 6.99226 -3.44532 0
M  V30 2125 N 218.759 1.29093 0.90403 0
M  V30 2126 C 220.175 1.07011 1.1841 0
M  V30 2127 C 220.375 -0.181358 2.00682 0
M  V30 2128 O 219.431 -0.880331 2.36657 0
M  V30 2129 C 220.744 2.32311 1.90924 0
M  V30 2130 C 222.292 2.37587 2.03768 0
M  V30 2131 C 222.767 3.62679 2.79693 0
M  V30 2132 N 224.258 3.63376 2.87249 0
M  V30 2133 C 224.993 4.56848 3.46522 0
M  V30 2134 N 224.489 5.60648 4.06996 0
M  V30 2135 N 226.282 4.44426 3.44154 0
M  V30 2136 H 218.433 2.09412 0.354993 0
M  V30 2137 H 220.696 0.922181 0.219742 0
M  V30 2138 H 220.402 3.23536 1.37905 0
M  V30 2139 H 220.276 2.39483 2.91424 0
M  V30 2140 H 222.663 1.46853 2.55965 0
M  V30 2141 H 222.744 2.34403 1.02415 0
M  V30 2142 H 222.388 4.53762 2.28173 0
M  V30 2143 H 222.318 3.63119 3.81381 0
M  V30 2144 H 224.809 2.88321 2.44293 0
M  V30 2145 H 225.122 6.28101 4.50232 0
M  V30 2146 H 223.467 5.64463 4.05471 0
M  V30 2147 H 226.658 3.62529 2.96126 0
M  V30 2148 H 226.831 5.17457 3.90054 0
M  V30 2149 O 220.276 -1.03933 1.23613 0
M  V30 2150 H 220.967 -1.65369 1.0086 0
M  V30 END ATOM
M  V30 BEGIN BOND
M  V30 END BOND
M  V30 END CTAB
M  END
$$$$
