drugbank_target|P00132 Cytochrome c3 (DB03317)
 OpenBabel12092120263D

  0  0  0     0  0            999 V3000
M  V30 BEGIN CTAB
M  V30 COUNTS 1936 1955 0 0 0
M  V30 BEGIN ATOM
M  V30 1 H -0.908 1.98254 -0.117106 0
M  V30 2 N 0 1.576 0 0
M  V30 3 C 0.933 2.03868 1.02534 0
M  V30 4 C 1.911 0.928543 1.3348 0
M  V30 5 O 3.095 1.19667 1.45644 0
M  V30 6 C 0.222 2.43627 2.35294 0
M  V30 7 C -0.732 3.65373 2.2001 0
M  V30 8 S 0.101 5.13292 1.52614 0
M  V30 9 C 1.257 5.56322 2.86805 0
M  V30 10 H 1.49 2.90518 0.631377 0
M  V30 11 H -0.977 1.52953 0.210867 0
M  V30 12 H 0.981 2.67203 3.11629 0
M  V30 13 H -0.358 1.57376 2.7183 0
M  V30 14 H -1.165 3.90944 3.18086 0
M  V30 15 H -1.563 3.418 1.51819 0
M  V30 16 H 0.729 5.58782 3.83104 0
M  V30 17 H 1.672 6.56266 2.65933 0
M  V30 18 H 2.08 4.83886 2.90714 0
M  V30 19 N 1.4781 -0.272755 1.55222 0
M  V30 20 C 2.4251 -1.33716 1.88119 0
M  V30 21 C 3.3951 -1.49066 0.73271 0
M  V30 22 O 4.5801 -1.63469 0.984002 0
M  V30 23 C 1.7201 -2.69238 2.15882 0
M  V30 24 C 0.8331 -2.62108 3.43399 0
M  V30 25 C -0.0319 -3.89811 3.60861 0
M  V30 26 C -0.9929 -3.77193 4.8207 0
M  V30 27 N -1.8559 -4.9673 4.96189 0
M  V30 28 H 2.9841 -1.04962 2.78903 0
M  V30 29 H 0.5211 -0.507088 1.38083 0
M  V30 30 H 2.4791 -3.48089 2.29978 0
M  V30 31 H 1.1091 -2.96194 1.28331 0
M  V30 32 H 0.1611 -1.74967 3.37773 0
M  V30 33 H 1.4731 -2.48685 4.32386 0
M  V30 34 H 0.6271 -4.77103 3.74777 0
M  V30 35 H -0.6339 -4.06102 2.7006 0
M  V30 36 H -1.6289 -2.88284 4.68159 0
M  V30 37 H -0.4039 -3.62421 5.74307 0
M  V30 38 H -2.4579 -5.13431 4.08319 0
M  V30 39 H -2.5409 -4.85839 5.79221 0
M  V30 40 H -1.2729 -5.85594 5.1449 0
M  V30 41 N 2.9562 -1.48159 -0.537278 0
M  V30 42 C 3.9032 -1.62138 -1.64256 0
M  V30 43 C 4.8732 -0.463668 -1.59497 0
M  V30 44 O 6.0582 -0.686241 -1.78032 0
M  V30 45 C 3.1982 -1.66028 -3.02537 0
M  V30 46 C 2.3112 -2.92855 -3.17585 0
M  V30 47 C 1.4462 -2.87952 -4.46382 0
M  V30 48 C 0.4852 -4.09516 -4.54932 0
M  V30 49 N -0.3778 -4.02733 -5.75109 0
M  V30 50 H 4.4622 -2.56529 -1.51647 0
M  V30 51 H 1.9992 -1.27224 -0.738414 0
M  V30 52 H 3.9572 -1.66265 -3.82638 0
M  V30 53 H 2.5872 -0.751331 -3.13934 0
M  V30 54 H 1.6392 -3.02395 -2.30784 0
M  V30 55 H 2.9512 -3.82822 -3.19764 0
M  V30 56 H 2.1052 -2.8655 -5.34765 0
M  V30 57 H 0.8442 -1.95702 -4.46712 0
M  V30 58 H -0.1508 -4.11201 -3.64957 0
M  V30 59 H 1.0742 -5.02917 -4.56346 0
M  V30 60 H -0.9798 -3.13299 -5.76351 0
M  V30 61 H -1.0628 -4.86397 -5.78752 0
M  V30 62 H 0.2052 -4.05379 -6.65799 0
M  V30 63 N 4.4343 0.785586 -1.36625 0
M  V30 64 C 5.3673 1.90509 -1.25625 0
M  V30 65 C 6.3453 1.62 -0.139607 0
M  V30 66 O 7.5293 1.8591 -0.31141 0
M  V30 67 C 4.6563 3.25419 -0.939158 0
M  V30 68 C 3.7023 3.72856 -2.07077 0
M  V30 69 S 4.5353 3.88162 -3.68904 0
M  V30 70 C 5.6913 5.25942 -3.39317 0
M  V30 71 H 5.9243 1.99549 -2.20381 0
M  V30 72 H 3.4573 0.945226 -1.22085 0
M  V30 73 H 5.4153 4.03346 -0.763029 0
M  V30 74 H 4.0763 3.14099 -0.00931402 0
M  V30 75 H 3.2693 4.70624 -1.80357 0
M  V30 76 H 2.8713 3.01989 -2.20632 0
M  V30 77 H 5.1633 6.10651 -2.93447 0
M  V30 78 H 6.1063 5.57668 -4.36363 0
M  V30 79 H 6.5143 4.93224 -2.74573 0
M  V30 80 N 5.9124 1.20967 1.01018 0
M  V30 81 C 7.1594 1.02374 1.74716 0
M  V30 82 C 7.4874 -0.443375 1.89379 0
M  V30 83 O 6.7424 -1.34535 1.42123 0
M  V30 84 C 7.0414 1.65997 3.16512 0
M  V30 85 C 6.7074 3.15831 3.2181 0
M  V30 86 C 5.3694 3.56719 3.22963 0
M  V30 87 C 7.7214 4.11816 3.19464 0
M  V30 88 C 5.0494 4.92107 3.19449 0
M  V30 89 C 7.4014 5.47158 3.17491 0
M  V30 90 C 6.0654 5.87451 3.16951 0
M  V30 91 H 5.3354 0.374614 0.639332 0
M  V30 92 H 7.9824 1.50485 1.18434 0
M  V30 93 H 6.2874 1.10166 3.75993 0
M  V30 94 H 7.9844 1.49119 3.72242 0
M  V30 95 H 4.5744 2.83263 3.21652 0
M  V30 96 H 8.7584 3.81257 3.17737 0
M  V30 97 H 4.0144 5.22579 3.17366 0
M  V30 98 H 8.1884 6.21274 3.14629 0
M  V30 99 H 5.8154 6.92329 3.13983 0
M  V30 100 N 7.3905 -1.2043 1.01659 0
M  V30 101 C 8.3205 -2.25466 0.607226 0
M  V30 102 C 9.3015 -1.65853 -0.377716 0
M  V30 103 O 10.4865 -1.92409 -0.263149 0
M  V30 104 C 7.6165 -3.47256 -0.0552949 0
M  V30 105 C 6.5705 -4.19462 0.850632 0
M  V30 106 C 5.8965 -5.34673 0.0538859 0
M  V30 107 C 7.1965 -4.75603 2.15868 0
M  V30 108 H 8.8905 -2.59962 1.48526 0
M  V30 109 H 6.4365 -1.2496 0.715605 0
M  V30 110 H 8.3895 -4.19917 -0.353233 0
M  V30 111 H 7.1135 -3.11924 -0.968045 0
M  V30 112 H 5.7725 -3.48667 1.13257 0
M  V30 113 H 5.4205 -4.95585 -0.860514 0
M  V30 114 H 5.1205 -5.83913 0.657192 0
M  V30 115 H 6.6445 -6.10138 -0.237598 0
M  V30 116 H 8.0585 -5.40083 1.92311 0
M  V30 117 H 6.4555 -5.3528 2.71284 0
M  V30 118 H 7.5255 -3.94346 2.82169 0
M  V30 119 N 8.8686 -0.792821 -1.36206 0
M  V30 120 C 10.0966 -0.378825 -2.03402 0
M  V30 121 C 10.5116 1.00586 -1.59774 0
M  V30 122 O 9.8686 1.64574 -0.788764 0
M  V30 123 C 9.9196 -0.43683 -3.58851 0
M  V30 124 O 9.6406 -1.76691 -4.00889 0
M  V30 125 C 11.1416 -0.0138943 -4.43298 0
M  V30 126 H 8.3616 -0.155673 -0.652692 0
M  V30 127 H 10.9056 -1.07261 -1.74113 0
M  V30 128 H 9.0606 0.208575 -3.86838 0
M  V30 129 H 9.4746 -1.72011 -4.95492 0
M  V30 130 H 10.9486 -0.105615 -5.51899 0
M  V30 131 H 11.4256 1.03915 -4.2673 0
M  V30 132 H 12.0316 -0.63192 -4.20579 0
M  V30 133 N 10.3467 1.47872 -0.545128 0
M  V30 134 C 11.5947 2.02093 -0.016553 0
M  V30 135 C 11.9157 1.42305 1.3332 0
M  V30 136 O 11.1857 0.593853 1.86682 0
M  V30 137 H 9.7657 0.746993 -0.00313038 0
M  V30 138 H 12.4277 1.81414 -0.712397 0
M  V30 139 H 11.5237 3.11996 0.0805422 0
M  V30 140 N 11.8248 0.280983 1.55075 0
M  V30 141 C 13.0708 -0.33461 2.00021 0
M  V30 142 C 13.4038 -1.55063 1.16915 0
M  V30 143 O 12.6788 -1.93006 0.240646 0
M  V30 144 C 12.9618 -0.711007 3.53011 0
M  V30 145 C 12.8148 0.512766 4.46868 0
M  V30 146 C 14.1338 -1.54522 4.12081 0
M  V30 147 H 11.2528 -0.120147 0.727141 0
M  V30 148 H 13.8948 0.389097 1.85973 0
M  V30 149 H 12.0448 -1.32761 3.65112 0
M  V30 150 H 13.7168 1.15131 4.46702 0
M  V30 151 H 11.9598 1.14975 4.18286 0
M  V30 152 H 12.6308 0.205556 5.51617 0
M  V30 153 H 15.1068 -1.02442 4.03293 0
M  V30 154 H 13.9828 -1.77739 5.19327 0
M  V30 155 H 14.2438 -2.52813 3.62682 0
M  V30 156 N 13.3029 -1.57598 0.00835791 0
M  V30 157 C 14.2329 -2.1198 -0.979113 0
M  V30 158 C 15.2139 -1.03091 -1.35301 0
M  V30 159 O 16.3989 -1.30818 -1.43528 0
M  V30 160 C 13.5289 -2.62995 -2.26828 0
M  V30 161 C 12.4829 -3.76485 -2.03576 0
M  V30 162 C 11.8089 -4.13846 -3.38579 0
M  V30 163 C 13.1089 -5.0342 -1.39161 0
M  V30 164 H 14.8029 -2.94738 -0.526281 0
M  V30 165 H 12.3489 -1.41783 -0.251704 0
M  V30 166 H 14.3019 -2.99669 -2.96271 0
M  V30 167 H 13.0259 -1.7737 -2.7424 0
M  V30 168 H 11.6849 -3.40217 -1.36557 0
M  V30 169 H 11.3329 -3.25232 -3.83709 0
M  V30 170 H 11.0329 -4.90312 -3.23834 0
M  V30 171 H 12.5569 -4.53086 -4.09323 0
M  V30 172 H 13.9709 -5.37812 -1.98573 0
M  V30 173 H 12.3679 -5.84746 -1.34878 0
M  V30 174 H 13.4379 -4.83548 -0.361868 0
M  V30 175 N 14.781 0.264519 -1.55364 0
M  V30 176 C 15.744 1.31046 -1.88042 0
M  V30 177 C 16.744 1.41943 -0.755569 0
M  V30 178 O 17.934 1.40947 -1.02369 0
M  V30 179 C 15.066 2.69067 -2.09323 0
M  V30 180 H 16.259 1.03297 -2.81549 0
M  V30 181 H 13.812 0.502989 -1.47986 0
M  V30 182 H 14.547 3.01982 -1.18226 0
M  V30 183 H 14.332 2.62542 -2.91229 0
M  V30 184 H 15.822 3.44623 -2.35848 0
M  V30 185 N 16.2591 1.48442 0.529413 0
M  V30 186 C 17.1891 1.65902 1.64313 0
M  V30 187 C 18.1701 0.507897 1.6234 0
M  V30 188 O 19.3551 0.740503 1.79528 0
M  V30 189 C 16.4851 1.69911 3.02898 0
M  V30 190 C 15.4391 2.8453 3.19729 0
M  V30 191 C 14.7651 2.73629 4.59381 0
M  V30 192 C 16.0651 4.25821 3.02447 0
M  V30 193 H 17.7591 2.5914 1.49955 0
M  V30 194 H 15.3051 1.24709 0.719982 0
M  V30 195 H 17.2581 1.80715 3.80684 0
M  V30 196 H 15.9821 0.732524 3.18279 0
M  V30 197 H 14.6411 2.73283 2.44361 0
M  V30 198 H 14.2891 1.74938 4.71599 0
M  V30 199 H 13.9891 3.50541 4.71588 0
M  V30 200 H 15.5131 2.86401 5.39265 0
M  V30 201 H 16.9271 4.37898 3.70024 0
M  V30 202 H 15.3241 5.03735 3.26146 0
M  V30 203 H 16.3941 4.42244 1.98867 0
M  V30 204 N 17.7372 -0.778329 1.37039 0
M  V30 205 C 18.7002 -1.87301 1.32102 0
M  V30 206 C 19.7002 -1.59198 0.226405 0
M  V30 207 O 20.8902 -1.67403 0.481861 0
M  V30 208 C 18.0222 -3.24309 1.05055 0
M  V30 209 H 19.2152 -1.93093 2.29467 0
M  V30 210 H 16.7682 -0.977358 1.21973 0
M  V30 211 H 17.5032 -3.24196 0.0819373 0
M  V30 212 H 17.2882 -3.46098 1.84279 0
M  V30 213 H 18.7782 -4.04382 1.04234 0
M  V30 214 N 19.2153 -1.21501 -1.00376 0
M  V30 215 C 20.4613 -1.03452 -1.74429 0
M  V30 216 C 20.7943 0.430764 -1.89362 0
M  V30 217 O 20.0693 1.31962 -1.42886 0
M  V30 218 C 20.3523 -1.73375 -3.15615 0
M  V30 219 C 20.2053 -3.27431 -3.08397 0
M  V30 220 C 21.5243 -1.47732 -4.14564 0
M  V30 221 H 18.6433 -0.377226 -0.633143 0
M  V30 222 H 21.2853 -1.49693 -1.17013 0
M  V30 223 H 19.4353 -1.34064 -3.64636 0
M  V30 224 H 21.1073 -3.76119 -2.67081 0
M  V30 225 H 19.3503 -3.5767 -2.45468 0
M  V30 226 H 20.0213 -3.71524 -4.08258 0
M  V30 227 H 22.4973 -1.8186 -3.74254 0
M  V30 228 H 21.3733 -1.99169 -5.11491 0
M  V30 229 H 21.6343 -0.407589 -4.40217 0
M  V30 230 N 20.6934 1.19889 -1.02296 0
M  V30 231 C 21.6564 2.21116 -0.603351 0
M  V30 232 C 22.6564 1.5738 0.329884 0
M  V30 233 O 23.8464 1.73802 0.117702 0
M  V30 234 C 20.9784 3.40696 0.117992 0
M  V30 235 H 22.1714 2.59754 -1.49893 0
M  V30 236 H 19.7244 1.33463 -0.813468 0
M  V30 237 H 20.4594 3.07569 1.0282 0
M  V30 238 H 20.2444 3.88188 -0.552511 0
M  V30 239 H 21.7344 4.15692 0.398696 0
M  V30 240 N 22.1715 0.800033 1.35784 0
M  V30 241 C 23.4205 0.37387 1.98205 0
M  V30 242 C 23.7335 -1.06302 1.64193 0
M  V30 243 O 24.9395 -1.59198 2.19928 0
M  V30 244 C 23.3955 0.617532 3.54562 0
M  V30 245 C 23.0035 2.06654 3.9749 0
M  V30 246 C 24.7475 0.256401 4.23725 0
M  V30 247 C 22.6545 2.2563 5.46667 0
M  V30 248 H 21.5845 0.136055 0.741623 0
M  V30 249 H 24.2355 0.983166 1.54939 0
M  V30 250 H 22.6175 -0.0616248 3.95952 0
M  V30 251 H 23.7915 2.78296 3.67271 0
M  V30 252 H 22.1065 2.38691 3.41197 0
M  V30 253 H 24.7035 0.376318 5.33374 0
M  V30 254 H 25.0465 -0.796692 4.08606 0
M  V30 255 H 25.5795 0.889214 3.87734 0
M  V30 256 H 22.3185 3.2936 5.66747 0
M  V30 257 H 21.8385 1.58504 5.78478 0
M  V30 258 H 23.5175 2.06861 6.1304 0
M  V30 259 N 23.6496 -1.47581 0.552962 0
M  V30 260 C 24.6126 -2.28439 -0.186605 0
M  V30 261 C 25.6126 -1.36706 -0.84665 0
M  V30 262 O 26.8026 -1.59378 -0.703164 0
M  V30 263 C 23.9346 -3.16264 -1.2724 0
M  V30 264 H 25.1276 -2.95294 0.523609 0
M  V30 265 H 22.6806 -1.532 0.309745 0
M  V30 266 H 23.4156 -2.54091 -2.01514 0
M  V30 267 H 23.2006 -3.83769 -0.803968 0
M  V30 268 H 24.6906 -3.77198 -1.79196 0
M  V30 269 N 25.1277 -0.289203 -1.54924 0
M  V30 270 C 26.0607 0.633823 -2.19221 0
M  V30 271 C 27.0387 1.14174 -1.15772 0
M  V30 272 O 28.2227 1.21211 -1.44361 0
M  V30 273 C 25.3497 1.86592 -2.82668 0
M  V30 274 C 24.3957 1.49227 -3.99542 0
M  V30 275 S 25.2287 0.558312 -5.32582 0
M  V30 276 C 26.3847 1.79847 -5.99505 0
M  V30 277 H 26.6177 0.0875416 -2.97171 0
M  V30 278 H 24.1507 -0.0733899 -1.54225 0
M  V30 279 H 26.1087 2.57305 -3.19851 0
M  V30 280 H 24.7697 2.38335 -2.04585 0
M  V30 281 H 23.9627 2.40945 -4.42676 0
M  V30 282 H 23.5647 0.865193 -3.63855 0
M  V30 283 H 25.8567 2.7406 -6.19595 0
M  V30 284 H 26.7997 1.4099 -6.93922 0
M  V30 285 H 27.2077 1.96982 -5.29016 0
M  V30 286 N 26.6058 1.57591 -0.0167156 0
M  V30 287 C 28.0168 1.79201 0.523834 0
M  V30 288 C 28.3678 0.925796 1.72984 0
M  V30 289 O 27.4928 0.132792 2.15992 0
M  V30 290 C 28.0878 3.25 0.957091 0
M  V30 291 C 26.6468 3.47648 1.44283 0
M  V30 292 C 25.7938 2.74374 0.401757 0
M  V30 293 H 28.7448 1.56831 -0.242816 0
M  V30 294 H 28.7658 3.34031 1.82219 0
M  V30 295 H 28.2778 3.88019 0.0791415 0
M  V30 296 H 26.3788 2.89866 2.34113 0
M  V30 297 H 26.4918 4.56352 1.45877 0
M  V30 298 H 24.8558 2.39485 0.867121 0
M  V30 299 H 25.6388 3.40102 -0.467513 0
M  V30 300 N 28.0839 -0.256276 1.55502 0
M  V30 301 C 29.0469 -1.30047 1.88734 0
M  V30 302 C 30.0469 -1.4154 0.763086 0
M  V30 303 O 31.2369 -1.40403 1.03115 0
M  V30 304 C 28.3689 -2.67953 2.10747 0
M  V30 305 H 29.5619 -1.01802 2.82093 0
M  V30 306 H 27.1149 -0.495134 1.4825 0
M  V30 307 H 27.8499 -3.01351 1.19825 0
M  V30 308 H 27.6349 -2.60993 2.92617 0
M  V30 309 H 29.1249 -3.43368 2.37673 0
M  V30 310 N 29.562 -1.4872 -0.521534 0
M  V30 311 C 30.492 -1.66771 -1.63431 0
M  V30 312 C 31.473 -0.516499 -1.62069 0
M  V30 313 O 32.658 -0.750013 -1.79132 0
M  V30 314 C 29.788 -1.71515 -3.01993 0
M  V30 315 C 28.742 -2.86222 -3.18216 0
M  V30 316 C 28.068 -2.76061 -4.57924 0
M  V30 317 C 29.368 -4.27419 -3.00184 0
M  V30 318 H 31.062 -2.59932 -1.48579 0
M  V30 319 H 28.608 -1.25089 -0.713358 0
M  V30 320 H 30.561 -1.82731 -3.7972 0
M  V30 321 H 29.285 -0.749393 -3.17886 0
M  V30 322 H 27.944 -2.74575 -2.42908 0
M  V30 323 H 27.592 -1.77437 -4.70665 0
M  V30 324 H 27.292 -3.53037 -4.69722 0
M  V30 325 H 28.816 -2.89256 -5.37739 0
M  V30 326 H 30.23 -4.39855 -3.67697 0
M  V30 327 H 28.627 -5.05458 -3.2347 0
M  V30 328 H 29.697 -4.43293 -1.96518 0
M  V30 329 N 31.0401 0.771051 -1.3745 0
M  V30 330 C 32.0031 1.86598 -1.33093 0
M  V30 331 C 33.0031 1.59076 -0.234845 0
M  V30 332 O 34.1931 1.67145 -0.490732 0
M  V30 333 C 31.3251 3.23747 -1.06773 0
M  V30 334 H 32.5181 1.91873 -2.30488 0
M  V30 335 H 30.0711 0.970876 -1.2249 0
M  V30 336 H 30.8061 3.24148 -0.099129 0
M  V30 337 H 30.5911 3.45115 -1.86112 0
M  V30 338 H 32.0811 4.03824 -1.06377 0
M  V30 339 N 32.5182 1.22032 0.997298 0
M  V30 340 C 33.4812 0.987909 2.06816 0
M  V30 341 C 34.4812 -0.0440084 1.6074 0
M  V30 342 O 35.6712 0.194053 1.73116 0
M  V30 343 C 32.8032 0.49132 3.37341 0
M  V30 344 H 33.9962 1.93803 2.28868 0
M  V30 345 H 31.5492 1.03838 1.16822 0
M  V30 346 H 32.2842 -0.463364 3.20973 0
M  V30 347 H 32.0692 1.23575 3.72118 0
M  V30 348 H 33.5592 0.348824 4.16141 0
M  V30 349 N 33.9963 -1.19345 1.0293 0
M  V30 350 C 34.9593 -2.20793 0.615069 0
M  V30 351 C 35.9593 -1.57553 -0.321533 0
M  V30 352 O 37.1493 -1.73862 -0.108483 0
M  V30 353 C 34.2813 -3.40754 -0.0999222 0
M  V30 354 H 35.4743 -2.58955 1.51269 0
M  V30 355 H 33.0273 -1.3303 0.820534 0
M  V30 356 H 33.7623 -3.0811 -1.01187 0
M  V30 357 H 33.5473 -3.87889 0.57309 0
M  V30 358 H 35.0373 -4.15898 -0.376645 0
M  V30 359 N 35.4744 -0.807222 -1.35358 0
M  V30 360 C 36.8854 -0.44876 -1.81226 0
M  V30 361 C 37.2364 1.02929 -1.67033 0
M  V30 362 O 36.3614 1.79991 -1.20133 0
M  V30 363 C 36.9564 -0.807774 -3.2903 0
M  V30 364 C 35.5154 -0.501901 -3.73039 0
M  V30 365 C 34.6624 -1.03304 -2.57339 0
M  V30 366 H 37.6134 -0.998808 -1.23327 0
M  V30 367 H 37.6344 -0.10554 -3.80354 0
M  V30 368 H 37.1464 -1.88357 -3.39328 0
M  V30 369 H 35.2474 0.565128 -3.68289 0
M  V30 370 H 35.3604 -1.03497 -4.67787 0
M  V30 371 H 33.7244 -0.455339 -2.50597 0
M  V30 372 H 34.5074 -2.11496 -2.70415 0
M  V30 373 N 36.9525 1.47285 -0.560781 0
M  V30 374 C 37.8995 2.30058 0.18491 0
M  V30 375 C 38.8695 1.39281 0.904986 0
M  V30 376 O 40.0545 1.68241 0.899979 0
M  V30 377 C 37.1945 3.23317 1.20666 0
M  V30 378 C 36.3075 4.29186 0.492285 0
M  V30 379 C 35.4425 5.09592 1.49964 0
M  V30 380 C 34.4815 6.07232 0.770439 0
M  V30 381 N 33.6185 6.80584 1.72479 0
M  V30 382 H 38.4585 2.93302 -0.527048 0
M  V30 383 H 35.9955 1.44568 -0.271738 0
M  V30 384 H 37.9535 3.75811 1.81168 0
M  V30 385 H 36.5835 2.61929 1.88661 0
M  V30 386 H 35.6355 3.7972 -0.227333 0
M  V30 387 H 36.9475 4.98738 -0.0787929 0
M  V30 388 H 36.1015 5.66254 2.17809 0
M  V30 389 H 34.8405 4.3995 2.10464 0
M  V30 390 H 33.8455 5.49745 0.0780846 0
M  V30 391 H 35.0705 6.78884 0.171134 0
M  V30 392 H 33.0165 6.1367 2.3183 0
M  V30 393 H 32.9335 7.46319 1.20596 0
M  V30 394 H 34.2015 7.41818 2.39428 0
M  V30 395 N 38.4306 0.297415 1.54768 0
M  V30 396 C 39.3936 -0.567375 2.22066 0
M  V30 397 C 40.3936 -1.06409 1.20556 0
M  V30 398 O 41.5836 -0.960691 1.45315 0
M  V30 399 C 38.7156 -1.78517 2.90421 0
M  V30 400 H 39.9086 0.0205534 2.99893 0
M  V30 401 H 37.4616 0.0482163 1.56226 0
M  V30 402 H 38.1966 -2.41303 2.16664 0
M  V30 403 H 37.9816 -1.43669 3.64831 0
M  V30 404 H 39.4716 -2.39964 3.41771 0
M  V30 405 N 39.9087 -1.5758 0.0250728 0
M  V30 406 C 41.3197 -1.79476 -0.514323 0
M  V30 407 C 41.6707 -0.934956 -1.72491 0
M  V30 408 O 40.7957 -0.144245 -2.15919 0
M  V30 409 C 41.3907 -3.25503 -0.939842 0
M  V30 410 C 39.9497 -3.48408 -1.42438 0
M  V30 411 C 39.0967 -2.74583 -0.387201 0
M  V30 412 H 42.0477 -1.567 0.25113 0
M  V30 413 H 42.0687 -3.34992 -1.80445 0
M  V30 414 H 41.5807 -3.88056 -0.0585628 0
M  V30 415 H 39.6817 -2.91103 -2.32572 0
M  V30 416 H 39.7947 -4.57119 -1.43455 0
M  V30 417 H 38.1587 -2.39942 -0.854409 0
M  V30 418 H 38.9417 -3.39849 0.485543 0
M  V30 419 N 41.3868 0.248026 -1.55636 0
M  V30 420 C 42.3498 1.29044 -1.89421 0
M  V30 421 C 43.3498 1.41134 -0.770581 0
M  V30 422 O 44.5398 1.39854 -1.03858 0
M  V30 423 C 41.6718 2.66831 -2.12165 0
M  V30 424 H 42.8648 1.00305 -2.82629 0
M  V30 425 H 40.4178 0.487265 -1.48511 0
M  V30 426 H 41.1528 3.00711 -1.21422 0
M  V30 427 H 40.9378 2.59438 -2.93997 0
M  V30 428 H 42.4278 3.42103 -2.3949 0
M  V30 429 N 42.8649 1.48995 0.513639 0
M  V30 430 C 44.1419 1.48338 1.27495 0
M  V30 431 C 44.5219 0.204065 2.10111 0
M  V30 432 O 43.8699 -0.813881 2.13514 0
M  V30 433 C 44.0799 2.75498 2.14247 0
M  V30 434 C 45.4279 3.24484 2.73852 0
M  V30 435 O 46.4519 2.76528 2.24523 0
M  V30 436 O 45.3109 4.07974 3.6362 0
M  V30 437 H 42.4049 0.593149 0.576284 0
M  V30 438 H 44.9509 1.61246 0.528948 0
M  V30 439 H 43.7229 3.60109 1.53092 0
M  V30 440 H 43.3459 2.6539 2.96064 0
M  V30 441 N 44.343 -0.763751 1.37857 0
M  V30 442 C 45.591 -1.51957 1.33243 0
M  V30 443 C 45.912 -1.94835 -0.0801709 0
M  V30 444 O 45.182 -1.66894 -1.02582 0
M  V30 445 H 43.762 -0.563626 0.49024 0
M  V30 446 H 46.424 -0.908504 1.7243 0
M  V30 447 H 45.52 -2.41523 1.97669 0
M  V30 448 N 45.8211 -1.22559 -0.990812 0
M  V30 449 C 46.7511 -1.0218 -2.09956 0
M  V30 450 C 47.7321 0.0579394 -1.70001 0
M  V30 451 O 48.9171 -0.104684 -1.93918 0
M  V30 452 C 46.0471 -0.601023 -3.4206 0
M  V30 453 C 45.0011 -1.62694 -3.95872 0
M  V30 454 C 44.3271 -1.06193 -5.24049 0
M  V30 455 C 45.6271 -3.01743 -4.2632 0
M  V30 456 H 47.3211 -1.94916 -2.27262 0
M  V30 457 H 44.8671 -0.938566 -1.09211 0
M  V30 458 H 46.8201 -0.445561 -4.19038 0
M  V30 459 H 45.5441 0.362005 -3.24588 0
M  V30 460 H 44.2031 -1.77021 -3.21028 0
M  V30 461 H 43.8511 -0.0901903 -5.02919 0
M  V30 462 H 43.5511 -1.74732 -5.61019 0
M  V30 463 H 45.0751 -0.918092 -6.03658 0
M  V30 464 H 46.4891 -2.90777 -4.94087 0
M  V30 465 H 44.8861 -3.67425 -4.74467 0
M  V30 466 H 45.9561 -3.51518 -3.34011 0
M  V30 467 N 47.2992 1.18797 -1.03562 0
M  V30 468 C 48.2462 2.22253 -0.622259 0
M  V30 469 C 49.2162 1.61987 0.36736 0
M  V30 470 O 50.4012 1.88986 0.262492 0
M  V30 471 C 47.5412 3.45097 0.0138462 0
M  V30 472 C 46.6542 4.19722 -1.02263 0
M  V30 473 C 45.7892 5.30009 -0.355573 0
M  V30 474 C 44.8282 5.96399 -1.37749 0
M  V30 475 N 43.9652 6.98234 -0.735766 0
M  V30 476 H 48.8052 2.56968 -1.50903 0
M  V30 477 H 46.3422 1.26245 -0.755017 0
M  V30 478 H 48.3002 4.15279 0.399948 0
M  V30 479 H 46.9302 3.11018 0.864158 0
M  V30 480 H 45.9822 3.48418 -1.52673 0
M  V30 481 H 47.2942 4.65227 -1.79903 0
M  V30 482 H 46.4482 6.0664 0.0850095 0
M  V30 483 H 45.1872 4.85592 0.452967 0
M  V30 484 H 44.1922 5.18512 -1.82826 0
M  V30 485 H 45.4172 6.42899 -2.18764 0
M  V30 486 H 43.3632 6.55979 0.0525597 0
M  V30 487 H 43.2802 7.41965 -1.44995 0
M  V30 488 H 44.5482 7.78845 -0.31941 0
M  V30 489 N 48.7773 0.814389 1.34928 0
M  V30 490 C 49.7103 0.175641 2.27523 0
M  V30 491 C 50.6883 -0.662953 1.48471 0
M  V30 492 O 51.8723 -0.628545 1.77712 0
M  V30 493 C 48.9993 -0.755516 3.30166 0
M  V30 494 C 48.0453 0.00445305 4.265 0
M  V30 495 S 48.8783 1.34582 5.18313 0
M  V30 496 C 50.0343 0.419315 6.24494 0
M  V30 497 H 50.2673 0.960691 2.8135 0
M  V30 498 H 47.8003 0.609846 1.41846 0
M  V30 499 H 49.7583 -1.28723 3.89796 0
M  V30 500 H 48.4193 -1.51402 2.75202 0
M  V30 501 H 47.6123 -0.703077 4.99072 0
M  V30 502 H 47.2143 0.466447 3.7108 0
M  V30 503 H 49.5063 -0.392432 6.76362 0
M  V30 504 H 50.4493 1.11446 6.99275 0
M  V30 505 H 50.8573 0.0115389 5.64499 0
M  V30 506 N 50.2554 -1.46986 0.568584 0
M  V30 507 C 51.5324 -1.95592 -0.0174074 0
M  V30 508 C 51.9124 -1.51124 -1.47393 0
M  V30 509 O 51.2604 -0.755329 -2.15655 0
M  V30 510 C 51.4704 -3.48719 0.139913 0
M  V30 511 C 52.8184 -4.246 0.000426376 0
M  V30 512 O 53.8424 -3.56135 0.0680316 0
M  V30 513 O 52.7014 -5.46302 -0.146988 0
M  V30 514 H 49.7954 -0.82498 -0.0577599 0
M  V30 515 H 52.3414 -1.57335 0.635909 0
M  V30 516 H 51.1134 -3.73927 1.15301 0
M  V30 517 H 50.7364 -3.93771 -0.550491 0
M  V30 518 N 51.7335 -0.305618 -1.54608 0
M  V30 519 C 52.6805 0.568421 -2.23691 0
M  V30 520 C 53.6505 1.12592 -1.22116 0
M  V30 521 O 54.8355 1.16959 -1.50749 0
M  V30 522 C 51.9755 1.7322 -2.98477 0
M  V30 523 C 51.0885 1.20566 -4.14835 0
M  V30 524 C 50.2235 2.33368 -4.77193 0
M  V30 525 C 49.2625 1.7787 -5.85686 0
M  V30 526 N 48.3995 2.84263 -6.4198 0
M  V30 527 H 53.2395 -0.0272867 -2.97988 0
M  V30 528 H 50.7765 -0.0252363 -1.47078 0
M  V30 529 H 52.7345 2.41675 -3.40072 0
M  V30 530 H 51.3645 2.29947 -2.26548 0
M  V30 531 H 50.4165 0.413223 -3.78149 0
M  V30 532 H 51.7285 0.759417 -4.92985 0
M  V30 533 H 50.8825 3.09761 -5.21664 0
M  V30 534 H 49.6215 2.8132 -3.98385 0
M  V30 535 H 48.6265 0.99968 -5.40635 0
M  V30 536 H 49.8515 1.30816 -6.66381 0
M  V30 537 H 47.7975 3.31541 -5.66053 0
M  V30 538 H 47.7145 2.44149 -7.15491 0
M  V30 539 H 48.9825 3.6054 -6.91109 0
M  V30 540 N 53.2116 1.57565 -0.0334293 0
M  V30 541 C 54.4396 1.9628 0.654347 0
M  V30 542 C 54.8546 0.910138 1.65414 0
M  V30 543 O 54.2116 -0.107595 1.82183 0
M  V30 544 C 54.2626 3.35067 1.35693 0
M  V30 545 O 53.9836 4.36296 0.397191 0
M  V30 546 C 55.4846 3.88439 2.13613 0
M  V30 547 H 52.7046 0.646369 0.180132 0
M  V30 548 H 55.2486 2.04282 -0.0944721 0
M  V30 549 H 53.4036 3.2827 2.05712 0
M  V30 550 H 53.8176 5.1678 0.896597 0
M  V30 551 H 55.2916 4.8788 2.58219 0
M  V30 552 H 55.7686 3.22914 2.97696 0
M  V30 553 H 56.3746 3.98516 1.48543 0
M  V30 554 N 54.6897 -0.239769 1.55765 0
M  V30 555 C 55.6367 -1.29696 1.90913 0
M  V30 556 C 56.6067 -1.47478 0.764164 0
M  V30 557 O 57.7917 -1.61345 1.01845 0
M  V30 558 C 54.9317 -2.64598 2.21544 0
M  V30 559 C 54.0447 -2.54765 3.48882 0
M  V30 560 C 53.1797 -3.82069 3.69049 0
M  V30 561 C 52.2187 -3.66883 4.89963 0
M  V30 562 N 51.3557 -4.86094 5.06614 0
M  V30 563 H 56.1957 -0.990224 2.81067 0
M  V30 564 H 53.7327 -0.477684 1.39128 0
M  V30 565 H 55.6907 -3.43132 2.3731 0
M  V30 566 H 54.3207 -2.93405 1.34585 0
M  V30 567 H 53.3727 -1.67763 3.41409 0
M  V30 568 H 54.6847 -2.39457 4.37563 0
M  V30 569 H 53.8387 -4.69046 3.84812 0
M  V30 570 H 52.5777 -4.00282 2.78614 0
M  V30 571 H 51.5827 -2.78289 4.74168 0
M  V30 572 H 52.8077 -3.50157 5.81865 0
M  V30 573 H 50.7537 -5.04655 4.19117 0
M  V30 574 H 50.6707 -4.73443 5.89396 0
M  V30 575 H 51.9387 -5.74549 5.26795 0
M  V30 576 N 56.1678 -1.49265 -0.50573 0
M  V30 577 C 57.0998 -1.617 -1.62437 0
M  V30 578 C 58.1128 -0.499924 -1.54934 0
M  V30 579 O 59.3018 -0.771785 -1.60953 0
M  V30 580 C 56.4018 -1.5533 -3.01207 0
M  V30 581 C 55.5748 -2.8249 -3.33943 0
M  V30 582 C 54.6338 -2.69238 -4.52103 0
M  V30 583 O 53.6598 -3.43167 -4.5412 0
M  V30 584 N 54.8618 -1.80468 -5.51735 0
M  V30 585 H 57.6268 -2.58177 -1.52199 0
M  V30 586 H 55.1878 -1.46294 -0.693511 0
M  V30 587 H 57.1798 -1.44125 -3.78167 0
M  V30 588 H 55.7498 -0.667297 -3.05395 0
M  V30 589 H 54.9698 -3.08081 -2.45926 0
M  V30 590 H 56.2578 -3.66802 -3.5261 0
M  V30 591 H 55.6558 -1.19653 -5.52901 0
M  V30 592 H 54.2128 -1.75188 -6.27816 0
M  V30 593 N 57.6459 0.756429 -1.3826 0
M  V30 594 C 59.0569 1.33359 -1.30661 0
M  V30 595 C 59.4079 1.96161 0.0388875 0
M  V30 596 O 58.5329 1.94874 0.940918 0
M  V30 597 C 59.1279 2.42477 -2.36622 0
M  V30 598 C 57.6869 2.95922 -2.3261 0
M  V30 599 C 56.8339 1.69275 -2.19639 0
M  V30 600 H 59.7849 0.55552 -1.4866 0
M  V30 601 H 59.8059 3.22345 -2.02174 0
M  V30 602 H 59.3179 1.96739 -3.34538 0
M  V30 603 H 57.4189 3.45996 -1.38267 0
M  V30 604 H 57.5319 3.50494 -3.26636 0
M  V30 605 H 55.8959 1.92793 -1.66442 0
M  V30 606 H 56.6789 1.25619 -3.19491 0
M  V30 607 N 59.124 1.23083 0.984299 0
M  V30 608 C 60.37 1.06214 1.72761 0
M  V30 609 C 60.703 -0.400584 1.90024 0
M  V30 610 O 59.978 -1.29672 1.44967 0
M  V30 611 C 60.261 1.78375 3.12817 0
M  V30 612 C 60.114 3.32296 3.03149 0
M  V30 613 C 61.433 1.54309 4.12161 0
M  V30 614 H 58.552 0.387251 0.627061 0
M  V30 615 H 61.194 1.51536 1.14616 0
M  V30 616 H 59.344 1.39848 3.62457 0
M  V30 617 H 61.016 3.8032 2.61064 0
M  V30 618 H 59.259 3.6153 2.39747 0
M  V30 619 H 59.93 3.77972 4.02295 0
M  V30 620 H 62.406 1.87791 3.71314 0
M  V30 621 H 61.282 2.07281 5.08258 0
M  V30 622 H 61.543 0.477572 4.39513 0
M  V30 623 N 60.6021 -1.18246 1.0419 0
M  V30 624 C 61.8481 -1.88536 0.747122 0
M  V30 625 C 62.1811 -1.80223 -0.723409 0
M  V30 626 O 61.4561 -1.20337 -1.52804 0
M  V30 627 C 61.7391 -3.38968 1.21544 0
M  V30 628 C 61.5921 -3.56084 2.74816 0
M  V30 629 C 62.9111 -4.32648 0.806482 0
M  V30 630 H 60.0301 -0.684619 0.272883 0
M  V30 631 H 62.6721 -1.39113 1.29413 0
M  V30 632 H 60.8221 -3.8119 0.750081 0
M  V30 633 H 62.4941 -3.22946 3.29399 0
M  V30 634 H 60.7371 -2.98699 3.14582 0
M  V30 635 H 61.4081 -4.61639 3.02644 0
M  V30 636 H 63.8841 -3.98211 1.20695 0
M  V30 637 H 62.7601 -5.36462 1.1619 0
M  V30 638 H 63.0211 -4.41146 -0.29029 0
M  V30 639 N 62.0802 -0.821533 -1.34494 0
M  V30 640 C 63.3272 -0.408946 -1.98328 0
M  V30 641 C 63.6552 1.02764 -1.65136 0
M  V30 642 O 62.9102 1.73026 -0.914349 0
M  V30 643 C 63.2092 -0.556512 -3.53041 0
M  V30 644 C 62.8752 -1.95861 -4.0614 0
M  V30 645 C 61.5372 -2.34217 -4.20352 0
M  V30 646 C 63.8892 -2.87523 -4.34718 0
M  V30 647 C 61.2172 -3.63572 -4.6047 0
M  V30 648 C 63.5692 -4.1634 -4.76281 0
M  V30 649 C 62.2332 -4.54675 -4.88699 0
M  V30 650 H 61.5032 -0.149644 -0.725732 0
M  V30 651 H 64.1502 -1.04521 -1.6046 0
M  V30 652 H 62.4552 0.163148 -3.9146 0
M  V30 653 H 64.1522 -0.217826 -4.00408 0
M  V30 654 H 60.7422 -1.65066 -3.95539 0
M  V30 655 H 64.9262 -2.59133 -4.23277 0
M  V30 656 H 60.1822 -3.93101 -4.68275 0
M  V30 657 H 64.3562 -4.87455 -4.97354 0
M  V30 658 H 61.9832 -5.54959 -5.19542 0
M  V30 659 N 63.5583 1.46682 -0.576371 0
M  V30 660 C 64.5063 2.31953 0.17335 0
M  V30 661 C 65.5003 1.44098 0.89062 0
M  V30 662 O 66.7063 1.60759 0.809728 0
M  V30 663 H 63.0813 0.748273 0.0747727 0
M  V30 664 H 65.0523 2.93007 -0.564738 0
M  V30 665 C 63.8013 3.27142 1.17786 0
M  V30 666 H 63.1243 3.94719 0.635361 0
M  V30 667 H 64.5643 3.896 1.67296 0
M  V30 668 C 63.0233 2.52036 2.23561 0
M  V30 669 O 63.5533 2.27877 3.3081 0
M  V30 670 N 61.7593 2.12709 1.97998 0
M  V30 671 H 61.3063 2.32557 1.10792 0
M  V30 672 H 61.2643 1.62776 2.68982 0
M  V30 673 N 65.0364 0.313813 1.54444 0
M  V30 674 C 65.9864 -0.571898 2.20711 0
M  V30 675 C 66.9704 -1.08913 1.18435 0
M  V30 676 O 68.1624 -1.02777 1.44104 0
M  V30 677 C 65.2914 -1.7371 2.96108 0
M  V30 678 C 64.3774 -1.23522 4.05713 0
M  V30 679 N 64.7684 -0.452288 5.03774 0
M  V30 680 C 63.0664 -1.51482 4.19487 0
M  V30 681 C 63.7674 -0.183438 5.81411 0
M  V30 682 N 62.7434 -0.766845 5.38164 0
M  V30 683 H 66.5454 0.0336802 2.93881 0
M  V30 684 H 64.0594 0.119192 1.61962 0
M  V30 685 H 66.0564 -2.38329 3.4206 0
M  V30 686 H 64.7164 -2.34625 2.24458 0
M  V30 687 H 65.7274 -0.0960131 5.17811 0
M  V30 688 H 62.4044 -2.13053 3.59047 0
M  V30 689 H 63.7944 0.446216 6.70417 0
M  V30 690 N 66.5145 -1.57545 0.0417849 0
M  V30 691 C 67.7395 -1.97035 -0.647455 0
M  V30 692 C 68.1645 -0.918775 -1.64135 0
M  V30 693 O 67.5225 0.119006 -1.80909 0
M  V30 694 C 67.5705 -3.35609 -1.31905 0
M  V30 695 O 66.6745 -3.3287 -2.43457 0
M  V30 696 H 66.0155 -0.64211 -0.169086 0
M  V30 697 H 68.5455 -2.04318 0.107399 0
M  V30 698 H 68.5555 -3.72126 -1.67291 0
M  V30 699 H 67.2305 -4.11685 -0.590586 0
M  V30 700 H 65.8075 -3.08087 -2.10088 0
M  V30 701 N 67.9926 0.231505 -1.5589 0
M  V30 702 C 69.2206 0.974505 -1.82513 0
M  V30 703 C 69.6356 1.78344 -0.619591 0
M  V30 704 O 68.9926 1.77792 0.411848 0
M  V30 705 C 69.0436 1.90007 -3.07538 0
M  V30 706 O 68.7646 1.12385 -4.2344 0
M  V30 707 C 70.2656 2.75779 -3.47075 0
M  V30 708 H 67.4856 0.286065 -0.606966 0
M  V30 709 H 70.0296 0.249739 -2.02969 0
M  V30 710 H 68.1846 2.57891 -2.89086 0
M  V30 711 H 68.5986 1.75125 -4.944 0
M  V30 712 H 70.0726 3.36443 -4.37619 0
M  V30 713 H 70.5496 3.47672 -2.68367 0
M  V30 714 H 71.1556 2.13323 -3.67931 0
M  V30 715 N 69.4707 1.49531 0.497807 0
M  V30 716 C 70.4207 1.62829 1.59596 0
M  V30 717 C 71.4047 0.483824 1.53453 0
M  V30 718 O 72.5967 0.736937 1.60929 0
M  V30 719 C 69.7257 1.7011 2.98191 0
M  V30 720 C 68.8117 2.90144 3.09317 0
M  V30 721 N 69.2027 4.1418 2.90324 0
M  V30 722 C 67.5007 2.88148 3.40422 0
M  V30 723 C 68.2017 4.94886 3.05717 0
M  V30 724 N 67.1777 4.28314 3.34736 0
M  V30 725 H 70.9797 2.56446 1.4357 0
M  V30 726 H 68.4937 1.46347 0.704001 0
M  V30 727 H 70.4907 1.77735 3.77115 0
M  V30 728 H 69.1507 0.776315 3.15283 0
M  V30 729 H 70.1617 4.44109 2.66436 0
M  V30 730 H 66.8387 2.05061 3.63671 0
M  V30 731 H 68.2287 6.03432 2.95499 0
M  V30 732 N 70.9488 -0.749086 1.3866 0
M  V30 733 C 71.8958 -1.86291 1.36251 0
M  V30 734 C 72.8658 -1.64578 0.224347 0
M  V30 735 O 74.0508 -1.86181 0.417279 0
M  V30 736 C 71.1908 -3.23644 1.19786 0
M  V30 737 C 70.3038 -3.57158 2.43027 0
M  V30 738 C 69.4388 -4.83838 2.19258 0
M  V30 739 C 68.4778 -5.10152 3.38247 0
M  V30 740 N 67.6148 -6.28029 3.13884 0
M  V30 741 H 72.4548 -1.87685 2.3147 0
M  V30 742 H 69.9918 -0.917287 1.14997 0
M  V30 743 H 71.9498 -4.0291 1.08254 0
M  V30 744 H 70.5798 -3.21566 0.282031 0
M  V30 745 H 69.6318 -2.72701 2.65214 0
M  V30 746 H 70.9438 -3.7253 3.31697 0
M  V30 747 H 70.0978 -5.71057 2.04888 0
M  V30 748 H 68.8368 -4.70614 1.2796 0
M  V30 749 H 67.8418 -4.21401 3.53131 0
M  V30 750 H 69.0668 -5.25271 4.30427 0
M  V30 751 H 67.0128 -6.1612 2.25238 0
M  V30 752 H 66.9298 -6.43922 3.96106 0
M  V30 753 H 68.1978 -7.18124 3.03179 0
M  V30 754 N 72.4269 -1.23603 -0.977757 0
M  V30 755 C 73.3899 -1.02069 -2.05218 0
M  V30 756 C 74.3899 0.0184305 -1.60789 0
M  V30 757 O 75.5799 -0.221569 -1.72785 0
M  V30 758 C 72.7119 -0.544926 -3.36517 0
M  V30 759 H 73.9049 -1.9742 -2.25755 0
M  V30 760 H 71.4579 -1.05684 -1.15155 0
M  V30 761 H 72.1929 0.412241 -3.21669 0
M  V30 762 H 71.9779 -1.2948 -3.70105 0
M  V30 763 H 73.4679 -0.414985 -4.15533 0
M  V30 764 N 73.905 1.17692 -1.04816 0
M  V30 765 C 75.151 1.88137 -0.75711 0
M  V30 766 C 75.484 1.80604 0.713841 0
M  V30 767 O 74.759 1.21146 1.52164 0
M  V30 768 C 75.042 3.38318 -1.2334 0
M  V30 769 C 74.895 3.54622 -2.76701 0
M  V30 770 C 76.214 4.32214 -0.829415 0
M  V30 771 H 73.333 0.683163 -0.27651 0
M  V30 772 H 75.975 1.38424 -1.30149 0
M  V30 773 H 74.125 3.80787 -0.770286 0
M  V30 774 H 75.797 3.21194 -3.31107 0
M  V30 775 H 74.04 2.97026 -3.16161 0
M  V30 776 H 74.711 4.60028 -3.05088 0
M  V30 777 H 77.187 3.97565 -1.22805 0
M  V30 778 H 76.063 5.35838 -1.19033 0
M  V30 779 H 76.324 4.41294 0.266891 0
M  V30 780 N 75.3831 0.828654 1.34056 0
M  V30 781 C 76.3301 0.252567 2.29414 0
M  V30 782 C 77.3001 -0.62588 1.53857 0
M  V30 783 O 78.4851 -0.566312 1.82202 0
M  V30 784 C 75.6251 -0.574831 3.40279 0
M  V30 785 C 74.7381 0.326499 4.30764 0
M  V30 786 C 73.8731 -0.511016 5.28736 0
M  V30 787 C 72.9121 0.389342 6.1086 0
M  V30 788 N 72.0491 -0.409439 7.00905 0
M  V30 789 H 76.8891 1.07108 2.78086 0
M  V30 790 H 74.4261 0.539677 1.36843 0
M  V30 791 H 76.3841 -1.06992 4.03248 0
M  V30 792 H 75.0141 -1.35841 2.92826 0
M  V30 793 H 74.0661 0.939837 3.68607 0
M  V30 794 H 75.3781 1.01857 4.88289 0
M  V30 795 H 74.5321 -1.07035 5.97184 0
M  V30 796 H 73.2711 -1.23657 4.71763 0
M  V30 797 H 72.2761 0.960769 5.4134 0
M  V30 798 H 73.5011 1.1131 6.69916 0
M  V30 799 H 71.4471 -1.11856 6.46393 0
M  V30 800 H 71.3641 0.224126 7.55668 0
M  V30 801 H 72.6321 -0.951336 7.73673 0
M  V30 802 N 76.8612 -1.46375 0.584142 0
M  V30 803 C 78.1012 -2.0427 0.0729695 0
M  V30 804 C 78.4652 -1.44563 -1.26355 0
M  V30 805 O 79.6662 -1.93667 -1.86405 0
M  V30 806 C 77.9372 -3.57399 0.00967464 0
M  V30 807 S 79.4962 -4.36551 -0.443714 0
M  V30 808 H 76.3142 -0.709975 0.0381673 0
M  V30 809 H 78.9162 -1.79398 0.776962 0
M  V30 810 H 77.6202 -3.98372 0.986319 0
M  V30 811 H 77.1512 -3.8681 -0.717044 0
M  V30 812 H 79.1662 -4.66237 -1.69816 0
M  V30 813 N 78.3393 -0.321999 -1.54275 0
M  V30 814 C 79.5873 0.280489 -2.00144 0
M  V30 815 C 79.9083 1.52777 -1.21178 0
M  V30 816 O 79.1783 1.9338 -0.313187 0
M  V30 817 H 77.7583 0.106632 -0.73935 0
M  V30 818 H 80.4203 -0.438184 -1.8991 0
M  V30 819 H 79.5163 0.537972 -3.07428 0
M  V30 820 N 79.8174 1.5752 -0.0501392 0
M  V30 821 C 81.0944 1.83996 0.663685 0
M  V30 822 C 81.4744 0.938339 1.89099 0
M  V30 823 O 80.8224 -0.00087759 2.285 0
M  V30 824 C 81.0324 3.33702 1.02196 0
M  V30 825 C 82.3804 4.00691 1.40469 0
M  V30 826 O 83.4044 3.38321 1.11433 0
M  V30 827 O 82.2634 5.10658 1.94654 0
M  V30 828 H 79.3574 0.759385 0.32751 0
M  V30 829 H 81.9034 1.69514 -0.0794238 0
M  V30 830 H 80.6754 3.91015 0.149364 0
M  V30 831 H 80.2984 3.53368 1.82255 0
M  V30 832 N 81.2955 -0.223234 1.56011 0
M  V30 833 C 82.5355 -0.954962 1.8072 0
M  V30 834 C 82.8995 -1.81598 0.623384 0
M  V30 835 O 84.1005 -2.58132 0.749745 0
M  V30 836 C 82.3715 -1.77313 3.10314 0
M  V30 837 S 83.9305 -2.56073 3.56332 0
M  V30 838 H 80.7485 -0.320812 0.634508 0
M  V30 839 H 83.3505 -0.220686 1.9425 0
M  V30 840 H 82.0545 -1.13071 3.94516 0
M  V30 841 H 81.5855 -2.54974 2.99586 0
M  V30 842 H 83.6005 -3.79619 3.19536 0
M  V30 843 N 82.7736 -1.49793 -0.48987 0
M  V30 844 C 83.7236 -1.63673 -1.5873 0
M  V30 845 C 84.7076 -0.491956 -1.53195 0
M  V30 846 O 85.8996 -0.745461 -1.60536 0
M  V30 847 C 83.0286 -1.71689 -2.97284 0
M  V30 848 C 82.1146 -2.91781 -3.07774 0
M  V30 849 N 82.5056 -4.15714 -2.88124 0
M  V30 850 C 80.8036 -2.89949 -3.38889 0
M  V30 851 C 81.5046 -4.965 -3.03088 0
M  V30 852 N 80.4806 -4.30083 -3.3246 0
M  V30 853 H 84.2826 -2.57204 -1.42208 0
M  V30 854 H 81.7966 -1.46719 -0.69623 0
M  V30 855 H 83.7936 -1.79732 -3.76168 0
M  V30 856 H 82.4536 -0.793024 -3.14867 0
M  V30 857 H 83.4646 -4.45515 -2.64077 0
M  V30 858 H 80.1416 -2.06987 -3.62578 0
M  V30 859 H 81.5316 -6.04991 -2.92294 0
M  V30 860 N 84.2517 0.741722 -1.39055 0
M  V30 861 C 85.2017 1.84661 -1.33732 0
M  V30 862 C 86.1857 1.59397 -0.219401 0
M  V30 863 O 87.3777 1.71015 -0.456375 0
M  V30 864 C 84.5067 3.22512 -1.17647 0
M  V30 865 C 83.5927 3.53628 -2.34112 0
M  V30 866 N 83.9837 3.55723 -3.59576 0
M  V30 867 C 82.2817 3.83956 -2.26923 0
M  V30 868 C 82.9827 3.84443 -4.36553 0
M  V30 869 N 81.9587 4.01877 -3.66055 0
M  V30 870 H 85.7607 1.84576 -2.28711 0
M  V30 871 H 83.2747 0.939647 -1.32455 0
M  V30 872 H 85.2717 4.01597 -1.11917 0
M  V30 873 H 83.9317 3.2384 -0.236124 0
M  V30 874 H 84.9427 3.37196 -3.93089 0
M  V30 875 H 81.6197 3.92929 -1.41113 0
M  V30 876 H 83.0097 3.92588 -5.45274 0
M  V30 877 N 85.7298 1.2412 0.971189 0
M  V30 878 C 87.1408 1.07236 1.52831 0
M  V30 879 C 87.4918 -0.357352 1.92918 0
M  V30 880 O 86.6168 -1.24528 1.76979 0
M  V30 881 C 87.2118 1.94043 2.77728 0
M  V30 882 C 85.7708 1.81394 3.29808 0
M  V30 883 C 84.9178 1.89189 2.02738 0
M  V30 884 H 87.8688 1.37648 0.789864 0
M  V30 885 H 87.8898 1.47066 3.5093 0
M  V30 886 H 87.4018 2.98093 2.4852 0
M  V30 887 H 85.5028 0.801634 3.63874 0
M  V30 888 H 85.6158 2.65294 3.98944 0
M  V30 889 H 83.9798 1.32877 2.17292 0
M  V30 890 H 84.7628 2.94812 1.759 0
M  V30 891 N 87.2079 -1.17134 1.05439 0
M  V30 892 C 88.4539 -1.87733 0.767077 0
M  V30 893 C 88.7869 -1.8098 -0.704253 0
M  V30 894 O 88.0619 -1.21951 -1.5152 0
M  V30 895 C 88.3449 -3.37659 1.25133 0
M  V30 896 C 88.1979 -3.53149 2.78578 0
M  V30 897 C 89.5169 -4.31768 0.852324 0
M  V30 898 H 86.6359 -0.681687 0.280129 0
M  V30 899 H 89.2779 -1.37732 1.30881 0
M  V30 900 H 87.4279 -3.80373 0.790469 0
M  V30 901 H 89.0999 -3.19434 3.32806 0
M  V30 902 H 87.3429 -2.95345 3.17732 0
M  V30 903 H 88.0139 -4.58403 3.07523 0
M  V30 904 H 90.4899 -3.96909 1.24911 0
M  V30 905 H 89.3659 -5.35199 1.21873 0
M  V30 906 H 89.6269 -4.41429 -0.243485 0
M  V30 907 N 88.686 -0.835752 -1.33615 0
M  V30 908 C 89.634 -0.255238 -2.31195 0
M  V30 909 C 90.628 0.61107 -1.57995 0
M  V30 910 O 91.834 0.500979 -1.72888 0
M  V30 911 H 88.209 -0.0638085 -0.749288 0
M  V30 912 H 90.18 -1.09283 -2.77669 0
M  V30 913 C 88.929 0.55754 -3.43201 0
M  V30 914 H 88.252 -0.0997553 -3.99676 0
M  V30 915 H 89.692 0.929622 -4.13683 0
M  V30 916 C 88.151 1.73515 -2.88781 0
M  V30 917 O 88.681 2.83376 -2.84712 0
M  V30 918 N 86.887 1.55603 -2.4543 0
M  V30 919 H 86.434 0.662354 -2.48939 0
M  V30 920 H 86.392 2.34545 -2.09371 0
M  V30 921 N 90.1641 1.46063 -0.591896 0
M  V30 922 C 91.4121 2.01938 -0.0808391 0
M  V30 923 C 91.7331 1.46475 1.28725 0
M  V30 924 O 91.0031 0.652944 1.84698 0
M  V30 925 H 89.5831 0.746516 -0.0268938 0
M  V30 926 H 92.2451 1.79055 -0.769752 0
M  V30 927 H 91.3411 3.12094 -0.0187578 0
M  V30 928 N 91.6422 0.330177 1.54103 0
M  V30 929 C 92.5892 -0.532762 2.24567 0
M  V30 930 C 93.5592 -1.10635 1.23892 0
M  V30 931 O 94.7442 -1.14546 1.5259 0
M  V30 932 C 91.8842 -1.6845 3.01195 0
M  V30 933 C 90.9972 -1.13951 4.167 0
M  V30 934 C 90.1322 -2.25746 4.80845 0
M  V30 935 C 89.1712 -1.6853 5.88442 0
M  V30 936 N 88.3082 -2.74014 6.46421 0
M  V30 937 H 93.1482 0.0746905 2.97906 0
M  V30 938 H 90.6852 0.048632 1.4702 0
M  V30 939 H 92.6432 -2.36234 3.43874 0
M  V30 940 H 91.2732 -2.26314 2.30178 0
M  V30 941 H 90.3252 -0.35301 3.78758 0
M  V30 942 H 91.6372 -0.680892 4.94131 0
M  V30 943 H 90.7912 -3.01422 5.26526 0
M  V30 944 H 89.5302 -2.74947 4.0281 0
M  V30 945 H 88.5352 -0.913543 5.42157 0
M  V30 946 H 89.7602 -1.20198 6.68378 0
M  V30 947 H 87.7062 -3.22494 5.71256 0
M  V30 948 H 87.6232 -2.32735 7.19285 0
M  V30 949 H 88.8912 -3.49499 6.96757 0
M  V30 950 N 93.1203 -1.57491 0.0584922 0
M  V30 951 C 94.0303 -2.15448 -0.928414 0
M  V30 952 C 95.0463 -1.11416 -1.3365 0
M  V30 953 O 96.2223 -1.4362 -1.41193 0
M  V30 954 C 93.2873 -2.69393 -2.18239 0
M  V30 955 C 92.3483 -3.88249 -1.83196 0
M  V30 956 C 91.5813 -4.39613 -3.02616 0
M  V30 957 O 91.8043 -3.90023 -4.16219 0
M  V30 958 O 90.7383 -5.31111 -2.83204 0
M  V30 959 H 94.5643 -3.00112 -0.465483 0
M  V30 960 H 92.1493 -1.48499 -0.163826 0
M  V30 961 H 94.0313 -3.04026 -2.91798 0
M  V30 962 H 92.7063 -1.87796 -2.63656 0
M  V30 963 H 91.6133 -3.58492 -1.06931 0
M  V30 964 H 92.9463 -4.71098 -1.42573 0
M  V30 965 N 94.5984 0.214957 -1.56127 0
M  V30 966 C 95.8754 0.963093 -1.70247 0
M  V30 967 C 96.2554 2.02166 -0.60764 0
M  V30 968 O 95.6034 2.25244 0.384385 0
M  V30 969 C 95.8134 1.56756 -3.11815 0
M  V30 970 C 97.1614 2.0573 -3.7143 0
M  V30 971 O 98.1854 1.66637 -3.14818 0
M  V30 972 O 97.0444 2.77603 -4.70743 0
M  V30 973 H 94.1384 0.450321 -0.693643 0
M  V30 974 H 96.6844 0.206219 -1.68442 0
M  V30 975 H 95.4564 0.803533 -3.82961 0
M  V30 976 H 95.0794 2.3898 -3.17765 0
M  V30 977 N 96.0765 1.50051 0.48192 0
M  V30 978 C 97.3065 1.63999 1.2565 0
M  V30 979 C 97.7145 0.318288 1.86504 0
M  V30 980 O 97.0575 -0.708534 1.69486 0
M  V30 981 C 97.1195 2.66504 2.4128 0
M  V30 982 C 96.7835 4.10352 2.01148 0
M  V30 983 C 97.7805 4.96562 1.54021 0
M  V30 984 C 95.4655 4.56203 2.10199 0
M  V30 985 C 97.4595 6.26668 1.16473 0
M  V30 986 C 95.1465 5.86318 1.72264 0
M  V30 987 C 96.1445 6.71375 1.25477 0
M  V30 988 O 95.8325 7.99062 0.880626 0
M  V30 989 H 95.5645 0.55456 0.386574 0
M  V30 990 H 98.1185 1.96954 0.582944 0
M  V30 991 H 96.3485 2.28769 3.11772 0
M  V30 992 H 98.0375 2.69783 3.03268 0
M  V30 993 H 98.8035 4.62358 1.46458 0
M  V30 994 H 94.6825 3.90152 2.45566 0
M  V30 995 H 98.2265 6.93011 0.798841 0
M  V30 996 H 94.1235 6.20046 1.79482 0
M  V30 997 H 94.8915 8.12239 1.01043 0
M  V30 998 N 97.5546 -0.734337 1.39446 0
M  V30 999 C 98.4866 -1.85861 1.34121 0
M  V30 1000 C 99.4996 -1.60871 0.249864 0
M  V30 1001 O 100.689 -1.71093 0.508865 0
M  V30 1002 C 97.7886 -3.21899 1.05991 0
M  V30 1003 C 96.9616 -3.74239 2.26415 0
M  V30 1004 C 96.0206 -4.88841 1.94733 0
M  V30 1005 O 95.0466 -5.02468 2.67422 0
M  V30 1006 N 96.2486 -5.73261 0.913884 0
M  V30 1007 H 99.0136 -1.90934 2.31007 0
M  V30 1008 H 96.5746 -0.915102 1.33557 0
M  V30 1009 H 98.5666 -3.96136 0.828147 0
M  V30 1010 H 97.1366 -3.12091 0.178361 0
M  V30 1011 H 96.3566 -2.91347 2.65539 0
M  V30 1012 H 97.6446 -4.05942 3.06738 0
M  V30 1013 H 97.0426 -5.64842 0.311476 0
M  V30 1014 H 95.5996 -6.47563 0.742015 0
M  V30 1015 N 99.0327 -1.24633 -0.964593 0
M  V30 1016 C 99.9797 -1.04144 -2.05968 0
M  V30 1017 C 100.95 0.046262 -1.66036 0
M  V30 1018 O 102.135 -0.108972 -1.90489 0
M  V30 1019 C 99.2747 -0.65563 -3.38815 0
M  V30 1020 C 98.3877 -1.81714 -3.91923 0
M  V30 1021 C 97.5227 -1.37662 -5.13052 0
M  V30 1022 C 96.5617 -2.50788 -5.58365 0
M  V30 1023 N 95.6987 -2.07582 -6.70712 0
M  V30 1024 H 100.539 -1.9787 -2.22827 0
M  V30 1025 H 98.0757 -0.9855 -1.09208 0
M  V30 1026 H 100.034 -0.412954 -4.15151 0
M  V30 1027 H 98.6637 0.244627 -3.21872 0
M  V30 1028 H 97.7157 -2.1734 -3.12198 0
M  V30 1029 H 99.0277 -2.66705 -4.21509 0
M  V30 1030 H 98.1817 -1.093 -5.96773 0
M  V30 1031 H 96.9207 -0.497293 -4.85158 0
M  V30 1032 H 95.9257 -2.79906 -4.73215 0
M  V30 1033 H 97.1507 -3.39283 -5.88272 0
M  V30 1034 H 95.0967 -1.22051 -6.44546 0
M  V30 1035 H 95.0137 -2.86125 -6.99763 0
M  V30 1036 H 96.2817 -1.82369 -7.57867 0
M  V30 1037 N 100.511 1.16574 -1.06058 0
M  V30 1038 C 101.751 1.88723 -0.78504 0
M  V30 1039 C 102.115 1.79706 0.676006 0
M  V30 1040 O 103.316 2.46757 1.06603 0
M  V30 1041 C 101.587 3.34338 -1.26304 0
M  V30 1042 S 103.146 4.24366 -1.1162 0
M  V30 1043 H 99.9638 0.651448 -0.284846 0
M  V30 1044 H 102.566 1.40732 -1.35701 0
M  V30 1045 H 101.27 3.38439 -2.32136 0
M  V30 1046 H 100.801 3.87378 -0.685719 0
M  V30 1047 H 102.816 4.96179 -0.0456539 0
M  V30 1048 N 101.989 0.842826 1.3317 0
M  V30 1049 C 102.952 0.284065 2.27433 0
M  V30 1050 C 103.952 -0.54948 1.5112 0
M  V30 1051 O 105.142 -0.362699 1.70382 0
M  V30 1052 C 102.274 -0.599384 3.35589 0
M  V30 1053 H 103.467 1.11589 2.78366 0
M  V30 1054 H 101.02 0.616221 1.4364 0
M  V30 1055 H 101.755 -1.45349 2.89904 0
M  V30 1056 H 101.54 -0.00291266 3.921 0
M  V30 1057 H 103.03 -0.983488 4.05854 0
M  V30 1058 N 103.467 -1.45747 0.599634 0
M  V30 1059 C 104.695 -2.06668 0.0978551 0
M  V30 1060 C 105.11 -1.44562 -1.21439 0
M  V30 1061 O 104.467 -0.556923 -1.73795 0
M  V30 1062 C 104.518 -3.61456 -0.0567044 0
M  V30 1063 O 104.239 -4.21242 1.20361 0
M  V30 1064 C 105.74 -4.39345 -0.590869 0
M  V30 1065 H 102.96 -0.667825 0.0651943 0
M  V30 1066 H 105.504 -1.87115 0.82511 0
M  V30 1067 H 103.659 -3.80378 -0.734251 0
M  V30 1068 H 104.073 -5.14323 1.02821 0
M  V30 1069 H 105.547 -5.48182 -0.648131 0
M  V30 1070 H 106.024 -4.08568 -1.61147 0
M  V30 1071 H 106.63 -4.25268 0.0523679 0
M  V30 1072 N 104.945 -0.338344 -1.53925 0
M  V30 1073 C 105.908 0.508299 -2.23493 0
M  V30 1074 C 106.908 1.03175 -1.23335 0
M  V30 1075 O 108.098 0.921826 -1.47811 0
M  V30 1076 C 105.23 1.70754 -2.95052 0
M  V30 1077 H 106.423 -0.100058 -2.99733 0
M  V30 1078 H 103.976 -0.0896198 -1.56043 0
M  V30 1079 H 104.711 2.35474 -2.22986 0
M  V30 1080 H 104.496 1.33946 -3.68512 0
M  V30 1081 H 105.986 2.30818 -3.48013 0
M  V30 1082 N 106.423 1.57458 -0.0668435 0
M  V30 1083 C 107.671 1.92919 0.602214 0
M  V30 1084 C 107.992 0.947215 1.70449 0
M  V30 1085 O 107.262 -0.00544117 1.95899 0
M  V30 1086 H 105.842 0.71217 0.22544 0
M  V30 1087 H 108.504 1.94508 -0.123535 0
M  V30 1088 H 107.6 2.94589 1.03073 0
M  V30 1089 N 107.901 -0.206675 1.56239 0
M  V30 1090 C 109.141 -0.93574 1.81723 0
M  V30 1091 C 109.505 -1.80927 0.642609 0
M  V30 1092 O 110.706 -2.57323 0.777081 0
M  V30 1093 C 108.977 -1.74012 3.12177 0
M  V30 1094 S 110.536 -2.52279 3.59028 0
M  V30 1095 H 107.354 -0.314065 0.637875 0
M  V30 1096 H 109.956 -0.200071 1.94474 0
M  V30 1097 H 108.66 -1.0888 3.95693 0
M  V30 1098 H 108.191 -2.51782 3.02274 0
M  V30 1099 H 110.206 -3.76209 3.23545 0
M  V30 1100 N 109.379 -1.50304 -0.473955 0
M  V30 1101 C 110.329 -1.65347 -1.56985 0
M  V30 1102 C 111.313 -0.508176 -1.52664 0
M  V30 1103 O 112.505 -0.762446 -1.59737 0
M  V30 1104 C 109.634 -1.74832 -2.95447 0
M  V30 1105 C 108.72 -2.95028 -3.04662 0
M  V30 1106 N 109.111 -4.18747 -2.83698 0
M  V30 1107 C 107.409 -2.93527 -3.35795 0
M  V30 1108 C 108.11 -4.99687 -2.97805 0
M  V30 1109 N 107.086 -4.33585 -3.2788 0
M  V30 1110 H 110.888 -2.58698 -1.39472 0
M  V30 1111 H 108.402 -1.47449 -0.680629 0
M  V30 1112 H 110.399 -1.83712 -3.7424 0
M  V30 1113 H 109.059 -0.826376 -3.14008 0
M  V30 1114 H 110.07 -4.48291 -2.59337 0
M  V30 1115 H 106.747 -2.10821 -3.60362 0
M  V30 1116 H 108.137 -6.08057 -2.85861 0
M  V30 1117 N 110.857 0.726932 -1.39834 0
M  V30 1118 C 112.134 1.47902 -1.28001 0
M  V30 1119 C 112.514 2.1083 0.106789 0
M  V30 1120 O 111.862 1.99242 1.11869 0
M  V30 1121 C 112.072 2.52392 -2.41038 0
M  V30 1122 C 113.42 3.18546 -2.80737 0
M  V30 1123 O 114.444 2.62708 -2.40547 0
M  V30 1124 O 113.303 4.19604 -3.50135 0
M  V30 1125 H 110.397 0.657163 -0.502062 0
M  V30 1126 H 112.943 0.760071 -1.51727 0
M  V30 1127 H 111.715 2.04329 -3.33715 0
M  V30 1128 H 111.338 3.31837 -2.19021 0
M  V30 1129 N 112.336 1.25143 0.95797 0
M  V30 1130 C 113.284 1.05019 2.07542 0
M  V30 1131 C 114.278 -0.0178751 1.69391 0
M  V30 1132 O 115.484 0.137472 1.79474 0
M  V30 1133 H 111.859 0.32265 0.679265 0
M  V30 1134 H 113.83 1.99759 2.21673 0
M  V30 1135 C 112.579 0.682074 3.40944 0
M  V30 1136 H 111.902 1.49573 3.70767 0
M  V30 1137 H 113.342 0.580945 4.20001 0
M  V30 1138 C 111.801 -0.611608 3.31302 0
M  V30 1139 O 112.331 -1.65465 3.66038 0
M  V30 1140 N 110.537 -0.595982 2.84423 0
M  V30 1141 H 110.084 0.253192 2.56353 0
M  V30 1142 H 110.042 -1.46173 2.78354 0
M  V30 1143 N 113.814 -1.1601 1.06675 0
M  V30 1144 C 114.747 -2.1947 0.625168 0
M  V30 1145 C 115.725 -1.58699 -0.354041 0
M  V30 1146 O 116.909 -1.86669 -0.262098 0
M  V30 1147 C 114.036 -3.38598 -0.0829593 0
M  V30 1148 C 113.082 -4.1787 0.853611 0
M  V30 1149 S 113.915 -4.81135 2.35094 0
M  V30 1150 C 115.071 -6.03639 1.65441 0
M  V30 1151 H 115.304 -2.56587 1.50168 0
M  V30 1152 H 112.837 -1.26862 0.880078 0
M  V30 1153 H 114.795 -4.07621 -0.485288 0
M  V30 1154 H 113.456 -2.99839 -0.935716 0
M  V30 1155 H 112.649 -5.03078 0.304755 0
M  V30 1156 H 112.251 -3.54361 1.196 0
M  V30 1157 H 114.543 -6.70632 0.962201 0
M  V30 1158 H 115.486 -6.63081 2.48454 0
M  V30 1159 H 115.894 -5.52965 1.13534 0
M  V30 1160 N 115.292 -0.849877 -1.32721 0
M  V30 1161 C 116.569 -0.372405 -1.92022 0
M  V30 1162 C 116.949 1.1435 -1.77447 0
M  V30 1163 O 116.297 1.96296 -1.16962 0
M  V30 1164 C 116.507 -0.831482 -3.3895 0
M  V30 1165 C 117.855 -0.845882 -4.16089 0
M  V30 1166 O 118.879 -0.775806 -3.47649 0
M  V30 1167 O 117.738 -0.943753 -5.38289 0
M  V30 1168 H 114.832 -0.107667 -0.819961 0
M  V30 1169 H 117.378 -0.93646 -1.41522 0
M  V30 1170 H 116.15 -1.87448 -3.4348 0
M  V30 1171 H 115.773 -0.24461 -3.96847 0
M  V30 1172 N 116.77 1.45427 -0.607355 0
M  V30 1173 C 117.717 2.3053 0.111625 0
M  V30 1174 C 118.687 1.4209 0.860216 0
M  V30 1175 O 119.872 1.71019 0.845998 0
M  V30 1176 C 117.012 3.26992 1.10319 0
M  V30 1177 C 116.125 4.30535 0.355493 0
M  V30 1178 C 115.26 5.14105 1.33676 0
M  V30 1179 C 114.299 6.09376 0.576862 0
M  V30 1180 N 113.436 6.85727 1.5074 0
M  V30 1181 H 118.276 2.91477 -0.620093 0
M  V30 1182 H 115.813 1.43631 -0.317594 0
M  V30 1183 H 117.771 3.81385 1.6912 0
M  V30 1184 H 116.401 2.67799 1.80232 0
M  V30 1185 H 115.453 3.78805 -0.348023 0
M  V30 1186 H 116.765 4.98235 -0.237423 0
M  V30 1187 H 115.919 5.72897 1.99684 0
M  V30 1188 H 114.658 4.46423 1.9636 0
M  V30 1189 H 113.663 5.49715 -0.0968519 0
M  V30 1190 H 114.888 6.79085 -0.0449341 0
M  V30 1191 H 112.834 6.20735 2.12189 0
M  V30 1192 H 112.751 7.49778 0.967913 0
M  V30 1193 H 114.019 7.4906 2.15706 0
M  V30 1194 N 118.248 0.346503 1.53744 0
M  V30 1195 C 119.195 -0.508914 2.25119 0
M  V30 1196 C 120.165 -1.09315 1.25058 0
M  V30 1197 O 121.35 -1.12921 1.53797 0
M  V30 1198 C 118.49 -1.65246 3.02965 0
M  V30 1199 C 117.603 -1.09525 4.17886 0
M  V30 1200 C 116.738 -2.20634 4.83212 0
M  V30 1201 C 115.777 -1.62279 5.90196 0
M  V30 1202 N 114.914 -2.67143 6.49291 0
M  V30 1203 H 119.754 0.106283 2.9781 0
M  V30 1204 H 117.291 0.0642227 1.4696 0
M  V30 1205 H 119.249 -2.32574 3.4636 0
M  V30 1206 H 117.879 -2.2386 2.32565 0
M  V30 1207 H 116.931 -0.312818 3.79112 0
M  V30 1208 H 118.243 -0.628444 4.94825 0
M  V30 1209 H 117.397 -2.95821 5.29693 0
M  V30 1210 H 116.136 -2.70659 4.05703 0
M  V30 1211 H 115.141 -0.855989 5.43096 0
M  V30 1212 H 116.366 -1.13102 6.69615 0
M  V30 1213 H 114.312 -3.16417 5.74645 0
M  V30 1214 H 114.229 -2.25093 7.21713 0
M  V30 1215 H 115.497 -3.4209 7.00425 0
M  V30 1216 N 119.726 -1.57421 0.075193 0
M  V30 1217 C 121.003 -1.85029 -0.634329 0
M  V30 1218 C 121.383 -0.968305 -1.87582 0
M  V30 1219 O 120.731 -0.0354749 -2.28472 0
M  V30 1220 C 120.941 -3.35286 -0.968742 0
M  V30 1221 C 122.289 -4.02875 -1.34077 0
M  V30 1222 O 123.313 -3.40051 -1.06037 0
M  V30 1223 O 122.172 -5.13691 -1.86506 0
M  V30 1224 H 119.266 -0.7645 -0.315387 0
M  V30 1225 H 121.812 -1.69366 0.106382 0
M  V30 1226 H 120.584 -3.91203 -0.0871376 0
M  V30 1227 H 120.207 -3.56223 -1.7661 0
M  V30 1228 N 121.204 0.198386 -1.56346 0
M  V30 1229 C 122.151 1.24589 -1.94284 0
M  V30 1230 C 123.121 1.454 -0.802997 0
M  V30 1231 O 124.306 1.58588 -1.06087 0
M  V30 1232 C 121.446 2.58631 -2.28482 0
M  V30 1233 C 120.559 2.45426 -3.55514 0
M  V30 1234 C 119.694 3.7215 -3.79049 0
M  V30 1235 C 118.733 3.53763 -4.99518 0
M  V30 1236 N 117.87 4.72491 -5.19323 0
M  V30 1237 H 122.71 0.915356 -2.83593 0
M  V30 1238 H 120.247 0.440629 -1.40346 0
M  V30 1239 H 122.205 3.3672 -2.46324 0
M  V30 1240 H 120.835 2.89734 -1.42317 0
M  V30 1241 H 119.887 1.58652 -3.45737 0
M  V30 1242 H 121.199 2.27772 -4.43758 0
M  V30 1243 H 120.353 4.58679 -3.97113 0
M  V30 1244 H 119.092 3.92754 -2.89129 0
M  V30 1245 H 118.097 2.65619 -4.8138 0
M  V30 1246 H 119.322 3.34607 -5.90944 0
M  V30 1247 H 117.268 4.93365 -4.3235 0
M  V30 1248 H 117.185 4.5765 -6.01741 0
M  V30 1249 H 118.453 5.6038 -5.41843 0
M  V30 1250 N 122.682 1.50554 0.465978 0
M  V30 1251 C 123.907 1.65838 1.24549 0
M  V30 1252 C 124.332 0.343486 1.84937 0
M  V30 1253 O 123.69 -0.69324 1.67523 0
M  V30 1254 C 123.738 2.75533 2.32624 0
M  V30 1255 O 122.842 2.37142 3.37398 0
M  V30 1256 H 122.183 0.553893 0.366194 0
M  V30 1257 H 124.713 1.96959 0.553927 0
M  V30 1258 H 124.723 2.98763 2.77857 0
M  V30 1259 H 123.398 3.70962 1.88043 0
M  V30 1260 H 121.975 2.24377 2.97841 0
M  V30 1261 N 124.16 -0.719506 1.40217 0
M  V30 1262 C 125.123 -1.8153 1.39927 0
M  V30 1263 C 126.123 -1.58095 0.293723 0
M  V30 1264 O 127.313 -1.65209 0.552429 0
M  V30 1265 C 124.445 -3.19561 1.18716 0
M  V30 1266 H 125.638 -1.83186 2.37451 0
M  V30 1267 H 123.191 -0.924746 1.26008 0
M  V30 1268 H 123.926 -3.23557 0.219366 0
M  V30 1269 H 123.711 -3.3797 1.98793 0
M  V30 1270 H 125.201 -3.99598 1.21291 0
M  V30 1271 N 125.638 -1.25649 -0.95132 0
M  V30 1272 C 126.585 -1.06323 -2.04851 0
M  V30 1273 C 127.555 0.0286491 -1.66075 0
M  V30 1274 O 128.74 -0.12917 -1.90362 0
M  V30 1275 C 125.88 -0.691529 -3.381 0
M  V30 1276 C 124.993 -1.85861 -3.89974 0
M  V30 1277 C 124.128 -1.43096 -5.11563 0
M  V30 1278 C 123.167 -2.56696 -5.55674 0
M  V30 1279 N 122.304 -2.14684 -6.68472 0
M  V30 1280 H 127.144 -2.00222 -2.20715 0
M  V30 1281 H 124.681 -0.997027 -1.08156 0
M  V30 1282 H 126.639 -0.456963 -4.1469 0
M  V30 1283 H 125.269 0.210474 -3.22113 0
M  V30 1284 H 124.321 -2.20639 -3.09875 0
M  V30 1285 H 125.633 -2.71161 -4.18657 0
M  V30 1286 H 124.787 -1.15624 -5.9558 0
M  V30 1287 H 123.526 -0.548722 -4.84603 0
M  V30 1288 H 122.531 -2.84909 -4.7022 0
M  V30 1289 H 123.756 -3.45503 -5.8464 0
M  V30 1290 H 121.702 -1.28881 -6.43215 0
M  V30 1291 H 121.619 -2.9353 -6.96689 0
M  V30 1292 H 122.887 -1.90397 -7.5589 0
M  V30 1293 N 127.117 1.15442 -1.07289 0
M  V30 1294 C 128.365 1.85845 -0.794096 0
M  V30 1295 C 128.686 1.82692 0.681809 0
M  V30 1296 O 127.956 1.26741 1.49377 0
M  V30 1297 H 126.536 0.688089 -0.290763 0
M  V30 1298 H 129.198 1.39947 -1.3565 0
M  V30 1299 H 128.294 2.91001 -1.12804 0
M  V30 1300 N 128.595 0.856903 1.32268 0
M  V30 1301 C 129.825 0.47475 2.01071 0
M  V30 1302 C 130.233 -0.933746 1.64553 0
M  V30 1303 O 129.576 -1.62114 0.863989 0
M  V30 1304 C 129.638 0.536746 3.55471 0
M  V30 1305 C 129.302 1.90453 4.15423 0
M  V30 1306 C 130.299 2.87029 4.33486 0
M  V30 1307 C 127.984 2.20229 4.51447 0
M  V30 1308 C 129.978 4.11532 4.86744 0
M  V30 1309 C 127.665 3.44984 5.0441 0
M  V30 1310 C 128.663 4.40452 5.22007 0
M  V30 1311 O 128.351 5.62998 5.73837 0
M  V30 1312 H 128.083 0.184778 0.650256 0
M  V30 1313 H 130.637 1.15615 1.69771 0
M  V30 1314 H 128.867 -0.20152 3.86175 0
M  V30 1315 H 130.556 0.169875 4.05544 0
M  V30 1316 H 131.322 2.6533 4.05986 0
M  V30 1317 H 127.201 1.46705 4.37034 0
M  V30 1318 H 130.745 4.86056 5.00395 0
M  V30 1319 H 126.642 3.66532 5.31342 0
M  V30 1320 H 127.41 5.64987 5.92226 0
M  V30 1321 N 130.073 -1.45103 0.615059 0
M  V30 1322 C 131.303 -2.06254 0.119596 0
M  V30 1323 C 131.711 -1.4591 -1.20445 0
M  V30 1324 O 131.054 -0.570384 -1.7462 0
M  V30 1325 C 131.116 -3.59396 -0.0865591 0
M  V30 1326 C 130.78 -4.42116 1.15683 0
M  V30 1327 C 131.777 -4.7662 2.07676 0
M  V30 1328 C 129.462 -4.82749 1.38775 0
M  V30 1329 C 131.456 -5.50622 3.21082 0
M  V30 1330 C 129.143 -5.56504 2.52481 0
M  V30 1331 C 130.141 -5.90358 3.43463 0
M  V30 1332 O 129.829 -6.62615 4.55189 0
M  V30 1333 H 129.561 -0.672423 0.0694512 0
M  V30 1334 H 132.115 -1.87219 0.844885 0
M  V30 1335 H 130.345 -3.76859 -0.866823 0
M  V30 1336 H 132.034 -4.02365 -0.534555 0
M  V30 1337 H 132.8 -4.4578 1.91063 0
M  V30 1338 H 128.679 -4.55829 0.688545 0
M  V30 1339 H 132.223 -5.76965 3.92119 0
M  V30 1340 H 128.12 -5.86759 2.69043 0
M  V30 1341 H 128.888 -6.81071 4.53966 0
M  V30 1342 N 131.551 -0.354651 -1.53558 0
M  V30 1343 C 132.501 0.513179 -2.2215 0
M  V30 1344 C 133.485 1.05734 -1.21281 0
M  V30 1345 O 134.677 0.989202 -1.46778 0
M  V30 1346 C 131.806 1.65798 -3.00609 0
M  V30 1347 C 130.892 1.12722 -4.08845 0
M  V30 1348 N 131.283 0.318563 -5.04796 0
M  V30 1349 C 129.581 1.40307 -4.23356 0
M  V30 1350 C 130.282 0.0292224 -5.81693 0
M  V30 1351 N 129.258 0.623891 -5.40008 0
M  V30 1352 H 133.06 -0.111586 -2.93688 0
M  V30 1353 H 130.574 -0.162091 -1.61589 0
M  V30 1354 H 132.571 2.29176 -3.48258 0
M  V30 1355 H 131.231 2.28591 -2.306 0
M  V30 1356 H 132.242 -0.0413091 -5.17884 0
M  V30 1357 H 128.919 2.03458 -3.6457 0
M  V30 1358 H 130.309 -0.623808 -6.68998 0
M  V30 1359 N 133.029 1.57378 -0.0835403 0
M  V30 1360 C 133.992 2.12252 0.864959 0
M  V30 1361 C 134.992 1.04916 1.21858 0
M  V30 1362 O 136.182 1.30853 1.14991 0
M  V30 1363 C 133.314 2.63358 2.16461 0
M  V30 1364 H 134.507 2.97371 0.388676 0
M  V30 1365 H 132.06 1.55423 0.165317 0
M  V30 1366 H 132.795 1.81727 2.686 0
M  V30 1367 H 132.58 3.41826 1.92087 0
M  V30 1368 H 134.07 3.05847 2.84337 0
M  V30 1369 N 134.507 -0.190092 1.56449 0
M  V30 1370 C 135.44 -1.26375 1.90012 0
M  V30 1371 C 136.418 -1.43705 0.760765 0
M  V30 1372 O 137.602 -1.59014 1.01226 0
M  V30 1373 C 134.729 -2.62962 2.13468 0
M  V30 1374 C 133.775 -2.62474 3.36169 0
M  V30 1375 S 134.608 -2.13412 4.91137 0
M  V30 1376 C 135.764 -3.51812 5.17667 0
M  V30 1377 H 135.997 -0.977181 2.80782 0
M  V30 1378 H 133.53 -0.393814 1.49293 0
M  V30 1379 H 135.488 -3.41583 2.27664 0
M  V30 1380 H 134.149 -2.88828 1.23439 0
M  V30 1381 H 133.342 -3.62918 3.49723 0
M  V30 1382 H 132.944 -1.91937 3.20992 0
M  V30 1383 H 135.236 -4.47706 5.08494 0
M  V30 1384 H 136.179 -3.43148 6.19399 0
M  V30 1385 H 136.587 -3.46956 4.45288 0
M  V30 1386 N 135.985 -1.50799 -0.457987 0
M  V30 1387 C 136.935 -1.67003 -1.55222 0
M  V30 1388 C 137.919 -0.52434 -1.52117 0
M  V30 1389 O 139.111 -0.779345 -1.58919 0
M  V30 1390 C 136.24 -1.77956 -2.93576 0
M  V30 1391 C 135.326 -2.98243 -3.01516 0
M  V30 1392 N 135.717 -4.21732 -2.79241 0
M  V30 1393 C 134.015 -2.97072 -3.32662 0
M  V30 1394 C 134.716 -5.02817 -2.92489 0
M  V30 1395 N 133.692 -4.37038 -3.23262 0
M  V30 1396 H 137.494 -2.60163 -1.36721 0
M  V30 1397 H 135.008 -1.48163 -0.664952 0
M  V30 1398 H 137.005 -1.87671 -3.72271 0
M  V30 1399 H 135.665 -0.859634 -3.13114 0
M  V30 1400 H 136.676 -4.51016 -2.54567 0
M  V30 1401 H 133.353 -2.14631 -3.58106 0
M  V30 1402 H 134.743 -6.11054 -2.79396 0
M  V30 1403 N 137.463 0.71206 -1.40597 0
M  V30 1404 C 138.74 1.46536 -1.29563 0
M  V30 1405 C 139.12 2.10931 0.0844217 0
M  V30 1406 O 138.468 2.00418 1.0975 0
M  V30 1407 C 138.678 2.49821 -2.43701 0
M  V30 1408 C 140.026 3.15551 -2.841 0
M  V30 1409 O 141.05 2.60142 -2.4332 0
M  V30 1410 O 139.909 4.15867 -3.54566 0
M  V30 1411 H 137.003 0.651801 -0.509004 0
M  V30 1412 H 139.549 0.743935 -1.52524 0
M  V30 1413 H 138.321 2.00778 -3.35863 0
M  V30 1414 H 137.944 3.29495 -2.22528 0
M  V30 1415 N 138.941 1.26152 0.944643 0
M  V30 1416 C 139.888 1.07408 2.04285 0
M  V30 1417 C 140.858 -0.0198413 1.66088 0
M  V30 1418 O 142.043 0.139264 1.90291 0
M  V30 1419 C 139.183 0.70945 3.37729 0
M  V30 1420 C 138.296 1.87926 3.88983 0
M  V30 1421 C 137.431 1.45807 5.10797 0
M  V30 1422 C 136.47 2.5964 5.54305 0
M  V30 1423 N 135.607 2.18226 6.67324 0
M  V30 1424 H 140.447 2.01389 2.1965 0
M  V30 1425 H 137.984 1.00275 1.07626 0
M  V30 1426 H 139.942 0.478948 4.14442 0
M  V30 1427 H 138.572 -0.193389 3.2222 0
M  V30 1428 H 137.624 2.22279 3.08701 0
M  V30 1429 H 138.936 2.73377 4.17213 0
M  V30 1430 H 138.09 1.18781 5.94959 0
M  V30 1431 H 136.829 0.574414 4.84305 0
M  V30 1432 H 135.834 2.87399 4.68702 0
M  V30 1433 H 137.059 3.48599 5.828 0
M  V30 1434 H 135.005 1.3229 6.42523 0
M  V30 1435 H 134.922 2.97221 6.95123 0
M  V30 1436 H 136.19 1.94403 7.54869 0
M  V30 1437 N 140.419 -1.14872 1.07899 0
M  V30 1438 C 141.667 -1.85422 0.803941 0
M  V30 1439 C 141.988 -1.83051 -0.67211 0
M  V30 1440 O 141.258 -1.27532 -1.48703 0
M  V30 1441 H 139.838 -0.686537 0.294408 0
M  V30 1442 H 142.5 -1.39226 1.3639 0
M  V30 1443 H 141.596 -2.90399 1.14346 0
M  V30 1444 N 141.898 -0.863906 -1.31812 0
M  V30 1445 C 143.126 -0.486111 -2.01108 0
M  V30 1446 C 143.541 0.919755 -1.64882 0
M  V30 1447 O 142.898 1.60162 -0.874893 0
M  V30 1448 C 142.949 -0.626435 -3.56031 0
M  V30 1449 O 142.67 -1.97693 -3.90959 0
M  V30 1450 C 144.171 -0.248857 -4.42601 0
M  V30 1451 H 141.391 -0.190052 -0.643523 0
M  V30 1452 H 143.935 -1.1634 -1.68182 0
M  V30 1453 H 142.09 0.00322717 -3.874 0
M  V30 1454 H 142.504 -1.98034 -4.85678 0
M  V30 1455 H 143.978 -0.398016 -5.50563 0
M  V30 1456 H 144.455 0.811489 -4.31638 0
M  V30 1457 H 145.061 -0.853971 -4.16638 0
M  V30 1458 N 143.376 1.44774 -0.622745 0
M  V30 1459 C 144.323 2.30635 0.0871679 0
M  V30 1460 C 145.293 1.42994 0.845097 0
M  V30 1461 O 146.478 1.71907 0.827812 0
M  V30 1462 C 143.618 3.28144 1.06844 0
M  V30 1463 C 142.731 4.30888 0.309809 0
M  V30 1464 C 141.866 5.15494 1.28215 0
M  V30 1465 C 140.905 6.09953 0.512198 0
M  V30 1466 N 140.042 6.87287 1.43458 0
M  V30 1467 H 144.882 2.90803 -0.650974 0
M  V30 1468 H 142.419 1.43286 -0.33281 0
M  V30 1469 H 144.377 3.83157 1.65066 0
M  V30 1470 H 143.007 2.69695 1.77382 0
M  V30 1471 H 142.059 3.78414 -0.388181 0
M  V30 1472 H 143.371 4.97955 -0.290254 0
M  V30 1473 H 142.525 5.74983 1.93596 0
M  V30 1474 H 141.264 4.48481 1.91614 0
M  V30 1475 H 140.269 5.49581 -0.155151 0
M  V30 1476 H 141.494 6.78999 -0.116958 0
M  V30 1477 H 139.44 6.2295 2.05594 0
M  V30 1478 H 139.357 7.50763 0.888335 0
M  V30 1479 H 140.625 7.51306 2.07749 0
M  V30 1480 N 144.854 0.36279 1.53368 0
M  V30 1481 C 146.101 -0.227776 2.01215 0
M  V30 1482 C 146.429 -1.49003 1.25014 0
M  V30 1483 O 145.684 -1.92876 0.331236 0
M  V30 1484 C 145.983 -0.568417 3.52851 0
M  V30 1485 C 145.649 0.59918 4.46901 0
M  V30 1486 C 144.311 0.919559 4.72332 0
M  V30 1487 C 146.663 1.38156 5.02556 0
M  V30 1488 C 143.991 2.02434 5.5067 0
M  V30 1489 C 146.343 2.47674 5.821 0
M  V30 1490 C 145.007 2.8025 6.05819 0
M  V30 1491 H 144.277 -0.083349 0.736297 0
M  V30 1492 H 146.924 0.494677 1.85001 0
M  V30 1493 H 145.229 -1.37185 3.66998 0
M  V30 1494 H 146.926 -1.03756 3.87344 0
M  V30 1495 H 143.516 0.339437 4.27254 0
M  V30 1496 H 147.7 1.14729 4.82857 0
M  V30 1497 H 142.956 2.28075 5.67267 0
M  V30 1498 H 147.13 3.08716 6.24234 0
M  V30 1499 H 144.757 3.65979 6.66306 0
M  V30 1500 N 146.332 -1.57332 0.0918853 0
M  V30 1501 C 147.279 -2.13847 -0.868211 0
M  V30 1502 C 148.249 -1.05618 -1.28196 0
M  V30 1503 O 149.434 -1.33387 -1.36427 0
M  V30 1504 C 146.574 -2.72062 -2.12312 0
M  V30 1505 C 145.687 -3.94514 -1.7602 0
M  V30 1506 C 144.822 -4.40903 -2.96273 0
M  V30 1507 C 143.861 -5.55953 -2.56092 0
M  V30 1508 N 142.998 -5.97209 -3.69169 0
M  V30 1509 H 147.838 -2.95575 -0.379406 0
M  V30 1510 H 145.375 -1.46048 -0.175606 0
M  V30 1511 H 147.333 -3.03931 -2.858 0
M  V30 1512 H 145.963 -1.93068 -2.58698 0
M  V30 1513 H 145.015 -3.68979 -0.925135 0
M  V30 1514 H 146.327 -4.7802 -1.42472 0
M  V30 1515 H 145.481 -4.74539 -3.78018 0
M  V30 1516 H 144.22 -3.56291 -3.33029 0
M  V30 1517 H 143.225 -5.21948 -1.72773 0
M  V30 1518 H 144.45 -6.42311 -2.20484 0
M  V30 1519 H 142.396 -5.15543 -4.05649 0
M  V30 1520 H 142.313 -6.75504 -3.39456 0
M  V30 1521 H 143.581 -6.35475 -4.51434 0
M  V30 1522 N 147.81 0.181792 -1.56548 0
M  V30 1523 C 149.035 0.920019 -1.85877 0
M  V30 1524 C 149.46 1.75494 -0.677021 0
M  V30 1525 O 148.818 1.77399 0.374056 0
M  V30 1526 C 148.866 1.78112 -3.13542 0
M  V30 1527 O 147.97 2.88152 -2.95029 0
M  V30 1528 H 147.311 0.258334 -0.611686 0
M  V30 1529 H 149.841 0.183092 -2.03779 0
M  V30 1530 H 149.851 2.18314 -3.44678 0
M  V30 1531 H 148.526 1.16777 -3.99169 0
M  V30 1532 H 147.103 2.51609 -2.75222 0
M  V30 1533 N 149.288 1.51039 0.449983 0
M  V30 1534 C 150.528 1.64732 1.21007 0
M  V30 1535 C 150.892 0.349865 1.88785 0
M  V30 1536 O 152.093 0.362431 2.66345 0
M  V30 1537 C 150.364 2.80902 2.20973 0
M  V30 1538 S 151.923 3.14851 3.05638 0
M  V30 1539 H 148.741 0.5805 0.410538 0
M  V30 1540 H 151.343 1.88901 0.503634 0
M  V30 1541 H 150.047 3.73627 1.69796 0
M  V30 1542 H 149.578 2.58882 2.96215 0
M  V30 1543 H 151.593 2.60306 4.22439 0
M  V30 1544 N 150.766 -0.704594 1.40972 0
M  V30 1545 C 152.012 -1.46675 1.40051 0
M  V30 1546 C 152.345 -1.94199 0.00641102 0
M  V30 1547 O 151.62 -1.68916 -0.964235 0
M  V30 1548 C 151.903 -2.68505 2.39952 0
M  V30 1549 C 151.756 -2.26805 3.88432 0
M  V30 1550 C 153.075 -3.70686 2.37233 0
M  V30 1551 H 150.194 -0.532015 0.510028 0
M  V30 1552 H 152.836 -0.803255 1.72185 0
M  V30 1553 H 150.986 -3.25114 2.1268 0
M  V30 1554 H 152.658 -1.75592 4.26574 0
M  V30 1555 H 150.901 -1.58685 4.03734 0
M  V30 1556 H 151.572 -3.14181 4.53866 0
M  V30 1557 H 154.048 -3.23731 2.61415 0
M  V30 1558 H 152.924 -4.53553 3.09162 0
M  V30 1559 H 153.185 -4.19754 1.38777 0
M  V30 1560 N 152.244 -1.26651 -0.937939 0
M  V30 1561 C 153.492 -1.12165 -1.68118 0
M  V30 1562 C 153.813 0.334983 -1.92101 0
M  V30 1563 O 153.083 1.23583 -1.52 0
M  V30 1564 H 151.663 -0.412093 -0.623048 0
M  V30 1565 H 154.325 -1.59027 -1.12678 0
M  V30 1566 H 153.421 -1.64289 -2.6536 0
M  V30 1567 N 153.722 1.14298 -1.08507 0
M  V30 1568 C 154.962 1.87016 -0.824894 0
M  V30 1569 C 155.326 1.81099 0.637735 0
M  V30 1570 O 156.527 2.48963 1.01345 0
M  V30 1571 C 154.798 3.31584 -1.33368 0
M  V30 1572 S 156.357 4.21903 -1.20596 0
M  V30 1573 H 153.175 0.645259 -0.2986 0
M  V30 1574 H 155.777 1.37822 -1.38656 0
M  V30 1575 H 154.481 3.33439 -2.39262 0
M  V30 1576 H 154.012 3.85836 -0.767734 0
M  V30 1577 H 156.027 4.95971 -0.150891 0
M  V30 1578 N 155.201 0.870884 1.31352 0
M  V30 1579 C 156.151 0.298889 2.26032 0
M  V30 1580 C 157.135 -0.564595 1.50669 0
M  V30 1581 O 158.327 -0.411323 1.72154 0
M  V30 1582 C 155.456 -0.497842 3.39671 0
M  V30 1583 C 154.542 0.378937 4.22404 0
M  V30 1584 N 154.933 1.47284 4.83881 0
M  V30 1585 C 153.231 0.171535 4.4567 0
M  V30 1586 C 153.932 2.01359 5.45738 0
M  V30 1587 N 152.908 1.31047 5.27568 0
M  V30 1588 H 156.71 1.13494 2.71102 0
M  V30 1589 H 154.224 0.718745 1.45629 0
M  V30 1590 H 156.221 -0.924155 4.06528 0
M  V30 1591 H 154.881 -1.33149 2.96144 0
M  V30 1592 H 155.892 1.85575 4.8351 0
M  V30 1593 H 152.569 -0.626091 4.12779 0
M  V30 1594 H 153.959 2.93143 6.0458 0
M  V30 1595 N 156.679 -1.44442 0.630414 0
M  V30 1596 C 157.609 -2.33418 -0.0618083 0
M  V30 1597 C 158.59 -1.48165 -0.835541 0
M  V30 1598 O 159.775 -1.76886 -0.801564 0
M  V30 1599 C 156.905 -3.31222 -1.04449 0
M  V30 1600 C 155.859 -4.26288 -0.382436 0
M  V30 1601 C 155.185 -5.13954 -1.47497 0
M  V30 1602 C 156.485 -5.1744 0.710865 0
M  V30 1603 H 158.179 -2.91548 0.681184 0
M  V30 1604 H 155.725 -1.40191 0.329026 0
M  V30 1605 H 157.678 -3.92351 -1.53748 0
M  V30 1606 H 156.402 -2.71299 -1.81836 0
M  V30 1607 H 155.061 -3.6649 0.0899054 0
M  V30 1608 H 154.709 -4.50385 -2.2397 0
M  V30 1609 H 154.409 -5.7837 -1.03737 0
M  V30 1610 H 155.933 -5.77955 -1.96979 0
M  V30 1611 H 157.347 -5.72509 0.300996 0
M  V30 1612 H 155.744 -5.90455 1.07156 0
M  V30 1613 H 156.814 -4.58496 1.57829 0
M  V30 1614 N 158.157 -0.370918 -1.53173 0
M  V30 1615 C 159.067 0.480823 -2.2962 0
M  V30 1616 C 160.083 1.08789 -1.35798 0
M  V30 1617 O 161.259 1.09768 -1.68858 0
M  V30 1618 C 158.324 1.60227 -3.07454 0
M  V30 1619 C 157.385 1.0222 -4.16953 0
M  V30 1620 C 156.618 2.0902 -4.91066 0
M  V30 1621 O 156.841 3.30222 -4.65091 0
M  V30 1622 O 155.775 1.71778 -5.76867 0
M  V30 1623 H 159.601 -0.141421 -3.03371 0
M  V30 1624 H 157.186 -0.135146 -1.48787 0
M  V30 1625 H 159.068 2.25417 -3.56041 0
M  V30 1626 H 157.743 2.20982 -2.36535 0
M  V30 1627 H 156.65 0.334064 -3.72605 0
M  V30 1628 H 157.983 0.459131 -4.90054 0
M  V30 1629 N 159.635 1.57281 -0.100228 0
M  V30 1630 C 160.863 1.98879 0.570509 0
M  V30 1631 C 161.278 0.979476 1.61405 0
M  V30 1632 O 160.635 -0.0302288 1.82475 0
M  V30 1633 C 160.686 3.4052 1.2136 0
M  V30 1634 O 160.407 4.37588 0.211786 0
M  V30 1635 C 161.908 3.97149 1.96945 0
M  V30 1636 H 159.128 0.653428 0.152555 0
M  V30 1637 H 161.672 2.03697 -0.18103 0
M  V30 1638 H 159.827 3.367 1.91603 0
M  V30 1639 H 160.241 5.20118 0.676607 0
M  V30 1640 H 161.715 4.98393 2.37294 0
M  V30 1641 H 162.192 3.3525 2.83733 0
M  V30 1642 H 162.798 4.04458 1.31506 0
M  V30 1643 N 161.113 -0.173488 1.56642 0
M  V30 1644 C 162.076 -1.19859 1.95362 0
M  V30 1645 C 163.076 -1.37296 0.83704 0
M  V30 1646 O 164.266 -1.34739 1.10413 0
M  V30 1647 C 161.398 -2.56405 2.24654 0
M  V30 1648 H 162.591 -0.867062 2.87092 0
M  V30 1649 H 160.144 -0.415853 1.50666 0
M  V30 1650 H 160.879 -2.94576 1.35631 0
M  V30 1651 H 160.664 -2.45115 3.06041 0
M  V30 1652 H 162.154 -3.30287 2.5554 0
M  V30 1653 N 162.591 -1.51276 -0.441967 0
M  V30 1654 C 163.839 -1.63392 -1.18943 0
M  V30 1655 C 164.16 -0.350159 -1.9183 0
M  V30 1656 O 163.43 0.633784 -1.85364 0
M  V30 1657 H 162.01 -0.602164 -0.442049 0
M  V30 1658 H 164.672 -1.88186 -0.507165 0
M  V30 1659 H 163.768 -2.45934 -1.92154 0
M  V30 1660 N 164.069 0.697108 -1.41344 0
M  V30 1661 C 165.032 1.79281 -1.42797 0
M  V30 1662 C 166.032 1.57607 -0.318837 0
M  V30 1663 O 167.222 1.64309 -0.578642 0
M  V30 1664 C 164.354 3.17632 -1.23785 0
M  V30 1665 H 165.547 1.79385 -2.40335 0
M  V30 1666 H 163.1 0.904582 -1.27464 0
M  V30 1667 H 163.835 3.23167 -0.270814 0
M  V30 1668 H 163.62 3.34765 -2.04144 0
M  V30 1669 H 165.11 3.97617 -1.27633 0
M  V30 1670 N 165.547 1.27147 0.931209 0
M  V30 1671 C 166.824 1.0401 1.65654 0
M  V30 1672 C 167.204 -0.426297 2.06751 0
M  V30 1673 O 166.552 -1.40879 1.79904 0
M  V30 1674 C 166.762 1.99834 2.86125 0
M  V30 1675 C 168.11 2.29007 3.57549 0
M  V30 1676 O 169.134 1.97779 2.96246 0
M  V30 1677 O 167.993 2.82222 4.67989 0
M  V30 1678 H 165.087 0.396239 0.725895 0
M  V30 1679 H 167.633 1.38397 0.982056 0
M  V30 1680 H 166.405 2.98744 2.52721 0
M  V30 1681 H 166.028 1.65987 3.61295 0
M  V30 1682 N 167.025 -1.13721 1.09112 0
M  V30 1683 C 167.988 -2.17222 0.731241 0
M  V30 1684 C 168.988 -1.59035 -0.237566 0
M  V30 1685 O 170.178 -1.74192 -0.0161704 0
M  V30 1686 C 167.31 -3.40804 0.0808443 0
M  V30 1687 H 168.503 -2.50573 1.64783 0
M  V30 1688 H 166.056 -1.28493 0.889897 0
M  V30 1689 H 166.791 -3.1304 -0.847127 0
M  V30 1690 H 166.576 -3.84306 0.777896 0
M  V30 1691 H 168.066 -4.1731 -0.155657 0
M  V30 1692 N 168.503 -0.877838 -1.30888 0
M  V30 1693 C 169.466 -0.344265 -2.266 0
M  V30 1694 C 170.466 0.50922 -1.52524 0
M  V30 1695 O 171.656 0.317398 -1.71284 0
M  V30 1696 C 168.788 0.510198 -3.37061 0
M  V30 1697 H 169.981 -1.1893 -2.7531 0
M  V30 1698 H 167.534 -0.654088 -1.41956 0
M  V30 1699 H 168.269 1.37612 -2.93655 0
M  V30 1700 H 168.054 -0.101047 -3.9197 0
M  V30 1701 H 169.544 0.875537 -4.08319 0
M  V30 1702 N 169.982 1.44106 -0.638065 0
M  V30 1703 C 170.929 2.30715 0.062701 0
M  V30 1704 C 171.899 1.43882 0.829883 0
M  V30 1705 O 173.084 1.72775 0.809532 0
M  V30 1706 C 170.224 3.29258 1.03358 0
M  V30 1707 C 169.337 4.31192 0.26409 0
M  V30 1708 C 168.472 5.16825 1.22741 0
M  V30 1709 C 167.511 6.10462 0.447475 0
M  V30 1710 N 166.648 6.8877 1.36161 0
M  V30 1711 H 171.488 2.90096 -0.681781 0
M  V30 1712 H 169.025 1.42925 -0.347988 0
M  V30 1713 H 170.983 3.84886 1.60992 0
M  V30 1714 H 169.613 2.71562 1.74511 0
M  V30 1715 H 168.665 3.77981 -0.428295 0
M  V30 1716 H 169.977 4.97619 -0.343052 0
M  V30 1717 H 169.131 5.77004 1.87487 0
M  V30 1718 H 167.87 4.50488 1.86847 0
M  V30 1719 H 166.875 5.49386 -0.213433 0
M  V30 1720 H 168.1 6.78837 -0.188968 0
M  V30 1721 H 166.046 6.25096 1.98975 0
M  V30 1722 H 165.963 7.51663 0.808656 0
M  V30 1723 H 167.231 7.53467 1.99769 0
M  V30 1724 N 171.46 0.379036 1.52974 0
M  V30 1725 C 172.407 -0.461048 2.26148 0
M  V30 1726 C 173.377 -1.06637 1.27349 0
M  V30 1727 O 174.562 -1.09633 1.56157 0
M  V30 1728 C 171.702 -1.58782 3.06402 0
M  V30 1729 C 170.815 -1.00636 4.20115 0
M  V30 1730 C 169.95 -2.10334 4.87784 0
M  V30 1731 C 168.989 -1.49724 5.93506 0
M  V30 1732 N 168.126 -2.5331 6.54812 0
M  V30 1733 H 172.966 0.169429 2.97518 0
M  V30 1734 H 170.503 0.0953806 1.4679 0
M  V30 1735 H 172.461 -2.25174 3.51215 0
M  V30 1736 H 171.091 -2.18876 2.37261 0
M  V30 1737 H 170.143 -0.232332 3.7969 0
M  V30 1738 H 171.455 -0.523343 4.96047 0
M  V30 1739 H 170.609 -2.84519 5.35849 0
M  V30 1740 H 169.348 -2.61992 4.11353 0
M  V30 1741 H 168.353 -0.740598 5.44789 0
M  V30 1742 H 169.578 -0.988732 6.71864 0
M  V30 1743 H 167.524 -3.04156 5.81227 0
M  V30 1744 H 167.441 -2.09734 7.26325 0
M  V30 1745 H 168.709 -3.27155 7.07524 0
M  V30 1746 N 172.938 -1.57226 0.108567 0
M  V30 1747 C 173.885 -2.14756 -0.845481 0
M  V30 1748 C 174.855 -1.06971 -1.27068 0
M  V30 1749 O 176.04 -1.34827 -1.35005 0
M  V30 1750 C 173.18 -2.74298 -2.09415 0
M  V30 1751 C 172.293 -3.96358 -1.71826 0
M  V30 1752 C 171.428 -4.44021 -2.9158 0
M  V30 1753 C 170.467 -5.58637 -2.50181 0
M  V30 1754 N 169.604 -6.01091 -3.62814 0
M  V30 1755 H 174.444 -2.95961 -0.348035 0
M  V30 1756 H 171.981 -1.46226 -0.160106 0
M  V30 1757 H 173.939 -3.06945 -2.82561 0
M  V30 1758 H 172.569 -1.95801 -2.56636 0
M  V30 1759 H 171.621 -3.69939 -0.885947 0
M  V30 1760 H 172.933 -4.79504 -1.37394 0
M  V30 1761 H 172.087 -4.78522 -3.72963 0
M  V30 1762 H 170.826 -3.59803 -3.29231 0
M  V30 1763 H 169.831 -5.23751 -1.67228 0
M  V30 1764 H 171.056 -6.44613 -2.13659 0
M  V30 1765 H 169.002 -5.19817 -4.00158 0
M  V30 1766 H 168.919 -6.79066 -3.32273 0
M  V30 1767 H 170.187 -6.40227 -4.44668 0
M  V30 1768 N 174.416 0.165178 -1.56732 0
M  V30 1769 C 175.326 1.22423 -2.00125 0
M  V30 1770 C 176.342 1.48084 -0.913619 0
M  V30 1771 O 177.518 1.60112 -1.22172 0
M  V30 1772 C 174.583 2.54197 -2.35764 0
M  V30 1773 C 173.644 2.36343 -3.58386 0
M  V30 1774 C 172.877 3.61834 -3.92316 0
M  V30 1775 O 173.1 4.67267 -3.27135 0
M  V30 1776 O 172.034 3.55579 -4.85641 0
M  V30 1777 H 175.86 0.885886 -2.90492 0
M  V30 1778 H 173.445 0.372518 -1.44681 0
M  V30 1779 H 175.327 3.3192 -2.59629 0
M  V30 1780 H 174.002 2.87598 -1.48557 0
M  V30 1781 H 172.909 1.56632 -3.39731 0
M  V30 1782 H 174.242 2.07865 -4.46154 0
M  V30 1783 N 175.894 1.51508 0.433938 0
M  V30 1784 C 176.824 1.76016 1.53429 0
M  V30 1785 C 177.805 0.610112 1.58782 0
M  V30 1786 O 178.99 0.853177 1.74455 0
M  V30 1787 C 176.12 1.88831 2.9148 0
M  V30 1788 C 175.074 3.04288 3.00987 0
M  V30 1789 C 174.4 3.0229 4.4105 0
M  V30 1790 C 175.7 4.44193 2.74754 0
M  V30 1791 H 177.394 2.68152 1.33171 0
M  V30 1792 H 174.94 1.29035 0.639214 0
M  V30 1793 H 176.893 2.04559 3.6842 0
M  V30 1794 H 175.617 0.933455 3.12976 0
M  V30 1795 H 174.276 2.8827 2.26486 0
M  V30 1796 H 173.924 2.04576 4.59519 0
M  V30 1797 H 173.624 3.79822 4.4834 0
M  V30 1798 H 175.148 3.20116 5.1996 0
M  V30 1799 H 176.562 4.60544 3.41426 0
M  V30 1800 H 174.959 5.23457 2.9345 0
M  V30 1801 H 176.029 4.53996 1.70339 0
M  V30 1802 N 177.372 -0.689602 1.41712 0
M  V30 1803 C 178.6 -1.47827 1.44758 0
M  V30 1804 C 179.015 -1.88721 0.0545703 0
M  V30 1805 O 178.372 -1.57176 -0.927463 0
M  V30 1806 C 178.423 -2.73698 2.3616 0
M  V30 1807 O 178.144 -2.34524 3.7004 0
M  V30 1808 C 179.645 -3.67389 2.48072 0
M  V30 1809 H 176.865 -0.455357 0.49284 0
M  V30 1810 H 179.409 -0.848574 1.86063 0
M  V30 1811 H 177.564 -3.32891 1.98148 0
M  V30 1812 H 177.978 -3.15701 4.18847 0
M  V30 1813 H 179.452 -4.52475 3.16181 0
M  V30 1814 H 179.929 -4.12284 1.51388 0
M  V30 1815 H 180.535 -3.14097 2.86746 0
M  V30 1816 N 178.85 -1.27639 -0.924453 0
M  V30 1817 C 180.098 -1.13941 -1.66918 0
M  V30 1818 C 180.419 0.314589 -1.92446 0
M  V30 1819 O 179.689 1.21964 -1.53303 0
M  V30 1820 H 178.269 -0.418678 -0.618642 0
M  V30 1821 H 180.931 -1.60213 -1.10985 0
M  V30 1822 H 180.027 -1.67094 -2.63602 0
M  V30 1823 N 180.328 1.1314 -1.09713 0
M  V30 1824 C 181.568 1.8613 -0.844683 0
M  V30 1825 C 181.932 1.81765 0.618491 0
M  V30 1826 O 183.133 2.50024 0.98699 0
M  V30 1827 C 181.404 3.30151 -1.36877 0
M  V30 1828 S 182.963 4.206 -1.25064 0
M  V30 1829 H 179.781 0.642056 -0.305427 0
M  V30 1830 H 182.383 1.36343 -1.4011 0
M  V30 1831 H 181.087 3.30883 -2.42786 0
M  V30 1832 H 180.618 3.85 -0.808614 0
M  V30 1833 H 182.633 4.95783 -0.203486 0
M  V30 1834 N 181.806 0.884767 1.30421 0
M  V30 1835 C 182.753 0.349642 2.28136 0
M  V30 1836 C 183.723 -0.560061 1.56373 0
M  V30 1837 O 184.908 -0.488524 1.8444 0
M  V30 1838 C 182.048 -0.42999 3.42411 0
M  V30 1839 C 181.161 0.508907 4.28992 0
M  V30 1840 C 180.296 -0.286301 5.30428 0
M  V30 1841 C 179.335 0.648079 6.08659 0
M  V30 1842 N 178.472 -0.111792 7.02011 0
M  V30 1843 H 183.312 1.18807 2.73293 0
M  V30 1844 H 180.849 0.597231 1.3443 0
M  V30 1845 H 182.807 -0.897923 4.07423 0
M  V30 1846 H 181.437 -1.23299 2.98324 0
M  V30 1847 H 180.489 1.09533 3.64289 0
M  V30 1848 H 181.801 1.22475 4.8353 0
M  V30 1849 H 180.955 -0.816098 6.01186 0
M  V30 1850 H 179.694 -1.03536 4.76583 0
M  V30 1851 H 178.699 1.18951 5.36778 0
M  V30 1852 H 179.924 1.39623 6.64592 0
M  V30 1853 H 177.87 -0.843395 6.50556 0
M  V30 1854 H 177.787 0.544429 7.54037 0
M  V30 1855 H 179.055 -0.622339 7.77012 0
M  V30 1856 N 183.284 -1.43765 0.645699 0
M  V30 1857 C 184.532 -2.01499 0.155731 0
M  V30 1858 C 184.853 -1.51151 -1.232 0
M  V30 1859 O 184.123 -0.721044 -1.82148 0
M  V30 1860 H 182.703 -0.745003 0.0545817 0
M  V30 1861 H 185.365 -1.76075 0.835677 0
M  V30 1862 H 184.461 -3.1181 0.134577 0
M  V30 1863 N 184.763 -0.387143 -1.52771 0
M  V30 1864 C 185.988 0.198407 -2.06449 0
M  V30 1865 C 186.413 1.39918 -1.25716 0
M  V30 1866 O 185.771 1.79099 -0.281657 0
M  V30 1867 C 185.819 0.548893 -3.56398 0
M  V30 1868 O 184.923 1.64315 -3.78252 0
M  V30 1869 H 184.264 0.0237731 -0.663574 0
M  V30 1870 H 186.794 -0.553989 -1.96957 0
M  V30 1871 H 186.804 0.813812 -3.99801 0
M  V30 1872 H 185.479 -0.329005 -4.14597 0
M  V30 1873 H 184.056 1.37211 -3.46738 0
M  V30 1874 N 186.241 1.57166 -0.116904 0
M  V30 1875 C 187.188 2.15202 0.83408 0
M  V30 1876 C 188.158 1.07644 1.26499 0
M  V30 1877 O 189.343 1.35541 1.34288 0
M  V30 1878 C 186.483 2.75405 2.07957 0
M  V30 1879 C 185.596 3.97264 1.69721 0
M  V30 1880 C 184.731 4.45561 2.89221 0
M  V30 1881 C 183.77 5.59956 2.47215 0
M  V30 1882 N 182.907 6.03006 3.59622 0
M  V30 1883 H 187.747 2.96141 0.332335 0
M  V30 1884 H 185.284 1.46309 0.152349 0
M  V30 1885 H 187.242 3.08439 2.80929 0
M  V30 1886 H 185.872 1.97159 2.55594 0
M  V30 1887 H 184.924 3.70404 0.866316 0
M  V30 1888 H 186.236 4.80226 1.34849 0
M  V30 1889 H 185.39 4.80493 3.7042 0
M  V30 1890 H 184.129 3.61544 3.27318 0
M  V30 1891 H 183.134 5.2463 1.64448 0
M  V30 1892 H 184.359 6.45738 2.10238 0
M  V30 1893 H 182.305 5.21931 3.97396 0
M  V30 1894 H 182.222 6.80819 3.28667 0
M  V30 1895 H 183.49 6.42576 4.41267 0
M  V30 1896 N 187.719 -0.156864 1.56817 0
M  V30 1897 C 188.959 -0.877453 1.84608 0
M  V30 1898 C 189.323 -1.78791 0.699845 0
M  V30 1899 O 190.524 -2.5472 0.858553 0
M  V30 1900 C 188.795 -1.63992 3.17555 0
M  V30 1901 S 190.354 -2.40729 3.66872 0
M  V30 1902 H 187.172 -0.293612 0.647544 0
M  V30 1903 H 189.774 -0.138099 1.95012 0
M  V30 1904 H 188.478 -0.962363 3.98957 0
M  V30 1905 H 188.009 -2.42038 3.10131 0
M  V30 1906 H 190.024 -3.65725 3.3535 0
M  V30 1907 N 189.197 -1.51736 -0.425897 0
M  V30 1908 C 190.147 -1.70258 -1.51645 0
M  V30 1909 C 191.131 -0.556488 -1.5097 0
M  V30 1910 O 192.323 -0.812879 -1.5723 0
M  V30 1911 C 189.452 -1.84143 -2.89735 0
M  V30 1912 C 188.538 -3.04572 -2.95122 0
M  V30 1913 N 188.929 -4.2756 -2.70233 0
M  V30 1914 C 187.227 -3.04061 -3.26286 0
M  V30 1915 C 187.928 -5.08908 -2.81757 0
M  V30 1916 N 186.904 -4.43797 -3.13919 0
M  V30 1917 H 190.706 -2.63004 -1.31172 0
M  V30 1918 H 188.22 -1.4954 -0.633375 0
M  V30 1919 H 190.217 -1.95525 -3.68206 0
M  V30 1920 H 188.877 -0.925857 -3.1122 0
M  V30 1921 H 189.888 -4.56315 -2.44943 0
M  V30 1922 H 186.565 -2.22179 -3.53473 0
M  V30 1923 H 187.955 -6.16843 -2.66372 0
M  V30 1924 N 190.675 0.682077 -1.42076 0
M  V30 1925 C 191.9 1.47558 -1.45744 0
M  V30 1926 C 192.325 1.87977 -0.0680981 0
M  V30 1927 O 191.683 1.55522 0.9318 0
M  V30 1928 C 191.731 2.70575 -2.38373 0
M  V30 1929 O 190.835 3.68573 -1.85007 0
M  V30 1930 H 190.176 0.443585 -0.494093 0
M  V30 1931 H 192.706 0.837238 -1.86686 0
M  V30 1932 H 192.716 3.18729 -2.54707 0
M  V30 1933 H 191.391 2.40495 -3.39315 0
M  V30 1934 H 189.968 3.2757 -1.78192 0
M  V30 1935 O 192.192 1.38868 0.824489 0
M  V30 1936 H 192.883 1.26408 1.46767 0
M  V30 END ATOM
M  V30 BEGIN BOND
M  V30 END BOND
M  V30 END CTAB
M  END
$$$$
