drugbank_target|P00269 Rubredoxin (DB04464)
 OpenBabel12092120463D

743755  0  0  0  0  0  0  0  0999 V2000
   -0.9080    1.9825   -0.1171 H   0  0  0  0  0 15  0  0  0  0  0  0
    0.0000    1.5760    0.0000 N   0  0  0  0  0 15  0  0  0  0  0  0
    0.9330    2.0387    1.0253 C   0  0  0  0  0 15  0  0  0  0  0  0
    1.9110    0.9285    1.3348 C   0  0  0  0  0 15  0  0  0  0  0  0
    3.0950    1.1967    1.4564 O   0  0  0  0  0 15  0  0  0  0  0  0
    0.2220    2.4363    2.3529 C   0  0  0  0  0 15  0  0  0  0  0  0
   -0.7320    3.6537    2.2001 C   0  0  0  0  0 15  0  0  0  0  0  0
    0.1010    5.1329    1.5261 S   0  0  0  0  0 15  0  0  0  0  0  0
    1.2570    5.5632    2.8680 C   0  0  0  0  0 15  0  0  0  0  0  0
    1.4900    2.9052    0.6314 H   0  0  0  0  0 15  0  0  0  0  0  0
   -0.9770    1.5295    0.2109 H   0  0  0  0  0 15  0  0  0  0  0  0
    0.9810    2.6720    3.1163 H   0  0  0  0  0 15  0  0  0  0  0  0
   -0.3580    1.5738    2.7183 H   0  0  0  0  0 15  0  0  0  0  0  0
   -1.1650    3.9094    3.1809 H   0  0  0  0  0 15  0  0  0  0  0  0
   -1.5630    3.4180    1.5182 H   0  0  0  0  0 15  0  0  0  0  0  0
    0.7290    5.5878    3.8310 H   0  0  0  0  0 15  0  0  0  0  0  0
    1.6720    6.5627    2.6593 H   0  0  0  0  0 15  0  0  0  0  0  0
    2.0800    4.8389    2.9071 H   0  0  0  0  0 15  0  0  0  0  0  0
    1.4781   -0.2728    1.5522 N   0  0  0  0  0 15  0  0  0  0  0  0
    2.4251   -1.3372    1.8812 C   0  0  0  0  0 15  0  0  0  0  0  0
    3.3951   -1.4907    0.7327 C   0  0  0  0  0 15  0  0  0  0  0  0
    4.5801   -1.6347    0.9840 O   0  0  0  0  0 15  0  0  0  0  0  0
    1.7201   -2.6924    2.1588 C   0  0  0  0  0 15  0  0  0  0  0  0
    0.8331   -2.6211    3.4340 C   0  0  0  0  0 15  0  0  0  0  0  0
   -0.0319   -3.8981    3.6086 C   0  0  0  0  0 15  0  0  0  0  0  0
   -0.9929   -3.7719    4.8207 C   0  0  0  0  0 15  0  0  0  0  0  0
   -1.8559   -4.9673    4.9619 N   0  0  0  0  0 15  0  0  0  0  0  0
    2.9841   -1.0496    2.7890 H   0  0  0  0  0 15  0  0  0  0  0  0
    0.5211   -0.5071    1.3808 H   0  0  0  0  0 15  0  0  0  0  0  0
    2.4791   -3.4809    2.2998 H   0  0  0  0  0 15  0  0  0  0  0  0
    1.1091   -2.9619    1.2833 H   0  0  0  0  0 15  0  0  0  0  0  0
    0.1611   -1.7497    3.3777 H   0  0  0  0  0 15  0  0  0  0  0  0
    1.4731   -2.4868    4.3239 H   0  0  0  0  0 15  0  0  0  0  0  0
    0.6271   -4.7710    3.7478 H   0  0  0  0  0 15  0  0  0  0  0  0
   -0.6339   -4.0610    2.7006 H   0  0  0  0  0 15  0  0  0  0  0  0
   -1.6289   -2.8828    4.6816 H   0  0  0  0  0 15  0  0  0  0  0  0
   -0.4039   -3.6242    5.7431 H   0  0  0  0  0 15  0  0  0  0  0  0
   -2.4579   -5.1343    4.0832 H   0  0  0  0  0 15  0  0  0  0  0  0
   -2.5409   -4.8584    5.7922 H   0  0  0  0  0 15  0  0  0  0  0  0
   -1.2729   -5.8559    5.1449 H   0  0  0  0  0 15  0  0  0  0  0  0
    2.9562   -1.4816   -0.5373 N   0  0  0  0  0 15  0  0  0  0  0  0
    3.9032   -1.6214   -1.6426 C   0  0  0  0  0 15  0  0  0  0  0  0
    4.8732   -0.4637   -1.5950 C   0  0  0  0  0 15  0  0  0  0  0  0
    6.0582   -0.6862   -1.7803 O   0  0  0  0  0 15  0  0  0  0  0  0
    3.1982   -1.6603   -3.0254 C   0  0  0  0  0 15  0  0  0  0  0  0
    2.3112   -2.9285   -3.1758 C   0  0  0  0  0 15  0  0  0  0  0  0
    1.4462   -2.8795   -4.4638 C   0  0  0  0  0 15  0  0  0  0  0  0
    0.4852   -4.0952   -4.5493 C   0  0  0  0  0 15  0  0  0  0  0  0
   -0.3778   -4.0273   -5.7511 N   0  0  0  0  0 15  0  0  0  0  0  0
    4.4622   -2.5653   -1.5165 H   0  0  0  0  0 15  0  0  0  0  0  0
    1.9992   -1.2722   -0.7384 H   0  0  0  0  0 15  0  0  0  0  0  0
    3.9572   -1.6626   -3.8264 H   0  0  0  0  0 15  0  0  0  0  0  0
    2.5872   -0.7513   -3.1393 H   0  0  0  0  0 15  0  0  0  0  0  0
    1.6392   -3.0240   -2.3078 H   0  0  0  0  0 15  0  0  0  0  0  0
    2.9512   -3.8282   -3.1976 H   0  0  0  0  0 15  0  0  0  0  0  0
    2.1052   -2.8655   -5.3477 H   0  0  0  0  0 15  0  0  0  0  0  0
    0.8442   -1.9570   -4.4671 H   0  0  0  0  0 15  0  0  0  0  0  0
   -0.1508   -4.1120   -3.6496 H   0  0  0  0  0 15  0  0  0  0  0  0
    1.0742   -5.0292   -4.5635 H   0  0  0  0  0 15  0  0  0  0  0  0
   -0.9798   -3.1330   -5.7635 H   0  0  0  0  0 15  0  0  0  0  0  0
   -1.0628   -4.8640   -5.7875 H   0  0  0  0  0 15  0  0  0  0  0  0
    0.2052   -4.0538   -6.6580 H   0  0  0  0  0 15  0  0  0  0  0  0
    4.4343    0.7856   -1.3662 N   0  0  0  0  0 15  0  0  0  0  0  0
    5.6643    1.5722   -1.3404 C   0  0  0  0  0 15  0  0  0  0  0  0
    6.0723    1.8903    0.0795 C   0  0  0  0  0 15  0  0  0  0  0  0
    5.4153    1.5088    1.0479 O   0  0  0  0  0 15  0  0  0  0  0  0
    5.4773    2.9176   -2.1004 C   0  0  0  0  0 15  0  0  0  0  0  0
    5.1413    2.8265   -3.5910 C   0  0  0  0  0 15  0  0  0  0  0  0
    6.1383    2.5463   -4.5327 C   0  0  0  0  0 15  0  0  0  0  0  0
    3.8233    3.0111   -4.0204 C   0  0  0  0  0 15  0  0  0  0  0  0
    5.8173    2.4518   -5.8836 C   0  0  0  0  0 15  0  0  0  0  0  0
    3.5043    2.9128   -5.3722 C   0  0  0  0  0 15  0  0  0  0  0  0
    4.5023    2.6335   -6.3019 C   0  0  0  0  0 15  0  0  0  0  0  0
    4.1903    2.5351   -7.6288 O   0  0  0  0  0 15  0  0  0  0  0  0
    3.9223    0.4942   -0.4613 H   0  0  0  0  0 15  0  0  0  0  0  0
    6.4763    0.9826   -1.8037 H   0  0  0  0  0 15  0  0  0  0  0  0
    4.7063    3.5278   -1.5837 H   0  0  0  0  0 15  0  0  0  0  0  0
    6.3953    3.5306   -2.0026 H   0  0  0  0  0 15  0  0  0  0  0  0
    7.1613    2.4007   -4.2141 H   0  0  0  0  0 15  0  0  0  0  0  0
    3.0403    3.2185   -3.3005 H   0  0  0  0  0 15  0  0  0  0  0  0
    6.5843    2.2330   -6.6090 H   0  0  0  0  0 15  0  0  0  0  0  0
    2.4813    3.0540   -5.6868 H   0  0  0  0  0 15  0  0  0  0  0  0
    3.2493    2.6897   -7.7305 H   0  0  0  0  0 15  0  0  0  0  0  0
    5.9124    1.2097    1.0102 N   0  0  0  0  0 15  0  0  0  0  0  0
    7.1584    1.0253    1.7498 C   0  0  0  0  0 15  0  0  0  0  0  0
    7.4914   -0.4408    1.8913 C   0  0  0  0  0 15  0  0  0  0  0  0
    6.7664   -1.3272    1.4218 O   0  0  0  0  0 15  0  0  0  0  0  0
    7.0494    1.7170    3.1653 C   0  0  0  0  0 15  0  0  0  0  0  0
    6.9024    3.2579    3.1013 C   0  0  0  0  0 15  0  0  0  0  0  0
    8.2214    1.4553    4.1534 C   0  0  0  0  0 15  0  0  0  0  0  0
    5.3404    0.3739    0.6351 H   0  0  0  0  0 15  0  0  0  0  0  0
    7.9824    1.4907    1.1780 H   0  0  0  0  0 15  0  0  0  0  0  0
    6.1324    1.3213    3.6534 H   0  0  0  0  0 15  0  0  0  0  0  0
    7.8044    3.7470    2.6907 H   0  0  0  0  0 15  0  0  0  0  0  0
    6.0474    3.5636    2.4736 H   0  0  0  0  0 15  0  0  0  0  0  0
    6.7184    3.6935    4.1022 H   0  0  0  0  0 15  0  0  0  0  0  0
    9.1944    1.7987    3.7521 H   0  0  0  0  0 15  0  0  0  0  0  0
    8.0704    1.9645    5.1254 H   0  0  0  0  0 15  0  0  0  0  0  0
    8.3314    0.3842    4.4043 H   0  0  0  0  0 15  0  0  0  0  0  0
    7.3905   -1.2043    1.0166 N   0  0  0  0  0 15  0  0  0  0  0  0
    8.6305   -1.9151    0.7145 C   0  0  0  0  0 15  0  0  0  0  0  0
    8.9945   -1.7707   -0.7422 C   0  0  0  0  0 15  0  0  0  0  0  0
   10.1955   -2.4263   -1.1569 O   0  0  0  0  0 15  0  0  0  0  0  0
    8.4665   -3.3880    1.1381 C   0  0  0  0  0 15  0  0  0  0  0  0
   10.0255   -4.2822    0.9579 S   0  0  0  0  0 15  0  0  0  0  0  0
    6.8435   -0.6616    0.2605 H   0  0  0  0  0 15  0  0  0  0  0  0
    9.4455   -1.4567    1.3038 H   0  0  0  0  0 15  0  0  0  0  0  0
    8.1495   -3.4682    2.1941 H   0  0  0  0  0 15  0  0  0  0  0  0
    7.6805   -3.8966    0.5415 H   0  0  0  0  0 15  0  0  0  0  0  0
    9.6955   -4.9601   -0.1385 H   0  0  0  0  0 15  0  0  0  0  0  0
    8.8686   -0.7928   -1.3621 N   0  0  0  0  0 15  0  0  0  0  0  0
   10.0966   -0.3788   -2.0340 C   0  0  0  0  0 15  0  0  0  0  0  0
   10.5116    1.0059   -1.5977 C   0  0  0  0  0 15  0  0  0  0  0  0
    9.8686    1.6457   -0.7888 O   0  0  0  0  0 15  0  0  0  0  0  0
    9.9196   -0.4368   -3.5885 C   0  0  0  0  0 15  0  0  0  0  0  0
    9.6406   -1.7669   -4.0089 O   0  0  0  0  0 15  0  0  0  0  0  0
   11.1416   -0.0139   -4.4330 C   0  0  0  0  0 15  0  0  0  0  0  0
    8.3616   -0.1557   -0.6527 H   0  0  0  0  0 15  0  0  0  0  0  0
   10.9056   -1.0726   -1.7411 H   0  0  0  0  0 15  0  0  0  0  0  0
    9.0606    0.2086   -3.8684 H   0  0  0  0  0 15  0  0  0  0  0  0
    9.4746   -1.7201   -4.9549 H   0  0  0  0  0 15  0  0  0  0  0  0
   10.9486   -0.1056   -5.5190 H   0  0  0  0  0 15  0  0  0  0  0  0
   11.4256    1.0392   -4.2673 H   0  0  0  0  0 15  0  0  0  0  0  0
   12.0316   -0.6319   -4.2058 H   0  0  0  0  0 15  0  0  0  0  0  0
   10.3467    1.4787   -0.5451 N   0  0  0  0  0 15  0  0  0  0  0  0
   11.5927    2.0279   -0.0166 C   0  0  0  0  0 15  0  0  0  0  0  0
   11.9257    1.4199    1.3249 C   0  0  0  0  0 15  0  0  0  0  0  0
   11.2007    0.5710    1.8593 O   0  0  0  0  0 15  0  0  0  0  0  0
   11.4837    3.5999    0.0893 C   0  0  0  0  0 15  0  0  0  0  0  0
   11.3367    4.3125   -1.2784 C   0  0  0  0  0 15  0  0  0  0  0  0
   12.6557    4.3261    0.8087 C   0  0  0  0  0 15  0  0  0  0  0  0
    9.7747    0.7370   -0.0075 H   0  0  0  0  0 15  0  0  0  0  0  0
   12.4167    1.7643   -0.7051 H   0  0  0  0  0 15  0  0  0  0  0  0
   10.5667    3.8258    0.6757 H   0  0  0  0  0 15  0  0  0  0  0  0
   12.2387    4.2004   -1.9070 H   0  0  0  0  0 15  0  0  0  0  0  0
   10.4817    3.9208   -1.8563 H   0  0  0  0  0 15  0  0  0  0  0  0
   11.1527    5.3974   -1.1571 H   0  0  0  0  0 15  0  0  0  0  0  0
   13.6287    4.1494    0.3110 H   0  0  0  0  0 15  0  0  0  0  0  0
   12.5047    5.4225    0.8518 H   0  0  0  0  0 15  0  0  0  0  0  0
   12.7657    4.0096    1.8623 H   0  0  0  0  0 15  0  0  0  0  0  0
   11.8248    0.2810    1.5507 N   0  0  0  0  0 15  0  0  0  0  0  0
   13.0648   -0.3352    2.0163 C   0  0  0  0  0 15  0  0  0  0  0  0
   13.4288   -1.5261    1.1651 C   0  0  0  0  0 15  0  0  0  0  0  0
   14.6298   -2.2123    1.5267 O   0  0  0  0  0 15  0  0  0  0  0  0
   12.9008   -0.7022    3.5043 C   0  0  0  0  0 15  0  0  0  0  0  0
   14.4598   -1.3041    4.1897 S   0  0  0  0  0 15  0  0  0  0  0  0
   11.2778   -0.1040    0.7034 H   0  0  0  0  0 15  0  0  0  0  0  0
   13.8798    0.4042    1.9128 H   0  0  0  0  0 15  0  0  0  0  0  0
   12.5838    0.1733    4.1003 H   0  0  0  0  0 15  0  0  0  0  0  0
   12.1148   -1.4729    3.6479 H   0  0  0  0  0 15  0  0  0  0  0  0
   14.1298   -2.5925    4.2309 H   0  0  0  0  0 15  0  0  0  0  0  0
   13.3029   -1.5760    0.0084 N   0  0  0  0  0 15  0  0  0  0  0  0
   14.5509   -1.9055   -0.6734 C   0  0  0  0  0 15  0  0  0  0  0  0
   14.8719   -0.8833   -1.7385 C   0  0  0  0  0 15  0  0  0  0  0  0
   14.1419    0.0781   -1.9574 O   0  0  0  0  0 15  0  0  0  0  0  0
   12.7219   -0.7033   -0.2517 H   0  0  0  0  0 15  0  0  0  0  0  0
   15.3839   -1.9483    0.0513 H   0  0  0  0  0 15  0  0  0  0  0  0
   14.4799   -2.9056   -1.1394 H   0  0  0  0  0 15  0  0  0  0  0  0
   14.7810    0.2645   -1.5536 N   0  0  0  0  0 15  0  0  0  0  0  0
   16.0110    1.0115   -1.8014 C   0  0  0  0  0 15  0  0  0  0  0  0
   16.4190    1.8011   -0.5793 C   0  0  0  0  0 15  0  0  0  0  0  0
   15.7620    1.7781    0.4613 O   0  0  0  0  0 15  0  0  0  0  0  0
   15.8240    2.0110   -2.9799 C   0  0  0  0  0 15  0  0  0  0  0  0
   15.4880    1.4100   -4.3471 C   0  0  0  0  0 15  0  0  0  0  0  0
   16.4850    0.8213   -5.1337 C   0  0  0  0  0 15  0  0  0  0  0  0
   14.1700    1.4346   -4.8138 C   0  0  0  0  0 15  0  0  0  0  0  0
   16.1640    0.2653   -6.3685 C   0  0  0  0  0 15  0  0  0  0  0  0
   13.8510    0.8748   -6.0481 C   0  0  0  0  0 15  0  0  0  0  0  0
   14.8490    0.2911   -6.8238 C   0  0  0  0  0 15  0  0  0  0  0  0
   14.5370   -0.2601   -8.0348 O   0  0  0  0  0 15  0  0  0  0  0  0
   14.2690    0.3041   -0.6037 H   0  0  0  0  0 15  0  0  0  0  0  0
   16.8230    0.2981   -2.0323 H   0  0  0  0  0 15  0  0  0  0  0  0
   15.0530    2.7622   -2.7062 H   0  0  0  0  0 15  0  0  0  0  0  0
   16.7420    2.6200   -3.1002 H   0  0  0  0  0 15  0  0  0  0  0  0
   17.5080    0.7949   -4.7844 H   0  0  0  0  0 15  0  0  0  0  0  0
   13.3870    1.8783   -4.2100 H   0  0  0  0  0 15  0  0  0  0  0  0
   16.9310   -0.1908   -6.9734 H   0  0  0  0  0 15  0  0  0  0  0  0
   12.8280    0.8985   -6.3922 H   0  0  0  0  0 15  0  0  0  0  0  0
   13.5960   -0.1503   -8.1836 H   0  0  0  0  0 15  0  0  0  0  0  0
   16.2591    1.4844    0.5294 N   0  0  0  0  0 15  0  0  0  0  0  0
   17.1691    1.6569    1.6608 C   0  0  0  0  0 15  0  0  0  0  0  0
   18.1851    0.5394    1.6543 C   0  0  0  0  0 15  0  0  0  0  0  0
   19.3611    0.8106    1.8437 O   0  0  0  0  0 15  0  0  0  0  0  0
   16.4261    1.6932    3.0254 C   0  0  0  0  0 15  0  0  0  0  0  0
   15.4871    2.9269    3.1405 C   0  0  0  0  0 15  0  0  0  0  0  0
   14.7201    2.9614    4.4400 C   0  0  0  0  0 15  0  0  0  0  0  0
   14.9431    2.0797    5.3113 O   0  0  0  0  0 15  0  0  0  0  0  0
   13.8771    3.8831    4.5989 O   0  0  0  0  0 15  0  0  0  0  0  0
   17.7031    2.6148    1.5447 H   0  0  0  0  0 15  0  0  0  0  0  0
   15.2881    1.3185    0.7026 H   0  0  0  0  0 15  0  0  0  0  0  0
   17.1701    1.7422    3.8370 H   0  0  0  0  0 15  0  0  0  0  0  0
   15.8451    0.7670    3.1448 H   0  0  0  0  0 15  0  0  0  0  0  0
   14.7521    2.9332    2.3219 H   0  0  0  0  0 15  0  0  0  0  0  0
   16.0851    3.8470    3.0703 H   0  0  0  0  0 15  0  0  0  0  0  0
   17.7372   -0.7783    1.3704 N   0  0  0  0  0 15  0  0  0  0  0  0
   18.9672   -1.5651    1.3487 C   0  0  0  0  0 15  0  0  0  0  0  0
   19.3752   -1.8907   -0.0695 C   0  0  0  0  0 15  0  0  0  0  0  0
   18.7182   -1.5143   -1.0399 O   0  0  0  0  0 15  0  0  0  0  0  0
   18.7802   -2.9064    2.1159 C   0  0  0  0  0 15  0  0  0  0  0  0
   18.4442   -2.8075    3.6060 C   0  0  0  0  0 15  0  0  0  0  0  0
   19.4412   -2.5223    4.5462 C   0  0  0  0  0 15  0  0  0  0  0  0
   17.1262   -2.9897    4.0363 C   0  0  0  0  0 15  0  0  0  0  0  0
   19.1202   -2.4205    5.8965 C   0  0  0  0  0 15  0  0  0  0  0  0
   16.8072   -2.8842    5.3875 C   0  0  0  0  0 15  0  0  0  0  0  0
   17.8052   -2.6000    6.3158 C   0  0  0  0  0 15  0  0  0  0  0  0
   17.4932   -2.4946    7.6421 O   0  0  0  0  0 15  0  0  0  0  0  0
   17.2252   -0.4917    0.4639 H   0  0  0  0  0 15  0  0  0  0  0  0
   19.7792   -0.9731    1.8089 H   0  0  0  0  0 15  0  0  0  0  0  0
   18.0092   -3.5194    1.6024 H   0  0  0  0  0 15  0  0  0  0  0  0
   19.6982   -3.5199    2.0213 H   0  0  0  0  0 15  0  0  0  0  0  0
   20.4642   -2.3784    4.2268 H   0  0  0  0  0 15  0  0  0  0  0  0
   16.3432   -3.2010    3.3175 H   0  0  0  0  0 15  0  0  0  0  0  0
   19.8872   -2.1979    6.6207 H   0  0  0  0  0 15  0  0  0  0  0  0
   15.7842   -3.0238    5.7030 H   0  0  0  0  0 15  0  0  0  0  0  0
   16.5522   -2.6486    7.7446 H   0  0  0  0  0 15  0  0  0  0  0  0
   19.2153   -1.2150   -1.0038 N   0  0  0  0  0 15  0  0  0  0  0  0
   20.4923   -0.9417   -1.7144 C   0  0  0  0  0 15  0  0  0  0  0  0
   20.8723    0.5461   -2.0391 C   0  0  0  0  0 15  0  0  0  0  0  0
   20.2203    1.5113   -1.7138 O   0  0  0  0  0 15  0  0  0  0  0  0
   20.4303   -1.8281   -2.9729 C   0  0  0  0  0 15  0  0  0  0  0  0
   21.7783   -2.0777   -3.7029 C   0  0  0  0  0 15  0  0  0  0  0  0
   22.8023   -1.8017   -3.0727 O   0  0  0  0  0 15  0  0  0  0  0  0
   21.6613   -2.5446   -4.8365 O   0  0  0  0  0 15  0  0  0  0  0  0
   18.7553   -0.3532   -0.7478 H   0  0  0  0  0 15  0  0  0  0  0  0
   21.3013   -1.3244   -1.0611 H   0  0  0  0  0 15  0  0  0  0  0  0
   20.0733   -2.8350   -2.6971 H   0  0  0  0  0 15  0  0  0  0  0  0
   19.6963   -1.4464   -3.7036 H   0  0  0  0  0 15  0  0  0  0  0  0
   20.6934    1.1989   -1.0230 N   0  0  0  0  0 15  0  0  0  0  0  0
   22.1044    1.7112   -0.7466 C   0  0  0  0  0 15  0  0  0  0  0  0
   22.4554    1.8194    0.7343 C   0  0  0  0  0 15  0  0  0  0  0  0
   21.5804    1.4864    1.5727 O   0  0  0  0  0 15  0  0  0  0  0  0
   22.1754    3.1080   -1.3486 C   0  0  0  0  0 15  0  0  0  0  0  0
   20.7344    3.5932   -1.1209 C   0  0  0  0  0 15  0  0  0  0  0  0
   19.8814    2.3635   -1.4503 C   0  0  0  0  0 15  0  0  0  0  0  0
   22.8324    1.0481   -1.1916 H   0  0  0  0  0 15  0  0  0  0  0  0
   22.8534    3.7319   -0.7424 H   0  0  0  0  0 15  0  0  0  0  0  0
   22.3654    3.0290   -2.4264 H   0  0  0  0  0 15  0  0  0  0  0  0
   20.4664    3.7255   -0.0610 H   0  0  0  0  0 15  0  0  0  0  0  0
   20.5794    4.4378   -1.8054 H   0  0  0  0  0 15  0  0  0  0  0  0
   18.9434    2.3940   -0.8695 H   0  0  0  0  0 15  0  0  0  0  0  0
   19.7264    2.3108   -2.5388 H   0  0  0  0  0 15  0  0  0  0  0  0
   22.1715    0.8000    1.3578 N   0  0  0  0  0 15  0  0  0  0  0  0
   23.1345    0.2116    2.2822 C   0  0  0  0  0 15  0  0  0  0  0  0
   24.1345   -0.5973    1.4930 C   0  0  0  0  0 15  0  0  0  0  0  0
   25.3245   -0.4167    1.6914 O   0  0  0  0  0 15  0  0  0  0  0  0
   22.4565   -0.7058    3.3351 C   0  0  0  0  0 15  0  0  0  0  0  0
   23.6495    1.0268    2.8178 H   0  0  0  0  0 15  0  0  0  0  0  0
   21.2025    0.5702    1.4553 H   0  0  0  0  0 15  0  0  0  0  0  0
   21.9375   -1.5450    2.8513 H   0  0  0  0  0 15  0  0  0  0  0  0
   21.7225   -0.1277    3.9189 H   0  0  0  0  0 15  0  0  0  0  0  0
   23.2125   -1.1121    4.0252 H   0  0  0  0  0 15  0  0  0  0  0  0
   23.6496   -1.4758    0.5530 N   0  0  0  0  0 15  0  0  0  0  0  0
   24.5596   -2.3374   -0.2004 C   0  0  0  0  0 15  0  0  0  0  0  0
   25.5756   -1.4793   -0.9162 C   0  0  0  0  0 15  0  0  0  0  0  0
   26.7516   -1.8086   -0.8860 O   0  0  0  0  0 15  0  0  0  0  0  0
   23.8166   -3.2454   -1.2197 C   0  0  0  0  0 15  0  0  0  0  0  0
   22.8776   -4.2624   -0.5118 C   0  0  0  0  0 15  0  0  0  0  0  0
   22.1106   -5.1269   -1.4826 C   0  0  0  0  0 15  0  0  0  0  0  0
   22.3336   -5.0153   -2.7171 O   0  0  0  0  0 15  0  0  0  0  0  0
   21.2676   -5.9337   -1.0094 O   0  0  0  0  0 15  0  0  0  0  0  0
   25.0936   -2.9945    0.5063 H   0  0  0  0  0 15  0  0  0  0  0  0
   22.6786   -1.4607    0.3136 H   0  0  0  0  0 15  0  0  0  0  0  0
   24.5606   -3.8063   -1.8083 H   0  0  0  0  0 15  0  0  0  0  0  0
   23.2356   -2.6146   -1.9084 H   0  0  0  0  0 15  0  0  0  0  0  0
   22.1426   -3.7391    0.1178 H   0  0  0  0  0 15  0  0  0  0  0  0
   23.4756   -4.9201    0.1353 H   0  0  0  0  0 15  0  0  0  0  0  0
   25.1277   -0.2892   -1.5492 N   0  0  0  0  0 15  0  0  0  0  0  0
   26.3757    0.3229   -1.9950 C   0  0  0  0  0 15  0  0  0  0  0  0
   26.6967    1.5531   -1.1791 C   0  0  0  0  0 15  0  0  0  0  0  0
   25.9667    1.9400   -0.2721 O   0  0  0  0  0 15  0  0  0  0  0  0
   24.5467    0.1223   -0.7369 H   0  0  0  0  0 15  0  0  0  0  0  0
   27.2087   -0.3978   -1.9080 H   0  0  0  0  0 15  0  0  0  0  0  0
   26.3047    0.6031   -3.0622 H   0  0  0  0  0 15  0  0  0  0  0  0
   26.6058    1.5759   -0.0167 N   0  0  0  0  0 15  0  0  0  0  0  0
   27.8828    1.8255    0.7026 C   0  0  0  0  0 15  0  0  0  0  0  0
   28.2628    0.8980    1.9105 C   0  0  0  0  0 15  0  0  0  0  0  0
   27.6108   -0.0493    2.2845 O   0  0  0  0  0 15  0  0  0  0  0  0
   27.8208    3.3146    1.0925 C   0  0  0  0  0 15  0  0  0  0  0  0
   29.1688    3.9762    1.4894 C   0  0  0  0  0 15  0  0  0  0  0  0
   30.1928    3.3588    1.1858 O   0  0  0  0  0 15  0  0  0  0  0  0
   29.0518    5.0641    2.0544 O   0  0  0  0  0 15  0  0  0  0  0  0
   26.1458    0.7523    0.3435 H   0  0  0  0  0 15  0  0  0  0  0  0
   28.6918    1.6964   -0.0434 H   0  0  0  0  0 15  0  0  0  0  0  0
   27.4638    3.9061    0.2323 H   0  0  0  0  0 15  0  0  0  0  0  0
   27.0868    3.4942    1.8971 H   0  0  0  0  0 15  0  0  0  0  0  0
   28.0839   -0.2563    1.5550 N   0  0  0  0  0 15  0  0  0  0  0  0
   29.4949   -0.8261    1.6743 C   0  0  0  0  0 15  0  0  0  0  0  0
   29.8459   -1.8640    0.6124 C   0  0  0  0  0 15  0  0  0  0  0  0
   28.9709   -2.1503   -0.2430 O   0  0  0  0  0 15  0  0  0  0  0  0
   29.5659   -1.5051    3.0353 C   0  0  0  0  0 15  0  0  0  0  0  0
   28.1249   -2.0227    3.1743 C   0  0  0  0  0 15  0  0  0  0  0  0
   27.2719   -0.8705    2.6328 C   0  0  0  0  0 15  0  0  0  0  0  0
   30.2229   -0.0323    1.5867 H   0  0  0  0  0 15  0  0  0  0  0  0
   30.2439   -2.3728    2.9745 H   0  0  0  0  0 15  0  0  0  0  0  0
   29.7559   -0.7495    3.8079 H   0  0  0  0  0 15  0  0  0  0  0  0
   27.8569   -2.8075    2.4497 H   0  0  0  0  0 15  0  0  0  0  0  0
   27.9699   -2.2266    4.2422 H   0  0  0  0  0 15  0  0  0  0  0  0
   26.3339   -1.2685    2.2086 H   0  0  0  0  0 15  0  0  0  0  0  0
   27.1169   -0.1281    3.4306 H   0  0  0  0  0 15  0  0  0  0  0  0
   29.5620   -1.4872   -0.5215 N   0  0  0  0  0 15  0  0  0  0  0  0
   30.8390   -1.4766   -1.2828 C   0  0  0  0  0 15  0  0  0  0  0  0
   31.2190   -0.1929   -2.1022 C   0  0  0  0  0 15  0  0  0  0  0  0
   30.5670    0.8252   -2.1308 O   0  0  0  0  0 15  0  0  0  0  0  0
   30.7770   -2.7436   -2.1571 C   0  0  0  0  0 15  0  0  0  0  0  0
   32.1250   -3.2303   -2.7557 C   0  0  0  0  0 15  0  0  0  0  0  0
   33.1490   -2.7533   -2.2599 O   0  0  0  0  0 15  0  0  0  0  0  0
   32.0080   -4.0604   -3.6578 O   0  0  0  0  0 15  0  0  0  0  0  0
   29.1020   -0.5901   -0.5794 H   0  0  0  0  0 15  0  0  0  0  0  0
   31.6480   -1.6096   -0.5375 H   0  0  0  0  0 15  0  0  0  0  0  0
   30.4200   -3.5929   -1.5500 H   0  0  0  0  0 15  0  0  0  0  0  0
   30.0430   -2.6382   -2.9747 H   0  0  0  0  0 15  0  0  0  0  0  0
   31.0401    0.7711   -1.3745 N   0  0  0  0  0 15  0  0  0  0  0  0
   31.9881    1.9057   -1.3336 C   0  0  0  0  0 15  0  0  0  0  0  0
   32.9821    1.6794   -0.2222 C   0  0  0  0  0 15  0  0  0  0  0  0
   34.1881    1.7572   -0.3903 O   0  0  0  0  0 15  0  0  0  0  0  0
   30.5631    0.6267   -0.4156 H   0  0  0  0  0 15  0  0  0  0  0  0
   32.5341    1.9114   -2.2914 H   0  0  0  0  0 15  0  0  0  0  0  0
   31.2831    3.2785   -1.1581 C   0  0  0  0  0 15  0  0  0  0  0  0
   30.6061    3.4584   -2.0058 H   0  0  0  0  0 15  0  0  0  0  0  0
   32.0461    4.0754   -1.1700 H   0  0  0  0  0 15  0  0  0  0  0  0
   30.5051    3.3662    0.1362 C   0  0  0  0  0 15  0  0  0  0  0  0
   31.0351    3.8579    1.1195 O   0  0  0  0  0 15  0  0  0  0  0  0
   29.2411    2.9000    0.1871 N   0  0  0  0  0 15  0  0  0  0  0  0
   28.7881    2.5018   -0.6138 H   0  0  0  0  0 15  0  0  0  0  0  0
   28.7461    2.9625    1.0527 H   0  0  0  0  0 15  0  0  0  0  0  0
   32.5182    1.2203    0.9973 N   0  0  0  0  0 15  0  0  0  0  0  0
   33.7662    1.0402    1.7328 C   0  0  0  0  0 15  0  0  0  0  0  0
   34.0872   -0.4263    1.9028 C   0  0  0  0  0 15  0  0  0  0  0  0
   33.3572   -1.3069    1.4593 O   0  0  0  0  0 15  0  0  0  0  0  0
   31.9372    0.3819    0.6420 H   0  0  0  0  0 15  0  0  0  0  0  0
   34.5992    1.5347    1.2014 H   0  0  0  0  0 15  0  0  0  0  0  0
   33.6952    1.5144    2.7290 H   0  0  0  0  0 15  0  0  0  0  0  0
   33.9963   -1.1934    1.0293 N   0  0  0  0  0 15  0  0  0  0  0  0
   35.2423   -1.8932    0.7271 C   0  0  0  0  0 15  0  0  0  0  0  0
   35.5753   -1.7945   -0.7425 C   0  0  0  0  0 15  0  0  0  0  0  0
   34.8503   -1.1871   -1.5407 O   0  0  0  0  0 15  0  0  0  0  0  0
   35.1333   -3.4024    1.1794 C   0  0  0  0  0 15  0  0  0  0  0  0
   34.9863   -3.5898    2.7102 C   0  0  0  0  0 15  0  0  0  0  0  0
   36.3053   -4.3348    0.7605 C   0  0  0  0  0 15  0  0  0  0  0  0
   33.4243   -0.6875    0.2656 H   0  0  0  0  0 15  0  0  0  0  0  0
   36.0663   -1.4048    1.2793 H   0  0  0  0  0 15  0  0  0  0  0  0
   34.2163   -3.8196    0.7096 H   0  0  0  0  0 15  0  0  0  0  0  0
   35.8883   -3.2642    3.2596 H   0  0  0  0  0 15  0  0  0  0  0  0
   34.1313   -3.0202    3.1140 H   0  0  0  0  0 15  0  0  0  0  0  0
   34.8023   -4.6482    2.9773 H   0  0  0  0  0 15  0  0  0  0  0  0
   37.2783   -3.9947    1.1646 H   0  0  0  0  0 15  0  0  0  0  0  0
   36.1543   -5.3766    1.1049 H   0  0  0  0  0 15  0  0  0  0  0  0
   36.4153   -4.4081   -0.3371 H   0  0  0  0  0 15  0  0  0  0  0  0
   35.4744   -0.8072   -1.3536 N   0  0  0  0  0 15  0  0  0  0  0  0
   36.4214   -0.2160   -2.2979 C   0  0  0  0  0 15  0  0  0  0  0  0
   37.3914    0.6503   -1.5284 C   0  0  0  0  0 15  0  0  0  0  0  0
   38.5764    0.5952   -1.8128 O   0  0  0  0  0 15  0  0  0  0  0  0
   35.7164    0.6289   -3.3932 C   0  0  0  0  0 15  0  0  0  0  0  0
   34.8294   -0.2579   -4.3123 C   0  0  0  0  0 15  0  0  0  0  0  0
   33.9644    0.5951   -5.2786 C   0  0  0  0  0 15  0  0  0  0  0  0
   33.0034   -0.2921   -6.1140 C   0  0  0  0  0 15  0  0  0  0  0  0
   32.1404    0.5209   -7.0017 N   0  0  0  0  0 15  0  0  0  0  0  0
   36.9804   -1.0267   -2.7975 H   0  0  0  0  0 15  0  0  0  0  0  0
   34.5174   -0.5178   -1.3768 H   0  0  0  0  0 15  0  0  0  0  0  0
   36.4754    1.1339   -4.0149 H   0  0  0  0  0 15  0  0  0  0  0  0
   35.1054    1.4048   -2.9063 H   0  0  0  0  0 15  0  0  0  0  0  0
   34.1574   -0.8811   -3.7006 H   0  0  0  0  0 15  0  0  0  0  0  0
   35.4694   -0.9408   -4.8985 H   0  0  0  0  0 15  0  0  0  0  0  0
   34.6234    1.1652   -5.9541 H   0  0  0  0  0 15  0  0  0  0  0  0
   33.3624    1.3115   -4.6974 H   0  0  0  0  0 15  0  0  0  0  0  0
   32.3674   -0.8745   -5.4280 H   0  0  0  0  0 15  0  0  0  0  0  0
   33.5924   -1.0064   -6.7160 H   0  0  0  0  0 15  0  0  0  0  0  0
   31.5384    1.2213   -6.4453 H   0  0  0  0  0 15  0  0  0  0  0  0
   31.4554   -0.1039   -7.5593 H   0  0  0  0  0 15  0  0  0  0  0  0
   32.7234    1.0743   -7.7206 H   0  0  0  0  0 15  0  0  0  0  0  0
   36.9525    1.4729   -0.5608 N   0  0  0  0  0 15  0  0  0  0  0  0
   38.3635    1.8626   -0.1283 C   0  0  0  0  0 15  0  0  0  0  0  0
   38.7145    1.4670    1.3028 C   0  0  0  0  0 15  0  0  0  0  0  0
   37.8395    0.8717    1.9807 O   0  0  0  0  0 15  0  0  0  0  0  0
   38.4345    3.3804   -0.2261 C   0  0  0  0  0 15  0  0  0  0  0  0
   36.9935    3.7610    0.1513 C   0  0  0  0  0 15  0  0  0  0  0  0
   36.1405    2.7133   -0.5721 C   0  0  0  0  0 15  0  0  0  0  0  0
   39.0915    1.3875   -0.7703 H   0  0  0  0  0 15  0  0  0  0  0  0
   39.1125    3.7644    0.5543 H   0  0  0  0  0 15  0  0  0  0  0  0
   38.6245    3.6681   -1.2679 H   0  0  0  0  0 15  0  0  0  0  0  0
   36.7255    3.5295    1.1940 H   0  0  0  0  0 15  0  0  0  0  0  0
   36.8385    4.7864   -0.2098 H   0  0  0  0  0 15  0  0  0  0  0  0
   35.2025    2.5470   -0.0148 H   0  0  0  0  0 15  0  0  0  0  0  0
   35.9855    3.0294   -1.6150 H   0  0  0  0  0 15  0  0  0  0  0  0
   38.4306    0.2974    1.5477 N   0  0  0  0  0 15  0  0  0  0  0  0
   39.6786   -0.3123    1.9967 C   0  0  0  0  0 15  0  0  0  0  0  0
   39.9996   -1.5469    1.1873 C   0  0  0  0  0 15  0  0  0  0  0  0
   39.2696   -1.9385    0.2824 O   0  0  0  0  0 15  0  0  0  0  0  0
   37.8496   -0.1184    0.7376 H   0  0  0  0  0 15  0  0  0  0  0  0
   40.5116    0.4079    1.9058 H   0  0  0  0  0 15  0  0  0  0  0  0
   39.6076   -0.5868    3.0653 H   0  0  0  0  0 15  0  0  0  0  0  0
   39.9087   -1.5758    0.0251 N   0  0  0  0  0 15  0  0  0  0  0  0
   41.1367   -1.9593   -0.6647 C   0  0  0  0  0 15  0  0  0  0  0  0
   41.5517   -0.9014   -1.6589 C   0  0  0  0  0 15  0  0  0  0  0  0
   40.9087    0.1173   -1.8212 O   0  0  0  0  0 15  0  0  0  0  0  0
   40.9597   -3.3434   -1.3747 C   0  0  0  0  0 15  0  0  0  0  0  0
   40.6807   -4.3608   -0.4203 O   0  0  0  0  0 15  0  0  0  0  0  0
   42.1817   -3.8730   -2.1567 C   0  0  0  0  0 15  0  0  0  0  0  0
   39.4017   -0.6454   -0.1836 H   0  0  0  0  0 15  0  0  0  0  0  0
   41.9457   -2.0433    0.0836 H   0  0  0  0  0 15  0  0  0  0  0  0
   40.1007   -3.2717   -2.0745 H   0  0  0  0  0 15  0  0  0  0  0  0
   40.5147   -5.1630   -0.9240 H   0  0  0  0  0 15  0  0  0  0  0  0
   41.9887   -4.8650   -2.6080 H   0  0  0  0  0 15  0  0  0  0  0  0
   42.4657   -3.2133   -2.9940 H   0  0  0  0  0 15  0  0  0  0  0  0
   43.0717   -3.9772   -1.5065 H   0  0  0  0  0 15  0  0  0  0  0  0
   41.3868    0.2480   -1.5564 N   0  0  0  0  0 15  0  0  0  0  0  0
   42.6118    0.9980   -1.8181 C   0  0  0  0  0 15  0  0  0  0  0  0
   43.0368    1.7821   -0.6020 C   0  0  0  0  0 15  0  0  0  0  0  0
   42.3948    1.7565    0.4490 O   0  0  0  0  0 15  0  0  0  0  0  0
   42.4428    1.9125   -3.0571 C   0  0  0  0  0 15  0  0  0  0  0  0
   41.5468    3.0041   -2.8254 O   0  0  0  0  0 15  0  0  0  0  0  0
   40.8878    0.2840   -0.6002 H   0  0  0  0  0 15  0  0  0  0  0  0
   43.4178    0.2694   -2.0282 H   0  0  0  0  0 15  0  0  0  0  0  0
   43.4278    2.3274   -3.3511 H   0  0  0  0  0 15  0  0  0  0  0  0
   42.1028    1.3360   -3.9386 H   0  0  0  0  0 15  0  0  0  0  0  0
   40.6798    2.6306   -2.6430 H   0  0  0  0  0 15  0  0  0  0  0  0
   42.8649    1.4899    0.5136 N   0  0  0  0  0 15  0  0  0  0  0  0
   44.1119    1.5784    1.2685 C   0  0  0  0  0 15  0  0  0  0  0  0
   44.4399    0.2595    1.9276 C   0  0  0  0  0 15  0  0  0  0  0  0
   43.6949   -0.7516    1.8069 O   0  0  0  0  0 15  0  0  0  0  0  0
   43.9939    2.6776    2.3673 C   0  0  0  0  0 15  0  0  0  0  0  0
   43.6599    4.0967    1.8837 C   0  0  0  0  0 15  0  0  0  0  0  0
   42.3219    4.4829    1.7490 C   0  0  0  0  0 15  0  0  0  0  0  0
   44.6739    4.9854    1.5202 C   0  0  0  0  0 15  0  0  0  0  0  0
   42.0019    5.7357    1.2344 C   0  0  0  0  0 15  0  0  0  0  0  0
   44.3539    6.2432    1.0202 C   0  0  0  0  0 15  0  0  0  0  0  0
   43.0179    6.6178    0.8718 C   0  0  0  0  0 15  0  0  0  0  0  0
   42.2879    0.5776    0.4642 H   0  0  0  0  0 15  0  0  0  0  0  0
   44.9349    1.8278    0.5714 H   0  0  0  0  0 15  0  0  0  0  0  0
   43.2399    2.3674    3.1219 H   0  0  0  0  0 15  0  0  0  0  0  0
   44.9369    2.7181    2.9482 H   0  0  0  0  0 15  0  0  0  0  0  0
   41.5269    3.7918    1.9981 H   0  0  0  0  0 15  0  0  0  0  0  0
   45.7109    4.6936    1.6128 H   0  0  0  0  0 15  0  0  0  0  0  0
   40.9669    6.0130    1.1065 H   0  0  0  0  0 15  0  0  0  0  0  0
   45.1409    6.9257    0.7297 H   0  0  0  0  0 15  0  0  0  0  0  0
   42.7679    7.5874    0.4709 H   0  0  0  0  0 15  0  0  0  0  0  0
   44.3430   -0.7638    1.3786 N   0  0  0  0  0 15  0  0  0  0  0  0
   45.6200   -1.5124    1.2403 C   0  0  0  0  0 15  0  0  0  0  0  0
   46.0000   -2.1047   -0.1626 C   0  0  0  0  0 15  0  0  0  0  0  0
   45.3480   -1.9621   -1.1711 O   0  0  0  0  0 15  0  0  0  0  0  0
   45.5580   -2.5869    2.3426 C   0  0  0  0  0 15  0  0  0  0  0  0
   46.9060   -3.2588    2.7219 C   0  0  0  0  0 15  0  0  0  0  0  0
   47.9300   -2.6899    2.3350 O   0  0  0  0  0 15  0  0  0  0  0  0
   46.7890   -4.2874    3.3889 O   0  0  0  0  0 15  0  0  0  0  0  0
   43.8830   -0.6702    0.4845 H   0  0  0  0  0 15  0  0  0  0  0  0
   46.4290   -0.8000    1.4966 H   0  0  0  0  0 15  0  0  0  0  0  0
   45.2010   -2.1310    3.2818 H   0  0  0  0  0 15  0  0  0  0  0  0
   44.8240   -3.3753    2.1015 H   0  0  0  0  0 15  0  0  0  0  0  0
   45.8211   -1.2256   -0.9908 N   0  0  0  0  0 15  0  0  0  0  0  0
   47.0981   -0.9599   -1.7043 C   0  0  0  0  0 15  0  0  0  0  0  0
   47.4781    0.5245   -2.0448 C   0  0  0  0  0 15  0  0  0  0  0  0
   46.8261    1.4930   -1.7298 O   0  0  0  0  0 15  0  0  0  0  0  0
   47.0361   -1.8595   -2.9533 C   0  0  0  0  0 15  0  0  0  0  0  0
   48.3841   -2.1169   -3.6807 C   0  0  0  0  0 15  0  0  0  0  0  0
   49.4081   -1.8342   -3.0535 O   0  0  0  0  0 15  0  0  0  0  0  0
   48.2671   -2.5957   -4.8092 O   0  0  0  0  0 15  0  0  0  0  0  0
   45.3611   -0.3612   -0.7440 H   0  0  0  0  0 15  0  0  0  0  0  0
   47.9071   -1.3355   -1.0470 H   0  0  0  0  0 15  0  0  0  0  0  0
   46.6791   -2.8635   -2.6669 H   0  0  0  0  0 15  0  0  0  0  0  0
   46.3021   -1.4856   -3.6880 H   0  0  0  0  0 15  0  0  0  0  0  0
   47.2992    1.1880   -1.0356 N   0  0  0  0  0 15  0  0  0  0  0  0
   48.2292    2.2447   -0.6430 C   0  0  0  0  0 15  0  0  0  0  0  0
   49.2102    1.6643    0.3513 C   0  0  0  0  0 15  0  0  0  0  0  0
   50.3952    1.9280    0.2325 O   0  0  0  0  0 15  0  0  0  0  0  0
   47.5252    3.4730    0.0000 C   0  0  0  0  0 15  0  0  0  0  0  0
   46.4792    4.1806   -0.9173 C   0  0  0  0  0 15  0  0  0  0  0  0
   45.8052    5.3452   -0.1389 C   0  0  0  0  0 15  0  0  0  0  0  0
   47.1052    4.7211   -2.2341 C   0  0  0  0  0 15  0  0  0  0  0  0
   48.7992    2.5757   -1.5264 H   0  0  0  0  0 15  0  0  0  0  0  0
   46.3452    1.2381   -0.7354 H   0  0  0  0  0 15  0  0  0  0  0  0
   48.2982    4.2043    0.2864 H   0  0  0  0  0 15  0  0  0  0  0  0
   47.0222    3.1342    0.9183 H   0  0  0  0  0 15  0  0  0  0  0  0
   45.6812    3.4682   -1.1879 H   0  0  0  0  0 15  0  0  0  0  0  0
   45.3292    4.9689    0.7816 H   0  0  0  0  0 15  0  0  0  0  0  0
   45.0292    5.8279   -0.7500 H   0  0  0  0  0 15  0  0  0  0  0  0
   46.5532    6.1044    0.1405 H   0  0  0  0  0 15  0  0  0  0  0  0
   47.9672    5.3695   -2.0088 H   0  0  0  0  0 15  0  0  0  0  0  0
   46.3642    5.3090   -2.7977 H   0  0  0  0  0 15  0  0  0  0  0  0
   47.4342    3.8981   -2.8841 H   0  0  0  0  0 15  0  0  0  0  0  0
   48.7773    0.8144    1.3493 N   0  0  0  0  0 15  0  0  0  0  0  0
   50.1883    0.4584    1.8099 C   0  0  0  0  0 15  0  0  0  0  0  0
   50.5393   -1.0204    1.6758 C   0  0  0  0  0 15  0  0  0  0  0  0
   49.6643   -1.7935    1.2109 O   0  0  0  0  0 15  0  0  0  0  0  0
   50.2593    0.8252    3.2860 C   0  0  0  0  0 15  0  0  0  0  0  0
   48.8183    0.5217    3.7277 C   0  0  0  0  0 15  0  0  0  0  0  0
   47.9653    1.0467    2.5679 C   0  0  0  0  0 15  0  0  0  0  0  0
   50.9163    1.0053    1.2280 H   0  0  0  0  0 15  0  0  0  0  0  0
   50.9373    0.1257    3.8029 H   0  0  0  0  0 15  0  0  0  0  0  0
   50.4493    1.9015    3.3832 H   0  0  0  0  0 15  0  0  0  0  0  0
   48.5503   -0.5456    3.6858 H   0  0  0  0  0 15  0  0  0  0  0  0
   48.6633    1.0598    4.6723 H   0  0  0  0  0 15  0  0  0  0  0  0
   47.0273    0.4686    2.5035 H   0  0  0  0  0 15  0  0  0  0  0  0
   47.8103    2.1293    2.6929 H   0  0  0  0  0 15  0  0  0  0  0  0
   50.2554   -1.4699    0.5686 N   0  0  0  0  0 15  0  0  0  0  0  0
   51.2184   -2.2862   -0.1624 C   0  0  0  0  0 15  0  0  0  0  0  0
   52.2184   -1.3760   -0.8321 C   0  0  0  0  0 15  0  0  0  0  0  0
   53.4084   -1.6011   -0.6862 O   0  0  0  0  0 15  0  0  0  0  0  0
   50.5404   -3.1760   -1.2388 C   0  0  0  0  0 15  0  0  0  0  0  0
   51.7334   -2.9472    0.5549 H   0  0  0  0  0 15  0  0  0  0  0  0
   49.2864   -1.5286    0.3260 H   0  0  0  0  0 15  0  0  0  0  0  0
   50.0214   -2.5621   -1.9881 H   0  0  0  0  0 15  0  0  0  0  0  0
   49.8064   -3.8460   -0.7632 H   0  0  0  0  0 15  0  0  0  0  0  0
   51.2964   -3.7908   -1.7519 H   0  0  0  0  0 15  0  0  0  0  0  0
   51.7335   -0.3056   -1.5461 N   0  0  0  0  0 15  0  0  0  0  0  0
   53.0105    0.3557   -1.9234 C   0  0  0  0  0 15  0  0  0  0  0  0
   53.3905    1.7132   -1.2333 C   0  0  0  0  0 15  0  0  0  0  0  0
   52.7385    2.2547   -0.3707 O   0  0  0  0  0 15  0  0  0  0  0  0
   52.9485    0.4657   -3.4588 C   0  0  0  0  0 15  0  0  0  0  0  0
   54.2965    0.7344   -4.1820 C   0  0  0  0  0 15  0  0  0  0  0  0
   55.3205    0.5494   -3.5194 O   0  0  0  0  0 15  0  0  0  0  0  0
   54.1795    1.0902   -5.3551 O   0  0  0  0  0 15  0  0  0  0  0  0
   51.2735    0.1997   -0.8025 H   0  0  0  0  0 15  0  0  0  0  0  0
   53.8195   -0.3540   -1.6597 H   0  0  0  0  0 15  0  0  0  0  0  0
   52.5915   -0.4885   -3.8824 H   0  0  0  0  0 15  0  0  0  0  0  0
   52.2145    1.2237   -3.7830 H   0  0  0  0  0 15  0  0  0  0  0  0
   53.2116    1.5756   -0.0334 N   0  0  0  0  0 15  0  0  0  0  0  0
   54.4576    1.9309    0.6394 C   0  0  0  0  0 15  0  0  0  0  0  0
   54.8126    0.9106    1.6949 C   0  0  0  0  0 15  0  0  0  0  0  0
   54.1056   -0.0728    1.9146 O   0  0  0  0  0 15  0  0  0  0  0  0
   54.2996    3.3311    1.2950 C   0  0  0  0  0 15  0  0  0  0  0  0
   54.1286    4.4867    0.3046 C   0  0  0  0  0 15  0  0  0  0  0  0
   52.8986    5.0521   -0.0971 C   0  0  0  0  0 15  0  0  0  0  0  0
   55.0966    5.1239   -0.4428 C   0  0  0  0  0 15  0  0  0  0  0  0
   53.0786    6.0429   -1.0822 N   0  0  0  0  0 15  0  0  0  0  0  0
   54.4496    6.0661   -1.2816 C   0  0  0  0  0 15  0  0  0  0  0  0
   56.5046    4.9535   -0.5031 C   0  0  0  0  0 15  0  0  0  0  0  0
   55.2076    6.8562   -2.1752 C   0  0  0  0  0 15  0  0  0  0  0  0
   57.2336    5.7498   -1.3840 C   0  0  0  0  0 15  0  0  0  0  0  0
   56.5956    6.6882   -2.2105 C   0  0  0  0  0 15  0  0  0  0  0  0
   52.6946    0.7543    0.2062 H   0  0  0  0  0 15  0  0  0  0  0  0
   55.2786    1.9443   -0.1016 H   0  0  0  0  0 15  0  0  0  0  0  0
   53.4496    3.3258    2.0062 H   0  0  0  0  0 15  0  0  0  0  0  0
   55.1816    3.5597    1.9253 H   0  0  0  0  0 15  0  0  0  0  0  0
   51.9366    4.7278    0.2783 H   0  0  0  0  0 15  0  0  0  0  0  0
   52.3606    6.5852   -1.5712 H   0  0  0  0  0 15  0  0  0  0  0  0
   57.0026    4.2262    0.1217 H   0  0  0  0  0 15  0  0  0  0  0  0
   54.7206    7.5765   -2.8105 H   0  0  0  0  0 15  0  0  0  0  0  0
   58.3066    5.6383   -1.4350 H   0  0  0  0  0 15  0  0  0  0  0  0
   57.1866    7.2936   -2.8812 H   0  0  0  0  0 15  0  0  0  0  0  0
   54.6897   -0.2398    1.5577 N   0  0  0  0  0 15  0  0  0  0  0  0
   55.9357   -0.9682    1.7819 C   0  0  0  0  0 15  0  0  0  0  0  0
   56.2687   -1.8470    0.5999 C   0  0  0  0  0 15  0  0  0  0  0  0
   55.5437   -1.9031   -0.4015 O   0  0  0  0  0 15  0  0  0  0  0  0
   55.8267   -1.8227    3.1056 C   0  0  0  0  0 15  0  0  0  0  0  0
   55.6797   -0.9716    4.3918 C   0  0  0  0  0 15  0  0  0  0  0  0
   56.9987   -2.8039    3.3922 C   0  0  0  0  0 15  0  0  0  0  0  0
   54.1177   -0.3506    0.6483 H   0  0  0  0  0 15  0  0  0  0  0  0
   56.7597   -0.2383    1.8850 H   0  0  0  0  0 15  0  0  0  0  0  0
   54.9097   -2.4451    3.0191 H   0  0  0  0  0 15  0  0  0  0  0  0
   56.5817   -0.3674    4.5983 H   0  0  0  0  0 15  0  0  0  0  0  0
   54.8247   -0.2763    4.3292 H   0  0  0  0  0 15  0  0  0  0  0  0
   55.4957   -1.6035    5.2820 H   0  0  0  0  0 15  0  0  0  0  0  0
   57.9717   -2.2829    3.4789 H   0  0  0  0  0 15  0  0  0  0  0  0
   56.8477   -3.3729    4.3304 H   0  0  0  0  0 15  0  0  0  0  0  0
   57.1087   -3.5721    2.6048 H   0  0  0  0  0 15  0  0  0  0  0  0
   56.1678   -1.4927   -0.5057 N   0  0  0  0  0 15  0  0  0  0  0  0
   57.4078   -1.6013   -1.2704 C   0  0  0  0  0 15  0  0  0  0  0  0
   57.7718   -0.2796   -1.8995 C   0  0  0  0  0 15  0  0  0  0  0  0
   58.9728   -0.2633   -2.6751 O   0  0  0  0  0 15  0  0  0  0  0  0
   57.2438   -2.7251   -2.3125 C   0  0  0  0  0 15  0  0  0  0  0  0
   58.8028   -3.0329   -3.1711 S   0  0  0  0  0 15  0  0  0  0  0  0
   55.6208   -0.5649   -0.4318 H   0  0  0  0  0 15  0  0  0  0  0  0
   58.2228   -1.8690   -0.5734 H   0  0  0  0  0 15  0  0  0  0  0  0
   56.9268   -3.6707   -1.8355 H   0  0  0  0  0 15  0  0  0  0  0  0
   56.4578   -2.4771   -3.0562 H   0  0  0  0  0 15  0  0  0  0  0  0
   58.4728   -2.4445   -4.3181 H   0  0  0  0  0 15  0  0  0  0  0  0
   57.6459    0.7564   -1.3826 N   0  0  0  0  0 15  0  0  0  0  0  0
   59.0569    1.3336   -1.3066 C   0  0  0  0  0 15  0  0  0  0  0  0
   59.4079    1.9616    0.0389 C   0  0  0  0  0 15  0  0  0  0  0  0
   58.5329    1.9487    0.9409 O   0  0  0  0  0 15  0  0  0  0  0  0
   59.1279    2.4248   -2.3662 C   0  0  0  0  0 15  0  0  0  0  0  0
   57.6869    2.9592   -2.3261 C   0  0  0  0  0 15  0  0  0  0  0  0
   56.8339    1.6928   -2.1964 C   0  0  0  0  0 15  0  0  0  0  0  0
   59.7849    0.5555   -1.4866 H   0  0  0  0  0 15  0  0  0  0  0  0
   59.8059    3.2234   -2.0217 H   0  0  0  0  0 15  0  0  0  0  0  0
   59.3179    1.9674   -3.3454 H   0  0  0  0  0 15  0  0  0  0  0  0
   57.4189    3.4600   -1.3827 H   0  0  0  0  0 15  0  0  0  0  0  0
   57.5319    3.5049   -3.2664 H   0  0  0  0  0 15  0  0  0  0  0  0
   55.8959    1.9279   -1.6644 H   0  0  0  0  0 15  0  0  0  0  0  0
   56.6789    1.2562   -3.1949 H   0  0  0  0  0 15  0  0  0  0  0  0
   59.1240    1.2308    0.9843 N   0  0  0  0  0 15  0  0  0  0  0  0
   60.3700    1.0621    1.7276 C   0  0  0  0  0 15  0  0  0  0  0  0
   60.7030   -0.4006    1.9002 C   0  0  0  0  0 15  0  0  0  0  0  0
   59.9780   -1.2967    1.4497 O   0  0  0  0  0 15  0  0  0  0  0  0
   60.2610    1.7837    3.1282 C   0  0  0  0  0 15  0  0  0  0  0  0
   60.1140    3.3230    3.0315 C   0  0  0  0  0 15  0  0  0  0  0  0
   61.4330    1.5431    4.1216 C   0  0  0  0  0 15  0  0  0  0  0  0
   58.5520    0.3873    0.6271 H   0  0  0  0  0 15  0  0  0  0  0  0
   61.1940    1.5154    1.1462 H   0  0  0  0  0 15  0  0  0  0  0  0
   59.3440    1.3985    3.6246 H   0  0  0  0  0 15  0  0  0  0  0  0
   61.0160    3.8032    2.6106 H   0  0  0  0  0 15  0  0  0  0  0  0
   59.2590    3.6153    2.3975 H   0  0  0  0  0 15  0  0  0  0  0  0
   59.9300    3.7797    4.0230 H   0  0  0  0  0 15  0  0  0  0  0  0
   62.4060    1.8779    3.7131 H   0  0  0  0  0 15  0  0  0  0  0  0
   61.2820    2.0728    5.0826 H   0  0  0  0  0 15  0  0  0  0  0  0
   61.5430    0.4776    4.3951 H   0  0  0  0  0 15  0  0  0  0  0  0
   60.6021   -1.1825    1.0419 N   0  0  0  0  0 15  0  0  0  0  0  0
   61.8421   -1.8995    0.7549 C   0  0  0  0  0 15  0  0  0  0  0  0
   62.2061   -1.7861   -0.7045 C   0  0  0  0  0 15  0  0  0  0  0  0
   63.4071   -2.4503   -1.1052 O   0  0  0  0  0 15  0  0  0  0  0  0
   61.6781   -3.3631    1.2097 C   0  0  0  0  0 15  0  0  0  0  0  0
   63.2371   -4.2609    1.0485 S   0  0  0  0  0 15  0  0  0  0  0  0
   60.0551   -0.6559    0.2744 H   0  0  0  0  0 15  0  0  0  0  0  0
   62.6571   -1.4287    1.3344 H   0  0  0  0  0 15  0  0  0  0  0  0
   61.3611   -3.4209    2.2672 H   0  0  0  0  0 15  0  0  0  0  0  0
   60.8921   -3.8842    0.6240 H   0  0  0  0  0 15  0  0  0  0  0  0
   62.9071   -4.9619   -0.0333 H   0  0  0  0  0 15  0  0  0  0  0  0
   62.0802   -0.8215   -1.3449 N   0  0  0  0  0 15  0  0  0  0  0  0
   63.3282   -0.4081   -1.9794 C   0  0  0  0  0 15  0  0  0  0  0  0
   63.6492    1.0319   -1.6546 C   0  0  0  0  0 15  0  0  0  0  0  0
   62.9192    1.7162   -0.9446 O   0  0  0  0  0 15  0  0  0  0  0  0
   61.4992   -0.1479   -0.7322 H   0  0  0  0  0 15  0  0  0  0  0  0
   64.1612   -1.0507   -1.6416 H   0  0  0  0  0 15  0  0  0  0  0  0
   63.2572   -0.5260   -3.0764 H   0  0  0  0  0 15  0  0  0  0  0  0
   63.5583    1.4668   -0.5764 N   0  0  0  0  0 15  0  0  0  0  0  0
   64.5213    2.2871    0.1502 C   0  0  0  0  0 15  0  0  0  0  0  0
   65.5213    1.3804    0.8248 C   0  0  0  0  0 15  0  0  0  0  0  0
   66.7113    1.6048    0.6777 O   0  0  0  0  0 15  0  0  0  0  0  0
   63.8433    3.1825    1.2219 C   0  0  0  0  0 15  0  0  0  0  0  0
   65.0363    2.9442   -0.5705 H   0  0  0  0  0 15  0  0  0  0  0  0
   62.5893    1.5269   -0.3341 H   0  0  0  0  0 15  0  0  0  0  0  0
   63.3243    2.5727    1.9745 H   0  0  0  0  0 15  0  0  0  0  0  0
   63.1093    3.8500    0.7428 H   0  0  0  0  0 15  0  0  0  0  0  0
   64.5993    3.8000    1.7317 H   0  0  0  0  0 15  0  0  0  0  0  0
   65.0364    0.3138    1.5444 N   0  0  0  0  0 15  0  0  0  0  0  0
   66.4474   -0.1762    1.8587 C   0  0  0  0  0 15  0  0  0  0  0  0
   66.7984   -1.5240    1.2356 C   0  0  0  0  0 15  0  0  0  0  0  0
   65.9234   -2.0961    0.5380 O   0  0  0  0  0 15  0  0  0  0  0  0
   66.5184   -0.3266    3.3722 C   0  0  0  0  0 15  0  0  0  0  0  0
   65.0774   -0.7608    3.6863 C   0  0  0  0  0 15  0  0  0  0  0  0
   64.2244    0.1232    2.7703 C   0  0  0  0  0 15  0  0  0  0  0  0
   67.1754    0.5344    1.4943 H   0  0  0  0  0 15  0  0  0  0  0  0
   67.1964   -1.1591    3.6242 H   0  0  0  0  0 15  0  0  0  0  0  0
   66.7084    0.6545    3.8254 H   0  0  0  0  0 15  0  0  0  0  0  0
   64.8094   -1.7520    3.2884 H   0  0  0  0  0 15  0  0  0  0  0  0
   64.9224   -0.5714    4.7568 H   0  0  0  0  0 15  0  0  0  0  0  0
   63.2864   -0.3996    2.5155 H   0  0  0  0  0 15  0  0  0  0  0  0
   64.0694    1.1009    3.2517 H   0  0  0  0  0 15  0  0  0  0  0  0
   66.5145   -1.5754    0.0418 N   0  0  0  0  0 15  0  0  0  0  0  0
   67.4615   -2.1098   -0.9358 C   0  0  0  0  0 15  0  0  0  0  0  0
   68.4315   -1.0149   -1.3149 C   0  0  0  0  0 15  0  0  0  0  0  0
   69.6165   -1.2898   -1.4060 O   0  0  0  0  0 15  0  0  0  0  0  0
   66.7565   -2.6517   -2.2086 C   0  0  0  0  0 15  0  0  0  0  0  0
   65.8695   -3.8871   -1.8848 C   0  0  0  0  0 15  0  0  0  0  0  0
   65.0045   -4.3125   -3.1015 C   0  0  0  0  0 15  0  0  0  0  0  0
   64.0435   -5.4752   -2.7365 C   0  0  0  0  0 15  0  0  0  0  0  0
   63.1805   -5.8516   -3.8798 N   0  0  0  0  0 15  0  0  0  0  0  0
   68.0205   -2.9422   -0.4732 H   0  0  0  0  0 15  0  0  0  0  0  0
   65.5575   -1.4542   -0.2220 H   0  0  0  0  0 15  0  0  0  0  0  0
   67.5155   -2.9468   -2.9533 H   0  0  0  0  0 15  0  0  0  0  0  0
   66.1455   -1.8474   -2.6471 H   0  0  0  0  0 15  0  0  0  0  0  0
   65.1975   -3.6585   -1.0421 H   0  0  0  0  0 15  0  0  0  0  0  0
   66.5095   -4.7325   -1.5761 H   0  0  0  0  0 15  0  0  0  0  0  0
   65.6635   -4.6227   -3.9292 H   0  0  0  0  0 15  0  0  0  0  0  0
   64.4025   -3.4552   -3.4420 H   0  0  0  0  0 15  0  0  0  0  0  0
   63.4075   -5.1619   -1.8929 H   0  0  0  0  0 15  0  0  0  0  0  0
   64.6325   -6.3497   -2.4081 H   0  0  0  0  0 15  0  0  0  0  0  0
   62.5785   -5.0238   -4.2185 H   0  0  0  0  0 15  0  0  0  0  0  0
   62.4955   -6.6436   -3.6078 H   0  0  0  0  0 15  0  0  0  0  0  0
   63.7635   -6.2079   -4.7142 H   0  0  0  0  0 15  0  0  0  0  0  0
   67.9926    0.2315   -1.5589 N   0  0  0  0  0 15  0  0  0  0  0  0
   69.2176    0.9787   -1.8286 C   0  0  0  0  0 15  0  0  0  0  0  0
   69.6426    1.7756   -0.6208 C   0  0  0  0  0 15  0  0  0  0  0  0
   69.0006    1.7612    0.4303 O   0  0  0  0  0 15  0  0  0  0  0  0
   69.0486    1.8800   -3.0772 C   0  0  0  0  0 15  0  0  0  0  0  0
   68.1526    2.9739   -2.8571 O   0  0  0  0  0 15  0  0  0  0  0  0
   67.4936    0.2777   -0.6032 H   0  0  0  0  0 15  0  0  0  0  0  0
   70.0236    0.2478   -2.0309 H   0  0  0  0  0 15  0  0  0  0  0  0
   70.0336    2.2917   -3.3756 H   0  0  0  0  0 15  0  0  0  0  0  0
   68.7086    1.2942   -3.9525 H   0  0  0  0  0 15  0  0  0  0  0  0
   67.2856    2.6024   -2.6708 H   0  0  0  0  0 15  0  0  0  0  0  0
   69.4707    1.4953    0.4978 N   0  0  0  0  0 15  0  0  0  0  0  0
   70.3807    1.6918    1.6253 C   0  0  0  0  0 15  0  0  0  0  0  0
   71.3967    0.5744    1.6425 C   0  0  0  0  0 15  0  0  0  0  0  0
   72.5727    0.8495    1.8261 O   0  0  0  0  0 15  0  0  0  0  0  0
   69.6377    1.7569    2.9889 C   0  0  0  0  0 15  0  0  0  0  0  0
   68.6987    2.9929    3.0777 C   0  0  0  0  0 15  0  0  0  0  0  0
   67.9317    3.0549    4.3762 C   0  0  0  0  0 15  0  0  0  0  0  0
   68.1547    2.1919    5.2660 O   0  0  0  0  0 15  0  0  0  0  0  0
   67.0887    3.9798    4.5155 O   0  0  0  0  0 15  0  0  0  0  0  0
   70.9147    2.6470    1.4889 H   0  0  0  0  0 15  0  0  0  0  0  0
   68.4997    1.3331    0.6744 H   0  0  0  0  0 15  0  0  0  0  0  0
   70.3817    1.8232    3.7992 H   0  0  0  0  0 15  0  0  0  0  0  0
   69.0567    0.8335    3.1279 H   0  0  0  0  0 15  0  0  0  0  0  0
   67.9637    2.9818    2.2591 H   0  0  0  0  0 15  0  0  0  0  0  0
   69.2967    3.9113    2.9880 H   0  0  0  0  0 15  0  0  0  0  0  0
   70.9488   -0.7491    1.3866 N   0  0  0  0  0 15  0  0  0  0  0  0
   72.1958   -1.5083    1.3511 C   0  0  0  0  0 15  0  0  0  0  0  0
   72.5238   -1.9442   -0.0574 C   0  0  0  0  0 15  0  0  0  0  0  0
   71.7788   -1.6607   -1.0354 O   0  0  0  0  0 15  0  0  0  0  0  0
   72.0778   -2.7712    2.2570 C   0  0  0  0  0 15  0  0  0  0  0  0
   71.7438   -2.5248    3.7359 C   0  0  0  0  0 15  0  0  0  0  0  0
   70.4058   -2.4547    4.1388 C   0  0  0  0  0 15  0  0  0  0  0  0
   72.7578   -2.3107    4.6718 C   0  0  0  0  0 15  0  0  0  0  0  0
   70.0858   -2.1506    5.4586 C   0  0  0  0  0 15  0  0  0  0  0  0
   72.4378   -2.0218    5.9942 C   0  0  0  0  0 15  0  0  0  0  0  0
   71.1018   -1.9363    6.3880 C   0  0  0  0  0 15  0  0  0  0  0  0
   70.3718   -0.5519    0.4944 H   0  0  0  0  0 15  0  0  0  0  0  0
   73.0188   -0.8610    1.7105 H   0  0  0  0  0 15  0  0  0  0  0  0
   71.3238   -3.4653    1.8283 H   0  0  0  0  0 15  0  0  0  0  0  0
   73.0208   -3.3510    2.2025 H   0  0  0  0  0 15  0  0  0  0  0  0
   69.6108   -2.5881    3.4164 H   0  0  0  0  0 15  0  0  0  0  0  0
   73.7948   -2.3546    4.3689 H   0  0  0  0  0 15  0  0  0  0  0  0
   69.0508   -2.0695    5.7531 H   0  0  0  0  0 15  0  0  0  0  0  0
   73.2248   -1.8462    6.7148 H   0  0  0  0  0 15  0  0  0  0  0  0
   70.8518   -1.6984    7.4099 H   0  0  0  0  0 15  0  0  0  0  0  0
   72.4269   -1.2360   -0.9778 N   0  0  0  0  0 15  0  0  0  0  0  0
   73.3369   -1.0363   -2.1047 C   0  0  0  0  0 15  0  0  0  0  0  0
   74.3529    0.0199   -1.7399 C   0  0  0  0  0 15  0  0  0  0  0  0
   75.5289   -0.1761   -2.0063 O   0  0  0  0  0 15  0  0  0  0  0  0
   72.5939   -0.6328   -3.4088 C   0  0  0  0  0 15  0  0  0  0  0  0
   71.6549   -1.7644   -3.9137 C   0  0  0  0  0 15  0  0  0  0  0  0
   70.8879   -1.3800   -5.1555 C   0  0  0  0  0 15  0  0  0  0  0  0
   71.1109   -0.2654   -5.6978 O   0  0  0  0  0 15  0  0  0  0  0  0
   70.0449   -2.2020   -5.6017 O   0  0  0  0  0 15  0  0  0  0  0  0
   73.8709   -1.9809   -2.3021 H   0  0  0  0  0 15  0  0  0  0  0  0
   71.4559   -1.0233   -1.0885 H   0  0  0  0  0 15  0  0  0  0  0  0
   73.3379   -0.4188   -4.1931 H   0  0  0  0  0 15  0  0  0  0  0  0
   72.0129    0.2828   -3.2246 H   0  0  0  0  0 15  0  0  0  0  0  0
   70.9199   -2.0330   -3.1404 H   0  0  0  0  0 15  0  0  0  0  0  0
   72.2529   -2.6583   -4.1424 H   0  0  0  0  0 15  0  0  0  0  0  0
   73.9050    1.1769   -1.0482 N   0  0  0  0  0 15  0  0  0  0  0  0
   74.8680    2.1979   -0.6501 C   0  0  0  0  0 15  0  0  0  0  0  0
   75.8680    1.5804    0.2964 C   0  0  0  0  0 15  0  0  0  0  0  0
   77.0580    1.7401    0.0808 O   0  0  0  0  0 15  0  0  0  0  0  0
   74.1900    3.4087    0.0457 C   0  0  0  0  0 15  0  0  0  0  0  0
   75.3830    2.5652   -1.5537 H   0  0  0  0  0 15  0  0  0  0  0  0
   72.9360    1.3171   -0.8416 H   0  0  0  0  0 15  0  0  0  0  0  0
   73.6710    3.0968    0.9627 H   0  0  0  0  0 15  0  0  0  0  0  0
   73.4560    3.8693   -0.6347 H   0  0  0  0  0 15  0  0  0  0  0  0
   74.9460    4.1644    0.3104 H   0  0  0  0  0 15  0  0  0  0  0  0
   75.3831    0.8287    1.3406 N   0  0  0  0  0 15  0  0  0  0  0  0
   76.3461    0.2599    2.2772 C   0  0  0  0  0 15  0  0  0  0  0  0
   77.3461   -0.5655    1.5053 C   0  0  0  0  0 15  0  0  0  0  0  0
   78.5361   -0.3807    1.6999 O   0  0  0  0  0 15  0  0  0  0  0  0
   75.6681   -0.6349    3.3493 C   0  0  0  0  0 15  0  0  0  0  0  0
   76.8611    1.0863    2.7953 H   0  0  0  0  0 15  0  0  0  0  0  0
   74.4141    0.6010    1.4429 H   0  0  0  0  0 15  0  0  0  0  0  0
   75.1491   -1.4842    2.8835 H   0  0  0  0  0 15  0  0  0  0  0  0
   74.9341   -0.0445    3.9207 H   0  0  0  0  0 15  0  0  0  0  0  0
   76.4241   -1.0265    4.0479 H   0  0  0  0  0 15  0  0  0  0  0  0
   76.9001   -1.4432    0.7248 O   0  0  0  0  0 15  0  0  0  0  0  0
   77.5911   -1.9177    0.2731 H   0  0  0  0  0 15  0  0  0  0  0  0
M  END
$$$$
