drugbank_target|P00390 Glutathione reductase, mitochondrial (DB00143; DB00157; DB00262; DB01644; DB02153; DB02553; DB02895; DB03147; DB03310; DB03867; DB07393; DB07714; DB09061; DB09130; DB14009; DB14011)
 OpenBabel12092119363D

  0  0  0     0  0            999 V3000
M  V30 BEGIN CTAB
M  V30 COUNTS 7952 8032 0 0 0
M  V30 BEGIN ATOM
M  V30 1 H -0.908 1.98254 -0.117106 0
M  V30 2 N 0 1.576 0 0
M  V30 3 C 0.933 2.03868 1.02534 0
M  V30 4 C 1.911 0.928543 1.3348 0
M  V30 5 O 3.095 1.19667 1.45644 0
M  V30 6 C 0.222 2.43627 2.35294 0
M  V30 7 C -0.732 3.65373 2.2001 0
M  V30 8 S 0.101 5.13292 1.52614 0
M  V30 9 C 1.257 5.56322 2.86805 0
M  V30 10 H 1.49 2.90518 0.631377 0
M  V30 11 H -0.977 1.52953 0.210867 0
M  V30 12 H 0.981 2.67203 3.11629 0
M  V30 13 H -0.358 1.57376 2.7183 0
M  V30 14 H -1.165 3.90944 3.18086 0
M  V30 15 H -1.563 3.418 1.51819 0
M  V30 16 H 0.729 5.58782 3.83104 0
M  V30 17 H 1.672 6.56266 2.65933 0
M  V30 18 H 2.08 4.83886 2.90714 0
M  V30 19 N 1.4781 -0.272755 1.55222 0
M  V30 20 C 2.4411 -1.32041 1.87344 0
M  V30 21 C 3.4411 -1.42342 0.74803 0
M  V30 22 O 4.6311 -1.41488 1.0162 0
M  V30 23 C 1.7631 -2.70173 2.07893 0
M  V30 24 H 2.9561 -1.04789 2.80997 0
M  V30 25 H 0.5091 -0.51083 1.47717 0
M  V30 26 H 1.2441 -3.02605 1.16622 0
M  V30 27 H 1.0291 -2.64082 2.89833 0
M  V30 28 H 2.5191 -3.45869 2.34017 0
M  V30 29 N 2.9562 -1.48159 -0.537278 0
M  V30 30 C 3.8862 -1.65029 -1.6519 0
M  V30 31 C 4.8672 -0.499281 -1.62607 0
M  V30 32 O 6.0522 -0.730972 -1.79918 0
M  V30 33 C 3.1822 -1.68303 -3.03795 0
M  V30 34 C 2.1362 -2.8283 -3.21234 0
M  V30 35 C 1.4622 -2.71189 -4.60826 0
M  V30 36 C 2.7622 -4.24211 -3.04701 0
M  V30 37 H 4.4562 -2.58341 -1.51328 0
M  V30 38 H 2.0022 -1.24325 -0.726585 0
M  V30 39 H 3.9552 -1.78693 -3.81637 0
M  V30 40 H 2.6792 -0.715635 -3.18663 0
M  V30 41 H 1.3382 -2.71983 -2.45807 0
M  V30 42 H 0.9862 -1.72435 -4.7252 0
M  V30 43 H 0.6862 -3.48035 -4.7344 0
M  V30 44 H 2.2102 -2.83537 -5.40777 0
M  V30 45 H 3.6242 -4.3593 -3.72341 0
M  V30 46 H 2.0212 -5.01998 -3.28813 0
M  V30 47 H 3.0912 -4.41184 -2.01209 0
M  V30 48 N 4.4343 0.785586 -1.36625 0
M  V30 49 C 5.3643 1.91259 -1.33949 0
M  V30 50 C 6.3453 1.68795 -0.210325 0
M  V30 51 O 7.5303 1.89854 -0.408561 0
M  V30 52 C 4.6603 3.28339 -1.13186 0
M  V30 53 C 3.6143 3.65335 -2.22967 0
M  V30 54 C 2.9403 5.00806 -1.87342 0
M  V30 55 C 4.2403 3.7352 -3.65075 0
M  V30 56 H 5.9343 1.93755 -2.28253 0
M  V30 57 H 3.4803 0.930788 -1.09874 0
M  V30 58 H 5.4333 4.06804 -1.09948 0
M  V30 59 H 4.1573 3.2624 -0.153332 0
M  V30 60 H 2.8163 2.89169 -2.25337 0
M  V30 61 H 2.4643 4.95233 -0.880545 0
M  V30 62 H 2.1643 5.26529 -2.60846 0
M  V30 63 H 3.6883 5.81687 -1.85667 0
M  V30 64 H 5.1023 4.42168 -3.64911 0
M  V30 65 H 3.4993 4.10731 -4.37516 0
M  V30 66 H 4.5693 2.74527 -3.99703 0
M  V30 67 N 5.9124 1.20967 1.01018 0
M  V30 68 C 7.3234 1.02319 1.56165 0
M  V30 69 C 7.6744 -0.418546 1.91684 0
M  V30 70 O 6.7994 -1.30096 1.72928 0
M  V30 71 C 7.3944 1.85109 2.8376 0
M  V30 72 C 5.9534 1.70809 3.35412 0
M  V30 73 C 5.1004 1.82643 2.08655 0
M  V30 74 H 8.0514 1.35065 0.833255 0
M  V30 75 H 8.0724 1.35827 3.55431 0
M  V30 76 H 7.5844 2.90035 2.57878 0
M  V30 77 H 5.6854 0.685464 3.66241 0
M  V30 78 H 5.7984 2.52467 4.07182 0
M  V30 79 H 4.1624 1.25896 2.21409 0
M  V30 80 H 4.9454 2.89066 1.85191 0
M  V30 81 N 7.3905 -1.2043 1.01659 0
M  V30 82 C 8.8065 -1.41852 0.731442 0
M  V30 83 C 9.0065 -1.89358 -0.688898 0
M  V30 84 O 8.0625 -2.06247 -1.45666 0
M  V30 85 C 9.3755 -2.44019 1.75714 0
M  V30 86 C 10.9235 -2.57785 1.77527 0
M  V30 87 C 11.3985 -3.63194 2.79023 0
M  V30 88 N 12.8895 -3.70678 2.77763 0
M  V30 89 C 13.6245 -4.51897 3.52954 0
M  V30 90 N 13.1205 -5.36921 4.37821 0
M  V30 91 N 14.9135 -4.4643 3.41551 0
M  V30 92 H 7.0645 -0.879093 1.93354 0
M  V30 93 H 9.3275 -0.448425 0.835236 0
M  V30 94 H 9.0335 -2.1611 2.77469 0
M  V30 95 H 8.9075 -3.43007 1.56927 0
M  V30 96 H 11.2945 -2.85023 0.764569 0
M  V30 97 H 11.3755 -1.58992 2.00387 0
M  V30 98 H 11.0195 -3.36699 3.80258 0
M  V30 99 H 10.9495 -4.61609 2.53425 0
M  V30 100 H 13.4405 -3.09944 2.16201 0
M  V30 101 H 13.7535 -5.95981 4.91962 0
M  V30 102 H 12.0985 -5.36424 4.41899 0
M  V30 103 H 15.2895 -3.79042 2.74672 0
M  V30 104 H 15.4625 -5.09491 4.00404 0
M  V30 105 N 8.8686 -0.792821 -1.36206 0
M  V30 106 C 9.8316 -0.199459 -2.2833 0
M  V30 107 C 10.8316 0.605189 -1.48977 0
M  V30 108 O 12.0216 0.425685 -1.68919 0
M  V30 109 C 9.1536 0.723523 -3.33134 0
M  V30 110 H 10.3466 -1.01181 -2.82316 0
M  V30 111 H 7.8996 -0.562485 -1.45828 0
M  V30 112 H 8.6346 1.56008 -2.84309 0
M  V30 113 H 8.4196 0.148436 -3.91819 0
M  V30 114 H 9.9096 1.13344 -4.01924 0
M  V30 115 N 10.3467 1.47872 -0.545128 0
M  V30 116 C 11.2767 2.32661 0.197793 0
M  V30 117 C 12.2577 1.43041 0.920504 0
M  V30 118 O 13.4427 1.71912 0.90333 0
M  V30 119 C 10.5727 3.24569 1.23582 0
M  V30 120 C 9.5267 4.23333 0.630323 0
M  V30 121 C 8.8527 5.0448 1.77211 0
M  V30 122 C 10.1527 5.20704 -0.407974 0
M  V30 123 H 11.8467 2.95024 -0.510045 0
M  V30 124 H 9.3927 1.4187 -0.246731 0
M  V30 125 H 11.3457 3.8272 1.76362 0
M  V30 126 H 10.0697 2.60236 1.97344 0
M  V30 127 H 8.7287 3.6639 0.123922 0
M  V30 128 H 8.3767 4.36561 2.49847 0
M  V30 129 H 8.0767 5.71339 1.37281 0
M  V30 130 H 9.6007 5.65487 2.3034 0
M  V30 131 H 11.0147 5.7329 0.033305 0
M  V30 132 H 9.4117 5.95699 -0.725486 0
M  V30 133 H 10.4817 4.66917 -1.30828 0
M  V30 134 N 11.8248 0.280983 1.55075 0
M  V30 135 C 13.0498 -0.340154 2.04592 0
M  V30 136 C 13.4748 -1.48246 1.15779 0
M  V30 137 O 12.8328 -1.80614 0.15761 0
M  V30 138 C 12.8808 -0.793104 3.5177 0
M  V30 139 O 11.9848 -1.89981 3.66034 0
M  V30 140 H 11.3258 -0.0694289 0.66036 0
M  V30 141 H 13.8558 0.416993 2.00306 0
M  V30 142 H 13.8658 -1.08729 3.93245 0
M  V30 143 H 12.5408 0.0426163 4.15878 0
M  V30 144 H 11.1178 -1.60771 3.36463 0
M  V30 145 N 13.3029 -1.57598 0.00835791 0
M  V30 146 C 14.2659 -2.07884 -0.965242 0
M  V30 147 C 15.2659 -0.989825 -1.26725 0
M  V30 148 O 16.4559 -1.25218 -1.21104 0
M  V30 149 C 13.5879 -2.52731 -2.28779 0
M  V30 150 H 14.7809 -2.95178 -0.530112 0
M  V30 151 H 12.3339 -1.54458 -0.239283 0
M  V30 152 H 13.0689 -1.68705 -2.76964 0
M  V30 153 H 12.8539 -3.32272 -2.08177 0
M  V30 154 H 14.3439 -2.91933 -2.98605 0
M  V30 155 N 14.781 0.264519 -1.55364 0
M  V30 156 C 16.029 0.993021 -1.76021 0
M  V30 157 C 16.35 1.86511 -0.569099 0
M  V30 158 O 15.62 1.91438 0.415735 0
M  V30 159 H 14.2 0.369639 -0.649135 0
M  V30 160 H 16.862 0.286707 -1.9278 0
M  V30 161 H 15.958 1.62502 -2.66457 0
M  V30 162 N 16.2591 1.48442 0.529413 0
M  V30 163 C 17.2221 1.62524 1.61612 0
M  V30 164 C 18.2221 0.498509 1.52877 0
M  V30 165 O 19.4121 0.76431 1.56537 0
M  V30 166 C 16.5441 1.59597 3.01233 0
M  V30 167 H 17.7371 2.59423 1.50465 0
M  V30 168 H 15.2901 1.37047 0.751514 0
M  V30 169 H 16.0251 0.641781 3.17886 0
M  V30 170 H 15.8101 2.41397 3.08982 0
M  V30 171 H 17.3001 1.72646 3.80241 0
M  V30 172 N 17.7372 -0.778329 1.37039 0
M  V30 173 C 18.9852 -1.53361 1.31623 0
M  V30 174 C 19.3062 -1.94739 -0.100831 0
M  V30 175 O 18.5762 -1.65797 -1.04347 0
M  V30 176 H 17.1562 -0.568794 0.484234 0
M  V30 177 H 19.8182 -0.926742 1.71457 0
M  V30 178 H 18.9142 -2.43606 1.95096 0
M  V30 179 N 19.2153 -1.21501 -1.00376 0
M  V30 180 C 20.6263 -1.03146 -1.55621 0
M  V30 181 C 20.9773 0.408375 -1.91903 0
M  V30 182 O 20.1023 1.29177 -1.73616 0
M  V30 183 C 20.6973 -1.86612 -2.82775 0
M  V30 184 C 19.2563 -1.72586 -3.34501 0
M  V30 185 C 18.4033 -1.83747 -2.07683 0
M  V30 186 H 21.3543 -1.35505 -0.826081 0
M  V30 187 H 21.3753 -1.3771 -3.54706 0
M  V30 188 H 20.8873 -2.91399 -2.56336 0
M  V30 189 H 18.9883 -0.704877 -3.65872 0
M  V30 190 H 19.1013 -2.54623 -4.05837 0
M  V30 191 H 17.4653 -1.27069 -2.20739 0
M  V30 192 H 18.2483 -2.90044 -1.83655 0
M  V30 193 N 20.6934 1.19889 -1.02296 0
M  V30 194 C 21.9184 1.9393 -0.735237 0
M  V30 195 C 22.3434 1.74639 0.698782 0
M  V30 196 O 21.7014 1.04481 1.48167 0
M  V30 197 C 21.7494 3.43916 -1.08417 0
M  V30 198 O 20.8534 4.11917 -0.199446 0
M  V30 199 H 20.1944 0.605645 -0.272196 0
M  V30 200 H 22.7244 1.52137 -1.36804 0
M  V30 201 H 22.7344 3.9456 -1.03856 0
M  V30 202 H 21.4094 3.5728 -2.12894 0
M  V30 203 H 19.9864 3.71666 -0.303136 0
M  V30 204 N 22.1715 0.800033 1.35784 0
M  V30 205 C 23.4175 0.38701 1.99684 0
M  V30 206 C 23.7725 -1.03268 1.62338 0
M  V30 207 O 23.0655 -1.70543 0.87325 0
M  V30 208 C 23.2595 0.500276 3.53881 0
M  V30 209 C 23.0885 1.92942 4.06206 0
M  V30 210 C 21.8585 2.55637 4.35865 0
M  V30 211 C 24.0565 2.89307 4.25213 0
M  V30 212 N 22.0385 3.9003 4.74078 0
M  V30 213 C 23.4095 4.08556 4.66349 0
M  V30 214 C 25.4645 2.86225 4.07406 0
M  V30 215 C 24.1675 5.25146 4.91543 0
M  V30 216 C 26.1935 4.02011 4.33752 0
M  V30 217 C 25.5555 5.20007 4.75155 0
M  V30 218 H 21.6545 0.189252 0.758754 0
M  V30 219 H 24.2385 1.03988 1.64604 0
M  V30 220 H 22.4095 -0.122568 3.88207 0
M  V30 221 H 24.1415 0.0624733 4.04652 0
M  V30 222 H 20.8965 2.07039 4.25948 0
M  V30 223 H 21.3205 4.59205 4.97454 0
M  V30 224 H 25.9625 1.96154 3.74544 0
M  V30 225 H 23.6805 6.15794 5.23281 0
M  V30 226 H 27.2665 4.00999 4.21534 0
M  V30 227 H 26.1465 6.08113 4.95145 0
M  V30 228 N 23.6496 -1.47581 0.552962 0
M  V30 229 C 25.0656 -1.5818 0.212424 0
M  V30 230 C 25.2656 -1.55213 -1.28496 0
M  V30 231 O 24.3216 -1.45329 -2.06484 0
M  V30 232 C 25.6346 -2.88865 0.835318 0
M  V30 233 C 27.1826 -3.0244 0.806156 0
M  V30 234 C 27.6576 -4.35819 1.40804 0
M  V30 235 N 29.1486 -4.42444 1.37103 0
M  V30 236 C 29.8836 -5.44202 1.80641 0
M  V30 237 N 29.3796 -6.52795 2.32015 0
M  V30 238 N 31.1726 -5.35222 1.71738 0
M  V30 239 H 23.3236 -1.47753 1.52587 0
M  V30 240 H 25.5866 -0.702941 0.636064 0
M  V30 241 H 25.2926 -2.9676 1.88749 0
M  V30 242 H 25.1666 -3.7579 0.325848 0
M  V30 243 H 27.5536 -2.94144 -0.237317 0
M  V30 244 H 27.6346 -2.17068 1.35334 0
M  V30 245 H 27.2786 -4.44871 2.45056 0
M  V30 246 H 27.2086 -5.19916 0.836338 0
M  V30 247 H 29.6996 -3.6456 0.995202 0
M  V30 248 H 30.0126 -7.26609 2.63171 0
M  V30 249 H 28.3576 -6.53696 2.36023 0
M  V30 250 H 31.5486 -4.49284 1.31382 0
M  V30 251 H 31.7216 -6.14389 2.05987 0
M  V30 252 N 25.1277 -0.289203 -1.54924 0
M  V30 253 C 26.5437 0.0645403 -1.59469 0
M  V30 254 C 26.7437 1.53419 -1.30632 0
M  V30 255 O 25.7997 2.2852 -1.074 0
M  V30 256 C 27.1127 -0.32278 -2.98963 0
M  V30 257 C 28.6607 -0.270564 -3.11828 0
M  V30 258 C 29.1357 -0.632532 -4.53611 0
M  V30 259 N 30.6267 -0.584617 -4.59496 0
M  V30 260 C 31.3617 -0.837314 -5.67254 0
M  V30 261 N 30.8577 -1.15536 -6.83098 0
M  V30 262 N 32.6507 -0.765166 -5.56868 0
M  V30 263 H 24.8017 -1.24714 -1.71931 0
M  V30 264 H 27.0647 -0.504809 -0.802416 0
M  V30 265 H 26.7707 -1.34541 -3.24948 0
M  V30 266 H 26.6447 0.32944 -3.75759 0
M  V30 267 H 29.0317 0.742805 -2.85598 0
M  V30 268 H 29.1127 -0.957242 -2.37214 0
M  V30 269 H 28.7567 -1.64365 -4.80569 0
M  V30 270 H 28.6867 0.07609 -5.26545 0
M  V30 271 H 31.1777 -0.349248 -3.76283 0
M  V30 272 H 31.4907 -1.33447 -7.61191 0
M  V30 273 H 29.8357 -1.19328 -6.84679 0
M  V30 274 H 33.0267 -0.516432 -4.65243 0
M  V30 275 H 33.1997 -0.965477 -6.40767 0
M  V30 276 N 26.6058 1.57591 -0.0167156 0
M  V30 277 C 27.5688 2.08393 0.954204 0
M  V30 278 C 28.5688 0.996531 1.26198 0
M  V30 279 O 29.7588 1.25858 1.20438 0
M  V30 280 C 26.8908 2.5394 2.27436 0
M  V30 281 H 28.0838 2.95455 0.514451 0
M  V30 282 H 25.6368 1.54582 0.231089 0
M  V30 283 H 26.3718 1.70171 2.76066 0
M  V30 284 H 26.1568 3.33371 2.06412 0
M  V30 285 H 27.6468 2.93512 2.97053 0
M  V30 286 N 28.0839 -0.256276 1.55502 0
M  V30 287 C 29.0469 -1.30047 1.88734 0
M  V30 288 C 30.0469 -1.4154 0.763086 0
M  V30 289 O 31.2369 -1.40403 1.03115 0
M  V30 290 C 28.3689 -2.67953 2.10747 0
M  V30 291 H 29.5619 -1.01802 2.82093 0
M  V30 292 H 27.1149 -0.495134 1.4825 0
M  V30 293 H 27.8499 -3.01351 1.19825 0
M  V30 294 H 27.6349 -2.60993 2.92617 0
M  V30 295 H 29.1249 -3.43368 2.37673 0
M  V30 296 N 29.562 -1.4872 -0.521534 0
M  V30 297 C 30.978 -1.35028 -0.850855 0
M  V30 298 C 31.178 -0.367712 -1.98116 0
M  V30 299 O 30.234 0.208037 -2.51642 0
M  V30 300 C 31.547 -2.75263 -1.21041 0
M  V30 301 C 33.095 -2.83813 -1.31981 0
M  V30 302 C 33.57 -4.24769 -1.71276 0
M  V30 303 N 35.061 -4.27482 -1.78363 0
M  V30 304 C 35.796 -5.33494 -2.1017 0
M  V30 305 N 35.292 -6.49775 -2.40343 0
M  V30 306 N 37.085 -5.20894 -2.11248 0
M  V30 307 H 29.236 -2.11214 0.22413 0
M  V30 308 H 31.499 -0.947252 0.0376439 0
M  V30 309 H 31.205 -3.48765 -0.453415 0
M  V30 310 H 31.079 -3.09327 -2.15863 0
M  V30 311 H 33.466 -2.10561 -2.06756 0
M  V30 312 H 33.547 -2.53358 -0.352596 0
M  V30 313 H 33.191 -4.9854 -0.970588 0
M  V30 314 H 33.121 -4.52673 -2.69062 0
M  V30 315 H 35.612 -3.43611 -1.57288 0
M  V30 316 H 35.925 -7.26402 -2.63743 0
M  V30 317 H 34.27 -6.53035 -2.37844 0
M  V30 318 H 37.461 -4.29065 -1.87139 0
M  V30 319 H 37.634 -6.03612 -2.35704 0
M  V30 320 N 31.0401 0.771051 -1.3745 0
M  V30 321 C 32.0031 1.86598 -1.33093 0
M  V30 322 C 33.0031 1.59076 -0.234845 0
M  V30 323 O 34.1931 1.67145 -0.490732 0
M  V30 324 C 31.3251 3.23747 -1.06773 0
M  V30 325 H 32.5181 1.91873 -2.30488 0
M  V30 326 H 30.0711 0.970876 -1.2249 0
M  V30 327 H 30.8061 3.24148 -0.099129 0
M  V30 328 H 30.5911 3.45115 -1.86112 0
M  V30 329 H 32.0811 4.03824 -1.06377 0
M  V30 330 N 32.5182 1.22032 0.997298 0
M  V30 331 C 33.7652 1.04222 1.73621 0
M  V30 332 C 34.0932 -0.423264 1.89839 0
M  V30 333 O 33.3482 -1.3302 1.43542 0
M  V30 334 C 33.6472 1.69345 3.14733 0
M  V30 335 C 33.3132 3.19226 3.18442 0
M  V30 336 C 31.9752 3.60124 3.19161 0
M  V30 337 C 34.3272 4.15181 3.15078 0
M  V30 338 C 31.6552 4.95467 3.14212 0
M  V30 339 C 34.0072 5.50495 3.1167 0
M  V30 340 C 32.6712 5.90779 3.10703 0
M  V30 341 H 31.9412 0.381374 0.635323 0
M  V30 342 H 34.5882 1.51732 1.16831 0
M  V30 343 H 32.8932 1.14147 3.74803 0
M  V30 344 H 34.5902 1.53059 3.7064 0
M  V30 345 H 31.1802 2.86659 3.18629 0
M  V30 346 H 35.3642 3.84605 3.13676 0
M  V30 347 H 30.6202 5.25916 3.11805 0
M  V30 348 H 34.7942 6.24576 3.08022 0
M  V30 349 H 32.4212 6.9562 3.06622 0
M  V30 350 N 33.9963 -1.19345 1.0293 0
M  V30 351 C 35.4123 -1.41069 0.746446 0
M  V30 352 C 35.6123 -1.90078 -0.668776 0
M  V30 353 O 34.6683 -2.0778 -1.4347 0
M  V30 354 C 35.9813 -2.42141 1.78292 0
M  V30 355 C 37.5293 -2.55887 1.80252 0
M  V30 356 C 38.0043 -3.60214 2.8286 0
M  V30 357 N 39.4953 -3.67711 2.81679 0
M  V30 358 C 40.2303 -4.48128 3.57727 0
M  V30 359 N 39.7263 -5.32248 4.43491 0
M  V30 360 N 41.5193 -4.42782 3.46267 0
M  V30 361 H 33.6703 -0.858536 1.94275 0
M  V30 362 H 35.9333 -0.439541 0.839945 0
M  V30 363 H 35.6393 -2.13155 2.79746 0
M  V30 364 H 35.5133 -3.41323 1.60557 0
M  V30 365 H 37.9003 -2.84196 0.794757 0
M  V30 366 H 37.9813 -1.56858 2.02062 0
M  V30 367 H 37.6253 -3.32647 3.83807 0
M  V30 368 H 37.5553 -4.58895 2.58307 0
M  V30 369 H 40.0463 -3.07634 2.19476 0
M  V30 370 H 40.3593 -5.90729 4.98256 0
M  V30 371 H 38.7043 -5.31707 4.47564 0
M  V30 372 H 41.8953 -3.76107 2.78677 0
M  V30 373 H 42.0683 -5.05215 4.05785 0
M  V30 374 N 35.4744 -0.807222 -1.35358 0
M  V30 375 C 36.7224 -0.387122 -1.98358 0
M  V30 376 C 37.0434 1.04942 -1.64354 0
M  V30 377 O 36.3134 1.72615 -0.926339 0
M  V30 378 H 34.8934 -0.140154 -0.733734 0
M  V30 379 H 37.5554 -1.0332 -1.6526 0
M  V30 380 H 36.6514 -0.493352 -3.08176 0
M  V30 381 N 36.9525 1.47285 -0.560781 0
M  V30 382 C 38.1995 2.02464 -0.038062 0
M  V30 383 C 38.5275 1.43474 1.31322 0
M  V30 384 O 37.7825 0.581311 1.86867 0
M  V30 385 C 38.0815 3.57258 0.100784 0
M  V30 386 C 37.7475 4.35184 -1.18007 0
M  V30 387 C 36.4095 4.56194 -1.53103 0
M  V30 388 C 38.7615 4.80098 -2.02867 0
M  V30 389 C 36.0895 5.19367 -2.729 0
M  V30 390 C 38.4415 5.44593 -3.21871 0
M  V30 391 C 37.1055 5.63835 -3.57276 0
M  V30 392 H 36.3755 0.740869 -0.0139279 0
M  V30 393 H 39.0225 1.76916 -0.733012 0
M  V30 394 H 37.3275 3.81819 0.878724 0
M  V30 395 H 39.0245 3.97606 0.520639 0
M  V30 396 H 35.6145 4.19113 -0.8968 0
M  V30 397 H 39.7985 4.63642 -1.7706 0
M  V30 398 H 35.0545 5.32459 -3.00496 0
M  V30 399 H 39.2285 5.78358 -3.87911 0
M  V30 400 H 36.8555 6.12557 -4.50197 0
M  V30 401 N 38.4306 0.297415 1.54768 0
M  V30 402 C 39.3606 -0.573494 2.26348 0
M  V30 403 C 40.3416 -1.14085 1.26169 0
M  V30 404 O 41.5266 -1.17086 1.54934 0
M  V30 405 C 38.6566 -1.74716 3.00153 0
M  V30 406 C 37.6106 -1.31032 4.07449 0
M  V30 407 C 36.9366 -2.56887 4.68949 0
M  V30 408 C 38.2366 -0.444183 5.20408 0
M  V30 409 H 39.9306 0.0235131 2.99391 0
M  V30 410 H 37.4766 0.0127488 1.43994 0
M  V30 411 H 39.4296 -2.3625 3.48947 0
M  V30 412 H 38.1536 -2.37035 2.24682 0
M  V30 413 H 36.8126 -0.718066 3.59499 0
M  V30 414 H 36.4606 -3.17512 3.90122 0
M  V30 415 H 36.1606 -2.2836 5.41411 0
M  V30 416 H 37.6846 -3.19229 5.20505 0
M  V30 417 H 39.0986 -0.9651 5.65118 0
M  V30 418 H 37.4956 -0.252846 5.99567 0
M  V30 419 H 38.5656 0.531609 4.81977 0
M  V30 420 N 39.9087 -1.5758 0.0250728 0
M  V30 421 C 40.8387 -2.13007 -0.956575 0
M  V30 422 C 41.8197 -1.0452 -1.342 0
M  V30 423 O 43.0047 -1.32332 -1.42133 0
M  V30 424 C 40.1347 -2.65386 -2.24026 0
M  V30 425 C 39.0887 -3.78623 -1.99571 0
M  V30 426 C 38.4147 -4.17414 -3.3417 0
M  V30 427 C 39.7147 -5.04867 -1.33814 0
M  V30 428 H 41.4087 -2.9528 -0.494991 0
M  V30 429 H 38.9547 -1.42042 -0.236651 0
M  V30 430 H 40.9077 -3.02794 -2.93076 0
M  V30 431 H 39.6317 -1.80268 -2.72343 0
M  V30 432 H 38.2907 -3.41646 -1.32941 0
M  V30 433 H 37.9387 -3.29284 -3.80238 0
M  V30 434 H 37.6387 -4.93719 -3.18615 0
M  V30 435 H 39.1627 -4.57402 -4.04495 0
M  V30 436 H 40.5767 -5.39888 -1.92857 0
M  V30 437 H 38.9737 -5.86144 -1.28669 0
M  V30 438 H 40.0437 -4.83904 -0.310561 0
M  V30 439 N 41.3868 0.248026 -1.55636 0
M  V30 440 C 42.3168 1.31079 -1.93237 0
M  V30 441 C 43.2978 1.50264 -0.797174 0
M  V30 442 O 44.4828 1.62891 -1.05737 0
M  V30 443 C 41.6128 2.66575 -2.22609 0
M  V30 444 C 40.5668 2.62087 -3.3837 0
M  V30 445 C 39.8928 4.01369 -3.53281 0
M  V30 446 C 41.1928 2.19171 -4.7409 0
M  V30 447 H 42.8868 0.998556 -2.82257 0
M  V30 448 H 40.4328 0.47891 -1.35803 0
M  V30 449 H 42.3858 3.41057 -2.47503 0
M  V30 450 H 41.1098 2.99432 -1.30414 0
M  V30 451 H 39.7688 1.90063 -3.13483 0
M  V30 452 H 39.4168 4.31489 -2.58508 0
M  V30 453 H 39.1168 3.99254 -4.31127 0
M  V30 454 H 40.6408 4.77552 -3.80495 0
M  V30 455 H 42.0548 2.83384 -4.98363 0
M  V30 456 H 40.4518 2.2817 -5.5503 0
M  V30 457 H 41.5218 1.14336 -4.71227 0
M  V30 458 N 42.8649 1.48995 0.513639 0
M  V30 459 C 43.7949 1.67636 1.62544 0
M  V30 460 C 44.7759 0.525087 1.61793 0
M  V30 461 O 45.9609 0.759502 1.78732 0
M  V30 462 C 43.0909 1.73114 3.01079 0
M  V30 463 C 42.0449 2.87905 3.16693 0
M  V30 464 C 41.3709 2.78486 4.56453 0
M  V30 465 C 42.6709 4.29005 2.97913 0
M  V30 466 H 44.3649 2.60716 1.47198 0
M  V30 467 H 41.9109 1.25465 0.706714 0
M  V30 468 H 43.8639 1.84742 3.78746 0
M  V30 469 H 42.5879 0.766241 3.17484 0
M  V30 470 H 41.2469 2.75859 2.41448 0
M  V30 471 H 40.8949 1.7993 4.69717 0
M  V30 472 H 40.5949 3.55523 4.67843 0
M  V30 473 H 42.1189 2.92104 5.36197 0
M  V30 474 H 43.5329 4.41798 3.65359 0
M  V30 475 H 41.9299 5.07166 3.20785 0
M  V30 476 H 42.9999 4.44329 1.94165 0
M  V30 477 N 44.343 -0.763751 1.37857 0
M  V30 478 C 45.754 -1.3405 1.29952 0
M  V30 479 C 46.105 -1.96138 -0.0492898 0
M  V30 480 O 45.23 -1.94372 -0.951239 0
M  V30 481 C 45.825 -2.43729 2.35333 0
M  V30 482 C 44.384 -2.97151 2.31037 0
M  V30 483 C 43.531 -1.70438 2.18738 0
M  V30 484 H 46.482 -0.563396 1.48363 0
M  V30 485 H 46.503 -3.23412 2.00462 0
M  V30 486 H 46.015 -1.9851 3.33489 0
M  V30 487 H 44.116 -3.46724 1.3643 0
M  V30 488 H 44.229 -3.52221 3.24772 0
M  V30 489 H 42.593 -1.93673 1.65418 0
M  V30 490 H 43.376 -1.27312 3.18821 0
M  V30 491 N 45.8211 -1.22559 -0.990812 0
M  V30 492 C 46.7311 -1.01394 -2.11557 0
M  V30 493 C 47.7471 0.0383962 -1.73958 0
M  V30 494 O 48.9231 -0.154787 -2.00804 0
M  V30 495 C 45.9881 -0.596569 -3.41529 0
M  V30 496 C 45.0491 -1.72276 -3.93217 0
M  V30 497 C 44.2821 -1.32521 -5.16985 0
M  V30 498 O 44.5051 -0.204909 -5.70032 0
M  V30 499 O 43.4391 -2.14247 -5.62478 0
M  V30 500 H 47.2651 -1.95633 -2.32296 0
M  V30 501 H 44.8501 -1.01172 -1.0993 0
M  V30 502 H 46.7321 -0.374263 -4.19735 0
M  V30 503 H 45.4071 0.316939 -3.22145 0
M  V30 504 H 44.3141 -1.99961 -3.16174 0
M  V30 505 H 45.6471 -2.61421 -4.17037 0
M  V30 506 N 47.2992 1.18797 -1.03562 0
M  V30 507 C 48.7102 1.70322 -0.764676 0
M  V30 508 C 49.0612 1.82708 0.714996 0
M  V30 509 O 48.1862 1.50299 1.55689 0
M  V30 510 C 48.7812 3.09356 -1.38145 0
M  V30 511 C 47.3402 3.58114 -1.15895 0
M  V30 512 C 46.4872 2.34798 -1.4753 0
M  V30 513 H 49.4382 1.03543 -1.20268 0
M  V30 514 H 49.4592 3.72378 -0.781977 0
M  V30 515 H 48.9712 3.00309 -2.45837 0
M  V30 516 H 47.0722 3.72464 -0.100544 0
M  V30 517 H 47.1852 4.4184 -1.8524 0
M  V30 518 H 45.5492 2.38464 -0.894829 0
M  V30 519 H 46.3322 2.28375 -2.56319 0
M  V30 520 N 48.7773 0.814389 1.34928 0
M  V30 521 C 49.7403 0.235759 2.27984 0
M  V30 522 C 50.7403 -0.581412 1.49921 0
M  V30 523 O 51.9303 -0.398758 1.69575 0
M  V30 524 C 49.0623 -0.670433 3.34242 0
M  V30 525 H 50.2553 1.05659 2.80671 0
M  V30 526 H 47.8083 0.585614 1.44915 0
M  V30 527 H 48.5433 -1.51466 2.86755 0
M  V30 528 H 48.3283 -0.0860822 3.92005 0
M  V30 529 H 49.8183 -1.06935 4.03676 0
M  V30 530 N 50.2554 -1.46986 0.568584 0
M  V30 531 C 51.2184 -2.28624 -0.162366 0
M  V30 532 C 52.2184 -1.37596 -0.832103 0
M  V30 533 O 53.4084 -1.60115 -0.68622 0
M  V30 534 C 50.5404 -3.17596 -1.23878 0
M  V30 535 H 51.7334 -2.94722 0.554899 0
M  V30 536 H 49.2864 -1.52863 0.325976 0
M  V30 537 H 50.0214 -2.56214 -1.98808 0
M  V30 538 H 49.8064 -3.846 -0.763219 0
M  V30 539 H 51.2964 -3.79078 -1.75185 0
M  V30 540 N 51.7335 -0.305618 -1.54608 0
M  V30 541 C 52.6635 0.561482 -2.26649 0
M  V30 542 C 53.6445 1.13415 -1.26772 0
M  V30 543 O 54.8295 1.16262 -1.55553 0
M  V30 544 C 51.9595 1.73122 -3.01075 0
M  V30 545 C 50.9135 1.2887 -4.08138 0
M  V30 546 C 50.2395 2.54396 -4.70305 0
M  V30 547 C 51.5395 0.416578 -5.20636 0
M  V30 548 H 53.2335 -0.0393902 -2.99374 0
M  V30 549 H 50.7795 -0.020385 -1.43986 0
M  V30 550 H 52.7325 2.34396 -3.50195 0
M  V30 551 H 51.4565 2.3584 -2.25936 0
M  V30 552 H 50.1155 0.698991 -3.59875 0
M  V30 553 H 49.7635 3.15439 -3.918 0
M  V30 554 H 49.4635 2.25486 -5.42614 0
M  V30 555 H 50.9875 3.16464 -5.2219 0
M  V30 556 H 52.4015 0.935116 -5.65622 0
M  V30 557 H 50.7985 0.221046 -5.99693 0
M  V30 558 H 51.8685 -0.557162 -4.81688 0
M  V30 559 N 53.2116 1.57565 -0.0334293 0
M  V30 560 C 54.4396 1.9628 0.654347 0
M  V30 561 C 54.8546 0.910138 1.65414 0
M  V30 562 O 54.2116 -0.107595 1.82183 0
M  V30 563 C 54.2626 3.35067 1.35693 0
M  V30 564 O 53.9836 4.36296 0.397191 0
M  V30 565 C 55.4846 3.88439 2.13613 0
M  V30 566 H 52.7046 0.646369 0.180132 0
M  V30 567 H 55.2486 2.04282 -0.0944721 0
M  V30 568 H 53.4036 3.2827 2.05712 0
M  V30 569 H 53.8176 5.1678 0.896597 0
M  V30 570 H 55.2916 4.8788 2.58219 0
M  V30 571 H 55.7686 3.22914 2.97696 0
M  V30 572 H 56.3746 3.98516 1.48543 0
M  V30 573 N 54.6897 -0.239769 1.55765 0
M  V30 574 C 56.1057 -0.588624 1.48349 0
M  V30 575 C 56.3057 -1.88005 0.72502 0
M  V30 576 O 55.3617 -2.51186 0.257269 0
M  V30 577 C 56.6747 -0.68474 2.928 0
M  V30 578 C 58.2227 -0.77659 3.03213 0
M  V30 579 C 58.6977 -0.904207 4.48986 0
M  V30 580 N 60.1887 -0.968896 4.52953 0
M  V30 581 C 60.9237 -1.08703 5.63002 0
M  V30 582 N 60.4197 -1.17026 6.82845 0
M  V30 583 N 62.2127 -1.12074 5.50814 0
M  V30 584 H 54.3637 0.607911 2.03515 0
M  V30 585 H 56.6267 0.21083 0.924259 0
M  V30 586 H 56.3327 0.194284 3.51163 0
M  V30 587 H 56.2067 -1.55435 3.43686 0
M  V30 588 H 58.5937 -1.64606 2.44926 0
M  V30 589 H 58.6747 0.118315 2.55526 0
M  V30 590 H 58.3187 -0.0392633 5.07885 0
M  V30 591 H 58.2487 -1.81426 4.9436 0
M  V30 592 H 60.7397 -0.915633 3.6664 0
M  V30 593 H 61.0527 -1.25966 7.62465 0
M  V30 594 H 59.3977 -1.13971 6.85591 0
M  V30 595 H 62.5887 -1.05226 4.5612 0
M  V30 596 H 62.7617 -1.20936 6.36615 0
M  V30 597 N 56.1678 -1.49265 -0.50573 0
M  V30 598 C 57.1308 -1.65075 -1.59006 0
M  V30 599 C 58.1308 -0.522768 -1.52065 0
M  V30 600 O 59.3208 -0.789117 -1.55302 0
M  V30 601 C 56.4528 -1.64369 -2.98656 0
M  V30 602 H 57.6458 -2.61784 -1.46319 0
M  V30 603 H 55.1988 -1.38226 -0.729616 0
M  V30 604 H 55.9338 -0.692272 -3.16825 0
M  V30 605 H 55.7188 -2.46282 -3.05103 0
M  V30 606 H 57.2088 -1.78674 -3.77446 0
M  V30 607 N 57.6459 0.756429 -1.3826 0
M  V30 608 C 58.5759 1.88374 -1.37976 0
M  V30 609 C 59.5569 1.68311 -0.246082 0
M  V30 610 O 60.7419 1.88944 -0.44874 0
M  V30 611 C 57.8719 3.25864 -1.20125 0
M  V30 612 C 56.8259 3.60523 -2.30666 0
M  V30 613 C 56.1519 4.9672 -1.97923 0
M  V30 614 C 57.4519 3.65692 -3.72916 0
M  V30 615 H 59.1459 1.88869 -2.32312 0
M  V30 616 H 56.6919 0.907272 -1.11824 0
M  V30 617 H 58.6449 4.0438 -1.18552 0
M  V30 618 H 57.3689 3.25841 -0.222498 0
M  V30 619 H 56.0279 2.84324 -2.3142 0
M  V30 620 H 55.6759 4.93253 -0.985393 0
M  V30 621 H 55.3759 5.20878 -2.71955 0
M  V30 622 H 56.8999 5.77618 -1.97964 0
M  V30 623 H 58.3139 4.34328 -3.74208 0
M  V30 624 H 56.7109 4.01358 -4.4613 0
M  V30 625 H 57.7809 2.65987 -4.05436 0
M  V30 626 N 59.124 1.23083 0.984299 0
M  V30 627 C 60.349 1.088 1.76571 0
M  V30 628 C 60.774 -0.356657 1.84688 0
M  V30 629 O 60.132 -1.25788 1.30565 0
M  V30 630 C 60.18 1.71371 3.17277 0
M  V30 631 O 59.284 0.973213 4.00752 0
M  V30 632 H 58.625 0.381599 0.543395 0
M  V30 633 H 61.155 1.63057 1.23587 0
M  V30 634 H 61.165 1.76449 3.67872 0
M  V30 635 H 59.84 2.76493 3.10684 0
M  V30 636 H 58.417 0.999078 3.59267 0
M  V30 637 N 60.6021 -1.18246 1.0419 0
M  V30 638 C 62.0181 -1.40269 0.761366 0
M  V30 639 C 62.2181 -1.90777 -0.648578 0
M  V30 640 O 61.2741 -2.0929 -1.41258 0
M  V30 641 C 62.5871 -2.40237 1.8085 0
M  V30 642 C 64.1351 -2.53961 1.82955 0
M  V30 643 C 64.6101 -3.57194 2.86664 0
M  V30 644 N 66.1011 -3.64702 2.85563 0
M  V30 645 C 66.8361 -4.44309 3.6246 0
M  V30 646 N 66.3321 -5.27514 4.49111 0
M  V30 647 N 68.1251 -4.39084 3.50944 0
M  V30 648 H 60.2761 -0.837882 1.95175 0
M  V30 649 H 62.5391 -0.430608 0.84456 0
M  V30 650 H 62.2451 -2.10176 2.81991 0
M  V30 651 H 62.1191 -3.39601 1.64168 0
M  V30 652 H 64.5061 -2.83338 0.824855 0
M  V30 653 H 64.5871 -1.54706 2.03715 0
M  V30 654 H 64.2311 -3.28558 3.87314 0
M  V30 655 H 64.1611 -4.5613 2.6316 0
M  V30 656 H 66.6521 -3.05289 2.22727 0
M  V30 657 H 66.9651 -5.85411 5.04493 0
M  V30 658 H 65.3101 -5.2693 4.53178 0
M  V30 659 H 68.5011 -3.7313 2.82651 0
M  V30 660 H 68.6741 -5.00883 4.11121 0
M  V30 661 N 62.0802 -0.821533 -1.34494 0
M  V30 662 C 63.0432 -0.247847 -2.27856 0
M  V30 663 C 64.0432 0.573453 -1.50227 0
M  V30 664 O 65.2332 0.389759 -1.69784 0
M  V30 665 C 62.3652 0.652698 -3.34593 0
M  V30 666 H 63.5582 -1.07146 -2.80107 0
M  V30 667 H 61.1112 -0.593291 -1.44602 0
M  V30 668 H 61.8462 1.49943 -2.87555 0
M  V30 669 H 61.6312 0.065292 -3.92046 0
M  V30 670 H 63.1212 1.04793 -4.04238 0
M  V30 671 N 63.5583 1.46682 -0.576371 0
M  V30 672 C 64.4913 2.27243 0.208731 0
M  V30 673 C 65.4693 1.35238 0.902746 0
M  V30 674 O 66.6533 1.64641 0.917904 0
M  V30 675 C 63.7803 3.12802 1.29896 0
M  V30 676 C 62.8263 4.20524 0.711457 0
M  V30 677 S 63.6593 5.33548 -0.456781 0
M  V30 678 C 64.8153 6.22673 0.634798 0
M  V30 679 H 65.0483 2.93484 -0.474838 0
M  V30 680 H 62.5813 1.50069 -0.363118 0
M  V30 681 H 64.5393 3.62661 1.92321 0
M  V30 682 H 63.2003 2.45887 1.95444 0
M  V30 683 H 62.3933 4.80191 1.53076 0
M  V30 684 H 61.9953 3.73645 0.162999 0
M  V30 685 H 64.2873 6.60181 1.52209 0
M  V30 686 H 65.2303 7.0806 0.0750311 0
M  V30 687 H 65.6383 5.56684 0.936092 0
M  V30 688 N 65.0364 0.313813 1.54444 0
M  V30 689 C 65.9994 -0.54379 2.22656 0
M  V30 690 C 66.9994 -1.05124 1.21678 0
M  V30 691 O 68.1894 -0.945225 1.46325 0
M  V30 692 C 65.3214 -1.75427 2.92298 0
M  V30 693 H 66.5144 0.0523599 2.99854 0
M  V30 694 H 64.0674 0.0647834 1.56166 0
M  V30 695 H 64.8024 -2.38991 2.19211 0
M  V30 696 H 64.5874 -1.39791 3.66334 0
M  V30 697 H 66.0774 -2.36325 3.44297 0
M  V30 698 N 66.5145 -1.57545 0.0417849 0
M  V30 699 C 67.7545 -1.94185 -0.63809 0
M  V30 700 C 68.1185 -0.919339 -1.68559 0
M  V30 701 O 69.3195 -1.17236 -2.41886 0
M  V30 702 C 67.5905 -3.35672 -1.22714 0
M  V30 703 S 69.1495 -3.94256 -1.92633 0
M  V30 704 H 65.9675 -0.679353 -0.209764 0
M  V30 705 H 68.5695 -1.95199 0.108479 0
M  V30 706 H 67.2735 -4.07898 -0.452503 0
M  V30 707 H 66.8045 -3.38132 -2.01073 0
M  V30 708 H 68.8195 -3.7872 -3.20602 0
M  V30 709 N 67.9926 0.231505 -1.5589 0
M  V30 710 C 69.4086 0.580748 -1.48659 0
M  V30 711 C 69.6086 1.87617 -0.73498 0
M  V30 712 O 68.6646 2.51046 -0.270586 0
M  V30 713 C 69.9776 0.669202 -2.93159 0
M  V30 714 C 71.5256 0.760499 -3.03621 0
M  V30 715 C 72.0006 0.880383 -4.49459 0
M  V30 716 N 73.4916 0.944861 -4.53461 0
M  V30 717 C 74.2266 1.05716 -5.63571 0
M  V30 718 N 73.7226 1.13403 -6.83456 0
M  V30 719 N 75.5156 1.09152 -5.514 0
M  V30 720 H 67.6666 -0.618695 -2.03189 0
M  V30 721 H 69.9296 -0.215728 -0.923128 0
M  V30 722 H 69.6356 -0.212904 -3.51055 0
M  V30 723 H 69.5096 1.5361 -3.44505 0
M  V30 724 H 71.8966 1.63305 -2.45796 0
M  V30 725 H 71.9776 -0.131864 -2.5546 0
M  V30 726 H 71.6216 0.0123284 -5.07899 0
M  V30 727 H 71.5516 1.78802 -4.95316 0
M  V30 728 H 74.0426 0.896176 -3.6712 0
M  V30 729 H 74.3556 1.21921 -7.63122 0
M  V30 730 H 72.7006 1.10333 -6.86186 0
M  V30 731 H 75.8916 1.02805 -4.56671 0
M  V30 732 H 76.0646 1.17558 -6.37247 0
M  V30 733 N 69.4707 1.49531 0.497807 0
M  V30 734 C 70.4027 1.62559 1.61578 0
M  V30 735 C 71.4157 0.508134 1.54667 0
M  V30 736 O 72.6047 0.780309 1.60541 0
M  V30 737 C 69.7047 1.56925 3.00379 0
M  V30 738 C 68.8777 2.84257 3.3244 0
M  V30 739 C 67.9367 2.71632 4.50669 0
M  V30 740 O 66.9627 3.4557 4.52294 0
M  V30 741 N 68.1647 1.83391 5.5077 0
M  V30 742 H 70.9297 2.58981 1.50828 0
M  V30 743 H 68.4907 1.4666 0.685743 0
M  V30 744 H 70.4827 1.46129 3.77397 0
M  V30 745 H 69.0527 0.683483 3.05037 0
M  V30 746 H 68.2727 3.09381 2.44289 0
M  V30 747 H 69.5607 3.68666 3.5066 0
M  V30 748 H 68.9587 1.22583 5.52259 0
M  V30 749 H 67.5157 1.78515 6.26878 0
M  V30 750 N 70.9488 -0.749086 1.3866 0
M  V30 751 C 71.8588 -1.89358 1.38494 0
M  V30 752 C 72.8748 -1.71708 0.281476 0
M  V30 753 O 74.0508 -1.94554 0.520643 0
M  V30 754 C 71.1158 -3.24782 1.21316 0
M  V30 755 C 70.1768 -3.54926 2.41508 0
M  V30 756 C 69.4098 -4.83888 2.2514 0
M  V30 757 O 69.6328 -5.56592 1.24746 0
M  V30 758 O 68.5668 -5.13612 3.13826 0
M  V30 759 H 72.3928 -1.92452 2.34938 0
M  V30 760 H 69.9778 -0.894981 1.19626 0
M  V30 761 H 71.8598 -4.05739 1.13814 0
M  V30 762 H 70.5348 -3.2249 0.279592 0
M  V30 763 H 69.4418 -2.74112 2.54585 0
M  V30 764 H 70.7748 -3.61983 3.3351 0
M  V30 765 N 72.4269 -1.23603 -0.977757 0
M  V30 766 C 73.8379 -1.06424 -1.53398 0
M  V30 767 C 74.1889 0.367578 -1.92726 0
M  V30 768 O 73.3139 1.25465 -1.76316 0
M  V30 769 C 73.9089 -1.92568 -2.78753 0
M  V30 770 C 72.4679 -1.79642 -3.30765 0
M  V30 771 C 71.6149 -1.88111 -2.03739 0
M  V30 772 H 74.5659 -1.37227 -0.797152 0
M  V30 773 H 74.5869 -1.45203 -3.51705 0
M  V30 774 H 74.0989 -2.96771 -2.50098 0
M  V30 775 H 72.1999 -0.782325 -3.64294 0
M  V30 776 H 72.3129 -2.63174 -4.00345 0
M  V30 777 H 70.6769 -1.31723 -2.17994 0
M  V30 778 H 71.4599 -2.93875 -1.77461 0
M  V30 779 N 73.905 1.17692 -1.04816 0
M  V30 780 C 74.837 2.21103 -0.603822 0
M  V30 781 C 75.85 1.59411 0.33046 0
M  V30 782 O 77.039 1.7807 0.12379 0
M  V30 783 C 74.139 3.38623 0.136898 0
M  V30 784 C 73.312 4.29888 -0.807137 0
M  V30 785 C 72.371 5.26088 -0.10836 0
M  V30 786 O 71.397 5.64353 -0.741232 0
M  V30 787 N 72.599 5.68882 1.15558 0
M  V30 788 H 75.364 2.59848 -1.49329 0
M  V30 789 H 72.925 1.32553 -0.929587 0
M  V30 790 H 74.917 4.00009 0.614401 0
M  V30 791 H 73.487 2.98508 0.927993 0
M  V30 792 H 72.707 3.65993 -1.46434 0
M  V30 793 H 73.995 4.87759 -1.44807 0
M  V30 794 H 73.393 5.39861 1.69015 0
M  V30 795 H 71.95 6.32429 1.57722 0
M  V30 796 N 75.3831 0.828654 1.34056 0
M  V30 797 C 76.7941 0.477534 1.8049 0
M  V30 798 C 77.1451 -1.00258 1.6865 0
M  V30 799 O 76.2701 -1.78057 1.22982 0
M  V30 800 C 76.8651 0.860018 3.27703 0
M  V30 801 C 75.4241 0.561185 3.72193 0
M  V30 802 C 74.5711 1.07385 2.55663 0
M  V30 803 H 77.5221 1.0183 1.21722 0
M  V30 804 H 77.5431 0.166038 3.80138 0
M  V30 805 H 77.0551 1.93731 3.36288 0
M  V30 806 H 75.1561 -0.506465 3.69142 0
M  V30 807 H 75.2691 1.10926 4.66082 0
M  V30 808 H 73.6331 0.495149 2.49841 0
M  V30 809 H 74.4161 2.15771 2.67016 0
M  V30 810 N 76.8612 -1.46375 0.584142 0
M  V30 811 C 77.7932 -2.28443 -0.186119 0
M  V30 812 C 78.8062 -1.38596 -0.854115 0
M  V30 813 O 79.9952 -1.63183 -0.723438 0
M  V30 814 C 77.0952 -3.13671 -1.28311 0
M  V30 815 C 76.2682 -4.31652 -0.706758 0
M  V30 816 C 75.3272 -4.98267 -1.69163 0
M  V30 817 O 74.3532 -5.55815 -1.22712 0
M  V30 818 N 75.5552 -4.95408 -3.02575 0
M  V30 819 H 78.3202 -2.9519 0.517986 0
M  V30 820 H 75.8812 -1.56303 0.42201 0
M  V30 821 H 77.8732 -3.55101 -1.94128 0
M  V30 822 H 76.4432 -2.48989 -1.89005 0
M  V30 823 H 75.6632 -3.93989 0.128908 0
M  V30 824 H 76.9512 -5.07906 -0.301506 0
M  V30 825 H 76.3492 -4.49902 -3.42936 0
M  V30 826 H 74.9062 -5.40774 -3.63877 0
M  V30 827 N 78.3393 -0.321999 -1.54275 0
M  V30 828 C 79.5873 0.280489 -2.00144 0
M  V30 829 C 79.9083 1.52777 -1.21178 0
M  V30 830 O 79.1783 1.9338 -0.313187 0
M  V30 831 H 77.7583 0.106632 -0.73935 0
M  V30 832 H 80.4203 -0.438184 -1.8991 0
M  V30 833 H 79.5163 0.537972 -3.07428 0
M  V30 834 N 79.8174 1.5752 -0.0501392 0
M  V30 835 C 81.2284 1.80271 0.485705 0
M  V30 836 C 81.5794 0.96228 1.70981 0
M  V30 837 O 80.7044 0.178578 2.15662 0
M  V30 838 C 81.2994 3.26957 0.887938 0
M  V30 839 C 79.8584 3.5063 1.36877 0
M  V30 840 C 79.0054 2.75165 0.343468 0
M  V30 841 H 81.9564 1.56281 -0.276028 0
M  V30 842 H 81.9774 3.37821 1.75093 0
M  V30 843 H 81.4894 3.881 -0.0031809 0
M  V30 844 H 79.5904 2.94766 2.27911 0
M  V30 845 H 79.7034 4.59343 1.36164 0
M  V30 846 H 78.0674 2.4127 0.816128 0
M  V30 847 H 78.8504 3.39034 -0.539548 0
M  V30 848 N 81.2955 -0.223234 1.56011 0
M  V30 849 C 82.7065 -0.790368 1.69145 0
M  V30 850 C 83.0575 -1.85055 0.651845 0
M  V30 851 O 82.1825 -2.15498 -0.197359 0
M  V30 852 C 82.7775 -1.4404 3.06656 0
M  V30 853 C 81.3365 -1.95494 3.2165 0
M  V30 854 C 80.4835 -0.814506 2.65068 0
M  V30 855 H 83.4345 0.00139011 1.587 0
M  V30 856 H 83.4555 -2.30916 3.0242 0
M  V30 857 H 82.9675 -0.668543 3.82298 0
M  V30 858 H 81.0685 -2.75487 2.50874 0
M  V30 859 H 81.1815 -2.13607 4.28846 0
M  V30 860 H 79.5455 -1.22137 2.23505 0
M  V30 861 H 80.3285 -0.0553515 3.43255 0
M  V30 862 N 82.7736 -1.49793 -0.48987 0
M  V30 863 C 84.1846 -1.52914 -1.07118 0
M  V30 864 C 84.5356 -0.321738 -1.93544 0
M  V30 865 O 83.6606 0.567338 -2.08831 0
M  V30 866 C 84.2556 -2.771 -1.94938 0
M  V30 867 C 82.8146 -2.82963 -2.48212 0
M  V30 868 C 81.9616 -2.46972 -1.26096 0
M  V30 869 H 84.9126 -1.56329 -0.273289 0
M  V30 870 H 84.9336 -2.57892 -2.79771 0
M  V30 871 H 84.4456 -3.64959 -1.32009 0
M  V30 872 H 82.5466 -1.99411 -3.14748 0
M  V30 873 H 82.6596 -3.85406 -2.84603 0
M  V30 874 H 81.0236 -1.98994 -1.58976 0
M  V30 875 H 81.8066 -3.37118 -0.648581 0
M  V30 876 N 84.2517 0.741722 -1.39055 0
M  V30 877 C 85.2147 1.83733 -1.37021 0
M  V30 878 C 86.2147 1.58542 -0.268534 0
M  V30 879 O 87.4047 1.66067 -0.526076 0
M  V30 880 C 84.5367 3.2141 -1.13617 0
M  V30 881 H 85.7297 1.86941 -2.34506 0
M  V30 882 H 83.2827 0.944676 -1.24521 0
M  V30 883 H 84.0177 3.23865 -0.167863 0
M  V30 884 H 83.8027 3.4109 -1.93391 0
M  V30 885 H 85.2927 4.01477 -1.14918 0
M  V30 886 N 85.7298 1.2412 0.971189 0
M  V30 887 C 86.6928 1.03156 2.04674 0
M  V30 888 C 87.6928 -0.00990322 1.60797 0
M  V30 889 O 88.8828 0.230729 1.72665 0
M  V30 890 C 86.0148 0.562765 3.36223 0
M  V30 891 H 87.2078 1.98614 2.24705 0
M  V30 892 H 84.7608 1.06293 1.14593 0
M  V30 893 H 85.4958 -0.395176 3.21883 0
M  V30 894 H 85.2808 1.31441 3.69413 0
M  V30 895 H 86.7708 0.437015 4.15307 0
M  V30 896 N 87.2079 -1.17134 1.05439 0
M  V30 897 C 88.4559 -1.87085 0.764429 0
M  V30 898 C 88.7769 -1.81584 -0.710787 0
M  V30 899 O 88.0469 -1.24349 -1.51374 0
M  V30 900 H 86.6269 -0.692627 0.279779 0
M  V30 901 H 89.2889 -1.42087 1.33406 0
M  V30 902 H 88.3849 -2.92759 1.0816 0
M  V30 903 N 88.686 -0.835752 -1.33615 0
M  V30 904 C 89.649 -0.272 -2.2758 0
M  V30 905 C 90.649 0.557487 -1.50827 0
M  V30 906 O 91.839 0.37173 -1.70188 0
M  V30 907 C 88.971 0.617173 -3.35267 0
M  V30 908 H 90.164 -1.10111 -2.78954 0
M  V30 909 H 87.717 -0.608594 -1.43965 0
M  V30 910 H 88.452 1.46884 -2.89129 0
M  V30 911 H 88.237 0.0237066 -3.92093 0
M  V30 912 H 89.727 1.005 -4.05326 0
M  V30 913 N 90.1641 1.46063 -0.591896 0
M  V30 914 C 91.4101 2.02638 -0.0811191 0
M  V30 915 C 91.7431 1.4613 1.27905 0
M  V30 916 O 91.0181 0.629908 1.84017 0
M  V30 917 C 91.3011 3.60091 -0.0252436 0
M  V30 918 C 91.1541 4.26965 -1.41496 0
M  V30 919 C 92.4731 4.3496 0.670685 0
M  V30 920 H 89.5921 0.73635 -0.0309524 0
M  V30 921 H 92.2341 1.741 -0.760859 0
M  V30 922 H 90.3841 3.84535 0.553624 0
M  V30 923 H 92.0561 4.13756 -2.0397 0
M  V30 924 H 90.2991 3.85971 -1.98011 0
M  V30 925 H 90.9701 5.35781 -1.32825 0
M  V30 926 H 93.4461 4.15716 0.178825 0
M  V30 927 H 92.3221 5.44686 0.678837 0
M  V30 928 H 92.5831 4.06685 1.73379 0
M  V30 929 N 91.6422 0.330177 1.54103 0
M  V30 930 C 92.6052 -0.520144 2.2322 0
M  V30 931 C 93.6052 -1.03828 1.22786 0
M  V30 932 O 94.7952 -0.929652 1.4732 0
M  V30 933 C 91.9272 -1.72317 2.94142 0
M  V30 934 H 93.1202 0.0841605 2.99782 0
M  V30 935 H 90.6732 0.0813433 1.56088 0
M  V30 936 H 91.4082 -2.36653 2.21734 0
M  V30 937 H 91.1932 -1.35898 3.67796 0
M  V30 938 H 92.6832 -2.3266 3.46784 0
M  V30 939 N 93.1203 -1.57491 0.0584922 0
M  V30 940 C 94.3453 -1.97711 -0.62652 0
M  V30 941 C 94.7703 -0.936132 -1.63151 0
M  V30 942 O 94.1283 0.099811 -1.81025 0
M  V30 943 C 94.1763 -3.36989 -1.28338 0
M  V30 944 O 93.2803 -3.35433 -2.39913 0
M  V30 945 H 92.6213 -0.643868 -0.162266 0
M  V30 946 H 95.1513 -2.04193 0.129064 0
M  V30 947 H 95.1613 -3.73879 -1.63335 0
M  V30 948 H 93.8363 -4.12289 -0.546889 0
M  V30 949 H 92.4133 -3.10298 -2.06809 0
M  V30 950 N 94.5984 0.214957 -1.56127 0
M  V30 951 C 95.8284 0.953707 -1.8327 0
M  V30 952 C 96.2364 1.78181 -0.636262 0
M  V30 953 O 95.5794 1.79191 0.404516 0
M  V30 954 C 95.6414 1.91516 -3.0424 0
M  V30 955 C 95.3054 1.27094 -4.38972 0
M  V30 956 C 96.3024 0.657575 -5.15725 0
M  V30 957 C 93.9874 1.28073 -4.85698 0
M  V30 958 C 95.9814 0.0625968 -6.37369 0
M  V30 959 C 93.6684 0.681914 -6.07283 0
M  V30 960 C 94.6664 0.0739046 -6.8296 0
M  V30 961 O 94.3544 -0.515582 -8.02245 0
M  V30 962 H 94.0864 0.284764 -0.613095 0
M  V30 963 H 96.6404 0.233283 -2.04071 0
M  V30 964 H 94.8704 2.67475 -2.79274 0
M  V30 965 H 96.5594 2.52001 -3.18198 0
M  V30 966 H 97.3254 0.642288 -4.80728 0
M  V30 967 H 93.2044 1.74337 -4.26764 0
M  V30 968 H 96.7484 -0.412593 -6.96379 0
M  V30 969 H 92.6454 0.694636 -6.41752 0
M  V30 970 H 93.4134 -0.410544 -8.1747 0
M  V30 971 N 96.0765 1.50051 0.48192 0
M  V30 972 C 97.3535 1.51009 1.2432 0
M  V30 973 C 97.7335 0.248587 2.09631 0
M  V30 974 O 97.0815 -0.768409 2.15192 0
M  V30 975 C 97.2915 2.79981 2.08355 0
M  V30 976 C 98.6395 3.3022 2.66908 0
M  V30 977 O 99.6635 2.81228 2.18607 0
M  V30 978 O 98.5225 4.15595 3.54884 0
M  V30 979 H 95.6165 0.605239 0.563573 0
M  V30 980 H 98.1625 1.62332 0.494627 0
M  V30 981 H 96.9345 3.63275 1.45419 0
M  V30 982 H 96.5575 2.7161 2.90368 0
M  V30 983 N 97.5546 -0.734337 1.39446 0
M  V30 984 C 98.7846 -1.52137 1.39778 0
M  V30 985 C 99.1926 -1.89198 -0.00929312 0
M  V30 986 O 98.5356 -1.54666 -0.991168 0
M  V30 987 C 98.5976 -2.83762 2.20724 0
M  V30 988 C 98.2616 -2.69131 3.69347 0
M  V30 989 C 99.2586 -2.37635 4.62413 0
M  V30 990 C 96.9436 -2.85982 4.1294 0
M  V30 991 C 98.9376 -2.23172 5.97054 0
M  V30 992 C 96.6246 -2.71137 5.47657 0
M  V30 993 C 97.6226 -2.39777 6.39528 0
M  V30 994 O 97.3106 -2.25026 7.71763 0
M  V30 995 H 97.0426 -0.476717 0.479288 0
M  V30 996 H 99.5966 -0.915012 1.83893 0
M  V30 997 H 97.8266 -3.4666 1.71359 0
M  V30 998 H 99.5156 -3.45383 2.13226 0
M  V30 999 H 100.282 -2.24267 4.30034 0
M  V30 1000 H 96.1606 -3.09383 3.41765 0
M  V30 1001 H 99.7046 -1.98617 6.68728 0
M  V30 1002 H 95.6016 -2.84083 5.79626 0
M  V30 1003 H 96.3696 -2.40091 7.82495 0
M  V30 1004 N 99.0327 -1.24633 -0.964593 0
M  V30 1005 C 99.9627 -1.06611 -2.07741 0
M  V30 1006 C 100.944 0.0218666 -1.70086 0
M  V30 1007 O 102.129 -0.145793 -1.93652 0
M  V30 1008 C 99.2587 -0.673444 -3.40708 0
M  V30 1009 C 98.2127 -1.71054 -3.92332 0
M  V30 1010 C 97.5387 -1.17285 -5.21678 0
M  V30 1011 C 98.8387 -3.10718 -4.19824 0
M  V30 1012 H 100.533 -1.99693 -2.23076 0
M  V30 1013 H 98.0787 -0.96152 -1.07195 0
M  V30 1014 H 100.032 -0.534345 -4.17998 0
M  V30 1015 H 98.7557 0.293073 -3.25282 0
M  V30 1016 H 97.4147 -1.83791 -3.17201 0
M  V30 1017 H 97.0627 -0.196847 -5.02615 0
M  V30 1018 H 96.7627 -1.86592 -5.57187 0
M  V30 1019 H 98.2867 -1.04593 -6.01575 0
M  V30 1020 H 99.7007 -3.01192 -4.87808 0
M  V30 1021 H 98.0977 -3.77406 -4.66567 0
M  V30 1022 H 99.1677 -3.58524 -3.26479 0
M  V30 1023 N 100.511 1.16574 -1.06058 0
M  V30 1024 C 101.757 1.87324 -0.777022 0
M  V30 1025 C 102.09 1.81351 0.694645 0
M  V30 1026 O 101.365 1.22753 1.50871 0
M  V30 1027 C 101.648 3.36991 -1.26922 0
M  V30 1028 C 101.501 3.51667 -2.80447 0
M  V30 1029 C 102.82 4.3131 -0.87521 0
M  V30 1030 H 99.9388 0.680191 -0.28374 0
M  V30 1031 H 102.581 1.37036 -1.3161 0
M  V30 1032 H 100.731 3.79949 -0.81063 0
M  V30 1033 H 102.403 3.17664 -3.34495 0
M  V30 1034 H 100.646 2.93656 -3.19294 0
M  V30 1035 H 101.317 4.56766 -3.0995 0
M  V30 1036 H 103.793 3.9624 -1.27014 0
M  V30 1037 H 102.669 5.34545 -1.2471 0
M  V30 1038 H 102.93 4.41552 0.220071 0
M  V30 1039 N 101.989 0.842826 1.3317 0
M  V30 1040 C 103.238 0.436738 1.96915 0
M  V30 1041 C 103.551 -1.01025 1.67491 0
M  V30 1042 O 104.757 -1.5212 2.24881 0
M  V30 1043 C 103.213 0.730021 3.52418 0
M  V30 1044 C 102.821 2.19195 3.90714 0
M  V30 1045 C 104.565 0.391076 4.22695 0
M  V30 1046 C 102.472 2.42907 5.39212 0
M  V30 1047 H 101.402 0.15958 0.736919 0
M  V30 1048 H 104.053 1.03196 1.51733 0
M  V30 1049 H 102.435 0.0643755 3.95948 0
M  V30 1050 H 103.609 2.8984 3.58231 0
M  V30 1051 H 101.924 2.49425 3.33431 0
M  V30 1052 H 104.521 0.545817 5.31907 0
M  V30 1053 H 104.864 -0.666294 4.10933 0
M  V30 1054 H 105.397 1.01212 3.84709 0
M  V30 1055 H 102.136 3.47224 5.55982 0
M  V30 1056 H 101.656 1.76827 5.73142 0
M  V30 1057 H 103.335 2.2626 6.06148 0
M  V30 1058 N 103.467 -1.45747 0.599634 0
M  V30 1059 C 104.715 -2.01893 0.0915472 0
M  V30 1060 C 105.036 -1.47155 -1.27946 0
M  V30 1061 O 104.306 -0.66273 -1.84349 0
M  V30 1062 H 102.886 -0.746363 0.0308524 0
M  V30 1063 H 105.548 -1.78645 0.779237 0
M  V30 1064 H 104.644 -3.1208 0.0353086 0
M  V30 1065 N 104.945 -0.338344 -1.53925 0
M  V30 1066 C 106.193 0.259245 -2.0043 0
M  V30 1067 C 106.514 1.51484 -1.22791 0
M  V30 1068 O 105.784 1.93037 -0.33368 0
M  V30 1069 H 104.364 0.0987845 -0.740439 0
M  V30 1070 H 107.026 -0.458302 -1.89435 0
M  V30 1071 H 106.122 0.505334 -3.07982 0
M  V30 1072 N 106.423 1.57458 -0.0668435 0
M  V30 1073 C 107.671 1.92919 0.602214 0
M  V30 1074 C 107.992 0.947215 1.70449 0
M  V30 1075 O 107.262 -0.00544117 1.95899 0
M  V30 1076 H 105.842 0.71217 0.22544 0
M  V30 1077 H 108.504 1.94508 -0.123535 0
M  V30 1078 H 107.6 2.94589 1.03073 0
M  V30 1079 N 107.901 -0.206675 1.56239 0
M  V30 1080 C 109.126 -0.949474 1.8439 0
M  V30 1081 C 109.551 -1.76549 0.649016 0
M  V30 1082 O 108.909 -1.76782 -0.402231 0
M  V30 1083 C 108.957 -1.83078 3.10668 0
M  V30 1084 O 108.061 -2.9281 2.90407 0
M  V30 1085 H 107.402 -0.268033 0.607499 0
M  V30 1086 H 109.932 -0.215488 2.03462 0
M  V30 1087 H 109.942 -2.2377 3.41161 0
M  V30 1088 H 108.617 -1.23112 3.97261 0
M  V30 1089 H 107.194 -2.55956 2.71184 0
M  V30 1090 N 109.379 -1.50304 -0.473955 0
M  V30 1091 C 110.627 -1.60832 -1.22382 0
M  V30 1092 C 110.948 -0.30939 -1.9253 0
M  V30 1093 O 110.218 0.67296 -1.83978 0
M  V30 1094 H 108.798 -0.592652 -0.454723 0
M  V30 1095 H 111.46 -1.87068 -0.546968 0
M  V30 1096 H 110.556 -2.41803 -1.97327 0
M  V30 1097 N 110.857 0.726932 -1.39834 0
M  V30 1098 C 112.105 1.4837 -1.37225 0
M  V30 1099 C 112.426 1.94979 0.0284857 0
M  V30 1100 O 111.696 1.69555 0.981213 0
M  V30 1101 H 110.276 0.55043 -0.505011 0
M  V30 1102 H 112.938 0.862468 -1.74778 0
M  V30 1103 H 112.034 2.36198 -2.04003 0
M  V30 1104 N 112.336 1.25143 0.95797 0
M  V30 1105 C 113.266 1.07711 2.07173 0
M  V30 1106 C 114.247 -0.0128462 1.70095 0
M  V30 1107 O 115.432 0.156061 1.93572 0
M  V30 1108 C 112.562 0.691503 3.40346 0
M  V30 1109 C 111.516 1.73132 3.9142 0
M  V30 1110 C 110.842 1.20049 5.21049 0
M  V30 1111 C 112.142 3.1294 4.1817 0
M  V30 1112 H 113.836 2.00873 2.22014 0
M  V30 1113 H 111.382 0.967191 1.06684 0
M  V30 1114 H 113.335 0.556505 4.17709 0
M  V30 1115 H 112.059 -0.275819 3.25433 0
M  V30 1116 H 110.718 1.8547 3.16222 0
M  V30 1117 H 110.366 0.223499 5.02503 0
M  V30 1118 H 110.066 1.89545 5.56189 0
M  V30 1119 H 111.59 1.07782 6.01012 0
M  V30 1120 H 113.004 3.03775 4.86203 0
M  V30 1121 H 111.401 3.79875 4.64559 0
M  V30 1122 H 112.471 3.6025 3.24573 0
M  V30 1123 N 113.814 -1.1601 1.06675 0
M  V30 1124 C 114.777 -2.18724 0.685001 0
M  V30 1125 C 115.777 -1.58496 -0.271246 0
M  V30 1126 O 116.967 -1.74119 -0.0531156 0
M  V30 1127 C 114.099 -3.40899 0.00853648 0
M  V30 1128 H 115.292 -2.54011 1.59431 0
M  V30 1129 H 112.845 -1.30352 0.862441 0
M  V30 1130 H 113.58 -3.11173 -0.913337 0
M  V30 1131 H 113.365 -3.8587 0.696204 0
M  V30 1132 H 114.855 -4.16886 -0.24414 0
M  V30 1133 N 115.292 -0.849877 -1.32721 0
M  V30 1134 C 116.517 -0.463856 -2.02146 0
M  V30 1135 C 116.942 0.930449 -1.63476 0
M  V30 1136 O 116.3 1.61033 -0.832952 0
M  V30 1137 C 116.348 -0.604955 -3.55489 0
M  V30 1138 O 115.452 0.36425 -4.10788 0
M  V30 1139 H 114.793 -0.187046 -0.637111 0
M  V30 1140 H 117.323 -1.14775 -1.69375 0
M  V30 1141 H 117.333 -0.490696 -4.05038 0
M  V30 1142 H 116.008 -1.62174 -3.82978 0
M  V30 1143 H 114.585 0.206628 -3.72327 0
M  V30 1144 N 116.77 1.45427 -0.607355 0
M  V30 1145 C 117.733 2.28974 0.101693 0
M  V30 1146 C 118.733 1.39754 0.795329 0
M  V30 1147 O 119.923 1.61878 0.643527 0
M  V30 1148 C 117.055 3.20768 1.15414 0
M  V30 1149 H 118.248 2.93147 -0.632844 0
M  V30 1150 H 115.801 1.51945 -0.366391 0
M  V30 1151 H 116.536 2.61395 1.91945 0
M  V30 1152 H 116.321 3.86489 0.66098 0
M  V30 1153 H 117.811 3.83589 1.65073 0
M  V30 1154 N 118.248 0.346503 1.53744 0
M  V30 1155 C 119.664 -0.00530975 1.59599 0
M  V30 1156 C 119.864 -1.48465 1.36236 0
M  V30 1157 O 118.92 -2.24376 1.15808 0
M  V30 1158 C 120.233 0.433516 2.97559 0
M  V30 1159 C 121.781 0.386111 3.10609 0
M  V30 1160 C 122.256 0.800451 4.50951 0
M  V30 1161 N 123.747 0.754753 4.5701 0
M  V30 1162 C 124.482 1.04727 5.63755 0
M  V30 1163 N 123.978 1.4081 6.7834 0
M  V30 1164 N 125.771 0.971316 5.53644 0
M  V30 1165 H 117.922 1.31009 1.67184 0
M  V30 1166 H 120.185 0.534242 0.783128 0
M  V30 1167 H 119.891 1.46509 3.19731 0
M  V30 1168 H 119.765 -0.189753 3.76722 0
M  V30 1169 H 122.152 -0.636295 2.88158 0
M  V30 1170 H 122.233 1.04462 2.33498 0
M  V30 1171 H 121.877 1.82088 4.74137 0
M  V30 1172 H 121.807 0.119386 5.26465 0
M  V30 1173 H 124.298 0.488662 3.74727 0
M  V30 1174 H 124.611 1.61607 7.55714 0
M  V30 1175 H 122.956 1.44657 6.79779 0
M  V30 1176 H 126.147 0.688748 4.63005 0
M  V30 1177 H 126.32 1.20263 6.36742 0
M  V30 1178 N 119.726 -1.57421 0.075193 0
M  V30 1179 C 121.142 -1.57099 -0.281444 0
M  V30 1180 C 121.342 -1.08486 -1.69803 0
M  V30 1181 O 120.398 -0.752279 -2.41033 0
M  V30 1182 C 121.711 -3.00571 -0.0880041 0
M  V30 1183 C 123.259 -3.12605 -0.157281 0
M  V30 1184 C 123.734 -4.57999 0.0079207 0
M  V30 1185 N 125.225 -4.63176 -0.0475725 0
M  V30 1186 C 125.96 -5.73373 0.0557876 0
M  V30 1187 N 125.456 -6.92473 0.21286 0
M  V30 1188 N 127.249 -5.621 -0.00152098 0
M  V30 1189 H 119.4 -1.87335 1.00098 0
M  V30 1190 H 121.663 -0.86377 0.390646 0
M  V30 1191 H 121.369 -3.40262 0.889629 0
M  V30 1192 H 121.243 -3.67754 -0.838875 0
M  V30 1193 H 123.63 -2.72798 -1.1254 0
M  V30 1194 H 123.711 -2.48053 0.62475 0
M  V30 1195 H 123.355 -4.98496 0.972824 0
M  V30 1196 H 123.285 -5.20586 -0.793556 0
M  V30 1197 H 125.776 -3.7753 -0.167244 0
M  V30 1198 H 126.089 -7.72279 0.283781 0
M  V30 1199 H 124.434 -6.94556 0.248267 0
M  V30 1200 H 127.625 -4.67938 -0.122958 0
M  V30 1201 H 127.798 -6.47948 0.0824844 0
M  V30 1202 N 121.204 0.198386 -1.56346 0
M  V30 1203 C 122.167 1.22952 -1.93431 0
M  V30 1204 C 123.167 1.38611 -0.815092 0
M  V30 1205 O 124.357 1.36479 -1.08255 0
M  V30 1206 C 121.489 2.59946 -2.20546 0
M  V30 1207 H 122.682 0.912626 -2.85677 0
M  V30 1208 H 120.235 0.43977 -1.49986 0
M  V30 1209 H 120.97 2.96696 -1.30927 0
M  V30 1210 H 120.755 2.49953 -3.02102 0
M  V30 1211 H 122.245 3.3431 -2.50253 0
M  V30 1212 N 122.682 1.50554 0.465978 0
M  V30 1213 C 123.645 1.69233 1.54574 0
M  V30 1214 C 124.645 0.562901 1.50626 0
M  V30 1215 O 125.835 0.830016 1.53155 0
M  V30 1216 C 122.967 1.7223 2.94193 0
M  V30 1217 H 124.16 2.65571 1.39327 0
M  V30 1218 H 121.713 1.40111 0.692711 0
M  V30 1219 H 122.448 0.77603 3.14878 0
M  V30 1220 H 122.233 2.54285 2.98466 0
M  V30 1221 H 123.723 1.88618 3.72576 0
M  V30 1222 N 124.16 -0.719506 1.40217 0
M  V30 1223 C 125.07 -1.86378 1.42479 0
M  V30 1224 C 126.086 -1.71073 0.317834 0
M  V30 1225 O 127.262 -1.93406 0.561794 0
M  V30 1226 C 124.327 -3.22136 1.28178 0
M  V30 1227 C 123.388 -3.49723 2.48982 0
M  V30 1228 C 122.621 -4.79004 2.35353 0
M  V30 1229 O 122.844 -5.53821 1.36524 0
M  V30 1230 O 121.778 -5.06839 3.2465 0
M  V30 1231 H 125.604 -1.87425 2.38968 0
M  V30 1232 H 123.189 -0.869405 1.21498 0
M  V30 1233 H 125.071 -4.03234 1.22395 0
M  V30 1234 H 123.746 -3.21825 0.347934 0
M  V30 1235 H 122.653 -2.6865 2.60342 0
M  V30 1236 H 123.986 -3.54828 3.41113 0
M  V30 1237 N 125.638 -1.25649 -0.95132 0
M  V30 1238 C 126.568 -1.08808 -2.06599 0
M  V30 1239 C 127.549 0.00382547 -1.701 0
M  V30 1240 O 128.734 -0.166325 -1.93486 0
M  V30 1241 C 125.864 -0.709542 -3.39975 0
M  V30 1242 C 124.818 -1.75206 -3.90496 0
M  V30 1243 C 124.144 -1.22811 -5.20405 0
M  V30 1244 C 125.444 -3.15153 -4.16504 0
M  V30 1245 H 127.138 -2.02048 -2.20946 0
M  V30 1246 H 124.684 -0.972835 -1.06169 0
M  V30 1247 H 126.637 -0.578649 -4.17408 0
M  V30 1248 H 125.361 0.258556 -3.25575 0
M  V30 1249 H 124.02 -1.87145 -3.15234 0
M  V30 1250 H 123.668 -0.250145 -5.02378 0
M  V30 1251 H 123.368 -1.92492 -5.55176 0
M  V30 1252 H 124.892 -1.10968 -6.00432 0
M  V30 1253 H 126.306 -3.06349 -4.84586 0
M  V30 1254 H 124.703 -3.82333 -4.62538 0
M  V30 1255 H 125.773 -3.61966 -3.22658 0
M  V30 1256 N 127.117 1.15442 -1.07289 0
M  V30 1257 C 128.365 1.85845 -0.794096 0
M  V30 1258 C 128.686 1.82692 0.681809 0
M  V30 1259 O 127.956 1.26741 1.49377 0
M  V30 1260 H 126.536 0.688089 -0.290763 0
M  V30 1261 H 129.198 1.39947 -1.3565 0
M  V30 1262 H 128.294 2.91001 -1.12804 0
M  V30 1263 N 128.595 0.856903 1.32268 0
M  V30 1264 C 129.558 0.308171 2.27119 0
M  V30 1265 C 130.558 -0.533421 1.51695 0
M  V30 1266 O 131.748 -0.344607 1.70757 0
M  V30 1267 C 128.88 -0.563757 3.36206 0
M  V30 1268 H 130.073 1.14535 2.77167 0
M  V30 1269 H 127.626 0.631421 1.42978 0
M  V30 1270 H 128.361 -1.42266 2.91429 0
M  V30 1271 H 128.146 0.0386749 3.92081 0
M  V30 1272 H 129.636 -0.940386 4.06874 0
M  V30 1273 N 130.073 -1.45103 0.615059 0
M  V30 1274 C 131.489 -1.57137 0.279322 0
M  V30 1275 C 131.689 -1.60523 -1.21797 0
M  V30 1276 O 130.745 -1.53956 -2.00134 0
M  V30 1277 C 132.058 -2.85062 0.957083 0
M  V30 1278 C 133.606 -2.98749 0.933706 0
M  V30 1279 C 134.081 -4.29455 1.59162 0
M  V30 1280 N 135.572 -4.36231 1.55746 0
M  V30 1281 C 136.307 -5.36051 2.0356 0
M  V30 1282 N 135.803 -6.42367 2.59494 0
M  V30 1283 N 137.596 -5.27456 1.94284 0
M  V30 1284 H 129.747 -1.41148 1.58717 0
M  V30 1285 H 132.01 -0.675331 0.665306 0
M  V30 1286 H 131.716 -2.88488 2.01166 0
M  V30 1287 H 131.59 -3.7407 0.48494 0
M  V30 1288 H 133.977 -2.94886 -0.112347 0
M  V30 1289 H 134.058 -2.11132 1.44419 0
M  V30 1290 H 133.702 -4.34077 2.63704 0
M  V30 1291 H 133.632 -5.15901 1.0561 0
M  V30 1292 H 136.123 -3.60011 1.14893 0
M  V30 1293 H 136.436 -7.14793 2.93752 0
M  V30 1294 H 134.781 -6.43097 2.63537 0
M  V30 1295 H 137.972 -4.43308 1.5032 0
M  V30 1296 H 138.145 -6.05099 2.3186 0
M  V30 1297 N 131.551 -0.354651 -1.53558 0
M  V30 1298 C 132.514 0.484566 -2.24019 0
M  V30 1299 C 133.514 1.01861 -1.24422 0
M  V30 1300 O 134.704 0.906097 -1.4878 0
M  V30 1301 C 131.836 1.67615 -2.96847 0
M  V30 1302 H 133.029 -0.131843 -2.9961 0
M  V30 1303 H 130.582 -0.106165 -1.55939 0
M  V30 1304 H 131.317 2.33095 -2.25471 0
M  V30 1305 H 131.102 1.30029 -3.69912 0
M  V30 1306 H 132.592 2.27114 -3.50441 0
M  V30 1307 N 133.029 1.57378 -0.0835403 0
M  V30 1308 C 133.992 2.12252 0.864959 0
M  V30 1309 C 134.992 1.04916 1.21858 0
M  V30 1310 O 136.182 1.30853 1.14991 0
M  V30 1311 C 133.314 2.63358 2.16461 0
M  V30 1312 H 134.507 2.97371 0.388676 0
M  V30 1313 H 132.06 1.55423 0.165317 0
M  V30 1314 H 132.795 1.81727 2.686 0
M  V30 1315 H 132.58 3.41826 1.92087 0
M  V30 1316 H 134.07 3.05847 2.84337 0
M  V30 1317 N 134.507 -0.190092 1.56449 0
M  V30 1318 C 135.753 -0.911052 1.81184 0
M  V30 1319 C 136.086 -1.82699 0.658396 0
M  V30 1320 O 135.361 -1.91491 -0.340775 0
M  V30 1321 C 135.644 -1.72297 3.16205 0
M  V30 1322 C 135.497 -0.831419 4.42049 0
M  V30 1323 C 136.816 -2.69454 3.47969 0
M  V30 1324 H 133.935 -0.32977 0.659106 0
M  V30 1325 H 136.577 -0.178169 1.89163 0
M  V30 1326 H 134.727 -2.34778 3.09534 0
M  V30 1327 H 136.399 -0.220929 4.60771 0
M  V30 1328 H 134.642 -0.138406 4.33579 0
M  V30 1329 H 135.313 -1.43461 5.33032 0
M  V30 1330 H 137.789 -2.17104 3.54972 0
M  V30 1331 H 136.665 -3.23342 4.43555 0
M  V30 1332 H 136.926 -3.48744 2.71717 0
M  V30 1333 N 135.985 -1.50799 -0.457987 0
M  V30 1334 C 137.231 -1.62683 -1.21088 0
M  V30 1335 C 137.564 -0.332268 -1.91336 0
M  V30 1336 O 136.839 0.667043 -1.82704 0
M  V30 1337 C 137.122 -2.81615 -2.24422 0
M  V30 1338 C 136.975 -4.20989 -1.58392 0
M  V30 1339 C 138.294 -2.96085 -3.2561 0
M  V30 1340 H 135.413 -0.592087 -0.438864 0
M  V30 1341 H 138.055 -1.83225 -0.50286 0
M  V30 1342 H 136.205 -2.64231 -2.84806 0
M  V30 1343 H 137.877 -4.49994 -1.01504 0
M  V30 1344 H 136.12 -4.24641 -0.886704 0
M  V30 1345 H 136.791 -5.0016 -2.33547 0
M  V30 1346 H 139.267 -3.12042 -2.75262 0
M  V30 1347 H 138.143 -3.80902 -3.95228 0
M  V30 1348 H 138.404 -2.0726 -3.90507 0
M  V30 1349 N 137.463 0.71206 -1.40597 0
M  V30 1350 C 138.373 1.8562 -1.43466 0
M  V30 1351 C 139.389 1.70902 -0.326902 0
M  V30 1352 O 140.565 1.93105 -0.572043 0
M  V30 1353 C 137.63 3.21451 -1.29884 0
M  V30 1354 C 136.691 3.48398 -2.50833 0
M  V30 1355 C 135.924 4.77749 -2.3789 0
M  V30 1356 O 136.147 5.53089 -1.39459 0
M  V30 1357 O 135.081 5.05111 -3.27333 0
M  V30 1358 H 138.907 1.86155 -2.39958 0
M  V30 1359 H 136.492 0.86295 -1.21957 0
M  V30 1360 H 138.374 4.02579 -1.24531 0
M  V30 1361 H 137.049 3.21636 -0.364997 0
M  V30 1362 H 135.956 2.67265 -2.61763 0
M  V30 1363 H 137.289 3.53014 -3.4299 0
M  V30 1364 N 138.941 1.26152 0.944643 0
M  V30 1365 C 140.166 1.14363 1.7302 0
M  V30 1366 C 140.591 -0.29772 1.85729 0
M  V30 1367 O 139.949 -1.2157 1.34501 0
M  V30 1368 C 139.997 1.81378 3.11664 0
M  V30 1369 O 139.101 1.10022 3.97453 0
M  V30 1370 H 138.442 0.398694 0.53098 0
M  V30 1371 H 140.972 1.66906 1.18337 0
M  V30 1372 H 140.982 1.88064 3.62072 0
M  V30 1373 H 139.657 2.86237 3.0173 0
M  V30 1374 H 138.234 1.11287 3.55907 0
M  V30 1375 N 140.419 -1.14872 1.07899 0
M  V30 1376 C 141.369 -2.17809 0.674027 0
M  V30 1377 C 142.353 -1.58008 -0.303699 0
M  V30 1378 O 143.545 -1.76616 -0.11654 0
M  V30 1379 C 140.674 -3.43208 0.0793318 0
M  V30 1380 C 139.76 -4.10051 1.08253 0
M  V30 1381 N 140.151 -4.52296 2.2641 0
M  V30 1382 C 138.449 -4.36469 0.917124 0
M  V30 1383 C 139.15 -5.04199 2.901 0
M  V30 1384 N 138.126 -4.98088 2.17736 0
M  V30 1385 H 141.928 -2.48207 1.57386 0
M  V30 1386 H 139.442 -1.315 0.952976 0
M  V30 1387 H 141.439 -4.16272 -0.228719 0
M  V30 1388 H 140.099 -3.14291 -0.815551 0
M  V30 1389 H 141.11 -4.45504 2.64096 0
M  V30 1390 H 137.787 -4.17432 0.0756078 0
M  V30 1391 H 139.177 -5.46802 3.90458 0
M  V30 1392 N 141.898 -0.863906 -1.31812 0
M  V30 1393 C 142.845 -0.313303 -2.28664 0
M  V30 1394 C 143.815 0.584868 -1.55462 0
M  V30 1395 O 145 0.517805 -1.83639 0
M  V30 1396 C 142.14 0.48441 -3.41683 0
M  V30 1397 C 141.253 -0.440594 -4.29747 0
M  V30 1398 C 140.388 0.370652 -5.29905 0
M  V30 1399 C 139.427 -0.551164 -6.09613 0
M  V30 1400 N 138.564 0.223462 -7.01744 0
M  V30 1401 H 143.404 -1.14444 -2.75148 0
M  V30 1402 H 140.941 -0.575769 -1.35364 0
M  V30 1403 H 142.899 0.962627 -4.05943 0
M  V30 1404 H 141.529 1.28029 -2.96325 0
M  V30 1405 H 140.581 -1.03724 -3.65986 0
M  V30 1406 H 141.893 -1.14767 -4.85417 0
M  V30 1407 H 141.047 0.911638 -5.99812 0
M  V30 1408 H 139.786 1.11105 -4.74876 0
M  V30 1409 H 138.791 -1.10396 -5.38603 0
M  V30 1410 H 140.016 -1.29032 -6.66729 0
M  V30 1411 H 137.962 0.946787 -6.49132 0
M  V30 1412 H 137.879 -0.424399 -7.54808 0
M  V30 1413 H 139.147 0.745876 -7.75923 0
M  V30 1414 N 143.376 1.44774 -0.622745 0
M  V30 1415 C 144.306 2.33382 0.0741861 0
M  V30 1416 C 145.287 1.47719 0.843387 0
M  V30 1417 O 146.472 1.76458 0.810934 0
M  V30 1418 C 143.602 3.30663 1.06204 0
M  V30 1419 C 142.556 4.26079 0.405037 0
M  V30 1420 C 141.882 5.13165 1.5022 0
M  V30 1421 C 143.182 5.1781 -0.683414 0
M  V30 1422 H 144.876 2.91905 -0.665713 0
M  V30 1423 H 142.422 1.40363 -0.321587 0
M  V30 1424 H 144.375 3.9153 1.55827 0
M  V30 1425 H 143.099 2.70331 1.83272 0
M  V30 1426 H 141.758 3.66532 -0.0704683 0
M  V30 1427 H 141.406 4.49191 2.26355 0
M  V30 1428 H 141.106 5.77812 1.06803 0
M  V30 1429 H 142.63 5.76902 2.00041 0
M  V30 1430 H 144.044 5.72661 -0.270631 0
M  V30 1431 H 142.441 5.91015 -1.04023 0
M  V30 1432 H 143.511 4.59326 -1.55395 0
M  V30 1433 N 144.854 0.36279 1.53368 0
M  V30 1434 C 146.102 -0.227326 2.00817 0
M  V30 1435 C 146.423 -1.49511 1.25186 0
M  V30 1436 O 145.693 -1.92482 0.364348 0
M  V30 1437 H 144.273 -0.0869923 0.741917 0
M  V30 1438 H 146.935 0.488381 1.88682 0
M  V30 1439 H 146.031 -0.456273 3.08747 0
M  V30 1440 N 146.332 -1.57332 0.0918853 0
M  V30 1441 C 147.58 -1.93853 -0.571446 0
M  V30 1442 C 147.901 -0.974212 -1.6892 0
M  V30 1443 O 147.171 -0.0257254 -1.95883 0
M  V30 1444 H 145.751 -0.715666 -0.214082 0
M  V30 1445 H 148.413 -1.94287 0.154464 0
M  V30 1446 H 147.509 -2.96191 -0.983729 0
M  V30 1447 N 147.81 0.181792 -1.56548 0
M  V30 1448 C 149.038 0.915947 -1.85521 0
M  V30 1449 C 149.453 1.76282 -0.676016 0
M  V30 1450 O 148.81 1.79012 0.355077 0
M  V30 1451 C 148.861 1.80126 -3.13427 0
M  V30 1452 O 148.582 0.988562 -4.26801 0
M  V30 1453 C 150.083 2.64597 -3.55673 0
M  V30 1454 H 147.303 0.26661 -0.61576 0
M  V30 1455 H 149.847 0.185039 -2.03661 0
M  V30 1456 H 148.002 2.48563 -2.97145 0
M  V30 1457 H 148.416 1.59308 -4.99721 0
M  V30 1458 H 149.89 3.2235 -4.48101 0
M  V30 1459 H 150.367 3.38958 -2.79292 0
M  V30 1460 H 150.973 2.0151 -3.74532 0
M  V30 1461 N 149.288 1.51039 0.449983 0
M  V30 1462 C 150.528 1.64732 1.21007 0
M  V30 1463 C 150.892 0.349865 1.88785 0
M  V30 1464 O 152.093 0.362431 2.66345 0
M  V30 1465 C 150.364 2.80902 2.20973 0
M  V30 1466 S 151.923 3.14851 3.05638 0
M  V30 1467 H 148.741 0.5805 0.410538 0
M  V30 1468 H 151.343 1.88901 0.503634 0
M  V30 1469 H 150.047 3.73627 1.69796 0
M  V30 1470 H 149.578 2.58882 2.96215 0
M  V30 1471 H 151.593 2.60306 4.22439 0
M  V30 1472 N 150.766 -0.704594 1.40972 0
M  V30 1473 C 152.012 -1.46675 1.40051 0
M  V30 1474 C 152.345 -1.94199 0.00641102 0
M  V30 1475 O 151.62 -1.68916 -0.964235 0
M  V30 1476 C 151.903 -2.68505 2.39952 0
M  V30 1477 C 151.756 -2.26805 3.88432 0
M  V30 1478 C 153.075 -3.70686 2.37233 0
M  V30 1479 H 150.194 -0.532015 0.510028 0
M  V30 1480 H 152.836 -0.803255 1.72185 0
M  V30 1481 H 150.986 -3.25114 2.1268 0
M  V30 1482 H 152.658 -1.75592 4.26574 0
M  V30 1483 H 150.901 -1.58685 4.03734 0
M  V30 1484 H 151.572 -3.14181 4.53866 0
M  V30 1485 H 154.048 -3.23731 2.61415 0
M  V30 1486 H 152.924 -4.53553 3.09162 0
M  V30 1487 H 153.185 -4.19754 1.38777 0
M  V30 1488 N 152.244 -1.26651 -0.937939 0
M  V30 1489 C 153.192 -1.08308 -2.05845 0
M  V30 1490 C 154.186 -0.0090757 -1.69398 0
M  V30 1491 O 155.392 -0.166007 -1.79233 0
M  V30 1492 H 151.767 -0.333416 -0.674046 0
M  V30 1493 H 153.738 -2.03261 -2.18467 0
M  V30 1494 C 152.487 -0.736229 -3.39816 0
M  V30 1495 H 151.81 -1.55453 -3.6834 0
M  V30 1496 H 153.25 -0.64769 -4.19024 0
M  V30 1497 C 151.709 0.558824 -3.32233 0
M  V30 1498 O 152.239 1.59621 -3.68624 0
M  V30 1499 N 150.445 0.550657 -2.85335 0
M  V30 1500 H 149.992 -0.293943 -2.55917 0
M  V30 1501 H 149.95 1.41726 -2.80644 0
M  V30 1502 N 153.722 1.14298 -1.08507 0
M  V30 1503 C 154.968 1.85633 -0.816581 0
M  V30 1504 C 155.301 1.82784 0.656021 0
M  V30 1505 O 154.576 1.25926 1.48233 0
M  V30 1506 C 154.859 3.34223 -1.34041 0
M  V30 1507 C 154.712 3.45639 -2.87843 0
M  V30 1508 C 156.031 4.29356 -0.9665 0
M  V30 1509 H 153.15 0.67402 -0.298104 0
M  V30 1510 H 155.792 1.34214 -1.34487 0
M  V30 1511 H 153.942 3.78144 -0.89104 0
M  V30 1512 H 155.614 3.10498 -3.41158 0
M  V30 1513 H 153.857 2.86817 -3.25451 0
M  V30 1514 H 154.528 4.50089 -3.19569 0
M  V30 1515 H 157.004 3.93457 -1.35391 0
M  V30 1516 H 155.88 5.3178 -1.3602 0
M  V30 1517 H 156.141 4.41919 0.126362 0
M  V30 1518 N 155.201 0.870884 1.31352 0
M  V30 1519 C 156.449 0.48132 1.96285 0
M  V30 1520 C 156.77 -0.969813 1.69173 0
M  V30 1521 O 156.04 -1.67998 1.00764 0
M  V30 1522 H 154.62 0.175002 0.726212 0
M  V30 1523 H 157.282 1.11087 1.60143 0
M  V30 1524 H 156.378 0.639825 3.05471 0
M  V30 1525 N 156.679 -1.44442 0.630414 0
M  V30 1526 C 157.919 -2.03934 0.137919 0
M  V30 1527 C 158.283 -1.48509 -1.21692 0
M  V30 1528 O 159.484 -1.99499 -1.80149 0
M  V30 1529 C 157.755 -3.57187 0.123373 0
M  V30 1530 S 159.314 -4.37741 -0.304604 0
M  V30 1531 H 156.132 -0.708401 0.0607353 0
M  V30 1532 H 158.734 -1.76835 0.833643 0
M  V30 1533 H 157.438 -3.95032 1.11256 0
M  V30 1534 H 156.969 -3.88895 -0.59362 0
M  V30 1535 H 158.984 -4.71403 -1.54897 0
M  V30 1536 N 158.157 -0.370918 -1.53173 0
M  V30 1537 C 159.403 0.217423 -2.01631 0
M  V30 1538 C 159.736 1.47983 -1.25756 0
M  V30 1539 O 159.011 1.91274 -0.352764 0
M  V30 1540 C 159.294 0.503982 -3.56556 0
M  V30 1541 C 159.147 -0.77243 -4.43118 0
M  V30 1542 C 160.466 1.30234 -4.20389 0
M  V30 1543 H 157.585 0.0775486 -0.732909 0
M  V30 1544 H 160.227 -0.496863 -1.83388 0
M  V30 1545 H 158.377 1.11248 -3.72231 0
M  V30 1546 H 160.049 -1.4098 -4.39229 0
M  V30 1547 H 158.292 -1.39167 -4.10871 0
M  V30 1548 H 158.963 -0.526815 -5.4948 0
M  V30 1549 H 161.439 0.787546 -4.08579 0
M  V30 1550 H 160.315 1.47158 -5.28806 0
M  V30 1551 H 160.576 2.31237 -3.76805 0
M  V30 1552 N 159.635 1.57281 -0.100228 0
M  V30 1553 C 161.046 1.81725 0.428107 0
M  V30 1554 C 161.397 1.01619 1.67833 0
M  V30 1555 O 160.522 0.247098 2.14985 0
M  V30 1556 C 161.117 3.29617 0.78347 0
M  V30 1557 C 159.676 3.54808 1.25653 0
M  V30 1558 C 158.823 2.76118 0.255752 0
M  V30 1559 H 161.774 1.55324 -0.325608 0
M  V30 1560 H 161.795 3.4322 1.64256 0
M  V30 1561 H 161.307 3.87893 -0.12665 0
M  V30 1562 H 159.408 3.01868 2.18418 0
M  V30 1563 H 159.521 4.63443 1.21482 0
M  V30 1564 H 157.885 2.43745 0.738956 0
M  V30 1565 H 158.668 3.37145 -0.647136 0
M  V30 1566 N 161.113 -0.173488 1.56642 0
M  V30 1567 C 162.06 -1.21482 1.96242 0
M  V30 1568 C 163.03 -1.44104 0.826027 0
M  V30 1569 O 164.215 -1.5688 1.08597 0
M  V30 1570 C 161.355 -2.54964 2.32567 0
M  V30 1571 C 160.468 -2.39739 3.59373 0
M  V30 1572 C 159.603 -3.66072 3.84921 0
M  V30 1573 C 158.642 -3.45771 5.05083 0
M  V30 1574 N 157.779 -4.64169 5.26775 0
M  V30 1575 H 162.619 -0.870123 2.85014 0
M  V30 1576 H 160.156 -0.418245 1.41029 0
M  V30 1577 H 162.114 -3.32758 2.5165 0
M  V30 1578 H 160.744 -2.87433 1.46908 0
M  V30 1579 H 159.796 -1.53131 3.48217 0
M  V30 1580 H 161.108 -2.20683 4.47326 0
M  V30 1581 H 160.262 -4.52303 4.0436 0
M  V30 1582 H 159.001 -3.88105 2.9534 0
M  V30 1583 H 158.006 -2.57927 4.85545 0
M  V30 1584 H 159.231 -3.25163 5.96193 0
M  V30 1585 H 157.177 -4.86425 4.40144 0
M  V30 1586 H 157.094 -4.48019 6.08946 0
M  V30 1587 H 158.362 -5.51689 5.5069 0
M  V30 1588 N 162.591 -1.51276 -0.441967 0
M  V30 1589 C 163.538 -1.72256 -1.53612 0
M  V30 1590 C 164.508 -0.564164 -1.56225 0
M  V30 1591 O 165.693 -0.798074 -1.73307 0
M  V30 1592 C 162.833 -1.84932 -2.91366 0
M  V30 1593 C 161.946 -3.12459 -2.98317 0
M  V30 1594 C 161.081 -3.15758 -4.27166 0
M  V30 1595 C 160.12 -4.37619 -4.27967 0
M  V30 1596 N 159.257 -4.38493 -5.48333 0
M  V30 1597 H 164.097 -2.65654 -1.35026 0
M  V30 1598 H 161.634 -1.31662 -0.656009 0
M  V30 1599 H 163.592 -1.90263 -3.7129 0
M  V30 1600 H 162.222 -0.949461 -3.08521 0
M  V30 1601 H 161.274 -3.1646 -2.11086 0
M  V30 1602 H 162.586 -4.02382 -2.94771 0
M  V30 1603 H 161.74 -3.19979 -5.15459 0
M  V30 1604 H 160.479 -2.23715 -4.33362 0
M  V30 1605 H 159.484 -4.33579 -3.38067 0
M  V30 1606 H 160.709 -5.30921 -4.23438 0
M  V30 1607 H 158.655 -3.49318 -5.55259 0
M  V30 1608 H 158.572 -5.22219 -5.46647 0
M  V30 1609 H 159.84 -4.469 -6.38671 0
M  V30 1610 N 164.069 0.697108 -1.41344 0
M  V30 1611 C 165.315 1.4593 -1.40827 0
M  V30 1612 C 165.648 1.94193 -0.0167098 0
M  V30 1613 O 164.923 1.69425 0.955263 0
M  V30 1614 C 165.206 2.67229 -2.41373 0
M  V30 1615 C 165.059 2.24741 -3.8963 0
M  V30 1616 C 166.378 3.69423 -2.39196 0
M  V30 1617 H 163.497 0.529303 -0.512842 0
M  V30 1618 H 166.139 0.794112 -1.72609 0
M  V30 1619 H 164.289 3.23982 -2.14401 0
M  V30 1620 H 165.961 1.73327 -4.27499 0
M  V30 1621 H 164.204 1.56542 -4.0457 0
M  V30 1622 H 164.875 3.1177 -4.55525 0
M  V30 1623 H 167.351 3.2234 -2.63128 0
M  V30 1624 H 166.227 4.51907 -3.11563 0
M  V30 1625 H 166.488 4.19012 -1.41001 0
M  V30 1626 N 165.547 1.27147 0.931209 0
M  V30 1627 C 166.48 1.0389 2.0318 0
M  V30 1628 C 167.458 -0.0395716 1.62552 0
M  V30 1629 O 168.642 0.104867 1.88208 0
M  V30 1630 C 165.769 0.575227 3.3378 0
M  V30 1631 C 164.815 1.64774 3.93385 0
M  V30 1632 S 165.648 3.23933 4.26413 0
M  V30 1633 C 166.804 2.79358 5.60098 0
M  V30 1634 H 167.037 1.97075 2.22596 0
M  V30 1635 H 164.57 1.10938 1.07387 0
M  V30 1636 H 166.528 0.314385 4.09294 0
M  V30 1637 H 165.189 -0.336505 3.12292 0
M  V30 1638 H 164.382 1.27454 4.87618 0
M  V30 1639 H 163.984 1.86048 3.24441 0
M  V30 1640 H 166.276 2.24443 6.39243 0
M  V30 1641 H 167.219 3.72322 6.02314 0
M  V30 1642 H 167.627 2.1861 5.20452 0
M  V30 1643 N 167.025 -1.13721 1.09112 0
M  V30 1644 C 168.271 -1.85413 0.836283 0
M  V30 1645 C 168.626 -1.8175 -0.631249 0
M  V30 1646 O 167.919 -1.24238 -1.45861 0
M  V30 1647 C 168.113 -3.32861 1.30146 0
M  V30 1648 C 167.942 -3.50882 2.81268 0
M  V30 1649 C 166.712 -3.65312 3.49106 0
M  V30 1650 C 168.91 -3.47196 3.7942 0
M  V30 1651 N 166.892 -3.71563 4.88686 0
M  V30 1652 C 168.263 -3.59777 5.04936 0
M  V30 1653 C 170.318 -3.30577 3.72321 0
M  V30 1654 C 169.021 -3.57455 6.24194 0
M  V30 1655 C 171.047 -3.29562 4.91063 0
M  V30 1656 C 170.409 -3.42691 6.15421 0
M  V30 1657 H 166.508 -0.694812 0.358832 0
M  V30 1658 H 169.092 -1.36246 1.39087 0
M  V30 1659 H 167.263 -3.80602 0.774361 0
M  V30 1660 H 168.995 -3.92346 0.99229 0
M  V30 1661 H 165.75 -3.6685 2.9953 0
M  V30 1662 H 166.174 -3.78387 5.61384 0
M  V30 1663 H 170.816 -3.19332 2.77105 0
M  V30 1664 H 168.534 -3.67475 7.19714 0
M  V30 1665 H 172.12 -3.17905 4.87266 0
M  V30 1666 H 171 -3.41862 7.05762 0
M  V30 1667 N 168.503 -0.877838 -1.30888 0
M  V30 1668 C 169.451 -0.328662 -2.30266 0
M  V30 1669 C 170.445 0.560496 -1.59859 0
M  V30 1670 O 171.651 0.445722 -1.74394 0
M  V30 1671 H 168.026 -0.0876142 -0.746879 0
M  V30 1672 H 169.997 -1.18061 -2.74051 0
M  V30 1673 C 168.746 0.448071 -3.44801 0
M  V30 1674 H 168.069 -0.226859 -3.99156 0
M  V30 1675 H 169.509 0.797541 -4.16432 0
M  V30 1676 C 167.968 1.64239 -2.94155 0
M  V30 1677 O 168.498 2.74175 -2.93583 0
M  V30 1678 N 166.704 1.47716 -2.50256 0
M  V30 1679 H 166.251 0.582821 -2.5092 0
M  V30 1680 H 166.209 2.27765 -2.16727 0
M  V30 1681 N 169.982 1.44106 -0.638065 0
M  V30 1682 C 171.21 2.06336 -0.152615 0
M  V30 1683 C 171.625 1.47731 1.17563 0
M  V30 1684 O 170.982 0.602806 1.72257 0
M  V30 1685 C 171.033 3.61479 -0.0391491 0
M  V30 1686 O 170.754 4.17903 -1.31487 0
M  V30 1687 C 172.255 4.40757 0.474176 0
M  V30 1688 H 169.475 0.665862 -0.0828776 0
M  V30 1689 H 172.019 1.84862 -0.87443 0
M  V30 1690 H 170.174 3.82191 0.633142 0
M  V30 1691 H 170.588 5.11416 -1.16421 0
M  V30 1692 H 172.062 5.49707 0.502562 0
M  V30 1693 H 172.539 4.12697 1.50258 0
M  V30 1694 H 173.145 4.24979 -0.165102 0
M  V30 1695 N 171.46 0.379036 1.52974 0
M  V30 1696 C 172.423 -0.448865 2.24762 0
M  V30 1697 C 173.423 -0.998689 1.26027 0
M  V30 1698 O 174.613 -0.882313 1.50203 0
M  V30 1699 C 171.745 -1.62872 2.99476 0
M  V30 1700 H 172.938 0.179491 2.99362 0
M  V30 1701 H 170.491 0.13096 1.5575 0
M  V30 1702 H 171.226 -2.29479 2.29151 0
M  V30 1703 H 171.011 -1.24128 3.71934 0
M  V30 1704 H 172.501 -2.2151 3.5401 0
M  V30 1705 N 172.938 -1.57226 0.108567 0
M  V30 1706 C 174.184 -1.95121 -0.552761 0
M  V30 1707 C 174.517 -0.991345 -1.66991 0
M  V30 1708 O 173.792 -0.0267211 -1.94482 0
M  V30 1709 C 174.075 -3.43039 -1.09528 0
M  V30 1710 C 173.928 -4.49797 0.0177332 0
M  V30 1711 C 175.247 -3.92567 -1.98945 0
M  V30 1712 H 172.366 -0.709496 -0.199461 0
M  V30 1713 H 175.008 -1.89126 0.182011 0
M  V30 1714 H 173.158 -3.48279 -1.72146 0
M  V30 1715 H 174.83 -4.56661 0.652584 0
M  V30 1716 H 173.073 -4.284 0.682309 0
M  V30 1717 H 173.744 -5.50528 -0.402919 0
M  V30 1718 H 176.22 -3.89565 -1.46214 0
M  V30 1719 H 175.096 -4.96605 -2.33827 0
M  V30 1720 H 175.357 -3.32648 -2.91201 0
M  V30 1721 N 174.416 0.165178 -1.56732 0
M  V30 1722 C 175.366 1.20917 -1.93295 0
M  V30 1723 C 176.35 1.39488 -0.801985 0
M  V30 1724 O 177.542 1.41356 -1.06525 0
M  V30 1725 C 174.671 2.54718 -2.3016 0
M  V30 1726 C 173.757 2.39815 -3.49785 0
M  V30 1727 N 174.148 1.94637 -4.66851 0
M  V30 1728 C 172.446 2.70623 -3.54513 0
M  V30 1729 C 173.147 1.92344 -5.4898 0
M  V30 1730 N 172.123 2.34978 -4.9019 0
M  V30 1731 H 175.925 0.851675 -2.81289 0
M  V30 1732 H 173.439 0.373399 -1.58049 0
M  V30 1733 H 175.436 3.30165 -2.54552 0
M  V30 1734 H 174.096 2.91265 -1.43508 0
M  V30 1735 H 175.107 1.6488 -4.90953 0
M  V30 1736 H 171.784 3.11167 -2.78354 0
M  V30 1737 H 173.174 1.5906 -6.52801 0
M  V30 1738 N 175.894 1.51508 0.433938 0
M  V30 1739 C 177.119 1.68443 1.21003 0
M  V30 1740 C 177.544 0.382636 1.84167 0
M  V30 1741 O 176.902 -0.65755 1.68956 0
M  V30 1742 C 176.95 2.80405 2.26727 0
M  V30 1743 O 176.054 2.44245 3.32292 0
M  V30 1744 H 175.395 0.561536 0.354363 0
M  V30 1745 H 177.925 1.9809 0.512024 0
M  V30 1746 H 177.935 3.0459 2.71457 0
M  V30 1747 H 176.61 3.74867 1.80132 0
M  V30 1748 H 175.187 2.30644 2.93015 0
M  V30 1749 N 177.372 -0.689602 1.41712 0
M  V30 1750 C 178.282 -1.83314 1.46401 0
M  V30 1751 C 179.298 -1.7036 0.35405 0
M  V30 1752 O 180.474 -1.92171 0.602692 0
M  V30 1753 C 177.539 -3.19344 1.34982 0
M  V30 1754 C 176.6 -3.44363 2.56344 0
M  V30 1755 C 175.833 -4.73904 2.45461 0
M  V30 1756 O 176.056 -5.508 1.48241 0
M  V30 1757 O 174.99 -4.99839 3.35328 0
M  V30 1758 H 178.816 -1.82314 2.42889 0
M  V30 1759 H 176.401 -0.843438 1.23315 0
M  V30 1760 H 178.283 -4.00547 1.3092 0
M  V30 1761 H 176.958 -3.21014 0.41612 0
M  V30 1762 H 175.865 -2.63067 2.65982 0
M  V30 1763 H 177.198 -3.47512 3.48563 0
M  V30 1764 N 178.85 -1.27639 -0.924453 0
M  V30 1765 C 180.097 -1.14167 -1.67249 0
M  V30 1766 C 180.425 0.311863 -1.91984 0
M  V30 1767 O 179.68 1.24425 -1.51053 0
M  V30 1768 C 179.979 -1.87407 -3.04325 0
M  V30 1769 C 179.645 -3.37249 -2.99289 0
M  V30 1770 C 178.307 -3.7812 -2.97622 0
M  V30 1771 C 180.659 -4.32845 -2.90336 0
M  V30 1772 C 177.987 -5.12944 -2.8479 0
M  V30 1773 C 180.339 -5.6773 -2.79045 0
M  V30 1774 C 179.003 -6.07889 -2.7573 0
M  V30 1775 H 178.273 -0.417766 -0.612007 0
M  V30 1776 H 180.92 -1.58286 -1.07786 0
M  V30 1777 H 179.225 -1.35805 -3.67511 0
M  V30 1778 H 180.922 -1.74408 -3.61086 0
M  V30 1779 H 177.512 -3.04748 -3.01374 0
M  V30 1780 H 181.696 -4.02239 -2.90719 0
M  V30 1781 H 176.952 -5.432 -2.80612 0
M  V30 1782 H 181.126 -6.41472 -2.71083 0
M  V30 1783 H 178.753 -7.12314 -2.65544 0
M  V30 1784 N 180.328 1.1314 -1.09713 0
M  V30 1785 C 181.261 2.17735 -0.683137 0
M  V30 1786 C 182.239 1.59582 0.311841 0
M  V30 1787 O 183.423 1.87298 0.212514 0
M  V30 1788 C 180.55 3.38699 -0.00684324 0
M  V30 1789 C 179.596 4.1546 -0.964102 0
M  V30 1790 S 180.429 4.74733 -2.47767 0
M  V30 1791 C 181.585 5.9904 -1.81387 0
M  V30 1792 H 181.818 2.52515 -1.56918 0
M  V30 1793 H 179.351 1.24484 -0.913404 0
M  V30 1794 H 181.309 4.08765 0.377044 0
M  V30 1795 H 179.97 3.02214 0.85589 0
M  V30 1796 H 179.163 5.02093 -0.43803 0
M  V30 1797 H 178.765 3.51066 -1.28953 0
M  V30 1798 H 181.057 6.67846 -1.13967 0
M  V30 1799 H 182 6.56261 -2.65947 0
M  V30 1800 H 182.408 5.4976 -1.28155 0
M  V30 1801 N 181.806 0.884767 1.30421 0
M  V30 1802 C 182.756 0.322846 2.25703 0
M  V30 1803 C 183.74 -0.548582 1.51259 0
M  V30 1804 O 184.932 -0.39304 1.72581 0
M  V30 1805 C 182.061 -0.461787 3.4018 0
M  V30 1806 C 181.147 0.423717 4.21978 0
M  V30 1807 N 181.538 1.52408 4.82292 0
M  V30 1808 C 179.836 0.218795 4.45463 0
M  V30 1809 C 180.537 2.07136 5.43571 0
M  V30 1810 N 179.513 1.36635 5.26148 0
M  V30 1811 H 183.315 1.16363 2.69883 0
M  V30 1812 H 180.829 0.73415 1.44859 0
M  V30 1813 H 182.826 -0.880985 4.07485 0
M  V30 1814 H 181.486 -1.30001 2.9754 0
M  V30 1815 H 182.497 1.90693 4.81515 0
M  V30 1816 H 179.174 -0.582275 4.1342 0
M  V30 1817 H 180.564 2.99538 6.01437 0
M  V30 1818 N 183.284 -1.43765 0.645699 0
M  V30 1819 C 184.561 -1.9541 0.0862963 0
M  V30 1820 C 184.941 -1.58725 -1.39175 0
M  V30 1821 O 184.289 -0.868581 -2.11348 0
M  V30 1822 C 184.499 -3.47488 0.324565 0
M  V30 1823 C 185.847 -4.24001 0.225497 0
M  V30 1824 O 186.871 -3.55274 0.256715 0
M  V30 1825 O 185.73 -5.46313 0.142801 0
M  V30 1826 H 182.824 -0.826882 -0.0139483 0
M  V30 1827 H 185.37 -1.53743 0.718415 0
M  V30 1828 H 184.142 -3.67289 1.3496 0
M  V30 1829 H 183.765 -3.96135 -0.340987 0
M  V30 1830 N 184.763 -0.387143 -1.52771 0
M  V30 1831 C 185.713 0.465942 -2.23188 0
M  V30 1832 C 186.697 1.03138 -1.23496 0
M  V30 1833 O 187.889 0.957845 -1.48843 0
M  V30 1834 C 185.018 1.59384 -3.04059 0
M  V30 1835 C 184.104 1.04024 -4.11144 0
M  V30 1836 N 184.495 0.211416 -5.05358 0
M  V30 1837 C 182.793 1.31295 -4.26237 0
M  V30 1838 C 183.494 -0.0941698 -5.81624 0
M  V30 1839 N 182.47 0.509207 -5.4121 0
M  V30 1840 H 186.272 -0.173856 -2.93385 0
M  V30 1841 H 183.786 -0.19633 -1.61209 0
M  V30 1842 H 185.783 2.21738 -3.53041 0
M  V30 1843 H 184.443 2.23648 -2.35397 0
M  V30 1844 H 185.454 -0.151151 -5.17679 0
M  V30 1845 H 182.131 1.95679 -3.68803 0
M  V30 1846 H 183.521 -0.765572 -6.67524 0
M  V30 1847 N 186.241 1.57166 -0.116904 0
M  V30 1848 C 187.204 2.14039 0.819742 0
M  V30 1849 C 188.204 1.07477 1.19605 0
M  V30 1850 O 189.394 1.33263 1.1219 0
M  V30 1851 C 186.526 2.67891 2.10826 0
M  V30 1852 H 187.719 2.98128 0.325511 0
M  V30 1853 H 185.272 1.55739 0.132312 0
M  V30 1854 H 186.007 1.87384 2.64685 0
M  V30 1855 H 185.792 3.45823 1.84793 0
M  V30 1856 H 187.282 3.11809 2.77785 0
M  V30 1857 N 187.719 -0.156864 1.56817 0
M  V30 1858 C 188.996 -0.899244 1.73704 0
M  V30 1859 C 189.376 -1.99771 0.682254 0
M  V30 1860 O 188.724 -2.26515 -0.300522 0
M  V30 1861 C 188.934 -1.45075 3.17418 0
M  V30 1862 C 190.282 -1.91802 3.7881 0
M  V30 1863 O 191.306 -1.54838 3.20786 0
M  V30 1864 O 190.165 -2.5994 4.80722 0
M  V30 1865 H 187.259 -0.424267 0.709878 0
M  V30 1866 H 189.805 -0.143561 1.69092 0
M  V30 1867 H 188.577 -0.660846 3.85679 0
M  V30 1868 H 188.2 -2.27021 3.26416 0
M  V30 1869 N 189.197 -1.51736 -0.425897 0
M  V30 1870 C 190.427 -1.68549 -1.19476 0
M  V30 1871 C 190.835 -0.387288 -1.85194 0
M  V30 1872 O 190.178 0.645142 -1.71999 0
M  V30 1873 C 190.24 -2.75275 -2.31223 0
M  V30 1874 C 189.904 -4.17534 -1.8578 0
M  V30 1875 C 190.901 -5.01936 -1.35485 0
M  V30 1876 C 188.586 -4.6369 -1.93123 0
M  V30 1877 C 190.58 -6.30559 -0.931347 0
M  V30 1878 C 188.267 -5.92307 -1.50384 0
M  V30 1879 C 189.265 -6.75569 -1.00473 0
M  V30 1880 O 188.953 -8.0178 -0.583452 0
M  V30 1881 H 188.685 -0.568525 -0.365725 0
M  V30 1882 H 191.239 -1.98982 -0.509444 0
M  V30 1883 H 189.469 -2.40182 -3.03067 0
M  V30 1884 H 191.158 -2.80853 -2.93047 0
M  V30 1885 H 191.924 -4.67475 -1.29197 0
M  V30 1886 H 187.803 -3.98997 -2.30916 0
M  V30 1887 H 191.347 -6.95498 -0.541084 0
M  V30 1888 H 187.244 -6.2628 -1.56346 0
M  V30 1889 H 188.012 -8.1543 -0.708275 0
M  V30 1890 N 190.675 0.682077 -1.42076 0
M  V30 1891 C 191.923 1.4393 -1.41876 0
M  V30 1892 C 192.244 1.94971 -0.0335599 0
M  V30 1893 O 191.514 1.72591 0.926773 0
M  V30 1894 H 190.094 0.534085 -0.522267 0
M  V30 1895 H 192.756 0.806427 -1.77434 0
M  V30 1896 H 191.852 2.29588 -2.11414 0
M  V30 1897 N 192.153 1.28127 0.917671 0
M  V30 1898 C 193.4 1.15052 1.66641 0
M  V30 1899 C 193.728 -0.301677 1.92146 0
M  V30 1900 O 192.983 -1.23622 1.51711 0
M  V30 1901 C 193.282 1.89018 3.03327 0
M  V30 1902 C 192.948 3.38832 2.97496 0
M  V30 1903 C 191.61 3.79693 2.95613 0
M  V30 1904 C 193.962 4.34378 2.88036 0
M  V30 1905 C 191.29 5.14447 2.82066 0
M  V30 1906 C 193.642 5.69201 2.7603 0
M  V30 1907 C 192.306 6.09343 2.72502 0
M  V30 1908 H 191.576 0.421006 0.609783 0
M  V30 1909 H 194.223 1.58855 1.06945 0
M  V30 1910 H 192.528 1.37752 3.66785 0
M  V30 1911 H 194.225 1.76321 3.60156 0
M  V30 1912 H 190.815 3.06342 2.99754 0
M  V30 1913 H 194.999 4.03775 2.88581 0
M  V30 1914 H 190.255 5.44681 2.77728 0
M  V30 1915 H 194.429 6.42901 2.67678 0
M  V30 1916 H 192.056 7.13712 2.61762 0
M  V30 1917 N 193.631 -1.12557 1.10312 0
M  V30 1918 C 195.042 -1.65574 0.862678 0
M  V30 1919 C 195.393 -1.86566 -0.607256 0
M  V30 1920 O 194.518 -1.59121 -1.46662 0
M  V30 1921 C 195.113 -3.00776 1.55947 0
M  V30 1922 C 193.672 -3.50748 1.36576 0
M  V30 1923 C 192.819 -2.25797 1.60968 0
M  V30 1924 H 195.77 -0.963552 1.26101 0
M  V30 1925 H 195.791 -3.67185 0.997753 0
M  V30 1926 H 195.303 -2.85465 2.62928 0
M  V30 1927 H 193.404 -3.71245 0.317531 0
M  V30 1928 H 193.517 -4.30289 2.10686 0
M  V30 1929 H 191.881 -2.32841 1.03234 0
M  V30 1930 H 192.664 -2.13043 2.69198 0
M  V30 1931 N 195.109 -0.891671 -1.2995 0
M  V30 1932 C 196.334 -0.527932 -2.00568 0
M  V30 1933 C 196.759 0.877969 -1.66353 0
M  V30 1934 O 196.117 1.58301 -0.883762 0
M  V30 1935 C 196.165 -0.717745 -3.53385 0
M  V30 1936 O 195.269 0.233376 -4.11739 0
M  V30 1937 H 194.61 -0.20722 -0.630837 0
M  V30 1938 H 197.14 -1.20105 -1.65638 0
M  V30 1939 H 197.15 -0.619307 -4.03272 0
M  V30 1940 H 195.825 -1.74276 -3.77625 0
M  V30 1941 H 194.402 0.0880706 -3.72796 0
M  V30 1942 N 196.587 1.43421 -0.653314 0
M  V30 1943 C 197.827 2.03689 -0.170346 0
M  V30 1944 C 198.191 1.50427 1.19314 0
M  V30 1945 O 199.392 2.0234 1.76952 0
M  V30 1946 C 197.663 3.56946 -0.180183 0
M  V30 1947 S 199.222 4.38171 0.234925 0
M  V30 1948 H 196.04 0.707345 -0.0719976 0
M  V30 1949 H 198.642 1.75486 -0.86167 0
M  V30 1950 H 197.346 3.93212 -1.17526 0
M  V30 1951 H 196.877 3.89791 0.531675 0
M  V30 1952 H 198.892 4.73808 1.47378 0
M  V30 1953 N 198.065 0.39524 1.52563 0
M  V30 1954 C 198.975 -0.444232 2.30356 0
M  V30 1955 C 199.991 -1.06615 1.37511 0
M  V30 1956 O 201.167 -1.07067 1.70583 0
M  V30 1957 C 198.232 -1.55315 3.09964 0
M  V30 1958 C 197.293 -0.955734 4.18526 0
M  V30 1959 C 196.526 -2.01181 4.9433 0
M  V30 1960 O 196.749 -3.22781 4.70285 0
M  V30 1961 O 195.683 -1.62579 5.79527 0
M  V30 1962 H 199.509 0.189667 3.03107 0
M  V30 1963 H 197.094 0.1588 1.48554 0
M  V30 1964 H 198.976 -2.19724 3.59582 0
M  V30 1965 H 197.651 -2.17191 2.4002 0
M  V30 1966 H 196.558 -0.274743 3.7309 0
M  V30 1967 H 197.891 -0.381109 4.90722 0
M  V30 1968 N 199.544 -1.57102 0.125237 0
M  V30 1969 C 200.792 -1.95021 -0.530198 0
M  V30 1970 C 201.113 -1.00982 -1.66816 0
M  V30 1971 O 200.383 -0.0672693 -1.95784 0
M  V30 1972 H 198.963 -0.720046 -0.198853 0
M  V30 1973 H 201.625 -1.93916 0.19564 0
M  V30 1974 H 200.721 -2.98211 -0.920681 0
M  V30 1975 N 201.022 0.148545 -1.56898 0
M  V30 1976 C 201.969 1.18345 -1.98149 0
M  V30 1977 C 202.939 1.42772 -0.848848 0
M  V30 1978 O 204.124 1.55132 -1.11079 0
M  V30 1979 C 201.264 2.51231 -2.36594 0
M  V30 1980 C 200.377 2.33991 -3.63142 0
M  V30 1981 C 199.512 3.59902 -3.90697 0
M  V30 1982 C 198.551 3.37692 -5.1052 0
M  V30 1983 N 197.688 4.5573 -5.34092 0
M  V30 1984 H 202.528 0.82467 -2.86362 0
M  V30 1985 H 200.065 0.395756 -1.41676 0
M  V30 1986 H 202.023 3.28713 -2.56912 0
M  V30 1987 H 200.653 2.85059 -1.51463 0
M  V30 1988 H 199.705 1.47572 -3.50609 0
M  V30 1989 H 201.017 2.13539 -4.5078 0
M  V30 1990 H 200.171 4.45813 -4.11505 0
M  V30 1991 H 198.91 3.83357 -3.01477 0
M  V30 1992 H 197.915 2.5017 -4.89587 0
M  V30 1993 H 199.14 3.15637 -6.0129 0
M  V30 1994 H 197.086 4.79361 -4.47827 0
M  V30 1995 H 197.003 4.38274 -6.15996 0
M  V30 1996 H 198.271 5.42858 -5.59397 0
M  V30 1997 N 202.5 1.5196 0.417844 0
M  V30 1998 C 203.747 1.65591 1.16559 0
M  V30 1999 C 204.075 0.381565 1.90721 0
M  V30 2000 O 203.33 -0.635156 1.85106 0
M  V30 2001 C 203.629 2.82269 2.19223 0
M  V30 2002 C 203.295 4.20819 1.61933 0
M  V30 2003 C 201.957 4.58506 1.46033 0
M  V30 2004 C 204.309 5.07196 1.20008 0
M  V30 2005 C 201.637 5.80257 0.867113 0
M  V30 2006 C 203.989 6.29544 0.621086 0
M  V30 2007 C 202.653 6.65987 0.449144 0
M  V30 2008 H 201.923 0.605939 0.42652 0
M  V30 2009 H 204.57 1.86041 0.45397 0
M  V30 2010 H 202.875 2.56118 2.96498 0
M  V30 2011 H 204.572 2.90012 2.76936 0
M  V30 2012 H 201.162 3.91116 1.7529 0
M  V30 2013 H 205.346 4.7867 1.31105 0
M  V30 2014 H 200.602 6.07124 0.721833 0
M  V30 2015 H 204.776 6.95805 0.287798 0
M  V30 2016 H 202.403 7.60199 -0.012632 0
M  V30 2017 N 203.978 -0.674533 1.42435 0
M  V30 2018 C 204.926 -1.80934 1.46169 0
M  V30 2019 C 205.92 -1.66006 0.3374 0
M  V30 2020 O 207.126 -1.72611 0.510425 0
M  V30 2021 H 203.501 -0.596594 0.457798 0
M  V30 2022 H 205.472 -1.74903 2.41767 0
M  V30 2023 C 204.221 -3.19088 1.38123 0
M  V30 2024 H 203.544 -3.31203 2.23931 0
M  V30 2025 H 204.984 -3.9851 1.44797 0
M  V30 2026 C 203.443 -3.36763 0.0960517 0
M  V30 2027 O 203.973 -3.92581 -0.851073 0
M  V30 2028 N 202.179 -2.90597 0.0131186 0
M  V30 2029 H 201.726 -2.45359 0.784639 0
M  V30 2030 H 201.684 -3.028 -0.846133 0
M  V30 2031 N 205.456 -1.28612 -0.910864 0
M  V30 2032 C 206.702 -1.17116 -1.66299 0
M  V30 2033 C 207.057 0.276917 -1.90397 0
M  V30 2034 O 206.35 1.19795 -1.49532 0
M  V30 2035 C 206.544 -1.90624 -3.0232 0
M  V30 2036 C 206.373 -3.42431 -2.91498 0
M  V30 2037 C 205.143 -4.11773 -2.92867 0
M  V30 2038 C 207.341 -4.38124 -2.69355 0
M  V30 2039 N 205.323 -5.50025 -2.72664 0
M  V30 2040 C 206.694 -5.63759 -2.58023 0
M  V30 2041 C 208.749 -4.28016 -2.54375 0
M  V30 2042 C 207.452 -6.80436 -2.33238 0
M  V30 2043 C 209.478 -5.44433 -2.30969 0
M  V30 2044 C 208.84 -6.69034 -2.20394 0
M  V30 2045 H 204.939 -0.483506 -0.61461 0
M  V30 2046 H 207.523 -1.62299 -1.0755 0
M  V30 2047 H 205.694 -1.4787 -3.5915 0
M  V30 2048 H 207.426 -1.71488 -3.66571 0
M  V30 2049 H 204.181 -3.63378 -3.03732 0
M  V30 2050 H 204.605 -6.22705 -2.65646 0
M  V30 2051 H 209.247 -3.32388 -2.613 0
M  V30 2052 H 206.965 -7.7613 -2.25051 0
M  V30 2053 H 210.551 -5.38504 -2.20238 0
M  V30 2054 H 209.431 -7.57595 -2.02531 0
M  V30 2055 N 206.934 1.1197 -1.10907 0
M  V30 2056 C 208.35 1.35591 -0.841852 0
M  V30 2057 C 208.55 1.94233 0.536246 0
M  V30 2058 O 207.606 2.1717 1.28816 0
M  V30 2059 C 208.919 2.29284 -1.94549 0
M  V30 2060 C 210.467 2.42862 -1.97451 0
M  V30 2061 C 210.942 3.39873 -3.07002 0
M  V30 2062 N 212.433 3.47433 -3.06341 0
M  V30 2063 C 213.168 4.22421 -3.87748 0
M  V30 2064 N 212.664 5.00432 -4.79103 0
M  V30 2065 N 214.457 4.17876 -3.75946 0
M  V30 2066 H 206.608 0.722664 -1.99728 0
M  V30 2067 H 208.871 0.380635 -0.868229 0
M  V30 2068 H 208.577 1.93378 -2.93765 0
M  V30 2069 H 208.451 3.29452 -1.83688 0
M  V30 2070 H 210.838 2.78046 -0.988645 0
M  V30 2071 H 210.919 1.42566 -2.12388 0
M  V30 2072 H 210.563 3.05417 -4.05811 0
M  V30 2073 H 210.493 4.40011 -2.89306 0
M  V30 2074 H 212.984 2.91784 -2.40147 0
M  V30 2075 H 213.297 5.55002 -5.37766 0
M  V30 2076 H 211.642 4.99612 -4.83128 0
M  V30 2077 H 214.833 3.56016 -3.03924 0
M  V30 2078 H 215.006 4.76061 -4.39624 0
M  V30 2079 N 208.412 0.89855 1.29475 0
M  V30 2080 C 209.658 0.524658 1.95896 0
M  V30 2081 C 209.991 -0.926468 1.70676 0
M  V30 2082 O 209.266 -1.65665 1.01908 0
M  V30 2083 C 209.549 0.81633 3.50725 0
M  V30 2084 C 209.402 2.31907 3.85408 0
M  V30 2085 C 210.721 0.302038 4.39062 0
M  V30 2086 H 207.84 0.19209 0.711527 0
M  V30 2087 H 210.482 1.12502 1.53112 0
M  V30 2088 H 208.632 0.305369 3.87298 0
M  V30 2089 H 210.304 2.89949 3.58786 0
M  V30 2090 H 208.547 2.78027 3.32992 0
M  V30 2091 H 209.218 2.47373 4.93468 0
M  V30 2092 H 211.694 0.739551 4.09475 0
M  V30 2093 H 210.57 0.535331 5.46283 0
M  V30 2094 H 210.831 -0.797216 4.34853 0
M  V30 2095 N 209.89 -1.43072 0.660911 0
M  V30 2096 C 211.139 -2.00942 0.174735 0
M  V30 2097 C 211.452 -1.52797 -1.22117 0
M  V30 2098 O 212.658 -2.02991 -1.80297 0
M  V30 2099 C 211.114 -3.58948 0.261559 0
M  V30 2100 C 210.722 -4.16085 1.66064 0
M  V30 2101 C 212.466 -4.24173 -0.166617 0
M  V30 2102 C 210.373 -5.6641 1.70098 0
M  V30 2103 H 209.303 -0.751483 0.0615631 0
M  V30 2104 H 211.954 -1.63955 0.824069 0
M  V30 2105 H 210.336 -3.93372 -0.455421 0
M  V30 2106 H 211.51 -3.93147 2.40359 0
M  V30 2107 H 209.825 -3.6326 2.03546 0
M  V30 2108 H 212.422 -5.34471 -0.156433 0
M  V30 2109 H 212.765 -3.98647 -1.19943 0
M  V30 2110 H 213.298 -3.94659 0.498875 0
M  V30 2111 H 210.037 -5.96715 2.71315 0
M  V30 2112 H 209.557 -5.91382 1.00139 0
M  V30 2113 H 211.236 -6.30585 1.44816 0
M  V30 2114 N 211.368 -0.403325 -1.52352 0
M  V30 2115 C 212.315 0.425011 -2.26853 0
M  V30 2116 C 213.285 1.04598 -1.29029 0
M  V30 2117 O 214.47 1.07135 -1.57882 0
M  V30 2118 C 211.61 1.53888 -3.08889 0
M  V30 2119 C 210.723 0.939396 -4.21663 0
M  V30 2120 C 209.858 2.02547 -4.91068 0
M  V30 2121 C 208.897 1.40263 -5.95813 0
M  V30 2122 N 208.034 2.4286 -6.58759 0
M  V30 2123 H 212.874 -0.21674 -2.97211 0
M  V30 2124 H 210.411 -0.118722 -1.4662 0
M  V30 2125 H 212.369 2.19558 -3.54753 0
M  V30 2126 H 210.999 2.15074 -2.40714 0
M  V30 2127 H 210.051 0.171898 -3.80011 0
M  V30 2128 H 211.363 0.44436 -4.96817 0
M  V30 2129 H 210.517 2.75958 -5.40308 0
M  V30 2130 H 209.256 2.55415 -4.15469 0
M  V30 2131 H 208.261 0.653833 -5.45898 0
M  V30 2132 H 209.486 0.881719 -6.73352 0
M  V30 2133 H 207.432 2.94871 -5.85992 0
M  V30 2134 H 207.349 1.98152 -7.2957 0
M  V30 2135 H 208.617 3.15858 -7.12639 0
M  V30 2136 N 212.846 1.57033 -0.133567 0
M  V30 2137 C 213.756 2.19632 0.824564 0
M  V30 2138 C 214.772 1.17666 1.28182 0
M  V30 2139 O 215.948 1.50193 1.3418 0
M  V30 2140 C 213.013 2.79499 2.05137 0
M  V30 2141 C 212.074 3.96548 1.64464 0
M  V30 2142 C 211.307 4.5355 2.81297 0
M  V30 2143 O 211.53 4.09438 3.97136 0
M  V30 2144 O 210.464 5.44018 2.57542 0
M  V30 2145 H 214.29 3.01991 0.321766 0
M  V30 2146 H 211.875 1.49112 0.0927889 0
M  V30 2147 H 213.757 3.17602 2.7696 0
M  V30 2148 H 212.432 2.00162 2.54395 0
M  V30 2149 H 211.339 3.63186 0.897048 0
M  V30 2150 H 212.672 4.77364 1.19934 0
M  V30 2151 N 214.325 -0.140222 1.56975 0
M  V30 2152 C 215.272 -1.17292 1.98774 0
M  V30 2153 C 216.242 -1.4232 0.856408 0
M  V30 2154 O 217.427 -1.54541 1.119 0
M  V30 2155 C 214.567 -2.49973 2.37923 0
M  V30 2156 C 213.68 -2.32062 3.64378 0
M  V30 2157 C 212.815 -3.57825 3.926 0
M  V30 2158 C 211.854 -3.3498 5.12303 0
M  V30 2159 N 210.991 -4.52891 5.36502 0
M  V30 2160 H 215.831 -0.809472 2.86795 0
M  V30 2161 H 213.368 -0.388237 1.41884 0
M  V30 2162 H 215.326 -3.27346 2.58652 0
M  V30 2163 H 213.956 -2.84252 1.52972 0
M  V30 2164 H 213.008 -1.45711 3.51387 0
M  V30 2165 H 214.32 -2.11145 4.51906 0
M  V30 2166 H 213.474 -4.43624 4.13863 0
M  V30 2167 H 212.213 -3.81753 3.03506 0
M  V30 2168 H 211.218 -2.4757 4.90906 0
M  V30 2169 H 212.443 -3.12444 6.02956 0
M  V30 2170 H 210.389 -4.76979 4.50363 0
M  V30 2171 H 210.306 -4.35001 6.18312 0
M  V30 2172 H 211.574 -5.39884 5.62268 0
M  V30 2173 N 215.803 -1.52179 -0.40978 0
M  V30 2174 C 217.219 -1.40968 -0.74835 0
M  V30 2175 C 217.419 -0.513657 -1.94843 0
M  V30 2176 O 216.475 0.0208026 -2.52491 0
M  V30 2177 C 217.788 -2.83483 -1.0029 0
M  V30 2178 C 219.336 -2.92821 -1.10565 0
M  V30 2179 C 219.811 -4.36303 -1.39296 0
M  V30 2180 N 221.302 -4.39535 -1.46162 0
M  V30 2181 C 222.037 -5.47614 -1.70018 0
M  V30 2182 N 221.533 -6.65812 -1.91483 0
M  V30 2183 N 223.326 -5.35129 -1.72027 0
M  V30 2184 H 215.477 -2.0897 0.380186 0
M  V30 2185 H 217.74 -0.94185 0.107805 0
M  V30 2186 H 217.446 -3.51168 -0.193461 0
M  V30 2187 H 217.32 -3.24487 -1.92323 0
M  V30 2188 H 219.707 -2.25318 -1.90568 0
M  V30 2189 H 219.788 -2.55276 -0.16369 0
M  V30 2190 H 219.432 -5.04366 -0.598109 0
M  V30 2191 H 219.362 -4.71385 -2.34743 0
M  V30 2192 H 221.853 -3.54332 -1.31367 0
M  V30 2193 H 222.166 -7.43964 -2.09134 0
M  V30 2194 H 220.511 -6.68879 -1.88749 0
M  V30 2195 H 223.702 -4.41764 -1.54796 0
M  V30 2196 H 223.875 -6.19433 -1.9028 0
M  V30 2197 N 217.281 0.66697 -1.42791 0
M  V30 2198 C 218.558 1.4234 -1.34159 0
M  V30 2199 C 218.938 2.11093 0.0172729 0
M  V30 2200 O 218.286 2.03808 1.03318 0
M  V30 2201 C 218.496 2.41942 -2.51526 0
M  V30 2202 C 219.844 3.06353 -2.93995 0
M  V30 2203 O 220.868 2.52269 -2.51473 0
M  V30 2204 O 219.727 4.04376 -3.67617 0
M  V30 2205 H 216.821 0.635277 -0.529483 0
M  V30 2206 H 219.367 0.695034 -1.54814 0
M  V30 2207 H 218.139 1.89991 -3.42081 0
M  V30 2208 H 217.762 3.22249 -2.32898 0
M  V30 2209 N 218.759 1.29093 0.90403 0
M  V30 2210 C 219.722 1.1386 1.98919 0
M  V30 2211 C 220.722 0.0753457 1.60623 0
M  V30 2212 O 221.912 0.321931 1.71199 0
M  V30 2213 C 219.044 0.740198 3.32767 0
M  V30 2214 H 220.237 2.10246 2.13861 0
M  V30 2215 H 217.79 1.12218 1.08797 0
M  V30 2216 H 218.525 -0.223997 3.23525 0
M  V30 2217 H 218.31 1.50838 3.61926 0
M  V30 2218 H 219.8 0.656546 4.12407 0
M  V30 2219 N 220.237 -1.11381 1.11499 0
M  V30 2220 C 221.467 -1.86663 0.885464 0
M  V30 2221 C 221.875 -1.80464 -0.568281 0
M  V30 2222 O 221.218 -1.18445 -1.40415 0
M  V30 2223 C 221.28 -3.36337 1.26956 0
M  V30 2224 C 220.944 -3.66304 2.73259 0
M  V30 2225 C 221.941 -3.63733 3.71476 0
M  V30 2226 C 219.626 -3.9529 3.09921 0
M  V30 2227 C 221.62 -3.89725 5.04374 0
M  V30 2228 C 219.307 -4.20941 4.43004 0
M  V30 2229 C 220.305 -4.18147 5.40039 0
M  V30 2230 O 219.993 -4.43153 6.70724 0
M  V30 2231 H 219.725 -0.597114 0.316908 0
M  V30 2232 H 222.279 -1.41782 1.48617 0
M  V30 2233 H 220.509 -3.81826 0.611999 0
M  V30 2234 H 222.198 -3.92986 1.01573 0
M  V30 2235 H 222.964 -3.41389 3.44498 0
M  V30 2236 H 218.843 -3.966 2.35009 0
M  V30 2237 H 222.387 -3.8746 5.80104 0
M  V30 2238 H 218.284 -4.42761 4.69716 0
M  V30 2239 H 219.052 -4.60717 6.76522 0
M  V30 2240 N 221.715 -0.905404 -1.28997 0
M  V30 2241 C 222.961 -0.535039 -1.95615 0
M  V30 2242 C 223.294 0.917404 -1.71165 0
M  V30 2243 O 222.569 1.65123 -1.02785 0
M  V30 2244 C 222.852 -0.834918 -3.50287 0
M  V30 2245 C 222.705 -2.33948 -3.84172 0
M  V30 2246 C 224.024 -0.325318 -4.38896 0
M  V30 2247 H 221.143 -0.195861 -0.710498 0
M  V30 2248 H 223.785 -1.13313 -1.52513 0
M  V30 2249 H 221.935 -0.325904 -3.87131 0
M  V30 2250 H 223.607 -2.91847 -3.57243 0
M  V30 2251 H 221.85 -2.79789 -3.31513 0
M  V30 2252 H 222.521 -2.49987 -4.92149 0
M  V30 2253 H 224.997 -0.761256 -4.09077 0
M  V30 2254 H 223.873 -0.564295 -5.45992 0
M  V30 2255 H 224.134 0.774144 -4.35269 0
M  V30 2256 N 223.193 1.4272 -0.668489 0
M  V30 2257 C 224.418 2.06484 -0.194758 0
M  V30 2258 C 224.843 1.49862 1.13679 0
M  V30 2259 O 224.201 0.614582 1.70565 0
M  V30 2260 C 224.249 3.60353 -0.133546 0
M  V30 2261 O 223.353 4.02464 0.899806 0
M  V30 2262 H 222.694 0.656137 -0.10188 0
M  V30 2263 H 225.224 1.82964 -0.915722 0
M  V30 2264 H 225.234 4.07976 0.0447041 0
M  V30 2265 H 223.909 4.00938 -1.1055 0
M  V30 2266 H 222.486 3.66402 0.693109 0
M  V30 2267 N 224.671 0.411399 1.52136 0
M  V30 2268 C 226.087 0.0623865 1.59478 0
M  V30 2269 C 226.287 -1.42554 1.4241 0
M  V30 2270 O 225.343 -2.19263 1.2522 0
M  V30 2271 C 226.656 0.559331 2.95452 0
M  V30 2272 C 228.204 0.517503 3.08692 0
M  V30 2273 C 228.679 0.990994 4.4715 0
M  V30 2274 N 230.17 0.947908 4.53397 0
M  V30 2275 C 230.905 1.28544 5.58806 0
M  V30 2276 N 230.401 1.69454 6.71757 0
M  V30 2277 N 232.194 1.20526 5.49026 0
M  V30 2278 H 224.345 1.37982 1.61477 0
M  V30 2279 H 226.608 0.566977 0.759764 0
M  V30 2280 H 226.314 1.59938 3.1323 0
M  V30 2281 H 226.188 -0.0298014 3.77188 0
M  V30 2282 H 228.575 -0.513505 2.90598 0
M  V30 2283 H 228.656 1.14272 2.28857 0
M  V30 2284 H 228.3 2.02034 4.65988 0
M  V30 2285 H 228.23 0.34257 5.25485 0
M  V30 2286 H 230.721 0.647157 3.72317 0
M  V30 2287 H 231.034 1.93513 7.48179 0
M  V30 2288 H 229.379 1.73359 6.73032 0
M  V30 2289 H 232.57 0.884505 4.59667 0
M  V30 2290 H 232.743 1.47161 6.31069 0
M  V30 2291 N 226.149 -1.5696 0.141893 0
M  V30 2292 C 227.079 -2.19516 -0.795936 0
M  V30 2293 C 228.06 -1.14187 -1.26077 0
M  V30 2294 O 229.245 -1.42511 -1.31925 0
M  V30 2295 C 226.375 -2.81272 -2.03723 0
M  V30 2296 C 225.329 -3.92384 -1.70936 0
M  V30 2297 C 224.655 -4.41052 -3.02287 0
M  V30 2298 C 225.955 -5.13403 -0.959954 0
M  V30 2299 H 227.649 -2.98138 -0.274596 0
M  V30 2300 H 225.195 -1.43406 -0.130636 0
M  V30 2301 H 227.148 -3.237 -2.69808 0
M  V30 2302 H 225.872 -1.99973 -2.58221 0
M  V30 2303 H 224.531 -3.50566 -1.07232 0
M  V30 2304 H 224.179 -3.56582 -3.54765 0
M  V30 2305 H 223.879 -5.15993 -2.81114 0
M  V30 2306 H 225.403 -4.86146 -3.69451 0
M  V30 2307 H 226.817 -5.52706 -1.52279 0
M  V30 2308 H 225.214 -5.94073 -0.848357 0
M  V30 2309 H 226.284 -4.84875 0.0492434 0
M  V30 2310 N 227.627 0.131896 -1.57047 0
M  V30 2311 C 228.575 1.18146 -2.0036 0
M  V30 2312 C 229.569 1.43614 -0.898406 0
M  V30 2313 O 230.775 1.43729 -1.08361 0
M  V30 2314 H 227.15 0.398042 -0.638018 0
M  V30 2315 H 229.121 0.789564 -2.87765 0
M  V30 2316 C 227.87 2.50341 -2.41298 0
M  V30 2317 H 227.193 2.31578 -3.25902 0
M  V30 2318 H 228.633 3.22371 -2.75414 0
M  V30 2319 C 227.092 3.11984 -1.27153 0
M  V30 2320 O 227.622 3.97484 -0.580459 0
M  V30 2321 N 225.828 2.71662 -1.03189 0
M  V30 2322 H 225.375 2.02231 -1.59564 0
M  V30 2323 H 225.333 3.13238 -0.270077 0
M  V30 2324 N 229.106 1.52395 0.401703 0
M  V30 2325 C 230.069 1.75636 1.47257 0
M  V30 2326 C 231.069 0.62628 1.48103 0
M  V30 2327 O 232.259 0.894227 1.49497 0
M  V30 2328 C 229.391 1.84553 2.86624 0
M  V30 2329 H 230.584 2.71241 1.27938 0
M  V30 2330 H 228.137 1.42923 0.632662 0
M  V30 2331 H 228.872 0.908882 3.11303 0
M  V30 2332 H 228.657 2.66715 2.87412 0
M  V30 2333 H 230.147 2.04251 3.64241 0
M  V30 2334 N 230.584 -0.659388 1.43143 0
M  V30 2335 C 231.833 -1.41518 1.43721 0
M  V30 2336 C 232.146 -1.95499 0.0628176 0
M  V30 2337 O 233.352 -2.71446 -0.0539683 0
M  V30 2338 C 231.808 -2.5608 2.52885 0
M  V30 2339 C 231.416 -2.08733 3.96402 0
M  V30 2340 C 233.16 -3.3349 2.62649 0
M  V30 2341 C 231.067 -3.20469 4.97045 0
M  V30 2342 H 229.997 -0.531705 0.534608 0
M  V30 2343 H 232.648 -0.712343 1.69109 0
M  V30 2344 H 231.03 -3.28805 2.20688 0
M  V30 2345 H 232.204 -1.43059 4.3803 0
M  V30 2346 H 230.519 -1.44219 3.90627 0
M  V30 2347 H 233.116 -4.16734 3.35017 0
M  V30 2348 H 233.459 -3.8111 1.67513 0
M  V30 2349 H 233.992 -2.67842 2.94118 0
M  V30 2350 H 230.731 -2.77824 5.93712 0
M  V30 2351 H 230.251 -3.84874 4.60034 0
M  V30 2352 H 231.93 -3.85698 5.19467 0
M  V30 2353 N 232.062 -1.29571 -0.897171 0
M  V30 2354 C 233.292 -1.20408 -1.67886 0
M  V30 2355 C 233.7 0.237429 -1.87704 0
M  V30 2356 O 233.043 1.17048 -1.41582 0
M  V30 2357 C 233.105 -1.84887 -3.08314 0
M  V30 2358 C 232.769 -3.34189 -3.11716 0
M  V30 2359 C 233.766 -4.30374 -2.91675 0
M  V30 2360 C 231.451 -3.75431 -3.33701 0
M  V30 2361 C 233.445 -5.65776 -2.93557 0
M  V30 2362 C 231.132 -5.10955 -3.35214 0
M  V30 2363 C 232.13 -6.05938 -3.15164 0
M  V30 2364 O 231.818 -7.38987 -3.1647 0
M  V30 2365 H 231.55 -0.418289 -0.531046 0
M  V30 2366 H 234.104 -1.71514 -1.13014 0
M  V30 2367 H 232.334 -1.28295 -3.64798 0
M  V30 2368 H 234.023 -1.70011 -3.6858 0
M  V30 2369 H 234.789 -3.99844 -2.74499 0
M  V30 2370 H 230.668 -3.01953 -3.48347 0
M  V30 2371 H 234.212 -6.39889 -2.77826 0
M  V30 2372 H 230.109 -5.4113 -3.51922 0
M  V30 2373 H 230.877 -7.47823 -3.3272 0
M  V30 2374 N 233.54 1.10788 -1.12088 0
M  V30 2375 C 234.472 2.16816 -0.743213 0
M  V30 2376 C 235.485 1.6119 0.228412 0
M  V30 2377 O 236.674 1.78497 0.0102931 0
M  V30 2378 C 233.774 3.38809 -0.0787313 0
M  V30 2379 C 232.947 4.23885 -1.0789 0
M  V30 2380 C 232.006 5.24334 -0.442713 0
M  V30 2381 O 231.032 5.58497 -1.09864 0
M  V30 2382 N 232.234 5.75079 0.791457 0
M  V30 2383 H 234.999 2.49825 -1.65552 0
M  V30 2384 H 232.56 1.26373 -1.012 0
M  V30 2385 H 234.552 4.03107 0.358766 0
M  V30 2386 H 233.122 3.03805 0.736275 0
M  V30 2387 H 232.342 3.55939 -1.69414 0
M  V30 2388 H 233.63 4.77562 -1.75533 0
M  V30 2389 H 233.028 5.49517 1.3434 0
M  V30 2390 H 231.585 6.4118 1.17183 0
M  V30 2391 N 235.018 0.912232 1.28515 0
M  V30 2392 C 235.966 0.389597 2.29314 0
M  V30 2393 C 236.96 -0.517915 1.61289 0
M  V30 2394 O 238.166 -0.399328 1.75515 0
M  V30 2395 H 234.541 0.107386 0.744293 0
M  V30 2396 H 236.512 1.25286 2.70825 0
M  V30 2397 C 235.261 -0.356496 3.45868 0
M  V30 2398 H 234.584 0.332608 3.98414 0
M  V30 2399 H 236.024 -0.686851 4.184 0
M  V30 2400 C 234.483 -1.56383 2.98406 0
M  V30 2401 O 235.013 -2.66294 3.00749 0
M  V30 2402 N 233.219 -1.41029 2.54085 0
M  V30 2403 H 232.766 -0.516089 2.52377 0
M  V30 2404 H 232.724 -2.21939 2.22689 0
M  V30 2405 N 236.496 -1.42363 0.676048 0
M  V30 2406 C 237.444 -2.32596 -0.0131507 0
M  V30 2407 C 238.438 -1.49891 -0.789238 0
M  V30 2408 O 239.644 -1.65955 -0.697061 0
M  V30 2409 H 236.019 -0.751647 -0.0230481 0
M  V30 2410 H 237.99 -2.88421 0.765243 0
M  V30 2411 C 236.739 -3.34479 -0.949702 0
M  V30 2412 H 236.062 -3.98158 -0.361938 0
M  V30 2413 H 237.502 -4.00199 -1.4006 0
M  V30 2414 C 235.961 -2.66838 -2.05667 0
M  V30 2415 O 236.491 -2.50124 -3.14326 0
M  V30 2416 N 234.697 -2.25843 -1.82875 0
M  V30 2417 H 234.244 -2.39637 -0.945085 0
M  V30 2418 H 234.202 -1.80918 -2.5713 0
M  V30 2419 N 237.974 -0.419461 -1.51915 0
M  V30 2420 C 238.904 0.391813 -2.30189 0
M  V30 2421 C 239.885 1.03699 -1.34836 0
M  V30 2422 O 241.07 1.04403 -1.63748 0
M  V30 2423 C 238.2 1.50312 -3.13087 0
M  V30 2424 C 237.154 0.9824 -4.16573 0
M  V30 2425 C 236.48 2.18809 -4.8788 0
M  V30 2426 C 237.78 0.0292356 -5.22292 0
M  V30 2427 H 239.474 -0.26135 -2.98257 0
M  V30 2428 H 237.02 -0.127134 -1.43438 0
M  V30 2429 H 238.973 2.07773 -3.66617 0
M  V30 2430 H 237.697 2.18431 -2.42807 0
M  V30 2431 H 236.356 0.430119 -3.64068 0
M  V30 2432 H 236.004 2.85507 -4.14119 0
M  V30 2433 H 235.704 1.84615 -5.57845 0
M  V30 2434 H 237.228 2.76858 -5.44226 0
M  V30 2435 H 238.642 0.512976 -5.71 0
M  V30 2436 H 237.039 -0.2244 -5.9968 0
M  V30 2437 H 238.109 -0.912931 -4.76228 0
M  V30 2438 N 239.452 1.56882 -0.150215 0
M  V30 2439 C 240.68 2.00593 0.506948 0
M  V30 2440 C 241.095 1.03033 1.58208 0
M  V30 2441 O 240.452 0.0278396 1.82479 0
M  V30 2442 C 240.503 3.44209 1.10465 0
M  V30 2443 O 240.224 4.3804 0.0724636 0
M  V30 2444 C 241.725 4.03214 1.84211 0
M  V30 2445 H 238.945 0.65795 0.13169 0
M  V30 2446 H 241.489 2.03018 -0.245743 0
M  V30 2447 H 239.644 3.42625 1.80795 0
M  V30 2448 H 240.058 5.22007 0.510793 0
M  V30 2449 H 241.532 5.0569 2.21318 0
M  V30 2450 H 242.009 3.44107 2.72923 0
M  V30 2451 H 242.615 4.08437 1.18572 0
M  V30 2452 N 240.93 -0.123565 1.57115 0
M  V30 2453 C 241.877 -1.15177 2.00007 0
M  V30 2454 C 242.847 -1.41403 0.871454 0
M  V30 2455 O 244.032 -1.53346 1.13533 0
M  V30 2456 C 241.172 -2.47436 2.40561 0
M  V30 2457 C 240.285 -2.28184 3.66819 0
M  V30 2458 C 239.42 -3.53641 3.96373 0
M  V30 2459 C 238.459 -3.29528 5.15827 0
M  V30 2460 N 237.596 -4.47175 5.41275 0
M  V30 2461 H 242.436 -0.779008 2.87638 0
M  V30 2462 H 239.973 -0.373166 1.42288 0
M  V30 2463 H 241.931 -3.24584 2.62109 0
M  V30 2464 H 240.561 -2.82614 1.55978 0
M  V30 2465 H 239.613 -1.41976 3.52912 0
M  V30 2466 H 240.925 -2.0634 4.5412 0
M  V30 2467 H 240.079 -4.39209 4.18545 0
M  V30 2468 H 238.818 -3.78512 3.07538 0
M  V30 2469 H 237.823 -2.42349 4.93505 0
M  V30 2470 H 239.048 -3.06031 6.06236 0
M  V30 2471 H 236.994 -4.72175 4.55397 0
M  V30 2472 H 236.911 -4.28419 6.22891 0
M  V30 2473 H 238.179 -5.3389 5.67963 0
M  V30 2474 N 242.408 -1.52605 -0.393616 0
M  V30 2475 C 243.633 -1.71592 -1.16495 0
M  V30 2476 C 244.058 -0.43133 -1.83088 0
M  V30 2477 O 243.416 0.612523 -1.7064 0
M  V30 2478 C 243.464 -2.86318 -2.19213 0
M  V30 2479 O 242.568 -2.52969 -3.257 0
M  V30 2480 H 241.909 -0.570734 -0.33935 0
M  V30 2481 H 244.439 -1.99377 -0.459324 0
M  V30 2482 H 244.449 -3.1168 -2.63286 0
M  V30 2483 H 243.124 -3.79511 -1.7013 0
M  V30 2484 H 241.701 -2.38332 -2.86797 0
M  V30 2485 N 243.887 0.651787 -1.4349 0
M  V30 2486 C 244.837 1.75783 -1.45205 0
M  V30 2487 C 245.821 1.57679 -0.320328 0
M  V30 2488 O 247.013 1.67767 -0.564211 0
M  V30 2489 C 244.142 3.14377 -1.3792 0
M  V30 2490 C 243.228 3.38023 -2.56127 0
M  V30 2491 N 243.619 3.32135 -3.81471 0
M  V30 2492 C 241.917 3.68747 -2.50882 0
M  V30 2493 C 242.618 3.55902 -4.60118 0
M  V30 2494 N 241.594 3.77783 -3.90872 0
M  V30 2495 H 245.396 1.69657 -2.39987 0
M  V30 2496 H 242.91 0.853508 -1.38163 0
M  V30 2497 H 244.907 3.93666 -1.37231 0
M  V30 2498 H 243.567 3.21683 -0.441596 0
M  V30 2499 H 244.578 3.11515 -4.13738 0
M  V30 2500 H 241.255 3.8316 -1.65816 0
M  V30 2501 H 242.645 3.57116 -5.69138 0
M  V30 2502 N 245.365 1.30045 0.890287 0
M  V30 2503 C 246.614 1.17929 1.63633 0
M  V30 2504 C 246.927 -0.266204 1.9378 0
M  V30 2505 O 248.133 -0.508804 2.6669 0
M  V30 2506 C 246.589 2.06317 2.94892 0
M  V30 2507 C 246.197 3.55745 2.72305 0
M  V30 2508 C 247.941 2.0295 3.72843 0
M  V30 2509 C 245.848 4.36205 3.99348 0
M  V30 2510 H 244.778 0.437782 0.613892 0
M  V30 2511 H 247.429 1.54754 0.986075 0
M  V30 2512 H 245.811 1.6237 3.61182 0
M  V30 2513 H 246.985 4.07805 2.1455 0
M  V30 2514 H 245.3 3.6088 2.07737 0
M  V30 2515 H 247.897 2.60319 4.67053 0
M  V30 2516 H 248.24 1.0117 4.0382 0
M  V30 2517 H 248.773 2.4499 3.13408 0
M  V30 2518 H 245.512 5.38659 3.73533 0
M  V30 2519 H 245.032 3.8891 4.56628 0
M  V30 2520 H 246.711 4.47362 4.67415 0
M  V30 2521 N 246.843 -1.10192 1.12674 0
M  V30 2522 C 247.753 -2.20172 0.810026 0
M  V30 2523 C 248.769 -1.72821 -0.202188 0
M  V30 2524 O 249.945 -2.01369 -0.0351691 0
M  V30 2525 C 247.01 -3.45631 0.272007 0
M  V30 2526 C 246.071 -4.07704 1.34447 0
M  V30 2527 C 245.304 -5.27175 0.832029 0
M  V30 2528 O 245.527 -5.69425 -0.333284 0
M  V30 2529 O 244.461 -5.80168 1.60277 0
M  V30 2530 H 248.287 -2.49701 1.72867 0
M  V30 2531 H 245.872 -1.18977 0.903597 0
M  V30 2532 H 247.754 -4.21394 -0.0230219 0
M  V30 2533 H 246.429 -3.17723 -0.619164 0
M  V30 2534 H 245.336 -3.33614 1.6927 0
M  V30 2535 H 246.669 -4.3982 2.2095 0
M  V30 2536 N 248.321 -0.919034 -1.28029 0
M  V30 2537 C 249.57 -0.550802 -1.94034 0
M  V30 2538 C 249.883 0.910877 -1.73096 0
M  V30 2539 O 251.089 1.3875 -2.33368 0
M  V30 2540 C 249.545 -0.934249 -3.47563 0
M  V30 2541 C 249.153 -2.41602 -3.7727 0
M  V30 2542 C 250.897 -0.636854 -4.19696 0
M  V30 2543 C 248.804 -2.73932 -5.24133 0
M  V30 2544 H 247.734 -0.202273 -0.726362 0
M  V30 2545 H 250.385 -1.11867 -1.45458 0
M  V30 2546 H 248.767 -0.295115 -3.94899 0
M  V30 2547 H 249.941 -3.10233 -3.40723 0
M  V30 2548 H 248.256 -2.68441 -3.18321 0
M  V30 2549 H 250.853 -0.855005 -5.2782 0
M  V30 2550 H 251.196 0.425575 -4.14119 0
M  V30 2551 H 251.729 -1.23469 -3.78154 0
M  V30 2552 H 248.468 -3.79049 -5.34792 0
M  V30 2553 H 247.988 -2.09942 -5.61858 0
M  V30 2554 H 249.667 -2.61215 -5.91925 0
M  V30 2555 N 249.799 1.42003 -0.683588 0
M  V30 2556 C 251.048 2.00638 -0.206681 0
M  V30 2557 C 251.361 1.5472 1.19671 0
M  V30 2558 O 252.567 2.05833 1.77045 0
M  V30 2559 C 251.023 3.58487 -0.318632 0
M  V30 2560 C 250.631 4.1339 -1.72663 0
M  V30 2561 C 252.375 4.24384 0.0991141 0
M  V30 2562 C 250.282 5.63633 -1.79087 0
M  V30 2563 H 249.212 0.750408 -0.0735107 0
M  V30 2564 H 251.863 1.62624 -0.850048 0
M  V30 2565 H 250.245 3.94047 0.392781 0
M  V30 2566 H 251.419 3.89273 -2.46583 0
M  V30 2567 H 249.734 3.59976 -2.09299 0
M  V30 2568 H 252.331 5.34652 0.0713833 0
M  V30 2569 H 252.674 4.00505 1.13586 0
M  V30 2570 H 253.207 3.93816 -0.561599 0
M  V30 2571 H 249.946 5.92323 -2.80774 0
M  V30 2572 H 249.466 5.89714 -1.09535 0
M  V30 2573 H 251.145 6.28201 -1.5483 0
M  V30 2574 N 251.277 0.427512 1.51691 0
M  V30 2575 C 252.693 0.0792977 1.59403 0
M  V30 2576 C 252.893 -1.41035 1.43914 0
M  V30 2577 O 251.949 -2.17922 1.27539 0
M  V30 2578 C 253.262 0.590636 2.94842 0
M  V30 2579 C 254.81 0.550215 3.08126 0
M  V30 2580 C 255.285 1.03836 4.46074 0
M  V30 2581 N 256.776 0.995943 4.52366 0
M  V30 2582 C 257.511 1.34463 5.57411 0
M  V30 2583 N 257.007 1.76569 6.69922 0
M  V30 2584 N 258.8 1.26343 5.47717 0
M  V30 2585 H 250.951 1.39687 1.60004 0
M  V30 2586 H 253.214 0.575003 0.753708 0
M  V30 2587 H 252.92 1.63251 3.11516 0
M  V30 2588 H 252.794 0.0102061 3.77199 0
M  V30 2589 H 255.181 -0.482654 2.91126 0
M  V30 2590 H 255.262 1.16693 2.27632 0
M  V30 2591 H 254.906 2.06965 4.63819 0
M  V30 2592 H 254.836 0.398286 5.25092 0
M  V30 2593 H 257.327 0.68661 3.7161 0
M  V30 2594 H 257.64 2.01438 7.46085 0
M  V30 2595 H 255.985 1.80488 6.71155 0
M  V30 2596 H 259.176 0.933209 4.58703 0
M  V30 2597 H 259.349 1.53846 6.29472 0
M  V30 2598 N 252.755 -1.56801 0.158532 0
M  V30 2599 C 254.003 -1.96102 -0.488712 0
M  V30 2600 C 254.324 -1.04498 -1.64636 0
M  V30 2601 O 253.594 -0.108783 -1.95598 0
M  V30 2602 H 252.174 -0.724102 -0.183535 0
M  V30 2603 H 254.836 -1.93457 0.236728 0
M  V30 2604 H 253.932 -3.00097 -0.857219 0
M  V30 2605 N 254.233 0.115231 -1.57178 0
M  V30 2606 C 255.183 1.14707 -1.97044 0
M  V30 2607 C 256.167 1.36866 -0.845957 0
M  V30 2608 O 257.359 1.37895 -1.10968 0
M  V30 2609 C 254.488 2.47266 -2.38148 0
M  V30 2610 C 253.574 2.28566 -3.57237 0
M  V30 2611 N 253.965 1.79685 -4.72807 0
M  V30 2612 C 252.263 2.59208 -3.62943 0
M  V30 2613 C 252.964 1.74781 -5.54821 0
M  V30 2614 N 251.94 2.19264 -4.97417 0
M  V30 2615 H 255.742 0.761754 -2.83857 0
M  V30 2616 H 253.256 0.322928 -1.59157 0
M  V30 2617 H 255.253 3.219 -2.64927 0
M  V30 2618 H 253.913 2.86552 -1.52702 0
M  V30 2619 H 254.924 1.49177 -4.9595 0
M  V30 2620 H 251.601 3.02154 -2.88113 0
M  V30 2621 H 252.991 1.38212 -6.57531 0
M  V30 2622 N 255.711 1.52812 0.385517 0
M  V30 2623 C 256.674 1.77188 1.45386 0
M  V30 2624 C 257.674 0.641953 1.4743 0
M  V30 2625 O 258.864 0.910033 1.4854 0
M  V30 2626 C 255.996 1.87582 2.8465 0
M  V30 2627 H 257.189 2.72583 1.25054 0
M  V30 2628 H 254.742 1.43586 0.617467 0
M  V30 2629 H 255.477 0.941849 3.10322 0
M  V30 2630 H 255.262 2.69748 2.84567 0
M  V30 2631 H 256.752 2.08102 3.62054 0
M  V30 2632 N 257.189 -0.644168 1.43834 0
M  V30 2633 C 258.152 -1.73857 1.49353 0
M  V30 2634 C 259.152 -1.56315 0.377112 0
M  V30 2635 O 260.342 -1.62048 0.639226 0
M  V30 2636 C 257.474 -3.12819 1.35488 0
M  V30 2637 H 258.667 -1.70342 2.46827 0
M  V30 2638 H 256.22 -0.856652 1.30733 0
M  V30 2639 H 256.955 -3.2194 0.390569 0
M  V30 2640 H 256.74 -3.26958 2.16428 0
M  V30 2641 H 258.23 -3.92606 1.42302 0
M  V30 2642 N 258.668 -1.30515 -0.883378 0
M  V30 2643 C 259.915 -1.1943 -1.63532 0
M  V30 2644 C 260.243 0.250627 -1.92878 0
M  V30 2645 O 259.498 1.19556 -1.54935 0
M  V30 2646 C 259.797 -1.96994 -2.98209 0
M  V30 2647 C 259.463 -3.466 -2.88408 0
M  V30 2648 C 258.125 -3.87397 -2.85442 0
M  V30 2649 C 260.477 -4.41863 -2.76418 0
M  V30 2650 C 257.805 -5.21745 -2.68327 0
M  V30 2651 C 260.157 -5.7632 -2.60841 0
M  V30 2652 C 258.821 -6.16354 -2.56251 0
M  V30 2653 H 258.091 -0.437025 -0.598406 0
M  V30 2654 H 260.738 -1.61635 -1.02696 0
M  V30 2655 H 259.043 -1.47429 -3.63004 0
M  V30 2656 H 260.74 -1.85808 -3.55354 0
M  V30 2657 H 257.33 -3.14182 -2.91527 0
M  V30 2658 H 261.514 -4.11285 -2.77775 0
M  V30 2659 H 256.77 -5.51853 -2.63189 0
M  V30 2660 H 260.944 -6.49772 -2.50538 0
M  V30 2661 H 258.571 -7.20401 -2.42748 0
M  V30 2662 N 260.146 1.09593 -1.13257 0
M  V30 2663 C 261.374 1.855 -0.916378 0
M  V30 2664 C 261.789 1.81069 0.534738 0
M  V30 2665 O 261.146 1.20562 1.37007 0
M  V30 2666 C 261.197 3.33546 -1.39388 0
M  V30 2667 O 260.918 3.37927 -2.78813 0
M  V30 2668 C 262.419 4.26299 -1.21588 0
M  V30 2669 H 259.639 0.585991 -0.326887 0
M  V30 2670 H 262.183 1.38488 -1.5047 0
M  V30 2671 H 260.338 3.77992 -0.848597 0
M  V30 2672 H 260.752 4.30254 -2.9997 0
M  V30 2673 H 262.226 5.28341 -1.59876 0
M  V30 2674 H 262.703 4.38918 -0.157376 0
M  V30 2675 H 263.309 3.87668 -1.7491 0
M  V30 2676 N 261.624 0.925811 1.2754 0
M  V30 2677 C 262.849 0.580924 1.99098 0
M  V30 2678 C 263.274 -0.833555 1.68622 0
M  V30 2679 O 262.632 -1.55903 0.925422 0
M  V30 2680 C 262.68 0.811186 3.51358 0
M  V30 2681 O 261.784 -0.124129 4.12213 0
M  V30 2682 H 261.125 0.223873 0.625122 0
M  V30 2683 H 263.655 1.24455 1.62395 0
M  V30 2684 H 263.665 0.72601 4.01489 0
M  V30 2685 H 262.34 1.84227 3.72872 0
M  V30 2686 H 260.917 0.0108006 3.72898 0
M  V30 2687 N 263.102 -1.41638 0.69111 0
M  V30 2688 C 264.379 -1.95036 0.148421 0
M  V30 2689 C 264.759 -1.63072 -1.34055 0
M  V30 2690 O 264.107 -0.93538 -2.08478 0
M  V30 2691 C 264.317 -3.46279 0.434951 0
M  V30 2692 C 265.665 -4.23069 0.360275 0
M  V30 2693 O 266.689 -3.54277 0.369613 0
M  V30 2694 O 265.548 -5.45583 0.316534 0
M  V30 2695 H 262.642 -0.826908 0.0123654 0
M  V30 2696 H 265.188 -1.5138 0.766963 0
M  V30 2697 H 263.96 -3.6281 1.46576 0
M  V30 2698 H 263.583 -3.97019 -0.214787 0
M  V30 2699 N 264.58 -0.43555 -1.51462 0
M  V30 2700 C 265.991 0.0279871 -1.86679 0
M  V30 2701 C 266.342 1.42104 -1.35281 0
M  V30 2702 O 265.467 2.04667 -0.702878 0
M  V30 2703 C 266.062 0.0575626 -3.38751 0
M  V30 2704 C 264.621 0.465507 -3.7351 0
M  V30 2705 C 263.768 -0.342996 -2.75171 0
M  V30 2706 H 266.719 -0.651473 -1.44712 0
M  V30 2707 H 266.74 0.867421 -3.70481 0
M  V30 2708 H 266.252 -0.956448 -3.7613 0
M  V30 2709 H 264.353 1.48519 -3.41721 0
M  V30 2710 H 264.466 0.191546 -4.78717 0
M  V30 2711 H 262.83 0.198442 -2.53926 0
M  V30 2712 H 263.613 -1.35585 -3.15391 0
M  V30 2713 N 266.058 1.56714 -0.166846 0
M  V30 2714 C 267.005 2.17746 0.765193 0
M  V30 2715 C 267.975 1.11614 1.23011 0
M  V30 2716 O 269.16 1.39745 1.29908 0
M  V30 2717 C 266.3 2.81882 1.9909 0
M  V30 2718 C 265.413 4.02462 1.56997 0
M  V30 2719 C 264.548 4.54537 2.749 0
M  V30 2720 C 263.587 5.67538 2.29275 0
M  V30 2721 N 262.724 6.14142 3.40255 0
M  V30 2722 H 267.564 2.97048 0.237952 0
M  V30 2723 H 265.101 1.4672 0.105725 0
M  V30 2724 H 267.059 3.17221 2.70974 0
M  V30 2725 H 265.689 2.05191 2.49192 0
M  V30 2726 H 264.741 3.72973 0.748037 0
M  V30 2727 H 266.053 4.84273 1.19503 0
M  V30 2728 H 265.207 4.92035 3.54946 0
M  V30 2729 H 263.946 3.71774 3.1565 0
M  V30 2730 H 262.951 5.29597 1.47674 0
M  V30 2731 H 264.176 6.52099 1.89588 0
M  V30 2732 H 262.122 5.3431 3.8059 0
M  V30 2733 H 262.039 6.9093 3.06841 0
M  V30 2734 H 263.307 6.56289 4.206 0
M  V30 2735 N 267.536 -0.106894 1.57237 0
M  V30 2736 C 268.947 -0.662723 1.74542 0
M  V30 2737 C 269.298 -1.7971 0.787319 0
M  V30 2738 O 268.423 -2.16368 -0.0369636 0
M  V30 2739 C 269.018 -1.20896 3.16496 0
M  V30 2740 C 267.577 -1.71096 3.35266 0
M  V30 2741 C 266.724 -0.615642 2.7038 0
M  V30 2742 H 269.675 0.119106 1.58252 0
M  V30 2743 H 269.696 -2.07847 3.18716 0
M  V30 2744 H 269.208 -0.383122 3.86204 0
M  V30 2745 H 267.309 -2.56119 2.70618 0
M  V30 2746 H 267.422 -1.81208 4.43509 0
M  V30 2747 H 265.786 -1.05222 2.31949 0
M  V30 2748 H 266.569 0.199419 3.4272 0
M  V30 2749 N 269.014 -1.53014 -0.377408 0
M  V30 2750 C 270.242 -1.72515 -1.14219 0
M  V30 2751 C 270.657 -0.448735 -1.8339 0
M  V30 2752 O 270.014 0.577592 -1.73119 0
M  V30 2753 C 270.065 -2.8826 -2.18148 0
M  V30 2754 O 269.786 -4.10962 -1.51795 0
M  V30 2755 C 271.287 -3.19536 -3.07264 0
M  V30 2756 H 268.507 -0.577301 -0.342001 0
M  V30 2757 H 271.051 -1.99712 -0.439935 0
M  V30 2758 H 269.206 -2.63492 -2.83991 0
M  V30 2759 H 269.62 -4.75693 -2.20945 0
M  V30 2760 H 271.094 -4.03959 -3.76193 0
M  V30 2761 H 271.571 -2.34403 -3.71419 0
M  V30 2762 H 272.177 -3.46186 -2.47053 0
M  V30 2763 N 270.492 0.636531 -1.44174 0
M  V30 2764 C 271.741 1.39213 -1.45954 0
M  V30 2765 C 272.054 1.95374 -0.0939119 0
M  V30 2766 O 273.26 2.71498 0.0107767 0
M  V30 2767 C 271.716 2.52025 -2.56927 0
M  V30 2768 C 271.324 2.024 -3.99673 0
M  V30 2769 C 273.068 3.29269 -2.67922 0
M  V30 2770 C 270.975 3.12521 -5.0208 0
M  V30 2771 H 269.905 0.523132 -0.542999 0
M  V30 2772 H 272.556 0.685349 -1.70221 0
M  V30 2773 H 270.938 3.25253 -2.25891 0
M  V30 2774 H 272.112 1.36073 -4.40251 0
M  V30 2775 H 270.427 1.37987 -3.92872 0
M  V30 2776 H 273.024 4.11352 -3.41605 0
M  V30 2777 H 273.367 3.78397 -1.73555 0
M  V30 2778 H 273.9 2.63129 -2.98342 0
M  V30 2779 H 270.639 2.68343 -5.98057 0
M  V30 2780 H 270.159 3.77507 -4.66099 0
M  V30 2781 H 271.838 3.77385 -5.25538 0
M  V30 2782 N 271.97 1.30982 0.876444 0
M  V30 2783 C 272.88 1.2003 2.01569 0
M  V30 2784 C 273.896 0.11838 1.73597 0
M  V30 2785 O 275.072 0.33495 1.98595 0
M  V30 2786 C 272.137 0.901637 3.34771 0
M  V30 2787 C 271.198 2.06979 3.76109 0
M  V30 2788 C 270.431 1.78529 5.02954 0
M  V30 2789 O 270.654 0.717296 5.65872 0
M  V30 2790 O 269.588 2.64019 5.40905 0
M  V30 2791 H 273.414 2.15753 2.13739 0
M  V30 2792 H 270.999 1.10658 1.00375 0
M  V30 2793 H 272.881 0.750645 4.1466 0
M  V30 2794 H 271.556 -0.0256141 3.2369 0
M  V30 2795 H 270.463 2.27616 2.96887 0
M  V30 2796 H 271.796 2.97907 3.91807 0
M  V30 2797 N 273.449 -1.08991 1.13837 0
M  V30 2798 C 274.695 -1.81526 0.90422 0
M  V30 2799 C 275.028 -1.85706 -0.568066 0
M  V30 2800 O 274.303 -1.32855 -1.42056 0
M  V30 2801 C 274.586 -3.27447 1.49835 0
M  V30 2802 C 274.439 -3.31512 3.04006 0
M  V30 2803 C 275.758 -4.24256 1.17025 0
M  V30 2804 H 272.877 -0.659029 0.329923 0
M  V30 2805 H 275.519 -1.27644 1.40737 0
M  V30 2806 H 273.669 -3.73462 1.07044 0
M  V30 2807 H 275.341 -2.93867 3.55584 0
M  V30 2808 H 273.584 -2.70963 3.38765 0
M  V30 2809 H 274.255 -4.34329 3.40679 0
M  V30 2810 H 276.731 -3.86549 1.54009 0
M  V30 2811 H 275.607 -5.24684 1.61237 0
M  V30 2812 H 275.868 -4.42019 0.0846274 0
M  V30 2813 N 274.927 -0.932562 -1.27047 0
M  V30 2814 C 276.152 -0.591474 -1.98787 0
M  V30 2815 C 276.577 0.824601 -1.69062 0
M  V30 2816 O 275.935 1.5541 -0.933677 0
M  V30 2817 C 275.983 -0.829808 -3.50922 0
M  V30 2818 O 275.087 0.102266 -4.12273 0
M  V30 2819 H 274.428 -0.227185 -0.623926 0
M  V30 2820 H 276.958 -1.25314 -1.61733 0
M  V30 2821 H 276.968 -0.747292 -4.01098 0
M  V30 2822 H 275.643 -1.86201 -3.7189 0
M  V30 2823 H 274.22 -0.0305761 -3.72887 0
M  V30 2824 N 276.405 1.4127 -0.698611 0
M  V30 2825 C 277.653 2.00782 -0.230409 0
M  V30 2826 C 277.974 1.5562 1.17505 0
M  V30 2827 O 277.244 0.78815 1.79346 0
M  V30 2828 H 275.824 0.742464 -0.0821944 0
M  V30 2829 H 278.486 1.72852 -0.90045 0
M  V30 2830 H 277.582 3.11095 -0.25021 0
M  V30 2831 N 277.883 0.443576 1.51229 0
M  V30 2832 C 278.83 -0.364716 2.279 0
M  V30 2833 C 279.8 -1.0114 1.31757 0
M  V30 2834 O 280.985 -1.02912 1.60667 0
M  V30 2835 C 278.125 -1.45644 3.12861 0
M  V30 2836 C 277.238 -0.827269 4.24005 0
M  V30 2837 C 276.373 -1.89456 4.96266 0
M  V30 2838 C 275.412 -1.24416 5.99322 0
M  V30 2839 N 274.549 -2.25309 6.64966 0
M  V30 2840 H 279.389 0.295464 2.96532 0
M  V30 2841 H 276.926 0.157554 1.46254 0
M  V30 2842 H 278.884 -2.10076 3.6045 0
M  V30 2843 H 277.514 -2.08616 2.46331 0
M  V30 2844 H 276.566 -0.0710839 3.80334 0
M  V30 2845 H 277.878 -0.312481 4.9782 0
M  V30 2846 H 277.032 -2.61535 5.47434 0
M  V30 2847 H 275.771 -2.4431 4.22095 0
M  V30 2848 H 274.776 -0.508868 5.4744 0
M  V30 2849 H 276.001 -0.702882 6.75453 0
M  V30 2850 H 273.947 -2.79231 5.93604 0
M  V30 2851 H 273.864 -1.78739 7.34567 0
M  V30 2852 H 275.132 -2.96853 7.20763 0
M  V30 2853 N 279.361 -1.56624 0.175154 0
M  V30 2854 C 280.308 -2.18149 -0.753634 0
M  V30 2855 C 281.278 -1.12265 -1.22417 0
M  V30 2856 O 282.463 -1.40432 -1.29165 0
M  V30 2857 C 279.603 -2.82933 -1.97592 0
M  V30 2858 C 278.716 -4.03289 -1.5486 0
M  V30 2859 C 277.851 -4.55988 -2.72485 0
M  V30 2860 C 276.89 -5.68746 -2.26262 0
M  V30 2861 N 276.027 -6.15938 -3.36994 0
M  V30 2862 H 280.867 -2.9717 -0.222195 0
M  V30 2863 H 278.404 -1.46774 -0.0979422 0
M  V30 2864 H 280.362 -3.18653 -2.69288 0
M  V30 2865 H 278.992 -2.06509 -2.481 0
M  V30 2866 H 278.044 -3.73364 -0.728246 0
M  V30 2867 H 279.356 -4.849 -1.16933 0
M  V30 2868 H 278.51 -4.9391 -3.52332 0
M  V30 2869 H 277.249 -3.73443 -3.13674 0
M  V30 2870 H 276.254 -5.30372 -1.44863 0
M  V30 2871 H 277.479 -6.53095 -1.86127 0
M  V30 2872 H 275.425 -5.36321 -3.77751 0
M  V30 2873 H 275.342 -6.92548 -3.03172 0
M  V30 2874 H 276.61 -6.58511 -4.17114 0
M  V30 2875 N 280.839 0.0985539 -1.57292 0
M  V30 2876 C 282.069 0.815135 -1.8984 0
M  V30 2877 C 282.477 1.7297 -0.766679 0
M  V30 2878 O 281.82 1.81698 0.270483 0
M  V30 2879 C 281.882 1.6842 -3.17608 0
M  V30 2880 C 281.546 0.94182 -4.4719 0
M  V30 2881 C 282.543 0.273212 -5.19182 0
M  V30 2882 C 280.228 0.916927 -4.9386 0
M  V30 2883 C 282.222 -0.410361 -6.36078 0
M  V30 2884 C 279.909 0.229567 -6.10669 0
M  V30 2885 C 280.907 -0.432902 -6.81627 0
M  V30 2886 O 280.595 -1.10925 -7.9621 0
M  V30 2887 H 280.327 0.238501 -0.632529 0
M  V30 2888 H 282.881 0.0812659 -2.05239 0
M  V30 2889 H 281.111 2.46022 -2.98345 0
M  V30 2890 H 282.8 2.27704 -3.36015 0
M  V30 2891 H 283.566 0.283927 -4.84168 0
M  V30 2892 H 279.445 1.42201 -4.3852 0
M  V30 2893 H 282.989 -0.928013 -6.914 0
M  V30 2894 H 278.886 0.216686 -6.45136 0
M  V30 2895 H 279.654 -1.01579 -8.12172 0
M  V30 2896 N 282.317 1.53212 0.369288 0
M  V30 2897 C 283.545 1.73119 1.13303 0
M  V30 2898 C 283.96 0.458455 1.83149 0
M  V30 2899 O 283.317 -0.568403 1.73423 0
M  V30 2900 C 283.368 2.89413 2.16616 0
M  V30 2901 O 283.089 4.11761 1.49614 0
M  V30 2902 C 284.59 3.21161 3.05566 0
M  V30 2903 H 281.81 0.579107 0.338934 0
M  V30 2904 H 284.354 1.99942 0.429338 0
M  V30 2905 H 282.509 2.64994 2.82589 0
M  V30 2906 H 282.923 4.76858 2.18419 0
M  V30 2907 H 284.397 4.05949 3.74045 0
M  V30 2908 H 284.874 2.36369 3.70171 0
M  V30 2909 H 285.48 3.47492 2.45213 0
M  V30 2910 N 283.795 -0.628877 1.44509 0
M  V30 2911 C 284.758 -1.72263 1.51188 0
M  V30 2912 C 285.758 -1.55907 0.39367 0
M  V30 2913 O 286.948 -1.61361 0.656377 0
M  V30 2914 C 284.08 -3.11365 1.38798 0
M  V30 2915 H 285.273 -1.67714 2.4862 0
M  V30 2916 H 282.826 -0.842737 1.31634 0
M  V30 2917 H 283.561 -3.21507 0.424693 0
M  V30 2918 H 283.346 -3.24644 2.19884 0
M  V30 2919 H 284.836 -3.91075 1.46458 0
M  V30 2920 N 285.273 -1.31445 -0.869486 0
M  V30 2921 C 286.684 -1.19042 -1.43826 0
M  V30 2922 C 287.035 0.202919 -1.95148 0
M  V30 2923 O 286.16 1.10071 -1.86315 0
M  V30 2924 C 286.755 -2.15499 -2.6143 0
M  V30 2925 C 285.314 -2.07028 -3.14351 0
M  V30 2926 C 284.461 -2.04701 -1.87063 0
M  V30 2927 H 287.412 -1.43489 -0.677984 0
M  V30 2928 H 287.433 -1.74488 -3.38134 0
M  V30 2929 H 286.945 -3.16899 -2.24046 0
M  V30 2930 H 285.046 -1.08825 -3.56354 0
M  V30 2931 H 285.159 -2.96157 -3.766 0
M  V30 2932 H 283.523 -1.49724 -2.06046 0
M  V30 2933 H 284.306 -3.07857 -1.51917 0
M  V30 2934 N 286.751 1.08385 -1.14413 0
M  V30 2935 C 287.701 2.13509 -0.79987 0
M  V30 2936 C 288.685 1.5951 0.211059 0
M  V30 2937 O 289.877 1.76995 0.0133694 0
M  V30 2938 C 287.006 3.42162 -0.279297 0
M  V30 2939 C 286.092 4.03042 -1.31976 0
M  V30 2940 N 286.483 4.38327 -2.52395 0
M  V30 2941 C 284.781 4.30379 -1.17004 0
M  V30 2942 C 285.482 4.86428 -3.19003 0
M  V30 2943 N 284.458 4.84547 -2.46405 0
M  V30 2944 H 288.26 2.38609 -1.7159 0
M  V30 2945 H 285.774 1.2572 -1.02802 0
M  V30 2946 H 287.771 4.16898 -0.0143688 0
M  V30 2947 H 286.431 3.18511 0.630923 0
M  V30 2948 H 287.442 4.29349 -2.89621 0
M  V30 2949 H 284.119 4.16281 -0.318854 0
M  V30 2950 H 285.509 5.23107 -4.21674 0
M  V30 2951 N 288.23 0.939286 1.26551 0
M  V30 2952 C 289.479 0.581601 1.93133 0
M  V30 2953 C 289.792 -0.883224 1.74524 0
M  V30 2954 O 290.998 -1.3502 2.35546 0
M  V30 2955 C 289.454 0.989425 3.46032 0
M  V30 2956 C 289.062 2.47573 3.73379 0
M  V30 2957 C 290.806 0.703544 4.18629 0
M  V30 2958 C 288.713 2.82235 5.19709 0
M  V30 2959 H 287.643 0.213803 0.723052 0
M  V30 2960 H 290.294 1.14167 1.4366 0
M  V30 2961 H 288.676 0.357902 3.94379 0
M  V30 2962 H 289.85 3.15614 3.35744 0
M  V30 2963 H 288.165 2.73471 3.1401 0
M  V30 2964 H 290.762 0.938869 5.26393 0
M  V30 2965 H 291.105 -0.359639 4.14744 0
M  V30 2966 H 291.638 1.2947 3.76141 0
M  V30 2967 H 288.377 3.87509 5.28694 0
M  V30 2968 H 287.897 2.18854 5.58447 0
M  V30 2969 H 289.576 2.70599 5.87695 0
M  V30 2970 N 289.708 -1.40897 0.706093 0
M  V30 2971 C 290.638 -2.33418 0.0620085 0
M  V30 2972 C 291.619 -1.52385 -0.755827 0
M  V30 2973 O 292.804 -1.80886 -0.706674 0
M  V30 2974 C 289.934 -3.36293 -0.867445 0
M  V30 2975 C 288.888 -4.27716 -0.155932 0
M  V30 2976 C 288.214 -5.2105 -1.20046 0
M  V30 2977 C 289.514 -5.12944 0.984149 0
M  V30 2978 H 291.208 -2.87527 0.83477 0
M  V30 2979 H 288.754 -1.38249 0.402875 0
M  V30 2980 H 290.707 -3.99949 -1.32735 0
M  V30 2981 H 289.431 -2.80556 -1.67199 0
M  V30 2982 H 288.09 -3.65498 0.284047 0
M  V30 2983 H 287.738 -4.61624 -1.99781 0
M  V30 2984 H 287.438 -5.83056 -0.729328 0
M  V30 2985 H 288.962 -5.87584 -1.66066 0
M  V30 2986 H 290.376 -5.70109 0.604048 0
M  V30 2987 H 288.773 -5.83945 1.38304 0
M  V30 2988 H 289.843 -4.49485 1.81911 0
M  V30 2989 N 291.186 -0.45159 -1.50991 0
M  V30 2990 C 292.435 0.111653 -2.01391 0
M  V30 2991 C 292.748 1.42529 -1.33959 0
M  V30 2992 O 293.954 2.07232 -1.75405 0
M  V30 2993 C 292.41 0.249514 -3.59034 0
M  V30 2994 C 292.018 -1.05453 -4.35412 0
M  V30 2995 C 293.762 0.765762 -4.17536 0
M  V30 2996 C 291.669 -0.881529 -5.84793 0
M  V30 2997 H 290.599 0.0455022 -0.752626 0
M  V30 2998 H 293.25 -0.583524 -1.73975 0
M  V30 2999 H 291.632 1.00803 -3.82955 0
M  V30 3000 H 292.806 -1.82248 -4.23229 0
M  V30 3001 H 291.121 -1.50039 -3.88429 0
M  V30 3002 H 293.718 0.911913 -5.26866 0
M  V30 3003 H 294.061 1.75201 -3.77638 0
M  V30 3004 H 294.594 0.0651744 -3.97747 0
M  V30 3005 H 291.333 -1.84057 -6.29129 0
M  V30 3006 H 290.853 -0.153625 -5.99603 0
M  V30 3007 H 292.532 -0.540363 -6.4474 0
M  V30 3008 N 292.664 1.56529 -0.183458 0
M  V30 3009 C 293.627 2.17324 0.728223 0
M  V30 3010 C 294.627 1.12453 1.14939 0
M  V30 3011 O 295.817 1.37902 1.06437 0
M  V30 3012 C 292.949 2.76591 1.99274 0
M  V30 3013 H 294.142 2.99241 0.198772 0
M  V30 3014 H 291.695 1.5616 0.0661391 0
M  V30 3015 H 292.43 1.98441 2.56499 0
M  V30 3016 H 292.215 3.5335 1.69959 0
M  V30 3017 H 293.705 3.23311 2.6431 0
M  V30 3018 N 294.142 -0.090211 1.57342 0
M  V30 3019 C 295.37 -0.806224 1.90546 0
M  V30 3020 C 295.785 -1.72041 0.777644 0
M  V30 3021 O 295.142 -1.80778 -0.250103 0
M  V30 3022 C 295.193 -1.61546 3.23396 0
M  V30 3023 O 294.914 -0.738043 4.31839 0
M  V30 3024 C 296.415 -2.4341 3.70495 0
M  V30 3025 H 293.635 -0.230256 0.630257 0
M  V30 3026 H 296.179 -0.0659843 2.04394 0
M  V30 3027 H 294.334 -2.30816 3.11131 0
M  V30 3028 H 294.748 -1.29901 5.08159 0
M  V30 3029 H 296.222 -2.95676 4.66133 0
M  V30 3030 H 296.699 -3.22098 2.98579 0
M  V30 3031 H 297.305 -1.79331 3.85643 0
M  V30 3032 N 295.62 -1.53406 -0.361157 0
M  V30 3033 C 296.868 -1.69467 -1.10115 0
M  V30 3034 C 297.189 -0.451352 -1.89705 0
M  V30 3035 O 296.459 0.534636 -1.88463 0
M  V30 3036 H 295.039 -0.624749 -0.409508 0
M  V30 3037 H 297.701 -1.90609 -0.406699 0
M  V30 3038 H 296.797 -2.55774 -1.78847 0
M  V30 3039 N 297.098 0.621204 -1.44841 0
M  V30 3040 C 298.346 1.37783 -1.47852 0
M  V30 3041 C 298.667 1.94653 -0.116224 0
M  V30 3042 O 297.937 1.76367 0.852737 0
M  V30 3043 H 296.517 0.511453 -0.544449 0
M  V30 3044 H 299.179 0.730446 -1.80694 0
M  V30 3045 H 298.275 2.20414 -2.20961 0
M  V30 3046 N 298.576 1.31904 0.862503 0
M  V30 3047 C 299.509 1.14514 1.97388 0
M  V30 3048 C 300.487 0.0466493 1.62533 0
M  V30 3049 O 301.671 0.204484 1.87388 0
M  V30 3050 C 298.798 0.751347 3.30261 0
M  V30 3051 C 297.844 1.85395 3.84098 0
M  V30 3052 S 298.677 3.46081 4.08642 0
M  V30 3053 C 299.833 3.08655 5.44502 0
M  V30 3054 H 300.066 2.08597 2.11836 0
M  V30 3055 H 297.599 1.16475 1.01356 0
M  V30 3056 H 299.557 0.530901 4.07052 0
M  V30 3057 H 298.218 -0.170493 3.13637 0
M  V30 3058 H 297.411 1.53122 4.80177 0
M  V30 3059 H 297.013 2.02984 3.14123 0
M  V30 3060 H 299.305 2.58012 6.26447 0
M  V30 3061 H 300.248 4.03726 5.81731 0
M  V30 3062 H 300.656 2.45891 5.08132 0
M  V30 3063 N 300.054 -1.07777 1.14986 0
M  V30 3064 C 301.465 -1.61766 0.932127 0
M  V30 3065 C 301.816 -1.88974 -0.527581 0
M  V30 3066 O 300.941 -1.65198 -1.39781 0
M  V30 3067 C 301.536 -2.93891 1.68563 0
M  V30 3068 C 300.095 -3.44639 1.5133 0
M  V30 3069 C 299.242 -2.18767 1.704 0
M  V30 3070 H 302.193 -0.909201 1.30074 0
M  V30 3071 H 302.214 -3.62623 1.15259 0
M  V30 3072 H 301.726 -2.74057 2.74799 0
M  V30 3073 H 299.827 -3.69564 0.474702 0
M  V30 3074 H 299.94 -4.20966 2.28746 0
M  V30 3075 H 298.304 -2.28253 1.13016 0
M  V30 3076 H 299.087 -2.01433 2.77992 0
M  V30 3077 N 301.532 -0.945985 -1.26051 0
M  V30 3078 C 302.757 -0.612525 -1.98149 0
M  V30 3079 C 303.182 0.806623 -1.69927 0
M  V30 3080 O 302.54 1.54411 -0.950108 0
M  V30 3081 C 302.588 -0.866981 -3.50023 0
M  V30 3082 O 301.692 0.0585333 -4.12358 0
M  V30 3083 H 301.033 -0.23379 -0.621481 0
M  V30 3084 H 303.563 -1.27023 -1.60395 0
M  V30 3085 H 303.573 -0.789792 -4.00283 0
M  V30 3086 H 302.248 -1.90135 -3.69894 0
M  V30 3087 H 300.825 -0.0701241 -3.72834 0
M  V30 3088 N 303.011 1.40521 -0.713556 0
M  V30 3089 C 304.239 2.05237 -0.261775 0
M  V30 3090 C 304.654 1.53755 1.09567 0
M  V30 3091 O 304.011 0.693268 1.6882 0
M  V30 3092 C 304.062 3.60763 -0.230706 0
M  V30 3093 O 303.783 4.10345 -1.53455 0
M  V30 3094 C 305.284 4.42651 0.239874 0
M  V30 3095 H 302.504 0.660533 -0.118057 0
M  V30 3096 H 305.048 1.79967 -0.971192 0
M  V30 3097 H 303.203 3.8501 0.429661 0
M  V30 3098 H 303.617 5.04526 -1.43366 0
M  V30 3099 H 305.091 5.51599 0.210468 0
M  V30 3100 H 305.568 4.20082 1.28171 0
M  V30 3101 H 306.174 4.23507 -0.390142 0
M  V30 3102 N 304.489 0.459591 1.5075 0
M  V30 3103 C 305.9 0.00171547 1.867 0
M  V30 3104 C 306.251 -1.39934 1.37525 0
M  V30 3105 O 305.376 -2.03523 0.735349 0
M  V30 3106 C 305.971 -0.00366298 3.388 0
M  V30 3107 C 304.53 -0.406026 3.74204 0
M  V30 3108 C 303.677 0.38673 2.7459 0
M  V30 3109 H 306.628 0.674413 1.43657 0
M  V30 3110 H 306.649 -0.808371 3.71814 0
M  V30 3111 H 306.161 1.01617 3.74561 0
M  V30 3112 H 304.262 -1.43063 3.4404 0
M  V30 3113 H 304.375 -0.115362 4.78961 0
M  V30 3114 H 302.739 -0.158019 2.54209 0
M  V30 3115 H 303.522 1.40585 3.13194 0
M  V30 3116 N 305.967 -1.56429 0.191757 0
M  V30 3117 C 306.917 -2.15548 -0.743184 0
M  V30 3118 C 307.901 -1.09531 -1.17863 0
M  V30 3119 O 309.093 -1.35602 -1.13759 0
M  V30 3120 C 306.222 -2.81577 -1.96391 0
M  V30 3121 C 305.308 -3.9478 -1.54951 0
M  V30 3122 N 305.699 -4.98677 -0.845876 0
M  V30 3123 C 303.997 -4.06319 -1.83905 0
M  V30 3124 C 304.698 -5.78183 -0.638724 0
M  V30 3125 N 303.674 -5.30495 -1.18643 0
M  V30 3126 H 307.476 -2.9324 -0.196839 0
M  V30 3127 H 304.99 -1.62398 -0.0081603 0
M  V30 3128 H 306.987 -3.22321 -2.64415 0
M  V30 3129 H 305.647 -2.05371 -2.51501 0
M  V30 3130 H 306.658 -5.15464 -0.501704 0
M  V30 3131 H 303.335 -3.41238 -2.40548 0
M  V30 3132 H 304.725 -6.71851 -0.0807929 0
M  V30 3133 N 307.445 0.0818655 -1.57387 0
M  V30 3134 C 308.355 1.11642 -2.06333 0
M  V30 3135 C 309.371 1.43033 -0.99083 0
M  V30 3136 O 310.547 1.53411 -1.30488 0
M  V30 3137 C 307.612 2.41342 -2.48907 0
M  V30 3138 C 306.673 2.17014 -3.7041 0
M  V30 3139 C 305.906 3.4053 -4.10944 0
M  V30 3140 O 306.129 4.4927 -3.51444 0
M  V30 3141 O 305.063 3.29336 -5.03807 0
M  V30 3142 H 308.889 0.730657 -2.9478 0
M  V30 3143 H 306.474 0.295301 -1.46452 0
M  V30 3144 H 308.356 3.17691 -2.76858 0
M  V30 3145 H 307.031 2.79319 -1.63593 0
M  V30 3146 H 305.938 1.38403 -3.47556 0
M  V30 3147 H 307.271 1.83923 -4.56545 0
M  V30 3148 N 308.923 1.53595 0.353017 0
M  V30 3149 C 310.148 1.7462 1.11904 0
M  V30 3150 C 310.573 0.479721 1.8188 0
M  V30 3151 O 309.931 -0.567066 1.72204 0
M  V30 3152 C 309.979 2.92029 2.11545 0
M  V30 3153 O 309.083 2.61516 3.18878 0
M  V30 3154 H 308.424 0.579531 0.324099 0
M  V30 3155 H 310.954 2.00525 0.406301 0
M  V30 3156 H 310.964 3.18551 2.5493 0
M  V30 3157 H 309.639 3.83888 1.60008 0
M  V30 3158 H 308.216 2.45852 2.80377 0
M  V30 3159 N 310.401 -0.613514 1.45168 0
M  V30 3160 C 311.333 -1.73825 1.4939 0
M  V30 3161 C 312.346 -1.58175 0.385304 0
M  V30 3162 O 313.535 -1.66165 0.652036 0
M  V30 3163 C 310.635 -3.11758 1.32891 0
M  V30 3164 C 309.808 -3.53704 2.57317 0
M  V30 3165 C 308.867 -4.70579 2.35462 0
M  V30 3166 O 307.893 -4.77996 3.09044 0
M  V30 3167 N 309.095 -5.63454 1.39644 0
M  V30 3168 H 311.86 -1.70669 2.46358 0
M  V30 3169 H 309.421 -0.79862 1.40832 0
M  V30 3170 H 311.413 -3.87692 1.1609 0
M  V30 3171 H 309.983 -3.09456 0.442218 0
M  V30 3172 H 309.203 -2.67794 2.89275 0
M  V30 3173 H 310.491 -3.78486 3.40038 0
M  V30 3174 H 309.889 -5.6017 0.789062 0
M  V30 3175 H 308.446 -6.38944 1.28816 0
M  V30 3176 N 311.879 -1.3236 -0.855495 0
M  V30 3177 C 313.128 -1.22226 -1.60448 0
M  V30 3178 C 313.441 0.214733 -1.94418 0
M  V30 3179 O 314.647 0.437917 -2.67945 0
M  V30 3180 C 313.103 -2.14063 -2.89318 0
M  V30 3181 C 312.711 -3.62839 -2.62777 0
M  V30 3182 C 314.455 -2.12764 -3.67331 0
M  V30 3183 C 312.362 -4.4664 -3.87643 0
M  V30 3184 H 311.292 -0.453904 -0.602069 0
M  V30 3185 H 313.943 -1.57314 -0.944698 0
M  V30 3186 H 312.325 -1.71889 -3.5675 0
M  V30 3187 H 313.499 -4.1335 -2.03662 0
M  V30 3188 H 311.814 -3.66261 -1.98096 0
M  V30 3189 H 314.411 -2.72611 -4.59987 0
M  V30 3190 H 314.754 -1.11841 -4.00995 0
M  V30 3191 H 315.287 -2.53214 -3.06802 0
M  V30 3192 H 312.026 -5.48373 -3.5912 0
M  V30 3193 H 311.546 -4.0088 -4.46156 0
M  V30 3194 H 313.225 -4.59597 -4.55389 0
M  V30 3195 N 313.357 1.07166 -1.15556 0
M  V30 3196 C 314.768 1.6127 -0.940693 0
M  V30 3197 C 315.119 1.89251 0.517551 0
M  V30 3198 O 314.244 1.65937 1.38903 0
M  V30 3199 C 314.839 2.92993 -1.7012 0
M  V30 3200 C 313.398 3.43832 -1.53156 0
M  V30 3201 C 312.545 2.1786 -1.71558 0
M  V30 3202 H 315.496 0.90229 -1.30554 0
M  V30 3203 H 315.517 3.62007 -1.17181 0
M  V30 3204 H 315.029 2.72596 -2.76248 0
M  V30 3205 H 313.13 3.69307 -0.494294 0
M  V30 3206 H 313.243 4.19747 -2.30975 0
M  V30 3207 H 311.607 2.2765 -1.14225 0
M  V30 3208 H 312.39 1.99956 -2.79056 0
M  V30 3209 N 314.835 0.952656 1.25548 0
M  V30 3210 C 316.083 0.605176 1.92826 0
M  V30 3211 C 316.404 -0.860261 1.74999 0
M  V30 3212 O 315.674 -1.6125 1.11244 0
M  V30 3213 H 314.254 0.220832 0.713612 0
M  V30 3214 H 316.916 1.21047 1.52754 0
M  V30 3215 H 316.012 0.832798 3.00784 0
M  V30 3216 N 316.313 -1.40141 0.720998 0
M  V30 3217 C 317.276 -2.29058 0.0805834 0
M  V30 3218 C 318.276 -1.45632 -0.681758 0
M  V30 3219 O 319.466 -1.6648 -0.512856 0
M  V30 3220 C 316.598 -3.28925 -0.895593 0
M  V30 3221 H 317.791 -2.87191 0.863793 0
M  V30 3222 H 315.344 -1.48553 0.485975 0
M  V30 3223 H 316.079 -2.75822 -1.70566 0
M  V30 3224 H 315.864 -3.90519 -0.351766 0
M  V30 3225 H 317.354 -3.95494 -1.34069 0
M  V30 3226 N 317.792 -0.46758 -1.50504 0
M  V30 3227 C 319.017 0.0886943 -2.0721 0
M  V30 3228 C 319.442 1.33057 -1.32956 0
M  V30 3229 O 318.8 1.77354 -0.376197 0
M  V30 3230 C 318.848 0.359202 -3.58806 0
M  V30 3231 O 317.952 1.44034 -3.8643 0
M  V30 3232 H 317.293 -0.0114349 -0.663902 0
M  V30 3233 H 319.823 -0.657613 -1.93744 0
M  V30 3234 H 319.833 0.600742 -4.03553 0
M  V30 3235 H 318.508 -0.548311 -4.1227 0
M  V30 3236 H 317.085 1.18638 -3.53524 0
M  V30 3237 N 319.27 1.56325 -0.20005 0
M  V30 3238 C 320.2 2.22318 0.713916 0
M  V30 3239 C 321.181 1.18788 1.21752 0
M  V30 3240 O 322.366 1.47309 1.26545 0
M  V30 3241 C 319.496 2.88639 1.93144 0
M  V30 3242 C 318.45 3.98457 1.56255 0
M  V30 3243 C 317.776 4.51967 2.85709 0
M  V30 3244 C 319.076 5.16612 0.768747 0
M  V30 3245 H 320.77 2.98952 0.163755 0
M  V30 3246 H 318.316 1.43792 0.0773219 0
M  V30 3247 H 320.269 3.33491 2.57608 0
M  V30 3248 H 318.993 2.09419 2.50621 0
M  V30 3249 H 317.652 3.54305 0.941471 0
M  V30 3250 H 317.3 3.69503 3.41287 0
M  V30 3251 H 317 5.26071 2.6177 0
M  V30 3252 H 318.524 4.99523 3.51154 0
M  V30 3253 H 319.938 5.57977 1.3166 0
M  V30 3254 H 318.335 5.96812 0.627286 0
M  V30 3255 H 319.405 4.84358 -0.229168 0
M  V30 3256 N 320.748 -0.0735177 1.57428 0
M  V30 3257 C 321.996 -0.771472 1.86796 0
M  V30 3258 C 322.317 -1.78201 0.791804 0
M  V30 3259 O 321.587 -1.95074 -0.179718 0
M  V30 3260 H 320.167 -0.28791 0.689287 0
M  V30 3261 H 322.829 -0.0500161 1.94836 0
M  V30 3262 H 321.925 -1.28874 2.8425 0
M  V30 3263 N 322.226 -1.5378 -0.344866 0
M  V30 3264 C 323.475 -1.7018 -1.08267 0
M  V30 3265 C 323.788 -0.471 -1.89845 0
M  V30 3266 O 324.994 -0.515917 -2.66553 0
M  V30 3267 C 323.45 -3.00923 -1.97417 0
M  V30 3268 C 323.058 -4.31335 -1.21053 0
M  V30 3269 C 324.802 -3.26688 -2.71063 0
M  V30 3270 C 322.709 -5.53153 -2.09225 0
M  V30 3271 H 321.639 -0.634138 -0.407903 0
M  V30 3272 H 324.29 -1.8028 -0.342246 0
M  V30 3273 H 322.672 -2.84676 -2.75274 0
M  V30 3274 H 323.846 -4.58281 -0.481159 0
M  V30 3275 H 322.161 -4.12173 -0.591813 0
M  V30 3276 H 324.758 -4.1489 -3.37299 0
M  V30 3277 H 325.101 -2.43639 -3.37558 0
M  V30 3278 H 325.634 -3.43705 -2.0028 0
M  V30 3279 H 322.373 -6.38741 -1.47274 0
M  V30 3280 H 321.893 -5.30458 -2.79955 0
M  V30 3281 H 323.572 -5.88744 -2.68308 0
M  V30 3282 N 323.704 0.605807 -1.45491 0
M  V30 3283 C 324.932 1.39136 -1.5313 0
M  V30 3284 C 325.347 1.88082 -0.164507 0
M  V30 3285 O 324.704 1.62316 0.834247 0
M  V30 3286 C 324.755 2.59463 -2.51716 0
M  V30 3287 O 324.476 2.12551 -3.83084 0
M  V30 3288 C 325.977 3.52301 -2.6907 0
M  V30 3289 H 323.197 0.425849 -0.51855 0
M  V30 3290 H 325.741 0.73865 -1.90694 0
M  V30 3291 H 323.896 3.20772 -2.17219 0
M  V30 3292 H 324.31 2.90744 -4.36541 0
M  V30 3293 H 325.784 4.33271 -3.42024 0
M  V30 3294 H 326.261 4.02757 -1.75167 0
M  V30 3295 H 326.867 2.96845 -3.04571 0
M  V30 3296 N 325.182 1.32811 0.848464 0
M  V30 3297 C 326.407 1.26882 1.6406 0
M  V30 3298 C 326.832 -0.15913 1.87426 0
M  V30 3299 O 326.19 -1.11258 1.43148 0
M  V30 3300 C 326.238 2.03997 2.97351 0
M  V30 3301 O 325.342 1.39201 3.88197 0
M  V30 3302 H 324.683 0.436982 0.499943 0
M  V30 3303 H 327.213 1.75224 1.0563 0
M  V30 3304 H 327.223 2.14403 3.47124 0
M  V30 3305 H 325.898 3.0783 2.79666 0
M  V30 3306 H 324.475 1.37381 3.46671 0
M  V30 3307 N 326.66 -1.06551 1.16123 0
M  V30 3308 C 327.937 -1.76097 0.85142 0
M  V30 3309 C 328.317 -2.00802 -0.6513 0
M  V30 3310 O 327.665 -1.63302 -1.59827 0
M  V30 3311 C 327.875 -3.06384 1.67122 0
M  V30 3312 C 329.223 -3.80585 1.88255 0
M  V30 3313 O 330.247 -3.16218 1.63966 0
M  V30 3314 O 329.106 -4.96212 2.2899 0
M  V30 3315 H 326.2 -0.765102 0.313923 0
M  V30 3316 H 328.746 -1.12844 1.26745 0
M  V30 3317 H 327.518 -2.84071 2.69108 0
M  V30 3318 H 327.141 -3.77371 1.25206 0
M  V30 3319 N 328.138 -0.959301 -1.25041 0
M  V30 3320 C 329.386 -0.615393 -1.92503 0
M  V30 3321 C 329.707 0.850969 -1.75452 0
M  V30 3322 O 328.977 1.60658 -1.12098 0
M  V30 3323 H 327.557 -0.224613 -0.712431 0
M  V30 3324 H 330.219 -1.21855 -1.5211 0
M  V30 3325 H 329.315 -0.848738 -3.00338 0
M  V30 3326 N 329.616 1.39756 -0.72842 0
M  V30 3327 C 330.863 2.00645 -0.273487 0
M  V30 3328 C 331.191 1.57786 1.13727 0
M  V30 3329 O 330.446 0.794886 1.7883 0
M  V30 3330 C 330.745 3.56002 -0.315776 0
M  V30 3331 C 330.411 4.18489 -1.67863 0
M  V30 3332 C 329.073 4.3527 -2.05166 0
M  V30 3333 C 331.425 4.53219 -2.57375 0
M  V30 3334 C 328.753 4.84069 -3.31503 0
M  V30 3335 C 331.105 5.03423 -3.83077 0
M  V30 3336 C 329.769 5.18413 -4.20481 0
M  V30 3337 H 329.039 0.734211 -0.100076 0
M  V30 3338 H 331.686 1.6718 -0.933972 0
M  V30 3339 H 329.991 3.89452 0.428285 0
M  V30 3340 H 331.688 4.00963 0.0542575 0
M  V30 3341 H 328.278 4.05824 -1.37858 0
M  V30 3342 H 332.462 4.39878 -2.29827 0
M  V30 3343 H 327.718 4.93859 -3.60435 0
M  V30 3344 H 331.892 5.2927 -4.52599 0
M  V30 3345 H 329.519 5.55987 -5.18443 0
M  V30 3346 N 331.094 0.475555 1.50254 0
M  V30 3347 C 332.341 -0.0778919 2.0235 0
M  V30 3348 C 332.669 -1.39319 1.35722 0
M  V30 3349 O 331.924 -1.89888 0.473395 0
M  V30 3350 C 332.223 -0.305114 3.56095 0
M  V30 3351 C 331.889 0.92903 4.41225 0
M  V30 3352 C 330.551 1.26739 4.6421 0
M  V30 3353 C 332.903 1.75054 4.90923 0
M  V30 3354 C 330.231 2.42724 5.34137 0
M  V30 3355 C 332.583 2.9017 5.62125 0
M  V30 3356 C 331.247 3.24416 5.83362 0
M  V30 3357 H 330.517 -0.0285027 0.740452 0
M  V30 3358 H 333.164 0.630543 1.80821 0
M  V30 3359 H 331.469 -1.09584 3.76163 0
M  V30 3360 H 333.166 -0.747377 3.93974 0
M  V30 3361 H 329.756 0.655428 4.23559 0
M  V30 3362 H 333.94 1.50231 4.73016 0
M  V30 3363 H 329.196 2.69525 5.48786 0
M  V30 3364 H 333.37 3.54169 5.99614 0
M  V30 3365 H 330.997 4.14396 6.37323 0
M  V30 3366 N 332.573 -1.56217 0.208337 0
M  V30 3367 C 333.505 -2.1695 -0.739276 0
M  V30 3368 C 334.518 -1.13492 -1.1672 0
M  V30 3369 O 335.707 -1.40529 -1.10063 0
M  V30 3370 C 332.807 -2.72755 -2.01142 0
M  V30 3371 C 331.98 -4.0125 -1.74118 0
M  V30 3372 C 331.039 -4.41749 -2.85909 0
M  V30 3373 O 330.065 -5.08912 -2.54946 0
M  V30 3374 N 331.267 -4.06342 -4.14568 0
M  V30 3375 H 334.032 -2.98893 -0.219837 0
M  V30 3376 H 331.593 -1.61878 0.0268445 0
M  V30 3377 H 333.585 -2.96826 -2.75094 0
M  V30 3378 H 332.155 -1.95191 -2.4417 0
M  V30 3379 H 331.375 -3.85173 -0.838775 0
M  V30 3380 H 332.663 -4.851 -1.53477 0
M  V30 3381 H 332.061 -3.52345 -4.42571 0
M  V30 3382 H 330.618 -4.35335 -4.85105 0
M  V30 3383 N 334.051 0.0651679 -1.57465 0
M  V30 3384 C 334.981 1.07693 -2.07182 0
M  V30 3385 C 335.962 1.39962 -0.966673 0
M  V30 3386 O 337.147 1.49475 -1.2398 0
M  V30 3387 C 334.277 2.3885 -2.52127 0
M  V30 3388 C 333.231 2.20917 -3.66579 0
M  V30 3389 C 332.557 3.57515 -3.97601 0
M  V30 3390 C 333.857 1.62493 -4.9638 0
M  V30 3391 H 335.551 0.663199 -2.91962 0
M  V30 3392 H 333.097 0.317569 -1.40455 0
M  V30 3393 H 335.05 3.09928 -2.85522 0
M  V30 3394 H 333.774 2.82215 -1.64384 0
M  V30 3395 H 332.433 1.52279 -3.33477 0
M  V30 3396 H 332.081 3.98463 -3.06979 0
M  V30 3397 H 331.781 3.46353 -4.74672 0
M  V30 3398 H 333.305 4.30013 -4.33499 0
M  V30 3399 H 334.719 2.23445 -5.27963 0
M  V30 3400 H 333.116 1.62009 -5.77818 0
M  V30 3401 H 334.186 0.587041 -4.81333 0
M  V30 3402 N 335.529 1.53961 0.336706 0
M  V30 3403 C 336.439 1.85432 1.43708 0
M  V30 3404 C 337.455 0.745053 1.57242 0
M  V30 3405 O 338.631 1.03804 1.72588 0
M  V30 3406 C 335.696 2.06349 2.78605 0
M  V30 3407 C 334.757 3.30191 2.74358 0
M  V30 3408 C 333.99 3.50101 4.02822 0
M  V30 3409 O 334.213 2.7371 5.00439 0
M  V30 3410 O 333.147 4.43547 4.06878 0
M  V30 3411 H 336.973 2.78975 1.20028 0
M  V30 3412 H 334.558 1.39701 0.52952 0
M  V30 3413 H 336.44 2.21513 3.58483 0
M  V30 3414 H 335.115 1.15995 3.02203 0
M  V30 3415 H 334.022 3.20425 1.93078 0
M  V30 3416 H 335.355 4.2056 2.55715 0
M  V30 3417 N 337.007 -0.598083 1.45811 0
M  V30 3418 C 337.917 -1.73632 1.57763 0
M  V30 3419 C 338.933 -1.67763 0.461676 0
M  V30 3420 O 340.109 -1.87949 0.723685 0
M  V30 3421 C 337.174 -3.10114 1.55018 0
M  V30 3422 C 336.235 -3.27364 2.77726 0
M  V30 3423 C 335.468 -4.57334 2.75102 0
M  V30 3424 O 335.691 -5.40258 1.8297 0
M  V30 3425 O 334.625 -4.77502 3.66437 0
M  V30 3426 H 338.451 -1.66498 2.53992 0
M  V30 3427 H 336.036 -0.763308 1.28429 0
M  V30 3428 H 337.918 -3.9141 1.56129 0
M  V30 3429 H 336.593 -3.17718 0.619431 0
M  V30 3430 H 335.5 -2.45619 2.82174 0
M  V30 3431 H 336.833 -3.24641 3.69958 0
M  V30 3432 N 338.485 -1.33259 -0.841409 0
M  V30 3433 C 339.415 -1.25926 -1.96634 0
M  V30 3434 C 340.396 -0.140349 -1.6952 0
M  V30 3435 O 341.581 -0.329707 -1.91381 0
M  V30 3436 C 338.711 -0.99512 -3.32738 0
M  V30 3437 C 337.665 -2.0767 -3.74242 0
M  V30 3438 C 336.991 -1.66474 -5.08125 0
M  V30 3439 C 338.291 -3.49318 -3.88297 0
M  V30 3440 H 339.985 -2.20046 -2.03027 0
M  V30 3441 H 337.531 -1.05931 -0.975425 0
M  V30 3442 H 339.484 -0.930323 -4.11002 0
M  V30 3443 H 338.208 -0.0183004 -3.26595 0
M  V30 3444 H 336.867 -2.13187 -2.98239 0
M  V30 3445 H 336.515 -0.675012 -4.9845 0
M  V30 3446 H 336.215 -2.3885 -5.36865 0
M  V30 3447 H 337.739 -1.61455 -5.88867 0
M  V30 3448 H 339.153 -3.46316 -4.56879 0
M  V30 3449 H 337.55 -4.20158 -4.28471 0
M  V30 3450 H 338.62 -3.8801 -2.9082 0
M  V30 3451 N 339.963 1.05934 -1.16686 0
M  V30 3452 C 341.374 1.60263 -0.957745 0
M  V30 3453 C 341.725 1.89789 0.49745 0
M  V30 3454 O 340.85 1.67401 1.37135 0
M  V30 3455 C 341.445 2.91172 -1.73218 0
M  V30 3456 C 340.004 3.42188 -1.56794 0
M  V30 3457 C 339.151 2.16028 -1.73859 0
M  V30 3458 H 342.102 0.888392 -1.31504 0
M  V30 3459 H 342.123 3.60744 -1.21014 0
M  V30 3460 H 341.635 2.6965 -2.79124 0
M  V30 3461 H 339.736 3.68762 -0.533437 0
M  V30 3462 H 339.849 4.17273 -2.35414 0
M  V30 3463 H 338.213 2.26426 -1.16633 0
M  V30 3464 H 338.996 1.96985 -2.81161 0
M  V30 3465 N 341.441 0.965919 1.2453 0
M  V30 3466 C 342.689 0.625593 1.92174 0
M  V30 3467 C 343.01 -0.841652 1.75901 0
M  V30 3468 O 342.28 -1.60061 1.12948 0
M  V30 3469 H 340.86 0.228388 0.71123 0
M  V30 3470 H 343.522 1.2266 1.51461 0
M  V30 3471 H 342.618 0.864653 2.99884 0
M  V30 3472 N 342.919 -1.39368 0.735821 0
M  V30 3473 C 344.335 -1.54204 0.411492 0
M  V30 3474 C 344.535 -1.70268 -1.07755 0
M  V30 3475 O 343.591 -1.70364 -1.86366 0
M  V30 3476 C 344.904 -2.75925 1.19523 0
M  V30 3477 C 346.452 -2.89761 1.18354 0
M  V30 3478 C 346.927 -4.14421 1.94986 0
M  V30 3479 N 348.418 -4.21462 1.92156 0
M  V30 3480 C 349.153 -5.16871 2.48258 0
M  V30 3481 N 348.649 -6.18063 3.13001 0
M  V30 3482 N 350.442 -5.09093 2.38287 0
M  V30 3483 H 342.593 -1.27189 1.70108 0
M  V30 3484 H 344.856 -0.616517 0.720147 0
M  V30 3485 H 344.562 -2.70401 2.24892 0
M  V30 3486 H 344.436 -3.68614 0.800222 0
M  V30 3487 H 346.823 -2.94777 0.137975 0
M  V30 3488 H 346.904 -1.98133 1.61793 0
M  V30 3489 H 346.548 -4.10166 2.99543 0
M  V30 3490 H 346.478 -5.05095 1.48953 0
M  V30 3491 H 348.969 -3.48979 1.44991 0
M  V30 3492 H 349.282 -6.87326 3.53275 0
M  V30 3493 H 347.627 -6.18448 3.17091 0
M  V30 3494 H 350.818 -4.28973 1.8735 0
M  V30 3495 H 350.991 -5.83272 2.82308 0
M  V30 3496 N 344.397 -0.483516 -1.5 0
M  V30 3497 C 345.622 0.0667119 -2.07293 0
M  V30 3498 C 346.047 1.3164 -1.3436 0
M  V30 3499 O 345.405 1.76945 -0.394987 0
M  V30 3500 C 345.453 0.321126 -3.59167 0
M  V30 3501 O 344.557 1.39927 -3.87936 0
M  V30 3502 H 343.898 -0.0184758 -0.663743 0
M  V30 3503 H 346.428 -0.678125 -1.93035 0
M  V30 3504 H 346.438 0.557906 -4.04168 0
M  V30 3505 H 345.113 -0.592007 -4.11665 0
M  V30 3506 H 343.69 1.14882 -3.54763 0
M  V30 3507 N 345.875 1.56104 -0.216619 0
M  V30 3508 C 347.121 1.98466 0.417033 0
M  V30 3509 C 347.454 1.10403 1.59765 0
M  V30 3510 O 346.729 0.160632 1.93836 0
M  V30 3511 C 347.012 3.49769 0.85637 0
M  V30 3512 C 346.865 4.48606 -0.327546 0
M  V30 3513 C 348.184 4.05339 1.7143 0
M  V30 3514 H 345.303 0.721551 0.150112 0
M  V30 3515 H 347.945 1.87423 -0.311864 0
M  V30 3516 H 346.095 3.5931 1.47745 0
M  V30 3517 H 347.767 4.5108 -0.965618 0
M  V30 3518 H 346.01 4.22682 -0.975805 0
M  V30 3519 H 346.681 5.51995 0.0227149 0
M  V30 3520 H 349.157 3.98712 1.19031 0
M  V30 3521 H 348.033 5.11533 1.99061 0
M  V30 3522 H 348.294 3.51918 2.67593 0
M  V30 3523 N 347.353 -0.0568162 1.57498 0
M  V30 3524 C 348.602 -0.752001 1.87157 0
M  V30 3525 C 348.915 -1.77978 0.811375 0
M  V30 3526 O 350.121 -2.52559 0.996293 0
M  V30 3527 C 348.577 -1.38844 3.3204 0
M  V30 3528 C 348.185 -0.398456 4.46225 0
M  V30 3529 C 349.929 -2.06512 3.70882 0
M  V30 3530 C 347.836 -1.04166 5.82154 0
M  V30 3531 H 346.766 -0.28461 0.698222 0
M  V30 3532 H 349.417 -0.00561272 1.83499 0
M  V30 3533 H 347.799 -2.1836 3.30356 0
M  V30 3534 H 348.973 0.367977 4.59328 0
M  V30 3535 H 347.288 0.174592 4.16034 0
M  V30 3536 H 349.885 -2.55437 4.6974 0
M  V30 3537 H 350.228 -2.87117 3.01445 0
M  V30 3538 H 350.761 -1.33808 3.7462 0
M  V30 3539 H 347.5 -0.275614 6.5492 0
M  V30 3540 H 347.02 -1.7786 5.72823 0
M  V30 3541 H 348.699 -1.55715 6.27982 0
M  V30 3542 N 348.832 -1.54138 -0.328536 0
M  V30 3543 C 350.078 -1.7236 -1.06865 0
M  V30 3544 C 350.411 -0.493231 -1.87832 0
M  V30 3545 O 349.686 0.5098 -1.877 0
M  V30 3546 C 349.969 -2.99621 -1.99747 0
M  V30 3547 C 349.822 -4.32899 -1.22143 0
M  V30 3548 C 351.141 -3.22615 -2.99345 0
M  V30 3549 H 348.26 -0.627151 -0.387105 0
M  V30 3550 H 350.902 -1.86827 -0.345767 0
M  V30 3551 H 349.052 -2.87418 -2.61387 0
M  V30 3552 H 350.724 -4.56978 -0.630017 0
M  V30 3553 H 348.967 -4.30628 -0.523628 0
M  V30 3554 H 349.638 -5.18154 -1.90318 0
M  V30 3555 H 352.114 -3.34248 -2.47826 0
M  V30 3556 H 350.99 -4.13027 -3.61524 0
M  V30 3557 H 351.251 -2.3961 -3.71536 0
M  V30 3558 N 350.31 0.590341 -1.46126 0
M  V30 3559 C 351.558 1.34616 -1.50742 0
M  V30 3560 C 351.879 1.94363 -0.157486 0
M  V30 3561 O 351.149 1.78136 0.815136 0
M  V30 3562 H 349.729 0.499789 -0.555175 0
M  V30 3563 H 352.391 0.691953 -1.82203 0
M  V30 3564 H 351.487 2.15678 -2.25587 0
M  V30 3565 N 351.788 1.33704 0.83433 0
M  V30 3566 C 352.751 1.24244 1.92603 0
M  V30 3567 C 353.751 0.160383 1.59998 0
M  V30 3568 O 354.941 0.412228 1.69252 0
M  V30 3569 C 352.073 0.91555 3.28376 0
M  V30 3570 H 353.266 2.21287 2.02416 0
M  V30 3571 H 350.819 1.17827 1.02696 0
M  V30 3572 H 351.554 -0.0521886 3.24258 0
M  V30 3573 H 351.339 1.69811 3.53422 0
M  V30 3574 H 352.829 0.874231 4.08347 0
M  V30 3575 N 353.266 -1.05314 1.17247 0
M  V30 3576 C 354.514 -1.77941 0.958194 0
M  V30 3577 C 354.835 -1.88089 -0.514556 0
M  V30 3578 O 354.105 -1.39676 -1.37359 0
M  V30 3579 H 352.685 -0.659116 0.351533 0
M  V30 3580 H 355.347 -1.27166 1.47699 0
M  V30 3581 H 354.443 -2.79663 1.38546 0
M  V30 3582 N 354.744 -0.972509 -1.24016 0
M  V30 3583 C 355.974 -0.653853 -1.9598 0
M  V30 3584 C 356.382 0.781801 -1.72292 0
M  V30 3585 O 355.725 1.53677 -1.00644 0
M  V30 3586 C 355.787 -0.854608 -3.49194 0
M  V30 3587 C 355.451 -2.27082 -3.96589 0
M  V30 3588 C 356.448 -3.24892 -4.05883 0
M  V30 3589 C 354.133 -2.5998 -4.29786 0
M  V30 3590 C 356.127 -4.53684 -4.47716 0
M  V30 3591 C 353.814 -3.88997 -4.71301 0
M  V30 3592 C 354.812 -4.85661 -4.80232 0
M  V30 3593 O 354.5 -6.12376 -5.20818 0
M  V30 3594 H 354.232 -0.242572 -0.630979 0
M  V30 3595 H 356.786 -1.30431 -1.58673 0
M  V30 3596 H 355.016 -0.146985 -3.86421 0
M  V30 3597 H 356.705 -0.534311 -4.02368 0
M  V30 3598 H 357.471 -3.00805 -3.80449 0
M  V30 3599 H 353.35 -1.85457 -4.22051 0
M  V30 3600 H 356.894 -5.29135 -4.54601 0
M  V30 3601 H 352.791 -4.12882 -4.96184 0
M  V30 3602 H 353.559 -6.16013 -5.38953 0
M  V30 3603 N 356.222 1.38976 -0.743202 0
M  V30 3604 C 357.471 1.99581 -0.291592 0
M  V30 3605 C 357.784 1.59656 1.13001 0
M  V30 3606 O 358.99 2.13157 1.68156 0
M  V30 3607 C 357.446 3.56813 -0.470391 0
M  V30 3608 C 357.054 4.05695 -1.90041 0
M  V30 3609 C 358.798 4.24423 -0.0809709 0
M  V30 3610 C 356.705 5.5553 -2.02832 0
M  V30 3611 H 355.635 0.746615 -0.105272 0
M  V30 3612 H 358.286 1.58872 -0.918258 0
M  V30 3613 H 356.668 3.95359 0.225299 0
M  V30 3614 H 357.842 3.78464 -2.62872 0
M  V30 3615 H 356.157 3.50775 -2.24379 0
M  V30 3616 H 358.754 5.34474 -0.155445 0
M  V30 3617 H 359.097 4.04962 0.96497 0
M  V30 3618 H 359.63 3.9108 -0.728124 0
M  V30 3619 H 356.369 5.79881 -3.05643 0
M  V30 3620 H 355.889 5.84537 -1.34448 0
M  V30 3621 H 357.568 6.21069 -1.81335 0
M  V30 3622 N 357.7 0.491464 1.49741 0
M  V30 3623 C 358.663 -0.280906 2.27472 0
M  V30 3624 C 359.663 -0.902454 1.33088 0
M  V30 3625 O 360.853 -0.768465 1.56334 0
M  V30 3626 C 357.985 -1.40209 3.10732 0
M  V30 3627 H 359.178 0.401056 2.97206 0
M  V30 3628 H 356.731 0.246131 1.5435 0
M  V30 3629 H 357.466 -2.11849 2.45541 0
M  V30 3630 H 357.251 -0.961969 3.80117 0
M  V30 3631 H 358.741 -1.9464 3.69466 0
M  V30 3632 N 359.178 -1.55987 0.224894 0
M  V30 3633 C 360.424 -1.98684 -0.406502 0
M  V30 3634 C 360.757 -1.11248 -1.59177 0
M  V30 3635 O 360.032 -0.170909 -1.93748 0
M  V30 3636 C 360.315 -3.50218 -0.837808 0
M  V30 3637 C 360.168 -4.48426 0.351332 0
M  V30 3638 C 361.487 -4.06243 -1.69278 0
M  V30 3639 H 358.606 -0.722337 -0.146283 0
M  V30 3640 H 361.248 -1.87255 0.321799 0
M  V30 3641 H 359.398 -3.60089 -1.45837 0
M  V30 3642 H 361.07 -4.50562 0.989526 0
M  V30 3643 H 359.313 -4.22159 0.998207 0
M  V30 3644 H 359.984 -5.52 0.00655905 0
M  V30 3645 H 362.46 -3.99337 -1.16914 0
M  V30 3646 H 361.336 -5.12581 -1.96346 0
M  V30 3647 H 361.597 -3.53332 -2.65723 0
M  V30 3648 N 360.656 0.0484629 -1.57525 0
M  V30 3649 C 361.566 1.07241 -2.08654 0
M  V30 3650 C 362.582 1.409 -1.02095 0
M  V30 3651 O 363.758 1.50609 -1.33712 0
M  V30 3652 C 360.823 2.36008 -2.5397 0
M  V30 3653 C 359.884 2.09108 -3.7493 0
M  V30 3654 C 359.117 3.31736 -4.18075 0
M  V30 3655 O 359.34 4.41714 -3.60895 0
M  V30 3656 O 358.274 3.18576 -5.10679 0
M  V30 3657 H 362.1 0.667965 -2.96263 0
M  V30 3658 H 359.685 0.26417 -1.47046 0
M  V30 3659 H 361.567 3.11747 -2.83535 0
M  V30 3660 H 360.242 2.75786 -1.69481 0
M  V30 3661 H 359.149 1.31 -3.50414 0
M  V30 3662 H 360.482 1.74198 -4.60343 0
M  V30 3663 N 362.134 1.5431 0.320358 0
M  V30 3664 C 363.067 1.78769 1.41834 0
M  V30 3665 C 364.045 0.63783 1.49568 0
M  V30 3666 O 365.229 0.875628 1.66928 0
M  V30 3667 C 362.356 1.90712 2.79905 0
M  V30 3668 C 361.402 3.13023 2.89687 0
M  V30 3669 S 362.235 4.71554 2.53766 0
M  V30 3670 C 363.391 4.86408 3.93902 0
M  V30 3671 H 363.624 2.71619 1.20874 0
M  V30 3672 H 361.157 1.45474 0.517377 0
M  V30 3673 H 363.115 1.98279 3.59438 0
M  V30 3674 H 361.776 0.988343 2.98145 0
M  V30 3675 H 360.969 3.18124 3.90913 0
M  V30 3676 H 360.571 3.03803 2.18128 0
M  V30 3677 H 362.863 4.69241 4.88691 0
M  V30 3678 H 363.806 5.88508 3.93782 0
M  V30 3679 H 364.214 4.14689 3.83005 0
M  V30 3680 N 363.613 -0.582584 1.46437 0
M  V30 3681 C 364.576 -1.67366 1.56592 0
M  V30 3682 C 365.576 -1.54575 0.443072 0
M  V30 3683 O 366.766 -1.59191 0.707381 0
M  V30 3684 C 363.898 -3.06791 1.48634 0
M  V30 3685 H 365.091 -1.5972 2.5383 0
M  V30 3686 H 362.644 -0.800432 1.34249 0
M  V30 3687 H 363.379 -3.19993 0.526763 0
M  V30 3688 H 363.164 -3.17484 2.30101 0
M  V30 3689 H 364.654 -3.86218 1.58826 0
M  V30 3690 N 365.091 -1.34144 -0.827227 0
M  V30 3691 C 366.339 -1.26009 -1.58007 0
M  V30 3692 C 366.66 0.170971 -1.94249 0
M  V30 3693 O 365.93 1.10256 -1.61927 0
M  V30 3694 H 364.51 -0.463414 -0.585881 0
M  V30 3695 H 367.172 -1.68005 -0.987951 0
M  V30 3696 H 366.268 -1.86187 -2.50481 0
M  V30 3697 N 366.569 1.04691 -1.17803 0
M  V30 3698 C 367.818 1.77176 -0.963931 0
M  V30 3699 C 368.131 1.88888 0.508015 0
M  V30 3700 O 369.337 2.58164 0.840465 0
M  V30 3701 C 367.793 3.18518 -1.67555 0
M  V30 3702 C 367.401 3.14919 -3.18637 0
M  V30 3703 C 369.145 3.95424 -1.54402 0
M  V30 3704 C 367.052 4.51081 -3.82466 0
M  V30 3705 H 365.982 0.664116 -0.357023 0
M  V30 3706 H 368.633 1.17303 -1.4111 0
M  V30 3707 H 367.015 3.78748 -1.15613 0
M  V30 3708 H 368.189 2.64178 -3.77554 0
M  V30 3709 H 366.504 2.51512 -3.31859 0
M  V30 3710 H 369.101 4.96106 -1.99456 0
M  V30 3711 H 369.444 4.13343 -0.495329 0
M  V30 3712 H 369.977 3.41754 -2.0359 0
M  V30 3713 H 366.716 4.38368 -4.87354 0
M  V30 3714 H 366.236 5.01951 -3.28337 0
M  V30 3715 H 367.915 5.2001 -3.84965 0
M  V30 3716 N 368.047 0.979072 1.23499 0
M  V30 3717 C 368.977 0.537606 2.27227 0
M  V30 3718 C 369.958 -0.428539 1.64613 0
M  V30 3719 O 371.143 -0.322191 1.91509 0
M  V30 3720 C 368.273 -0.162052 3.46922 0
M  V30 3721 C 367.227 0.721242 4.21879 0
M  V30 3722 C 366.553 -0.110555 5.34586 0
M  V30 3723 C 367.853 2.01141 4.82016 0
M  V30 3724 H 369.547 1.40462 2.64406 0
M  V30 3725 H 367.093 0.67684 1.27102 0
M  V30 3726 H 369.046 -0.482192 4.18632 0
M  V30 3727 H 367.77 -1.06351 3.08799 0
M  V30 3728 H 366.429 1.02482 3.51984 0
M  V30 3729 H 366.077 -1.0125 4.92704 0
M  V30 3730 H 365.777 0.477325 5.85658 0
M  V30 3731 H 367.301 -0.425107 6.09118 0
M  V30 3732 H 368.715 1.75612 5.45741 0
M  V30 3733 H 367.112 2.54695 5.43369 0
M  V30 3734 H 368.182 2.69909 4.02836 0
M  V30 3735 N 369.525 -1.3858 0.750561 0
M  V30 3736 C 370.75 -2.04997 0.314812 0
M  V30 3737 C 371.175 -1.56235 -1.04749 0
M  V30 3738 O 370.533 -0.712981 -1.66692 0
M  V30 3739 C 370.581 -3.58961 0.343415 0
M  V30 3740 O 369.685 -4.07025 -0.663628 0
M  V30 3741 H 369.026 -0.649081 0.139962 0
M  V30 3742 H 371.556 -1.77313 1.02084 0
M  V30 3743 H 371.566 -4.07542 0.193233 0
M  V30 3744 H 370.241 -3.93811 1.33738 0
M  V30 3745 H 368.818 -3.6982 -0.478307 0
M  V30 3746 N 371.003 -0.499398 -1.49478 0
M  V30 3747 C 371.966 0.268838 -2.27618 0
M  V30 3748 C 372.966 0.895383 -1.33565 0
M  V30 3749 O 374.156 0.760164 -1.56739 0
M  V30 3750 C 371.288 1.38559 -3.11471 0
M  V30 3751 H 372.481 -0.416812 -2.96989 0
M  V30 3752 H 370.034 -0.254313 -1.54217 0
M  V30 3753 H 370.769 2.10544 -2.46661 0
M  V30 3754 H 370.554 0.941797 -3.80621 0
M  V30 3755 H 372.044 1.92678 -3.70493 0
M  V30 3756 N 372.481 1.55866 -0.233164 0
M  V30 3757 C 373.411 2.23783 0.666599 0
M  V30 3758 C 374.392 1.21343 1.19205 0
M  V30 3759 O 375.577 1.4996 1.23392 0
M  V30 3760 C 372.707 2.92671 1.86978 0
M  V30 3761 C 371.661 4.01682 1.47768 0
M  V30 3762 C 370.987 4.57926 2.76058 0
M  V30 3763 C 372.287 5.18126 0.658993 0
M  V30 3764 H 373.981 2.99232 0.100306 0
M  V30 3765 H 371.527 1.43924 0.046804 0
M  V30 3766 H 373.48 3.3888 2.50476 0
M  V30 3767 H 372.204 2.14688 2.46123 0
M  V30 3768 H 370.863 3.56222 0.866106 0
M  V30 3769 H 370.511 3.76659 3.33372 0
M  V30 3770 H 370.211 5.31505 2.50552 0
M  V30 3771 H 371.735 5.06859 3.40479 0
M  V30 3772 H 373.149 5.60644 1.19795 0
M  V30 3773 H 371.546 5.98009 0.500552 0
M  V30 3774 H 372.616 4.83763 -0.331856 0
M  V30 3775 N 373.959 -0.0401083 1.57549 0
M  V30 3776 C 375.207 -0.731677 1.8839 0
M  V30 3777 C 375.528 -1.76481 0.829425 0
M  V30 3778 O 374.798 -1.95411 -0.1383 0
M  V30 3779 H 373.378 -0.273225 0.695239 0
M  V30 3780 H 376.04 -0.00867725 1.94898 0
M  V30 3781 H 375.136 -1.22816 2.86919 0
M  V30 3782 N 375.437 -1.54477 -0.31217 0
M  V30 3783 C 376.662 -1.77526 -1.07235 0
M  V30 3784 C 377.087 -0.527775 -1.80544 0
M  V30 3785 O 376.445 0.52121 -1.73646 0
M  V30 3786 C 376.493 -2.97535 -2.03728 0
M  V30 3787 O 375.597 -2.69878 -3.11833 0
M  V30 3788 H 374.938 -0.58792 -0.30862 0
M  V30 3789 H 377.468 -2.01532 -0.352993 0
M  V30 3790 H 377.478 -3.25198 -2.46395 0
M  V30 3791 H 376.153 -3.87996 -1.49774 0
M  V30 3792 H 374.73 -2.53199 -2.7376 0
M  V30 3793 N 376.915 0.57481 -1.46744 0
M  V30 3794 C 377.862 1.68329 -1.57905 0
M  V30 3795 C 378.832 1.60625 -0.422927 0
M  V30 3796 O 380.017 1.79721 -0.640711 0
M  V30 3797 C 377.157 3.06665 -1.58274 0
M  V30 3798 C 376.27 3.24935 -2.84678 0
M  V30 3799 C 375.405 4.53566 -2.76499 0
M  V30 3800 C 374.444 4.65207 -3.97806 0
M  V30 3801 N 373.581 5.85172 -3.87967 0
M  V30 3802 H 378.421 1.58127 -2.52587 0
M  V30 3803 H 375.958 0.770552 -1.25303 0
M  V30 3804 H 377.916 3.86745 -1.56473 0
M  V30 3805 H 376.546 3.15745 -0.671194 0
M  V30 3806 H 375.598 2.38405 -2.96424 0
M  V30 3807 H 376.91 3.29403 -3.7456 0
M  V30 3808 H 376.064 5.41885 -2.72848 0
M  V30 3809 H 374.803 4.51548 -1.8427 0
M  V30 3810 H 373.808 3.75304 -4.0178 0
M  V30 3811 H 375.033 4.68997 -4.9114 0
M  V30 3812 H 372.979 5.84137 -2.98529 0
M  V30 3813 H 372.896 5.90943 -4.71511 0
M  V30 3814 H 374.164 6.759 -3.88303 0
M  V30 3815 N 378.394 1.34581 0.820102 0
M  V30 3816 C 379.622 1.3018 1.60813 0
M  V30 3817 C 380.037 -0.123551 1.88395 0
M  V30 3818 O 379.394 -1.07148 1.47735 0
M  V30 3819 C 379.445 2.09312 2.94739 0
M  V30 3820 O 379.166 3.46288 2.68358 0
M  V30 3821 C 380.667 2.1234 3.89136 0
M  V30 3822 H 377.887 0.447726 0.499782 0
M  V30 3823 H 380.431 1.77237 1.02017 0
M  V30 3824 H 378.586 1.65889 3.50085 0
M  V30 3825 H 379 3.87227 3.53774 0
M  V30 3826 H 380.474 2.72126 4.80262 0
M  V30 3827 H 380.951 1.11854 4.24718 0
M  V30 3828 H 381.557 2.55864 3.39726 0
M  V30 3829 N 379.872 -1.04064 1.18357 0
M  V30 3830 C 381.097 -1.81454 1.00445 0
M  V30 3831 C 381.522 -1.82823 -0.442423 0
M  V30 3832 O 380.88 -1.24555 -1.31741 0
M  V30 3833 C 380.928 -3.24925 1.56384 0
M  V30 3834 O 380.032 -4.04856 0.785209 0
M  V30 3835 H 379.373 -0.560604 0.355835 0
M  V30 3836 H 381.903 -1.31059 1.57114 0
M  V30 3837 H 381.913 -3.75702 1.59097 0
M  V30 3838 H 380.588 -3.23244 2.61699 0
M  V30 3839 H 379.165 -3.63537 0.830399 0
M  V30 3840 N 381.35 -0.985608 -1.22978 0
M  V30 3841 C 382.28 -0.549649 -2.26939 0
M  V30 3842 C 383.261 0.419803 -1.64838 0
M  V30 3843 O 384.446 0.31203 -1.91677 0
M  V30 3844 C 381.576 0.143652 -3.47003 0
M  V30 3845 C 380.53 -0.743606 -4.21491 0
M  V30 3846 C 379.856 0.0822027 -5.34637 0
M  V30 3847 C 381.156 -2.03694 -4.80943 0
M  V30 3848 H 382.85 -1.41862 -2.63658 0
M  V30 3849 H 380.396 -0.683571 -1.26741 0
M  V30 3850 H 382.349 0.459985 -4.18882 0
M  V30 3851 H 381.073 1.04711 -3.09359 0
M  V30 3852 H 379.732 -1.04347 -3.51436 0
M  V30 3853 H 379.38 0.986359 -4.93234 0
M  V30 3854 H 379.08 -0.508377 -5.85397 0
M  V30 3855 H 380.604 0.392797 -6.09335 0
M  V30 3856 H 382.018 -1.78504 -5.44802 0
M  V30 3857 H 380.415 -2.57573 -5.42011 0
M  V30 3858 H 381.485 -2.72042 -4.01399 0
M  V30 3859 N 382.828 1.3818 -0.7579 0
M  V30 3860 C 383.761 2.28055 -0.0814093 0
M  V30 3861 C 384.739 1.45603 0.723779 0
M  V30 3862 O 385.923 1.74961 0.701491 0
M  V30 3863 C 383.05 3.2676 0.891394 0
M  V30 3864 C 382.096 4.26153 0.171909 0
M  V30 3865 S 382.929 5.23434 -1.13035 0
M  V30 3866 C 384.085 6.25694 -0.160727 0
M  V30 3867 H 384.318 2.85082 -0.84353 0
M  V30 3868 H 381.851 1.44246 -0.550671 0
M  V30 3869 H 383.809 3.8414 1.44731 0
M  V30 3870 H 382.47 2.68706 1.62652 0
M  V30 3871 H 381.663 4.95738 0.908843 0
M  V30 3872 H 381.265 3.72691 -0.312606 0
M  V30 3873 H 383.557 6.74161 0.671773 0
M  V30 3874 H 384.5 7.03285 -0.824353 0
M  V30 3875 H 384.908 5.64064 0.221892 0
M  V30 3876 N 384.306 0.507319 1.49211 0
M  V30 3877 C 385.555 -0.0368315 2.01666 0
M  V30 3878 C 385.868 -1.37459 1.39156 0
M  V30 3879 O 387.074 -2.00579 1.82976 0
M  V30 3880 C 385.53 -0.116089 3.59713 0
M  V30 3881 C 385.138 1.2154 4.31198 0
M  V30 3882 C 386.882 -0.610268 4.2009 0
M  V30 3883 C 384.789 1.09796 5.81119 0
M  V30 3884 H 383.719 -0.0175376 0.753796 0
M  V30 3885 H 386.37 0.647691 1.71689 0
M  V30 3886 H 384.752 -0.8652 3.86433 0
M  V30 3887 H 385.926 1.9783 4.16173 0
M  V30 3888 H 384.241 1.64352 3.82593 0
M  V30 3889 H 386.838 -0.715742 5.29888 0
M  V30 3890 H 387.181 -1.61064 3.8388 0
M  V30 3891 H 387.714 0.0824916 3.97714 0
M  V30 3892 H 384.453 2.0728 6.21864 0
M  V30 3893 H 383.973 0.376058 5.9862 0
M  V30 3894 H 385.652 0.779281 6.4229 0
M  V30 3895 N 385.784 -1.5574 0.241426 0
M  V30 3896 C 387.2 -1.59196 -0.113548 0
M  V30 3897 C 387.4 -1.25852 -1.57364 0
M  V30 3898 O 386.456 -1.00322 -2.31715 0
M  V30 3899 C 387.769 -2.99814 0.230695 0
M  V30 3900 C 389.317 -3.12513 0.174547 0
M  V30 3901 C 389.792 -4.55342 0.492744 0
M  V30 3902 N 391.283 -4.61076 0.443043 0
M  V30 3903 C 392.018 -5.6956 0.662484 0
M  V30 3904 N 391.514 -6.86328 0.944761 0
M  V30 3905 N 393.307 -5.58957 0.593564 0
M  V30 3906 H 385.458 -1.75685 1.19368 0
M  V30 3907 H 387.721 -0.81756 0.479896 0
M  V30 3908 H 387.427 -3.28932 1.24485 0
M  V30 3909 H 387.301 -3.74568 -0.444833 0
M  V30 3910 H 389.688 -2.83179 -0.830277 0
M  V30 3911 H 389.769 -2.40045 0.883845 0
M  V30 3912 H 389.413 -4.85396 1.4951 0
M  V30 3913 H 389.343 -5.26062 -0.23797 0
M  V30 3914 H 391.834 -3.77179 0.233374 0
M  V30 3915 H 392.147 -7.64935 1.09977 0
M  V30 3916 H 390.492 -6.88025 0.982175 0
M  V30 3917 H 393.683 -4.66611 0.373123 0
M  V30 3918 H 393.856 -6.43433 0.767981 0
M  V30 3919 N 387.262 0.0317525 -1.57568 0
M  V30 3920 C 388.212 1.04101 -2.02847 0
M  V30 3921 C 389.196 1.3219 -0.917317 0
M  V30 3922 O 390.388 1.31819 -1.18121 0
M  V30 3923 C 387.517 2.34295 -2.5092 0
M  V30 3924 C 386.603 2.09308 -3.68851 0
M  V30 3925 N 386.994 1.5437 -4.81667 0
M  V30 3926 C 385.292 2.39604 -3.76172 0
M  V30 3927 C 385.993 1.45126 -5.63306 0
M  V30 3928 N 384.969 1.92589 -5.08341 0
M  V30 3929 H 388.771 0.610217 -2.87495 0
M  V30 3930 H 386.285 0.238108 -1.60645 0
M  V30 3931 H 388.282 3.07404 -2.81617 0
M  V30 3932 H 386.942 2.78055 -1.67677 0
M  V30 3933 H 387.953 1.22678 -5.03161 0
M  V30 3934 H 384.63 2.86457 -3.03724 0
M  V30 3935 H 386.02 1.03163 -6.63933 0
M  V30 3936 N 388.74 1.54641 0.303973 0
M  V30 3937 C 390.017 1.64455 1.05896 0
M  V30 3938 C 390.397 0.490923 2.05312 0
M  V30 3939 O 389.745 -0.512685 2.22674 0
M  V30 3940 C 389.955 3.02331 1.74347 0
M  V30 3941 C 391.303 3.59045 2.26653 0
M  V30 3942 O 392.327 3.04764 1.84384 0
M  V30 3943 O 391.186 4.54081 3.04093 0
M  V30 3944 H 388.28 0.666729 0.489287 0
M  V30 3945 H 390.826 1.66986 0.302298 0
M  V30 3946 H 389.598 3.77734 1.02142 0
M  V30 3947 H 389.221 3.03565 2.56777 0
M  V30 3948 N 390.218 -0.567019 1.47046 0
M  V30 3949 C 391.165 -1.67489 1.58796 0
M  V30 3950 C 392.135 -1.60399 0.43144 0
M  V30 3951 O 393.32 -1.79378 0.650233 0
M  V30 3952 C 390.46 -3.05821 1.59899 0
M  V30 3953 C 389.573 -3.2342 2.86397 0
M  V30 3954 C 388.708 -4.52093 2.789 0
M  V30 3955 C 387.747 -4.6309 4.00267 0
M  V30 3956 N 386.884 -5.83106 3.91064 0
M  V30 3957 H 391.724 -1.56785 2.53422 0
M  V30 3958 H 389.261 -0.763896 1.2571 0
M  V30 3959 H 391.219 -3.8591 1.58522 0
M  V30 3960 H 389.849 -3.15384 0.687929 0
M  V30 3961 H 388.901 -2.3683 2.97684 0
M  V30 3962 H 390.213 -3.27412 3.76301 0
M  V30 3963 H 389.367 -5.4043 2.75718 0
M  V30 3964 H 388.106 -4.50565 1.86662 0
M  V30 3965 H 387.111 -3.73168 4.03765 0
M  V30 3966 H 388.336 -4.66386 4.93621 0
M  V30 3967 H 386.282 -5.82546 3.01623 0
M  V30 3968 H 386.199 -5.88434 4.74638 0
M  V30 3969 H 387.467 -6.73831 3.91882 0
M  V30 3970 N 391.696 -1.35014 -0.812953 0
M  V30 3971 C 392.942 -1.2812 -1.57204 0
M  V30 3972 C 393.275 0.145869 -1.93651 0
M  V30 3973 O 392.55 1.0937 -1.60836 0
M  V30 3974 C 392.833 -2.18162 -2.86492 0
M  V30 3975 C 392.686 -3.69454 -2.56561 0
M  V30 3976 C 394.005 -2.07439 -3.88145 0
M  V30 3977 H 391.124 -0.466746 -0.570366 0
M  V30 3978 H 393.766 -1.65357 -0.935783 0
M  V30 3979 H 391.916 -1.86535 -3.40789 0
M  V30 3980 H 393.588 -4.11493 -2.08497 0
M  V30 3981 H 391.831 -3.9005 -1.89851 0
M  V30 3982 H 392.502 -4.27835 -3.48799 0
M  V30 3983 H 394.978 -2.35228 -3.4323 0
M  V30 3984 H 393.854 -2.7265 -4.76396 0
M  V30 3985 H 394.115 -1.05439 -4.29343 0
M  V30 3986 N 393.175 1.03435 -1.18907 0
M  V30 3987 C 394.105 2.13503 -0.945448 0
M  V30 3988 C 395.086 1.69682 0.119189 0
M  V30 3989 O 396.271 1.94169 -0.034707 0
M  V30 3990 C 393.401 3.44004 -0.477316 0
M  V30 3991 C 392.355 4.0148 -1.48316 0
M  V30 3992 C 391.681 5.27537 -0.872311 0
M  V30 3993 C 392.981 4.36921 -2.86177 0
M  V30 3994 H 394.675 2.34141 -1.86597 0
M  V30 3995 H 392.221 1.12523 -0.898584 0
M  V30 3996 H 394.174 4.20372 -0.294204 0
M  V30 3997 H 392.898 3.23072 0.478786 0
M  V30 3998 H 391.557 3.27201 -1.65332 0
M  V30 3999 H 391.205 5.02917 0.0911752 0
M  V30 4000 H 390.905 5.66954 -1.54393 0
M  V30 4001 H 392.429 6.06576 -0.699871 0
M  V30 4002 H 393.843 5.04248 -2.72776 0
M  V30 4003 H 392.24 4.87405 -3.50081 0
M  V30 4004 H 393.31 3.46466 -3.39248 0
M  V30 4005 N 394.653 0.992116 1.22453 0
M  V30 4006 C 396.069 0.702713 1.43297 0
M  V30 4007 C 396.269 -0.726909 1.87932 0
M  V30 4008 O 395.325 -1.49792 2.0327 0
M  V30 4009 C 396.638 1.70762 2.47509 0
M  V30 4010 C 398.186 1.72298 2.61309 0
M  V30 4011 C 398.661 2.71649 3.68742 0
M  V30 4012 N 400.152 2.70239 3.76199 0
M  V30 4013 C 400.887 3.43778 4.58917 0
M  V30 4014 N 400.383 4.26914 5.45633 0
M  V30 4015 N 402.176 3.32487 4.5322 0
M  V30 4016 H 394.327 1.91543 0.917871 0
M  V30 4017 H 396.59 0.826031 0.465162 0
M  V30 4018 H 396.296 2.73059 2.21657 0
M  V30 4019 H 396.17 1.49985 3.46099 0
M  V30 4020 H 398.557 0.706989 2.86506 0
M  V30 4021 H 398.638 1.97143 1.62997 0
M  V30 4022 H 398.282 3.73397 3.44292 0
M  V30 4023 H 398.212 2.44074 4.66622 0
M  V30 4024 H 400.703 2.09912 3.14237 0
M  V30 4025 H 401.016 4.79855 6.05771 0
M  V30 4026 H 399.361 4.31002 5.45218 0
M  V30 4027 H 402.552 2.6698 3.84499 0
M  V30 4028 H 402.725 3.90058 5.17454 0
M  V30 4029 N 396.131 -1.37776 0.765217 0
M  V30 4030 C 397.356 -2.04651 0.336537 0
M  V30 4031 C 397.781 -1.57337 -1.03086 0
M  V30 4032 O 397.139 -0.730621 -1.65927 0
M  V30 4033 C 397.187 -3.58577 0.381468 0
M  V30 4034 O 396.291 -4.07706 -0.62042 0
M  V30 4035 H 395.632 -0.64756 0.146838 0
M  V30 4036 H 398.162 -1.76221 1.03959 0
M  V30 4037 H 398.172 -4.07314 0.236448 0
M  V30 4038 H 396.847 -3.9237 1.37907 0
M  V30 4039 H 395.424 -3.70306 -0.439056 0
M  V30 4040 N 397.609 -0.515225 -1.4894 0
M  V30 4041 C 398.856 0.024215 -2.02486 0
M  V30 4042 C 399.184 1.35671 -1.39368 0
M  V30 4043 O 398.439 1.88566 -0.523574 0
M  V30 4044 C 398.738 0.210595 -3.56779 0
M  V30 4045 C 398.404 -1.04569 -4.38607 0
M  V30 4046 C 397.066 -1.39002 -4.60686 0
M  V30 4047 C 399.418 -1.88008 -4.86109 0
M  V30 4048 C 396.746 -2.568 -5.27514 0
M  V30 4049 C 399.098 -3.04972 -5.54234 0
M  V30 4050 C 397.762 -3.39768 -5.74555 0
M  V30 4051 H 397.032 0.00886088 -0.740947 0
M  V30 4052 H 399.679 -0.678263 -1.79086 0
M  V30 4053 H 397.984 0.99572 -3.78936 0
M  V30 4054 H 399.681 0.642659 -3.95817 0
M  V30 4055 H 396.271 -0.767497 -4.21672 0
M  V30 4056 H 400.455 -1.62719 -4.68867 0
M  V30 4057 H 395.711 -2.8398 -5.41447 0
M  V30 4058 H 399.885 -3.69943 -5.90013 0
M  V30 4059 H 397.512 -4.31148 -6.26112 0
M  V30 4060 N 399.087 1.5561 -0.249682 0
M  V30 4061 C 400.364 1.90932 0.424761 0
M  V30 4062 C 400.744 1.17078 1.75658 0
M  V30 4063 O 400.092 0.289176 2.26663 0
M  V30 4064 C 400.302 3.43975 0.590109 0
M  V30 4065 C 401.65 4.15281 0.884714 0
M  V30 4066 O 402.674 3.49729 0.67587 0
M  V30 4067 O 401.533 5.31236 1.28259 0
M  V30 4068 H 398.627 0.794815 0.228468 0
M  V30 4069 H 401.173 1.67135 -0.293954 0
M  V30 4070 H 399.945 3.89748 -0.34818 0
M  V30 4071 H 399.568 3.73644 1.35926 0
M  V30 4072 N 400.565 -0.0233959 1.57583 0
M  V30 4073 C 401.79 -0.728376 1.94189 0
M  V30 4074 C 402.215 -1.67793 0.850119 0
M  V30 4075 O 401.573 -1.80262 -0.19371 0
M  V30 4076 C 401.621 -1.45669 3.29868 0
M  V30 4077 O 400.725 -2.57013 3.22518 0
M  V30 4078 H 400.066 -0.195493 0.63457 0
M  V30 4079 H 402.596 0.0228214 2.04587 0
M  V30 4080 H 402.606 -1.82535 3.6489 0
M  V30 4081 H 401.281 -0.760314 4.08891 0
M  V30 4082 H 399.858 -2.22648 2.99136 0
M  V30 4083 N 402.043 -1.548 -0.295768 0
M  V30 4084 C 402.976 -1.81003 -1.38972 0
M  V30 4085 C 403.954 -0.661544 -1.48534 0
M  V30 4086 O 405.138 -0.902074 -1.65514 0
M  V30 4087 C 402.265 -1.95141 -2.76835 0
M  V30 4088 C 401.311 -3.17592 -2.84671 0
M  V30 4089 S 402.144 -4.75531 -2.46232 0
M  V30 4090 C 403.3 -4.92613 -3.86114 0
M  V30 4091 H 403.533 -2.73507 -1.16537 0
M  V30 4092 H 401.066 -1.46278 -0.494168 0
M  V30 4093 H 403.024 -2.03972 -3.56238 0
M  V30 4094 H 401.685 -1.03565 -2.96535 0
M  V30 4095 H 400.878 -3.24303 -3.85803 0
M  V30 4096 H 400.48 -3.07235 -2.13267 0
M  V30 4097 H 402.772 -4.76957 -4.81164 0
M  V30 4098 H 403.715 -5.94698 -3.8437 0
M  V30 4099 H 404.123 -4.2073 -3.76359 0
M  V30 4100 N 403.521 0.559213 -1.47345 0
M  V30 4101 C 404.77 1.31281 -1.53128 0
M  V30 4102 C 405.083 1.94602 -0.197344 0
M  V30 4103 O 406.289 2.71173 -0.133154 0
M  V30 4104 C 404.745 2.38051 -2.69925 0
M  V30 4105 C 404.353 1.8093 -4.0984 0
M  V30 4106 C 406.097 3.14604 -2.84999 0
M  V30 4107 C 404.004 2.85468 -5.1794 0
M  V30 4108 H 402.934 0.493614 -0.569966 0
M  V30 4109 H 405.585 0.594155 -1.73615 0
M  V30 4110 H 403.967 3.12822 -2.42814 0
M  V30 4111 H 405.141 1.12544 -4.46845 0
M  V30 4112 H 403.456 1.16967 -3.99634 0
M  V30 4113 H 406.053 3.92666 -3.62929 0
M  V30 4114 H 406.396 3.68665 -1.93369 0
M  V30 4115 H 406.929 2.46945 -3.1187 0
M  V30 4116 H 403.668 2.36264 -6.1144 0
M  V30 4117 H 403.188 3.52269 -4.85455 0
M  V30 4118 H 404.867 3.48996 -5.44803 0
M  V30 4119 N 404.999 1.35443 0.805782 0
M  V30 4120 C 406.224 1.32037 1.59941 0
M  V30 4121 C 406.649 -0.0994215 1.87837 0
M  V30 4122 O 406.007 -1.06648 1.46615 0
M  V30 4123 C 406.055 2.13354 2.90711 0
M  V30 4124 O 405.159 1.5148 3.83572 0
M  V30 4125 H 404.5 0.452666 0.485787 0
M  V30 4126 H 407.03 1.78496 1.00002 0
M  V30 4127 H 407.04 2.25338 3.40128 0
M  V30 4128 H 405.715 3.16572 2.69732 0
M  V30 4129 H 404.292 1.4834 3.42125 0
M  V30 4130 N 406.477 -1.02803 1.19454 0
M  V30 4131 C 407.705 -1.79841 1.02297 0
M  V30 4132 C 408.12 -1.83879 -0.428259 0
M  V30 4133 O 407.477 -1.28345 -1.29745 0
M  V30 4134 C 407.528 -3.24852 1.58598 0
M  V30 4135 O 407.249 -3.21097 2.98041 0
M  V30 4136 C 408.75 -4.18485 1.46236 0
M  V30 4137 H 405.97 -0.565936 0.360496 0
M  V30 4138 H 408.514 -1.2948 1.58288 0
M  V30 4139 H 406.669 -3.72401 1.06753 0
M  V30 4140 H 407.083 -4.12033 3.24545 0
M  V30 4141 H 408.557 -5.18121 1.90407 0
M  V30 4142 H 409.034 -4.37254 0.41301 0
M  V30 4143 H 409.64 -3.76811 1.97215 0
M  V30 4144 N 407.956 -0.998596 -1.21925 0
M  V30 4145 C 408.904 -0.546641 -2.26085 0
M  V30 4146 C 409.898 0.405576 -1.64473 0
M  V30 4147 O 411.104 0.277471 -1.77849 0
M  V30 4148 H 407.479 -0.158403 -0.735127 0
M  V30 4149 H 409.45 -1.43645 -2.61551 0
M  V30 4150 C 408.199 0.117388 -3.47502 0
M  V30 4151 H 407.522 -0.606277 -3.95176 0
M  V30 4152 H 408.962 0.396993 -4.22137 0
M  V30 4153 C 407.421 1.35455 -3.0847 0
M  V30 4154 O 407.951 2.44944 -3.18379 0
M  V30 4155 N 406.157 1.23191 -2.63196 0
M  V30 4156 H 405.704 0.341006 -2.55333 0
M  V30 4157 H 405.662 2.06071 -2.37449 0
M  V30 4158 N 409.434 1.37368 -0.772513 0
M  V30 4159 C 410.674 2.01512 -0.342361 0
M  V30 4160 C 411.038 1.59997 1.06136 0
M  V30 4161 O 412.239 2.16609 1.59167 0
M  V30 4162 C 410.51 3.54134 -0.482048 0
M  V30 4163 S 412.069 4.38585 -0.137272 0
M  V30 4164 H 408.887 0.698699 -0.131686 0
M  V30 4165 H 411.489 1.67552 -1.0073 0
M  V30 4166 H 410.193 3.81837 -1.50428 0
M  V30 4167 H 409.724 3.92894 0.199413 0
M  V30 4168 H 411.739 4.84594 1.06692 0
M  V30 4169 N 410.912 0.523116 1.48665 0
M  V30 4170 C 412.14 -0.0096312 2.06898 0
M  V30 4171 C 412.555 -1.28784 1.38059 0
M  V30 4172 O 411.912 -1.76453 0.465893 0
M  V30 4173 C 411.963 -0.244386 3.60673 0
M  V30 4174 O 411.684 0.983172 4.26925 0
M  V30 4175 C 413.185 -0.818289 4.35682 0
M  V30 4176 H 410.405 0.0304161 0.67031 0
M  V30 4177 H 412.949 0.726799 1.91149 0
M  V30 4178 H 411.104 -0.930847 3.76051 0
M  V30 4179 H 411.518 0.759653 5.1897 0
M  V30 4180 H 412.992 -0.93201 5.44075 0
M  V30 4181 H 413.469 -1.82153 3.99646 0
M  V30 4182 H 414.075 -0.168609 4.24966 0
M  V30 4183 N 412.39 -1.55475 0.257931 0
M  V30 4184 C 413.3 -2.2549 -0.647425 0
M  V30 4185 C 414.316 -1.2748 -1.18427 0
M  V30 4186 O 415.492 -1.6038 -1.2182 0
M  V30 4187 C 412.557 -2.94916 -1.82278 0
M  V30 4188 C 411.618 -4.08363 -1.32432 0
M  V30 4189 C 410.851 -4.74469 -2.44366 0
M  V30 4190 O 411.074 -4.39701 -3.63344 0
M  V30 4191 O 410.008 -5.62763 -2.13497 0
M  V30 4192 H 413.834 -3.03593 -0.0807707 0
M  V30 4193 H 411.419 -1.49377 0.0259962 0
M  V30 4194 H 413.301 -3.38606 -2.50846 0
M  V30 4195 H 411.976 -2.19744 -2.37685 0
M  V30 4196 H 410.883 -3.69166 -0.605605 0
M  V30 4197 H 412.216 -4.85385 -0.816211 0
M  V30 4198 N 413.868 0.0150385 -1.57593 0
M  V30 4199 C 414.778 1.02791 -2.10882 0
M  V30 4200 C 415.794 1.38702 -1.0506 0
M  V30 4201 O 416.97 1.47739 -1.36877 0
M  V30 4202 C 414.035 2.30568 -2.58919 0
M  V30 4203 C 413.096 2.01108 -3.79281 0
M  V30 4204 C 412.329 3.22794 -4.25018 0
M  V30 4205 O 412.552 4.33959 -3.70183 0
M  V30 4206 O 411.486 3.07672 -5.17322 0
M  V30 4207 H 415.312 0.604973 -2.97613 0
M  V30 4208 H 412.897 0.23292 -1.47573 0
M  V30 4209 H 414.779 3.05662 -2.90084 0
M  V30 4210 H 413.454 2.72129 -1.75293 0
M  V30 4211 H 412.361 1.23537 -3.53114 0
M  V30 4212 H 413.694 1.64394 -4.63935 0
M  V30 4213 N 415.346 1.54954 0.287554 0
M  V30 4214 C 416.276 1.89839 1.35954 0
M  V30 4215 C 417.257 0.758675 1.52244 0
M  V30 4216 O 418.442 1.01557 1.65529 0
M  V30 4217 C 415.572 2.15753 2.72154 0
M  V30 4218 C 414.526 3.3159 2.70614 0
M  V30 4219 C 413.852 3.42952 4.10229 0
M  V30 4220 C 415.152 4.68359 2.31165 0
M  V30 4221 H 416.846 2.79625 1.07007 0
M  V30 4222 H 414.392 1.3454 0.513316 0
M  V30 4223 H 416.345 2.38743 3.47246 0
M  V30 4224 H 415.069 1.22752 3.02654 0
M  V30 4225 H 413.728 3.08545 1.97979 0
M  V30 4226 H 413.376 2.47443 4.37928 0
M  V30 4227 H 413.076 4.20826 4.10097 0
M  V30 4228 H 414.6 3.68218 4.87081 0
M  V30 4229 H 416.014 4.9099 2.95976 0
M  V30 4230 H 414.411 5.49044 2.42221 0
M  V30 4231 H 415.481 4.68165 1.26291 0
M  V30 4232 N 416.824 -0.551391 1.4764 0
M  V30 4233 C 417.734 -1.68525 1.63207 0
M  V30 4234 C 418.75 -1.6621 0.514815 0
M  V30 4235 O 419.926 -1.85551 0.783113 0
M  V30 4236 C 416.991 -3.05025 1.64805 0
M  V30 4237 C 416.052 -3.18362 2.88 0
M  V30 4238 C 415.285 -4.4835 2.89513 0
M  V30 4239 O 415.508 -5.34163 2.00065 0
M  V30 4240 O 414.442 -4.65602 3.81443 0
M  V30 4241 H 418.268 -1.58333 2.59161 0
M  V30 4242 H 415.853 -0.722063 1.30792 0
M  V30 4243 H 417.735 -3.86245 1.68502 0
M  V30 4244 H 416.41 -3.15587 0.720197 0
M  V30 4245 H 415.317 -2.36518 2.89845 0
M  V30 4246 H 416.65 -3.12707 3.80099 0
M  V30 4247 N 418.302 -1.35869 -0.798587 0
M  V30 4248 C 419.25 -1.29491 -1.93222 0
M  V30 4249 C 420.244 -0.18836 -1.6835 0
M  V30 4250 O 421.45 -0.354822 -1.76468 0
M  V30 4251 H 417.825 -0.402901 -0.63496 0
M  V30 4252 H 419.796 -2.25247 -1.9572 0
M  V30 4253 C 418.545 -1.09184 -3.30112 0
M  V30 4254 H 417.868 -1.93574 -3.49813 0
M  V30 4255 H 419.308 -1.08766 -4.09812 0
M  V30 4256 C 417.767 0.203959 -3.36282 0
M  V30 4257 O 418.297 1.19699 -3.83451 0
M  V30 4258 N 416.503 0.245488 -2.89561 0
M  V30 4259 H 416.05 -0.563223 -2.51367 0
M  V30 4260 H 416.008 1.11219 -2.94071 0
M  V30 4261 N 419.78 1.02168 -1.19998 0
M  V30 4262 C 420.743 2.08765 -0.94604 0
M  V30 4263 C 421.743 1.60618 0.0763846 0
M  V30 4264 O 422.933 1.73472 -0.159135 0
M  V30 4265 C 420.065 3.38262 -0.423255 0
M  V30 4266 H 421.258 2.32726 -1.89153 0
M  V30 4267 H 418.811 1.1889 -1.01464 0
M  V30 4268 H 419.546 3.19974 0.527938 0
M  V30 4269 H 419.331 3.74532 -1.16053 0
M  V30 4270 H 420.821 4.16759 -0.264911 0
M  V30 4271 N 421.258 1.00505 1.21394 0
M  V30 4272 C 422.506 0.686415 1.90086 0
M  V30 4273 C 422.827 -0.785264 1.7849 0
M  V30 4274 O 422.097 -1.56387 1.17983 0
M  V30 4275 H 420.677 0.2509 0.703604 0
M  V30 4276 H 423.339 1.27417 1.47482 0
M  V30 4277 H 422.435 0.959621 2.96981 0
M  V30 4278 N 422.737 -1.36956 0.779787 0
M  V30 4279 C 423.983 -1.99787 0.348281 0
M  V30 4280 C 424.316 -1.61756 -1.07465 0
M  V30 4281 O 423.591 -0.867639 -1.74075 0
M  V30 4282 C 423.874 -3.56597 0.50104 0
M  V30 4283 C 423.727 -4.04513 1.96697 0
M  V30 4284 C 425.046 -4.40008 -0.0898097 0
M  V30 4285 H 422.165 -0.725796 0.128022 0
M  V30 4286 H 424.807 -1.62514 0.984331 0
M  V30 4287 H 422.957 -3.88479 -0.0404347 0
M  V30 4288 H 424.629 -3.83161 2.56876 0
M  V30 4289 H 422.872 -3.56408 2.47297 0
M  V30 4290 H 423.543 -5.1352 2.02486 0
M  V30 4291 H 426.019 -4.14431 0.372293 0
M  V30 4292 H 424.895 -5.4888 0.0471605 0
M  V30 4293 H 425.156 -4.26035 -1.18096 0
M  V30 4294 N 424.215 -0.530993 -1.48385 0
M  V30 4295 C 425.125 0.23503 -2.3342 0
M  V30 4296 C 426.141 0.93801 -1.46552 0
M  V30 4297 O 427.317 0.912745 -1.7953 0
M  V30 4298 C 424.382 1.26778 -3.22689 0
M  V30 4299 C 423.443 0.575038 -4.25431 0
M  V30 4300 C 422.676 1.55858 -5.10435 0
M  V30 4301 O 422.899 2.79129 -4.97437 0
M  V30 4302 O 421.833 1.09742 -5.91811 0
M  V30 4303 H 425.659 -0.461794 -3.00169 0
M  V30 4304 H 423.244 -0.291903 -1.46521 0
M  V30 4305 H 425.126 1.86457 -3.77904 0
M  V30 4306 H 423.801 1.94699 -2.586 0
M  V30 4307 H 422.708 -0.0622782 -3.74048 0
M  V30 4308 H 424.041 -0.062253 -4.92161 0
M  V30 4309 N 425.693 1.55336 -0.266172 0
M  V30 4310 C 426.939 1.99692 0.353681 0
M  V30 4311 C 427.272 1.1543 1.56172 0
M  V30 4312 O 426.547 0.222218 1.93226 0
M  V30 4313 C 426.83 3.52316 0.74466 0
M  V30 4314 C 426.683 4.47337 -0.470101 0
M  V30 4315 C 428.002 4.10588 1.58447 0
M  V30 4316 H 425.121 0.725961 0.12708 0
M  V30 4317 H 427.763 1.86336 -0.371333 0
M  V30 4318 H 425.913 3.63829 1.36239 0
M  V30 4319 H 427.585 4.4778 -1.10864 0
M  V30 4320 H 425.828 4.19364 -1.10978 0
M  V30 4321 H 426.499 5.51788 -0.15291 0
M  V30 4322 H 428.975 4.02297 1.06286 0
M  V30 4323 H 427.851 5.17607 1.82686 0
M  V30 4324 H 428.112 3.60253 2.56262 0
M  V30 4325 N 427.171 -0.0066808 1.57599 0
M  V30 4326 C 428.101 -0.999296 2.11036 0
M  V30 4327 C 429.082 -1.36278 1.01795 0
M  V30 4328 O 430.267 -1.4477 1.29442 0
M  V30 4329 C 427.397 -2.29328 2.60818 0
M  V30 4330 C 426.351 -2.07159 3.74525 0
M  V30 4331 C 425.677 -3.42512 4.10596 0
M  V30 4332 C 426.977 -1.43959 5.02069 0
M  V30 4333 H 428.671 -0.554382 2.94223 0
M  V30 4334 H 426.217 -0.265221 1.41536 0
M  V30 4335 H 428.17 -2.99117 2.96828 0
M  V30 4336 H 426.894 -2.7592 1.74745 0
M  V30 4337 H 425.553 -1.39797 3.38899 0
M  V30 4338 H 425.201 -3.86795 3.21556 0
M  V30 4339 H 424.901 -3.28498 4.87199 0
M  V30 4340 H 426.425 -4.13628 4.4916 0
M  V30 4341 H 427.839 -2.03696 5.35893 0
M  V30 4342 H 426.236 -1.40452 5.83432 0
M  V30 4343 H 427.306 -0.407992 4.83181 0
M  V30 4344 N 428.649 -1.55105 -0.279332 0
M  V30 4345 C 429.596 -1.8755 -1.34513 0
M  V30 4346 C 430.566 -0.726384 -1.49375 0
M  V30 4347 O 431.751 -0.977063 -1.63884 0
M  V30 4348 C 428.891 -2.14738 -2.70151 0
M  V30 4349 C 428.004 -3.42285 -2.63562 0
M  V30 4350 C 427.139 -3.59206 -3.91337 0
M  V30 4351 C 426.178 -4.80467 -3.79233 0
M  V30 4352 N 425.315 -4.94079 -4.98829 0
M  V30 4353 H 430.155 -2.78456 -1.06143 0
M  V30 4354 H 427.692 -1.37867 -0.512936 0
M  V30 4355 H 429.65 -2.28501 -3.49061 0
M  V30 4356 H 428.28 -1.27075 -2.96735 0
M  V30 4357 H 427.332 -3.37029 -1.76397 0
M  V30 4358 H 428.644 -4.31328 -2.50515 0
M  V30 4359 H 427.798 -3.72751 -4.78687 0
M  V30 4360 H 426.537 -2.68337 -4.07243 0
M  V30 4361 H 425.542 -4.66932 -2.90266 0
M  V30 4362 H 426.767 -5.72765 -3.64852 0
M  V30 4363 H 424.713 -4.06139 -5.15158 0
M  V30 4364 H 424.63 -5.77156 -4.8829 0
M  V30 4365 H 425.898 -5.12003 -5.8777 0
M  V30 4366 N 430.127 0.543554 -1.4793 0
M  V30 4367 C 431.374 1.30008 -1.55255 0
M  V30 4368 C 431.702 1.93245 -0.220612 0
M  V30 4369 O 430.957 1.79141 0.787843 0
M  V30 4370 C 431.256 2.42078 -2.62932 0
M  V30 4371 C 430.922 1.96583 -4.0579 0
M  V30 4372 C 429.584 1.83893 -4.44676 0
M  V30 4373 C 431.936 1.62034 -4.95373 0
M  V30 4374 C 429.264 1.34969 -5.70964 0
M  V30 4375 C 431.616 1.14577 -6.22137 0
M  V30 4376 C 430.28 1.00493 -6.59892 0
M  V30 4377 H 429.55 0.475735 -0.568117 0
M  V30 4378 H 432.197 0.608075 -1.81589 0
M  V30 4379 H 430.502 3.16892 -2.30406 0
M  V30 4380 H 432.199 3.00236 -2.65818 0
M  V30 4381 H 428.789 2.07407 -3.75074 0
M  V30 4382 H 432.973 1.70705 -4.66019 0
M  V30 4383 H 428.229 1.2274 -5.98953 0
M  V30 4384 H 432.403 0.869109 -6.90955 0
M  V30 4385 H 430.03 0.623624 -7.57638 0
M  V30 4386 N 431.605 1.3629 0.791371 0
M  V30 4387 C 432.83 1.33726 1.58531 0
M  V30 4388 C 433.255 -0.0794933 1.87932 0
M  V30 4389 O 432.613 -1.05087 1.47738 0
M  V30 4390 C 432.661 2.16425 2.88431 0
M  V30 4391 O 431.765 1.5554 3.81944 0
M  V30 4392 H 431.106 0.457793 0.480959 0
M  V30 4393 H 433.636 1.79547 0.981031 0
M  V30 4394 H 433.646 2.28933 3.37718 0
M  V30 4395 H 432.321 3.19415 2.66359 0
M  V30 4396 H 430.898 1.51961 3.40532 0
M  V30 4397 N 433.083 -1.0153 1.20538 0
M  V30 4398 C 434.015 -2.10224 0.913155 0
M  V30 4399 C 435.028 -1.62495 -0.0995998 0
M  V30 4400 O 436.217 -1.78014 0.131582 0
M  V30 4401 C 433.317 -3.37111 0.347717 0
M  V30 4402 C 432.49 -4.13971 1.41233 0
M  V30 4403 C 431.549 -5.19158 0.857976 0
M  V30 4404 O 430.575 -5.48 1.53897 0
M  V30 4405 N 431.777 -5.7955 -0.331966 0
M  V30 4406 H 434.542 -2.35879 1.84881 0
M  V30 4407 H 432.103 -1.17931 1.10923 0
M  V30 4408 H 434.095 -4.04683 -0.0373026 0
M  V30 4409 H 432.665 -3.08696 -0.492527 0
M  V30 4410 H 431.885 -3.41351 1.97163 0
M  V30 4411 H 433.173 -4.62103 2.12928 0
M  V30 4412 H 432.571 -5.58455 -0.902478 0
M  V30 4413 H 431.128 -6.48464 -0.65861 0
M  V30 4414 N 434.561 -1.01147 -1.20859 0
M  V30 4415 C 435.807 -0.698899 -1.90377 0
M  V30 4416 C 436.14 0.76904 -1.78324 0
M  V30 4417 O 435.415 1.55817 -1.16409 0
M  V30 4418 C 435.698 -1.12878 -3.41951 0
M  V30 4419 C 435.551 -2.65665 -3.62963 0
M  V30 4420 C 436.87 -0.696114 -4.3456 0
M  V30 4421 H 433.989 -0.255372 -0.691342 0
M  V30 4422 H 436.631 -1.25831 -1.42361 0
M  V30 4423 H 434.781 -0.652827 -3.82976 0
M  V30 4424 H 436.453 -3.21074 -3.31224 0
M  V30 4425 H 434.696 -3.06878 -3.06608 0
M  V30 4426 H 435.367 -2.90797 -4.69192 0
M  V30 4427 H 437.843 -1.10521 -4.01154 0
M  V30 4428 H 436.719 -1.025 -5.39245 0
M  V30 4429 H 436.98 0.402465 -4.40264 0
M  V30 4430 N 436.039 1.36541 -0.78704 0
M  V30 4431 C 436.986 2.30082 -0.181901 0
M  V30 4432 C 437.956 1.5186 0.672896 0
M  V30 4433 O 439.141 1.80374 0.622072 0
M  V30 4434 C 436.281 3.3835 0.679197 0
M  V30 4435 C 435.394 4.31565 -0.193882 0
M  V30 4436 C 434.529 5.26915 0.673364 0
M  V30 4437 C 433.568 6.11769 -0.201315 0
M  V30 4438 N 432.705 6.99315 0.624777 0
M  V30 4439 H 437.545 2.81248 -0.985064 0
M  V30 4440 H 435.082 1.38437 -0.497342 0
M  V30 4441 H 437.04 3.99767 1.19341 0
M  V30 4442 H 435.67 2.8851 1.44781 0
M  V30 4443 H 434.722 3.71323 -0.826044 0
M  V30 4444 H 436.034 4.91191 -0.867937 0
M  V30 4445 H 435.188 5.9361 1.25348 0
M  V30 4446 H 433.927 4.67737 1.38105 0
M  V30 4447 H 432.932 5.44039 -0.793849 0
M  V30 4448 H 434.157 6.73022 -0.906568 0
M  V30 4449 H 432.103 6.42648 1.3168 0
M  V30 4450 H 432.02 7.56 0.00835237 0
M  V30 4451 H 433.288 7.70382 1.18879 0
M  V30 4452 N 437.518 0.538854 1.48102 0
M  V30 4453 C 438.428 -0.222648 2.33541 0
M  V30 4454 C 439.444 -0.930225 1.47047 0
M  V30 4455 O 440.62 -0.903211 1.80011 0
M  V30 4456 C 437.685 -1.25064 3.23357 0
M  V30 4457 C 436.746 -0.552469 4.2573 0
M  V30 4458 C 435.979 -1.53149 5.11254 0
M  V30 4459 O 436.202 -2.76487 4.9891 0
M  V30 4460 O 435.136 -1.06602 5.92385 0
M  V30 4461 H 438.962 0.477707 2.99919 0
M  V30 4462 H 436.547 0.299669 1.46364 0
M  V30 4463 H 438.429 -1.8445 3.78888 0
M  V30 4464 H 437.104 -1.93325 2.59629 0
M  V30 4465 H 436.011 0.082114 3.7401 0
M  V30 4466 H 437.344 0.0883526 4.92121 0
M  V30 4467 N 438.996 -1.55193 0.274407 0
M  V30 4468 C 440.242 -1.99877 -0.343086 0
M  V30 4469 C 440.575 -1.16256 -1.55558 0
M  V30 4470 O 439.85 -0.232462 -1.93106 0
M  V30 4471 C 440.133 -3.52706 -0.725965 0
M  V30 4472 C 439.986 -4.47081 0.493818 0
M  V30 4473 C 441.305 -4.11422 -1.56268 0
M  V30 4474 H 438.424 -0.726625 -0.123229 0
M  V30 4475 H 441.066 -1.86136 0.38121 0
M  V30 4476 H 439.216 -3.64546 -1.34307 0
M  V30 4477 H 440.888 -4.47186 1.13237 0
M  V30 4478 H 439.131 -4.1877 1.13201 0
M  V30 4479 H 439.802 -5.51699 0.18217 0
M  V30 4480 H 442.278 -4.02855 -1.04151 0
M  V30 4481 H 441.154 -5.18568 -1.79939 0
M  V30 4482 H 441.415 -3.61607 -2.54348 0
M  V30 4483 N 440.474 -0.00167713 -1.576 0
M  V30 4484 C 441.421 0.989195 -2.08527 0
M  V30 4485 C 442.391 1.34031 -0.981065 0
M  V30 4486 O 443.576 1.43839 -1.2536 0
M  V30 4487 C 440.716 2.27537 -2.59463 0
M  V30 4488 C 439.829 1.98314 -3.83791 0
M  V30 4489 C 438.964 3.21025 -4.23222 0
M  V30 4490 C 438.003 2.87495 -5.40382 0
M  V30 4491 N 437.14 4.02749 -5.75098 0
M  V30 4492 H 441.98 0.547973 -2.92919 0
M  V30 4493 H 439.517 0.258917 -1.44803 0
M  V30 4494 H 441.475 3.02729 -2.87073 0
M  V30 4495 H 440.105 2.69325 -1.77943 0
M  V30 4496 H 439.157 1.13482 -3.63078 0
M  V30 4497 H 440.469 1.69601 -4.69081 0
M  V30 4498 H 439.623 4.04561 -4.52123 0
M  V30 4499 H 438.362 3.52877 -3.36644 0
M  V30 4500 H 437.367 2.02367 -5.11202 0
M  V30 4501 H 438.592 2.56889 -6.28637 0
M  V30 4502 H 436.538 4.34494 -4.91478 0
M  V30 4503 H 436.455 3.77566 -6.54966 0
M  V30 4504 H 437.723 4.87068 -6.08592 0
M  V30 4505 N 441.952 1.55251 0.271103 0
M  V30 4506 C 442.899 1.88261 1.33516 0
M  V30 4507 C 443.869 0.734296 1.48988 0
M  V30 4508 O 445.054 0.985741 1.63364 0
M  V30 4509 C 442.194 2.16168 2.69008 0
M  V30 4510 C 441.307 3.43678 2.61743 0
M  V30 4511 C 440.442 3.61276 3.89427 0
M  V30 4512 C 439.481 4.82472 3.7668 0
M  V30 4513 N 438.618 4.96717 4.96202 0
M  V30 4514 H 443.458 2.79015 1.04665 0
M  V30 4515 H 440.995 1.38137 0.505618 0
M  V30 4516 H 442.953 2.30349 3.47844 0
M  V30 4517 H 441.583 1.28646 2.96057 0
M  V30 4518 H 440.635 3.37959 1.74607 0
M  V30 4519 H 441.947 4.3265 2.48224 0
M  V30 4520 H 441.101 3.75284 4.76704 0
M  V30 4521 H 439.84 2.70492 4.05814 0
M  V30 4522 H 438.845 4.68465 2.87786 0
M  V30 4523 H 440.07 5.74692 3.61809 0
M  V30 4524 H 438.016 4.08865 5.12997 0
M  V30 4525 H 437.933 5.79738 4.85222 0
M  V30 4526 H 439.201 5.15113 5.85046 0
M  V30 4527 N 443.43 -0.535701 1.48216 0
M  V30 4528 C 444.658 -1.31671 1.59594 0
M  V30 4529 C 445.073 -1.87083 0.254056 0
M  V30 4530 O 444.43 -1.66112 -0.755854 0
M  V30 4531 C 444.481 -2.47158 2.63809 0
M  V30 4532 O 444.202 -1.94032 3.92789 0
M  V30 4533 C 445.703 -3.39062 2.85573 0
M  V30 4534 H 442.923 -0.400623 0.538277 0
M  V30 4535 H 445.467 -0.646827 1.94001 0
M  V30 4536 H 443.622 -3.10043 2.32276 0
M  V30 4537 H 444.036 -2.69585 4.49916 0
M  V30 4538 H 445.51 -4.16459 3.62306 0
M  V30 4539 H 445.987 -3.93941 1.94184 0
M  V30 4540 H 446.593 -2.81975 3.18387 0
M  V30 4541 N 444.908 -1.36708 -0.784132 0
M  V30 4542 C 445.838 -1.34153 -1.91116 0
M  V30 4543 C 446.819 -0.212121 -1.68772 0
M  V30 4544 O 448.004 -0.410581 -1.8981 0
M  V30 4545 C 445.134 -1.13535 -3.28218 0
M  V30 4546 C 444.088 -2.23356 -3.65097 0
M  V30 4547 C 443.414 -1.87875 -5.00607 0
M  V30 4548 C 444.714 -3.65473 -3.73131 0
M  V30 4549 H 446.408 -2.28459 -1.93512 0
M  V30 4550 H 443.954 -1.09973 -0.929618 0
M  V30 4551 H 445.907 -1.10381 -4.06687 0
M  V30 4552 H 444.631 -0.156804 -3.26223 0
M  V30 4553 H 443.29 -2.25645 -2.88929 0
M  V30 4554 H 442.938 -0.885814 -4.95139 0
M  V30 4555 H 442.638 -2.61406 -5.26252 0
M  V30 4556 H 444.162 -1.86286 -5.81489 0
M  V30 4557 H 445.576 -3.65382 -4.41779 0
M  V30 4558 H 443.973 -4.37953 -4.10265 0
M  V30 4559 H 445.043 -3.99995 -2.74102 0
M  V30 4560 N 446.386 1.0089 -1.21074 0
M  V30 4561 C 447.611 1.78727 -1.05221 0
M  V30 4562 C 448.036 1.83932 0.393795 0
M  V30 4563 O 447.394 1.28004 1.28393 0
M  V30 4564 C 447.442 3.20665 -1.64944 0
M  V30 4565 O 446.546 4.02632 -0.892273 0
M  V30 4566 H 445.887 0.550973 -0.370574 0
M  V30 4567 H 448.417 1.26847 -1.60534 0
M  V30 4568 H 448.427 3.71352 -1.69002 0
M  V30 4569 H 447.102 3.16191 -2.70177 0
M  V30 4570 H 445.679 3.61207 -0.926492 0
M  V30 4571 N 447.864 1.01787 1.20321 0
M  V30 4572 C 449.112 0.706538 1.89347 0
M  V30 4573 C 449.433 -0.766289 1.79313 0
M  V30 4574 O 448.703 -1.55126 1.19635 0
M  V30 4575 H 447.283 0.258348 0.700903 0
M  V30 4576 H 449.945 1.28974 1.46122 0
M  V30 4577 H 449.041 0.991066 2.95946 0
M  V30 4578 N 449.342 -1.36122 0.79427 0
M  V30 4579 C 450.272 -2.32551 0.210328 0
M  V30 4580 C 451.253 -1.56884 -0.657386 0
M  V30 4581 O 452.438 -1.85014 -0.590207 0
M  V30 4582 C 449.568 -3.41128 -0.651819 0
M  V30 4583 C 448.522 -4.27842 0.116395 0
M  V30 4584 C 447.848 -5.2763 -0.86666 0
M  V30 4585 C 449.148 -5.05647 1.30837 0
M  V30 4586 H 450.842 -2.81636 1.01594 0
M  V30 4587 H 448.388 -1.35407 0.489981 0
M  V30 4588 H 450.341 -4.07581 -1.07031 0
M  V30 4589 H 449.065 -2.90622 -1.49019 0
M  V30 4590 H 447.724 -3.62952 0.515915 0
M  V30 4591 H 447.372 -4.73395 -1.70019 0
M  V30 4592 H 447.072 -5.86514 -0.35705 0
M  V30 4593 H 448.596 -5.96955 -1.28361 0
M  V30 4594 H 450.01 -5.65113 0.965393 0
M  V30 4595 H 448.407 -5.73967 1.75161 0
M  V30 4596 H 449.477 -4.37006 2.10128 0
M  V30 4597 N 450.82 -0.546701 -1.47814 0
M  V30 4598 C 451.73 0.21026 -2.33656 0
M  V30 4599 C 452.746 0.922413 -1.47538 0
M  V30 4600 O 453.922 0.893652 -1.80488 0
M  V30 4601 C 450.987 1.23348 -3.24016 0
M  V30 4602 C 450.048 0.529883 -4.26017 0
M  V30 4603 C 449.281 1.50435 -5.12059 0
M  V30 4604 O 449.504 2.73837 -5.00369 0
M  V30 4605 O 448.438 1.03459 -5.92942 0
M  V30 4606 H 452.264 -0.493605 -2.99662 0
M  V30 4607 H 449.849 -0.307427 -1.46203 0
M  V30 4608 H 451.731 1.82438 -3.79861 0
M  V30 4609 H 450.406 1.91945 -2.60651 0
M  V30 4610 H 449.313 -0.101948 -3.73961 0
M  V30 4611 H 450.646 -0.11445 -4.92067 0
M  V30 4612 N 452.299 1.55045 -0.282633 0
M  V30 4613 C 453.545 2.00056 0.332481 0
M  V30 4614 C 453.878 1.1708 1.54939 0
M  V30 4615 O 453.153 0.2427 1.9298 0
M  V30 4616 C 453.436 3.53086 0.70725 0
M  V30 4617 C 453.289 4.46813 -0.517521 0
M  V30 4618 C 454.608 4.12245 1.54084 0
M  V30 4619 H 451.727 0.727268 0.119373 0
M  V30 4620 H 454.369 1.85932 -0.391076 0
M  V30 4621 H 452.519 3.65253 1.32372 0
M  V30 4622 H 454.191 4.46579 -1.15607 0
M  V30 4623 H 452.434 4.18163 -1.1542 0
M  V30 4624 H 453.105 5.51595 -0.211426 0
M  V30 4625 H 455.581 4.03401 1.02013 0
M  V30 4626 H 454.457 5.19515 1.77186 0
M  V30 4627 H 454.718 3.62951 2.52427 0
M  V30 4628 N 453.777 0.010035 1.57597 0
M  V30 4629 C 455.002 -0.687021 1.95691 0
M  V30 4630 C 455.427 -1.65952 0.885519 0
M  V30 4631 O 454.785 -1.80633 -0.15543 0
M  V30 4632 C 454.833 -1.3864 3.32884 0
M  V30 4633 O 453.937 -2.50115 3.27897 0
M  V30 4634 H 453.278 -0.181989 0.638573 0
M  V30 4635 H 455.808 0.0662122 2.04493 0
M  V30 4636 H 455.818 -1.74754 3.6868 0
M  V30 4637 H 454.493 -0.673411 4.10412 0
M  V30 4638 H 453.07 -2.16253 3.03791 0
M  V30 4639 N 455.255 -1.55392 -0.262866 0
M  V30 4640 C 456.188 -1.8391 -1.35101 0
M  V30 4641 C 457.166 -0.692901 -1.47097 0
M  V30 4642 O 458.35 -0.936979 -1.63563 0
M  V30 4643 C 455.477 -2.00969 -2.72634 0
M  V30 4644 C 454.523 -3.23559 -2.7787 0
M  V30 4645 S 455.356 -4.80647 -2.3609 0
M  V30 4646 C 456.512 -5.00692 -3.75578 0
M  V30 4647 H 456.745 -2.75918 -1.1071 0
M  V30 4648 H 454.278 -1.47294 -0.463029 0
M  V30 4649 H 456.236 -2.11482 -3.51832 0
M  V30 4650 H 454.897 -1.09832 -2.94272 0
M  V30 4651 H 454.09 -3.32413 -3.78837 0
M  V30 4652 H 453.692 -3.11689 -2.06702 0
M  V30 4653 H 455.984 -4.87055 -4.70939 0
M  V30 4654 H 456.927 -6.02717 -3.71669 0
M  V30 4655 H 457.335 -4.28619 -3.6735 0
M  V30 4656 N 456.733 0.527833 -1.48498 0
M  V30 4657 C 457.979 1.28545 -1.56857 0
M  V30 4658 C 458.312 1.92678 -0.242651 0
M  V30 4659 O 457.587 1.79394 0.751545 0
M  V30 4660 C 457.87 2.37314 -2.70839 0
M  V30 4661 C 457.723 1.77858 -4.13142 0
M  V30 4662 C 459.042 3.39068 -2.80573 0
M  V30 4663 H 456.161 0.466006 -0.570971 0
M  V30 4664 H 458.803 0.587784 -1.8068 0
M  V30 4665 H 456.953 2.96821 -2.50658 0
M  V30 4666 H 458.625 1.22385 -4.44769 0
M  V30 4667 H 456.868 1.08383 -4.20042 0
M  V30 4668 H 457.539 2.56624 -4.88721 0
M  V30 4669 H 460.015 2.89518 -2.98862 0
M  V30 4670 H 458.891 4.12566 -3.6205 0
M  V30 4671 H 459.152 3.9975 -1.88818 0
M  V30 4672 N 458.211 1.37122 0.776871 0
M  V30 4673 C 459.439 1.3523 1.5659 0
M  V30 4674 C 459.854 -0.0635518 1.88693 0
M  V30 4675 O 459.211 -1.02394 1.51069 0
M  V30 4676 C 459.262 2.18583 2.8793 0
M  V30 4677 O 458.983 3.5465 2.57206 0
M  V30 4678 C 460.484 2.24612 3.82183 0
M  V30 4679 H 457.704 0.4634 0.485285 0
M  V30 4680 H 460.248 1.80392 0.963266 0
M  V30 4681 H 458.403 1.76943 3.4463 0
M  V30 4682 H 458.817 3.98286 3.41275 0
M  V30 4683 H 460.291 2.87267 4.71361 0
M  V30 4684 H 460.768 1.25309 4.20944 0
M  V30 4685 H 461.374 2.66543 3.31414 0
M  V30 4686 N 459.689 -1.00246 1.21608 0
M  V30 4687 C 460.652 -2.07233 0.979133 0
M  V30 4688 C 461.652 -1.6072 -0.0508219 0
M  V30 4689 O 462.842 -1.73196 0.186712 0
M  V30 4690 C 459.974 -3.37546 0.477016 0
M  V30 4691 H 461.167 -2.29687 1.92831 0
M  V30 4692 H 458.72 -1.17261 1.03342 0
M  V30 4693 H 459.455 -3.20773 -0.476966 0
M  V30 4694 H 459.24 -3.72638 1.21997 0
M  V30 4695 H 460.73 -4.16285 0.331181 0
M  V30 4696 N 461.167 -1.02423 -1.1978 0
M  V30 4697 C 462.413 -0.719051 -1.89625 0
M  V30 4698 C 462.746 0.750083 -1.7913 0
M  V30 4699 O 462.021 1.54574 -1.18056 0
M  V30 4700 C 462.304 -1.16499 -3.40735 0
M  V30 4701 C 462.157 -2.695 -3.60125 0
M  V30 4702 C 463.476 -0.742166 -4.33797 0
M  V30 4703 H 460.595 -0.26269 -0.688595 0
M  V30 4704 H 463.237 -1.27333 -1.41018 0
M  V30 4705 H 461.387 -0.69341 -3.82262 0
M  V30 4706 H 463.059 -3.24569 -3.278 0
M  V30 4707 H 461.302 -3.10113 -3.03336 0
M  V30 4708 H 461.973 -2.95757 -4.66081 0
M  V30 4709 H 464.449 -1.1477 -3.99959 0
M  V30 4710 H 463.325 -1.08213 -5.38127 0
M  V30 4711 H 463.586 0.355747 -4.40666 0
M  V30 4712 N 462.645 1.35699 -0.801477 0
M  V30 4713 C 464.056 1.81415 -0.441073 0
M  V30 4714 C 464.407 1.66595 1.03636 0
M  V30 4715 O 463.532 1.19369 1.80499 0
M  V30 4716 C 464.127 3.29369 -0.793819 0
M  V30 4717 C 462.686 3.73248 -0.486083 0
M  V30 4718 C 461.833 2.57775 -1.02213 0
M  V30 4719 H 464.784 1.23749 -0.993572 0
M  V30 4720 H 464.805 3.80395 -0.0894158 0
M  V30 4721 H 464.317 3.40123 -1.86917 0
M  V30 4722 H 462.418 3.68046 0.580735 0
M  V30 4723 H 462.531 4.68222 -1.01513 0
M  V30 4724 H 460.895 2.50788 -0.444712 0
M  V30 4725 H 461.678 2.71309 -2.10348 0
M  V30 4726 N 464.123 0.554532 1.47522 0
M  V30 4727 C 465.371 0.0294208 2.02079 0
M  V30 4728 C 465.692 -1.32411 1.43151 0
M  V30 4729 O 464.962 -1.863 0.605728 0
M  V30 4730 H 463.542 0.00788672 0.746958 0
M  V30 4731 H 466.204 0.723934 1.80956 0
M  V30 4732 H 465.3 -0.0606745 3.12041 0
M  V30 4733 N 465.601 -1.54893 0.290851 0
M  V30 4734 C 467.017 -1.59476 -0.0628432 0
M  V30 4735 C 467.217 -1.30795 -1.5328 0
M  V30 4736 O 466.273 -1.07644 -2.28406 0
M  V30 4737 C 467.586 -2.98928 0.325962 0
M  V30 4738 C 469.134 -3.11799 0.273882 0
M  V30 4739 C 469.609 -4.53544 0.637359 0
M  V30 4740 N 471.1 -4.59433 0.589507 0
M  V30 4741 C 471.835 -5.67164 0.84335 0
M  V30 4742 N 471.331 -6.82975 1.16263 0
M  V30 4743 N 473.124 -5.56786 0.771091 0
M  V30 4744 H 465.275 -1.71798 1.24896 0
M  V30 4745 H 467.538 -0.801879 0.505663 0
M  V30 4746 H 467.244 -3.24805 1.34887 0
M  V30 4747 H 467.118 -3.75793 -0.325441 0
M  V30 4748 H 469.505 -2.85677 -0.739765 0
M  V30 4749 H 469.586 -2.37112 0.959766 0
M  V30 4750 H 469.23 -4.80394 1.64877 0
M  V30 4751 H 469.16 -5.26553 -0.0704866 0
M  V30 4752 H 471.651 -3.76245 0.353252 0
M  V30 4753 H 471.964 -7.61048 1.34257 0
M  V30 4754 H 470.309 -6.84552 1.20057 0
M  V30 4755 H 473.5 -4.65187 0.521383 0
M  V30 4756 H 473.673 -6.40664 0.972295 0
M  V30 4757 N 467.08 -0.0183926 -1.57589 0
M  V30 4758 C 468.01 0.965596 -2.12599 0
M  V30 4759 C 468.991 1.34641 -1.0395 0
M  V30 4760 O 470.176 1.42693 -1.31729 0
M  V30 4761 C 467.306 2.25149 -2.64434 0
M  V30 4762 C 466.26 2.01175 -3.77773 0
M  V30 4763 C 465.586 3.35937 -4.15994 0
M  V30 4764 C 466.886 1.35953 -5.04296 0
M  V30 4765 H 468.58 0.507504 -2.95067 0
M  V30 4766 H 466.126 0.242671 -1.41941 0
M  V30 4767 H 468.079 2.94357 -3.01549 0
M  V30 4768 H 466.803 2.73105 -1.79112 0
M  V30 4769 H 465.462 1.34388 -3.4108 0
M  V30 4770 H 465.11 3.81631 -3.27669 0
M  V30 4771 H 464.81 3.20705 -4.92364 0
M  V30 4772 H 466.334 4.0643 -4.55683 0
M  V30 4773 H 467.748 1.95144 -5.39065 0
M  V30 4774 H 466.145 1.31152 -5.85593 0
M  V30 4775 H 467.215 0.331071 -4.83768 0
M  V30 4776 N 468.558 1.5553 0.254621 0
M  V30 4777 C 469.969 1.67518 0.824286 0
M  V30 4778 C 470.32 0.614429 1.86331 0
M  V30 4779 O 469.445 -0.240736 2.15057 0
M  V30 4780 C 470.04 3.03692 1.50189 0
M  V30 4781 C 468.599 3.17646 2.01935 0
M  V30 4782 C 467.746 2.63373 0.867746 0
M  V30 4783 H 470.697 1.58671 0.0305843 0
M  V30 4784 H 470.718 2.97706 2.36962 0
M  V30 4785 H 470.23 3.80874 0.745431 0
M  V30 4786 H 468.331 2.45273 2.80485 0
M  V30 4787 H 468.444 4.24455 2.22204 0
M  V30 4788 H 466.808 2.20999 1.26616 0
M  V30 4789 H 467.591 3.43074 0.124498 0
M  V30 4790 N 470.036 -0.519951 1.48776 0
M  V30 4791 C 471.282 -1.27711 1.57536 0
M  V30 4792 C 471.615 -1.92547 0.252866 0
M  V30 4793 O 470.89 -1.7979 -0.742021 0
M  V30 4794 C 471.173 -2.35875 2.72094 0
M  V30 4795 C 471.026 -1.75664 4.1408 0
M  V30 4796 C 472.345 -3.37575 2.82367 0
M  V30 4797 H 469.464 -0.462971 0.573434 0
M  V30 4798 H 472.106 -0.578194 1.80989 0
M  V30 4799 H 470.256 -2.95488 2.52228 0
M  V30 4800 H 471.928 -1.20025 4.45412 0
M  V30 4801 H 470.171 -1.06154 4.20611 0
M  V30 4802 H 470.842 -2.54029 4.90075 0
M  V30 4803 H 473.318 -2.87929 3.00393 0
M  V30 4804 H 472.194 -4.1064 3.64233 0
M  V30 4805 H 472.455 -3.98743 1.90936 0
M  V30 4806 N 471.514 -1.37532 -0.769588 0
M  V30 4807 C 472.447 -1.27839 -1.8903 0
M  V30 4808 C 473.425 -0.158504 -1.61826 0
M  V30 4809 O 474.609 -0.333086 -1.85534 0
M  V30 4810 C 471.736 -0.977072 -3.24301 0
M  V30 4811 C 470.782 -2.11414 -3.70414 0
M  V30 4812 S 471.615 -3.73409 -3.83831 0
M  V30 4813 C 472.771 -3.45432 -5.21946 0
M  V30 4814 H 473.004 -2.22694 -1.96963 0
M  V30 4815 H 470.537 -1.2318 -0.930914 0
M  V30 4816 H 472.495 -0.810049 -4.02428 0
M  V30 4817 H 471.156 -0.0459701 -3.14066 0
M  V30 4818 H 470.349 -1.85837 -4.68488 0
M  V30 4819 H 469.951 -2.24141 -2.99394 0
M  V30 4820 H 472.243 -3.00554 -6.07185 0
M  V30 4821 H 473.186 -4.42841 -5.52537 0
M  V30 4822 H 473.594 -2.80311 -4.89986 0
M  V30 4823 N 472.992 0.995999 -1.22138 0
M  V30 4824 C 474.22 1.77066 -1.07029 0
M  V30 4825 C 474.635 1.8495 0.379357 0
M  V30 4826 O 473.992 1.3174 1.26297 0
M  V30 4827 C 474.043 3.20533 -1.67155 0
M  V30 4828 O 473.764 3.13082 -3.06449 0
M  V30 4829 C 475.265 4.14461 -1.5728 0
M  V30 4830 H 472.485 0.556179 -0.375374 0
M  V30 4831 H 475.029 1.25238 -1.61666 0
M  V30 4832 H 473.184 3.6944 -1.16589 0
M  V30 4833 H 473.598 4.03283 -3.35355 0
M  V30 4834 H 475.072 5.1289 -2.04078 0
M  V30 4835 H 475.549 4.36005 -0.528795 0
M  V30 4836 H 476.155 3.71449 -2.07136 0
M  V30 4837 N 474.47 1.03057 1.19235 0
M  V30 4838 C 475.403 0.557384 2.21288 0
M  V30 4839 C 476.381 -0.402675 1.57535 0
M  V30 4840 O 477.565 -0.319376 1.85775 0
M  V30 4841 C 474.692 -0.187041 3.38183 0
M  V30 4842 C 473.738 0.72471 4.20298 0
M  V30 4843 S 474.571 2.20187 4.88137 0
M  V30 4844 C 475.727 1.46801 6.08441 0
M  V30 4845 H 475.96 1.42207 2.61083 0
M  V30 4846 H 473.493 0.840651 1.29508 0
M  V30 4847 H 475.451 -0.610405 4.05936 0
M  V30 4848 H 474.112 -1.02748 2.96819 0
M  V30 4849 H 473.305 0.149911 5.03777 0
M  V30 4850 H 472.907 1.08647 3.57871 0
M  V30 4851 H 475.199 0.755522 6.73274 0
M  V30 4852 H 476.142 2.27946 6.70407 0
M  V30 4853 H 476.55 0.964762 5.56195 0
M  V30 4854 N 475.948 -1.35272 0.808662 0
M  V30 4855 C 477.197 -1.97963 0.386483 0
M  V30 4856 C 477.51 -1.64866 -1.05255 0
M  V30 4857 O 478.716 -2.20937 -1.57794 0
M  V30 4858 C 477.172 -3.54162 0.640096 0
M  V30 4859 C 476.78 -3.96166 2.0918 0
M  V30 4860 C 478.524 -4.23553 0.283376 0
M  V30 4861 C 476.431 -5.4522 2.29106 0
M  V30 4862 H 475.361 -0.740742 0.140774 0
M  V30 4863 H 478.012 -1.5431 0.993012 0
M  V30 4864 H 476.394 -3.95983 -0.0364117 0
M  V30 4865 H 477.568 -3.65491 2.80629 0
M  V30 4866 H 475.883 -3.3967 2.40859 0
M  V30 4867 H 478.48 -5.33124 0.410273 0
M  V30 4868 H 478.823 -4.09105 -0.770659 0
M  V30 4869 H 479.356 -3.8716 0.913884 0
M  V30 4870 H 476.095 -5.64638 3.32962 0
M  V30 4871 H 475.615 -5.77457 1.62184 0
M  V30 4872 H 477.294 -6.1171 2.1076 0
M  V30 4873 N 477.426 -0.562348 -1.47226 0
M  V30 4874 C 478.837 -0.130325 -1.86245 0
M  V30 4875 C 479.188 1.30128 -1.46838 0
M  V30 4876 O 478.313 1.97974 -0.873805 0
M  V30 4877 C 478.908 -0.229738 -3.3802 0
M  V30 4878 C 477.467 0.14728 -3.76112 0
M  V30 4879 C 476.614 -0.574971 -2.71274 0
M  V30 4880 H 479.565 -0.771773 -1.3867 0
M  V30 4881 H 479.586 0.550316 -3.76499 0
M  V30 4882 H 479.098 -1.27178 -3.66671 0
M  V30 4883 H 477.199 1.19023 -3.53078 0
M  V30 4884 H 477.312 -0.214858 -4.78618 0
M  V30 4885 H 475.676 -0.0174756 -2.54694 0
M  V30 4886 H 476.459 -1.61827 -3.02766 0
M  V30 4887 N 478.904 1.54736 -0.299062 0
M  V30 4888 C 480.181 1.92187 0.363802 0
M  V30 4889 C 480.561 1.22607 1.71845 0
M  V30 4890 O 479.909 0.361141 2.25628 0
M  V30 4891 C 480.119 3.45678 0.480377 0
M  V30 4892 C 481.467 4.17885 0.752147 0
M  V30 4893 O 482.491 3.51702 0.564264 0
M  V30 4894 O 481.35 5.35048 1.11294 0
M  V30 4895 H 478.444 0.801681 0.203066 0
M  V30 4896 H 480.99 1.66115 -0.346978 0
M  V30 4897 H 479.762 3.88443 -0.471999 0
M  V30 4898 H 479.385 3.77779 1.2397 0
M  V30 4899 N 480.382 0.0267497 1.57577 0
M  V30 4900 C 481.628 -0.653371 1.91987 0
M  V30 4901 C 481.961 -1.71915 0.903263 0
M  V30 4902 O 481.236 -1.94358 -0.0743387 0
M  V30 4903 C 481.519 -1.272 3.36886 0
M  V30 4904 C 481.372 -0.215938 4.49281 0
M  V30 4905 C 482.691 -2.19069 3.81703 0
M  V30 4906 H 479.81 -0.236047 0.698177 0
M  V30 4907 H 482.452 0.0835236 1.89816 0
M  V30 4908 H 480.602 -1.90005 3.38866 0
M  V30 4909 H 482.274 0.41449 4.59434 0
M  V30 4910 H 480.517 0.458855 4.31366 0
M  V30 4911 H 481.188 -0.688347 5.47691 0
M  V30 4912 H 483.664 -1.66253 3.81444 0
M  V30 4913 H 482.54 -2.59307 4.83788 0
M  V30 4914 H 482.801 -3.08087 3.17072 0
M  V30 4915 N 481.861 -1.55662 -0.24637 0
M  V30 4916 C 483.138 -1.68272 -0.997198 0
M  V30 4917 C 483.518 -0.566785 -2.03349 0
M  V30 4918 O 482.866 0.429688 -2.24424 0
M  V30 4919 C 483.076 -3.08594 -1.63006 0
M  V30 4920 C 484.424 -3.6721 -2.13171 0
M  V30 4921 O 485.448 -3.11397 -1.72946 0
M  V30 4922 O 484.307 -4.65054 -2.87031 0
M  V30 4923 H 481.401 -0.684429 -0.464205 0
M  V30 4924 H 483.947 -1.67993 -0.240114 0
M  V30 4925 H 482.719 -3.81264 -0.880527 0
M  V30 4926 H 482.342 -3.12886 -2.45333 0
M  V30 4927 N 483.339 0.512053 -1.4905 0
M  V30 4928 C 484.579 1.27715 -1.59588 0
M  V30 4929 C 484.943 1.90071 -0.271502 0
M  V30 4930 O 486.144 2.67616 -0.251987 0
M  V30 4931 C 484.415 2.32399 -2.71524 0
M  V30 4932 S 485.974 3.18396 -3.01943 0
M  V30 4933 H 482.792 0.43419 -0.563027 0
M  V30 4934 H 485.394 0.581315 -1.86657 0
M  V30 4935 H 484.098 1.85101 -3.66287 0
M  V30 4936 H 483.629 3.06667 -2.46412 0
M  V30 4937 H 485.644 4.32842 -2.42616 0
M  V30 4938 N 484.817 1.37938 0.762283 0
M  V30 4939 C 485.747 1.37176 1.88958 0
M  V30 4940 C 486.728 0.238945 1.68413 0
M  V30 4941 O 487.913 0.440726 1.89133 0
M  V30 4942 C 485.043 1.18742 3.2637 0
M  V30 4943 C 483.997 2.29136 3.61498 0
M  V30 4944 C 483.323 1.95816 4.97554 0
M  V30 4945 C 484.623 3.71363 3.6727 0
M  V30 4946 H 486.317 2.31509 1.89853 0
M  V30 4947 H 483.863 1.11438 0.912005 0
M  V30 4948 H 485.816 1.16837 4.04879 0
M  V30 4949 H 484.54 0.208683 3.25933 0
M  V30 4950 H 483.199 2.30213 2.85303 0
M  V30 4951 H 482.847 0.964475 4.93667 0
M  V30 4952 H 482.547 2.69745 5.22026 0
M  V30 4953 H 484.071 1.95513 5.78452 0
M  V30 4954 H 485.485 3.72364 4.35911 0
M  V30 4955 H 483.882 4.44425 4.03245 0
M  V30 4956 H 484.952 4.04305 2.67704 0
M  V30 4957 N 486.295 -0.989507 1.22664 0
M  V30 4958 C 487.225 -2.09847 1.02404 0
M  V30 4959 C 488.206 -1.70007 -0.0561303 0
M  V30 4960 O 489.391 -1.93906 0.106748 0
M  V30 4961 C 486.521 -3.41996 0.604663 0
M  V30 4962 C 485.475 -3.95699 1.63115 0
M  V30 4963 C 484.801 -5.23936 1.0675 0
M  V30 4964 C 486.101 -4.25999 3.02196 0
M  V30 4965 H 487.795 -2.27054 1.95158 0
M  V30 4966 H 485.341 -1.09111 0.939727 0
M  V30 4967 H 487.294 -4.1899 0.45002 0
M  V30 4968 H 486.018 -3.24626 -0.35855 0
M  V30 4969 H 484.677 -3.2084 1.77362 0
M  V30 4970 H 484.325 -5.02909 0.0955422 0
M  V30 4971 H 484.025 -5.60833 1.75328 0
M  V30 4972 H 485.549 -6.0356 0.924516 0
M  V30 4973 H 486.963 -4.93777 2.91303 0
M  V30 4974 H 485.36 -4.74076 3.67929 0
M  V30 4975 H 486.43 -3.33636 3.51873 0
M  V30 4976 N 487.773 -1.03688 -1.18687 0
M  V30 4977 C 489.019 -0.74888 -1.89112 0
M  V30 4978 C 489.374 0.715345 -1.78607 0
M  V30 4979 O 488.667 1.51498 -1.17299 0
M  V30 4980 C 488.861 -1.14477 -3.3857 0
M  V30 4981 C 488.69 -2.64594 -3.63621 0
M  V30 4982 C 487.46 -3.31685 -3.812 0
M  V30 4983 C 489.658 -3.62811 -3.64517 0
M  V30 4984 N 487.64 -4.70822 -3.93955 0
M  V30 4985 C 489.011 -4.87603 -3.8294 0
M  V30 4986 C 491.066 -3.56495 -3.47585 0
M  V30 4987 C 489.769 -6.0684 -3.86184 0
M  V30 4988 C 491.795 -4.75155 -3.52111 0
M  V30 4989 C 491.157 -5.98765 -3.71026 0
M  V30 4990 H 487.256 -0.32603 -0.710794 0
M  V30 4991 H 489.84 -1.3258 -1.42586 0
M  V30 4992 H 488.011 -0.595974 -3.838 0
M  V30 4993 H 489.743 -0.808187 -3.96548 0
M  V30 4994 H 486.498 -2.82091 -3.80423 0
M  V30 4995 H 486.922 -5.43122 -4.04163 0
M  V30 4996 H 491.564 -2.61907 -3.31911 0
M  V30 4997 H 489.282 -7.01788 -4.00648 0
M  V30 4998 H 492.868 -4.71905 -3.40289 0
M  V30 4999 H 491.748 -6.89047 -3.74412 0
M  V30 5000 N 489.251 1.34841 -0.815825 0
M  V30 5001 C 490.214 2.27959 -0.238185 0
M  V30 5002 C 491.214 1.49983 0.579816 0
M  V30 5003 O 492.404 1.69617 0.396953 0
M  V30 5004 C 489.536 3.34314 0.666876 0
M  V30 5005 H 490.729 2.80558 -1.05958 0
M  V30 5006 H 488.282 1.44852 -0.587156 0
M  V30 5007 H 489.017 2.86916 1.5116 0
M  V30 5008 H 488.802 3.92014 0.0819106 0
M  V30 5009 H 490.292 4.0379 1.06506 0
M  V30 5010 N 490.729 0.570148 1.46925 0
M  V30 5011 C 491.978 0.0487352 2.01641 0
M  V30 5012 C 492.291 -1.31433 1.44861 0
M  V30 5013 O 493.497 -1.92638 1.91318 0
M  V30 5014 C 491.953 0.0365817 3.59881 0
M  V30 5015 C 491.561 1.39719 4.25655 0
M  V30 5016 C 493.305 -0.431545 4.22301 0
M  V30 5017 C 491.212 1.34345 5.75939 0
M  V30 5018 H 490.142 0.0144492 0.753862 0
M  V30 5019 H 492.793 0.719928 1.68788 0
M  V30 5020 H 491.175 -0.700522 3.89755 0
M  V30 5021 H 492.349 2.15303 4.07408 0
M  V30 5022 H 490.664 1.80431 3.75278 0
M  V30 5023 H 493.261 -0.490354 5.32447 0
M  V30 5024 H 493.604 -1.44638 3.90366 0
M  V30 5025 H 494.137 0.251102 3.97007 0
M  V30 5026 H 490.876 2.33469 6.12513 0
M  V30 5027 H 490.396 0.629615 5.96486 0
M  V30 5028 H 492.075 1.051 6.38407 0
M  V30 5029 N 492.207 -1.54576 0.307264 0
M  V30 5030 C 493.455 -1.99867 -0.299574 0
M  V30 5031 C 493.776 -1.19714 -1.53927 0
M  V30 5032 O 493.046 -0.29472 -1.9367 0
M  V30 5033 H 491.626 -0.738299 -0.113683 0
M  V30 5034 H 494.288 -1.9032 0.420042 0
M  V30 5035 H 493.384 -3.06901 -0.567283 0
M  V30 5036 N 493.685 -0.035106 -1.57561 0
M  V30 5037 C 495.101 0.321334 -1.56332 0
M  V30 5038 C 495.301 1.72509 -1.04129 0
M  V30 5039 O 494.357 2.4287 -0.690694 0
M  V30 5040 C 495.67 0.164469 -3.0025 0
M  V30 5041 C 497.218 0.236786 -3.12103 0
M  V30 5042 C 497.693 0.10864 -4.57871 0
M  V30 5043 N 499.184 0.165433 -4.62904 0
M  V30 5044 C 499.919 0.0901506 -5.73329 0
M  V30 5045 N 499.415 -0.0365606 -6.9279 0
M  V30 5046 N 501.208 0.144572 -5.61914 0
M  V30 5047 H 493.359 -0.952976 -1.89821 0
M  V30 5048 H 495.622 -0.368537 -0.873432 0
M  V30 5049 H 495.328 -0.802746 -3.42416 0
M  V30 5050 H 495.202 0.932194 -3.655 0
M  V30 5051 H 497.589 1.19446 -2.69845 0
M  V30 5052 H 497.67 -0.561419 -2.49563 0
M  V30 5053 H 497.314 -0.845644 -5.00811 0
M  V30 5054 H 497.244 0.925786 -5.18398 0
M  V30 5055 H 499.735 0.263269 -3.76982 0
M  V30 5056 H 500.048 -0.0871487 -7.72751 0
M  V30 5057 H 498.393 -0.0714256 -6.94963 0
M  V30 5058 H 501.584 0.242006 -4.67474 0
M  V30 5059 H 501.757 0.0824413 -6.47948 0
M  V30 5060 N 495.163 1.55791 0.238111 0
M  V30 5061 C 496.409 1.78297 0.966337 0
M  V30 5062 C 496.742 0.601903 1.84637 0
M  V30 5063 O 496.017 -0.399499 1.90353 0
M  V30 5064 C 496.3 3.10758 1.81939 0
M  V30 5065 C 496.153 4.39283 0.966958 0
M  V30 5066 C 497.472 3.39519 2.80027 0
M  V30 5067 H 494.591 0.648654 0.349882 0
M  V30 5068 H 497.233 1.88525 0.236253 0
M  V30 5069 H 495.383 3.02168 2.44185 0
M  V30 5070 H 497.055 4.59873 0.362514 0
M  V30 5071 H 495.298 4.32948 0.271669 0
M  V30 5072 H 495.969 5.28368 1.59784 0
M  V30 5073 H 498.445 3.48128 2.27917 0
M  V30 5074 H 497.321 4.33402 3.36829 0
M  V30 5075 H 497.582 2.60864 3.56934 0
M  V30 5076 N 496.642 -0.504142 1.49319 0
M  V30 5077 C 498.053 -1.08572 1.51885 0
M  V30 5078 C 498.404 -1.93842 0.303255 0
M  V30 5079 O 497.529 -2.0828 -0.58724 0
M  V30 5080 C 498.124 -1.97574 2.75227 0
M  V30 5081 C 496.683 -2.509 2.80581 0
M  V30 5082 C 495.83 -1.28447 2.45757 0
M  V30 5083 H 498.781 -0.288194 1.56061 0
M  V30 5084 H 498.802 -2.82219 2.55211 0
M  V30 5085 H 498.314 -1.35486 3.63683 0
M  V30 5086 H 496.415 -3.16636 1.96398 0
M  V30 5087 H 496.528 -2.88268 3.82673 0
M  V30 5088 H 494.892 -1.60868 1.97468 0
M  V30 5089 H 495.675 -0.68072 3.36483 0
M  V30 5090 N 498.12 -1.38341 -0.754957 0
M  V30 5091 C 499.068 -1.35573 -1.89005 0
M  V30 5092 C 500.062 -0.241824 -1.67665 0
M  V30 5093 O 501.268 -0.410785 -1.7525 0
M  V30 5094 H 497.643 -0.422898 -0.621821 0
M  V30 5095 H 499.614 -2.31359 -1.88455 0
M  V30 5096 C 498.363 -1.19631 -3.26471 0
M  V30 5097 H 497.686 -2.04605 -3.43477 0
M  V30 5098 H 499.126 -1.21748 -4.06144 0
M  V30 5099 C 497.585 0.0968705 -3.36761 0
M  V30 5100 O 498.115 1.07439 -3.87066 0
M  V30 5101 N 496.321 0.153242 -2.90196 0
M  V30 5102 H 495.868 -0.642908 -2.49448 0
M  V30 5103 H 495.826 1.01807 -2.9746 0
M  V30 5104 N 499.598 0.982988 -1.23187 0
M  V30 5105 C 500.826 1.75921 -1.08901 0
M  V30 5106 C 501.241 1.85341 0.359719 0
M  V30 5107 O 500.598 1.33072 1.24892 0
M  V30 5108 C 500.649 3.18742 -1.70545 0
M  V30 5109 O 500.37 3.09814 -3.09753 0
M  V30 5110 C 501.871 4.1277 -1.61667 0
M  V30 5111 H 499.091 0.552166 -0.381252 0
M  V30 5112 H 501.635 1.23516 -1.62985 0
M  V30 5113 H 499.79 3.68182 -1.20501 0
M  V30 5114 H 500.204 3.99703 -3.39614 0
M  V30 5115 H 501.678 5.10697 -2.09506 0
M  V30 5116 H 502.155 4.3542 -0.575009 0
M  V30 5117 H 502.761 3.69232 -2.11064 0
M  V30 5118 N 501.076 1.04316 1.18135 0
M  V30 5119 C 502.023 0.636398 2.21853 0
M  V30 5120 C 502.993 -0.357039 1.62217 0
M  V30 5121 O 504.178 -0.250453 1.89149 0
M  V30 5122 C 501.318 0.00812779 3.45099 0
M  V30 5123 C 500.431 1.04933 4.19062 0
M  V30 5124 C 499.566 0.389313 5.29771 0
M  V30 5125 C 498.605 1.41544 5.9551 0
M  V30 5126 N 497.742 0.78021 6.97751 0
M  V30 5127 H 502.582 1.52536 2.56002 0
M  V30 5128 H 500.119 0.76304 1.25762 0
M  V30 5129 H 502.077 -0.373497 4.15525 0
M  V30 5130 H 500.707 -0.844336 3.11562 0
M  V30 5131 H 499.759 1.54888 3.47439 0
M  V30 5132 H 501.071 1.82862 4.64072 0
M  V30 5133 H 500.225 -0.0463805 6.06682 0
M  V30 5134 H 498.964 -0.422038 4.8587 0
M  V30 5135 H 497.969 1.86124 5.17337 0
M  V30 5136 H 499.194 2.22854 6.41493 0
M  V30 5137 H 497.14 -0.0107899 6.55999 0
M  V30 5138 H 497.057 1.49716 7.41027 0
M  V30 5139 H 498.325 0.368996 7.78626 0
M  V30 5140 N 502.554 -1.34406 0.822964 0
M  V30 5141 C 503.831 -1.92733 0.333641 0
M  V30 5142 C 504.211 -1.75107 -1.17901 0
M  V30 5143 O 503.559 -1.12983 -1.98613 0
M  V30 5144 C 503.769 -3.40557 0.763023 0
M  V30 5145 C 505.117 -4.17709 0.761879 0
M  V30 5146 O 506.141 -3.49141 0.705606 0
M  V30 5147 O 505 -5.40082 0.835109 0
M  V30 5148 H 502.094 -0.821964 0.0911249 0
M  V30 5149 H 504.64 -1.4338 0.907757 0
M  V30 5150 H 503.412 -3.47187 1.8049 0
M  V30 5151 H 503.035 -3.97259 0.164605 0
M  V30 5152 N 504.032 -0.577932 -1.46621 0
M  V30 5153 C 504.962 0.145917 -2.33044 0
M  V30 5154 C 505.943 0.888412 -1.45056 0
M  V30 5155 O 507.128 0.864812 -1.73881 0
M  V30 5156 C 504.258 1.16322 -3.27241 0
M  V30 5157 C 503.212 0.535868 -4.24632 0
M  V30 5158 C 502.538 1.65929 -5.08303 0
M  V30 5159 C 503.838 -0.523861 -5.19666 0
M  V30 5160 H 505.532 -0.575636 -2.93814 0
M  V30 5161 H 503.078 -0.278272 -1.41286 0
M  V30 5162 H 505.031 1.67793 -3.86553 0
M  V30 5163 H 503.755 1.91498 -2.64567 0
M  V30 5164 H 502.414 0.0422759 -3.66576 0
M  V30 5165 H 502.062 2.40061 -4.42018 0
M  V30 5166 H 501.762 1.2452 -5.74255 0
M  V30 5167 H 503.286 2.17686 -5.70478 0
M  V30 5168 H 504.7 -0.0944059 -5.73222 0
M  V30 5169 H 503.097 -0.858 -5.93935 0
M  V30 5170 H 504.167 -1.41197 -4.63887 0
M  V30 5171 N 505.51 1.54411 -0.315457 0
M  V30 5172 C 506.735 2.05299 0.294496 0
M  V30 5173 C 507.16 1.19052 1.4563 0
M  V30 5174 O 506.518 0.197804 1.80218 0
M  V30 5175 C 506.566 3.5345 0.714549 0
M  V30 5176 O 505.67 3.70175 1.81781 0
M  V30 5177 H 505.011 0.661743 0.0547019 0
M  V30 5178 H 507.541 1.99327 -0.461508 0
M  V30 5179 H 507.551 3.9557 0.999426 0
M  V30 5180 H 506.226 4.1568 -0.135244 0
M  V30 5181 H 504.803 3.3996 1.53236 0
M  V30 5182 N 506.988 0.0434614 1.5754 0
M  V30 5183 C 507.918 -0.931651 2.14109 0
M  V30 5184 C 508.899 -1.32971 1.06079 0
M  V30 5185 O 510.084 -1.40579 1.33982 0
M  V30 5186 C 507.214 -2.20914 2.67982 0
M  V30 5187 C 506.168 -1.95139 3.80926 0
M  V30 5188 C 505.494 -3.29276 4.21285 0
M  V30 5189 C 506.794 -1.27913 5.06395 0
M  V30 5190 H 508.488 -0.460497 2.95837 0
M  V30 5191 H 506.034 -0.220058 1.42309 0
M  V30 5192 H 507.987 -2.89522 3.06194 0
M  V30 5193 H 506.711 -2.70221 1.83434 0
M  V30 5194 H 505.37 -1.28945 3.43175 0
M  V30 5195 H 505.018 -3.76369 3.33699 0
M  V30 5196 H 504.718 -3.12831 4.97404 0
M  V30 5197 H 506.242 -3.99129 4.62091 0
M  V30 5198 H 507.656 -1.86544 5.42102 0
M  V30 5199 H 506.053 -1.2182 5.87605 0
M  V30 5200 H 507.123 -0.254066 4.84234 0
M  V30 5201 N 508.466 -1.55915 -0.229846 0
M  V30 5202 C 509.414 -1.9258 -1.30444 0
M  V30 5203 C 510.408 -0.806839 -1.48951 0
M  V30 5204 O 511.614 -0.991606 -1.50224 0
M  V30 5205 H 507.989 -0.611878 -0.437161 0
M  V30 5206 H 509.96 -2.82264 -0.96797 0
M  V30 5207 C 508.709 -2.25171 -2.6494 0
M  V30 5208 H 508.032 -3.10782 -2.51504 0
M  V30 5209 H 509.472 -2.54716 -3.38963 0
M  V30 5210 C 507.931 -1.07394 -3.19324 0
M  V30 5211 O 508.461 -0.330759 -4.00336 0
M  V30 5212 N 506.667 -0.859984 -2.77584 0
M  V30 5213 H 506.214 -1.46605 -2.11813 0
M  V30 5214 H 506.172 -0.0736671 -3.14314 0
M  V30 5215 N 509.944 0.496216 -1.49584 0
M  V30 5216 C 510.891 1.59722 -1.66606 0
M  V30 5217 C 511.861 1.58158 -0.507477 0
M  V30 5218 O 513.046 1.76072 -0.735076 0
M  V30 5219 C 510.186 2.97844 -1.74308 0
M  V30 5220 C 509.299 3.09388 -3.01502 0
M  V30 5221 C 508.434 4.38271 -3.00153 0
M  V30 5222 C 507.473 4.43466 -4.21906 0
M  V30 5223 N 506.61 5.63784 -4.1844 0
M  V30 5224 H 511.45 1.44515 -2.60613 0
M  V30 5225 H 508.987 0.703048 -1.29212 0
M  V30 5226 H 510.945 3.77907 -1.76754 0
M  V30 5227 H 509.575 3.11743 -0.837619 0
M  V30 5228 H 508.627 2.22357 -3.08645 0
M  V30 5229 H 509.939 3.09085 -3.91494 0
M  V30 5230 H 509.093 5.2666 -3.01188 0
M  V30 5231 H 507.832 4.41146 -2.07947 0
M  V30 5232 H 506.837 3.53478 -4.21109 0
M  V30 5233 H 508.062 4.42303 -5.1531 0
M  V30 5234 H 506.008 5.67491 -3.29074 0
M  V30 5235 H 505.925 5.65118 -5.02173 0
M  V30 5236 H 507.193 6.54367 -4.23585 0
M  V30 5237 N 511.423 1.38739 0.74761 0
M  V30 5238 C 512.353 1.39173 1.87492 0
M  V30 5239 C 513.334 0.256794 1.6815 0
M  V30 5240 O 514.519 0.460762 1.88655 0
M  V30 5241 C 511.649 1.22197 3.25093 0
M  V30 5242 C 510.603 2.32957 3.59047 0
M  V30 5243 C 509.929 2.01082 4.95449 0
M  V30 5244 C 511.229 3.75237 3.6331 0
M  V30 5245 H 512.923 2.3351 1.87386 0
M  V30 5246 H 510.469 1.12399 0.900134 0
M  V30 5247 H 512.422 1.21124 4.03617 0
M  V30 5248 H 511.146 0.243241 3.25693 0
M  V30 5249 H 509.805 2.33226 2.82845 0
M  V30 5250 H 509.453 1.01678 4.92616 0
M  V30 5251 H 509.153 2.75267 5.19136 0
M  V30 5252 H 510.677 2.01638 5.76346 0
M  V30 5253 H 512.091 3.76966 4.31937 0
M  V30 5254 H 510.488 4.48677 3.98509 0
M  V30 5255 H 511.558 4.07122 2.634 0
M  V30 5256 N 512.901 -0.976442 1.23707 0
M  V30 5257 C 514.149 -1.71487 1.06942 0
M  V30 5258 C 514.47 -1.9098 -0.393897 0
M  V30 5259 O 513.74 -1.48128 -1.28198 0
M  V30 5260 H 512.32 -0.635425 0.392739 0
M  V30 5261 H 514.982 -1.17515 1.55487 0
M  V30 5262 H 514.078 -2.70286 1.56051 0
M  V30 5263 N 514.379 -1.04941 -1.1758 0
M  V30 5264 C 515.628 -0.753124 -1.87112 0
M  V30 5265 C 515.941 0.722507 -1.81767 0
M  V30 5266 O 517.147 1.13265 -2.46746 0
M  V30 5267 C 515.603 -1.29695 -3.35719 0
M  V30 5268 C 515.211 -2.80184 -3.49572 0
M  V30 5269 C 516.955 -1.07759 -4.10595 0
M  V30 5270 C 514.862 -3.2788 -4.92187 0
M  V30 5271 H 513.792 -0.278034 -0.700866 0
M  V30 5272 H 516.443 -1.26637 -1.32798 0
M  V30 5273 H 514.825 -0.711522 -3.89555 0
M  V30 5274 H 515.999 -3.44561 -3.05965 0
M  V30 5275 H 514.314 -3.00632 -2.88113 0
M  V30 5276 H 516.911 -1.40899 -5.15802 0
M  V30 5277 H 517.254 -0.0152302 -4.16297 0
M  V30 5278 H 517.787 -1.62809 -3.62957 0
M  V30 5279 H 514.526 -4.33535 -4.91658 0
M  V30 5280 H 514.046 -2.68245 -5.36475 0
M  V30 5281 H 515.725 -3.22412 -5.60945 0
M  V30 5282 N 515.857 1.33968 -0.830081 0
M  V30 5283 C 516.789 2.28194 -0.21448 0
M  V30 5284 C 517.802 1.5135 0.599752 0
M  V30 5285 O 518.991 1.73286 0.42826 0
M  V30 5286 C 516.091 3.31221 0.717356 0
M  V30 5287 C 515.264 4.37365 -0.055613 0
M  V30 5288 C 514.323 5.2011 0.798231 0
M  V30 5289 O 513.349 5.68691 0.240616 0
M  V30 5290 N 514.551 5.40523 2.11695 0
M  V30 5291 H 517.316 2.81662 -1.02405 0
M  V30 5292 H 514.877 1.46568 -0.687713 0
M  V30 5293 H 516.869 3.83477 1.29334 0
M  V30 5294 H 515.439 2.78095 1.42765 0
M  V30 5295 H 514.659 3.85727 -0.812936 0
M  V30 5296 H 515.947 5.05397 -0.587444 0
M  V30 5297 H 515.345 5.0274 2.59363 0
M  V30 5298 H 513.902 5.95871 2.64162 0
M  V30 5299 N 517.335 0.585699 1.46312 0
M  V30 5300 C 518.563 0.0781299 2.06752 0
M  V30 5301 C 518.978 -1.22812 1.43396 0
M  V30 5302 O 518.335 -1.74318 0.540314 0
M  V30 5303 C 518.386 -0.0911927 3.61385 0
M  V30 5304 O 518.107 1.16336 4.22371 0
M  V30 5305 C 519.608 -0.632765 4.38761 0
M  V30 5306 H 516.828 0.0588188 0.668417 0
M  V30 5307 H 519.372 0.807218 1.87894 0
M  V30 5308 H 517.527 -0.770514 3.7966 0
M  V30 5309 H 517.941 0.979082 5.15281 0
M  V30 5310 H 519.415 -0.70041 5.47538 0
M  V30 5311 H 519.892 -1.65039 4.07012 0
M  V30 5312 H 520.498 0.0117856 4.25298 0
M  V30 5313 N 518.813 -1.54241 0.323641 0
M  V30 5314 C 520.09 -1.92741 -0.333181 0
M  V30 5315 C 520.47 -1.25326 -1.69872 0
M  V30 5316 O 519.818 -0.396991 -2.25025 0
M  V30 5317 C 520.028 -3.46399 -0.425322 0
M  V30 5318 C 521.376 -4.19029 -0.68557 0
M  V30 5319 O 522.4 -3.52555 -0.50824 0
M  V30 5320 O 521.259 -5.36751 -1.02767 0
M  V30 5321 H 518.353 -0.804811 -0.190286 0
M  V30 5322 H 520.899 -1.65542 0.373361 0
M  V30 5323 H 519.671 -3.87643 0.533737 0
M  V30 5324 H 519.294 -3.79704 -1.17944 0
M  V30 5325 N 520.291 -0.0518155 -1.57515 0
M  V30 5326 C 521.568 0.661727 -1.84067 0
M  V30 5327 C 521.948 1.88999 -0.940351 0
M  V30 5328 O 521.296 2.285 -0.00155404 0
M  V30 5329 C 521.506 1.01841 -3.3381 0
M  V30 5330 C 522.854 1.40043 -4.00841 0
M  V30 5331 O 523.878 1.11073 -3.38439 0
M  V30 5332 O 522.737 1.94111 -5.10865 0
M  V30 5333 H 519.831 0.326702 -0.759733 0
M  V30 5334 H 522.377 -0.0812277 -1.69505 0
M  V30 5335 H 521.149 0.145202 -3.91031 0
M  V30 5336 H 520.772 1.81879 -3.53562 0
M  V30 5337 N 521.769 1.56035 0.221574 0
M  V30 5338 C 522.716 1.92413 1.27459 0
M  V30 5339 C 523.686 0.781323 1.46576 0
M  V30 5340 O 524.871 1.03721 1.60145 0
M  V30 5341 C 522.011 2.24617 2.61995 0
M  V30 5342 C 521.124 3.51831 2.50677 0
M  V30 5343 C 520.259 3.73482 3.77736 0
M  V30 5344 C 519.298 4.94211 3.6114 0
M  V30 5345 N 518.435 5.12252 4.80148 0
M  V30 5346 H 523.275 2.82203 0.957355 0
M  V30 5347 H 520.812 1.39676 0.461415 0
M  V30 5348 H 522.77 2.41298 3.40339 0
M  V30 5349 H 521.4 1.38 2.91815 0
M  V30 5350 H 520.452 3.43343 1.63767 0
M  V30 5351 H 521.764 4.40328 2.34334 0
M  V30 5352 H 520.918 3.9026 4.64523 0
M  V30 5353 H 519.657 2.83266 3.97003 0
M  V30 5354 H 518.662 4.77384 2.72736 0
M  V30 5355 H 519.887 5.85912 3.43343 0
M  V30 5356 H 517.833 4.24978 4.99729 0
M  V30 5357 H 517.75 5.94881 4.66532 0
M  V30 5358 H 519.018 5.33465 5.68362 0
M  V30 5359 N 523.247 -0.488276 1.49845 0
M  V30 5360 C 524.495 -1.23911 1.59657 0
M  V30 5361 C 524.816 -1.92816 0.291005 0
M  V30 5362 O 524.086 -1.83328 -0.690485 0
M  V30 5363 H 522.666 -0.460357 0.588286 0
M  V30 5364 H 525.328 -0.564794 1.86537 0
M  V30 5365 H 524.424 -1.99625 2.39909 0
M  V30 5366 N 524.725 -1.39134 -0.740242 0
M  V30 5367 C 525.675 -1.33928 -1.84519 0
M  V30 5368 C 526.659 -0.221097 -1.59374 0
M  V30 5369 O 527.851 -0.458195 -1.70967 0
M  V30 5370 C 524.98 -1.17991 -3.22387 0
M  V30 5371 C 524.066 -2.34488 -3.53378 0
M  V30 5372 N 524.457 -3.59954 -3.5534 0
M  V30 5373 C 522.755 -2.27331 -3.83714 0
M  V30 5374 C 523.456 -4.36962 -3.83978 0
M  V30 5375 N 522.432 -3.66482 -4.01487 0
M  V30 5376 H 526.234 -2.28907 -1.84333 0
M  V30 5377 H 523.748 -1.32555 -0.938237 0
M  V30 5378 H 525.745 -1.12345 -4.01478 0
M  V30 5379 H 524.405 -0.23957 -3.23815 0
M  V30 5380 H 525.416 -3.93448 -3.36778 0
M  V30 5381 H 522.093 -1.41531 -3.92779 0
M  V30 5382 H 523.483 -5.45692 -3.92008 0
M  V30 5383 N 526.204 0.969867 -1.24223 0
M  V30 5384 C 527.453 1.70687 -1.07466 0
M  V30 5385 C 527.766 1.91736 0.386861 0
M  V30 5386 O 528.972 2.62986 0.674581 0
M  V30 5387 C 527.428 3.07217 -1.87472 0
M  V30 5388 C 527.036 2.94018 -3.3802 0
M  V30 5389 C 528.78 3.84804 -1.79237 0
M  V30 5390 C 526.687 4.25844 -4.10379 0
M  V30 5391 H 525.617 0.640067 -0.398536 0
M  V30 5392 H 528.268 1.08092 -1.48285 0
M  V30 5393 H 526.65 3.70628 -1.39466 0
M  V30 5394 H 527.824 2.39632 -3.9359 0
M  V30 5395 H 526.139 2.29898 -3.47183 0
M  V30 5396 H 528.736 4.82417 -2.30603 0
M  V30 5397 H 529.079 4.09356 -0.757197 0
M  V30 5398 H 529.612 3.28115 -2.24912 0
M  V30 5399 H 526.351 4.06486 -5.14246 0
M  V30 5400 H 525.871 4.80054 -3.59594 0
M  V30 5401 H 527.55 4.94475 -4.17257 0
M  V30 5402 N 527.682 1.05563 1.17022 0
M  V30 5403 C 528.931 0.763036 1.8671 0
M  V30 5404 C 529.244 -0.712857 1.82147 0
M  V30 5405 O 530.45 -1.11955 2.47343 0
M  V30 5406 C 528.906 1.31474 3.35026 0
M  V30 5407 C 528.514 2.82034 3.48081 0
M  V30 5408 C 530.258 1.09935 4.10018 0
M  V30 5409 C 528.165 3.30486 4.90442 0
M  V30 5410 H 527.095 0.281747 0.699382 0
M  V30 5411 H 529.746 1.2734 1.32124 0
M  V30 5412 H 528.128 0.732171 3.89173 0
M  V30 5413 H 529.302 3.46178 3.04133 0
M  V30 5414 H 527.617 3.02156 2.86515 0
M  V30 5415 H 530.214 1.43632 5.15048 0
M  V30 5416 H 530.557 0.0373072 4.16283 0
M  V30 5417 H 531.09 1.64732 3.62089 0
M  V30 5418 H 527.829 4.36137 4.89352 0
M  V30 5419 H 527.349 2.71086 5.35044 0
M  V30 5420 H 529.028 3.25382 5.59227 0
M  V30 5421 N 529.16 -1.33526 0.837174 0
M  V30 5422 C 530.406 -1.9813 0.432704 0
M  V30 5423 C 530.739 -1.66168 -1.00508 0
M  V30 5424 O 530.014 -0.94069 -1.70239 0
M  V30 5425 C 530.297 -3.54151 0.651834 0
M  V30 5426 C 530.15 -3.95806 2.13676 0
M  V30 5427 C 531.469 -4.39993 0.0968937 0
M  V30 5428 H 528.588 -0.719713 0.15869 0
M  V30 5429 H 531.23 -1.58193 1.05237 0
M  V30 5430 H 529.38 -3.88301 0.124369 0
M  V30 5431 H 531.052 -3.71921 2.72896 0
M  V30 5432 H 529.295 -3.45599 2.62191 0
M  V30 5433 H 529.966 -5.0447 2.24084 0
M  V30 5434 H 532.442 -4.12479 0.547733 0
M  V30 5435 H 531.318 -5.48186 0.279917 0
M  V30 5436 H 531.579 -4.3066 -0.9992 0
M  V30 5437 N 530.638 -0.59345 -1.46 0
M  V30 5438 C 531.915 -0.0157933 -1.95594 0
M  V30 5439 C 532.295 1.44807 -1.53604 0
M  V30 5440 O 531.643 2.14342 -0.791824 0
M  V30 5441 C 531.853 -0.199081 -3.48432 0
M  V30 5442 C 533.201 -0.0724943 -4.24538 0
M  V30 5443 O 534.225 -0.128469 -3.55968 0
M  V30 5444 O 533.084 0.0542426 -5.46473 0
M  V30 5445 H 530.178 0.043749 -0.825842 0
M  V30 5446 H 532.724 -0.662522 -1.56233 0
M  V30 5447 H 531.496 -1.21631 -3.71916 0
M  V30 5448 H 531.119 0.483576 -3.94648 0
M  V30 5449 N 532.116 1.54067 -0.331816 0
M  V30 5450 C 533.026 2.28322 0.539104 0
M  V30 5451 C 534.042 1.32985 1.1221 0
M  V30 5452 O 535.218 1.6601 1.1403 0
M  V30 5453 C 532.283 3.03277 1.68 0
M  V30 5454 C 531.344 4.14216 1.12798 0
M  V30 5455 C 530.577 4.85588 2.2145 0
M  V30 5456 O 530.8 4.56536 3.41952 0
M  V30 5457 O 529.734 5.72309 1.86404 0
M  V30 5458 H 533.56 3.03632 -0.0641692 0
M  V30 5459 H 531.145 1.49083 -0.0972365 0
M  V30 5460 H 533.027 3.50189 2.34405 0
M  V30 5461 H 531.702 2.30834 2.2693 0
M  V30 5462 H 530.609 3.71635 0.428782 0
M  V30 5463 H 531.942 4.88727 0.583698 0
M  V30 5464 N 533.594 0.0601682 1.57485 0
M  V30 5465 C 534.841 -0.611594 1.93043 0
M  V30 5466 C 535.169 -1.70317 0.939274 0
M  V30 5467 O 534.424 -1.95644 -0.046996 0
M  V30 5468 C 534.723 -1.23831 3.35262 0
M  V30 5469 C 534.389 -0.274037 4.50066 0
M  V30 5470 C 533.051 -0.00872394 4.81199 0
M  V30 5471 C 535.403 0.386308 5.19766 0
M  V30 5472 C 532.731 0.924218 5.79375 0
M  V30 5473 C 535.083 1.3075 6.1894 0
M  V30 5474 C 533.747 1.58139 6.48497 0
M  V30 5475 H 533.017 -0.223798 0.706396 0
M  V30 5476 H 535.664 0.128566 1.91068 0
M  V30 5477 H 533.969 -2.05394 3.33647 0
M  V30 5478 H 535.666 -1.76517 3.60059 0
M  V30 5479 H 532.256 -0.491008 4.25778 0
M  V30 5480 H 536.44 0.194436 4.95919 0
M  V30 5481 H 531.696 1.1438 6.00606 0
M  V30 5482 H 535.87 1.82519 6.72056 0
M  V30 5483 H 533.497 2.30593 7.24383 0
M  V30 5484 N 535.072 -1.5615 -0.213296 0
M  V30 5485 C 536.004 -1.89586 -1.28802 0
M  V30 5486 C 537.017 -0.784844 -1.42633 0
M  V30 5487 O 538.206 -1.06319 -1.43383 0
M  V30 5488 C 535.306 -2.09665 -2.66259 0
M  V30 5489 C 534.479 -3.40726 -2.7427 0
M  V30 5490 C 533.538 -3.50137 -3.92798 0
M  V30 5491 O 532.564 -4.23105 -3.8075 0
M  V30 5492 N 533.766 -2.81886 -5.07465 0
M  V30 5493 H 536.531 -2.82368 -1.00442 0
M  V30 5494 H 534.092 -1.56796 -0.403302 0
M  V30 5495 H 536.084 -2.13268 -3.43946 0
M  V30 5496 H 534.654 -1.23469 -2.87183 0
M  V30 5497 H 533.874 -3.4915 -1.82997 0
M  V30 5498 H 535.162 -4.27048 -2.76599 0
M  V30 5499 H 534.56 -2.22397 -5.2015 0
M  V30 5500 H 533.117 -2.91139 -5.83165 0
M  V30 5501 N 536.55 0.480323 -1.50102 0
M  V30 5502 C 537.498 1.60024 -1.68805 0
M  V30 5503 C 538.492 1.60089 -0.553888 0
M  V30 5504 O 539.698 1.64349 -0.734127 0
M  V30 5505 H 536.073 0.530841 -0.532646 0
M  V30 5506 H 538.044 1.41408 -2.62767 0
M  V30 5507 C 536.793 2.98029 -1.79092 0
M  V30 5508 H 536.116 2.98694 -2.65748 0
M  V30 5509 H 537.556 3.75871 -1.96206 0
M  V30 5510 C 536.015 3.32538 -0.540388 0
M  V30 5511 O 536.545 4.00386 0.324637 0
M  V30 5512 N 534.751 2.87873 -0.397154 0
M  V30 5513 H 534.298 2.32834 -1.1021 0
M  V30 5514 H 534.256 3.11328 0.438425 0
M  V30 5515 N 538.028 1.39524 0.732853 0
M  V30 5516 C 539.256 1.40143 1.52209 0
M  V30 5517 C 539.671 -0.00348836 1.888 0
M  V30 5518 O 539.028 -0.975357 1.5425 0
M  V30 5519 C 539.079 2.27632 2.8083 0
M  V30 5520 O 538.8 3.62654 2.45792 0
M  V30 5521 C 540.301 2.36658 3.74844 0
M  V30 5522 H 537.521 0.478604 0.470297 0
M  V30 5523 H 540.065 1.83366 0.905388 0
M  V30 5524 H 538.22 1.87818 3.38826 0
M  V30 5525 H 538.634 4.08941 3.28431 0
M  V30 5526 H 540.108 3.02118 4.61984 0
M  V30 5527 H 540.585 1.38638 4.16745 0
M  V30 5528 H 541.191 2.76951 3.22766 0
M  V30 5529 N 539.506 -0.963266 1.24736 0
M  V30 5530 C 540.454 -2.07985 1.04139 0
M  V30 5531 C 541.448 -1.69381 -0.0250556 0
M  V30 5532 O 542.654 -1.79531 0.129863 0
M  V30 5533 H 539.029 -0.680627 0.319768 0
M  V30 5534 H 541 -2.22517 1.98818 0
M  V30 5535 C 539.749 -3.4123 0.667615 0
M  V30 5536 H 539.072 -3.71397 1.48 0
M  V30 5537 H 540.512 -4.20244 0.563136 0
M  V30 5538 C 538.971 -3.3104 -0.625647 0
M  V30 5539 O 539.501 -3.65334 -1.67016 0
M  V30 5540 N 537.707 -2.84168 -0.608033 0
M  V30 5541 H 537.254 -2.56458 0.242323 0
M  V30 5542 H 537.212 -2.77732 -1.47352 0
M  V30 5543 N 540.985 -1.06182 -1.16461 0
M  V30 5544 C 542.231 -0.779015 -1.87241 0
M  V30 5545 C 542.564 0.692715 -1.81425 0
M  V30 5546 O 541.839 1.5074 -1.22913 0
M  V30 5547 C 542.122 -1.2728 -3.36856 0
M  V30 5548 C 541.975 -2.80821 -3.51368 0
M  V30 5549 C 543.294 -0.879799 -4.31216 0
M  V30 5550 H 540.413 -0.284464 -0.679889 0
M  V30 5551 H 543.055 -1.31755 -1.36896 0
M  V30 5552 H 541.205 -0.814673 -3.79862 0
M  V30 5553 H 542.877 -3.34833 -3.17308 0
M  V30 5554 H 541.12 -3.19606 -2.93316 0
M  V30 5555 H 541.791 -3.10435 -4.56436 0
M  V30 5556 H 544.267 -1.27436 -3.96105 0
M  V30 5557 H 543.143 -1.25278 -5.34412 0
M  V30 5558 H 543.404 0.215372 -4.41575 0
M  V30 5559 N 542.463 1.3308 -0.844243 0
M  V30 5560 C 543.41 2.29104 -0.279323 0
M  V30 5561 C 544.38 1.54577 0.607882 0
M  V30 5562 O 545.565 1.8285 0.545009 0
M  V30 5563 C 542.705 3.40927 0.53508 0
M  V30 5564 C 541.818 4.30354 -0.376749 0
M  V30 5565 C 540.953 5.29297 0.449276 0
M  V30 5566 C 539.992 6.10365 -0.460606 0
M  V30 5567 N 539.129 7.01335 0.327612 0
M  V30 5568 H 543.969 2.76817 -1.10346 0
M  V30 5569 H 541.506 1.36203 -0.555611 0
M  V30 5570 H 543.464 4.04469 1.02278 0
M  V30 5571 H 542.094 2.94391 1.32414 0
M  V30 5572 H 541.146 3.67485 -0.982791 0
M  V30 5573 H 542.458 4.87067 -1.07549 0
M  V30 5574 H 541.612 5.98392 1.00058 0
M  V30 5575 H 540.351 4.73174 1.18143 0
M  V30 5576 H 539.356 5.40182 -1.02388 0
M  V30 5577 H 540.581 6.68571 -1.1912 0
M  V30 5578 H 538.527 6.47655 1.04305 0
M  V30 5579 H 538.444 7.55355 -0.3123 0
M  V30 5580 H 539.712 7.74731 0.86098 0
M  V30 5581 N 543.941 0.601185 1.45683 0
M  V30 5582 C 545.189 0.0936957 2.01883 0
M  V30 5583 C 545.51 -1.2779 1.47291 0
M  V30 5584 O 544.78 -1.84279 0.664691 0
M  V30 5585 H 543.36 0.0316466 0.746329 0
M  V30 5586 H 546.022 0.781137 1.78562 0
M  V30 5587 H 545.118 0.0386297 3.12076 0
M  V30 5588 N 545.419 -1.53889 0.339982 0
M  V30 5589 C 546.668 -2.00035 -0.258604 0
M  V30 5590 C 546.981 -1.23179 -1.51942 0
M  V30 5591 O 548.187 -1.59784 -2.19503 0
M  V30 5592 C 546.643 -3.56249 -0.511359 0
M  V30 5593 C 546.251 -4.41957 0.733349 0
M  V30 5594 C 547.995 -4.1082 -1.069 0
M  V30 5595 C 545.902 -5.89673 0.451591 0
M  V30 5596 H 544.832 -0.747284 -0.10041 0
M  V30 5597 H 547.483 -1.77776 0.454758 0
M  V30 5598 H 545.865 -3.7456 -1.28533 0
M  V30 5599 H 547.039 -4.35421 1.50815 0
M  V30 5600 H 545.354 -3.9836 1.21237 0
M  V30 5601 H 547.951 -5.18789 -1.2947 0
M  V30 5602 H 548.294 -3.63817 -2.02343 0
M  V30 5603 H 548.827 -3.96205 -0.355817 0
M  V30 5604 H 545.566 -6.40903 1.37565 0
M  V30 5605 H 545.086 -5.99122 -0.285193 0
M  V30 5606 H 546.765 -6.46965 0.0675067 0
M  V30 5607 N 546.897 -0.0685191 -1.57451 0
M  V30 5608 C 548.127 0.609577 -1.97402 0
M  V30 5609 C 548.535 1.63882 -0.945489 0
M  V30 5610 O 547.878 1.8354 0.0766052 0
M  V30 5611 C 547.94 1.3385 -3.33653 0
M  V30 5612 C 547.604 0.463103 -4.54648 0
M  V30 5613 C 548.601 -0.277964 -5.19156 0
M  V30 5614 C 546.286 0.388941 -5.00792 0
M  V30 5615 C 548.28 -1.08145 -6.28159 0
M  V30 5616 C 545.967 -0.418217 -6.09667 0
M  V30 5617 C 546.965 -1.15208 -6.73213 0
M  V30 5618 O 546.653 -1.94594 -7.79993 0
M  V30 5619 H 546.385 0.170197 -0.654224 0
M  V30 5620 H 548.939 -0.13647 -2.04946 0
M  V30 5621 H 547.169 2.13055 -3.22714 0
M  V30 5622 H 548.858 1.90851 -3.58233 0
M  V30 5623 H 549.624 -0.230241 -4.84453 0
M  V30 5624 H 545.503 0.949769 -4.5111 0
M  V30 5625 H 549.047 -1.65476 -6.7769 0
M  V30 5626 H 544.944 -0.467515 -6.43805 0
M  V30 5627 H 545.712 -1.8699 -7.96854 0
M  V30 5628 N 548.375 1.56261 0.205012 0
M  V30 5629 C 549.338 1.92908 1.23771 0
M  V30 5630 C 550.338 0.809208 1.38955 0
M  V30 5631 O 551.528 1.07676 1.36936 0
M  V30 5632 C 548.66 2.19442 2.60879 0
M  V30 5633 H 549.853 2.85287 0.924728 0
M  V30 5634 H 547.406 1.49798 0.446125 0
M  V30 5635 H 548.141 1.29668 2.97248 0
M  V30 5636 H 547.926 3.0104 2.51232 0
M  V30 5637 H 549.416 2.48833 3.35368 0
M  V30 5638 N 549.853 -0.472356 1.50355 0
M  V30 5639 C 551.099 -1.22634 1.6152 0
M  V30 5640 C 551.432 -1.91645 0.313995 0
M  V30 5641 O 550.707 -1.82059 -0.684446 0
M  V30 5642 C 550.99 -2.27099 2.7946 0
M  V30 5643 C 550.843 -1.62402 4.19459 0
M  V30 5644 C 552.162 -3.28421 2.92964 0
M  V30 5645 H 549.281 -0.444494 0.587873 0
M  V30 5646 H 551.923 -0.520321 1.82737 0
M  V30 5647 H 550.073 -2.87314 2.61501 0
M  V30 5648 H 551.745 -1.05793 4.49005 0
M  V30 5649 H 549.988 -0.927184 4.23776 0
M  V30 5650 H 550.659 -2.38309 4.97909 0
M  V30 5651 H 553.135 -2.78227 3.09401 0
M  V30 5652 H 552.011 -3.98845 3.77113 0
M  V30 5653 H 552.272 -3.92467 2.03525 0
M  V30 5654 N 551.331 -1.39911 -0.725443 0
M  V30 5655 C 552.579 -1.37382 -1.48224 0
M  V30 5656 C 552.9 0.0264107 -1.94982 0
M  V30 5657 O 552.17 0.979408 -1.6966 0
M  V30 5658 H 550.75 -0.505596 -0.549892 0
M  V30 5659 H 553.412 -1.7487 -0.860608 0
M  V30 5660 H 552.508 -2.04254 -2.3598 0
M  V30 5661 N 552.809 0.956637 -1.25245 0
M  V30 5662 C 554.086 1.67716 -1.00651 0
M  V30 5663 C 554.466 2.0585 0.467866 0
M  V30 5664 O 553.814 1.77029 1.44475 0
M  V30 5665 C 554.024 2.90093 -1.94028 0
M  V30 5666 C 555.372 3.6209 -2.21756 0
M  V30 5667 O 556.396 3.00171 -1.9177 0
M  V30 5668 O 555.255 4.7358 -2.72735 0
M  V30 5669 H 552.349 0.733731 -0.381533 0
M  V30 5670 H 554.895 1.00974 -1.3639 0
M  V30 5671 H 553.667 2.58689 -2.93591 0
M  V30 5672 H 553.29 3.64566 -1.58674 0
M  V30 5673 N 554.287 1.06798 1.15896 0
M  V30 5674 C 555.533 0.788934 1.86825 0
M  V30 5675 C 555.866 -0.683084 1.8179 0
M  V30 5676 O 555.141 -1.50086 1.23711 0
M  V30 5677 C 555.424 1.29065 3.36176 0
M  V30 5678 C 555.277 2.8268 3.49874 0
M  V30 5679 C 556.596 0.902655 4.30744 0
M  V30 5680 H 553.715 0.288066 0.678371 0
M  V30 5681 H 556.357 1.32479 1.36195 0
M  V30 5682 H 554.507 0.834806 3.79425 0
M  V30 5683 H 556.179 3.36511 3.15528 0
M  V30 5684 H 554.422 3.21157 2.91617 0
M  V30 5685 H 555.093 3.12852 4.54783 0
M  V30 5686 H 557.569 1.29535 3.95424 0
M  V30 5687 H 556.445 1.28111 5.3374 0
M  V30 5688 H 556.706 -0.191951 4.41683 0
M  V30 5689 N 555.766 -1.3263 0.851289 0
M  V30 5690 C 557.006 -1.99174 0.459266 0
M  V30 5691 C 557.37 -1.65913 -0.966273 0
M  V30 5692 O 558.571 -2.2552 -1.46267 0
M  V30 5693 C 556.842 -3.50721 0.687698 0
M  V30 5694 S 558.401 -4.37039 0.392746 0
M  V30 5695 H 555.219 -0.689832 0.172199 0
M  V30 5696 H 557.821 -1.61395 1.10327 0
M  V30 5697 H 556.525 -3.72417 1.72435 0
M  V30 5698 H 556.056 -3.93389 0.0299949 0
M  V30 5699 H 558.071 -4.8999 -0.782578 0
M  V30 5700 N 557.244 -0.608902 -1.45362 0
M  V30 5701 C 558.492 -0.104401 -2.0183 0
M  V30 5702 C 558.813 1.27007 -1.47967 0
M  V30 5703 O 558.083 1.83924 -0.674455 0
M  V30 5704 H 556.663 -0.0356042 -0.746151 0
M  V30 5705 H 559.325 -0.790596 -1.78145 0
M  V30 5706 H 558.421 -0.0551793 -3.12051 0
M  V30 5707 N 558.722 1.53707 -0.348139 0
M  V30 5708 C 559.669 2.25173 0.506518 0
M  V30 5709 C 560.639 1.25174 1.09182 0
M  V30 5710 O 561.824 1.53917 1.12757 0
M  V30 5711 C 558.964 3.03141 1.64923 0
M  V30 5712 C 558.077 4.18002 1.0908 0
M  V30 5713 C 557.212 4.83447 2.20119 0
M  V30 5714 C 556.251 5.90369 1.61651 0
M  V30 5715 N 555.388 6.49575 2.66451 0
M  V30 5716 H 560.228 2.97799 -0.109452 0
M  V30 5717 H 557.765 1.46953 -0.0657866 0
M  V30 5718 H 559.723 3.46607 2.32205 0
M  V30 5719 H 558.353 2.32803 2.23612 0
M  V30 5720 H 557.405 3.79145 0.308783 0
M  V30 5721 H 558.717 4.94892 0.623178 0
M  V30 5722 H 557.871 5.30008 2.95257 0
M  V30 5723 H 556.61 4.05991 2.70227 0
M  V30 5724 H 555.615 5.43186 0.850209 0
M  V30 5725 H 556.84 6.69735 1.1239 0
M  V30 5726 H 554.786 5.74981 3.15805 0
M  V30 5727 H 554.703 7.21952 2.24325 0
M  V30 5728 H 555.971 7.00789 3.41344 0
M  V30 5729 N 560.2 0.0768682 1.57412 0
M  V30 5730 C 561.163 -0.873949 2.11884 0
M  V30 5731 C 562.163 -1.22301 1.04398 0
M  V30 5732 O 563.353 -1.15545 1.30365 0
M  V30 5733 C 560.485 -2.17575 2.62438 0
M  V30 5734 H 561.678 -0.401278 2.97203 0
M  V30 5735 H 559.231 -0.171904 1.55352 0
M  V30 5736 H 559.966 -2.69368 1.80587 0
M  V30 5737 H 559.751 -1.93534 3.41009 0
M  V30 5738 H 561.241 -2.85631 3.04639 0
M  V30 5739 N 561.678 -1.56367 -0.196722 0
M  V30 5740 C 562.608 -1.97442 -1.24655 0
M  V30 5741 C 563.589 -0.846147 -1.47561 0
M  V30 5742 O 564.774 -1.11035 -1.59326 0
M  V30 5743 C 561.904 -2.31253 -2.59112 0
M  V30 5744 C 560.858 -3.46804 -2.50821 0
M  V30 5745 C 560.184 -3.66286 -3.89536 0
M  V30 5746 C 561.484 -4.8104 -2.03465 0
M  V30 5747 H 563.178 -2.85388 -0.905216 0
M  V30 5748 H 560.724 -1.37304 -0.434002 0
M  V30 5749 H 562.677 -2.58583 -3.32736 0
M  V30 5750 H 561.401 -1.40188 -2.94983 0
M  V30 5751 H 560.06 -3.19563 -1.79653 0
M  V30 5752 H 559.708 -2.72555 -4.22756 0
M  V30 5753 H 559.408 -4.4402 -3.84864 0
M  V30 5754 H 560.932 -3.9599 -4.64784 0
M  V30 5755 H 562.346 -5.07411 -2.66846 0
M  V30 5756 H 560.743 -5.62232 -2.09798 0
M  V30 5757 H 561.813 -4.74732 -0.98781 0
M  V30 5758 N 563.156 0.464375 -1.50603 0
M  V30 5759 C 564.086 1.56944 -1.72889 0
M  V30 5760 C 565.067 1.59979 -0.577997 0
M  V30 5761 O 566.252 1.76138 -0.817855 0
M  V30 5762 C 563.382 2.95225 -1.8292 0
M  V30 5763 C 562.336 3.07056 -2.98162 0
M  V30 5764 C 561.662 4.47051 -2.93343 0
M  V30 5765 C 562.962 2.83648 -4.38567 0
M  V30 5766 H 564.656 1.38547 -2.65415 0
M  V30 5767 H 562.202 0.665082 -1.27721 0
M  V30 5768 H 564.155 3.72467 -1.97095 0
M  V30 5769 H 562.879 3.14793 -0.870209 0
M  V30 5770 H 561.538 2.32248 -2.83648 0
M  V30 5771 H 561.186 4.63547 -1.95276 0
M  V30 5772 H 560.886 4.55902 -3.70712 0
M  V30 5773 H 562.41 5.26304 -3.09575 0
M  V30 5774 H 563.824 3.50636 -4.53572 0
M  V30 5775 H 562.221 3.03937 -5.17438 0
M  V30 5776 H 563.291 1.79451 -4.50472 0
M  V30 5777 N 564.634 1.40294 0.718013 0
M  V30 5778 C 565.862 1.4175 1.50714 0
M  V30 5779 C 566.277 0.0165366 1.88793 0
M  V30 5780 O 565.634 -0.958942 1.55276 0
M  V30 5781 C 565.685 2.30598 2.784 0
M  V30 5782 O 565.406 3.6524 2.41932 0
M  V30 5783 C 566.907 2.4062 3.72313 0
M  V30 5784 H 564.127 0.483565 0.465194 0
M  V30 5785 H 566.671 1.84316 0.885889 0
M  V30 5786 H 564.826 1.91401 3.36815 0
M  V30 5787 H 565.24 4.12402 3.24076 0
M  V30 5788 H 566.714 3.07001 4.58753 0
M  V30 5789 H 567.191 1.4305 4.15251 0
M  V30 5790 H 567.797 2.80359 3.19811 0
M  V30 5791 N 566.112 -0.949982 1.2575 0
M  V30 5792 C 567.523 -1.50989 1.09815 0
M  V30 5793 C 567.874 -1.93497 -0.324556 0
M  V30 5794 O 566.999 -1.79068 -1.21506 0
M  V30 5795 C 567.594 -2.74394 1.98729 0
M  V30 5796 C 566.153 -3.26682 1.86965 0
M  V30 5797 C 565.3 -1.99498 1.92603 0
M  V30 5798 H 568.251 -0.766387 1.38968 0
M  V30 5799 H 568.272 -3.48383 1.53001 0
M  V30 5800 H 567.784 -2.43425 3.02268 0
M  V30 5801 H 565.885 -3.62461 0.863279 0
M  V30 5802 H 565.998 -3.94383 2.72027 0
M  V30 5803 H 564.362 -2.15005 1.36546 0
M  V30 5804 H 565.145 -1.70871 2.97755 0
M  V30 5805 N 567.59 -1.07411 -1.15328 0
M  V30 5806 C 568.836 -0.798831 -1.86404 0
M  V30 5807 C 569.169 0.673433 -1.8215 0
M  V30 5808 O 568.444 1.49428 -1.24505 0
M  V30 5809 C 568.727 -1.30846 -3.35487 0
M  V30 5810 C 568.58 -2.84532 -3.4837 0
M  V30 5811 C 569.899 -0.925486 -4.30259 0
M  V30 5812 H 567.018 -0.291659 -0.676834 0
M  V30 5813 H 569.66 -1.332 -1.35491 0
M  V30 5814 H 567.81 -0.854916 -3.78977 0
M  V30 5815 H 569.482 -3.3818 -3.13739 0
M  V30 5816 H 567.725 -3.22699 -2.8991 0
M  V30 5817 H 568.396 -3.15259 -4.53118 0
M  V30 5818 H 570.872 -1.3163 -3.94731 0
M  V30 5819 H 569.748 -1.3094 -5.33053 0
M  V30 5820 H 570.009 0.168525 -4.41779 0
M  V30 5821 N 569.068 1.32177 -0.85831 0
M  V30 5822 C 570.031 2.27086 -0.310588 0
M  V30 5823 C 571.031 1.51751 0.531806 0
M  V30 5824 O 572.221 1.70794 0.34279 0
M  V30 5825 C 569.353 3.36266 0.560179 0
M  V30 5826 H 570.546 2.77045 -1.1483 0
M  V30 5827 H 568.099 1.42911 -0.632942 0
M  V30 5828 H 568.834 2.9158 1.41956 0
M  V30 5829 H 568.619 3.92077 -0.0428473 0
M  V30 5830 H 570.109 4.06974 0.936056 0
M  V30 5831 N 570.547 0.616602 1.45037 0
M  V30 5832 C 571.796 0.112861 2.01384 0
M  V30 5833 C 572.109 -1.26758 1.48969 0
M  V30 5834 O 573.315 -1.86454 1.9735 0
M  V30 5835 C 571.771 0.151057 3.59583 0
M  V30 5836 C 571.379 1.53191 4.20995 0
M  V30 5837 C 573.123 -0.296974 4.2346 0
M  V30 5838 C 571.03 1.526 5.71373 0
M  V30 5839 H 569.96 0.0384254 0.75302 0
M  V30 5840 H 572.611 0.773262 1.66412 0
M  V30 5841 H 570.993 -0.57617 3.91786 0
M  V30 5842 H 572.167 2.28156 4.00352 0
M  V30 5843 H 570.482 1.92279 3.69348 0
M  V30 5844 H 573.079 -0.320712 5.33737 0
M  V30 5845 H 573.422 -1.32145 3.9477 0
M  V30 5846 H 573.955 0.377279 3.96007 0
M  V30 5847 H 570.694 2.52837 6.04776 0
M  V30 5848 H 570.214 0.819064 5.94181 0
M  V30 5849 H 571.893 1.25357 6.3474 0
M  V30 5850 N 572.025 -1.5352 0.356285 0
M  V30 5851 C 572.988 -2.24071 -0.482182 0
M  V30 5852 C 573.988 -1.24531 -1.01729 0
M  V30 5853 O 575.178 -1.48876 -0.904513 0
M  V30 5854 C 572.31 -2.97025 -1.67299 0
M  V30 5855 H 573.503 -2.99596 0.135031 0
M  V30 5856 H 571.056 -1.55928 0.107825 0
M  V30 5857 H 571.791 -2.25719 -2.32855 0
M  V30 5858 H 571.576 -3.7005 -1.29636 0
M  V30 5859 H 573.066 -3.50683 -2.26741 0
M  V30 5860 N 573.503 -0.0852151 -1.57369 0
M  V30 5861 C 574.466 0.8627 -2.12344 0
M  V30 5862 C 575.466 1.21746 -1.05046 0
M  V30 5863 O 576.656 1.14852 -1.30976 0
M  V30 5864 C 573.788 2.1618 -2.63589 0
M  V30 5865 H 574.981 0.385511 -2.97412 0
M  V30 5866 H 572.534 0.163663 -1.55441 0
M  V30 5867 H 573.269 2.68406 -1.82013 0
M  V30 5868 H 573.054 1.91723 -3.4203 0
M  V30 5869 H 574.544 2.84011 -3.06149 0
M  V30 5870 N 574.981 1.5647 0.188427 0
M  V30 5871 C 576.229 1.80655 0.905986 0
M  V30 5872 C 576.55 0.659391 1.83513 0
M  V30 5873 O 575.82 -0.321868 1.93238 0
M  V30 5874 H 574.4 0.666391 0.337538 0
M  V30 5875 H 577.062 1.93949 0.192339 0
M  V30 5876 H 576.158 2.74066 1.49313 0
M  V30 5877 N 576.459 -0.456382 1.50847 0
M  V30 5878 C 577.875 -0.791345 1.386 0
M  V30 5879 C 578.075 -1.9633 0.453498 0
M  V30 5880 O 577.131 -2.52308 -0.0984353 0
M  V30 5881 C 578.444 -1.08959 2.80265 0
M  V30 5882 C 579.992 -1.19517 2.89283 0
M  V30 5883 C 580.467 -1.52647 4.31814 0
M  V30 5884 N 581.958 -1.59609 4.34832 0
M  V30 5885 C 582.693 -1.86777 5.42127 0
M  V30 5886 N 582.189 -2.11866 6.59609 0
M  V30 5887 N 583.982 -1.88402 5.29586 0
M  V30 5888 H 576.133 0.315746 2.1004 0
M  V30 5889 H 578.396 0.0787916 0.94472 0
M  V30 5890 H 578.102 -0.301355 3.50407 0
M  V30 5891 H 577.976 -2.02211 3.18419 0
M  V30 5892 H 580.363 -1.97406 2.19351 0
M  V30 5893 H 580.444 -0.242111 2.54652 0
M  V30 5894 H 580.088 -0.752922 5.02288 0
M  V30 5895 H 580.018 -2.49127 4.63943 0
M  V30 5896 H 582.509 -1.42201 3.50125 0
M  V30 5897 H 582.822 -2.31912 7.37182 0
M  V30 5898 H 581.167 -2.09228 6.62758 0
M  V30 5899 H 584.358 -1.68307 4.36795 0
M  V30 5900 H 584.531 -2.09238 6.13289 0
M  V30 5901 N 577.937 -1.40673 -0.710563 0
M  V30 5902 C 578.884 -1.41336 -1.82463 0
M  V30 5903 C 579.854 -0.269648 -1.63897 0
M  V30 5904 O 581.039 -0.468463 -1.8496 0
M  V30 5905 C 578.179 -1.28665 -3.20218 0
M  V30 5906 C 577.292 -2.52784 -3.5032 0
M  V30 5907 C 576.427 -2.32517 -4.77608 0
M  V30 5908 C 575.466 -3.52187 -5.0063 0
M  V30 5909 N 574.603 -3.31084 -6.19135 0
M  V30 5910 H 579.443 -2.36558 -1.8123 0
M  V30 5911 H 576.98 -1.17483 -0.885226 0
M  V30 5912 H 578.938 -1.19324 -3.99772 0
M  V30 5913 H 577.568 -0.370602 -3.20666 0
M  V30 5914 H 576.62 -2.72634 -2.65283 0
M  V30 5915 H 577.932 -3.41845 -3.63241 0
M  V30 5916 H 577.086 -2.20558 -5.65189 0
M  V30 5917 H 575.825 -1.40889 -4.66906 0
M  V30 5918 H 574.83 -3.64617 -4.11502 0
M  V30 5919 H 576.055 -4.44749 -5.13201 0
M  V30 5920 H 574.001 -2.42143 -6.09674 0
M  V30 5921 H 573.918 -4.13713 -6.32754 0
M  V30 5922 H 575.186 -3.22868 -7.0949 0
M  V30 5923 N 579.415 0.9433 -1.26252 0
M  V30 5924 C 580.345 2.05902 -1.10122 0
M  V30 5925 C 581.326 1.70099 -0.00700552 0
M  V30 5926 O 582.511 1.93377 -0.178641 0
M  V30 5927 C 579.641 3.39516 -0.731175 0
M  V30 5928 C 578.595 3.89372 -1.77688 0
M  V30 5929 C 577.921 5.19613 -1.26122 0
M  V30 5930 C 579.221 4.14489 -3.17799 0
M  V30 5931 H 580.915 2.19655 -2.03451 0
M  V30 5932 H 578.461 1.05548 -0.979576 0
M  V30 5933 H 580.414 4.17031 -0.605215 0
M  V30 5934 H 579.138 3.25733 0.23782 0
M  V30 5935 H 577.797 3.14036 -1.89148 0
M  V30 5936 H 577.445 5.02208 -0.282128 0
M  V30 5937 H 577.145 5.53939 -1.96023 0
M  V30 5938 H 578.669 5.99713 -1.14789 0
M  V30 5939 H 580.083 4.82625 -3.09428 0
M  V30 5940 H 578.48 4.60094 -3.85271 0
M  V30 5941 H 579.55 3.20347 -3.64014 0
M  V30 5942 N 580.893 1.08022 1.14757 0
M  V30 5943 C 581.856 0.71048 2.1791 0
M  V30 5944 C 582.856 -0.252731 1.58801 0
M  V30 5945 O 584.046 -0.0327915 1.74169 0
M  V30 5946 C 581.178 0.0483203 3.40866 0
M  V30 5947 H 582.371 1.62384 2.52134 0
M  V30 5948 H 579.924 0.877595 1.29337 0
M  V30 5949 H 580.659 -0.876959 3.12218 0
M  V30 5950 H 580.444 0.741189 3.85031 0
M  V30 5951 H 581.934 -0.195471 4.17142 0
M  V30 5952 N 582.371 -1.3172 0.865308 0
M  V30 5953 C 583.321 -2.26157 0.289305 0
M  V30 5954 C 584.305 -1.50428 -0.570977 0
M  V30 5955 O 585.497 -1.71978 -0.418617 0
M  V30 5956 C 582.626 -3.39457 -0.512237 0
M  V30 5957 C 581.712 -4.22561 0.361028 0
M  V30 5958 N 582.103 -4.84501 1.45231 0
M  V30 5959 C 580.401 -4.45739 0.152641 0
M  V30 5960 C 581.102 -5.46586 1.99043 0
M  V30 5961 N 580.078 -5.28119 1.28809 0
M  V30 5962 H 583.88 -2.71581 1.12344 0
M  V30 5963 H 581.394 -1.45932 0.712565 0
M  V30 5964 H 583.391 -4.06133 -0.941379 0
M  V30 5965 H 582.051 -2.95577 -1.34404 0
M  V30 5966 H 583.062 -4.84293 1.83524 0
M  V30 5967 H 579.739 -4.1251 -0.643583 0
M  V30 5968 H 581.129 -6.05817 2.90577 0
M  V30 5969 N 583.85 -0.624285 -1.44708 0
M  V30 5970 C 585.266 -0.289322 -1.56956 0
M  V30 5971 C 585.466 1.20773 -1.61295 0
M  V30 5972 O 584.522 1.9915 -1.55227 0
M  V30 5973 C 585.835 -0.975215 -2.84447 0
M  V30 5974 C 587.383 -0.952709 -2.98148 0
M  V30 5975 C 587.858 -1.61893 -4.28433 0
M  V30 5976 N 589.349 -1.5852 -4.35231 0
M  V30 5977 C 590.084 -2.06969 -5.34744 0
M  V30 5978 N 589.58 -2.63579 -6.40701 0
M  V30 5979 N 591.373 -1.97638 -5.26209 0
M  V30 5980 H 583.524 -1.59612 -1.40135 0
M  V30 5981 H 585.787 -0.669592 -0.671081 0
M  V30 5982 H 585.493 -2.02999 -2.87201 0
M  V30 5983 H 585.367 -0.508749 -3.73753 0
M  V30 5984 H 587.754 0.093568 -2.94952 0
M  V30 5985 H 587.835 -1.4576 -2.10209 0
M  V30 5986 H 587.479 -2.66463 -4.32389 0
M  V30 5987 H 587.409 -1.08893 -5.15218 0
M  V30 5988 H 589.899 -1.17183 -3.59272 0
M  V30 5989 H 590.213 -2.98298 -7.12908 0
M  V30 5990 H 588.558 -2.67626 -6.41406 0
M  V30 5991 H 591.749 -1.5314 -4.42341 0
M  V30 5992 H 591.922 -2.35708 -6.03611 0
M  V30 5993 N 585.328 1.53329 -0.364422 0
M  V30 5994 C 586.258 2.28627 0.474543 0
M  V30 5995 C 587.239 1.31009 1.08492 0
M  V30 5996 O 588.424 1.59878 1.10239 0
M  V30 5997 C 585.554 3.07465 1.61501 0
M  V30 5998 C 584.508 4.1276 1.13194 0
M  V30 5999 C 583.834 4.79674 2.36255 0
M  V30 6000 C 585.134 5.21847 0.217507 0
M  V30 6001 H 586.828 2.99005 -0.153656 0
M  V30 6002 H 584.374 1.43803 -0.0753406 0
M  V30 6003 H 586.327 3.58889 2.20855 0
M  V30 6004 H 585.051 2.34775 2.27042 0
M  V30 6005 H 583.71 3.62281 0.56109 0
M  V30 6006 H 583.358 4.03557 3.00251 0
M  V30 6007 H 583.058 5.50827 2.04606 0
M  V30 6008 H 584.582 5.33892 2.96297 0
M  V30 6009 H 585.996 5.6878 0.718493 0
M  V30 6010 H 584.393 6.00099 -0.00806408 0
M  V30 6011 H 585.463 4.7921 -0.740653 0
M  V30 6012 N 586.806 0.0935595 1.57322 0
M  V30 6013 C 588.053 -0.570509 1.94297 0
M  V30 6014 C 588.381 -1.68286 0.97519 0
M  V30 6015 O 587.636 -1.95699 -0.00548655 0
M  V30 6016 C 587.935 -1.16692 3.37813 0
M  V30 6017 C 587.601 -0.178509 4.50547 0
M  V30 6018 C 586.263 0.0933475 4.81109 0
M  V30 6019 C 588.615 0.496472 5.1883 0
M  V30 6020 C 585.943 1.0469 5.77284 0
M  V30 6021 C 588.295 1.43849 6.16028 0
M  V30 6022 C 586.959 1.71859 6.44997 0
M  V30 6023 H 586.229 -0.208764 0.710984 0
M  V30 6024 H 588.876 0.169066 1.90752 0
M  V30 6025 H 587.181 -1.98271 3.37929 0
M  V30 6026 H 588.878 -1.6884 3.63722 0
M  V30 6027 H 585.468 -0.400584 4.26724 0
M  V30 6028 H 589.652 0.299584 4.95395 0
M  V30 6029 H 584.908 1.27094 5.98044 0
M  V30 6030 H 589.082 1.96734 6.68034 0
M  V30 6031 H 586.709 2.45906 7.19329 0
M  V30 6032 N 588.284 -1.56567 -0.180126 0
M  V30 6033 C 589.194 -1.98947 -1.24327 0
M  V30 6034 C 590.21 -0.899446 -1.4895 0
M  V30 6035 O 591.386 -1.20639 -1.61271 0
M  V30 6036 C 588.451 -2.33328 -2.56435 0
M  V30 6037 C 587.512 -3.56114 -2.39752 0
M  V30 6038 C 586.745 -3.88845 -3.65561 0
M  V30 6039 O 586.968 -3.22662 -4.70368 0
M  V30 6040 O 585.902 -4.82226 -3.60197 0
M  V30 6041 H 589.728 -2.89634 -0.913565 0
M  V30 6042 H 587.313 -1.44319 -0.386306 0
M  V30 6043 H 589.195 -2.5645 -3.34382 0
M  V30 6044 H 587.87 -1.45806 -2.89002 0
M  V30 6045 H 586.777 -3.38221 -1.59866 0
M  V30 6046 H 588.11 -4.4415 -2.12113 0
M  V30 6047 N 589.762 0.448376 -1.51087 0
M  V30 6048 C 590.992 1.21965 -1.66757 0
M  V30 6049 C 591.4 1.85748 -0.359753 0
M  V30 6050 O 590.743 1.71022 0.670604 0
M  V30 6051 C 590.805 2.35284 -2.71812 0
M  V30 6052 C 590.469 1.91957 -4.1473 0
M  V30 6053 C 591.466 1.42921 -4.9987 0
M  V30 6054 C 589.151 1.99985 -4.60772 0
M  V30 6055 C 591.145 1.02485 -6.29107 0
M  V30 6056 C 588.832 1.5916 -5.90009 0
M  V30 6057 C 589.83 1.10491 -6.74004 0
M  V30 6058 O 589.518 0.702413 -8.00825 0
M  V30 6059 H 589.25 0.374125 -0.563034 0
M  V30 6060 H 591.804 0.538927 -1.98204 0
M  V30 6061 H 590.034 3.06599 -2.35657 0
M  V30 6062 H 591.723 2.97184 -2.76472 0
M  V30 6063 H 592.489 1.36123 -4.65506 0
M  V30 6064 H 588.368 2.36814 -3.95525 0
M  V30 6065 H 591.912 0.644271 -6.94619 0
M  V30 6066 H 587.809 1.65626 -6.2389 0
M  V30 6067 H 588.577 0.829248 -8.14288 0
M  V30 6068 N 591.24 1.41047 0.703093 0
M  V30 6069 C 592.187 1.42302 1.81711 0
M  V30 6070 C 593.157 0.278336 1.63751 0
M  V30 6071 O 594.342 0.478266 1.84709 0
M  V30 6072 C 591.482 1.30362 3.19531 0
M  V30 6073 C 590.595 2.54638 3.48975 0
M  V30 6074 C 589.73 2.35047 4.76368 0
M  V30 6075 C 588.769 3.54837 4.98756 0
M  V30 6076 N 587.906 3.34363 6.1737 0
M  V30 6077 H 592.746 2.37516 1.79973 0
M  V30 6078 H 590.283 1.1795 0.878983 0
M  V30 6079 H 592.241 1.21443 3.99134 0
M  V30 6080 H 590.871 0.387602 3.20464 0
M  V30 6081 H 589.923 2.74037 2.63833 0
M  V30 6082 H 591.235 3.43766 3.61423 0
M  V30 6083 H 590.389 2.23552 5.64012 0
M  V30 6084 H 589.128 1.43363 4.66153 0
M  V30 6085 H 588.133 3.66795 4.09563 0
M  V30 6086 H 589.358 4.47464 5.10835 0
M  V30 6087 H 587.304 2.45373 6.08382 0
M  V30 6088 H 587.221 4.17063 6.30551 0
M  V30 6089 H 588.489 3.26626 7.07768 0
M  V30 6090 N 592.718 -0.936591 1.26751 0
M  V30 6091 C 593.628 -2.06949 1.10496 0
M  V30 6092 C 594.644 -1.7396 0.037271 0
M  V30 6093 O 595.82 -1.99941 0.241944 0
M  V30 6094 C 592.885 -3.38612 0.744491 0
M  V30 6095 C 591.946 -3.85355 1.89209 0
M  V30 6096 C 591.179 -5.10735 1.54873 0
M  V30 6097 O 591.402 -5.68602 0.452546 0
M  V30 6098 O 590.336 -5.52632 2.38499 0
M  V30 6099 H 594.162 -2.23571 2.05547 0
M  V30 6100 H 591.747 -1.05428 1.05855 0
M  V30 6101 H 593.629 -4.17711 0.556396 0
M  V30 6102 H 592.304 -3.23218 -0.176582 0
M  V30 6103 H 591.211 -3.07182 2.13518 0
M  V30 6104 H 592.544 -4.05277 2.79305 0
M  V30 6105 N 594.196 -1.08629 -1.14182 0
M  V30 6106 C 595.473 -0.73002 -1.81466 0
M  V30 6107 C 595.853 0.785996 -1.95922 0
M  V30 6108 O 595.201 1.70535 -1.52086 0
M  V30 6109 C 595.411 -1.45957 -3.17014 0
M  V30 6110 C 596.759 -1.62008 -3.92477 0
M  V30 6111 O 597.783 -1.42141 -3.26611 0
M  V30 6112 O 596.642 -1.94806 -5.106 0
M  V30 6113 H 593.736 -0.261307 -0.784632 0
M  V30 6114 H 596.282 -1.188 -1.2118 0
M  V30 6115 H 595.054 -2.49221 -3.01669 0
M  V30 6116 H 594.677 -0.993222 -3.84995 0
M  V30 6117 N 595.674 1.31259 -0.872281 0
M  V30 6118 C 596.899 2.0133 -0.498099 0
M  V30 6119 C 597.324 1.65031 0.902568 0
M  V30 6120 O 596.682 0.860164 1.59596 0
M  V30 6121 C 596.73 3.54411 -0.665205 0
M  V30 6122 O 595.834 4.11347 0.294473 0
M  V30 6123 H 595.175 0.633844 -0.197832 0
M  V30 6124 H 597.705 1.67402 -1.17633 0
M  V30 6125 H 597.715 4.04147 -0.559373 0
M  V30 6126 H 596.39 3.80171 -1.68651 0
M  V30 6127 H 594.967 3.72624 0.143403 0
M  V30 6128 N 597.152 0.631951 1.44375 0
M  V30 6129 C 598.099 -0.0724807 2.30686 0
M  V30 6130 C 599.069 -0.835975 1.43529 0
M  V30 6131 O 600.254 -0.816849 1.7243 0
M  V30 6132 C 597.394 -1.04753 3.28817 0
M  V30 6133 C 596.507 -0.282367 4.31076 0
M  V30 6134 C 595.642 -1.2493 5.163 0
M  V30 6135 C 594.681 -0.473349 6.10267 0
M  V30 6136 N 593.818 -1.39079 6.88187 0
M  V30 6137 H 598.658 0.669477 2.90383 0
M  V30 6138 H 596.195 0.341927 1.43071 0
M  V30 6139 H 598.153 -1.62623 3.842 0
M  V30 6140 H 596.783 -1.75661 2.70819 0
M  V30 6141 H 595.835 0.412268 3.78159 0
M  V30 6142 H 597.147 0.321955 4.9776 0
M  V30 6143 H 596.301 -1.89931 5.76204 0
M  V30 6144 H 595.04 -1.88755 4.49692 0
M  V30 6145 H 594.045 0.190142 5.49471 0
M  V30 6146 H 595.27 0.16019 6.78911 0
M  V30 6147 H 593.216 -2.01623 6.24247 0
M  V30 6148 H 593.133 -0.840513 7.51313 0
M  V30 6149 H 594.401 -2.02961 7.52613 0
M  V30 6150 N 598.631 -1.53133 0.372548 0
M  V30 6151 C 599.561 -2.28876 -0.462412 0
M  V30 6152 C 600.542 -1.31583 -1.07796 0
M  V30 6153 O 601.727 -1.60461 -1.09389 0
M  V30 6154 C 598.857 -3.08317 -1.59868 0
M  V30 6155 C 597.811 -4.13355 -1.11003 0
M  V30 6156 C 597.137 -4.8092 -2.33708 0
M  V30 6157 C 598.437 -5.21955 -0.18983 0
M  V30 6158 H 600.131 -2.9892 0.169511 0
M  V30 6159 H 597.677 -1.43761 0.0829658 0
M  V30 6160 H 599.63 -3.60055 -2.18949 0
M  V30 6161 H 598.354 -2.35976 -2.25794 0
M  V30 6162 H 597.013 -3.62573 -0.541869 0
M  V30 6163 H 596.661 -4.05144 -2.98106 0
M  V30 6164 H 596.361 -5.51904 -2.01682 0
M  V30 6165 H 597.885 -5.35455 -2.93462 0
M  V30 6166 H 599.299 -5.69153 -0.688319 0
M  V30 6167 H 597.696 -6.00087 0.0398887 0
M  V30 6168 H 598.766 -4.78811 0.766057 0
M  V30 6169 N 600.109 -0.101901 -1.5727 0
M  V30 6170 C 601.386 0.602832 -1.86079 0
M  V30 6171 C 601.766 1.85912 -1 0
M  V30 6172 O 601.114 2.28379 -0.0742488 0
M  V30 6173 C 601.324 0.911694 -3.36881 0
M  V30 6174 C 602.672 1.2722 -4.05093 0
M  V30 6175 O 603.696 1.0025 -3.41802 0
M  V30 6176 O 602.555 1.7776 -5.16782 0
M  V30 6177 H 599.649 0.302366 -0.769743 0
M  V30 6178 H 602.195 -0.135113 -1.69161 0
M  V30 6179 H 600.967 0.0207256 -3.91295 0
M  V30 6180 H 600.59 1.70538 -3.59169 0
M  V30 6181 N 601.587 1.56661 0.17182 0
M  V30 6182 C 602.817 1.85831 0.902804 0
M  V30 6183 C 603.225 0.685157 1.76358 0
M  V30 6184 O 602.568 -0.354947 1.80238 0
M  V30 6185 C 602.63 3.09406 1.83053 0
M  V30 6186 C 602.294 4.4231 1.1494 0
M  V30 6187 C 603.291 5.17342 0.515104 0
M  V30 6188 C 600.976 4.89045 1.14631 0
M  V30 6189 C 602.97 6.37299 -0.113194 0
M  V30 6190 C 600.657 6.08933 0.514184 0
M  V30 6191 C 601.655 6.82904 -0.114463 0
M  V30 6192 O 601.343 8.00518 -0.736622 0
M  V30 6193 H 601.075 0.620715 0.267748 0
M  V30 6194 H 603.629 2.04637 0.176918 0
M  V30 6195 H 601.859 2.86544 2.59672 0
M  V30 6196 H 603.548 3.25027 2.4313 0
M  V30 6197 H 604.314 4.82317 0.509474 0
M  V30 6198 H 600.193 4.31409 1.62502 0
M  V30 6199 H 603.737 6.94976 -0.604477 0
M  V30 6200 H 599.634 6.43423 0.517395 0
M  V30 6201 H 600.402 8.16027 -0.635822 0
M  V30 6202 N 603.065 -0.440357 1.51323 0
M  V30 6203 C 604.013 -1.55492 1.72988 0
M  V30 6204 C 605.007 -1.58564 0.596138 0
M  V30 6205 O 606.213 -1.62345 0.777443 0
M  V30 6206 H 602.588 -0.516532 0.546533 0
M  V30 6207 H 604.559 -1.34392 2.66423 0
M  V30 6208 C 603.308 -2.93176 1.86931 0
M  V30 6209 H 602.631 -2.91543 2.73574 0
M  V30 6210 H 604.071 -3.70537 2.06103 0
M  V30 6211 C 602.53 -3.30988 0.628365 0
M  V30 6212 O 603.06 -4.01106 -0.218367 0
M  V30 6213 N 601.266 -2.86719 0.473339 0
M  V30 6214 H 600.813 -2.2983 1.16345 0
M  V30 6215 H 600.771 -3.12381 -0.355727 0
M  V30 6216 N 604.543 -1.41418 -0.695603 0
M  V30 6217 C 605.491 -1.43467 -1.83084 0
M  V30 6218 C 606.485 -0.312719 -1.66489 0
M  V30 6219 O 607.691 -0.484744 -1.7335 0
M  V30 6220 H 604.066 -0.448891 -0.603325 0
M  V30 6221 H 606.037 -2.39144 -1.78473 0
M  V30 6222 C 604.786 -1.3337 -3.21104 0
M  V30 6223 H 604.109 -2.18989 -3.3449 0
M  V30 6224 H 605.549 -1.38865 -4.00615 0
M  V30 6225 C 604.008 -0.0460484 -3.36869 0
M  V30 6226 O 604.538 0.909258 -3.91274 0
M  V30 6227 N 602.744 0.0300222 -2.90584 0
M  V30 6228 H 602.291 -0.748129 -2.46497 0
M  V30 6229 H 602.249 0.890991 -3.01511 0
M  V30 6230 N 606.021 0.929856 -1.27246 0
M  V30 6231 C 607.27 1.67182 -1.12842 0
M  V30 6232 C 607.583 1.9287 0.325666 0
M  V30 6233 O 608.789 2.64999 0.590572 0
M  V30 6234 C 607.245 3.01097 -1.97151 0
M  V30 6235 C 606.853 2.83115 -3.47203 0
M  V30 6236 C 608.597 3.78907 -1.91389 0
M  V30 6237 C 606.504 4.12573 -4.23719 0
M  V30 6238 H 605.434 0.627064 -0.418697 0
M  V30 6239 H 608.085 1.0332 -1.51649 0
M  V30 6240 H 606.467 3.66004 -1.51186 0
M  V30 6241 H 607.641 2.26989 -4.01015 0
M  V30 6242 H 605.956 2.18736 -3.54321 0
M  V30 6243 H 608.553 4.74837 -2.45834 0
M  V30 6244 H 608.896 4.0674 -0.887047 0
M  V30 6245 H 609.429 3.20794 -2.35237 0
M  V30 6246 H 606.168 3.8992 -5.26918 0
M  V30 6247 H 605.688 4.68371 -3.74685 0
M  V30 6248 H 607.367 4.8095 -4.32777 0
M  V30 6249 N 607.499 1.09233 1.13605 0
M  V30 6250 C 608.91 0.846839 1.6639 0
M  V30 6251 C 609.261 -0.625031 1.85978 0
M  V30 6252 O 608.386 -1.48173 1.57714 0
M  V30 6253 C 608.981 1.5307 3.0225 0
M  V30 6254 C 607.54 1.33223 3.52035 0
M  V30 6255 C 606.687 1.58806 2.27323 0
M  V30 6256 H 609.638 1.25175 0.975541 0
M  V30 6257 H 609.659 0.96267 3.68121 0
M  V30 6258 H 609.171 2.60192 2.87961 0
M  V30 6259 H 607.272 0.282091 3.71531 0
M  V30 6260 H 607.385 2.0657 4.32279 0
M  V30 6261 H 605.749 1.01007 2.33815 0
M  V30 6262 H 606.532 2.67153 2.15602 0
M  V30 6263 N 608.977 -1.30795 0.87923 0
M  V30 6264 C 610.205 -2.00527 0.509548 0
M  V30 6265 C 610.62 -1.65944 -0.90045 0
M  V30 6266 O 609.977 -0.893525 -1.5913 0
M  V30 6267 C 610.028 -3.55276 0.667943 0
M  V30 6268 O 609.749 -3.88625 2.02242 0
M  V30 6269 C 611.25 -4.4228 0.300494 0
M  V30 6270 H 608.47 -0.641261 0.197549 0
M  V30 6271 H 611.014 -1.66813 1.18295 0
M  V30 6272 H 609.169 -3.87377 0.0419843 0
M  V30 6273 H 609.583 -4.83334 2.03688 0
M  V30 6274 H 611.057 -5.50061 0.462242 0
M  V30 6275 H 611.534 -4.32556 -0.76106 0
M  V30 6276 H 612.14 -4.15613 0.902536 0
M  V30 6277 N 610.455 -0.639598 -1.44038 0
M  V30 6278 C 611.701 -0.147698 -2.02261 0
M  V30 6279 C 612.034 1.23031 -1.50256 0
M  V30 6280 O 611.309 1.81847 -0.690068 0
M  V30 6281 C 611.592 -0.14362 -3.59813 0
M  V30 6282 C 611.445 -1.55458 -4.22082 0
M  V30 6283 C 612.764 0.527317 -4.36929 0
M  V30 6284 H 609.883 -0.0551453 -0.734934 0
M  V30 6285 H 612.525 -0.817688 -1.71505 0
M  V30 6286 H 610.675 0.426898 -3.86147 0
M  V30 6287 H 612.347 -2.17464 -4.06826 0
M  V30 6288 H 610.59 -2.10594 -3.79253 0
M  V30 6289 H 611.261 -1.50369 -5.31124 0
M  V30 6290 H 613.737 0.0420504 -4.16079 0
M  V30 6291 H 612.613 0.499389 -5.46624 0
M  V30 6292 H 612.874 1.59914 -4.12165 0
M  V30 6293 N 611.933 1.52934 -0.380664 0
M  V30 6294 C 613.179 2.01765 0.20458 0
M  V30 6295 C 613.512 1.26696 1.47179 0
M  V30 6296 O 612.787 0.364936 1.91046 0
M  V30 6297 C 613.07 3.56869 0.481269 0
M  V30 6298 C 612.923 4.42617 -0.800629 0
M  V30 6299 C 614.242 4.2121 1.27554 0
M  V30 6300 H 611.361 0.733388 0.0728803 0
M  V30 6301 H 614.003 1.83068 -0.50853 0
M  V30 6302 H 612.153 3.72932 1.08875 0
M  V30 6303 H 613.825 4.38323 -1.43773 0
M  V30 6304 H 612.068 4.09977 -1.4178 0
M  V30 6305 H 612.739 5.49134 -0.561791 0
M  V30 6306 H 615.215 4.09072 0.761514 0
M  V30 6307 H 614.091 5.29732 1.43788 0
M  V30 6308 H 614.352 3.78269 2.28833 0
M  V30 6309 N 613.412 0.11024 1.57214 0
M  V30 6310 C 614.659 -0.54987 1.94891 0
M  V30 6311 C 614.987 -1.67243 0.992984 0
M  V30 6312 O 614.242 -1.95694 0.0152703 0
M  V30 6313 C 614.541 -1.13102 3.39032 0
M  V30 6314 C 614.207 -0.130713 4.5071 0
M  V30 6315 C 612.869 0.14437 4.80983 0
M  V30 6316 C 615.221 0.551472 5.18274 0
M  V30 6317 C 612.549 1.10807 5.76141 0
M  V30 6318 C 614.901 1.50375 6.14467 0
M  V30 6319 C 613.565 1.78691 6.43138 0
M  V30 6320 H 612.835 -0.201212 0.713158 0
M  V30 6321 H 615.482 0.189288 1.90562 0
M  V30 6322 H 613.787 -1.94675 3.40013 0
M  V30 6323 H 615.484 -1.64973 3.65493 0
M  V30 6324 H 612.074 -0.355301 4.27125 0
M  V30 6325 H 616.258 0.35211 4.95049 0
M  V30 6326 H 611.514 1.3343 5.96663 0
M  V30 6327 H 615.688 2.03808 6.65909 0
M  V30 6328 H 613.315 2.53522 7.1668 0
M  V30 6329 N 614.89 -1.56749 -0.16351 0
M  V30 6330 C 616.115 -1.86938 -0.898264 0
M  V30 6331 C 616.54 -0.697456 -1.74692 0
M  V30 6332 O 615.898 0.353327 -1.77824 0
M  V30 6333 C 615.946 -3.15599 -1.74441 0
M  V30 6334 O 615.05 -2.98371 -2.8469 0
M  V30 6335 H 614.391 -0.614659 -0.251178 0
M  V30 6336 H 616.921 -2.03979 -0.159298 0
M  V30 6337 H 616.931 -3.47202 -2.14277 0
M  V30 6338 H 615.606 -4.00505 -1.1211 0
M  V30 6339 H 614.183 -2.7814 -2.4838 0
M  V30 6340 N 616.368 0.432326 -1.51554 0
M  V30 6341 C 617.318 1.52366 -1.69614 0
M  V30 6342 C 618.302 1.51205 -0.550083 0
M  V30 6343 O 619.494 1.57573 -0.806206 0
M  V30 6344 C 616.623 2.90513 -1.82913 0
M  V30 6345 C 615.709 2.9641 -3.03318 0
M  V30 6346 N 616.1 2.72043 -4.26411 0
M  V30 6347 C 614.398 3.27572 -3.02675 0
M  V30 6348 C 615.099 2.83912 -5.07709 0
M  V30 6349 N 614.075 3.15798 -4.42462 0
M  V30 6350 H 617.877 1.32285 -2.62446 0
M  V30 6351 H 615.391 0.639708 -1.4927 0
M  V30 6352 H 617.388 3.69032 -1.93962 0
M  V30 6353 H 616.048 3.1161 -0.912655 0
M  V30 6354 H 617.059 2.46876 -4.55272 0
M  V30 6355 H 613.736 3.54411 -2.20678 0
M  V30 6356 H 615.126 2.68984 -6.15709 0
M  V30 6357 N 617.846 1.41785 0.688094 0
M  V30 6358 C 619.257 1.3701 1.26828 0
M  V30 6359 C 619.608 0.056835 1.96118 0
M  V30 6360 O 618.733 -0.84475 1.99231 0
M  V30 6361 C 619.328 2.48168 2.30648 0
M  V30 6362 C 617.887 2.46766 2.84224 0
M  V30 6363 C 617.034 2.27633 1.58361 0
M  V30 6364 H 619.985 1.51192 0.482351 0
M  V30 6365 H 620.006 2.17655 3.121 0
M  V30 6366 H 619.518 3.43735 1.80188 0
M  V30 6367 H 617.619 1.54978 3.3884 0
M  V30 6368 H 617.732 3.43342 3.34145 0
M  V30 6369 H 616.096 1.75648 1.84445 0
M  V30 6370 H 616.879 3.25238 1.09887 0
M  V30 6371 N 619.324 -0.923095 1.27737 0
M  V30 6372 C 620.735 -1.48626 1.12993 0
M  V30 6373 C 621.086 -1.94142 -0.283439 0
M  V30 6374 O 620.211 -1.81605 -1.17681 0
M  V30 6375 C 620.806 -2.70117 2.04505 0
M  V30 6376 C 619.365 -3.22642 1.93853 0
M  V30 6377 C 618.512 -1.95368 1.96791 0
M  V30 6378 H 621.463 -0.736737 1.40563 0
M  V30 6379 H 621.484 -3.4506 1.60356 0
M  V30 6380 H 620.996 -2.36959 3.07363 0
M  V30 6381 H 619.097 -3.60549 0.939968 0
M  V30 6382 H 619.21 -3.88525 2.80331 0
M  V30 6383 H 617.574 -2.12061 1.41076 0
M  V30 6384 H 618.357 -1.64517 3.01312 0
M  V30 6385 N 620.802 -1.09834 -1.13024 0
M  V30 6386 C 622.051 -0.831806 -1.83749 0
M  V30 6387 C 622.364 0.644763 -1.84668 0
M  V30 6388 O 623.57 1.02697 -2.51327 0
M  V30 6389 C 622.026 -1.43817 -3.29916 0
M  V30 6390 C 621.634 -2.94759 -3.37374 0
M  V30 6391 C 623.378 -1.25077 -4.05655 0
M  V30 6392 C 621.285 -3.48461 -4.77838 0
M  V30 6393 H 620.215 -0.30751 -0.688443 0
M  V30 6394 H 622.866 -1.32156 -1.27307 0
M  V30 6395 H 621.248 -0.876106 -3.86187 0
M  V30 6396 H 622.422 -3.57228 -2.91076 0
M  V30 6397 H 620.737 -3.12581 -2.75103 0
M  V30 6398 H 623.334 -1.62649 -5.09362 0
M  V30 6399 H 623.677 -0.191782 -4.15858 0
M  V30 6400 H 624.21 -1.78057 -3.55725 0
M  V30 6401 H 620.949 -4.53998 -4.72828 0
M  V30 6402 H 620.469 -2.90757 -5.24615 0
M  V30 6403 H 622.148 -3.45914 -5.46766 0
M  V30 6404 N 622.28 1.30327 -0.886154 0
M  V30 6405 C 623.528 1.9571 -0.504195 0
M  V30 6406 C 623.849 1.70294 0.950003 0
M  V30 6407 O 623.119 1.02718 1.66811 0
M  V30 6408 H 621.699 0.72412 -0.183465 0
M  V30 6409 H 624.361 1.58835 -1.12949 0
M  V30 6410 H 623.457 3.04704 -0.675431 0
M  V30 6411 N 623.758 0.647228 1.43697 0
M  V30 6412 C 624.986 0.16575 2.06235 0
M  V30 6413 C 625.401 -1.1662 1.48476 0
M  V30 6414 O 624.758 -1.7187 0.613762 0
M  V30 6415 C 624.809 0.0621651 3.61447 0
M  V30 6416 O 624.53 1.34146 4.17057 0
M  V30 6417 C 626.031 -0.446102 4.4105 0
M  V30 6418 H 623.251 0.0871158 0.665321 0
M  V30 6419 H 625.795 0.886183 1.84301 0
M  V30 6420 H 623.95 -0.608794 3.82587 0
M  V30 6421 H 624.364 1.19675 5.10664 0
M  V30 6422 H 625.838 -0.46755 5.50016 0
M  V30 6423 H 626.315 -1.47627 4.13646 0
M  V30 6424 H 626.921 0.192159 4.24866 0
M  V30 6425 N 625.236 -1.5273 0.388769 0
M  V30 6426 C 626.482 -2.01871 -0.193877 0
M  V30 6427 C 626.815 -1.27475 -1.46505 0
M  V30 6428 O 626.09 -0.375063 -1.90849 0
M  V30 6429 C 626.373 -3.5712 -0.462336 0
M  V30 6430 C 626.226 -4.42186 0.824091 0
M  V30 6431 C 627.545 -4.21881 -1.25319 0
M  V30 6432 H 624.664 -0.733764 -0.0689899 0
M  V30 6433 H 627.306 -1.82796 0.518231 0
M  V30 6434 H 625.456 -3.73504 -1.06896 0
M  V30 6435 H 627.128 -4.37554 1.46096 0
M  V30 6436 H 625.371 -4.09219 1.43952 0
M  V30 6437 H 626.042 -5.48828 0.590905 0
M  V30 6438 H 628.518 -4.0947 -0.73981 0
M  V30 6439 H 627.394 -5.30487 -1.40977 0
M  V30 6440 H 627.655 -3.79478 -2.26824 0
M  V30 6441 N 626.714 -0.118576 -1.57153 0
M  V30 6442 C 627.962 0.538461 -1.94795 0
M  V30 6443 C 628.283 1.67243 -1.00274 0
M  V30 6444 O 627.553 1.95811 -0.0589692 0
M  V30 6445 H 626.133 0.201904 -0.719197 0
M  V30 6446 H 628.795 -0.187418 -1.93997 0
M  V30 6447 H 627.891 0.933315 -2.97818 0
M  V30 6448 N 628.193 1.56834 0.155195 0
M  V30 6449 C 629.123 2.00678 1.19376 0
M  V30 6450 C 630.104 0.884973 1.45266 0
M  V30 6451 O 631.289 1.1522 1.56326 0
M  V30 6452 C 628.419 2.38042 2.5289 0
M  V30 6453 C 627.373 3.53332 2.41538 0
M  V30 6454 C 626.699 3.76485 3.79688 0
M  V30 6455 C 627.999 4.86265 1.9064 0
M  V30 6456 H 629.693 2.87688 0.829232 0
M  V30 6457 H 627.239 1.38407 0.397445 0
M  V30 6458 H 629.192 2.67314 3.25763 0
M  V30 6459 H 627.916 1.4796 2.91162 0
M  V30 6460 H 626.575 3.24213 1.71117 0
M  V30 6461 H 626.223 2.83667 4.15382 0
M  V30 6462 H 625.923 4.54068 3.72956 0
M  V30 6463 H 627.447 4.08174 4.54122 0
M  V30 6464 H 628.861 5.14308 2.53299 0
M  V30 6465 H 627.258 5.67597 1.94818 0
M  V30 6466 H 628.328 4.77184 0.861596 0
M  V30 6467 N 629.671 -0.424282 1.51781 0
M  V30 6468 C 630.899 -1.1947 1.68921 0
M  V30 6469 C 631.314 -1.84683 0.39213 0
M  V30 6470 O 630.671 -1.71261 -0.630554 0
M  V30 6471 C 630.722 -2.26909 2.81416 0
M  V30 6472 O 630.443 -1.64361 4.061 0
M  V30 6473 C 631.944 -3.16945 3.09937 0
M  V30 6474 H 629.164 -0.359591 0.566511 0
M  V30 6475 H 631.708 -0.501139 1.98265 0
M  V30 6476 H 629.863 -2.91959 2.54635 0
M  V30 6477 H 630.277 -2.35468 4.68674 0
M  V30 6478 H 631.751 -3.88437 3.922 0
M  V30 6479 H 632.228 -3.78451 2.22871 0
M  V30 6480 H 632.834 -2.57581 3.38426 0
M  V30 6481 N 631.149 -1.42148 -0.680565 0
M  V30 6482 C 632.059 -1.47565 -1.82378 0
M  V30 6483 C 633.075 -0.36489 -1.70131 0
M  V30 6484 O 634.251 -0.614916 -1.91783 0
M  V30 6485 C 631.316 -1.37013 -3.18478 0
M  V30 6486 C 630.377 -2.58532 -3.42724 0
M  V30 6487 C 629.61 -2.48473 -4.72331 0
M  V30 6488 O 629.833 -1.51745 -5.49845 0
M  V30 6489 O 628.767 -3.38503 -4.97694 0
M  V30 6490 H 632.593 -2.44045 -1.80764 0
M  V30 6491 H 630.178 -1.23849 -0.835569 0
M  V30 6492 H 632.06 -1.33468 -3.99705 0
M  V30 6493 H 630.735 -0.436552 -3.20743 0
M  V30 6494 H 629.642 -2.67652 -2.61368 0
M  V30 6495 H 630.975 -3.50769 -3.45286 0
M  V30 6496 N 632.627 0.916307 -1.28225 0
M  V30 6497 C 633.904 1.64429 -1.05936 0
M  V30 6498 C 634.284 2.07234 0.402139 0
M  V30 6499 O 633.632 1.81535 1.3877 0
M  V30 6500 C 633.842 2.83773 -2.03159 0
M  V30 6501 C 635.19 3.54852 -2.33164 0
M  V30 6502 O 636.214 2.93918 -2.01223 0
M  V30 6503 O 635.073 4.64663 -2.87664 0
M  V30 6504 H 632.167 0.721221 -0.404683 0
M  V30 6505 H 634.713 0.965838 -1.39534 0
M  V30 6506 H 633.485 2.49217 -3.01673 0
M  V30 6507 H 633.108 3.59333 -1.70192 0
M  V30 6508 N 634.105 1.10431 1.1244 0
M  V30 6509 C 635.015 0.765502 2.21759 0
M  V30 6510 C 636.031 -0.236966 1.72379 0
M  V30 6511 O 637.207 -0.0757329 2.01258 0
M  V30 6512 C 634.272 0.202316 3.46109 0
M  V30 6513 C 633.333 1.26205 4.1033 0
M  V30 6514 C 632.566 0.725648 5.28744 0
M  V30 6515 O 632.789 -0.447942 5.68638 0
M  V30 6516 O 631.723 1.48555 5.83279 0
M  V30 6517 H 635.549 1.67801 2.53133 0
M  V30 6518 H 633.134 0.879443 1.20773 0
M  V30 6519 H 635.016 -0.107918 4.21262 0
M  V30 6520 H 633.691 -0.683052 3.16411 0
M  V30 6521 H 632.598 1.62514 3.36957 0
M  V30 6522 H 633.931 2.12044 4.44183 0
M  V30 6523 N 635.583 -1.29855 0.893053 0
M  V30 6524 C 636.546 -2.26183 0.370687 0
M  V30 6525 C 637.546 -1.53108 -0.491385 0
M  V30 6526 O 638.736 -1.71643 -0.297386 0
M  V30 6527 C 635.868 -3.37633 -0.470827 0
M  V30 6528 H 637.061 -2.73903 1.22135 0
M  V30 6529 H 634.614 -1.41183 0.67061 0
M  V30 6530 H 635.349 -2.95241 -1.34175 0
M  V30 6531 H 635.134 -3.91825 0.146784 0
M  V30 6532 H 636.624 -4.09313 -0.827825 0
M  V30 6533 N 637.061 -0.65484 -1.43351 0
M  V30 6534 C 638.31 -0.166215 -2.01014 0
M  V30 6535 C 638.623 1.22764 -1.52278 0
M  V30 6536 O 639.829 1.81156 -2.02224 0
M  V30 6537 C 638.285 -0.246341 -3.59056 0
M  V30 6538 C 637.893 -1.64299 -4.16785 0
M  V30 6539 C 639.637 0.184597 -4.24098 0
M  V30 6540 C 637.544 -1.67695 -5.67126 0
M  V30 6541 H 636.474 -0.0583769 -0.751737 0
M  V30 6542 H 639.125 -0.817111 -1.64303 0
M  V30 6543 H 637.507 0.472092 -3.93176 0
M  V30 6544 H 638.681 -2.3869 -3.94162 0
M  V30 6545 H 636.996 -2.02004 -3.6412 0
M  V30 6546 H 639.593 0.179088 -5.344 0
M  V30 6547 H 639.936 1.21632 -3.98135 0
M  V30 6548 H 640.469 -0.482141 -3.94867 0
M  V30 6549 H 637.208 -2.68783 -5.9786 0
M  V30 6550 H 636.728 -0.976313 -5.91801 0
M  V30 6551 H 638.407 -1.42142 -6.31193 0
M  V30 6552 N 638.539 1.52521 -0.396863 0
M  V30 6553 C 639.489 2.2348 0.451722 0
M  V30 6554 C 640.473 1.2415 1.0235 0
M  V30 6555 O 641.665 1.4945 0.948348 0
M  V30 6556 C 638.794 3.05067 1.57445 0
M  V30 6557 C 637.88 4.11799 1.01404 0
M  V30 6558 N 638.271 5.05482 0.179234 0
M  V30 6559 C 636.569 4.27064 1.28578 0
M  V30 6560 C 637.27 5.81552 -0.131202 0
M  V30 6561 N 636.246 5.41523 0.474735 0
M  V30 6562 H 640.048 2.93269 -0.192534 0
M  V30 6563 H 637.562 1.61081 -0.206591 0
M  V30 6564 H 639.559 3.54446 2.19485 0
M  V30 6565 H 638.219 2.36816 2.22145 0
M  V30 6566 H 639.23 5.17573 -0.18411 0
M  V30 6567 H 635.907 3.70042 1.93327 0
M  V30 6568 H 637.297 6.67023 -0.808061 0
M  V30 6569 N 640.017 0.126909 1.57088 0
M  V30 6570 C 640.964 -0.82036 2.15728 0
M  V30 6571 C 641.934 -1.25811 1.08447 0
M  V30 6572 O 643.119 -1.33422 1.36393 0
M  V30 6573 C 640.259 -2.06199 2.76724 0
M  V30 6574 C 639.372 -1.67188 3.98337 0
M  V30 6575 C 638.507 -2.86378 4.47393 0
M  V30 6576 C 637.546 -2.43644 5.61519 0
M  V30 6577 N 636.683 -3.55775 6.05284 0
M  V30 6578 H 641.523 -0.313472 2.96347 0
M  V30 6579 H 639.06 -0.14303 1.46403 0
M  V30 6580 H 641.018 -2.78959 3.10222 0
M  V30 6581 H 639.648 -2.54333 1.98782 0
M  V30 6582 H 638.7 -0.842714 3.70948 0
M  V30 6583 H 640.012 -1.31789 4.81075 0
M  V30 6584 H 639.166 -3.67353 4.82842 0
M  V30 6585 H 637.905 -3.25009 3.63621 0
M  V30 6586 H 636.91 -1.61104 5.25667 0
M  V30 6587 H 638.135 -2.06122 6.47063 0
M  V30 6588 H 636.081 -3.94065 5.24451 0
M  V30 6589 H 635.998 -3.24325 6.82898 0
M  V30 6590 H 637.266 -4.37166 6.45373 0
M  V30 6591 N 641.495 -1.56914 -0.146875 0
M  V30 6592 C 642.725 -1.87243 -0.873126 0
M  V30 6593 C 643.133 -0.713127 -1.75246 0
M  V30 6594 O 642.476 0.326228 -1.8078 0
M  V30 6595 C 642.538 -3.12279 -1.78107 0
M  V30 6596 C 642.202 -4.44082 -1.07889 0
M  V30 6597 C 643.199 -5.18096 -0.432734 0
M  V30 6598 C 640.884 -4.90807 -1.06836 0
M  V30 6599 C 642.878 -6.37039 0.214569 0
M  V30 6600 C 640.565 -6.09674 -0.417243 0
M  V30 6601 C 641.563 -6.82636 0.223093 0
M  V30 6602 O 641.251 -7.99245 0.863884 0
M  V30 6603 H 640.983 -0.624896 -0.257839 0
M  V30 6604 H 643.537 -2.04892 -0.14434 0
M  V30 6605 H 641.767 -2.90639 -2.5508 0
M  V30 6606 H 643.456 -3.28854 -2.37929 0
M  V30 6607 H 644.222 -4.83066 -0.432677 0
M  V30 6608 H 640.101 -4.3394 -1.55618 0
M  V30 6609 H 643.645 -6.93927 0.714965 0
M  V30 6610 H 639.542 -6.44165 -0.414967 0
M  V30 6611 H 640.31 -8.14912 0.765564 0
M  V30 6612 N 642.974 0.416227 -1.52004 0
M  V30 6613 C 644.222 1.16153 -1.65387 0
M  V30 6614 C 644.543 1.91208 -0.382669 0
M  V30 6615 O 643.813 1.86413 0.602231 0
M  V30 6616 H 642.393 0.431765 -0.60958 0
M  V30 6617 H 645.055 0.475151 -1.89019 0
M  V30 6618 H 644.151 1.87952 -2.4916 0
M  V30 6619 N 644.452 1.42507 0.673017 0
M  V30 6620 C 645.701 1.42364 1.42883 0
M  V30 6621 C 646.014 0.0441598 1.9555 0
M  V30 6622 O 647.22 -0.0798679 2.71382 0
M  V30 6623 C 645.676 2.5043 2.58482 0
M  V30 6624 C 645.284 3.94392 2.12506 0
M  V30 6625 C 647.028 2.59455 3.35981 0
M  V30 6626 C 644.935 4.93964 3.25198 0
M  V30 6627 H 643.865 0.52951 0.536782 0
M  V30 6628 H 646.516 1.68422 0.728448 0
M  V30 6629 H 644.898 2.1754 3.30896 0
M  V30 6630 H 646.072 4.36645 1.47233 0
M  V30 6631 H 644.387 3.89233 1.4794 0
M  V30 6632 H 646.984 3.31025 4.19912 0
M  V30 6633 H 647.327 1.63869 3.82691 0
M  V30 6634 H 647.86 2.91549 2.70637 0
M  V30 6635 H 644.599 5.91034 2.83477 0
M  V30 6636 H 644.119 4.56341 3.89247 0
M  V30 6637 H 645.798 5.15763 3.90637 0
M  V30 6638 N 645.93 -0.909495 1.28709 0
M  V30 6639 C 646.84 -2.04558 1.14861 0
M  V30 6640 C 647.856 -1.73842 0.0741621 0
M  V30 6641 O 649.032 -1.99383 0.2843 0
M  V30 6642 C 646.097 -3.36957 0.816148 0
M  V30 6643 C 645.158 -3.81255 1.97341 0
M  V30 6644 C 644.391 -5.07335 1.65671 0
M  V30 6645 O 644.614 -5.67514 0.573053 0
M  V30 6646 O 643.548 -5.47449 2.50167 0
M  V30 6647 H 647.374 -2.19161 2.10243 0
M  V30 6648 H 644.959 -1.03159 1.08068 0
M  V30 6649 H 646.841 -4.16436 0.644873 0
M  V30 6650 H 645.516 -3.2352 -0.107983 0
M  V30 6651 H 644.423 -3.02584 2.19986 0
M  V30 6652 H 645.756 -3.99261 2.87839 0
M  V30 6653 N 647.408 -1.11026 -1.11852 0
M  V30 6654 C 648.356 -0.759643 -2.19846 0
M  V30 6655 C 649.35 0.246964 -1.6759 0
M  V30 6656 O 650.556 0.106693 -1.79684 0
M  V30 6657 H 646.931 -0.22775 -0.716683 0
M  V30 6658 H 648.902 -1.6792 -2.46669 0
M  V30 6659 C 647.651 -0.214364 -3.47039 0
M  V30 6660 H 646.974 -0.980175 -3.87599 0
M  V30 6661 H 648.414 -0.00717047 -4.23999 0
M  V30 6662 C 646.873 1.05436 -3.19976 0
M  V30 6663 O 647.403 2.13483 -3.40276 0
M  V30 6664 N 645.609 0.975436 -2.7374 0
M  V30 6665 H 645.156 0.0960853 -2.57421 0
M  V30 6666 H 645.114 1.82501 -2.5601 0
M  V30 6667 N 648.886 1.2938 -0.899927 0
M  V30 6668 C 650.132 1.9584 -0.526742 0
M  V30 6669 C 650.465 1.70774 0.924651 0
M  V30 6670 O 649.74 1.02084 1.65557 0
M  V30 6671 C 650.023 3.50638 -0.820062 0
M  V30 6672 C 649.876 3.85161 -2.32317 0
M  V30 6673 C 651.195 4.3903 -0.30671 0
M  V30 6674 H 648.314 0.711322 -0.192848 0
M  V30 6675 H 650.956 1.52992 -1.12665 0
M  V30 6676 H 649.106 3.87265 -0.309491 0
M  V30 6677 H 650.778 3.58477 -2.9033 0
M  V30 6678 H 649.021 3.32696 -2.78381 0
M  V30 6679 H 649.692 4.93204 -2.47898 0
M  V30 6680 H 652.168 4.09396 -0.743908 0
M  V30 6681 H 651.044 5.46226 -0.541144 0
M  V30 6682 H 651.305 4.34937 0.792588 0
M  V30 6683 N 650.364 0.662433 1.43002 0
M  V30 6684 C 651.311 -0.0235324 2.30788 0
M  V30 6685 C 652.281 -0.805342 1.4527 0
M  V30 6686 O 653.466 -0.78009 1.74124 0
M  V30 6687 C 650.606 -0.977545 3.30965 0
M  V30 6688 C 649.719 -0.190865 4.31578 0
M  V30 6689 C 648.854 -1.13951 5.18834 0
M  V30 6690 C 647.893 -0.343796 6.11134 0
M  V30 6691 N 647.03 -1.2445 6.90982 0
M  V30 6692 H 651.87 0.730921 2.88897 0
M  V30 6693 H 649.407 0.372197 1.42313 0
M  V30 6694 H 651.365 -1.54437 3.87563 0
M  V30 6695 H 649.995 -1.69877 2.74484 0
M  V30 6696 H 649.047 0.492388 3.772 0
M  V30 6697 H 650.359 0.427464 4.96965 0
M  V30 6698 H 649.513 -1.77666 5.80103 0
M  V30 6699 H 648.252 -1.79174 4.53595 0
M  V30 6700 H 647.257 0.30665 5.48944 0
M  V30 6701 H 648.482 0.304161 6.78419 0
M  V30 6702 H 646.428 -1.88336 6.28383 0
M  V30 6703 H 646.345 -0.680959 7.52927 0
M  V30 6704 H 647.613 -1.86952 7.56749 0
M  V30 6705 N 651.842 -1.52309 0.404946 0
M  V30 6706 C 653.07 -2.06185 -0.171818 0
M  V30 6707 C 653.485 -1.27536 -1.39212 0
M  V30 6708 O 652.842 -0.326112 -1.79563 0
M  V30 6709 C 652.893 -3.57647 -0.526417 0
M  V30 6710 O 652.614 -4.3332 0.645417 0
M  V30 6711 C 654.115 -4.27925 -1.15736 0
M  V30 6712 H 651.335 -0.670632 -0.0222328 0
M  V30 6713 H 653.879 -1.96259 0.574692 0
M  V30 6714 H 652.034 -3.67595 -1.22282 0
M  V30 6715 H 652.448 -5.23328 0.35042 0
M  V30 6716 H 653.922 -5.35093 -1.35572 0
M  V30 6717 H 654.399 -3.84134 -2.12926 0
M  V30 6718 H 655.005 -4.22335 -0.501281 0
M  V30 6719 N 653.32 -0.135238 -1.57019 0
M  V30 6720 C 654.55 0.525303 -1.9981 0
M  V30 6721 C 654.958 1.59724 -1.01415 0
M  V30 6722 O 654.301 1.837 -0.00130938 0
M  V30 6723 C 654.363 1.19578 -3.3903 0
M  V30 6724 C 654.027 0.269855 -4.56203 0
M  V30 6725 C 655.024 -0.497905 -5.1751 0
M  V30 6726 C 652.709 0.176188 -5.01991 0
M  V30 6727 C 654.703 -1.3469 -6.23007 0
M  V30 6728 C 652.39 -0.676422 -6.07345 0
M  V30 6729 C 653.388 -1.43658 -6.67721 0
M  V30 6730 O 653.076 -2.27501 -7.71037 0
M  V30 6731 H 652.808 0.142296 -0.660854 0
M  V30 6732 H 655.362 -0.223272 -2.04183 0
M  V30 6733 H 653.592 1.99176 -3.3146 0
M  V30 6734 H 655.281 1.75486 -3.66005 0
M  V30 6735 H 656.047 -0.435507 -4.83041 0
M  V30 6736 H 651.926 0.757583 -4.54733 0
M  V30 6737 H 655.47 -1.9407 -6.70062 0
M  V30 6738 H 651.367 -0.740154 -6.41243 0
M  V30 6739 H 652.135 -2.20619 -7.88206 0
M  V30 6740 N 654.798 1.5699 0.138552 0
M  V30 6741 C 656.023 1.88344 0.86841 0
M  V30 6742 C 656.448 0.725159 1.7356 0
M  V30 6743 O 655.806 -0.324992 1.78363 0
M  V30 6744 C 655.854 3.18334 1.69398 0
M  V30 6745 O 654.958 3.02863 2.79907 0
M  V30 6746 H 654.299 0.618577 0.241367 0
M  V30 6747 H 656.829 2.04207 0.126826 0
M  V30 6748 H 656.839 3.50567 2.08726 0
M  V30 6749 H 655.514 4.02238 1.05725 0
M  V30 6750 H 654.091 2.82056 2.43924 0
M  V30 6751 N 656.276 -0.40816 1.52223 0
M  V30 6752 C 657.504 -1.17672 1.70179 0
M  V30 6753 C 657.919 -1.84257 0.411696 0
M  V30 6754 O 657.276 -1.7192 -0.612354 0
M  V30 6755 C 657.327 -2.23911 2.83806 0
M  V30 6756 O 657.048 -1.60044 4.0782 0
M  V30 6757 C 658.549 -3.1364 3.13281 0
M  V30 6758 H 655.769 -0.353562 0.570293 0
M  V30 6759 H 658.313 -0.480083 1.98785 0
M  V30 6760 H 656.468 -2.89242 2.57717 0
M  V30 6761 H 656.882 -2.30484 4.71145 0
M  V30 6762 H 658.356 -3.84255 3.96298 0
M  V30 6763 H 658.833 -3.76066 2.26872 0
M  V30 6764 H 659.439 -2.53977 3.41139 0
M  V30 6765 N 657.755 -1.42862 -0.66545 0
M  V30 6766 C 658.98 -1.47456 -1.45848 0
M  V30 6767 C 659.405 -0.0900312 -1.87884 0
M  V30 6768 O 658.763 0.913587 -1.56599 0
M  V30 6769 C 658.811 -2.41514 -2.67774 0
M  V30 6770 O 657.915 -1.89296 -3.66389 0
M  V30 6771 H 657.256 -0.499236 -0.437789 0
M  V30 6772 H 659.786 -1.8765 -0.815394 0
M  V30 6773 H 659.796 -2.58409 -3.15735 0
M  V30 6774 H 658.471 -3.42099 -2.36519 0
M  V30 6775 H 657.048 -1.82003 -3.25468 0
M  V30 6776 N 659.233 0.902656 -1.29189 0
M  V30 6777 C 660.48 1.65287 -1.16989 0
M  V30 6778 C 660.808 1.92485 0.279232 0
M  V30 6779 O 660.063 1.53143 1.21843 0
M  V30 6780 C 660.362 3.011 -1.92545 0
M  V30 6781 C 660.028 2.93521 -3.42281 0
M  V30 6782 C 658.69 2.91161 -3.83117 0
M  V30 6783 C 661.042 2.82947 -4.3771 0
M  V30 6784 C 658.37 2.76043 -5.17704 0
M  V30 6785 C 660.722 2.69368 -5.72384 0
M  V30 6786 C 659.386 2.65373 -6.12482 0
M  V30 6787 H 658.656 0.604828 -0.428094 0
M  V30 6788 H 661.303 1.05084 -1.60092 0
M  V30 6789 H 659.608 3.65153 -1.42024 0
M  V30 6790 H 661.305 3.58073 -1.80512 0
M  V30 6791 H 657.895 2.96158 -3.09819 0
M  V30 6792 H 662.079 2.83849 -4.07116 0
M  V30 6793 H 657.335 2.71352 -5.47885 0
M  V30 6794 H 661.509 2.60156 -6.45981 0
M  V30 6795 H 659.136 2.53415 -7.16718 0
M  V30 6796 N 660.711 1.11618 1.11262 0
M  V30 6797 C 661.939 0.888739 1.8684 0
M  V30 6798 C 662.354 -0.561558 1.80255 0
M  V30 6799 O 661.711 -1.38782 1.18515 0
M  V30 6800 C 661.762 1.34422 3.35579 0
M  V30 6801 O 661.483 2.73766 3.42029 0
M  V30 6802 C 662.984 1.15246 4.28058 0
M  V30 6803 H 660.204 0.318152 0.590779 0
M  V30 6804 H 662.748 1.48398 1.40707 0
M  V30 6805 H 660.903 0.79239 3.7921 0
M  V30 6806 H 661.317 2.9355 4.34659 0
M  V30 6807 H 662.791 1.52015 5.30656 0
M  V30 6808 H 663.268 0.0922007 4.39103 0
M  V30 6809 H 663.874 1.69136 3.90222 0
M  V30 6810 N 662.189 -1.289 0.906776 0
M  V30 6811 C 663.6 -1.77336 0.58384 0
M  V30 6812 C 663.951 -1.74304 -0.900697 0
M  V30 6813 O 663.076 -1.33335 -1.70443 0
M  V30 6814 C 663.671 -3.22019 1.05304 0
M  V30 6815 C 662.23 -3.68205 0.781148 0
M  V30 6816 C 661.377 -2.48837 1.22373 0
M  V30 6817 H 664.328 -1.15462 1.08877 0
M  V30 6818 H 664.349 -3.78481 0.391414 0
M  V30 6819 H 663.861 -3.24194 2.13353 0
M  V30 6820 H 661.962 -3.71497 -0.28643 0
M  V30 6821 H 662.075 -4.58675 1.384 0
M  V30 6822 H 660.439 -2.46461 0.642594 0
M  V30 6823 H 661.222 -2.53736 2.31242 0
M  V30 6824 N 663.667 -0.670007 -1.42649 0
M  V30 6825 C 664.6 0.0613623 -2.28117 0
M  V30 6826 C 665.578 0.813414 -1.40792 0
M  V30 6827 O 666.762 0.809529 -1.70232 0
M  V30 6828 C 663.889 1.09399 -3.20546 0
M  V30 6829 C 662.935 0.438064 -4.24244 0
M  V30 6830 S 663.768 -0.800808 -5.29478 0
M  V30 6831 C 664.924 0.23086 -6.25474 0
M  V30 6832 H 665.157 -0.663606 -2.89799 0
M  V30 6833 H 662.69 -0.45939 -1.47407 0
M  V30 6834 H 664.648 1.68469 -3.74337 0
M  V30 6835 H 663.309 1.79137 -2.58009 0
M  V30 6836 H 662.502 1.21707 -4.89084 0
M  V30 6837 H 662.104 -0.0789346 -3.73917 0
M  V30 6838 H 664.396 1.09204 -6.68641 0
M  V30 6839 H 665.339 -0.382945 -7.07064 0
M  V30 6840 H 665.747 0.574191 -5.61572 0
M  V30 6841 N 665.145 1.52092 -0.413018 0
M  V30 6842 C 666.375 2.05974 0.160648 0
M  V30 6843 C 666.783 1.28267 1.39084 0
M  V30 6844 O 666.126 0.328805 1.80733 0
M  V30 6845 C 666.188 3.54918 0.572169 0
M  V30 6846 C 665.852 4.53705 -0.547826 0
M  V30 6847 C 666.849 5.00342 -1.41259 0
M  V30 6848 C 664.534 4.97089 -0.721627 0
M  V30 6849 C 666.528 5.89011 -2.43607 0
M  V30 6850 C 664.215 5.85554 -1.74841 0
M  V30 6851 C 665.213 6.3141 -2.60403 0
M  V30 6852 O 664.901 7.18123 -3.61323 0
M  V30 6853 H 664.633 0.675636 0.0221936 0
M  V30 6854 H 667.187 1.96931 -0.58373 0
M  V30 6855 H 665.417 3.61661 1.36889 0
M  V30 6856 H 667.106 3.91428 1.0742 0
M  V30 6857 H 667.872 4.67537 -1.28974 0
M  V30 6858 H 663.751 4.60954 -0.0652911 0
M  V30 6859 H 667.295 6.24725 -3.10425 0
M  V30 6860 H 663.192 6.17773 -1.87156 0
M  V30 6861 H 663.96 7.36244 -3.57613 0
M  V30 6862 N 666.623 0.143563 1.56945 0
M  V30 6863 C 667.573 -0.809115 2.1316 0
M  V30 6864 C 668.557 -1.21176 1.05855 0
M  V30 6865 O 669.749 -1.17875 1.3204 0
M  V30 6866 C 666.878 -2.04957 2.75405 0
M  V30 6867 C 665.964 -1.67018 3.89828 0
M  V30 6868 N 666.355 -0.998822 4.9584 0
M  V30 6869 C 664.653 -1.96313 4.00471 0
M  V30 6870 C 665.354 -0.816217 5.75945 0
M  V30 6871 N 664.33 -1.349 5.26596 0
M  V30 6872 H 668.132 -0.286919 2.92496 0
M  V30 6873 H 665.646 -0.0580948 1.62296 0
M  V30 6874 H 667.643 -2.74201 3.14037 0
M  V30 6875 H 666.303 -2.57697 1.97541 0
M  V30 6876 H 667.314 -0.659975 5.13678 0
M  V30 6877 H 663.991 -2.50927 3.33679 0
M  V30 6878 H 665.381 -0.287353 6.71285 0
M  V30 6879 N 668.101 -1.57061 -0.130224 0
M  V30 6880 C 669.064 -1.98593 -1.14426 0
M  V30 6881 C 670.064 -0.874584 -1.34936 0
M  V30 6882 O 671.254 -1.14086 -1.31643 0
M  V30 6883 C 668.386 -2.31639 -2.50112 0
M  V30 6884 H 669.579 -2.89374 -0.787561 0
M  V30 6885 H 667.132 -1.51756 -0.374146 0
M  V30 6886 H 667.867 -1.43703 -2.90723 0
M  V30 6887 H 667.652 -3.12684 -2.36583 0
M  V30 6888 H 669.142 -2.64551 -3.23114 0
M  V30 6889 N 669.579 0.400081 -1.52437 0
M  V30 6890 C 670.825 1.14788 -1.67187 0
M  V30 6891 C 671.158 1.89928 -0.405074 0
M  V30 6892 O 670.433 1.85118 0.596804 0
M  V30 6893 C 670.716 2.13507 -2.89977 0
M  V30 6894 C 670.569 1.42204 -4.2673 0
M  V30 6895 C 671.888 3.14069 -3.083 0
M  V30 6896 H 669.007 0.415939 -0.608411 0
M  V30 6897 H 671.649 0.432542 -1.85011 0
M  V30 6898 H 669.799 2.7451 -2.74912 0
M  V30 6899 H 671.471 0.842503 -4.53541 0
M  V30 6900 H 669.714 0.723939 -4.27717 0
M  V30 6901 H 670.385 2.14281 -5.08712 0
M  V30 6902 H 672.861 2.63148 -3.22323 0
M  V30 6903 H 671.737 3.80398 -3.95713 0
M  V30 6904 H 671.998 3.82309 -2.22018 0
M  V30 6905 N 671.057 1.43213 0.657864 0
M  V30 6906 C 672.285 1.48015 1.44566 0
M  V30 6907 C 672.7 0.0965951 1.88553 0
M  V30 6908 O 672.057 -0.892221 1.59203 0
M  V30 6909 C 672.108 2.42199 2.68369 0
M  V30 6910 O 671.829 3.75173 2.26223 0
M  V30 6911 C 673.33 2.56195 3.61772 0
M  V30 6912 H 670.55 0.502861 0.444266 0
M  V30 6913 H 673.094 1.87907 0.806917 0
M  V30 6914 H 671.249 2.05514 3.28394 0
M  V30 6915 H 671.663 4.25776 3.06293 0
M  V30 6916 H 673.137 3.26182 4.4532 0
M  V30 6917 H 673.614 1.60534 4.0881 0
M  V30 6918 H 674.22 2.93671 3.07632 0
M  V30 6919 N 672.536 -0.895792 1.29666 0
M  V30 6920 C 673.483 -2.00035 1.15129 0
M  V30 6921 C 674.453 -1.66043 0.0435819 0
M  V30 6922 O 675.638 -1.89621 0.211811 0
M  V30 6923 C 672.778 -3.34774 0.83787 0
M  V30 6924 C 671.891 -3.81525 2.0264 0
M  V30 6925 C 671.026 -5.04858 1.65201 0
M  V30 6926 C 670.065 -5.43988 2.80612 0
M  V30 6927 N 669.202 -6.58507 2.43544 0
M  V30 6928 H 674.042 -2.11802 2.09628 0
M  V30 6929 H 671.579 -1.03719 1.04311 0
M  V30 6930 H 673.537 -4.12311 0.636824 0
M  V30 6931 H 672.167 -3.22724 -0.0702314 0
M  V30 6932 H 671.219 -2.9999 2.33903 0
M  V30 6933 H 672.531 -4.06472 2.89106 0
M  V30 6934 H 671.685 -5.8999 1.41408 0
M  V30 6935 H 670.424 -4.81759 0.758893 0
M  V30 6936 H 669.429 -4.57388 3.05083 0
M  V30 6937 H 670.654 -5.69066 3.70595 0
M  V30 6938 H 668.6 -6.37004 1.56724 0
M  V30 6939 H 668.517 -6.83269 3.23542 0
M  V30 6940 H 669.785 -7.46897 2.2308 0
M  V30 6941 N 674.014 -1.12206 -1.10668 0
M  V30 6942 C 675.43 -0.857619 -1.346 0
M  V30 6943 C 675.63 0.513542 -1.94846 0
M  V30 6944 O 674.686 1.26273 -2.18658 0
M  V30 6945 C 675.999 -1.97212 -2.26998 0
M  V30 6946 C 677.547 -2.00272 -2.40542 0
M  V30 6947 C 678.022 -3.10948 -3.36267 0
M  V30 6948 N 679.513 -3.10375 -3.43834 0
M  V30 6949 C 680.248 -3.92651 -4.17867 0
M  V30 6950 N 679.744 -4.84911 -4.94807 0
M  V30 6951 N 681.537 -3.80798 -4.1346 0
M  V30 6952 H 673.688 -2.00558 -0.699306 0
M  V30 6953 H 675.951 -0.872612 -0.370477 0
M  V30 6954 H 675.657 -2.96002 -1.89936 0
M  V30 6955 H 675.531 -1.87521 -3.27286 0
M  V30 6956 H 677.918 -1.02103 -2.76874 0
M  V30 6957 H 677.999 -2.14037 -1.40077 0
M  V30 6958 H 677.643 -4.09348 -3.00661 0
M  V30 6959 H 677.573 -2.94421 -4.36605 0
M  V30 6960 H 680.064 -2.43536 -2.88961 0
M  V30 6961 H 680.377 -5.44207 -5.48688 0
M  V30 6962 H 678.722 -4.88926 -4.93939 0
M  V30 6963 H 681.913 -3.08058 -3.52445 0
M  V30 6964 H 682.086 -4.4515 -4.70898 0
M  V30 6965 N 675.492 1.28418 -0.913599 0
M  V30 6966 C 676.439 2.27301 -0.400373 0
M  V30 6967 C 677.409 1.57582 0.52509 0
M  V30 6968 O 678.594 1.85482 0.447318 0
M  V30 6969 C 675.734 3.43284 0.35361 0
M  V30 6970 C 674.847 4.27752 -0.604341 0
M  V30 6971 C 673.982 5.30934 0.168075 0
M  V30 6972 C 673.021 6.07065 -0.783499 0
M  V30 6973 N 672.158 7.02086 -0.0446112 0
M  V30 6974 H 676.998 2.70579 -1.24865 0
M  V30 6975 H 674.535 1.33067 -0.627028 0
M  V30 6976 H 676.493 4.09322 0.806945 0
M  V30 6977 H 675.123 3.00997 1.16623 0
M  V30 6978 H 674.175 3.61759 -1.17621 0
M  V30 6979 H 675.487 4.80682 -1.33216 0
M  V30 6980 H 674.641 6.02855 0.681979 0
M  V30 6981 H 673.38 4.78771 0.928947 0
M  V30 6982 H 672.385 5.33995 -1.30878 0
M  V30 6983 H 673.61 6.61317 -1.54392 0
M  V30 6984 H 671.556 6.52273 0.698272 0
M  V30 6985 H 671.473 7.52637 -0.712258 0
M  V30 6986 H 672.741 7.78205 0.449102 0
M  V30 6987 N 676.97 0.677563 1.42291 0
M  V30 6988 C 678.198 0.209459 2.05837 0
M  V30 6989 C 678.613 -1.13444 1.50917 0
M  V30 6990 O 677.97 -1.70529 0.65008 0
M  V30 6991 C 678.021 0.138819 3.61233 0
M  V30 6992 O 677.742 1.42962 4.14118 0
M  V30 6993 C 679.243 -0.352449 4.41897 0
M  V30 6994 H 676.463 0.101209 0.663323 0
M  V30 6995 H 679.007 0.925077 1.8238 0
M  V30 6996 H 677.162 -0.527505 3.83792 0
M  V30 6997 H 677.576 1.3048 5.08011 0
M  V30 6998 H 679.05 -0.350778 5.50884 0
M  V30 6999 H 679.527 -1.3882 4.16684 0
M  V30 7000 H 680.133 0.282236 4.24362 0
M  V30 7001 N 678.448 -1.51871 0.421078 0
M  V30 7002 C 679.395 -2.27334 -0.398508 0
M  V30 7003 C 680.365 -1.30241 -1.03085 0
M  V30 7004 O 681.55 -1.59121 -1.05285 0
M  V30 7005 C 678.69 -3.10664 -1.50272 0
M  V30 7006 C 677.803 -4.2273 -0.890122 0
M  V30 7007 C 676.938 -4.93399 -1.96803 0
M  V30 7008 C 675.977 -5.97409 -1.333 0
M  V30 7009 N 675.114 -6.61548 -2.35156 0
M  V30 7010 H 679.954 -2.96938 0.251411 0
M  V30 7011 H 677.491 -1.46472 0.135825 0
M  V30 7012 H 679.449 -3.57292 -2.15403 0
M  V30 7013 H 678.079 -2.43207 -2.1225 0
M  V30 7014 H 677.131 -3.80186 -0.127537 0
M  V30 7015 H 678.443 -4.97302 -0.386349 0
M  V30 7016 H 677.597 -5.43491 -2.69633 0
M  V30 7017 H 676.336 -4.18421 -2.50549 0
M  V30 7018 H 675.341 -5.46624 -0.59008 0
M  V30 7019 H 676.566 -6.74335 -0.803076 0
M  V30 7020 H 674.512 -5.89394 -2.88012 0
M  V30 7021 H 674.429 -7.31832 -1.89624 0
M  V30 7022 H 675.697 -7.16276 -3.0752 0
M  V30 7023 N 679.926 -0.151884 -1.56866 0
M  V30 7024 C 681.166 0.500695 -1.98173 0
M  V30 7025 C 681.53 1.61715 -1.03499 0
M  V30 7026 O 682.731 2.33093 -1.33869 0
M  V30 7027 C 681.002 0.989333 -3.43434 0
M  V30 7028 S 682.561 1.64583 -4.06765 0
M  V30 7029 H 679.379 0.16173 -0.692361 0
M  V30 7030 H 681.981 -0.244754 -1.93962 0
M  V30 7031 H 680.685 0.166072 -4.10064 0
M  V30 7032 H 680.216 1.76929 -3.51368 0
M  V30 7033 H 682.231 2.93326 -4.00218 0
M  V30 7034 N 681.404 1.57128 0.121893 0
M  V30 7035 C 682.65 1.84974 0.831418 0
M  V30 7036 C 682.983 0.737204 1.79663 0
M  V30 7037 O 682.258 -0.257199 1.92792 0
M  V30 7038 C 682.541 3.23397 1.58386 0
M  V30 7039 C 682.394 4.45246 0.638445 0
M  V30 7040 C 683.713 3.59355 2.54071 0
M  V30 7041 H 680.832 0.67282 0.300803 0
M  V30 7042 H 683.474 1.89759 0.0957587 0
M  V30 7043 H 681.624 3.19449 2.21098 0
M  V30 7044 H 683.296 4.61295 0.0203925 0
M  V30 7045 H 681.539 4.33771 -0.05023 0
M  V30 7046 H 682.21 5.38765 1.20151 0
M  V30 7047 H 684.686 3.64075 2.01465 0
M  V30 7048 H 683.562 4.57193 3.03752 0
M  V30 7049 H 683.823 2.86622 3.36601 0
M  V30 7050 N 682.882 -0.391992 1.52647 0
M  V30 7051 C 683.815 -1.50019 1.71958 0
M  V30 7052 C 684.793 -1.5238 0.567365 0
M  V30 7053 O 685.977 -1.70831 0.796806 0
M  V30 7054 C 683.104 -2.88496 1.77447 0
M  V30 7055 C 682.15 -3.03974 2.99169 0
M  V30 7056 S 682.983 -2.75487 4.59203 0
M  V30 7057 C 684.139 -4.16163 4.67503 0
M  V30 7058 H 684.372 -1.33413 2.65685 0
M  V30 7059 H 681.905 -0.584674 1.42902 0
M  V30 7060 H 683.863 -3.68296 1.81296 0
M  V30 7061 H 682.524 -3.02431 0.848188 0
M  V30 7062 H 681.717 -4.05328 2.99542 0
M  V30 7063 H 681.319 -2.32062 2.93297 0
M  V30 7064 H 683.611 -5.10048 4.45934 0
M  V30 7065 H 684.554 -4.20806 5.69498 0
M  V30 7066 H 684.962 -4.01933 3.96371 0
M  V30 7067 N 684.36 -1.4356 -0.65026 0
M  V30 7068 C 685.307 -1.48948 -1.76304 0
M  V30 7069 C 686.277 -0.338919 -1.62605 0
M  V30 7070 O 687.462 -0.54649 -1.82806 0
M  V30 7071 C 684.602 -1.42131 -3.14472 0
M  V30 7072 C 683.715 -2.67415 -3.39284 0
M  V30 7073 C 682.85 -2.52565 -4.67316 0
M  V30 7074 C 681.889 -3.73103 -4.85243 0
M  V30 7075 N 681.026 -3.57046 -6.04535 0
M  V30 7076 H 685.866 -2.44032 -1.71034 0
M  V30 7077 H 683.403 -1.21131 -0.834601 0
M  V30 7078 H 685.361 -1.36172 -3.94351 0
M  V30 7079 H 683.991 -0.506273 -3.18805 0
M  V30 7080 H 683.043 -2.8364 -2.53481 0
M  V30 7081 H 684.355 -3.56943 -3.48415 0
M  V30 7082 H 683.509 -2.44331 -5.55326 0
M  V30 7083 H 682.248 -1.60566 -4.60511 0
M  V30 7084 H 681.253 -3.81743 -3.95667 0
M  V30 7085 H 682.478 -4.66115 -4.93876 0
M  V30 7086 H 680.424 -2.67783 -5.98856 0
M  V30 7087 H 680.341 -4.40178 -6.14638 0
M  V30 7088 H 681.609 -3.52669 -6.95158 0
M  V30 7089 N 685.838 0.888903 -1.30139 0
M  V30 7090 C 686.771 1.99655 -1.10514 0
M  V30 7091 C 687.749 1.62594 -0.0138934 0
M  V30 7092 O 688.933 1.87762 -0.166689 0
M  V30 7093 C 686.06 3.31708 -0.684655 0
M  V30 7094 C 685.106 3.87755 -1.77619 0
M  V30 7095 S 685.939 4.15532 -3.37777 0
M  V30 7096 C 687.095 5.5061 -2.97622 0
M  V30 7097 H 687.328 2.15996 -2.04287 0
M  V30 7098 H 684.861 1.03682 -1.14409 0
M  V30 7099 H 686.819 4.08039 -0.448782 0
M  V30 7100 H 685.48 3.1323 0.233648 0
M  V30 7101 H 684.673 4.83164 -1.43417 0
M  V30 7102 H 684.275 3.18149 -1.96614 0
M  V30 7103 H 686.567 6.31518 -2.45338 0
M  V30 7104 H 687.51 5.89747 -3.91924 0
M  V30 7105 H 687.918 5.12983 -2.35603 0
M  V30 7106 N 687.317 1.12792 1.10072 0
M  V30 7107 C 688.563 0.886857 1.82381 0
M  V30 7108 C 688.896 -0.58576 1.85155 0
M  V30 7109 O 688.171 -1.43317 1.31493 0
M  V30 7110 C 688.454 1.46703 3.28862 0
M  V30 7111 C 688.307 3.00829 3.34398 0
M  V30 7112 C 689.626 1.12971 4.25353 0
M  V30 7113 H 686.745 0.32362 0.662148 0
M  V30 7114 H 689.387 1.39513 1.28982 0
M  V30 7115 H 687.537 1.03476 3.74466 0
M  V30 7116 H 689.209 3.52764 2.97247 0
M  V30 7117 H 687.452 3.36164 2.74183 0
M  V30 7118 H 688.123 3.36519 4.3756 0
M  V30 7119 H 690.599 1.50313 3.88001 0
M  V30 7120 H 689.475 1.56223 5.26199 0
M  V30 7121 H 689.736 0.0424452 4.4208 0
M  V30 7122 N 688.795 -1.27931 0.920396 0
M  V30 7123 C 690.035 -1.96459 0.564198 0
M  V30 7124 C 690.399 -1.70802 -0.876967 0
M  V30 7125 O 691.6 -2.32956 -1.34107 0
M  V30 7126 C 689.871 -3.46583 0.872641 0
M  V30 7127 S 691.43 -4.34343 0.623859 0
M  V30 7128 H 688.248 -0.679735 0.208523 0
M  V30 7129 H 690.85 -1.55319 1.18727 0
M  V30 7130 H 689.554 -3.62753 1.91933 0
M  V30 7131 H 689.085 -3.92677 0.238479 0
M  V30 7132 H 691.1 -4.93449 -0.521744 0
M  V30 7133 N 690.273 -0.685099 -1.4193 0
M  V30 7134 C 691.236 -0.0222632 -2.29189 0
M  V30 7135 C 692.236 0.7186 -1.4385 0
M  V30 7136 O 693.426 0.555058 -1.6512 0
M  V30 7137 C 690.558 0.979013 -3.2654 0
M  V30 7138 H 691.751 -0.790424 -2.89296 0
M  V30 7139 H 689.304 -0.448012 -1.49742 0
M  V30 7140 H 690.039 1.77531 -2.71392 0
M  V30 7141 H 689.824 0.451037 -3.89497 0
M  V30 7142 H 691.314 1.44091 -3.91954 0
M  V30 7143 N 691.751 1.51645 -0.429126 0
M  V30 7144 C 692.699 2.29119 0.400921 0
M  V30 7145 C 693.693 1.34628 1.02819 0
M  V30 7146 O 694.899 1.52004 0.964098 0
M  V30 7147 H 691.274 0.737273 0.148095 0
M  V30 7148 H 693.245 2.97144 -0.273457 0
M  V30 7149 C 691.994 3.13953 1.49429 0
M  V30 7150 H 691.317 3.86544 1.02097 0
M  V30 7151 H 692.757 3.71232 2.04849 0
M  V30 7152 C 691.216 2.28796 2.47293 0
M  V30 7153 O 691.746 1.94193 3.51642 0
M  V30 7154 N 689.952 1.92177 2.17982 0
M  V30 7155 H 689.499 2.20517 1.33154 0
M  V30 7156 H 689.457 1.35497 2.83704 0
M  V30 7157 N 693.229 0.160201 1.56784 0
M  V30 7158 C 694.176 -0.774416 2.1742 0
M  V30 7159 C 695.146 -1.23483 1.11091 0
M  V30 7160 O 696.331 -1.30499 1.39193 0
M  V30 7161 C 693.471 -2.00283 2.81035 0
M  V30 7162 C 692.584 -1.58701 4.01793 0
M  V30 7163 C 691.719 -2.76824 4.53367 0
M  V30 7164 C 690.758 -2.31679 5.66561 0
M  V30 7165 N 689.895 -3.42856 6.12694 0
M  V30 7166 H 694.735 -0.250542 2.96945 0
M  V30 7167 H 692.272 -0.111943 1.46673 0
M  V30 7168 H 694.23 -2.72316 3.16069 0
M  V30 7169 H 692.86 -2.5006 2.04132 0
M  V30 7170 H 691.912 -0.76384 3.72652 0
M  V30 7171 H 693.224 -1.21555 4.83762 0
M  V30 7172 H 692.378 -3.57029 4.90525 0
M  V30 7173 H 691.117 -3.17223 3.70433 0
M  V30 7174 H 690.122 -1.49917 5.28966 0
M  V30 7175 H 691.347 -1.9235 6.5129 0
M  V30 7176 H 689.293 -3.82852 5.32692 0
M  V30 7177 H 689.21 -3.09767 6.89624 0
M  V30 7178 H 690.478 -4.23379 6.545 0
M  V30 7179 N 694.707 -1.5719 -0.113559 0
M  V30 7180 C 695.617 -2.04041 -1.15777 0
M  V30 7181 C 696.633 -0.961812 -1.45001 0
M  V30 7182 O 697.809 -1.2737 -1.56009 0
M  V30 7183 C 694.874 -2.43994 -2.46308 0
M  V30 7184 C 693.935 -3.65962 -2.24433 0
M  V30 7185 C 693.168 -4.04 -3.4874 0
M  V30 7186 O 693.391 -3.42321 -4.56259 0
M  V30 7187 O 692.325 -4.97069 -3.3942 0
M  V30 7188 H 696.151 -2.93248 -0.789899 0
M  V30 7189 H 693.736 -1.45828 -0.324748 0
M  V30 7190 H 695.618 -2.70401 -3.23204 0
M  V30 7191 H 694.293 -1.57932 -2.82558 0
M  V30 7192 H 693.2 -3.44697 -1.45377 0
M  V30 7193 H 694.533 -4.52746 -1.93084 0
M  V30 7194 N 696.185 0.383891 -1.52853 0
M  V30 7195 C 697.095 1.49343 -1.80925 0
M  V30 7196 C 698.111 1.59458 -0.696348 0
M  V30 7197 O 699.287 1.75698 -0.984481 0
M  V30 7198 C 696.352 2.84819 -1.97684 0
M  V30 7199 C 695.413 2.84382 -3.21598 0
M  V30 7200 C 694.646 4.13397 -3.37548 0
M  V30 7201 O 694.869 5.08619 -2.58192 0
M  V30 7202 O 693.803 4.20325 -4.30826 0
M  V30 7203 H 697.629 1.2855 -2.75152 0
M  V30 7204 H 695.214 0.572229 -1.38007 0
M  V30 7205 H 697.096 3.65125 -2.10385 0
M  V30 7206 H 695.771 3.05627 -1.06647 0
M  V30 7207 H 694.678 2.0284 -3.14336 0
M  V30 7208 H 696.011 2.68526 -4.12498 0
M  V30 7209 N 697.663 1.43903 0.642637 0
M  V30 7210 C 698.61 1.49881 1.75512 0
M  V30 7211 C 699.58 0.347538 1.62423 0
M  V30 7212 O 700.765 0.556177 1.82514 0
M  V30 7213 C 697.905 1.43797 3.13714 0
M  V30 7214 C 697.018 2.6921 3.37861 0
M  V30 7215 C 696.153 2.5504 4.6597 0
M  V30 7216 C 695.192 3.75671 4.83257 0
M  V30 7217 N 694.329 3.60247 6.02633 0
M  V30 7218 H 699.169 2.44935 1.69737 0
M  V30 7219 H 696.706 1.21572 0.828165 0
M  V30 7220 H 698.664 1.38262 3.93624 0
M  V30 7221 H 697.294 0.523173 3.18532 0
M  V30 7222 H 696.346 2.8498 2.51973 0
M  V30 7223 H 697.658 3.58786 3.46517 0
M  V30 7224 H 696.812 2.47273 5.54023 0
M  V30 7225 H 695.551 1.63006 4.59653 0
M  V30 7226 H 694.556 3.83836 3.93637 0
M  V30 7227 H 695.781 4.68728 4.91397 0
M  V30 7228 H 693.727 2.70955 5.97427 0
M  V30 7229 H 693.644 4.43431 6.12295 0
M  V30 7230 H 694.912 3.56351 6.93278 0
M  V30 7231 N 699.141 -0.881989 1.30609 0
M  V30 7232 C 700.387 -1.63647 1.19781 0
M  V30 7233 C 700.72 -1.92632 -0.246265 0
M  V30 7234 O 699.995 -1.54938 -1.17577 0
M  V30 7235 C 700.278 -2.97437 2.02985 0
M  V30 7236 C 700.131 -2.75406 3.55628 0
M  V30 7237 C 701.45 -3.98397 1.86997 0
M  V30 7238 H 698.569 -0.593841 0.436488 0
M  V30 7239 H 701.211 -1.02041 1.60273 0
M  V30 7240 H 699.361 -3.50018 1.68581 0
M  V30 7241 H 701.033 -2.2959 4.00107 0
M  V30 7242 H 699.276 -2.09856 3.79662 0
M  V30 7243 H 699.947 -3.70552 4.09139 0
M  V30 7244 H 702.423 -3.54986 2.17081 0
M  V30 7245 H 701.299 -4.89916 2.47536 0
M  V30 7246 H 701.56 -4.3424 0.829943 0
M  V30 7247 N 700.619 -1.13374 -1.09472 0
M  V30 7248 C 701.865 -0.896516 -1.81908 0
M  V30 7249 C 702.198 0.575933 -1.85463 0
M  V30 7250 O 701.473 1.42618 -1.32251 0
M  V30 7251 C 701.756 -1.48445 -3.28079 0
M  V30 7252 C 701.609 -3.02598 -3.32798 0
M  V30 7253 C 702.928 -1.15226 -4.24748 0
M  V30 7254 H 700.047 -0.327127 -0.660422 0
M  V30 7255 H 702.689 -1.40195 -1.2824 0
M  V30 7256 H 700.839 -1.0546 -3.73912 0
M  V30 7257 H 702.511 -3.54335 -2.95372 0
M  V30 7258 H 700.754 -3.37613 -2.72397 0
M  V30 7259 H 701.425 -3.38835 -4.3577 0
M  V30 7260 H 703.901 -1.52369 -3.87199 0
M  V30 7261 H 702.777 -1.59012 -5.25363 0
M  V30 7262 H 703.038 -0.0658891 -4.42051 0
M  V30 7263 N 702.098 1.27442 -0.927168 0
M  V30 7264 C 703.346 1.94007 -0.566203 0
M  V30 7265 C 703.667 1.7323 0.895345 0
M  V30 7266 O 702.937 1.07973 1.63459 0
M  V30 7267 H 701.517 0.717917 -0.206409 0
M  V30 7268 H 704.179 1.55161 -1.17945 0
M  V30 7269 H 703.275 3.02401 -0.772028 0
M  V30 7270 N 703.576 0.692616 1.41565 0
M  V30 7271 C 704.825 0.219452 2.00503 0
M  V30 7272 C 705.138 -1.18683 1.55479 0
M  V30 7273 O 706.344 -1.75731 2.06956 0
M  V30 7274 C 704.8 0.341451 3.58277 0
M  V30 7275 C 704.408 1.75291 4.12283 0
M  V30 7276 C 706.152 -0.0720899 4.24439 0
M  V30 7277 C 704.059 1.82673 5.62481 0
M  V30 7278 H 702.989 0.0782874 0.749925 0
M  V30 7279 H 705.64 0.860386 1.62079 0
M  V30 7280 H 704.022 -0.367683 3.94289 0
M  V30 7281 H 705.196 2.49057 3.87695 0
M  V30 7282 H 703.511 2.11587 3.58636 0
M  V30 7283 H 706.108 -0.0373385 5.34687 0
M  V30 7284 H 706.451 -1.11034 4.0122 0
M  V30 7285 H 706.984 0.586663 3.9345 0
M  V30 7286 H 703.723 2.84539 5.90523 0
M  V30 7287 H 703.243 1.13288 5.89004 0
M  V30 7288 H 704.922 1.58827 6.27203 0
M  V30 7289 N 705.054 -1.51416 0.437162 0
M  V30 7290 C 706.004 -2.24599 -0.392311 0
M  V30 7291 C 706.988 -1.2682 -0.990221 0
M  V30 7292 O 708.18 -1.51912 -0.908391 0
M  V30 7293 C 705.309 -3.09134 -1.49301 0
M  V30 7294 C 704.395 -4.14342 -0.904503 0
M  V30 7295 N 704.786 -5.0578 -0.0451511 0
M  V30 7296 C 703.084 -4.30323 -1.1721 0
M  V30 7297 C 703.785 -5.81 0.285344 0
M  V30 7298 N 702.761 -5.42591 -0.330993 0
M  V30 7299 H 706.563 -2.92655 0.270221 0
M  V30 7300 H 704.077 -1.60476 0.249226 0
M  V30 7301 H 706.074 -3.6014 -2.10011 0
M  V30 7302 H 704.734 -2.42622 -2.15788 0
M  V30 7303 H 705.745 -5.16903 0.321271 0
M  V30 7304 H 702.422 -3.75037 -1.83448 0
M  V30 7305 H 703.812 -6.64646 0.984626 0
M  V30 7306 N 706.532 -0.168513 -1.56696 0
M  V30 7307 C 707.465 0.801477 -2.13662 0
M  V30 7308 C 708.443 1.22786 -1.06594 0
M  V30 7309 O 709.627 1.32014 -1.34554 0
M  V30 7310 C 706.754 2.07896 -2.6739 0
M  V30 7311 C 705.8 1.79681 -3.86803 0
M  V30 7312 S 706.633 0.968556 -5.26668 0
M  V30 7313 C 707.789 2.25676 -5.83799 0
M  V30 7314 H 708.022 0.317121 -2.95604 0
M  V30 7315 H 705.555 0.0461132 -1.54331 0
M  V30 7316 H 707.513 2.81272 -2.98992 0
M  V30 7317 H 706.174 2.53445 -1.85539 0
M  V30 7318 H 705.367 2.74461 -4.22714 0
M  V30 7319 H 704.969 1.14402 -3.56073 0
M  V30 7320 H 707.261 3.2116 -5.96542 0
M  V30 7321 H 708.204 1.94238 -6.80939 0
M  V30 7322 H 708.612 2.37308 -5.12197 0
M  V30 7323 N 708.01 1.57248 0.105221 0
M  V30 7324 C 708.942 1.98008 1.15436 0
M  V30 7325 C 709.955 0.881236 1.36887 0
M  V30 7326 O 711.144 1.15943 1.35718 0
M  V30 7327 C 708.244 2.27509 2.51183 0
M  V30 7328 C 707.417 3.58811 2.50147 0
M  V30 7329 C 706.476 3.76365 3.67745 0
M  V30 7330 O 705.502 4.48329 3.50699 0
M  V30 7331 N 706.704 3.16174 4.86841 0
M  V30 7332 H 709.469 2.88616 0.807519 0
M  V30 7333 H 707.03 1.59202 0.29433 0
M  V30 7334 H 709.022 2.36455 3.28438 0
M  V30 7335 H 707.592 1.42959 2.77995 0
M  V30 7336 H 706.812 3.60927 1.5851 0
M  V30 7337 H 708.1 4.45088 2.46524 0
M  V30 7338 H 707.498 2.57701 5.03594 0
M  V30 7339 H 706.055 3.30621 5.61723 0
M  V30 7340 N 709.488 -0.375779 1.53054 0
M  V30 7341 C 710.736 -1.11727 1.68409 0
M  V30 7342 C 711.057 -1.90127 0.43323 0
M  V30 7343 O 710.327 -1.87945 -0.552595 0
M  V30 7344 H 708.907 -0.415451 0.620813 0
M  V30 7345 H 711.569 -0.424869 1.90213 0
M  V30 7346 H 710.665 -1.8128 2.54055 0
M  V30 7347 N 710.966 -1.44241 -0.634997 0
M  V30 7348 C 711.896 -1.53632 -1.7584 0
M  V30 7349 C 712.877 -0.389603 -1.65578 0
M  V30 7350 O 714.062 -0.609219 -1.84397 0
M  V30 7351 C 711.192 -1.47644 -3.14354 0
M  V30 7352 C 710.146 -2.60752 -3.394 0
M  V30 7353 C 709.472 -2.39817 -4.77904 0
M  V30 7354 C 710.772 -4.02921 -3.32343 0
M  V30 7355 H 712.466 -2.47662 -1.68238 0
M  V30 7356 H 710.012 -1.19197 -0.807969 0
M  V30 7357 H 711.965 -1.52815 -3.92716 0
M  V30 7358 H 710.689 -0.501284 -3.2273 0
M  V30 7359 H 709.348 -2.54965 -2.63417 0
M  V30 7360 H 708.996 -1.40502 -4.82978 0
M  V30 7361 H 708.696 -3.15649 -4.9562 0
M  V30 7362 H 710.22 -2.46799 -5.585 0
M  V30 7363 H 711.634 -4.10098 -4.00615 0
M  V30 7364 H 710.031 -4.78925 -3.61595 0
M  V30 7365 H 711.101 -4.26766 -2.30215 0
M  V30 7366 N 712.444 0.87505 -1.31075 0
M  V30 7367 C 713.692 1.62447 -1.20231 0
M  V30 7368 C 714.013 1.93506 0.240888 0
M  V30 7369 O 713.283 1.57847 1.16022 0
M  V30 7370 H 711.863 0.602207 -0.441991 0
M  V30 7371 H 714.525 1.04788 -1.64334 0
M  V30 7372 H 713.621 2.57031 -1.77036 0
M  V30 7373 N 713.922 1.13953 1.08869 0
M  V30 7374 C 715.162 0.915128 1.8277 0
M  V30 7375 C 715.526 -0.548647 1.83994 0
M  V30 7376 O 716.727 -0.890817 2.5361 0
M  V30 7377 C 714.998 1.49382 3.24684 0
M  V30 7378 S 716.557 1.4103 4.15519 0
M  V30 7379 H 713.375 0.329716 0.629927 0
M  V30 7380 H 715.977 1.45213 1.30895 0
M  V30 7381 H 714.681 2.55241 3.21372 0
M  V30 7382 H 714.212 0.955008 3.81632 0
M  V30 7383 H 716.227 0.392617 4.94644 0
M  V30 7384 N 715.4 -1.26948 0.933913 0
M  V30 7385 C 716.677 -1.89212 0.495784 0
M  V30 7386 C 717.057 -1.84469 -1.02637 0
M  V30 7387 O 716.405 -1.29409 -1.88323 0
M  V30 7388 C 716.615 -3.32865 1.0489 0
M  V30 7389 C 717.963 -4.09749 1.11315 0
M  V30 7390 O 718.987 -3.41905 0.998966 0
M  V30 7391 O 717.846 -5.31061 1.28983 0
M  V30 7392 H 714.94 -0.811284 0.160459 0
M  V30 7393 H 717.486 -1.35171 1.02601 0
M  V30 7394 H 716.258 -3.30642 2.09265 0
M  V30 7395 H 715.881 -3.94435 0.500692 0
M  V30 7396 N 716.879 -0.700114 -1.41195 0
M  V30 7397 C 717.789 -0.0382854 -2.34569 0
M  V30 7398 C 718.805 0.761036 -1.56474 0
M  V30 7399 O 719.981 0.697553 -1.88934 0
M  V30 7400 C 717.046 0.883522 -3.35253 0
M  V30 7401 C 716.107 0.0758957 -4.29233 0
M  V30 7402 C 715.34 0.9538 -5.25108 0
M  V30 7403 O 715.563 2.19326 -5.26547 0
M  V30 7404 O 714.497 0.401049 -6.00562 0
M  V30 7405 H 718.323 -0.808073 -2.92752 0
M  V30 7406 H 715.908 -0.460479 -1.42127 0
M  V30 7407 H 717.79 1.41199 -3.9704 0
M  V30 7408 H 716.465 1.63272 -2.79506 0
M  V30 7409 H 715.372 -0.497274 -3.7078 0
M  V30 7410 H 716.705 -0.634741 -4.8809 0
M  V30 7411 N 718.357 1.51182 -0.445186 0
M  V30 7412 C 719.29 2.24528 0.4077 0
M  V30 7413 C 720.268 1.26778 1.01814 0
M  V30 7414 O 721.452 1.55934 1.05909 0
M  V30 7415 C 718.579 3.00171 1.56892 0
M  V30 7416 C 717.625 4.12641 1.0784 0
M  V30 7417 S 718.458 5.35498 0.014049 0
M  V30 7418 C 719.614 6.14681 1.17975 0
M  V30 7419 H 719.847 2.96522 -0.214987 0
M  V30 7420 H 717.38 1.52681 -0.229781 0
M  V30 7421 H 719.338 3.44349 2.23459 0
M  V30 7422 H 717.999 2.27752 2.16304 0
M  V30 7423 H 717.192 4.64875 1.94698 0
M  V30 7424 H 716.794 3.70765 0.490852 0
M  V30 7425 H 719.086 6.44244 2.09658 0
M  V30 7426 H 720.029 7.04659 0.697222 0
M  V30 7427 H 720.437 5.46299 1.42187 0
M  V30 7428 N 719.835 0.176821 1.56605 0
M  V30 7429 C 720.765 -0.746841 2.21234 0
M  V30 7430 C 721.746 -1.23502 1.16967 0
M  V30 7431 O 722.931 -1.28718 1.45414 0
M  V30 7432 C 720.061 -1.97407 2.8574 0
M  V30 7433 C 719.015 -1.62153 3.96094 0
M  V30 7434 C 718.341 -2.92387 4.47676 0
M  V30 7435 C 719.641 -0.845353 5.15413 0
M  V30 7436 H 721.335 -0.208116 2.98676 0
M  V30 7437 H 718.881 -0.0986594 1.43662 0
M  V30 7438 H 720.834 -2.62531 3.2963 0
M  V30 7439 H 719.558 -2.53703 2.05676 0
M  V30 7440 H 718.217 -0.993964 3.52868 0
M  V30 7441 H 717.865 -3.46734 3.64396 0
M  V30 7442 H 717.565 -2.69551 5.22127 0
M  V30 7443 H 719.089 -3.5853 4.94255 0
M  V30 7444 H 720.503 -1.39929 5.55961 0
M  V30 7445 H 718.9 -0.715814 5.95815 0
M  V30 7446 H 719.97 0.157239 4.84645 0
M  V30 7447 N 721.313 -1.57302 -0.09688 0
M  V30 7448 C 722.245 -1.98618 -1.14384 0
M  V30 7449 C 723.258 -0.888483 -1.36418 0
M  V30 7450 O 724.447 -1.16661 -1.35101 0
M  V30 7451 C 721.547 -2.28838 -2.49973 0
M  V30 7452 C 720.72 -3.60132 -2.48241 0
M  V30 7453 C 719.779 -3.7831 -3.65743 0
M  V30 7454 O 718.805 -4.50183 -3.48316 0
M  V30 7455 N 720.007 -3.18752 -4.85157 0
M  V30 7456 H 722.772 -2.8904 -0.792202 0
M  V30 7457 H 720.333 -1.59356 -0.285883 0
M  V30 7458 H 722.325 -2.38193 -3.27179 0
M  V30 7459 H 720.895 -1.44431 -2.77233 0
M  V30 7460 H 720.115 -3.61763 -1.56593 0
M  V30 7461 H 721.403 -4.46389 -2.4416 0
M  V30 7462 H 720.801 -2.60368 -5.0222 0
M  V30 7463 H 719.358 -3.33595 -5.59962 0
M  V30 7464 N 722.791 0.367657 -1.53252 0
M  V30 7465 C 724.039 1.10832 -1.68999 0
M  V30 7466 C 724.36 1.89894 -0.443306 0
M  V30 7467 O 723.63 1.88235 0.54262 0
M  V30 7468 H 722.21 0.412153 -0.623008 0
M  V30 7469 H 724.872 0.414775 -1.90435 0
M  V30 7470 H 723.968 1.7993 -2.55013 0
M  V30 7471 N 724.269 1.44576 0.627338 0
M  V30 7472 C 725.516 1.47558 1.38682 0
M  V30 7473 C 725.844 0.109636 1.94191 0
M  V30 7474 O 725.099 -0.889092 1.74338 0
M  V30 7475 C 725.398 2.48644 2.56731 0
M  V30 7476 C 725.064 3.93873 2.19489 0
M  V30 7477 C 723.726 4.33421 2.09045 0
M  V30 7478 C 726.078 4.85286 1.90124 0
M  V30 7479 C 723.406 5.62303 1.6743 0
M  V30 7480 C 725.758 6.14559 1.50001 0
M  V30 7481 C 724.422 6.53058 1.38101 0
M  V30 7482 H 723.692 0.539955 0.507474 0
M  V30 7483 H 726.339 1.77811 0.711021 0
M  V30 7484 H 724.644 2.11889 3.29561 0
M  V30 7485 H 726.341 2.48197 3.14959 0
M  V30 7486 H 722.931 3.62587 2.28537 0
M  V30 7487 H 727.115 4.55483 1.971 0
M  V30 7488 H 722.371 5.90945 1.56823 0
M  V30 7489 H 726.545 6.84848 1.26319 0
M  V30 7490 H 724.172 7.52826 1.05628 0
M  V30 7491 N 725.747 -0.868086 1.31537 0
M  V30 7492 C 726.71 -1.95703 1.19302 0
M  V30 7493 C 727.71 -1.60355 0.119612 0
M  V30 7494 O 728.9 -1.70247 0.36902 0
M  V30 7495 C 726.032 -3.30599 0.831684 0
M  V30 7496 H 727.225 -2.07982 2.16064 0
M  V30 7497 H 724.778 -1.05661 1.15176 0
M  V30 7498 H 725.513 -3.2402 -0.134694 0
M  V30 7499 H 725.298 -3.57629 1.60761 0
M  V30 7500 H 726.788 -4.10439 0.770026 0
M  V30 7501 N 727.225 -1.14528 -1.08264 0
M  V30 7502 C 728.471 -0.91576 -1.80947 0
M  V30 7503 C 728.804 0.55623 -1.86064 0
M  V30 7504 O 728.079 1.41207 -1.33756 0
M  V30 7505 C 728.362 -1.51917 -3.26486 0
M  V30 7506 C 728.215 -3.06111 -3.2957 0
M  V30 7507 C 729.534 -1.19724 -4.23502 0
M  V30 7508 H 726.653 -0.334113 -0.656915 0
M  V30 7509 H 729.295 -1.41547 -1.26746 0
M  V30 7510 H 727.445 -1.0942 -3.72773 0
M  V30 7511 H 729.117 -3.57448 -2.91597 0
M  V30 7512 H 727.36 -3.40483 -2.688 0
M  V30 7513 H 728.031 -3.43438 -4.32151 0
M  V30 7514 H 730.507 -1.56467 -3.85561 0
M  V30 7515 H 729.383 -1.64575 -5.23647 0
M  V30 7516 H 729.644 -0.112771 -4.41956 0
M  V30 7517 N 728.703 1.26451 -0.940633 0
M  V30 7518 C 729.666 2.24651 -0.454378 0
M  V30 7519 C 730.666 1.54826 0.434222 0
M  V30 7520 O 731.856 1.72628 0.233477 0
M  V30 7521 C 728.988 3.39148 0.345192 0
M  V30 7522 H 730.181 2.69182 -1.32217 0
M  V30 7523 H 727.734 1.38596 -0.722547 0
M  V30 7524 H 728.469 3.00018 1.23125 0
M  V30 7525 H 728.254 3.9101 -0.292107 0
M  V30 7526 H 729.744 4.12103 0.675341 0
M  V30 7527 N 730.181 0.707592 1.40822 0
M  V30 7528 C 731.427 0.244031 2.01326 0
M  V30 7529 C 731.76 -1.15722 1.55955 0
M  V30 7530 O 731.035 -1.78347 0.776044 0
M  V30 7531 C 731.318 0.315128 3.58718 0
M  V30 7532 C 731.171 1.75419 4.14184 0
M  V30 7533 C 732.49 -0.318251 4.38948 0
M  V30 7534 H 729.609 0.0901471 0.731466 0
M  V30 7535 H 732.251 0.898584 1.67408 0
M  V30 7536 H 730.401 -0.242176 3.87744 0
M  V30 7537 H 732.073 2.36626 3.95987 0
M  V30 7538 H 730.316 2.28449 3.68773 0
M  V30 7539 H 730.987 1.75538 5.23345 0
M  V30 7540 H 733.463 0.156514 4.15806 0
M  V30 7541 H 732.339 -0.238019 5.48384 0
M  V30 7542 H 732.6 -1.40067 4.19325 0
M  V30 7543 N 731.66 -1.50943 0.453197 0
M  V30 7544 C 732.607 -2.28128 -0.350197 0
M  V30 7545 C 733.577 -1.32398 -1.00299 0
M  V30 7546 O 734.762 -1.61319 -1.01887 0
M  V30 7547 C 731.902 -3.13782 -1.43649 0
M  V30 7548 C 731.015 -4.24523 -0.800255 0
M  V30 7549 C 730.15 -4.97462 -1.86293 0
M  V30 7550 C 729.189 -6.00102 -1.20598 0
M  V30 7551 N 728.326 -6.66387 -2.21071 0
M  V30 7552 H 733.166 -2.96337 0.31434 0
M  V30 7553 H 730.703 -1.46151 0.166863 0
M  V30 7554 H 732.661 -3.6178 -2.07776 0
M  V30 7555 H 731.291 -2.47655 -2.07044 0
M  V30 7556 H 730.343 -3.80371 -0.0468651 0
M  V30 7557 H 731.655 -4.98009 -0.280777 0
M  V30 7558 H 730.809 -5.49088 -2.58044 0
M  V30 7559 H 729.548 -4.23642 -2.41617 0
M  V30 7560 H 728.553 -5.47753 -0.474 0
M  V30 7561 H 729.778 -6.75887 -0.659859 0
M  V30 7562 H 727.724 -5.9537 -2.75446 0
M  V30 7563 H 727.641 -7.3569 -1.74058 0
M  V30 7564 H 728.909 -7.22638 -2.92257 0
M  V30 7565 N 733.138 -0.185124 -1.56509 0
M  V30 7566 C 734.071 0.77877 -2.145 0
M  V30 7567 C 735.049 1.21649 -1.07891 0
M  V30 7568 O 736.233 1.30579 -1.35946 0
M  V30 7569 C 733.36 2.05048 -2.69579 0
M  V30 7570 C 732.406 1.75569 -3.88687 0
M  V30 7571 S 733.239 0.912642 -5.27666 0
M  V30 7572 C 734.395 2.19471 -5.8616 0
M  V30 7573 H 734.628 0.285751 -2.95924 0
M  V30 7574 H 732.161 0.0297417 -1.54371 0
M  V30 7575 H 734.119 2.78085 -3.01958 0
M  V30 7576 H 732.78 2.51462 -1.88216 0
M  V30 7577 H 731.973 2.69962 -4.25601 0
M  V30 7578 H 731.575 1.10619 -3.57267 0
M  V30 7579 H 733.867 3.14815 -5.99915 0
M  V30 7580 H 734.81 1.87005 -6.8296 0
M  V30 7581 H 735.218 2.31862 -5.14685 0
M  V30 7582 N 734.616 1.57351 0.0885366 0
M  V30 7583 C 735.864 1.86051 0.789262 0
M  V30 7584 C 736.185 0.774763 1.78948 0
M  V30 7585 O 735.455 -0.198324 1.94894 0
M  V30 7586 H 734.035 0.686508 0.294475 0
M  V30 7587 H 736.697 1.94779 0.0686055 0
M  V30 7588 H 735.793 2.83007 1.31581 0
M  V30 7589 N 736.094 -0.359525 1.53444 0
M  V30 7590 C 737.057 -1.42357 1.7963 0
M  V30 7591 C 738.057 -1.46319 0.666884 0
M  V30 7592 O 739.247 -1.46974 0.935113 0
M  V30 7593 C 736.379 -2.81425 1.92387 0
M  V30 7594 H 737.572 -1.20409 2.74666 0
M  V30 7595 H 735.125 -0.593007 1.44614 0
M  V30 7596 H 735.86 -3.08679 0.994384 0
M  V30 7597 H 735.645 -2.79947 2.74539 0
M  V30 7598 H 737.135 -3.5847 2.14218 0
M  V30 7599 N 737.572 -1.44907 -0.619662 0
M  V30 7600 C 738.8 -1.51795 -1.40591 0
M  V30 7601 C 739.215 -0.146553 -1.8823 0
M  V30 7602 O 738.572 0.849698 -1.61513 0
M  V30 7603 C 738.623 -2.49229 -2.61853 0
M  V30 7604 O 738.344 -3.81039 -2.16197 0
M  V30 7605 C 739.845 -2.65696 -3.54853 0
M  V30 7606 H 737.065 -0.514463 -0.430777 0
M  V30 7607 H 739.609 -1.8998 -0.756813 0
M  V30 7608 H 737.764 -2.14149 -3.2283 0
M  V30 7609 H 738.178 -4.33747 -2.94896 0
M  V30 7610 H 739.652 -3.37874 -4.36515 0
M  V30 7611 H 740.129 -1.71316 -4.0441 0
M  V30 7612 H 740.735 -3.01724 -2.99737 0
M  V30 7613 N 739.05 0.861098 -1.31996 0
M  V30 7614 C 739.997 1.96912 -1.20392 0
M  V30 7615 C 740.967 1.65869 -0.0875899 0
M  V30 7616 O 742.152 1.88992 -0.262011 0
M  V30 7617 C 739.292 3.32435 -0.926335 0
M  V30 7618 C 738.405 3.76018 -2.12684 0
M  V30 7619 C 737.54 5.00301 -1.78529 0
M  V30 7620 C 736.579 5.36357 -2.94937 0
M  V30 7621 N 735.716 6.51818 -2.60917 0
M  V30 7622 H 740.556 2.06169 -2.1517 0
M  V30 7623 H 738.093 1.00917 -1.07024 0
M  V30 7624 H 740.051 4.10478 -0.745917 0
M  V30 7625 H 738.681 3.22796 -0.0153578 0
M  V30 7626 H 737.733 2.93683 -2.41774 0
M  V30 7627 H 739.045 3.98664 -2.99781 0
M  V30 7628 H 738.199 5.86034 -1.57001 0
M  V30 7629 H 736.938 4.79578 -0.886356 0
M  V30 7630 H 735.943 4.49139 -3.17103 0
M  V30 7631 H 737.168 5.59041 -3.85552 0
M  V30 7632 H 735.114 6.32624 -1.73558 0
M  V30 7633 H 735.031 6.7445 -3.41544 0
M  V30 7634 H 736.299 7.4072 -2.42804 0
M  V30 7635 N 740.528 1.15101 1.07655 0
M  V30 7636 C 741.491 0.847625 2.12951 0
M  V30 7637 C 742.491 -0.151227 1.60087 0
M  V30 7638 O 743.681 0.0780399 1.74025 0
M  V30 7639 C 740.813 0.265 3.39868 0
M  V30 7640 H 742.006 1.7809 2.41296 0
M  V30 7641 H 739.559 0.958072 1.23494 0
M  V30 7642 H 740.294 -0.676625 3.17163 0
M  V30 7643 H 740.079 0.984554 3.79538 0
M  V30 7644 H 741.569 0.0702121 4.17541 0
M  V30 7645 N 742.006 -1.2595 0.947325 0
M  V30 7646 C 743.283 -1.88676 0.515824 0
M  V30 7647 C 743.663 -1.85547 -1.00675 0
M  V30 7648 O 743.011 -1.31399 -1.8694 0
M  V30 7649 C 743.221 -3.31734 1.08415 0
M  V30 7650 C 744.569 -4.08545 1.15654 0
M  V30 7651 O 745.593 -3.40826 1.03517 0
M  V30 7652 O 744.452 -5.29663 1.34608 0
M  V30 7653 H 741.546 -0.809537 0.169055 0
M  V30 7654 H 744.092 -1.34075 1.04029 0
M  V30 7655 H 742.864 -3.28404 2.1276 0
M  V30 7656 H 742.487 -3.93882 0.542499 0
M  V30 7657 N 743.484 -0.715051 -1.40445 0
M  V30 7658 C 744.731 -0.254328 -2.00897 0
M  V30 7659 C 745.059 1.15228 -1.56693 0
M  V30 7660 O 744.314 1.7958 -0.777786 0
M  V30 7661 C 744.613 -0.281791 -3.56287 0
M  V30 7662 C 744.279 -1.63862 -4.20071 0
M  V30 7663 C 742.941 -2.01003 -4.37208 0
M  V30 7664 C 745.293 -2.53039 -4.55654 0
M  V30 7665 C 742.621 -3.26869 -4.8721 0
M  V30 7666 C 744.973 -3.78256 -5.07055 0
M  V30 7667 C 743.637 -4.15515 -5.22401 0
M  V30 7668 H 742.907 -0.0930652 -0.735133 0
M  V30 7669 H 745.554 -0.917977 -1.68064 0
M  V30 7670 H 743.859 0.465428 -3.89026 0
M  V30 7671 H 745.556 0.0925158 -4.00893 0
M  V30 7672 H 742.146 -1.33979 -4.07121 0
M  V30 7673 H 746.33 -2.2562 -4.42051 0
M  V30 7674 H 741.586 -3.55706 -4.97276 0
M  V30 7675 H 745.76 -4.47528 -5.33565 0
M  V30 7676 H 743.387 -5.13114 -5.60909 0
M  V30 7677 N 744.962 1.50701 -0.461195 0
M  V30 7678 C 746.239 1.94958 0.158296 0
M  V30 7679 C 746.619 1.40111 1.57899 0
M  V30 7680 O 745.967 0.597976 2.20537 0
M  V30 7681 C 746.177 3.48821 0.11172 0
M  V30 7682 C 747.525 4.23499 0.30552 0
M  V30 7683 O 748.549 3.557 0.188758 0
M  V30 7684 O 747.408 5.43823 0.540244 0
M  V30 7685 H 744.502 0.818674 0.117054 0
M  V30 7686 H 747.048 1.61508 -0.520888 0
M  V30 7687 H 745.82 3.81263 -0.880577 0
M  V30 7688 H 745.443 3.88781 0.832791 0
M  V30 7689 N 746.441 0.193421 1.56409 0
M  V30 7690 C 747.389 -0.744829 2.20352 0
M  V30 7691 C 748.383 -1.22104 1.17418 0
M  V30 7692 O 749.589 -1.18413 1.35567 0
M  V30 7693 H 745.964 -0.258538 0.70616 0
M  V30 7694 H 747.935 -0.181794 2.97846 0
M  V30 7695 C 746.684 -1.95453 2.87565 0
M  V30 7696 H 746.007 -1.59716 3.66512 0
M  V30 7697 H 747.447 -2.58942 3.35745 0
M  V30 7698 C 745.906 -2.79223 1.8851 0
M  V30 7699 O 746.436 -3.77093 1.38434 0
M  V30 7700 N 744.642 -2.44682 1.56777 0
M  V30 7701 H 744.189 -1.65153 1.97692 0
M  V30 7702 H 744.147 -3.01016 0.907573 0
M  V30 7703 N 747.919 -1.57396 -0.0801906 0
M  V30 7704 C 749.147 -1.91055 -0.794075 0
M  V30 7705 C 749.562 -0.788583 -1.71542 0
M  V30 7706 O 748.919 0.238587 -1.80934 0
M  V30 7707 C 748.97 -3.24418 -1.59484 0
M  V30 7708 O 748.691 -4.323 -0.710532 0
M  V30 7709 C 750.192 -3.72037 -2.41046 0
M  V30 7710 H 747.412 -0.63171 -0.226238 0
M  V30 7711 H 749.956 -2.04431 -0.0529685 0
M  V30 7712 H 748.111 -3.12595 -2.2883 0
M  V30 7713 H 748.525 -5.08976 -1.26663 0
M  V30 7714 H 749.999 -4.68006 -2.92702 0
M  V30 7715 H 750.476 -3.00624 -3.2019 0
M  V30 7716 H 751.082 -3.86777 -1.76871 0
M  V30 7717 N 749.397 0.351382 -1.53633 0
M  V30 7718 C 750.643 1.09411 -1.70754 0
M  V30 7719 C 750.976 1.88544 -0.465293 0
M  V30 7720 O 750.251 1.86923 0.537608 0
M  V30 7721 C 750.534 2.04173 -2.96623 0
M  V30 7722 C 750.387 1.28556 -4.31038 0
M  V30 7723 C 751.706 3.04102 -3.18136 0
M  V30 7724 H 748.825 0.396373 -0.621335 0
M  V30 7725 H 751.467 0.373464 -1.86293 0
M  V30 7726 H 749.617 2.65625 -2.83506 0
M  V30 7727 H 751.289 0.697786 -4.55992 0
M  V30 7728 H 749.532 0.587498 -4.29803 0
M  V30 7729 H 750.203 1.97989 -5.15271 0
M  V30 7730 H 752.679 2.5276 -3.30532 0
M  V30 7731 H 751.555 3.67616 -4.07615 0
M  V30 7732 H 751.816 3.75053 -2.34068 0
M  V30 7733 N 750.875 1.45233 0.611969 0
M  V30 7734 C 751.838 1.53189 1.70487 0
M  V30 7735 C 752.838 0.411839 1.55437 0
M  V30 7736 O 754.028 0.675164 1.60584 0
M  V30 7737 C 751.16 1.42422 3.09723 0
M  V30 7738 H 752.353 2.5056 1.64802 0
M  V30 7739 H 749.906 1.32609 0.827318 0
M  V30 7740 H 750.641 0.462185 3.2099 0
M  V30 7741 H 750.426 2.23658 3.22055 0
M  V30 7742 H 751.916 1.51012 3.89339 0
M  V30 7743 N 752.353 -0.854086 1.3245 0
M  V30 7744 C 753.602 -1.60318 1.22397 0
M  V30 7745 C 753.915 -1.9444 -0.212664 0
M  V30 7746 O 755.121 -2.67991 -0.435066 0
M  V30 7747 C 753.577 -2.8909 2.1437 0
M  V30 7748 C 753.185 -2.62391 3.63119 0
M  V30 7749 C 754.929 -3.67104 2.13155 0
M  V30 7750 C 752.836 -3.87167 4.47052 0
M  V30 7751 H 751.766 -0.601586 0.454544 0
M  V30 7752 H 754.417 -0.943023 1.57415 0
M  V30 7753 H 752.799 -3.56567 1.72268 0
M  V30 7754 H 753.973 -2.03222 4.13567 0
M  V30 7755 H 752.288 -1.97706 3.66471 0
M  V30 7756 H 754.885 -4.59696 2.731 0
M  V30 7757 H 755.228 -4.00876 1.12268 0
M  V30 7758 H 755.761 -3.06533 2.5354 0
M  V30 7759 H 752.5 -3.58536 5.48755 0
M  V30 7760 H 752.02 -4.45729 4.01355 0
M  V30 7761 H 753.699 -4.549 4.60081 0
M  V30 7762 N 753.831 -1.1567 -1.07043 0
M  V30 7763 C 754.781 -0.824733 -2.12561 0
M  V30 7764 C 755.765 0.19243 -1.59745 0
M  V30 7765 O 756.957 -0.00728759 -1.76998 0
M  V30 7766 C 754.086 -0.31921 -3.41813 0
M  V30 7767 C 753.172 -1.36671 -4.01475 0
M  V30 7768 N 753.563 -2.57493 -4.35351 0
M  V30 7769 C 751.861 -1.22018 -4.28984 0
M  V30 7770 C 752.562 -3.24658 -4.82672 0
M  V30 7771 N 751.538 -2.52043 -4.81638 0
M  V30 7772 H 755.34 -1.74363 -2.3659 0
M  V30 7773 H 752.854 -1.04262 -1.24511 0
M  V30 7774 H 754.851 -0.0630216 -4.16852 0
M  V30 7775 H 753.511 0.593708 -3.19226 0
M  V30 7776 H 754.522 -2.94612 -4.25939 0
M  V30 7777 H 751.199 -0.367414 -4.1588 0
M  V30 7778 H 752.589 -4.2775 -5.1815 0
M  V30 7779 N 755.309 1.25446 -0.953992 0
M  V30 7780 C 756.72 1.75047 -0.649255 0
M  V30 7781 C 757.071 1.77527 0.835385 0
M  V30 7782 O 756.196 1.39569 1.65377 0
M  V30 7783 C 756.791 3.17889 -1.17183 0
M  V30 7784 C 755.35 3.65052 -0.917267 0
M  V30 7785 C 754.497 2.44124 -1.31525 0
M  V30 7786 H 757.448 1.11342 -1.13087 0
M  V30 7787 H 757.469 3.76768 -0.531616 0
M  V30 7788 H 756.981 3.16052 -2.25239 0
M  V30 7789 H 755.082 3.72305 0.148354 0
M  V30 7790 H 755.195 4.53222 -1.55328 0
M  V30 7791 H 753.559 2.43906 -0.733624 0
M  V30 7792 H 754.342 2.44979 -2.405 0
M  V30 7793 N 756.787 0.722489 1.40064 0
M  V30 7794 C 758.015 0.274838 2.05066 0
M  V30 7795 C 758.43 -1.08586 1.54449 0
M  V30 7796 O 757.787 -1.68375 0.704003 0
M  V30 7797 C 757.838 0.253673 3.60609 0
M  V30 7798 O 757.559 1.56064 4.0936 0
M  V30 7799 C 759.06 -0.211684 4.42794 0
M  V30 7800 H 756.28 0.12226 0.659768 0
M  V30 7801 H 758.824 0.982632 1.79345 0
M  V30 7802 H 756.979 -0.405137 3.85276 0
M  V30 7803 H 757.393 1.46576 5.03603 0
M  V30 7804 H 758.867 -0.175341 5.51721 0
M  V30 7805 H 759.344 -1.25493 4.2089 0
M  V30 7806 H 759.95 0.4171 4.2325 0
M  V30 7807 N 758.265 -1.50454 0.469181 0
M  V30 7808 C 759.49 -2.0722 -0.0864892 0
M  V30 7809 C 759.915 -1.33098 -1.32916 0
M  V30 7810 O 759.273 -0.378084 -1.77314 0
M  V30 7811 C 759.321 -3.58845 -0.355384 0
M  V30 7812 O 758.425 -3.86583 -1.43622 0
M  V30 7813 H 757.766 -0.663889 0.0121414 0
M  V30 7814 H 760.296 -1.93674 0.659674 0
M  V30 7815 H 760.306 -4.03617 -0.596447 0
M  V30 7816 H 758.981 -4.12211 0.552698 0
M  V30 7817 H 757.558 -3.5365 -1.18262 0
M  V30 7818 N 759.743 -0.201713 -1.56304 0
M  V30 7819 C 760.968 0.443815 -2.02596 0
M  V30 7820 C 761.393 1.53945 -1.08086 0
M  V30 7821 O 760.751 1.81182 -0.0655056 0
M  V30 7822 C 760.799 0.971066 -3.47279 0
M  V30 7823 O 759.903 2.0836 -3.55893 0
M  V30 7824 H 759.244 0.10294 -0.655972 0
M  V30 7825 H 761.774 -0.314533 -2.02168 0
M  V30 7826 H 761.784 1.28598 -3.87204 0
M  V30 7827 H 760.459 0.169048 -4.15556 0
M  V30 7828 H 759.036 1.77683 -3.27846 0
M  V30 7829 N 761.222 1.57436 0.0718424 0
M  V30 7830 C 762.132 2.07039 1.10326 0
M  V30 7831 C 763.148 0.999918 1.424 0
M  V30 7832 O 764.324 1.31462 1.52577 0
M  V30 7833 C 761.389 2.50439 2.39752 0
M  V30 7834 C 760.45 3.71784 2.14651 0
M  V30 7835 C 759.683 4.13104 3.37906 0
M  V30 7836 O 759.906 3.54298 4.47023 0
M  V30 7837 O 758.84 5.05894 3.26121 0
M  V30 7838 H 762.666 2.95239 0.711872 0
M  V30 7839 H 760.251 1.46638 0.28597 0
M  V30 7840 H 762.133 2.78876 3.15921 0
M  V30 7841 H 760.808 1.65368 2.78271 0
M  V30 7842 H 759.715 3.48431 1.36187 0
M  V30 7843 H 761.048 4.57707 1.81012 0
M  V30 7844 N 762.7 -0.34323 1.53817 0
M  V30 7845 C 763.61 -1.44493 1.84821 0
M  V30 7846 C 764.626 -1.57556 0.738381 0
M  V30 7847 O 765.802 -1.73026 1.03072 0
M  V30 7848 C 762.867 -2.79478 2.05166 0
M  V30 7849 C 761.928 -2.75756 3.29025 0
M  V30 7850 C 761.161 -4.04302 3.4839 0
M  V30 7851 O 761.384 -5.01595 2.71586 0
M  V30 7852 O 760.318 -4.08754 4.41819 0
M  V30 7853 H 764.144 -1.21209 2.78464 0
M  V30 7854 H 761.729 -0.535437 1.39476 0
M  V30 7855 H 763.611 -3.59419 2.19991 0
M  V30 7856 H 762.286 -3.02692 1.14713 0
M  V30 7857 H 761.193 -1.94434 3.19603 0
M  V30 7858 H 762.526 -2.57495 4.19472 0
M  V30 7859 N 764.178 -1.45556 -0.604258 0
M  V30 7860 C 765.108 -1.57327 -1.72541 0
M  V30 7861 C 766.089 -0.424637 -1.64714 0
M  V30 7862 O 767.274 -0.648196 -1.83063 0
M  V30 7863 C 764.404 -1.54279 -3.11152 0
M  V30 7864 C 763.358 -2.67893 -3.33792 0
M  V30 7865 C 762.684 -2.499 -4.72709 0
M  V30 7866 C 763.984 -4.0988 -3.23722 0
M  V30 7867 H 765.678 -2.51175 -1.62947 0
M  V30 7868 H 763.224 -1.20884 -0.782504 0
M  V30 7869 H 765.177 -1.6111 -3.89386 0
M  V30 7870 H 763.901 -0.569627 -3.21594 0
M  V30 7871 H 762.56 -2.60495 -2.57949 0
M  V30 7872 H 762.208 -1.50715 -4.79889 0
M  V30 7873 H 761.908 -3.26091 -4.88813 0
M  V30 7874 H 763.432 -2.5859 -5.5314 0
M  V30 7875 H 764.846 -4.18503 -3.91826 0
M  V30 7876 H 763.243 -4.86487 -3.51355 0
M  V30 7877 H 764.313 -4.31553 -2.21111 0
M  V30 7878 N 765.656 0.84705 -1.32902 0
M  V30 7879 C 766.902 1.60414 -1.24078 0
M  V30 7880 C 767.235 1.93217 0.195105 0
M  V30 7881 O 766.51 1.58001 1.13428 0
M  V30 7882 C 766.793 2.91951 -2.108 0
M  V30 7883 C 766.646 2.6588 -3.62805 0
M  V30 7884 C 767.965 3.93299 -1.97494 0
M  V30 7885 H 765.084 0.58206 -0.452079 0
M  V30 7886 H 767.726 0.977562 -1.62922 0
M  V30 7887 H 765.876 3.45425 -1.77802 0
M  V30 7888 H 767.548 2.18902 -4.06054 0
M  V30 7889 H 765.791 1.99716 -3.85092 0
M  V30 7890 H 766.462 3.59574 -4.1882 0
M  V30 7891 H 768.938 3.49105 -2.26417 0
M  V30 7892 H 767.814 4.8318 -2.60438 0
M  V30 7893 H 768.075 4.31887 -0.944782 0
M  V30 7894 N 767.134 1.16236 1.06428 0
M  V30 7895 C 768.362 0.967184 1.82902 0
M  V30 7896 C 768.777 -0.484601 1.82475 0
M  V30 7897 O 768.134 -1.33631 1.24294 0
M  V30 7898 C 768.185 1.48534 3.29576 0
M  V30 7899 O 767.906 2.88026 3.3011 0
M  V30 7900 C 769.407 1.33298 4.22784 0
M  V30 7901 H 766.627 0.342923 0.576754 0
M  V30 7902 H 769.171 1.54232 1.34286 0
M  V30 7903 H 767.326 0.952513 3.75508 0
M  V30 7904 H 767.74 3.11721 4.21818 0
M  V30 7905 H 769.214 1.74385 5.23731 0
M  V30 7906 H 769.691 0.278356 4.38317 0
M  V30 7907 H 770.297 1.85535 3.82697 0
M  V30 7908 N 768.612 -1.24939 0.960631 0
M  V30 7909 C 769.542 -2.28 0.503815 0
M  V30 7910 C 770.523 -1.63959 -0.452928 0
M  V30 7911 O 771.708 -1.91009 -0.350585 0
M  V30 7912 C 768.838 -3.46643 -0.213535 0
M  V30 7913 C 767.792 -4.22903 0.658535 0
M  V30 7914 C 767.118 -5.34363 -0.189902 0
M  V30 7915 C 768.418 -4.84949 1.93963 0
M  V30 7916 H 770.112 -2.66462 1.36521 0
M  V30 7917 H 767.658 -1.28093 0.657897 0
M  V30 7918 H 769.611 -4.1787 -0.544286 0
M  V30 7919 H 768.335 -3.07187 -1.10923 0
M  V30 7920 H 766.994 -3.53467 0.972455 0
M  V30 7921 H 766.642 -4.91147 -1.08553 0
M  V30 7922 H 766.342 -5.86302 0.390331 0
M  V30 7923 H 767.866 -6.0842 -0.515484 0
M  V30 7924 H 769.28 -5.48288 1.67491 0
M  V30 7925 H 767.677 -5.47091 2.46601 0
M  V30 7926 H 768.747 -4.06799 2.639 0
M  V30 7927 N 770.09 -0.729906 -1.39679 0
M  V30 7928 C 771.506 -0.404951 -1.54377 0
M  V30 7929 C 771.706 1.08476 -1.6981 0
M  V30 7930 O 770.762 1.87087 -1.69572 0
M  V30 7931 C 772.075 -1.18352 -2.76429 0
M  V30 7932 C 773.623 -1.17124 -2.9026 0
M  V30 7933 C 774.098 -1.93227 -4.15244 0
M  V30 7934 N 775.589 -1.90368 -4.22273 0
M  V30 7935 C 776.324 -2.46065 -5.17918 0
M  V30 7936 N 775.82 -3.10378 -6.19385 0
M  V30 7937 N 777.613 -2.36127 -5.10099 0
M  V30 7938 H 769.764 -1.69567 -1.27909 0
M  V30 7939 H 772.027 -0.717527 -0.619564 0
M  V30 7940 H 771.733 -2.23743 -2.71352 0
M  V30 7941 H 771.607 -0.784589 -3.6895 0
M  V30 7942 H 773.994 -0.125478 -2.94833 0
M  V30 7943 H 774.075 -1.60951 -1.98817 0
M  V30 7944 H 773.719 -2.97802 -4.11432 0
M  V30 7945 H 773.649 -1.4681 -5.05722 0
M  V30 7946 H 776.14 -1.4351 -3.4959 0
M  V30 7947 H 776.453 -3.50358 -6.88817 0
M  V30 7948 H 774.798 -3.14467 -6.19787 0
M  V30 7949 H 777.989 -1.85529 -4.29763 0
M  V30 7950 H 778.162 -2.79833 -5.84463 0
M  V30 7951 O 771.607 1.49168 -0.618974 0
M  V30 7952 H 772.298 1.93235 -0.134184 0
M  V30 END ATOM
M  V30 BEGIN BOND
M  V30 END BOND
M  V30 END CTAB
M  END
$$$$
