drugbank_target|P00325 Alcohol dehydrogenase 1B (DB00157; DB01213; DB02481; DB02721; DB03461; DB03703; DB04105; DB09462)
 OpenBabel12092119313D

  0  0  0     0  0            999 V3000
M  V30 BEGIN CTAB
M  V30 COUNTS 5660 5712 0 0 0
M  V30 BEGIN ATOM
M  V30 1 H -0.908 1.98254 -0.117106 0
M  V30 2 N 0 1.576 0 0
M  V30 3 C 0.933 2.03868 1.02534 0
M  V30 4 C 1.911 0.928543 1.3348 0
M  V30 5 O 3.095 1.19667 1.45644 0
M  V30 6 C 0.222 2.43627 2.35294 0
M  V30 7 C -0.732 3.65373 2.2001 0
M  V30 8 S 0.101 5.13292 1.52614 0
M  V30 9 C 1.257 5.56322 2.86805 0
M  V30 10 H 1.49 2.90518 0.631377 0
M  V30 11 H -0.977 1.52953 0.210867 0
M  V30 12 H 0.981 2.67203 3.11629 0
M  V30 13 H -0.358 1.57376 2.7183 0
M  V30 14 H -1.165 3.90944 3.18086 0
M  V30 15 H -1.563 3.418 1.51819 0
M  V30 16 H 0.729 5.58782 3.83104 0
M  V30 17 H 1.672 6.56266 2.65933 0
M  V30 18 H 2.08 4.83886 2.90714 0
M  V30 19 N 1.4781 -0.272755 1.55222 0
M  V30 20 C 2.7031 -1.02683 1.80197 0
M  V30 21 C 3.1281 -1.79142 0.573551 0
M  V30 22 O 2.4861 -1.74917 -0.476849 0
M  V30 23 C 2.5341 -1.9609 3.02624 0
M  V30 24 O 1.6381 -3.04863 2.77727 0
M  V30 25 H 0.9791 -0.293557 0.595584 0
M  V30 26 H 3.5091 -0.30159 2.02365 0
M  V30 27 H 3.5191 -2.38039 3.31363 0
M  V30 28 H 2.1941 -1.39851 3.91682 0
M  V30 29 H 0.7711 -2.67228 2.60084 0
M  V30 30 N 2.9562 -1.48159 -0.537278 0
M  V30 31 C 4.1842 -1.59454 -1.31841 0
M  V30 32 C 4.5992 -0.252065 -1.8711 0
M  V30 33 O 3.9562 0.757621 -1.66031 0
M  V30 34 C 4.0072 -2.63546 -2.47439 0
M  V30 35 O 3.7282 -3.92583 -1.94449 0
M  V30 36 C 5.2292 -2.85212 -3.39366 0
M  V30 37 H 2.4492 -0.53785 -0.401196 0
M  V30 38 H 4.9932 -1.93932 -0.648891 0
M  V30 39 H 3.1482 -2.31946 -3.1029 0
M  V30 40 H 3.5622 -4.49629 -2.70063 0
M  V30 41 H 5.0362 -3.61863 -4.16844 0
M  V30 42 H 5.5132 -1.93765 -3.94147 0
M  V30 43 H 6.1192 -3.18086 -2.82314 0
M  V30 44 N 4.4343 0.785586 -1.36625 0
M  V30 45 C 5.3973 1.87999 -1.31107 0
M  V30 46 C 6.3973 1.59316 -0.217959 0
M  V30 47 O 7.5873 1.67656 -0.472977 0
M  V30 48 C 4.7193 3.24861 -1.03334 0
M  V30 49 H 5.9123 1.94307 -2.2844 0
M  V30 50 H 3.4653 0.983813 -1.21453 0
M  V30 51 H 4.2003 3.24235 -0.0647432 0
M  V30 52 H 3.9853 3.4707 -1.82441 0
M  V30 53 H 5.4753 4.04929 -1.02088 0
M  V30 54 N 5.9124 1.20967 1.01018 0
M  V30 55 C 7.1604 1.02172 1.74371 0
M  V30 56 C 7.4814 -0.446414 1.89821 0
M  V30 57 O 6.7514 -1.32234 1.44537 0
M  V30 58 H 5.3314 0.375066 0.646014 0
M  V30 59 H 7.9934 1.52187 1.21758 0
M  V30 60 H 7.0894 1.48538 2.74487 0
M  V30 61 N 7.3905 -1.2043 1.01659 0
M  V30 62 C 8.3375 -2.23215 0.586822 0
M  V30 63 C 9.3075 -1.61382 -0.393085 0
M  V30 64 O 10.4925 -1.88544 -0.292525 0
M  V30 65 C 7.6325 -3.45032 -0.0687464 0
M  V30 66 C 6.7455 -4.21296 0.955724 0
M  V30 67 C 5.8805 -5.30507 0.271208 0
M  V30 68 C 4.9195 -5.98515 1.28244 0
M  V30 69 N 4.0565 -6.99316 0.62459 0
M  V30 70 H 8.8965 -2.59336 1.46796 0
M  V30 71 H 6.4335 -1.27431 0.734836 0
M  V30 72 H 8.3915 -4.1459 -0.465965 0
M  V30 73 H 7.0215 -3.09604 -0.913529 0
M  V30 74 H 6.0735 -3.50803 1.4711 0
M  V30 75 H 7.3855 -4.6803 1.72479 0
M  V30 76 H 6.5395 -6.06428 -0.18151 0
M  V30 77 H 5.2785 -4.8481 -0.530163 0
M  V30 78 H 4.2835 -5.21355 1.74554 0
M  V30 79 H 5.5085 -6.46298 2.08509 0
M  V30 80 H 3.4545 -6.55812 -0.156914 0
M  V30 81 H 3.3715 -7.44178 1.33172 0
M  V30 82 H 4.6395 -7.79255 0.195462 0
M  V30 83 N 8.8686 -0.792821 -1.36206 0
M  V30 84 C 10.1146 -0.36733 -1.99446 0
M  V30 85 C 10.4476 1.05917 -1.62774 0
M  V30 86 O 9.7226 1.7324 -0.88421 0
M  V30 87 C 10.0056 -0.535044 -3.56103 0
M  V30 88 C 9.8586 -2.00548 -4.02617 0
M  V30 89 C 11.1776 0.0478191 -4.40074 0
M  V30 90 H 8.2966 -0.134941 -0.724541 0
M  V30 91 H 10.9386 -0.999794 -1.61568 0
M  V30 92 H 9.0886 0.00336329 -3.885 0
M  V30 93 H 10.7606 -2.60521 -3.80692 0
M  V30 94 H 9.0036 -2.50686 -3.54032 0
M  V30 95 H 9.6746 -2.07377 -5.11565 0
M  V30 96 H 12.1506 -0.411822 -4.14057 0
M  V30 97 H 11.0266 -0.0995336 -5.4881 0
M  V30 98 H 11.2876 1.14025 -4.27142 0
M  V30 99 N 10.3467 1.47872 -0.545128 0
M  V30 100 C 11.5957 2.01695 -0.0145033 0
M  V30 101 C 11.9087 1.42609 1.33873 0
M  V30 102 O 13.1147 1.88021 1.95858 0
M  V30 103 C 11.5707 3.59892 0.0245068 0
M  V30 104 C 11.1787 4.27966 -1.32475 0
M  V30 105 C 12.9227 4.21507 0.50316 0
M  V30 106 C 10.8297 5.78136 -1.2455 0
M  V30 107 H 9.7597 0.753998 -0.00165172 0
M  V30 108 H 12.4107 1.69985 -0.691175 0
M  V30 109 H 10.7927 3.88509 0.766575 0
M  V30 110 H 11.9667 4.11003 -2.08357 0
M  V30 111 H 10.2817 3.78286 -1.74036 0
M  V30 112 H 12.8787 5.31538 0.580656 0
M  V30 113 H 13.2217 3.87855 1.51243 0
M  V30 114 H 13.7547 3.97376 -0.183681 0
M  V30 115 H 10.4937 6.16388 -2.23039 0
M  V30 116 H 10.0137 5.97469 -0.528282 0
M  V30 117 H 11.6927 6.40099 -0.942488 0
M  V30 118 N 11.8248 0.280983 1.55075 0
M  V30 119 C 12.7718 -0.603937 2.22758 0
M  V30 120 C 13.7418 -1.1452 1.20309 0
M  V30 121 O 14.9268 -1.19343 1.48869 0
M  V30 122 C 12.0668 -1.77947 2.95684 0
M  V30 123 C 11.1798 -1.2715 4.12864 0
M  V30 124 C 10.3148 -2.4093 4.7342 0
M  V30 125 C 9.3538 -1.87165 5.82783 0
M  V30 126 N 8.4908 -2.94441 6.37377 0
M  V30 127 H 13.3308 -0.020124 2.97993 0
M  V30 128 H 10.8678 0.00183425 1.471 0
M  V30 129 H 12.8258 -2.47055 3.36184 0
M  V30 130 H 11.4558 -2.33522 2.22861 0
M  V30 131 H 10.5078 -0.473331 3.77444 0
M  V30 132 H 11.8198 -0.837751 4.91715 0
M  V30 133 H 10.9738 -3.18021 5.1667 0
M  V30 134 H 9.7128 -2.87623 3.93859 0
M  V30 135 H 8.7178 -1.08556 5.38976 0
M  V30 136 H 9.9428 -1.41401 6.64216 0
M  V30 137 H 7.8888 -3.40505 5.60707 0
M  V30 138 H 7.8058 -2.55501 7.11516 0
M  V30 139 H 9.0738 -3.71489 6.85285 0
M  V30 140 N 13.3029 -1.57598 0.00835791 0
M  V30 141 C 14.5429 -1.92788 -0.679136 0
M  V30 142 C 14.9069 -0.883378 -1.70471 0
M  V30 143 O 16.1079 -1.12079 -2.44319 0
M  V30 144 C 14.3789 -3.32994 -1.29807 0
M  V30 145 S 15.9379 -3.90082 -2.00952 0
M  V30 146 H 12.7559 -0.67475 -0.224127 0
M  V30 147 H 15.3579 -1.95385 0.0670497 0
M  V30 148 H 14.0619 -4.06846 -0.538922 0
M  V30 149 H 13.5929 -3.33791 -2.082 0
M  V30 150 H 15.6079 -3.71834 -3.28563 0
M  V30 151 N 14.781 0.264519 -1.55364 0
M  V30 152 C 15.728 1.32717 -1.88825 0
M  V30 153 C 16.698 1.48675 -0.740605 0
M  V30 154 O 17.883 1.62945 -0.992657 0
M  V30 155 C 15.023 2.68089 -2.17307 0
M  V30 156 C 14.136 2.60284 -3.44785 0
M  V30 157 C 13.271 3.87892 -3.62924 0
M  V30 158 C 12.31 3.74631 -4.84064 0
M  V30 159 N 11.447 4.94092 -4.98816 0
M  V30 160 H 16.287 1.03481 -2.79456 0
M  V30 161 H 13.824 0.499757 -1.3835 0
M  V30 162 H 15.782 3.46864 -2.31821 0
M  V30 163 H 14.412 2.95509 -1.299 0
M  V30 164 H 13.464 1.73173 -3.38697 0
M  V30 165 H 14.776 2.46388 -4.33698 0
M  V30 166 H 13.93 4.75109 -3.77302 0
M  V30 167 H 12.669 4.04664 -2.7221 0
M  V30 168 H 11.674 2.85797 -4.69681 0
M  V30 169 H 12.899 3.5937 -5.76221 0
M  V30 170 H 10.845 5.11259 -4.11036 0
M  V30 171 H 10.762 4.8276 -5.81789 0
M  V30 172 H 12.03 5.82857 -5.17588 0
M  V30 173 N 16.2591 1.48442 0.529413 0
M  V30 174 C 17.2221 1.62524 1.61612 0
M  V30 175 C 18.2221 0.498509 1.52877 0
M  V30 176 O 19.4121 0.76431 1.56537 0
M  V30 177 C 16.5441 1.59597 3.01233 0
M  V30 178 H 17.7371 2.59423 1.50465 0
M  V30 179 H 15.2901 1.37047 0.751514 0
M  V30 180 H 16.0251 0.641781 3.17886 0
M  V30 181 H 15.8101 2.41397 3.08982 0
M  V30 182 H 17.3001 1.72646 3.80241 0
M  V30 183 N 17.7372 -0.778329 1.37039 0
M  V30 184 C 18.7002 -1.87301 1.32102 0
M  V30 185 C 19.7002 -1.59198 0.226405 0
M  V30 186 O 20.8902 -1.67403 0.481861 0
M  V30 187 C 18.0222 -3.24309 1.05055 0
M  V30 188 H 19.2152 -1.93093 2.29467 0
M  V30 189 H 16.7682 -0.977358 1.21973 0
M  V30 190 H 17.5032 -3.24196 0.0819373 0
M  V30 191 H 17.2882 -3.46098 1.84279 0
M  V30 192 H 18.7782 -4.04382 1.04234 0
M  V30 193 N 19.2153 -1.21501 -1.00376 0
M  V30 194 C 20.4613 -1.03452 -1.74429 0
M  V30 195 C 20.7943 0.430764 -1.89362 0
M  V30 196 O 20.0693 1.31962 -1.42886 0
M  V30 197 C 20.3523 -1.73375 -3.15615 0
M  V30 198 C 20.2053 -3.27431 -3.08397 0
M  V30 199 C 21.5243 -1.47732 -4.14564 0
M  V30 200 H 18.6433 -0.377226 -0.633143 0
M  V30 201 H 21.2853 -1.49693 -1.17013 0
M  V30 202 H 19.4353 -1.34064 -3.64636 0
M  V30 203 H 21.1073 -3.76119 -2.67081 0
M  V30 204 H 19.3503 -3.5767 -2.45468 0
M  V30 205 H 20.0213 -3.71524 -4.08258 0
M  V30 206 H 22.4973 -1.8186 -3.74254 0
M  V30 207 H 21.3733 -1.99169 -5.11491 0
M  V30 208 H 21.6343 -0.407589 -4.40217 0
M  V30 209 N 20.6934 1.19889 -1.02296 0
M  V30 210 C 21.6234 2.25141 -0.619174 0
M  V30 211 C 22.6044 1.66051 0.368915 0
M  V30 212 O 23.7894 1.92546 0.252941 0
M  V30 213 C 20.9194 3.4728 0.0368783 0
M  V30 214 C 19.8734 4.19005 -0.872865 0
M  V30 215 C 19.1994 5.34637 -0.0822402 0
M  V30 216 C 20.4994 4.74452 -2.18387 0
M  V30 217 H 22.1934 2.59171 -1.49903 0
M  V30 218 H 19.7394 1.24579 -0.722222 0
M  V30 219 H 21.6924 4.20098 0.330958 0
M  V30 220 H 20.4164 3.12433 0.95149 0
M  V30 221 H 19.0754 3.48061 -1.15105 0
M  V30 222 H 18.7234 4.96034 0.83422 0
M  V30 223 H 18.4234 5.83557 -0.688149 0
M  V30 224 H 19.9474 6.10255 0.205238 0
M  V30 225 H 21.3614 5.39055 -1.95172 0
M  V30 226 H 19.7584 5.33834 -2.74119 0
M  V30 227 H 20.8284 3.92844 -2.84257 0
M  V30 228 N 22.1715 0.800033 1.35784 0
M  V30 229 C 23.4175 0.38701 1.99684 0
M  V30 230 C 23.7725 -1.03268 1.62338 0
M  V30 231 O 23.0655 -1.70543 0.87325 0
M  V30 232 C 23.2595 0.500276 3.53881 0
M  V30 233 C 23.0885 1.92942 4.06206 0
M  V30 234 C 21.8585 2.55637 4.35865 0
M  V30 235 C 24.0565 2.89307 4.25213 0
M  V30 236 N 22.0385 3.9003 4.74078 0
M  V30 237 C 23.4095 4.08556 4.66349 0
M  V30 238 C 25.4645 2.86225 4.07406 0
M  V30 239 C 24.1675 5.25146 4.91543 0
M  V30 240 C 26.1935 4.02011 4.33752 0
M  V30 241 C 25.5555 5.20007 4.75155 0
M  V30 242 H 21.6545 0.189252 0.758754 0
M  V30 243 H 24.2385 1.03988 1.64604 0
M  V30 244 H 22.4095 -0.122568 3.88207 0
M  V30 245 H 24.1415 0.0624733 4.04652 0
M  V30 246 H 20.8965 2.07039 4.25948 0
M  V30 247 H 21.3205 4.59205 4.97454 0
M  V30 248 H 25.9625 1.96154 3.74544 0
M  V30 249 H 23.6805 6.15794 5.23281 0
M  V30 250 H 27.2665 4.00999 4.21534 0
M  V30 251 H 26.1465 6.08113 4.95145 0
M  V30 252 N 23.6496 -1.47581 0.552962 0
M  V30 253 C 24.5596 -2.33743 -0.200353 0
M  V30 254 C 25.5756 -1.47928 -0.916151 0
M  V30 255 O 26.7516 -1.80865 -0.885993 0
M  V30 256 C 23.8166 -3.24536 -1.21973 0
M  V30 257 C 22.8776 -4.26238 -0.511819 0
M  V30 258 C 22.1106 -5.12693 -1.48263 0
M  V30 259 O 22.3336 -5.01525 -2.71714 0
M  V30 260 O 21.2676 -5.93375 -1.00945 0
M  V30 261 H 25.0936 -2.9945 0.506304 0
M  V30 262 H 22.6786 -1.46071 0.313622 0
M  V30 263 H 24.5606 -3.80631 -1.80827 0
M  V30 264 H 23.2356 -2.61462 -1.90839 0
M  V30 265 H 22.1426 -3.73914 0.117799 0
M  V30 266 H 23.4756 -4.92014 0.135308 0
M  V30 267 N 25.1277 -0.289203 -1.54924 0
M  V30 268 C 26.3737 0.323998 -2.00195 0
M  V30 269 C 26.7067 1.54441 -1.17735 0
M  V30 270 O 25.9817 1.92875 -0.250878 0
M  V30 271 C 26.2647 0.692276 -3.53383 0
M  V30 272 C 26.1177 -0.536457 -4.46589 0
M  V30 273 C 27.4367 1.52335 -4.12895 0
M  V30 274 H 24.5557 0.116289 -0.727768 0
M  V30 275 H 27.1977 -0.398954 -1.85764 0
M  V30 276 H 25.3477 1.30822 -3.65811 0
M  V30 277 H 27.0197 -1.17499 -4.46085 0
M  V30 278 H 25.2627 -1.17192 -4.1767 0
M  V30 279 H 25.9337 -0.234806 -5.515 0
M  V30 280 H 28.4097 1.00302 -4.0383 0
M  V30 281 H 27.2857 1.74982 -5.20262 0
M  V30 282 H 27.5467 2.50886 -3.64018 0
M  V30 283 N 26.6058 1.57591 -0.0167156 0
M  V30 284 C 27.5528 2.09462 0.969251 0
M  V30 285 C 28.5228 0.99381 1.33089 0
M  V30 286 O 29.7078 1.26726 1.42636 0
M  V30 287 C 26.8478 2.61622 2.25051 0
M  V30 288 C 25.9608 3.85666 1.94642 0
M  V30 289 C 25.0958 4.26266 3.16972 0
M  V30 290 C 24.1348 5.43101 2.82326 0
M  V30 291 N 23.2718 5.78915 3.97243 0
M  V30 292 H 28.1118 2.93428 0.519997 0
M  V30 293 H 25.6488 1.45044 0.245087 0
M  V30 294 H 27.6068 2.89949 2.99976 0
M  V30 295 H 26.2368 1.80505 2.67615 0
M  V30 296 H 25.2888 3.64145 1.10013 0
M  V30 297 H 26.6008 4.70678 1.65117 0
M  V30 298 H 25.7548 4.55963 4.00228 0
M  V30 299 H 24.4938 3.39996 3.49648 0
M  V30 300 H 23.4988 5.1311 1.97479 0
M  V30 301 H 24.7238 6.3106 2.50879 0
M  V30 302 H 22.6698 4.95602 4.29785 0
M  V30 303 H 22.5868 6.58539 3.71299 0
M  V30 304 H 23.8548 6.13212 4.81239 0
M  V30 305 N 28.0839 -0.256276 1.55502 0
M  V30 306 C 29.0309 -1.31714 1.89526 0
M  V30 307 C 30.0009 -1.4828 0.748479 0
M  V30 308 O 31.1859 -1.62416 1.00128 0
M  V30 309 C 28.3259 -2.66933 2.18725 0
M  V30 310 C 27.4389 -2.58452 3.4616 0
M  V30 311 C 26.5739 -3.85961 3.64976 0
M  V30 312 C 25.6129 -3.72059 4.86044 0
M  V30 313 N 24.7499 -4.9144 5.01429 0
M  V30 314 H 29.5899 -1.01998 2.80001 0
M  V30 315 H 27.1269 -0.492413 1.38613 0
M  V30 316 H 29.0849 -3.4563 2.33657 0
M  V30 317 H 27.7149 -2.94816 1.31466 0
M  V30 318 H 26.7669 -1.71374 3.3961 0
M  V30 319 H 28.0789 -2.44085 4.34999 0
M  V30 320 H 27.2329 -4.73101 3.79816 0
M  V30 321 H 25.9719 -4.03215 2.74353 0
M  V30 322 H 24.9769 -2.83302 4.7119 0
M  V30 323 H 26.2019 -3.56309 5.78118 0
M  V30 324 H 24.1479 -5.09072 4.13741 0
M  V30 325 H 24.0649 -4.79668 5.84341 0
M  V30 326 H 25.3329 -5.80104 5.20672 0
M  V30 327 N 29.562 -1.4872 -0.521534 0
M  V30 328 C 30.973 -1.50607 -1.10337 0
M  V30 329 C 31.324 -0.280612 -1.94183 0
M  V30 330 O 30.449 0.611507 -2.0758 0
M  V30 331 C 31.044 -2.72903 -2.00772 0
M  V30 332 C 29.603 -2.77634 -2.54158 0
M  V30 333 C 28.75 -2.44241 -1.31307 0
M  V30 334 H 31.701 -1.55714 -0.306388 0
M  V30 335 H 31.722 -2.519 -2.85178 0
M  V30 336 H 31.234 -3.62077 -1.39721 0
M  V30 337 H 29.335 -1.92689 -3.18907 0
M  V30 338 H 29.448 -3.79283 -2.92714 0
M  V30 339 H 27.812 -1.95577 -1.63161 0
M  V30 340 H 28.595 -3.35666 -0.719943 0
M  V30 341 N 31.0401 0.771051 -1.3745 0
M  V30 342 C 32.2871 1.52963 -1.32697 0
M  V30 343 C 32.6151 1.94299 0.0883274 0
M  V30 344 O 31.8701 1.64397 1.0617 0
M  V30 345 C 32.1691 2.80676 -2.2126 0
M  V30 346 C 31.8351 2.58389 -3.69521 0
M  V30 347 C 30.4971 2.52019 -4.09927 0
M  V30 348 C 32.8491 2.38469 -4.63446 0
M  V30 349 C 30.1771 2.23721 -5.42371 0
M  V30 350 C 32.5291 2.11694 -5.96128 0
M  V30 351 C 31.1931 2.03769 -6.35637 0
M  V30 352 H 30.4631 0.559732 -0.485573 0
M  V30 353 H 33.1101 0.888083 -1.69662 0
M  V30 354 H 31.4151 3.49392 -1.77291 0
M  V30 355 H 33.1121 3.38557 -2.14895 0
M  V30 356 H 29.7021 2.6421 -3.37478 0
M  V30 357 H 33.8861 2.4238 -4.33089 0
M  V30 358 H 29.1421 2.16081 -5.71943 0
M  V30 359 H 33.3161 1.9528 -6.6846 0
M  V30 360 H 30.9431 1.81606 -7.38189 0
M  V30 361 N 32.5182 1.22032 0.997298 0
M  V30 362 C 33.7432 1.06921 1.77715 0
M  V30 363 C 34.1682 -0.376226 1.84299 0
M  V30 364 O 33.5262 -1.27165 1.29223 0
M  V30 365 C 33.5742 1.67996 3.19076 0
M  V30 366 O 32.6782 0.930653 4.01762 0
M  V30 367 H 32.0192 0.375814 0.547412 0
M  V30 368 H 34.5492 1.61737 1.25309 0
M  V30 369 H 34.5592 1.72538 3.69723 0
M  V30 370 H 33.2342 2.73182 3.13599 0
M  V30 371 H 31.8112 0.960917 3.60307 0
M  V30 372 N 33.9963 -1.19345 1.0293 0
M  V30 373 C 35.2453 -1.88363 0.721256 0
M  V30 374 C 35.5583 -1.80514 -0.753254 0
M  V30 375 O 36.7643 -2.44788 -1.17436 0
M  V30 376 C 35.2203 -3.37872 1.23978 0
M  V30 377 C 34.8283 -3.54278 2.74211 0
M  V30 378 C 36.5723 -4.12365 1.00775 0
M  V30 379 C 34.4793 -4.97682 3.19479 0
M  V30 380 H 33.4093 -0.705484 0.266098 0
M  V30 381 H 36.0603 -1.34928 1.24365 0
M  V30 382 H 34.4423 -3.90707 0.6453 0
M  V30 383 H 35.6163 -3.11769 3.39318 0
M  V30 384 H 33.9313 -2.93174 2.95699 0
M  V30 385 H 36.5283 -5.18119 1.32123 0
M  V30 386 H 36.8713 -4.16263 -0.0554308 0
M  V30 387 H 37.4043 -3.65668 1.56625 0
M  V30 388 H 34.1433 -4.98945 4.25128 0
M  V30 389 H 33.6633 -5.4095 2.591 0
M  V30 390 H 35.3423 -5.66337 3.12845 0
M  V30 391 N 35.4744 -0.807222 -1.35358 0
M  V30 392 C 36.3844 -0.219594 -2.3357 0
M  V30 393 C 37.4004 0.637734 -1.61892 0
M  V30 394 O 38.5764 0.549336 -1.93763 0
M  V30 395 C 35.6414 0.62158 -3.41083 0
M  V30 396 C 34.7024 -0.256315 -4.28534 0
M  V30 397 C 33.9354 0.544807 -5.30912 0
M  V30 398 O 34.1584 1.77944 -5.41934 0
M  V30 399 O 33.0924 -0.0646478 -6.01865 0
M  V30 400 H 36.9184 -1.03208 -2.85625 0
M  V30 401 H 34.5034 -0.569025 -1.38139 0
M  V30 402 H 36.3854 1.10067 -4.06772 0
M  V30 403 H 35.0604 1.41165 -2.91297 0
M  V30 404 H 33.9674 -0.782559 -3.65823 0
M  V30 405 H 35.3004 -1.01034 -4.81719 0
M  V30 406 N 36.9525 1.47285 -0.560781 0
M  V30 407 C 38.2295 1.9558 0.0277798 0
M  V30 408 C 38.6095 1.5034 1.48192 0
M  V30 409 O 37.9575 0.743882 2.16052 0
M  V30 410 C 38.1675 3.48789 -0.121418 0
M  V30 411 C 39.5155 4.24594 0.0220912 0
M  V30 412 O 40.5395 3.56166 -0.0491439 0
M  V30 413 O 39.3985 5.46217 0.175958 0
M  V30 414 H 36.4925 0.824663 0.0621342 0
M  V30 415 H 39.0385 1.5767 -0.627556 0
M  V30 416 H 37.8105 3.74533 -1.13316 0
M  V30 417 H 37.4335 3.93473 0.571366 0
M  V30 418 N 38.4306 0.297415 1.54768 0
M  V30 419 C 39.6766 -0.313376 2.00364 0
M  V30 420 C 40.0096 -1.53815 1.18553 0
M  V30 421 O 39.2846 -1.92739 0.261103 0
M  V30 422 C 39.5676 -0.673525 3.53745 0
M  V30 423 C 39.4206 0.560133 4.46299 0
M  V30 424 C 40.7396 -1.50143 4.13697 0
M  V30 425 H 37.8586 -0.112428 0.728374 0
M  V30 426 H 40.5006 0.4088 1.8555 0
M  V30 427 H 38.6506 -1.28881 3.665 0
M  V30 428 H 40.3226 1.19863 4.45455 0
M  V30 429 H 38.5656 1.19405 4.17043 0
M  V30 430 H 39.2366 0.26405 5.51368 0
M  V30 431 H 41.7126 -0.981588 4.04356 0
M  V30 432 H 40.5886 -1.72221 5.21182 0
M  V30 433 H 40.8496 -2.48952 3.65343 0
M  V30 434 N 39.9087 -1.5758 0.0250728 0
M  V30 435 C 40.8187 -2.1343 -0.973905 0
M  V30 436 C 41.8347 -1.08556 -1.35984 0
M  V30 437 O 43.0107 -1.40592 -1.44207 0
M  V30 438 C 40.0757 -2.64703 -2.23904 0
M  V30 439 C 39.1367 -3.84276 -1.91391 0
M  V30 440 C 38.3697 -4.33095 -3.11873 0
M  V30 441 O 38.5927 -3.81107 -4.24398 0
M  V30 442 O 37.5267 -5.24984 -2.94406 0
M  V30 443 H 41.3527 -2.99057 -0.529036 0
M  V30 444 H 38.9377 -1.48118 -0.195288 0
M  V30 445 H 40.8197 -2.97769 -2.98181 0
M  V30 446 H 39.4947 -1.82161 -2.6758 0
M  V30 447 H 38.4017 -3.56143 -1.14511 0
M  V30 448 H 39.7347 -4.67968 -1.52534 0
M  V30 449 N 41.3868 0.248026 -1.55636 0
M  V30 450 C 42.6328 0.97767 -1.77678 0
M  V30 451 C 42.9658 1.85016 -0.590135 0
M  V30 452 O 42.2408 1.90095 0.411611 0
M  V30 453 C 42.5238 1.83914 -3.09593 0
M  V30 454 C 42.3768 0.99491 -4.38659 0
M  V30 455 C 43.6958 2.82183 -3.37729 0
M  V30 456 H 40.8148 0.354005 -0.646413 0
M  V30 457 H 43.4568 0.248253 -1.88371 0
M  V30 458 H 41.6068 2.46104 -3.00608 0
M  V30 459 H 43.2788 0.391789 -4.59633 0
M  V30 460 H 41.5218 0.299231 -4.32767 0
M  V30 461 H 42.1928 1.63145 -5.2734 0
M  V30 462 H 44.6688 2.30129 -3.4667 0
M  V30 463 H 43.5448 3.39582 -4.31249 0
M  V30 464 H 43.8058 3.58588 -2.58586 0
M  V30 465 N 42.8649 1.48995 0.513639 0
M  V30 466 C 43.8279 1.64229 1.59879 0
M  V30 467 C 44.8279 0.514696 1.5234 0
M  V30 468 O 46.0179 0.78087 1.55718 0
M  V30 469 C 43.1499 1.62783 2.99524 0
M  V30 470 H 44.3429 2.61004 1.47705 0
M  V30 471 H 41.8959 1.37837 0.736936 0
M  V30 472 H 42.6309 0.675461 3.17188 0
M  V30 473 H 42.4159 2.4466 3.06404 0
M  V30 474 H 43.9059 1.76669 3.78388 0
M  V30 475 N 44.343 -0.763751 1.37857 0
M  V30 476 C 45.754 -1.3405 1.29952 0
M  V30 477 C 46.105 -1.96138 -0.0492898 0
M  V30 478 O 45.23 -1.94372 -0.951239 0
M  V30 479 C 45.825 -2.43729 2.35333 0
M  V30 480 C 44.384 -2.97151 2.31037 0
M  V30 481 C 43.531 -1.70438 2.18738 0
M  V30 482 H 46.482 -0.563396 1.48363 0
M  V30 483 H 46.503 -3.23412 2.00462 0
M  V30 484 H 46.015 -1.9851 3.33489 0
M  V30 485 H 44.116 -3.46724 1.3643 0
M  V30 486 H 44.229 -3.52221 3.24772 0
M  V30 487 H 42.593 -1.93673 1.65418 0
M  V30 488 H 43.376 -1.27312 3.18821 0
M  V30 489 N 45.8211 -1.22559 -0.990812 0
M  V30 490 C 47.2321 -1.04791 -1.54518 0
M  V30 491 C 47.5831 0.387998 -1.92325 0
M  V30 492 O 46.7081 1.27328 -1.74976 0
M  V30 493 C 47.3031 -1.896 -2.80779 0
M  V30 494 C 45.8621 -1.76124 -3.32652 0
M  V30 495 C 45.0091 -1.8594 -2.05722 0
M  V30 496 H 47.9601 -1.36374 -0.811662 0
M  V30 497 H 47.9811 -1.41464 -3.53225 0
M  V30 498 H 47.4931 -2.94101 -2.53231 0
M  V30 499 H 45.5941 -0.743643 -3.65104 0
M  V30 500 H 45.7071 -2.58913 -4.03114 0
M  V30 501 H 44.0711 -1.29403 -2.19379 0
M  V30 502 H 44.8541 -2.91976 -1.80568 0
M  V30 503 N 47.2992 1.18797 -1.03562 0
M  V30 504 C 48.2462 2.22253 -0.622259 0
M  V30 505 C 49.2162 1.61987 0.36736 0
M  V30 506 O 50.4012 1.88986 0.262492 0
M  V30 507 C 47.5412 3.45097 0.0138462 0
M  V30 508 C 46.6542 4.19722 -1.02263 0
M  V30 509 C 45.7892 5.30009 -0.355573 0
M  V30 510 C 44.8282 5.96399 -1.37749 0
M  V30 511 N 43.9652 6.98234 -0.735766 0
M  V30 512 H 48.8052 2.56968 -1.50903 0
M  V30 513 H 46.3422 1.26245 -0.755017 0
M  V30 514 H 48.3002 4.15279 0.399948 0
M  V30 515 H 46.9302 3.11018 0.864158 0
M  V30 516 H 45.9822 3.48418 -1.52673 0
M  V30 517 H 47.2942 4.65227 -1.79903 0
M  V30 518 H 46.4482 6.0664 0.0850095 0
M  V30 519 H 45.1872 4.85592 0.452967 0
M  V30 520 H 44.1922 5.18512 -1.82826 0
M  V30 521 H 45.4172 6.42899 -2.18764 0
M  V30 522 H 43.3632 6.55979 0.0525597 0
M  V30 523 H 43.2802 7.41965 -1.44995 0
M  V30 524 H 44.5482 7.78845 -0.31941 0
M  V30 525 N 48.7773 0.814389 1.34928 0
M  V30 526 C 49.7403 0.235759 2.27984 0
M  V30 527 C 50.7403 -0.581412 1.49921 0
M  V30 528 O 51.9303 -0.398758 1.69575 0
M  V30 529 C 49.0623 -0.670433 3.34242 0
M  V30 530 H 50.2553 1.05659 2.80671 0
M  V30 531 H 47.8083 0.585614 1.44915 0
M  V30 532 H 48.5433 -1.51466 2.86755 0
M  V30 533 H 48.3283 -0.0860822 3.92005 0
M  V30 534 H 49.8183 -1.06935 4.03676 0
M  V30 535 N 50.2554 -1.46986 0.568584 0
M  V30 536 C 51.4854 -2.0653 0.0539173 0
M  V30 537 C 51.8934 -1.42004 -1.25026 0
M  V30 538 O 51.2364 -0.514541 -1.76347 0
M  V30 539 C 51.2984 -3.58938 -0.200854 0
M  V30 540 C 50.9624 -4.45572 1.01559 0
M  V30 541 C 51.9594 -4.82986 1.92407 0
M  V30 542 C 49.6444 -4.8692 1.23346 0
M  V30 543 C 51.6384 -5.60559 3.03402 0
M  V30 544 C 49.3254 -5.64255 2.34649 0
M  V30 545 C 50.3234 -6.00986 3.24507 0
M  V30 546 O 50.0114 -6.76761 4.33878 0
M  V30 547 H 49.7434 -0.674292 0.0480234 0
M  V30 548 H 52.2974 -1.89812 0.784896 0
M  V30 549 H 50.5274 -3.73911 -0.986279 0
M  V30 550 H 52.2164 -4.0046 -0.662294 0
M  V30 551 H 52.9824 -4.51633 1.76785 0
M  V30 552 H 48.8614 -4.57789 0.543178 0
M  V30 553 H 52.4054 -5.89147 3.73565 0
M  V30 554 H 48.3024 -5.95021 2.5024 0
M  V30 555 H 49.0704 -6.95168 4.32068 0
M  V30 556 N 51.7335 -0.305618 -1.54608 0
M  V30 557 C 52.6435 0.57778 -2.27374 0
M  V30 558 C 53.6595 1.14451 -1.31061 0
M  V30 559 O 54.8355 1.16831 -1.6405 0
M  V30 560 C 51.9005 1.73123 -3.00382 0
M  V30 561 C 50.9615 1.19812 -4.12242 0
M  V30 562 C 50.1945 2.2966 -4.81759 0
M  V30 563 O 50.4175 3.49651 -4.50666 0
M  V30 564 O 49.3515 1.96091 -5.69062 0
M  V30 565 H 53.1775 -0.012624 -3.03697 0
M  V30 566 H 50.7625 -0.0719184 -1.49227 0
M  V30 567 H 52.6445 2.40315 -3.4616 0
M  V30 568 H 51.3195 2.30815 -2.26949 0
M  V30 569 H 50.2265 0.491798 -3.70853 0
M  V30 570 H 51.5595 0.666566 -4.87666 0
M  V30 571 N 53.2116 1.57565 -0.0334293 0
M  V30 572 C 54.4576 1.92262 0.645226 0
M  V30 573 C 54.7906 0.910543 1.71531 0
M  V30 574 O 54.0656 -0.066099 1.94388 0
M  V30 575 C 54.3486 3.37422 1.2577 0
M  V30 576 C 54.2016 4.49369 0.196891 0
M  V30 577 C 55.5206 3.82628 2.17449 0
M  V30 578 H 52.6396 0.699171 0.233085 0
M  V30 579 H 55.2816 1.89779 -0.0915694 0
M  V30 580 H 53.4316 3.39669 1.88566 0
M  V30 581 H 55.1036 4.59254 -0.433962 0
M  V30 582 H 53.3466 4.31168 -0.477137 0
M  V30 583 H 54.0176 5.47978 0.665124 0
M  V30 584 H 56.4936 3.82145 1.64634 0
M  V30 585 H 55.3696 4.84883 2.57254 0
M  V30 586 H 55.6306 3.18376 3.0674 0
M  V30 587 N 54.6897 -0.239769 1.55765 0
M  V30 588 C 56.1057 -0.588624 1.48349 0
M  V30 589 C 56.3057 -1.88005 0.72502 0
M  V30 590 O 55.3617 -2.51186 0.257269 0
M  V30 591 C 56.6747 -0.68474 2.928 0
M  V30 592 C 58.2227 -0.77659 3.03213 0
M  V30 593 C 58.6977 -0.904207 4.48986 0
M  V30 594 N 60.1887 -0.968896 4.52953 0
M  V30 595 C 60.9237 -1.08703 5.63002 0
M  V30 596 N 60.4197 -1.17026 6.82845 0
M  V30 597 N 62.2127 -1.12074 5.50814 0
M  V30 598 H 54.3637 0.607911 2.03515 0
M  V30 599 H 56.6267 0.21083 0.924259 0
M  V30 600 H 56.3327 0.194284 3.51163 0
M  V30 601 H 56.2067 -1.55435 3.43686 0
M  V30 602 H 58.5937 -1.64606 2.44926 0
M  V30 603 H 58.6747 0.118315 2.55526 0
M  V30 604 H 58.3187 -0.0392633 5.07885 0
M  V30 605 H 58.2487 -1.81426 4.9436 0
M  V30 606 H 60.7397 -0.915633 3.6664 0
M  V30 607 H 61.0527 -1.25966 7.62465 0
M  V30 608 H 59.3977 -1.13971 6.85591 0
M  V30 609 H 62.5887 -1.05226 4.5612 0
M  V30 610 H 62.7617 -1.20936 6.36615 0
M  V30 611 N 56.1678 -1.49265 -0.50573 0
M  V30 612 C 57.4168 -1.57761 -1.25675 0
M  V30 613 C 57.7298 -0.267371 -1.93764 0
M  V30 614 O 58.9358 -0.230827 -2.70517 0
M  V30 615 C 57.3918 -2.78332 -2.28165 0
M  V30 616 C 56.9998 -4.16096 -1.66037 0
M  V30 617 C 58.7438 -2.96155 -3.04125 0
M  V30 618 C 56.6508 -5.27895 -2.6661 0
M  V30 619 H 55.5808 -0.587391 -0.472745 0
M  V30 620 H 58.2318 -1.75644 -0.53118 0
M  V30 621 H 56.6138 -2.53934 -3.03865 0
M  V30 622 H 57.7878 -4.50612 -0.963622 0
M  V30 623 H 56.1028 -4.03591 -1.02484 0
M  V30 624 H 58.6998 -3.76849 -3.79327 0
M  V30 625 H 59.0428 -2.06534 -3.61455 0
M  V30 626 H 59.5758 -3.2057 -2.35541 0
M  V30 627 H 56.3148 -6.1956 -2.14068 0
M  V30 628 H 55.8348 -4.97839 -3.34539 0
M  V30 629 H 57.5138 -5.57031 -3.29129 0
M  V30 630 N 57.6459 0.756429 -1.3826 0
M  V30 631 C 58.5929 1.87011 -1.35261 0
M  V30 632 C 59.5629 1.64695 -0.215616 0
M  V30 633 O 60.7479 1.864 -0.407399 0
M  V30 634 C 57.8879 3.24275 -1.18068 0
M  V30 635 C 57.0009 3.58442 -2.41129 0
M  V30 636 C 56.1359 4.84994 -2.16689 0
M  V30 637 C 55.1749 5.11939 -3.35537 0
M  V30 638 N 54.3119 6.29685 -3.10549 0
M  V30 639 H 59.1519 1.8891 -2.30472 0
M  V30 640 H 56.6889 0.923373 -1.14509 0
M  V30 641 H 58.6469 4.03479 -1.06116 0
M  V30 642 H 57.2769 3.21711 -0.264973 0
M  V30 643 H 56.3289 2.74103 -2.63764 0
M  V30 644 H 57.6409 3.74283 -3.29717 0
M  V30 645 H 56.7949 5.72135 -2.01857 0
M  V30 646 H 55.5339 4.71286 -1.25462 0
M  V30 647 H 54.5389 4.23268 -3.50891 0
M  V30 648 H 55.7639 5.27546 -4.27635 0
M  V30 649 H 53.7099 6.17306 -2.21967 0
M  V30 650 H 53.6269 6.46014 -3.92686 0
M  V30 651 H 54.8949 7.19722 -2.99367 0
M  V30 652 N 59.124 1.23083 0.984299 0
M  V30 653 C 60.057 0.951786 2.07404 0
M  V30 654 C 61.035 -0.10848 1.62238 0
M  V30 655 O 62.219 0.0249467 1.88483 0
M  V30 656 C 59.346 0.433142 3.35919 0
M  V30 657 C 58.392 1.47941 4.0002 0
M  V30 658 S 59.225 3.05556 4.39768 0
M  V30 659 C 60.381 2.55351 5.71442 0
M  V30 660 H 60.614 1.87456 2.30754 0
M  V30 661 H 58.147 1.06284 1.11996 0
M  V30 662 H 60.105 0.140506 4.10259 0
M  V30 663 H 58.766 -0.468656 3.10584 0
M  V30 664 H 57.959 1.06658 4.92585 0
M  V30 665 H 57.561 1.7212 3.3204 0
M  V30 666 H 59.853 1.97128 6.48187 0
M  V30 667 H 60.796 3.46441 6.17563 0
M  V30 668 H 61.204 1.96339 5.29255 0
M  V30 669 N 60.6021 -1.18246 1.0419 0
M  V30 670 C 61.8481 -1.88536 0.747122 0
M  V30 671 C 62.1811 -1.80223 -0.723409 0
M  V30 672 O 61.4561 -1.20337 -1.52804 0
M  V30 673 C 61.7391 -3.38968 1.21544 0
M  V30 674 C 61.5921 -3.56084 2.74816 0
M  V30 675 C 62.9111 -4.32648 0.806482 0
M  V30 676 H 60.0301 -0.684619 0.272883 0
M  V30 677 H 62.6721 -1.39113 1.29413 0
M  V30 678 H 60.8221 -3.8119 0.750081 0
M  V30 679 H 62.4941 -3.22946 3.29399 0
M  V30 680 H 60.7371 -2.98699 3.14582 0
M  V30 681 H 61.4081 -4.61639 3.02644 0
M  V30 682 H 63.8841 -3.98211 1.20695 0
M  V30 683 H 62.7601 -5.36462 1.1619 0
M  V30 684 H 63.0211 -4.41146 -0.29029 0
M  V30 685 N 62.0802 -0.821533 -1.34494 0
M  V30 686 C 63.0432 -0.247847 -2.27856 0
M  V30 687 C 64.0432 0.573453 -1.50227 0
M  V30 688 O 65.2332 0.389759 -1.69784 0
M  V30 689 C 62.3652 0.652698 -3.34593 0
M  V30 690 H 63.5582 -1.07146 -2.80107 0
M  V30 691 H 61.1112 -0.593291 -1.44602 0
M  V30 692 H 61.8462 1.49943 -2.87555 0
M  V30 693 H 61.6312 0.065292 -3.92046 0
M  V30 694 H 63.1212 1.04793 -4.04238 0
M  V30 695 N 63.5583 1.46682 -0.576371 0
M  V30 696 C 64.8043 2.02712 -0.0596221 0
M  V30 697 C 65.1373 1.44765 1.29448 0
M  V30 698 O 64.4123 0.610355 1.84675 0
M  V30 699 C 64.6953 3.60098 0.0129503 0
M  V30 700 C 64.5483 4.28441 -1.3696 0
M  V30 701 C 65.8673 4.34224 0.71678 0
M  V30 702 H 62.9863 0.736637 -0.0231407 0
M  V30 703 H 65.6283 1.74898 -0.742351 0
M  V30 704 H 63.7783 3.83926 0.594378 0
M  V30 705 H 65.4503 4.15896 -1.9957 0
M  V30 706 H 63.6933 3.8805 -1.93907 0
M  V30 707 H 64.3643 5.3716 -1.27135 0
M  V30 708 H 66.8403 4.15503 0.222908 0
M  V30 709 H 65.7163 5.43936 0.73657 0
M  V30 710 H 65.9773 4.04823 1.77682 0
M  V30 711 N 65.0364 0.313813 1.54444 0
M  V30 712 C 66.2844 -0.291099 1.99993 0
M  V30 713 C 66.6054 -1.53418 1.20366 0
M  V30 714 O 65.8754 -1.93544 0.302927 0
M  V30 715 H 64.4554 -0.110552 0.738774 0
M  V30 716 H 67.1174 0.428106 1.9014 0
M  V30 717 H 66.2134 -0.554268 3.07139 0
M  V30 718 N 66.5145 -1.57545 0.0417849 0
M  V30 719 C 67.7635 -1.91494 -0.633492 0
M  V30 720 C 68.0765 -0.921084 -1.72556 0
M  V30 721 O 69.2825 -1.15228 -2.45835 0
M  V30 722 C 67.7385 -3.40072 -1.17808 0
M  V30 723 C 67.3465 -4.47843 -0.118633 0
M  V30 724 C 69.0905 -3.8307 -1.82915 0
M  V30 725 C 66.9975 -5.87529 -0.675578 0
M  V30 726 H 65.9275 -0.714653 -0.24039 0
M  V30 727 H 68.5785 -1.83175 0.109148 0
M  V30 728 H 66.9605 -3.43364 -1.97274 0
M  V30 729 H 68.1345 -4.56128 0.654494 0
M  V30 730 H 66.4495 -4.14128 0.434414 0
M  V30 731 H 69.0465 -4.84794 -2.25563 0
M  V30 732 H 69.3895 -3.1881 -2.67705 0
M  V30 733 H 69.9225 -3.82255 -1.10119 0
M  V30 734 H 66.6615 -6.55362 0.134475 0
M  V30 735 H 66.1815 -5.82824 -1.4169 0
M  V30 736 H 67.8605 -6.36491 -1.1614 0
M  V30 737 N 67.9926 0.231505 -1.5589 0
M  V30 738 C 69.2326 0.964533 -1.80211 0
M  V30 739 C 69.5966 1.81926 -0.613744 0
M  V30 740 O 70.7976 2.58526 -0.736045 0
M  V30 741 C 69.0686 1.78956 -3.09369 0
M  V30 742 S 70.6276 2.57959 -3.54969 0
M  V30 743 H 67.4456 0.324173 -0.632798 0
M  V30 744 H 70.0476 0.230985 -1.94131 0
M  V30 745 H 68.7516 1.15161 -3.93911 0
M  V30 746 H 68.2826 2.56559 -2.9823 0
M  V30 747 H 70.2976 3.81309 -3.17519 0
M  V30 748 N 69.4707 1.49531 0.497807 0
M  V30 749 C 70.8867 1.36365 0.829266 0
M  V30 750 C 71.0867 0.399184 1.97506 0
M  V30 751 O 70.1427 -0.167977 2.51941 0
M  V30 752 C 71.4557 2.77153 1.16647 0
M  V30 753 C 73.0037 2.85877 1.27449 0
M  V30 754 C 73.4787 4.2744 1.64497 0
M  V30 755 N 74.9697 4.30265 1.7154 0
M  V30 756 C 75.7047 5.3677 2.01656 0
M  V30 757 N 75.2007 6.53516 2.29976 0
M  V30 758 N 76.9937 5.24189 2.02934 0
M  V30 759 H 69.1447 2.10831 -0.257703 0
M  V30 760 H 71.4077 0.946534 -0.0527091 0
M  V30 761 H 71.1137 3.49442 0.397872 0
M  V30 762 H 70.9877 3.12722 2.10915 0
M  V30 763 H 73.3747 2.13824 2.0338 0
M  V30 764 H 73.4557 2.53887 0.312244 0
M  V30 765 H 73.0997 5.00021 0.891151 0
M  V30 766 H 73.0297 4.56896 2.61827 0
M  V30 767 H 75.5207 3.4607 1.51802 0
M  V30 768 H 75.8337 7.30506 2.52153 0
M  V30 769 H 74.1787 6.56737 2.27425 0
M  V30 770 H 77.3697 4.31988 1.80289 0
M  V30 771 H 77.5427 6.07286 2.26071 0
M  V30 772 N 70.9488 -0.749086 1.3866 0
M  V30 773 C 72.1768 -1.53834 1.38358 0
M  V30 774 C 72.5918 -1.88783 -0.0255219 0
M  V30 775 O 71.9488 -1.53101 -0.993292 0
M  V30 776 C 71.9998 -2.83468 2.2434 0
M  V30 777 O 71.7208 -2.50008 3.5976 0
M  V30 778 C 73.2218 -3.7758 2.32267 0
M  V30 779 H 70.4418 -0.47585 0.473083 0
M  V30 780 H 72.9858 -0.926726 1.82297 0
M  V30 781 H 71.1408 -3.40995 1.83851 0
M  V30 782 H 71.5548 -3.33182 4.05081 0
M  V30 783 H 73.0288 -4.65478 2.96706 0
M  V30 784 H 73.5058 -4.18334 1.33765 0
M  V30 785 H 74.1118 -3.25976 2.73166 0
M  V30 786 N 72.4269 -1.23603 -0.977757 0
M  V30 787 C 73.7039 -0.977897 -1.69401 0
M  V30 788 C 74.0839 0.502738 -2.05026 0
M  V30 789 O 73.4319 1.47459 -1.74551 0
M  V30 790 C 73.6419 -1.89077 -2.93345 0
M  V30 791 C 74.9899 -2.15579 -3.65802 0
M  V30 792 O 76.0139 -1.86648 -3.03383 0
M  V30 793 O 74.8729 -2.64658 -4.78141 0
M  V30 794 H 71.9669 -0.369025 -0.740101 0
M  V30 795 H 74.5129 -1.34657 -1.03274 0
M  V30 796 H 73.2849 -2.89158 -2.63634 0
M  V30 797 H 72.9079 -1.52463 -3.67207 0
M  V30 798 N 73.905 1.17692 -1.04816 0
M  V30 799 C 75.182 1.83768 -0.669963 0
M  V30 800 C 75.562 1.93232 0.849986 0
M  V30 801 O 74.91 1.46397 1.75443 0
M  V30 802 C 75.12 3.21641 -1.35455 0
M  V30 803 C 76.468 3.97592 -1.49017 0
M  V30 804 O 77.492 3.31107 -1.31326 0
M  V30 805 O 76.351 5.16729 -1.77914 0
M  V30 806 H 73.445 0.792799 -0.235368 0
M  V30 807 H 75.991 1.25021 -1.14751 0
M  V30 808 H 74.763 3.097 -2.39168 0
M  V30 809 H 74.386 3.88052 -0.866107 0
M  V30 810 N 75.3831 0.828654 1.34056 0
M  V30 811 C 76.3331 0.226828 2.26869 0
M  V30 812 C 77.3171 -0.612243 1.48796 0
M  V30 813 O 78.5091 -0.465884 1.70759 0
M  V30 814 C 75.6381 -0.605654 3.37915 0
M  V30 815 C 74.7241 0.244361 4.23395 0
M  V30 816 N 75.1151 1.31815 4.88322 0
M  V30 817 C 73.4131 0.0296616 4.4599 0
M  V30 818 C 74.1141 1.83895 5.51867 0
M  V30 819 N 73.0901 1.14196 5.3147 0
M  V30 820 H 76.8921 1.04811 2.74576 0
M  V30 821 H 74.4061 0.67205 1.47842 0
M  V30 822 H 76.4031 -1.05302 4.03382 0
M  V30 823 H 75.0631 -1.42504 2.91758 0
M  V30 824 H 76.0741 1.70099 4.8917 0
M  V30 825 H 72.7511 -0.757097 4.10578 0
M  V30 826 H 74.1411 2.7376 6.136 0
M  V30 827 N 76.8612 -1.46375 0.584142 0
M  V30 828 C 78.1072 -2.02678 0.0703716 0
M  V30 829 C 78.4402 -1.4545 -1.28678 0
M  V30 830 O 77.7152 -0.62014 -1.84349 0
M  V30 831 C 77.9982 -3.60099 0.00614674 0
M  V30 832 C 77.8512 -4.27709 1.3923 0
M  V30 833 C 79.1702 -4.34598 -0.693742 0
M  V30 834 H 76.2892 -0.736504 0.027047 0
M  V30 835 H 78.9312 -1.74501 0.751615 0
M  V30 836 H 77.0812 -3.84236 -0.574009 0
M  V30 837 H 78.7532 -4.14832 2.01773 0
M  V30 838 H 76.9962 -3.87016 1.95962 0
M  V30 839 H 77.6672 -5.36478 1.29982 0
M  V30 840 H 80.1432 -4.15615 -0.200869 0
M  V30 841 H 79.0192 -5.44318 -0.707714 0
M  V30 842 H 79.2802 -4.05759 -1.75533 0
M  V30 843 N 78.3393 -0.321999 -1.54275 0
M  V30 844 C 79.5853 0.281461 -2.00837 0
M  V30 845 C 79.9183 1.51909 -1.20985 0
M  V30 846 O 79.1933 1.923 -0.291733 0
M  V30 847 C 79.4763 0.617162 -3.54772 0
M  V30 848 C 79.3293 -0.631064 -4.45351 0
M  V30 849 C 80.6483 1.43542 -4.16033 0
M  V30 850 H 77.7673 0.100826 -0.730071 0
M  V30 851 H 80.4093 -0.438268 -1.84876 0
M  V30 852 H 78.5593 1.23034 -3.68504 0
M  V30 853 H 80.2313 -1.26934 -4.43492 0
M  V30 854 H 78.4743 -1.26025 -4.15091 0
M  V30 855 H 79.1453 -0.351735 -5.50878 0
M  V30 856 H 81.6213 0.917134 -4.05867 0
M  V30 857 H 80.4973 1.63907 -5.23856 0
M  V30 858 H 80.7583 2.43108 -3.69257 0
M  V30 859 N 79.8174 1.5752 -0.0501392 0
M  V30 860 C 81.0424 1.97376 0.636997 0
M  V30 861 C 81.4674 0.927466 1.63645 0
M  V30 862 O 80.8254 -0.10941 1.8097 0
M  V30 863 C 80.8734 3.36304 1.30123 0
M  V30 864 O 79.9774 3.34156 2.41689 0
M  V30 865 H 79.3184 0.642998 0.165679 0
M  V30 866 H 81.8484 2.04258 -0.118233 0
M  V30 867 H 81.8584 3.73008 1.65315 0
M  V30 868 H 80.5334 4.11993 0.568746 0
M  V30 869 H 79.1104 3.09196 2.08451 0
M  V30 870 N 81.2955 -0.223234 1.56011 0
M  V30 871 C 82.5435 -0.946003 1.78592 0
M  V30 872 C 82.8645 -1.84936 0.618349 0
M  V30 873 O 82.1345 -1.92473 -0.364833 0
M  V30 874 H 80.7145 -0.352298 0.658707 0
M  V30 875 H 83.3765 -0.235494 1.93472 0
M  V30 876 H 82.4725 -1.55381 2.70672 0
M  V30 877 N 82.7736 -1.49793 -0.48987 0
M  V30 878 C 83.7216 -1.67783 -1.61095 0
M  V30 879 C 84.7156 -0.543683 -1.60438 0
M  V30 880 O 85.9216 -0.723647 -1.64813 0
M  V30 881 H 82.2966 -0.529255 -0.534222 0
M  V30 882 H 84.2676 -2.61861 -1.43078 0
M  V30 883 C 83.0166 -1.77191 -2.99164 0
M  V30 884 H 82.3396 -2.63841 -3.0038 0
M  V30 885 H 83.7796 -1.93809 -3.77113 0
M  V30 886 C 82.2386 -0.519203 -3.32875 0
M  V30 887 O 82.7686 0.350124 -4.00171 0
M  V30 888 N 80.9746 -0.378816 -2.8812 0
M  V30 889 H 80.5216 -1.08725 -2.33531 0
M  V30 890 H 80.4796 0.458239 -3.11043 0
M  V30 891 N 84.2517 0.741722 -1.39055 0
M  V30 892 C 85.1817 1.869 -1.39966 0
M  V30 893 C 86.1627 1.6804 -0.26392 0
M  V30 894 O 87.3477 1.88458 -0.468755 0
M  V30 895 C 84.4777 3.24572 -1.23574 0
M  V30 896 C 83.4317 3.58056 -2.34477 0
M  V30 897 C 82.7577 4.94593 -2.0318 0
M  V30 898 C 84.0577 3.61716 -3.76774 0
M  V30 899 H 85.7517 1.86395 -2.34302 0
M  V30 900 H 83.2977 0.895361 -1.1278 0
M  V30 901 H 85.2507 4.031 -1.22834 0
M  V30 902 H 83.9747 3.25587 -0.257045 0
M  V30 903 H 82.6337 2.81854 -2.34423 0
M  V30 904 H 82.2817 4.92181 -1.03765 0
M  V30 905 H 81.9817 5.17964 -2.77465 0
M  V30 906 H 83.5057 5.75486 -2.04079 0
M  V30 907 H 84.9197 4.30335 -3.78794 0
M  V30 908 H 83.3167 3.96603 -4.50362 0
M  V30 909 H 84.3867 2.61672 -4.08235 0
M  V30 910 N 85.7298 1.2412 0.971189 0
M  V30 911 C 86.9758 1.08041 1.71625 0
M  V30 912 C 87.3088 -0.380407 1.90438 0
M  V30 913 O 86.5838 -1.28127 1.46334 0
M  V30 914 C 86.8668 1.81682 3.10908 0
M  V30 915 C 86.7198 3.35493 2.99608 0
M  V30 916 C 88.0388 1.58671 4.10501 0
M  V30 917 H 85.1578 0.39388 0.622919 0
M  V30 918 H 87.7998 1.52743 1.13003 0
M  V30 919 H 85.9498 1.43684 3.60953 0
M  V30 920 H 87.6218 3.83068 2.57015 0
M  V30 921 H 85.8648 3.64052 2.35899 0
M  V30 922 H 86.5358 3.82217 3.98264 0
M  V30 923 H 89.0118 1.91719 3.69301 0
M  V30 924 H 87.8878 2.1266 5.06031 0
M  V30 925 H 88.1488 0.524161 4.38982 0
M  V30 926 N 87.2079 -1.17134 1.05439 0
M  V30 927 C 88.4359 -1.91372 0.786414 0
M  V30 928 C 88.8509 -1.76955 -0.658202 0
M  V30 929 O 88.2079 -1.10838 -1.44987 0
M  V30 930 C 88.2589 -3.42356 1.1608 0
M  V30 931 O 87.9799 -3.56332 2.54871 0
M  V30 932 C 89.4809 -4.33663 0.919322 0
M  V30 933 H 86.7009 -0.607118 0.285743 0
M  V30 934 H 89.2449 -1.48525 1.40572 0
M  V30 935 H 87.3999 -3.82939 0.586191 0
M  V30 936 H 87.8139 -4.49896 2.69618 0
M  V30 937 H 89.2879 -5.38099 1.231 0
M  V30 938 H 89.7649 -4.38959 -0.145359 0
M  V30 939 H 90.3709 -3.98796 1.47789 0
M  V30 940 N 88.686 -0.835752 -1.33615 0
M  V30 941 C 90.097 -0.487099 -1.80234 0
M  V30 942 C 90.448 0.993627 -1.69179 0
M  V30 943 O 89.573 1.77403 -1.23924 0
M  V30 944 C 90.168 -0.877385 -3.27242 0
M  V30 945 C 88.727 -0.580915 -3.7189 0
M  V30 946 C 87.874 -1.0874 -2.5509 0
M  V30 947 H 90.825 -1.02474 -1.2118 0
M  V30 948 H 90.846 -0.186195 -3.80044 0
M  V30 949 H 90.358 -1.95512 -3.35256 0
M  V30 950 H 88.459 0.486881 -3.69405 0
M  V30 951 H 88.572 -1.13396 -4.65487 0
M  V30 952 H 86.936 -0.508392 -2.49575 0
M  V30 953 H 87.719 -2.17184 -2.65868 0
M  V30 954 N 90.1641 1.46063 -0.591896 0
M  V30 955 C 91.0941 2.33172 0.123673 0
M  V30 956 C 92.0751 1.45897 0.87453 0
M  V30 957 O 93.2601 1.74698 0.848181 0
M  V30 958 C 90.3901 3.28336 1.13194 0
M  V30 959 C 89.3441 4.25124 0.495324 0
M  V30 960 C 88.6701 5.09863 1.61071 0
M  V30 961 C 89.9701 5.19143 -0.573425 0
M  V30 962 H 91.6641 2.93252 -0.603646 0
M  V30 963 H 89.2101 1.41014 -0.291741 0
M  V30 964 H 91.1631 3.88137 1.64097 0
M  V30 965 H 89.8871 2.66383 1.88965 0
M  V30 966 H 88.5461 3.66599 0.00729452 0
M  V30 967 H 88.1941 4.44288 2.35832 0
M  V30 968 H 87.8941 5.75417 1.19035 0
M  V30 969 H 89.4181 5.72529 2.12233 0
M  V30 970 H 90.8321 5.73106 -0.1491 0
M  V30 971 H 89.2291 5.93089 -0.914636 0
M  V30 972 H 90.2991 4.62519 -1.45617 0
M  V30 973 N 91.6422 0.330177 1.54103 0
M  V30 974 C 93.0532 -0.15652 1.86043 0
M  V30 975 C 93.4042 -1.51086 1.2517 0
M  V30 976 O 92.5292 -2.09023 0.560217 0
M  V30 977 C 93.1242 -0.290784 3.3755 0
M  V30 978 C 91.6832 -0.721705 3.69416 0
M  V30 979 C 90.8302 0.152622 2.7688 0
M  V30 980 H 93.7812 0.550237 1.48856 0
M  V30 981 H 93.8022 -1.12058 3.63625 0
M  V30 982 H 93.3142 0.695068 3.81825 0
M  V30 983 H 91.4152 -1.71706 3.30678 0
M  V30 984 H 91.5282 -0.520869 4.7626 0
M  V30 985 H 89.8922 -0.372894 2.51956 0
M  V30 986 H 90.6752 1.13536 3.23982 0
M  V30 987 N 93.1203 -1.57491 0.0584922 0
M  V30 988 C 94.3663 -1.93264 -0.614558 0
M  V30 989 C 94.6993 -0.937717 -1.7006 0
M  V30 990 O 93.9743 0.0351652 -1.94468 0
M  V30 991 C 94.2573 -3.3938 -1.20386 0
M  V30 992 C 94.1103 -4.49625 -0.125375 0
M  V30 993 C 95.4293 -3.86039 -2.11334 0
M  V30 994 H 92.5483 -0.702791 -0.221933 0
M  V30 995 H 95.1903 -1.8961 0.12175 0
M  V30 996 H 93.3403 -3.42626 -1.83139 0
M  V30 997 H 95.0123 -4.58506 0.506971 0
M  V30 998 H 93.2553 -4.30354 0.545672 0
M  V30 999 H 93.9263 -5.48967 -0.577861 0
M  V30 1000 H 96.4023 -3.84716 -1.58534 0
M  V30 1001 H 95.2783 -4.88914 -2.49507 0
M  V30 1002 H 95.5393 -3.23215 -3.01636 0
M  V30 1003 N 94.5984 0.214957 -1.56127 0
M  V30 1004 C 95.8474 0.936451 -1.78643 0
M  V30 1005 C 96.1604 1.85237 -0.628229 0
M  V30 1006 O 97.3664 2.613 -0.737186 0
M  V30 1007 C 95.8224 1.7154 -3.16389 0
M  V30 1008 C 95.4304 0.845299 -4.39953 0
M  V30 1009 C 97.1744 2.42772 -3.48227 0
M  V30 1010 C 95.0814 1.62198 -5.68723 0
M  V30 1011 H 94.0114 0.353401 -0.666051 0
M  V30 1012 H 96.6624 0.190169 -1.82512 0
M  V30 1013 H 95.0444 2.50484 -3.06715 0
M  V30 1014 H 96.2184 0.0959353 -4.607 0
M  V30 1015 H 94.5334 0.244789 -4.1568 0
M  V30 1016 H 97.1304 3.01394 -4.41663 0
M  V30 1017 H 97.4734 3.15984 -2.71035 0
M  V30 1018 H 98.0064 1.70813 -3.5926 0
M  V30 1019 H 94.7454 0.933011 -6.48826 0
M  V30 1020 H 94.2654 2.34579 -5.52026 0
M  V30 1021 H 95.9444 2.18095 -6.09133 0
M  V30 1022 N 96.0765 1.50051 0.48192 0
M  V30 1023 C 97.0065 1.71046 1.58951 0
M  V30 1024 C 97.9875 0.559288 1.60642 0
M  V30 1025 O 99.1725 0.797243 1.77081 0
M  V30 1026 C 96.3025 1.79462 2.97339 0
M  V30 1027 C 95.2565 2.94558 3.10515 0
M  V30 1028 C 94.5825 2.88105 4.50444 0
M  V30 1029 C 95.8825 4.35227 2.88747 0
M  V30 1030 H 97.5765 2.6378 1.41635 0
M  V30 1031 H 95.1225 1.26936 0.679942 0
M  V30 1032 H 97.0755 1.92734 3.74742 0
M  V30 1033 H 95.7995 0.833412 3.15788 0
M  V30 1034 H 94.4585 2.80918 2.35543 0
M  V30 1035 H 94.1065 1.89853 4.65795 0
M  V30 1036 H 93.8065 3.65366 4.60197 0
M  V30 1037 H 95.3305 3.03412 5.29881 0
M  V30 1038 H 96.7445 4.49449 3.55905 0
M  V30 1039 H 95.1415 5.13856 3.09955 0
M  V30 1040 H 96.2115 4.48347 1.84696 0
M  V30 1041 N 97.5546 -0.734337 1.39446 0
M  V30 1042 C 98.8026 -1.49096 1.36436 0
M  V30 1043 C 99.1236 -1.94961 -0.0388255 0
M  V30 1044 O 98.3936 -1.69033 -0.990191 0
M  V30 1045 H 96.9736 -0.5531 0.502085 0
M  V30 1046 H 99.6356 -0.871725 1.74319 0
M  V30 1047 H 98.7316 -2.37276 2.02747 0
M  V30 1048 N 99.0327 -1.24633 -0.964593 0
M  V30 1049 C 99.9827 -1.00841 -2.04487 0
M  V30 1050 C 100.967 0.0512468 -1.60818 0
M  V30 1051 O 102.159 -0.162865 -1.76249 0
M  V30 1052 C 99.2877 -0.618474 -3.37683 0
M  V30 1053 C 98.3737 -1.71437 -3.87905 0
M  V30 1054 N 98.7647 -2.9477 -4.11029 0
M  V30 1055 C 97.0627 -1.5926 -4.16596 0
M  V30 1056 C 97.7637 -3.65834 -4.52261 0
M  V30 1057 N 96.7397 -2.9341 -4.57615 0
M  V30 1058 H 100.542 -1.94487 -2.20345 0
M  V30 1059 H 98.0557 -1.14805 -1.14863 0
M  V30 1060 H 100.053 -0.429247 -4.14684 0
M  V30 1061 H 98.7127 0.310766 -3.23209 0
M  V30 1062 H 99.7237 -3.30917 -3.9839 0
M  V30 1063 H 96.4007 -0.731606 -4.1104 0
M  V30 1064 H 97.7907 -4.71646 -4.78539 0
M  V30 1065 N 100.511 1.16574 -1.06058 0
M  V30 1066 C 101.421 2.2452 -0.680282 0
M  V30 1067 C 102.437 1.71348 0.302604 0
M  V30 1068 O 103.613 2.00822 0.152513 0
M  V30 1069 C 100.678 3.46629 -0.0700315 0
M  V30 1070 C 99.7388 4.14849 -1.10448 0
M  V30 1071 C 98.9718 5.31129 -0.523256 0
M  V30 1072 O 99.1948 5.66514 0.664709 0
M  V30 1073 O 98.1288 5.88526 -1.26179 0
M  V30 1074 H 101.955 2.59355 -1.58015 0
M  V30 1075 H 99.5398 1.24043 -0.832694 0
M  V30 1076 H 101.422 4.20543 0.268667 0
M  V30 1077 H 100.097 3.13573 0.803353 0
M  V30 1078 H 99.0038 3.42916 -1.49532 0
M  V30 1079 H 100.337 4.51954 -1.94931 0
M  V30 1080 N 101.989 0.842826 1.3317 0
M  V30 1081 C 102.952 0.284065 2.27433 0
M  V30 1082 C 103.952 -0.54948 1.5112 0
M  V30 1083 O 105.142 -0.362699 1.70382 0
M  V30 1084 C 102.274 -0.599384 3.35589 0
M  V30 1085 H 103.467 1.11589 2.78366 0
M  V30 1086 H 101.02 0.616221 1.4364 0
M  V30 1087 H 101.755 -1.45349 2.89904 0
M  V30 1088 H 101.54 -0.00291266 3.921 0
M  V30 1089 H 103.03 -0.983488 4.05854 0
M  V30 1090 N 103.467 -1.45747 0.599634 0
M  V30 1091 C 104.43 -2.28917 -0.113835 0
M  V30 1092 C 105.43 -1.3933 -0.802729 0
M  V30 1093 O 106.62 -1.61534 -0.652103 0
M  V30 1094 C 103.752 -3.20152 -1.17114 0
M  V30 1095 H 104.945 -2.93478 0.617289 0
M  V30 1096 H 102.498 -1.52137 0.358327 0
M  V30 1097 H 103.233 -2.60374 -1.93329 0
M  V30 1098 H 103.018 -3.86133 -0.681468 0
M  V30 1099 H 104.508 -3.82708 -1.67105 0
M  V30 1100 N 104.945 -0.338344 -1.53925 0
M  V30 1101 C 106.193 0.259245 -2.0043 0
M  V30 1102 C 106.514 1.51484 -1.22791 0
M  V30 1103 O 105.784 1.93037 -0.33368 0
M  V30 1104 H 104.364 0.0987845 -0.740439 0
M  V30 1105 H 107.026 -0.458302 -1.89435 0
M  V30 1106 H 106.122 0.505334 -3.07982 0
M  V30 1107 N 106.423 1.57458 -0.0668435 0
M  V30 1108 C 107.672 1.92477 0.602947 0
M  V30 1109 C 107.985 0.948419 1.71068 0
M  V30 1110 O 109.191 1.19124 2.43971 0
M  V30 1111 C 107.647 3.41903 1.12383 0
M  V30 1112 C 107.255 4.47975 0.04737 0
M  V30 1113 C 108.999 3.85931 1.76797 0
M  V30 1114 C 106.906 5.88529 0.582022 0
M  V30 1115 H 105.836 0.718387 0.22899 0
M  V30 1116 H 108.487 1.82978 -0.138276 0
M  V30 1117 H 106.869 3.46459 1.91787 0
M  V30 1118 H 108.043 4.55029 -0.726978 0
M  V30 1119 H 106.358 4.13384 -0.500243 0
M  V30 1120 H 108.955 4.88322 2.17821 0
M  V30 1121 H 109.298 3.23029 2.62599 0
M  V30 1122 H 109.831 3.83958 1.04024 0
M  V30 1123 H 106.57 6.55065 -0.238721 0
M  V30 1124 H 106.09 5.85004 1.324 0
M  V30 1125 H 107.769 6.38258 1.05999 0
M  V30 1126 N 107.901 -0.206675 1.56239 0
M  V30 1127 C 109.147 -0.930218 1.80208 0
M  V30 1128 C 109.48 -1.83387 0.638981 0
M  V30 1129 O 108.755 -1.91119 -0.361066 0
M  V30 1130 C 109.038 -1.75641 3.1436 0
M  V30 1131 C 108.891 -0.878257 4.41142 0
M  V30 1132 C 110.21 -2.73129 3.45092 0
M  V30 1133 H 107.329 -0.336742 0.655571 0
M  V30 1134 H 109.971 -0.198222 1.88963 0
M  V30 1135 H 108.121 -2.38048 3.07027 0
M  V30 1136 H 109.793 -0.269787 4.6051 0
M  V30 1137 H 108.036 -0.184385 4.33408 0
M  V30 1138 H 108.707 -1.49106 5.3148 0
M  V30 1139 H 111.183 -2.20856 3.52649 0
M  V30 1140 H 110.059 -3.28028 4.40101 0
M  V30 1141 H 110.32 -3.51606 2.68003 0
M  V30 1142 N 109.379 -1.50304 -0.473955 0
M  V30 1143 C 110.289 -1.7174 -1.5982 0
M  V30 1144 C 111.305 -0.600457 -1.63311 0
M  V30 1145 O 112.481 -0.878441 -1.81233 0
M  V30 1146 C 109.546 -1.80427 -2.96052 0
M  V30 1147 C 108.607 -3.04148 -3.02972 0
M  V30 1148 C 107.84 -3.12411 -4.32706 0
M  V30 1149 O 108.063 -2.27542 -5.23049 0
M  V30 1150 O 106.997 -4.05113 -4.45159 0
M  V30 1151 H 110.823 -2.67035 -1.44657 0
M  V30 1152 H 108.408 -1.34366 -0.653148 0
M  V30 1153 H 110.29 -1.88338 -3.7697 0
M  V30 1154 H 108.965 -0.883156 -3.11419 0
M  V30 1155 H 107.872 -3.0174 -2.21142 0
M  V30 1156 H 109.205 -3.95829 -2.92541 0
M  V30 1157 N 110.857 0.726932 -1.39834 0
M  V30 1158 C 112.082 1.52121 -1.40976 0
M  V30 1159 C 112.507 1.88098 -0.00826029 0
M  V30 1160 O 111.865 1.52479 0.980807 0
M  V30 1161 C 111.913 2.78021 -2.29644 0
M  V30 1162 O 111.017 3.74272 -1.73188 0
M  V30 1163 H 110.358 0.45908 -0.479731 0
M  V30 1164 H 112.888 0.896207 -1.83927 0
M  V30 1165 H 112.898 3.26671 -2.44438 0
M  V30 1166 H 111.573 2.51169 -3.31492 0
M  V30 1167 H 110.15 3.33073 -1.6768 0
M  V30 1168 N 112.336 1.25143 0.95797 0
M  V30 1169 C 113.582 1.09855 1.70469 0
M  V30 1170 C 113.915 -0.360187 1.90831 0
M  V30 1171 O 113.19 -1.26568 1.47685 0
M  V30 1172 C 113.473 1.8497 3.08963 0
M  V30 1173 C 113.326 3.38652 2.96032 0
M  V30 1174 C 114.645 1.63016 4.08795 0
M  V30 1175 H 111.764 0.400465 0.618706 0
M  V30 1176 H 114.406 1.53933 1.11376 0
M  V30 1177 H 112.556 1.47505 3.59409 0
M  V30 1178 H 114.228 3.85772 2.52938 0
M  V30 1179 H 112.471 3.66534 2.32025 0
M  V30 1180 H 113.142 3.8642 3.94187 0
M  V30 1181 H 115.618 1.95625 3.67247 0
M  V30 1182 H 114.494 2.18015 5.03747 0
M  V30 1183 H 114.755 0.570692 4.38401 0
M  V30 1184 N 113.814 -1.1601 1.06675 0
M  V30 1185 C 115.062 -1.86264 0.784229 0
M  V30 1186 C 115.383 -1.82328 -0.691488 0
M  V30 1187 O 114.653 -1.25947 -1.50047 0
M  V30 1188 H 113.233 -0.689621 0.28711 0
M  V30 1189 H 115.895 -1.40664 1.34906 0
M  V30 1190 H 114.991 -2.91595 1.11259 0
M  V30 1191 N 115.292 -0.849877 -1.32721 0
M  V30 1192 C 116.202 -0.293791 -2.32753 0
M  V30 1193 C 117.218 0.585906 -1.63839 0
M  V30 1194 O 118.394 0.487413 -1.95413 0
M  V30 1195 C 115.459 0.512752 -3.42887 0
M  V30 1196 C 114.52 -0.39252 -4.27502 0
M  V30 1197 C 113.753 0.375625 -5.32377 0
M  V30 1198 O 113.976 1.60613 -5.4732 0
M  V30 1199 O 112.91 -0.256094 -6.01355 0
M  V30 1200 H 116.736 -1.12242 -2.82197 0
M  V30 1201 H 114.321 -0.612685 -1.36259 0
M  V30 1202 H 116.203 0.970704 -4.10067 0
M  V30 1203 H 114.878 1.31826 -2.95641 0
M  V30 1204 H 113.785 -0.898547 -3.63149 0
M  V30 1205 H 115.118 -1.16309 -4.7826 0
M  V30 1206 N 116.77 1.45427 -0.607355 0
M  V30 1207 C 118.018 2.01841 -0.102253 0
M  V30 1208 C 118.339 1.47832 1.27164 0
M  V30 1209 O 117.609 0.672497 1.83995 0
M  V30 1210 H 116.189 0.746188 -0.0348101 0
M  V30 1211 H 118.851 1.78229 -0.7887 0
M  V30 1212 H 117.947 3.12057 -0.0518585 0
M  V30 1213 N 118.248 0.346503 1.53744 0
M  V30 1214 C 119.494 -0.249473 2.0126 0
M  V30 1215 C 119.827 -1.49965 1.23386 0
M  V30 1216 O 119.102 -1.91811 0.32229 0
M  V30 1217 C 119.385 -0.560643 3.55709 0
M  V30 1218 C 119.238 0.701836 4.44291 0
M  V30 1219 C 120.557 -1.36905 4.18264 0
M  V30 1220 H 117.676 -0.0891987 0.731582 0
M  V30 1221 H 120.318 0.467624 1.84156 0
M  V30 1222 H 118.468 -1.17156 3.70414 0
M  V30 1223 H 120.14 1.33974 4.41417 0
M  V30 1224 H 118.383 1.32612 4.13033 0
M  V30 1225 H 119.054 0.43933 5.50249 0
M  V30 1226 H 121.53 -0.852448 4.07275 0
M  V30 1227 H 120.406 -1.55553 5.26398 0
M  V30 1228 H 120.667 -2.37203 3.73078 0
M  V30 1229 N 119.726 -1.57421 0.075193 0
M  V30 1230 C 120.954 -1.97946 -0.602076 0
M  V30 1231 C 121.369 -0.953674 -1.62943 0
M  V30 1232 O 120.726 0.0592551 -1.82404 0
M  V30 1233 C 120.777 -3.38546 -1.26762 0
M  V30 1234 O 120.498 -4.37195 -0.281376 0
M  V30 1235 C 121.999 -3.93966 -2.03239 0
M  V30 1236 H 119.219 -0.650918 -0.162931 0
M  V30 1237 H 121.763 -2.03959 0.148601 0
M  V30 1238 H 119.918 -3.33609 -1.96936 0
M  V30 1239 H 120.332 -5.18975 -0.759267 0
M  V30 1240 H 121.806 -4.94555 -2.45193 0
M  V30 1241 H 122.283 -3.30693 -2.8903 0
M  V30 1242 H 122.889 -4.02315 -1.37924 0
M  V30 1243 N 121.204 0.198386 -1.56346 0
M  V30 1244 C 122.432 0.935572 -1.84539 0
M  V30 1245 C 122.847 1.76989 -0.657281 0
M  V30 1246 O 122.204 1.78626 0.374043 0
M  V30 1247 C 122.255 1.8344 -3.11499 0
M  V30 1248 O 121.976 1.03377 -4.25728 0
M  V30 1249 C 123.477 2.68355 -3.52846 0
M  V30 1250 H 120.697 0.273126 -0.612897 0
M  V30 1251 H 123.241 0.20663 -2.03453 0
M  V30 1252 H 121.396 2.51701 -2.94492 0
M  V30 1253 H 121.81 1.64599 -4.98003 0
M  V30 1254 H 123.284 3.27085 -4.44657 0
M  V30 1255 H 123.761 3.41901 -2.75681 0
M  V30 1256 H 124.367 2.05471 -3.72373 0
M  V30 1257 N 122.682 1.50554 0.465978 0
M  V30 1258 C 123.928 1.62038 1.21949 0
M  V30 1259 C 124.261 0.322116 1.9151 0
M  V30 1260 O 123.536 -0.676723 1.82348 0
M  V30 1261 C 123.819 2.80421 2.25912 0
M  V30 1262 C 123.672 4.20144 1.60622 0
M  V30 1263 C 124.991 2.94354 3.27176 0
M  V30 1264 H 122.11 0.589752 0.441998 0
M  V30 1265 H 124.752 1.82956 0.51257 0
M  V30 1266 H 122.902 2.62717 2.86203 0
M  V30 1267 H 124.574 4.49449 1.03889 0
M  V30 1268 H 122.817 4.24165 0.909211 0
M  V30 1269 H 123.488 4.98914 2.36196 0
M  V30 1270 H 125.964 3.10578 2.76913 0
M  V30 1271 H 124.84 3.788 3.97242 0
M  V30 1272 H 125.101 2.05186 3.916 0
M  V30 1273 N 124.16 -0.719506 1.40217 0
M  V30 1274 C 125.107 -1.83359 1.40172 0
M  V30 1275 C 126.077 -1.64065 0.259206 0
M  V30 1276 O 127.262 -1.85254 0.456677 0
M  V30 1277 C 124.402 -3.2103 1.26624 0
M  V30 1278 C 123.515 -3.51923 2.50548 0
M  V30 1279 C 122.65 -4.79079 2.29471 0
M  V30 1280 C 121.689 -5.02863 3.48992 0
M  V30 1281 N 120.826 -6.2123 3.27135 0
M  V30 1282 H 125.666 -1.82733 2.35399 0
M  V30 1283 H 123.203 -0.892688 1.16917 0
M  V30 1284 H 125.161 -4.00524 1.16776 0
M  V30 1285 H 123.791 -3.20895 0.350176 0
M  V30 1286 H 122.843 -2.67014 2.70939 0
M  V30 1287 H 124.155 -3.6541 3.39525 0
M  V30 1288 H 123.309 -5.66582 2.16955 0
M  V30 1289 H 122.048 -4.67794 1.37913 0
M  V30 1290 H 121.053 -4.13816 3.6199 0
M  V30 1291 H 122.278 -5.16023 4.41472 0
M  V30 1292 H 120.224 -6.11204 2.38256 0
M  V30 1293 H 120.141 -6.35375 4.09675 0
M  V30 1294 H 121.409 -7.11532 3.18344 0
M  V30 1295 N 125.638 -1.25649 -0.95132 0
M  V30 1296 C 127.049 -1.09654 -1.51106 0
M  V30 1297 C 127.4 0.326615 -1.93462 0
M  V30 1298 O 126.525 1.21697 -1.78938 0
M  V30 1299 C 127.12 -1.98437 -2.74605 0
M  V30 1300 C 125.679 -1.86618 -3.2688 0
M  V30 1301 C 124.826 -1.9239 -1.99703 0
M  V30 1302 H 127.777 -1.38887 -0.767865 0
M  V30 1303 H 127.798 -1.5263 -3.48546 0
M  V30 1304 H 127.31 -3.02009 -2.43746 0
M  V30 1305 H 125.411 -0.859421 -3.62553 0
M  V30 1306 H 125.524 -2.71607 -3.94673 0
M  V30 1307 H 123.888 -1.36317 -2.15151 0
M  V30 1308 H 124.671 -2.97573 -1.71188 0
M  V30 1309 N 127.117 1.15442 -1.07289 0
M  V30 1310 C 128.365 1.85845 -0.794096 0
M  V30 1311 C 128.686 1.82692 0.681809 0
M  V30 1312 O 127.956 1.26741 1.49377 0
M  V30 1313 H 126.536 0.688089 -0.290763 0
M  V30 1314 H 129.198 1.39947 -1.3565 0
M  V30 1315 H 128.294 2.91001 -1.12804 0
M  V30 1316 N 128.595 0.856903 1.32268 0
M  V30 1317 C 129.872 0.382583 1.91822 0
M  V30 1318 C 130.252 -1.13407 1.78051 0
M  V30 1319 O 129.6 -1.95673 1.18001 0
M  V30 1320 C 129.81 0.849446 3.38505 0
M  V30 1321 C 131.158 0.867936 4.15634 0
M  V30 1322 O 132.182 0.794232 3.47232 0
M  V30 1323 O 131.041 0.972286 5.37781 0
M  V30 1324 H 128.135 0.112014 0.819379 0
M  V30 1325 H 130.681 0.943952 1.41024 0
M  V30 1326 H 129.453 1.89267 3.42482 0
M  V30 1327 H 129.076 0.265652 3.96712 0
M  V30 1328 N 130.073 -1.45103 0.615059 0
M  V30 1329 C 131.02 -2.30586 -0.0993978 0
M  V30 1330 C 131.99 -1.42544 -0.852669 0
M  V30 1331 O 133.175 -1.71465 -0.836917 0
M  V30 1332 C 130.315 -3.27572 -1.08583 0
M  V30 1333 C 129.428 -4.30717 -0.332656 0
M  V30 1334 C 128.563 -5.14807 -1.30947 0
M  V30 1335 C 127.602 -6.09673 -0.544538 0
M  V30 1336 N 126.739 -6.86517 -1.47101 0
M  V30 1337 H 131.579 -2.91144 0.635542 0
M  V30 1338 H 129.116 -1.4346 0.325206 0
M  V30 1339 H 131.074 -3.82276 -1.67095 0
M  V30 1340 H 129.704 -2.68751 -1.78809 0
M  V30 1341 H 128.756 -3.78615 0.368107 0
M  V30 1342 H 130.068 -4.98102 0.263842 0
M  V30 1343 H 129.222 -5.73948 -1.96643 0
M  V30 1344 H 127.961 -4.47458 -1.9399 0
M  V30 1345 H 126.966 -5.49656 0.126003 0
M  V30 1346 H 128.191 -6.79052 0.080947 0
M  V30 1347 H 126.137 -6.21851 -2.08895 0
M  V30 1348 H 126.054 -7.50281 -0.928137 0
M  V30 1349 H 127.322 -7.50194 -2.11731 0
M  V30 1350 N 131.551 -0.354651 -1.53558 0
M  V30 1351 C 132.797 0.238797 -2.01389 0
M  V30 1352 C 133.13 1.49309 -1.2418 0
M  V30 1353 O 132.405 1.91638 -0.332457 0
M  V30 1354 C 132.688 0.541771 -3.56001 0
M  V30 1355 C 132.541 -0.725388 -4.43912 0
M  V30 1356 C 133.86 1.34685 -4.18984 0
M  V30 1357 H 130.979 0.0853177 -0.732045 0
M  V30 1358 H 133.621 -0.477384 -1.83905 0
M  V30 1359 H 131.771 1.15189 -3.71031 0
M  V30 1360 H 133.443 -1.36313 -4.407 0
M  V30 1361 H 131.686 -1.34801 -4.12324 0
M  V30 1362 H 132.357 -0.468505 -5.50008 0
M  V30 1363 H 134.833 0.830837 -4.07721 0
M  V30 1364 H 133.709 1.52759 -5.27215 0
M  V30 1365 H 133.97 2.35221 -3.74331 0
M  V30 1366 N 133.029 1.57378 -0.0835403 0
M  V30 1367 C 134.278 1.93106 0.582498 0
M  V30 1368 C 134.591 0.96651 1.70053 0
M  V30 1369 O 135.797 1.21705 2.42693 0
M  V30 1370 C 134.253 3.43076 1.08751 0
M  V30 1371 C 133.861 4.48 -0.000146404 0
M  V30 1372 C 135.605 3.87785 1.72694 0
M  V30 1373 C 133.512 5.89113 0.519568 0
M  V30 1374 H 132.442 0.720775 0.221358 0
M  V30 1375 H 135.093 1.82821 -0.157675 0
M  V30 1376 H 133.475 3.48474 1.88101 0
M  V30 1377 H 134.649 4.54233 -0.775199 0
M  V30 1378 H 132.964 4.1283 -0.54406 0
M  V30 1379 H 135.561 4.90604 2.1263 0
M  V30 1380 H 135.904 3.25796 2.59158 0
M  V30 1381 H 136.437 3.8504 0.999457 0
M  V30 1382 H 133.176 6.54775 -0.308186 0
M  V30 1383 H 132.696 5.86376 1.26188 0
M  V30 1384 H 134.375 6.39346 0.992237 0
M  V30 1385 N 134.507 -0.190092 1.56449 0
M  V30 1386 C 135.918 -0.754312 1.70784 0
M  V30 1387 C 136.269 -1.83631 0.690951 0
M  V30 1388 O 135.394 -2.15868 -0.151604 0
M  V30 1389 C 135.989 -1.37503 3.09642 0
M  V30 1390 C 134.548 -1.88628 3.25725 0
M  V30 1391 C 133.695 -0.758098 2.66736 0
M  V30 1392 H 136.646 0.0350524 1.58661 0
M  V30 1393 H 136.667 -2.2445 3.0725 0
M  V30 1394 H 136.179 -0.587302 3.83631 0
M  V30 1395 H 134.28 -2.70103 2.56661 0
M  V30 1396 H 134.393 -2.04462 4.3328 0
M  V30 1397 H 132.757 -1.17369 2.26046 0
M  V30 1398 H 133.54 0.0174705 3.43296 0
M  V30 1399 N 135.985 -1.50799 -0.457987 0
M  V30 1400 C 136.915 -1.73553 -1.5621 0
M  V30 1401 C 137.896 -0.584774 -1.59732 0
M  V30 1402 O 139.081 -0.825314 -1.7579 0
M  V30 1403 C 136.211 -1.84169 -2.94447 0
M  V30 1404 C 135.165 -2.99461 -3.0579 0
M  V30 1405 C 134.491 -2.95235 -4.45803 0
M  V30 1406 C 135.791 -4.39766 -2.81786 0
M  V30 1407 H 137.485 -2.66 -1.37421 0
M  V30 1408 H 135.031 -1.28002 -0.659662 0
M  V30 1409 H 136.984 -1.98672 -3.71628 0
M  V30 1410 H 135.708 -0.883545 -3.14422 0
M  V30 1411 H 134.367 -2.8463 -2.31044 0
M  V30 1412 H 134.015 -1.97239 -4.62715 0
M  V30 1413 H 133.715 -3.72642 -4.54326 0
M  V30 1414 H 135.239 -3.11803 -5.24987 0
M  V30 1415 H 136.653 -4.55054 -3.4871 0
M  V30 1416 H 135.05 -5.18722 -3.0174 0
M  V30 1417 H 136.12 -4.51229 -1.7754 0
M  V30 1418 N 137.463 0.71206 -1.40597 0
M  V30 1419 C 138.71 1.47197 -1.39065 0
M  V30 1420 C 139.038 1.94499 0.00583891 0
M  V30 1421 O 138.293 1.68752 0.99102 0
M  V30 1422 C 138.592 2.71039 -2.32965 0
M  V30 1423 C 138.258 2.42484 -3.80148 0
M  V30 1424 C 136.92 2.34406 -4.20247 0
M  V30 1425 C 139.272 2.18598 -4.73143 0
M  V30 1426 C 136.6 2.00516 -5.51371 0
M  V30 1427 C 138.952 1.8622 -6.0457 0
M  V30 1428 C 137.616 1.76626 -6.43708 0
M  V30 1429 H 136.886 0.538634 -0.508876 0
M  V30 1430 H 139.533 0.815325 -1.73276 0
M  V30 1431 H 137.838 3.41558 -1.91951 0
M  V30 1432 H 139.535 3.29138 -2.29061 0
M  V30 1433 H 136.125 2.49659 -3.4838 0
M  V30 1434 H 140.309 2.23793 -4.42979 0
M  V30 1435 H 135.565 1.91628 -5.80593 0
M  V30 1436 H 139.739 1.66752 -6.76141 0
M  V30 1437 H 137.366 1.50133 -7.45228 0
M  V30 1438 N 138.941 1.26152 0.944643 0
M  V30 1439 C 140.169 1.14259 1.72489 0
M  V30 1440 C 140.584 -0.302555 1.8636 0
M  V30 1441 O 139.941 -1.20741 1.36849 0
M  V30 1442 C 139.992 1.80266 3.13347 0
M  V30 1443 O 139.713 3.19133 3.00143 0
M  V30 1444 C 141.214 1.74283 4.07603 0
M  V30 1445 H 138.434 0.398051 0.540181 0
M  V30 1446 H 140.978 1.66706 1.18446 0
M  V30 1447 H 139.133 1.31766 3.64303 0
M  V30 1448 H 139.547 3.51744 3.89071 0
M  V30 1449 H 141.021 2.25111 5.04013 0
M  V30 1450 H 141.498 0.708631 4.33446 0
M  V30 1451 H 142.104 2.22319 3.62567 0
M  V30 1452 N 140.419 -1.14872 1.07899 0
M  V30 1453 C 141.83 -1.67367 0.827363 0
M  V30 1454 C 142.181 -1.85236 -0.646693 0
M  V30 1455 O 141.306 -1.55974 -1.50004 0
M  V30 1456 C 141.901 -3.04016 1.49532 0
M  V30 1457 C 140.46 -3.53566 1.29106 0
M  V30 1458 C 139.607 -2.29161 1.56143 0
M  V30 1459 H 142.558 -0.990083 1.24028 0
M  V30 1460 H 142.579 -3.69219 0.919643 0
M  V30 1461 H 142.091 -2.90978 2.56814 0
M  V30 1462 H 140.192 -3.71835 0.238713 0
M  V30 1463 H 140.305 -4.34661 2.01511 0
M  V30 1464 H 138.669 -2.34978 0.982717 0
M  V30 1465 H 139.452 -2.18705 2.64619 0
M  V30 1466 N 141.898 -0.863906 -1.31812 0
M  V30 1467 C 142.83 -0.272485 -2.27575 0
M  V30 1468 C 143.843 0.56104 -1.52827 0
M  V30 1469 O 145.032 0.384021 -1.7432 0
M  V30 1470 C 142.132 0.63283 -3.32939 0
M  V30 1471 C 141.305 -0.166902 -4.37081 0
M  V30 1472 C 140.364 0.665608 -5.21973 0
M  V30 1473 O 139.39 0.0958091 -5.69119 0
M  V30 1474 N 140.592 1.9787 -5.45736 0
M  V30 1475 H 143.357 -1.0954 -2.78964 0
M  V30 1476 H 140.918 -0.724791 -1.4477 0
M  V30 1477 H 142.91 1.19532 -3.86645 0
M  V30 1478 H 141.48 1.35642 -2.81638 0
M  V30 1479 H 140.7 -0.910838 -3.83533 0
M  V30 1480 H 141.988 -0.715874 -5.03739 0
M  V30 1481 H 141.386 2.46484 -5.09178 0
M  V30 1482 H 139.943 2.48911 -6.024 0
M  V30 1483 N 143.376 1.44774 -0.622745 0
M  V30 1484 C 144.616 2.04004 -0.127102 0
M  V30 1485 C 144.98 1.47862 1.22478 0
M  V30 1486 O 146.181 1.98541 1.81204 0
M  V30 1487 C 144.452 3.57247 -0.104429 0
M  V30 1488 S 146.011 4.37574 0.327814 0
M  V30 1489 H 142.829 0.708713 -0.0569776 0
M  V30 1490 H 145.431 1.77275 -0.824253 0
M  V30 1491 H 144.135 3.95616 -1.09159 0
M  V30 1492 H 143.666 3.88575 0.614236 0
M  V30 1493 H 145.681 4.70575 1.57395 0
M  V30 1494 N 144.854 0.36279 1.53368 0
M  V30 1495 C 146.102 -0.227326 2.00817 0
M  V30 1496 C 146.423 -1.49511 1.25186 0
M  V30 1497 O 145.693 -1.92482 0.364348 0
M  V30 1498 H 144.273 -0.0869923 0.741917 0
M  V30 1499 H 146.935 0.488381 1.88682 0
M  V30 1500 H 146.031 -0.456273 3.08747 0
M  V30 1501 N 146.332 -1.57332 0.0918853 0
M  V30 1502 C 147.279 -2.13847 -0.868211 0
M  V30 1503 C 148.249 -1.05618 -1.28196 0
M  V30 1504 O 149.434 -1.33387 -1.36427 0
M  V30 1505 C 146.574 -2.72062 -2.12312 0
M  V30 1506 C 145.687 -3.94514 -1.7602 0
M  V30 1507 C 144.822 -4.40903 -2.96273 0
M  V30 1508 C 143.861 -5.55953 -2.56092 0
M  V30 1509 N 142.998 -5.97209 -3.69169 0
M  V30 1510 H 147.838 -2.95575 -0.379406 0
M  V30 1511 H 145.375 -1.46048 -0.175606 0
M  V30 1512 H 147.333 -3.03931 -2.858 0
M  V30 1513 H 145.963 -1.93068 -2.58698 0
M  V30 1514 H 145.015 -3.68979 -0.925135 0
M  V30 1515 H 146.327 -4.7802 -1.42472 0
M  V30 1516 H 145.481 -4.74539 -3.78018 0
M  V30 1517 H 144.22 -3.56291 -3.33029 0
M  V30 1518 H 143.225 -5.21948 -1.72773 0
M  V30 1519 H 144.45 -6.42311 -2.20484 0
M  V30 1520 H 142.396 -5.15543 -4.05649 0
M  V30 1521 H 142.313 -6.75504 -3.39456 0
M  V30 1522 H 143.581 -6.35475 -4.51434 0
M  V30 1523 N 147.81 0.181792 -1.56548 0
M  V30 1524 C 149.05 0.906711 -1.83189 0
M  V30 1525 C 149.414 1.79882 -0.671312 0
M  V30 1526 O 150.615 2.56054 -0.81792 0
M  V30 1527 C 148.886 1.69023 -3.14906 0
M  V30 1528 S 150.445 2.46535 -3.62996 0
M  V30 1529 H 147.263 0.303877 -0.642791 0
M  V30 1530 H 149.865 0.169107 -1.94767 0
M  V30 1531 H 148.569 1.02571 -3.97376 0
M  V30 1532 H 148.1 2.46941 -3.06241 0
M  V30 1533 H 150.115 3.71014 -3.29489 0
M  V30 1534 N 149.288 1.51039 0.449983 0
M  V30 1535 C 150.704 1.38934 0.785462 0
M  V30 1536 C 150.904 0.461817 1.96136 0
M  V30 1537 O 149.96 -0.0877389 2.52348 0
M  V30 1538 C 151.273 2.80724 1.0777 0
M  V30 1539 C 152.821 2.89787 1.1829 0
M  V30 1540 C 153.296 4.32457 1.50815 0
M  V30 1541 N 154.787 4.35505 1.57764 0
M  V30 1542 C 155.522 5.42914 1.84477 0
M  V30 1543 N 155.018 6.60502 2.09068 0
M  V30 1544 N 156.811 5.3038 1.86155 0
M  V30 1545 H 148.962 2.09904 -0.324647 0
M  V30 1546 H 151.225 0.944378 -0.0827957 0
M  V30 1547 H 150.931 3.50531 0.286498 0
M  V30 1548 H 150.805 3.19273 2.00859 0
M  V30 1549 H 153.192 2.20186 1.96474 0
M  V30 1550 H 153.273 2.54752 0.231314 0
M  V30 1551 H 152.917 5.02603 0.731622 0
M  V30 1552 H 152.847 4.64995 2.47158 0
M  V30 1553 H 155.338 3.50724 1.40715 0
M  V30 1554 H 155.651 7.38158 2.28785 0
M  V30 1555 H 153.996 6.63639 2.06416 0
M  V30 1556 H 157.187 4.37505 1.66454 0
M  V30 1557 H 157.36 6.1417 2.06637 0
M  V30 1558 N 150.766 -0.704594 1.40972 0
M  V30 1559 C 152.012 -1.46675 1.40051 0
M  V30 1560 C 152.345 -1.94199 0.00641102 0
M  V30 1561 O 151.62 -1.68916 -0.964235 0
M  V30 1562 C 151.903 -2.68505 2.39952 0
M  V30 1563 C 151.756 -2.26805 3.88432 0
M  V30 1564 C 153.075 -3.70686 2.37233 0
M  V30 1565 H 150.194 -0.532015 0.510028 0
M  V30 1566 H 152.836 -0.803255 1.72185 0
M  V30 1567 H 150.986 -3.25114 2.1268 0
M  V30 1568 H 152.658 -1.75592 4.26574 0
M  V30 1569 H 150.901 -1.58685 4.03734 0
M  V30 1570 H 151.572 -3.14181 4.53866 0
M  V30 1571 H 154.048 -3.23731 2.61415 0
M  V30 1572 H 152.924 -4.53553 3.09162 0
M  V30 1573 H 153.185 -4.19754 1.38777 0
M  V30 1574 N 152.244 -1.26651 -0.937939 0
M  V30 1575 C 153.484 -1.13611 -1.69917 0
M  V30 1576 C 153.848 0.314687 -1.89404 0
M  V30 1577 O 155.049 0.567285 -2.62746 0
M  V30 1578 C 153.32 -1.88742 -3.03498 0
M  V30 1579 S 154.879 -1.91794 -3.94665 0
M  V30 1580 H 151.697 -0.405767 -0.583844 0
M  V30 1581 H 154.299 -1.60416 -1.11745 0
M  V30 1582 H 153.003 -2.9336 -2.86999 0
M  V30 1583 H 152.534 -1.42391 -3.66727 0
M  V30 1584 H 154.549 -1.00698 -4.85875 0
M  V30 1585 N 153.722 1.14298 -1.08507 0
M  V30 1586 C 154.669 2.19414 -0.715965 0
M  V30 1587 C 155.639 1.63399 0.298326 0
M  V30 1588 O 156.824 1.89929 0.182101 0
M  V30 1589 C 153.964 3.44845 -0.132534 0
M  V30 1590 C 153.077 4.15007 -1.19973 0
M  V30 1591 C 152.212 5.28024 -0.580048 0
M  V30 1592 C 151.251 5.9002 -1.62921 0
M  V30 1593 N 150.388 6.94485 -1.03125 0
M  V30 1594 H 155.228 2.50336 -1.61666 0
M  V30 1595 H 152.765 1.2293 -0.807882 0
M  V30 1596 H 154.723 4.16601 0.223454 0
M  V30 1597 H 153.353 3.14403 0.731467 0
M  V30 1598 H 152.405 3.41629 -1.67313 0
M  V30 1599 H 153.717 4.57178 -1.99473 0
M  V30 1600 H 152.871 6.06455 -0.172364 0
M  V30 1601 H 151.61 4.87076 0.246603 0
M  V30 1602 H 150.615 5.10291 -2.04654 0
M  V30 1603 H 151.84 6.33042 -2.45835 0
M  V30 1604 H 149.786 6.55612 -0.225711 0
M  V30 1605 H 149.703 7.35148 -1.76334 0
M  V30 1606 H 150.971 7.7679 -0.649458 0
M  V30 1607 N 155.201 0.870884 1.31352 0
M  V30 1608 C 156.149 0.316445 2.30437 0
M  V30 1609 C 157.143 -0.568965 1.59559 0
M  V30 1610 O 158.349 -0.454964 1.74155 0
M  V30 1611 H 154.724 0.0836521 0.747333 0
M  V30 1612 H 156.695 1.16606 2.74673 0
M  V30 1613 C 155.444 -0.46635 3.44558 0
M  V30 1614 H 154.767 0.205687 3.99271 0
M  V30 1615 H 156.207 -0.819614 4.16003 0
M  V30 1616 C 154.666 -1.65797 2.9328 0
M  V30 1617 O 155.196 -2.75728 2.92125 0
M  V30 1618 N 153.402 -1.49041 2.4947 0
M  V30 1619 H 152.949 -0.59612 2.50608 0
M  V30 1620 H 152.907 -2.28911 2.15516 0
M  V30 1621 N 156.679 -1.44442 0.630414 0
M  V30 1622 C 158.09 -1.85434 0.217063 0
M  V30 1623 C 158.441 -1.52748 -1.23136 0
M  V30 1624 O 157.566 -0.965205 -1.93682 0
M  V30 1625 C 158.161 -3.36581 0.387168 0
M  V30 1626 C 156.72 -3.76389 0.0283297 0
M  V30 1627 C 155.867 -2.68296 0.700889 0
M  V30 1628 H 158.818 -1.34919 0.83562 0
M  V30 1629 H 158.839 -3.78657 -0.374086 0
M  V30 1630 H 158.351 -3.60339 1.44144 0
M  V30 1631 H 156.452 -3.58246 -1.02423 0
M  V30 1632 H 156.565 -4.77095 0.437892 0
M  V30 1633 H 154.929 -2.54335 0.136267 0
M  V30 1634 H 155.712 -2.94887 1.75774 0
M  V30 1635 N 158.157 -0.370918 -1.53173 0
M  V30 1636 C 159.067 0.480823 -2.2962 0
M  V30 1637 C 160.083 1.08789 -1.35798 0
M  V30 1638 O 161.259 1.09768 -1.68858 0
M  V30 1639 C 158.324 1.60227 -3.07454 0
M  V30 1640 C 157.385 1.0222 -4.16953 0
M  V30 1641 C 156.618 2.0902 -4.91066 0
M  V30 1642 O 156.841 3.30222 -4.65091 0
M  V30 1643 O 155.775 1.71778 -5.76867 0
M  V30 1644 H 159.601 -0.141421 -3.03371 0
M  V30 1645 H 157.186 -0.135146 -1.48787 0
M  V30 1646 H 159.068 2.25417 -3.56041 0
M  V30 1647 H 157.743 2.20982 -2.36535 0
M  V30 1648 H 156.65 0.334064 -3.72605 0
M  V30 1649 H 157.983 0.459131 -4.90054 0
M  V30 1650 N 159.635 1.57281 -0.100228 0
M  V30 1651 C 160.86 1.99302 0.573881 0
M  V30 1652 C 161.285 0.979059 1.60611 0
M  V30 1653 O 160.643 -0.0517803 1.81226 0
M  V30 1654 C 160.691 3.40274 1.19358 0
M  V30 1655 O 159.795 3.41676 2.30935 0
M  V30 1656 H 159.136 0.647944 0.145138 0
M  V30 1657 H 161.666 2.03779 -0.183156 0
M  V30 1658 H 161.676 3.78078 1.53365 0
M  V30 1659 H 160.351 4.13594 0.437385 0
M  V30 1660 H 158.928 3.15672 1.98509 0
M  V30 1661 N 161.113 -0.173488 1.56642 0
M  V30 1662 C 162.061 -1.23417 1.97157 0
M  V30 1663 C 163.055 -1.45946 0.860013 0
M  V30 1664 O 164.261 -1.46551 1.04512 0
M  V30 1665 H 160.636 -0.414818 0.62724 0
M  V30 1666 H 162.607 -0.865582 2.8557 0
M  V30 1667 C 161.356 -2.5665 2.34576 0
M  V30 1668 H 160.679 -2.40137 3.19647 0
M  V30 1669 H 162.119 -3.2956 2.6677 0
M  V30 1670 C 160.578 -3.15245 1.18836 0
M  V30 1671 O 161.108 -3.98883 0.474869 0
M  V30 1672 N 159.314 -2.74303 0.959497 0
M  V30 1673 H 158.861 -2.0639 1.54146 0
M  V30 1674 H 158.819 -3.13844 0.186932 0
M  V30 1675 N 162.591 -1.51276 -0.441967 0
M  V30 1676 C 163.821 -1.67273 -1.21257 0
M  V30 1677 C 164.229 -0.367624 -1.85594 0
M  V30 1678 O 163.572 0.663349 -1.71305 0
M  V30 1679 C 163.634 -2.72807 -2.34129 0
M  V30 1680 C 163.298 -4.1554 -1.90198 0
M  V30 1681 C 164.295 -5.00471 -1.40801 0
M  V30 1682 C 161.98 -4.61616 -1.9803 0
M  V30 1683 C 163.974 -6.29536 -0.998174 0
M  V30 1684 C 161.661 -5.90679 -1.56658 0
M  V30 1685 C 162.659 -6.74466 -1.07633 0
M  V30 1686 O 162.347 -8.01116 -0.668459 0
M  V30 1687 H 162.079 -0.564614 -0.371734 0
M  V30 1688 H 164.633 -1.9843 -0.530521 0
M  V30 1689 H 162.863 -2.36954 -3.05597 0
M  V30 1690 H 164.552 -2.77729 -2.96009 0
M  V30 1691 H 165.318 -4.66079 -1.34148 0
M  V30 1692 H 161.197 -3.96526 -2.35135 0
M  V30 1693 H 164.741 -6.94885 -0.61482 0
M  V30 1694 H 160.638 -6.24586 -1.62979 0
M  V30 1695 H 161.406 -8.14633 -0.794722 0
M  V30 1696 N 164.069 0.697108 -1.41344 0
M  V30 1697 C 165.309 1.46939 -1.42085 0
M  V30 1698 C 165.673 1.9198 -0.0280397 0
M  V30 1699 O 166.874 2.6865 0.0897504 0
M  V30 1700 C 165.145 2.64985 -2.39828 0
M  V30 1701 S 166.704 3.54147 -2.59085 0
M  V30 1702 H 163.522 0.502146 -0.503359 0
M  V30 1703 H 166.124 0.813546 -1.77769 0
M  V30 1704 H 164.828 2.30098 -3.39828 0
M  V30 1705 H 164.359 3.35464 -2.05493 0
M  V30 1706 H 166.374 4.60137 -1.85711 0
M  V30 1707 N 165.547 1.27147 0.931209 0
M  V30 1708 C 166.477 1.12081 2.04842 0
M  V30 1709 C 167.458 0.0232364 1.70084 0
M  V30 1710 O 168.643 0.197085 1.93197 0
M  V30 1711 C 165.773 0.76354 3.38803 0
M  V30 1712 C 164.727 1.81396 3.87659 0
M  V30 1713 C 164.053 1.31075 5.18385 0
M  V30 1714 C 165.353 3.21739 4.11438 0
M  V30 1715 H 167.047 2.05537 2.17703 0
M  V30 1716 H 164.593 0.989603 1.04608 0
M  V30 1717 H 166.546 0.644982 4.16435 0
M  V30 1718 H 165.27 -0.206727 3.25945 0
M  V30 1719 H 163.929 1.92136 3.12217 0
M  V30 1720 H 163.577 0.330037 5.01916 0
M  V30 1721 H 163.277 2.013 5.52044 0
M  V30 1722 H 164.801 1.20506 5.98591 0
M  V30 1723 H 166.215 3.14019 4.79651 0
M  V30 1724 H 164.612 3.89644 4.56397 0
M  V30 1725 H 165.682 3.67054 3.16859 0
M  V30 1726 N 167.025 -1.13721 1.09112 0
M  V30 1727 C 167.972 -2.19031 0.727591 0
M  V30 1728 C 168.942 -1.63555 -0.289656 0
M  V30 1729 O 170.127 -1.90023 -0.172026 0
M  V30 1730 C 167.267 -3.4477 0.15082 0
M  V30 1731 C 166.38 -4.14365 1.22172 0
M  V30 1732 C 165.515 -5.27709 0.608042 0
M  V30 1733 C 164.554 -5.89147 1.66047 0
M  V30 1734 N 163.691 -6.93929 1.06806 0
M  V30 1735 H 168.531 -2.49475 1.62991 0
M  V30 1736 H 166.068 -1.22499 0.81439 0
M  V30 1737 H 168.026 -4.16714 -0.201358 0
M  V30 1738 H 166.656 -3.14787 -0.714783 0
M  V30 1739 H 165.708 -3.40737 1.69122 0
M  V30 1740 H 167.02 -4.56114 2.01895 0
M  V30 1741 H 166.174 -6.06355 0.204523 0
M  V30 1742 H 164.913 -4.872 -0.220769 0
M  V30 1743 H 163.918 -5.09198 2.07357 0
M  V30 1744 H 165.143 -6.31729 2.49189 0
M  V30 1745 H 163.089 -6.55483 0.260476 0
M  V30 1746 H 163.006 -7.34202 1.8023 0
M  V30 1747 H 164.274 -7.76434 0.690644 0
M  V30 1748 N 168.503 -0.877838 -1.30888 0
M  V30 1749 C 169.451 -0.328662 -2.30266 0
M  V30 1750 C 170.445 0.560496 -1.59859 0
M  V30 1751 O 171.651 0.445722 -1.74394 0
M  V30 1752 H 168.026 -0.0876142 -0.746879 0
M  V30 1753 H 169.997 -1.18061 -2.74051 0
M  V30 1754 C 168.746 0.448071 -3.44801 0
M  V30 1755 H 168.069 -0.226859 -3.99156 0
M  V30 1756 H 169.509 0.797541 -4.16432 0
M  V30 1757 C 167.968 1.64239 -2.94155 0
M  V30 1758 O 168.498 2.74175 -2.93583 0
M  V30 1759 N 166.704 1.47716 -2.50256 0
M  V30 1760 H 166.251 0.582821 -2.5092 0
M  V30 1761 H 166.209 2.27765 -2.16727 0
M  V30 1762 N 169.982 1.44106 -0.638065 0
M  V30 1763 C 171.259 1.95453 -0.0759321 0
M  V30 1764 C 171.639 1.57984 1.40015 0
M  V30 1765 O 170.987 0.857361 2.11806 0
M  V30 1766 C 171.197 3.47655 -0.306132 0
M  V30 1767 C 172.545 4.24114 -0.203008 0
M  V30 1768 O 173.569 3.55405 -0.237871 0
M  V30 1769 O 172.428 5.46381 -0.113827 0
M  V30 1770 H 169.522 0.826797 0.0183332 0
M  V30 1771 H 172.068 1.54122 -0.710251 0
M  V30 1772 H 170.84 3.68 -1.3301 0
M  V30 1773 H 170.463 3.95949 0.361991 0
M  V30 1774 N 171.46 0.379036 1.52974 0
M  V30 1775 C 172.39 -0.452706 2.29069 0
M  V30 1776 C 173.371 -1.07237 1.32039 0
M  V30 1777 O 174.556 -1.08708 1.60923 0
M  V30 1778 C 171.686 -1.5856 3.08992 0
M  V30 1779 C 170.64 -1.0925 4.13822 0
M  V30 1780 C 169.966 -2.31668 4.81907 0
M  V30 1781 C 171.266 -0.167702 5.22031 0
M  V30 1782 H 172.96 0.182181 2.98845 0
M  V30 1783 H 170.506 0.0890592 1.43724 0
M  V30 1784 H 172.459 -2.1742 3.6098 0
M  V30 1785 H 171.183 -2.24792 2.36931 0
M  V30 1786 H 169.842 -0.526494 3.628 0
M  V30 1787 H 169.49 -2.96386 4.06404 0
M  V30 1788 H 169.19 -1.9934 5.52754 0
M  V30 1789 H 170.714 -2.91189 5.36695 0
M  V30 1790 H 172.128 -0.664186 5.6944 0
M  V30 1791 H 170.525 0.0653265 6.00064 0
M  V30 1792 H 171.595 0.786347 4.78482 0
M  V30 1793 N 172.938 -1.57226 0.108567 0
M  V30 1794 C 174.186 -1.94448 -0.550853 0
M  V30 1795 C 174.507 -0.992074 -1.67878 0
M  V30 1796 O 173.777 -0.0465 -1.95845 0
M  V30 1797 H 172.357 -0.717897 -0.206479 0
M  V30 1798 H 175.019 -1.94112 0.175062 0
M  V30 1799 H 174.115 -2.97218 -0.952259 0
M  V30 1800 N 174.416 0.165178 -1.56732 0
M  V30 1801 C 175.364 1.22369 -1.97809 0
M  V30 1802 C 176.358 1.45488 -0.867741 0
M  V30 1803 O 177.564 1.45995 -1.05288 0
M  V30 1804 H 173.939 0.411486 -0.629431 0
M  V30 1805 H 175.91 0.850425 -2.86025 0
M  V30 1806 C 174.659 2.55403 -2.35934 0
M  V30 1807 H 173.982 2.38438 -3.20916 0
M  V30 1808 H 175.422 3.2814 -2.68514 0
M  V30 1809 C 173.881 3.14611 -1.20506 0
M  V30 1810 O 174.411 3.98626 -0.496016 0
M  V30 1811 N 172.617 2.7379 -0.97403 0
M  V30 1812 H 172.164 2.0557 -1.55238 0
M  V30 1813 H 172.122 3.1374 -0.203573 0
M  V30 1814 N 175.894 1.51508 0.433938 0
M  V30 1815 C 177.305 1.56784 1.01369 0
M  V30 1816 C 177.656 0.393349 1.92217 0
M  V30 1817 O 176.781 -0.489441 2.10792 0
M  V30 1818 C 177.376 2.84144 1.8452 0
M  V30 1819 C 175.935 2.9198 2.37539 0
M  V30 1820 C 175.082 2.51482 1.16843 0
M  V30 1821 H 178.033 1.57236 0.215081 0
M  V30 1822 H 178.054 2.68098 2.70007 0
M  V30 1823 H 177.566 3.69607 1.18373 0
M  V30 1824 H 175.667 2.10955 3.0713 0
M  V30 1825 H 175.78 3.95704 2.70103 0
M  V30 1826 H 174.144 2.04758 1.51481 0
M  V30 1827 H 174.927 3.39293 0.523015 0
M  V30 1828 N 177.372 -0.689602 1.41712 0
M  V30 1829 C 178.788 -1.00093 1.24312 0
M  V30 1830 C 178.988 -2.01036 0.136729 0
M  V30 1831 O 178.044 -2.47562 -0.496918 0
M  V30 1832 C 179.357 -1.51985 2.59463 0
M  V30 1833 C 180.905 -1.63838 2.66695 0
M  V30 1834 C 181.38 -2.1913 4.02177 0
M  V30 1835 N 182.871 -2.26483 4.04054 0
M  V30 1836 C 183.606 -2.70306 5.0569 0
M  V30 1837 N 183.102 -3.13691 6.17713 0
M  V30 1838 N 184.895 -2.69923 4.9305 0
M  V30 1839 H 177.046 -0.0210029 2.1239 0
M  V30 1840 H 179.309 -0.0718733 0.945272 0
M  V30 1841 H 179.015 -0.85269 3.41207 0
M  V30 1842 H 178.889 -2.50103 2.82362 0
M  V30 1843 H 181.276 -2.29664 1.85306 0
M  V30 1844 H 181.357 -0.642492 2.476 0
M  V30 1845 H 181.001 -1.53918 4.84016 0
M  V30 1846 H 180.931 -3.19482 4.18615 0
M  V30 1847 H 183.422 -1.95874 3.23174 0
M  V30 1848 H 183.735 -3.45773 6.9113 0
M  V30 1849 H 182.08 -3.11585 6.21241 0
M  V30 1850 H 185.271 -2.35382 4.04614 0
M  V30 1851 H 185.444 -3.03758 5.72394 0
M  V30 1852 N 178.85 -1.27639 -0.924453 0
M  V30 1853 C 180.098 -1.13941 -1.66918 0
M  V30 1854 C 180.419 0.314589 -1.92446 0
M  V30 1855 O 179.689 1.21964 -1.53303 0
M  V30 1856 H 178.269 -0.418678 -0.618642 0
M  V30 1857 H 180.931 -1.60213 -1.10985 0
M  V30 1858 H 180.027 -1.67094 -2.63602 0
M  V30 1859 N 180.328 1.1314 -1.09713 0
M  V30 1860 C 181.556 1.88321 -0.856898 0
M  V30 1861 C 181.971 1.79276 0.592073 0
M  V30 1862 O 181.328 1.16142 1.40774 0
M  V30 1863 C 181.379 3.37812 -1.28706 0
M  V30 1864 O 181.1 3.46627 -2.67921 0
M  V30 1865 C 182.601 4.29952 -1.07964 0
M  V30 1866 H 179.821 0.596094 -0.308079 0
M  V30 1867 H 182.365 1.43205 -1.45988 0
M  V30 1868 H 180.52 3.805 -0.727912 0
M  V30 1869 H 180.934 4.39579 -2.8613 0
M  V30 1870 H 182.408 5.33159 -1.42986 0
M  V30 1871 H 182.885 4.39196 -0.0176577 0
M  V30 1872 H 183.491 3.93036 -1.62489 0
M  V30 1873 N 181.806 0.884767 1.30421 0
M  V30 1874 C 182.736 0.367574 2.30589 0
M  V30 1875 C 183.717 -0.549464 1.60981 0
M  V30 1876 O 184.902 -0.46336 1.88591 0
M  V30 1877 C 182.032 -0.418944 3.44764 0
M  V30 1878 C 180.986 0.406316 4.26067 0
M  V30 1879 C 180.312 -0.506793 5.32293 0
M  V30 1880 C 181.612 1.64832 4.95608 0
M  V30 1881 H 183.306 1.20462 2.74097 0
M  V30 1882 H 180.852 0.580695 1.31772 0
M  V30 1883 H 182.805 -0.791395 4.13902 0
M  V30 1884 H 181.529 -1.28964 3.0006 0
M  V30 1885 H 180.188 0.760903 3.58617 0
M  V30 1886 H 179.836 -1.37519 4.83836 0
M  V30 1887 H 179.536 0.0415828 5.87585 0
M  V30 1888 H 181.06 -0.875764 6.04287 0
M  V30 1889 H 182.474 1.34646 5.57264 0
M  V30 1890 H 180.871 2.13688 5.60765 0
M  V30 1891 H 181.941 2.39284 4.21748 0
M  V30 1892 N 183.284 -1.43765 0.645699 0
M  V30 1893 C 184.216 -2.29027 -0.0890605 0
M  V30 1894 C 185.229 -1.42093 -0.794563 0
M  V30 1895 O 186.418 -1.66104 -0.653575 0
M  V30 1896 C 183.518 -3.18831 -1.14891 0
M  V30 1897 C 182.691 -4.34261 -0.523043 0
M  V30 1898 C 181.75 -5.04994 -1.47878 0
M  V30 1899 O 180.776 -5.6052 -0.990277 0
M  V30 1900 N 181.978 -5.07795 -2.81291 0
M  V30 1901 H 184.743 -2.92727 0.64272 0
M  V30 1902 H 182.304 -1.54373 0.487924 0
M  V30 1903 H 184.296 -3.63015 -1.78892 0
M  V30 1904 H 182.866 -2.56782 -1.78275 0
M  V30 1905 H 182.086 -3.93088 0.295896 0
M  V30 1906 H 183.374 -5.08728 -0.0858147 0
M  V30 1907 H 182.772 -4.64042 -3.23546 0
M  V30 1908 H 181.329 -5.55721 -3.40614 0
M  V30 1909 N 184.763 -0.387143 -1.52771 0
M  V30 1910 C 186.04 0.253197 -1.93954 0
M  V30 1911 C 186.42 1.64545 -1.32243 0
M  V30 1912 O 185.768 2.23191 -0.489699 0
M  V30 1913 C 185.978 0.281722 -3.47861 0
M  V30 1914 C 187.326 0.511715 -4.21505 0
M  V30 1915 O 188.35 0.362023 -3.54356 0
M  V30 1916 O 187.209 0.804847 -5.40541 0
M  V30 1917 H 184.303 0.156845 -0.811991 0
M  V30 1918 H 186.849 -0.441494 -1.63856 0
M  V30 1919 H 185.621 -0.693571 -3.85104 0
M  V30 1920 H 185.244 1.02142 -3.84256 0
M  V30 1921 N 186.241 1.57166 -0.116904 0
M  V30 1922 C 187.489 1.94737 0.540533 0
M  V30 1923 C 187.81 1.00096 1.67349 0
M  V30 1924 O 187.08 0.0568854 1.95817 0
M  V30 1925 H 185.66 0.718981 0.202669 0
M  V30 1926 H 188.322 1.94017 -0.185353 0
M  V30 1927 H 187.418 2.97719 0.936483 0
M  V30 1928 N 187.719 -0.156864 1.56817 0
M  V30 1929 C 188.947 -0.886316 1.86955 0
M  V30 1930 C 189.362 -1.75185 0.703975 0
M  V30 1931 O 188.719 -1.79555 -0.326552 0
M  V30 1932 C 188.77 -1.75117 3.16253 0
M  V30 1933 O 188.491 -0.920537 4.2832 0
M  V30 1934 C 189.992 -2.58905 3.59837 0
M  V30 1935 H 187.212 -0.25678 0.619923 0
M  V30 1936 H 189.756 -0.152615 2.0393 0
M  V30 1937 H 187.911 -2.43805 3.01062 0
M  V30 1938 H 188.325 -1.51337 5.02192 0
M  V30 1939 H 189.799 -3.1518 4.53172 0
M  V30 1940 H 190.276 -3.34472 2.84649 0
M  V30 1941 H 190.882 -1.95526 3.7769 0
M  V30 1942 N 189.197 -1.51736 -0.425897 0
M  V30 1943 C 190.613 -1.40166 -0.76326 0
M  V30 1944 C 190.813 -0.492962 -1.95377 0
M  V30 1945 O 189.869 0.0475815 -2.52455 0
M  V30 1946 C 191.182 -2.82403 -1.03291 0
M  V30 1947 C 192.73 -2.91632 -1.13665 0
M  V30 1948 C 193.205 -4.34801 -1.43916 0
M  V30 1949 N 194.696 -4.3796 -1.50816 0
M  V30 1950 C 195.431 -5.4578 -1.75817 0
M  V30 1951 N 194.927 -6.63744 -1.98534 0
M  V30 1952 N 196.72 -5.33274 -1.77694 0
M  V30 1953 H 188.871 -2.09361 0.358 0
M  V30 1954 H 191.134 -0.942941 0.0978094 0
M  V30 1955 H 190.84 -3.50943 -0.230696 0
M  V30 1956 H 190.714 -3.22428 -1.95754 0
M  V30 1957 H 193.101 -2.23284 -1.92947 0
M  V30 1958 H 193.182 -2.55088 -0.190756 0
M  V30 1959 H 192.826 -5.03703 -0.65157 0
M  V30 1960 H 192.756 -4.68868 -2.39729 0
M  V30 1961 H 195.247 -3.52919 -1.35118 0
M  V30 1962 H 195.56 -7.41704 -2.17013 0
M  V30 1963 H 193.905 -6.66839 -1.95832 0
M  V30 1964 H 197.096 -4.40098 -1.59473 0
M  V30 1965 H 197.269 -6.1738 -1.9684 0
M  V30 1966 N 190.675 0.682077 -1.42076 0
M  V30 1967 C 192.091 0.994324 -1.24841 0
M  V30 1968 C 192.291 2.0096 -0.147389 0
M  V30 1969 O 191.347 2.47822 0.483782 0
M  V30 1970 C 192.66 1.50607 -2.60265 0
M  V30 1971 C 194.208 1.62421 -2.6756 0
M  V30 1972 C 194.683 2.16994 -4.03333 0
M  V30 1973 N 196.174 2.24337 -4.0525 0
M  V30 1974 C 196.909 2.67621 -5.07116 0
M  V30 1975 N 196.405 3.1041 -6.19368 0
M  V30 1976 N 198.198 2.67305 -4.94474 0
M  V30 1977 H 190.349 0.00973908 -2.12398 0
M  V30 1978 H 192.612 0.0668593 -0.945639 0
M  V30 1979 H 192.318 0.834583 -3.41654 0
M  V30 1980 H 192.192 2.48602 -2.83684 0
M  V30 1981 H 194.579 2.28678 -1.86521 0
M  V30 1982 H 194.66 0.629352 -2.47937 0
M  V30 1983 H 194.304 1.51349 -4.84826 0
M  V30 1984 H 194.234 3.17258 -4.20304 0
M  V30 1985 H 196.725 1.94158 -3.24209 0
M  V30 1986 H 197.038 3.42103 -6.92954 0
M  V30 1987 H 195.383 3.08286 -6.22884 0
M  V30 1988 H 198.574 2.33233 -4.05857 0
M  V30 1989 H 198.747 3.00718 -5.73997 0
M  V30 1990 N 192.153 1.28127 0.917671 0
M  V30 1991 C 193.4 1.15052 1.66641 0
M  V30 1992 C 193.728 -0.301677 1.92146 0
M  V30 1993 O 192.983 -1.23622 1.51711 0
M  V30 1994 C 193.282 1.89018 3.03327 0
M  V30 1995 C 192.948 3.38832 2.97496 0
M  V30 1996 C 191.61 3.79693 2.95613 0
M  V30 1997 C 193.962 4.34378 2.88036 0
M  V30 1998 C 191.29 5.14447 2.82066 0
M  V30 1999 C 193.642 5.69201 2.7603 0
M  V30 2000 C 192.306 6.09343 2.72502 0
M  V30 2001 H 191.576 0.421006 0.609783 0
M  V30 2002 H 194.223 1.58855 1.06945 0
M  V30 2003 H 192.528 1.37752 3.66785 0
M  V30 2004 H 194.225 1.76321 3.60156 0
M  V30 2005 H 190.815 3.06342 2.99754 0
M  V30 2006 H 194.999 4.03775 2.88581 0
M  V30 2007 H 190.255 5.44681 2.77728 0
M  V30 2008 H 194.429 6.42901 2.67678 0
M  V30 2009 H 192.056 7.13712 2.61762 0
M  V30 2010 N 193.631 -1.12557 1.10312 0
M  V30 2011 C 194.859 -1.87864 0.866873 0
M  V30 2012 C 195.274 -1.79588 -0.582557 0
M  V30 2013 O 194.631 -1.16887 -1.40156 0
M  V30 2014 C 194.682 -3.37125 1.30496 0
M  V30 2015 O 194.403 -3.45201 2.69755 0
M  V30 2016 C 195.904 -4.29373 1.10243 0
M  V30 2017 H 193.124 -0.594452 0.311236 0
M  V30 2018 H 195.668 -1.42429 1.46745 0
M  V30 2019 H 193.823 -3.80109 0.748081 0
M  V30 2020 H 194.237 -4.38056 2.88457 0
M  V30 2021 H 195.711 -5.32394 1.45811 0
M  V30 2022 H 196.188 -4.39181 0.0409492 0
M  V30 2023 H 196.794 -3.92169 1.64571 0
M  V30 2024 N 195.109 -0.891671 -1.2995 0
M  V30 2025 C 196.349 -0.520296 -1.97667 0
M  V30 2026 C 196.713 0.914797 -1.68806 0
M  V30 2027 O 197.914 1.39263 -2.29911 0
M  V30 2028 C 196.185 -0.795222 -3.48441 0
M  V30 2029 S 197.744 -0.526953 -4.35624 0
M  V30 2030 H 194.562 -0.19333 -0.684211 0
M  V30 2031 H 197.164 -1.15238 -1.57926 0
M  V30 2032 H 195.868 -1.83805 -3.66938 0
M  V30 2033 H 195.399 -0.15095 -3.9311 0
M  V30 2034 H 197.414 0.631533 -4.92165 0
M  V30 2035 N 196.587 1.43421 -0.653314 0
M  V30 2036 C 198.003 1.56341 -0.320886 0
M  V30 2037 C 198.203 1.63696 1.17499 0
M  V30 2038 O 197.259 1.59208 1.95982 0
M  V30 2039 C 198.572 2.82424 -1.03233 0
M  V30 2040 C 200.12 2.96168 -1.01259 0
M  V30 2041 C 200.595 4.25084 -1.70492 0
M  V30 2042 N 202.086 4.31948 -1.67257 0
M  V30 2043 C 202.821 5.30466 -2.17701 0
M  V30 2044 N 202.317 6.35261 -2.76434 0
M  V30 2045 N 204.11 5.2212 -2.082 0
M  V30 2046 H 196.261 1.3689 -1.62403 0
M  V30 2047 H 198.524 0.657455 -0.682977 0
M  V30 2048 H 198.23 2.83053 -2.08744 0
M  V30 2049 H 198.104 3.72653 -0.583948 0
M  V30 2050 H 200.491 2.9508 0.0341235 0
M  V30 2051 H 200.572 2.07229 -1.49966 0
M  V30 2052 H 200.216 4.26932 -2.7512 0
M  V30 2053 H 200.146 5.1292 -1.19251 0
M  V30 2054 H 202.637 3.56838 -1.24398 0
M  V30 2055 H 202.95 7.06754 -3.12601 0
M  V30 2056 H 201.295 6.35884 -2.80495 0
M  V30 2057 H 204.486 4.39166 -1.62021 0
M  V30 2058 H 204.659 5.98739 -2.47822 0
M  V30 2059 N 198.065 0.39524 1.52563 0
M  V30 2060 C 199.313 -0.184678 2.01254 0
M  V30 2061 C 199.634 -1.46822 1.28329 0
M  V30 2062 O 198.904 -1.91666 0.405094 0
M  V30 2063 H 197.484 -0.0712355 0.743596 0
M  V30 2064 H 200.146 0.528293 1.87603 0
M  V30 2065 H 199.242 -0.390681 3.09645 0
M  V30 2066 N 199.544 -1.57102 0.125237 0
M  V30 2067 C 200.491 -2.15641 -0.822655 0
M  V30 2068 C 201.461 -1.08313 -1.25927 0
M  V30 2069 O 202.646 -1.36251 -1.33567 0
M  V30 2070 C 199.786 -2.76504 -2.06494 0
M  V30 2071 C 198.899 -3.98158 -1.67612 0
M  V30 2072 C 198.034 -4.47088 -2.86854 0
M  V30 2073 C 197.073 -5.6126 -2.44242 0
M  V30 2074 N 196.21 -6.04905 -3.56419 0
M  V30 2075 H 201.05 -2.96313 -0.316625 0
M  V30 2076 H 198.587 -1.46388 -0.144588 0
M  V30 2077 H 200.545 -3.09925 -2.79289 0
M  V30 2078 H 199.175 -1.98512 -2.54545 0
M  V30 2079 H 198.227 -3.70858 -0.846661 0
M  V30 2080 H 199.539 -4.80934 -1.32301 0
M  V30 2081 H 198.693 -4.82451 -3.67867 0
M  V30 2082 H 197.432 -3.63275 -3.25396 0
M  V30 2083 H 196.437 -5.25495 -1.61663 0
M  V30 2084 H 197.662 -6.46843 -2.0681 0
M  V30 2085 H 195.608 -5.24032 -3.94623 0
M  V30 2086 H 195.525 -6.82552 -3.25051 0
M  V30 2087 H 196.793 -6.44907 -4.37853 0
M  V30 2088 N 201.022 0.148545 -1.56898 0
M  V30 2089 C 202.433 0.708766 -1.72723 0
M  V30 2090 C 202.784 1.81734 -0.739395 0
M  V30 2091 O 201.909 2.16194 0.0943169 0
M  V30 2092 C 202.504 1.29245 -3.13179 0
M  V30 2093 C 201.063 1.79925 -3.30611 0
M  V30 2094 C 200.21 0.687111 -2.68652 0
M  V30 2095 H 203.161 -0.0771063 -1.58513 0
M  V30 2096 H 203.182 2.16224 -3.13093 0
M  V30 2097 H 202.694 0.485382 -3.85053 0
M  V30 2098 H 200.795 2.63203 -2.63732 0
M  V30 2099 H 200.908 1.92903 -4.38549 0
M  V30 2100 H 199.272 1.11335 -2.29078 0
M  V30 2101 H 200.055 -0.108483 -3.43129 0
M  V30 2102 N 202.5 1.5196 0.417844 0
M  V30 2103 C 203.749 1.6482 1.16264 0
M  V30 2104 C 204.062 0.379886 1.91876 0
M  V30 2105 O 205.268 0.388154 2.68711 0
M  V30 2106 C 203.724 2.91161 2.1155 0
M  V30 2107 C 203.332 4.25068 1.41495 0
M  V30 2108 C 205.076 3.13383 2.86341 0
M  V30 2109 C 202.983 5.42541 2.35379 0
M  V30 2110 H 201.913 0.613954 0.437694 0
M  V30 2111 H 204.564 1.78442 0.427871 0
M  V30 2112 H 202.946 2.71218 2.88543 0
M  V30 2113 H 204.12 4.55463 0.699263 0
M  V30 2114 H 202.435 4.0888 0.787792 0
M  V30 2115 H 205.032 3.98324 3.5671 0
M  V30 2116 H 205.375 2.27256 3.48798 0
M  V30 2117 H 205.908 3.33757 2.1645 0
M  V30 2118 H 202.647 6.30987 1.77582 0
M  V30 2119 H 202.167 5.16497 3.04945 0
M  V30 2120 H 203.846 5.75272 2.96093 0
M  V30 2121 N 203.978 -0.674533 1.42435 0
M  V30 2122 C 204.928 -1.7807 1.4239 0
M  V30 2123 C 205.912 -1.58169 0.295202 0
M  V30 2124 O 207.104 -1.68643 0.537449 0
M  V30 2125 C 204.233 -3.16532 1.32901 0
M  V30 2126 C 203.319 -3.42055 2.50717 0
M  V30 2127 N 203.71 -3.38162 3.76139 0
M  V30 2128 C 202.008 -3.72692 2.44983 0
M  V30 2129 C 202.709 -3.63177 4.54398 0
M  V30 2130 N 201.685 -3.83954 3.84812 0
M  V30 2131 H 205.487 -1.73454 2.37257 0
M  V30 2132 H 203.001 -0.875381 1.36788 0
M  V30 2133 H 204.998 -3.958 1.30951 0
M  V30 2134 H 203.658 -3.22345 0.390363 0
M  V30 2135 H 204.669 -3.18057 4.0873 0
M  V30 2136 H 201.346 -3.85749 1.59699 0
M  V30 2137 H 202.736 -3.66125 5.63384 0
M  V30 2138 N 205.456 -1.28612 -0.910864 0
M  V30 2139 C 206.406 -1.09423 -2.00026 0
M  V30 2140 C 207.39 -0.0170079 -1.60891 0
M  V30 2141 O 208.582 -0.237472 -1.754 0
M  V30 2142 C 205.711 -0.76114 -3.34756 0
M  V30 2143 C 204.797 -1.87735 -3.80285 0
M  V30 2144 N 205.188 -3.11938 -3.98156 0
M  V30 2145 C 203.486 -1.76786 -4.09467 0
M  V30 2146 C 204.187 -3.84687 -4.36338 0
M  V30 2147 N 203.163 -3.12555 -4.44759 0
M  V30 2148 H 206.965 -2.03658 -2.11898 0
M  V30 2149 H 204.479 -1.19573 -1.09891 0
M  V30 2150 H 206.476 -0.604743 -4.12491 0
M  V30 2151 H 205.136 0.173403 -3.24237 0
M  V30 2152 H 206.147 -3.47516 -3.83996 0
M  V30 2153 H 202.824 -0.905284 -4.07567 0
M  V30 2154 H 204.214 -4.91518 -4.58104 0
M  V30 2155 N 206.934 1.1197 -1.10907 0
M  V30 2156 C 208.181 1.83588 -0.854507 0
M  V30 2157 C 208.509 1.84357 0.6199 0
M  V30 2158 O 207.764 1.28809 1.47332 0
M  V30 2159 C 208.063 3.30749 -1.35425 0
M  V30 2160 C 207.729 3.50146 -2.84093 0
M  V30 2161 C 206.391 3.55148 -3.2469 0
M  V30 2162 C 208.743 3.56857 -3.79872 0
M  V30 2163 C 206.071 3.6441 -4.59806 0
M  V30 2164 C 208.423 3.6765 -5.14797 0
M  V30 2165 C 207.087 3.7091 -5.54961 0
M  V30 2166 H 206.357 0.671795 -0.312686 0
M  V30 2167 H 209.004 1.32091 -1.38652 0
M  V30 2168 H 207.309 3.84703 -0.742361 0
M  V30 2169 H 209.006 3.8464 -1.1337 0
M  V30 2170 H 205.596 3.46919 -2.51685 0
M  V30 2171 H 209.78 3.52258 -3.49611 0
M  V30 2172 H 205.036 3.65208 -4.9034 0
M  V30 2173 H 209.21 3.71786 -5.88853 0
M  V30 2174 H 206.837 3.7784 -6.59652 0
M  V30 2175 N 208.412 0.89855 1.29475 0
M  V30 2176 C 209.342 0.39201 2.30186 0
M  V30 2177 C 210.323 -0.532359 1.61555 0
M  V30 2178 O 211.508 -0.443331 1.89072 0
M  V30 2179 C 208.638 -0.382353 3.45189 0
M  V30 2180 C 207.592 0.451483 4.25612 0
M  V30 2181 C 206.918 -0.450307 5.328 0
M  V30 2182 C 208.218 1.70079 4.93832 0
M  V30 2183 H 209.912 1.23362 2.72804 0
M  V30 2184 H 207.458 0.594638 1.31149 0
M  V30 2185 H 209.411 -0.747451 4.14718 0
M  V30 2186 H 208.135 -1.25774 3.01411 0
M  V30 2187 H 206.794 0.798897 3.57789 0
M  V30 2188 H 206.442 -1.32379 4.85268 0
M  V30 2189 H 206.142 0.103902 5.87508 0
M  V30 2190 H 207.666 -0.811623 6.05182 0
M  V30 2191 H 209.08 1.40549 5.55805 0
M  V30 2192 H 207.477 2.19623 5.58467 0
M  V30 2193 H 208.547 2.43744 4.19186 0
M  V30 2194 N 209.89 -1.43072 0.660911 0
M  V30 2195 C 211.138 -2.01323 0.177094 0
M  V30 2196 C 211.459 -1.5245 -1.2159 0
M  V30 2197 O 210.729 -0.740322 -1.81373 0
M  V30 2198 H 209.309 -0.744382 0.0624804 0
M  V30 2199 H 211.971 -1.75179 0.854305 0
M  V30 2200 H 211.067 -3.11649 0.167641 0
M  V30 2201 N 211.368 -0.403325 -1.52352 0
M  V30 2202 C 212.596 0.174012 -2.06167 0
M  V30 2203 C 213.011 1.39347 -1.27388 0
M  V30 2204 O 212.368 1.79597 -0.324201 0
M  V30 2205 C 212.419 0.530223 -3.5759 0
M  V30 2206 O 212.14 -0.640806 -4.33388 0
M  V30 2207 C 213.641 1.16192 -4.27802 0
M  V30 2208 H 210.861 0.0229464 -0.670608 0
M  V30 2209 H 213.405 -0.572604 -1.9632 0
M  V30 2210 H 211.56 1.22673 -3.67464 0
M  V30 2211 H 211.974 -0.344851 -5.23365 0
M  V30 2212 H 213.448 1.36141 -5.34948 0
M  V30 2213 H 213.925 2.13335 -3.83907 0
M  V30 2214 H 214.531 0.505775 -4.22282 0
M  V30 2215 N 212.846 1.57033 -0.133567 0
M  V30 2216 C 214.071 2.00475 0.531477 0
M  V30 2217 C 214.496 1.01291 1.58499 0
M  V30 2218 O 213.854 -0.0133279 1.81295 0
M  V30 2219 C 213.902 3.42729 1.12113 0
M  V30 2220 O 213.006 3.46498 2.23636 0
M  V30 2221 H 212.347 0.650876 0.131362 0
M  V30 2222 H 214.877 2.03344 -0.22634 0
M  V30 2223 H 214.887 3.81246 1.4531 0
M  V30 2224 H 213.562 4.14428 0.349557 0
M  V30 2225 H 212.139 3.19811 1.91769 0
M  V30 2226 N 214.325 -0.140222 1.56975 0
M  V30 2227 C 215.553 -0.866437 1.87884 0
M  V30 2228 C 215.968 -1.74428 0.722517 0
M  V30 2229 O 215.325 -1.79891 -0.30749 0
M  V30 2230 C 215.376 -1.71753 3.18093 0
M  V30 2231 O 215.097 -0.875056 4.29272 0
M  V30 2232 C 216.598 -2.55074 3.62563 0
M  V30 2233 H 213.818 -0.25019 0.622612 0
M  V30 2234 H 216.362 -0.130977 2.0408 0
M  V30 2235 H 214.517 -2.40598 3.03631 0
M  V30 2236 H 214.931 -1.46002 5.03769 0
M  V30 2237 H 216.405 -3.10356 4.5649 0
M  V30 2238 H 216.882 -3.31434 2.88181 0
M  V30 2239 H 217.488 -1.91509 3.79743 0
M  V30 2240 N 215.803 -1.52179 -0.40978 0
M  V30 2241 C 217.05 -1.66206 -1.15679 0
M  V30 2242 C 217.378 -0.391674 -1.90516 0
M  V30 2243 O 216.633 0.62533 -1.8544 0
M  V30 2244 C 216.932 -2.83428 -2.17723 0
M  V30 2245 C 216.598 -4.21672 -1.59699 0
M  V30 2246 C 215.26 -4.59274 -1.43599 0
M  V30 2247 C 217.612 -5.07825 -1.17317 0
M  V30 2248 C 214.94 -5.80709 -0.836328 0
M  V30 2249 C 217.292 -6.29864 -0.587691 0
M  V30 2250 C 215.956 -6.66216 -0.413818 0
M  V30 2251 H 215.226 -0.608192 -0.423301 0
M  V30 2252 H 217.873 -1.86279 -0.444097 0
M  V30 2253 H 216.178 -2.57687 -2.95135 0
M  V30 2254 H 217.875 -2.91477 -2.75394 0
M  V30 2255 H 214.465 -3.9204 -1.73213 0
M  V30 2256 H 218.649 -4.79359 -1.28565 0
M  V30 2257 H 213.905 -6.07498 -0.689626 0
M  V30 2258 H 218.079 -6.95948 -0.250894 0
M  V30 2259 H 215.706 -7.60182 0.0529471 0
M  V30 2260 N 217.281 0.66697 -1.42791 0
M  V30 2261 C 218.506 1.46004 -1.47301 0
M  V30 2262 C 218.931 1.87894 -0.0880317 0
M  V30 2263 O 218.289 1.56502 0.915253 0
M  V30 2264 C 218.337 2.68031 -2.41229 0
M  V30 2265 O 217.441 3.6659 -1.88906 0
M  V30 2266 H 216.782 0.43832 -0.49877 0
M  V30 2267 H 219.312 0.817391 -1.87563 0
M  V30 2268 H 219.322 3.1601 -2.58073 0
M  V30 2269 H 217.997 2.36883 -3.41847 0
M  V30 2270 H 216.574 3.25661 -1.81656 0
M  V30 2271 N 218.759 1.29093 0.90403 0
M  V30 2272 C 219.691 1.09658 2.01266 0
M  V30 2273 C 220.704 0.0453729 1.62737 0
M  V30 2274 O 221.893 0.289446 1.76138 0
M  V30 2275 C 218.993 0.646278 3.32681 0
M  V30 2276 C 218.166 1.77505 3.99763 0
M  V30 2277 C 217.225 1.31649 5.09465 0
M  V30 2278 O 216.251 2.02045 5.32134 0
M  V30 2279 N 217.453 0.184997 5.80205 0
M  V30 2280 H 220.218 2.05135 2.18494 0
M  V30 2281 H 217.779 1.20975 1.07594 0
M  V30 2282 H 219.771 0.322906 4.0341 0
M  V30 2283 H 218.341 -0.215916 3.11853 0
M  V30 2284 H 217.561 2.26752 3.22455 0
M  V30 2285 H 218.849 2.53198 4.41325 0
M  V30 2286 H 218.247 -0.402021 5.6427 0
M  V30 2287 H 216.804 -0.0790358 6.51752 0
M  V30 2288 N 220.237 -1.11381 1.11499 0
M  V30 2289 C 221.467 -1.86663 0.885464 0
M  V30 2290 C 221.875 -1.80464 -0.568281 0
M  V30 2291 O 221.218 -1.18445 -1.40415 0
M  V30 2292 C 221.28 -3.36337 1.26956 0
M  V30 2293 C 220.944 -3.66304 2.73259 0
M  V30 2294 C 221.941 -3.63733 3.71476 0
M  V30 2295 C 219.626 -3.9529 3.09921 0
M  V30 2296 C 221.62 -3.89725 5.04374 0
M  V30 2297 C 219.307 -4.20941 4.43004 0
M  V30 2298 C 220.305 -4.18147 5.40039 0
M  V30 2299 O 219.993 -4.43153 6.70724 0
M  V30 2300 H 219.725 -0.597114 0.316908 0
M  V30 2301 H 222.279 -1.41782 1.48617 0
M  V30 2302 H 220.509 -3.81826 0.611999 0
M  V30 2303 H 222.198 -3.92986 1.01573 0
M  V30 2304 H 222.964 -3.41389 3.44498 0
M  V30 2305 H 218.843 -3.966 2.35009 0
M  V30 2306 H 222.387 -3.8746 5.80104 0
M  V30 2307 H 218.284 -4.42761 4.69716 0
M  V30 2308 H 219.052 -4.60717 6.76522 0
M  V30 2309 N 221.715 -0.905404 -1.28997 0
M  V30 2310 C 222.943 -0.549846 -1.9946 0
M  V30 2311 C 223.358 0.866834 -1.67724 0
M  V30 2312 O 222.715 1.57298 -0.925404 0
M  V30 2313 C 222.766 -0.739387 -3.53858 0
M  V30 2314 O 222.487 -2.10031 -3.84472 0
M  V30 2315 C 223.988 -0.389541 -4.41585 0
M  V30 2316 H 221.208 -0.210429 -0.637151 0
M  V30 2317 H 223.752 -1.21632 -1.64396 0
M  V30 2318 H 221.907 -0.120023 -3.87214 0
M  V30 2319 H 222.321 -2.13385 -4.79132 0
M  V30 2320 H 223.795 -0.572972 -5.49018 0
M  V30 2321 H 224.272 0.673756 -4.34001 0
M  V30 2322 H 224.878 -0.986089 -4.1371 0
M  V30 2323 N 223.193 1.4272 -0.668489 0
M  V30 2324 C 224.439 2.01923 -0.188419 0
M  V30 2325 C 224.772 1.52704 1.19979 0
M  V30 2326 O 224.047 0.726566 1.8042 0
M  V30 2327 C 224.33 3.59451 -0.216085 0
M  V30 2328 C 224.183 4.18864 -1.6393 0
M  V30 2329 C 225.502 4.37903 0.439179 0
M  V30 2330 H 222.621 0.733674 -0.0699412 0
M  V30 2331 H 225.263 1.69822 -0.852076 0
M  V30 2332 H 223.413 3.86929 0.349012 0
M  V30 2333 H 225.085 4.02362 -2.25616 0
M  V30 2334 H 223.328 3.74933 -2.18193 0
M  V30 2335 H 223.999 5.27987 -1.61039 0
M  V30 2336 H 226.475 4.16079 -0.0417878 0
M  V30 2337 H 225.351 5.47519 0.389157 0
M  V30 2338 H 225.612 4.15303 1.51577 0
M  V30 2339 N 224.671 0.411399 1.52136 0
M  V30 2340 C 225.917 -0.163888 2.02137 0
M  V30 2341 C 226.25 -1.44597 1.29636 0
M  V30 2342 O 225.525 -1.90272 0.403353 0
M  V30 2343 C 225.808 -0.40927 3.57767 0
M  V30 2344 C 225.661 0.889643 4.40914 0
M  V30 2345 C 226.98 -1.19042 4.23694 0
M  V30 2346 H 224.099 -0.0580896 0.734707 0
M  V30 2347 H 226.741 0.54531 1.82007 0
M  V30 2348 H 224.891 -1.0134 3.7505 0
M  V30 2349 H 226.563 1.52575 4.35337 0
M  V30 2350 H 224.806 1.50011 4.07037 0
M  V30 2351 H 225.477 0.672314 5.4789 0
M  V30 2352 H 227.953 -0.678942 4.10524 0
M  V30 2353 H 226.829 -1.33086 5.32522 0
M  V30 2354 H 227.09 -2.21166 3.82803 0
M  V30 2355 N 226.149 -1.5696 0.141893 0
M  V30 2356 C 227.426 -1.87553 -0.555281 0
M  V30 2357 C 227.806 -1.04699 -1.83306 0
M  V30 2358 O 227.154 -0.132346 -2.28116 0
M  V30 2359 C 227.364 -3.39093 -0.825664 0
M  V30 2360 C 228.712 -4.08199 -1.16869 0
M  V30 2361 O 229.736 -3.44242 -0.915185 0
M  V30 2362 O 228.595 -5.21139 -1.6455 0
M  V30 2363 H 225.689 -0.777188 -0.282679 0
M  V30 2364 H 228.235 -1.68763 0.17812 0
M  V30 2365 H 227.007 -3.91221 0.0788633 0
M  V30 2366 H 226.63 -3.63393 -1.61343 0
M  V30 2367 N 227.627 0.131896 -1.57047 0
M  V30 2368 C 228.537 1.1815 -2.02676 0
M  V30 2369 C 229.553 1.46113 -0.944824 0
M  V30 2370 O 230.729 1.57485 -1.25541 0
M  V30 2371 C 227.794 2.49139 -2.41103 0
M  V30 2372 C 226.855 2.28688 -3.63318 0
M  V30 2373 C 226.088 3.53431 -3.99903 0
M  V30 2374 O 226.311 4.60223 -3.36973 0
M  V30 2375 O 225.245 3.45198 -4.93074 0
M  V30 2376 H 229.071 0.824069 -2.92306 0
M  V30 2377 H 226.656 0.341745 -1.45439 0
M  V30 2378 H 228.538 3.26338 -2.66611 0
M  V30 2379 H 227.213 2.84382 -1.54624 0
M  V30 2380 H 226.12 1.4939 -3.42977 0
M  V30 2381 H 227.453 1.98355 -4.50462 0
M  V30 2382 N 229.106 1.52395 0.401703 0
M  V30 2383 C 230.054 1.7689 1.51039 0
M  V30 2384 C 231.048 0.636298 1.56996 0
M  V30 2385 O 232.254 0.818507 1.60314 0
M  V30 2386 H 228.629 0.559502 0.502456 0
M  V30 2387 H 230.6 2.69757 1.27568 0
M  V30 2388 C 229.349 1.94331 2.88324 0
M  V30 2389 H 228.672 2.80905 2.84486 0
M  V30 2390 H 230.112 2.15466 3.65172 0
M  V30 2391 C 228.571 0.712396 3.29282 0
M  V30 2392 O 229.101 -0.116218 4.01532 0
M  V30 2393 N 227.307 0.546154 2.85422 0
M  V30 2394 H 226.854 1.22156 2.26794 0
M  V30 2395 H 226.812 -0.276113 3.13185 0
M  V30 2396 N 230.584 -0.659388 1.43143 0
M  V30 2397 C 231.547 -1.75432 1.47501 0
M  V30 2398 C 232.547 -1.56707 0.360512 0
M  V30 2399 O 233.737 -1.62717 0.622002 0
M  V30 2400 C 230.869 -3.14239 1.32162 0
M  V30 2401 H 232.062 -1.7295 2.45006 0
M  V30 2402 H 229.615 -0.870469 1.29817 0
M  V30 2403 H 230.35 -3.22336 0.356401 0
M  V30 2404 H 230.135 -3.29235 2.12948 0
M  V30 2405 H 231.625 -3.94094 1.3813 0
M  V30 2406 N 232.062 -1.29571 -0.897171 0
M  V30 2407 C 233.308 -1.17863 -1.65034 0
M  V30 2408 C 233.641 0.268729 -1.92332 0
M  V30 2409 O 232.916 1.19378 -1.53555 0
M  V30 2410 C 233.199 -1.995 -2.99786 0
M  V30 2411 C 233.052 -3.5239 -2.79538 0
M  V30 2412 C 234.371 -1.82335 -4.00552 0
M  V30 2413 H 231.49 -0.429528 -0.598895 0
M  V30 2414 H 234.132 -1.59072 -1.03905 0
M  V30 2415 H 232.282 -1.64485 -3.51962 0
M  V30 2416 H 233.954 -3.97401 -2.34244 0
M  V30 2417 H 232.197 -3.77187 -2.14273 0
M  V30 2418 H 232.868 -4.04787 -3.75302 0
M  V30 2419 H 235.344 -2.12924 -3.57495 0
M  V30 2420 H 234.22 -2.41801 -4.92771 0
M  V30 2421 H 234.481 -0.779209 -4.35179 0
M  V30 2422 N 233.54 1.10788 -1.12088 0
M  V30 2423 C 234.503 2.15207 -0.788577 0
M  V30 2424 C 235.503 1.59609 0.195317 0
M  V30 2425 O 236.693 1.74174 -0.0300193 0
M  V30 2426 C 233.825 3.4047 -0.171174 0
M  V30 2427 H 235.018 2.46116 -1.71368 0
M  V30 2428 H 232.571 1.26089 -0.923652 0
M  V30 2429 H 233.306 3.15176 0.763832 0
M  V30 2430 H 233.091 3.82109 -0.879514 0
M  V30 2431 H 234.581 4.17576 0.04496 0
M  V30 2432 N 235.018 0.912232 1.28515 0
M  V30 2433 C 235.965 0.397954 2.27343 0
M  V30 2434 C 236.935 -0.526766 1.57526 0
M  V30 2435 O 238.12 -0.449292 1.85435 0
M  V30 2436 C 235.26 -0.357263 3.43246 0
M  V30 2437 C 234.373 0.599788 4.27816 0
M  V30 2438 C 233.508 -0.173725 5.30916 0
M  V30 2439 C 232.547 0.777039 6.07148 0
M  V30 2440 N 231.684 0.0371398 7.0209 0
M  V30 2441 H 236.524 1.24577 2.70711 0
M  V30 2442 H 234.061 0.625612 1.33133 0
M  V30 2443 H 236.019 -0.8113 4.09236 0
M  V30 2444 H 234.649 -1.16943 3.00872 0
M  V30 2445 H 233.701 1.17235 3.61884 0
M  V30 2446 H 235.013 1.32704 4.80823 0
M  V30 2447 H 234.167 -0.688394 6.02782 0
M  V30 2448 H 232.906 -0.934041 4.78672 0
M  V30 2449 H 231.911 1.3031 5.34134 0
M  V30 2450 H 233.136 1.53689 6.61481 0
M  V30 2451 H 231.082 -0.705213 6.52198 0
M  V30 2452 H 230.999 0.704249 7.52713 0
M  V30 2453 H 232.267 -0.457383 7.78157 0
M  V30 2454 N 236.496 -1.42363 0.676048 0
M  V30 2455 C 237.745 -2.00745 0.196037 0
M  V30 2456 C 238.058 -1.54083 -1.20489 0
M  V30 2457 O 239.264 -2.04891 -1.78134 0
M  V30 2458 C 237.72 -3.58651 0.299616 0
M  V30 2459 C 237.328 -4.143 1.70468 0
M  V30 2460 C 239.072 -4.24326 -0.121619 0
M  V30 2461 C 236.979 -5.64574 1.76096 0
M  V30 2462 H 235.909 -0.750787 0.0695301 0
M  V30 2463 H 238.56 -1.63072 0.841412 0
M  V30 2464 H 236.942 -3.93833 -0.413673 0
M  V30 2465 H 238.116 -3.90575 2.44515 0
M  V30 2466 H 236.431 -3.61081 2.07387 0
M  V30 2467 H 239.028 -5.34607 -0.0997362 0
M  V30 2468 H 239.371 -3.99897 -1.15708 0
M  V30 2469 H 239.904 -3.94108 0.540706 0
M  V30 2470 H 236.643 -5.93804 2.77628 0
M  V30 2471 H 236.163 -5.90286 1.06406 0
M  V30 2472 H 237.842 -6.29013 1.51496 0
M  V30 2473 N 237.974 -0.419461 -1.51915 0
M  V30 2474 C 239.251 0.211999 -1.94448 0
M  V30 2475 C 239.631 1.61703 -1.35703 0
M  V30 2476 O 238.979 2.22102 -0.536931 0
M  V30 2477 C 239.189 0.207872 -3.4838 0
M  V30 2478 C 240.537 0.422192 -4.22496 0
M  V30 2479 O 241.561 0.286778 -3.55044 0
M  V30 2480 O 240.42 0.690009 -5.42126 0
M  V30 2481 H 237.514 0.139586 -0.815135 0
M  V30 2482 H 240.06 -0.476151 -1.62883 0
M  V30 2483 H 238.832 -0.775102 -3.83546 0
M  V30 2484 H 238.455 0.939688 -3.86336 0
M  V30 2485 N 239.452 1.56882 -0.150215 0
M  V30 2486 C 240.415 2.1573 0.774157 0
M  V30 2487 C 241.415 1.0999 1.17298 0
M  V30 2488 O 242.605 1.35613 1.09338 0
M  V30 2489 C 239.737 2.72302 2.05096 0
M  V30 2490 H 240.93 2.98752 0.262201 0
M  V30 2491 H 238.483 1.55985 0.099248 0
M  V30 2492 H 239.218 1.92956 2.6065 0
M  V30 2493 H 239.003 3.49665 1.77416 0
M  V30 2494 H 240.493 3.17632 2.71109 0
M  V30 2495 N 240.93 -0.123565 1.57115 0
M  V30 2496 C 241.893 -1.13583 1.99076 0
M  V30 2497 C 242.893 -1.34564 0.880296 0
M  V30 2498 O 244.083 -1.31158 1.14644 0
M  V30 2499 C 241.215 -2.49128 2.32698 0
M  V30 2500 H 242.408 -0.775287 2.89706 0
M  V30 2501 H 239.961 -0.36771 1.51913 0
M  V30 2502 H 240.696 -2.90111 1.44934 0
M  V30 2503 H 240.481 -2.35255 3.13684 0
M  V30 2504 H 241.971 -3.2199 2.65918 0
M  V30 2505 N 242.408 -1.52605 -0.393616 0
M  V30 2506 C 243.633 -1.71592 -1.16495 0
M  V30 2507 C 244.058 -0.43133 -1.83088 0
M  V30 2508 O 243.416 0.612523 -1.7064 0
M  V30 2509 C 243.464 -2.86318 -2.19213 0
M  V30 2510 O 242.568 -2.52969 -3.257 0
M  V30 2511 H 241.909 -0.570734 -0.33935 0
M  V30 2512 H 244.439 -1.99377 -0.459324 0
M  V30 2513 H 244.449 -3.1168 -2.63286 0
M  V30 2514 H 243.124 -3.79511 -1.7013 0
M  V30 2515 H 241.701 -2.38332 -2.86797 0
M  V30 2516 N 243.887 0.651787 -1.4349 0
M  V30 2517 C 245.298 1.233 -1.40193 0
M  V30 2518 C 245.649 1.9591 -0.106727 0
M  V30 2519 O 244.774 2.01316 0.793773 0
M  V30 2520 C 245.369 2.24257 -2.53957 0
M  V30 2521 C 243.928 2.77852 -2.5392 0
M  V30 2522 C 243.075 1.52517 -2.3159 0
M  V30 2523 H 246.026 0.443717 -1.52371 0
M  V30 2524 H 246.047 3.0646 -2.25528 0
M  V30 2525 H 245.559 1.71382 -3.4821 0
M  V30 2526 H 243.66 3.34786 -1.63551 0
M  V30 2527 H 243.773 3.25299 -3.51735 0
M  V30 2528 H 242.137 1.79915 -1.80285 0
M  V30 2529 H 242.92 1.01574 -3.27929 0
M  V30 2530 N 245.365 1.30045 0.890287 0
M  V30 2531 C 246.295 1.18541 2.01172 0
M  V30 2532 C 247.276 0.0773356 1.69924 0
M  V30 2533 O 248.461 0.25845 1.92473 0
M  V30 2534 C 245.591 0.870941 3.36202 0
M  V30 2535 C 244.545 1.93637 3.81692 0
M  V30 2536 C 243.871 1.475 5.13953 0
M  V30 2537 C 245.171 3.34666 4.00994 0
M  V30 2538 H 246.865 2.12359 2.11054 0
M  V30 2539 H 244.411 1.02238 1.01407 0
M  V30 2540 H 246.364 0.777141 4.14172 0
M  V30 2541 H 245.088 -0.102926 3.26438 0
M  V30 2542 H 243.747 2.01972 3.05946 0
M  V30 2543 H 243.395 0.489551 5.00612 0
M  V30 2544 H 243.095 2.1876 5.4536 0
M  V30 2545 H 244.619 1.39489 5.94454 0
M  V30 2546 H 246.033 3.2912 4.69417 0
M  V30 2547 H 244.43 4.03966 4.43769 0
M  V30 2548 H 245.5 3.76949 3.05021 0
M  V30 2549 N 246.843 -1.10192 1.12674 0
M  V30 2550 C 247.753 -2.20172 0.810026 0
M  V30 2551 C 248.769 -1.72821 -0.202188 0
M  V30 2552 O 249.945 -2.01369 -0.0351691 0
M  V30 2553 C 247.01 -3.45631 0.272007 0
M  V30 2554 C 246.071 -4.07704 1.34447 0
M  V30 2555 C 245.304 -5.27175 0.832029 0
M  V30 2556 O 245.527 -5.69425 -0.333284 0
M  V30 2557 O 244.461 -5.80168 1.60277 0
M  V30 2558 H 248.287 -2.49701 1.72867 0
M  V30 2559 H 245.872 -1.18977 0.903597 0
M  V30 2560 H 247.754 -4.21394 -0.0230219 0
M  V30 2561 H 246.429 -3.17723 -0.619164 0
M  V30 2562 H 245.336 -3.33614 1.6927 0
M  V30 2563 H 246.669 -4.3982 2.2095 0
M  V30 2564 N 248.321 -0.919034 -1.28029 0
M  V30 2565 C 249.268 -0.410005 -2.27129 0
M  V30 2566 C 250.238 0.518405 -1.57803 0
M  V30 2567 O 251.423 0.439451 -1.8567 0
M  V30 2568 C 248.563 0.339054 -3.4343 0
M  V30 2569 C 247.676 -0.622468 -4.27492 0
M  V30 2570 C 246.811 0.145567 -5.31001 0
M  V30 2571 C 245.85 -0.809226 -6.06727 0
M  V30 2572 N 244.987 -0.0743728 -7.02061 0
M  V30 2573 H 249.827 -1.26011 -2.70047 0
M  V30 2574 H 247.364 -0.632663 -1.328 0
M  V30 2575 H 249.322 0.789586 -4.0966 0
M  V30 2576 H 247.952 1.15346 -3.01488 0
M  V30 2577 H 247.004 -1.19153 -3.61257 0
M  V30 2578 H 248.316 -1.35252 -4.80113 0
M  V30 2579 H 247.47 0.656417 -6.03139 0
M  V30 2580 H 246.209 0.908643 -4.79161 0
M  V30 2581 H 245.214 -1.3314 -5.33436 0
M  V30 2582 H 246.439 -1.57194 -6.60656 0
M  V30 2583 H 244.385 0.670616 -6.52563 0
M  V30 2584 H 244.302 -0.744157 -7.52329 0
M  V30 2585 H 245.57 0.416109 -7.78389 0
M  V30 2586 N 249.799 1.42003 -0.683588 0
M  V30 2587 C 251.045 2.01712 -0.209825 0
M  V30 2588 C 251.378 1.53968 1.18353 0
M  V30 2589 O 250.653 0.745661 1.79639 0
M  V30 2590 C 250.936 3.59202 -0.254197 0
M  V30 2591 C 250.789 4.17102 -1.68363 0
M  V30 2592 C 252.108 4.38344 0.392709 0
M  V30 2593 H 249.227 0.732891 -0.0777189 0
M  V30 2594 H 251.869 1.68909 -0.87004 0
M  V30 2595 H 250.019 3.87278 0.307954 0
M  V30 2596 H 251.691 3.99946 -2.29871 0
M  V30 2597 H 249.934 3.72597 -2.22157 0
M  V30 2598 H 250.605 5.26249 -1.6663 0
M  V30 2599 H 253.081 4.16011 -0.0859162 0
M  V30 2600 H 251.957 5.47901 0.331063 0
M  V30 2601 H 252.218 4.16887 1.47164 0
M  V30 2602 N 251.277 0.427512 1.51691 0
M  V30 2603 C 252.517 -0.141524 2.03909 0
M  V30 2604 C 252.881 -1.40811 1.30523 0
M  V30 2605 O 254.082 -2.05676 1.73063 0
M  V30 2606 C 252.353 -0.364962 3.55532 0
M  V30 2607 S 253.912 -0.898812 4.29496 0
M  V30 2608 H 250.73 -0.0364542 0.710065 0
M  V30 2609 H 253.332 0.584659 1.86553 0
M  V30 2610 H 252.036 0.56336 4.06515 0
M  V30 2611 H 251.567 -1.1185 3.77164 0
M  V30 2612 H 253.582 -2.17747 4.45871 0
M  V30 2613 N 252.755 -1.56801 0.158532 0
M  V30 2614 C 253.685 -2.20347 -0.772609 0
M  V30 2615 C 254.666 -1.15518 -1.24859 0
M  V30 2616 O 255.851 -1.43902 -1.30406 0
M  V30 2617 C 252.981 -2.83417 -2.00729 0
M  V30 2618 C 251.935 -3.94174 -1.66765 0
M  V30 2619 C 251.261 -4.44233 -2.97592 0
M  V30 2620 C 252.561 -5.14392 -0.905447 0
M  V30 2621 H 254.255 -2.98413 -0.242959 0
M  V30 2622 H 251.801 -1.43537 -0.115419 0
M  V30 2623 H 253.754 -3.26543 -2.6636 0
M  V30 2624 H 252.478 -2.02701 -2.56086 0
M  V30 2625 H 251.137 -3.51684 -1.03508 0
M  V30 2626 H 250.785 -3.60325 -3.50963 0
M  V30 2627 H 250.485 -5.18945 -2.75626 0
M  V30 2628 H 252.009 -4.90037 -3.64274 0
M  V30 2629 H 253.423 -5.5429 -1.46408 0
M  V30 2630 H 251.82 -5.9494 -0.7853 0
M  V30 2631 H 252.89 -4.84795 0.100668 0
M  V30 2632 N 254.233 0.115231 -1.57178 0
M  V30 2633 C 255.482 0.820945 -1.84237 0
M  V30 2634 C 255.795 1.80866 -0.744761 0
M  V30 2635 O 257.001 2.56083 -0.901871 0
M  V30 2636 C 255.457 1.51072 -3.26658 0
M  V30 2637 C 255.065 0.563795 -4.44438 0
M  V30 2638 C 256.809 2.20134 -3.62962 0
M  V30 2639 C 254.716 1.25701 -5.77887 0
M  V30 2640 H 253.646 0.310328 -0.687177 0
M  V30 2641 H 256.297 0.0737134 -1.83352 0
M  V30 2642 H 254.679 2.30471 -3.22024 0
M  V30 2643 H 255.853 -0.197247 -4.60378 0
M  V30 2644 H 254.168 -0.0200638 -4.16395 0
M  V30 2645 H 256.765 2.72696 -4.59936 0
M  V30 2646 H 257.108 2.98107 -2.90582 0
M  V30 2647 H 257.641 1.47619 -3.69396 0
M  V30 2648 H 254.38 0.518493 -6.53446 0
M  V30 2649 H 253.9 1.98997 -5.65827 0
M  V30 2650 H 255.579 1.78915 -6.2177 0
M  V30 2651 N 255.711 1.52812 0.385517 0
M  V30 2652 C 256.959 1.67694 1.12797 0
M  V30 2653 C 257.28 0.421115 1.90399 0
M  V30 2654 O 256.55 -0.564551 1.87589 0
M  V30 2655 H 255.13 0.618155 0.419396 0
M  V30 2656 H 257.792 1.89938 0.436972 0
M  V30 2657 H 256.888 2.52896 1.82894 0
M  V30 2658 N 257.189 -0.644168 1.43834 0
M  V30 2659 C 258.429 -1.41565 1.47441 0
M  V30 2660 C 258.793 -1.91743 0.0992723 0
M  V30 2661 O 259.994 -2.68798 0.0100192 0
M  V30 2662 C 258.265 -2.55902 2.49498 0
M  V30 2663 S 259.824 -3.44287 2.72051 0
M  V30 2664 H 256.642 -0.483118 0.521649 0
M  V30 2665 H 259.244 -0.747008 1.80666 0
M  V30 2666 H 257.948 -2.17327 3.48134 0
M  V30 2667 H 257.479 -3.27607 2.17801 0
M  V30 2668 H 259.494 -4.52927 2.0266 0
M  V30 2669 N 258.668 -1.30515 -0.883378 0
M  V30 2670 C 259.916 -1.19194 -1.63209 0
M  V30 2671 C 260.237 0.253205 -1.93349 0
M  V30 2672 O 259.507 1.17025 -1.57105 0
M  V30 2673 H 258.087 -0.438148 -0.605009 0
M  V30 2674 H 260.749 -1.63663 -1.05832 0
M  V30 2675 H 259.845 -1.75396 -2.58153 0
M  V30 2676 N 260.146 1.09593 -1.13257 0
M  V30 2677 C 261.393 1.81734 -0.893257 0
M  V30 2678 C 261.721 1.8563 0.580656 0
M  V30 2679 O 260.976 1.31906 1.44566 0
M  V30 2680 C 261.275 3.27802 -1.42411 0
M  V30 2681 C 260.941 3.44041 -2.91456 0
M  V30 2682 C 259.603 3.48181 -3.3215 0
M  V30 2683 C 261.955 3.48719 -3.87356 0
M  V30 2684 C 259.283 3.54575 -4.67433 0
M  V30 2685 C 261.635 3.56648 -5.2248 0
M  V30 2686 C 260.299 3.59055 -5.62704 0
M  V30 2687 H 259.569 0.665011 -0.326866 0
M  V30 2688 H 262.216 1.2912 -1.41422 0
M  V30 2689 H 260.521 3.83042 -0.823795 0
M  V30 2690 H 262.218 3.82149 -1.21503 0
M  V30 2691 H 258.808 3.41502 -2.58987 0
M  V30 2692 H 262.992 3.44763 -3.57004 0
M  V30 2693 H 258.248 3.54725 -4.97976 0
M  V30 2694 H 262.422 3.59212 -5.96607 0
M  V30 2695 H 260.049 3.63763 -6.67518 0
M  V30 2696 N 261.624 0.925811 1.2754 0
M  V30 2697 C 262.849 0.580924 1.99098 0
M  V30 2698 C 263.274 -0.833555 1.68622 0
M  V30 2699 O 262.632 -1.55903 0.925422 0
M  V30 2700 C 262.68 0.811186 3.51358 0
M  V30 2701 O 261.784 -0.124129 4.12213 0
M  V30 2702 H 261.125 0.223873 0.625122 0
M  V30 2703 H 263.655 1.24455 1.62395 0
M  V30 2704 H 263.665 0.72601 4.01489 0
M  V30 2705 H 262.34 1.84227 3.72872 0
M  V30 2706 H 260.917 0.0108006 3.72898 0
M  V30 2707 N 263.102 -1.41638 0.69111 0
M  V30 2708 C 264.33 -2.05628 0.22909 0
M  V30 2709 C 264.745 -1.51992 -1.11999 0
M  V30 2710 O 264.102 -0.666322 -1.69901 0
M  V30 2711 C 264.153 -3.61084 0.173283 0
M  V30 2712 O 263.874 -4.12735 1.46907 0
M  V30 2713 C 265.375 -4.42213 -0.310266 0
M  V30 2714 H 262.595 -0.662327 0.107534 0
M  V30 2715 H 265.139 -1.81489 0.942438 0
M  V30 2716 H 263.294 -3.84278 -0.490858 0
M  V30 2717 H 263.708 -5.06743 1.35322 0
M  V30 2718 H 265.182 -5.51194 -0.298196 0
M  V30 2719 H 265.659 -4.1799 -1.34838 0
M  V30 2720 H 266.265 -4.24074 0.322716 0
M  V30 2721 N 264.58 -0.43555 -1.51462 0
M  V30 2722 C 265.828 0.131254 -2.01673 0
M  V30 2723 C 266.149 1.43368 -1.32177 0
M  V30 2724 O 265.419 1.90524 -0.455769 0
M  V30 2725 H 263.999 0.0514954 -0.745223 0
M  V30 2726 H 266.661 -0.577847 -1.86137 0
M  V30 2727 H 265.757 0.308446 -3.10572 0
M  V30 2728 N 266.058 1.56714 -0.166846 0
M  V30 2729 C 267.288 2.00828 0.48494 0
M  V30 2730 C 267.696 1.04612 1.57648 0
M  V30 2731 O 267.039 0.0383201 1.8366 0
M  V30 2732 C 267.101 3.4137 1.12723 0
M  V30 2733 C 266.765 4.56654 0.177886 0
M  V30 2734 C 267.762 5.16402 -0.60207 0
M  V30 2735 C 265.447 5.02244 0.0750139 0
M  V30 2736 C 267.441 6.20167 -1.47215 0
M  V30 2737 C 265.128 6.05859 -0.798649 0
M  V30 2738 C 266.126 6.64691 -1.57082 0
M  V30 2739 O 265.814 7.66297 -2.42989 0
M  V30 2740 H 265.546 0.663587 0.128953 0
M  V30 2741 H 268.1 2.03692 -0.264365 0
M  V30 2742 H 266.33 3.35406 1.92457 0
M  V30 2743 H 268.019 3.69466 1.68076 0
M  V30 2744 H 268.785 4.82065 -0.53274 0
M  V30 2745 H 264.664 4.56167 0.665812 0
M  V30 2746 H 268.208 6.66016 -2.07531 0
M  V30 2747 H 264.105 6.39621 -0.869199 0
M  V30 2748 H 264.873 7.83601 -2.36455 0
M  V30 2749 N 267.536 -0.106894 1.57237 0
M  V30 2750 C 268.784 -0.810921 1.85117 0
M  V30 2751 C 269.105 -1.7984 0.753827 0
M  V30 2752 O 268.375 -1.94649 -0.221056 0
M  V30 2753 H 266.955 -0.302466 0.683025 0
M  V30 2754 H 269.617 -0.0913324 1.94686 0
M  V30 2755 H 268.713 -1.34875 2.81452 0
M  V30 2756 N 269.014 -1.53014 -0.377408 0
M  V30 2757 C 270.239 -1.72818 -1.14668 0
M  V30 2758 C 270.664 -0.450725 -1.8262 0
M  V30 2759 O 270.022 0.59439 -1.7128 0
M  V30 2760 C 270.07 -2.88627 -2.16164 0
M  V30 2761 O 269.174 -2.56409 -3.22998 0
M  V30 2762 H 268.515 -0.574301 -0.333278 0
M  V30 2763 H 271.045 -1.99853 -0.438152 0
M  V30 2764 H 271.055 -3.14455 -2.59966 0
M  V30 2765 H 269.73 -3.81294 -1.66095 0
M  V30 2766 H 268.307 -2.4136 -2.84253 0
M  V30 2767 N 270.492 0.636531 -1.44174 0
M  V30 2768 C 271.455 1.73063 -1.50273 0
M  V30 2769 C 272.455 1.56113 -0.385397 0
M  V30 2770 O 273.645 1.61707 -0.64781 0
M  V30 2771 C 270.777 3.12096 -1.37145 0
M  V30 2772 H 271.97 1.69031 -2.47727 0
M  V30 2773 H 269.523 0.849706 -1.31186 0
M  V30 2774 H 270.258 3.21728 -0.407636 0
M  V30 2775 H 270.043 3.25805 -2.18159 0
M  V30 2776 H 271.533 3.91846 -1.44382 0
M  V30 2777 N 271.97 1.30982 0.876444 0
M  V30 2778 C 273.216 1.20474 1.63138 0
M  V30 2779 C 273.549 -0.238096 1.92735 0
M  V30 2780 O 272.824 -1.1692 1.55435 0
M  V30 2781 C 273.107 2.04244 2.96574 0
M  V30 2782 C 272.96 3.56793 2.73896 0
M  V30 2783 C 274.279 1.88684 3.97601 0
M  V30 2784 H 271.398 0.439001 0.591985 0
M  V30 2785 H 274.04 1.60704 1.01361 0
M  V30 2786 H 272.19 1.70063 3.493 0
M  V30 2787 H 273.862 4.01077 2.27892 0
M  V30 2788 H 272.105 3.80548 2.08245 0
M  V30 2789 H 272.776 4.10706 3.68815 0
M  V30 2790 H 275.252 2.18584 3.54062 0
M  V30 2791 H 274.128 2.4961 4.88862 0
M  V30 2792 H 274.389 0.848343 4.33884 0
M  V30 2793 N 273.449 -1.08991 1.13837 0
M  V30 2794 C 274.397 -2.17841 0.815347 0
M  V30 2795 C 275.391 -1.68164 -0.204233 0
M  V30 2796 O 276.597 -1.79897 -0.0609304 0
M  V30 2797 H 272.972 -0.710654 0.245915 0
M  V30 2798 H 274.943 -2.42315 1.74143 0
M  V30 2799 C 273.692 -3.46381 0.302614 0
M  V30 2800 H 273.015 -3.84979 1.0785 0
M  V30 2801 H 274.455 -4.23844 0.115074 0
M  V30 2802 C 272.914 -3.22556 -0.972591 0
M  V30 2803 O 273.444 -3.45599 -2.04754 0
M  V30 2804 N 271.65 -2.76134 -0.905455 0
M  V30 2805 H 271.197 -2.57582 -0.0305421 0
M  V30 2806 H 271.155 -2.60571 -1.75926 0
M  V30 2807 N 274.927 -0.932562 -1.27047 0
M  V30 2808 C 276.173 -0.576412 -1.94436 0
M  V30 2809 C 276.506 0.880891 -1.73072 0
M  V30 2810 O 275.781 1.62905 -1.06264 0
M  V30 2811 C 276.064 -0.909031 -3.48437 0
M  V30 2812 C 275.917 -2.42044 -3.79123 0
M  V30 2813 C 277.236 -0.418341 -4.38107 0
M  V30 2814 H 274.355 -0.210888 -0.706184 0
M  V30 2815 H 276.997 -1.16522 -1.50075 0
M  V30 2816 H 275.147 -0.407947 -3.86352 0
M  V30 2817 H 276.819 -2.99359 -3.50973 0
M  V30 2818 H 275.062 -2.86758 -3.25503 0
M  V30 2819 H 275.733 -2.6037 -4.86736 0
M  V30 2820 H 278.209 -0.847856 -4.0737 0
M  V30 2821 H 277.085 -0.679981 -5.44672 0
M  V30 2822 H 277.346 0.681642 -4.36814 0
M  V30 2823 N 276.405 1.4127 -0.698611 0
M  V30 2824 C 277.368 2.29158 -0.044132 0
M  V30 2825 C 278.368 1.44529 0.704841 0
M  V30 2826 O 279.558 1.65643 0.539276 0
M  V30 2827 C 276.69 3.27459 0.947809 0
M  V30 2828 H 277.883 2.88529 -0.817994 0
M  V30 2829 H 275.436 1.49307 -0.46228 0
M  V30 2830 H 276.171 2.73073 1.74933 0
M  V30 2831 H 275.956 3.8991 0.41385 0
M  V30 2832 H 277.446 3.93311 1.40344 0
M  V30 2833 N 277.883 0.443576 1.51229 0
M  V30 2834 C 278.83 -0.364716 2.279 0
M  V30 2835 C 279.8 -1.0114 1.31757 0
M  V30 2836 O 280.985 -1.02912 1.60667 0
M  V30 2837 C 278.125 -1.45644 3.12861 0
M  V30 2838 C 277.238 -0.827269 4.24005 0
M  V30 2839 C 276.373 -1.89456 4.96266 0
M  V30 2840 C 275.412 -1.24416 5.99322 0
M  V30 2841 N 274.549 -2.25309 6.64966 0
M  V30 2842 H 279.389 0.295464 2.96532 0
M  V30 2843 H 276.926 0.157554 1.46254 0
M  V30 2844 H 278.884 -2.10076 3.6045 0
M  V30 2845 H 277.514 -2.08616 2.46331 0
M  V30 2846 H 276.566 -0.0710839 3.80334 0
M  V30 2847 H 277.878 -0.312481 4.9782 0
M  V30 2848 H 277.032 -2.61535 5.47434 0
M  V30 2849 H 275.771 -2.4431 4.22095 0
M  V30 2850 H 274.776 -0.508868 5.4744 0
M  V30 2851 H 276.001 -0.702882 6.75453 0
M  V30 2852 H 273.947 -2.79231 5.93604 0
M  V30 2853 H 273.864 -1.78739 7.34567 0
M  V30 2854 H 275.132 -2.96853 7.20763 0
M  V30 2855 N 279.361 -1.56624 0.175154 0
M  V30 2856 C 280.607 -1.9729 -0.469506 0
M  V30 2857 C 280.94 -1.06128 -1.62636 0
M  V30 2858 O 280.215 -0.109183 -1.94193 0
M  V30 2859 C 280.498 -3.47375 -0.948804 0
M  V30 2860 C 280.351 -4.49317 0.208491 0
M  V30 2861 C 281.67 -4.00652 -1.82116 0
M  V30 2862 H 278.789 -0.717317 -0.16919 0
M  V30 2863 H 281.431 -1.88184 0.262062 0
M  V30 2864 H 279.581 -3.55267 -1.57219 0
M  V30 2865 H 281.253 -4.53482 0.845682 0
M  V30 2866 H 279.496 -4.25121 0.863395 0
M  V30 2867 H 280.167 -5.51741 -0.169059 0
M  V30 2868 H 282.643 -3.95416 -1.2956 0
M  V30 2869 H 281.519 -5.06075 -2.12554 0
M  V30 2870 H 281.78 -3.44699 -2.7683 0
M  V30 2871 N 280.839 0.0985539 -1.57292 0
M  V30 2872 C 282.067 0.816318 -1.90115 0
M  V30 2873 C 282.482 1.72451 -0.768509 0
M  V30 2874 O 281.839 1.80643 0.259687 0
M  V30 2875 C 281.89 1.63259 -3.22535 0
M  V30 2876 O 281.611 0.760934 -4.31441 0
M  V30 2877 C 283.112 2.45372 -3.69199 0
M  V30 2878 H 280.332 0.233595 -0.629027 0
M  V30 2879 H 282.876 0.0768229 -2.04356 0
M  V30 2880 H 281.031 2.32463 -3.09903 0
M  V30 2881 H 281.445 1.32595 -5.07463 0
M  V30 2882 H 282.919 2.98144 -4.64558 0
M  V30 2883 H 283.396 3.23677 -2.96867 0
M  V30 2884 H 284.002 1.81373 -3.84687 0
M  V30 2885 N 282.317 1.53212 0.369288 0
M  V30 2886 C 283.728 1.60943 0.946276 0
M  V30 2887 C 284.079 0.47452 1.90375 0
M  V30 2888 O 283.204 -0.399597 2.12679 0
M  V30 2889 C 283.799 2.91715 1.72302 0
M  V30 2890 C 282.358 3.01792 2.24941 0
M  V30 2891 C 281.505 2.56211 1.06072 0
M  V30 2892 H 284.456 1.58007 0.148198 0
M  V30 2893 H 284.477 2.79309 2.58393 0
M  V30 2894 H 283.989 3.74295 1.0259 0
M  V30 2895 H 282.09 2.23791 2.97906 0
M  V30 2896 H 282.203 4.06803 2.53077 0
M  V30 2897 H 280.567 2.10998 1.4266 0
M  V30 2898 H 281.35 3.41206 0.378639 0
M  V30 2899 N 283.795 -0.628877 1.44509 0
M  V30 2900 C 285.043 -1.38565 1.4712 0
M  V30 2901 C 285.364 -1.94712 0.105899 0
M  V30 2902 O 284.634 -1.75912 -0.862079 0
M  V30 2903 H 283.214 -0.514333 0.541729 0
M  V30 2904 H 285.876 -0.740018 1.80305 0
M  V30 2905 H 284.972 -2.21583 2.19789 0
M  V30 2906 N 285.273 -1.31445 -0.869486 0
M  V30 2907 C 286.498 -1.24256 -1.66058 0
M  V30 2908 C 286.923 0.188928 -1.87149 0
M  V30 2909 O 286.281 1.13522 -1.4136 0
M  V30 2910 C 286.329 -1.9924 -3.00559 0
M  V30 2911 O 285.433 -1.33007 -3.90362 0
M  V30 2912 H 284.774 -0.428973 -0.506831 0
M  V30 2913 H 287.304 -1.73521 -1.08404 0
M  V30 2914 H 287.314 -2.08854 -3.50491 0
M  V30 2915 H 285.989 -3.03342 -2.84528 0
M  V30 2916 H 284.566 -1.31848 -3.48813 0
M  V30 2917 N 286.751 1.08385 -1.14413 0
M  V30 2918 C 287.979 1.84517 -0.936001 0
M  V30 2919 C 288.394 1.81626 0.515503 0
M  V30 2920 O 287.751 1.22008 1.35721 0
M  V30 2921 C 287.802 3.32049 -1.42918 0
M  V30 2922 O 287.523 3.34951 -2.82381 0
M  V30 2923 C 289.024 4.24986 -1.26103 0
M  V30 2924 H 286.244 0.582491 -0.333084 0
M  V30 2925 H 288.788 1.36885 -1.5193 0
M  V30 2926 H 286.943 3.7707 -0.888641 0
M  V30 2927 H 287.357 4.27048 -3.04517 0
M  V30 2928 H 288.831 5.26615 -1.6547 0
M  V30 2929 H 289.308 4.38726 -0.20392 0
M  V30 2930 H 289.914 3.85791 -1.79012 0
M  V30 2931 N 288.23 0.939286 1.26551 0
M  V30 2932 C 289.47 0.5933 1.956 0
M  V30 2933 C 289.834 -0.851515 1.72085 0
M  V30 2934 O 291.035 -1.30634 2.34921 0
M  V30 2935 C 289.306 0.923996 3.45249 0
M  V30 2936 S 290.865 0.688269 4.33369 0
M  V30 2937 H 287.683 0.218591 0.676564 0
M  V30 2938 H 290.285 1.2102 1.5354 0
M  V30 2939 H 288.989 1.97297 3.59864 0
M  V30 2940 H 288.52 0.296746 3.92279 0
M  V30 2941 H 290.535 -0.448434 4.9417 0
M  V30 2942 N 289.708 -1.40897 0.706093 0
M  V30 2943 C 290.671 -2.29131 0.0562841 0
M  V30 2944 C 291.671 -1.44901 -0.697166 0
M  V30 2945 O 292.861 -1.65926 -0.530484 0
M  V30 2946 C 289.993 -3.27957 -0.93043 0
M  V30 2947 H 291.186 -2.88091 0.833284 0
M  V30 2948 H 288.739 -1.4906 0.470192 0
M  V30 2949 H 289.474 -2.73997 -1.73482 0
M  V30 2950 H 289.259 -3.90124 -0.393166 0
M  V30 2951 H 290.749 -3.94049 -1.38256 0
M  V30 2952 N 291.186 -0.45159 -1.50991 0
M  V30 2953 C 292.432 0.110237 -2.025 0
M  V30 2954 C 292.765 1.41109 -1.33424 0
M  V30 2955 O 292.04 1.89135 -0.453659 0
M  V30 2956 C 292.323 0.314271 -3.58726 0
M  V30 2957 C 292.176 -1.00623 -4.38401 0
M  V30 2958 C 293.495 1.07767 -4.26702 0
M  V30 2959 H 290.614 0.0385897 -0.735989 0
M  V30 2960 H 293.256 -0.593374 -1.80497 0
M  V30 2961 H 291.406 0.913601 -3.77605 0
M  V30 2962 H 293.078 -1.64064 -4.31139 0
M  V30 2963 H 291.321 -1.6075 -4.02917 0
M  V30 2964 H 291.992 -0.817341 -5.45915 0
M  V30 2965 H 294.468 0.56986 -4.12179 0
M  V30 2966 H 293.344 1.18921 -5.35863 0
M  V30 2967 H 293.605 2.10939 -3.88532 0
M  V30 2968 N 292.664 1.56529 -0.183458 0
M  V30 2969 C 293.911 1.97244 0.458357 0
M  V30 2970 C 294.239 1.06992 1.62428 0
M  V30 2971 O 293.494 0.106542 1.9541 0
M  V30 2972 C 293.793 3.43939 0.971637 0
M  V30 2973 C 293.459 4.5083 -0.0796784 0
M  V30 2974 C 292.121 4.79786 -0.368584 0
M  V30 2975 C 294.473 5.15138 -0.792638 0
M  V30 2976 C 291.801 5.70345 -1.37563 0
M  V30 2977 C 294.153 6.06784 -1.78875 0
M  V30 2978 C 292.817 6.34102 -2.08497 0
M  V30 2979 H 292.087 0.721768 0.167725 0
M  V30 2980 H 294.734 1.89472 -0.277976 0
M  V30 2981 H 293.039 3.48724 1.78602 0
M  V30 2982 H 294.736 3.72791 1.47744 0
M  V30 2983 H 291.326 4.28317 0.155668 0
M  V30 2984 H 295.51 4.92868 -0.582659 0
M  V30 2985 H 290.766 5.89789 -1.61118 0
M  V30 2986 H 294.94 6.55677 -2.3465 0
M  V30 2987 H 292.567 7.04074 -2.86678 0
M  V30 2988 N 294.142 -0.090211 1.57342 0
M  V30 2989 C 295.39 -0.791241 1.85967 0
M  V30 2990 C 295.711 -1.7903 0.772859 0
M  V30 2991 O 294.981 -1.94872 -0.200398 0
M  V30 2992 H 293.561 -0.295205 0.686195 0
M  V30 2993 H 296.223 -0.0706782 1.94772 0
M  V30 2994 H 295.319 -1.31882 2.82867 0
M  V30 2995 N 295.62 -1.53406 -0.361157 0
M  V30 2996 C 296.55 -1.83136 -1.44857 0
M  V30 2997 C 297.531 -0.685174 -1.5569 0
M  V30 2998 O 298.716 -0.93544 -1.70186 0
M  V30 2999 C 295.846 -2.02522 -2.82138 0
M  V30 3000 C 294.8 -3.18302 -2.86126 0
M  V30 3001 C 294.126 -3.22989 -4.26125 0
M  V30 3002 C 295.426 -4.56796 -2.53248 0
M  V30 3003 H 297.12 -2.74201 -1.20226 0
M  V30 3004 H 294.666 -1.31938 -0.576922 0
M  V30 3005 H 296.619 -2.21904 -3.58241 0
M  V30 3006 H 295.343 -1.08172 -3.08166 0
M  V30 3007 H 294.002 -2.98747 -2.12475 0
M  V30 3008 H 293.65 -2.26267 -4.49235 0
M  V30 3009 H 293.35 -4.00781 -4.29708 0
M  V30 3010 H 294.874 -3.44559 -5.04094 0
M  V30 3011 H 296.288 -4.7631 -3.19064 0
M  V30 3012 H 294.685 -5.36862 -2.68141 0
M  V30 3013 H 295.755 -4.61606 -1.48484 0
M  V30 3014 N 297.098 0.621204 -1.44841 0
M  V30 3015 C 298.346 1.37783 -1.47852 0
M  V30 3016 C 298.667 1.94653 -0.116224 0
M  V30 3017 O 297.937 1.76367 0.852737 0
M  V30 3018 H 296.517 0.511453 -0.544449 0
M  V30 3019 H 299.179 0.730446 -1.80694 0
M  V30 3020 H 298.275 2.20414 -2.20961 0
M  V30 3021 N 298.576 1.31904 0.862503 0
M  V30 3022 C 299.824 1.21776 1.61292 0
M  V30 3023 C 300.145 -0.222413 1.93727 0
M  V30 3024 O 299.415 -1.1451 1.58947 0
M  V30 3025 H 297.995 0.447717 0.597962 0
M  V30 3026 H 300.657 1.65326 1.03215 0
M  V30 3027 H 299.753 1.7948 2.5533 0
M  V30 3028 N 300.054 -1.07777 1.14986 0
M  V30 3029 C 301.3 -1.80557 0.923422 0
M  V30 3030 C 301.633 -1.86298 -0.548337 0
M  V30 3031 O 300.908 -1.34354 -1.40639 0
M  V30 3032 C 301.191 -3.25839 1.53299 0
M  V30 3033 C 301.044 -3.28269 3.07505 0
M  V30 3034 C 302.363 -4.22991 1.21518 0
M  V30 3035 H 299.482 -0.655493 0.336894 0
M  V30 3036 H 302.124 -1.26144 1.42083 0
M  V30 3037 H 300.274 -3.72306 1.10999 0
M  V30 3038 H 301.946 -2.90079 3.58681 0
M  V30 3039 H 300.189 -2.67355 3.4162 0
M  V30 3040 H 300.86 -4.30691 3.45266 0
M  V30 3041 H 303.336 -3.84894 1.581 0
M  V30 3042 H 302.212 -5.22945 1.66793 0
M  V30 3043 H 302.473 -4.41904 0.131505 0
M  V30 3044 N 301.532 -0.945985 -1.26051 0
M  V30 3045 C 302.78 -0.594941 -1.93145 0
M  V30 3046 C 303.101 0.86953 -1.7454 0
M  V30 3047 O 302.371 1.61838 -1.10387 0
M  V30 3048 H 300.951 -0.217044 -0.714773 0
M  V30 3049 H 303.613 -1.20235 -1.53393 0
M  V30 3050 H 302.709 -0.816835 -3.01221 0
M  V30 3051 N 303.011 1.40521 -0.713556 0
M  V30 3052 C 303.941 2.33381 -0.0743864 0
M  V30 3053 C 304.922 1.52784 0.747735 0
M  V30 3054 O 306.107 1.81258 0.697071 0
M  V30 3055 C 303.237 3.36748 0.849598 0
M  V30 3056 C 302.191 4.27793 0.133247 0
M  V30 3057 C 301.517 5.21679 1.17281 0
M  V30 3058 C 302.817 5.12415 -1.01134 0
M  V30 3059 H 304.511 2.87081 -0.850007 0
M  V30 3060 H 302.057 1.38034 -0.410201 0
M  V30 3061 H 304.01 4.00648 1.30612 0
M  V30 3062 H 302.734 2.81439 1.65709 0
M  V30 3063 H 301.393 3.65342 -0.303426 0
M  V30 3064 H 301.041 4.62677 1.9733 0
M  V30 3065 H 300.741 5.83435 0.698397 0
M  V30 3066 H 302.265 5.88456 1.62947 0
M  V30 3067 H 303.679 5.69781 -0.634274 0
M  V30 3068 H 302.076 5.83203 -1.41399 0
M  V30 3069 H 303.146 4.48514 -1.84292 0
M  V30 3070 N 304.489 0.459591 1.5075 0
M  V30 3071 C 305.714 -0.0996819 2.0716 0
M  V30 3072 C 306.139 -1.33761 1.32249 0
M  V30 3073 O 305.497 -1.77551 0.366786 0
M  V30 3074 C 305.545 -0.378226 3.58611 0
M  V30 3075 O 304.649 -1.46081 3.85661 0
M  V30 3076 H 303.99 0.00791392 0.663953 0
M  V30 3077 H 306.52 0.647329 1.9409 0
M  V30 3078 H 306.53 -0.622135 4.03229 0
M  V30 3079 H 305.205 0.526439 4.12555 0
M  V30 3080 H 303.782 -1.20511 3.5289 0
M  V30 3081 N 305.967 -1.56429 0.191757 0
M  V30 3082 C 306.93 -2.17707 -0.716688 0
M  V30 3083 C 307.93 -1.13061 -1.14341 0
M  V30 3084 O 309.12 -1.38464 -1.05704 0
M  V30 3085 C 306.252 -2.77644 -1.97804 0
M  V30 3086 H 307.445 -2.99342 -0.1829 0
M  V30 3087 H 304.998 -1.56193 -0.0578566 0
M  V30 3088 H 305.733 -1.99799 -2.55443 0
M  V30 3089 H 305.518 -3.54246 -1.68083 0
M  V30 3090 H 307.008 -3.24708 -2.62592 0
M  V30 3091 N 307.445 0.0818655 -1.57387 0
M  V30 3092 C 308.691 0.784074 -1.8703 0
M  V30 3093 C 309.024 1.77729 -0.782689 0
M  V30 3094 O 308.299 1.93384 0.208051 0
M  V30 3095 C 308.582 1.50105 -3.27323 0
M  V30 3096 C 308.435 0.524925 -4.46727 0
M  V30 3097 C 309.754 2.44843 -3.65705 0
M  V30 3098 H 306.873 0.283582 -0.680257 0
M  V30 3099 H 309.515 0.0474352 -1.89941 0
M  V30 3100 H 307.665 2.12897 -3.24972 0
M  V30 3101 H 309.337 -0.0970111 -4.61198 0
M  V30 3102 H 307.58 -0.160606 -4.33503 0
M  V30 3103 H 308.251 1.064 -5.41648 0
M  V30 3104 H 310.727 1.92135 -3.69085 0
M  V30 3105 H 309.603 2.92018 -4.64776 0
M  V30 3106 H 309.864 3.29197 -2.95096 0
M  V30 3107 N 308.923 1.53595 0.353017 0
M  V30 3108 C 309.856 1.7572 1.45594 0
M  V30 3109 C 310.834 0.605961 1.50887 0
M  V30 3110 O 312.018 0.840023 1.68748 0
M  V30 3111 C 309.145 1.84732 2.83887 0
M  V30 3112 C 308.191 3.06808 2.96262 0
M  V30 3113 S 309.024 4.66065 2.63711 0
M  V30 3114 C 310.18 4.77943 4.04131 0
M  V30 3115 H 310.413 2.68994 1.26608 0
M  V30 3116 H 307.946 1.44343 0.548117 0
M  V30 3117 H 309.904 1.9061 3.63563 0
M  V30 3118 H 308.565 0.92488 3.00175 0
M  V30 3119 H 307.758 3.09761 3.97573 0
M  V30 3120 H 307.36 2.99108 2.24523 0
M  V30 3121 H 309.652 4.5877 4.98534 0
M  V30 3122 H 310.595 5.80022 4.06177 0
M  V30 3123 H 311.003 4.06472 3.91715 0
M  V30 3124 N 310.401 -0.613514 1.45168 0
M  V30 3125 C 311.649 -1.36997 1.48581 0
M  V30 3126 C 311.97 -1.94589 0.126545 0
M  V30 3127 O 311.24 -1.76816 -0.843372 0
M  V30 3128 H 309.82 -0.508558 0.547154 0
M  V30 3129 H 312.482 -0.720853 1.81079 0
M  V30 3130 H 311.578 -2.1924 2.22127 0
M  V30 3131 N 311.879 -1.3236 -0.855495 0
M  V30 3132 C 313.119 -1.24187 -1.62348 0
M  V30 3133 C 313.483 0.193597 -1.91021 0
M  V30 3134 O 314.684 0.39904 -2.65822 0
M  V30 3135 C 312.955 -2.07661 -2.90881 0
M  V30 3136 S 314.514 -2.16505 -3.81669 0
M  V30 3137 H 311.332 -0.442076 -0.556857 0
M  V30 3138 H 313.934 -1.67198 -1.01317 0
M  V30 3139 H 312.638 -3.11018 -2.67761 0
M  V30 3140 H 312.169 -1.65425 -3.56929 0
M  V30 3141 H 314.184 -1.31394 -4.78487 0
M  V30 3142 N 313.357 1.07166 -1.15556 0
M  V30 3143 C 314.304 2.14417 -0.854055 0
M  V30 3144 C 315.274 1.64965 0.193806 0
M  V30 3145 O 316.459 1.90703 0.0609443 0
M  V30 3146 C 313.599 3.43304 -0.351574 0
M  V30 3147 C 312.712 4.06537 -1.46123 0
M  V30 3148 C 311.847 5.23266 -0.914677 0
M  V30 3149 C 310.886 5.78464 -2.00114 0
M  V30 3150 N 310.023 6.86521 -1.47083 0
M  V30 3151 H 314.863 2.39548 -1.77259 0
M  V30 3152 H 312.4 1.17543 -0.884425 0
M  V30 3153 H 314.358 4.17179 -0.0419409 0
M  V30 3154 H 312.988 3.18419 0.530037 0
M  V30 3155 H 312.04 3.30297 -1.88701 0
M  V30 3156 H 313.352 4.43567 -2.28144 0
M  V30 3157 H 312.506 6.04131 -0.557698 0
M  V30 3158 H 311.245 4.87658 -0.0636583 0
M  V30 3159 H 310.25 4.96243 -2.36692 0
M  V30 3160 H 311.475 6.16126 -2.85597 0
M  V30 3161 H 309.421 6.52849 -0.642198 0
M  V30 3162 H 309.338 7.22446 -2.22729 0
M  V30 3163 H 310.606 7.71087 -1.14215 0
M  V30 3164 N 314.835 0.952656 1.25548 0
M  V30 3165 C 315.798 0.475794 2.24207 0
M  V30 3166 C 316.798 -0.419428 1.55234 0
M  V30 3167 O 317.988 -0.216994 1.72843 0
M  V30 3168 C 315.12 -0.312814 3.39462 0
M  V30 3169 H 316.313 1.34779 2.67908 0
M  V30 3170 H 313.866 0.735739 1.37901 0
M  V30 3171 H 314.601 -1.20257 3.01179 0
M  V30 3172 H 314.386 0.329404 3.90714 0
M  V30 3173 H 315.876 -0.635986 4.12729 0
M  V30 3174 N 316.313 -1.40141 0.720998 0
M  V30 3175 C 317.276 -2.29058 0.0805834 0
M  V30 3176 C 318.276 -1.45632 -0.681758 0
M  V30 3177 O 319.466 -1.6648 -0.512856 0
M  V30 3178 C 316.598 -3.28925 -0.895593 0
M  V30 3179 H 317.791 -2.87191 0.863793 0
M  V30 3180 H 315.344 -1.48553 0.485975 0
M  V30 3181 H 316.079 -2.75822 -1.70566 0
M  V30 3182 H 315.864 -3.90519 -0.351766 0
M  V30 3183 H 317.354 -3.95494 -1.34069 0
M  V30 3184 N 317.792 -0.46758 -1.50504 0
M  V30 3185 C 319.04 0.0884469 -2.01906 0
M  V30 3186 C 319.361 1.40532 -1.35188 0
M  V30 3187 O 318.631 1.89515 -0.496079 0
M  V30 3188 H 317.211 0.0356765 -0.746148 0
M  V30 3189 H 319.873 -0.6172 -1.84869 0
M  V30 3190 H 318.969 0.2425 -3.11156 0
M  V30 3191 N 319.27 1.56325 -0.20005 0
M  V30 3192 C 320.233 2.18084 0.705132 0
M  V30 3193 C 321.233 1.13666 1.1374 0
M  V30 3194 O 322.423 1.39023 1.04968 0
M  V30 3195 C 319.555 2.78689 1.96329 0
M  V30 3196 H 320.748 2.99435 0.167023 0
M  V30 3197 H 318.301 1.56221 0.0495725 0
M  V30 3198 H 319.036 2.0115 2.5438 0
M  V30 3199 H 318.821 3.55133 1.66202 0
M  V30 3200 H 320.311 3.26096 2.60866 0
M  V30 3201 N 320.748 -0.0735177 1.57428 0
M  V30 3202 C 321.711 -1.07192 2.02589 0
M  V30 3203 C 322.711 -1.31695 0.922661 0
M  V30 3204 O 323.901 -1.27445 1.18758 0
M  V30 3205 C 321.033 -2.41599 2.40506 0
M  V30 3206 H 322.226 -0.682727 2.92025 0
M  V30 3207 H 319.779 -0.319193 1.53006 0
M  V30 3208 H 320.514 -2.85354 1.5409 0
M  V30 3209 H 320.299 -2.25156 3.21009 0
M  V30 3210 H 321.789 -3.13367 2.76027 0
M  V30 3211 N 322.226 -1.5378 -0.344866 0
M  V30 3212 C 323.642 -1.44015 -0.687888 0
M  V30 3213 C 323.842 -0.595834 -1.92489 0
M  V30 3214 O 322.898 -0.0863064 -2.52352 0
M  V30 3215 C 324.211 -2.87481 -0.881758 0
M  V30 3216 C 325.759 -2.97247 -0.980459 0
M  V30 3217 C 326.234 -4.41819 -1.20665 0
M  V30 3218 N 327.725 -4.45339 -1.27389 0
M  V30 3219 C 328.46 -5.54333 -1.46639 0
M  V30 3220 N 327.956 -6.73335 -1.63071 0
M  V30 3221 N 329.749 -5.41944 -1.49176 0
M  V30 3222 H 321.9 -2.07169 0.468475 0
M  V30 3223 H 324.163 -0.93643 0.147655 0
M  V30 3224 H 323.869 -3.51672 -0.0443444 0
M  V30 3225 H 323.743 -3.32352 -1.78388 0
M  V30 3226 H 326.13 -2.33197 -1.8084 0
M  V30 3227 H 326.211 -2.5574 -0.0552713 0
M  V30 3228 H 325.855 -5.06449 -0.383652 0
M  V30 3229 H 325.785 -4.80917 -2.14539 0
M  V30 3230 H 328.276 -3.59585 -1.1622 0
M  V30 3231 H 328.589 -7.52165 -1.77391 0
M  V30 3232 H 326.934 -6.76282 -1.60209 0
M  V30 3233 H 330.125 -4.47932 -1.3592 0
M  V30 3234 H 330.298 -6.26946 -1.63837 0
M  V30 3235 N 323.704 0.605807 -1.45491 0
M  V30 3236 C 324.953 1.36086 -1.48874 0
M  V30 3237 C 325.266 1.95131 -0.135333 0
M  V30 3238 O 326.472 2.7146 -0.0468144 0
M  V30 3239 C 324.928 2.46518 -2.62215 0
M  V30 3240 C 324.536 1.93877 -4.03876 0
M  V30 3241 C 326.28 3.23512 -2.74846 0
M  V30 3242 C 324.187 3.01801 -5.08596 0
M  V30 3243 H 323.117 0.511497 -0.553974 0
M  V30 3244 H 325.768 0.649089 -1.71636 0
M  V30 3245 H 324.15 3.20388 -2.32739 0
M  V30 3246 H 325.324 1.26704 -4.43038 0
M  V30 3247 H 323.639 1.29622 -3.95711 0
M  V30 3248 H 326.236 4.04013 -3.50253 0
M  V30 3249 H 326.579 3.74631 -1.81542 0
M  V30 3250 H 327.112 2.56742 -3.03856 0
M  V30 3251 H 323.851 2.55597 -6.03614 0
M  V30 3252 H 323.371 3.67535 -4.74002 0
M  V30 3253 H 325.05 3.66152 -5.33424 0
M  V30 3254 N 325.182 1.32811 0.848464 0
M  V30 3255 C 326.431 1.23075 1.59798 0
M  V30 3256 C 326.744 -0.204419 1.94529 0
M  V30 3257 O 327.95 -0.423701 2.68173 0
M  V30 3258 C 326.406 2.15594 2.88179 0
M  V30 3259 C 326.014 3.64228 2.60849 0
M  V30 3260 C 327.758 2.14709 3.66197 0
M  V30 3261 C 325.665 4.48689 3.85269 0
M  V30 3262 H 324.595 0.457091 0.599653 0
M  V30 3263 H 327.246 1.57813 0.936342 0
M  V30 3264 H 325.628 1.73778 3.55833 0
M  V30 3265 H 326.802 4.14424 2.01467 0
M  V30 3266 H 325.117 3.67306 1.96151 0
M  V30 3267 H 327.714 2.75046 4.58534 0
M  V30 3268 H 328.057 1.13966 4.00397 0
M  V30 3269 H 328.59 2.54837 3.05455 0
M  V30 3270 H 325.329 5.5027 3.56207 0
M  V30 3271 H 324.849 4.03241 4.44024 0
M  V30 3272 H 326.528 4.62006 4.52946 0
M  V30 3273 N 326.66 -1.06551 1.16123 0
M  V30 3274 C 327.623 -2.12132 0.867906 0
M  V30 3275 C 328.623 -1.60224 -0.135944 0
M  V30 3276 O 329.813 -1.73943 0.0946422 0
M  V30 3277 C 326.945 -3.396 0.297419 0
M  V30 3278 H 328.138 -2.39586 1.80385 0
M  V30 3279 H 325.691 -1.22574 0.969812 0
M  V30 3280 H 326.426 -3.17794 -0.64633 0
M  V30 3281 H 326.211 -3.78581 1.02073 0
M  V30 3282 H 327.701 -4.17455 0.110052 0
M  V30 3283 N 328.138 -0.959301 -1.25041 0
M  V30 3284 C 329.384 -0.617525 -1.9317 0
M  V30 3285 C 329.717 0.843981 -1.74902 0
M  V30 3286 O 328.992 1.60615 -1.09696 0
M  V30 3287 C 329.275 -0.982736 -3.46431 0
M  V30 3288 C 329.128 -2.50032 -3.73904 0
M  V30 3289 C 330.447 -0.511176 -4.37121 0
M  V30 3290 H 327.566 -0.22582 -0.701552 0
M  V30 3291 H 330.208 -1.19679 -1.4757 0
M  V30 3292 H 328.358 -0.489806 -3.854 0
M  V30 3293 H 330.03 -3.06737 -3.44544 0
M  V30 3294 H 328.273 -2.93598 -3.19348 0
M  V30 3295 H 328.944 -2.70635 -4.81103 0
M  V30 3296 H 331.42 -0.934075 -4.0548 0
M  V30 3297 H 330.296 -0.795361 -5.43107 0
M  V30 3298 H 330.557 0.588834 -4.38161 0
M  V30 3299 N 329.616 1.39756 -0.72842 0
M  V30 3300 C 330.893 1.94574 -0.200079 0
M  V30 3301 C 331.273 1.66569 1.29684 0
M  V30 3302 O 330.621 0.990326 2.05924 0
M  V30 3303 C 330.831 3.45004 -0.526608 0
M  V30 3304 C 332.179 4.21965 -0.472318 0
M  V30 3305 O 333.203 3.53173 -0.463413 0
M  V30 3306 O 332.062 5.44552 -0.461075 0
M  V30 3307 H 329.156 0.826289 -0.0342851 0
M  V30 3308 H 331.702 1.49293 -0.806829 0
M  V30 3309 H 330.474 3.58796 -1.56144 0
M  V30 3310 H 330.097 3.97449 0.109449 0
M  V30 3311 N 331.094 0.475555 1.50254 0
M  V30 3312 C 332.343 -0.0795996 2.01543 0
M  V30 3313 C 332.656 -1.4038 1.36209 0
M  V30 3314 O 333.862 -2.04415 1.7868 0
M  V30 3315 C 332.318 -0.192363 3.59386 0
M  V30 3316 C 331.926 1.12367 4.33679 0
M  V30 3317 C 333.67 -0.699238 4.18701 0
M  V30 3318 C 331.577 0.974453 5.83317 0
M  V30 3319 H 330.507 -0.0335228 0.753254 0
M  V30 3320 H 333.158 0.611128 1.73025 0
M  V30 3321 H 331.54 -0.946974 3.84511 0
M  V30 3322 H 332.714 1.88958 4.20276 0
M  V30 3323 H 331.029 1.562 3.85993 0
M  V30 3324 H 333.626 -0.827978 5.28251 0
M  V30 3325 H 333.969 -1.69171 3.80377 0
M  V30 3326 H 334.502 -0.00188807 3.978 0
M  V30 3327 H 331.241 1.94042 6.26121 0
M  V30 3328 H 330.761 0.248998 5.99283 0
M  V30 3329 H 332.44 0.642867 6.43798 0
M  V30 3330 N 332.573 -1.56217 0.208337 0
M  V30 3331 C 333.521 -2.21053 -0.723769 0
M  V30 3332 C 334.515 -1.18578 -1.20978 0
M  V30 3333 O 335.721 -1.36691 -1.17114 0
M  V30 3334 H 332.096 -0.708595 -0.251788 0
M  V30 3335 H 334.067 -2.98006 -0.153365 0
M  V30 3336 C 332.816 -2.89417 -1.927 0
M  V30 3337 H 332.139 -3.68019 -1.56212 0
M  V30 3338 H 333.579 -3.38201 -2.55727 0
M  V30 3339 C 332.038 -1.91166 -2.77411 0
M  V30 3340 O 332.568 -1.42026 -3.75754 0
M  V30 3341 N 330.774 -1.59105 -2.43175 0
M  V30 3342 H 330.321 -1.99259 -1.63259 0
M  V30 3343 H 330.279 -0.936255 -3.00136 0
M  V30 3344 N 334.051 0.0651679 -1.57465 0
M  V30 3345 C 334.998 1.07675 -2.04144 0
M  V30 3346 C 335.968 1.38071 -0.923335 0
M  V30 3347 O 337.153 1.49026 -1.19146 0
M  V30 3348 C 334.293 2.38337 -2.49579 0
M  V30 3349 C 333.406 2.14413 -3.75035 0
M  V30 3350 C 332.541 3.38686 -4.09225 0
M  V30 3351 C 331.58 3.10156 -5.27702 0
M  V30 3352 N 330.717 4.26778 -5.57499 0
M  V30 3353 H 335.557 0.671716 -2.90331 0
M  V30 3354 H 333.094 0.3201 -1.43575 0
M  V30 3355 H 335.052 3.14632 -2.73975 0
M  V30 3356 H 333.682 2.7663 -1.6636 0
M  V30 3357 H 332.734 1.2878 -3.57939 0
M  V30 3358 H 334.046 1.89344 -4.61466 0
M  V30 3359 H 333.2 4.23373 -4.34558 0
M  V30 3360 H 331.939 3.66837 -3.21374 0
M  V30 3361 H 330.944 2.23866 -5.02159 0
M  V30 3362 H 332.169 2.8332 -6.17176 0
M  V30 3363 H 330.115 4.54948 -4.72608 0
M  V30 3364 H 330.032 4.05005 -6.38362 0
M  V30 3365 H 331.3 5.12443 -5.87386 0
M  V30 3366 N 335.529 1.53961 0.336706 0
M  V30 3367 C 336.806 1.62171 1.09361 0
M  V30 3368 C 337.186 0.447263 2.06307 0
M  V30 3369 O 336.534 -0.559802 2.21537 0
M  V30 3370 C 336.744 2.98565 1.80721 0
M  V30 3371 C 338.092 3.54157 2.34218 0
M  V30 3372 O 339.116 3.00784 1.90807 0
M  V30 3373 O 337.975 4.47528 3.13657 0
M  V30 3374 H 335.069 0.6562 0.503319 0
M  V30 3375 H 337.615 1.66307 0.33765 0
M  V30 3376 H 336.387 3.75482 1.10132 0
M  V30 3377 H 336.01 2.9805 2.63158 0
M  V30 3378 N 337.007 -0.598083 1.45811 0
M  V30 3379 C 337.954 -1.7082 1.55207 0
M  V30 3380 C 338.924 -1.61278 0.39732 0
M  V30 3381 O 340.109 -1.80717 0.612038 0
M  V30 3382 C 337.249 -3.09144 1.53376 0
M  V30 3383 C 336.362 -3.29423 2.79472 0
M  V30 3384 C 335.497 -4.57907 2.69248 0
M  V30 3385 C 334.536 -4.71476 3.90354 0
M  V30 3386 N 333.673 -5.9127 3.78608 0
M  V30 3387 H 338.513 -1.62125 2.50039 0
M  V30 3388 H 336.05 -0.790389 1.24062 0
M  V30 3389 H 338.008 -3.89186 1.50301 0
M  V30 3390 H 336.638 -3.16773 0.620876 0
M  V30 3391 H 335.69 -2.43091 2.92594 0
M  V30 3392 H 337.002 -3.3532 3.69272 0
M  V30 3393 H 336.156 -5.46157 2.64192 0
M  V30 3394 H 334.895 -4.54423 1.77063 0
M  V30 3395 H 333.9 -3.81648 3.95759 0
M  V30 3396 H 335.125 -4.76751 4.83617 0
M  V30 3397 H 333.071 -5.88813 2.89199 0
M  V30 3398 H 332.988 -5.98369 4.6205 0
M  V30 3399 H 334.256 -6.81992 3.77501 0
M  V30 3400 N 338.485 -1.33259 -0.841409 0
M  V30 3401 C 339.732 -1.24572 -1.5965 0
M  V30 3402 C 340.06 0.189137 -1.93578 0
M  V30 3403 O 339.315 1.14566 -1.5866 0
M  V30 3404 C 339.614 -2.06381 -2.9179 0
M  V30 3405 C 339.28 -3.556 -2.77235 0
M  V30 3406 C 337.942 -3.96282 -2.72973 0
M  V30 3407 C 340.294 -4.50433 -2.62221 0
M  V30 3408 C 337.622 -5.30017 -2.51592 0
M  V30 3409 C 339.974 -5.84327 -2.42374 0
M  V30 3410 C 338.638 -6.24194 -2.36512 0
M  V30 3411 H 337.908 -0.455842 -0.5842 0
M  V30 3412 H 340.555 -1.6482 -0.975016 0
M  V30 3413 H 338.86 -1.58903 -3.5813 0
M  V30 3414 H 340.557 -1.97019 -3.49263 0
M  V30 3415 H 337.147 -3.23298 -2.81384 0
M  V30 3416 H 341.331 -4.19914 -2.64549 0
M  V30 3417 H 336.587 -5.59947 -2.45499 0
M  V30 3418 H 340.761 -6.57414 -2.29739 0
M  V30 3419 H 338.388 -7.27759 -2.19706 0
M  V30 3420 N 339.963 1.05934 -1.16686 0
M  V30 3421 C 340.926 2.11669 -0.879144 0
M  V30 3422 C 341.926 1.60294 0.127445 0
M  V30 3423 O 343.116 1.7389 -0.103865 0
M  V30 3424 C 340.248 3.39438 -0.315425 0
M  V30 3425 H 341.441 2.38626 -1.81653 0
M  V30 3426 H 338.994 1.22058 -0.976299 0
M  V30 3427 H 339.729 3.18132 0.629468 0
M  V30 3428 H 339.514 3.78034 -1.04079 0
M  V30 3429 H 341.004 4.17391 -0.132189 0
M  V30 3430 N 341.441 0.965919 1.2453 0
M  V30 3431 C 342.388 0.49402 2.25451 0
M  V30 3432 C 343.358 -0.45948 1.59618 0
M  V30 3433 O 344.543 -0.370238 1.87173 0
M  V30 3434 C 341.683 -0.211359 3.44452 0
M  V30 3435 C 340.796 0.7807 4.24887 0
M  V30 3436 C 339.931 0.0516105 5.31175 0
M  V30 3437 C 338.97 1.03385 6.03306 0
M  V30 3438 N 338.107 0.334887 7.01301 0
M  V30 3439 H 342.947 1.35946 2.65184 0
M  V30 3440 H 340.484 0.681515 1.3036 0
M  V30 3441 H 342.442 -0.637 4.12308 0
M  V30 3442 H 341.072 -1.04077 3.05562 0
M  V30 3443 H 340.124 1.32479 3.56586 0
M  V30 3444 H 341.436 1.52978 4.74762 0
M  V30 3445 H 340.59 -0.432114 6.05159 0
M  V30 3446 H 339.329 -0.730179 4.82203 0
M  V30 3447 H 338.334 1.52847 5.28127 0
M  V30 3448 H 339.559 1.81606 6.54367 0
M  V30 3449 H 337.505 -0.427959 6.54603 0
M  V30 3450 H 337.422 1.02287 7.49048 0
M  V30 3451 H 338.69 -0.126928 7.79397 0
M  V30 3452 N 342.919 -1.39368 0.735821 0
M  V30 3453 C 343.882 -2.2896 0.104874 0
M  V30 3454 C 344.882 -1.46347 -0.666274 0
M  V30 3455 O 346.072 -1.67014 -0.49517 0
M  V30 3456 C 343.204 -3.29857 -0.860656 0
M  V30 3457 H 344.397 -2.86259 0.894205 0
M  V30 3458 H 341.95 -1.48029 0.501704 0
M  V30 3459 H 342.685 -2.77615 -1.67631 0
M  V30 3460 H 342.47 -3.9087 -0.310327 0
M  V30 3461 H 343.96 -3.96893 -1.29867 0
M  V30 3462 N 344.397 -0.483516 -1.5 0
M  V30 3463 C 345.344 0.304164 -2.28787 0
M  V30 3464 C 346.314 0.976114 -1.34392 0
M  V30 3465 O 347.499 0.986156 -1.63339 0
M  V30 3466 C 344.639 1.37298 -3.16612 0
M  V30 3467 C 343.752 0.714561 -4.26049 0
M  V30 3468 C 342.887 1.76232 -5.01114 0
M  V30 3469 C 341.926 1.08483 -6.0241 0
M  V30 3470 N 341.063 2.076 -6.70706 0
M  V30 3471 H 345.903 -0.373981 -2.95644 0
M  V30 3472 H 343.44 -0.196275 -1.45785 0
M  V30 3473 H 345.398 2.00445 -3.65893 0
M  V30 3474 H 344.028 2.02012 -2.51776 0
M  V30 3475 H 343.08 -0.0297798 -3.80388 0
M  V30 3476 H 344.392 0.180383 -4.98474 0
M  V30 3477 H 343.546 2.46929 -5.54176 0
M  V30 3478 H 342.285 2.33033 -4.28424 0
M  V30 3479 H 341.29 0.363545 -5.48597 0
M  V30 3480 H 342.515 0.523551 -6.77079 0
M  V30 3481 H 340.461 2.63394 -6.00799 0
M  V30 3482 H 340.378 1.59201 -7.39047 0
M  V30 3483 H 341.646 2.77639 -7.2838 0
M  V30 3484 N 345.875 1.56104 -0.216619 0
M  V30 3485 C 346.785 2.23694 0.706982 0
M  V30 3486 C 347.801 1.24295 1.21765 0
M  V30 3487 O 348.977 1.57094 1.2603 0
M  V30 3488 C 346.042 2.8998 1.90033 0
M  V30 3489 C 345.103 4.04708 1.43213 0
M  V30 3490 C 344.336 4.67824 2.56859 0
M  V30 3491 O 344.559 4.29913 3.74874 0
M  V30 3492 O 343.493 5.56905 2.28343 0
M  V30 3493 H 347.319 3.03272 0.161235 0
M  V30 3494 H 344.904 1.49394 0.0136177 0
M  V30 3495 H 346.786 3.31837 2.59735 0
M  V30 3496 H 345.461 2.13365 2.43428 0
M  V30 3497 H 344.368 3.6743 0.70327 0
M  V30 3498 H 345.701 4.83051 0.944615 0
M  V30 3499 N 347.353 -0.0568162 1.57498 0
M  V30 3500 C 348.283 -1.06593 2.0775 0
M  V30 3501 C 349.264 -1.39448 0.974082 0
M  V30 3502 O 350.449 -1.48815 1.24771 0
M  V30 3503 C 347.579 -2.37509 2.5339 0
M  V30 3504 C 346.533 -2.1897 3.67745 0
M  V30 3505 C 345.859 -3.55402 3.99492 0
M  V30 3506 C 347.159 -1.59859 4.97235 0
M  V30 3507 H 348.853 -0.647706 2.9231 0
M  V30 3508 H 346.399 -0.310116 1.40621 0
M  V30 3509 H 348.352 -3.08409 2.87162 0
M  V30 3510 H 347.076 -2.8134 1.65878 0
M  V30 3511 H 345.735 -1.50508 3.3428 0
M  V30 3512 H 345.383 -3.9683 3.09088 0
M  V30 3513 H 345.083 -3.43831 4.76502 0
M  V30 3514 H 346.607 -4.27708 4.35773 0
M  V30 3515 H 348.021 -2.20642 5.29141 0
M  V30 3516 H 346.418 -1.58942 5.78669 0
M  V30 3517 H 347.488 -0.561506 4.81638 0
M  V30 3518 N 348.832 -1.54138 -0.328536 0
M  V30 3519 C 350.08 -1.71765 -1.06496 0
M  V30 3520 C 350.401 -0.49149 -1.88704 0
M  V30 3521 O 349.671 0.494539 -1.89555 0
M  V30 3522 H 348.251 -0.633295 -0.396164 0
M  V30 3523 H 350.913 -1.91429 -0.366176 0
M  V30 3524 H 350.009 -2.5951 -1.73381 0
M  V30 3525 N 350.31 0.590341 -1.46126 0
M  V30 3526 C 351.273 1.68194 -1.55703 0
M  V30 3527 C 352.273 1.54808 -0.434868 0
M  V30 3528 O 353.463 1.59564 -0.698928 0
M  V30 3529 C 350.595 3.07575 -1.47005 0
M  V30 3530 H 351.788 1.61064 -2.52979 0
M  V30 3531 H 349.341 0.807541 -1.33823 0
M  V30 3532 H 350.076 3.20268 -0.509785 0
M  V30 3533 H 349.861 3.187 -2.28414 0
M  V30 3534 H 351.351 3.87055 -1.56776 0
M  V30 3535 N 351.788 1.33704 0.83433 0
M  V30 3536 C 353.016 1.28467 1.62185 0
M  V30 3537 C 353.431 -0.143526 1.88254 0
M  V30 3538 O 352.788 -1.08709 1.4659 0
M  V30 3539 C 352.839 2.06174 2.96942 0
M  V30 3540 O 352.56 3.43422 2.72016 0
M  V30 3541 C 354.061 2.08201 3.91366 0
M  V30 3542 H 351.281 0.4424 0.504503 0
M  V30 3543 H 353.825 1.76145 1.03891 0
M  V30 3544 H 351.98 1.62167 3.51825 0
M  V30 3545 H 352.394 3.83453 3.57861 0
M  V30 3546 H 353.868 2.67017 4.83121 0
M  V30 3547 H 354.345 1.07343 4.2588 0
M  V30 3548 H 354.951 2.52246 3.42421 0
M  V30 3549 N 353.266 -1.05314 1.17247 0
M  V30 3550 C 354.176 -2.16538 0.90268 0
M  V30 3551 C 355.192 -1.73523 -0.128707 0
M  V30 3552 O 356.368 -2.01337 0.0502701 0
M  V30 3553 C 353.433 -3.44167 0.418356 0
M  V30 3554 C 352.494 -4.01635 1.51618 0
M  V30 3555 C 351.727 -5.23171 1.05487 0
M  V30 3556 O 351.95 -5.70327 -0.0914715 0
M  V30 3557 O 350.884 -5.72848 1.8474 0
M  V30 3558 H 354.71 -2.42145 1.83302 0
M  V30 3559 H 352.295 -1.15037 0.953246 0
M  V30 3560 H 354.177 -4.21112 0.155726 0
M  V30 3561 H 352.852 -3.20063 -0.48385 0
M  V30 3562 H 351.759 -3.26135 1.83268 0
M  V30 3563 H 353.092 -4.30053 2.39405 0
M  V30 3564 N 354.744 -0.972509 -1.24016 0
M  V30 3565 C 355.984 -0.644951 -1.93958 0
M  V30 3566 C 356.348 0.80559 -1.74282 0
M  V30 3567 O 357.549 1.2436 -2.38302 0
M  V30 3568 C 355.82 -1.01521 -3.42678 0
M  V30 3569 S 357.379 -0.802927 -4.31391 0
M  V30 3570 H 354.197 -0.236452 -0.670531 0
M  V30 3571 H 356.799 -1.25048 -1.50277 0
M  V30 3572 H 355.503 -2.06769 -3.54506 0
M  V30 3573 H 355.034 -0.400648 -3.91355 0
M  V30 3574 H 357.049 0.317256 -4.95185 0
M  V30 3575 N 356.222 1.38976 -0.743202 0
M  V30 3576 C 357.471 1.99581 -0.291592 0
M  V30 3577 C 357.784 1.59656 1.13001 0
M  V30 3578 O 358.99 2.13157 1.68156 0
M  V30 3579 C 357.446 3.56813 -0.470391 0
M  V30 3580 C 357.054 4.05695 -1.90041 0
M  V30 3581 C 358.798 4.24423 -0.0809709 0
M  V30 3582 C 356.705 5.5553 -2.02832 0
M  V30 3583 H 355.635 0.746615 -0.105272 0
M  V30 3584 H 358.286 1.58872 -0.918258 0
M  V30 3585 H 356.668 3.95359 0.225299 0
M  V30 3586 H 357.842 3.78464 -2.62872 0
M  V30 3587 H 356.157 3.50775 -2.24379 0
M  V30 3588 H 358.754 5.34474 -0.155445 0
M  V30 3589 H 359.097 4.04962 0.96497 0
M  V30 3590 H 359.63 3.9108 -0.728124 0
M  V30 3591 H 356.369 5.79881 -3.05643 0
M  V30 3592 H 355.889 5.84537 -1.34448 0
M  V30 3593 H 357.568 6.21069 -1.81335 0
M  V30 3594 N 357.7 0.491464 1.49741 0
M  V30 3595 C 358.648 -0.305837 2.30581 0
M  V30 3596 C 359.642 -0.971642 1.38764 0
M  V30 3597 O 360.848 -0.90042 1.5586 0
M  V30 3598 H 357.223 -0.117482 0.742767 0
M  V30 3599 H 359.194 0.396093 2.95759 0
M  V30 3600 C 357.943 -1.36319 3.19863 0
M  V30 3601 H 357.266 -0.860258 3.90435 0
M  V30 3602 H 358.706 -1.89323 3.79385 0
M  V30 3603 C 357.165 -2.37621 2.38826 0
M  V30 3604 O 357.695 -3.43311 2.08567 0
M  V30 3605 N 355.901 -2.09849 2.01026 0
M  V30 3606 H 355.448 -1.23922 2.25834 0
M  V30 3607 H 355.406 -2.77859 1.47112 0
M  V30 3608 N 359.178 -1.55987 0.224894 0
M  V30 3609 C 360.589 -1.84553 -0.282345 0
M  V30 3610 C 360.94 -1.14634 -1.59227 0
M  V30 3611 O 360.065 -0.417155 -2.12341 0
M  V30 3612 C 360.66 -3.348 -0.519062 0
M  V30 3613 C 359.219 -3.63671 -0.970604 0
M  V30 3614 C 358.366 -2.77277 -0.0355261 0
M  V30 3615 H 361.317 -1.52245 0.448006 0
M  V30 3616 H 361.338 -3.55187 -1.36463 0
M  V30 3617 H 360.85 -3.8566 0.43449 0
M  V30 3618 H 358.951 -3.1827 -1.9374 0
M  V30 3619 H 359.064 -4.71631 -0.842698 0
M  V30 3620 H 357.428 -2.48846 -0.542927 0
M  V30 3621 H 358.211 -3.30937 0.913003 0
M  V30 3622 N 360.656 0.0484629 -1.57525 0
M  V30 3623 C 361.588 1.08222 -2.02041 0
M  V30 3624 C 362.601 1.33621 -0.930012 0
M  V30 3625 O 363.79 1.3145 -1.20761 0
M  V30 3626 C 360.89 2.42818 -2.36416 0
M  V30 3627 C 360.063 2.37049 -3.67596 0
M  V30 3628 C 359.122 3.53937 -3.89378 0
M  V30 3629 O 358.148 3.34308 -4.60681 0
M  V30 3630 N 359.35 4.75126 -3.3352 0
M  V30 3631 H 362.115 0.702946 -2.9134 0
M  V30 3632 H 359.676 0.236745 -1.6016 0
M  V30 3633 H 361.668 3.197 -2.48141 0
M  V30 3634 H 360.238 2.72661 -1.52888 0
M  V30 3635 H 359.458 1.45395 -3.66407 0
M  V30 3636 H 360.746 2.30318 -4.53686 0
M  V30 3637 H 360.144 4.93976 -2.75688 0
M  V30 3638 H 358.701 5.49439 -3.50656 0
M  V30 3639 N 362.134 1.5431 0.320358 0
M  V30 3640 C 363.411 1.63322 1.07635 0
M  V30 3641 C 363.791 0.46912 2.05821 0
M  V30 3642 O 363.139 -0.536274 2.22118 0
M  V30 3643 C 363.349 3.00465 1.77544 0
M  V30 3644 C 364.697 3.56621 2.30449 0
M  V30 3645 O 365.721 3.02791 1.87606 0
M  V30 3646 O 364.58 4.5083 3.08892 0
M  V30 3647 H 361.674 0.661502 0.496331 0
M  V30 3648 H 364.22 1.66656 0.319992 0
M  V30 3649 H 362.992 3.76629 1.06143 0
M  V30 3650 H 362.615 3.00824 2.59982 0
M  V30 3651 N 363.613 -0.582584 1.46437 0
M  V30 3652 C 364.843 -1.36484 1.55099 0
M  V30 3653 C 365.251 -1.88233 0.191056 0
M  V30 3654 O 364.594 -1.6429 -0.821858 0
M  V30 3655 C 364.656 -2.588 2.49525 0
M  V30 3656 C 364.32 -2.28517 3.95764 0
M  V30 3657 C 365.317 -1.87346 4.84972 0
M  V30 3658 C 363.002 -2.40658 4.40896 0
M  V30 3659 C 364.996 -1.5871 6.17325 0
M  V30 3660 C 362.683 -2.11635 5.73284 0
M  V30 3661 C 363.681 -1.70725 6.61318 0
M  V30 3662 O 363.369 -1.42057 7.91249 0
M  V30 3663 H 363.101 -0.423297 0.527063 0
M  V30 3664 H 365.655 -0.715188 1.92547 0
M  V30 3665 H 363.885 -3.26571 2.07095 0
M  V30 3666 H 365.574 -3.20868 2.48593 0
M  V30 3667 H 366.34 -1.77481 4.5136 0
M  V30 3668 H 362.219 -2.71463 3.72598 0
M  V30 3669 H 365.763 -1.26704 6.85997 0
M  V30 3670 H 361.66 -2.21124 6.06444 0
M  V30 3671 H 362.428 -1.55901 8.03515 0
M  V30 3672 N 365.091 -1.34144 -0.827227 0
M  V30 3673 C 366.038 -1.25364 -1.93785 0
M  V30 3674 C 367.008 -0.129774 -1.65592 0
M  V30 3675 O 368.193 -0.310024 -1.88264 0
M  V30 3676 C 365.333 -1.01064 -3.2997 0
M  V30 3677 C 364.446 -2.22185 -3.70484 0
M  V30 3678 C 363.581 -1.91203 -4.95595 0
M  V30 3679 C 362.62 -3.08491 -5.28677 0
M  V30 3680 N 361.757 -2.77421 -6.44967 0
M  V30 3681 H 366.597 -2.20347 -2.00627 0
M  V30 3682 H 364.134 -1.09558 -0.981608 0
M  V30 3683 H 366.092 -0.850139 -4.08446 0
M  V30 3684 H 364.722 -0.0975026 -3.22653 0
M  V30 3685 H 363.774 -2.4917 -2.87434 0
M  V30 3686 H 365.086 -3.0983 -3.90905 0
M  V30 3687 H 364.24 -1.71864 -5.81848 0
M  V30 3688 H 362.979 -1.00812 -4.77167 0
M  V30 3689 H 361.984 -3.28431 -4.40923 0
M  V30 3690 H 363.209 -3.99655 -5.49047 0
M  V30 3691 H 361.155 -1.89601 -6.28003 0
M  V30 3692 H 361.072 -3.58598 -6.6554 0
M  V30 3693 H 362.34 -2.61577 -7.34301 0
M  V30 3694 N 366.569 1.04691 -1.17803 0
M  V30 3695 C 367.516 2.12557 -0.899343 0
M  V30 3696 C 368.486 1.65339 0.158771 0
M  V30 3697 O 369.671 1.90789 0.0204797 0
M  V30 3698 C 366.811 3.42481 -0.424315 0
M  V30 3699 C 365.924 4.03346 -1.54713 0
M  V30 3700 C 365.059 5.21208 -1.02546 0
M  V30 3701 C 364.098 5.74089 -2.12339 0
M  V30 3702 N 363.235 6.83247 -1.61612 0
M  V30 3703 H 368.075 2.35734 -1.823 0
M  V30 3704 H 365.612 1.1564 -0.909159 0
M  V30 3705 H 367.57 4.16996 -0.130421 0
M  V30 3706 H 366.2 3.19471 0.462377 0
M  V30 3707 H 365.252 3.2622 -1.95664 0
M  V30 3708 H 366.564 4.38628 -2.37501 0
M  V30 3709 H 365.718 6.02812 -0.685718 0
M  V30 3710 H 364.457 4.87414 -0.167084 0
M  V30 3711 H 363.462 4.91111 -2.47165 0
M  V30 3712 H 364.687 6.0993 -2.98601 0
M  V30 3713 H 362.633 6.5134 -0.780533 0
M  V30 3714 H 362.55 7.17559 -2.38003 0
M  V30 3715 H 363.818 7.68491 -1.30545 0
M  V30 3716 N 368.047 0.979072 1.23499 0
M  V30 3717 C 369.458 0.684391 1.73704 0
M  V30 3718 C 369.809 -0.799448 1.79174 0
M  V30 3719 O 368.934 -1.62531 1.42873 0
M  V30 3720 C 369.529 1.23564 3.15464 0
M  V30 3721 C 368.088 0.99063 3.6313 0
M  V30 3722 C 367.235 1.36416 2.41425 0
M  V30 3723 H 370.186 1.15307 1.09041 0
M  V30 3724 H 370.207 0.607417 3.7562 0
M  V30 3725 H 369.719 2.31561 3.1145 0
M  V30 3726 H 367.82 -0.0733136 3.72528 0
M  V30 3727 H 367.933 1.64427 4.5 0
M  V30 3728 H 366.297 0.782616 2.42378 0
M  V30 3729 H 367.08 2.45387 2.40083 0
M  V30 3730 N 369.525 -1.3858 0.750561 0
M  V30 3731 C 370.774 -1.99424 0.302172 0
M  V30 3732 C 371.087 -1.60254 -1.12152 0
M  V30 3733 O 372.293 -2.14046 -1.67023 0
M  V30 3734 C 370.749 -3.56558 0.489307 0
M  V30 3735 C 370.357 -4.04682 1.92189 0
M  V30 3736 C 372.101 -4.24374 0.103478 0
M  V30 3737 C 370.008 -5.54446 2.05775 0
M  V30 3738 H 368.938 -0.746046 0.10923 0
M  V30 3739 H 371.589 -1.58383 0.92667 0
M  V30 3740 H 369.971 -3.95472 -0.204329 0
M  V30 3741 H 371.145 -3.77065 2.64875 0
M  V30 3742 H 369.46 -3.4958 2.26236 0
M  V30 3743 H 372.057 -5.34384 0.183787 0
M  V30 3744 H 372.4 -4.05468 -0.943481 0
M  V30 3745 H 372.933 -3.90688 0.748854 0
M  V30 3746 H 369.672 -5.78252 3.08714 0
M  V30 3747 H 369.192 -5.83816 1.37546 0
M  V30 3748 H 370.871 -6.20099 1.84626 0
M  V30 3749 N 371.003 -0.499398 -1.49478 0
M  V30 3750 C 371.935 0.316575 -2.27003 0
M  V30 3751 C 372.948 0.932047 -1.33479 0
M  V30 3752 O 374.137 0.815658 -1.58774 0
M  V30 3753 C 371.237 1.46055 -3.05812 0
M  V30 3754 C 370.41 0.952679 -4.26899 0
M  V30 3755 C 369.469 1.97407 -4.87767 0
M  V30 3756 O 368.495 1.54326 -5.4788 0
M  V30 3757 N 369.697 3.30436 -4.77276 0
M  V30 3758 H 372.462 -0.348168 -2.97671 0
M  V30 3759 H 370.023 -0.33185 -1.58463 0
M  V30 3760 H 372.015 2.14135 -3.43407 0
M  V30 3761 H 370.585 2.02948 -2.37762 0
M  V30 3762 H 369.805 0.0968248 -3.94081 0
M  V30 3763 H 371.093 0.59174 -5.05347 0
M  V30 3764 H 370.491 3.68126 -4.29534 0
M  V30 3765 H 369.048 3.94235 -5.19059 0
M  V30 3766 N 372.481 1.55866 -0.233164 0
M  V30 3767 C 373.391 2.24431 0.683217 0
M  V30 3768 C 374.407 1.2558 1.2044 0
M  V30 3769 O 375.583 1.58422 1.24356 0
M  V30 3770 C 372.648 2.91979 1.86947 0
M  V30 3771 C 371.709 4.06204 1.38912 0
M  V30 3772 C 370.942 4.70522 2.51883 0
M  V30 3773 O 371.165 4.33865 3.70293 0
M  V30 3774 O 370.099 5.59296 2.22423 0
M  V30 3775 H 373.925 3.03426 0.129059 0
M  V30 3776 H 371.51 1.494 -0.0022283 0
M  V30 3777 H 373.392 3.34573 2.56201 0
M  V30 3778 H 372.067 2.15935 2.41151 0
M  V30 3779 H 370.974 3.68155 0.664259 0
M  V30 3780 H 372.307 4.84025 0.893328 0
M  V30 3781 N 373.959 -0.0401083 1.57549 0
M  V30 3782 C 375.205 -0.734211 1.89043 0
M  V30 3783 C 375.538 -1.75591 0.829535 0
M  V30 3784 O 374.813 -1.93868 -0.156706 0
M  V30 3785 C 375.096 -1.41374 3.31188 0
M  V30 3786 C 374.949 -0.406299 4.47961 0
M  V30 3787 C 376.268 -2.35061 3.72068 0
M  V30 3788 H 373.387 -0.265447 0.687537 0
M  V30 3789 H 376.029 0.00294087 1.9 0
M  V30 3790 H 374.179 -2.04206 3.30503 0
M  V30 3791 H 375.851 0.219255 4.60779 0
M  V30 3792 H 374.094 0.275485 4.32924 0
M  V30 3793 H 374.765 -0.920022 5.44279 0
M  V30 3794 H 377.241 -1.82282 3.74049 0
M  V30 3795 H 376.117 -2.79593 4.72355 0
M  V30 3796 H 376.378 -3.21258 3.0372 0
M  V30 3797 N 375.437 -1.54477 -0.31217 0
M  V30 3798 C 376.367 -1.87652 -1.38957 0
M  V30 3799 C 377.348 -0.734358 -1.53431 0
M  V30 3800 O 378.533 -0.98911 -1.67123 0
M  V30 3801 C 375.663 -2.11396 -2.75552 0
M  V30 3802 C 374.617 -3.27243 -2.75855 0
M  V30 3803 C 373.943 -3.36382 -4.15633 0
M  V30 3804 C 375.243 -4.64622 -2.38587 0
M  V30 3805 H 376.937 -2.77887 -1.11442 0
M  V30 3806 H 374.483 -1.33707 -0.534655 0
M  V30 3807 H 376.436 -2.33189 -3.51 0
M  V30 3808 H 375.16 -1.17921 -3.04569 0
M  V30 3809 H 373.819 -3.05356 -2.02863 0
M  V30 3810 H 373.467 -2.40445 -4.41809 0
M  V30 3811 H 373.167 -4.14249 -4.1674 0
M  V30 3812 H 374.691 -3.60422 -4.92877 0
M  V30 3813 H 376.105 -4.86219 -3.03749 0
M  V30 3814 H 374.502 -5.45121 -2.50925 0
M  V30 3815 H 375.572 -4.66097 -1.33723 0
M  V30 3816 N 376.915 0.57481 -1.46744 0
M  V30 3817 C 377.862 1.68329 -1.57905 0
M  V30 3818 C 378.832 1.60625 -0.422927 0
M  V30 3819 O 380.017 1.79721 -0.640711 0
M  V30 3820 C 377.157 3.06665 -1.58274 0
M  V30 3821 C 376.27 3.24935 -2.84678 0
M  V30 3822 C 375.405 4.53566 -2.76499 0
M  V30 3823 C 374.444 4.65207 -3.97806 0
M  V30 3824 N 373.581 5.85172 -3.87967 0
M  V30 3825 H 378.421 1.58127 -2.52587 0
M  V30 3826 H 375.958 0.770552 -1.25303 0
M  V30 3827 H 377.916 3.86745 -1.56473 0
M  V30 3828 H 376.546 3.15745 -0.671194 0
M  V30 3829 H 375.598 2.38405 -2.96424 0
M  V30 3830 H 376.91 3.29403 -3.7456 0
M  V30 3831 H 376.064 5.41885 -2.72848 0
M  V30 3832 H 374.803 4.51548 -1.8427 0
M  V30 3833 H 373.808 3.75304 -4.0178 0
M  V30 3834 H 375.033 4.68997 -4.9114 0
M  V30 3835 H 372.979 5.84137 -2.98529 0
M  V30 3836 H 372.896 5.90943 -4.71511 0
M  V30 3837 H 374.164 6.759 -3.88303 0
M  V30 3838 N 378.394 1.34581 0.820102 0
M  V30 3839 C 379.304 1.28471 1.96297 0
M  V30 3840 C 380.32 0.191902 1.72939 0
M  V30 3841 O 381.496 0.418879 1.96996 0
M  V30 3842 C 378.561 1.04281 3.30645 0
M  V30 3843 C 377.622 2.22745 3.66992 0
M  V30 3844 C 376.855 1.997 4.9493 0
M  V30 3845 O 377.078 0.956656 5.6232 0
M  V30 3846 O 376.012 2.86723 5.2922 0
M  V30 3847 H 379.838 2.24624 2.04396 0
M  V30 3848 H 377.423 1.14816 0.955913 0
M  V30 3849 H 379.305 0.925841 4.11104 0
M  V30 3850 H 377.98 0.111697 3.23507 0
M  V30 3851 H 376.887 2.40003 2.86966 0
M  V30 3852 H 378.22 3.14257 3.78819 0
M  V30 3853 N 379.872 -1.04064 1.18357 0
M  V30 3854 C 380.805 -2.11618 0.854 0
M  V30 3855 C 381.783 -1.61555 -0.184043 0
M  V30 3856 O 382.967 -1.88395 -0.0630048 0
M  V30 3857 C 380.094 -3.37574 0.27597 0
M  V30 3858 C 379.14 -4.06485 1.2912 0
M  V30 3859 S 379.973 -4.53543 2.84709 0
M  V30 3860 C 381.129 -5.82732 2.28417 0
M  V30 3861 H 381.362 -2.39247 1.76488 0
M  V30 3862 H 378.895 -1.16832 1.00944 0
M  V30 3863 H 380.853 -4.10468 -0.051026 0
M  V30 3864 H 379.514 -3.0806 -0.613028 0
M  V30 3865 H 378.707 -4.97024 0.835633 0
M  V30 3866 H 378.309 -3.39708 1.56443 0
M  V30 3867 H 380.601 -6.56677 1.66677 0
M  V30 3868 H 381.544 -6.33052 3.17256 0
M  V30 3869 H 381.952 -5.37838 1.71436 0
M  V30 3870 N 381.35 -0.985608 -1.22978 0
M  V30 3871 C 382.578 -0.675582 -1.95559 0
M  V30 3872 C 382.993 0.758413 -1.72897 0
M  V30 3873 O 382.35 1.51094 -1.02357 0
M  V30 3874 C 382.401 -0.96293 -3.48439 0
M  V30 3875 O 382.122 -2.34057 -3.70336 0
M  V30 3876 C 383.623 -0.669585 -4.38214 0
M  V30 3877 H 380.843 -0.250523 -0.622478 0
M  V30 3878 H 383.387 -1.3184 -1.56328 0
M  V30 3879 H 381.542 -0.366033 -3.85667 0
M  V30 3880 H 381.956 -2.43424 -4.64591 0
M  V30 3881 H 383.43 -0.920967 -5.44263 0
M  V30 3882 H 383.907 0.396383 -4.37408 0
M  V30 3883 H 384.513 -1.2472 -4.06602 0
M  V30 3884 N 382.828 1.3818 -0.7579 0
M  V30 3885 C 384.105 1.94106 -0.241306 0
M  V30 3886 C 384.485 1.69282 1.26122 0
M  V30 3887 O 383.833 1.03378 2.03777 0
M  V30 3888 C 384.043 3.43809 -0.59967 0
M  V30 3889 C 385.391 4.20868 -0.561717 0
M  V30 3890 O 386.415 3.5211 -0.538222 0
M  V30 3891 O 385.274 5.43451 -0.576478 0
M  V30 3892 H 382.368 0.825376 -0.0518042 0
M  V30 3893 H 384.914 1.47548 -0.838315 0
M  V30 3894 H 383.686 3.55403 -1.6372 0
M  V30 3895 H 383.309 3.97592 0.0251197 0
M  V30 3896 N 384.306 0.507319 1.49211 0
M  V30 3897 C 385.554 -0.0348839 2.0207 0
M  V30 3898 C 385.875 -1.36898 1.38866 0
M  V30 3899 O 385.145 -1.88133 0.546151 0
M  V30 3900 H 383.725 -0.0158812 0.746831 0
M  V30 3901 H 386.387 0.665998 1.83168 0
M  V30 3902 H 385.483 -0.159917 3.1169 0
M  V30 3903 N 385.784 -1.5574 0.241426 0
M  V30 3904 C 387.032 -1.98417 -0.384075 0
M  V30 3905 C 387.353 -1.13078 -1.58866 0
M  V30 3906 O 386.623 -0.212312 -1.94746 0
M  V30 3907 H 385.203 -0.732813 -0.144894 0
M  V30 3908 H 387.865 -1.9193 0.338943 0
M  V30 3909 H 386.961 -3.04219 -0.696939 0
M  V30 3910 N 387.262 0.0317525 -1.57568 0
M  V30 3911 C 388.508 0.724175 -1.8943 0
M  V30 3912 C 388.841 1.75149 -0.838836 0
M  V30 3913 O 388.116 1.93948 0.146422 0
M  V30 3914 C 388.399 1.39615 -3.31933 0
M  V30 3915 C 388.252 0.382537 -4.4817 0
M  V30 3916 C 389.571 2.33084 -3.73309 0
M  V30 3917 H 386.69 0.261797 -0.688935 0
M  V30 3918 H 389.332 -0.013017 -1.89996 0
M  V30 3919 H 387.482 2.02451 -3.31581 0
M  V30 3920 H 389.154 -0.243689 -4.60656 0
M  V30 3921 H 387.397 -0.29844 -4.32772 0
M  V30 3922 H 388.068 0.891145 -5.44759 0
M  V30 3923 H 390.544 1.80295 -3.7501 0
M  V30 3924 H 389.42 2.77084 -4.73831 0
M  V30 3925 H 389.681 3.19643 -3.05419 0
M  V30 3926 N 388.74 1.54641 0.303973 0
M  V30 3927 C 390.017 1.64455 1.05896 0
M  V30 3928 C 390.397 0.490923 2.05312 0
M  V30 3929 O 389.745 -0.512685 2.22674 0
M  V30 3930 C 389.955 3.02331 1.74347 0
M  V30 3931 C 391.303 3.59045 2.26653 0
M  V30 3932 O 392.327 3.04764 1.84384 0
M  V30 3933 O 391.186 4.54081 3.04093 0
M  V30 3934 H 388.28 0.666729 0.489287 0
M  V30 3935 H 390.826 1.66986 0.302298 0
M  V30 3936 H 389.598 3.77734 1.02142 0
M  V30 3937 H 389.221 3.03565 2.56777 0
M  V30 3938 N 390.218 -0.567019 1.47046 0
M  V30 3939 C 391.465 -1.32462 1.53167 0
M  V30 3940 C 391.793 -1.93571 0.189841 0
M  V30 3941 O 391.048 -1.77865 -0.816243 0
M  V30 3942 C 391.347 -2.4623 2.59047 0
M  V30 3943 C 391.013 -2.03014 4.02612 0
M  V30 3944 C 389.675 -1.90944 4.41694 0
M  V30 3945 C 392.027 -1.69895 4.92732 0
M  V30 3946 C 389.355 -1.44035 5.68745 0
M  V30 3947 C 391.707 -1.2446 6.20236 0
M  V30 3948 C 390.371 -1.10979 6.5821 0
M  V30 3949 H 389.641 -0.484713 0.560477 0
M  V30 3950 H 392.288 -0.636888 1.80599 0
M  V30 3951 H 390.593 -3.20517 2.25335 0
M  V30 3952 H 392.29 -3.04427 2.61008 0
M  V30 3953 H 388.88 -2.13348 3.71726 0
M  V30 3954 H 393.064 -1.78098 4.63244 0
M  V30 3955 H 388.32 -1.32254 5.96925 0
M  V30 3956 H 392.494 -0.978924 6.89485 0
M  V30 3957 H 390.121 -0.744078 7.5655 0
M  V30 3958 N 391.696 -1.35014 -0.812953 0
M  V30 3959 C 392.921 -1.31187 -1.60639 0
M  V30 3960 C 393.346 0.109382 -1.87782 0
M  V30 3961 O 392.704 1.07424 -1.46047 0
M  V30 3962 C 392.752 -2.11809 -2.91838 0
M  V30 3963 O 391.856 -1.49444 -3.8437 0
M  V30 3964 H 391.197 -0.450084 -0.488181 0
M  V30 3965 H 393.727 -1.77963 -1.00947 0
M  V30 3966 H 393.737 -2.23531 -3.41318 0
M  V30 3967 H 392.412 -3.15137 -2.71407 0
M  V30 3968 H 390.989 -1.46524 -3.42907 0
M  V30 3969 N 393.175 1.03435 -1.18907 0
M  V30 3970 C 394.422 1.76743 -0.988334 0
M  V30 3971 C 394.75 1.88447 0.481441 0
M  V30 3972 O 394.005 1.39383 1.37371 0
M  V30 3973 C 394.304 3.19792 -1.59586 0
M  V30 3974 C 393.97 3.28108 -3.09283 0
M  V30 3975 C 392.632 3.30084 -3.5014 0
M  V30 3976 C 394.984 3.27696 -4.05296 0
M  V30 3977 C 392.312 3.29299 -4.85571 0
M  V30 3978 C 394.664 3.28451 -5.4065 0
M  V30 3979 C 393.328 3.28723 -5.80946 0
M  V30 3980 H 392.598 0.64675 -0.361657 0
M  V30 3981 H 395.245 1.21442 -1.48068 0
M  V30 3982 H 393.55 3.78136 -1.02568 0
M  V30 3983 H 395.247 3.75171 -1.41589 0
M  V30 3984 H 391.837 3.27294 -2.76725 0
M  V30 3985 H 396.021 3.25354 -3.74778 0
M  V30 3986 H 391.277 3.2783 -5.16079 0
M  V30 3987 H 395.451 3.27082 -6.14809 0
M  V30 3988 H 393.078 3.27868 -6.85862 0
M  V30 3989 N 394.653 0.992116 1.22453 0
M  V30 3990 C 395.563 0.55065 2.28046 0
M  V30 3991 C 396.579 -0.400189 1.69335 0
M  V30 3992 O 397.755 -0.267215 1.99619 0
M  V30 3993 C 394.82 -0.128496 3.46462 0
M  V30 3994 C 393.881 0.865208 4.20491 0
M  V30 3995 C 393.114 0.218377 5.33253 0
M  V30 3996 O 393.337 -0.987894 5.6178 0
M  V30 3997 O 392.271 0.922845 5.94783 0
M  V30 3998 H 396.097 1.4291 2.67975 0
M  V30 3999 H 393.682 0.760326 1.28606 0
M  V30 4000 H 395.564 -0.508947 4.18315 0
M  V30 4001 H 394.239 -0.981526 3.0846 0
M  V30 4002 H 393.146 1.29658 3.50913 0
M  V30 4003 H 394.479 1.68741 4.62371 0
M  V30 4004 N 396.131 -1.37776 0.765217 0
M  V30 4005 C 397.377 -2.00145 0.327072 0
M  V30 4006 C 397.71 -1.60607 -1.09175 0
M  V30 4007 O 396.985 -0.849127 -1.74986 0
M  V30 4008 C 397.268 -3.57109 0.46319 0
M  V30 4009 C 397.121 -4.06576 1.92395 0
M  V30 4010 C 398.44 -4.39888 -0.136473 0
M  V30 4011 H 395.559 -0.727113 0.120316 0
M  V30 4012 H 398.201 -1.63549 0.967039 0
M  V30 4013 H 396.351 -3.88414 -0.0816358 0
M  V30 4014 H 398.023 -3.85864 2.52798 0
M  V30 4015 H 396.266 -3.59011 2.43503 0
M  V30 4016 H 396.937 -5.15639 1.97028 0
M  V30 4017 H 399.413 -4.14803 0.328317 0
M  V30 4018 H 398.289 -5.48899 -0.0110582 0
M  V30 4019 H 398.55 -4.24758 -1.22608 0
M  V30 4020 N 397.609 -0.515225 -1.4894 0
M  V30 4021 C 398.858 0.0261361 -2.01683 0
M  V30 4022 C 399.171 1.36719 -1.39883 0
M  V30 4023 O 400.377 1.99606 -1.84037 0
M  V30 4024 C 398.833 0.0970111 -3.59769 0
M  V30 4025 C 398.441 -1.23825 -4.30548 0
M  V30 4026 C 400.185 0.587981 -4.20408 0
M  V30 4027 C 398.092 -1.12877 -5.80528 0
M  V30 4028 H 397.022 0.0135398 -0.753878 0
M  V30 4029 H 399.673 -0.656787 -1.71343 0
M  V30 4030 H 398.055 0.844694 -3.86886 0
M  V30 4031 H 399.229 -2.00034 -4.15118 0
M  V30 4032 H 397.544 -1.66379 -3.81716 0
M  V30 4033 H 400.141 0.68763 -5.3026 0
M  V30 4034 H 400.484 1.59026 -3.84729 0
M  V30 4035 H 401.017 -0.103582 -3.97665 0
M  V30 4036 H 397.756 -2.10575 -6.20756 0
M  V30 4037 H 397.276 -0.407799 -5.98412 0
M  V30 4038 H 398.955 -0.813332 -6.41868 0
M  V30 4039 N 399.087 1.5561 -0.249682 0
M  V30 4040 C 400.335 1.98618 0.373548 0
M  V30 4041 C 400.656 1.13919 1.58264 0
M  V30 4042 O 399.926 0.222637 1.94631 0
M  V30 4043 H 398.506 0.733571 0.141006 0
M  V30 4044 H 401.168 1.91748 -0.349117 0
M  V30 4045 H 400.264 3.04584 0.680796 0
M  V30 4046 N 400.565 -0.0233959 1.57583 0
M  V30 4047 C 401.981 -0.379134 1.55031 0
M  V30 4048 C 402.181 -1.76255 0.976548 0
M  V30 4049 O 401.237 -2.45266 0.600078 0
M  V30 4050 C 402.55 -0.275792 2.99433 0
M  V30 4051 C 404.098 -0.352458 3.11009 0
M  V30 4052 C 404.573 -0.278501 4.57152 0
M  V30 4053 N 406.064 -0.337123 4.61972 0
M  V30 4054 C 406.799 -0.302876 5.726 0
M  V30 4055 N 406.295 -0.220589 6.92449 0
M  V30 4056 N 408.088 -0.353023 5.6099 0
M  V30 4057 H 400.239 0.881869 1.93227 0
M  V30 4058 H 402.502 0.335867 0.886509 0
M  V30 4059 H 402.208 0.675108 3.4516 0
M  V30 4060 H 402.082 -1.06721 3.61788 0
M  V30 4061 H 404.469 -1.29379 2.65226 0
M  V30 4062 H 404.55 0.468409 2.51475 0
M  V30 4063 H 404.194 0.659189 5.03604 0
M  V30 4064 H 404.124 -1.11755 5.14605 0
M  V30 4065 H 406.615 -0.403002 3.75745 0
M  V30 4066 H 406.928 -0.199713 7.72542 0
M  V30 4067 H 405.273 -0.186555 6.9475 0
M  V30 4068 H 408.464 -0.415339 4.66254 0
M  V30 4069 H 408.637 -0.322866 6.47195 0
M  V30 4070 N 402.043 -1.548 -0.295768 0
M  V30 4071 C 402.973 -1.89115 -1.36959 0
M  V30 4072 C 403.954 -0.75059 -1.52644 0
M  V30 4073 O 405.139 -1.00678 -1.66065 0
M  V30 4074 C 402.269 -2.14307 -2.73295 0
M  V30 4075 C 401.223 -3.30151 -2.72368 0
M  V30 4076 C 400.549 -3.40772 -4.12042 0
M  V30 4077 C 401.849 -4.67126 -2.33646 0
M  V30 4078 H 403.543 -2.79053 -1.08488 0
M  V30 4079 H 401.089 -1.34266 -0.520443 0
M  V30 4080 H 403.042 -2.36898 -3.48507 0
M  V30 4081 H 401.766 -1.21145 -3.03301 0
M  V30 4082 H 400.425 -3.0749 -1.99613 0
M  V30 4083 H 400.073 -2.45117 -4.39234 0
M  V30 4084 H 399.773 -4.18645 -4.12322 0
M  V30 4085 H 401.297 -3.6563 -4.89027 0
M  V30 4086 H 402.711 -4.89414 -2.98575 0
M  V30 4087 H 401.108 -5.47751 -2.45129 0
M  V30 4088 H 402.178 -4.67489 -1.28772 0
M  V30 4089 N 403.521 0.559213 -1.47345 0
M  V30 4090 C 404.798 1.31997 -1.44348 0
M  V30 4091 C 405.178 2.1064 -0.139358 0
M  V30 4092 O 404.526 2.1091 0.879153 0
M  V30 4093 C 404.736 2.22618 -2.68779 0
M  V30 4094 C 406.084 2.83701 -3.1591 0
M  V30 4095 O 407.108 2.32921 -2.69493 0
M  V30 4096 O 405.967 3.75993 -3.966 0
M  V30 4097 H 403.061 0.594251 -0.575147 0
M  V30 4098 H 405.607 0.578282 -1.59543 0
M  V30 4099 H 404.379 1.64093 -3.55231 0
M  V30 4100 H 404.002 3.04085 -2.5616 0
M  V30 4101 N 404.999 1.35443 0.805782 0
M  V30 4102 C 406.227 1.31878 1.59423 0
M  V30 4103 C 406.642 -0.103562 1.88516 0
M  V30 4104 O 405.999 -1.05575 1.48863 0
M  V30 4105 C 406.05 2.12426 2.92502 0
M  V30 4106 O 405.771 3.49115 2.6467 0
M  V30 4107 C 407.272 2.16455 3.86862 0
M  V30 4108 H 404.492 0.453002 0.495005 0
M  V30 4109 H 407.036 1.78309 1.00131 0
M  V30 4110 H 405.191 1.69593 3.48306 0
M  V30 4111 H 405.605 3.90957 3.49647 0
M  V30 4112 H 407.079 2.77204 4.77349 0
M  V30 4113 H 407.556 1.16352 4.23508 0
M  V30 4114 H 408.162 2.59453 3.36993 0
M  V30 4115 N 406.477 -1.02803 1.19454 0
M  V30 4116 C 407.41 -2.107 0.876396 0
M  V30 4117 C 408.388 -1.61741 -0.166897 0
M  V30 4118 O 409.572 -1.88451 -0.0430195 0
M  V30 4119 C 406.699 -3.37262 0.311758 0
M  V30 4120 C 405.745 -4.05093 1.33424 0
M  V30 4121 S 406.578 -4.50498 2.89503 0
M  V30 4122 C 407.734 -5.80277 2.34584 0
M  V30 4123 H 407.967 -2.37362 1.79016 0
M  V30 4124 H 405.5 -1.15755 1.02177 0
M  V30 4125 H 407.458 -4.10499 -0.00748752 0
M  V30 4126 H 406.119 -3.08693 -0.58032 0
M  V30 4127 H 405.312 -4.9611 0.888302 0
M  V30 4128 H 404.914 -3.3803 1.60037 0
M  V30 4129 H 407.206 -6.54873 1.73633 0
M  V30 4130 H 408.149 -6.29651 3.23952 0
M  V30 4131 H 408.557 -5.3599 1.77131 0
M  V30 4132 N 407.956 -0.998596 -1.21925 0
M  V30 4133 C 408.889 -0.498517 -2.22688 0
M  V30 4134 C 409.867 0.444301 -1.56412 0
M  V30 4135 O 411.051 0.368518 -1.84863 0
M  V30 4136 C 408.178 0.276639 -3.37568 0
M  V30 4137 C 407.224 -0.61302 -4.22071 0
M  V30 4138 S 408.057 -2.07168 -4.93803 0
M  V30 4139 C 409.213 -1.30617 -6.12119 0
M  V30 4140 H 409.446 -1.35234 -2.64762 0
M  V30 4141 H 406.979 -0.806018 -1.31692 0
M  V30 4142 H 408.937 0.717817 -4.04175 0
M  V30 4143 H 407.598 1.10581 -2.93991 0
M  V30 4144 H 406.791 -0.0162909 -5.03997 0
M  V30 4145 H 406.393 -0.991202 -3.60626 0
M  V30 4146 H 408.685 -0.57675 -6.75041 0
M  V30 4147 H 409.628 -2.10091 -6.76215 0
M  V30 4148 H 410.036 -0.816957 -5.58557 0
M  V30 4149 N 409.434 1.37368 -0.772513 0
M  V30 4150 C 410.397 2.28601 -0.165541 0
M  V30 4151 C 411.397 1.48062 0.627238 0
M  V30 4152 O 412.587 1.68268 0.450715 0
M  V30 4153 C 409.719 3.32023 0.772897 0
M  V30 4154 H 410.912 2.83787 -0.969787 0
M  V30 4155 H 408.465 1.46647 -0.540775 0
M  V30 4156 H 409.2 2.81962 1.60212 0
M  V30 4157 H 408.985 3.91555 0.206585 0
M  V30 4158 H 410.475 4.00197 1.19298 0
M  V30 4159 N 410.912 0.523116 1.48665 0
M  V30 4160 C 412.137 -0.0117284 2.07397 0
M  V30 4161 C 412.562 -1.28031 1.37803 0
M  V30 4162 O 411.92 -1.75836 0.441762 0
M  V30 4163 C 411.968 -0.225786 3.59892 0
M  V30 4164 O 411.072 -1.29592 3.91509 0
M  V30 4165 H 410.413 0.0360673 0.66302 0
M  V30 4166 H 412.943 0.729066 1.9117 0
M  V30 4167 H 412.953 -0.450552 4.05505 0
M  V30 4168 H 411.628 0.700944 4.09951 0
M  V30 4169 H 410.205 -1.05436 3.57684 0
M  V30 4170 N 412.39 -1.55475 0.257931 0
M  V30 4171 C 413.32 -2.24815 -0.630912 0
M  V30 4172 C 414.301 -1.23224 -1.17259 0
M  V30 4173 O 415.486 -1.51904 -1.20991 0
M  V30 4174 C 412.616 -2.95609 -1.82298 0
M  V30 4175 C 411.57 -4.03982 -1.41359 0
M  V30 4176 C 410.896 -4.6226 -2.68738 0
M  V30 4177 C 412.196 -5.19109 -0.57648 0
M  V30 4178 H 413.89 -2.99354 -0.0526878 0
M  V30 4179 H 411.436 -1.4398 -0.023901 0
M  V30 4180 H 413.389 -3.42822 -2.45054 0
M  V30 4181 H 412.113 -2.18577 -2.42676 0
M  V30 4182 H 410.772 -3.57555 -0.809324 0
M  V30 4183 H 410.42 -3.81915 -3.27338 0
M  V30 4184 H 410.12 -5.35424 -2.42065 0
M  V30 4185 H 411.644 -5.12212 -3.32372 0
M  V30 4186 H 413.058 -5.62479 -1.10861 0
M  V30 4187 H 411.455 -5.98729 -0.405351 0
M  V30 4188 H 412.525 -4.83174 0.408776 0
M  V30 4189 N 413.868 0.0150385 -1.57593 0
M  V30 4190 C 414.798 1.01047 -2.10503 0
M  V30 4191 C 415.779 1.36816 -1.01071 0
M  V30 4192 O 416.964 1.45455 -1.28672 0
M  V30 4193 C 414.094 2.30708 -2.59598 0
M  V30 4194 C 413.048 2.09142 -3.73421 0
M  V30 4195 C 412.374 3.44685 -4.08774 0
M  V30 4196 C 413.674 1.46619 -5.01298 0
M  V30 4197 H 415.368 0.569978 -2.93925 0
M  V30 4198 H 412.914 0.272724 -1.41394 0
M  V30 4199 H 414.867 3.00687 -2.95238 0
M  V30 4200 H 413.591 2.76843 -1.73279 0
M  V30 4201 H 412.25 1.41592 -3.38153 0
M  V30 4202 H 411.898 3.88495 -3.195 0
M  V30 4203 H 411.598 3.31077 -4.8545 0
M  V30 4204 H 413.122 4.16004 -4.4696 0
M  V30 4205 H 414.536 2.06535 -5.34805 0
M  V30 4206 H 412.933 1.43544 -5.82679 0
M  V30 4207 H 414.003 0.433611 -4.82957 0
M  V30 4208 N 415.346 1.54954 0.287554 0
M  V30 4209 C 416.586 1.76617 1.02887 0
M  V30 4210 C 416.95 0.547759 1.84021 0
M  V30 4211 O 418.151 0.642365 2.61012 0
M  V30 4212 C 416.422 3.02717 1.89993 0
M  V30 4213 S 417.981 3.45438 2.70588 0
M  V30 4214 H 414.799 0.6207 0.346775 0
M  V30 4215 H 417.401 1.93172 0.30082 0
M  V30 4216 H 416.105 3.89503 1.29287 0
M  V30 4217 H 415.636 2.88787 2.67144 0
M  V30 4218 H 417.651 3.03566 3.92508 0
M  V30 4219 N 416.824 -0.551391 1.4764 0
M  V30 4220 C 418.064 -1.31901 1.56145 0
M  V30 4221 C 418.428 -1.90724 0.221013 0
M  V30 4222 O 419.629 -2.6819 0.180945 0
M  V30 4223 C 417.9 -2.39517 2.65267 0
M  V30 4224 S 419.459 -3.26289 2.93395 0
M  V30 4225 H 416.277 -0.448965 0.551318 0
M  V30 4226 H 418.879 -0.630599 1.85051 0
M  V30 4227 H 417.583 -1.94747 3.6125 0
M  V30 4228 H 417.114 -3.13092 2.38195 0
M  V30 4229 H 419.129 -4.39122 2.31055 0
M  V30 4230 N 418.302 -1.35869 -0.798587 0
M  V30 4231 C 419.252 -1.25982 -1.90033 0
M  V30 4232 C 420.236 -0.153303 -1.60168 0
M  V30 4233 O 421.428 -0.38527 -1.72756 0
M  V30 4234 C 418.557 -1.04211 -3.27101 0
M  V30 4235 C 417.643 -2.19289 -3.63006 0
M  V30 4236 N 418.034 -3.44559 -3.70287 0
M  V30 4237 C 416.332 -2.10852 -3.93011 0
M  V30 4238 C 417.033 -4.20283 -4.02166 0
M  V30 4239 N 416.009 -3.49124 -4.16669 0
M  V30 4240 H 419.811 -2.20883 -1.93876 0
M  V30 4241 H 417.325 -1.28457 -0.993614 0
M  V30 4242 H 419.322 -0.952155 -4.05881 0
M  V30 4243 H 417.982 -0.102013 -3.2454 0
M  V30 4244 H 418.993 -3.7881 -3.53162 0
M  V30 4245 H 415.67 -1.24744 -3.98428 0
M  V30 4246 H 417.06 -5.28575 -4.14799 0
M  V30 4247 N 419.78 1.02168 -1.19998 0
M  V30 4248 C 420.69 2.14069 -0.959774 0
M  V30 4249 C 421.706 1.73804 0.082655 0
M  V30 4250 O 422.882 2.01133 -0.103633 0
M  V30 4251 C 419.947 3.42936 -0.509459 0
M  V30 4252 C 419.008 3.97474 -1.62213 0
M  V30 4253 C 418.241 5.2019 -1.19321 0
M  V30 4254 O 418.464 5.70369 -0.0597726 0
M  V30 4255 O 417.398 5.67749 -1.99863 0
M  V30 4256 H 421.224 2.37199 -1.89658 0
M  V30 4257 H 418.809 1.12469 -0.983411 0
M  V30 4258 H 420.691 4.20551 -0.267322 0
M  V30 4259 H 419.366 3.21234 0.398821 0
M  V30 4260 H 418.273 3.21161 -1.9185 0
M  V30 4261 H 419.606 4.23555 -2.50723 0
M  V30 4262 N 421.258 1.00505 1.21394 0
M  V30 4263 C 422.221 0.570459 2.21987 0
M  V30 4264 C 423.221 -0.353211 1.56873 0
M  V30 4265 O 424.411 -0.14349 1.73608 0
M  V30 4266 C 421.543 -0.168555 3.40483 0
M  V30 4267 H 422.736 1.46021 2.6195 0
M  V30 4268 H 420.289 0.793565 1.34656 0
M  V30 4269 H 421.024 -1.07374 3.06009 0
M  V30 4270 H 420.809 0.494823 3.88965 0
M  V30 4271 H 422.299 -0.460362 4.15055 0
M  V30 4272 N 422.737 -1.36956 0.779787 0
M  V30 4273 C 423.977 -2.01328 0.353043 0
M  V30 4274 C 424.341 -1.60558 -1.05286 0
M  V30 4275 O 425.542 -2.1745 -1.58016 0
M  V30 4276 C 423.813 -3.53874 0.500822 0
M  V30 4277 S 425.372 -4.38506 0.16053 0
M  V30 4278 H 422.19 -0.69799 0.13539 0
M  V30 4279 H 424.792 -1.67016 1.01617 0
M  V30 4280 H 423.496 -3.81034 1.52451 0
M  V30 4281 H 423.027 -3.92994 -0.178574 0
M  V30 4282 H 425.042 -4.85153 -1.04121 0
M  V30 4283 N 424.215 -0.530993 -1.48385 0
M  V30 4284 C 425.463 0.00273189 -2.021 0
M  V30 4285 C 425.784 1.34672 -1.41027 0
M  V30 4286 O 425.054 1.8724 -0.576012 0
M  V30 4287 H 423.634 0.00399774 -0.746989 0
M  V30 4288 H 426.296 -0.695054 -1.82085 0
M  V30 4289 H 425.392 0.11031 -3.11905 0
M  V30 4290 N 425.693 1.55336 -0.266172 0
M  V30 4291 C 426.921 2.03801 0.356756 0
M  V30 4292 C 427.336 1.14485 1.50129 0
M  V30 4293 O 426.693 0.163121 1.8177 0
M  V30 4294 C 426.744 3.51455 0.846281 0
M  V30 4295 O 426.465 4.37371 -0.252663 0
M  V30 4296 C 427.966 4.15767 1.53794 0
M  V30 4297 H 425.186 0.665906 0.0825218 0
M  V30 4298 H 427.73 2.00636 -0.39566 0
M  V30 4299 H 425.885 3.55092 1.54881 0
M  V30 4300 H 426.299 5.24358 0.122173 0
M  V30 4301 H 427.773 5.20714 1.83198 0
M  V30 4302 H 428.25 3.63404 2.46646 0
M  V30 4303 H 428.856 4.16107 0.879488 0
M  V30 4304 N 427.171 -0.0066808 1.57599 0
M  V30 4305 C 428.396 -0.707738 1.94951 0
M  V30 4306 C 428.821 -1.66882 0.867868 0
M  V30 4307 O 428.179 -1.80457 -0.17458 0
M  V30 4308 C 428.227 -1.42162 3.31394 0
M  V30 4309 O 427.331 -2.53578 3.25226 0
M  V30 4310 H 426.672 -0.188752 0.636607 0
M  V30 4311 H 429.202 0.0445193 2.04552 0
M  V30 4312 H 429.212 -1.78655 3.66806 0
M  V30 4313 H 427.887 -0.716903 4.09675 0
M  V30 4314 H 426.464 -2.19463 3.01481 0
M  V30 4315 N 428.649 -1.55105 -0.279332 0
M  V30 4316 C 429.895 -1.75672 -1.01327 0
M  V30 4317 C 430.228 -0.552739 -1.86168 0
M  V30 4318 O 429.503 0.449827 -1.89227 0
M  V30 4319 C 429.786 -3.05825 -1.90114 0
M  V30 4320 C 429.639 -4.36565 -1.08309 0
M  V30 4321 C 430.958 -3.31975 -2.8893 0
M  V30 4322 H 428.077 -0.639149 -0.366957 0
M  V30 4323 H 430.719 -1.87833 -0.286154 0
M  V30 4324 H 428.869 -2.95588 -2.52111 0
M  V30 4325 H 430.541 -4.58751 -0.484314 0
M  V30 4326 H 428.784 -4.32076 -0.386362 0
M  V30 4327 H 429.455 -5.23946 -1.73737 0
M  V30 4328 H 431.931 -3.41963 -2.37067 0
M  V30 4329 H 430.807 -4.2432 -3.48201 0
M  V30 4330 H 431.068 -2.51309 -3.63725 0
M  V30 4331 N 430.127 0.543554 -1.4793 0
M  V30 4332 C 431.376 1.29649 -1.54512 0
M  V30 4333 C 431.689 1.94382 -0.217973 0
M  V30 4334 O 432.895 2.71017 -0.161908 0
M  V30 4335 C 431.351 2.35175 -2.72435 0
M  V30 4336 C 430.959 1.76572 -4.11736 0
M  V30 4337 C 432.703 3.11564 -2.8832 0
M  V30 4338 C 430.61 2.79958 -5.20939 0
M  V30 4339 H 429.54 0.487541 -0.57517 0
M  V30 4340 H 432.191 0.575708 -1.74235 0
M  V30 4341 H 430.573 3.10229 -2.46118 0
M  V30 4342 H 431.747 1.07799 -4.48013 0
M  V30 4343 H 430.062 1.12722 -4.00852 0
M  V30 4344 H 432.659 3.88794 -3.67074 0
M  V30 4345 H 433.002 3.66594 -1.97268 0
M  V30 4346 H 433.535 2.43623 -3.14472 0
M  V30 4347 H 430.274 2.29766 -6.13912 0
M  V30 4348 H 429.794 3.47101 -4.89164 0
M  V30 4349 H 431.473 3.43198 -5.48474 0
M  V30 4350 N 431.605 1.3629 0.791371 0
M  V30 4351 C 432.851 1.30605 1.55146 0
M  V30 4352 C 433.184 -0.115042 1.93859 0
M  V30 4353 O 432.459 -1.06798 1.62556 0
M  V30 4354 C 432.742 2.22692 2.82985 0
M  V30 4355 C 432.595 3.73489 2.50651 0
M  V30 4356 C 433.914 2.13588 3.84796 0
M  V30 4357 H 431.033 0.475761 0.562868 0
M  V30 4358 H 433.675 1.66825 0.909358 0
M  V30 4359 H 431.825 1.91933 3.37778 0
M  V30 4360 H 433.497 4.14758 2.01924 0
M  V30 4361 H 431.74 3.93021 1.83622 0
M  V30 4362 H 432.411 4.3333 3.41949 0
M  V30 4363 H 434.887 2.40659 3.39445 0
M  V30 4364 H 433.763 2.80195 4.71998 0
M  V30 4365 H 434.024 1.12256 4.27611 0
M  V30 4366 N 433.083 -1.0153 1.20538 0
M  V30 4367 C 434.331 -1.74803 1.01432 0
M  V30 4368 C 434.652 -1.8963 -0.454456 0
M  V30 4369 O 433.922 -1.43975 -1.32846 0
M  V30 4370 H 432.502 -0.647598 0.372324 0
M  V30 4371 H 435.164 -1.22402 1.5167 0
M  V30 4372 H 434.26 -2.75114 1.47373 0
M  V30 4373 N 434.561 -1.01147 -1.20859 0
M  V30 4374 C 435.807 -0.698899 -1.90377 0
M  V30 4375 C 436.14 0.76904 -1.78324 0
M  V30 4376 O 435.415 1.55817 -1.16409 0
M  V30 4377 C 435.698 -1.12878 -3.41951 0
M  V30 4378 C 435.551 -2.65665 -3.62963 0
M  V30 4379 C 436.87 -0.696114 -4.3456 0
M  V30 4380 H 433.989 -0.255372 -0.691342 0
M  V30 4381 H 436.631 -1.25831 -1.42361 0
M  V30 4382 H 434.781 -0.652827 -3.82976 0
M  V30 4383 H 436.453 -3.21074 -3.31224 0
M  V30 4384 H 434.696 -3.06878 -3.06608 0
M  V30 4385 H 435.367 -2.90797 -4.69192 0
M  V30 4386 H 437.843 -1.10521 -4.01154 0
M  V30 4387 H 436.719 -1.025 -5.39245 0
M  V30 4388 H 436.98 0.402465 -4.40264 0
M  V30 4389 N 436.039 1.36541 -0.78704 0
M  V30 4390 C 437.45 1.81873 -0.421807 0
M  V30 4391 C 437.801 1.65487 1.05397 0
M  V30 4392 O 436.926 1.17448 1.81755 0
M  V30 4393 C 437.521 3.30192 -0.758841 0
M  V30 4394 C 436.08 3.73743 -0.446468 0
M  V30 4395 C 435.227 2.58844 -0.994728 0
M  V30 4396 H 438.178 1.24796 -0.98039 0
M  V30 4397 H 438.199 3.80468 -0.0490648 0
M  V30 4398 H 437.711 3.42087 -1.83299 0
M  V30 4399 H 435.812 3.6741 0.619739 0
M  V30 4400 H 435.925 4.69272 -0.965415 0
M  V30 4401 H 434.289 2.51245 -0.418087 0
M  V30 4402 H 435.072 2.73525 -2.07458 0
M  V30 4403 N 437.518 0.538854 1.48102 0
M  V30 4404 C 438.929 0.100679 1.86428 0
M  V30 4405 C 439.28 -1.32447 1.44749 0
M  V30 4406 O 438.405 -1.99339 0.842199 0
M  V30 4407 C 439 0.175933 3.38343 0
M  V30 4408 C 437.559 -0.207098 3.7583 0
M  V30 4409 C 436.706 0.531741 2.72154 0
M  V30 4410 H 439.657 0.749614 1.3988 0
M  V30 4411 H 439.678 -0.610144 3.75576 0
M  V30 4412 H 439.19 1.21328 3.68648 0
M  V30 4413 H 437.291 -1.24626 3.5114 0
M  V30 4414 H 437.404 0.138687 4.78899 0
M  V30 4415 H 435.768 -0.0230462 2.5469 0
M  V30 4416 H 436.551 1.56989 3.05302 0
M  V30 4417 N 438.996 -1.55193 0.274407 0
M  V30 4418 C 439.959 -2.212 -0.600279 0
M  V30 4419 C 440.959 -1.18963 -1.08187 0
M  V30 4420 O 442.149 -1.43873 -0.982158 0
M  V30 4421 C 439.281 -2.87739 -1.82809 0
M  V30 4422 H 440.474 -2.9989 -0.0239682 0
M  V30 4423 H 438.027 -1.5628 0.0250192 0
M  V30 4424 H 438.762 -2.13058 -2.44493 0
M  V30 4425 H 438.547 -3.62658 -1.49069 0
M  V30 4426 H 440.037 -3.38171 -2.45011 0
M  V30 4427 N 440.474 -0.00167713 -1.576 0
M  V30 4428 C 441.699 0.69739 -1.95323 0
M  V30 4429 C 442.124 1.6642 -0.876706 0
M  V30 4430 O 441.482 1.80548 0.165007 0
M  V30 4431 C 441.53 1.40403 -3.32144 0
M  V30 4432 O 440.634 2.5185 -3.26566 0
M  V30 4433 H 439.975 0.185373 -0.637599 0
M  V30 4434 H 442.505 -0.0553665 -2.04525 0
M  V30 4435 H 442.515 1.76707 -3.67748 0
M  V30 4436 H 441.19 0.695167 -4.10049 0
M  V30 4437 H 439.767 2.17861 -3.0264 0
M  V30 4438 N 441.952 1.55251 0.271103 0
M  V30 4439 C 442.884 1.84675 1.35749 0
M  V30 4440 C 443.897 0.731366 1.45447 0
M  V30 4441 O 445.086 1.00924 1.4723 0
M  V30 4442 C 442.186 1.99638 2.73857 0
M  V30 4443 C 441.359 3.30312 2.86727 0
M  V30 4444 C 440.418 3.35318 4.05522 0
M  V30 4445 O 439.444 4.08682 3.96191 0
M  V30 4446 N 440.646 2.62857 5.17577 0
M  V30 4447 H 443.411 2.78445 1.10853 0
M  V30 4448 H 440.972 1.55191 0.461218 0
M  V30 4449 H 442.964 2.00355 3.51625 0
M  V30 4450 H 441.534 1.12725 2.91568 0
M  V30 4451 H 440.754 3.42118 1.95829 0
M  V30 4452 H 442.042 4.16488 2.92258 0
M  V30 4453 H 441.44 2.02939 5.28046 0
M  V30 4454 H 439.997 2.69295 5.93568 0
M  V30 4455 N 443.43 -0.535701 1.48216 0
M  V30 4456 C 444.378 -1.66179 1.62749 0
M  V30 4457 C 445.372 -1.62034 0.49409 0
M  V30 4458 O 446.578 -1.6696 0.672624 0
M  V30 4459 H 442.953 -0.550244 0.512578 0
M  V30 4460 H 444.924 -1.51063 2.57337 0
M  V30 4461 C 443.673 -3.04471 1.67907 0
M  V30 4462 H 442.996 -3.08351 2.54479 0
M  V30 4463 H 444.436 -3.82894 1.82121 0
M  V30 4464 C 442.895 -3.34314 0.416596 0
M  V30 4465 O 443.425 -3.98905 -0.473014 0
M  V30 4466 N 441.631 -2.89149 0.290038 0
M  V30 4467 H 441.178 -2.36764 1.01493 0
M  V30 4468 H 441.136 -3.09486 -0.55367 0
M  V30 4469 N 444.908 -1.36708 -0.784132 0
M  V30 4470 C 445.838 -1.34153 -1.91116 0
M  V30 4471 C 446.819 -0.212121 -1.68772 0
M  V30 4472 O 448.004 -0.410581 -1.8981 0
M  V30 4473 C 445.134 -1.13535 -3.28218 0
M  V30 4474 C 444.088 -2.23356 -3.65097 0
M  V30 4475 C 443.414 -1.87875 -5.00607 0
M  V30 4476 C 444.714 -3.65473 -3.73131 0
M  V30 4477 H 446.408 -2.28459 -1.93512 0
M  V30 4478 H 443.954 -1.09973 -0.929618 0
M  V30 4479 H 445.907 -1.10381 -4.06687 0
M  V30 4480 H 444.631 -0.156804 -3.26223 0
M  V30 4481 H 443.29 -2.25645 -2.88929 0
M  V30 4482 H 442.938 -0.885814 -4.95139 0
M  V30 4483 H 442.638 -2.61406 -5.26252 0
M  V30 4484 H 444.162 -1.86286 -5.81489 0
M  V30 4485 H 445.576 -3.65382 -4.41779 0
M  V30 4486 H 443.973 -4.37953 -4.10265 0
M  V30 4487 H 445.043 -3.99995 -2.74102 0
M  V30 4488 N 446.386 1.0089 -1.21074 0
M  V30 4489 C 447.611 1.78727 -1.05221 0
M  V30 4490 C 448.036 1.83932 0.393795 0
M  V30 4491 O 447.394 1.28004 1.28393 0
M  V30 4492 C 447.442 3.20665 -1.64944 0
M  V30 4493 O 446.546 4.02632 -0.892273 0
M  V30 4494 H 445.887 0.550973 -0.370574 0
M  V30 4495 H 448.417 1.26847 -1.60534 0
M  V30 4496 H 448.427 3.71352 -1.69002 0
M  V30 4497 H 447.102 3.16191 -2.70177 0
M  V30 4498 H 445.679 3.61207 -0.926492 0
M  V30 4499 N 447.864 1.01787 1.20321 0
M  V30 4500 C 449.113 0.703249 1.89043 0
M  V30 4501 C 449.426 -0.770445 1.79787 0
M  V30 4502 O 450.632 -1.19767 2.43656 0
M  V30 4503 C 449.088 1.20749 3.3904 0
M  V30 4504 C 448.696 2.70817 3.56878 0
M  V30 4505 C 450.44 0.968352 4.13308 0
M  V30 4506 C 448.347 3.14716 5.00708 0
M  V30 4507 H 447.277 0.259354 0.707991 0
M  V30 4508 H 449.928 1.23072 1.36108 0
M  V30 4509 H 448.31 0.607989 3.91305 0
M  V30 4510 H 449.484 3.36327 3.14993 0
M  V30 4511 H 447.799 2.92888 2.95983 0
M  V30 4512 H 450.396 1.27173 5.19356 0
M  V30 4513 H 450.739 -0.095149 4.16191 0
M  V30 4514 H 451.272 1.53129 3.67146 0
M  V30 4515 H 448.011 4.20347 5.02979 0
M  V30 4516 H 447.531 2.53927 5.43398 0
M  V30 4517 H 449.21 3.07426 5.69296 0
M  V30 4518 N 449.342 -1.36122 0.79427 0
M  V30 4519 C 450.29 -2.31871 0.184023 0
M  V30 4520 C 451.284 -1.56041 -0.659365 0
M  V30 4521 O 452.49 -1.71266 -0.553906 0
M  V30 4522 H 448.865 -0.750896 0.0407373 0
M  V30 4523 H 450.836 -2.80898 1.00693 0
M  V30 4524 C 449.585 -3.41324 -0.662813 0
M  V30 4525 H 448.908 -3.99793 -0.0231944 0
M  V30 4526 H 450.348 -4.10629 -1.05639 0
M  V30 4527 C 448.807 -2.83308 -1.82313 0
M  V30 4528 O 449.337 -2.75863 -2.91997 0
M  V30 4529 N 447.543 -2.40529 -1.63077 0
M  V30 4530 H 447.09 -2.46785 -0.738591 0
M  V30 4531 H 447.048 -2.02059 -2.40872 0
M  V30 4532 N 450.82 -0.546701 -1.47814 0
M  V30 4533 C 452.231 -0.110564 -1.86372 0
M  V30 4534 C 452.582 1.31678 -1.45449 0
M  V30 4535 O 451.707 1.98889 -0.852758 0
M  V30 4536 C 452.302 -0.193873 -3.38245 0
M  V30 4537 C 450.861 0.187164 -3.75934 0
M  V30 4538 C 450.008 -0.546166 -2.71868 0
M  V30 4539 H 452.959 -0.757022 -1.39481 0
M  V30 4540 H 452.98 0.590218 -3.75895 0
M  V30 4541 H 452.492 -1.23282 -3.67999 0
M  V30 4542 H 450.593 1.22762 -3.51796 0
M  V30 4543 H 450.706 -0.164083 -4.78819 0
M  V30 4544 H 449.07 0.00953904 -2.54698 0
M  V30 4545 H 449.853 -1.58606 -3.04465 0
M  V30 4546 N 452.299 1.55045 -0.282633 0
M  V30 4547 C 453.232 2.18951 0.64311 0
M  V30 4548 C 454.21 1.15287 1.14664 0
M  V30 4549 O 455.394 1.43846 1.21822 0
M  V30 4550 C 452.521 2.81874 1.87789 0
M  V30 4551 C 451.567 3.98906 1.50919 0
M  V30 4552 S 452.4 5.3234 0.580884 0
M  V30 4553 C 453.556 5.98737 1.82387 0
M  V30 4554 H 453.789 2.97131 0.100138 0
M  V30 4555 H 451.322 1.54255 -0.0668514 0
M  V30 4556 H 453.28 3.18757 2.58658 0
M  V30 4557 H 451.941 2.03573 2.392 0
M  V30 4558 H 451.134 4.4165 2.42819 0
M  V30 4559 H 450.736 3.63485 0.88061 0
M  V30 4560 H 453.028 6.18427 2.76684 0
M  V30 4561 H 453.971 6.93318 1.4393 0
M  V30 4562 H 454.379 5.28177 1.99223 0
M  V30 4563 N 453.777 0.010035 1.57597 0
M  V30 4564 C 454.707 -0.976857 2.12084 0
M  V30 4565 C 455.688 -1.35191 1.03235 0
M  V30 4566 O 456.873 -1.43389 1.3097 0
M  V30 4567 C 454.003 -2.26548 2.63236 0
M  V30 4568 C 452.957 -2.03175 3.76701 0
M  V30 4569 C 452.283 -3.38138 4.14206 0
M  V30 4570 C 453.583 -1.38625 5.03568 0
M  V30 4571 H 455.277 -0.523145 2.94794 0
M  V30 4572 H 452.823 -0.250195 1.4181 0
M  V30 4573 H 454.776 -2.95952 2.99984 0
M  V30 4574 H 453.5 -2.74051 1.77661 0
M  V30 4575 H 452.159 -1.36195 3.40362 0
M  V30 4576 H 451.807 -3.83363 3.25641 0
M  V30 4577 H 451.507 -3.23312 4.90656 0
M  V30 4578 H 453.031 -4.08841 4.53521 0
M  V30 4579 H 454.445 -1.98 5.38023 0
M  V30 4580 H 452.842 -1.34256 5.84889 0
M  V30 4581 H 453.912 -0.356722 4.83586 0
M  V30 4582 N 455.255 -1.55392 -0.262866 0
M  V30 4583 C 456.185 -1.91978 -1.32917 0
M  V30 4584 C 457.166 -0.7828 -1.51017 0
M  V30 4585 O 458.351 -1.04178 -1.63892 0
M  V30 4586 C 455.481 -2.20055 -2.68687 0
M  V30 4587 C 454.435 -3.35854 -2.65304 0
M  V30 4588 C 453.761 -3.49435 -4.04721 0
M  V30 4589 C 455.061 -4.71977 -2.23685 0
M  V30 4590 H 456.755 -2.81292 -1.02544 0
M  V30 4591 H 454.301 -1.3534 -0.491846 0
M  V30 4592 H 456.254 -2.44237 -3.43404 0
M  V30 4593 H 454.978 -1.27551 -3.00663 0
M  V30 4594 H 453.637 -3.11655 -1.93045 0
M  V30 4595 H 453.285 -2.54379 -4.33936 0
M  V30 4596 H 452.985 -4.27297 -4.0335 0
M  V30 4597 H 454.509 -3.7592 -4.81161 0
M  V30 4598 H 455.923 -4.95637 -2.88127 0
M  V30 4599 H 454.32 -5.52828 -2.33456 0
M  V30 4600 H 455.39 -4.70115 -1.18827 0
M  V30 4601 N 456.733 0.527833 -1.48498 0
M  V30 4602 C 457.663 1.64136 -1.66077 0
M  V30 4603 C 458.644 1.62286 -0.509625 0
M  V30 4604 O 459.829 1.79449 -0.742413 0
M  V30 4605 C 456.959 3.02717 -1.70234 0
M  V30 4606 C 455.913 3.19426 -2.8487 0
M  V30 4607 C 455.239 4.5909 -2.74118 0
M  V30 4608 C 456.539 3.01993 -4.26142 0
M  V30 4609 H 458.233 1.4968 -2.593 0
M  V30 4610 H 455.779 0.718654 -1.24785 0
M  V30 4611 H 457.732 3.80491 -1.8112 0
M  V30 4612 H 456.456 3.18201 -0.735911 0
M  V30 4613 H 455.115 2.4407 -2.73542 0
M  V30 4614 H 454.763 4.71413 -1.7544 0
M  V30 4615 H 454.463 4.71214 -3.51042 0
M  V30 4616 H 455.987 5.3896 -2.86974 0
M  V30 4617 H 457.401 3.69558 -4.38292 0
M  V30 4618 H 455.798 3.2561 -5.04082 0
M  V30 4619 H 456.868 1.98396 -4.42456 0
M  V30 4620 N 458.211 1.37122 0.776871 0
M  V30 4621 C 459.439 1.3523 1.5659 0
M  V30 4622 C 459.854 -0.0635518 1.88693 0
M  V30 4623 O 459.211 -1.02394 1.51069 0
M  V30 4624 C 459.262 2.18583 2.8793 0
M  V30 4625 O 458.983 3.5465 2.57206 0
M  V30 4626 C 460.484 2.24612 3.82183 0
M  V30 4627 H 457.704 0.4634 0.485285 0
M  V30 4628 H 460.248 1.80392 0.963266 0
M  V30 4629 H 458.403 1.76943 3.4463 0
M  V30 4630 H 458.817 3.98286 3.41275 0
M  V30 4631 H 460.291 2.87267 4.71361 0
M  V30 4632 H 460.768 1.25309 4.20944 0
M  V30 4633 H 461.374 2.66543 3.31414 0
M  V30 4634 N 459.689 -1.00246 1.21608 0
M  V30 4635 C 460.937 -1.73717 1.0328 0
M  V30 4636 C 461.258 -1.90102 -0.434318 0
M  V30 4637 O 460.528 -1.45376 -1.31311 0
M  V30 4638 H 459.108 -0.643613 0.379172 0
M  V30 4639 H 461.77 -1.20787 1.52959 0
M  V30 4640 H 460.866 -2.73535 1.50283 0
M  V30 4641 N 461.167 -1.02423 -1.1978 0
M  V30 4642 C 462.583 -0.740459 -1.41384 0
M  V30 4643 C 462.783 0.676827 -1.89793 0
M  V30 4644 O 461.839 1.4435 -2.0717 0
M  V30 4645 C 463.152 -1.77264 -2.42895 0
M  V30 4646 C 464.7 -1.79165 -2.56649 0
M  V30 4647 C 465.175 -2.8133 -3.6141 0
M  V30 4648 N 466.666 -2.80118 -3.68901 0
M  V30 4649 C 467.401 -3.55824 -4.49641 0
M  V30 4650 N 466.897 -4.41231 -5.34123 0
M  V30 4651 N 468.69 -3.44387 -4.44246 0
M  V30 4652 H 460.841 -1.9391 -0.866764 0
M  V30 4653 H 463.104 -0.838074 -0.443098 0
M  V30 4654 H 462.81 -2.7884 -2.14339 0
M  V30 4655 H 462.684 -1.59108 -3.42001 0
M  V30 4656 H 465.071 -0.782702 -2.84531 0
M  V30 4657 H 465.152 -2.01396 -1.57713 0
M  V30 4658 H 464.796 -3.82394 -3.34271 0
M  V30 4659 H 464.726 -2.56359 -4.59986 0
M  V30 4660 H 467.217 -2.1817 -3.08562 0
M  V30 4661 H 467.53 -4.95747 -5.92836 0
M  V30 4662 H 465.875 -4.45306 -5.33599 0
M  V30 4663 H 469.066 -2.7708 -3.77285 0
M  V30 4664 H 469.239 -4.0364 -5.06931 0
M  V30 4665 N 462.645 1.35699 -0.801477 0
M  V30 4666 C 463.873 2.03157 -0.391768 0
M  V30 4667 C 464.288 1.60412 0.995668 0
M  V30 4668 O 463.645 0.799228 1.64069 0
M  V30 4669 C 463.696 3.58566 -0.459671 0
M  V30 4670 O 463.417 3.99756 -1.7924 0
M  V30 4671 C 464.918 4.4328 -0.0421205 0
M  V30 4672 H 462.138 0.651688 -0.159825 0
M  V30 4673 H 464.682 1.73426 -1.08368 0
M  V30 4674 H 462.837 3.86963 0.183939 0
M  V30 4675 H 463.251 4.94387 -1.75162 0
M  V30 4676 H 464.725 5.51821 -0.140754 0
M  V30 4677 H 465.202 4.27383 1.01196 0
M  V30 4678 H 465.808 4.20168 -0.658687 0
M  V30 4679 N 464.123 0.554532 1.47522 0
M  V30 4680 C 465.369 0.0377449 2.03365 0
M  V30 4681 C 465.724 -1.29654 1.42154 0
M  V30 4682 O 465.017 -1.83022 0.566865 0
M  V30 4683 C 465.211 -0.115927 3.57212 0
M  V30 4684 C 465.04 1.20191 4.33341 0
M  V30 4685 C 463.81 1.76849 4.73342 0
M  V30 4686 C 466.008 2.11849 4.68641 0
M  V30 4687 N 463.99 3.02665 5.34104 0
M  V30 4688 C 465.361 3.22245 5.29677 0
M  V30 4689 C 467.416 2.11876 4.5057 0
M  V30 4690 C 466.119 4.32763 5.74551 0
M  V30 4691 C 468.145 3.21405 4.9644 0
M  V30 4692 C 467.507 4.30519 5.57523 0
M  V30 4693 H 463.606 0.0559107 0.779999 0
M  V30 4694 H 466.19 0.741232 1.80038 0
M  V30 4695 H 464.361 -0.788533 3.80311 0
M  V30 4696 H 466.093 -0.634538 3.99695 0
M  V30 4697 H 462.848 1.30681 4.55214 0
M  V30 4698 H 463.272 3.66788 5.69031 0
M  V30 4699 H 467.914 1.28801 4.02704 0
M  V30 4700 H 465.632 5.166 6.2141 0
M  V30 4701 H 469.218 3.22509 4.8423 0
M  V30 4702 H 468.098 5.13873 5.92371 0
M  V30 4703 N 465.601 -1.54893 0.290851 0
M  V30 4704 C 466.548 -2.23138 -0.58974 0
M  V30 4705 C 467.518 -1.21036 -1.13752 0
M  V30 4706 O 468.703 -1.49626 -1.18392 0
M  V30 4707 C 465.843 -2.96811 -1.76061 0
M  V30 4708 C 464.956 -4.13665 -1.24519 0
M  V30 4709 C 464.091 -4.74944 -2.3791 0
M  V30 4710 C 463.13 -5.83963 -1.83451 0
M  V30 4711 N 462.267 -6.39239 -2.90376 0
M  V30 4712 H 467.107 -2.98 -0.00114915 0
M  V30 4713 H 464.644 -1.47096 0.0112006 0
M  V30 4714 H 466.602 -3.37751 -2.44909 0
M  V30 4715 H 465.232 -2.24344 -2.32098 0
M  V30 4716 H 464.284 -3.77737 -0.449288 0
M  V30 4717 H 465.596 -4.92238 -0.806424 0
M  V30 4718 H 464.75 -5.18684 -3.14724 0
M  V30 4719 H 463.489 -3.95682 -2.85109 0
M  V30 4720 H 462.494 -5.39657 -1.05122 0
M  V30 4721 H 463.719 -6.65103 -1.37169 0
M  V30 4722 H 461.665 -5.62864 -3.36927 0
M  V30 4723 H 461.582 -7.13129 -2.50965 0
M  V30 4724 H 462.85 -6.87637 -3.67118 0
M  V30 4725 N 467.08 -0.0183926 -1.57589 0
M  V30 4726 C 468.328 0.661253 -1.90976 0
M  V30 4727 C 468.649 1.73281 -0.894353 0
M  V30 4728 O 467.919 1.9579 0.0656788 0
M  V30 4729 H 466.499 0.247233 -0.704901 0
M  V30 4730 H 469.161 -0.0636639 -1.94796 0
M  V30 4731 H 468.257 1.12083 -2.9128 0
M  V30 4732 N 468.558 1.5553 0.254621 0
M  V30 4733 C 469.521 1.88872 1.29846 0
M  V30 4734 C 470.521 0.764591 1.41459 0
M  V30 4735 O 471.711 1.03265 1.40293 0
M  V30 4736 C 468.843 2.11032 2.67728 0
M  V30 4737 H 470.036 2.82201 1.01502 0
M  V30 4738 H 467.589 1.48303 0.493556 0
M  V30 4739 H 468.324 1.20146 3.01223 0
M  V30 4740 H 468.109 2.92895 2.60682 0
M  V30 4741 H 469.599 2.38038 3.43115 0
M  V30 4742 N 470.036 -0.519951 1.48776 0
M  V30 4743 C 471.282 -1.27711 1.57536 0
M  V30 4744 C 471.615 -1.92547 0.252866 0
M  V30 4745 O 470.89 -1.7979 -0.742021 0
M  V30 4746 C 471.173 -2.35875 2.72094 0
M  V30 4747 C 471.026 -1.75664 4.1408 0
M  V30 4748 C 472.345 -3.37575 2.82367 0
M  V30 4749 H 469.464 -0.462971 0.573434 0
M  V30 4750 H 472.106 -0.578194 1.80989 0
M  V30 4751 H 470.256 -2.95488 2.52228 0
M  V30 4752 H 471.928 -1.20025 4.45412 0
M  V30 4753 H 470.171 -1.06154 4.20611 0
M  V30 4754 H 470.842 -2.54029 4.90075 0
M  V30 4755 H 473.318 -2.87929 3.00393 0
M  V30 4756 H 472.194 -4.1064 3.64233 0
M  V30 4757 H 472.455 -3.98743 1.90936 0
M  V30 4758 N 471.514 -1.37532 -0.769588 0
M  V30 4759 C 472.744 -1.35861 -1.55645 0
M  V30 4760 C 473.152 0.0574398 -1.89113 0
M  V30 4761 O 472.495 1.03021 -1.52093 0
M  V30 4762 C 472.557 -2.13431 -2.89288 0
M  V30 4763 C 472.221 -3.62378 -2.78444 0
M  V30 4764 C 473.218 -4.56215 -2.49326 0
M  V30 4765 C 470.903 -4.05529 -2.96398 0
M  V30 4766 C 472.897 -5.91181 -2.38294 0
M  V30 4767 C 470.584 -5.40579 -2.84987 0
M  V30 4768 C 471.582 -6.33218 -2.55975 0
M  V30 4769 O 471.27 -7.65787 -2.44594 0
M  V30 4770 H 471.002 -0.467001 -0.48876 0
M  V30 4771 H 473.556 -1.81505 -0.961515 0
M  V30 4772 H 471.786 -1.62481 -3.50909 0
M  V30 4773 H 473.475 -2.04368 -3.50697 0
M  V30 4774 H 474.241 -4.24187 -2.35139 0
M  V30 4775 H 470.12 -3.33781 -3.1798 0
M  V30 4776 H 473.664 -6.63457 -2.15571 0
M  V30 4777 H 469.561 -5.72209 -2.98743 0
M  V30 4778 H 470.329 -7.76132 -2.59927 0
M  V30 4779 N 472.992 0.995999 -1.22138 0
M  V30 4780 C 474.24 1.73167 -1.042 0
M  V30 4781 C 474.561 1.90329 0.42423 0
M  V30 4782 O 473.831 1.4607 1.30539 0
M  V30 4783 H 472.411 0.641593 -0.38258 0
M  V30 4784 H 475.073 1.19974 -1.53598 0
M  V30 4785 H 474.169 2.72734 -1.51731 0
M  V30 4786 N 474.47 1.03057 1.19235 0
M  V30 4787 C 475.718 0.726581 1.88587 0
M  V30 4788 C 476.039 -0.747227 1.80115 0
M  V30 4789 O 475.309 -1.53849 1.21274 0
M  V30 4790 H 473.889 0.265768 0.698124 0
M  V30 4791 H 476.551 1.30516 1.44746 0
M  V30 4792 H 475.647 1.0224 2.94879 0
M  V30 4793 N 475.948 -1.35272 0.808662 0
M  V30 4794 C 477.195 -1.98709 0.390003 0
M  V30 4795 C 477.523 -1.64148 -1.04335 0
M  V30 4796 O 476.778 -0.897797 -1.73891 0
M  V30 4797 C 477.077 -3.53556 0.522798 0
M  V30 4798 C 476.743 -4.0799 1.91977 0
M  V30 4799 C 475.405 -4.22568 2.30195 0
M  V30 4800 C 477.757 -4.37442 2.83361 0
M  V30 4801 C 475.085 -4.63918 3.59162 0
M  V30 4802 C 477.437 -4.80232 4.11776 0
M  V30 4803 C 476.101 -4.93016 4.49991 0
M  V30 4804 H 475.371 -0.727127 0.142712 0
M  V30 4805 H 478.018 -1.6145 1.02985 0
M  V30 4806 H 476.323 -3.91287 -0.200494 0
M  V30 4807 H 478.02 -4.00598 0.179608 0
M  V30 4808 H 474.61 -3.97096 1.61284 0
M  V30 4809 H 478.794 -4.25731 2.55083 0
M  V30 4810 H 474.05 -4.72005 3.88615 0
M  V30 4811 H 478.224 -5.01982 4.82687 0
M  V30 4812 H 475.851 -5.24814 5.49976 0
M  V30 4813 N 477.426 -0.562348 -1.47226 0
M  V30 4814 C 478.373 0.182461 -2.30078 0
M  V30 4815 C 479.343 0.903503 -1.39377 0
M  V30 4816 O 480.528 0.898188 -1.68337 0
M  V30 4817 C 477.668 1.20322 -3.23445 0
M  V30 4818 C 476.781 0.487717 -4.29238 0
M  V30 4819 C 475.916 1.49422 -5.09752 0
M  V30 4820 C 474.955 0.763976 -6.07314 0
M  V30 4821 N 474.092 1.71755 -6.80768 0
M  V30 4822 H 478.932 -0.530169 -2.93246 0
M  V30 4823 H 476.469 -0.273276 -1.44539 0
M  V30 4824 H 478.427 1.80768 -3.76004 0
M  V30 4825 H 477.057 1.88382 -2.6213 0
M  V30 4826 H 476.109 -0.231374 -3.79696 0
M  V30 4827 H 477.421 -0.0841003 -4.98729 0
M  V30 4828 H 476.575 2.17206 -5.66486 0
M  V30 4829 H 475.314 2.09995 -4.40174 0
M  V30 4830 H 474.319 0.0722344 -5.49753 0
M  V30 4831 H 475.544 0.16391 -6.78902 0
M  V30 4832 H 473.49 2.31177 -6.13916 0
M  V30 4833 H 473.407 1.19802 -7.46447 0
M  V30 4834 H 474.675 2.38638 -7.42073 0
M  V30 4835 N 478.904 1.54736 -0.299062 0
M  V30 4836 C 480.129 2.04975 0.316254 0
M  V30 4837 C 480.554 1.17501 1.46885 0
M  V30 4838 O 479.912 0.178678 1.80417 0
M  V30 4839 C 479.96 3.52672 0.751997 0
M  V30 4840 O 479.064 3.68226 1.85697 0
M  V30 4841 H 478.405 0.661126 0.0617175 0
M  V30 4842 H 480.935 1.99805 -0.440341 0
M  V30 4843 H 480.945 3.94488 1.04133 0
M  V30 4844 H 479.62 4.158 -0.0911482 0
M  V30 4845 H 478.197 3.38316 1.56834 0
M  V30 4846 N 480.382 0.0267497 1.57577 0
M  V30 4847 C 481.329 -0.955894 2.10075 0
M  V30 4848 C 482.299 -1.32453 1.00226 0
M  V30 4849 O 483.484 -1.41826 1.27632 0
M  V30 4850 C 480.624 -2.2338 2.6305 0
M  V30 4851 C 479.737 -1.92183 3.86898 0
M  V30 4852 C 478.872 -3.14251 4.28275 0
M  V30 4853 C 477.911 -2.78862 5.44888 0
M  V30 4854 N 477.048 -3.93548 5.81433 0
M  V30 4855 H 481.888 -0.501303 2.93753 0
M  V30 4856 H 479.425 -0.235847 1.45197 0
M  V30 4857 H 481.383 -2.98124 2.91853 0
M  V30 4858 H 480.013 -2.6646 1.82205 0
M  V30 4859 H 479.065 -1.07692 3.64838 0
M  V30 4860 H 480.377 -1.62117 4.7172 0
M  V30 4861 H 479.531 -3.97317 4.58502 0
M  V30 4862 H 478.27 -3.47476 3.42215 0
M  V30 4863 H 477.275 -1.94208 5.14357 0
M  V30 4864 H 478.5 -2.46855 6.32645 0
M  V30 4865 H 476.446 -4.2662 4.98328 0
M  V30 4866 H 476.363 -3.67098 6.6089 0
M  V30 4867 H 477.631 -4.77325 6.16264 0
M  V30 4868 N 481.861 -1.55662 -0.24637 0
M  V30 4869 C 482.771 -1.93495 -1.32653 0
M  V30 4870 C 483.787 -0.835462 -1.5263 0
M  V30 4871 O 484.963 -1.1369 -1.66242 0
M  V30 4872 C 482.028 -2.22242 -2.66101 0
M  V30 4873 C 481.089 -3.45625 -2.54641 0
M  V30 4874 C 480.322 -3.72991 -3.81724 0
M  V30 4875 O 480.545 -3.02421 -4.8363 0
M  V30 4876 O 479.479 -4.66515 -3.80325 0
M  V30 4877 H 483.305 -2.85498 -1.03559 0
M  V30 4878 H 480.89 -1.42551 -0.44717 0
M  V30 4879 H 482.772 -2.42037 -3.44958 0
M  V30 4880 H 481.447 -1.33417 -2.94926 0
M  V30 4881 H 480.354 -3.31136 -1.74067 0
M  V30 4882 H 481.687 -4.34754 -2.3076 0
M  V30 4883 N 483.339 0.512053 -1.4905 0
M  V30 4884 C 484.587 1.26436 -1.57665 0
M  V30 4885 C 484.908 1.93255 -0.260293 0
M  V30 4886 O 484.178 1.82206 0.719564 0
M  V30 4887 H 482.758 0.469658 -0.580888 0
M  V30 4888 H 485.42 0.594398 -1.85615 0
M  V30 4889 H 484.516 2.03417 -2.36702 0
M  V30 4890 N 484.817 1.37938 0.762283 0
M  V30 4891 C 486.066 1.32989 1.51647 0
M  V30 4892 C 486.379 -0.0802922 1.95435 0
M  V30 4893 O 487.585 -0.252295 2.70325 0
M  V30 4894 C 486.041 2.33485 2.73885 0
M  V30 4895 C 485.649 3.80079 2.37157 0
M  V30 4896 C 487.393 2.37563 3.51801 0
M  V30 4897 C 485.3 4.72283 3.55954 0
M  V30 4898 H 484.23 0.494301 0.56937 0
M  V30 4899 H 486.881 1.63448 0.834083 0
M  V30 4900 H 485.263 1.96056 3.44061 0
M  V30 4901 H 486.437 4.26398 1.74704 0
M  V30 4902 H 484.752 3.79037 1.72395 0
M  V30 4903 H 487.349 3.0365 4.40114 0
M  V30 4904 H 487.692 1.39199 3.92338 0
M  V30 4905 H 488.225 2.73747 2.8863 0
M  V30 4906 H 484.964 5.7181 3.2049 0
M  V30 4907 H 484.484 4.30663 4.1748 0
M  V30 4908 H 486.163 4.89876 4.22647 0
M  V30 4909 N 486.295 -0.989507 1.22664 0
M  V30 4910 C 487.706 -1.54406 1.04955 0
M  V30 4911 C 488.057 -1.92366 -0.385951 0
M  V30 4912 O 487.182 -1.75111 -1.27142 0
M  V30 4913 C 487.777 -2.80578 1.89899 0
M  V30 4914 C 486.336 -3.32464 1.76478 0
M  V30 4915 C 485.483 -2.05524 1.86159 0
M  V30 4916 H 488.434 -0.810211 1.3646 0
M  V30 4917 H 488.455 -3.53075 1.4184 0
M  V30 4918 H 487.967 -2.52918 2.94371 0
M  V30 4919 H 486.068 -3.65024 0.747528 0
M  V30 4920 H 486.181 -4.02838 2.59342 0
M  V30 4921 H 484.545 -2.19241 1.29636 0
M  V30 4922 H 485.328 -1.80258 2.92168 0
M  V30 4923 N 487.773 -1.03688 -1.18687 0
M  V30 4924 C 488.72 -0.624624 -2.22187 0
M  V30 4925 C 489.69 0.365636 -1.62026 0
M  V30 4926 O 490.875 0.260481 -1.89014 0
M  V30 4927 C 488.015 0.0101738 -3.45099 0
M  V30 4928 C 487.128 -1.02709 -4.19613 0
M  V30 4929 C 486.263 -0.361213 -5.2997 0
M  V30 4930 C 485.302 -1.38384 -5.96252 0
M  V30 4931 N 484.439 -0.743196 -6.98155 0
M  V30 4932 H 489.279 -1.51176 -2.56807 0
M  V30 4933 H 486.816 -0.75636 -1.26165 0
M  V30 4934 H 488.774 0.395528 -4.15321 0
M  V30 4935 H 487.404 0.860848 -3.1111 0
M  V30 4936 H 486.456 -1.53043 -3.48256 0
M  V30 4937 H 487.768 -1.80398 -4.65036 0
M  V30 4938 H 486.922 0.0785537 -6.06649 0
M  V30 4939 H 485.661 0.447799 -4.8564 0
M  V30 4940 H 484.666 -1.83378 -5.18317 0
M  V30 4941 H 485.891 -2.19448 -6.42666 0
M  V30 4942 H 483.837 0.0455789 -6.55984 0
M  V30 4943 H 483.754 -1.45784 -7.41811 0
M  V30 4944 H 485.022 -0.327698 -7.78811 0
M  V30 4945 N 489.251 1.34841 -0.815825 0
M  V30 4946 C 490.181 2.32187 -0.247298 0
M  V30 4947 C 491.162 1.5791 0.632344 0
M  V30 4948 O 492.347 1.8593 0.560698 0
M  V30 4949 C 489.477 3.42122 0.597466 0
M  V30 4950 C 488.431 4.27602 -0.184446 0
M  V30 4951 C 487.757 5.28942 0.782609 0
M  V30 4952 C 489.057 5.03502 -1.38865 0
M  V30 4953 H 490.751 2.79985 -1.06061 0
M  V30 4954 H 488.297 1.34611 -0.511461 0
M  V30 4955 H 490.25 4.09232 1.00533 0
M  V30 4956 H 488.974 2.92956 1.44376 0
M  V30 4957 H 487.633 3.62085 -0.573592 0
M  V30 4958 H 487.281 4.7604 1.62466 0
M  V30 4959 H 486.981 5.87008 0.263695 0
M  V30 4960 H 488.505 5.98922 1.18848 0
M  V30 4961 H 489.919 5.63506 -1.05518 0
M  V30 4962 H 488.316 5.71108 -1.8427 0
M  V30 4963 H 489.386 4.33608 -2.17054 0
M  V30 4964 N 490.729 0.570148 1.46925 0
M  V30 4965 C 491.975 0.0510284 2.02736 0
M  V30 4966 C 492.308 -1.3006 1.44215 0
M  V30 4967 O 491.583 -1.84932 0.602521 0
M  V30 4968 C 491.866 -0.028215 3.60089 0
M  V30 4969 C 491.719 1.35142 4.29018 0
M  V30 4970 C 493.038 -0.735181 4.33916 0
M  V30 4971 H 490.157 0.0200178 0.736728 0
M  V30 4972 H 492.799 0.73493 1.75211 0
M  V30 4973 H 490.949 -0.610648 3.83671 0
M  V30 4974 H 492.621 1.97806 4.16738 0
M  V30 4975 H 490.864 1.9226 3.88868 0
M  V30 4976 H 491.535 1.24857 5.37694 0
M  V30 4977 H 494.011 -0.240519 4.15404 0
M  V30 4978 H 492.887 -0.759622 5.43618 0
M  V30 4979 H 493.148 -1.79397 4.04066 0
M  V30 4980 N 492.207 -1.54576 0.307264 0
M  V30 4981 C 493.17 -2.22423 -0.553224 0
M  V30 4982 C 494.17 -1.21231 -1.05639 0
M  V30 4983 O 495.36 -1.45923 -0.951419 0
M  V30 4984 C 492.492 -2.91552 -1.76664 0
M  V30 4985 H 493.685 -2.99874 0.0396484 0
M  V30 4986 H 491.238 -1.56192 0.0581629 0
M  V30 4987 H 491.973 -2.18196 -2.39918 0
M  V30 4988 H 491.758 -3.65738 -1.41343 0
M  V30 4989 H 493.248 -3.43292 -2.37783 0
M  V30 4990 N 493.685 -0.035106 -1.57561 0
M  V30 4991 C 494.962 0.681212 -1.83354 0
M  V30 4992 C 495.342 1.89986 -0.920252 0
M  V30 4993 O 494.69 2.28489 0.0226815 0
M  V30 4994 C 494.9 1.05376 -3.32712 0
M  V30 4995 C 496.248 1.44286 -3.99333 0
M  V30 4996 O 497.272 1.14656 -3.37242 0
M  V30 4997 O 496.131 1.99518 -5.08778 0
M  V30 4998 H 493.225 0.334741 -0.756226 0
M  V30 4999 H 495.771 -0.0632448 -1.69582 0
M  V30 5000 H 494.543 0.186668 -3.90854 0
M  V30 5001 H 494.166 1.85619 -3.51613 0
M  V30 5002 N 495.163 1.55791 0.238111 0
M  V30 5003 C 496.41 1.78033 0.964907 0
M  V30 5004 C 496.738 0.600984 1.84982 0
M  V30 5005 O 495.993 -0.41536 1.91241 0
M  V30 5006 C 496.292 3.05869 1.84875 0
M  V30 5007 C 495.958 4.36808 1.11846 0
M  V30 5008 C 494.62 4.72388 0.916662 0
M  V30 5009 C 496.972 5.17717 0.60151 0
M  V30 5010 C 494.3 5.86406 0.185756 0
M  V30 5011 C 496.652 6.32494 -0.115972 0
M  V30 5012 C 495.316 6.66688 -0.329168 0
M  V30 5013 H 494.586 0.651469 0.353085 0
M  V30 5014 H 497.233 1.90061 0.234318 0
M  V30 5015 H 495.538 2.88891 2.64668 0
M  V30 5016 H 497.235 3.20278 2.41294 0
M  V30 5017 H 493.825 4.08862 1.28569 0
M  V30 5018 H 498.009 4.90678 0.744932 0
M  V30 5019 H 493.265 6.11399 0.0101886 0
M  V30 5020 H 497.439 6.94425 -0.524127 0
M  V30 5021 H 495.066 7.54884 -0.897474 0
M  V30 5022 N 496.642 -0.504142 1.49319 0
M  V30 5023 C 497.575 -1.62361 1.60356 0
M  V30 5024 C 498.553 -1.56169 0.45277 0
M  V30 5025 O 499.737 -1.76271 0.667892 0
M  V30 5026 C 496.864 -3.00864 1.55559 0
M  V30 5027 C 495.91 -3.25328 2.75797 0
M  V30 5028 S 496.743 -3.08791 4.37503 0
M  V30 5029 C 497.899 -4.49695 4.35345 0
M  V30 5030 H 498.132 -1.52753 2.55056 0
M  V30 5031 H 495.665 -0.689065 1.38171 0
M  V30 5032 H 497.623 -3.8073 1.53477 0
M  V30 5033 H 496.284 -3.0789 0.621515 0
M  V30 5034 H 495.477 -4.2643 2.68651 0
M  V30 5035 H 495.079 -2.53179 2.75275 0
M  V30 5036 H 497.371 -5.41721 4.06871 0
M  V30 5037 H 498.314 -4.61891 5.36714 0
M  V30 5038 H 498.722 -4.30227 3.65465 0
M  V30 5039 N 498.12 -1.38341 -0.754957 0
M  V30 5040 C 499.083 -1.35262 -1.85032 0
M  V30 5041 C 500.083 -0.253393 -1.58791 0
M  V30 5042 O 501.273 -0.510205 -1.66561 0
M  V30 5043 C 498.405 -1.10544 -3.22479 0
M  V30 5044 H 499.598 -2.32712 -1.8917 0
M  V30 5045 H 497.151 -1.23614 -0.956515 0
M  V30 5046 H 497.886 -0.136952 -3.24011 0
M  V30 5047 H 497.671 -1.90127 -3.4292 0
M  V30 5048 H 499.161 -1.11082 -4.02555 0
M  V30 5049 N 499.598 0.982988 -1.23187 0
M  V30 5050 C 500.545 2.07491 -1.01075 0
M  V30 5051 C 501.515 1.65949 0.070905 0
M  V30 5052 O 502.7 1.90629 -0.0806822 0
M  V30 5053 C 499.84 3.39751 -0.605261 0
M  V30 5054 C 498.953 3.94578 -1.75876 0
M  V30 5055 C 498.088 5.15039 -1.3003 0
M  V30 5056 C 497.127 5.62027 -2.42472 0
M  V30 5057 N 496.264 6.73719 -1.97602 0
M  V30 5058 H 501.104 2.25739 -1.9454 0
M  V30 5059 H 498.641 1.10659 -0.969179 0
M  V30 5060 H 500.599 4.15719 -0.351279 0
M  V30 5061 H 499.229 3.21473 0.292382 0
M  V30 5062 H 498.281 3.1539 -2.12681 0
M  V30 5063 H 499.593 4.25422 -2.60418 0
M  V30 5064 H 498.747 5.9833 -1.00429 0
M  V30 5065 H 497.486 4.85843 -0.425216 0
M  V30 5066 H 496.491 4.77318 -2.7285 0
M  V30 5067 H 497.716 5.93244 -3.30512 0
M  V30 5068 H 495.662 6.46287 -1.1247 0
M  V30 5069 H 495.579 7.03934 -2.75705 0
M  V30 5070 H 496.847 7.6049 -1.71098 0
M  V30 5071 N 501.076 1.04316 1.18135 0
M  V30 5072 C 502.023 0.636398 2.21853 0
M  V30 5073 C 502.993 -0.357039 1.62217 0
M  V30 5074 O 504.178 -0.250453 1.89149 0
M  V30 5075 C 501.318 0.00812779 3.45099 0
M  V30 5076 C 500.431 1.04933 4.19062 0
M  V30 5077 C 499.566 0.389313 5.29771 0
M  V30 5078 C 498.605 1.41544 5.9551 0
M  V30 5079 N 497.742 0.78021 6.97751 0
M  V30 5080 H 502.582 1.52536 2.56002 0
M  V30 5081 H 500.119 0.76304 1.25762 0
M  V30 5082 H 502.077 -0.373497 4.15525 0
M  V30 5083 H 500.707 -0.844336 3.11562 0
M  V30 5084 H 499.759 1.54888 3.47439 0
M  V30 5085 H 501.071 1.82862 4.64072 0
M  V30 5086 H 500.225 -0.0463805 6.06682 0
M  V30 5087 H 498.964 -0.422038 4.8587 0
M  V30 5088 H 497.969 1.86124 5.17337 0
M  V30 5089 H 499.194 2.22854 6.41493 0
M  V30 5090 H 497.14 -0.0107899 6.55999 0
M  V30 5091 H 497.057 1.49716 7.41027 0
M  V30 5092 H 498.325 0.368996 7.78626 0
M  V30 5093 N 502.554 -1.34406 0.822964 0
M  V30 5094 C 503.801 -1.98284 0.411057 0
M  V30 5095 C 504.129 -1.65245 -1.02588 0
M  V30 5096 O 503.384 -0.91619 -1.72929 0
M  V30 5097 C 503.683 -3.52981 0.560268 0
M  V30 5098 C 503.349 -4.05931 1.96293 0
M  V30 5099 C 502.011 -4.20103 2.34664 0
M  V30 5100 C 504.363 -4.34412 2.87985 0
M  V30 5101 C 501.691 -4.60082 3.64062 0
M  V30 5102 C 504.043 -4.75838 4.16847 0
M  V30 5103 C 502.707 -4.88215 4.55195 0
M  V30 5104 H 501.977 -0.725573 0.150416 0
M  V30 5105 H 504.624 -1.60349 1.04692 0
M  V30 5106 H 502.929 -3.91477 -0.158982 0
M  V30 5107 H 504.626 -4.00385 0.222087 0
M  V30 5108 H 501.216 -3.95363 1.65487 0
M  V30 5109 H 505.4 -4.23001 2.59584 0
M  V30 5110 H 500.656 -4.67856 3.93599 0
M  V30 5111 H 504.83 -4.96834 4.87984 0
M  V30 5112 H 502.457 -5.18952 5.55512 0
M  V30 5113 N 504.032 -0.577932 -1.46621 0
M  V30 5114 C 505.257 -0.0652536 -2.07297 0
M  V30 5115 C 505.682 1.22828 -1.4246 0
M  V30 5116 O 505.04 1.74075 -0.506718 0
M  V30 5117 C 505.088 0.0920589 -3.60482 0
M  V30 5118 O 504.192 1.14972 -3.96049 0
M  V30 5119 H 503.533 -0.06065 -0.661224 0
M  V30 5120 H 506.063 -0.799515 -1.88332 0
M  V30 5121 H 506.073 0.299741 -4.06897 0
M  V30 5122 H 504.748 -0.852612 -4.07067 0
M  V30 5123 H 503.325 0.920879 -3.61351 0
M  V30 5124 N 505.51 1.54411 -0.315457 0
M  V30 5125 C 506.44 2.27002 0.547039 0
M  V30 5126 C 507.421 1.27492 1.12605 0
M  V30 5127 O 508.606 1.5629 1.15269 0
M  V30 5128 C 505.736 3.02171 1.71201 0
M  V30 5129 C 504.69 4.0895 1.26268 0
M  V30 5130 C 504.016 4.71915 2.51396 0
M  V30 5131 C 505.316 5.20891 0.383419 0
M  V30 5132 H 507.01 2.99343 -0.0584517 0
M  V30 5133 H 504.556 1.4397 -0.0295527 0
M  V30 5134 H 506.509 3.51681 2.32161 0
M  V30 5135 H 505.233 2.27433 2.34397 0
M  V30 5136 H 503.892 3.60312 0.676062 0
M  V30 5137 H 503.54 3.93801 3.12937 0
M  V30 5138 H 503.24 5.44039 2.22026 0
M  V30 5139 H 504.764 5.24195 3.13133 0
M  V30 5140 H 506.178 5.66206 0.899082 0
M  V30 5141 H 504.575 5.99821 0.182857 0
M  V30 5142 H 505.645 4.81324 -0.587821 0
M  V30 5143 N 506.988 0.0434614 1.5754 0
M  V30 5144 C 508.265 -0.671479 1.83713 0
M  V30 5145 C 508.645 -1.89495 0.930315 0
M  V30 5146 O 507.993 -2.28498 -0.0105639 0
M  V30 5147 C 508.203 -1.0361 3.33266 0
M  V30 5148 C 509.551 -1.42167 4.00092 0
M  V30 5149 O 510.575 -1.12866 3.37846 0
M  V30 5150 O 509.434 -1.96817 5.09829 0
M  V30 5151 H 506.528 -0.330726 0.75799 0
M  V30 5152 H 509.074 0.0722373 1.69546 0
M  V30 5153 H 507.846 -0.165938 3.90948 0
M  V30 5154 H 507.469 -1.83751 3.52592 0
M  V30 5155 N 508.466 -1.55915 -0.229846 0
M  V30 5156 C 509.429 -1.90914 -1.26824 0
M  V30 5157 C 510.429 -0.786999 -1.40225 0
M  V30 5158 O 511.619 -1.05484 -1.38632 0
M  V30 5159 C 508.751 -2.15264 -2.64337 0
M  V30 5160 H 509.944 -2.8378 -0.969998 0
M  V30 5161 H 507.497 -1.49069 -0.4699 0
M  V30 5162 H 508.232 -1.24923 -2.99274 0
M  V30 5163 H 508.017 -2.97005 -2.55989 0
M  V30 5164 H 509.507 -2.43467 -3.39284 0
M  V30 5165 N 509.944 0.496216 -1.49584 0
M  V30 5166 C 510.874 1.60576 -1.69521 0
M  V30 5167 C 511.855 1.61169 -0.543933 0
M  V30 5168 O 513.04 1.77834 -0.78031 0
M  V30 5169 C 510.17 2.99038 -1.76616 0
M  V30 5170 C 509.124 3.13312 -2.91581 0
M  V30 5171 C 508.45 4.53172 -2.83794 0
M  V30 5172 C 509.75 2.92886 -4.32452 0
M  V30 5173 H 511.444 1.44146 -2.62416 0
M  V30 5174 H 508.99 0.692024 -1.26282 0
M  V30 5175 H 510.943 3.76564 -1.8915 0
M  V30 5176 H 509.667 3.16568 -0.80324 0
M  V30 5177 H 508.326 2.38213 -2.78658 0
M  V30 5178 H 507.974 4.67585 -1.854 0
M  V30 5179 H 507.674 4.63662 -3.60958 0
M  V30 5180 H 509.198 5.32752 -2.98342 0
M  V30 5181 H 510.612 3.60178 -4.46032 0
M  V30 5182 H 509.009 3.14844 -5.10875 0
M  V30 5183 H 510.079 1.88966 -4.46565 0
M  V30 5184 N 511.423 1.38739 0.74761 0
M  V30 5185 C 512.672 1.3459 1.50228 0
M  V30 5186 C 512.985 -0.0595592 1.95509 0
M  V30 5187 O 514.191 -0.22361 2.70578 0
M  V30 5188 C 512.647 2.36377 2.71393 0
M  V30 5189 C 512.255 3.82573 2.33113 0
M  V30 5190 C 513.999 2.41281 3.49262 0
M  V30 5191 C 511.906 4.76032 3.50924 0
M  V30 5192 H 510.836 0.500312 0.564096 0
M  V30 5193 H 513.487 1.64324 0.8167 0
M  V30 5194 H 511.869 1.99694 3.41962 0
M  V30 5195 H 513.043 4.28227 1.70171 0
M  V30 5196 H 511.358 3.80844 1.68365 0
M  V30 5197 H 513.955 3.08301 4.36869 0
M  V30 5198 H 514.298 1.43353 3.9084 0
M  V30 5199 H 514.831 2.76793 2.85711 0
M  V30 5200 H 511.57 5.75177 3.14408 0
M  V30 5201 H 511.09 4.35066 4.12889 0
M  V30 5202 H 512.769 4.94331 4.17427 0
M  V30 5203 N 512.901 -0.976442 1.23707 0
M  V30 5204 C 514.129 -1.75341 1.09833 0
M  V30 5205 C 514.544 -1.8553 -0.349885 0
M  V30 5206 O 513.901 -1.33732 -1.24185 0
M  V30 5207 C 513.952 -3.17833 1.72233 0
M  V30 5208 O 513.673 -3.08167 3.11391 0
M  V30 5209 C 515.174 -4.11906 1.63853 0
M  V30 5210 H 512.394 -0.550137 0.384175 0
M  V30 5211 H 514.938 -1.2265 1.63638 0
M  V30 5212 H 513.093 -3.67538 1.22452 0
M  V30 5213 H 513.507 -3.97897 3.41729 0
M  V30 5214 H 514.981 -5.09579 2.12211 0
M  V30 5215 H 515.458 -4.35109 0.598092 0
M  V30 5216 H 516.064 -3.68107 2.13019 0
M  V30 5217 N 514.379 -1.04941 -1.1758 0
M  V30 5218 C 515.329 -0.618378 -2.19454 0
M  V30 5219 C 516.313 0.343813 -1.57184 0
M  V30 5220 O 517.505 0.16145 -1.76262 0
M  V30 5221 C 514.634 0.00803847 -3.43299 0
M  V30 5222 C 513.72 -0.977827 -4.12673 0
M  V30 5223 N 514.111 -2.14826 -4.57912 0
M  V30 5224 C 512.409 -0.805748 -4.38661 0
M  V30 5225 C 513.11 -2.77174 -5.11419 0
M  V30 5226 N 512.086 -2.04989 -5.03468 0
M  V30 5227 H 515.888 -1.51018 -2.52132 0
M  V30 5228 H 513.402 -0.919201 -1.33882 0
M  V30 5229 H 515.399 0.334584 -4.15555 0
M  V30 5230 H 514.059 0.895272 -3.12114 0
M  V30 5231 H 515.07 -2.52673 -4.52081 0
M  V30 5232 H 511.747 0.0306506 -4.17489 0
M  V30 5233 H 513.137 -3.76416 -5.56562 0
M  V30 5234 N 515.857 1.33968 -0.830081 0
M  V30 5235 C 517.103 1.98357 -0.422191 0
M  V30 5236 C 517.436 1.65633 1.01387 0
M  V30 5237 O 516.711 0.931648 1.70735 0
M  V30 5238 C 516.994 3.54492 -0.633043 0
M  V30 5239 C 516.847 3.96934 -2.11574 0
M  V30 5240 C 518.166 4.40039 -0.0735584 0
M  V30 5241 H 515.285 0.720544 -0.154871 0
M  V30 5242 H 517.927 1.58749 -1.04397 0
M  V30 5243 H 516.077 3.88361 -0.103775 0
M  V30 5244 H 517.749 3.73363 -2.7092 0
M  V30 5245 H 515.992 3.46984 -2.60354 0
M  V30 5246 H 516.663 5.05651 -2.21406 0
M  V30 5247 H 519.139 4.12764 -0.52585 0
M  V30 5248 H 518.015 5.48327 -0.250841 0
M  V30 5249 H 518.276 4.30124 1.02202 0
M  V30 5250 N 517.335 0.585699 1.46312 0
M  V30 5251 C 518.265 -0.133556 2.33118 0
M  V30 5252 C 519.246 -0.880707 1.45525 0
M  V30 5253 O 520.431 -0.855579 1.74337 0
M  V30 5254 C 517.561 -1.14585 3.27853 0
M  V30 5255 C 516.515 -0.513341 4.2491 0
M  V30 5256 C 515.841 -1.63231 5.09175 0
M  V30 5257 C 517.141 0.551413 5.19381 0
M  V30 5258 H 518.835 0.59121 2.93505 0
M  V30 5259 H 516.381 0.285761 1.41136 0
M  V30 5260 H 518.334 -1.65741 3.87438 0
M  V30 5261 H 517.058 -1.90093 2.65579 0
M  V30 5262 H 515.717 -0.0228349 3.66593 0
M  V30 5263 H 515.365 -2.37713 4.43285 0
M  V30 5264 H 515.065 -1.21473 5.74907 0
M  V30 5265 H 516.589 -2.14658 5.71624 0
M  V30 5266 H 518.003 0.124804 5.73164 0
M  V30 5267 H 516.4 0.889486 5.93471 0
M  V30 5268 H 517.47 1.43655 4.63132 0
M  V30 5269 N 518.813 -1.54241 0.323641 0
M  V30 5270 C 520.224 -1.85975 -0.164405 0
M  V30 5271 C 520.575 -1.24529 -1.51615 0
M  V30 5272 O 519.7 -0.551351 -2.09258 0
M  V30 5273 C 520.295 -3.37424 -0.305091 0
M  V30 5274 C 518.854 -3.69107 -0.737358 0
M  V30 5275 C 518.001 -2.76942 0.140884 0
M  V30 5276 H 520.952 -1.49088 0.543922 0
M  V30 5277 H 520.973 -3.63147 -1.13598 0
M  V30 5278 H 520.485 -3.82116 0.678876 0
M  V30 5279 H 518.586 -3.29947 -1.73107 0
M  V30 5280 H 518.699 -4.76035 -0.541053 0
M  V30 5281 H 517.063 -2.51795 -0.383572 0
M  V30 5282 H 517.846 -3.24461 1.12162 0
M  V30 5283 N 520.291 -0.0518155 -1.57515 0
M  V30 5284 C 521.538 0.621823 -1.92716 0
M  V30 5285 C 521.866 1.70813 -0.930229 0
M  V30 5286 O 521.121 1.95616 0.0573708 0
M  V30 5287 C 521.42 1.25607 -3.34601 0
M  V30 5288 C 521.086 0.297901 -4.49915 0
M  V30 5289 C 519.748 0.034243 -4.81188 0
M  V30 5290 C 522.1 -0.358738 -5.19964 0
M  V30 5291 C 519.428 -0.893479 -5.79857 0
M  V30 5292 C 521.78 -1.27466 -6.19625 0
M  V30 5293 C 520.444 -1.54698 -6.49326 0
M  V30 5294 H 519.714 0.227541 -0.705199 0
M  V30 5295 H 522.361 -0.118432 -1.91133 0
M  V30 5296 H 520.666 2.07161 -3.32553 0
M  V30 5297 H 522.363 1.78424 -3.59118 0
M  V30 5298 H 518.953 0.513581 -4.25512 0
M  V30 5299 H 523.137 -0.168133 -4.96015 0
M  V30 5300 H 518.393 -1.11193 -6.01204 0
M  V30 5301 H 522.567 -1.78953 -6.73015 0
M  V30 5302 H 520.194 -2.26748 -7.25596 0
M  V30 5303 N 521.769 1.56035 0.221574 0
M  V30 5304 C 522.679 1.95581 1.29558 0
M  V30 5305 C 523.695 0.859639 1.51282 0
M  V30 5306 O 524.871 1.16321 1.64413 0
M  V30 5307 C 521.936 2.26447 2.62531 0
M  V30 5308 C 520.997 3.49632 2.4911 0
M  V30 5309 C 520.23 3.79017 3.75742 0
M  V30 5310 O 520.453 3.10077 4.78757 0
M  V30 5311 O 519.387 4.72507 3.72855 0
M  V30 5312 H 523.213 2.8711 0.990035 0
M  V30 5313 H 520.798 1.43244 0.424434 0
M  V30 5314 H 522.68 2.47494 3.41064 0
M  V30 5315 H 521.355 1.38092 2.92766 0
M  V30 5316 H 520.262 3.33864 1.68777 0
M  V30 5317 H 521.595 4.3837 2.23814 0
M  V30 5318 N 523.247 -0.488276 1.49845 0
M  V30 5319 C 524.194 -1.58836 1.67451 0
M  V30 5320 C 525.164 -1.57886 0.515857 0
M  V30 5321 O 526.349 -1.75679 0.744403 0
M  V30 5322 C 523.489 -2.96915 1.75885 0
M  V30 5323 C 522.602 -3.07784 3.03138 0
M  V30 5324 C 521.737 -4.36673 3.02473 0
M  V30 5325 C 520.776 -4.41222 4.24252 0
M  V30 5326 N 519.913 -5.61557 4.21424 0
M  V30 5327 H 524.753 -1.43131 2.61376 0
M  V30 5328 H 522.29 -0.696186 1.29583 0
M  V30 5329 H 524.248 -3.76965 1.78755 0
M  V30 5330 H 522.878 -3.11295 0.85414 0
M  V30 5331 H 521.93 -2.20717 3.09819 0
M  V30 5332 H 523.242 -3.07005 3.93128 0
M  V30 5333 H 522.396 -5.25055 3.03977 0
M  V30 5334 H 521.135 -4.40037 2.10283 0
M  V30 5335 H 520.14 -3.5124 4.22978 0
M  V30 5336 H 521.365 -4.39564 5.17649 0
M  V30 5337 H 519.311 -5.65738 3.32078 0
M  V30 5338 H 519.228 -5.62447 5.05163 0
M  V30 5339 H 520.496 -6.52111 4.2705 0
M  V30 5340 N 524.725 -1.39134 -0.740242 0
M  V30 5341 C 525.974 -1.35384 -1.49512 0
M  V30 5342 C 526.287 0.04919 -1.95538 0
M  V30 5343 O 527.493 0.209257 -2.70692 0
M  V30 5344 C 525.949 -2.37812 -2.70136 0
M  V30 5345 C 525.557 -3.83804 -2.31081 0
M  V30 5346 C 527.301 -2.4313 -3.47977 0
M  V30 5347 C 525.208 -4.77886 -3.48395 0
M  V30 5348 H 524.138 -0.503297 -0.561434 0
M  V30 5349 H 526.789 -1.64754 -0.807974 0
M  V30 5350 H 525.171 -2.01505 -3.40899 0
M  V30 5351 H 526.345 -4.29123 -1.67898 0
M  V30 5352 H 524.66 -3.81732 -1.66343 0
M  V30 5353 H 527.257 -3.10614 -4.35228 0
M  V30 5354 H 527.6 -1.45423 -3.90074 0
M  V30 5355 H 528.133 -2.78304 -2.84239 0
M  V30 5356 H 524.872 -5.76836 -3.11353 0
M  V30 5357 H 524.392 -4.3725 -4.10576 0
M  V30 5358 H 526.071 -4.96538 -4.148 0
M  V30 5359 N 526.204 0.969867 -1.24223 0
M  V30 5360 C 527.152 2.08535 -1.03034 0
M  V30 5361 C 528.146 1.69366 0.0340379 0
M  V30 5362 O 529.352 1.79597 -0.12034 0
M  V30 5363 H 525.727 0.682313 -0.316154 0
M  V30 5364 H 527.698 2.23569 -1.97635 0
M  V30 5365 C 526.447 3.4158 -0.649509 0
M  V30 5366 H 525.77 3.72177 -1.46028 0
M  V30 5367 H 527.21 4.20536 -0.540841 0
M  V30 5368 C 525.669 3.30703 0.643194 0
M  V30 5369 O 526.199 3.64443 1.68951 0
M  V30 5370 N 524.405 2.83841 0.623095 0
M  V30 5371 H 523.952 2.56583 -0.228719 0
M  V30 5372 H 523.91 2.76946 1.48823 0
M  V30 5373 N 527.682 1.05563 1.17022 0
M  V30 5374 C 528.592 0.670758 2.24807 0
M  V30 5375 C 529.608 -0.309865 1.71219 0
M  V30 5376 O 530.784 -0.161025 2.00755 0
M  V30 5377 C 527.849 0.055337 3.46656 0
M  V30 5378 C 526.91 1.08688 4.15314 0
M  V30 5379 C 526.143 0.500736 5.31346 0
M  V30 5380 O 526.366 -0.688718 5.66227 0
M  V30 5381 O 525.3 1.23683 5.89055 0
M  V30 5382 H 529.126 1.56914 2.60023 0
M  V30 5383 H 526.711 0.827428 1.24395 0
M  V30 5384 H 528.593 -0.286492 4.20425 0
M  V30 5385 H 527.268 -0.816638 3.13229 0
M  V30 5386 H 526.175 1.48077 3.43546 0
M  V30 5387 H 527.508 1.93014 4.52777 0
M  V30 5388 N 529.16 -1.33526 0.837174 0
M  V30 5389 C 530.408 -1.97446 0.431211 0
M  V30 5390 C 530.729 -1.6665 -1.01255 0
M  V30 5391 O 529.999 -0.964559 -1.70508 0
M  V30 5392 H 528.579 -0.73043 0.156463 0
M  V30 5393 H 531.241 -1.62918 1.06976 0
M  V30 5394 H 530.337 -3.07001 0.561877 0
M  V30 5395 N 530.638 -0.59345 -1.46 0
M  V30 5396 C 531.885 -0.0831523 -2.02329 0
M  V30 5397 C 532.213 1.28093 -1.46364 0
M  V30 5398 O 531.468 1.85526 -0.622793 0
M  V30 5399 C 531.767 0.021178 -3.57394 0
M  V30 5400 C 531.433 -1.27671 -4.32448 0
M  V30 5401 C 530.095 -1.63227 -4.5267 0
M  V30 5402 C 532.447 -2.13511 -4.7546 0
M  V30 5403 C 529.775 -2.84401 -5.1316 0
M  V30 5404 C 532.127 -3.33922 -5.37289 0
M  V30 5405 C 530.791 -3.69747 -5.55737 0
M  V30 5406 H 530.061 -0.0304276 -0.740375 0
M  V30 5407 H 532.708 -0.772239 -1.75239 0
M  V30 5408 H 531.013 0.793454 -3.83682 0
M  V30 5409 H 532.71 0.431942 -3.98667 0
M  V30 5410 H 529.3 -0.989937 -4.17011 0
M  V30 5411 H 533.484 -1.87344 -4.59582 0
M  V30 5412 H 528.74 -3.12282 -5.25633 0
M  V30 5413 H 532.914 -4.00698 -5.69574 0
M  V30 5414 H 530.541 -4.6373 -6.02377 0
M  V30 5415 N 532.116 1.54067 -0.331816 0
M  V30 5416 C 533.393 1.92915 0.322955 0
M  V30 5417 C 533.773 1.26225 1.69205 0
M  V30 5418 O 533.121 0.408919 2.24811 0
M  V30 5419 C 533.331 3.46619 0.406946 0
M  V30 5420 C 534.679 4.19386 0.663339 0
M  V30 5421 O 535.703 3.5282 0.489536 0
M  V30 5422 O 534.562 5.37288 0.999193 0
M  V30 5423 H 531.656 0.805808 0.186016 0
M  V30 5424 H 534.202 1.65342 -0.382135 0
M  V30 5425 H 532.974 3.87354 -0.554287 0
M  V30 5426 H 532.597 3.80324 1.15929 0
M  V30 5427 N 533.594 0.0601682 1.57485 0
M  V30 5428 C 534.524 -0.90889 2.15085 0
M  V30 5429 C 535.505 -1.31838 1.07484 0
M  V30 5430 O 536.69 -1.3915 1.35466 0
M  V30 5431 C 533.82 -2.18059 2.7031 0
M  V30 5432 C 532.774 -1.91088 3.82974 0
M  V30 5433 C 532.1 -3.24789 4.24754 0
M  V30 5434 C 533.4 -1.22535 5.07723 0
M  V30 5435 H 535.094 -0.429093 2.96309 0
M  V30 5436 H 532.64 -0.204952 1.42534 0
M  V30 5437 H 534.593 -2.86258 3.09248 0
M  V30 5438 H 533.317 -2.6826 1.8629 0
M  V30 5439 H 531.976 -1.25297 3.44523 0
M  V30 5440 H 531.624 -3.72809 3.37672 0
M  V30 5441 H 531.324 -3.07538 5.00694 0
M  V30 5442 H 532.848 -3.94205 4.66299 0
M  V30 5443 H 534.262 -1.80783 5.4405 0
M  V30 5444 H 532.659 -1.1558 5.88864 0
M  V30 5445 H 533.729 -0.202692 4.84476 0
M  V30 5446 N 535.072 -1.5615 -0.213296 0
M  V30 5447 C 536.002 -1.96109 -1.26742 0
M  V30 5448 C 536.983 -0.830448 -1.48451 0
M  V30 5449 O 538.168 -1.09339 -1.60495 0
M  V30 5450 C 535.298 -2.28492 -2.61551 0
M  V30 5451 C 534.252 -3.44124 -2.54485 0
M  V30 5452 C 533.578 -3.62134 -3.93399 0
M  V30 5453 C 534.878 -4.78855 -2.08556 0
M  V30 5454 H 536.572 -2.84412 -0.935434 0
M  V30 5455 H 534.118 -1.36836 -0.44854 0
M  V30 5456 H 536.071 -2.55039 -3.3546 0
M  V30 5457 H 534.795 -1.37052 -2.96453 0
M  V30 5458 H 533.454 -3.17639 -1.83033 0
M  V30 5459 H 533.102 -2.68055 -4.25623 0
M  V30 5460 H 532.802 -4.39913 -3.89551 0
M  V30 5461 H 534.326 -3.91038 -4.68958 0
M  V30 5462 H 535.74 -5.04552 -2.72213 0
M  V30 5463 H 534.137 -5.59975 -2.1575 0
M  V30 5464 H 535.207 -4.73657 -1.03811 0
M  V30 5465 N 536.55 0.480323 -1.50102 0
M  V30 5466 C 537.5 1.57685 -1.6468 0
M  V30 5467 C 538.484 1.52878 -0.5017 0
M  V30 5468 O 539.676 1.60058 -0.755668 0
M  V30 5469 C 536.805 2.96185 -1.73578 0
M  V30 5470 C 535.891 3.0591 -2.93734 0
M  V30 5471 N 536.282 2.85471 -4.1754 0
M  V30 5472 C 534.58 3.37036 -2.92101 0
M  V30 5473 C 535.281 2.99921 -4.9842 0
M  V30 5474 N 534.257 3.29715 -4.32191 0
M  V30 5475 H 538.059 1.40568 -2.58104 0
M  V30 5476 H 535.573 0.686874 -1.47159 0
M  V30 5477 H 537.57 3.75015 -1.82124 0
M  V30 5478 H 536.23 3.14356 -0.813057 0
M  V30 5479 H 537.241 2.61235 -4.47188 0
M  V30 5480 H 533.918 3.61253 -2.09291 0
M  V30 5481 H 535.308 2.88436 -6.06839 0
M  V30 5482 N 538.028 1.39524 0.732853 0
M  V30 5483 C 539.253 1.40329 1.52717 0
M  V30 5484 C 539.678 0.000286574 1.881 0
M  V30 5485 O 539.036 -0.987262 1.52062 0
M  V30 5486 C 539.084 2.28464 2.78992 0
M  V30 5487 O 538.188 1.716 3.75003 0
M  V30 5488 H 537.529 0.47778 0.461109 0
M  V30 5489 H 540.059 1.83546 0.903996 0
M  V30 5490 H 540.069 2.43051 3.27705 0
M  V30 5491 H 538.744 3.30425 2.52572 0
M  V30 5492 H 537.321 1.66267 3.33781 0
M  V30 5493 N 539.506 -0.963266 1.24736 0
M  V30 5494 C 540.754 -1.70343 1.08755 0
M  V30 5495 C 541.075 -1.91387 -0.373619 0
M  V30 5496 O 540.345 -1.4948 -1.2662 0
M  V30 5497 H 538.925 -0.631224 0.399456 0
M  V30 5498 H 541.587 -1.15859 1.56725 0
M  V30 5499 H 540.683 -2.68616 1.58909 0
M  V30 5500 N 540.985 -1.06182 -1.16461 0
M  V30 5501 C 541.932 -0.671613 -2.20812 0
M  V30 5502 C 542.902 0.331186 -1.62765 0
M  V30 5503 O 544.087 0.22033 -1.89524 0
M  V30 5504 C 541.227 -0.063029 -3.45042 0
M  V30 5505 C 540.34 -1.11587 -4.1734 0
M  V30 5506 C 539.475 -0.473546 -5.29085 0
M  V30 5507 C 538.514 -1.51 -5.93182 0
M  V30 5508 N 537.651 -0.891118 -6.96422 0
M  V30 5509 H 542.491 -1.56589 -2.53542 0
M  V30 5510 H 540.028 -0.782951 -1.24532 0
M  V30 5511 H 541.986 0.307344 -4.16066 0
M  V30 5512 H 540.616 0.794663 -3.12866 0
M  V30 5513 H 539.668 -1.60396 -3.44931 0
M  V30 5514 H 540.98 -1.90221 -4.61104 0
M  V30 5515 H 540.134 -0.0501432 -6.06679 0
M  V30 5516 H 538.873 0.344687 -4.8648 0
M  V30 5517 H 537.878 -1.94331 -5.14311 0
M  V30 5518 H 539.103 -2.33031 -6.37866 0
M  V30 5519 H 537.049 -0.0935753 -6.55933 0
M  V30 5520 H 536.966 -1.61486 -7.38551 0
M  V30 5521 H 538.234 -0.492822 -7.77941 0
M  V30 5522 N 542.463 1.3308 -0.844243 0
M  V30 5523 C 543.688 2.02341 -0.455282 0
M  V30 5524 C 544.113 1.6308 0.93737 0
M  V30 5525 O 543.471 0.826118 1.61385 0
M  V30 5526 C 543.519 3.55743 -0.58988 0
M  V30 5527 O 542.623 4.1063 0.38166 0
M  V30 5528 H 541.964 0.637898 -0.184343 0
M  V30 5529 H 544.494 1.6986 -1.14056 0
M  V30 5530 H 544.504 4.05243 -0.473522 0
M  V30 5531 H 543.179 3.83662 -1.60549 0
M  V30 5532 H 541.756 3.72236 0.22241 0
M  V30 5533 N 543.941 0.601185 1.45683 0
M  V30 5534 C 545.19 0.0914953 2.01492 0
M  V30 5535 C 545.503 -1.28331 1.47616 0
M  V30 5536 O 546.709 -1.88537 1.95362 0
M  V30 5537 C 545.165 0.11291 3.59723 0
M  V30 5538 C 544.773 1.48717 4.22596 0
M  V30 5539 C 546.517 -0.341871 4.23121 0
M  V30 5540 C 544.424 1.46531 5.7296 0
M  V30 5541 H 543.354 0.0304365 0.753385 0
M  V30 5542 H 546.005 0.755568 1.67223 0
M  V30 5543 H 544.387 -0.617692 3.91153 0
M  V30 5544 H 545.561 2.23897 4.02749 0
M  V30 5545 H 543.876 1.88351 3.71366 0
M  V30 5546 H 546.473 -0.377304 5.33367 0
M  V30 5547 H 546.816 -1.36325 3.93346 0
M  V30 5548 H 547.349 0.335256 3.96385 0
M  V30 5549 H 544.088 2.46408 6.07423 0
M  V30 5550 H 543.608 0.755997 5.95017 0
M  V30 5551 H 545.287 1.18618 6.36034 0
M  V30 5552 N 545.419 -1.53889 0.339982 0
M  V30 5553 C 546.835 -1.59595 -0.0120752 0
M  V30 5554 C 547.035 -1.35605 -1.49042 0
M  V30 5555 O 546.091 -1.14856 -2.24865 0
M  V30 5556 C 547.404 -2.9774 0.420898 0
M  V30 5557 C 548.952 -3.1077 0.37294 0
M  V30 5558 C 549.427 -4.51286 0.781327 0
M  V30 5559 N 550.918 -4.57325 0.735374 0
M  V30 5560 C 551.653 -5.64194 1.02336 0
M  V30 5561 N 551.149 -6.7893 1.37933 0
M  V30 5562 N 552.942 -5.54051 0.947838 0
M  V30 5563 H 545.093 -1.67738 1.30299 0
M  V30 5564 H 547.356 -0.785385 0.530918 0
M  V30 5565 H 547.062 -3.20349 1.45152 0
M  V30 5566 H 546.936 -3.76639 -0.205721 0
M  V30 5567 H 549.323 -2.87886 -0.648505 0
M  V30 5568 H 549.404 -2.33939 1.03472 0
M  V30 5569 H 549.048 -4.74905 1.80077 0
M  V30 5570 H 548.978 -5.26511 0.0970679 0
M  V30 5571 H 551.469 -3.74931 0.472773 0
M  V30 5572 H 551.782 -7.56392 1.58402 0
M  V30 5573 H 550.127 -6.80386 1.41774 0
M  V30 5574 H 553.318 -4.63293 0.669115 0
M  V30 5575 H 553.491 -6.37246 1.17563 0
M  V30 5576 N 546.897 -0.0685191 -1.57451 0
M  V30 5577 C 548.125 0.610462 -1.97689 0
M  V30 5578 C 548.54 1.63346 -0.946758 0
M  V30 5579 O 547.897 1.82377 0.0669868 0
M  V30 5580 C 547.948 1.28196 -3.38006 0
M  V30 5581 O 547.669 0.299906 -4.37072 0
M  V30 5582 C 549.17 2.04907 -3.931 0
M  V30 5583 H 546.39 0.165689 -0.650222 0
M  V30 5584 H 548.934 -0.139953 -2.04021 0
M  V30 5585 H 547.089 1.98348 -3.32771 0
M  V30 5586 H 547.503 0.78126 -5.18649 0
M  V30 5587 H 548.977 2.47287 -4.93511 0
M  V30 5588 H 549.454 2.9043 -3.29465 0
M  V30 5589 H 550.06 1.39629 -4.01726 0
M  V30 5590 N 548.375 1.56261 0.205012 0
M  V30 5591 C 549.621 1.80306 0.9283 0
M  V30 5592 C 549.954 0.640932 1.83319 0
M  V30 5593 O 549.229 -0.359032 1.91158 0
M  V30 5594 C 549.512 3.14547 1.75306 0
M  V30 5595 C 549.365 4.41236 0.873562 0
M  V30 5596 C 550.684 3.45382 2.72762 0
M  V30 5597 H 547.803 0.655929 0.336044 0
M  V30 5598 H 550.445 1.88984 0.196211 0
M  V30 5599 H 548.595 3.0728 2.37721 0
M  V30 5600 H 550.267 4.60539 0.264887 0
M  V30 5601 H 548.51 4.33427 0.179773 0
M  V30 5602 H 549.181 5.31639 1.48541 0
M  V30 5603 H 551.657 3.52884 2.20481 0
M  V30 5604 H 550.533 4.40449 3.2756 0
M  V30 5605 H 550.794 2.68377 3.51321 0
M  V30 5606 N 549.853 -0.472356 1.50355 0
M  V30 5607 C 550.783 -1.57859 1.72055 0
M  V30 5608 C 551.764 -1.60283 0.569505 0
M  V30 5609 O 552.949 -1.7657 0.808503 0
M  V30 5610 C 550.079 -2.96191 1.81351 0
M  V30 5611 C 549.033 -3.08633 2.96529 0
M  V30 5612 C 548.359 -4.486 2.90968 0
M  V30 5613 C 549.659 -2.85969 4.37057 0
M  V30 5614 H 551.353 -1.39953 2.64676 0
M  V30 5615 H 548.899 -0.671846 1.27367 0
M  V30 5616 H 550.852 -3.73507 1.95117 0
M  V30 5617 H 549.576 -3.15251 0.853502 0
M  V30 5618 H 548.235 -2.33749 2.82413 0
M  V30 5619 H 547.883 -4.64577 1.92815 0
M  V30 5620 H 547.583 -4.57861 3.68289 0
M  V30 5621 H 549.107 -5.27938 3.0678 0
M  V30 5622 H 550.521 -3.53036 4.51706 0
M  V30 5623 H 548.918 -3.06677 5.15819 0
M  V30 5624 H 549.988 -1.81838 4.49514 0
M  V30 5625 N 551.331 -1.39911 -0.725443 0
M  V30 5626 C 552.559 -1.40949 -1.51463 0
M  V30 5627 C 552.974 -0.0065242 -1.88799 0
M  V30 5628 O 552.331 0.967163 -1.54765 0
M  V30 5629 C 552.382 -2.29119 -2.79619 0
M  V30 5630 O 552.103 -3.63952 -2.43866 0
M  V30 5631 C 553.604 -2.38642 -3.73584 0
M  V30 5632 H 550.824 -0.481091 -0.467752 0
M  V30 5633 H 553.368 -1.83843 -0.895651 0
M  V30 5634 H 551.523 -1.89612 -3.37826 0
M  V30 5635 H 551.937 -4.10677 -3.26258 0
M  V30 5636 H 553.411 -3.04563 -4.60375 0
M  V30 5637 H 553.888 -1.40846 -4.16004 0
M  V30 5638 H 554.494 -2.78659 -3.21293 0
M  V30 5639 N 552.809 0.956637 -1.25245 0
M  V30 5640 C 554.056 1.701 -1.09874 0
M  V30 5641 C 554.384 1.91128 0.36062 0
M  V30 5642 O 553.639 1.47837 1.28229 0
M  V30 5643 C 553.938 3.08996 -1.79601 0
M  V30 5644 C 553.604 3.07774 -3.29523 0
M  V30 5645 C 552.266 3.07149 -3.70423 0
M  V30 5646 C 554.618 3.01257 -4.25316 0
M  V30 5647 C 551.946 2.97752 -5.0553 0
M  V30 5648 C 554.298 2.93403 -5.60444 0
M  V30 5649 C 552.962 2.91111 -6.00675 0
M  V30 5650 H 552.232 0.62244 -0.402056 0
M  V30 5651 H 554.879 1.1178 -1.55491 0
M  V30 5652 H 553.184 3.70848 -1.26408 0
M  V30 5653 H 554.881 3.65407 -1.65162 0
M  V30 5654 H 551.471 3.09032 -2.9698 0
M  V30 5655 H 555.655 3.00861 -3.9471 0
M  V30 5656 H 550.911 2.94346 -5.35883 0
M  V30 5657 H 555.085 2.87321 -6.34366 0
M  V30 5658 H 552.712 2.83586 -7.05325 0
M  V30 5659 O 554.326 1.1921 1.08956 0
M  V30 5660 H 555.017 0.939352 1.69399 0
M  V30 END ATOM
M  V30 BEGIN BOND
M  V30 END BOND
M  V30 END CTAB
M  END
$$$$
