drugbank_target|P00362 Glyceraldehyde-3-phosphate dehydrogenase (DB02263)
 OpenBabel12092120233D

  0  0  0     0  0            999 V3000
M  V30 BEGIN CTAB
M  V30 COUNTS 5114 5150 0 0 0
M  V30 BEGIN ATOM
M  V30 1 H -0.908 1.98254 -0.117106 0
M  V30 2 N 0 1.576 0 0
M  V30 3 C 0.933 2.03868 1.02534 0
M  V30 4 C 1.911 0.928543 1.3348 0
M  V30 5 O 3.095 1.19667 1.45644 0
M  V30 6 C 0.222 2.43627 2.35294 0
M  V30 7 C -0.732 3.65373 2.2001 0
M  V30 8 S 0.101 5.13292 1.52614 0
M  V30 9 C 1.257 5.56322 2.86805 0
M  V30 10 H 1.49 2.90518 0.631377 0
M  V30 11 H -0.977 1.52953 0.210867 0
M  V30 12 H 0.981 2.67203 3.11629 0
M  V30 13 H -0.358 1.57376 2.7183 0
M  V30 14 H -1.165 3.90944 3.18086 0
M  V30 15 H -1.563 3.418 1.51819 0
M  V30 16 H 0.729 5.58782 3.83104 0
M  V30 17 H 1.672 6.56266 2.65933 0
M  V30 18 H 2.08 4.83886 2.90714 0
M  V30 19 N 1.4781 -0.272755 1.55222 0
M  V30 20 C 2.4411 -1.32041 1.87344 0
M  V30 21 C 3.4411 -1.42342 0.74803 0
M  V30 22 O 4.6311 -1.41488 1.0162 0
M  V30 23 C 1.7631 -2.70173 2.07893 0
M  V30 24 H 2.9561 -1.04789 2.80997 0
M  V30 25 H 0.5091 -0.51083 1.47717 0
M  V30 26 H 1.2441 -3.02605 1.16622 0
M  V30 27 H 1.0291 -2.64082 2.89833 0
M  V30 28 H 2.5191 -3.45869 2.34017 0
M  V30 29 N 2.9562 -1.48159 -0.537278 0
M  V30 30 C 4.2022 -1.56035 -1.29541 0
M  V30 31 C 4.5352 -0.230377 -1.92829 0
M  V30 32 O 3.8102 0.762952 -1.78911 0
M  V30 33 C 4.0932 -2.69323 -2.39034 0
M  V30 34 C 3.9462 -4.12002 -1.80485 0
M  V30 35 C 5.2652 -2.78408 -3.40847 0
M  V30 36 H 2.3842 -0.567992 -0.469632 0
M  V30 37 H 5.0262 -1.80302 -0.599277 0
M  V30 38 H 3.1762 -2.48763 -2.98412 0
M  V30 39 H 4.8482 -4.43981 -1.25215 0
M  V30 40 H 3.0912 -4.19344 -1.11055 0
M  V30 41 H 3.7622 -4.87077 -2.59731 0
M  V30 42 H 6.2382 -2.97012 -2.91416 0
M  V30 43 H 5.1142 -3.59416 -4.14863 0
M  V30 44 H 5.3752 -1.86269 -4.00944 0
M  V30 45 N 4.4343 0.785586 -1.36625 0
M  V30 46 C 5.3813 1.89838 -1.31264 0
M  V30 47 C 6.3513 1.65115 -0.180633 0
M  V30 48 O 7.5363 1.87222 -0.36777 0
M  V30 49 C 4.6763 3.26706 -1.11163 0
M  V30 50 C 3.7893 3.63476 -2.33472 0
M  V30 51 C 2.9243 4.89481 -2.06353 0
M  V30 52 C 1.9633 5.18941 -3.24602 0
M  V30 53 N 1.1003 6.36131 -2.97123 0
M  V30 54 H 5.9403 1.93756 -2.26413 0
M  V30 55 H 3.4773 0.947454 -1.12524 0
M  V30 56 H 5.4353 4.05639 -0.975337 0
M  V30 57 H 4.0653 3.222 -0.196674 0
M  V30 58 H 3.1173 2.79636 -2.57891 0
M  V30 59 H 4.4293 3.81193 -3.21704 0
M  V30 60 H 3.5833 5.76288 -1.89675 0
M  V30 61 H 2.3223 4.73841 -1.15437 0
M  V30 62 H 1.3273 4.30615 -3.41834 0
M  V30 63 H 2.5523 5.36498 -4.16349 0
M  V30 64 H 0.4983 6.21875 -2.08823 0
M  V30 65 H 0.4153 6.54198 -3.78894 0
M  V30 66 H 1.6833 7.2591 -2.84033 0
M  V30 67 N 5.9124 1.20967 1.01018 0
M  V30 68 C 7.1584 1.02526 1.74975 0
M  V30 69 C 7.4914 -0.4408 1.89131 0
M  V30 70 O 6.7664 -1.32718 1.42184 0
M  V30 71 C 7.0494 1.71699 3.1653 0
M  V30 72 C 6.9024 3.25791 3.10129 0
M  V30 73 C 8.2214 1.45531 4.15342 0
M  V30 74 H 5.3404 0.373863 0.635134 0
M  V30 75 H 7.9824 1.49071 1.17805 0
M  V30 76 H 6.1324 1.32128 3.65341 0
M  V30 77 H 7.8044 3.74697 2.69072 0
M  V30 78 H 6.0474 3.56363 2.47362 0
M  V30 79 H 6.7184 3.69353 4.10222 0
M  V30 80 H 9.1944 1.79872 3.75213 0
M  V30 81 H 8.0704 1.96453 5.1254 0
M  V30 82 H 8.3314 0.384237 4.40427 0
M  V30 83 N 7.3905 -1.2043 1.01659 0
M  V30 84 C 8.6385 -1.89423 0.704522 0
M  V30 85 C 8.9595 -1.79231 -0.768197 0
M  V30 86 O 8.2295 -1.1947 -1.55254 0
M  V30 87 H 6.8095 -0.701178 0.257602 0
M  V30 88 H 9.4715 -1.4626 1.28818 0
M  V30 89 H 8.5675 -2.96052 0.987916 0
M  V30 90 N 8.8686 -0.792821 -1.36206 0
M  V30 91 C 10.1176 -0.363353 -1.984 0
M  V30 92 C 10.4306 1.07172 -1.63626 0
M  V30 93 O 11.6366 1.60362 -2.19081 0
M  V30 94 C 10.0926 -0.59872 -3.54885 0
M  V30 95 C 9.7006 -2.04543 -3.9858 0
M  V30 96 C 11.4446 -0.233926 -4.23855 0
M  V30 97 C 9.3516 -2.22727 -5.47856 0
M  V30 98 H 8.2816 -0.13212 -0.742334 0
M  V30 99 H 10.9326 -0.974935 -1.55458 0
M  V30 100 H 9.3146 0.0826222 -3.95914 0
M  V30 101 H 10.4886 -2.76345 -3.68741 0
M  V30 102 H 8.8036 -2.36879 -3.42458 0
M  V30 103 H 11.4006 -0.348027 -5.33566 0
M  V30 104 H 11.7436 0.818351 -4.08177 0
M  V30 105 H 12.2766 -0.868639 -3.882 0
M  V30 106 H 9.0156 -3.2635 -5.68486 0
M  V30 107 H 8.5356 -1.55434 -5.7931 0
M  V30 108 H 10.2146 -2.03607 -6.14128 0
M  V30 109 N 10.3467 1.47872 -0.545128 0
M  V30 110 C 11.2947 2.31533 0.222512 0
M  V30 111 C 12.2887 1.42177 0.920985 0
M  V30 112 O 13.4947 1.59005 0.843645 0
M  V30 113 H 9.8697 0.746519 0.0906278 0
M  V30 114 H 11.8407 2.94139 -0.50246 0
M  V30 115 C 10.5897 3.2457 1.24699 0
M  V30 116 H 9.9127 3.93283 0.718944 0
M  V30 117 H 11.3527 3.85963 1.75523 0
M  V30 118 C 9.8117 2.47237 2.28856 0
M  V30 119 O 10.3417 2.20808 3.35569 0
M  V30 120 N 8.5477 2.08461 2.02466 0
M  V30 121 H 8.0947 2.30155 1.157 0
M  V30 122 H 8.0527 1.57033 2.72375 0
M  V30 123 N 11.8248 0.280983 1.55075 0
M  V30 124 C 13.0728 -0.333455 1.9933 0
M  V30 125 C 13.3938 -1.55937 1.17085 0
M  V30 126 O 12.6638 -1.94143 0.261805 0
M  V30 127 H 11.2438 -0.126197 0.736263 0
M  V30 128 H 13.9058 0.387678 1.91005 0
M  V30 129 H 13.0018 -0.619292 3.05894 0
M  V30 130 N 13.3029 -1.57598 0.00835791 0
M  V30 131 C 14.5499 -1.90928 -0.674732 0
M  V30 132 C 14.8779 -0.88277 -1.73313 0
M  V30 133 O 14.1329 0.111294 -1.95383 0
M  V30 134 C 14.4319 -3.3101 -1.34787 0
M  V30 135 C 14.0979 -4.48922 -0.421861 0
M  V30 136 C 12.7599 -4.8091 -0.166927 0
M  V30 137 C 15.1119 -5.20755 0.215211 0
M  V30 138 C 12.4399 -5.821 0.733232 0
M  V30 139 C 14.7919 -6.22905 1.1033 0
M  V30 140 C 13.4559 -6.53346 1.36733 0
M  V30 141 H 12.7259 -0.698656 -0.246902 0
M  V30 142 H 15.3729 -1.91387 0.0656779 0
M  V30 143 H 13.6779 -3.26714 -2.16253 0
M  V30 144 H 15.3749 -3.54061 -1.8826 0
M  V30 145 H 11.9649 -4.23934 -0.630729 0
M  V30 146 H 16.1489 -4.9629 0.0312829 0
M  V30 147 H 11.4049 -6.04042 0.945712 0
M  V30 148 H 15.5789 -6.77694 1.60325 0
M  V30 149 H 13.2059 -7.31573 2.06652 0
M  V30 150 N 14.781 0.264519 -1.55364 0
M  V30 151 C 16.029 0.993021 -1.76021 0
M  V30 152 C 16.35 1.86511 -0.569099 0
M  V30 153 O 15.62 1.91438 0.415735 0
M  V30 154 H 14.2 0.369639 -0.649135 0
M  V30 155 H 16.862 0.286707 -1.9278 0
M  V30 156 H 15.958 1.62502 -2.66457 0
M  V30 157 N 16.2591 1.48442 0.529413 0
M  V30 158 C 17.6751 1.34575 0.858004 0
M  V30 159 C 17.8751 0.3572 1.98309 0
M  V30 160 O 16.9311 -0.221379 2.51528 0
M  V30 161 C 18.2441 2.74617 1.22499 0
M  V30 162 C 19.7921 2.83109 1.33484 0
M  V30 163 C 20.2671 4.23854 1.73526 0
M  V30 164 N 21.7581 4.2653 1.80628 0
M  V30 165 C 22.4931 5.32372 2.12997 0
M  V30 166 N 21.9891 6.48491 2.43786 0
M  V30 167 N 23.7821 5.19766 2.14008 0
M  V30 168 H 15.9331 2.1133 -0.212925 0
M  V30 169 H 18.1961 0.947439 -0.0326199 0
M  V30 170 H 17.9021 3.4852 0.471905 0
M  V30 171 H 17.7761 3.08177 2.17501 0
M  V30 172 H 20.1631 2.09462 2.0787 0
M  V30 173 H 20.2441 2.53168 0.366027 0
M  V30 174 H 19.8881 4.98018 0.997013 0
M  V30 175 H 19.8181 4.5124 2.71459 0
M  V30 176 H 22.3091 3.42772 1.59108 0
M  V30 177 H 22.6221 7.24993 2.67592 0
M  V30 178 H 20.9671 6.51765 2.41304 0
M  V30 179 H 24.1581 4.28066 1.89412 0
M  V30 180 H 24.3311 6.02354 2.38902 0
M  V30 181 N 17.7372 -0.778329 1.37039 0
M  V30 182 C 18.9862 -1.53189 1.3121 0
M  V30 183 C 19.2992 -1.95328 -0.103095 0
M  V30 184 O 20.5052 -2.70012 -0.283826 0
M  V30 185 C 18.9612 -2.76591 2.30272 0
M  V30 186 C 18.5692 -2.41577 3.77286 0
M  V30 187 C 20.3132 -3.5455 2.33441 0
M  V30 188 C 18.2202 -3.61441 4.68096 0
M  V30 189 H 17.1502 -0.5751 0.487622 0
M  V30 190 H 19.8012 -0.853101 1.62464 0
M  V30 191 H 18.1832 -3.46326 1.92027 0
M  V30 192 H 19.3572 -1.79668 4.2433 0
M  V30 193 H 17.6722 -1.76806 3.76999 0
M  V30 194 H 20.2692 -4.43628 2.98493 0
M  V30 195 H 20.6122 -3.93936 1.34611 0
M  V30 196 H 21.1452 -2.91805 2.7036 0
M  V30 197 H 17.8842 -3.27142 5.6803 0
M  V30 198 H 17.4042 -4.22478 4.25761 0
M  V30 199 H 19.0832 -4.28335 4.8491 0
M  V30 200 N 19.2153 -1.21501 -1.00376 0
M  V30 201 C 20.4633 -1.03095 -1.73827 0
M  V30 202 C 20.7843 0.436341 -1.90055 0
M  V30 203 O 20.0543 1.31466 -1.45236 0
M  V30 204 H 18.6343 -0.378487 -0.644016 0
M  V30 205 H 21.2963 -1.52831 -1.20949 0
M  V30 206 H 20.3923 -1.49991 -2.73695 0
M  V30 207 N 20.6934 1.19889 -1.02296 0
M  V30 208 C 22.1094 1.41462 -0.738954 0
M  V30 209 C 22.3094 1.89721 0.678846 0
M  V30 210 O 21.3654 2.07016 1.4457 0
M  V30 211 C 22.6784 2.43083 -1.77005 0
M  V30 212 C 24.2264 2.5684 -1.78892 0
M  V30 213 C 24.7014 3.61709 -2.80945 0
M  V30 214 N 26.1924 3.69199 -2.79725 0
M  V30 215 C 26.9274 4.50019 -3.55345 0
M  V30 216 N 26.4234 5.34592 -4.40662 0
M  V30 217 N 28.2164 4.44612 -3.43914 0
M  V30 218 H 20.3674 0.868827 -1.93817 0
M  V30 219 H 22.6304 0.44399 -0.837602 0
M  V30 220 H 22.3364 2.14636 -2.78612 0
M  V30 221 H 22.2104 3.4217 -1.58744 0
M  V30 222 H 24.5974 2.84614 -0.779674 0
M  V30 223 H 24.6784 1.57927 -2.01228 0
M  V30 224 H 24.3224 3.34678 -3.82038 0
M  V30 225 H 24.2524 4.60259 -2.5587 0
M  V30 226 H 26.7434 3.08794 -2.17842 0
M  V30 227 H 27.0564 5.93363 -4.95116 0
M  V30 228 H 25.4014 5.34073 -4.44737 0
M  V30 229 H 28.5924 3.7758 -2.76679 0
M  V30 230 H 28.7654 5.0736 -4.031 0
M  V30 231 N 22.1715 0.800033 1.35784 0
M  V30 232 C 23.1195 0.193851 2.31791 0
M  V30 233 C 24.1135 -0.652744 1.56319 0
M  V30 234 O 25.3195 -0.546641 1.71499 0
M  V30 235 H 21.6945 0.04392 0.750716 0
M  V30 236 H 23.6655 1.01883 2.80468 0
M  V30 237 C 22.4145 -0.648338 3.41602 0
M  V30 238 H 21.7375 -0.00624665 3.998 0
M  V30 239 H 23.1775 -1.03898 4.11073 0
M  V30 240 C 21.6365 -1.8111 2.84079 0
M  V30 241 O 22.1665 -2.90825 2.77099 0
M  V30 242 N 20.3725 -1.62056 2.41218 0
M  V30 243 H 19.9195 -0.728123 2.47095 0
M  V30 244 H 19.8775 -2.40013 2.03079 0
M  V30 245 N 23.6496 -1.47581 0.552962 0
M  V30 246 C 24.8956 -2.02782 0.0273648 0
M  V30 247 C 25.2286 -1.42687 -1.31734 0
M  V30 248 O 24.5036 -0.580897 -1.85623 0
M  V30 249 C 24.7866 -3.60031 -0.0702371 0
M  V30 250 C 24.6396 -4.30566 1.30126 0
M  V30 251 C 25.9586 -4.33028 -0.785771 0
M  V30 252 H 23.0776 -0.736912 0.0114185 0
M  V30 253 H 25.7196 -1.76056 0.714432 0
M  V30 254 H 23.8696 -3.82932 -0.655382 0
M  V30 255 H 25.5416 -4.19018 1.92929 0
M  V30 256 H 23.7846 -3.91086 1.87709 0
M  V30 257 H 24.4556 -5.39114 1.18573 0
M  V30 258 H 26.9316 -4.15095 -0.288982 0
M  V30 259 H 25.8076 -5.42695 -0.823013 0
M  V30 260 H 26.0686 -4.01945 -1.841 0
M  V30 261 N 25.1277 -0.289203 -1.54924 0
M  V30 262 C 26.3747 0.323519 -1.99899 0
M  V30 263 C 26.7027 1.54797 -1.17762 0
M  V30 264 O 25.9577 1.94237 -0.238835 0
M  V30 265 C 26.2567 0.736119 -3.49737 0
M  V30 266 C 25.9227 -0.385276 -4.49251 0
M  V30 267 C 24.5847 -0.693156 -4.76181 0
M  V30 268 C 26.9367 -1.14021 -5.08575 0
M  V30 269 C 24.2647 -1.7593 -5.59701 0
M  V30 270 C 26.6167 -2.19619 -5.93254 0
M  V30 271 C 25.2807 -2.51026 -6.185 0
M  V30 272 H 24.5507 0.118384 -0.731482 0
M  V30 273 H 27.1977 -0.405847 -1.8715 0
M  V30 274 H 25.5027 1.54539 -3.60035 0
M  V30 275 H 27.1997 1.22118 -3.81953 0
M  V30 276 H 23.7897 -0.135202 -4.28387 0
M  V30 277 H 27.9737 -0.915611 -4.87781 0
M  V30 278 H 23.2297 -2.0075 -5.77503 0
M  V30 279 H 27.4037 -2.78581 -6.38252 0
M  V30 280 H 25.0307 -3.33772 -6.83008 0
M  V30 281 N 26.6058 1.57591 -0.0167156 0
M  V30 282 C 28.0218 1.55946 0.339557 0
M  V30 283 C 28.2218 1.02109 1.73713 0
M  V30 284 O 27.2778 0.662303 2.43659 0
M  V30 285 C 28.5908 3.00037 0.199499 0
M  V30 286 C 30.1388 3.11805 0.273193 0
M  V30 287 C 30.6138 4.57713 0.162068 0
M  V30 288 N 32.1048 4.6268 0.219444 0
M  V30 289 C 32.8398 5.73185 0.157054 0
M  V30 290 N 32.3358 6.92786 0.0442936 0
M  V30 291 N 34.1288 5.61707 0.21014 0
M  V30 292 H 26.2798 1.90921 -0.930758 0
M  V30 293 H 28.5428 0.877674 -0.358319 0
M  V30 294 H 28.2488 3.4333 -0.76273 0
M  V30 295 H 28.1228 3.64387 0.974786 0
M  V30 296 H 30.5098 2.68433 1.22587 0
M  V30 297 H 30.5908 2.50201 -0.532256 0
M  V30 298 H 30.2348 5.01763 -0.78714 0
M  V30 299 H 30.1648 5.17283 0.986222 0
M  V30 300 H 32.6558 3.76649 0.307246 0
M  V30 301 H 32.9688 7.728 0.00304069 0
M  V30 302 H 31.3138 6.94999 0.00968457 0
M  V30 303 H 34.5048 4.6716 0.296546 0
M  V30 304 H 34.6778 6.47807 0.158054 0
M  V30 305 N 28.0839 -0.256276 1.55502 0
M  V30 306 C 29.0469 -1.30047 1.88734 0
M  V30 307 C 30.0469 -1.4154 0.763086 0
M  V30 308 O 31.2369 -1.40403 1.03115 0
M  V30 309 C 28.3689 -2.67953 2.10747 0
M  V30 310 H 29.5619 -1.01802 2.82093 0
M  V30 311 H 27.1149 -0.495134 1.4825 0
M  V30 312 H 27.8499 -3.01351 1.19825 0
M  V30 313 H 27.6349 -2.60993 2.92617 0
M  V30 314 H 29.1249 -3.43368 2.37673 0
M  V30 315 N 29.562 -1.4872 -0.521534 0
M  V30 316 C 30.525 -1.63379 -1.60748 0
M  V30 317 C 31.525 -0.50661 -1.52611 0
M  V30 318 O 32.715 -0.772601 -1.5613 0
M  V30 319 C 29.847 -1.61192 -3.00383 0
M  V30 320 H 31.04 -2.60217 -1.49087 0
M  V30 321 H 28.593 -1.37444 -0.744235 0
M  V30 322 H 29.328 -0.65863 -3.17541 0
M  V30 323 H 29.113 -2.43032 -3.07698 0
M  V30 324 H 30.603 -1.7466 -3.7932 0
M  V30 325 N 31.0401 0.771051 -1.3745 0
M  V30 326 C 31.9701 1.89827 -1.3597 0
M  V30 327 C 32.9511 1.68562 -0.228216 0
M  V30 328 O 34.1361 1.8941 -0.428675 0
M  V30 329 C 31.2661 3.2712 -1.16662 0
M  V30 330 C 30.2201 3.6295 -2.2683 0
M  V30 331 C 29.5461 4.98791 -1.92644 0
M  V30 332 C 30.8461 3.69627 -3.69017 0
M  V30 333 H 32.5401 1.91323 -2.30295 0
M  V30 334 H 30.0861 0.919082 -1.10855 0
M  V30 335 H 32.0391 4.05615 -1.14256 0
M  V30 336 H 30.7631 3.26059 -0.187926 0
M  V30 337 H 29.4221 2.86763 -2.28392 0
M  V30 338 H 29.0701 4.94271 -0.933021 0
M  V30 339 H 28.7701 5.23733 -2.66416 0
M  V30 340 H 30.2941 5.79685 -1.91826 0
M  V30 341 H 31.7081 4.38273 -3.69581 0
M  V30 342 H 30.1051 4.06067 -4.41848 0
M  V30 343 H 31.1751 2.70273 -4.02592 0
M  V30 344 N 32.5182 1.22032 0.997298 0
M  V30 345 C 33.4652 0.986467 2.08656 0
M  V30 346 C 34.4352 -0.0902671 1.65855 0
M  V30 347 O 35.6202 0.0584294 1.90711 0
M  V30 348 C 32.7602 0.565569 3.40434 0
M  V30 349 C 31.8732 1.71259 3.96604 0
M  V30 350 C 31.0082 1.24011 5.16522 0
M  V30 351 C 30.0472 2.35896 5.64818 0
M  V30 352 N 29.1842 1.89726 6.7598 0
M  V30 353 H 34.0242 1.91892 2.27994 0
M  V30 354 H 31.5612 0.956199 1.11782 0
M  V30 355 H 33.5192 0.302738 4.161 0
M  V30 356 H 32.1492 -0.329879 3.2111 0
M  V30 357 H 31.2012 2.08986 3.17851 0
M  V30 358 H 32.5132 2.55436 4.28432 0
M  V30 359 H 31.6672 0.934395 5.99461 0
M  V30 360 H 30.4062 0.368487 4.86306 0
M  V30 361 H 29.4112 2.67261 4.8047 0
M  V30 362 H 30.6362 3.23567 5.97061 0
M  V30 363 H 28.5822 1.0492 6.47555 0
M  V30 364 H 28.4992 2.67471 7.07103 0
M  V30 365 H 29.7672 1.62211 7.62435 0
M  V30 366 N 33.9963 -1.19345 1.0293 0
M  V30 367 C 34.9443 -2.24621 0.604001 0
M  V30 368 C 35.9383 -1.65452 -0.363587 0
M  V30 369 O 37.1443 -1.78497 -0.23212 0
M  V30 370 H 33.5193 -0.730858 0.177061 0
M  V30 371 H 35.4903 -2.5781 1.50255 0
M  V30 372 C 34.2393 -3.47688 -0.0289127 0
M  V30 373 H 33.5623 -3.93505 0.706651 0
M  V30 374 H 35.0023 -4.23011 -0.289432 0
M  V30 375 C 33.4613 -3.11817 -1.2756 0
M  V30 376 O 33.9913 -3.2451 -2.36762 0
M  V30 377 N 32.1973 -2.66246 -1.16453 0
M  V30 378 H 31.7443 -2.56118 -0.275914 0
M  V30 379 H 31.7023 -2.42617 -1.99961 0
M  V30 380 N 35.4744 -0.807222 -1.35358 0
M  V30 381 C 36.8854 -0.44876 -1.81226 0
M  V30 382 C 37.2364 1.02929 -1.67033 0
M  V30 383 O 36.3614 1.79991 -1.20133 0
M  V30 384 C 36.9564 -0.807774 -3.2903 0
M  V30 385 C 35.5154 -0.501901 -3.73039 0
M  V30 386 C 34.6624 -1.03304 -2.57339 0
M  V30 387 H 37.6134 -0.998808 -1.23327 0
M  V30 388 H 37.6344 -0.10554 -3.80354 0
M  V30 389 H 37.1464 -1.88357 -3.39328 0
M  V30 390 H 35.2474 0.565128 -3.68289 0
M  V30 391 H 35.3604 -1.03497 -4.67787 0
M  V30 392 H 33.7244 -0.455339 -2.50597 0
M  V30 393 H 34.5074 -2.11496 -2.70415 0
M  V30 394 N 36.9525 1.47285 -0.560781 0
M  V30 395 C 38.2295 1.9558 0.0277798 0
M  V30 396 C 38.6095 1.5034 1.48192 0
M  V30 397 O 37.9575 0.743882 2.16052 0
M  V30 398 C 38.1675 3.48789 -0.121418 0
M  V30 399 C 39.5155 4.24594 0.0220912 0
M  V30 400 O 40.5395 3.56166 -0.0491439 0
M  V30 401 O 39.3985 5.46217 0.175958 0
M  V30 402 H 36.4925 0.824663 0.0621342 0
M  V30 403 H 39.0385 1.5767 -0.627556 0
M  V30 404 H 37.8105 3.74533 -1.13316 0
M  V30 405 H 37.4335 3.93473 0.571366 0
M  V30 406 N 38.4306 0.297415 1.54768 0
M  V30 407 C 39.6796 -0.313669 1.99246 0
M  V30 408 C 39.9926 -1.55281 1.18942 0
M  V30 409 O 41.1986 -2.23825 1.5367 0
M  V30 410 C 39.6546 -0.609407 3.54703 0
M  V30 411 C 39.2626 0.611192 4.43811 0
M  V30 412 C 41.0066 -1.18188 4.07715 0
M  V30 413 C 38.9136 0.288805 5.90694 0
M  V30 414 H 37.8436 -0.120979 0.744231 0
M  V30 415 H 40.4946 0.40556 1.78962 0
M  V30 416 H 38.8766 -1.38813 3.70873 0
M  V30 417 H 40.0506 1.3875 4.39414 0
M  V30 418 H 38.3656 1.10205 4.01552 0
M  V30 419 H 40.9626 -1.43727 5.15021 0
M  V30 420 H 41.3056 -2.12299 3.58099 0
M  V30 421 H 41.8386 -0.464944 3.95074 0
M  V30 422 H 38.5776 1.19838 6.44453 0
M  V30 423 H 38.0976 -0.450305 5.98107 0
M  V30 424 H 39.7766 -0.110933 6.46905 0
M  V30 425 N 39.9087 -1.5758 0.0250728 0
M  V30 426 C 40.8187 -2.1343 -0.973905 0
M  V30 427 C 41.8347 -1.08556 -1.35984 0
M  V30 428 O 43.0107 -1.40592 -1.44207 0
M  V30 429 C 40.0757 -2.64703 -2.23904 0
M  V30 430 C 39.1367 -3.84276 -1.91391 0
M  V30 431 C 38.3697 -4.33095 -3.11873 0
M  V30 432 O 38.5927 -3.81107 -4.24398 0
M  V30 433 O 37.5267 -5.24984 -2.94406 0
M  V30 434 H 41.3527 -2.99057 -0.529036 0
M  V30 435 H 38.9377 -1.48118 -0.195288 0
M  V30 436 H 40.8197 -2.97769 -2.98181 0
M  V30 437 H 39.4947 -1.82161 -2.6758 0
M  V30 438 H 38.4017 -3.56143 -1.14511 0
M  V30 439 H 39.7347 -4.67968 -1.52534 0
M  V30 440 N 41.3868 0.248026 -1.55636 0
M  V30 441 C 42.6328 0.97767 -1.77678 0
M  V30 442 C 42.9658 1.85016 -0.590135 0
M  V30 443 O 42.2408 1.90095 0.411611 0
M  V30 444 C 42.5238 1.83914 -3.09593 0
M  V30 445 C 42.3768 0.99491 -4.38659 0
M  V30 446 C 43.6958 2.82183 -3.37729 0
M  V30 447 H 40.8148 0.354005 -0.646413 0
M  V30 448 H 43.4568 0.248253 -1.88371 0
M  V30 449 H 41.6068 2.46104 -3.00608 0
M  V30 450 H 43.2788 0.391789 -4.59633 0
M  V30 451 H 41.5218 0.299231 -4.32767 0
M  V30 452 H 42.1928 1.63145 -5.2734 0
M  V30 453 H 44.6688 2.30129 -3.4667 0
M  V30 454 H 43.5448 3.39582 -4.31249 0
M  V30 455 H 43.8058 3.58588 -2.58586 0
M  V30 456 N 42.8649 1.48995 0.513639 0
M  V30 457 C 44.1109 1.58076 1.27042 0
M  V30 458 C 44.4439 0.261026 1.92438 0
M  V30 459 O 43.7189 -0.734393 1.80103 0
M  V30 460 C 44.0019 2.73091 2.34719 0
M  V30 461 C 43.8549 4.14821 1.73907 0
M  V30 462 C 45.1739 2.83796 3.36375 0
M  V30 463 H 42.2929 0.575391 0.460536 0
M  V30 464 H 44.9349 1.81232 0.570516 0
M  V30 465 H 43.0849 2.53479 2.94416 0
M  V30 466 H 44.7569 4.45917 1.18135 0
M  V30 467 H 42.9999 4.21058 1.0437 0
M  V30 468 H 43.6709 4.91147 2.51949 0
M  V30 469 H 46.1469 3.01611 2.86653 0
M  V30 470 H 45.0229 3.65971 4.09093 0
M  V30 471 H 45.2839 1.92624 3.9793 0
M  V30 472 N 44.343 -0.763751 1.37857 0
M  V30 473 C 45.306 -1.85889 1.34081 0
M  V30 474 C 46.306 -1.58949 0.243277 0
M  V30 475 O 47.496 -1.66882 0.499589 0
M  V30 476 C 44.628 -3.23176 1.08489 0
M  V30 477 H 45.821 -1.90648 2.31502 0
M  V30 478 H 43.374 -0.964367 1.23003 0
M  V30 479 H 44.109 -3.24091 0.116318 0
M  V30 480 H 43.894 -3.44124 1.8794 0
M  V30 481 H 45.384 -4.03254 1.08517 0
M  V30 482 N 45.8211 -1.22559 -0.990812 0
M  V30 483 C 47.0671 -1.05297 -1.73322 0
M  V30 484 C 47.4001 0.410655 -1.89808 0
M  V30 485 O 46.6751 1.30439 -1.44277 0
M  V30 486 C 46.9581 -1.76713 -3.13759 0
M  V30 487 C 46.8111 -3.30684 -3.04907 0
M  V30 488 C 48.1301 -1.52121 -4.12974 0
M  V30 489 H 45.2491 -0.38392 -0.629106 0
M  V30 490 H 47.8911 -1.50926 -1.15418 0
M  V30 491 H 46.0411 -1.37924 -3.63193 0
M  V30 492 H 47.7131 -3.7893 -2.63077 0
M  V30 493 H 45.9561 -3.60253 -2.41661 0
M  V30 494 H 46.6271 -3.75833 -4.04294 0
M  V30 495 H 49.1031 -1.85819 -3.72304 0
M  V30 496 H 47.9791 -2.04582 -5.0935 0
M  V30 497 H 48.2401 -0.454257 -4.3976 0
M  V30 498 N 47.2992 1.18797 -1.03562 0
M  V30 499 C 48.2472 2.24297 -0.615905 0
M  V30 500 C 49.2412 1.65643 0.354808 0
M  V30 501 O 50.4472 1.78618 0.22265 0
M  V30 502 H 46.8222 0.729909 -0.180934 0
M  V30 503 H 48.7932 2.5701 -1.5162 0
M  V30 504 C 47.5422 3.47698 0.0104735 0
M  V30 505 H 46.8652 3.93125 -0.727509 0
M  V30 506 H 48.3052 4.23159 0.266995 0
M  V30 507 C 46.7642 3.12489 1.25905 0
M  V30 508 O 47.2942 3.25761 2.35038 0
M  V30 509 N 45.5002 2.6686 1.15039 0
M  V30 510 H 45.0472 2.56261 0.262328 0
M  V30 511 H 45.0052 2.43674 1.98672 0
M  V30 512 N 48.7773 0.814389 1.34928 0
M  V30 513 C 50.0543 0.321363 1.92942 0
M  V30 514 C 50.4343 -1.19014 1.74353 0
M  V30 515 O 49.7823 -1.99328 1.11716 0
M  V30 516 C 49.9923 0.741323 3.41036 0
M  V30 517 C 51.3403 0.735266 4.18185 0
M  V30 518 O 52.3643 0.68336 3.49584 0
M  V30 519 O 51.2233 0.800703 5.40602 0
M  V30 520 H 48.3173 0.0858893 0.822528 0
M  V30 521 H 50.8633 0.898609 1.43955 0
M  V30 522 H 49.6353 1.78276 3.4833 0
M  V30 523 H 49.2583 0.139307 3.97356 0
M  V30 524 N 50.2554 -1.46986 0.568584 0
M  V30 525 C 51.1854 -2.32946 -0.160753 0
M  V30 526 C 52.1664 -1.44487 -0.897631 0
M  V30 527 O 53.3514 -1.73327 -0.875867 0
M  V30 528 C 50.4814 -3.26494 -1.18403 0
M  V30 529 C 49.4354 -4.24282 -0.562895 0
M  V30 530 C 48.7614 -5.07236 -1.69163 0
M  V30 531 C 50.0614 -5.19989 0.490761 0
M  V30 532 H 51.7554 -2.94175 0.556916 0
M  V30 533 H 49.3014 -1.4146 0.26927 0
M  V30 534 H 51.2544 -3.85477 -1.70251 0
M  V30 535 H 49.9784 -2.63343 -1.93179 0
M  V30 536 H 48.6374 -3.66541 -0.0656164 0
M  V30 537 H 48.2854 -4.4048 -2.42871 0
M  V30 538 H 47.9854 -5.7345 -1.28174 0
M  V30 539 H 49.5094 -5.6908 -2.21314 0
M  V30 540 H 50.9234 -5.73271 0.0579047 0
M  V30 541 H 49.3204 -5.94469 0.820165 0
M  V30 542 H 50.3904 -4.64777 1.3824 0
M  V30 543 N 51.7335 -0.305618 -1.54608 0
M  V30 544 C 52.9615 0.304775 -2.04643 0
M  V30 545 C 53.3765 1.47167 -1.18268 0
M  V30 546 O 52.7335 1.81296 -0.209328 0
M  V30 547 C 52.7845 0.756564 -3.53495 0
M  V30 548 O 52.5055 -0.36389 -4.36586 0
M  V30 549 C 54.0065 1.43163 -4.19546 0
M  V30 550 H 51.2265 0.0655481 -0.667791 0
M  V30 551 H 53.7705 -0.446592 -1.99564 0
M  V30 552 H 51.9255 1.45794 -3.58919 0
M  V30 553 H 52.3395 -0.0113121 -5.24499 0
M  V30 554 H 53.8135 1.69886 -5.25207 0
M  V30 555 H 54.2905 2.37318 -3.69563 0
M  V30 556 H 54.8965 0.773307 -4.18211 0
M  V30 557 N 53.2116 1.57565 -0.0334293 0
M  V30 558 C 54.4886 1.83282 0.683163 0
M  V30 559 C 54.8686 0.91823 1.90084 0
M  V30 560 O 54.2166 -0.025113 2.28486 0
M  V30 561 C 54.4266 3.32599 1.0573 0
M  V30 562 C 55.7746 3.99179 1.44711 0
M  V30 563 O 56.7986 3.3712 1.15015 0
M  V30 564 O 55.6576 5.08565 2.0006 0
M  V30 565 H 52.7516 0.755869 0.335546 0
M  V30 566 H 55.2976 1.69589 -0.0614402 0
M  V30 567 H 54.0696 3.90834 0.190828 0
M  V30 568 H 53.6926 3.51415 1.85993 0
M  V30 569 N 54.6897 -0.239769 1.55765 0
M  V30 570 C 55.6527 -1.28038 1.90103 0
M  V30 571 C 56.6527 -1.40723 0.778055 0
M  V30 572 O 57.8427 -1.39301 1.04599 0
M  V30 573 C 54.9747 -2.65702 2.13577 0
M  V30 574 H 56.1677 -0.988048 2.83157 0
M  V30 575 H 53.7207 -0.479382 1.48767 0
M  V30 576 H 54.4557 -3.00063 1.23015 0
M  V30 577 H 54.2407 -2.57875 2.95369 0
M  V30 578 H 55.7307 -3.40828 2.41301 0
M  V30 579 N 56.1678 -1.49265 -0.50573 0
M  V30 580 C 57.1158 -1.66065 -1.62866 0
M  V30 581 C 58.1098 -0.526636 -1.61006 0
M  V30 582 O 59.3158 -0.706126 -1.65571 0
M  V30 583 H 55.6908 -0.52356 -0.539805 0
M  V30 584 H 57.6618 -2.60329 -1.45848 0
M  V30 585 C 56.4108 -1.74008 -3.01026 0
M  V30 586 H 55.7338 -2.6064 -3.03161 0
M  V30 587 H 57.1738 -1.89798 -3.79147 0
M  V30 588 C 55.6328 -0.483868 -3.33407 0
M  V30 589 O 56.1628 0.392548 -3.99777 0
M  V30 590 N 54.3688 -0.348236 -2.88506 0
M  V30 591 H 53.9158 -1.06242 -2.34671 0
M  V30 592 H 53.8738 0.491204 -3.10539 0
M  V30 593 N 57.6459 0.756429 -1.3826 0
M  V30 594 C 58.8739 1.54565 -1.3754 0
M  V30 595 C 59.2889 1.88767 0.0355331 0
M  V30 596 O 58.6459 1.52572 1.0014 0
M  V30 597 C 58.6969 2.84654 -2.22833 0
M  V30 598 O 58.4179 2.51912 -3.5843 0
M  V30 599 C 59.9189 3.78807 -2.30261 0
M  V30 600 H 57.1389 0.478353 -0.470553 0
M  V30 601 H 59.6829 0.936381 -1.81803 0
M  V30 602 H 57.8379 3.41965 -1.8204 0
M  V30 603 H 58.2519 3.35325 -4.03308 0
M  V30 604 H 59.7259 4.67045 -2.94233 0
M  V30 605 H 60.2029 4.19038 -1.31545 0
M  V30 606 H 60.8089 3.2742 -2.71433 0
M  V30 607 N 59.124 1.23083 0.984299 0
M  V30 608 C 60.054 1.03292 2.09411 0
M  V30 609 C 61.035 -0.048923 1.7003 0
M  V30 610 O 62.22 0.114967 1.93859 0
M  V30 611 C 59.35 0.619155 3.41736 0
M  V30 612 C 58.304 1.64791 3.95004 0
M  V30 613 C 57.63 1.0897 5.23478 0
M  V30 614 C 58.93 3.03999 4.24714 0
M  V30 615 H 60.624 1.96119 2.26225 0
M  V30 616 H 58.17 0.944344 1.08711 0
M  V30 617 H 60.123 0.467777 4.18796 0
M  V30 618 H 58.847 -0.344786 3.24775 0
M  V30 619 H 57.506 1.78721 3.20085 0
M  V30 620 H 57.154 0.11686 5.02864 0
M  V30 621 H 56.854 1.77704 5.60085 0
M  V30 622 H 58.378 0.950093 6.03163 0
M  V30 623 H 59.792 2.93393 4.92538 0
M  V30 624 H 58.189 3.69936 4.72512 0
M  V30 625 H 59.259 3.53285 3.32142 0
M  V30 626 N 60.6021 -1.18246 1.0419 0
M  V30 627 C 61.5651 -2.20128 0.638452 0
M  V30 628 C 62.5651 -1.57885 -0.304805 0
M  V30 629 O 63.7551 -1.73967 -0.0900369 0
M  V30 630 C 60.8871 -3.4084 -0.0637751 0
M  V30 631 H 62.0801 -2.57336 1.54007 0
M  V30 632 H 59.6331 -1.32152 0.834598 0
M  V30 633 H 60.3681 -3.09166 -0.979136 0
M  V30 634 H 60.1531 -3.8726 0.614198 0
M  V30 635 H 61.6431 -4.16274 -0.332512 0
M  V30 636 N 62.0802 -0.821533 -1.34494 0
M  V30 637 C 63.0302 -0.214793 -2.26986 0
M  V30 638 C 64.0142 0.620125 -1.4847 0
M  V30 639 O 65.2062 0.474933 -1.70509 0
M  V30 640 C 62.3352 0.623566 -3.37589 0
M  V30 641 C 61.4212 -0.221904 -4.23519 0
M  V30 642 N 61.8122 -1.29223 -4.89014 0
M  V30 643 C 60.1102 -0.00600922 -4.46 0
M  V30 644 C 60.8112 -1.80965 -5.52835 0
M  V30 645 N 59.7872 -1.11376 -5.32068 0
M  V30 646 H 63.5892 -1.03354 -2.75128 0
M  V30 647 H 61.1032 -0.6642 -1.48196 0
M  V30 648 H 63.1002 1.0744 -4.02818 0
M  V30 649 H 61.7602 1.44049 -2.90998 0
M  V30 650 H 62.7712 -1.67502 -4.90065 0
M  V30 651 H 59.4482 0.77886 -4.10171 0
M  V30 652 H 60.8382 -2.70502 -6.15043 0
M  V30 653 N 63.5583 1.46682 -0.576371 0
M  V30 654 C 64.4883 2.33028 0.148397 0
M  V30 655 C 65.4693 1.44961 0.889956 0
M  V30 656 O 66.6543 1.73789 0.866662 0
M  V30 657 C 63.7843 3.27117 1.1667 0
M  V30 658 C 62.7383 4.24575 0.540386 0
M  V30 659 C 62.0643 5.08126 1.6647 0
M  V30 660 C 63.3643 5.19722 -0.518331 0
M  V30 661 H 65.0583 2.93875 -0.572509 0
M  V30 662 H 62.6043 1.41315 -0.276768 0
M  V30 663 H 64.5573 3.86374 1.68204 0
M  V30 664 H 63.2813 2.64364 1.9178 0
M  V30 665 H 61.9403 3.66571 0.0461769 0
M  V30 666 H 61.5883 4.41762 2.40531 0
M  V30 667 H 61.2883 5.74122 1.25131 0
M  V30 668 H 62.8123 5.70246 2.18293 0
M  V30 669 H 64.2263 5.73232 -0.0883058 0
M  V30 670 H 62.6233 5.94026 -0.851679 0
M  V30 671 H 63.6933 4.64037 -1.40703 0
M  V30 672 N 65.0364 0.313813 1.54444 0
M  V30 673 C 65.9664 -0.549454 2.26943 0
M  V30 674 C 66.9474 -1.12741 1.27372 0
M  V30 675 O 68.1324 -1.15436 1.56167 0
M  V30 676 C 65.2624 -1.71523 3.01989 0
M  V30 677 C 64.2164 -1.26703 4.08816 0
M  V30 678 C 63.5424 -2.51898 4.71647 0
M  V30 679 C 64.8424 -0.388962 5.2085 0
M  V30 680 H 66.5364 0.0552661 2.99349 0
M  V30 681 H 64.0824 0.0280207 1.43973 0
M  V30 682 H 66.0354 -2.32535 3.51433 0
M  V30 683 H 64.7594 -2.34639 2.27183 0
M  V30 684 H 63.4184 -0.679896 3.6024 0
M  V30 685 H 63.0664 -3.13356 3.93468 0
M  V30 686 H 62.7664 -2.22605 5.43802 0
M  V30 687 H 64.2904 -3.1369 5.23861 0
M  V30 688 H 65.7044 -0.905107 5.6611 0
M  V30 689 H 64.1014 -0.18924 5.99802 0
M  V30 690 H 65.1714 0.582699 4.81386 0
M  V30 691 N 66.5145 -1.57545 0.0417849 0
M  V30 692 C 67.4615 -2.10977 -0.935805 0
M  V30 693 C 68.4315 -1.01486 -1.31491 0
M  V30 694 O 69.6165 -1.2898 -1.40602 0
M  V30 695 C 66.7565 -2.65169 -2.2086 0
M  V30 696 C 65.8695 -3.88714 -1.88482 0
M  V30 697 C 65.0045 -4.31254 -3.1015 0
M  V30 698 C 64.0435 -5.47524 -2.7365 0
M  V30 699 N 63.1805 -5.85162 -3.87982 0
M  V30 700 H 68.0205 -2.94218 -0.473249 0
M  V30 701 H 65.5575 -1.45415 -0.221981 0
M  V30 702 H 67.5155 -2.94685 -2.95325 0
M  V30 703 H 66.1455 -1.8474 -2.64709 0
M  V30 704 H 65.1975 -3.65849 -1.04205 0
M  V30 705 H 66.5095 -4.73245 -1.57608 0
M  V30 706 H 65.6635 -4.62273 -3.92923 0
M  V30 707 H 64.4025 -3.45516 -3.44195 0
M  V30 708 H 63.4075 -5.16187 -1.89291 0
M  V30 709 H 64.6325 -6.34971 -2.40807 0
M  V30 710 H 62.5785 -5.02377 -4.21846 0
M  V30 711 H 62.4955 -6.64362 -3.60775 0
M  V30 712 H 63.7635 -6.20791 -4.71422 0
M  V30 713 N 67.9926 0.231505 -1.5589 0
M  V30 714 C 69.2226 0.973092 -1.82248 0
M  V30 715 C 69.6306 1.78845 -0.617328 0
M  V30 716 O 68.9736 1.78752 0.423499 0
M  V30 717 C 69.0356 1.94732 -3.02192 0
M  V30 718 C 68.6996 1.31743 -4.37599 0
M  V30 719 C 69.6966 0.712238 -5.14998 0
M  V30 720 C 67.3816 1.33218 -4.84312 0
M  V30 721 C 69.3756 0.130195 -6.37267 0
M  V30 722 C 67.0626 0.746286 -6.06526 0
M  V30 723 C 68.0606 0.146337 -6.82843 0
M  V30 724 O 67.7486 -0.430465 -8.02747 0
M  V30 725 H 67.4806 0.29125 -0.61004 0
M  V30 726 H 70.0346 0.254915 -2.03812 0
M  V30 727 H 68.2646 2.70422 -2.76422 0
M  V30 728 H 69.9536 2.55362 -3.15508 0
M  V30 729 H 70.7196 0.69324 -4.8002 0
M  V30 730 H 66.5986 1.78854 -4.24891 0
M  V30 731 H 70.1426 -0.33871 -6.96777 0
M  V30 732 H 66.0396 0.762663 -6.40979 0
M  V30 733 H 66.8076 -0.323818 -8.17859 0
M  V30 734 N 69.4707 1.49531 0.497807 0
M  V30 735 C 70.7477 1.49682 1.25915 0
M  V30 736 C 71.1277 0.226339 2.09883 0
M  V30 737 O 70.4757 -0.791189 2.14365 0
M  V30 738 C 70.6857 2.77755 2.11313 0
M  V30 739 C 72.0337 3.27371 2.70395 0
M  V30 740 O 73.0577 2.78894 2.21578 0
M  V30 741 O 71.9167 4.11808 3.59272 0
M  V30 742 H 69.0107 0.599228 0.56996 0
M  V30 743 H 71.5567 1.61798 0.511816 0
M  V30 744 H 70.3287 3.61713 1.49264 0
M  V30 745 H 69.9517 2.68515 2.93233 0
M  V30 746 N 70.9488 -0.749086 1.3866 0
M  V30 747 C 72.1738 -1.54344 1.38538 0
M  V30 748 C 72.5988 -1.88088 -0.0216655 0
M  V30 749 O 71.9568 -1.50899 -1.00494 0
M  V30 750 C 72.0048 -2.8164 2.25192 0
M  V30 751 O 71.1088 -3.7698 1.67212 0
M  V30 752 H 70.4498 -0.466654 0.472367 0
M  V30 753 H 72.9798 -0.925355 1.82478 0
M  V30 754 H 72.9898 -3.30519 2.3921 0
M  V30 755 H 71.6648 -2.56411 3.27454 0
M  V30 756 H 70.2418 -3.35699 1.6236 0
M  V30 757 N 72.4269 -1.23603 -0.977757 0
M  V30 758 C 73.6729 -1.07129 -1.72195 0
M  V30 759 C 74.0059 0.390501 -1.90233 0
M  V30 760 O 73.2809 1.28902 -1.45653 0
M  V30 761 C 73.5639 -1.80031 -3.11867 0
M  V30 762 C 73.4169 -3.33899 -3.01383 0
M  V30 763 C 74.7359 -1.56492 -4.11337 0
M  V30 764 H 71.8549 -0.390571 -0.624999 0
M  V30 765 H 74.4969 -1.52142 -1.13811 0
M  V30 766 H 72.6469 -1.41768 -3.6171 0
M  V30 767 H 74.3189 -3.81699 -2.59043 0
M  V30 768 H 72.5619 -3.62796 -2.37827 0
M  V30 769 H 73.2329 -3.801 -4.00285 0
M  V30 770 H 75.7089 -1.89757 -3.70313 0
M  V30 771 H 74.5849 -2.09973 -5.07151 0
M  V30 772 H 74.8459 -0.500874 -4.39254 0
M  V30 773 N 73.905 1.17692 -1.04816 0
M  V30 774 C 74.855 2.1952 -0.616042 0
M  V30 775 C 75.839 1.57147 0.345485 0
M  V30 776 O 77.031 1.76245 0.163325 0
M  V30 777 C 74.16 3.43298 0.0116917 0
M  V30 778 C 73.246 4.12777 -0.973435 0
M  V30 779 N 73.637 4.5814 -2.14339 0
M  V30 780 C 71.935 4.38747 -0.80108 0
M  V30 781 C 72.636 5.11713 -2.7663 0
M  V30 782 N 71.612 5.03686 -2.04453 0
M  V30 783 H 75.414 2.52293 -1.5075 0
M  V30 784 H 72.928 1.3398 -0.917776 0
M  V30 785 H 74.925 4.15519 0.339006 0
M  V30 786 H 73.585 3.12018 0.898593 0
M  V30 787 H 74.596 4.52349 -2.52191 0
M  V30 788 H 71.273 4.17485 0.0350934 0
M  V30 789 H 72.663 5.56962 -3.75823 0
M  V30 790 N 75.3831 0.828654 1.34056 0
M  V30 791 C 76.6311 0.41863 1.97717 0
M  V30 792 C 76.9521 -1.02314 1.66002 0
M  V30 793 O 76.2221 -1.71119 0.953683 0
M  V30 794 H 74.8021 0.151809 0.731412 0
M  V30 795 H 77.4641 1.05936 1.63596 0
M  V30 796 H 76.5601 0.542318 3.07352 0
M  V30 797 N 76.8612 -1.46375 0.584142 0
M  V30 798 C 78.2772 -1.57694 0.245929 0
M  V30 799 C 78.4772 -1.57903 -1.25175 0
M  V30 800 O 77.5332 -1.49676 -2.03355 0
M  V30 801 C 78.8462 -2.87028 0.896402 0
M  V30 802 C 80.3942 -3.00662 0.870127 0
M  V30 803 C 80.8692 -4.32734 1.50017 0
M  V30 804 N 82.3602 -4.39436 1.46458 0
M  V30 805 C 83.0952 -5.40248 1.92144 0
M  V30 806 N 82.5912 -6.47726 2.4581 0
M  V30 807 N 84.3842 -5.31459 1.83052 0
M  V30 808 H 76.5352 -1.44483 1.55687 0
M  V30 809 H 78.7982 -0.689291 0.650831 0
M  V30 810 H 78.5042 -2.9269 1.95002 0
M  V30 811 H 78.3782 -3.75014 0.405486 0
M  V30 812 H 80.7652 -2.94581 -0.174871 0
M  V30 813 H 80.8462 -2.14148 1.39908 0
M  V30 814 H 80.4902 -4.39573 2.54437 0
M  V30 815 H 80.4202 -5.18025 0.946432 0
M  V30 816 H 82.9112 -3.62367 1.07231 0
M  V30 817 H 83.2242 -7.20863 2.78525 0
M  V30 818 H 81.5692 -6.48542 2.49836 0
M  V30 819 H 84.7602 -4.46396 1.40883 0
M  V30 820 H 84.9332 -6.09881 2.18973 0
M  V30 821 N 78.3393 -0.321999 -1.54275 0
M  V30 822 C 79.2693 0.537411 -2.27231 0
M  V30 823 C 80.2503 1.12064 -1.27968 0
M  V30 824 O 81.4353 1.14606 -1.56777 0
M  V30 825 C 78.5653 1.69919 -3.02894 0
M  V30 826 C 77.5193 1.24534 -4.09482 0
M  V30 827 C 76.8453 2.49394 -4.72977 0
M  V30 828 C 78.1453 0.361335 -5.21049 0
M  V30 829 H 79.8393 -0.0711406 -2.99315 0
M  V30 830 H 77.3853 -0.0356555 -1.43956 0
M  V30 831 H 79.3383 2.30668 -3.52662 0
M  V30 832 H 78.0623 2.33431 -2.28424 0
M  V30 833 H 76.7213 0.660782 -3.60596 0
M  V30 834 H 76.3693 3.11265 -3.95124 0
M  V30 835 H 76.0693 2.19718 -5.44975 0
M  V30 836 H 77.5933 3.10908 -5.25517 0
M  V30 837 H 79.0073 0.875072 -5.66582 0
M  V30 838 H 77.4043 0.157428 -5.99893 0
M  V30 839 H 78.4743 -0.60822 -4.8107 0
M  V30 840 N 79.8174 1.5752 -0.0501392 0
M  V30 841 C 81.0944 1.83996 0.663685 0
M  V30 842 C 81.4744 0.938339 1.89099 0
M  V30 843 O 80.8224 -0.00087759 2.285 0
M  V30 844 C 81.0324 3.33702 1.02196 0
M  V30 845 C 82.3804 4.00691 1.40469 0
M  V30 846 O 83.4044 3.38321 1.11433 0
M  V30 847 O 82.2634 5.10658 1.94654 0
M  V30 848 H 79.3574 0.759385 0.32751 0
M  V30 849 H 81.9034 1.69514 -0.0794238 0
M  V30 850 H 80.6754 3.91015 0.149364 0
M  V30 851 H 80.2984 3.53368 1.82255 0
M  V30 852 N 81.2955 -0.223234 1.56011 0
M  V30 853 C 82.2585 -1.26014 1.9145 0
M  V30 854 C 83.2585 -1.3989 0.792937 0
M  V30 855 O 84.4485 -1.38184 1.0607 0
M  V30 856 C 81.5805 -2.63422 2.16383 0
M  V30 857 H 82.7735 -0.95796 2.84189 0
M  V30 858 H 80.3265 -0.463576 1.49267 0
M  V30 859 H 81.0615 -2.98741 1.2619 0
M  V30 860 H 80.8465 -2.54728 2.98088 0
M  V30 861 H 82.3365 -3.38249 2.44903 0
M  V30 862 N 82.7736 -1.49793 -0.48987 0
M  V30 863 C 83.6836 -1.70036 -1.61632 0
M  V30 864 C 84.6996 -0.583102 -1.63939 0
M  V30 865 O 85.8756 -0.859169 -1.82154 0
M  V30 866 C 82.9406 -1.77277 -2.97949 0
M  V30 867 C 82.0016 -3.00918 -3.06181 0
M  V30 868 C 81.2346 -3.07804 -4.35996 0
M  V30 869 O 81.4576 -2.21982 -5.25433 0
M  V30 870 O 80.3916 -4.00369 -4.49431 0
M  V30 871 H 84.2176 -2.65486 -1.47482 0
M  V30 872 H 81.8026 -1.33666 -0.667362 0
M  V30 873 H 83.6846 -1.84329 -3.78947 0
M  V30 874 H 82.3596 -0.850076 -3.12339 0
M  V30 875 H 81.2666 -2.99377 -2.2433 0
M  V30 876 H 82.5996 -3.92704 -2.96723 0
M  V30 877 N 84.2517 0.741722 -1.39055 0
M  V30 878 C 85.4977 1.50336 -1.36113 0
M  V30 879 C 85.8307 1.94148 0.0450796 0
M  V30 880 O 85.1057 1.66301 1.00868 0
M  V30 881 C 85.3887 2.74773 -2.32749 0
M  V30 882 C 85.2417 2.37023 -3.82283 0
M  V30 883 C 86.5607 3.76846 -2.27322 0
M  V30 884 H 83.6797 0.545351 -0.495743 0
M  V30 885 H 86.3217 0.848624 -1.69995 0
M  V30 886 H 84.4717 3.30639 -2.03986 0
M  V30 887 H 86.1437 1.8684 -4.21768 0
M  V30 888 H 84.3867 1.69334 -3.99385 0
M  V30 889 H 85.0577 3.26104 -4.45376 0
M  V30 890 H 87.5337 3.30548 -2.5274 0
M  V30 891 H 86.4097 4.6159 -2.97028 0
M  V30 892 H 86.6707 4.23286 -1.27599 0
M  V30 893 N 85.7298 1.2412 0.971189 0
M  V30 894 C 86.9548 1.10667 1.75407 0
M  V30 895 C 87.3798 -0.337048 1.85056 0
M  V30 896 O 86.7378 -1.24396 1.31892 0
M  V30 897 C 86.7858 1.74726 3.15441 0
M  V30 898 O 85.8898 1.01566 3.99697 0
M  V30 899 H 85.2308 0.387341 0.539317 0
M  V30 900 H 87.7608 1.64358 1.2185 0
M  V30 901 H 87.7708 1.80341 3.6598 0
M  V30 902 H 86.4458 2.79773 3.07734 0
M  V30 903 H 85.0228 1.03713 3.58187 0
M  V30 904 N 87.2079 -1.17134 1.05439 0
M  V30 905 C 88.4539 -1.87733 0.767077 0
M  V30 906 C 88.7869 -1.8098 -0.704253 0
M  V30 907 O 88.0619 -1.21951 -1.5152 0
M  V30 908 C 88.3449 -3.37659 1.25133 0
M  V30 909 C 88.1979 -3.53149 2.78578 0
M  V30 910 C 89.5169 -4.31768 0.852324 0
M  V30 911 H 86.6359 -0.681687 0.280129 0
M  V30 912 H 89.2779 -1.37732 1.30881 0
M  V30 913 H 87.4279 -3.80373 0.790469 0
M  V30 914 H 89.0999 -3.19434 3.32806 0
M  V30 915 H 87.3429 -2.95345 3.17732 0
M  V30 916 H 88.0139 -4.58403 3.07523 0
M  V30 917 H 90.4899 -3.96909 1.24911 0
M  V30 918 H 89.3659 -5.35199 1.21873 0
M  V30 919 H 89.6269 -4.41429 -0.243485 0
M  V30 920 N 88.686 -0.835752 -1.33615 0
M  V30 921 C 89.634 -0.255238 -2.31195 0
M  V30 922 C 90.628 0.61107 -1.57995 0
M  V30 923 O 91.834 0.500979 -1.72888 0
M  V30 924 H 88.209 -0.0638085 -0.749288 0
M  V30 925 H 90.18 -1.09283 -2.77669 0
M  V30 926 C 88.929 0.55754 -3.43201 0
M  V30 927 H 88.252 -0.0997553 -3.99676 0
M  V30 928 H 89.692 0.929622 -4.13683 0
M  V30 929 C 88.151 1.73515 -2.88781 0
M  V30 930 O 88.681 2.83376 -2.84712 0
M  V30 931 N 86.887 1.55603 -2.4543 0
M  V30 932 H 86.434 0.662354 -2.48939 0
M  V30 933 H 86.392 2.34545 -2.09371 0
M  V30 934 N 90.1641 1.46063 -0.591896 0
M  V30 935 C 91.4121 2.01938 -0.0808391 0
M  V30 936 C 91.7331 1.46475 1.28725 0
M  V30 937 O 91.0031 0.652944 1.84698 0
M  V30 938 H 89.5831 0.746516 -0.0268938 0
M  V30 939 H 92.2451 1.79055 -0.769752 0
M  V30 940 H 91.3411 3.12094 -0.0187578 0
M  V30 941 N 91.6422 0.330177 1.54103 0
M  V30 942 C 92.5902 -0.548226 2.26047 0
M  V30 943 C 93.5842 -1.11309 1.27698 0
M  V30 944 O 94.7902 -1.06036 1.45452 0
M  V30 945 H 91.1652 -0.195456 0.726155 0
M  V30 946 H 93.1362 0.0807567 2.98291 0
M  V30 947 C 91.8852 -1.69415 3.03634 0
M  V30 948 H 91.2082 -1.26876 3.79134 0
M  V30 949 H 92.6482 -2.28423 3.5721 0
M  V30 950 C 91.1072 -2.61569 2.12328 0
M  V30 951 O 91.6372 -3.63462 1.7105 0
M  V30 952 N 89.8432 -2.29952 1.77681 0
M  V30 953 H 89.3902 -1.47134 2.11446 0
M  V30 954 H 89.3482 -2.91871 1.16869 0
M  V30 955 N 93.1203 -1.57491 0.0584922 0
M  V30 956 C 94.0683 -2.13148 -0.931168 0
M  V30 957 C 95.0623 -1.06507 -1.31729 0
M  V30 958 O 96.2683 -1.24906 -1.29609 0
M  V30 959 H 92.6433 -0.68137 -0.31818 0
M  V30 960 H 94.6143 -2.95187 -0.436707 0
M  V30 961 C 93.3633 -2.69732 -2.19408 0
M  V30 962 H 92.6863 -3.51454 -1.90578 0
M  V30 963 H 94.1263 -3.12287 -2.86798 0
M  V30 964 C 92.5853 -1.63855 -2.94369 0
M  V30 965 O 93.1153 -1.05565 -3.87581 0
M  V30 966 N 91.3213 -1.35202 -2.57233 0
M  V30 967 H 90.8683 -1.82791 -1.81508 0
M  V30 968 H 90.8263 -0.645922 -3.07693 0
M  V30 969 N 94.5984 0.214957 -1.56127 0
M  V30 970 C 95.5284 1.2695 -1.95974 0
M  V30 971 C 96.5094 1.48539 -0.828868 0
M  V30 972 O 97.6944 1.60611 -1.09168 0
M  V30 973 C 94.8244 2.61794 -2.28214 0
M  V30 974 C 93.7784 2.54851 -3.43853 0
M  V30 975 C 93.1044 3.93785 -3.61715 0
M  V30 976 C 94.4044 2.09065 -4.78632 0
M  V30 977 H 96.0984 0.93846 -2.84312 0
M  V30 978 H 93.6444 0.449996 -1.36788 0
M  V30 979 H 95.5974 3.35731 -2.54682 0
M  V30 980 H 94.3214 2.96599 -1.36736 0
M  V30 981 H 92.9804 1.8337 -3.17444 0
M  V30 982 H 92.6284 4.25908 -2.67602 0
M  V30 983 H 92.3284 3.90019 -4.39498 0
M  V30 984 H 93.8524 4.69374 -3.90539 0
M  V30 985 H 95.2664 2.7275 -5.04262 0
M  V30 986 H 93.6634 2.16346 -5.59745 0
M  V30 987 H 94.7334 1.04315 -4.73547 0
M  V30 988 N 96.0765 1.50051 0.48192 0
M  V30 989 C 97.3225 1.60736 1.2366 0
M  V30 990 C 97.6555 0.301786 1.91841 0
M  V30 991 O 96.9305 -0.696025 1.8162 0
M  V30 992 C 97.2135 2.78009 2.28874 0
M  V30 993 C 97.0665 4.18416 1.65069 0
M  V30 994 C 98.3855 2.90867 3.30279 0
M  V30 995 H 95.5045 0.585031 0.448228 0
M  V30 996 H 98.1465 1.82402 0.531946 0
M  V30 997 H 96.2965 2.59667 2.88973 0
M  V30 998 H 97.9685 4.48322 1.0865 0
M  V30 999 H 96.2115 4.23177 0.954148 0
M  V30 1000 H 96.8825 4.96381 2.41474 0
M  V30 1001 H 99.3585 3.07623 2.80191 0
M  V30 1002 H 98.2345 3.74566 4.01238 0
M  V30 1003 H 98.4955 2.01021 3.93755 0
M  V30 1004 N 97.5546 -0.734337 1.39446 0
M  V30 1005 C 98.8006 -1.49613 1.36908 0
M  V30 1006 C 99.1336 -1.94169 -0.0347829 0
M  V30 1007 O 98.4086 -1.66833 -0.999847 0
M  V30 1008 C 98.6916 -2.73534 2.34203 0
M  V30 1009 C 98.5446 -2.34993 3.83534 0
M  V30 1010 C 99.8636 -3.75635 2.29317 0
M  V30 1011 H 96.9826 -0.542714 0.498629 0
M  V30 1012 H 99.6246 -0.839597 1.70443 0
M  V30 1013 H 97.7746 -3.29553 2.05736 0
M  V30 1014 H 99.4466 -1.84601 4.22753 0
M  V30 1015 H 97.6896 -1.67213 4.00278 0
M  V30 1016 H 98.3606 -3.23738 4.47099 0
M  V30 1017 H 100.837 -3.29203 2.54489 0
M  V30 1018 H 99.7126 -4.60008 2.99472 0
M  V30 1019 H 99.9736 -4.22603 1.29842 0
M  V30 1020 N 99.0327 -1.24633 -0.964593 0
M  V30 1021 C 99.9807 -1.03917 -2.08096 0
M  V30 1022 C 100.975 0.0268581 -1.69379 0
M  V30 1023 O 102.181 -0.127952 -1.79545 0
M  V30 1024 H 98.5557 -0.319044 -0.680966 0
M  V30 1025 H 100.527 -1.98581 -2.22729 0
M  V30 1026 C 99.2757 -0.663983 -3.41301 0
M  V30 1027 H 98.5987 -1.47605 -3.71555 0
M  V30 1028 H 100.039 -0.558663 -4.20303 0
M  V30 1029 C 98.4977 0.629169 -3.30973 0
M  V30 1030 O 99.0277 1.67404 -3.65156 0
M  V30 1031 N 97.2337 0.611057 -2.84103 0
M  V30 1032 H 96.7807 -0.239593 -2.56483 0
M  V30 1033 H 96.7387 1.47647 -2.77575 0
M  V30 1034 N 100.511 1.16574 -1.06058 0
M  V30 1035 C 101.759 1.86677 -0.77434 0
M  V30 1036 C 102.08 1.81959 0.701147 0
M  V30 1037 O 101.35 1.2515 1.50713 0
M  V30 1038 H 99.9298 0.691134 -0.283449 0
M  V30 1039 H 102.592 1.41378 -1.34158 0
M  V30 1040 H 101.688 2.92181 -1.09711 0
M  V30 1041 N 101.989 0.842826 1.3317 0
M  V30 1042 C 102.936 0.276885 2.29133 0
M  V30 1043 C 103.906 -0.609527 1.54512 0
M  V30 1044 O 105.091 -0.546955 1.82792 0
M  V30 1045 C 102.231 -0.538707 3.40869 0
M  V30 1046 C 101.344 0.372169 4.30394 0
M  V30 1047 C 100.479 -0.454908 5.29249 0
M  V30 1048 C 99.5179 0.45411 6.10413 0
M  V30 1049 N 98.6549 -0.335075 7.013 0
M  V30 1050 H 103.495 1.10052 2.76934 0
M  V30 1051 H 101.032 0.554161 1.36262 0
M  V30 1052 H 102.99 -1.02709 4.0436 0
M  V30 1053 H 101.62 -1.32727 2.9425 0
M  V30 1054 H 100.672 0.97888 3.6759 0
M  V30 1055 H 101.984 1.0703 4.87182 0
M  V30 1056 H 101.138 -1.00695 5.98285 0
M  V30 1057 H 99.8769 -1.18646 4.73048 0
M  V30 1058 H 98.8819 1.01813 5.40291 0
M  V30 1059 H 100.107 1.18409 6.68697 0
M  V30 1060 H 98.0529 -1.04994 6.47543 0
M  V30 1061 H 97.9699 0.304262 7.55387 0
M  V30 1062 H 99.2379 -0.869224 7.74638 0
M  V30 1063 N 103.467 -1.45747 0.599634 0
M  V30 1064 C 104.377 -2.34262 -0.125888 0
M  V30 1065 C 105.393 -1.50768 -0.868625 0
M  V30 1066 O 106.569 -1.83592 -0.828003 0
M  V30 1067 C 103.634 -3.28252 -1.11587 0
M  V30 1068 C 102.695 -4.27651 -0.375956 0
M  V30 1069 C 101.928 -5.1715 -1.31877 0
M  V30 1070 O 102.151 -5.09916 -2.55621 0
M  V30 1071 O 101.085 -5.96286 -0.820157 0
M  V30 1072 H 104.911 -2.97688 0.601315 0
M  V30 1073 H 102.496 -1.44999 0.359934 0
M  V30 1074 H 104.378 -3.86191 -1.68626 0
M  V30 1075 H 103.053 -2.67401 -1.82424 0
M  V30 1076 H 101.96 -3.7335 0.236698 0
M  V30 1077 H 103.293 -4.91334 0.29177 0
M  V30 1078 N 104.945 -0.338344 -1.53925 0
M  V30 1079 C 106.194 0.260732 -2.00008 0
M  V30 1080 C 106.507 1.52073 -1.23017 0
M  V30 1081 O 107.713 2.19672 -1.5955 0
M  V30 1082 C 106.169 0.51515 -3.56194 0
M  V30 1083 C 105.777 -0.728645 -4.42035 0
M  V30 1084 C 107.521 1.07337 -4.10706 0
M  V30 1085 C 105.428 -0.445315 -5.89721 0
M  V30 1086 H 104.358 0.101205 -0.747177 0
M  V30 1087 H 107.009 -0.452866 -1.77824 0
M  V30 1088 H 105.391 1.28932 -3.74423 0
M  V30 1089 H 106.565 -1.50352 -4.35581 0
M  V30 1090 H 104.88 -1.20813 -3.98489 0
M  V30 1091 H 107.477 1.30022 -5.18651 0
M  V30 1092 H 107.82 2.0273 -3.63602 0
M  V30 1093 H 108.353 0.360034 -3.96167 0
M  V30 1094 H 105.092 -1.36883 -6.41049 0
M  V30 1095 H 104.612 0.291569 -5.99091 0
M  V30 1096 H 106.291 -0.0606218 -6.46972 0
M  V30 1097 N 106.423 1.57458 -0.0668435 0
M  V30 1098 C 107.672 1.92477 0.602947 0
M  V30 1099 C 107.985 0.948419 1.71068 0
M  V30 1100 O 109.191 1.19124 2.43971 0
M  V30 1101 C 107.647 3.41903 1.12383 0
M  V30 1102 C 107.255 4.47975 0.04737 0
M  V30 1103 C 108.999 3.85931 1.76797 0
M  V30 1104 C 106.906 5.88529 0.582022 0
M  V30 1105 H 105.836 0.718387 0.22899 0
M  V30 1106 H 108.487 1.82978 -0.138276 0
M  V30 1107 H 106.869 3.46459 1.91787 0
M  V30 1108 H 108.043 4.55029 -0.726978 0
M  V30 1109 H 106.358 4.13384 -0.500243 0
M  V30 1110 H 108.955 4.88322 2.17821 0
M  V30 1111 H 109.298 3.23029 2.62599 0
M  V30 1112 H 109.831 3.83958 1.04024 0
M  V30 1113 H 106.57 6.55065 -0.238721 0
M  V30 1114 H 106.09 5.85004 1.324 0
M  V30 1115 H 107.769 6.38258 1.05999 0
M  V30 1116 N 107.901 -0.206675 1.56239 0
M  V30 1117 C 109.147 -0.930218 1.80208 0
M  V30 1118 C 109.48 -1.83387 0.638981 0
M  V30 1119 O 108.755 -1.91119 -0.361066 0
M  V30 1120 C 109.038 -1.75641 3.1436 0
M  V30 1121 C 108.891 -0.878257 4.41142 0
M  V30 1122 C 110.21 -2.73129 3.45092 0
M  V30 1123 H 107.329 -0.336742 0.655571 0
M  V30 1124 H 109.971 -0.198222 1.88963 0
M  V30 1125 H 108.121 -2.38048 3.07027 0
M  V30 1126 H 109.793 -0.269787 4.6051 0
M  V30 1127 H 108.036 -0.184385 4.33408 0
M  V30 1128 H 108.707 -1.49106 5.3148 0
M  V30 1129 H 111.183 -2.20856 3.52649 0
M  V30 1130 H 110.059 -3.28028 4.40101 0
M  V30 1131 H 110.32 -3.51606 2.68003 0
M  V30 1132 N 109.379 -1.50304 -0.473955 0
M  V30 1133 C 110.326 -1.68959 -1.57231 0
M  V30 1134 C 111.296 -0.530899 -1.57387 0
M  V30 1135 O 112.481 -0.761133 -1.74961 0
M  V30 1136 C 109.621 -1.7871 -2.95223 0
M  V30 1137 C 108.734 -3.06061 -3.04878 0
M  V30 1138 C 107.869 -3.06626 -4.33767 0
M  V30 1139 C 106.908 -4.28443 -4.37154 0
M  V30 1140 N 106.045 -4.26763 -5.5751 0
M  V30 1141 H 110.885 -2.6273 -1.40631 0
M  V30 1142 H 108.422 -1.30241 -0.683789 0
M  V30 1143 H 110.38 -1.82344 -3.75242 0
M  V30 1144 H 109.01 -0.883806 -3.10465 0
M  V30 1145 H 108.062 -3.11911 -2.17751 0
M  V30 1146 H 109.374 -3.96039 -3.0324 0
M  V30 1147 H 108.528 -3.08973 -5.22131 0
M  V30 1148 H 107.267 -2.14473 -4.3801 0
M  V30 1149 H 106.272 -4.2631 -3.47188 0
M  V30 1150 H 107.497 -5.2182 -4.34605 0
M  V30 1151 H 105.443 -3.37462 -5.62544 0
M  V30 1152 H 105.36 -5.10507 -5.57601 0
M  V30 1153 H 106.628 -4.33253 -6.48006 0
M  V30 1154 N 110.857 0.726932 -1.39834 0
M  V30 1155 C 111.82 1.82269 -1.38962 0
M  V30 1156 C 112.82 1.58248 -0.285334 0
M  V30 1157 O 114.01 1.65499 -0.54366 0
M  V30 1158 C 111.142 3.20186 -1.17019 0
M  V30 1159 H 112.335 1.84443 -2.36476 0
M  V30 1160 H 109.888 0.931416 -1.25516 0
M  V30 1161 H 110.623 3.23669 -0.202204 0
M  V30 1162 H 110.408 3.3902 -1.96998 0
M  V30 1163 H 111.898 4.00235 -1.1917 0
M  V30 1164 N 112.336 1.25143 0.95797 0
M  V30 1165 C 113.246 1.06968 2.08794 0
M  V30 1166 C 114.262 0.00773911 1.73998 0
M  V30 1167 O 115.438 0.207972 2.00323 0
M  V30 1168 C 112.503 0.68691 3.39827 0
M  V30 1169 C 111.564 1.82641 3.88511 0
M  V30 1170 C 110.797 1.46181 5.1329 0
M  V30 1171 O 111.02 0.355971 5.69288 0
M  V30 1172 O 109.954 2.29085 5.566 0
M  V30 1173 H 113.78 2.01723 2.27027 0
M  V30 1174 H 111.365 1.04051 1.07209 0
M  V30 1175 H 113.247 0.485417 4.18595 0
M  V30 1176 H 111.922 -0.231417 3.22872 0
M  V30 1177 H 110.829 2.08274 3.10762 0
M  V30 1178 H 112.162 2.72386 4.09959 0
M  V30 1179 N 113.814 -1.1601 1.06675 0
M  V30 1180 C 115.23 -1.38622 0.790948 0
M  V30 1181 C 115.43 -1.92109 -0.607965 0
M  V30 1182 O 114.486 -2.12239 -1.36787 0
M  V30 1183 C 115.799 -2.36347 1.85905 0
M  V30 1184 C 117.347 -2.50023 1.88301 0
M  V30 1185 C 117.822 -3.51033 2.94176 0
M  V30 1186 N 119.313 -3.58563 2.93235 0
M  V30 1187 C 120.048 -4.36521 3.71803 0
M  V30 1188 N 119.544 -5.17869 4.602 0
M  V30 1189 N 121.337 -4.31541 3.60178 0
M  V30 1190 H 113.488 -0.796294 1.96908 0
M  V30 1191 H 115.751 -0.412597 0.853503 0
M  V30 1192 H 115.457 -2.04147 2.86386 0
M  V30 1193 H 115.331 -3.36042 1.71334 0
M  V30 1194 H 117.718 -2.81524 0.884769 0
M  V30 1195 H 117.799 -1.5035 2.06951 0
M  V30 1196 H 117.443 -3.20268 3.94196 0
M  V30 1197 H 117.373 -4.50445 2.72776 0
M  V30 1198 H 119.864 -3.00496 2.29152 0
M  V30 1199 H 120.177 -5.74578 5.16797 0
M  V30 1200 H 118.522 -5.17199 4.64253 0
M  V30 1201 H 121.713 -3.67051 2.90502 0
M  V30 1202 H 121.886 -4.9205 4.21653 0
M  V30 1203 N 115.292 -0.849877 -1.32721 0
M  V30 1204 C 116.569 -0.372405 -1.92022 0
M  V30 1205 C 116.949 1.1435 -1.77447 0
M  V30 1206 O 116.297 1.96296 -1.16962 0
M  V30 1207 C 116.507 -0.831482 -3.3895 0
M  V30 1208 C 117.855 -0.845882 -4.16089 0
M  V30 1209 O 118.879 -0.775806 -3.47649 0
M  V30 1210 O 117.738 -0.943753 -5.38289 0
M  V30 1211 H 114.832 -0.107667 -0.819961 0
M  V30 1212 H 117.378 -0.93646 -1.41522 0
M  V30 1213 H 116.15 -1.87448 -3.4348 0
M  V30 1214 H 115.773 -0.24461 -3.96847 0
M  V30 1215 N 116.77 1.45427 -0.607355 0
M  V30 1216 C 118.181 1.85756 -0.187535 0
M  V30 1217 C 118.532 1.5077 1.25551 0
M  V30 1218 O 117.657 0.93427 1.95193 0
M  V30 1219 C 118.252 3.37154 -0.333572 0
M  V30 1220 C 116.811 3.76387 0.0315542 0
M  V30 1221 C 115.958 2.69377 -0.658117 0
M  V30 1222 H 118.909 1.36231 -0.81405 0
M  V30 1223 H 118.93 3.78014 0.43428 0
M  V30 1224 H 118.442 3.62586 -1.38393 0
M  V30 1225 H 116.543 3.56571 1.0811 0
M  V30 1226 H 116.656 4.77731 -0.361935 0
M  V30 1227 H 115.02 2.5452 -0.0957873 0
M  V30 1228 H 115.803 2.97646 -1.7106 0
M  V30 1229 N 118.248 0.346503 1.53744 0
M  V30 1230 C 119.158 -0.517293 2.28826 0
M  V30 1231 C 120.174 -1.10935 1.3405 0
M  V30 1232 O 121.35 -1.1244 1.6709 0
M  V30 1233 C 118.415 -1.65098 3.04866 0
M  V30 1234 C 117.476 -1.0884 4.15274 0
M  V30 1235 C 116.709 -2.16806 4.87679 0
M  V30 1236 O 116.932 -3.3758 4.59778 0
M  V30 1237 O 115.866 -1.80934 5.74061 0
M  V30 1238 H 119.692 0.0931396 3.03557 0
M  V30 1239 H 117.277 0.111458 1.48984 0
M  V30 1240 H 119.159 -2.31053 3.5241 0
M  V30 1241 H 117.834 -2.24717 2.32989 0
M  V30 1242 H 116.741 -0.3933 3.72027 0
M  V30 1243 H 118.074 -0.537036 4.89261 0
M  V30 1244 N 119.726 -1.57421 0.075193 0
M  V30 1245 C 120.674 -2.14124 -0.908508 0
M  V30 1246 C 121.668 -1.07898 -1.30592 0
M  V30 1247 O 122.874 -1.26273 -1.28277 0
M  V30 1248 H 119.249 -0.684707 -0.310935 0
M  V30 1249 H 121.22 -2.95634 -0.405374 0
M  V30 1250 C 119.969 -2.72044 -2.16535 0
M  V30 1251 H 119.292 -3.53456 -1.86839 0
M  V30 1252 H 120.732 -3.15311 -2.83469 0
M  V30 1253 C 119.191 -1.66968 -2.92615 0
M  V30 1254 O 119.721 -1.0967 -3.86439 0
M  V30 1255 N 117.927 -1.37923 -2.55784 0
M  V30 1256 H 117.474 -1.84706 -1.79559 0
M  V30 1257 H 117.432 -0.67852 -3.06991 0
M  V30 1258 N 121.204 0.198386 -1.56346 0
M  V30 1259 C 122.134 1.24865 -1.9731 0
M  V30 1260 C 123.115 1.47651 -0.844576 0
M  V30 1261 O 124.3 1.59444 -1.10866 0
M  V30 1262 C 121.43 2.59358 -2.30977 0
M  V30 1263 C 120.384 2.5119 -3.46537 0
M  V30 1264 C 119.71 3.89926 -3.65871 0
M  V30 1265 C 121.01 2.03977 -4.80823 0
M  V30 1266 H 122.704 0.908252 -2.85291 0
M  V30 1267 H 120.25 0.435462 -1.37258 0
M  V30 1268 H 122.203 3.33011 -2.58228 0
M  V30 1269 H 120.927 2.95132 -1.39874 0
M  V30 1270 H 119.586 1.79993 -3.19371 0
M  V30 1271 H 119.234 4.23046 -2.72105 0
M  V30 1272 H 118.934 3.85336 -4.4361 0
M  V30 1273 H 120.458 4.65205 -3.95495 0
M  V30 1274 H 121.872 2.67386 -5.07127 0
M  V30 1275 H 120.269 2.10397 -5.62008 0
M  V30 1276 H 121.339 0.992861 -4.74626 0
M  V30 1277 N 122.682 1.50554 0.465978 0
M  V30 1278 C 123.645 1.69233 1.54574 0
M  V30 1279 C 124.645 0.562901 1.50626 0
M  V30 1280 O 125.835 0.830016 1.53155 0
M  V30 1281 C 122.967 1.7223 2.94193 0
M  V30 1282 H 124.16 2.65571 1.39327 0
M  V30 1283 H 121.713 1.40111 0.692711 0
M  V30 1284 H 122.448 0.77603 3.14878 0
M  V30 1285 H 122.233 2.54285 2.98466 0
M  V30 1286 H 123.723 1.88618 3.72576 0
M  V30 1287 N 124.16 -0.719506 1.40217 0
M  V30 1288 C 125.406 -1.48034 1.39491 0
M  V30 1289 C 125.761 -1.92399 -0.00443536 0
M  V30 1290 O 125.054 -1.64993 -0.974061 0
M  V30 1291 C 125.248 -2.72271 2.31524 0
M  V30 1292 C 125.077 -2.40055 3.80268 0
M  V30 1293 C 123.847 -2.31588 4.49105 0
M  V30 1294 C 126.045 -2.04581 4.71859 0
M  V30 1295 N 124.027 -1.92006 5.83101 0
M  V30 1296 C 125.398 -1.75568 5.94623 0
M  V30 1297 C 127.453 -1.91183 4.59732 0
M  V30 1298 C 126.156 -1.34505 7.06612 0
M  V30 1299 C 128.182 -1.51524 5.71659 0
M  V30 1300 C 127.544 -1.23406 6.93506 0
M  V30 1301 H 123.643 -0.539927 0.565688 0
M  V30 1302 H 126.227 -0.834764 1.75897 0
M  V30 1303 H 124.398 -3.34584 1.97251 0
M  V30 1304 H 126.13 -3.38584 2.21682 0
M  V30 1305 H 122.885 -2.49199 4.02737 0
M  V30 1306 H 123.309 -1.74764 6.54054 0
M  V30 1307 H 127.951 -2.11584 3.66049 0
M  V30 1308 H 125.669 -1.12846 8.00182 0
M  V30 1309 H 129.255 -1.41741 5.6427 0
M  V30 1310 H 128.135 -0.931788 7.78645 0
M  V30 1311 N 125.638 -1.25649 -0.95132 0
M  V30 1312 C 126.886 -1.10375 -1.69298 0
M  V30 1313 C 127.207 0.355339 -1.91735 0
M  V30 1314 O 126.477 1.25188 -1.50681 0
M  V30 1315 H 125.057 -0.405461 -0.627384 0
M  V30 1316 H 127.719 -1.57823 -1.14358 0
M  V30 1317 H 126.815 -1.61465 -2.67087 0
M  V30 1318 N 127.117 1.15442 -1.07289 0
M  V30 1319 C 128.027 2.23786 -0.704057 0
M  V30 1320 C 129.043 1.7166 0.284413 0
M  V30 1321 O 130.219 2.00972 0.131205 0
M  V30 1322 C 127.284 3.46535 -0.106792 0
M  V30 1323 C 126.345 4.13654 -1.14842 0
M  V30 1324 C 125.578 5.30544 -0.57956 0
M  V30 1325 O 125.801 5.67187 0.604585 0
M  V30 1326 O 124.735 5.87154 -1.32414 0
M  V30 1327 H 128.561 2.57664 -1.60757 0
M  V30 1328 H 126.146 1.23152 -0.845803 0
M  V30 1329 H 128.028 4.20804 0.224048 0
M  V30 1330 H 126.703 3.14407 0.770049 0
M  V30 1331 H 125.61 3.4131 -1.5316 0
M  V30 1332 H 126.943 4.49861 -1.99714 0
M  V30 1333 N 128.595 0.856903 1.32268 0
M  V30 1334 C 129.844 0.457599 1.96441 0
M  V30 1335 C 130.157 -0.992426 1.68553 0
M  V30 1336 O 131.363 -1.49727 2.26482 0
M  V30 1337 C 129.819 0.767358 3.51624 0
M  V30 1338 C 129.427 2.23326 3.88367 0
M  V30 1339 C 131.171 0.435887 4.22256 0
M  V30 1340 C 129.078 2.48613 5.36606 0
M  V30 1341 H 128.008 0.167387 0.735185 0
M  V30 1342 H 130.659 1.048 1.5063 0
M  V30 1343 H 129.041 0.106367 3.95857 0
M  V30 1344 H 130.215 2.93623 3.55137 0
M  V30 1345 H 128.53 2.52948 3.30766 0
M  V30 1346 H 131.127 0.602202 5.31298 0
M  V30 1347 H 131.47 -0.622672 4.11617 0
M  V30 1348 H 132.003 1.05286 3.83614 0
M  V30 1349 H 128.742 3.53101 5.52268 0
M  V30 1350 H 128.262 1.82896 5.71235 0
M  V30 1351 H 129.941 2.32676 6.03714 0
M  V30 1352 N 130.073 -1.45103 0.615059 0
M  V30 1353 C 131.321 -2.01784 0.112955 0
M  V30 1354 C 131.642 -1.48504 -1.26378 0
M  V30 1355 O 130.912 -0.682245 -1.83636 0
M  V30 1356 H 129.492 -0.745993 0.0387668 0
M  V30 1357 H 132.154 -1.77808 0.798141 0
M  V30 1358 H 131.25 -3.12025 0.0684069 0
M  V30 1359 N 131.551 -0.354651 -1.53558 0
M  V30 1360 C 132.797 0.238797 -2.01389 0
M  V30 1361 C 133.13 1.49309 -1.2418 0
M  V30 1362 O 132.405 1.91638 -0.332457 0
M  V30 1363 C 132.688 0.541771 -3.56001 0
M  V30 1364 C 132.541 -0.725388 -4.43912 0
M  V30 1365 C 133.86 1.34685 -4.18984 0
M  V30 1366 H 130.979 0.0853177 -0.732045 0
M  V30 1367 H 133.621 -0.477384 -1.83905 0
M  V30 1368 H 131.771 1.15189 -3.71031 0
M  V30 1369 H 133.443 -1.36313 -4.407 0
M  V30 1370 H 131.686 -1.34801 -4.12324 0
M  V30 1371 H 132.357 -0.468505 -5.50008 0
M  V30 1372 H 134.833 0.830837 -4.07721 0
M  V30 1373 H 133.709 1.52759 -5.27215 0
M  V30 1374 H 133.97 2.35221 -3.74331 0
M  V30 1375 N 133.029 1.57378 -0.0835403 0
M  V30 1376 C 134.306 1.85363 0.624507 0
M  V30 1377 C 134.686 0.978239 1.87066 0
M  V30 1378 O 134.034 0.0475908 2.2845 0
M  V30 1379 C 134.244 3.35795 0.950947 0
M  V30 1380 C 135.592 4.03581 1.31939 0
M  V30 1381 O 136.616 3.40609 1.04232 0
M  V30 1382 O 135.475 5.14672 1.83779 0
M  V30 1383 H 132.569 0.766162 0.311329 0
M  V30 1384 H 135.115 1.69307 -0.115362 0
M  V30 1385 H 133.887 3.91244 0.0663899 0
M  V30 1386 H 133.51 3.57154 1.74719 0
M  V30 1387 N 134.507 -0.190092 1.56449 0
M  V30 1388 C 135.756 -0.907912 1.80111 0
M  V30 1389 C 136.069 -1.84214 0.657619 0
M  V30 1390 O 137.275 -2.60094 0.778663 0
M  V30 1391 C 135.731 -1.66485 3.19078 0
M  V30 1392 C 135.339 -0.7752 4.41242 0
M  V30 1393 C 137.083 -2.37201 3.52045 0
M  V30 1394 C 134.99 -1.53129 5.71231 0
M  V30 1395 H 133.92 -0.34276 0.671589 0
M  V30 1396 H 136.571 -0.161109 1.82791 0
M  V30 1397 H 134.953 -2.45572 3.10661 0
M  V30 1398 H 136.127 -0.0226298 4.60794 0
M  V30 1399 H 134.442 -0.178627 4.16017 0
M  V30 1400 H 137.039 -2.94329 4.46402 0
M  V30 1401 H 137.382 -3.11632 2.76028 0
M  V30 1402 H 137.915 -1.65075 3.61932 0
M  V30 1403 H 134.654 -0.82967 6.50228 0
M  V30 1404 H 134.174 -2.25767 5.55688 0
M  V30 1405 H 135.853 -2.08377 6.12526 0
M  V30 1406 N 135.985 -1.50799 -0.457987 0
M  V30 1407 C 137.231 -1.62683 -1.21088 0
M  V30 1408 C 137.564 -0.332268 -1.91336 0
M  V30 1409 O 136.839 0.667043 -1.82704 0
M  V30 1410 C 137.122 -2.81615 -2.24422 0
M  V30 1411 C 136.975 -4.20989 -1.58392 0
M  V30 1412 C 138.294 -2.96085 -3.2561 0
M  V30 1413 H 135.413 -0.592087 -0.438864 0
M  V30 1414 H 138.055 -1.83225 -0.50286 0
M  V30 1415 H 136.205 -2.64231 -2.84806 0
M  V30 1416 H 137.877 -4.49994 -1.01504 0
M  V30 1417 H 136.12 -4.24641 -0.886704 0
M  V30 1418 H 136.791 -5.0016 -2.33547 0
M  V30 1419 H 139.267 -3.12042 -2.75262 0
M  V30 1420 H 138.143 -3.80902 -3.95228 0
M  V30 1421 H 138.404 -2.0726 -3.90507 0
M  V30 1422 N 137.463 0.71206 -1.40597 0
M  V30 1423 C 138.709 1.47416 -1.39271 0
M  V30 1424 C 139.042 1.942 0.00388791 0
M  V30 1425 O 138.317 1.68403 0.973179 0
M  V30 1426 C 138.6 2.69774 -2.38525 0
M  V30 1427 C 138.453 2.28861 -3.87224 0
M  V30 1428 C 139.772 3.71939 -2.35264 0
M  V30 1429 H 136.891 0.534713 -0.5072 0
M  V30 1430 H 139.533 0.812375 -1.71757 0
M  V30 1431 H 137.683 3.26238 -2.10953 0
M  V30 1432 H 139.355 1.77852 -4.25636 0
M  V30 1433 H 137.598 1.60824 -4.02887 0
M  V30 1434 H 138.269 3.16584 -4.52193 0
M  V30 1435 H 140.745 3.25113 -2.59694 0
M  V30 1436 H 139.621 4.55186 -3.06753 0
M  V30 1437 H 139.882 4.20484 -1.36549 0
M  V30 1438 N 138.941 1.26152 0.944643 0
M  V30 1439 C 139.851 1.09176 2.07648 0
M  V30 1440 C 140.867 0.0261935 1.7398 0
M  V30 1441 O 142.043 0.229208 2.00091 0
M  V30 1442 C 139.108 0.722915 3.39079 0
M  V30 1443 C 138.169 1.86752 3.86552 0
M  V30 1444 C 137.402 1.51617 5.11711 0
M  V30 1445 O 137.625 0.416331 5.68879 0
M  V30 1446 O 136.559 2.34975 5.54139 0
M  V30 1447 H 140.385 2.0412 2.24875 0
M  V30 1448 H 137.97 1.05182 1.061 0
M  V30 1449 H 139.852 0.529787 4.18056 0
M  V30 1450 H 138.527 -0.197159 3.23099 0
M  V30 1451 H 137.434 2.11558 3.08535 0
M  V30 1452 H 138.767 2.76719 4.07047 0
M  V30 1453 N 140.419 -1.14872 1.07899 0
M  V30 1454 C 141.644 -1.90202 0.826926 0
M  V30 1455 C 142.069 -1.77774 -0.614664 0
M  V30 1456 O 141.427 -1.11431 -1.43013 0
M  V30 1457 C 141.475 -3.38352 1.24702 0
M  V30 1458 O 140.579 -4.10497 0.39575 0
M  V30 1459 H 139.92 -0.591968 0.300782 0
M  V30 1460 H 142.45 -1.45437 1.43907 0
M  V30 1461 H 142.46 -3.89156 1.22563 0
M  V30 1462 H 141.135 -3.46715 2.29698 0
M  V30 1463 H 139.712 -3.69796 0.480117 0
M  V30 1464 N 141.898 -0.863906 -1.31812 0
M  V30 1465 C 143.126 -0.486111 -2.01108 0
M  V30 1466 C 143.541 0.919755 -1.64882 0
M  V30 1467 O 142.898 1.60162 -0.874893 0
M  V30 1468 C 142.949 -0.626435 -3.56031 0
M  V30 1469 O 142.67 -1.97693 -3.90959 0
M  V30 1470 C 144.171 -0.248857 -4.42601 0
M  V30 1471 H 141.391 -0.190052 -0.643523 0
M  V30 1472 H 143.935 -1.1634 -1.68182 0
M  V30 1473 H 142.09 0.00322717 -3.874 0
M  V30 1474 H 142.504 -1.98034 -4.85678 0
M  V30 1475 H 143.978 -0.398016 -5.50563 0
M  V30 1476 H 144.455 0.811489 -4.31638 0
M  V30 1477 H 145.061 -0.853971 -4.16638 0
M  V30 1478 N 143.376 1.44774 -0.622745 0
M  V30 1479 C 144.624 2.01721 -0.123655 0
M  V30 1480 C 144.945 1.49172 1.25589 0
M  V30 1481 O 144.215 0.691974 1.83272 0
M  V30 1482 H 142.795 0.745777 -0.0427225 0
M  V30 1483 H 145.457 1.77382 -0.807559 0
M  V30 1484 H 144.553 3.11984 -0.0849534 0
M  V30 1485 N 144.854 0.36279 1.53368 0
M  V30 1486 C 146.27 0.0116182 1.59596 0
M  V30 1487 C 146.47 -1.47012 1.37803 0
M  V30 1488 O 145.526 -2.23136 1.18181 0
M  V30 1489 C 146.839 0.465052 2.97082 0
M  V30 1490 C 148.387 0.419033 3.10182 0
M  V30 1491 C 148.862 0.848235 4.50077 0
M  V30 1492 N 150.353 0.803183 4.56183 0
M  V30 1493 C 151.088 1.107 5.62613 0
M  V30 1494 N 150.584 1.47996 6.76808 0
M  V30 1495 N 152.377 1.02998 5.52583 0
M  V30 1496 H 144.528 1.32775 1.65785 0
M  V30 1497 H 146.791 0.542518 0.777417 0
M  V30 1498 H 146.497 1.49892 3.18159 0
M  V30 1499 H 146.371 -0.149786 3.76902 0
M  V30 1500 H 148.758 -0.605696 2.88817 0
M  V30 1501 H 148.839 1.06933 2.32377 0
M  V30 1502 H 148.483 1.87107 4.7218 0
M  V30 1503 H 148.413 0.175218 5.26308 0
M  V30 1504 H 150.904 0.52838 3.74188 0
M  V30 1505 H 151.217 1.69613 7.53957 0
M  V30 1506 H 149.562 1.51859 6.78206 0
M  V30 1507 H 152.753 0.737817 4.62249 0
M  V30 1508 H 152.926 1.2701 6.35431 0
M  V30 1509 N 146.332 -1.57332 0.0918853 0
M  V30 1510 C 147.579 -1.94236 -0.572577 0
M  V30 1511 C 147.907 -0.973398 -1.6839 0
M  V30 1512 O 147.162 0.00756912 -1.95699 0
M  V30 1513 C 147.461 -3.37689 -1.17051 0
M  V30 1514 C 147.127 -4.50527 -0.183304 0
M  V30 1515 C 145.789 -4.81119 0.0882276 0
M  V30 1516 C 148.141 -5.18883 0.49095 0
M  V30 1517 C 145.469 -5.77395 1.04076 0
M  V30 1518 C 147.821 -6.1618 1.43193 0
M  V30 1519 C 146.485 -6.45179 1.71173 0
M  V30 1520 H 145.755 -0.710762 -0.209521 0
M  V30 1521 H 148.402 -1.9077 0.167036 0
M  V30 1522 H 146.707 -3.37718 -1.9863 0
M  V30 1523 H 148.404 -3.63543 -1.69227 0
M  V30 1524 H 144.994 -4.26681 -0.405124 0
M  V30 1525 H 149.178 -4.95427 0.294312 0
M  V30 1526 H 144.434 -5.98179 1.26457 0
M  V30 1527 H 148.608 -6.68243 1.96023 0
M  V30 1528 H 146.235 -7.1959 2.4514 0
M  V30 1529 N 147.81 0.181792 -1.56548 0
M  V30 1530 C 149.038 0.915947 -1.85521 0
M  V30 1531 C 149.453 1.76282 -0.676016 0
M  V30 1532 O 148.81 1.79012 0.355077 0
M  V30 1533 C 148.861 1.80126 -3.13427 0
M  V30 1534 O 148.582 0.988562 -4.26801 0
M  V30 1535 C 150.083 2.64597 -3.55673 0
M  V30 1536 H 147.303 0.26661 -0.61576 0
M  V30 1537 H 149.847 0.185039 -2.03661 0
M  V30 1538 H 148.002 2.48563 -2.97145 0
M  V30 1539 H 148.416 1.59308 -4.99721 0
M  V30 1540 H 149.89 3.2235 -4.48101 0
M  V30 1541 H 150.367 3.38958 -2.79292 0
M  V30 1542 H 150.973 2.0151 -3.74532 0
M  V30 1543 N 149.288 1.51039 0.449983 0
M  V30 1544 C 150.235 1.71439 1.54523 0
M  V30 1545 C 151.205 0.555871 1.56522 0
M  V30 1546 O 152.39 0.788871 1.73728 0
M  V30 1547 C 149.53 1.83384 2.92343 0
M  V30 1548 C 148.643 3.10873 2.9997 0
M  V30 1549 C 147.778 3.13488 4.28834 0
M  V30 1550 C 146.817 4.35343 4.30282 0
M  V30 1551 N 145.954 4.35579 5.5065 0
M  V30 1552 H 150.794 2.64934 1.36433 0
M  V30 1553 H 148.331 1.31312 0.662982 0
M  V30 1554 H 150.289 1.88291 3.72293 0
M  V30 1555 H 148.919 0.933086 3.0902 0
M  V30 1556 H 147.971 3.15336 2.12761 0
M  V30 1557 H 149.283 4.00814 2.96901 0
M  V30 1558 H 148.437 3.17241 5.17149 0
M  V30 1559 H 147.176 2.21414 4.34543 0
M  V30 1560 H 146.181 4.3178 3.40362 0
M  V30 1561 H 147.406 5.28668 4.26248 0
M  V30 1562 H 145.352 3.46369 5.57104 0
M  V30 1563 H 145.269 5.19313 5.49409 0
M  V30 1564 H 146.537 4.43507 6.41032 0
M  V30 1565 N 150.766 -0.704594 1.40972 0
M  V30 1566 C 152.182 -1.01406 1.23244 0
M  V30 1567 C 152.382 -2.01169 0.115399 0
M  V30 1568 O 151.438 -2.47021 -0.523147 0
M  V30 1569 C 152.751 -1.54728 2.57836 0
M  V30 1570 C 154.299 -1.66658 2.64942 0
M  V30 1571 C 154.774 -2.23383 3.9983 0
M  V30 1572 N 156.265 -2.30756 4.01629 0
M  V30 1573 C 157 -2.75655 5.02794 0
M  V30 1574 N 156.496 -3.20225 6.14352 0
M  V30 1575 N 158.289 -2.75138 4.90159 0
M  V30 1576 H 150.44 -0.0435285 2.12355 0
M  V30 1577 H 152.703 -0.0818951 0.944456 0
M  V30 1578 H 152.409 -0.888832 3.40283 0
M  V30 1579 H 152.283 -2.53084 2.79693 0
M  V30 1580 H 154.67 -2.31617 1.8286 0
M  V30 1581 H 154.751 -0.668717 2.46904 0
M  V30 1582 H 154.395 -1.59043 4.82357 0
M  V30 1583 H 154.325 -3.23904 4.15203 0
M  V30 1584 H 156.816 -1.99291 3.21079 0
M  V30 1585 H 157.129 -3.53084 6.87424 0
M  V30 1586 H 155.474 -3.18156 6.17901 0
M  V30 1587 H 158.665 -2.39661 4.02095 0
M  V30 1588 H 158.838 -3.09812 5.6914 0
M  V30 1589 N 152.244 -1.26651 -0.937939 0
M  V30 1590 C 153.154 -1.10276 -2.07066 0
M  V30 1591 C 154.17 -0.0354197 -1.73964 0
M  V30 1592 O 155.346 -0.239816 -1.99967 0
M  V30 1593 C 152.411 -0.740887 -3.38691 0
M  V30 1594 C 151.472 -1.88799 -3.85556 0
M  V30 1595 C 150.705 -1.54329 -5.10899 0
M  V30 1596 O 150.928 -0.446494 -5.6865 0
M  V30 1597 O 149.862 -2.37911 -5.52885 0
M  V30 1598 H 153.688 -2.05309 -2.23789 0
M  V30 1599 H 151.273 -1.05743 -1.0554 0
M  V30 1600 H 153.155 -0.55195 -4.1777 0
M  V30 1601 H 151.83 0.180022 -3.23199 0
M  V30 1602 H 150.737 -2.13191 -3.07409 0
M  V30 1603 H 152.07 -2.78874 -4.05574 0
M  V30 1604 N 153.722 1.14298 -1.08507 0
M  V30 1605 C 154.999 1.81544 -0.728088 0
M  V30 1606 C 155.379 1.95838 0.78808 0
M  V30 1607 O 154.727 1.51904 1.70697 0
M  V30 1608 C 154.937 3.17169 -1.45619 0
M  V30 1609 C 156.285 3.9265 -1.61591 0
M  V30 1610 O 157.309 3.26762 -1.41793 0
M  V30 1611 O 156.168 5.10807 -1.94263 0
M  V30 1612 H 153.262 0.78491 -0.260471 0
M  V30 1613 H 155.808 1.21307 -1.18671 0
M  V30 1614 H 154.58 3.01934 -2.489 0
M  V30 1615 H 154.203 3.851 -0.989124 0
M  V30 1616 N 155.201 0.870884 1.31352 0
M  V30 1617 C 156.164 0.332243 2.26779 0
M  V30 1618 C 157.164 -0.517302 1.52252 0
M  V30 1619 O 158.354 -0.326477 1.71113 0
M  V30 1620 C 155.486 -0.528066 3.36785 0
M  V30 1621 H 156.679 1.17469 2.75937 0
M  V30 1622 H 154.232 0.64655 1.423 0
M  V30 1623 H 154.967 -1.39167 2.92922 0
M  V30 1624 H 154.752 0.0802582 3.92018 0
M  V30 1625 H 156.242 -0.897179 4.07849 0
M  V30 1626 N 156.679 -1.44442 0.630414 0
M  V30 1627 C 157.642 -2.29107 -0.0652523 0
M  V30 1628 C 158.642 -1.41002 -0.772995 0
M  V30 1629 O 159.832 -1.62881 -0.617692 0
M  V30 1630 C 156.964 -3.22564 -1.10296 0
M  V30 1631 H 158.157 -2.92103 0.679401 0
M  V30 1632 H 155.71 -1.51343 0.390517 0
M  V30 1633 H 156.445 -2.64416 -1.87762 0
M  V30 1634 H 156.23 -3.87491 -0.59941 0
M  V30 1635 H 157.72 -3.86167 -1.5895 0
M  V30 1636 N 158.157 -0.370918 -1.53173 0
M  V30 1637 C 159.104 0.473035 -2.259 0
M  V30 1638 C 160.074 1.07311 -1.26781 0
M  V30 1639 O 161.259 1.1046 -1.55574 0
M  V30 1640 C 158.399 1.60405 -3.05556 0
M  V30 1641 C 157.512 1.02863 -4.19575 0
M  V30 1642 C 156.647 2.12918 -4.86661 0
M  V30 1643 C 155.686 1.52869 -5.92704 0
M  V30 1644 N 154.823 2.56779 -6.53459 0
M  V30 1645 H 159.663 -0.153649 -2.97604 0
M  V30 1646 H 157.2 -0.0875946 -1.46839 0
M  V30 1647 H 159.158 2.27034 -3.50016 0
M  V30 1648 H 157.788 2.20131 -2.36097 0
M  V30 1649 H 156.84 0.252465 -3.79561 0
M  V30 1650 H 158.152 0.549642 -4.95762 0
M  V30 1651 H 157.306 2.87356 -5.34333 0
M  V30 1652 H 156.045 2.6417 -4.09958 0
M  V30 1653 H 155.05 0.769479 -5.44389 0
M  V30 1654 H 156.275 1.02435 -6.7133 0
M  V30 1655 H 154.221 3.07235 -5.79606 0
M  V30 1656 H 154.138 2.13583 -7.25202 0
M  V30 1657 H 155.406 3.30903 -7.05779 0
M  V30 1658 N 159.635 1.57281 -0.100228 0
M  V30 1659 C 160.585 2.10848 0.86759 0
M  V30 1660 C 161.569 1.02473 1.24049 0
M  V30 1661 O 162.761 1.28739 1.21471 0
M  V30 1662 C 159.89 2.69648 2.12474 0
M  V30 1663 C 158.976 3.85074 1.77704 0
M  V30 1664 N 159.367 4.92897 1.13518 0
M  V30 1665 C 157.665 3.94905 2.07282 0
M  V30 1666 C 158.366 5.73475 0.974735 0
M  V30 1667 N 157.342 5.22675 1.4937 0
M  V30 1668 H 161.144 2.91594 0.367471 0
M  V30 1669 H 158.658 1.62074 0.102829 0
M  V30 1670 H 160.655 3.06356 2.82757 0
M  V30 1671 H 159.315 1.90359 2.63047 0
M  V30 1672 H 160.326 5.11662 0.801381 0
M  V30 1673 H 157.003 3.26633 2.60033 0
M  V30 1674 H 158.393 6.70238 0.472364 0
M  V30 1675 N 161.113 -0.173488 1.56642 0
M  V30 1676 C 162.043 -1.2171 1.99271 0
M  V30 1677 C 163.024 -1.46289 0.867959 0
M  V30 1678 O 164.209 -1.5766 1.13388 0
M  V30 1679 C 161.339 -2.55651 2.35074 0
M  V30 1680 C 160.293 -2.45645 3.50489 0
M  V30 1681 C 159.619 -3.84056 3.72028 0
M  V30 1682 C 160.919 -1.96302 4.84007 0
M  V30 1683 H 162.613 -0.86275 2.867 0
M  V30 1684 H 160.159 -0.413571 1.37933 0
M  V30 1685 H 162.112 -3.2886 2.63494 0
M  V30 1686 H 160.836 -2.92869 1.44552 0
M  V30 1687 H 159.495 -1.7489 3.22194 0
M  V30 1688 H 159.143 -4.18664 2.788 0
M  V30 1689 H 158.843 -3.7823 4.49684 0
M  V30 1690 H 160.367 -4.58854 4.02846 0
M  V30 1691 H 161.781 -2.59284 5.11317 0
M  V30 1692 H 160.178 -2.01429 5.65284 0
M  V30 1693 H 161.248 -0.917226 4.76146 0
M  V30 1694 N 162.591 -1.51276 -0.441967 0
M  V30 1695 C 163.501 -1.75092 -1.56141 0
M  V30 1696 C 164.517 -0.634963 -1.62001 0
M  V30 1697 O 165.693 -0.916686 -1.79329 0
M  V30 1698 C 162.758 -1.86666 -2.92158 0
M  V30 1699 C 161.819 -3.10506 -2.96453 0
M  V30 1700 C 161.052 -3.21519 -4.25982 0
M  V30 1701 O 161.275 -2.38586 -5.18105 0
M  V30 1702 O 160.209 -4.14465 -4.36466 0
M  V30 1703 H 164.035 -2.70044 -1.38961 0
M  V30 1704 H 161.62 -1.35722 -0.624499 0
M  V30 1705 H 163.502 -1.96292 -3.72891 0
M  V30 1706 H 162.177 -0.949014 -3.09476 0
M  V30 1707 H 161.084 -3.06363 -2.14692 0
M  V30 1708 H 162.417 -4.01945 -2.84079 0
M  V30 1709 N 164.069 0.697108 -1.41344 0
M  V30 1710 C 165.032 1.79281 -1.42797 0
M  V30 1711 C 166.032 1.57607 -0.318837 0
M  V30 1712 O 167.222 1.64309 -0.578642 0
M  V30 1713 C 164.354 3.17632 -1.23785 0
M  V30 1714 H 165.547 1.79385 -2.40335 0
M  V30 1715 H 163.1 0.904582 -1.27464 0
M  V30 1716 H 163.835 3.23167 -0.270814 0
M  V30 1717 H 163.62 3.34765 -2.04144 0
M  V30 1718 H 165.11 3.97617 -1.27633 0
M  V30 1719 N 165.547 1.27147 0.931209 0
M  V30 1720 C 166.795 1.13055 1.6752 0
M  V30 1721 C 167.116 -0.324791 1.92276 0
M  V30 1722 O 166.386 -1.22775 1.52654 0
M  V30 1723 H 164.966 0.415391 0.620854 0
M  V30 1724 H 167.628 1.59623 1.11833 0
M  V30 1725 H 166.724 1.65694 2.64485 0
M  V30 1726 N 167.025 -1.13721 1.09112 0
M  V30 1727 C 167.988 -2.17222 0.731241 0
M  V30 1728 C 168.988 -1.59035 -0.237566 0
M  V30 1729 O 170.178 -1.74192 -0.0161704 0
M  V30 1730 C 167.31 -3.40804 0.0808443 0
M  V30 1731 H 168.503 -2.50573 1.64783 0
M  V30 1732 H 166.056 -1.28493 0.889897 0
M  V30 1733 H 166.791 -3.1304 -0.847127 0
M  V30 1734 H 166.576 -3.84306 0.777896 0
M  V30 1735 H 168.066 -4.1731 -0.155657 0
M  V30 1736 N 168.503 -0.877838 -1.30888 0
M  V30 1737 C 169.45 -0.337538 -2.28318 0
M  V30 1738 C 170.42 0.568346 -1.56074 0
M  V30 1739 O 171.605 0.498298 -1.84178 0
M  V30 1740 C 168.745 0.448142 -3.42178 0
M  V30 1741 C 167.858 -0.48615 -4.29256 0
M  V30 1742 C 166.993 0.314427 -5.30269 0
M  V30 1743 C 166.032 -0.615791 -6.08995 0
M  V30 1744 N 165.169 0.14902 -7.01942 0
M  V30 1745 H 170.009 -1.17356 -2.73919 0
M  V30 1746 H 167.546 -0.590094 -1.34745 0
M  V30 1747 H 169.504 0.919517 -4.06941 0
M  V30 1748 H 168.134 1.24879 -2.97666 0
M  V30 1749 H 167.186 -1.076 -3.64865 0
M  V30 1750 H 168.498 -1.19909 -4.84173 0
M  V30 1751 H 167.652 0.847969 -6.00745 0
M  V30 1752 H 166.391 1.06062 -4.76027 0
M  V30 1753 H 165.396 -1.16102 -5.37401 0
M  V30 1754 H 166.621 -1.36097 -6.65323 0
M  V30 1755 H 164.567 0.877884 -6.50099 0
M  V30 1756 H 164.484 -0.504433 -7.54315 0
M  V30 1757 H 165.752 0.663537 -7.76671 0
M  V30 1758 N 169.982 1.44106 -0.638065 0
M  V30 1759 C 170.929 2.30715 0.062701 0
M  V30 1760 C 171.899 1.43882 0.829883 0
M  V30 1761 O 173.084 1.72775 0.809532 0
M  V30 1762 C 170.224 3.29258 1.03358 0
M  V30 1763 C 169.337 4.31192 0.26409 0
M  V30 1764 C 168.472 5.16825 1.22741 0
M  V30 1765 C 167.511 6.10462 0.447475 0
M  V30 1766 N 166.648 6.8877 1.36161 0
M  V30 1767 H 171.488 2.90096 -0.681781 0
M  V30 1768 H 169.025 1.42925 -0.347988 0
M  V30 1769 H 170.983 3.84886 1.60992 0
M  V30 1770 H 169.613 2.71562 1.74511 0
M  V30 1771 H 168.665 3.77981 -0.428295 0
M  V30 1772 H 169.977 4.97619 -0.343052 0
M  V30 1773 H 169.131 5.77004 1.87487 0
M  V30 1774 H 167.87 4.50488 1.86847 0
M  V30 1775 H 166.875 5.49386 -0.213433 0
M  V30 1776 H 168.1 6.78837 -0.188968 0
M  V30 1777 H 166.046 6.25096 1.98975 0
M  V30 1778 H 165.963 7.51663 0.808656 0
M  V30 1779 H 167.231 7.53467 1.99769 0
M  V30 1780 N 171.46 0.379036 1.52974 0
M  V30 1781 C 172.706 -0.206727 2.01744 0
M  V30 1782 C 173.039 -1.47314 1.26539 0
M  V30 1783 O 172.314 -1.91084 0.362903 0
M  V30 1784 C 172.597 -0.485066 3.56818 0
M  V30 1785 C 172.45 0.795919 4.42702 0
M  V30 1786 C 173.769 -1.28003 4.21074 0
M  V30 1787 H 170.888 -0.0736607 0.73331 0
M  V30 1788 H 173.53 0.506581 1.83122 0
M  V30 1789 H 171.68 -1.09272 3.72816 0
M  V30 1790 H 173.352 1.43307 4.38476 0
M  V30 1791 H 171.595 1.41344 4.10127 0
M  V30 1792 H 172.266 0.555947 5.49193 0
M  V30 1793 H 174.742 -0.765867 4.08991 0
M  V30 1794 H 173.618 -1.44352 5.29579 0
M  V30 1795 H 173.879 -2.29236 3.78026 0
M  V30 1796 N 172.938 -1.57226 0.108567 0
M  V30 1797 C 174.187 -1.94008 -0.551703 0
M  V30 1798 C 174.5 -0.993442 -1.68494 0
M  V30 1799 O 175.706 -1.25551 -2.40726 0
M  V30 1800 C 174.162 -3.44763 -1.03279 0
M  V30 1801 C 173.77 -4.47943 0.0714193 0
M  V30 1802 C 175.514 -3.90483 -1.66503 0
M  V30 1803 C 173.421 -5.89865 -0.425779 0
M  V30 1804 H 172.351 -0.724206 -0.209863 0
M  V30 1805 H 175.002 -1.82547 0.186741 0
M  V30 1806 H 173.384 -3.51422 -1.82533 0
M  V30 1807 H 174.558 -4.52942 0.847365 0
M  V30 1808 H 172.873 -4.11913 0.609669 0
M  V30 1809 H 175.47 -4.93925 -2.04798 0
M  V30 1810 H 175.813 -3.29877 -2.53942 0
M  V30 1811 H 176.346 -3.86581 -0.938074 0
M  V30 1812 H 173.085 -6.54202 0.412316 0
M  V30 1813 H 172.605 -5.88309 -1.16843 0
M  V30 1814 H 174.284 -6.40844 -0.890397 0
M  V30 1815 N 174.416 0.165178 -1.56732 0
M  V30 1816 C 175.665 0.879143 -1.81532 0
M  V30 1817 C 175.978 1.83144 -0.686842 0
M  V30 1818 O 177.184 2.58823 -0.819944 0
M  V30 1819 C 175.64 1.61388 -3.21686 0
M  V30 1820 C 175.248 0.704904 -4.4242 0
M  V30 1821 C 176.992 2.3157 -3.55774 0
M  V30 1822 C 174.899 1.44022 -5.73595 0
M  V30 1823 H 173.829 0.332033 -0.676957 0
M  V30 1824 H 176.48 0.132008 -1.83025 0
M  V30 1825 H 174.862 2.40599 -3.14529 0
M  V30 1826 H 176.036 -0.0506815 -4.60772 0
M  V30 1827 H 174.351 0.112419 -4.16248 0
M  V30 1828 H 176.948 2.8719 -4.51028 0
M  V30 1829 H 177.291 3.07201 -2.8095 0
M  V30 1830 H 177.824 1.59297 -3.64513 0
M  V30 1831 H 174.563 0.72612 -6.51466 0
M  V30 1832 H 174.083 2.16898 -5.5921 0
M  V30 1833 H 175.762 1.98606 -6.15764 0
M  V30 1834 N 175.894 1.51508 0.433938 0
M  V30 1835 C 177.119 1.68443 1.21003 0
M  V30 1836 C 177.544 0.382636 1.84167 0
M  V30 1837 O 176.902 -0.65755 1.68956 0
M  V30 1838 C 176.95 2.80405 2.26727 0
M  V30 1839 O 176.054 2.44245 3.32292 0
M  V30 1840 H 175.395 0.561536 0.354363 0
M  V30 1841 H 177.925 1.9809 0.512024 0
M  V30 1842 H 177.935 3.0459 2.71457 0
M  V30 1843 H 176.61 3.74867 1.80132 0
M  V30 1844 H 175.187 2.30644 2.93015 0
M  V30 1845 N 177.372 -0.689602 1.41712 0
M  V30 1846 C 178.335 -1.78521 1.43746 0
M  V30 1847 C 179.335 -1.57436 0.327191 0
M  V30 1848 O 180.525 -1.64 0.587348 0
M  V30 1849 C 177.657 -3.16971 1.25467 0
M  V30 1850 H 178.85 -1.78108 2.41283 0
M  V30 1851 H 176.403 -0.89781 1.27942 0
M  V30 1852 H 177.138 -3.23019 0.287948 0
M  V30 1853 H 176.923 -3.33678 2.05917 0
M  V30 1854 H 178.413 -3.96935 1.2974 0
M  V30 1855 N 178.85 -1.27639 -0.924453 0
M  V30 1856 C 180.261 -1.12834 -1.48746 0
M  V30 1857 C 180.612 0.285505 -1.94112 0
M  V30 1858 O 179.737 1.17874 -1.81479 0
M  V30 1859 C 180.332 -2.04217 -2.70334 0
M  V30 1860 C 178.891 -1.93509 -3.22848 0
M  V30 1861 C 178.038 -1.96583 -1.95577 0
M  V30 1862 H 180.989 -1.40484 -0.738233 0
M  V30 1863 H 181.01 -1.59989 -3.4523 0
M  V30 1864 H 180.522 -3.07111 -2.37285 0
M  V30 1865 H 178.623 -0.936131 -3.60649 0
M  V30 1866 H 178.736 -2.79917 -3.88823 0
M  V30 1867 H 177.1 -1.4085 -2.12211 0
M  V30 1868 H 177.883 -3.01137 -1.64837 0
M  V30 1869 N 180.328 1.1314 -1.09713 0
M  V30 1870 C 181.291 2.16831 -0.742751 0
M  V30 1871 C 182.291 1.59159 0.229129 0
M  V30 1872 O 183.481 1.74199 0.00693237 0
M  V30 1873 C 180.613 3.40756 -0.0989168 0
M  V30 1874 H 181.806 2.49695 -1.66109 0
M  V30 1875 H 179.359 1.2802 -0.896699 0
M  V30 1876 H 180.094 3.13485 0.830514 0
M  V30 1877 H 179.879 3.83888 -0.798265 0
M  V30 1878 H 181.369 4.17386 0.133524 0
M  V30 1879 N 181.806 0.884767 1.30421 0
M  V30 1880 C 182.753 0.349642 2.28136 0
M  V30 1881 C 183.723 -0.560061 1.56373 0
M  V30 1882 O 184.908 -0.488524 1.8444 0
M  V30 1883 C 182.048 -0.42999 3.42411 0
M  V30 1884 C 181.161 0.508907 4.28992 0
M  V30 1885 C 180.296 -0.286301 5.30428 0
M  V30 1886 C 179.335 0.648079 6.08659 0
M  V30 1887 N 178.472 -0.111792 7.02011 0
M  V30 1888 H 183.312 1.18807 2.73293 0
M  V30 1889 H 180.849 0.597231 1.3443 0
M  V30 1890 H 182.807 -0.897923 4.07423 0
M  V30 1891 H 181.437 -1.23299 2.98324 0
M  V30 1892 H 180.489 1.09533 3.64289 0
M  V30 1893 H 181.801 1.22475 4.8353 0
M  V30 1894 H 180.955 -0.816098 6.01186 0
M  V30 1895 H 179.694 -1.03536 4.76583 0
M  V30 1896 H 178.699 1.18951 5.36778 0
M  V30 1897 H 179.924 1.39623 6.64592 0
M  V30 1898 H 177.87 -0.843395 6.50556 0
M  V30 1899 H 177.787 0.544429 7.54037 0
M  V30 1900 H 179.055 -0.622339 7.77012 0
M  V30 1901 N 183.284 -1.43765 0.645699 0
M  V30 1902 C 184.232 -2.32516 -0.0624849 0
M  V30 1903 C 185.226 -1.48183 -0.820855 0
M  V30 1904 O 186.432 -1.64439 -0.732106 0
M  V30 1905 H 182.807 -0.750989 -0.0389864 0
M  V30 1906 H 184.778 -2.89979 0.703892 0
M  V30 1907 C 183.527 -3.32389 -1.02044 0
M  V30 1908 H 182.85 -3.97301 -0.446312 0
M  V30 1909 H 184.29 -3.97138 -1.48517 0
M  V30 1910 C 182.749 -2.62416 -2.11281 0
M  V30 1911 O 183.279 -2.434 -3.19561 0
M  V30 1912 N 181.485 -2.21913 -1.87624 0
M  V30 1913 H 181.032 -2.37578 -0.995703 0
M  V30 1914 H 180.99 -1.75424 -2.6091 0
M  V30 1915 N 184.763 -0.387143 -1.52771 0
M  V30 1916 C 185.673 0.456442 -2.30117 0
M  V30 1917 C 186.689 1.07342 -1.36944 0
M  V30 1918 O 187.865 1.07971 -1.70013 0
M  V30 1919 C 184.93 1.56957 -3.09136 0
M  V30 1920 C 183.991 0.977916 -4.18014 0
M  V30 1921 C 183.224 2.038 -4.93256 0
M  V30 1922 O 183.447 3.25271 -4.68567 0
M  V30 1923 O 182.381 1.6565 -5.78657 0
M  V30 1924 H 186.207 -0.17359 -3.03203 0
M  V30 1925 H 183.792 -0.150919 -1.48636 0
M  V30 1926 H 185.674 2.21628 -3.58412 0
M  V30 1927 H 184.349 2.18461 -2.38865 0
M  V30 1928 H 183.256 0.294525 -3.72939 0
M  V30 1929 H 184.589 0.407128 -4.90513 0
M  V30 1930 N 186.241 1.57166 -0.116904 0
M  V30 1931 C 187.518 1.86645 0.585049 0
M  V30 1932 C 187.898 1.0177 1.84949 0
M  V30 1933 O 187.246 0.0960379 2.28298 0
M  V30 1934 C 187.456 3.37736 0.879507 0
M  V30 1935 C 188.804 4.06289 1.23348 0
M  V30 1936 O 189.828 3.42743 0.969836 0
M  V30 1937 O 188.687 5.18455 1.7282 0
M  V30 1938 H 185.781 0.772593 0.295007 0
M  V30 1939 H 188.327 1.69025 -0.151249 0
M  V30 1940 H 187.099 3.91296 -0.0166136 0
M  V30 1941 H 186.722 3.6078 1.67103 0
M  V30 1942 N 187.719 -0.156864 1.56817 0
M  V30 1943 C 188.968 -0.869504 1.81996 0
M  V30 1944 C 189.281 -1.82777 0.696545 0
M  V30 1945 O 190.487 -2.58384 0.833658 0
M  V30 1946 C 188.943 -1.59679 3.22538 0
M  V30 1947 C 188.551 -0.681431 4.42787 0
M  V30 1948 C 190.295 -2.2968 3.56997 0
M  V30 1949 C 188.202 -1.40978 5.74351 0
M  V30 1950 H 187.132 -0.328438 0.678708 0
M  V30 1951 H 189.783 -0.1223 1.83092 0
M  V30 1952 H 188.165 -2.38927 3.158 0
M  V30 1953 H 189.339 0.0751166 4.60739 0
M  V30 1954 H 187.654 -0.0903431 4.16302 0
M  V30 1955 H 190.251 -2.84794 4.52544 0
M  V30 1956 H 190.594 -3.05707 2.82576 0
M  V30 1957 H 191.127 -1.57361 3.65352 0
M  V30 1958 H 187.866 -0.691561 6.51842 0
M  V30 1959 H 187.386 -2.13929 5.60352 0
M  V30 1960 H 189.065 -1.95337 6.16808 0
M  V30 1961 N 189.197 -1.51736 -0.425897 0
M  V30 1962 C 190.425 -1.68794 -1.1965 0
M  V30 1963 C 190.84 -0.390164 -1.84725 0
M  V30 1964 O 190.197 0.632376 -1.71194 0
M  V30 1965 C 190.248 -2.81174 -2.27208 0
M  V30 1966 O 189.969 -4.05925 -1.64793 0
M  V30 1967 C 191.47 -3.09599 -3.17275 0
M  V30 1968 H 188.69 -0.566128 -0.360194 0
M  V30 1969 H 191.234 -1.98211 -0.503249 0
M  V30 1970 H 189.389 -2.54324 -2.9223 0
M  V30 1971 H 189.803 -4.68423 -2.35967 0
M  V30 1972 H 191.277 -3.91786 -3.88854 0
M  V30 1973 H 191.754 -2.22468 -3.78688 0
M  V30 1974 H 192.36 -3.38151 -2.57941 0
M  V30 1975 N 190.675 0.682077 -1.42076 0
M  V30 1976 C 191.924 1.43786 -1.41451 0
M  V30 1977 C 192.237 1.95574 -0.0317074 0
M  V30 1978 O 193.443 2.71326 0.0971462 0
M  V30 1979 C 191.899 2.60071 -2.48779 0
M  V30 1980 C 191.507 2.15013 -3.93031 0
M  V30 1981 C 193.251 3.37626 -2.57311 0
M  V30 1982 C 191.158 3.28336 -4.91883 0
M  V30 1983 H 190.088 0.540143 -0.526082 0
M  V30 1984 H 192.739 0.739157 -1.67955 0
M  V30 1985 H 191.121 3.32275 -2.15429 0
M  V30 1986 H 192.295 1.5001 -4.35699 0
M  V30 1987 H 190.61 1.50416 -3.88284 0
M  V30 1988 H 193.207 4.22012 -3.28345 0
M  V30 1989 H 193.55 3.83727 -1.61429 0
M  V30 1990 H 194.083 2.72488 -2.89819 0
M  V30 1991 H 190.822 2.87234 -5.89217 0
M  V30 1992 H 190.342 3.92145 -4.53853 0
M  V30 1993 H 192.021 3.93913 -5.13265 0
M  V30 1994 N 192.153 1.28127 0.917671 0
M  V30 1995 C 193.399 1.15223 1.66888 0
M  V30 1996 C 193.732 -0.299293 1.9188 0
M  V30 1997 O 193.007 -1.21805 1.51637 0
M  V30 1998 C 193.29 1.94706 3.02922 0
M  V30 1999 C 193.143 3.47898 2.85109 0
M  V30 2000 C 194.462 1.75939 4.03402 0
M  V30 2001 H 191.581 0.419946 0.605652 0
M  V30 2002 H 194.223 1.57398 1.06423 0
M  V30 2003 H 192.373 1.58864 3.54534 0
M  V30 2004 H 194.045 3.93624 2.40537 0
M  V30 2005 H 192.288 3.7373 2.20246 0
M  V30 2006 H 192.959 3.98765 3.81694 0
M  V30 2007 H 195.435 2.07209 3.60837 0
M  V30 2008 H 194.311 2.33931 4.96556 0
M  V30 2009 H 194.572 0.709877 4.36364 0
M  V30 2010 N 193.631 -1.12557 1.10312 0
M  V30 2011 C 194.564 -2.1737 0.694674 0
M  V30 2012 C 195.542 -1.59745 -0.303373 0
M  V30 2013 O 196.726 -1.87408 -0.202578 0
M  V30 2014 C 193.853 -3.38691 0.0248052 0
M  V30 2015 C 192.899 -4.14943 0.986121 0
M  V30 2016 S 193.732 -4.73413 2.50281 0
M  V30 2017 C 194.888 -5.9807 1.84562 0
M  V30 2018 H 195.121 -2.5168 1.58255 0
M  V30 2019 H 192.654 -1.23998 0.919992 0
M  V30 2020 H 194.612 -4.08959 -0.355361 0
M  V30 2021 H 193.273 -3.02664 -0.839851 0
M  V30 2022 H 192.466 -5.01854 0.464651 0
M  V30 2023 H 192.068 -3.50377 1.30813 0
M  V30 2024 H 194.36 -6.67232 1.17507 0
M  V30 2025 H 195.303 -6.54841 2.69423 0
M  V30 2026 H 195.711 -5.49073 1.31069 0
M  V30 2027 N 195.109 -0.891671 -1.2995 0
M  V30 2028 C 196.357 -0.512486 -1.95494 0
M  V30 2029 C 196.678 0.942776 -1.70695 0
M  V30 2030 O 195.948 1.66374 -1.03424 0
M  V30 2031 H 194.528 -0.186533 -0.723336 0
M  V30 2032 H 197.19 -1.13621 -1.58355 0
M  V30 2033 H 196.286 -0.688342 -3.04415 0
M  V30 2034 N 196.587 1.43421 -0.653314 0
M  V30 2035 C 197.833 2.02111 -0.166992 0
M  V30 2036 C 198.166 1.51423 1.21592 0
M  V30 2037 O 197.441 0.707389 1.8118 0
M  V30 2038 C 197.724 3.5966 -0.177948 0
M  V30 2039 C 197.577 4.20579 -1.59478 0
M  V30 2040 C 198.896 4.37413 0.4856 0
M  V30 2041 H 196.015 0.734374 -0.0621557 0
M  V30 2042 H 198.657 1.70717 -0.834016 0
M  V30 2043 H 196.807 3.86537 0.390032 0
M  V30 2044 H 198.479 4.04732 -2.21336 0
M  V30 2045 H 196.722 3.77226 -2.14204 0
M  V30 2046 H 197.393 5.29665 -1.5543 0
M  V30 2047 H 199.869 4.161 0.00234528 0
M  V30 2048 H 198.745 5.47075 0.447207 0
M  V30 2049 H 199.006 4.13672 1.55974 0
M  V30 2050 N 198.065 0.39524 1.52563 0
M  V30 2051 C 199.013 -0.451859 2.28169 0
M  V30 2052 C 200.007 -1.05792 1.32304 0
M  V30 2053 O 201.213 -0.997718 1.49818 0
M  V30 2054 H 197.588 -0.164481 0.733792 0
M  V30 2055 H 199.559 0.207199 2.9768 0
M  V30 2056 C 198.308 -1.56385 3.10546 0
M  V30 2057 H 197.631 -1.10682 3.84174 0
M  V30 2058 H 199.071 -2.13067 3.66577 0
M  V30 2059 C 197.53 -2.52328 2.23231 0
M  V30 2060 O 198.06 -3.5588 1.86312 0
M  V30 2061 N 196.266 -2.22209 1.87274 0
M  V30 2062 H 195.813 -1.38033 2.17496 0
M  V30 2063 H 195.771 -2.86652 1.29143 0
M  V30 2064 N 199.544 -1.57102 0.125237 0
M  V30 2065 C 200.476 -2.12726 -0.853237 0
M  V30 2066 C 201.489 -1.07145 -1.22571 0
M  V30 2067 O 202.678 -1.34497 -1.17358 0
M  V30 2068 C 199.778 -2.61709 -2.15317 0
M  V30 2069 C 198.951 -3.91456 -1.95143 0
M  V30 2070 C 198.01 -4.25973 -3.08923 0
M  V30 2071 O 197.036 -4.94682 -2.81564 0
M  V30 2072 N 198.238 -3.83795 -4.35524 0
M  V30 2073 H 201.003 -2.97307 -0.377964 0
M  V30 2074 H 198.564 -1.61792 -0.0590011 0
M  V30 2075 H 200.556 -2.81826 -2.90441 0
M  V30 2076 H 199.126 -1.81974 -2.54174 0
M  V30 2077 H 198.346 -3.80185 -1.04177 0
M  V30 2078 H 199.634 -4.76283 -1.78976 0
M  V30 2079 H 199.032 -3.2839 -4.60626 0
M  V30 2080 H 197.589 -4.09008 -5.07499 0
M  V30 2081 N 201.022 0.148545 -1.56898 0
M  V30 2082 C 202.299 0.890019 -1.74178 0
M  V30 2083 C 202.679 1.99407 -0.692839 0
M  V30 2084 O 202.027 2.26671 0.288505 0
M  V30 2085 C 202.237 1.43389 -3.18183 0
M  V30 2086 C 203.585 1.89791 -3.79822 0
M  V30 2087 O 204.609 1.53134 -3.21603 0
M  V30 2088 O 203.468 2.57387 -4.82093 0
M  V30 2089 H 200.562 0.420496 -0.712118 0
M  V30 2090 H 203.108 0.134591 -1.69165 0
M  V30 2091 H 201.88 0.640383 -3.86024 0
M  V30 2092 H 201.503 2.25287 -3.27615 0
M  V30 2093 N 202.5 1.5196 0.417844 0
M  V30 2094 C 203.447 1.74678 1.50852 0
M  V30 2095 C 204.417 0.588947 1.55308 0
M  V30 2096 O 205.602 0.825544 1.72016 0
M  V30 2097 C 202.742 1.89544 2.88387 0
M  V30 2098 C 201.855 3.17166 2.93309 0
M  V30 2099 C 200.99 3.22513 4.22088 0
M  V30 2100 C 200.029 4.44372 4.20951 0
M  V30 2101 N 199.166 4.47161 5.41287 0
M  V30 2102 H 204.006 2.67768 1.30783 0
M  V30 2103 H 201.543 1.32689 0.63498 0
M  V30 2104 H 203.501 1.96146 3.68216 0
M  V30 2105 H 202.131 0.998424 3.06971 0
M  V30 2106 H 201.183 3.19778 2.06024 0
M  V30 2107 H 202.495 4.07021 2.88332 0
M  V30 2108 H 201.649 3.28139 5.10303 0
M  V30 2109 H 200.388 2.30581 4.29748 0
M  V30 2110 H 199.393 4.38902 3.31127 0
M  V30 2111 H 200.618 5.3759 4.14938 0
M  V30 2112 H 198.564 3.58108 5.49632 0
M  V30 2113 H 198.481 5.3085 5.3827 0
M  V30 2114 H 199.749 4.57005 6.3148 0
M  V30 2115 N 203.978 -0.674533 1.42435 0
M  V30 2116 C 205.208 -1.46071 1.46105 0
M  V30 2117 C 205.616 -1.89067 0.0709605 0
M  V30 2118 O 204.959 -1.58731 -0.924677 0
M  V30 2119 C 205.021 -2.74145 2.32561 0
M  V30 2120 C 204.685 -2.53224 3.8043 0
M  V30 2121 C 205.682 -2.17809 4.72075 0
M  V30 2122 C 203.367 -2.6821 4.24698 0
M  V30 2123 C 205.361 -1.97648 6.05982 0
M  V30 2124 C 203.048 -2.47665 5.58664 0
M  V30 2125 C 204.046 -2.12437 6.49122 0
M  V30 2126 O 203.734 -1.9209 7.80613 0
M  V30 2127 H 203.466 -0.455959 0.499076 0
M  V30 2128 H 206.02 -0.836193 1.87609 0
M  V30 2129 H 204.25 -3.3908 1.85908 0
M  V30 2130 H 205.939 -3.36028 2.27683 0
M  V30 2131 H 206.705 -2.05826 4.39159 0
M  V30 2132 H 202.584 -2.94609 3.54579 0
M  V30 2133 H 206.128 -1.70075 6.7655 0
M  V30 2134 H 202.025 -2.59244 5.91154 0
M  V30 2135 H 202.793 -2.06686 7.91974 0
M  V30 2136 N 205.456 -1.28612 -0.910864 0
M  V30 2137 C 206.733 -1.06632 -1.63979 0
M  V30 2138 C 207.113 0.393351 -2.07403 0
M  V30 2139 O 206.461 1.37999 -1.82122 0
M  V30 2140 C 206.671 -2.0436 -2.8291 0
M  V30 2141 C 208.019 -2.34666 -3.5386 0
M  V30 2142 O 209.043 -2.02467 -2.93062 0
M  V30 2143 O 207.902 -2.89631 -4.63439 0
M  V30 2144 H 204.996 -0.407737 -0.7195 0
M  V30 2145 H 207.542 -1.39942 -0.959914 0
M  V30 2146 H 206.314 -3.02727 -2.47936 0
M  V30 2147 H 205.937 -1.71714 -3.58609 0
M  V30 2148 N 206.934 1.1197 -1.10907 0
M  V30 2149 C 208.345 1.65114 -0.871446 0
M  V30 2150 C 208.696 1.86885 0.597353 0
M  V30 2151 O 207.821 1.59896 1.45816 0
M  V30 2152 C 208.416 2.99944 -1.5754 0
M  V30 2153 C 206.975 3.50018 -1.38435 0
M  V30 2154 C 206.122 2.24941 -1.62164 0
M  V30 2155 H 209.073 0.956851 -1.2661 0
M  V30 2156 H 209.094 3.66651 -1.01721 0
M  V30 2157 H 208.606 2.84067 -2.64438 0
M  V30 2158 H 206.707 3.71071 -0.337214 0
M  V30 2159 H 206.82 4.29165 -2.12965 0
M  V30 2160 H 205.184 2.3229 -1.04467 0
M  V30 2161 H 205.967 2.11612 -2.70324 0
M  V30 2162 N 208.412 0.89855 1.29475 0
M  V30 2163 C 209.359 0.373819 2.27753 0
M  V30 2164 C 210.329 -0.543444 1.56958 0
M  V30 2165 O 211.514 -0.468934 1.84948 0
M  V30 2166 C 208.654 -0.393648 3.42848 0
M  V30 2167 C 207.767 0.554379 4.28428 0
M  V30 2168 C 206.902 -0.230026 5.30702 0
M  V30 2169 C 205.941 0.712599 6.07938 0
M  V30 2170 N 205.078 -0.0373283 7.0209 0
M  V30 2171 H 209.918 1.21699 2.72017 0
M  V30 2172 H 207.455 0.611456 1.33789 0
M  V30 2173 H 209.413 -0.85466 4.08352 0
M  V30 2174 H 208.043 -1.20128 2.99615 0
M  V30 2175 H 207.095 1.13391 3.63107 0
M  V30 2176 H 208.407 1.27597 4.82204 0
M  V30 2177 H 207.561 -0.752288 6.02018 0
M  V30 2178 H 206.3 -0.984758 4.77654 0
M  V30 2179 H 205.305 1.24637 5.35486 0
M  V30 2180 H 206.53 1.46664 6.63074 0
M  V30 2181 H 204.476 -0.774348 6.51414 0
M  V30 2182 H 204.393 0.624374 7.53417 0
M  V30 2183 H 205.661 -0.539891 7.77628 0
M  V30 2184 N 209.89 -1.43072 0.660911 0
M  V30 2185 C 210.853 -2.29194 -0.0166406 0
M  V30 2186 C 211.853 -1.42609 -0.742912 0
M  V30 2187 O 213.043 -1.64155 -0.583004 0
M  V30 2188 C 210.175 -3.24831 -1.0343 0
M  V30 2189 H 211.368 -2.90596 0.741208 0
M  V30 2190 H 208.921 -1.5048 0.422532 0
M  V30 2191 H 209.656 -2.68339 -1.82111 0
M  V30 2192 H 209.441 -3.88676 -0.517082 0
M  V30 2193 H 210.931 -3.89451 -1.50723 0
M  V30 2194 N 211.368 -0.403325 -1.52352 0
M  V30 2195 C 212.318 0.442244 -2.2367 0
M  V30 2196 C 213.302 1.01823 -1.24583 0
M  V30 2197 O 214.494 0.942005 -1.49851 0
M  V30 2198 C 211.623 1.5615 -3.05732 0
M  V30 2199 C 210.709 0.996575 -4.12225 0
M  V30 2200 N 211.1 0.157804 -5.05554 0
M  V30 2201 C 209.398 1.26767 -4.27605 0
M  V30 2202 C 210.099 -0.155853 -5.81491 0
M  V30 2203 N 209.075 0.451775 -5.41719 0
M  V30 2204 H 212.877 -0.204964 -2.93184 0
M  V30 2205 H 210.391 -0.213418 -1.60992 0
M  V30 2206 H 212.388 2.17981 -3.55373 0
M  V30 2207 H 211.048 2.21139 -2.37755 0
M  V30 2208 H 212.059 -0.206049 -5.1749 0
M  V30 2209 H 208.736 1.91757 -3.70858 0
M  V30 2210 H 210.126 -0.836329 -6.66675 0
M  V30 2211 N 212.846 1.57033 -0.133567 0
M  V30 2212 C 213.796 2.12641 0.822671 0
M  V30 2213 C 214.78 1.05081 1.21847 0
M  V30 2214 O 215.972 1.31287 1.18713 0
M  V30 2215 C 213.101 2.74094 2.06706 0
M  V30 2216 C 212.187 3.88757 1.69497 0
M  V30 2217 N 212.578 4.95194 1.03037 0
M  V30 2218 C 210.876 3.99213 1.98859 0
M  V30 2219 C 211.577 5.75414 0.852873 0
M  V30 2220 N 210.553 5.25726 1.3825 0
M  V30 2221 H 214.355 2.92308 0.305537 0
M  V30 2222 H 211.869 1.62256 0.0684276 0
M  V30 2223 H 213.866 3.12285 2.76195 0
M  V30 2224 H 212.526 1.95896 2.5895 0
M  V30 2225 H 213.537 5.13247 0.692669 0
M  V30 2226 H 210.214 3.32075 2.53047 0
M  V30 2227 H 211.604 6.71089 0.330091 0
M  V30 2228 N 214.325 -0.140222 1.56975 0
M  V30 2229 C 215.571 -0.852949 1.83991 0
M  V30 2230 C 215.904 -1.80512 0.716187 0
M  V30 2231 O 215.179 -1.92479 -0.279681 0
M  V30 2232 C 215.462 -1.6215 3.21527 0
M  V30 2233 C 215.315 -0.690363 4.4447 0
M  V30 2234 C 216.634 -2.58247 3.56366 0
M  V30 2235 H 213.753 -0.308634 0.669264 0
M  V30 2236 H 216.395 -0.117898 1.89634 0
M  V30 2237 H 214.545 -2.24812 3.16847 0
M  V30 2238 H 216.217 -0.0742264 4.6124 0
M  V30 2239 H 214.46 -0.000396433 4.338 0
M  V30 2240 H 215.131 -1.2643 5.37326 0
M  V30 2241 H 217.607 -2.05701 3.61699 0
M  V30 2242 H 216.483 -3.09067 4.53617 0
M  V30 2243 H 216.744 -3.39923 2.82674 0
M  V30 2244 N 215.803 -1.52179 -0.40978 0
M  V30 2245 C 217.052 -1.65434 -1.15388 0
M  V30 2246 C 217.365 -0.390056 -1.91671 0
M  V30 2247 O 218.571 -0.402399 -2.68501 0
M  V30 2248 C 217.027 -2.92279 -2.10003 0
M  V30 2249 C 216.635 -4.25813 -1.39239 0
M  V30 2250 C 218.379 -3.14897 -2.84675 0
M  V30 2251 C 216.286 -5.43782 -2.32498 0
M  V30 2252 H 215.216 -0.616267 -0.434432 0
M  V30 2253 H 217.867 -1.78666 -0.418401 0
M  V30 2254 H 216.249 -2.72744 -2.871 0
M  V30 2255 H 217.423 -4.55828 -0.675099 0
M  V30 2256 H 215.738 -4.09292 -0.766097 0
M  V30 2257 H 218.335 -4.0021 -3.54593 0
M  V30 2258 H 218.678 -2.29103 -3.47588 0
M  V30 2259 H 219.211 -3.34901 -2.14677 0
M  V30 2260 H 215.95 -6.3192 -1.74233 0
M  V30 2261 H 215.47 -5.18106 -3.02201 0
M  V30 2262 H 217.149 -5.76834 -2.93038 0
M  V30 2263 N 217.281 0.66697 -1.42791 0
M  V30 2264 C 218.506 1.46004 -1.47301 0
M  V30 2265 C 218.931 1.87894 -0.0880317 0
M  V30 2266 O 218.289 1.56502 0.915253 0
M  V30 2267 C 218.337 2.68031 -2.41229 0
M  V30 2268 O 217.441 3.6659 -1.88906 0
M  V30 2269 H 216.782 0.43832 -0.49877 0
M  V30 2270 H 219.312 0.817391 -1.87563 0
M  V30 2271 H 219.322 3.1601 -2.58073 0
M  V30 2272 H 217.997 2.36883 -3.41847 0
M  V30 2273 H 216.574 3.25661 -1.81656 0
M  V30 2274 N 218.759 1.29093 0.90403 0
M  V30 2275 C 219.707 1.13727 2.02901 0
M  V30 2276 C 220.701 0.0539853 1.69314 0
M  V30 2277 O 221.907 0.213469 1.7873 0
M  V30 2278 H 218.282 0.35117 0.664969 0
M  V30 2279 H 220.253 2.08982 2.13001 0
M  V30 2280 C 219.002 0.826066 3.37745 0
M  V30 2281 H 218.325 1.65164 3.64089 0
M  V30 2282 H 219.765 0.758559 4.17159 0
M  V30 2283 C 218.224 -0.470541 3.33598 0
M  V30 2284 O 218.754 -1.49792 3.72727 0
M  V30 2285 N 216.96 -0.474812 2.86695 0
M  V30 2286 H 216.507 0.361692 2.55048 0
M  V30 2287 H 216.465 -1.34236 2.84303 0
M  V30 2288 N 220.237 -1.11381 1.11499 0
M  V30 2289 C 221.2 -2.15622 0.777153 0
M  V30 2290 C 222.2 -1.59504 -0.203779 0
M  V30 2291 O 223.39 -1.74188 0.020782 0
M  V30 2292 C 220.522 -3.40556 0.153116 0
M  V30 2293 H 221.715 -2.47021 1.70061 0
M  V30 2294 H 219.268 -1.26577 0.916952 0
M  V30 2295 H 220.003 -3.14767 -0.780536 0
M  V30 2296 H 219.788 -3.8257 0.859238 0
M  V30 2297 H 221.278 -4.17546 -0.0671044 0
M  V30 2298 N 221.715 -0.905404 -1.28997 0
M  V30 2299 C 222.94 -0.549175 -1.99997 0
M  V30 2300 C 223.365 0.860276 -1.67275 0
M  V30 2301 O 222.723 1.57355 -0.900502 0
M  V30 2302 C 222.771 -0.755185 -3.52604 0
M  V30 2303 O 221.875 0.189692 -4.11964 0
M  V30 2304 H 221.216 -0.213899 -0.628604 0
M  V30 2305 H 223.746 -1.21856 -1.64354 0
M  V30 2306 H 223.756 -0.662045 -4.02593 0
M  V30 2307 H 222.431 -1.78271 -3.75755 0
M  V30 2308 H 221.008 0.0485257 -3.72868 0
M  V30 2309 N 223.193 1.4272 -0.668489 0
M  V30 2310 C 224.433 2.03497 -0.19194 0
M  V30 2311 C 224.797 1.51684 1.17712 0
M  V30 2312 O 225.998 2.04205 1.74796 0
M  V30 2313 C 224.269 3.56734 -0.218032 0
M  V30 2314 S 225.828 4.38395 0.188438 0
M  V30 2315 H 222.646 0.706542 -0.0794959 0
M  V30 2316 H 225.248 1.74563 -0.880235 0
M  V30 2317 H 223.952 3.91943 -1.2169 0
M  V30 2318 H 223.483 3.90333 0.490303 0
M  V30 2319 H 225.498 4.75345 1.42345 0
M  V30 2320 N 224.671 0.411399 1.52136 0
M  V30 2321 C 225.899 -0.163076 2.06256 0
M  V30 2322 C 226.314 -1.3867 1.28125 0
M  V30 2323 O 225.671 -1.79423 0.333721 0
M  V30 2324 C 225.722 -0.511252 3.57867 0
M  V30 2325 O 225.443 0.66378 4.33042 0
M  V30 2326 C 226.944 -1.13921 4.28412 0
M  V30 2327 H 224.164 -0.0193897 0.67072 0
M  V30 2328 H 226.708 0.583007 1.96013 0
M  V30 2329 H 224.863 -1.20723 3.6811 0
M  V30 2330 H 225.277 0.372601 5.23175 0
M  V30 2331 H 226.751 -1.33302 5.35663 0
M  V30 2332 H 227.228 -2.11296 3.85033 0
M  V30 2333 H 227.834 -0.483373 4.22544 0
M  V30 2334 N 226.149 -1.5696 0.141893 0
M  V30 2335 C 227.377 -2.00322 -0.517579 0
M  V30 2336 C 227.792 -1.02193 -1.58752 0
M  V30 2337 O 227.149 -0.0181619 -1.82491 0
M  V30 2338 C 227.2 -3.43618 -1.12289 0
M  V30 2339 O 226.921 -4.37995 -0.0956929 0
M  V30 2340 C 228.422 -4.02231 -1.86347 0
M  V30 2341 H 225.642 -0.657243 -0.135177 0
M  V30 2342 H 228.186 -2.03146 0.234973 0
M  V30 2343 H 226.341 -3.41662 -1.82609 0
M  V30 2344 H 226.755 -5.21729 -0.538469 0
M  V30 2345 H 228.229 -5.04509 -2.23997 0
M  V30 2346 H 228.706 -3.42655 -2.74744 0
M  V30 2347 H 229.312 -4.07802 -1.20737 0
M  V30 2348 N 227.627 0.131896 -1.57047 0
M  V30 2349 C 228.575 1.18146 -2.0036 0
M  V30 2350 C 229.569 1.43614 -0.898406 0
M  V30 2351 O 230.775 1.43729 -1.08361 0
M  V30 2352 H 227.15 0.398042 -0.638018 0
M  V30 2353 H 229.121 0.789564 -2.87765 0
M  V30 2354 C 227.87 2.50341 -2.41298 0
M  V30 2355 H 227.193 2.31578 -3.25902 0
M  V30 2356 H 228.633 3.22371 -2.75414 0
M  V30 2357 C 227.092 3.11984 -1.27153 0
M  V30 2358 O 227.622 3.97484 -0.580459 0
M  V30 2359 N 225.828 2.71662 -1.03189 0
M  V30 2360 H 225.375 2.02231 -1.59564 0
M  V30 2361 H 225.333 3.13238 -0.270077 0
M  V30 2362 N 229.106 1.52395 0.401703 0
M  V30 2363 C 230.346 1.68498 1.15705 0
M  V30 2364 C 230.71 0.409748 1.87577 0
M  V30 2365 O 231.911 0.446983 2.65058 0
M  V30 2366 C 230.182 2.87789 2.11924 0
M  V30 2367 S 231.741 3.24415 2.95466 0
M  V30 2368 H 228.559 0.593267 0.391862 0
M  V30 2369 H 231.161 1.90408 0.443282 0
M  V30 2370 H 229.865 3.7884 1.57824 0
M  V30 2371 H 229.396 2.68175 2.87829 0
M  V30 2372 H 231.411 2.73614 4.13944 0
M  V30 2373 N 230.584 -0.659388 1.43143 0
M  V30 2374 C 231.514 -1.78422 1.50625 0
M  V30 2375 C 232.495 -1.66216 0.361443 0
M  V30 2376 O 233.68 -1.85404 0.577834 0
M  V30 2377 C 230.81 -3.16815 1.42287 0
M  V30 2378 C 229.764 -3.43777 2.54954 0
M  V30 2379 C 229.09 -4.81905 2.31671 0
M  V30 2380 C 230.39 -3.39134 3.97222 0
M  V30 2381 H 232.084 -1.72417 2.44771 0
M  V30 2382 H 229.63 -0.828084 1.17808 0
M  V30 2383 H 231.583 -3.95253 1.46127 0
M  V30 2384 H 230.307 -3.23534 0.446435 0
M  V30 2385 H 228.966 -2.67707 2.50457 0
M  V30 2386 H 228.614 -4.85294 1.32284 0
M  V30 2387 H 228.314 -5.00906 3.07192 0
M  V30 2388 H 229.838 -5.62609 2.37284 0
M  V30 2389 H 231.252 -4.07518 4.03239 0
M  V30 2390 H 229.649 -3.69671 4.72719 0
M  V30 2391 H 230.719 -2.37426 4.22797 0
M  V30 2392 N 232.062 -1.29571 -0.897171 0
M  V30 2393 C 233.025 -1.14913 -1.98312 0
M  V30 2394 C 234.025 -0.0838629 -1.60581 0
M  V30 2395 O 235.215 -0.331006 -1.71026 0
M  V30 2396 C 232.347 -0.757835 -3.3237 0
M  V30 2397 H 233.54 -2.11377 -2.12743 0
M  V30 2398 H 231.093 -1.12793 -1.08201 0
M  V30 2399 H 231.828 0.206837 -3.2364 0
M  V30 2400 H 231.613 -1.52755 -3.61121 0
M  V30 2401 H 233.103 -0.678408 -4.12053 0
M  V30 2402 N 233.54 1.10788 -1.12088 0
M  V30 2403 C 234.951 1.64181 -0.88891 0
M  V30 2404 C 235.302 1.87508 0.577498 0
M  V30 2405 O 234.427 1.61434 1.44112 0
M  V30 2406 C 235.022 2.98257 -1.60712 0
M  V30 2407 C 233.581 3.4853 -1.42139 0
M  V30 2408 C 232.728 2.23208 -1.6454 0
M  V30 2409 H 235.679 0.943368 -1.27618 0
M  V30 2410 H 235.7 3.65552 -1.05604 0
M  V30 2411 H 235.212 2.81246 -2.67436 0
M  V30 2412 H 233.313 3.70692 -0.376552 0
M  V30 2413 H 233.426 4.26882 -2.17505 0
M  V30 2414 H 231.79 2.31169 -1.06925 0
M  V30 2415 H 232.573 2.08733 -2.72554 0
M  V30 2416 N 235.018 0.912232 1.28515 0
M  V30 2417 C 236.265 0.544599 1.95039 0
M  V30 2418 C 236.593 -0.911435 1.71823 0
M  V30 2419 O 235.848 -1.66317 1.03137 0
M  V30 2420 C 236.147 0.798392 3.48368 0
M  V30 2421 C 235.813 2.23374 3.91682 0
M  V30 2422 C 234.475 2.62617 4.03219 0
M  V30 2423 C 236.827 3.16786 4.13879 0
M  V30 2424 C 234.155 3.94429 4.3433 0
M  V30 2425 C 236.507 4.48161 4.46469 0
M  V30 2426 C 235.171 4.8726 4.56217 0
M  V30 2427 H 234.441 0.199283 0.7137 0
M  V30 2428 H 237.088 1.15327 1.52879 0
M  V30 2429 H 235.393 0.106908 3.91654 0
M  V30 2430 H 237.09 0.493141 3.97956 0
M  V30 2431 H 233.68 1.91922 3.83228 0
M  V30 2432 H 237.864 2.87677 4.0442 0
M  V30 2433 H 233.12 4.24426 4.40082 0
M  V30 2434 H 237.294 5.20559 4.62592 0
M  V30 2435 H 234.921 5.89431 4.80078 0
M  V30 2436 N 236.496 -1.42363 0.676048 0
M  V30 2437 C 237.459 -2.29199 0.00766941 0
M  V30 2438 C 238.459 -1.43389 -0.727745 0
M  V30 2439 O 239.649 -1.64764 -0.56556 0
M  V30 2440 C 236.781 -3.2591 -0.999785 0
M  V30 2441 H 237.974 -2.89794 0.771988 0
M  V30 2442 H 235.527 -1.50024 0.438468 0
M  V30 2443 H 236.262 -2.70256 -1.79255 0
M  V30 2444 H 236.047 -3.89202 -0.475829 0
M  V30 2445 H 237.537 -3.91028 -1.46583 0
M  V30 2446 N 237.974 -0.419461 -1.51915 0
M  V30 2447 C 238.921 0.400927 -2.27291 0
M  V30 2448 C 239.891 1.03224 -1.30131 0
M  V30 2449 O 241.076 1.05455 -1.59009 0
M  V30 2450 C 238.216 1.50603 -3.10504 0
M  V30 2451 C 237.329 0.89462 -4.22635 0
M  V30 2452 C 236.464 1.97328 -4.93189 0
M  V30 2453 C 235.503 1.33935 -5.97267 0
M  V30 2454 N 234.64 2.3586 -6.61298 0
M  V30 2455 H 239.48 -0.248251 -2.96964 0
M  V30 2456 H 237.017 -0.134266 -1.46486 0
M  V30 2457 H 238.975 2.15783 -3.57062 0
M  V30 2458 H 237.605 2.12509 -2.42981 0
M  V30 2459 H 236.657 0.131583 -3.80172 0
M  V30 2460 H 237.969 0.391641 -4.9726 0
M  V30 2461 H 237.123 2.70211 -5.43204 0
M  V30 2462 H 235.862 2.50994 -4.18155 0
M  V30 2463 H 234.867 0.595896 -5.46561 0
M  V30 2464 H 236.092 0.810252 -6.74249 0
M  V30 2465 H 234.038 2.88639 -5.89087 0
M  V30 2466 H 233.955 1.90403 -7.3163 0
M  V30 2467 H 235.223 3.08282 -7.15949 0
M  V30 2468 N 239.452 1.56882 -0.150215 0
M  V30 2469 C 240.698 1.96518 0.500834 0
M  V30 2470 C 241.031 1.03527 1.64304 0
M  V30 2471 O 240.306 0.0782751 1.94342 0
M  V30 2472 C 240.589 3.45822 1.00395 0
M  V30 2473 C 240.442 4.49591 -0.136983 0
M  V30 2474 C 241.761 3.97704 1.88467 0
M  V30 2475 H 238.88 0.714535 0.18058 0
M  V30 2476 H 241.522 1.88577 -0.232091 0
M  V30 2477 H 239.672 3.5272 1.62851 0
M  V30 2478 H 241.344 4.5477 -0.77343 0
M  V30 2479 H 239.587 4.26441 -0.795652 0
M  V30 2480 H 240.258 5.51402 0.256815 0
M  V30 2481 H 242.734 3.93304 1.35834 0
M  V30 2482 H 241.61 5.0263 2.20578 0
M  V30 2483 H 241.871 3.40252 2.82279 0
M  V30 2484 N 240.93 -0.123565 1.57115 0
M  V30 2485 C 241.86 -1.15309 2.03042 0
M  V30 2486 C 242.841 -1.43454 0.914061 0
M  V30 2487 O 244.026 -1.53973 1.18347 0
M  V30 2488 C 241.156 -2.48043 2.43089 0
M  V30 2489 C 240.11 -2.3437 3.58127 0
M  V30 2490 C 239.436 -3.72026 3.84059 0
M  V30 2491 C 240.736 -1.80804 4.90007 0
M  V30 2492 H 242.43 -0.771102 2.893 0
M  V30 2493 H 239.976 -0.369479 1.39179 0
M  V30 2494 H 241.929 -3.20311 2.73823 0
M  V30 2495 H 240.653 -2.88122 1.53796 0
M  V30 2496 H 239.312 -1.64551 3.27595 0
M  V30 2497 H 238.96 -4.09582 2.91979 0
M  V30 2498 H 238.66 -3.63732 4.6149 0
M  V30 2499 H 240.184 -4.45806 4.1724 0
M  V30 2500 H 241.598 -2.42886 5.19307 0
M  V30 2501 H 239.995 -1.83343 5.71407 0
M  V30 2502 H 241.065 -0.76528 4.78823 0
M  V30 2503 N 242.408 -1.52605 -0.393616 0
M  V30 2504 C 243.358 -1.73436 -1.48 0
M  V30 2505 C 244.342 -0.588386 -1.49756 0
M  V30 2506 O 245.534 -0.846047 -1.5547 0
M  V30 2507 C 242.663 -1.90247 -2.85764 0
M  V30 2508 C 241.749 -3.10763 -2.88595 0
M  V30 2509 N 242.14 -4.33196 -2.61103 0
M  V30 2510 C 240.438 -3.10914 -3.19763 0
M  V30 2511 C 241.139 -5.1477 -2.70899 0
M  V30 2512 N 240.115 -4.50356 -3.04435 0
M  V30 2513 H 243.917 -2.65727 -1.25563 0
M  V30 2514 H 241.431 -1.5085 -0.601513 0
M  V30 2515 H 243.428 -2.03291 -3.63976 0
M  V30 2516 H 242.088 -0.991663 -3.09186 0
M  V30 2517 H 243.099 -4.61408 -2.35209 0
M  V30 2518 H 239.776 -2.29626 -3.4868 0
M  V30 2519 H 241.166 -6.22355 -2.53227 0
M  V30 2520 N 243.887 0.651787 -1.4349 0
M  V30 2521 C 244.797 1.79368 -1.5121 0
M  V30 2522 C 245.813 1.69361 -0.399093 0
M  V30 2523 O 246.989 1.90505 -0.653431 0
M  V30 2524 C 244.054 3.15653 -1.43401 0
M  V30 2525 C 243.115 3.37446 -2.65384 0
M  V30 2526 C 242.348 4.67229 -2.57939 0
M  V30 2527 O 242.571 5.46676 -1.62792 0
M  V30 2528 O 241.505 4.90773 -3.48462 0
M  V30 2529 H 245.331 1.7581 -2.47638 0
M  V30 2530 H 242.916 0.810447 -1.25507 0
M  V30 2531 H 244.798 3.96935 -1.41494 0
M  V30 2532 H 243.473 3.19798 -0.501085 0
M  V30 2533 H 242.38 2.55923 -2.72863 0
M  V30 2534 H 243.713 3.38148 -3.57654 0
M  V30 2535 N 245.365 1.30045 0.890287 0
M  V30 2536 C 246.297 1.11786 2.00091 0
M  V30 2537 C 247.31 0.0626307 1.62679 0
M  V30 2538 O 248.499 0.308112 1.75821 0
M  V30 2539 C 245.599 0.681527 3.31977 0
M  V30 2540 C 244.772 1.81735 3.97858 0
M  V30 2541 C 243.831 1.37045 5.08041 0
M  V30 2542 O 242.857 2.07677 5.29961 0
M  V30 2543 N 244.059 0.246525 5.79976 0
M  V30 2544 H 246.824 2.07441 2.16306 0
M  V30 2545 H 244.385 1.2211 1.06305 0
M  V30 2546 H 246.377 0.365675 4.03045 0
M  V30 2547 H 244.947 -0.182828 3.12065 0
M  V30 2548 H 244.167 2.30159 3.20032 0
M  V30 2549 H 245.455 2.57865 4.38615 0
M  V30 2550 H 244.853 -0.34215 5.64664 0
M  V30 2551 H 243.41 -0.00990438 6.51799 0
M  V30 2552 N 246.843 -1.10192 1.12674 0
M  V30 2553 C 248.09 -1.82205 0.883606 0
M  V30 2554 C 248.418 -1.8532 -0.590492 0
M  V30 2555 O 247.673 -1.31137 -1.45264 0
M  V30 2556 C 247.972 -3.28552 1.4067 0
M  V30 2557 C 247.638 -3.45582 2.89627 0
M  V30 2558 C 246.3 -3.49937 3.30299 0
M  V30 2559 C 248.652 -3.50768 3.85501 0
M  V30 2560 C 245.98 -3.57049 4.65546 0
M  V30 2561 C 248.332 -3.59414 5.20581 0
M  V30 2562 C 246.996 -3.62034 5.60792 0
M  V30 2563 H 246.266 -0.666735 0.323334 0
M  V30 2564 H 248.913 -1.29868 1.40736 0
M  V30 2565 H 247.218 -3.83473 0.80347 0
M  V30 2566 H 248.915 -3.82788 1.19475 0
M  V30 2567 H 245.505 -3.42871 2.57172 0
M  V30 2568 H 249.689 -3.46651 3.55171 0
M  V30 2569 H 244.945 -3.57361 4.96088 0
M  V30 2570 H 249.119 -3.62371 5.94693 0
M  V30 2571 H 246.746 -3.67298 6.6558 0
M  V30 2572 N 248.321 -0.919034 -1.28029 0
M  V30 2573 C 249.569 -0.553838 -1.94363 0
M  V30 2574 C 249.89 0.906357 -1.72656 0
M  V30 2575 O 249.16 1.64143 -1.0693 0
M  V30 2576 H 247.74 -0.201834 -0.719216 0
M  V30 2577 H 250.402 -1.16954 -1.55909 0
M  V30 2578 H 249.498 -0.752758 -3.02886 0
M  V30 2579 N 249.799 1.42003 -0.683588 0
M  V30 2580 C 251.048 2.00638 -0.206681 0
M  V30 2581 C 251.361 1.5472 1.19671 0
M  V30 2582 O 252.567 2.05833 1.77045 0
M  V30 2583 C 251.023 3.58487 -0.318632 0
M  V30 2584 C 250.631 4.1339 -1.72663 0
M  V30 2585 C 252.375 4.24384 0.0991141 0
M  V30 2586 C 250.282 5.63633 -1.79087 0
M  V30 2587 H 249.212 0.750408 -0.0735107 0
M  V30 2588 H 251.863 1.62624 -0.850048 0
M  V30 2589 H 250.245 3.94047 0.392781 0
M  V30 2590 H 251.419 3.89273 -2.46583 0
M  V30 2591 H 249.734 3.59976 -2.09299 0
M  V30 2592 H 252.331 5.34652 0.0713833 0
M  V30 2593 H 252.674 4.00505 1.13586 0
M  V30 2594 H 253.207 3.93816 -0.561599 0
M  V30 2595 H 249.946 5.92323 -2.80774 0
M  V30 2596 H 249.466 5.89714 -1.09535 0
M  V30 2597 H 251.145 6.28201 -1.5483 0
M  V30 2598 N 251.277 0.427512 1.51691 0
M  V30 2599 C 252.523 -0.142439 2.02299 0
M  V30 2600 C 252.856 -1.43214 1.31162 0
M  V30 2601 O 252.131 -1.89833 0.423511 0
M  V30 2602 C 252.414 -0.371301 3.58181 0
M  V30 2603 C 252.267 0.936358 4.39946 0
M  V30 2604 C 253.586 -1.14542 4.24933 0
M  V30 2605 H 250.705 -0.0502937 0.735282 0
M  V30 2606 H 253.347 0.564584 1.81418 0
M  V30 2607 H 251.497 -0.973559 3.76104 0
M  V30 2608 H 253.169 1.57184 4.33694 0
M  V30 2609 H 251.412 1.5432 4.05423 0
M  V30 2610 H 252.083 0.730388 5.47147 0
M  V30 2611 H 254.559 -0.635362 4.11221 0
M  V30 2612 H 253.435 -1.27431 5.33903 0
M  V30 2613 H 253.696 -2.17093 3.85127 0
M  V30 2614 N 252.755 -1.56801 0.158532 0
M  V30 2615 C 254.171 -1.5837 -0.197774 0
M  V30 2616 C 254.371 -1.17334 -1.63814 0
M  V30 2617 O 253.427 -0.878988 -2.36707 0
M  V30 2618 C 254.74 -3.00615 0.0714459 0
M  V30 2619 C 256.288 -3.12999 0.00864533 0
M  V30 2620 C 256.763 -4.57313 0.250685 0
M  V30 2621 N 258.254 -4.62777 0.198014 0
M  V30 2622 C 258.989 -5.72271 0.359642 0
M  V30 2623 N 258.485 -6.90371 0.579625 0
M  V30 2624 N 260.278 -5.61318 0.296438 0
M  V30 2625 H 252.429 -1.81765 1.09887 0
M  V30 2626 H 254.692 -0.841849 0.435884 0
M  V30 2627 H 254.398 -3.35068 1.06874 0
M  V30 2628 H 254.272 -3.71683 -0.642757 0
M  V30 2629 H 256.659 -2.7838 -0.979217 0
M  V30 2630 H 256.74 -2.44393 0.755359 0
M  V30 2631 H 256.384 -4.92639 1.2357 0
M  V30 2632 H 256.314 -5.24061 -0.516489 0
M  V30 2633 H 258.805 -3.77885 0.0331115 0
M  V30 2634 H 259.118 -7.69689 0.69275 0
M  V30 2635 H 257.463 -6.92264 0.616087 0
M  V30 2636 H 260.654 -4.67932 0.125258 0
M  V30 2637 H 260.827 -6.46599 0.425831 0
M  V30 2638 N 254.233 0.115231 -1.57178 0
M  V30 2639 C 255.481 0.820727 -1.84685 0
M  V30 2640 C 255.802 1.80237 -0.744279 0
M  V30 2641 O 255.072 1.94529 0.231375 0
M  V30 2642 H 253.652 0.306084 -0.681411 0
M  V30 2643 H 256.314 0.101656 -1.94635 0
M  V30 2644 H 255.41 1.36366 -2.80733 0
M  V30 2645 N 255.711 1.52812 0.385517 0
M  V30 2646 C 256.644 1.72592 1.49289 0
M  V30 2647 C 257.622 0.573819 1.52138 0
M  V30 2648 O 258.806 0.80404 1.70492 0
M  V30 2649 C 255.933 1.78669 2.87741 0
M  V30 2650 C 254.979 3.00455 3.02703 0
M  V30 2651 S 255.812 4.60366 2.73538 0
M  V30 2652 C 256.968 4.69263 4.14177 0
M  V30 2653 H 257.201 2.66248 1.32285 0
M  V30 2654 H 254.734 1.43148 0.578611 0
M  V30 2655 H 256.692 1.82855 3.67524 0
M  V30 2656 H 255.353 0.861 3.02069 0
M  V30 2657 H 254.546 3.01258 4.04054 0
M  V30 2658 H 254.148 2.94278 2.30817 0
M  V30 2659 H 256.44 4.48092 5.08153 0
M  V30 2660 H 257.383 5.71276 4.18388 0
M  V30 2661 H 257.791 3.98072 4.00249 0
M  V30 2662 N 257.189 -0.644168 1.43834 0
M  V30 2663 C 258.122 -1.76906 1.44151 0
M  V30 2664 C 259.1 -1.59774 0.301857 0
M  V30 2665 O 260.284 -1.81834 0.496841 0
M  V30 2666 C 257.411 -3.14321 1.26174 0
M  V30 2667 C 256.457 -3.50134 2.43533 0
M  V30 2668 S 257.29 -3.49085 4.06079 0
M  V30 2669 C 258.446 -4.89142 3.90501 0
M  V30 2670 H 258.679 -1.76368 2.39336 0
M  V30 2671 H 256.212 -0.817624 1.30974 0
M  V30 2672 H 258.17 -3.93625 1.16489 0
M  V30 2673 H 256.831 -3.12412 0.325224 0
M  V30 2674 H 256.024 -4.50095 2.26783 0
M  V30 2675 H 255.626 -2.78264 2.4989 0
M  V30 2676 H 257.918 -5.78036 3.53385 0
M  V30 2677 H 258.861 -5.10945 4.90246 0
M  V30 2678 H 259.269 -4.63102 3.22795 0
M  V30 2679 N 258.668 -1.30515 -0.883378 0
M  V30 2680 C 259.896 -1.22359 -1.66841 0
M  V30 2681 C 260.311 0.213296 -1.87591 0
M  V30 2682 O 259.668 1.14075 -1.42454 0
M  V30 2683 C 259.719 -1.95011 -3.04389 0
M  V30 2684 O 259.44 -3.3309 -2.84575 0
M  V30 2685 C 260.941 -1.93532 -3.98824 0
M  V30 2686 H 258.161 -0.423371 -0.520575 0
M  V30 2687 H 260.705 -1.72167 -1.10357 0
M  V30 2688 H 258.86 -1.48997 -3.57601 0
M  V30 2689 H 259.274 -3.69907 -3.71846 0
M  V30 2690 H 260.748 -2.48902 -4.92699 0
M  V30 2691 H 261.225 -0.914627 -4.29571 0
M  V30 2692 H 261.831 -2.39364 -3.51547 0
M  V30 2693 N 260.146 1.09593 -1.13257 0
M  V30 2694 C 261.374 1.855 -0.916378 0
M  V30 2695 C 261.789 1.81069 0.534738 0
M  V30 2696 O 261.146 1.20562 1.37007 0
M  V30 2697 C 261.197 3.33546 -1.39388 0
M  V30 2698 O 260.918 3.37927 -2.78813 0
M  V30 2699 C 262.419 4.26299 -1.21588 0
M  V30 2700 H 259.639 0.585991 -0.326887 0
M  V30 2701 H 262.183 1.38488 -1.5047 0
M  V30 2702 H 260.338 3.77992 -0.848597 0
M  V30 2703 H 260.752 4.30254 -2.9997 0
M  V30 2704 H 262.226 5.28341 -1.59876 0
M  V30 2705 H 262.703 4.38918 -0.157376 0
M  V30 2706 H 263.309 3.87668 -1.7491 0
M  V30 2707 N 261.624 0.925811 1.2754 0
M  V30 2708 C 262.87 0.566092 1.94739 0
M  V30 2709 C 263.203 -0.890057 1.72603 0
M  V30 2710 O 262.478 -1.63467 1.05399 0
M  V30 2711 C 262.761 0.89054 3.48915 0
M  V30 2712 C 262.614 2.4003 3.80402 0
M  V30 2713 C 263.933 0.395101 4.38323 0
M  V30 2714 H 261.052 0.20714 0.707292 0
M  V30 2715 H 263.694 1.15725 1.50691 0
M  V30 2716 H 261.844 0.387452 3.86563 0
M  V30 2717 H 263.516 2.97494 3.52555 0
M  V30 2718 H 261.759 2.85028 3.2702 0
M  V30 2719 H 262.43 2.57785 4.8811 0
M  V30 2720 H 264.906 0.826241 4.07814 0
M  V30 2721 H 263.782 0.651086 5.45025 0
M  V30 2722 H 264.043 -0.704798 4.36446 0
M  V30 2723 N 263.102 -1.41638 0.69111 0
M  V30 2724 C 264.052 -2.28 -0.000107832 0
M  V30 2725 C 265.036 -1.41964 -0.757304 0
M  V30 2726 O 266.228 -1.65274 -0.633532 0
M  V30 2727 C 263.357 -3.30209 -0.938983 0
M  V30 2728 C 262.443 -4.23725 -0.17827 0
M  V30 2729 N 262.834 -4.99017 0.825563 0
M  V30 2730 C 261.132 -4.44071 -0.414392 0
M  V30 2731 C 261.833 -5.67431 1.28052 0
M  V30 2732 N 260.809 -5.40197 0.607304 0
M  V30 2733 H 264.611 -2.83644 0.769617 0
M  V30 2734 H 262.125 -1.53797 0.521562 0
M  V30 2735 H 264.122 -3.90898 -1.44929 0
M  V30 2736 H 262.782 -2.76126 -1.70836 0
M  V30 2737 H 263.793 -5.03671 1.20566 0
M  V30 2738 H 260.47 -4.01004 -1.162 0
M  V30 2739 H 261.86 -6.37801 2.11327 0
M  V30 2740 N 264.58 -0.43555 -1.51462 0
M  V30 2741 C 265.805 0.132627 -2.06976 0
M  V30 2742 C 266.23 1.35848 -1.30104 0
M  V30 2743 O 265.588 1.78112 -0.338493 0
M  V30 2744 C 265.636 0.43523 -3.57964 0
M  V30 2745 O 264.74 1.52198 -3.83288 0
M  V30 2746 H 264.081 0.00265 -0.663995 0
M  V30 2747 H 266.611 -0.616369 -1.95095 0
M  V30 2748 H 266.621 0.686206 -4.02188 0
M  V30 2749 H 265.296 -0.460739 -4.1334 0
M  V30 2750 H 263.873 1.2611 -3.50928 0
M  V30 2751 N 266.058 1.56714 -0.166846 0
M  V30 2752 C 267.288 2.00828 0.48494 0
M  V30 2753 C 267.696 1.04612 1.57648 0
M  V30 2754 O 267.039 0.0383201 1.8366 0
M  V30 2755 C 267.101 3.4137 1.12723 0
M  V30 2756 C 266.765 4.56654 0.177886 0
M  V30 2757 C 267.762 5.16402 -0.60207 0
M  V30 2758 C 265.447 5.02244 0.0750139 0
M  V30 2759 C 267.441 6.20167 -1.47215 0
M  V30 2760 C 265.128 6.05859 -0.798649 0
M  V30 2761 C 266.126 6.64691 -1.57082 0
M  V30 2762 O 265.814 7.66297 -2.42989 0
M  V30 2763 H 265.546 0.663587 0.128953 0
M  V30 2764 H 268.1 2.03692 -0.264365 0
M  V30 2765 H 266.33 3.35406 1.92457 0
M  V30 2766 H 268.019 3.69466 1.68076 0
M  V30 2767 H 268.785 4.82065 -0.53274 0
M  V30 2768 H 264.664 4.56167 0.665812 0
M  V30 2769 H 268.208 6.66016 -2.07531 0
M  V30 2770 H 264.105 6.39621 -0.869199 0
M  V30 2771 H 264.873 7.83601 -2.36455 0
M  V30 2772 N 267.536 -0.106894 1.57237 0
M  V30 2773 C 268.764 -0.826389 1.8968 0
M  V30 2774 C 269.179 -1.72856 0.759353 0
M  V30 2775 O 268.536 -1.80503 -0.269263 0
M  V30 2776 C 268.587 -1.64967 3.21665 0
M  V30 2777 O 268.308 -0.783804 4.31031 0
M  V30 2778 C 269.809 -2.47326 3.67892 0
M  V30 2779 H 267.029 -0.236927 0.627779 0
M  V30 2780 H 269.573 -0.0876593 2.04312 0
M  V30 2781 H 267.728 -2.34103 3.08666 0
M  V30 2782 H 268.142 -1.35284 5.06753 0
M  V30 2783 H 269.616 -3.00604 4.6297 0
M  V30 2784 H 270.093 -3.25247 2.95146 0
M  V30 2785 H 270.699 -1.83411 3.83719 0
M  V30 2786 N 269.014 -1.53014 -0.377408 0
M  V30 2787 C 269.962 -1.7927 -1.48206 0
M  V30 2788 C 270.956 -0.661195 -1.55963 0
M  V30 2789 O 272.162 -0.843908 -1.58991 0
M  V30 2790 H 268.537 -0.567425 -0.493491 0
M  V30 2791 H 270.508 -2.71753 -1.2326 0
M  V30 2792 C 269.257 -1.98894 -2.85196 0
M  V30 2793 H 268.58 -2.85395 -2.79981 0
M  V30 2794 H 270.02 -2.21249 -3.61698 0
M  V30 2795 C 268.479 -0.764691 -3.28107 0
M  V30 2796 O 269.009 0.0523226 -4.01666 0
M  V30 2797 N 267.215 -0.591493 -2.84517 0
M  V30 2798 H 266.762 -1.25749 -2.24822 0
M  V30 2799 H 266.72 0.226253 -3.13585 0
M  V30 2800 N 270.492 0.636531 -1.44174 0
M  V30 2801 C 271.769 1.39463 -1.37148 0
M  V30 2802 C 272.149 2.11082 -0.027507 0
M  V30 2803 O 271.497 2.05954 0.989716 0
M  V30 2804 C 271.707 2.36552 -2.56601 0
M  V30 2805 C 273.055 3.00048 -3.00427 0
M  V30 2806 O 274.079 2.46878 -2.56767 0
M  V30 2807 O 272.938 3.96488 -3.76111 0
M  V30 2808 H 270.032 0.623903 -0.542839 0
M  V30 2809 H 272.578 0.662039 -1.56253 0
M  V30 2810 H 271.35 1.82692 -3.46034 0
M  V30 2811 H 270.973 3.17236 -2.39681 0
M  V30 2812 N 271.97 1.30982 0.876444 0
M  V30 2813 C 272.902 1.13902 1.98894 0
M  V30 2814 C 273.915 0.0798815 1.62604 0
M  V30 2815 O 275.104 0.326743 1.75484 0
M  V30 2816 C 272.204 0.716699 3.31235 0
M  V30 2817 C 271.377 1.85945 3.95908 0
M  V30 2818 C 270.436 1.42426 5.06558 0
M  V30 2819 O 269.462 2.13287 5.27729 0
M  V30 2820 N 270.664 0.308025 5.79682 0
M  V30 2821 H 273.429 2.09724 2.14094 0
M  V30 2822 H 270.99 1.2323 1.05004 0
M  V30 2823 H 272.982 0.408403 4.02634 0
M  V30 2824 H 271.552 -0.149719 3.12241 0
M  V30 2825 H 270.772 2.33541 3.17573 0
M  V30 2826 H 272.06 2.62503 4.35855 0
M  V30 2827 H 271.458 -0.282241 5.64995 0
M  V30 2828 H 270.015 0.0592282 6.51773 0
M  V30 2829 N 273.449 -1.08991 1.13837 0
M  V30 2830 C 274.865 -1.33312 0.877506 0
M  V30 2831 C 275.065 -1.95587 -0.48456 0
M  V30 2832 O 274.121 -2.20509 -1.23013 0
M  V30 2833 C 275.434 -2.24045 2.0056 0
M  V30 2834 C 276.982 -2.37542 2.03821 0
M  V30 2835 C 277.457 -3.31614 3.15905 0
M  V30 2836 N 278.948 -3.39189 3.15445 0
M  V30 2837 C 279.683 -4.11992 3.98811 0
M  V30 2838 N 279.179 -4.87553 4.92203 0
M  V30 2839 N 280.972 -4.07762 3.86894 0
M  V30 2840 H 273.123 -0.669456 2.01574 0
M  V30 2841 H 275.386 -0.357482 0.878015 0
M  V30 2842 H 275.092 -1.85521 2.98789 0
M  V30 2843 H 274.966 -3.24466 1.92359 0
M  V30 2844 H 277.353 -2.75327 1.06202 0
M  V30 2845 H 277.434 -1.36884 2.16093 0
M  V30 2846 H 277.078 -2.94551 4.13766 0
M  V30 2847 H 277.008 -4.32186 3.0087 0
M  V30 2848 H 279.499 -2.85314 2.47799 0
M  V30 2849 H 279.812 -5.40549 5.52292 0
M  V30 2850 H 278.157 -4.86627 4.96205 0
M  V30 2851 H 281.348 -3.47833 3.13257 0
M  V30 2852 H 281.521 -4.64238 4.52092 0
M  V30 2853 N 274.927 -0.932562 -1.27047 0
M  V30 2854 C 276.176 -0.571351 -1.93439 0
M  V30 2855 C 276.489 0.892467 -1.74053 0
M  V30 2856 O 277.695 1.36267 -2.34826 0
M  V30 2857 C 276.151 -0.97106 -3.46552 0
M  V30 2858 C 275.759 -2.4559 -3.74686 0
M  V30 2859 C 277.503 -0.681333 -4.18997 0
M  V30 2860 C 275.41 -2.79475 -5.21198 0
M  V30 2861 H 274.34 -0.209966 -0.724176 0
M  V30 2862 H 276.991 -1.13403 -1.44263 0
M  V30 2863 H 275.373 -0.336983 -3.94564 0
M  V30 2864 H 276.547 -3.13829 -3.37414 0
M  V30 2865 H 274.862 -2.71802 -3.15456 0
M  V30 2866 H 277.459 -0.910939 -5.26883 0
M  V30 2867 H 277.802 0.381628 -4.14547 0
M  V30 2868 H 278.335 -1.27473 -3.76823 0
M  V30 2869 H 275.074 -3.847 -5.30741 0
M  V30 2870 H 274.594 -2.1589 -5.596 0
M  V30 2871 H 276.273 -2.67478 -5.89122 0
M  V30 2872 N 276.405 1.4127 -0.698611 0
M  V30 2873 C 277.335 2.33447 -0.049629 0
M  V30 2874 C 278.316 1.51982 0.763898 0
M  V30 2875 O 279.501 1.80509 0.716257 0
M  V30 2876 C 276.631 3.35828 0.885267 0
M  V30 2877 C 275.585 4.27627 0.178613 0
M  V30 2878 C 274.911 5.20406 1.22807 0
M  V30 2879 C 276.211 5.13459 -0.956933 0
M  V30 2880 H 277.905 2.87966 -0.81951 0
M  V30 2881 H 275.451 1.38461 -0.395538 0
M  V30 2882 H 277.404 3.9924 1.34854 0
M  V30 2883 H 276.128 2.79666 1.68685 0
M  V30 2884 H 274.787 3.65643 -0.26466 0
M  V30 2885 H 274.435 4.60558 2.02226 0
M  V30 2886 H 274.135 5.82661 0.760239 0
M  V30 2887 H 275.659 5.86695 1.69179 0
M  V30 2888 H 277.073 5.70421 -0.573805 0
M  V30 2889 H 275.47 5.8467 -1.35205 0
M  V30 2890 H 276.54 4.50443 -1.79524 0
M  V30 2891 N 277.883 0.443576 1.51229 0
M  V30 2892 C 279.16 -0.181038 1.9476 0
M  V30 2893 C 279.54 -1.59523 1.38259 0
M  V30 2894 O 278.888 -2.2122 0.572198 0
M  V30 2895 C 279.098 -0.152422 3.48667 0
M  V30 2896 C 280.446 -0.354923 4.23114 0
M  V30 2897 O 281.47 -0.230257 3.55455 0
M  V30 2898 O 280.329 -0.603674 5.43156 0
M  V30 2899 H 277.423 -0.1266 0.817252 0
M  V30 2900 H 279.969 0.502004 1.62105 0
M  V30 2901 H 278.741 0.836022 3.82265 0
M  V30 2902 H 278.364 -0.878107 3.87782 0
M  V30 2903 N 279.361 -1.56624 0.175154 0
M  V30 2904 C 280.291 -2.21155 -0.749195 0
M  V30 2905 C 281.272 -1.16836 -1.23626 0
M  V30 2906 O 282.457 -1.45277 -1.28873 0
M  V30 2907 C 279.587 -2.8553 -1.97711 0
M  V30 2908 C 278.541 -3.95921 -1.62575 0
M  V30 2909 C 277.867 -4.47365 -2.92864 0
M  V30 2910 C 279.167 -5.15323 -0.850838 0
M  V30 2911 H 280.861 -2.98653 -0.211295 0
M  V30 2912 H 278.407 -1.43651 -0.100188 0
M  V30 2913 H 280.36 -3.2935 -2.62881 0
M  V30 2914 H 279.084 -2.05406 -2.53921 0
M  V30 2915 H 277.743 -3.52762 -0.997719 0
M  V30 2916 H 277.391 -3.64027 -3.47122 0
M  V30 2917 H 277.091 -5.21839 -2.70106 0
M  V30 2918 H 278.615 -4.93873 -3.59056 0
M  V30 2919 H 280.029 -5.55812 -1.40521 0
M  V30 2920 H 278.426 -5.95739 -0.722154 0
M  V30 2921 H 279.496 -4.84661 0.152082 0
M  V30 2922 N 280.839 0.0985539 -1.57292 0
M  V30 2923 C 282.25 0.653457 -1.74891 0
M  V30 2924 C 282.601 1.7929 -0.796838 0
M  V30 2925 O 281.726 2.16385 0.0254886 0
M  V30 2926 C 282.321 1.19216 -3.17133 0
M  V30 2927 C 280.88 1.69316 -3.36168 0
M  V30 2928 C 280.027 0.601294 -2.70702 0
M  V30 2929 H 282.978 -0.127497 -1.58187 0
M  V30 2930 H 282.999 2.06154 -3.19814 0
M  V30 2931 H 282.511 0.362635 -3.86402 0
M  V30 2932 H 280.612 2.5468 -2.71972 0
M  V30 2933 H 280.725 1.78853 -4.44464 0
M  V30 2934 H 279.089 1.0399 -2.32504 0
M  V30 2935 H 279.872 -0.217592 -3.4261 0
M  V30 2936 N 282.317 1.53212 0.369288 0
M  V30 2937 C 283.267 1.75769 1.45222 0
M  V30 2938 C 284.251 0.612136 1.48801 0
M  V30 2939 O 285.443 0.870674 1.54105 0
M  V30 2940 C 282.572 1.94769 2.82701 0
M  V30 2941 C 281.658 3.15315 2.83615 0
M  V30 2942 N 282.049 4.37295 2.54178 0
M  V30 2943 C 280.347 3.15962 3.14776 0
M  V30 2944 C 281.048 5.19015 2.62675 0
M  V30 2945 N 280.024 4.55142 2.97232 0
M  V30 2946 H 283.826 2.67691 1.2132 0
M  V30 2947 H 281.34 1.51787 0.577438 0
M  V30 2948 H 283.337 2.09056 3.60696 0
M  V30 2949 H 281.997 1.04073 3.07569 0
M  V30 2950 H 283.008 4.65091 2.27839 0
M  V30 2951 H 279.685 2.35144 3.44983 0
M  V30 2952 H 281.075 6.26305 2.43294 0
M  V30 2953 N 283.795 -0.628877 1.44509 0
M  V30 2954 C 284.742 -1.74074 1.51549 0
M  V30 2955 C 285.712 -1.62084 0.363021 0
M  V30 2956 O 286.897 -1.81975 0.573567 0
M  V30 2957 C 284.037 -3.12328 1.46784 0
M  V30 2958 C 283.15 -3.35277 2.72422 0
M  V30 2959 C 282.285 -4.63515 2.59475 0
M  V30 2960 C 281.324 -4.7965 3.80266 0
M  V30 2961 N 280.461 -5.99168 3.65981 0
M  V30 2962 H 285.301 -1.67392 2.46544 0
M  V30 2963 H 282.838 -0.816527 1.22357 0
M  V30 2964 H 284.796 -3.92286 1.42012 0
M  V30 2965 H 283.426 -3.18018 0.553544 0
M  V30 2966 H 282.478 -2.49242 2.87372 0
M  V30 2967 H 283.79 -3.43078 3.62076 0
M  V30 2968 H 282.944 -5.51638 2.52548 0
M  V30 2969 H 281.683 -4.58076 1.67384 0
M  V30 2970 H 280.688 -3.89957 3.87574 0
M  V30 2971 H 281.913 -4.86902 4.73395 0
M  V30 2972 H 279.859 -5.94814 2.76644 0
M  V30 2973 H 279.776 -6.08035 4.49254 0
M  V30 2974 H 281.044 -6.89846 3.6295 0
M  V30 2975 N 285.273 -1.31445 -0.869486 0
M  V30 2976 C 286.55 -1.11795 -1.60503 0
M  V30 2977 C 286.93 0.327168 -2.08549 0
M  V30 2978 O 286.278 1.32135 -1.8642 0
M  V30 2979 C 286.488 -2.13258 -2.76265 0
M  V30 2980 C 287.836 -2.45805 -3.46215 0
M  V30 2981 O 288.86 -2.11688 -2.86473 0
M  V30 2982 O 287.719 -3.04228 -4.5399 0
M  V30 2983 H 284.813 -0.430421 -0.706163 0
M  V30 2984 H 287.359 -1.42925 -0.914907 0
M  V30 2985 H 286.131 -3.10461 -2.3818 0
M  V30 2986 H 285.754 -1.83035 -3.52964 0
M  V30 2987 N 286.751 1.08385 -1.14413 0
M  V30 2988 C 287.681 2.17321 -0.854044 0
M  V30 2989 C 288.662 1.69024 0.191049 0
M  V30 2990 O 289.847 1.94141 0.0476779 0
M  V30 2991 C 286.977 3.45719 -0.330983 0
M  V30 2992 C 285.931 4.07409 -1.31155 0
M  V30 2993 C 285.257 5.30762 -0.64778 0
M  V30 2994 C 286.557 4.48665 -2.67388 0
M  V30 2995 H 288.251 2.41845 -1.76498 0
M  V30 2996 H 285.797 1.16233 -0.850051 0
M  V30 2997 H 287.75 4.21241 -0.115645 0
M  V30 2998 H 286.474 3.2075 0.615381 0
M  V30 2999 H 285.133 3.33919 -1.51306 0
M  V30 3000 H 284.781 5.02078 0.304398 0
M  V30 3001 H 284.481 5.72992 -1.30207 0
M  V30 3002 H 286.005 6.08998 -0.441972 0
M  V30 3003 H 287.419 5.15364 -2.51143 0
M  V30 3004 H 285.816 5.01814 -3.29093 0
M  V30 3005 H 286.886 3.60543 -3.24248 0
M  V30 3006 N 288.23 0.939286 1.26551 0
M  V30 3007 C 289.646 0.641304 1.46149 0
M  V30 3008 C 289.846 -0.805964 1.84679 0
M  V30 3009 O 288.902 -1.58278 1.96734 0
M  V30 3010 C 290.215 1.6011 2.54529 0
M  V30 3011 C 291.763 1.6106 2.68382 0
M  V30 3012 C 292.238 2.55765 3.79932 0
M  V30 3013 N 293.729 2.5404 3.87322 0
M  V30 3014 C 294.464 3.24004 4.73085 0
M  V30 3015 N 293.96 4.03388 5.63249 0
M  V30 3016 N 295.753 3.12965 4.66914 0
M  V30 3017 H 287.904 1.87478 0.998285 0
M  V30 3018 H 290.167 0.805559 0.499779 0
M  V30 3019 H 289.873 2.63412 2.33039 0
M  V30 3020 H 289.747 1.35171 3.52149 0
M  V30 3021 H 292.134 0.584835 2.89247 0
M  V30 3022 H 292.215 1.90053 1.71212 0
M  V30 3023 H 291.859 3.58458 3.5982 0
M  V30 3024 H 291.789 2.24063 4.76554 0
M  V30 3025 H 294.28 1.96396 3.22858 0
M  V30 3026 H 294.593 4.5373 6.25579 0
M  V30 3027 H 292.938 4.07489 5.63008 0
M  V30 3028 H 296.129 2.50432 3.95476 0
M  V30 3029 H 296.302 3.67759 5.33533 0
M  V30 3030 N 289.708 -1.40897 0.706093 0
M  V30 3031 C 291.124 -1.55042 0.37869 0
M  V30 3032 C 291.324 -1.67944 -1.11342 0
M  V30 3033 O 290.38 -1.66372 -1.89938 0
M  V30 3034 C 291.693 -2.78398 1.13643 0
M  V30 3035 C 293.241 -2.92206 1.12181 0
M  V30 3036 C 293.716 -4.18463 1.86152 0
M  V30 3037 N 295.207 -4.25443 1.83173 0
M  V30 3038 C 295.942 -5.2202 2.37239 0
M  V30 3039 N 295.438 -6.24563 2.99821 0
M  V30 3040 N 297.231 -5.14033 2.27435 0
M  V30 3041 H 289.382 -1.30769 1.67372 0
M  V30 3042 H 291.645 -0.631653 0.706907 0
M  V30 3043 H 291.351 -2.7511 2.19106 0
M  V30 3044 H 291.225 -3.70228 0.721853 0
M  V30 3045 H 293.612 -2.95004 0.0754171 0
M  V30 3046 H 293.693 -2.01521 1.57554 0
M  V30 3047 H 293.337 -4.16427 2.90776 0
M  V30 3048 H 293.267 -5.08141 1.38206 0
M  V30 3049 H 295.758 -3.51976 1.37556 0
M  V30 3050 H 296.071 -6.94665 3.38616 0
M  V30 3051 H 294.416 -6.25035 3.03902 0
M  V30 3052 H 297.607 -4.3285 1.78208 0
M  V30 3053 H 297.78 -5.89129 2.69873 0
M  V30 3054 N 291.186 -0.45159 -1.50991 0
M  V30 3055 C 292.149 0.341117 -2.26647 0
M  V30 3056 C 293.149 0.937422 -1.30649 0
M  V30 3057 O 294.339 0.809644 -1.54241 0
M  V30 3058 C 291.471 1.48398 -3.06905 0
M  V30 3059 H 292.664 -0.322117 -2.98165 0
M  V30 3060 H 290.217 -0.205122 -1.54948 0
M  V30 3061 H 290.952 2.18284 -2.39838 0
M  V30 3062 H 290.737 1.06241 -3.77432 0
M  V30 3063 H 292.227 2.04367 -3.64176 0
M  V30 3064 N 292.664 1.56529 -0.183458 0
M  V30 3065 C 294.08 1.58664 0.172554 0
M  V30 3066 C 294.28 1.19925 1.61926 0
M  V30 3067 O 293.336 0.916534 2.35278 0
M  V30 3068 C 294.649 3.00463 -0.119262 0
M  V30 3069 C 296.197 3.12945 -0.0584396 0
M  V30 3070 C 296.672 4.56857 -0.323408 0
M  V30 3071 N 298.163 4.62403 -0.271612 0
M  V30 3072 C 298.898 5.71626 -0.450639 0
M  V30 3073 N 298.394 6.89362 -0.689384 0
M  V30 3074 N 300.187 5.60775 -0.385701 0
M  V30 3075 H 292.338 1.79994 -1.12765 0
M  V30 3076 H 294.601 0.834808 -0.449222 0
M  V30 3077 H 294.307 3.33326 -1.12192 0
M  V30 3078 H 294.181 3.72659 0.583544 0
M  V30 3079 H 296.568 2.79902 0.934805 0
M  V30 3080 H 296.649 2.4316 -0.794144 0
M  V30 3081 H 296.293 4.9061 -1.31392 0
M  V30 3082 H 296.223 5.24816 0.43305 0
M  V30 3083 H 298.714 3.77785 -0.0932256 0
M  V30 3084 H 299.027 7.68489 -0.815113 0
M  V30 3085 H 297.372 6.91196 -0.726142 0
M  V30 3086 H 300.563 4.67674 -0.199687 0
M  V30 3087 H 300.736 6.4584 -0.528646 0
M  V30 3088 N 294.142 -0.090211 1.57342 0
M  V30 3089 C 295.105 -1.09335 2.01441 0
M  V30 3090 C 296.105 -1.32666 0.908641 0
M  V30 3091 O 297.295 -1.28697 1.174 0
M  V30 3092 C 294.427 -2.44136 2.3793 0
M  V30 3093 H 295.62 -0.713662 2.91285 0
M  V30 3094 H 293.173 -0.335404 1.52659 0
M  V30 3095 H 293.908 -2.86972 1.51055 0
M  V30 3096 H 293.693 -2.28548 3.18603 0
M  V30 3097 H 295.183 -3.16277 2.72688 0
M  V30 3098 N 295.62 -1.53406 -0.361157 0
M  V30 3099 C 296.583 -1.79479 -1.42548 0
M  V30 3100 C 297.583 -0.665327 -1.4639 0
M  V30 3101 O 298.773 -0.933549 -1.47073 0
M  V30 3102 C 295.905 -1.92087 -2.8163 0
M  V30 3103 H 297.098 -2.74538 -1.20701 0
M  V30 3104 H 294.651 -1.4455 -0.594546 0
M  V30 3105 H 295.386 -0.991099 -3.08784 0
M  V30 3106 H 295.171 -2.74241 -2.80239 0
M  V30 3107 H 296.661 -2.13836 -3.58697 0
M  V30 3108 N 297.098 0.621204 -1.44841 0
M  V30 3109 C 298.061 1.71459 -1.521 0
M  V30 3110 C 299.061 1.55696 -0.401933 0
M  V30 3111 O 300.251 1.61011 -0.664925 0
M  V30 3112 C 297.383 3.10624 -1.40447 0
M  V30 3113 H 298.576 1.66394 -2.49506 0
M  V30 3114 H 296.129 0.835745 -1.3208 0
M  V30 3115 H 296.864 3.21277 -0.441737 0
M  V30 3116 H 296.649 3.23473 -2.21602 0
M  V30 3117 H 298.139 3.90293 -1.4853 0
M  V30 3118 N 298.576 1.31904 0.862503 0
M  V30 3119 C 299.486 1.22161 2.00285 0
M  V30 3120 C 300.502 0.136785 1.73462 0
M  V30 3121 O 301.678 0.355994 1.98229 0
M  V30 3122 C 298.743 0.937093 3.33796 0
M  V30 3123 C 297.804 2.10957 3.73893 0
M  V30 3124 C 297.037 1.83853 5.01033 0
M  V30 3125 O 297.26 0.777274 5.65079 0
M  V30 3126 O 296.194 2.69741 5.38074 0
M  V30 3127 H 300.02 2.18008 2.11439 0
M  V30 3128 H 297.605 1.11716 0.991957 0
M  V30 3129 H 299.487 0.794583 4.13841 0
M  V30 3130 H 298.162 0.00871894 3.23699 0
M  V30 3131 H 297.069 2.30752 2.94456 0
M  V30 3132 H 298.402 3.02046 3.88625 0
M  V30 3133 N 300.054 -1.07777 1.14986 0
M  V30 3134 C 301.279 -1.84558 0.946213 0
M  V30 3135 C 301.704 -1.81323 -0.500362 0
M  V30 3136 O 301.062 -1.20301 -1.35637 0
M  V30 3137 C 301.11 -3.29736 1.45968 0
M  V30 3138 O 300.214 -4.07149 0.65601 0
M  V30 3139 H 299.555 -0.571641 0.33782 0
M  V30 3140 H 302.085 -1.35991 1.52865 0
M  V30 3141 H 302.095 -3.80574 1.47063 0
M  V30 3142 H 300.77 -3.31406 2.51283 0
M  V30 3143 H 299.347 -3.65994 0.714322 0
M  V30 3144 N 301.532 -0.945985 -1.26051 0
M  V30 3145 C 302.781 -0.591836 -1.92822 0
M  V30 3146 C 303.094 0.873956 -1.7499 0
M  V30 3147 O 304.3 1.33769 -2.36259 0
M  V30 3148 C 302.756 -1.00776 -3.45503 0
M  V30 3149 C 302.364 -2.4955 -3.7206 0
M  V30 3150 C 304.108 -0.725735 -4.1825 0
M  V30 3151 C 302.015 -2.84988 -5.18205 0
M  V30 3152 H 300.945 -0.217635 -0.721908 0
M  V30 3153 H 303.596 -1.14927 -1.43052 0
M  V30 3154 H 301.978 -0.378812 -3.94184 0
M  V30 3155 H 303.152 -3.1739 -3.34066 0
M  V30 3156 H 301.467 -2.75133 -3.12555 0
M  V30 3157 H 304.064 -0.966771 -5.25887 0
M  V30 3158 H 304.407 0.337639 -4.14929 0
M  V30 3159 H 304.94 -1.31463 -3.7545 0
M  V30 3160 H 301.679 -3.90307 -5.26631 0
M  V30 3161 H 301.199 -2.21813 -5.57278 0
M  V30 3162 H 302.878 -2.73712 -5.86252 0
M  V30 3163 N 303.011 1.40521 -0.713556 0
M  V30 3164 C 304.26 2.00155 -0.249192 0
M  V30 3165 C 304.573 1.57224 1.16362 0
M  V30 3166 O 305.779 2.09542 1.72639 0
M  V30 3167 C 304.235 3.5773 -0.3946 0
M  V30 3168 C 303.843 4.09635 -1.81392 0
M  V30 3169 C 305.587 4.24499 0.00907364 0
M  V30 3170 C 303.494 5.59707 -1.91003 0
M  V30 3171 H 302.424 0.74868 -0.0894114 0
M  V30 3172 H 305.075 1.60784 -0.884352 0
M  V30 3173 H 303.457 3.94792 0.30911 0
M  V30 3174 H 304.631 3.83955 -2.54785 0
M  V30 3175 H 302.946 3.55456 -2.16888 0
M  V30 3176 H 305.543 5.34683 -0.0420404 0
M  V30 3177 H 305.886 4.02824 1.05065 0
M  V30 3178 H 306.419 3.92536 -0.645007 0
M  V30 3179 H 303.158 5.86234 -2.93275 0
M  V30 3180 H 302.678 5.87258 -1.22019 0
M  V30 3181 H 304.357 6.24776 -1.6812 0
M  V30 3182 N 304.489 0.459591 1.5075 0
M  V30 3183 C 305.9 0.00171547 1.867 0
M  V30 3184 C 306.251 -1.39934 1.37525 0
M  V30 3185 O 305.376 -2.03523 0.735349 0
M  V30 3186 C 305.971 -0.00366298 3.388 0
M  V30 3187 C 304.53 -0.406026 3.74204 0
M  V30 3188 C 303.677 0.38673 2.7459 0
M  V30 3189 H 306.628 0.674413 1.43657 0
M  V30 3190 H 306.649 -0.808371 3.71814 0
M  V30 3191 H 306.161 1.01617 3.74561 0
M  V30 3192 H 304.262 -1.43063 3.4404 0
M  V30 3193 H 304.375 -0.115362 4.78961 0
M  V30 3194 H 302.739 -0.158019 2.54209 0
M  V30 3195 H 303.522 1.40585 3.13194 0
M  V30 3196 N 305.967 -1.56429 0.191757 0
M  V30 3197 C 307.195 -2.01867 -0.453586 0
M  V30 3198 C 307.61 -1.07191 -1.5542 0
M  V30 3199 O 306.967 -0.0762108 -1.82341 0
M  V30 3200 C 307.018 -3.47017 -1.013 0
M  V30 3201 O 306.739 -4.38078 0.0437005 0
M  V30 3202 C 308.24 -4.07956 -1.73456 0
M  V30 3203 H 305.46 -0.661211 -0.114199 0
M  V30 3204 H 308.004 -2.02295 0.299483 0
M  V30 3205 H 306.159 -3.47298 -1.71647 0
M  V30 3206 H 306.573 -5.23178 -0.372212 0
M  V30 3207 H 308.047 -5.1138 -2.07833 0
M  V30 3208 H 308.524 -3.51222 -2.63704 0
M  V30 3209 H 309.13 -4.11437 -1.07702 0
M  V30 3210 N 307.445 0.0818655 -1.57387 0
M  V30 3211 C 308.673 0.796108 -1.9097 0
M  V30 3212 C 309.088 1.71626 -0.786757 0
M  V30 3213 O 308.445 1.80908 0.240513 0
M  V30 3214 C 308.496 1.59829 -3.24248 0
M  V30 3215 O 308.217 0.715131 -4.32224 0
M  V30 3216 C 309.718 2.41442 -3.7178 0
M  V30 3217 H 306.938 0.22691 -0.631469 0
M  V30 3218 H 309.482 0.0551439 -2.04426 0
M  V30 3219 H 307.637 2.29163 -3.12351 0
M  V30 3220 H 308.051 1.27205 -5.08841 0
M  V30 3221 H 309.525 2.932 -4.67694 0
M  V30 3222 H 310.002 3.2051 -3.00283 0
M  V30 3223 H 310.608 1.77283 -3.86589 0
M  V30 3224 N 308.923 1.53595 0.353017 0
M  V30 3225 C 310.151 1.74311 1.1146 0
M  V30 3226 C 310.566 0.477854 1.82653 0
M  V30 3227 O 309.923 -0.549977 1.74016 0
M  V30 3228 C 309.974 2.91694 2.13534 0
M  V30 3229 O 309.695 4.13325 1.45238 0
M  V30 3230 C 311.196 3.24384 3.02142 0
M  V30 3231 H 308.416 0.582669 0.332773 0
M  V30 3232 H 310.96 2.00386 0.408107 0
M  V30 3233 H 309.115 2.67977 2.79763 0
M  V30 3234 H 309.529 4.79148 2.13349 0
M  V30 3235 H 311.003 4.09893 3.69718 0
M  V30 3236 H 311.48 2.40282 3.67643 0
M  V30 3237 H 312.086 3.50073 2.41514 0
M  V30 3238 N 310.401 -0.613514 1.45168 0
M  V30 3239 C 311.649 -1.36997 1.48581 0
M  V30 3240 C 311.97 -1.94589 0.126545 0
M  V30 3241 O 311.24 -1.76816 -0.843372 0
M  V30 3242 H 309.82 -0.508558 0.547154 0
M  V30 3243 H 312.482 -0.720853 1.81079 0
M  V30 3244 H 311.578 -2.1924 2.22127 0
M  V30 3245 N 311.879 -1.3236 -0.855495 0
M  V30 3246 C 312.842 -1.21164 -1.94556 0
M  V30 3247 C 313.842 -0.134908 -1.60233 0
M  V30 3248 O 315.032 -0.385249 -1.69887 0
M  V30 3249 C 312.164 -0.863192 -3.29791 0
M  V30 3250 H 313.357 -2.18038 -2.05911 0
M  V30 3251 H 310.91 -1.16179 -1.04557 0
M  V30 3252 H 311.645 0.103769 -3.24134 0
M  V30 3253 H 311.43 -1.64166 -3.56078 0
M  V30 3254 H 312.92 -0.809156 -4.09686 0
M  V30 3255 N 313.357 1.07166 -1.15556 0
M  V30 3256 C 314.32 2.12589 -0.856644 0
M  V30 3257 C 315.32 1.6015 0.14444 0
M  V30 3258 O 316.51 1.7399 -0.0854163 0
M  V30 3259 C 313.642 3.39753 -0.279405 0
M  V30 3260 H 314.835 2.40539 -1.79112 0
M  V30 3261 H 312.388 1.23086 -0.963298 0
M  V30 3262 H 313.123 3.17447 0.663174 0
M  V30 3263 H 312.908 3.79117 -1.00063 0
M  V30 3264 H 314.398 4.17507 -0.0879113 0
M  V30 3265 N 314.835 0.952656 1.25548 0
M  V30 3266 C 315.782 0.47008 2.25962 0
M  V30 3267 C 316.752 -0.476384 1.59122 0
M  V30 3268 O 317.937 -0.39007 1.8677 0
M  V30 3269 C 315.077 -0.247881 3.44209 0
M  V30 3270 C 314.19 0.735591 4.25691 0
M  V30 3271 C 313.325 -0.0047306 5.312 0
M  V30 3272 C 312.364 0.969805 6.04368 0
M  V30 3273 N 311.501 0.260486 7.01617 0
M  V30 3274 H 316.341 1.33126 2.66611 0
M  V30 3275 H 313.878 0.66765 1.31076 0
M  V30 3276 H 315.836 -0.680695 4.1161 0
M  V30 3277 H 314.466 -1.07312 3.0444 0
M  V30 3278 H 313.518 1.28689 3.57971 0
M  V30 3279 H 314.83 1.47934 4.76358 0
M  V30 3280 H 313.984 -0.496275 6.04667 0
M  V30 3281 H 312.723 -0.781282 4.81401 0
M  V30 3282 H 311.728 1.47237 5.29718 0
M  V30 3283 H 312.953 1.74655 6.56256 0
M  V30 3284 H 310.899 -0.497364 6.54112 0
M  V30 3285 H 310.816 0.943362 7.50091 0
M  V30 3286 H 312.084 -0.209587 7.79218 0
M  V30 3287 N 316.313 -1.40141 0.720998 0
M  V30 3288 C 317.276 -2.29058 0.0805834 0
M  V30 3289 C 318.276 -1.45632 -0.681758 0
M  V30 3290 O 319.466 -1.6648 -0.512856 0
M  V30 3291 C 316.598 -3.28925 -0.895593 0
M  V30 3292 H 317.791 -2.87191 0.863793 0
M  V30 3293 H 315.344 -1.48553 0.485975 0
M  V30 3294 H 316.079 -2.75822 -1.70566 0
M  V30 3295 H 315.864 -3.90519 -0.351766 0
M  V30 3296 H 317.354 -3.95494 -1.34069 0
M  V30 3297 N 317.792 -0.46758 -1.50504 0
M  V30 3298 C 319.038 0.0887532 -2.02606 0
M  V30 3299 C 319.371 1.39686 -1.34913 0
M  V30 3300 O 318.646 1.88644 -0.473694 0
M  V30 3301 C 318.929 0.276206 -3.59039 0
M  V30 3302 C 318.782 -1.05267 -4.37309 0
M  V30 3303 C 320.101 1.03235 -4.27821 0
M  V30 3304 H 317.22 0.0307814 -0.736357 0
M  V30 3305 H 319.862 -0.612485 -1.79857 0
M  V30 3306 H 318.012 0.8735 -3.78553 0
M  V30 3307 H 319.684 -1.68628 -4.29374 0
M  V30 3308 H 317.927 -1.65015 -4.01189 0
M  V30 3309 H 318.598 -0.875197 -5.45018 0
M  V30 3310 H 321.074 0.526111 -4.12761 0
M  V30 3311 H 319.95 1.1323 -5.37094 0
M  V30 3312 H 320.211 2.06806 -3.90748 0
M  V30 3313 N 319.27 1.56325 -0.20005 0
M  V30 3314 C 320.233 2.18084 0.705132 0
M  V30 3315 C 321.233 1.13666 1.1374 0
M  V30 3316 O 322.423 1.39023 1.04968 0
M  V30 3317 C 319.555 2.78689 1.96329 0
M  V30 3318 H 320.748 2.99435 0.167023 0
M  V30 3319 H 318.301 1.56221 0.0495725 0
M  V30 3320 H 319.036 2.0115 2.5438 0
M  V30 3321 H 318.821 3.55133 1.66202 0
M  V30 3322 H 320.311 3.26096 2.60866 0
M  V30 3323 N 320.748 -0.0735177 1.57428 0
M  V30 3324 C 321.678 -1.0879 2.06608 0
M  V30 3325 C 322.659 -1.40473 0.959237 0
M  V30 3326 O 323.844 -1.5013 1.23185 0
M  V30 3327 C 320.974 -2.40183 2.50857 0
M  V30 3328 C 319.928 -2.22858 3.65402 0
M  V30 3329 C 319.254 -3.59619 3.957 0
M  V30 3330 C 320.554 -1.65123 4.95511 0
M  V30 3331 H 322.248 -0.678673 2.91607 0
M  V30 3332 H 319.794 -0.325013 1.40284 0
M  V30 3333 H 321.747 -3.11437 2.83874 0
M  V30 3334 H 320.471 -2.83083 1.62885 0
M  V30 3335 H 319.13 -1.54045 3.32664 0
M  V30 3336 H 318.778 -4.00086 3.04861 0
M  V30 3337 H 318.478 -3.48866 4.72828 0
M  V30 3338 H 320.002 -4.32306 4.31212 0
M  V30 3339 H 321.416 -2.26241 5.26771 0
M  V30 3340 H 319.813 -1.65071 5.7695 0
M  V30 3341 H 320.883 -0.612559 4.81015 0
M  V30 3342 N 322.226 -1.5378 -0.344866 0
M  V30 3343 C 323.472 -1.71216 -1.08687 0
M  V30 3344 C 323.805 -0.473281 -1.88345 0
M  V30 3345 O 323.08 0.52968 -1.87149 0
M  V30 3346 C 323.363 -2.97486 -2.02914 0
M  V30 3347 C 323.216 -4.31579 -1.26727 0
M  V30 3348 C 324.535 -3.19422 -3.0275 0
M  V30 3349 H 321.654 -0.62301 -0.393735 0
M  V30 3350 H 324.296 -1.8645 -0.365563 0
M  V30 3351 H 322.446 -2.84629 -2.64421 0
M  V30 3352 H 324.118 -4.56284 -0.67845 0
M  V30 3353 H 322.361 -4.30049 -0.569273 0
M  V30 3354 H 323.032 -5.16106 -1.95803 0
M  V30 3355 H 325.508 -3.316 -2.51357 0
M  V30 3356 H 324.384 -4.09169 -3.65885 0
M  V30 3357 H 324.645 -2.35656 -3.74057 0
M  V30 3358 N 323.704 0.605807 -1.45491 0
M  V30 3359 C 324.634 1.72709 -1.57143 0
M  V30 3360 C 325.615 1.6476 -0.422884 0
M  V30 3361 O 326.8 1.83132 -0.646247 0
M  V30 3362 C 323.93 3.11316 -1.53948 0
M  V30 3363 C 322.884 3.34077 -2.67537 0
M  V30 3364 C 322.21 4.72975 -2.49397 0
M  V30 3365 C 323.51 3.24158 -4.09535 0
M  V30 3366 H 325.204 1.63214 -2.51001 0
M  V30 3367 H 322.75 0.78379 -1.208 0
M  V30 3368 H 324.703 3.89557 -1.60696 0
M  V30 3369 H 323.427 3.21655 -0.566205 0
M  V30 3370 H 322.086 2.58227 -2.6022 0
M  V30 3371 H 321.734 4.8005 -1.50205 0
M  V30 3372 H 321.434 4.8916 -3.25571 0
M  V30 3373 H 322.958 5.53414 -2.58002 0
M  V30 3374 H 324.372 3.92271 -4.18086 0
M  V30 3375 H 322.769 3.51872 -4.86113 0
M  V30 3376 H 323.839 2.2157 -4.31317 0
M  V30 3377 N 325.182 1.32811 0.848464 0
M  V30 3378 C 326.593 1.21315 1.41914 0
M  V30 3379 C 326.944 -0.171847 1.95446 0
M  V30 3380 O 326.069 -1.07093 1.88043 0
M  V30 3381 C 326.664 2.19631 2.57968 0
M  V30 3382 C 325.223 2.12003 3.11017 0
M  V30 3383 C 324.37 2.07651 1.83783 0
M  V30 3384 H 327.321 1.44549 0.655071 0
M  V30 3385 H 327.342 1.79845 3.35315 0
M  V30 3386 H 326.854 3.20423 2.18976 0
M  V30 3387 H 324.955 1.14481 3.54577 0
M  V30 3388 H 325.068 3.02111 3.71841 0
M  V30 3389 H 323.432 1.52983 2.03638 0
M  V30 3390 H 324.215 3.10235 1.47 0
M  V30 3391 N 326.66 -1.06551 1.16123 0
M  V30 3392 C 327.57 -2.17484 0.879662 0
M  V30 3393 C 328.586 -1.73377 -0.147104 0
M  V30 3394 O 329.762 -2.01379 0.0289128 0
M  V30 3395 C 326.827 -3.44591 0.381829 0
M  V30 3396 C 325.888 -4.0322 1.4735 0
M  V30 3397 C 325.121 -5.24261 0.999324 0
M  V30 3398 O 325.344 -5.70198 -0.151957 0
M  V30 3399 O 324.278 -5.74775 1.78653 0
M  V30 3400 H 328.104 -2.44075 1.80724 0
M  V30 3401 H 325.689 -1.16042 0.940992 0
M  V30 3402 H 327.571 -4.21254 0.111053 0
M  V30 3403 H 326.246 -3.19532 -0.51777 0
M  V30 3404 H 325.153 -3.2806 1.79798 0
M  V30 3405 H 326.486 -4.32568 2.34831 0
M  V30 3406 N 328.138 -0.959301 -1.25041 0
M  V30 3407 C 329.068 -0.501388 -2.28053 0
M  V30 3408 C 330.049 0.454673 -1.63911 0
M  V30 3409 O 331.234 0.352618 -1.90972 0
M  V30 3410 C 328.364 0.217224 -3.4662 0
M  V30 3411 C 327.318 -0.654034 -4.22973 0
M  V30 3412 C 326.644 0.195589 -5.34342 0
M  V30 3413 C 327.944 -1.93447 -4.85155 0
M  V30 3414 H 329.638 -1.36238 -2.66608 0
M  V30 3415 H 327.184 -0.656534 -1.28163 0
M  V30 3416 H 329.137 0.548732 -4.17812 0
M  V30 3417 H 327.861 1.1125 -3.07068 0
M  V30 3418 H 326.52 -0.968693 -3.5357 0
M  V30 3419 H 326.168 1.09076 -4.91031 0
M  V30 3420 H 325.868 -0.384091 -5.86343 0
M  V30 3421 H 327.392 0.521958 -6.08365 0
M  V30 3422 H 328.806 -1.66908 -5.48466 0
M  V30 3423 H 327.203 -2.46018 -5.47353 0
M  V30 3424 H 328.273 -2.63466 -4.07079 0
M  V30 3425 N 329.616 1.39756 -0.72842 0
M  V30 3426 C 330.563 2.30647 -0.0841519 0
M  V30 3427 C 331.533 1.48869 0.7367 0
M  V30 3428 O 332.718 1.77574 0.698015 0
M  V30 3429 C 329.858 3.35165 0.822091 0
M  V30 3430 C 328.971 4.31999 -0.0106663 0
M  V30 3431 C 328.106 5.23585 0.896241 0
M  V30 3432 C 327.145 6.12072 0.0583381 0
M  V30 3433 N 326.282 6.96035 0.920818 0
M  V30 3434 H 331.122 2.85173 -0.864891 0
M  V30 3435 H 328.659 1.40422 -0.438179 0
M  V30 3436 H 330.617 3.94345 1.36189 0
M  V30 3437 H 329.247 2.8211 1.56888 0
M  V30 3438 H 328.299 3.74492 -0.66781 0
M  V30 3439 H 329.611 4.9443 -0.658825 0
M  V30 3440 H 328.765 5.87759 1.50412 0
M  V30 3441 H 327.504 4.61459 1.57819 0
M  V30 3442 H 326.509 5.46916 -0.562389 0
M  V30 3443 H 327.734 6.76261 -0.6203 0
M  V30 3444 H 325.68 6.36485 1.58818 0
M  V30 3445 H 325.597 7.55284 0.32899 0
M  V30 3446 H 326.865 7.64646 1.51447 0
M  V30 3447 N 331.094 0.475555 1.50254 0
M  V30 3448 C 332.342 -0.077738 2.0195 0
M  V30 3449 C 332.663 -1.39813 1.35931 0
M  V30 3450 O 331.933 -1.89249 0.506123 0
M  V30 3451 H 330.513 -0.031719 0.746326 0
M  V30 3452 H 333.175 0.626995 1.84539 0
M  V30 3453 H 332.271 -0.225995 3.11281 0
M  V30 3454 N 332.573 -1.56217 0.208337 0
M  V30 3455 C 333.52 -2.19699 -0.707192 0
M  V30 3456 C 334.49 -1.14836 -1.20008 0
M  V30 3457 O 335.675 -1.4314 -1.26157 0
M  V30 3458 C 332.815 -2.87061 -1.91546 0
M  V30 3459 C 331.928 -4.06483 -1.46271 0
M  V30 3460 C 331.063 -4.61665 -2.62752 0
M  V30 3461 C 330.102 -5.73417 -2.14147 0
M  V30 3462 N 329.239 -6.22948 -3.23853 0
M  V30 3463 H 334.079 -2.97575 -0.159111 0
M  V30 3464 H 331.616 -1.46948 -0.0667874 0
M  V30 3465 H 333.574 -3.24294 -2.62468 0
M  V30 3466 H 332.204 -2.11725 -2.43664 0
M  V30 3467 H 331.256 -3.74825 -0.648886 0
M  V30 3468 H 332.568 -4.87271 -1.06622 0
M  V30 3469 H 331.722 -5.01272 -3.41776 0
M  V30 3470 H 330.461 -3.80013 -3.05682 0
M  V30 3471 H 329.466 -5.33326 -1.33581 0
M  V30 3472 H 330.691 -6.56897 -1.72232 0
M  V30 3473 H 328.637 -5.44213 -3.6629 0
M  V30 3474 H 328.554 -6.98823 -2.88414 0
M  V30 3475 H 329.822 -6.6721 -4.03052 0
M  V30 3476 N 334.051 0.0651679 -1.57465 0
M  V30 3477 C 334.981 1.07693 -2.07182 0
M  V30 3478 C 335.962 1.39962 -0.966673 0
M  V30 3479 O 337.147 1.49475 -1.2398 0
M  V30 3480 C 334.277 2.3885 -2.52127 0
M  V30 3481 C 333.231 2.20917 -3.66579 0
M  V30 3482 C 332.557 3.57515 -3.97601 0
M  V30 3483 C 333.857 1.62493 -4.9638 0
M  V30 3484 H 335.551 0.663199 -2.91962 0
M  V30 3485 H 333.097 0.317569 -1.40455 0
M  V30 3486 H 335.05 3.09928 -2.85522 0
M  V30 3487 H 333.774 2.82215 -1.64384 0
M  V30 3488 H 332.433 1.52279 -3.33477 0
M  V30 3489 H 332.081 3.98463 -3.06979 0
M  V30 3490 H 331.781 3.46353 -4.74672 0
M  V30 3491 H 333.305 4.30013 -4.33499 0
M  V30 3492 H 334.719 2.23445 -5.27963 0
M  V30 3493 H 333.116 1.62009 -5.77818 0
M  V30 3494 H 334.186 0.587041 -4.81333 0
M  V30 3495 N 335.529 1.53961 0.336706 0
M  V30 3496 C 336.477 1.83136 1.43401 0
M  V30 3497 C 337.471 0.702313 1.54156 0
M  V30 3498 O 338.677 0.885765 1.56698 0
M  V30 3499 H 335.052 0.580309 0.478273 0
M  V30 3500 H 337.023 2.74925 1.16012 0
M  V30 3501 C 335.772 2.06385 2.79822 0
M  V30 3502 H 335.095 2.92718 2.72316 0
M  V30 3503 H 336.535 2.30761 3.55704 0
M  V30 3504 C 334.994 0.851414 3.25964 0
M  V30 3505 O 335.524 0.0541904 4.01663 0
M  V30 3506 N 333.73 0.66672 2.82848 0
M  V30 3507 H 333.277 1.31665 2.21409 0
M  V30 3508 H 333.235 -0.143032 3.14074 0
M  V30 3509 N 337.007 -0.598083 1.45811 0
M  V30 3510 C 338.255 -1.35413 1.50026 0
M  V30 3511 C 338.576 -1.94444 0.147177 0
M  V30 3512 O 337.846 -1.77701 -0.824571 0
M  V30 3513 H 336.426 -0.502727 0.552517 0
M  V30 3514 H 339.088 -0.701606 1.81834 0
M  V30 3515 H 338.184 -2.16871 2.2444 0
M  V30 3516 N 338.485 -1.33259 -0.841409 0
M  V30 3517 C 339.418 -1.1764 -1.95541 0
M  V30 3518 C 340.396 -0.072501 -1.62438 0
M  V30 3519 O 341.58 -0.23427 -1.87039 0
M  V30 3520 C 338.707 -0.803794 -3.29024 0
M  V30 3521 C 337.753 -1.91482 -3.81099 0
M  V30 3522 S 338.586 -3.52538 -4.03085 0
M  V30 3523 C 339.742 -3.17279 -5.39523 0
M  V30 3524 H 339.975 -2.11941 -2.08491 0
M  V30 3525 H 337.508 -1.18072 -0.9949 0
M  V30 3526 H 339.466 -0.595592 -4.06156 0
M  V30 3527 H 338.127 0.120574 -3.13868 0
M  V30 3528 H 337.32 -1.60742 -4.7768 0
M  V30 3529 H 336.922 -2.07956 -3.10854 0
M  V30 3530 H 339.214 -2.67946 -6.22263 0
M  V30 3531 H 340.157 -4.1293 -5.75234 0
M  V30 3532 H 340.565 -2.53943 -5.04156 0
M  V30 3533 N 339.963 1.05934 -1.16686 0
M  V30 3534 C 340.926 2.11669 -0.879144 0
M  V30 3535 C 341.926 1.60294 0.127445 0
M  V30 3536 O 343.116 1.7389 -0.103865 0
M  V30 3537 C 340.248 3.39438 -0.315425 0
M  V30 3538 H 341.441 2.38626 -1.81653 0
M  V30 3539 H 338.994 1.22058 -0.976299 0
M  V30 3540 H 339.729 3.18132 0.629468 0
M  V30 3541 H 339.514 3.78034 -1.04079 0
M  V30 3542 H 341.004 4.17391 -0.132189 0
M  V30 3543 N 341.441 0.965919 1.2453 0
M  V30 3544 C 342.374 0.4393 2.23932 0
M  V30 3545 C 343.352 -0.485615 1.55179 0
M  V30 3546 O 344.536 -0.417402 1.83821 0
M  V30 3547 C 341.663 -0.366042 3.36716 0
M  V30 3548 C 340.709 0.5009 4.23548 0
M  V30 3549 S 341.542 1.94002 4.99123 0
M  V30 3550 C 342.698 1.14342 6.15367 0
M  V30 3551 H 342.931 1.28167 2.68254 0
M  V30 3552 H 340.464 0.770819 1.33782 0
M  V30 3553 H 342.422 -0.824724 4.0213 0
M  V30 3554 H 341.083 -1.18337 2.90956 0
M  V30 3555 H 340.276 -0.117341 5.03863 0
M  V30 3556 H 339.878 0.89524 3.63127 0
M  V30 3557 H 342.17 0.397572 6.76332 0
M  V30 3558 H 343.113 1.92089 6.81548 0
M  V30 3559 H 343.521 0.668579 5.60527 0
M  V30 3560 N 342.919 -1.39368 0.735821 0
M  V30 3561 C 344.335 -1.54204 0.411492 0
M  V30 3562 C 344.535 -1.70268 -1.07755 0
M  V30 3563 O 343.591 -1.70364 -1.86366 0
M  V30 3564 C 344.904 -2.75925 1.19523 0
M  V30 3565 C 346.452 -2.89761 1.18354 0
M  V30 3566 C 346.927 -4.14421 1.94986 0
M  V30 3567 N 348.418 -4.21462 1.92156 0
M  V30 3568 C 349.153 -5.16871 2.48258 0
M  V30 3569 N 348.649 -6.18063 3.13001 0
M  V30 3570 N 350.442 -5.09093 2.38287 0
M  V30 3571 H 342.593 -1.27189 1.70108 0
M  V30 3572 H 344.856 -0.616517 0.720147 0
M  V30 3573 H 344.562 -2.70401 2.24892 0
M  V30 3574 H 344.436 -3.68614 0.800222 0
M  V30 3575 H 346.823 -2.94777 0.137975 0
M  V30 3576 H 346.904 -1.98133 1.61793 0
M  V30 3577 H 346.548 -4.10166 2.99543 0
M  V30 3578 H 346.478 -5.05095 1.48953 0
M  V30 3579 H 348.969 -3.48979 1.44991 0
M  V30 3580 H 349.282 -6.87326 3.53275 0
M  V30 3581 H 347.627 -6.18448 3.17091 0
M  V30 3582 H 350.818 -4.28973 1.8735 0
M  V30 3583 H 350.991 -5.83272 2.82308 0
M  V30 3584 N 344.397 -0.483516 -1.5 0
M  V30 3585 C 345.643 0.0672592 -2.02688 0
M  V30 3586 C 345.976 1.38247 -1.36387 0
M  V30 3587 O 345.251 1.88131 -0.493675 0
M  V30 3588 C 345.534 0.238109 -3.59312 0
M  V30 3589 C 345.387 -1.099 -4.36168 0
M  V30 3590 C 346.706 0.986916 -4.28892 0
M  V30 3591 H 343.825 0.0229696 -0.736642 0
M  V30 3592 H 346.467 -0.631527 -1.79197 0
M  V30 3593 H 344.617 0.8333 -3.79458 0
M  V30 3594 H 346.289 -1.73172 -4.27562 0
M  V30 3595 H 344.532 -1.69261 -3.99416 0
M  V30 3596 H 345.203 -0.932954 -5.44059 0
M  V30 3597 H 347.679 0.482302 -4.13295 0
M  V30 3598 H 346.555 1.07527 -5.38265 0
M  V30 3599 H 346.816 2.0265 -3.92919 0
M  V30 3600 N 345.875 1.56104 -0.216619 0
M  V30 3601 C 347.286 1.844 0.292128 0
M  V30 3602 C 347.637 1.13788 1.59833 0
M  V30 3603 O 346.762 0.405888 2.12559 0
M  V30 3604 C 347.357 3.3452 0.53681 0
M  V30 3605 C 345.916 3.63151 0.989876 0
M  V30 3606 C 345.063 2.77255 0.0502302 0
M  V30 3607 H 348.014 1.52481 -0.439926 0
M  V30 3608 H 348.035 3.54459 1.38345 0
M  V30 3609 H 347.547 3.85885 -0.414031 0
M  V30 3610 H 345.648 3.17238 1.95425 0
M  V30 3611 H 345.761 4.71177 0.867698 0
M  V30 3612 H 344.125 2.48555 0.556117 0
M  V30 3613 H 344.908 3.31416 -0.89544 0
M  V30 3614 N 347.353 -0.0568162 1.57498 0
M  V30 3615 C 348.581 -0.765626 1.92213 0
M  V30 3616 C 348.996 -1.70353 0.813961 0
M  V30 3617 O 348.353 -1.81268 -0.211701 0
M  V30 3618 C 348.404 -1.5465 3.2675 0
M  V30 3619 O 348.125 -0.646278 4.33307 0
M  V30 3620 C 349.626 -2.35497 3.75574 0
M  V30 3621 H 346.846 -0.216835 0.634999 0
M  V30 3622 H 349.39 -0.0226146 2.04487 0
M  V30 3623 H 347.545 -2.24165 3.15957 0
M  V30 3624 H 347.959 -1.19093 5.108 0
M  V30 3625 H 349.433 -2.85722 4.72299 0
M  V30 3626 H 349.91 -3.15692 3.05344 0
M  V30 3627 H 350.516 -1.7111 3.8936 0
M  V30 3628 N 348.832 -1.54138 -0.328536 0
M  V30 3629 C 350.243 -1.63395 -0.903272 0
M  V30 3630 C 350.594 -0.524828 -1.8905 0
M  V30 3631 O 349.719 0.343068 -2.13663 0
M  V30 3632 C 350.314 -2.9618 -1.64507 0
M  V30 3633 C 348.873 -3.0765 -2.1686 0
M  V30 3634 C 348.02 -2.58933 -0.992416 0
M  V30 3635 H 350.971 -1.58344 -0.106253 0
M  V30 3636 H 350.992 -2.86061 -2.50897 0
M  V30 3637 H 350.504 -3.76884 -0.926302 0
M  V30 3638 H 348.605 -2.31611 -2.91868 0
M  V30 3639 H 348.718 -4.1337 -2.42202 0
M  V30 3640 H 347.082 -2.14706 -1.37016 0
M  V30 3641 H 347.865 -3.42089 -0.288041 0
M  V30 3642 N 350.31 0.590341 -1.46126 0
M  V30 3643 C 351.258 1.72105 -1.5647 0
M  V30 3644 C 352.252 1.63756 -0.433612 0
M  V30 3645 O 353.458 1.69342 -0.610194 0
M  V30 3646 H 349.833 0.568889 -0.491802 0
M  V30 3647 H 351.804 1.6051 -2.51553 0
M  V30 3648 C 350.553 3.10493 -1.56491 0
M  V30 3649 H 349.876 3.17583 -2.4286 0
M  V30 3650 H 351.316 3.8939 -1.67785 0
M  V30 3651 C 349.775 3.3563 -0.292231 0
M  V30 3652 O 350.305 3.96875 0.620739 0
M  V30 3653 N 348.511 2.90026 -0.182523 0
M  V30 3654 H 348.058 2.40367 -0.926356 0
M  V30 3655 H 348.016 3.07218 0.668152 0
M  V30 3656 N 351.788 1.33704 0.83433 0
M  V30 3657 C 353.034 1.25603 1.59222 0
M  V30 3658 C 353.367 -0.176659 1.93395 0
M  V30 3659 O 352.642 -1.11915 1.59076 0
M  V30 3660 C 352.925 2.13576 2.89926 0
M  V30 3661 C 352.778 3.65326 2.62406 0
M  V30 3662 C 354.097 2.01238 3.91397 0
M  V30 3663 H 351.216 0.457613 0.577719 0
M  V30 3664 H 353.858 1.63848 0.961972 0
M  V30 3665 H 352.008 1.8109 3.43713 0
M  V30 3666 H 353.68 4.08124 2.15017 0
M  V30 3667 H 351.923 3.8698 1.96033 0
M  V30 3668 H 352.594 4.22232 3.55562 0
M  V30 3669 H 355.07 2.29738 3.46929 0
M  V30 3670 H 353.946 2.65036 4.80673 0
M  V30 3671 H 354.207 0.985951 4.30966 0
M  V30 3672 N 353.266 -1.05314 1.17247 0
M  V30 3673 C 354.491 -1.82509 0.985148 0
M  V30 3674 C 354.916 -1.82343 -0.461788 0
M  V30 3675 O 354.274 -1.23151 -1.33055 0
M  V30 3676 C 354.322 -3.26566 1.52929 0
M  V30 3677 O 353.426 -4.05666 0.742225 0
M  V30 3678 H 352.767 -0.564347 0.349869 0
M  V30 3679 H 355.297 -1.32718 1.55715 0
M  V30 3680 H 355.307 -3.77369 1.55103 0
M  V30 3681 H 353.982 -3.26001 2.58256 0
M  V30 3682 H 352.559 -3.64397 0.791794 0
M  V30 3683 N 354.744 -0.972509 -1.24016 0
M  V30 3684 C 355.99 -0.637978 -1.92504 0
M  V30 3685 C 356.323 0.825383 -1.75787 0
M  V30 3686 O 355.598 1.59442 -1.11393 0
M  V30 3687 C 355.881 -1.01942 -3.45369 0
M  V30 3688 C 355.734 -2.53983 -3.71231 0
M  V30 3689 C 357.053 -0.55751 -4.36555 0
M  V30 3690 H 354.172 -0.233248 -0.699117 0
M  V30 3691 H 356.814 -1.21238 -1.46292 0
M  V30 3692 H 354.964 -0.530656 -3.84859 0
M  V30 3693 H 356.636 -3.10374 -3.41271 0
M  V30 3694 H 354.879 -2.96968 -3.16216 0
M  V30 3695 H 355.55 -2.75723 -4.78206 0
M  V30 3696 H 358.026 -0.977029 -4.04467 0
M  V30 3697 H 356.902 -0.85292 -5.42233 0
M  V30 3698 H 357.163 0.542328 -4.38761 0
M  V30 3699 N 356.222 1.38976 -0.743202 0
M  V30 3700 C 357.468 2.0064 -0.295189 0
M  V30 3701 C 357.801 1.5885 1.11716 0
M  V30 3702 O 357.076 0.821181 1.76315 0
M  V30 3703 C 357.359 3.578 -0.406318 0
M  V30 3704 C 357.212 4.09586 -1.85903 0
M  V30 3705 C 358.531 4.39616 0.206439 0
M  V30 3706 H 355.65 0.728935 -0.108733 0
M  V30 3707 H 358.292 1.65067 -0.940897 0
M  V30 3708 H 356.442 3.88235 0.143419 0
M  V30 3709 H 358.114 3.89837 -2.46627 0
M  V30 3710 H 356.357 3.6284 -2.3776 0
M  V30 3711 H 357.028 5.18708 -1.888 0
M  V30 3712 H 359.504 4.15273 -0.262283 0
M  V30 3713 H 358.38 5.48812 0.0983819 0
M  V30 3714 H 358.641 4.22754 1.2935 0
M  V30 3715 N 357.7 0.491464 1.49741 0
M  V30 3716 C 358.977 -0.118984 1.95238 0
M  V30 3717 C 359.357 -1.55044 1.43264 0
M  V30 3718 O 358.705 -2.19287 0.642287 0
M  V30 3719 C 358.915 -0.0414187 3.48975 0
M  V30 3720 C 360.263 -0.220133 4.24029 0
M  V30 3721 O 361.287 -0.117055 3.56008 0
M  V30 3722 O 360.146 -0.430567 5.44801 0
M  V30 3723 H 357.24 -0.100536 0.820866 0
M  V30 3724 H 359.786 0.553322 1.60426 0
M  V30 3725 H 358.558 0.957214 3.79412 0
M  V30 3726 H 358.181 -0.754292 3.9038 0
M  V30 3727 N 359.178 -1.55987 0.224894 0
M  V30 3728 C 360.108 -2.23426 -0.678457 0
M  V30 3729 C 361.089 -1.20709 -1.19847 0
M  V30 3730 O 362.274 -1.49304 -1.24186 0
M  V30 3731 C 359.404 -2.91676 -1.88527 0
M  V30 3732 C 358.358 -4.00893 -1.49896 0
M  V30 3733 C 357.684 -4.56455 -2.78483 0
M  V30 3734 C 358.984 -5.17769 -0.686461 0
M  V30 3735 H 360.678 -2.99175 -0.116173 0
M  V30 3736 H 358.224 -1.43897 -0.054436 0
M  V30 3737 H 360.177 -3.37547 -2.5227 0
M  V30 3738 H 358.901 -2.1338 -2.47258 0
M  V30 3739 H 357.56 -3.55758 -0.884985 0
M  V30 3740 H 357.208 -3.74886 -3.35365 0
M  V30 3741 H 356.908 -5.30169 -2.53368 0
M  V30 3742 H 358.432 -5.05047 -3.43162 0
M  V30 3743 H 359.846 -5.60001 -1.22767 0
M  V30 3744 H 358.243 -5.97735 -0.532259 0
M  V30 3745 H 359.313 -4.83932 0.306196 0
M  V30 3746 N 360.656 0.0484629 -1.57525 0
M  V30 3747 C 361.902 0.744226 -1.88651 0
M  V30 3748 C 362.235 1.76029 -0.820212 0
M  V30 3749 O 361.51 1.93782 0.166985 0
M  V30 3750 C 361.793 1.43128 -3.30434 0
M  V30 3751 C 361.646 0.43005 -4.47739 0
M  V30 3752 C 362.965 2.37031 -3.70816 0
M  V30 3753 H 360.084 0.269089 -0.68612 0
M  V30 3754 H 362.726 0.00713532 -1.89999 0
M  V30 3755 H 360.876 2.05956 -3.29415 0
M  V30 3756 H 362.548 -0.194816 -4.60888 0
M  V30 3757 H 360.791 -0.252522 -4.33064 0
M  V30 3758 H 361.462 0.948874 -5.43783 0
M  V30 3759 H 363.938 1.84263 -3.73077 0
M  V30 3760 H 362.814 2.82094 -4.70865 0
M  V30 3761 H 363.075 3.22864 -3.02012 0
M  V30 3762 N 362.134 1.5431 0.320358 0
M  V30 3763 C 363.097 1.83195 1.3774 0
M  V30 3764 C 364.097 0.703906 1.44575 0
M  V30 3765 O 365.287 0.972214 1.44546 0
M  V30 3766 C 362.419 1.99487 2.76438 0
M  V30 3767 H 363.612 2.77642 1.1338 0
M  V30 3768 H 361.165 1.46076 0.556012 0
M  V30 3769 H 361.9 1.07262 3.06048 0
M  V30 3770 H 361.685 2.81575 2.7287 0
M  V30 3771 H 363.175 2.23271 3.52902 0
M  V30 3772 N 363.613 -0.582584 1.46437 0
M  V30 3773 C 364.523 -1.71949 1.59595 0
M  V30 3774 C 365.539 -1.67264 0.479443 0
M  V30 3775 O 366.715 -1.87171 0.743579 0
M  V30 3776 C 363.78 -3.08452 1.58298 0
M  V30 3777 C 362.841 -3.244 2.81182 0
M  V30 3778 C 362.074 -4.54391 2.79937 0
M  V30 3779 O 362.297 -5.38287 1.8869 0
M  V30 3780 O 361.231 -4.73588 3.71481 0
M  V30 3781 H 365.057 -1.63795 2.55744 0
M  V30 3782 H 362.642 -0.749643 1.29231 0
M  V30 3783 H 364.524 -3.89732 1.60271 0
M  V30 3784 H 363.199 -3.17043 0.653094 0
M  V30 3785 H 362.106 -2.42613 2.84763 0
M  V30 3786 H 363.439 -3.20699 3.7338 0
M  V30 3787 N 365.091 -1.34144 -0.827227 0
M  V30 3788 C 366.021 -1.28005 -1.95287 0
M  V30 3789 C 367.002 -0.158321 -1.69362 0
M  V30 3790 O 368.187 -0.349987 -1.9102 0
M  V30 3791 C 365.317 -1.03036 -3.31664 0
M  V30 3792 C 364.271 -2.11628 -3.72019 0
M  V30 3793 C 363.597 -1.71854 -5.0633 0
M  V30 3794 C 364.897 -3.53417 -3.8457 0
M  V30 3795 H 366.591 -2.22187 -2.00682 0
M  V30 3796 H 364.137 -1.0696 -0.964135 0
M  V30 3797 H 366.09 -0.973863 -4.09993 0
M  V30 3798 H 364.814 -0.0529391 -3.26557 0
M  V30 3799 H 363.473 -2.16339 -2.95961 0
M  V30 3800 H 363.121 -0.727841 -4.97706 0
M  V30 3801 H 362.821 -2.44531 -5.34302 0
M  V30 3802 H 364.345 -1.67692 -5.87122 0
M  V30 3803 H 365.759 -3.51142 -4.5318 0
M  V30 3804 H 364.156 -4.24679 -4.2399 0
M  V30 3805 H 365.226 -3.91072 -2.86689 0
M  V30 3806 N 366.569 1.04691 -1.17803 0
M  V30 3807 C 367.479 2.16057 -0.914151 0
M  V30 3808 C 368.495 1.73589 0.119503 0
M  V30 3809 O 369.671 2.01308 -0.0609468 0
M  V30 3810 C 366.736 3.4394 -0.436603 0
M  V30 3811 C 365.797 4.00825 -1.53746 0
M  V30 3812 C 365.03 5.22604 -1.0826 0
M  V30 3813 O 365.253 5.70367 0.0612244 0
M  V30 3814 O 364.187 5.7186 -1.87775 0
M  V30 3815 H 368.013 2.41169 -1.84584 0
M  V30 3816 H 365.598 1.1453 -0.959334 0
M  V30 3817 H 367.48 4.21024 -0.178057 0
M  V30 3818 H 366.155 3.20316 0.466869 0
M  V30 3819 H 365.062 3.25158 -1.84995 0
M  V30 3820 H 366.395 4.28778 -2.41683 0
M  V30 3821 N 368.047 0.979072 1.23499 0
M  V30 3822 C 368.994 0.517904 2.24914 0
M  V30 3823 C 369.964 -0.442525 1.60097 0
M  V30 3824 O 371.149 -0.350365 1.87556 0
M  V30 3825 C 368.289 -0.174813 3.44657 0
M  V30 3826 C 367.402 0.825721 4.24035 0
M  V30 3827 C 366.537 0.107946 5.3109 0
M  V30 3828 C 365.576 1.09778 6.02175 0
M  V30 3829 N 364.713 0.40925 7.00906 0
M  V30 3830 H 369.553 1.38751 2.63727 0
M  V30 3831 H 367.09 0.695303 1.2963 0
M  V30 3832 H 369.048 -0.593233 4.12961 0
M  V30 3833 H 367.678 -1.0083 3.06648 0
M  V30 3834 H 366.73 1.36253 3.55161 0
M  V30 3835 H 368.042 1.58005 4.73113 0
M  V30 3836 H 367.196 -0.367904 6.05583 0
M  V30 3837 H 365.935 -0.678994 4.8295 0
M  V30 3838 H 364.94 1.5844 5.26476 0
M  V30 3839 H 366.165 1.88536 6.52404 0
M  V30 3840 H 364.111 -0.358506 6.5502 0
M  V30 3841 H 364.028 1.10226 7.47921 0
M  V30 3842 H 365.296 -0.0442557 7.79487 0
M  V30 3843 N 369.525 -1.3858 0.750561 0
M  V30 3844 C 370.435 -2.34278 0.122825 0
M  V30 3845 C 371.451 -1.59116 -0.704131 0
M  V30 3846 O 372.627 -1.91326 -0.628987 0
M  V30 3847 C 369.692 -3.38221 -0.762086 0
M  V30 3848 C 368.753 -4.29227 0.078896 0
M  V30 3849 C 367.986 -5.28205 -0.763874 0
M  V30 3850 O 368.209 -5.34112 -2.00201 0
M  V30 3851 O 367.143 -6.01618 -0.18428 0
M  V30 3852 H 370.969 -2.89649 0.913088 0
M  V30 3853 H 368.554 -1.40374 0.511417 0
M  V30 3854 H 370.436 -4.01872 -1.26793 0
M  V30 3855 H 369.111 -2.85211 -1.5309 0
M  V30 3856 H 368.018 -3.68747 0.630621 0
M  V30 3857 H 369.351 -4.85484 0.810289 0
M  V30 3858 N 371.003 -0.499398 -1.49478 0
M  V30 3859 C 372.249 0.0457576 -2.02748 0
M  V30 3860 C 372.582 1.36793 -1.37846 0
M  V30 3861 O 371.857 1.87596 -0.513601 0
M  V30 3862 C 372.14 0.199986 -3.59544 0
M  V30 3863 C 371.993 -1.1452 -4.34977 0
M  V30 3864 C 373.312 0.94137 -4.29914 0
M  V30 3865 H 370.431 0.0151552 -0.736844 0
M  V30 3866 H 373.073 -0.650498 -1.78518 0
M  V30 3867 H 371.223 0.793007 -3.8032 0
M  V30 3868 H 372.895 -1.77697 -4.25701 0
M  V30 3869 H 371.138 -1.73488 -3.97598 0
M  V30 3870 H 371.809 -0.990607 -5.43039 0
M  V30 3871 H 374.285 0.43844 -4.13784 0
M  V30 3872 H 373.161 1.01812 -5.39375 0
M  V30 3873 H 373.422 1.98471 -3.95046 0
M  V30 3874 N 372.481 1.55866 -0.233164 0
M  V30 3875 C 373.709 2.02998 0.399905 0
M  V30 3876 C 374.124 1.11274 1.52524 0
M  V30 3877 O 373.481 0.124528 1.82075 0
M  V30 3878 C 373.532 3.4958 0.920639 0
M  V30 3879 O 373.253 4.37808 -0.159834 0
M  V30 3880 C 374.754 4.12411 1.62578 0
M  V30 3881 H 371.974 0.664006 0.0966281 0
M  V30 3882 H 374.518 2.0143 -0.353013 0
M  V30 3883 H 372.673 3.51727 1.62379 0
M  V30 3884 H 373.087 5.23981 0.23337 0
M  V30 3885 H 374.561 5.16711 1.94201 0
M  V30 3886 H 375.038 3.5809 2.54299 0
M  V30 3887 H 375.644 4.14148 0.967553 0
M  V30 3888 N 373.959 -0.0401083 1.57549 0
M  V30 3889 C 375.205 -0.734211 1.89043 0
M  V30 3890 C 375.538 -1.75591 0.829535 0
M  V30 3891 O 374.813 -1.93868 -0.156706 0
M  V30 3892 C 375.096 -1.41374 3.31188 0
M  V30 3893 C 374.949 -0.406299 4.47961 0
M  V30 3894 C 376.268 -2.35061 3.72068 0
M  V30 3895 H 373.387 -0.265447 0.687537 0
M  V30 3896 H 376.029 0.00294087 1.9 0
M  V30 3897 H 374.179 -2.04206 3.30503 0
M  V30 3898 H 375.851 0.219255 4.60779 0
M  V30 3899 H 374.094 0.275485 4.32924 0
M  V30 3900 H 374.765 -0.920022 5.44279 0
M  V30 3901 H 377.241 -1.82282 3.74049 0
M  V30 3902 H 376.117 -2.79593 4.72355 0
M  V30 3903 H 376.378 -3.21258 3.0372 0
M  V30 3904 N 375.437 -1.54477 -0.31217 0
M  V30 3905 C 376.347 -1.87695 -1.4074 0
M  V30 3906 C 377.363 -0.769975 -1.56036 0
M  V30 3907 O 378.539 -1.06537 -1.70915 0
M  V30 3908 C 375.604 -2.10755 -2.75287 0
M  V30 3909 C 374.665 -3.34514 -2.69071 0
M  V30 3910 C 373.898 -3.56465 -3.97201 0
M  V30 3911 O 374.121 -2.81637 -4.96021 0
M  V30 3912 O 373.055 -4.49964 -3.9977 0
M  V30 3913 H 376.881 -2.80849 -1.15574 0
M  V30 3914 H 374.466 -1.40526 -0.507228 0
M  V30 3915 H 376.348 -2.27188 -3.54913 0
M  V30 3916 H 375.023 -1.20788 -3.0032 0
M  V30 3917 H 373.93 -3.23456 -1.87955 0
M  V30 3918 H 375.263 -4.24575 -2.48992 0
M  V30 3919 N 376.915 0.57481 -1.46744 0
M  V30 3920 C 377.825 1.711 -1.60505 0
M  V30 3921 C 378.841 1.67008 -0.488307 0
M  V30 3922 O 380.017 1.86774 -0.753495 0
M  V30 3923 C 377.082 3.07608 -1.59932 0
M  V30 3924 C 376.143 3.22904 -2.82898 0
M  V30 3925 C 375.376 4.529 -2.82343 0
M  V30 3926 O 375.599 5.37278 -1.91542 0
M  V30 3927 O 374.533 4.71611 -3.73987 0
M  V30 3928 H 378.359 1.62436 -2.56609 0
M  V30 3929 H 375.944 0.742779 -1.29627 0
M  V30 3930 H 377.826 3.88877 -1.62336 0
M  V30 3931 H 376.501 3.16692 -0.669898 0
M  V30 3932 H 375.408 2.41099 -2.86046 0
M  V30 3933 H 376.741 3.18715 -3.75076 0
M  V30 3934 N 378.394 1.34581 0.820102 0
M  V30 3935 C 379.64 1.27285 1.57881 0
M  V30 3936 C 379.973 -0.156137 1.93571 0
M  V30 3937 O 379.248 -1.10222 1.60254 0
M  V30 3938 C 379.531 2.16639 2.87645 0
M  V30 3939 C 379.384 3.68088 2.58517 0
M  V30 3940 C 380.703 2.05378 3.8924 0
M  V30 3941 H 377.822 0.463714 0.572833 0
M  V30 3942 H 380.464 1.64859 0.944539 0
M  V30 3943 H 378.614 1.84725 3.41773 0
M  V30 3944 H 380.286 4.10382 2.10676 0
M  V30 3945 H 378.529 3.89038 1.91917 0
M  V30 3946 H 379.2 4.2598 3.51063 0
M  V30 3947 H 381.676 2.33404 3.44473 0
M  V30 3948 H 380.552 2.7012 4.77835 0
M  V30 3949 H 380.813 1.0316 4.29896 0
M  V30 3950 N 379.872 -1.04064 1.18357 0
M  V30 3951 C 380.82 -2.14187 0.907007 0
M  V30 3952 C 381.814 -1.68879 -0.132725 0
M  V30 3953 O 383.02 -1.79993 0.0154248 0
M  V30 3954 H 379.395 -0.699585 0.275835 0
M  V30 3955 H 381.366 -2.34711 1.84264 0
M  V30 3956 C 380.115 -3.44785 0.449254 0
M  V30 3957 H 379.438 -3.80058 1.24081 0
M  V30 3958 H 380.878 -4.22974 0.294737 0
M  V30 3959 C 379.337 -3.26391 -0.834909 0
M  V30 3960 O 379.867 -3.53973 -1.89911 0
M  V30 3961 N 378.073 -2.79726 -0.787523 0
M  V30 3962 H 377.62 -2.5748 0.0787347 0
M  V30 3963 H 377.578 -2.67798 -1.64716 0
M  V30 3964 N 381.35 -0.985608 -1.22978 0
M  V30 3965 C 382.313 -0.535071 -2.22867 0
M  V30 3966 C 383.313 0.378123 -1.56291 0
M  V30 3967 O 384.503 0.171092 -1.73358 0
M  V30 3968 C 381.635 0.222702 -3.40172 0
M  V30 3969 H 382.828 -1.41835 -2.6424 0
M  V30 3970 H 380.381 -0.772042 -1.35901 0
M  V30 3971 H 381.116 1.12229 -3.04262 0
M  V30 3972 H 380.901 -0.43288 -3.89703 0
M  V30 3973 H 382.391 0.526335 -4.1427 0
M  V30 3974 N 382.828 1.3818 -0.7579 0
M  V30 3975 C 383.791 2.28764 -0.141286 0
M  V30 3976 C 384.791 1.47388 0.642907 0
M  V30 3977 O 385.981 1.67781 0.468536 0
M  V30 3978 C 383.113 3.31184 0.808069 0
M  V30 3979 H 384.306 2.848 -0.939633 0
M  V30 3980 H 381.859 1.47212 -0.525191 0
M  V30 3981 H 382.594 2.80247 1.63193 0
M  V30 3982 H 382.379 3.91314 0.248104 0
M  V30 3983 H 383.869 3.98909 1.23536 0
M  V30 3984 N 384.306 0.507319 1.49211 0
M  V30 3985 C 385.236 -0.256939 2.32082 0
M  V30 3986 C 386.217 -0.956609 1.40652 0
M  V30 3987 O 387.402 -0.946788 1.69557 0
M  V30 3988 C 384.532 -1.31802 3.21318 0
M  V30 3989 C 383.486 -0.737855 4.21592 0
M  V30 3990 C 382.812 -1.89992 4.99807 0
M  V30 3991 C 384.112 0.275325 5.21574 0
M  V30 3992 H 385.806 0.434798 2.96226 0
M  V30 3993 H 383.352 0.210546 1.42452 0
M  V30 3994 H 385.305 -1.86045 3.78107 0
M  V30 3995 H 384.029 -2.03903 2.5513 0
M  V30 3996 H 382.688 -0.217126 3.65956 0
M  V30 3997 H 382.336 -2.60877 4.30061 0
M  V30 3998 H 382.036 -1.51777 5.6766 0
M  V30 3999 H 383.56 -2.44657 5.59442 0
M  V30 4000 H 384.974 -0.179193 5.7302 0
M  V30 4001 H 383.371 0.573649 5.97352 0
M  V30 4002 H 384.441 1.18903 4.70096 0
M  V30 4003 N 385.784 -1.5574 0.241426 0
M  V30 4004 C 386.731 -2.21149 -0.660432 0
M  V30 4005 C 387.701 -1.17356 -1.17545 0
M  V30 4006 O 388.886 -1.45784 -1.23093 0
M  V30 4007 C 386.026 -2.91059 -1.85414 0
M  V30 4008 C 385.139 -4.09495 -1.37616 0
M  V30 4009 C 384.274 -4.67135 -2.529 0
M  V30 4010 C 383.313 -5.77831 -2.01936 0
M  V30 4011 N 382.45 -6.29677 -3.10566 0
M  V30 4012 H 387.29 -2.97845 -0.095955 0
M  V30 4013 H 384.827 -1.47057 -0.0356024 0
M  V30 4014 H 386.785 -3.29788 -2.5553 0
M  V30 4015 H 385.415 -2.16846 -2.39118 0
M  V30 4016 H 384.467 -3.76117 -0.569235 0
M  V30 4017 H 385.779 -4.89423 -0.962618 0
M  V30 4018 H 384.933 -5.08409 -3.31067 0
M  V30 4019 H 383.672 -3.86411 -2.97553 0
M  V30 4020 H 382.677 -5.36039 -1.22238 0
M  V30 4021 H 383.902 -6.60402 -1.58259 0
M  V30 4022 H 381.848 -5.5186 -3.54664 0
M  V30 4023 H 381.765 -7.04783 -2.73526 0
M  V30 4024 H 383.033 -6.75609 -3.88809 0
M  V30 4025 N 387.262 0.0317525 -1.57568 0
M  V30 4026 C 388.225 1.01783 -2.0536 0
M  V30 4027 C 389.225 1.29203 -0.957253 0
M  V30 4028 O 390.415 1.24251 -1.22095 0
M  V30 4029 C 387.547 2.35137 -2.46827 0
M  V30 4030 H 388.74 0.605062 -2.93733 0
M  V30 4031 H 386.293 0.278514 -1.53799 0
M  V30 4032 H 387.028 2.81168 -1.61602 0
M  V30 4033 H 386.813 2.16566 -3.26866 0
M  V30 4034 H 388.303 3.05938 -2.84239 0
M  V30 4035 N 388.74 1.54641 0.303973 0
M  V30 4036 C 389.703 1.84646 1.35789 0
M  V30 4037 C 390.703 0.7192 1.4382 0
M  V30 4038 O 391.893 0.987491 1.43507 0
M  V30 4039 C 389.025 2.02407 2.74307 0
M  V30 4040 H 390.218 2.78829 1.10429 0
M  V30 4041 H 387.771 1.46658 0.540487 0
M  V30 4042 H 388.506 1.10502 3.04893 0
M  V30 4043 H 388.291 2.84453 2.69868 0
M  V30 4044 H 389.781 2.27002 3.50514 0
M  V30 4045 N 390.218 -0.567019 1.47046 0
M  V30 4046 C 391.181 -1.65696 1.58359 0
M  V30 4047 C 392.181 -1.54097 0.459441 0
M  V30 4048 O 393.371 -1.58432 0.724225 0
M  V30 4049 C 390.503 -3.05197 1.51879 0
M  V30 4050 H 391.696 -1.57019 2.5551 0
M  V30 4051 H 389.249 -0.786148 1.3509 0
M  V30 4052 H 389.984 -3.19417 0.560673 0
M  V30 4053 H 389.769 -3.15025 2.33455 0
M  V30 4054 H 391.259 -3.84511 1.62913 0
M  V30 4055 N 391.696 -1.35014 -0.812953 0
M  V30 4056 C 392.606 -1.2951 -1.95613 0
M  V30 4057 C 393.622 -0.20107 -1.72834 0
M  V30 4058 O 394.798 -0.42932 -1.96771 0
M  V30 4059 C 391.863 -1.06033 -3.30088 0
M  V30 4060 C 390.924 -2.24688 -3.65805 0
M  V30 4061 C 390.157 -2.02322 -4.93864 0
M  V30 4062 O 390.38 -0.986464 -5.61805 0
M  V30 4063 O 389.314 -2.89525 -5.27692 0
M  V30 4064 H 393.14 -2.25705 -2.03202 0
M  V30 4065 H 390.725 -1.15321 -0.949811 0
M  V30 4066 H 392.607 -0.94763 -4.10607 0
M  V30 4067 H 391.282 -0.128852 -3.23443 0
M  V30 4068 H 390.189 -2.41521 -2.85689 0
M  V30 4069 H 391.522 -3.16261 -3.77147 0
M  V30 4070 N 393.175 1.03435 -1.18907 0
M  V30 4071 C 394.423 1.76394 -0.986382 0
M  V30 4072 C 394.744 1.88883 0.484567 0
M  V30 4073 O 394.014 1.41843 1.3512 0
M  V30 4074 H 392.594 0.65344 -0.361975 0
M  V30 4075 H 395.256 1.248 -1.49703 0
M  V30 4076 H 394.352 2.77424 -1.42978 0
M  V30 4077 N 394.653 0.992116 1.22453 0
M  V30 4078 C 395.563 0.55065 2.28046 0
M  V30 4079 C 396.579 -0.400189 1.69335 0
M  V30 4080 O 397.755 -0.267215 1.99619 0
M  V30 4081 C 394.82 -0.128496 3.46462 0
M  V30 4082 C 393.881 0.865208 4.20491 0
M  V30 4083 C 393.114 0.218377 5.33253 0
M  V30 4084 O 393.337 -0.987894 5.6178 0
M  V30 4085 O 392.271 0.922845 5.94783 0
M  V30 4086 H 396.097 1.4291 2.67975 0
M  V30 4087 H 393.682 0.760326 1.28606 0
M  V30 4088 H 395.564 -0.508947 4.18315 0
M  V30 4089 H 394.239 -0.981526 3.0846 0
M  V30 4090 H 393.146 1.29658 3.50913 0
M  V30 4091 H 394.479 1.68741 4.62371 0
M  V30 4092 N 396.131 -1.37776 0.765217 0
M  V30 4093 C 397.061 -2.32945 0.160953 0
M  V30 4094 C 398.042 -1.55454 -0.690516 0
M  V30 4095 O 399.227 -1.83721 -0.629318 0
M  V30 4096 C 396.357 -3.39669 -0.724031 0
M  V30 4097 C 395.311 -4.27992 0.0256173 0
M  V30 4098 C 394.637 -5.25673 -0.978383 0
M  V30 4099 C 395.937 -5.08309 1.20082 0
M  V30 4100 H 397.631 -2.83728 0.955969 0
M  V30 4101 H 395.177 -1.36416 0.461149 0
M  V30 4102 H 397.13 -4.05219 -1.15652 0
M  V30 4103 H 395.854 -2.87396 -1.5515 0
M  V30 4104 H 394.513 -3.63964 0.438812 0
M  V30 4105 H 394.161 -4.69682 -1.80022 0
M  V30 4106 H 393.861 -5.85625 -0.481378 0
M  V30 4107 H 395.385 -5.94098 -1.40995 0
M  V30 4108 H 396.799 -5.67034 0.845307 0
M  V30 4109 H 395.196 -5.77554 1.62947 0
M  V30 4110 H 396.266 -4.41365 2.00811 0
M  V30 4111 N 397.609 -0.515225 -1.4894 0
M  V30 4112 C 398.556 0.255567 -2.29381 0
M  V30 4113 C 399.526 0.947387 -1.36432 0
M  V30 4114 O 400.711 0.951288 -1.65394 0
M  V30 4115 C 397.851 1.30551 -3.19453 0
M  V30 4116 C 396.964 0.624029 -4.27469 0
M  V30 4117 C 396.099 1.65563 -5.0474 0
M  V30 4118 C 395.138 0.956802 -6.04576 0
M  V30 4119 N 394.275 1.93326 -6.74959 0
M  V30 4120 H 399.115 -0.436607 -2.94784 0
M  V30 4121 H 396.652 -0.227154 -1.45336 0
M  V30 4122 H 398.61 1.92639 -3.70062 0
M  V30 4123 H 397.24 1.96626 -2.56004 0
M  V30 4124 H 396.292 -0.110459 -3.8024 0
M  V30 4125 H 397.604 0.0746092 -4.98744 0
M  V30 4126 H 396.758 2.35119 -5.59289 0
M  V30 4127 H 395.497 2.23893 -4.3327 0
M  V30 4128 H 394.502 0.247097 -5.49244 0
M  V30 4129 H 395.727 0.379814 -6.78037 0
M  V30 4130 H 393.673 2.50591 -6.06251 0
M  V30 4131 H 393.59 1.43489 -7.42258 0
M  V30 4132 H 394.858 2.62126 -7.34105 0
M  V30 4133 N 399.087 1.5561 -0.249682 0
M  V30 4134 C 400.335 1.98618 0.373548 0
M  V30 4135 C 400.656 1.13919 1.58264 0
M  V30 4136 O 399.926 0.222637 1.94631 0
M  V30 4137 H 398.506 0.733571 0.141006 0
M  V30 4138 H 401.168 1.91748 -0.349117 0
M  V30 4139 H 400.264 3.04584 0.680796 0
M  V30 4140 N 400.565 -0.0233959 1.57583 0
M  V30 4141 C 401.814 -0.712133 1.8871 0
M  V30 4142 C 402.127 -1.76217 0.848944 0
M  V30 4143 O 403.333 -2.50389 1.04964 0
M  V30 4144 C 401.789 -1.3177 3.3491 0
M  V30 4145 C 401.397 -0.303715 4.46969 0
M  V30 4146 C 403.141 -1.98598 3.75179 0
M  V30 4147 C 401.048 -0.917945 5.84233 0
M  V30 4148 H 399.978 -0.269735 0.704101 0
M  V30 4149 H 402.629 0.0333114 1.8347 0
M  V30 4150 H 401.011 -2.11304 3.34913 0
M  V30 4151 H 402.185 0.465325 4.58445 0
M  V30 4152 H 400.5 0.2628 4.1557 0
M  V30 4153 H 403.097 -2.45416 4.75053 0
M  V30 4154 H 403.44 -2.80659 3.07468 0
M  V30 4155 H 403.973 -1.25831 3.77374 0
M  V30 4156 H 400.712 -0.136633 6.55358 0
M  V30 4157 H 400.232 -1.65669 5.76467 0
M  V30 4158 H 401.911 -1.4236 6.31144 0
M  V30 4159 N 402.043 -1.548 -0.295768 0
M  V30 4160 C 402.973 -1.89115 -1.36959 0
M  V30 4161 C 403.954 -0.75059 -1.52644 0
M  V30 4162 O 405.139 -1.00678 -1.66065 0
M  V30 4163 C 402.269 -2.14307 -2.73295 0
M  V30 4164 C 401.223 -3.30151 -2.72368 0
M  V30 4165 C 400.549 -3.40772 -4.12042 0
M  V30 4166 C 401.849 -4.67126 -2.33646 0
M  V30 4167 H 403.543 -2.79053 -1.08488 0
M  V30 4168 H 401.089 -1.34266 -0.520443 0
M  V30 4169 H 403.042 -2.36898 -3.48507 0
M  V30 4170 H 401.766 -1.21145 -3.03301 0
M  V30 4171 H 400.425 -3.0749 -1.99613 0
M  V30 4172 H 400.073 -2.45117 -4.39234 0
M  V30 4173 H 399.773 -4.18645 -4.12322 0
M  V30 4174 H 401.297 -3.6563 -4.89027 0
M  V30 4175 H 402.711 -4.89414 -2.98575 0
M  V30 4176 H 401.108 -5.47751 -2.45129 0
M  V30 4177 H 402.178 -4.67489 -1.28772 0
M  V30 4178 N 403.521 0.559213 -1.47345 0
M  V30 4179 C 404.484 1.64854 -1.59235 0
M  V30 4180 C 405.484 1.53851 -0.467607 0
M  V30 4181 O 406.674 1.58045 -0.732617 0
M  V30 4182 C 403.806 3.04388 -1.53496 0
M  V30 4183 H 404.999 1.55662 -2.56339 0
M  V30 4184 H 402.552 0.778973 -1.35505 0
M  V30 4185 H 403.287 3.19115 -0.577604 0
M  V30 4186 H 403.072 3.13783 -2.35123 0
M  V30 4187 H 404.562 3.83642 -1.6495 0
M  V30 4188 N 404.999 1.35443 0.805782 0
M  V30 4189 C 406.229 1.31687 1.59192 0
M  V30 4190 C 406.637 -0.10756 1.88894 0
M  V30 4191 O 405.98 -1.07017 1.49309 0
M  V30 4192 C 406.042 2.05686 2.94845 0
M  V30 4193 C 405.706 3.54868 2.87954 0
M  V30 4194 C 406.703 4.49444 2.61335 0
M  V30 4195 C 404.388 3.97528 3.07046 0
M  V30 4196 C 406.382 5.84655 2.53885 0
M  V30 4197 C 404.069 5.32833 2.99219 0
M  V30 4198 C 405.067 6.26209 2.72674 0
M  V30 4199 O 404.755 7.59032 2.64811 0
M  V30 4200 H 404.487 0.453878 0.50097 0
M  V30 4201 H 407.041 1.78892 1.0093 0
M  V30 4202 H 405.271 1.5312 3.55093 0
M  V30 4203 H 406.96 1.94998 3.55993 0
M  V30 4204 H 407.726 4.17804 2.46303 0
M  V30 4205 H 403.605 3.25233 3.26718 0
M  V30 4206 H 407.149 6.57508 2.33086 0
M  V30 4207 H 403.046 5.64087 3.13809 0
M  V30 4208 H 403.814 7.68967 2.80413 0
M  V30 4209 N 406.477 -1.02803 1.19454 0
M  V30 4210 C 407.702 -1.80378 1.02364 0
M  V30 4211 C 408.127 -1.83282 -0.423007 0
M  V30 4212 O 407.485 -1.25945 -1.30413 0
M  V30 4213 C 407.533 -3.23248 1.59821 0
M  V30 4214 O 406.637 -4.04 0.828105 0
M  V30 4215 H 405.978 -0.556799 0.361761 0
M  V30 4216 H 408.508 -1.29385 1.58495 0
M  V30 4217 H 408.518 -3.73994 1.63073 0
M  V30 4218 H 407.193 -3.2045 2.65113 0
M  V30 4219 H 405.77 -3.62635 0.86891 0
M  V30 4220 N 407.956 -0.998596 -1.21925 0
M  V30 4221 C 408.866 -0.562736 -2.27751 0
M  V30 4222 C 409.882 0.391203 -1.69545 0
M  V30 4223 O 411.058 0.256625 -1.99758 0
M  V30 4224 C 408.123 0.11012 -3.46525 0
M  V30 4225 C 407.184 -0.887495 -4.20026 0
M  V30 4226 C 406.417 -0.246654 -5.3313 0
M  V30 4227 O 406.64 0.958088 -5.62296 0
M  V30 4228 O 405.574 -0.954374 -5.94286 0
M  V30 4229 H 409.4 -1.44329 -2.67213 0
M  V30 4230 H 406.985 -0.767135 -1.28201 0
M  V30 4231 H 408.867 0.486756 -4.18579 0
M  V30 4232 H 407.542 0.965154 -3.08976 0
M  V30 4233 H 406.449 -1.31517 -3.5022 0
M  V30 4234 H 407.782 -1.71191 -4.6147 0
M  V30 4235 N 409.434 1.37368 -0.772513 0
M  V30 4236 C 410.344 2.34053 -0.160081 0
M  V30 4237 C 411.36 1.60216 0.678728 0
M  V30 4238 O 412.536 1.92303 0.59847 0
M  V30 4239 C 409.601 3.3939 0.708182 0
M  V30 4240 C 408.662 4.29048 -0.147172 0
M  V30 4241 C 407.895 5.29354 0.679744 0
M  V30 4242 O 408.118 5.3723 1.91678 0
M  V30 4243 O 407.052 6.01835 0.0885444 0
M  V30 4244 H 410.878 2.88159 -0.959053 0
M  V30 4245 H 408.463 1.39543 -0.533685 0
M  V30 4246 H 410.345 4.03839 1.20384 0
M  V30 4247 H 409.02 2.8761 1.48533 0
M  V30 4248 H 407.927 3.67697 -0.689205 0
M  V30 4249 H 409.26 4.84134 -0.887423 0
M  V30 4250 N 410.912 0.523116 1.48665 0
M  V30 4251 C 412.323 0.0808997 1.86525 0
M  V30 4252 C 412.674 -1.33975 1.43336 0
M  V30 4253 O 411.799 -2.00221 0.821009 0
M  V30 4254 C 412.394 0.140037 3.3851 0
M  V30 4255 C 410.953 -0.246948 3.75589 0
M  V30 4256 C 410.1 0.502845 2.72703 0
M  V30 4257 H 413.051 0.734736 1.40667 0
M  V30 4258 H 413.072 -0.649945 3.74908 0
M  V30 4259 H 412.584 1.17412 3.69914 0
M  V30 4260 H 410.685 -1.28343 3.49798 0
M  V30 4261 H 410.798 0.0878859 4.79019 0
M  V30 4262 H 409.162 -0.0500581 2.54651 0
M  V30 4263 H 409.945 1.53743 3.0695 0
M  V30 4264 N 412.39 -1.55475 0.257931 0
M  V30 4265 C 413.32 -2.24815 -0.630912 0
M  V30 4266 C 414.301 -1.23224 -1.17259 0
M  V30 4267 O 415.486 -1.51904 -1.20991 0
M  V30 4268 C 412.616 -2.95609 -1.82298 0
M  V30 4269 C 411.57 -4.03982 -1.41359 0
M  V30 4270 C 410.896 -4.6226 -2.68738 0
M  V30 4271 C 412.196 -5.19109 -0.57648 0
M  V30 4272 H 413.89 -2.99354 -0.0526878 0
M  V30 4273 H 411.436 -1.4398 -0.023901 0
M  V30 4274 H 413.389 -3.42822 -2.45054 0
M  V30 4275 H 412.113 -2.18577 -2.42676 0
M  V30 4276 H 410.772 -3.57555 -0.809324 0
M  V30 4277 H 410.42 -3.81915 -3.27338 0
M  V30 4278 H 410.12 -5.35424 -2.42065 0
M  V30 4279 H 411.644 -5.12212 -3.32372 0
M  V30 4280 H 413.058 -5.62479 -1.10861 0
M  V30 4281 H 411.455 -5.98729 -0.405351 0
M  V30 4282 H 412.525 -4.83174 0.408776 0
M  V30 4283 N 413.868 0.0150385 -1.57593 0
M  V30 4284 C 415.114 0.704043 -1.90187 0
M  V30 4285 C 415.447 1.74249 -0.857366 0
M  V30 4286 O 414.722 1.94092 0.125843 0
M  V30 4287 C 415.005 1.36087 -3.33395 0
M  V30 4288 C 414.858 0.334981 -4.48551 0
M  V30 4289 C 416.177 2.29112 -3.7576 0
M  V30 4290 H 413.296 0.254475 -0.691673 0
M  V30 4291 H 415.938 -0.0331678 -1.89971 0
M  V30 4292 H 414.088 1.98922 -3.3371 0
M  V30 4293 H 415.76 -0.292534 -4.60372 0
M  V30 4294 H 414.003 -0.344325 -4.32431 0
M  V30 4295 H 414.674 0.833316 -5.45674 0
M  V30 4296 H 417.15 1.76308 -3.76902 0
M  V30 4297 H 416.026 2.72043 -4.76743 0
M  V30 4298 H 416.287 3.16385 -3.08793 0
M  V30 4299 N 415.346 1.54954 0.287554 0
M  V30 4300 C 416.571 1.79209 1.04397 0
M  V30 4301 C 416.996 0.556431 1.79682 0
M  V30 4302 O 416.354 -0.493518 1.74454 0
M  V30 4303 C 416.402 3.00739 1.98969 0
M  V30 4304 O 415.506 2.74805 3.075 0
M  V30 4305 H 414.847 0.592755 0.299227 0
M  V30 4306 H 417.377 2.02068 0.320886 0
M  V30 4307 H 417.387 3.29077 2.4119 0
M  V30 4308 H 416.062 3.90329 1.43582 0
M  V30 4309 H 414.639 2.57523 2.69697 0
M  V30 4310 N 416.824 -0.551391 1.4764 0
M  V30 4311 C 418.24 -0.877887 1.33287 0
M  V30 4312 C 418.44 -1.98817 0.327721 0
M  V30 4313 O 417.496 -2.51171 -0.258695 0
M  V30 4314 C 418.809 -1.26563 2.72768 0
M  V30 4315 C 420.357 -1.37673 2.81097 0
M  V30 4316 C 420.832 -1.79799 4.21232 0
M  V30 4317 N 422.323 -1.8694 4.23802 0
M  V30 4318 C 423.058 -2.20876 5.29151 0
M  V30 4319 N 422.554 -2.53386 6.448 0
M  V30 4320 N 424.347 -2.217 5.16532 0
M  V30 4321 H 416.498 0.18153 2.11623 0
M  V30 4322 H 418.761 0.0185514 0.947818 0
M  V30 4323 H 418.467 -0.523591 3.47781 0
M  V30 4324 H 418.341 -2.22052 3.04915 0
M  V30 4325 H 420.728 -2.10956 2.06353 0
M  V30 4326 H 420.809 -0.40357 2.52596 0
M  V30 4327 H 420.453 -1.07083 4.96483 0
M  V30 4328 H 420.383 -2.78128 4.4716 0
M  V30 4329 H 422.874 -1.64179 3.40373 0
M  V30 4330 H 423.187 -2.78325 7.20941 0
M  V30 4331 H 421.532 -2.50953 6.48111 0
M  V30 4332 H 424.723 -1.95745 4.25207 0
M  V30 4333 H 424.896 -2.47818 5.98741 0
M  V30 4334 N 418.302 -1.35869 -0.798587 0
M  V30 4335 C 419.579 -1.20145 -1.54352 0
M  V30 4336 C 419.959 0.216161 -2.0999 0
M  V30 4337 O 419.307 1.22068 -1.93162 0
M  V30 4338 C 419.517 -2.27602 -2.64572 0
M  V30 4339 C 420.865 -2.63811 -3.32699 0
M  V30 4340 O 421.889 -2.26576 -2.74849 0
M  V30 4341 O 420.748 -3.27866 -4.37226 0
M  V30 4342 H 417.842 -0.467248 -0.682355 0
M  V30 4343 H 420.388 -1.47574 -0.837859 0
M  V30 4344 H 419.16 -3.2265 -2.21388 0
M  V30 4345 H 418.783 -2.01488 -3.42766 0
M  V30 4346 N 419.78 1.02168 -1.19998 0
M  V30 4347 C 421.01 1.79036 -1.031 0
M  V30 4348 C 421.418 1.84409 0.423078 0
M  V30 4349 O 420.761 1.29228 1.30559 0
M  V30 4350 C 420.823 3.25185 -1.53281 0
M  V30 4351 C 420.487 3.43431 -3.01503 0
M  V30 4352 C 421.484 3.33063 -3.99206 0
M  V30 4353 C 419.169 3.69412 -3.40353 0
M  V30 4354 C 421.163 3.48413 -5.33748 0
M  V30 4355 C 418.85 3.84406 -4.75053 0
M  V30 4356 C 419.848 3.7391 -5.71559 0
M  V30 4357 O 419.536 3.88452 -7.03818 0
M  V30 4358 H 419.268 0.570043 -0.363355 0
M  V30 4359 H 421.822 1.29524 -1.59414 0
M  V30 4360 H 420.052 3.75756 -0.913483 0
M  V30 4361 H 421.741 3.83671 -1.32481 0
M  V30 4362 H 422.507 3.12934 -3.70537 0
M  V30 4363 H 418.386 3.76671 -2.65782 0
M  V30 4364 H 421.93 3.40137 -6.09059 0
M  V30 4365 H 417.827 4.04035 -5.03415 0
M  V30 4366 H 418.595 4.055 -7.10993 0
M  V30 4367 N 421.258 1.00505 1.21394 0
M  V30 4368 C 422.206 0.558623 2.25792 0
M  V30 4369 C 423.2 -0.396848 1.64686 0
M  V30 4370 O 424.406 -0.268035 1.77993 0
M  V30 4371 H 420.781 0.1623 0.734277 0
M  V30 4372 H 422.752 1.4503 2.60785 0
M  V30 4373 C 421.501 -0.0989574 3.47559 0
M  V30 4374 H 420.824 0.627225 3.94849 0
M  V30 4375 H 422.264 -0.3746 4.22342 0
M  V30 4376 C 420.723 -1.33817 3.09184 0
M  V30 4377 O 421.253 -2.43252 3.19674 0
M  V30 4378 N 419.459 -1.21793 2.63846 0
M  V30 4379 H 419.006 -0.32746 2.5551 0
M  V30 4380 H 418.964 -2.04809 2.38539 0
M  V30 4381 N 422.737 -1.36956 0.779787 0
M  V30 4382 C 423.985 -1.99097 0.347079 0
M  V30 4383 C 424.306 -1.62206 -1.08232 0
M  V30 4384 O 423.576 -0.891373 -1.74446 0
M  V30 4385 H 422.156 -0.736409 0.125342 0
M  V30 4386 H 424.818 -1.67308 0.999696 0
M  V30 4387 H 423.914 -3.09107 0.431162 0
M  V30 4388 N 424.215 -0.530993 -1.48385 0
M  V30 4389 C 425.44 0.000729535 -2.074 0
M  V30 4390 C 425.865 1.27298 -1.3848 0
M  V30 4391 O 425.223 1.75599 -0.451081 0
M  V30 4392 C 425.271 0.206697 -3.60007 0
M  V30 4393 O 424.375 1.27514 -3.92191 0
M  V30 4394 H 423.716 -0.039583 -0.662819 0
M  V30 4395 H 426.246 -0.739194 -1.9078 0
M  V30 4396 H 426.256 0.42904 -4.05738 0
M  V30 4397 H 424.931 -0.722675 -4.09573 0
M  V30 4398 H 423.508 1.03537 -3.58238 0
M  V30 4399 N 425.693 1.55336 -0.266172 0
M  V30 4400 C 426.921 2.03801 0.356756 0
M  V30 4401 C 427.336 1.14485 1.50129 0
M  V30 4402 O 426.693 0.163121 1.8177 0
M  V30 4403 C 426.744 3.51455 0.846281 0
M  V30 4404 O 426.465 4.37371 -0.252663 0
M  V30 4405 C 427.966 4.15767 1.53794 0
M  V30 4406 H 425.186 0.665906 0.0825218 0
M  V30 4407 H 427.73 2.00636 -0.39566 0
M  V30 4408 H 425.885 3.55092 1.54881 0
M  V30 4409 H 426.299 5.24358 0.122173 0
M  V30 4410 H 427.773 5.20714 1.83198 0
M  V30 4411 H 428.25 3.63404 2.46646 0
M  V30 4412 H 428.856 4.16107 0.879488 0
M  V30 4413 N 427.171 -0.0066808 1.57599 0
M  V30 4414 C 428.417 -0.693947 1.90558 0
M  V30 4415 C 428.75 -1.73792 0.866594 0
M  V30 4416 O 428.025 -1.94156 -0.115548 0
M  V30 4417 C 428.308 -1.34317 3.34112 0
M  V30 4418 C 428.161 -0.311189 4.48722 0
M  V30 4419 C 429.48 -2.27116 3.7697 0
M  V30 4420 H 426.599 -0.250803 0.693013 0
M  V30 4421 H 429.241 0.043242 1.89951 0
M  V30 4422 H 427.391 -1.9715 3.3476 0
M  V30 4423 H 429.063 0.316944 4.6021 0
M  V30 4424 H 427.306 0.367253 4.32243 0
M  V30 4425 H 427.977 -0.804366 5.46108 0
M  V30 4426 H 430.453 -1.74306 3.77831 0
M  V30 4427 H 429.329 -2.69511 4.78179 0
M  V30 4428 H 429.59 -3.14743 3.10466 0
M  V30 4429 N 428.649 -1.55105 -0.279332 0
M  V30 4430 C 429.874 -1.7976 -1.03446 0
M  V30 4431 C 430.299 -0.565952 -1.79384 0
M  V30 4432 O 429.657 0.484259 -1.74713 0
M  V30 4433 C 429.705 -3.0179 -1.97371 0
M  V30 4434 O 428.809 -2.76432 -3.06038 0
M  V30 4435 H 428.15 -0.594334 -0.29608 0
M  V30 4436 H 430.68 -2.02235 -0.310165 0
M  V30 4437 H 430.69 -3.30351 -2.39441 0
M  V30 4438 H 429.365 -3.91085 -1.4151 0
M  V30 4439 H 427.942 -2.58949 -2.68328 0
M  V30 4440 N 430.127 0.543554 -1.4793 0
M  V30 4441 C 431.352 1.32995 -1.59145 0
M  V30 4442 C 431.777 1.86472 -0.246956 0
M  V30 4443 O 431.135 1.63696 0.779324 0
M  V30 4444 C 431.183 2.46623 -2.63077 0
M  V30 4445 O 430.287 3.49261 -2.19295 0
M  V30 4446 H 429.628 0.394472 -0.534124 0
M  V30 4447 H 432.158 0.655489 -1.93816 0
M  V30 4448 H 432.168 2.93001 -2.83926 0
M  V30 4449 H 430.843 2.07059 -3.60693 0
M  V30 4450 H 429.42 3.09094 -2.08603 0
M  V30 4451 N 431.605 1.3629 0.791371 0
M  V30 4452 C 432.833 1.33562 1.58016 0
M  V30 4453 C 433.248 -0.0835616 1.88615 0
M  V30 4454 O 432.605 -1.0399 1.49974 0
M  V30 4455 C 432.656 2.15517 2.90232 0
M  V30 4456 O 432.377 3.51902 2.60953 0
M  V30 4457 C 433.878 2.20546 3.84544 0
M  V30 4458 H 431.098 0.458226 0.490173 0
M  V30 4459 H 433.642 1.79361 0.982345 0
M  V30 4460 H 431.797 1.73278 3.46487 0
M  V30 4461 H 432.211 3.94644 3.4548 0
M  V30 4462 H 433.685 2.82252 4.74382 0
M  V30 4463 H 434.162 1.20838 4.2225 0
M  V30 4464 H 434.768 2.63013 3.34222 0
M  V30 4465 N 433.083 -1.0153 1.20538 0
M  V30 4466 C 434.332 -1.74558 1.01057 0
M  V30 4467 C 434.645 -1.90168 -0.457756 0
M  V30 4468 O 435.851 -2.60301 -0.771722 0
M  V30 4469 C 434.307 -3.13963 1.75941 0
M  V30 4470 C 433.915 -3.06361 3.26875 0
M  V30 4471 C 435.659 -3.91191 1.64832 0
M  V30 4472 C 433.566 -4.40782 3.94291 0
M  V30 4473 H 432.496 -0.654417 0.374505 0
M  V30 4474 H 435.147 -1.13521 1.44171 0
M  V30 4475 H 433.529 -3.75549 1.25614 0
M  V30 4476 H 434.703 -2.54074 3.84425 0
M  V30 4477 H 433.018 -2.42625 3.38411 0
M  V30 4478 H 435.615 -4.90644 2.12539 0
M  V30 4479 H 435.958 -4.11884 0.604745 0
M  V30 4480 H 436.491 -3.36236 2.12579 0
M  V30 4481 H 433.23 -4.25292 4.98805 0
M  V30 4482 H 432.75 -4.9307 3.41529 0
M  V30 4483 H 434.429 -5.09621 3.98617 0
M  V30 4484 N 434.561 -1.01147 -1.20859 0
M  V30 4485 C 435.838 -0.613136 -1.85742 0
M  V30 4486 C 436.218 0.909004 -1.90526 0
M  V30 4487 O 435.566 1.79862 -1.40932 0
M  V30 4488 C 435.776 -1.255 -3.25654 0
M  V30 4489 C 437.124 -1.3672 -4.01986 0
M  V30 4490 O 438.148 -1.21082 -3.34989 0
M  V30 4491 O 437.007 -1.6194 -5.21956 0
M  V30 4492 H 434.101 -0.210878 -0.799662 0
M  V30 4493 H 436.647 -1.10853 -1.2849 0
M  V30 4494 H 435.419 -2.29532 -3.16908 0
M  V30 4495 H 435.042 -0.746369 -3.90532 0
M  V30 4496 N 436.039 1.36541 -0.78704 0
M  V30 4497 C 437.002 2.28413 -0.189778 0
M  V30 4498 C 438.002 1.48719 0.611499 0
M  V30 4499 O 439.192 1.68737 0.432842 0
M  V30 4500 C 436.324 3.32824 0.737638 0
M  V30 4501 H 437.517 2.82743 -0.999831 0
M  V30 4502 H 435.07 1.46065 -0.556298 0
M  V30 4503 H 435.805 2.83646 1.57212 0
M  V30 4504 H 435.59 3.91752 0.165044 0
M  V30 4505 H 437.08 4.0144 1.15047 0
M  V30 4506 N 437.518 0.538854 1.48102 0
M  V30 4507 C 438.448 -0.207654 2.32575 0
M  V30 4508 C 439.429 -0.926559 1.4265 0
M  V30 4509 O 440.614 -0.91061 1.71527 0
M  V30 4510 C 437.744 -1.24957 3.24042 0
M  V30 4511 C 436.698 -0.648263 4.23062 0
M  V30 4512 C 436.024 -1.79348 5.03725 0
M  V30 4513 C 437.324 0.385897 5.20872 0
M  V30 4514 H 439.018 0.497534 2.95237 0
M  V30 4515 H 436.564 0.240715 1.41974 0
M  V30 4516 H 438.517 -1.77983 3.81969 0
M  V30 4517 H 437.241 -1.98446 2.59397 0
M  V30 4518 H 435.9 -0.139452 3.66335 0
M  V30 4519 H 435.548 -2.51696 4.35498 0
M  V30 4520 H 435.248 -1.39702 5.70751 0
M  V30 4521 H 436.772 -2.32735 5.64506 0
M  V30 4522 H 438.186 -0.057607 5.73271 0
M  V30 4523 H 436.583 0.700227 5.96001 0
M  V30 4524 H 437.653 1.28848 4.67468 0
M  V30 4525 N 438.996 -1.55193 0.274407 0
M  V30 4526 C 440.221 -2.04446 -0.348824 0
M  V30 4527 C 440.646 -1.15149 -1.48735 0
M  V30 4528 O 440.004 -0.149952 -1.80679 0
M  V30 4529 C 440.052 -3.51431 -0.808009 0
M  V30 4530 O 439.156 -3.65225 -1.91531 0
M  V30 4531 H 438.497 -0.66006 -0.0722276 0
M  V30 4532 H 441.027 -2.00481 0.408498 0
M  V30 4533 H 441.037 -3.92781 -1.10395 0
M  V30 4534 H 439.712 -4.15892 0.0249865 0
M  V30 4535 H 438.289 -3.35778 -1.62196 0
M  V30 4536 N 440.474 -0.00167713 -1.576 0
M  V30 4537 C 441.702 0.693759 -1.94922 0
M  V30 4538 C 442.117 1.67215 -0.876626 0
M  V30 4539 O 441.474 1.81929 0.144279 0
M  V30 4540 C 441.525 1.42416 -3.32265 0
M  V30 4541 O 441.246 0.485014 -4.35407 0
M  V30 4542 C 442.747 2.21395 -3.84056 0
M  V30 4543 H 439.967 0.193118 -0.642609 0
M  V30 4544 H 442.511 -0.0532952 -2.04431 0
M  V30 4545 H 440.666 2.12284 -3.24059 0
M  V30 4546 H 441.08 1.00053 -5.14868 0
M  V30 4547 H 442.554 2.67996 -4.82578 0
M  V30 4548 H 443.031 3.04142 -3.16851 0
M  V30 4549 H 443.637 1.56542 -3.95443 0
M  V30 4550 N 441.952 1.55251 0.271103 0
M  V30 4551 C 442.885 1.83191 1.36075 0
M  V30 4552 C 443.863 0.685091 1.47463 0
M  V30 4553 O 445.047 0.928292 1.64058 0
M  V30 4554 C 442.174 1.99521 2.73696 0
M  V30 4555 C 441.22 3.22081 2.79582 0
M  V30 4556 S 442.053 4.79388 2.38636 0
M  V30 4557 C 443.209 4.98693 3.78228 0
M  V30 4558 H 443.442 2.75327 1.12171 0
M  V30 4559 H 440.975 1.47046 0.470833 0
M  V30 4560 H 442.933 2.09613 3.52948 0
M  V30 4561 H 441.594 1.0827 2.9485 0
M  V30 4562 H 440.787 3.304 3.80594 0
M  V30 4563 H 440.389 3.10589 2.08352 0
M  V30 4564 H 442.681 4.84551 4.73515 0
M  V30 4565 H 443.624 6.00738 3.7486 0
M  V30 4566 H 444.032 4.26665 3.69618 0
M  V30 4567 N 443.43 -0.535701 1.48216 0
M  V30 4568 C 444.676 -1.29375 1.56173 0
M  V30 4569 C 445.009 -1.92804 0.232429 0
M  V30 4570 O 444.284 -1.78992 -0.761048 0
M  V30 4571 C 444.567 -2.38747 2.69577 0
M  V30 4572 C 444.42 -1.80046 4.12193 0
M  V30 4573 C 445.739 -3.40551 2.78771 0
M  V30 4574 H 442.858 -0.469027 0.568491 0
M  V30 4575 H 445.5 -0.597358 1.80365 0
M  V30 4576 H 443.65 -2.98147 2.4908 0
M  V30 4577 H 445.322 -1.24742 4.44114 0
M  V30 4578 H 443.565 -1.10609 4.19462 0
M  V30 4579 H 444.236 -2.59212 4.87353 0
M  V30 4580 H 446.712 -2.91099 2.97322 0
M  V30 4581 H 445.588 -4.1448 3.59857 0
M  V30 4582 H 445.849 -4.00746 1.86696 0
M  V30 4583 N 444.908 -1.36708 -0.784132 0
M  V30 4584 C 446.157 -1.30559 -1.53744 0
M  V30 4585 C 446.47 0.111374 -1.95283 0
M  V30 4586 O 447.676 0.29527 -2.6989 0
M  V30 4587 C 446.132 -2.29098 -2.77565 0
M  V30 4588 C 445.74 -3.76258 -2.43174 0
M  V30 4589 C 447.484 -2.31936 -3.55536 0
M  V30 4590 C 445.391 -4.6656 -3.63422 0
M  V30 4591 H 444.321 -0.48518 -0.577162 0
M  V30 4592 H 446.972 -1.62101 -0.859981 0
M  V30 4593 H 445.354 -1.90557 -3.47137 0
M  V30 4594 H 446.528 -4.23565 -1.81465 0
M  V30 4595 H 444.843 -3.76246 -1.78403 0
M  V30 4596 H 447.44 -2.9661 -4.44889 0
M  V30 4597 H 447.783 -1.3294 -3.94503 0
M  V30 4598 H 448.316 -2.6912 -2.92949 0
M  V30 4599 H 445.055 -5.66638 -3.29547 0
M  V30 4600 H 444.575 -4.23966 -4.24279 0
M  V30 4601 H 446.254 -4.8309 -4.30387 0
M  V30 4602 N 446.386 1.0089 -1.21074 0
M  V30 4603 C 447.663 1.71834 -0.934469 0
M  V30 4604 C 448.043 2.0368 0.554753 0
M  V30 4605 O 447.391 1.70742 1.51854 0
M  V30 4606 C 447.601 2.98061 -1.8155 0
M  V30 4607 C 448.949 3.7117 -2.06199 0
M  V30 4608 O 449.973 3.08034 -1.78867 0
M  V30 4609 O 448.832 4.84721 -2.52404 0
M  V30 4610 H 445.926 0.749253 -0.35007 0
M  V30 4611 H 448.472 1.06668 -1.31985 0
M  V30 4612 H 447.244 2.70908 -2.82355 0
M  V30 4613 H 446.867 3.70968 -1.43068 0
M  V30 4614 N 447.864 1.01787 1.20321 0
M  V30 4615 C 449.112 0.706538 1.89347 0
M  V30 4616 C 449.433 -0.766289 1.79313 0
M  V30 4617 O 448.703 -1.55126 1.19635 0
M  V30 4618 H 447.283 0.258348 0.700903 0
M  V30 4619 H 449.945 1.28974 1.46122 0
M  V30 4620 H 449.041 0.991066 2.95946 0
M  V30 4621 N 449.342 -1.36122 0.79427 0
M  V30 4622 C 450.289 -2.29982 0.194101 0
M  V30 4623 C 451.259 -1.52214 -0.664833 0
M  V30 4624 O 452.444 -1.80702 -0.612498 0
M  V30 4625 C 449.584 -3.38706 -0.661244 0
M  V30 4626 C 448.697 -4.31456 0.216766 0
M  V30 4627 C 447.832 -5.27265 -0.645411 0
M  V30 4628 C 446.871 -6.11653 0.233756 0
M  V30 4629 N 446.008 -6.99636 -0.587682 0
M  V30 4630 H 450.848 -2.80722 0.999965 0
M  V30 4631 H 448.385 -1.38172 0.504677 0
M  V30 4632 H 450.343 -4.00394 -1.17219 0
M  V30 4633 H 448.973 -2.89274 -1.43249 0
M  V30 4634 H 448.025 -3.7088 0.845724 0
M  V30 4635 H 449.337 -4.90724 0.893973 0
M  V30 4636 H 448.491 -5.94266 -1.22198 0
M  V30 4637 H 447.23 -4.68463 -1.35623 0
M  V30 4638 H 446.235 -5.4361 0.82269 0
M  V30 4639 H 447.46 -6.72531 0.942247 0
M  V30 4640 H 445.406 -6.43337 -1.2827 0
M  V30 4641 H 445.323 -7.55993 0.0317402 0
M  V30 4642 H 446.591 -7.71001 -1.14792 0
M  V30 4643 N 450.82 -0.546701 -1.47814 0
M  V30 4644 C 451.753 0.254472 -2.26777 0
M  V30 4645 C 452.731 0.929809 -1.33392 0
M  V30 4646 O 453.915 0.950889 -1.62759 0
M  V30 4647 C 451.042 1.36171 -3.10121 0
M  V30 4648 C 450.088 0.796038 -4.19005 0
M  V30 4649 S 450.921 -0.349191 -5.3436 0
M  V30 4650 C 452.077 0.760122 -6.21267 0
M  V30 4651 H 452.31 -0.415612 -2.94381 0
M  V30 4652 H 449.843 -0.332809 -1.5077 0
M  V30 4653 H 451.801 1.99588 -3.58713 0
M  V30 4654 H 450.462 2.00359 -2.41899 0
M  V30 4655 H 449.655 1.62719 -4.7701 0
M  V30 4656 H 449.257 0.238246 -3.7324 0
M  V30 4657 H 451.549 1.65479 -6.5698 0
M  V30 4658 H 452.492 0.217673 -7.07765 0
M  V30 4659 H 452.9 1.04806 -5.54685 0
M  V30 4660 N 452.299 1.55045 -0.282633 0
M  V30 4661 C 453.545 2.00056 0.332481 0
M  V30 4662 C 453.878 1.1708 1.54939 0
M  V30 4663 O 453.153 0.2427 1.9298 0
M  V30 4664 C 453.436 3.53086 0.70725 0
M  V30 4665 C 453.289 4.46813 -0.517521 0
M  V30 4666 C 454.608 4.12245 1.54084 0
M  V30 4667 H 451.727 0.727268 0.119373 0
M  V30 4668 H 454.369 1.85932 -0.391076 0
M  V30 4669 H 452.519 3.65253 1.32372 0
M  V30 4670 H 454.191 4.46579 -1.15607 0
M  V30 4671 H 452.434 4.18163 -1.1542 0
M  V30 4672 H 453.105 5.51595 -0.211426 0
M  V30 4673 H 455.581 4.03401 1.02013 0
M  V30 4674 H 454.457 5.19515 1.77186 0
M  V30 4675 H 454.718 3.62951 2.52427 0
M  V30 4676 N 453.777 0.010035 1.57597 0
M  V30 4677 C 454.724 -0.978122 2.09049 0
M  V30 4678 C 455.694 -1.33509 0.988159 0
M  V30 4679 O 456.879 -1.43172 1.26121 0
M  V30 4680 C 454.019 -2.26158 2.60666 0
M  V30 4681 C 453.132 -1.96275 3.84838 0
M  V30 4682 C 452.267 -3.18776 4.24918 0
M  V30 4683 C 451.306 -2.84625 5.41899 0
M  V30 4684 N 450.443 -3.99693 5.77226 0
M  V30 4685 H 455.283 -0.532431 2.93205 0
M  V30 4686 H 452.82 -0.251234 1.44939 0
M  V30 4687 H 454.778 -3.01202 2.88675 0
M  V30 4688 H 453.408 -2.68378 1.79369 0
M  V30 4689 H 452.46 -1.11555 3.63675 0
M  V30 4690 H 453.772 -1.67111 4.69974 0
M  V30 4691 H 452.926 -4.02157 4.54262 0
M  V30 4692 H 451.665 -3.51087 3.38511 0
M  V30 4693 H 450.67 -1.99653 5.12268 0
M  V30 4694 H 451.895 -2.53551 6.29991 0
M  V30 4695 H 449.841 -4.31882 4.93776 0
M  V30 4696 H 449.758 -3.74087 6.56959 0
M  V30 4697 H 451.026 -4.83834 6.11167 0
M  V30 4698 N 455.255 -1.55392 -0.262866 0
M  V30 4699 C 456.501 -1.76737 -0.99458 0
M  V30 4700 C 456.834 -0.572453 -1.85571 0
M  V30 4701 O 456.109 0.429732 -1.89693 0
M  V30 4702 C 456.392 -3.07824 -1.8686 0
M  V30 4703 C 456.245 -4.3769 -1.03672 0
M  V30 4704 C 457.564 -3.35021 -2.85393 0
M  V30 4705 H 454.683 -0.643005 -0.360157 0
M  V30 4706 H 457.325 -1.88126 -0.266216 0
M  V30 4707 H 455.475 -2.98245 -2.48962 0
M  V30 4708 H 457.147 -4.59238 -0.43563 0
M  V30 4709 H 455.39 -4.32461 -0.340513 0
M  V30 4710 H 456.061 -5.25759 -1.6817 0
M  V30 4711 H 458.537 -3.44458 -2.33426 0
M  V30 4712 H 457.413 -4.27989 -3.43681 0
M  V30 4713 H 457.674 -2.55153 -3.61039 0
M  V30 4714 N 456.733 0.527833 -1.48498 0
M  V30 4715 C 457.979 1.28545 -1.56857 0
M  V30 4716 C 458.312 1.92678 -0.242651 0
M  V30 4717 O 457.587 1.79394 0.751545 0
M  V30 4718 C 457.87 2.37314 -2.70839 0
M  V30 4719 C 457.723 1.77858 -4.13142 0
M  V30 4720 C 459.042 3.39068 -2.80573 0
M  V30 4721 H 456.161 0.466006 -0.570971 0
M  V30 4722 H 458.803 0.587784 -1.8068 0
M  V30 4723 H 456.953 2.96821 -2.50658 0
M  V30 4724 H 458.625 1.22385 -4.44769 0
M  V30 4725 H 456.868 1.08383 -4.20042 0
M  V30 4726 H 457.539 2.56624 -4.88721 0
M  V30 4727 H 460.015 2.89518 -2.98862 0
M  V30 4728 H 458.891 4.12566 -3.6205 0
M  V30 4729 H 459.152 3.9975 -1.88818 0
M  V30 4730 N 458.211 1.37122 0.776871 0
M  V30 4731 C 459.436 1.354 1.57104 0
M  V30 4732 C 459.861 -0.0595562 1.88006 0
M  V30 4733 O 459.219 -1.03514 1.48844 0
M  V30 4734 C 459.267 2.19472 2.8612 0
M  V30 4735 O 458.371 1.59582 3.80273 0
M  V30 4736 H 457.712 0.462869 0.476076 0
M  V30 4737 H 460.242 1.80577 0.961932 0
M  V30 4738 H 460.252 2.32502 3.35271 0
M  V30 4739 H 458.927 3.22222 2.62956 0
M  V30 4740 H 457.504 1.55564 3.38902 0
M  V30 4741 N 459.689 -1.00246 1.21608 0
M  V30 4742 C 460.935 -1.74417 1.04643 0
M  V30 4743 C 461.29 -1.87862 -0.415387 0
M  V30 4744 O 460.583 -1.40373 -1.30407 0
M  V30 4745 C 460.777 -3.15448 1.68009 0
M  V30 4746 C 460.606 -3.15755 3.20201 0
M  V30 4747 C 459.376 -3.2219 3.89258 0
M  V30 4748 C 461.574 -3.00668 4.17257 0
M  V30 4749 N 459.556 -3.1215 5.28617 0
M  V30 4750 C 460.927 -2.98553 5.43384 0
M  V30 4751 C 462.982 -2.84989 4.08272 0
M  V30 4752 C 461.685 -2.82364 6.61561 0
M  V30 4753 C 463.711 -2.70158 5.26088 0
M  V30 4754 C 463.073 -2.68721 6.51128 0
M  V30 4755 H 459.172 -0.648317 0.437274 0
M  V30 4756 H 461.756 -1.19129 1.54001 0
M  V30 4757 H 459.927 -3.69001 1.21215 0
M  V30 4758 H 461.659 -3.78128 1.44226 0
M  V30 4759 H 458.414 -3.29488 3.40198 0
M  V30 4760 H 458.838 -3.10465 6.01615 0
M  V30 4761 H 463.48 -2.84904 3.12393 0
M  V30 4762 H 461.198 -2.81196 7.57598 0
M  V30 4763 H 464.784 -2.59022 5.20959 0
M  V30 4764 H 463.664 -2.57382 7.40759 0
M  V30 4765 N 461.167 -1.02423 -1.1978 0
M  V30 4766 C 462.397 -0.736387 -1.93031 0
M  V30 4767 C 462.805 0.708023 -1.75453 0
M  V30 4768 O 462.148 1.4927 -1.07071 0
M  V30 4769 C 462.21 -1.00194 -3.45255 0
M  V30 4770 C 461.874 -2.43698 -3.86601 0
M  V30 4771 C 462.871 -3.41814 -3.91738 0
M  V30 4772 C 460.556 -2.77975 -4.18372 0
M  V30 4773 C 462.55 -4.72265 -4.28071 0
M  V30 4774 C 460.237 -4.08636 -4.54378 0
M  V30 4775 C 461.235 -5.05592 -4.59201 0
M  V30 4776 O 460.923 -6.33914 -4.94376 0
M  V30 4777 H 460.655 -0.269116 -0.620123 0
M  V30 4778 H 463.209 -1.37043 -1.52998 0
M  V30 4779 H 461.439 -0.310747 -3.85449 0
M  V30 4780 H 463.128 -0.704488 -3.9974 0
M  V30 4781 H 463.894 -3.16671 -3.67348 0
M  V30 4782 H 459.773 -2.0319 -4.13805 0
M  V30 4783 H 463.317 -5.4794 -4.3175 0
M  V30 4784 H 459.214 -4.33556 -4.78226 0
M  V30 4785 H 459.982 -6.38317 -5.12341 0
M  V30 4786 N 462.645 1.35699 -0.801477 0
M  V30 4787 C 463.922 1.9324 -0.302937 0
M  V30 4788 C 464.302 1.73209 1.20672 0
M  V30 4789 O 463.65 1.09809 2.00385 0
M  V30 4790 C 463.86 3.41728 -0.708747 0
M  V30 4791 C 465.208 4.18868 -0.695328 0
M  V30 4792 O 466.232 3.5022 -0.649971 0
M  V30 4793 O 465.091 5.41342 -0.749081 0
M  V30 4794 H 462.185 0.82331 -0.0780367 0
M  V30 4795 H 464.731 1.44806 -0.884832 0
M  V30 4796 H 463.503 3.50015 -1.74944 0
M  V30 4797 H 463.126 3.97471 -0.101384 0
M  V30 4798 N 464.123 0.554532 1.47522 0
M  V30 4799 C 465.071 -0.207765 2.3167 0
M  V30 4800 C 466.065 -0.911914 1.4276 0
M  V30 4801 O 467.271 -0.833504 1.59539 0
M  V30 4802 H 463.646 -0.0858726 0.747081 0
M  V30 4803 H 465.617 0.521178 2.93813 0
M  V30 4804 C 464.366 -1.2263 3.25357 0
M  V30 4805 H 463.689 -0.693887 3.93732 0
M  V30 4806 H 465.129 -1.73062 3.87073 0
M  V30 4807 C 463.588 -2.27278 2.4869 0
M  V30 4808 O 464.118 -3.34156 2.22941 0
M  V30 4809 N 462.324 -2.01134 2.09746 0
M  V30 4810 H 461.871 -1.14232 2.30887 0
M  V30 4811 H 461.829 -2.71369 1.58765 0
M  V30 4812 N 465.601 -1.54893 0.290851 0
M  V30 4813 C 466.511 -2.26812 -0.59945 0
M  V30 4814 C 467.527 -1.29963 -1.15696 0
M  V30 4815 O 468.703 -1.62928 -1.18391 0
M  V30 4816 C 465.768 -2.98716 -1.75982 0
M  V30 4817 C 464.829 -4.1108 -1.2374 0
M  V30 4818 C 464.062 -4.79546 -2.34246 0
M  V30 4819 O 464.285 -4.47309 -3.53936 0
M  V30 4820 O 463.219 -5.67165 -2.01512 0
M  V30 4821 H 467.045 -3.03696 -0.0163561 0
M  V30 4822 H 464.63 -1.49289 0.0576755 0
M  V30 4823 H 466.512 -3.43851 -2.43607 0
M  V30 4824 H 465.187 -2.24737 -2.3297 0
M  V30 4825 H 464.094 -3.70367 -0.527163 0
M  V30 4826 H 465.427 -4.87007 -0.71307 0
M  V30 4827 N 467.08 -0.0183926 -1.57589 0
M  V30 4828 C 468.308 0.673046 -1.95647 0
M  V30 4829 C 468.723 1.66275 -0.894312 0
M  V30 4830 O 468.08 1.82072 0.124975 0
M  V30 4831 C 468.131 1.38884 -3.33756 0
M  V30 4832 O 467.852 0.438806 -4.35897 0
M  V30 4833 C 469.353 2.1731 -3.86383 0
M  V30 4834 H 466.573 0.186292 -0.644621 0
M  V30 4835 H 469.117 -0.0749748 -2.04363 0
M  V30 4836 H 467.272 2.08835 -3.26293 0
M  V30 4837 H 467.686 0.945869 -5.15901 0
M  V30 4838 H 469.16 2.62863 -4.85394 0
M  V30 4839 H 469.637 3.00764 -3.20059 0
M  V30 4840 H 470.243 1.52339 -3.97081 0
M  V30 4841 N 468.558 1.5553 0.254621 0
M  V30 4842 C 469.806 1.7665 0.981793 0
M  V30 4843 C 470.127 0.580963 1.86145 0
M  V30 4844 O 469.397 -0.403537 1.91699 0
M  V30 4845 H 467.977 0.651475 0.365498 0
M  V30 4846 H 470.639 1.92958 0.274426 0
M  V30 4847 H 469.735 2.67486 1.60802 0
M  V30 4848 N 470.036 -0.519951 1.48776 0
M  V30 4849 C 471.266 -1.29783 1.60748 0
M  V30 4850 C 471.674 -1.87253 0.27072 0
M  V30 4851 O 471.017 -1.67628 -0.751438 0
M  V30 4852 C 471.079 -2.47984 2.60277 0
M  V30 4853 C 470.743 -2.11526 4.051 0
M  V30 4854 C 471.74 -1.66608 4.92481 0
M  V30 4855 C 469.425 -2.21742 4.50706 0
M  V30 4856 C 471.419 -1.32384 6.23501 0
M  V30 4857 C 469.106 -1.87129 5.81744 0
M  V30 4858 C 470.104 -1.42523 6.67964 0
M  V30 4859 O 469.792 -1.0837 7.96562 0
M  V30 4860 H 469.524 -0.400562 0.544542 0
M  V30 4861 H 472.078 -0.632879 1.95407 0
M  V30 4862 H 470.308 -3.17493 2.2076 0
M  V30 4863 H 471.997 -3.10036 2.61978 0
M  V30 4864 H 472.763 -1.58178 4.58481 0
M  V30 4865 H 468.642 -2.55415 3.83776 0
M  V30 4866 H 472.186 -0.974949 6.90754 0
M  V30 4867 H 468.083 -1.95204 6.15277 0
M  V30 4868 H 468.851 -1.21681 8.09405 0
M  V30 4869 N 471.514 -1.37532 -0.769588 0
M  V30 4870 C 472.739 -1.36231 -1.56384 0
M  V30 4871 C 473.164 0.0495849 -1.88035 0
M  V30 4872 O 472.522 1.02723 -1.49391 0
M  V30 4873 C 472.57 -2.20986 -2.84952 0
M  V30 4874 O 471.674 -1.61597 -3.79421 0
M  V30 4875 H 471.015 -0.465387 -0.473615 0
M  V30 4876 H 473.545 -1.81085 -0.952342 0
M  V30 4877 H 473.555 -2.34277 -3.34034 0
M  V30 4878 H 472.23 -3.23612 -2.61243 0
M  V30 4879 H 470.807 -1.57359 -3.38072 0
M  V30 4880 N 472.992 0.995999 -1.22138 0
M  V30 4881 C 473.942 2.06988 -0.956042 0
M  V30 4882 C 474.926 1.60636 0.0921576 0
M  V30 4883 O 476.118 1.76607 -0.117958 0
M  V30 4884 C 473.247 3.39148 -0.532335 0
M  V30 4885 C 472.333 3.92142 -1.61509 0
M  V30 4886 N 472.724 4.18397 -2.84214 0
M  V30 4887 C 471.022 4.20514 -1.48606 0
M  V30 4888 C 471.723 4.61425 -3.54206 0
M  V30 4889 N 470.699 4.64934 -2.81669 0
M  V30 4890 H 474.501 2.25223 -1.88816 0
M  V30 4891 H 472.015 1.17748 -1.11845 0
M  V30 4892 H 474.012 4.15642 -0.323574 0
M  V30 4893 H 472.672 3.22314 0.392921 0
M  V30 4894 H 473.683 4.06682 -3.20671 0
M  V30 4895 H 470.36 4.12769 -0.626762 0
M  V30 4896 H 471.75 4.90387 -4.59315 0
M  V30 4897 N 474.47 1.03057 1.19235 0
M  V30 4898 C 475.886 0.747947 1.40989 0
M  V30 4899 C 476.086 -0.666752 1.90149 0
M  V30 4900 O 475.142 -1.43249 2.07933 0
M  V30 4901 C 476.455 1.7855 2.41951 0
M  V30 4902 C 478.003 1.80524 2.55695 0
M  V30 4903 C 478.478 2.83243 3.59913 0
M  V30 4904 N 479.969 2.8207 3.67411 0
M  V30 4905 C 480.704 3.58204 4.47747 0
M  V30 4906 N 480.2 4.44057 5.31775 0
M  V30 4907 N 481.993 3.46738 4.42413 0
M  V30 4908 H 474.144 1.94367 0.856468 0
M  V30 4909 H 476.407 0.840412 0.438647 0
M  V30 4910 H 476.113 2.79973 2.12857 0
M  V30 4911 H 475.987 1.6092 3.41152 0
M  V30 4912 H 478.374 0.79778 2.84112 0
M  V30 4913 H 478.455 2.02229 1.56643 0
M  V30 4914 H 478.099 3.84161 3.32239 0
M  V30 4915 H 478.029 2.58795 4.5862 0
M  V30 4916 H 480.52 2.19803 3.074 0
M  V30 4917 H 480.833 4.98884 5.90199 0
M  V30 4918 H 479.178 4.48129 5.3123 0
M  V30 4919 H 482.369 2.79077 3.75811 0
M  V30 4920 H 482.542 4.06322 5.04783 0
M  V30 4921 N 475.948 -1.35272 0.808662 0
M  V30 4922 C 477.194 -1.99003 0.390581 0
M  V30 4923 C 477.527 -1.63999 -1.0401 0
M  V30 4924 O 476.802 -0.904368 -1.72196 0
M  V30 4925 C 477.085 -3.55454 0.576566 0
M  V30 4926 C 476.938 -4.00249 2.05233 0
M  V30 4927 C 478.257 -4.401 0.00354277 0
M  V30 4928 H 475.376 -0.722917 0.143388 0
M  V30 4929 H 478.018 -1.6039 1.01858 0
M  V30 4930 H 476.168 -3.88477 0.0419766 0
M  V30 4931 H 477.84 -3.77626 2.64946 0
M  V30 4932 H 476.083 -3.51082 2.54801 0
M  V30 4933 H 476.754 -5.0911 2.13333 0
M  V30 4934 H 479.23 -4.13548 0.460117 0
M  V30 4935 H 478.106 -5.48656 0.163575 0
M  V30 4936 H 478.367 -4.28444 -1.09032 0
M  V30 4937 N 477.426 -0.562348 -1.47226 0
M  V30 4938 C 478.672 -0.0402761 -2.0276 0
M  V30 4939 C 479.005 1.30823 -1.43523 0
M  V30 4940 O 478.28 1.85249 -0.592705 0
M  V30 4941 C 478.563 0.047311 -3.60069 0
M  V30 4942 C 478.416 -1.32865 -4.29729 0
M  V30 4943 C 479.735 0.758182 -4.3352 0
M  V30 4944 H 476.854 -0.0161105 -0.736824 0
M  V30 4945 H 479.496 -0.725628 -1.75598 0
M  V30 4946 H 477.646 0.630986 -3.83342 0
M  V30 4947 H 479.318 -1.95593 -4.17781 0
M  V30 4948 H 477.561 -1.90195 -3.89882 0
M  V30 4949 H 478.232 -1.22004 -5.38349 0
M  V30 4950 H 480.708 0.262546 -4.15271 0
M  V30 4951 H 479.584 0.78844 -5.43208 0
M  V30 4952 H 479.845 1.81537 -4.03109 0
M  V30 4953 N 478.904 1.54736 -0.299062 0
M  V30 4954 C 480.181 1.92187 0.363802 0
M  V30 4955 C 480.561 1.22607 1.71845 0
M  V30 4956 O 479.909 0.361141 2.25628 0
M  V30 4957 C 480.119 3.45678 0.480377 0
M  V30 4958 C 481.467 4.17885 0.752147 0
M  V30 4959 O 482.491 3.51702 0.564264 0
M  V30 4960 O 481.35 5.35048 1.11294 0
M  V30 4961 H 478.444 0.801681 0.203066 0
M  V30 4962 H 480.99 1.66115 -0.346978 0
M  V30 4963 H 479.762 3.88443 -0.471999 0
M  V30 4964 H 479.385 3.77779 1.2397 0
M  V30 4965 N 480.382 0.0267497 1.57577 0
M  V30 4966 C 481.312 -0.954308 2.13108 0
M  V30 4967 C 482.293 -1.34088 1.04663 0
M  V30 4968 O 483.478 -1.41992 1.32484 0
M  V30 4969 C 480.608 -2.23744 2.65624 0
M  V30 4970 C 479.562 -1.99168 3.78835 0
M  V30 4971 C 478.888 -3.33726 4.17769 0
M  V30 4972 C 480.188 -1.33277 5.0501 0
M  V30 4973 H 481.882 -0.491848 2.95332 0
M  V30 4974 H 479.428 -0.23514 1.42067 0
M  V30 4975 H 481.381 -2.92754 3.03106 0
M  V30 4976 H 480.105 -2.72151 1.80558 0
M  V30 4977 H 478.764 -1.32577 3.41788 0
M  V30 4978 H 478.412 -3.79888 3.29688 0
M  V30 4979 H 478.112 -3.18089 4.94058 0
M  V30 4980 H 479.636 -4.04008 4.57832 0
M  V30 4981 H 481.05 -1.92283 5.40093 0
M  V30 4982 H 479.447 -1.28045 5.8628 0
M  V30 4983 H 480.517 -0.305411 4.83937 0
M  V30 4984 N 481.861 -1.55662 -0.24637 0
M  V30 4985 C 482.824 -1.89558 -1.28842 0
M  V30 4986 C 483.824 -0.772082 -1.41052 0
M  V30 4987 O 485.014 -1.04007 -1.39743 0
M  V30 4988 C 482.146 -2.12449 -2.66605 0
M  V30 4989 H 483.339 -2.82735 -1.00004 0
M  V30 4990 H 480.892 -1.48562 -0.485684 0
M  V30 4991 H 481.627 -1.21742 -3.00582 0
M  V30 4992 H 481.412 -2.94273 -2.59125 0
M  V30 4993 H 482.902 -2.39854 -3.41847 0
M  V30 4994 N 483.339 0.512053 -1.4905 0
M  V30 4995 C 484.302 1.59704 -1.64399 0
M  V30 4996 C 485.302 1.52285 -0.516317 0
M  V30 4997 O 486.492 1.55635 -0.782527 0
M  V30 4998 C 483.624 2.9935 -1.63102 0
M  V30 4999 H 484.817 1.47428 -2.61161 0
M  V30 5000 H 482.37 0.735469 -1.37915 0
M  V30 5001 H 483.105 3.17116 -0.678836 0
M  V30 5002 H 482.89 3.06144 -2.44986 0
M  V30 5003 H 484.38 3.782 -1.77072 0
M  V30 5004 N 484.817 1.37938 0.762283 0
M  V30 5005 C 486.047 1.36685 1.54922 0
M  V30 5006 C 486.455 -0.0474099 1.89141 0
M  V30 5007 O 485.798 -1.02213 1.52638 0
M  V30 5008 C 485.86 2.14963 2.88152 0
M  V30 5009 C 485.524 3.6385 2.76518 0
M  V30 5010 C 486.521 4.57531 2.46904 0
M  V30 5011 C 484.206 4.07095 2.94243 0
M  V30 5012 C 486.2 5.92436 2.35156 0
M  V30 5013 C 483.887 5.42083 2.82116 0
M  V30 5014 C 484.885 6.34567 2.52614 0
M  V30 5015 O 484.573 7.67073 2.40529 0
M  V30 5016 H 484.305 0.469586 0.486276 0
M  V30 5017 H 486.859 1.82012 0.951876 0
M  V30 5018 H 485.089 1.6434 3.50042 0
M  V30 5019 H 486.778 2.06224 3.49609 0
M  V30 5020 H 487.544 4.25428 2.32886 0
M  V30 5021 H 483.423 3.35462 3.16206 0
M  V30 5022 H 486.967 6.64591 2.12049 0
M  V30 5023 H 482.864 5.73785 2.95704 0
M  V30 5024 H 483.632 7.77499 2.55807 0
M  V30 5025 N 486.295 -0.989507 1.22664 0
M  V30 5026 C 487.544 -1.72375 1.04737 0
M  V30 5027 C 487.857 -1.91096 -0.417316 0
M  V30 5028 O 489.063 -2.6188 -0.716334 0
M  V30 5029 C 487.519 -3.10161 1.82561 0
M  V30 5030 C 487.127 -2.99358 3.333 0
M  V30 5031 C 488.871 -3.87607 1.73093 0
M  V30 5032 C 486.778 -4.32319 4.03552 0
M  V30 5033 H 485.708 -0.646326 0.388302 0
M  V30 5034 H 488.359 -1.10437 1.46546 0
M  V30 5035 H 486.741 -3.728 1.33552 0
M  V30 5036 H 487.915 -2.45863 3.89728 0
M  V30 5037 H 486.23 -2.35392 3.43481 0
M  V30 5038 H 488.827 -4.86025 2.22899 0
M  V30 5039 H 489.17 -4.10509 0.691976 0
M  V30 5040 H 489.703 -3.31652 2.19663 0
M  V30 5041 H 486.442 -4.14616 5.07714 0
M  V30 5042 H 485.962 -4.85714 3.51911 0
M  V30 5043 H 487.641 -5.01051 4.09337 0
M  V30 5044 N 487.773 -1.03688 -1.18687 0
M  V30 5045 C 488.736 -0.629115 -2.20397 0
M  V30 5046 C 489.736 0.311495 -1.57754 0
M  V30 5047 O 490.926 0.0974107 -1.73927 0
M  V30 5048 C 488.058 0.0782231 -3.4081 0
M  V30 5049 H 489.251 -1.52915 -2.57987 0
M  V30 5050 H 486.804 -0.828988 -1.32505 0
M  V30 5051 H 487.539 0.992233 -3.08748 0
M  V30 5052 H 487.324 -0.597776 -3.87517 0
M  V30 5053 H 488.814 0.350156 -4.16129 0
M  V30 5054 N 489.251 1.34841 -0.815825 0
M  V30 5055 C 490.476 2.03261 -0.41226 0
M  V30 5056 C 490.901 1.61055 0.971751 0
M  V30 5057 O 490.259 0.7917 1.63101 0
M  V30 5058 C 490.307 3.56914 -0.514289 0
M  V30 5059 O 489.411 4.09728 0.468675 0
M  V30 5060 H 488.752 0.641664 -0.170771 0
M  V30 5061 H 491.282 1.72241 -1.10427 0
M  V30 5062 H 491.292 4.06156 -0.387457 0
M  V30 5063 H 489.967 3.86982 -1.52375 0
M  V30 5064 H 488.544 3.71681 0.301316 0
M  V30 5065 N 490.729 0.570148 1.46925 0
M  V30 5066 C 491.676 -0.170257 2.30171 0
M  V30 5067 C 492.646 -0.896099 1.39855 0
M  V30 5068 O 493.831 -0.889248 1.68811 0
M  V30 5069 C 490.971 -1.18605 3.24079 0
M  V30 5070 C 490.084 -0.464947 4.29491 0
M  V30 5071 C 489.219 -1.46716 5.10537 0
M  V30 5072 C 488.258 -0.731758 6.0771 0
M  V30 5073 N 487.395 -1.68142 6.81669 0
M  V30 5074 H 492.235 0.545713 2.92961 0
M  V30 5075 H 489.772 0.280938 1.44392 0
M  V30 5076 H 491.73 -1.78771 3.76957 0
M  V30 5077 H 490.36 -1.86989 2.63125 0
M  V30 5078 H 489.412 0.251506 3.79568 0
M  V30 5079 H 490.724 0.110548 4.98677 0
M  V30 5080 H 489.878 -2.14199 5.6763 0
M  V30 5081 H 488.617 -2.07658 4.41282 0
M  V30 5082 H 487.622 -0.0430787 5.49783 0
M  V30 5083 H 488.847 -0.127904 6.7898 0
M  V30 5084 H 486.793 -2.27918 6.15134 0
M  V30 5085 H 486.71 -1.15841 7.47072 0
M  V30 5086 H 487.978 -2.347 7.43328 0
M  V30 5087 N 492.207 -1.54576 0.307264 0
M  V30 5088 C 493.455 -1.99867 -0.299574 0
M  V30 5089 C 493.776 -1.19714 -1.53927 0
M  V30 5090 O 493.046 -0.29472 -1.9367 0
M  V30 5091 H 491.626 -0.738299 -0.113683 0
M  V30 5092 H 494.288 -1.9032 0.420042 0
M  V30 5093 H 493.384 -3.06901 -0.567283 0
M  V30 5094 N 493.685 -0.035106 -1.57561 0
M  V30 5095 C 494.615 0.942993 -2.13612 0
M  V30 5096 C 495.596 1.33531 -1.05373 0
M  V30 5097 O 496.781 1.41287 -1.33235 0
M  V30 5098 C 493.911 2.22332 -2.66807 0
M  V30 5099 C 492.865 1.97156 -3.79886 0
M  V30 5100 C 492.191 3.31506 -4.19533 0
M  V30 5101 C 493.491 1.30596 -5.05709 0
M  V30 5102 H 495.185 0.476179 -2.95589 0
M  V30 5103 H 492.731 0.227602 -1.4219 0
M  V30 5104 H 494.684 2.91142 -3.04654 0
M  V30 5105 H 493.408 2.7119 -1.81999 0
M  V30 5106 H 492.067 1.30763 -3.42486 0
M  V30 5107 H 491.715 3.78134 -3.31698 0
M  V30 5108 H 491.415 3.15465 -4.95738 0
M  V30 5109 H 492.939 4.01574 -4.59968 0
M  V30 5110 H 494.353 1.89416 -5.41105 0
M  V30 5111 H 492.75 1.24934 -5.86951 0
M  V30 5112 H 493.82 0.279742 -4.84092 0
M  V30 5113 O 495.202 1.61149 0.106394 0
M  V30 5114 H 495.893 1.7916 0.736293 0
M  V30 END ATOM
M  V30 BEGIN BOND
M  V30 END BOND
M  V30 END CTAB
M  END
$$$$
