drugbank_target|P00381 Dihydrofolate reductase (DB02809; DB03125)
 OpenBabel12092119573D

  0  0  0     0  0            999 V3000
M  V30 BEGIN CTAB
M  V30 COUNTS 2574 2609 0 0 0
M  V30 BEGIN ATOM
M  V30 1 H -0.908 1.98254 -0.117106 0
M  V30 2 N 0 1.576 0 0
M  V30 3 C 0.933 2.03868 1.02534 0
M  V30 4 C 1.911 0.928543 1.3348 0
M  V30 5 O 3.095 1.19667 1.45644 0
M  V30 6 C 0.222 2.43627 2.35294 0
M  V30 7 C -0.732 3.65373 2.2001 0
M  V30 8 S 0.101 5.13292 1.52614 0
M  V30 9 C 1.257 5.56322 2.86805 0
M  V30 10 H 1.49 2.90518 0.631377 0
M  V30 11 H -0.977 1.52953 0.210867 0
M  V30 12 H 0.981 2.67203 3.11629 0
M  V30 13 H -0.358 1.57376 2.7183 0
M  V30 14 H -1.165 3.90944 3.18086 0
M  V30 15 H -1.563 3.418 1.51819 0
M  V30 16 H 0.729 5.58782 3.83104 0
M  V30 17 H 1.672 6.56266 2.65933 0
M  V30 18 H 2.08 4.83886 2.90714 0
M  V30 19 N 1.4781 -0.272755 1.55222 0
M  V30 20 C 2.7061 -1.02255 1.79865 0
M  V30 21 C 3.1211 -1.79924 0.572088 0
M  V30 22 O 2.4781 -1.76638 -0.458842 0
M  V30 23 C 2.5291 -1.98094 3.02392 0
M  V30 24 O 2.2501 -1.23572 4.20311 0
M  V30 25 C 3.7511 -2.84884 3.39641 0
M  V30 26 H 0.9711 -0.302057 0.599168 0
M  V30 27 H 3.5151 -0.303465 2.02236 0
M  V30 28 H 1.6701 -2.65465 2.82147 0
M  V30 29 H 2.0841 -1.88172 4.89583 0
M  V30 30 H 3.5581 -3.47927 4.28545 0
M  V30 31 H 4.0351 -3.54665 2.59055 0
M  V30 32 H 4.6411 -2.23003 3.62146 0
M  V30 33 N 2.9562 -1.48159 -0.537278 0
M  V30 34 C 3.9192 -1.61665 -1.62472 0
M  V30 35 C 4.9192 -0.490395 -1.5314 0
M  V30 36 O 6.1092 -0.755998 -1.5694 0
M  V30 37 C 3.2412 -1.57997 -3.02076 0
M  V30 38 H 4.4342 -2.58621 -1.51839 0
M  V30 39 H 1.9872 -1.36647 -0.758771 0
M  V30 40 H 2.7222 -0.624913 -3.18222 0
M  V30 41 H 2.5072 -2.39755 -3.10258 0
M  V30 42 H 3.9972 -1.70627 -3.81151 0
M  V30 43 N 4.4343 0.785586 -1.36625 0
M  V30 44 C 5.6813 1.54362 -1.31067 0
M  V30 45 C 6.0093 1.94195 0.10893 0
M  V30 46 O 5.2643 1.63262 1.07908 0
M  V30 47 C 5.5633 2.83007 -2.1827 0
M  V30 48 C 5.2293 2.62294 -3.6676 0
M  V30 49 C 3.8913 2.56353 -4.0723 0
M  V30 50 C 6.2433 2.43371 -4.6089 0
M  V30 51 C 3.5713 2.29461 -5.39967 0
M  V30 52 C 5.9233 2.18005 -5.93849 0
M  V30 53 C 4.5873 2.105 -6.3344 0
M  V30 54 H 3.8573 0.564851 -0.479609 0
M  V30 55 H 6.5043 0.906028 -1.68711 0
M  V30 56 H 4.8093 3.51253 -1.73576 0
M  V30 57 H 6.5063 3.40817 -2.11292 0
M  V30 58 H 3.0963 2.67774 -3.34656 0
M  V30 59 H 7.2803 2.46959 -4.30494 0
M  V30 60 H 2.5363 2.22135 -5.69619 0
M  V30 61 H 6.7103 2.02359 -6.66351 0
M  V30 62 H 4.3373 1.89425 -7.36222 0
M  V30 63 N 5.9124 1.20967 1.01018 0
M  V30 64 C 6.8424 0.988272 2.11555 0
M  V30 65 C 7.8234 -0.0849778 1.69888 0
M  V30 66 O 9.0084 0.0738202 1.9406 0
M  V30 67 C 6.1384 0.546528 3.42973 0
M  V30 68 C 5.0924 1.56375 3.9841 0
M  V30 69 C 4.4184 0.97842 5.25672 0
M  V30 70 C 5.7184 2.94922 4.31066 0
M  V30 71 H 7.4124 1.91276 2.30334 0
M  V30 72 H 4.9584 0.921073 1.1069 0
M  V30 73 H 6.9114 0.378839 4.19694 0
M  V30 74 H 5.6354 -0.413598 3.23971 0
M  V30 75 H 4.2944 1.71891 3.23804 0
M  V30 76 H 3.9424 0.0101688 5.02999 0
M  V30 77 H 3.6424 1.65784 5.63728 0
M  V30 78 H 5.1664 0.821939 6.05043 0
M  V30 79 H 6.5804 2.8288 4.9865 0
M  V30 80 H 4.9774 3.5983 4.80253 0
M  V30 81 H 6.0474 3.4616 3.39561 0
M  V30 82 N 7.3905 -1.2043 1.01659 0
M  V30 83 C 8.6365 -1.90356 0.716674 0
M  V30 84 C 8.9915 -1.77367 -0.745557 0
M  V30 85 O 8.2845 -1.1471 -1.53467 0
M  V30 86 C 8.4785 -3.40464 1.08714 0
M  V30 87 C 8.3075 -3.6806 2.58384 0
M  V30 88 C 7.0775 -3.86775 3.25167 0
M  V30 89 C 9.2755 -3.70623 3.56572 0
M  V30 90 N 7.2575 -4.01889 4.64067 0
M  V30 91 C 8.6285 -3.91161 4.81034 0
M  V30 92 C 10.6835 -3.53586 3.50544 0
M  V30 93 C 9.3865 -3.96428 6.00198 0
M  V30 94 C 11.4125 -3.60125 4.6911 0
M  V30 95 C 10.7745 -3.81135 5.92381 0
M  V30 96 H 6.8735 -0.716226 0.313918 0
M  V30 97 H 9.4575 -1.44815 1.30141 0
M  V30 98 H 7.6285 -3.84757 0.530745 0
M  V30 99 H 9.3605 -3.97863 0.740763 0
M  V30 100 H 6.1155 -3.85156 2.75594 0
M  V30 101 H 6.5395 -4.13323 5.36184 0
M  V30 102 H 11.1815 -3.36308 2.56235 0
M  V30 103 H 8.8995 -4.12502 6.94887 0
M  V30 104 H 12.4855 -3.4825 4.66062 0
M  V30 105 H 11.3655 -3.86054 6.82592 0
M  V30 106 N 8.8686 -0.792821 -1.36206 0
M  V30 107 C 9.8316 -0.199459 -2.2833 0
M  V30 108 C 10.8316 0.605189 -1.48977 0
M  V30 109 O 12.0216 0.425685 -1.68919 0
M  V30 110 C 9.1536 0.723523 -3.33134 0
M  V30 111 H 10.3466 -1.01181 -2.82316 0
M  V30 112 H 7.8996 -0.562485 -1.45828 0
M  V30 113 H 8.6346 1.56008 -2.84309 0
M  V30 114 H 8.4196 0.148436 -3.91819 0
M  V30 115 H 9.9096 1.13344 -4.01924 0
M  V30 116 N 10.3467 1.47872 -0.545128 0
M  V30 117 C 11.2787 2.27869 0.246621 0
M  V30 118 C 12.2917 1.36282 0.890561 0
M  V30 119 O 13.4807 1.61207 0.766449 0
M  V30 120 C 10.5807 3.10159 1.36582 0
M  V30 121 C 9.7537 4.29627 0.820954 0
M  V30 122 C 8.8127 4.93607 1.82314 0
M  V30 123 O 7.8387 5.52366 1.37406 0
M  V30 124 N 9.0407 4.87211 3.15603 0
M  V30 125 H 11.8057 2.96459 -0.439539 0
M  V30 126 H 9.3667 1.57367 -0.380421 0
M  V30 127 H 11.3587 3.49829 2.03474 0
M  V30 128 H 9.9287 2.43891 1.9554 0
M  V30 129 H 9.1487 3.94192 -0.0244032 0
M  V30 130 H 10.4367 5.06928 0.436063 0
M  V30 131 H 9.8347 4.40651 3.54744 0
M  V30 132 H 8.3917 5.30937 3.78087 0
M  V30 133 N 11.8248 0.280983 1.55075 0
M  V30 134 C 13.1018 -0.386207 1.91749 0
M  V30 135 C 13.4818 -1.73264 1.20594 0
M  V30 136 O 12.8298 -2.26034 0.334784 0
M  V30 137 C 13.0398 -0.520687 3.45094 0
M  V30 138 C 14.3878 -0.800865 4.16979 0
M  V30 139 O 15.4118 -0.605271 3.5102 0
M  V30 140 O 14.2708 -1.1753 5.33712 0
M  V30 141 H 11.3648 -0.212408 0.799257 0
M  V30 142 H 13.9108 0.327568 1.66509 0
M  V30 143 H 12.6828 0.426633 3.88967 0
M  V30 144 H 12.3058 -1.2837 3.76307 0
M  V30 145 N 13.3029 -1.57598 0.00835791 0
M  V30 146 C 14.7189 -1.55764 -0.347822 0
M  V30 147 C 14.9189 -1.01186 -1.74252 0
M  V30 148 O 13.9749 -0.649371 -2.44007 0
M  V30 149 C 15.2879 -2.99927 -0.215407 0
M  V30 150 C 16.8359 -3.11656 -0.289725 0
M  V30 151 C 17.3109 -4.57621 -0.18634 0
M  V30 152 N 18.8019 -4.62557 -0.243978 0
M  V30 153 C 19.5369 -5.73094 -0.18745 0
M  V30 154 N 19.0329 -6.92753 -0.0810331 0
M  V30 155 N 20.8259 -5.61588 -0.239925 0
M  V30 156 H 12.9769 -1.91411 0.92062 0
M  V30 157 H 15.2399 -0.879562 0.353659 0
M  V30 158 H 14.9459 -3.43729 0.744512 0
M  V30 159 H 14.8199 -3.63865 -0.994097 0
M  V30 160 H 17.2069 -2.67779 -1.24009 0
M  V30 161 H 17.2879 -2.5048 0.51898 0
M  V30 162 H 16.9319 -5.02174 0.760519 0
M  V30 163 H 16.8619 -5.16752 -1.01364 0
M  V30 164 H 19.3529 -3.76481 -0.327217 0
M  V30 165 H 19.6659 -7.72787 -0.0440241 0
M  V30 166 H 18.0109 -6.94984 -0.0465419 0
M  V30 167 H 21.2019 -4.66996 -0.321317 0
M  V30 168 H 21.3749 -6.47714 -0.192407 0
M  V30 169 N 14.781 0.264519 -1.55364 0
M  V30 170 C 16.058 1.01677 -1.67096 0
M  V30 171 C 16.438 2.03996 -0.543015 0
M  V30 172 O 15.786 2.23907 0.45585 0
M  V30 173 C 15.996 1.66596 -3.0667 0
M  V30 174 C 17.344 2.17442 -3.64697 0
M  V30 175 O 18.368 1.76568 -3.09358 0
M  V30 176 O 17.227 2.92439 -4.61673 0
M  V30 177 H 14.321 0.472161 -0.678965 0
M  V30 178 H 16.867 0.259703 -1.67701 0
M  V30 179 H 15.639 0.924962 -3.80211 0
M  V30 180 H 15.262 2.48968 -3.10001 0
M  V30 181 N 16.2591 1.48442 0.529413 0
M  V30 182 C 17.5071 1.56179 1.28267 0
M  V30 183 C 17.8281 0.237721 1.93546 0
M  V30 184 O 17.0981 -0.740779 1.81354 0
M  V30 185 H 15.6781 0.575367 0.476405 0
M  V30 186 H 18.3401 1.84909 0.61602 0
M  V30 187 H 17.4361 2.34312 2.06165 0
M  V30 188 N 17.7372 -0.778329 1.37039 0
M  V30 189 C 18.6672 -1.90546 1.34962 0
M  V30 190 C 19.6482 -1.68681 0.219274 0
M  V30 191 O 20.8332 -1.89634 0.418624 0
M  V30 192 C 17.9632 -3.27734 1.14925 0
M  V30 193 C 16.9172 -3.64147 2.24902 0
M  V30 194 C 16.2432 -4.99806 1.89996 0
M  V30 195 C 17.5432 -3.71579 3.67051 0
M  V30 196 H 19.2372 -1.92541 2.29277 0
M  V30 197 H 16.7832 -0.924948 1.10366 0
M  V30 198 H 18.7362 -4.06215 1.12104 0
M  V30 199 H 17.4602 -3.26154 0.170631 0
M  V30 200 H 16.1192 -2.8797 2.26868 0
M  V30 201 H 15.7672 -4.94759 0.906796 0
M  V30 202 H 15.4672 -5.25139 2.63634 0
M  V30 203 H 16.9912 -5.80694 1.88749 0
M  V30 204 H 18.4052 -4.40227 3.67251 0
M  V30 205 H 16.8022 -4.08405 4.39688 0
M  V30 206 H 17.8722 -2.72404 4.01154 0
M  V30 207 N 19.2153 -1.21501 -1.00376 0
M  V30 208 C 20.4643 -1.02718 -1.73586 0
M  V30 209 C 20.7773 0.439589 -1.90596 0
M  V30 210 O 21.9833 0.746848 -2.61026 0
M  V30 211 C 20.4393 -1.78929 -3.1227 0
M  V30 212 C 20.0473 -3.29783 -3.03228 0
M  V30 213 C 21.7913 -1.68557 -3.89601 0
M  V30 214 C 19.6983 -3.98479 -4.36999 0
M  V30 215 H 18.6283 -0.380733 -0.650814 0
M  V30 216 H 21.2793 -1.45248 -1.1214 0
M  V30 217 H 19.6613 -1.29192 -3.74333 0
M  V30 218 H 20.8353 -3.86832 -2.50395 0
M  V30 219 H 19.1503 -3.40711 -2.39385 0
M  V30 220 H 21.7473 -2.17211 -4.88593 0
M  V30 221 H 22.0903 -0.644021 -4.11288 0
M  V30 222 H 22.6233 -2.15778 -3.34193 0
M  V30 223 H 19.3623 -5.02841 -4.20513 0
M  V30 224 H 18.8823 -3.46219 -4.89788 0
M  V30 225 H 20.5613 -4.03462 -5.05794 0
M  V30 226 N 20.6934 1.19889 -1.02296 0
M  V30 227 C 21.9414 1.89046 -0.714558 0
M  V30 228 C 22.2624 1.79636 0.758681 0
M  V30 229 O 21.5324 1.20292 1.54618 0
M  V30 230 H 20.1124 0.699802 -0.261317 0
M  V30 231 H 22.7744 1.45574 -1.29592 0
M  V30 232 H 21.8704 2.95524 -1.0036 0
M  V30 233 N 22.1715 0.800033 1.35784 0
M  V30 234 C 23.1185 0.203848 2.29898 0
M  V30 235 C 24.0885 -0.658375 1.52495 0
M  V30 236 O 25.2735 -0.604832 1.8096 0
M  V30 237 C 22.4135 -0.64688 3.38983 0
M  V30 238 C 21.5265 0.235054 4.3136 0
M  V30 239 C 20.6615 -0.623054 5.27533 0
M  V30 240 C 19.7005 0.259682 6.11549 0
M  V30 241 N 18.8375 -0.558019 6.99879 0
M  V30 242 H 23.6775 1.01186 2.80295 0
M  V30 243 H 21.2145 0.51053 1.37957 0
M  V30 244 H 23.1725 -1.15521 4.00887 0
M  V30 245 H 21.8025 -1.42021 2.89879 0
M  V30 246 H 20.8545 0.861438 3.70518 0
M  V30 247 H 22.1665 0.914768 4.9034 0
M  V30 248 H 21.3205 -1.19678 5.94779 0
M  V30 249 H 20.0595 -1.33636 4.69034 0
M  V30 250 H 19.0645 0.845726 5.43256 0
M  V30 251 H 20.2895 0.970748 6.72126 0
M  V30 252 H 18.2355 -1.25542 6.43875 0
M  V30 253 H 18.1525 0.0637872 7.55973 0
M  V30 254 H 19.4205 -1.11523 7.71481 0
M  V30 255 N 23.6496 -1.47581 0.552962 0
M  V30 256 C 24.9266 -1.95563 -0.0381515 0
M  V30 257 C 25.3066 -1.49552 -1.48988 0
M  V30 258 O 24.6546 -0.732414 -2.16444 0
M  V30 259 C 24.8646 -3.48848 0.102919 0
M  V30 260 C 26.2126 -4.24577 -0.0446082 0
M  V30 261 O 27.2366 -3.56187 0.0302548 0
M  V30 262 O 26.0956 -5.46116 -0.204923 0
M  V30 263 H 23.1896 -0.824321 -0.0665067 0
M  V30 264 H 25.7356 -1.58001 0.619186 0
M  V30 265 H 24.5076 -3.75129 1.11328 0
M  V30 266 H 24.1306 -3.93165 -0.592224 0
M  V30 267 N 25.1277 -0.289203 -1.54924 0
M  V30 268 C 26.3757 0.322879 -1.99504 0
M  V30 269 C 26.6967 1.55313 -1.1791 0
M  V30 270 O 25.9667 1.94001 -0.272097 0
M  V30 271 H 24.5467 0.122291 -0.736922 0
M  V30 272 H 27.2087 -0.397802 -1.90797 0
M  V30 273 H 26.3047 0.603061 -3.06218 0
M  V30 274 N 26.6058 1.57591 -0.0167156 0
M  V30 275 C 27.5558 2.05953 0.978137 0
M  V30 276 C 28.5398 0.957532 1.29306 0
M  V30 277 O 29.7318 1.22119 1.28125 0
M  V30 278 C 26.8608 2.58006 2.26468 0
M  V30 279 C 25.9468 3.75113 1.97867 0
M  V30 280 N 26.3378 4.86187 1.39486 0
M  V30 281 C 24.6358 3.83363 2.27924 0
M  V30 282 C 25.3368 5.67502 1.27735 0
M  V30 283 N 24.3128 5.14023 1.76866 0
M  V30 284 H 28.1148 2.89236 0.521522 0
M  V30 285 H 25.6288 1.61301 0.188596 0
M  V30 286 H 27.6258 2.90937 2.98599 0
M  V30 287 H 26.2858 1.76148 2.72767 0
M  V30 288 H 27.2968 5.06695 1.07147 0
M  V30 289 H 23.9738 3.1239 2.76982 0
M  V30 290 H 25.3638 6.66791 0.826978 0
M  V30 291 N 28.0839 -0.256276 1.55502 0
M  V30 292 C 29.0139 -1.32102 1.92539 0
M  V30 293 C 29.9949 -1.50684 0.789194 0
M  V30 294 O 31.1799 -1.63449 1.04872 0
M  V30 295 C 28.3099 -2.67752 2.21192 0
M  V30 296 C 27.2639 -2.63878 3.36975 0
M  V30 297 C 26.5899 -4.03236 3.51147 0
M  V30 298 C 27.8899 -2.21682 4.72921 0
M  V30 299 H 29.5839 -1.01351 2.81724 0
M  V30 300 H 27.1299 -0.486105 1.35547 0
M  V30 301 H 29.0829 -3.42365 2.45691 0
M  V30 302 H 27.8069 -3.0012 1.28824 0
M  V30 303 H 26.4659 -1.91722 3.12471 0
M  V30 304 H 26.1139 -4.32854 2.56216 0
M  V30 305 H 25.8139 -4.01535 4.29003 0
M  V30 306 H 27.3379 -4.79563 3.77957 0
M  V30 307 H 28.7519 -2.86023 4.96854 0
M  V30 308 H 27.1489 -2.3111 5.53812 0
M  V30 309 H 28.2189 -1.16833 4.70615 0
M  V30 310 N 29.562 -1.4872 -0.521534 0
M  V30 311 C 30.973 -1.50607 -1.10337 0
M  V30 312 C 31.324 -0.280612 -1.94183 0
M  V30 313 O 30.449 0.611507 -2.0758 0
M  V30 314 C 31.044 -2.72903 -2.00772 0
M  V30 315 C 29.603 -2.77634 -2.54158 0
M  V30 316 C 28.75 -2.44241 -1.31307 0
M  V30 317 H 31.701 -1.55714 -0.306388 0
M  V30 318 H 31.722 -2.519 -2.85178 0
M  V30 319 H 31.234 -3.62077 -1.39721 0
M  V30 320 H 29.335 -1.92689 -3.18907 0
M  V30 321 H 29.448 -3.79283 -2.92714 0
M  V30 322 H 27.812 -1.95577 -1.63161 0
M  V30 323 H 28.595 -3.35666 -0.719943 0
M  V30 324 N 31.0401 0.771051 -1.3745 0
M  V30 325 C 32.2861 1.53109 -1.339 0
M  V30 326 C 32.6411 1.9225 0.0758401 0
M  V30 327 O 31.9341 1.61264 1.03463 0
M  V30 328 C 32.1281 2.80676 -2.2126 0
M  V30 329 C 31.9571 2.54003 -3.71096 0
M  V30 330 C 30.7271 2.48097 -4.402 0
M  V30 331 C 32.9251 2.21953 -4.63941 0
M  V30 332 N 30.9071 2.13515 -5.75573 0
M  V30 333 C 32.2781 1.97516 -5.87697 0
M  V30 334 C 34.3331 2.08114 -4.5232 0
M  V30 335 C 33.0361 1.60638 -7.01133 0
M  V30 336 C 35.0621 1.72636 -5.65642 0
M  V30 337 C 34.4241 1.4906 -6.88448 0
M  V30 338 H 30.5231 0.56055 -0.54526 0
M  V30 339 H 33.1071 0.899472 -1.72678 0
M  V30 340 H 31.2781 3.41674 -1.84698 0
M  V30 341 H 33.0101 3.46578 -2.08963 0
M  V30 342 H 29.7651 2.63974 -3.93211 0
M  V30 343 H 30.1891 1.98919 -6.47117 0
M  V30 344 H 34.8311 2.25024 -3.57944 0
M  V30 345 H 32.5491 1.42467 -7.95443 0
M  V30 346 H 36.1351 1.62586 -5.58621 0
M  V30 347 H 35.0151 1.22014 -7.7465 0
M  V30 348 N 32.5182 1.22032 0.997298 0
M  V30 349 C 33.4682 0.953838 2.07089 0
M  V30 350 C 34.4522 -0.0938669 1.60626 0
M  V30 351 O 35.6442 0.116078 1.76619 0
M  V30 352 C 32.7732 0.528726 3.39204 0
M  V30 353 C 31.8592 1.61092 3.92314 0
M  V30 354 N 32.2502 2.83768 4.18699 0
M  V30 355 C 30.5482 1.48158 4.20672 0
M  V30 356 C 31.2492 3.53715 4.61802 0
M  V30 357 N 30.2252 2.81174 4.65233 0
M  V30 358 H 34.0272 1.88577 2.25424 0
M  V30 359 H 31.5412 1.11719 1.17867 0
M  V30 360 H 33.5382 0.31915 4.15677 0
M  V30 361 H 32.1982 -0.39635 3.22272 0
M  V30 362 H 33.2092 3.20238 4.07023 0
M  V30 363 H 29.8862 0.622369 4.12835 0
M  V30 364 H 31.2762 4.58793 4.90875 0
M  V30 365 N 33.9963 -1.19345 1.0293 0
M  V30 366 C 34.9263 -2.2481 0.631105 0
M  V30 367 C 35.9073 -1.66245 -0.360104 0
M  V30 368 O 37.0923 -1.92677 -0.242726 0
M  V30 369 C 34.2223 -3.47295 -0.0184607 0
M  V30 370 C 33.1763 -4.18536 0.895073 0
M  V30 371 C 32.5023 -5.34586 0.110592 0
M  V30 372 C 33.8023 -4.73287 2.209 0
M  V30 373 H 35.4963 -2.58372 1.51275 0
M  V30 374 H 33.0423 -1.24194 0.728818 0
M  V30 375 H 34.9953 -4.20268 -0.308675 0
M  V30 376 H 33.7193 -3.12933 -0.934907 0
M  V30 377 H 32.3783 -3.47446 1.16949 0
M  V30 378 H 32.0263 -4.96469 -0.807902 0
M  V30 379 H 31.7263 -5.83183 0.719087 0
M  V30 380 H 33.2503 -6.10355 -0.172871 0
M  V30 381 H 34.6643 -5.38013 1.98028 0
M  V30 382 H 33.0613 -5.32373 2.76946 0
M  V30 383 H 34.1313 -3.91331 2.86336 0
M  V30 384 N 35.4744 -0.807222 -1.35358 0
M  V30 385 C 36.8854 -0.44876 -1.81226 0
M  V30 386 C 37.2364 1.02929 -1.67033 0
M  V30 387 O 36.3614 1.79991 -1.20133 0
M  V30 388 C 36.9564 -0.807774 -3.2903 0
M  V30 389 C 35.5154 -0.501901 -3.73039 0
M  V30 390 C 34.6624 -1.03304 -2.57339 0
M  V30 391 H 37.6134 -0.998808 -1.23327 0
M  V30 392 H 37.6344 -0.10554 -3.80354 0
M  V30 393 H 37.1464 -1.88357 -3.39328 0
M  V30 394 H 35.2474 0.565128 -3.68289 0
M  V30 395 H 35.3604 -1.03497 -4.67787 0
M  V30 396 H 33.7244 -0.455339 -2.50597 0
M  V30 397 H 34.5074 -2.11496 -2.70415 0
M  V30 398 N 36.9525 1.47285 -0.560781 0
M  V30 399 C 38.2295 1.9558 0.0277798 0
M  V30 400 C 38.6095 1.5034 1.48192 0
M  V30 401 O 37.9575 0.743882 2.16052 0
M  V30 402 C 38.1675 3.48789 -0.121418 0
M  V30 403 C 39.5155 4.24594 0.0220912 0
M  V30 404 O 40.5395 3.56166 -0.0491439 0
M  V30 405 O 39.3985 5.46217 0.175958 0
M  V30 406 H 36.4925 0.824663 0.0621342 0
M  V30 407 H 39.0385 1.5767 -0.627556 0
M  V30 408 H 37.8105 3.74533 -1.13316 0
M  V30 409 H 37.4335 3.93473 0.571366 0
M  V30 410 N 38.4306 0.297415 1.54768 0
M  V30 411 C 39.7076 -0.365847 1.92148 0
M  V30 412 C 40.0876 -1.71975 1.22424 0
M  V30 413 O 39.4356 -2.25666 0.358739 0
M  V30 414 C 39.6456 -0.484056 3.45627 0
M  V30 415 C 40.9936 -0.756594 4.17805 0
M  V30 416 O 42.0176 -0.568007 3.51642 0
M  V30 417 O 40.8766 -1.11863 5.34929 0
M  V30 418 H 37.9706 -0.203919 0.801465 0
M  V30 419 H 40.5166 0.34521 1.66152 0
M  V30 420 H 39.2886 0.467865 3.88493 0
M  V30 421 H 38.9116 -1.24372 3.77647 0
M  V30 422 N 39.9087 -1.5758 0.0250728 0
M  V30 423 C 40.8387 -2.13007 -0.956575 0
M  V30 424 C 41.8197 -1.0452 -1.342 0
M  V30 425 O 43.0047 -1.32332 -1.42133 0
M  V30 426 C 40.1347 -2.65386 -2.24026 0
M  V30 427 C 39.0887 -3.78623 -1.99571 0
M  V30 428 C 38.4147 -4.17414 -3.3417 0
M  V30 429 C 39.7147 -5.04867 -1.33814 0
M  V30 430 H 41.4087 -2.9528 -0.494991 0
M  V30 431 H 38.9547 -1.42042 -0.236651 0
M  V30 432 H 40.9077 -3.02794 -2.93076 0
M  V30 433 H 39.6317 -1.80268 -2.72343 0
M  V30 434 H 38.2907 -3.41646 -1.32941 0
M  V30 435 H 37.9387 -3.29284 -3.80238 0
M  V30 436 H 37.6387 -4.93719 -3.18615 0
M  V30 437 H 39.1627 -4.57402 -4.04495 0
M  V30 438 H 40.5767 -5.39888 -1.92857 0
M  V30 439 H 38.9737 -5.86144 -1.28669 0
M  V30 440 H 40.0437 -4.83904 -0.310561 0
M  V30 441 N 41.3868 0.248026 -1.55636 0
M  V30 442 C 42.3368 1.30994 -1.86614 0
M  V30 443 C 43.3208 1.43543 -0.726918 0
M  V30 444 O 44.5128 1.46804 -0.988818 0
M  V30 445 C 41.6418 2.6656 -2.16335 0
M  V30 446 C 40.7278 2.58019 -3.36581 0
M  V30 447 N 41.1188 2.1911 -4.55878 0
M  V30 448 C 39.4168 2.89035 -3.39669 0
M  V30 449 C 40.1178 2.21174 -5.38012 0
M  V30 450 N 39.0938 2.60632 -4.77045 0
M  V30 451 H 42.8958 0.999583 -2.76379 0
M  V30 452 H 40.4098 0.456652 -1.55848 0
M  V30 453 H 42.4068 3.43194 -2.36692 0
M  V30 454 H 41.0668 2.98463 -1.27867 0
M  V30 455 H 42.0778 1.90672 -4.81523 0
M  V30 456 H 38.7548 3.25485 -2.61469 0
M  V30 457 H 40.1448 1.9344 -6.43452 0
M  V30 458 N 42.8649 1.48995 0.513639 0
M  V30 459 C 44.0949 1.61297 1.291 0
M  V30 460 C 44.5029 0.278656 1.87137 0
M  V30 461 O 43.8459 -0.744325 1.67945 0
M  V30 462 C 43.9079 2.61326 2.46879 0
M  V30 463 C 43.5719 4.05993 2.09807 0
M  V30 464 C 44.5689 4.93183 1.64519 0
M  V30 465 C 42.2539 4.51642 2.19829 0
M  V30 466 C 44.2479 6.24056 1.2974 0
M  V30 467 C 41.9349 5.82532 1.84662 0
M  V30 468 C 42.9329 6.68562 1.3969 0
M  V30 469 O 42.6209 7.97014 1.04992 0
M  V30 470 H 42.3529 0.546236 0.39825 0
M  V30 471 H 44.9069 1.95673 0.62459 0
M  V30 472 H 43.1369 2.22104 3.16554 0
M  V30 473 H 44.8259 2.6329 3.08923 0
M  V30 474 H 45.5919 4.59147 1.56233 0
M  V30 475 H 41.4709 3.84855 2.53786 0
M  V30 476 H 45.0149 6.91161 0.945659 0
M  V30 477 H 40.9119 6.16099 1.92594 0
M  V30 478 H 41.6799 8.09913 1.18249 0
M  V30 479 N 44.343 -0.763751 1.37857 0
M  V30 480 C 45.59 -1.52257 1.33506 0
M  V30 481 C 45.918 -1.94343 -0.078022 0
M  V30 482 O 45.173 -1.64958 -1.05297 0
M  V30 483 C 45.472 -2.79499 2.22745 0
M  V30 484 C 45.138 -2.56426 3.70886 0
M  V30 485 C 43.8 -2.49842 4.11257 0
M  V30 486 C 46.152 -2.36008 4.64704 0
M  V30 487 C 43.48 -2.20841 5.43549 0
M  V30 488 C 45.832 -2.0853 5.97242 0
M  V30 489 C 44.496 -2.00396 6.36709 0
M  V30 490 H 43.766 -0.557149 0.488534 0
M  V30 491 H 46.413 -0.879073 1.70131 0
M  V30 492 H 44.718 -3.48447 1.79142 0
M  V30 493 H 46.415 -3.37413 2.16688 0
M  V30 494 H 43.005 -2.62416 3.38874 0
M  V30 495 H 47.189 -2.40079 4.34368 0
M  V30 496 H 42.445 -2.13045 5.73081 0
M  V30 497 H 46.619 -1.91732 6.69486 0
M  V30 498 H 44.246 -1.77688 7.39142 0
M  V30 499 N 45.8211 -1.22559 -0.990812 0
M  V30 500 C 47.2371 -0.985996 -1.255 0
M  V30 501 C 47.4371 0.319173 -1.98956 0
M  V30 502 O 46.4931 1.04127 -2.3003 0
M  V30 503 C 47.8061 -2.18607 -2.06474 0
M  V30 504 C 49.3541 -2.22985 -2.19651 0
M  V30 505 C 49.8291 -3.4255 -3.04012 0
M  V30 506 N 51.3201 -3.42725 -3.11599 0
M  V30 507 C 52.0551 -4.31892 -3.7717 0
M  V30 508 N 51.5511 -5.31279 -4.44651 0
M  V30 509 N 53.3441 -4.19662 -3.73952 0
M  V30 510 H 45.4951 -2.06469 -0.49841 0
M  V30 511 H 47.7581 -0.904853 -0.282747 0
M  V30 512 H 47.4641 -3.13267 -1.59865 0
M  V30 513 H 47.3381 -2.18838 -3.07229 0
M  V30 514 H 49.7251 -1.28871 -2.65474 0
M  V30 515 H 49.8061 -2.26791 -1.18319 0
M  V30 516 H 49.4501 -4.36965 -2.58889 0
M  V30 517 H 49.3801 -3.35984 -4.0549 0
M  V30 518 H 51.8711 -2.70807 -2.63575 0
M  V30 519 H 52.1841 -5.95593 -4.92431 0
M  V30 520 H 50.5291 -5.3519 -4.43392 0
M  V30 521 H 53.7201 -3.41268 -3.20396 0
M  V30 522 H 53.8931 -4.89358 -4.24774 0
M  V30 523 N 47.2992 1.18797 -1.03562 0
M  V30 524 C 48.2622 2.20464 -0.626769 0
M  V30 525 C 49.2622 1.57721 0.313173 0
M  V30 526 O 50.4522 1.73917 0.0992615 0
M  V30 527 C 47.5842 3.40802 0.0818498 0
M  V30 528 H 48.7772 2.58149 -1.5264 0
M  V30 529 H 46.3302 1.32593 -0.827578 0
M  V30 530 H 47.0652 3.08642 0.995518 0
M  V30 531 H 46.8502 3.8758 -0.593652 0
M  V30 532 H 48.3402 4.16092 0.354584 0
M  V30 533 N 48.7773 0.814389 1.34928 0
M  V30 534 C 49.7093 0.187834 2.28429 0
M  V30 535 C 50.7223 -0.617374 1.5064 0
M  V30 536 O 51.9113 -0.448454 1.72775 0
M  V30 537 C 49.0113 -0.755962 3.30361 0
M  V30 538 C 48.1843 0.00456686 4.374 0
M  V30 539 C 47.2433 -0.858876 5.19143 0
M  V30 540 O 46.2693 -0.306968 5.68372 0
M  V30 541 N 47.4713 -2.17988 5.38016 0
M  V30 542 H 50.2363 0.991105 2.82838 0
M  V30 543 H 47.7973 0.670561 1.4736 0
M  V30 544 H 49.7893 -1.338 3.81942 0
M  V30 545 H 48.3593 -1.46001 2.7641 0
M  V30 546 H 47.5793 0.767865 3.86649 0
M  V30 547 H 48.8673 0.528422 5.06049 0
M  V30 548 H 48.2653 -2.65212 4.99679 0
M  V30 549 H 46.8223 -2.71098 5.92747 0
M  V30 550 N 50.2554 -1.46986 0.568584 0
M  V30 551 C 51.4834 -2.0683 0.0539956 0
M  V30 552 C 51.8984 -1.41953 -1.24478 0
M  V30 553 O 51.2554 -0.519933 -1.74937 0
M  V30 554 C 51.3064 -3.61254 -0.133362 0
M  V30 555 O 51.0274 -4.237 1.11399 0
M  V30 556 C 52.5284 -4.37992 -0.683927 0
M  V30 557 H 49.7484 -0.669058 0.0510141 0
M  V30 558 H 52.2924 -1.88824 0.785234 0
M  V30 559 H 50.4474 -3.78735 -0.81477 0
M  V30 560 H 50.8614 -5.16388 0.91888 0
M  V30 561 H 52.3354 -5.46684 -0.764263 0
M  V30 562 H 52.8124 -4.05058 -1.69778 0
M  V30 563 H 53.4184 -4.25283 -0.0378494 0
M  V30 564 N 51.7335 -0.305618 -1.54608 0
M  V30 565 C 52.9795 0.302746 -2.00528 0
M  V30 566 C 53.3125 1.53184 -1.19367 0
M  V30 567 O 52.5875 1.92598 -0.271321 0
M  V30 568 C 52.8705 0.654756 -3.54097 0
M  V30 569 C 52.7235 -0.583793 -4.45995 0
M  V30 570 C 54.0425 1.47947 -4.14487 0
M  V30 571 H 51.1615 0.108564 -0.72896 0
M  V30 572 H 53.8035 -0.418634 -1.85331 0
M  V30 573 H 51.9535 1.26935 -3.67178 0
M  V30 574 H 53.6255 -1.22224 -4.44814 0
M  V30 575 H 51.8685 -1.21615 -4.16404 0
M  V30 576 H 52.5395 -0.293287 -5.5122 0
M  V30 577 H 55.0155 0.96013 -4.04871 0
M  V30 578 H 53.8915 1.69454 -5.22088 0
M  V30 579 H 54.1525 2.47011 -3.66658 0
M  V30 580 N 53.2116 1.57565 -0.0334293 0
M  V30 581 C 54.4596 1.91598 0.642999 0
M  V30 582 C 54.7806 0.910847 1.7242 0
M  V30 583 O 54.0506 -0.0469931 1.95844 0
M  V30 584 H 52.6306 0.707228 0.240496 0
M  V30 585 H 55.2926 1.94726 -0.0822488 0
M  V30 586 H 54.3886 2.92336 1.09298 0
M  V30 587 N 54.6897 -0.239769 1.55765 0
M  V30 588 C 55.6367 -1.29696 1.90913 0
M  V30 589 C 56.6067 -1.47478 0.764164 0
M  V30 590 O 57.7917 -1.61345 1.01845 0
M  V30 591 C 54.9317 -2.64598 2.21544 0
M  V30 592 C 54.0447 -2.54765 3.48882 0
M  V30 593 C 53.1797 -3.82069 3.69049 0
M  V30 594 C 52.2187 -3.66883 4.89963 0
M  V30 595 N 51.3557 -4.86094 5.06614 0
M  V30 596 H 56.1957 -0.990224 2.81067 0
M  V30 597 H 53.7327 -0.477684 1.39128 0
M  V30 598 H 55.6907 -3.43132 2.3731 0
M  V30 599 H 54.3207 -2.93405 1.34585 0
M  V30 600 H 53.3727 -1.67763 3.41409 0
M  V30 601 H 54.6847 -2.39457 4.37563 0
M  V30 602 H 53.8387 -4.69046 3.84812 0
M  V30 603 H 52.5777 -4.00282 2.78614 0
M  V30 604 H 51.5827 -2.78289 4.74168 0
M  V30 605 H 52.8077 -3.50157 5.81865 0
M  V30 606 H 50.7537 -5.04655 4.19117 0
M  V30 607 H 50.6707 -4.73443 5.89396 0
M  V30 608 H 51.9387 -5.74549 5.26795 0
M  V30 609 N 56.1678 -1.49265 -0.50573 0
M  V30 610 C 57.4168 -1.57761 -1.25675 0
M  V30 611 C 57.7298 -0.267371 -1.93764 0
M  V30 612 O 58.9358 -0.230827 -2.70517 0
M  V30 613 C 57.3918 -2.78332 -2.28165 0
M  V30 614 C 56.9998 -4.16096 -1.66037 0
M  V30 615 C 58.7438 -2.96155 -3.04125 0
M  V30 616 C 56.6508 -5.27895 -2.6661 0
M  V30 617 H 55.5808 -0.587391 -0.472745 0
M  V30 618 H 58.2318 -1.75644 -0.53118 0
M  V30 619 H 56.6138 -2.53934 -3.03865 0
M  V30 620 H 57.7878 -4.50612 -0.963622 0
M  V30 621 H 56.1028 -4.03591 -1.02484 0
M  V30 622 H 58.6998 -3.76849 -3.79327 0
M  V30 623 H 59.0428 -2.06534 -3.61455 0
M  V30 624 H 59.5758 -3.2057 -2.35541 0
M  V30 625 H 56.3148 -6.1956 -2.14068 0
M  V30 626 H 55.8348 -4.97839 -3.34539 0
M  V30 627 H 57.5138 -5.57031 -3.29129 0
M  V30 628 N 57.6459 0.756429 -1.3826 0
M  V30 629 C 58.5789 1.87802 -1.29637 0
M  V30 630 C 59.5569 1.61667 -0.173939 0
M  V30 631 O 60.7409 1.85208 -0.350775 0
M  V30 632 C 57.8679 3.23354 -1.00797 0
M  V30 633 C 56.9139 3.68379 -2.14939 0
M  V30 634 S 57.7469 3.8025 -3.77054 0
M  V30 635 C 58.9029 5.18626 -3.50396 0
M  V30 636 H 59.1359 1.94829 -2.24564 0
M  V30 637 H 56.6689 0.919117 -1.24063 0
M  V30 638 H 58.6269 4.01637 -0.848413 0
M  V30 639 H 57.2879 3.14008 -0.0759369 0
M  V30 640 H 56.4809 4.66693 -1.90299 0
M  V30 641 H 56.0829 2.97242 -2.26988 0
M  V30 642 H 58.3749 6.04289 -3.06334 0
M  V30 643 H 59.3179 5.48286 -4.48094 0
M  V30 644 H 59.7259 4.87289 -2.84973 0
M  V30 645 N 59.124 1.23083 0.984299 0
M  V30 646 C 60.37 1.06214 1.72761 0
M  V30 647 C 60.703 -0.400584 1.90024 0
M  V30 648 O 59.978 -1.29672 1.44967 0
M  V30 649 C 60.261 1.78375 3.12817 0
M  V30 650 C 60.114 3.32296 3.03149 0
M  V30 651 C 61.433 1.54309 4.12161 0
M  V30 652 H 58.552 0.387251 0.627061 0
M  V30 653 H 61.194 1.51536 1.14616 0
M  V30 654 H 59.344 1.39848 3.62457 0
M  V30 655 H 61.016 3.8032 2.61064 0
M  V30 656 H 59.259 3.6153 2.39747 0
M  V30 657 H 59.93 3.77972 4.02295 0
M  V30 658 H 62.406 1.87791 3.71314 0
M  V30 659 H 61.282 2.07281 5.08258 0
M  V30 660 H 61.543 0.477572 4.39513 0
M  V30 661 N 60.6021 -1.18246 1.0419 0
M  V30 662 C 61.8481 -1.88536 0.747122 0
M  V30 663 C 62.1811 -1.80223 -0.723409 0
M  V30 664 O 61.4561 -1.20337 -1.52804 0
M  V30 665 C 61.7391 -3.38968 1.21544 0
M  V30 666 C 61.5921 -3.56084 2.74816 0
M  V30 667 C 62.9111 -4.32648 0.806482 0
M  V30 668 H 60.0301 -0.684619 0.272883 0
M  V30 669 H 62.6721 -1.39113 1.29413 0
M  V30 670 H 60.8221 -3.8119 0.750081 0
M  V30 671 H 62.4941 -3.22946 3.29399 0
M  V30 672 H 60.7371 -2.98699 3.14582 0
M  V30 673 H 61.4081 -4.61639 3.02644 0
M  V30 674 H 63.8841 -3.98211 1.20695 0
M  V30 675 H 62.7601 -5.36462 1.1619 0
M  V30 676 H 63.0211 -4.41146 -0.29029 0
M  V30 677 N 62.0802 -0.821533 -1.34494 0
M  V30 678 C 63.3282 -0.408139 -1.97936 0
M  V30 679 C 63.6492 1.03193 -1.65457 0
M  V30 680 O 62.9192 1.71622 -0.944595 0
M  V30 681 H 61.4992 -0.147928 -0.732206 0
M  V30 682 H 64.1612 -1.05067 -1.64155 0
M  V30 683 H 63.2572 -0.52601 -3.07635 0
M  V30 684 N 63.5583 1.46682 -0.576371 0
M  V30 685 C 64.9743 1.57822 -0.237562 0
M  V30 686 C 65.1743 1.57237 1.26011 0
M  V30 687 O 64.2303 1.48596 2.04146 0
M  V30 688 C 65.5433 2.87499 -0.881168 0
M  V30 689 C 67.0913 3.01119 -0.85417 0
M  V30 690 C 67.5663 4.33524 -1.4772 0
M  V30 691 N 69.0573 4.40207 -1.44125 0
M  V30 692 C 69.7923 5.4126 -1.89276 0
M  V30 693 N 69.2883 6.49021 -2.42371 0
M  V30 694 N 71.0813 5.32422 -1.80231 0
M  V30 695 H 63.2323 1.45306 -1.54919 0
M  V30 696 H 65.4953 0.692733 -0.647167 0
M  V30 697 H 65.2013 2.9372 -1.93447 0
M  V30 698 H 65.0753 3.75224 -0.385592 0
M  V30 699 H 67.4623 2.94485 0.190491 0
M  V30 700 H 67.5433 2.14887 -1.3877 0
M  V30 701 H 67.1873 4.40916 -2.52103 0
M  V30 702 H 67.1173 5.1852 -0.918947 0
M  V30 703 H 69.6083 3.62931 -1.05307 0
M  V30 704 H 69.9213 7.2233 -2.74698 0
M  V30 705 H 68.2663 6.49858 -2.46393 0
M  V30 706 H 71.4573 4.47137 -1.38514 0
M  V30 707 H 71.6303 6.11034 -2.15735 0
M  V30 708 N 65.0364 0.313813 1.54444 0
M  V30 709 C 66.4524 -0.0391619 1.59552 0
M  V30 710 C 66.6524 -1.51322 1.33056 0
M  V30 711 O 65.7084 -2.26782 1.11022 0
M  V30 712 C 67.0214 0.370302 2.98411 0
M  V30 713 C 68.5694 0.320139 3.11358 0
M  V30 714 C 69.0444 0.704617 4.52547 0
M  V30 715 N 70.5354 0.657645 4.58508 0
M  V30 716 C 71.2704 0.927453 5.6585 0
M  V30 717 N 70.7664 1.26389 6.81174 0
M  V30 718 N 72.5594 0.853662 5.5558 0
M  V30 719 H 64.7104 1.27433 1.69925 0
M  V30 720 H 66.9734 0.517511 0.794284 0
M  V30 721 H 66.6794 1.39694 3.22767 0
M  V30 722 H 66.5534 -0.269619 3.76235 0
M  V30 723 H 68.9404 -0.697275 2.86744 0
M  V30 724 H 69.0214 0.99486 2.35661 0
M  V30 725 H 68.6654 1.7199 4.77893 0
M  V30 726 H 68.5954 0.00768843 5.26599 0
M  V30 727 H 71.0864 0.409067 3.75679 0
M  V30 728 H 71.3994 1.4554 7.58972 0
M  V30 729 H 69.7444 1.30206 6.82694 0
M  V30 730 H 72.9354 0.590383 4.64362 0
M  V30 731 H 73.1084 1.0673 6.3915 0
M  V30 732 N 66.5145 -1.57545 0.0417849 0
M  V30 733 C 67.7425 -1.96624 -0.643928 0
M  V30 734 C 68.1575 -0.918897 -1.64929 0
M  V30 735 O 67.5145 0.0979323 -1.82237 0
M  V30 736 C 67.5655 -3.35781 -1.33914 0
M  V30 737 O 67.2865 -4.365 -0.374048 0
M  V30 738 C 68.7875 -3.89566 -2.1155 0
M  V30 739 H 66.0075 -0.647316 -0.176702 0
M  V30 740 H 68.5515 -2.04229 0.105304 0
M  V30 741 H 66.7065 -3.29357 -2.03968 0
M  V30 742 H 67.1205 -5.17248 -0.869179 0
M  V30 743 H 68.5945 -4.89242 -2.55628 0
M  V30 744 H 69.0715 -3.24488 -2.9598 0
M  V30 745 H 69.6775 -3.99298 -1.46427 0
M  V30 746 N 67.9926 0.231505 -1.5589 0
M  V30 747 C 69.2226 0.973092 -1.82248 0
M  V30 748 C 69.6306 1.78845 -0.617328 0
M  V30 749 O 68.9736 1.78752 0.423499 0
M  V30 750 C 69.0356 1.94732 -3.02192 0
M  V30 751 C 68.6996 1.31743 -4.37599 0
M  V30 752 C 69.6966 0.712238 -5.14998 0
M  V30 753 C 67.3816 1.33218 -4.84312 0
M  V30 754 C 69.3756 0.130195 -6.37267 0
M  V30 755 C 67.0626 0.746286 -6.06526 0
M  V30 756 C 68.0606 0.146337 -6.82843 0
M  V30 757 O 67.7486 -0.430465 -8.02747 0
M  V30 758 H 67.4806 0.29125 -0.61004 0
M  V30 759 H 70.0346 0.254915 -2.03812 0
M  V30 760 H 68.2646 2.70422 -2.76422 0
M  V30 761 H 69.9536 2.55362 -3.15508 0
M  V30 762 H 70.7196 0.69324 -4.8002 0
M  V30 763 H 66.5986 1.78854 -4.24891 0
M  V30 764 H 70.1426 -0.33871 -6.96777 0
M  V30 765 H 66.0396 0.762663 -6.40979 0
M  V30 766 H 66.8076 -0.323818 -8.17859 0
M  V30 767 N 69.4707 1.49531 0.497807 0
M  V30 768 C 70.3807 1.69176 1.62532 0
M  V30 769 C 71.3967 0.5744 1.64246 0
M  V30 770 O 72.5727 0.849497 1.82608 0
M  V30 771 C 69.6377 1.75695 2.98885 0
M  V30 772 C 68.6987 2.9929 3.07773 0
M  V30 773 C 67.9317 3.05488 4.37622 0
M  V30 774 O 68.1547 2.19192 5.26603 0
M  V30 775 O 67.0887 3.9798 4.51548 0
M  V30 776 H 70.9147 2.647 1.48887 0
M  V30 777 H 68.4997 1.3331 0.674441 0
M  V30 778 H 70.3817 1.82317 3.79919 0
M  V30 779 H 69.0567 0.8335 3.12785 0
M  V30 780 H 67.9637 2.98183 2.25915 0
M  V30 781 H 69.2967 3.91125 2.98801 0
M  V30 782 N 70.9488 -0.749086 1.3866 0
M  V30 783 C 72.1738 -1.54344 1.38538 0
M  V30 784 C 72.5988 -1.88088 -0.0216655 0
M  V30 785 O 71.9568 -1.50899 -1.00494 0
M  V30 786 C 72.0048 -2.8164 2.25192 0
M  V30 787 O 71.1088 -3.7698 1.67212 0
M  V30 788 H 70.4498 -0.466654 0.472367 0
M  V30 789 H 72.9798 -0.925355 1.82478 0
M  V30 790 H 72.9898 -3.30519 2.3921 0
M  V30 791 H 71.6648 -2.56411 3.27454 0
M  V30 792 H 70.2418 -3.35699 1.6236 0
M  V30 793 N 72.4269 -1.23603 -0.977757 0
M  V30 794 C 73.6739 -1.06971 -1.71941 0
M  V30 795 C 74.0019 0.393009 -1.90488 0
M  V30 796 O 73.2569 1.30719 -1.4564 0
M  V30 797 C 73.5559 -1.7433 -3.11999 0
M  V30 798 C 73.2219 -3.24252 -3.13323 0
M  V30 799 C 71.8839 -3.65156 -3.13392 0
M  V30 800 C 74.2359 -4.20141 -3.08433 0
M  V30 801 C 71.5639 -5.00403 -3.0629 0
M  V30 802 C 73.9159 -5.55384 -3.02873 0
M  V30 803 C 72.5799 -5.95647 -3.01265 0
M  V30 804 H 71.8499 -0.391433 -0.629175 0
M  V30 805 H 74.4969 -1.53572 -1.14403 0
M  V30 806 H 72.8019 -1.20096 -3.7294 0
M  V30 807 H 74.4989 -1.58936 -3.68158 0
M  V30 808 H 71.0889 -2.91692 -3.14029 0
M  V30 809 H 75.2729 -3.89547 -3.07517 0
M  V30 810 H 70.5289 -5.3081 -3.03399 0
M  V30 811 H 74.7029 -6.29398 -2.98046 0
M  V30 812 H 72.3299 -7.0041 -2.95516 0
M  V30 813 N 73.905 1.17692 -1.04816 0
M  V30 814 C 75.316 1.69501 -0.782698 0
M  V30 815 C 75.667 1.83456 0.695577 0
M  V30 816 O 74.792 1.51942 1.54086 0
M  V30 817 C 75.387 3.07874 -1.41419 0
M  V30 818 C 73.946 3.56864 -1.19686 0
M  V30 819 C 73.093 2.3322 -1.50012 0
M  V30 820 H 76.044 1.02262 -1.2136 0
M  V30 821 H 76.065 3.71528 -0.821428 0
M  V30 822 H 75.577 2.97685 -2.49009 0
M  V30 823 H 73.678 3.72337 -0.140043 0
M  V30 824 H 73.791 4.39851 -1.89916 0
M  V30 825 H 72.155 2.37501 -0.920071 0
M  V30 826 H 72.938 2.25644 -2.58727 0
M  V30 827 N 75.3831 0.828654 1.34056 0
M  V30 828 C 76.3301 0.252567 2.29414 0
M  V30 829 C 77.3001 -0.62588 1.53857 0
M  V30 830 O 78.4851 -0.566312 1.82202 0
M  V30 831 C 75.6251 -0.574831 3.40279 0
M  V30 832 C 74.7381 0.326499 4.30764 0
M  V30 833 C 73.8731 -0.511016 5.28736 0
M  V30 834 C 72.9121 0.389342 6.1086 0
M  V30 835 N 72.0491 -0.409439 7.00905 0
M  V30 836 H 76.8891 1.07108 2.78086 0
M  V30 837 H 74.4261 0.539677 1.36843 0
M  V30 838 H 76.3841 -1.06992 4.03248 0
M  V30 839 H 75.0141 -1.35841 2.92826 0
M  V30 840 H 74.0661 0.939837 3.68607 0
M  V30 841 H 75.3781 1.01857 4.88289 0
M  V30 842 H 74.5321 -1.07035 5.97184 0
M  V30 843 H 73.2711 -1.23657 4.71763 0
M  V30 844 H 72.2761 0.960769 5.4134 0
M  V30 845 H 73.5011 1.1131 6.69916 0
M  V30 846 H 71.4471 -1.11856 6.46393 0
M  V30 847 H 71.3641 0.224126 7.55668 0
M  V30 848 H 72.6321 -0.951336 7.73673 0
M  V30 849 N 76.8612 -1.46375 0.584142 0
M  V30 850 C 78.2772 -1.57694 0.245929 0
M  V30 851 C 78.4772 -1.57903 -1.25175 0
M  V30 852 O 77.5332 -1.49676 -2.03355 0
M  V30 853 C 78.8462 -2.87028 0.896402 0
M  V30 854 C 80.3942 -3.00662 0.870127 0
M  V30 855 C 80.8692 -4.32734 1.50017 0
M  V30 856 N 82.3602 -4.39436 1.46458 0
M  V30 857 C 83.0952 -5.40248 1.92144 0
M  V30 858 N 82.5912 -6.47726 2.4581 0
M  V30 859 N 84.3842 -5.31459 1.83052 0
M  V30 860 H 76.5352 -1.44483 1.55687 0
M  V30 861 H 78.7982 -0.689291 0.650831 0
M  V30 862 H 78.5042 -2.9269 1.95002 0
M  V30 863 H 78.3782 -3.75014 0.405486 0
M  V30 864 H 80.7652 -2.94581 -0.174871 0
M  V30 865 H 80.8462 -2.14148 1.39908 0
M  V30 866 H 80.4902 -4.39573 2.54437 0
M  V30 867 H 80.4202 -5.18025 0.946432 0
M  V30 868 H 82.9112 -3.62367 1.07231 0
M  V30 869 H 83.2242 -7.20863 2.78525 0
M  V30 870 H 81.5692 -6.48542 2.49836 0
M  V30 871 H 84.7602 -4.46396 1.40883 0
M  V30 872 H 84.9332 -6.09881 2.18973 0
M  V30 873 N 78.3393 -0.321999 -1.54275 0
M  V30 874 C 79.7503 0.166384 -1.85957 0
M  V30 875 C 80.1013 1.51747 -1.24367 0
M  V30 876 O 79.2263 2.09317 -0.549124 0
M  V30 877 C 79.8213 0.308681 -3.37391 0
M  V30 878 C 78.3803 0.741286 -3.69028 0
M  V30 879 C 77.5273 -0.137937 -2.76957 0
M  V30 880 H 80.4783 -0.542335 -1.49146 0
M  V30 881 H 80.4993 1.13984 -3.63026 0
M  V30 882 H 80.0113 -0.674809 -3.82188 0
M  V30 883 H 78.1123 1.73458 -3.29762 0
M  V30 884 H 78.2253 0.546118 -4.75977 0
M  V30 885 H 76.5893 0.386251 -2.51754 0
M  V30 886 H 77.3723 -1.11816 -3.2458 0
M  V30 887 N 79.8174 1.5752 -0.0501392 0
M  V30 888 C 80.7474 2.14502 0.922566 0
M  V30 889 C 81.7284 1.06642 1.3252 0
M  V30 890 O 82.9134 1.34577 1.4001 0
M  V30 891 C 80.0434 2.68916 2.19776 0
M  V30 892 C 78.9974 3.8175 1.93523 0
M  V30 893 C 78.3234 4.22677 3.27487 0
M  V30 894 C 79.6234 5.06932 1.25765 0
M  V30 895 H 81.3174 2.9603 0.447952 0
M  V30 896 H 78.8634 1.42401 0.214024 0
M  V30 897 H 80.8164 3.07419 2.88222 0
M  V30 898 H 79.5404 1.84578 2.69441 0
M  V30 899 H 78.1994 3.43718 1.27489 0
M  V30 900 H 77.8474 3.35291 3.74952 0
M  V30 901 H 77.5474 4.98725 3.1072 0
M  V30 902 H 79.0714 4.63779 3.97166 0
M  V30 903 H 80.4854 5.42888 1.84244 0
M  V30 904 H 78.8824 5.88116 1.19328 0
M  V30 905 H 79.9524 4.84337 0.233536 0
M  V30 906 N 81.2955 -0.223234 1.56011 0
M  V30 907 C 82.7065 -0.790368 1.69145 0
M  V30 908 C 83.0575 -1.85055 0.651845 0
M  V30 909 O 82.1825 -2.15498 -0.197359 0
M  V30 910 C 82.7775 -1.4404 3.06656 0
M  V30 911 C 81.3365 -1.95494 3.2165 0
M  V30 912 C 80.4835 -0.814506 2.65068 0
M  V30 913 H 83.4345 0.00139011 1.587 0
M  V30 914 H 83.4555 -2.30916 3.0242 0
M  V30 915 H 82.9675 -0.668543 3.82298 0
M  V30 916 H 81.0685 -2.75487 2.50874 0
M  V30 917 H 81.1815 -2.13607 4.28846 0
M  V30 918 H 79.5455 -1.22137 2.23505 0
M  V30 919 H 80.3285 -0.0553515 3.43255 0
M  V30 920 N 82.7736 -1.49793 -0.48987 0
M  V30 921 C 83.6836 -1.70036 -1.61632 0
M  V30 922 C 84.6996 -0.583102 -1.63939 0
M  V30 923 O 85.8756 -0.859169 -1.82154 0
M  V30 924 C 82.9406 -1.77277 -2.97949 0
M  V30 925 C 82.0016 -3.00918 -3.06181 0
M  V30 926 C 81.2346 -3.07804 -4.35996 0
M  V30 927 O 81.4576 -2.21982 -5.25433 0
M  V30 928 O 80.3916 -4.00369 -4.49431 0
M  V30 929 H 84.2176 -2.65486 -1.47482 0
M  V30 930 H 81.8026 -1.33666 -0.667362 0
M  V30 931 H 83.6846 -1.84329 -3.78947 0
M  V30 932 H 82.3596 -0.850076 -3.12339 0
M  V30 933 H 81.2666 -2.99377 -2.2433 0
M  V30 934 H 82.5996 -3.92704 -2.96723 0
M  V30 935 N 84.2517 0.741722 -1.39055 0
M  V30 936 C 85.6677 1.04638 -1.20512 0
M  V30 937 C 85.8677 2.01405 -0.0620218 0
M  V30 938 O 84.9237 2.45547 0.588457 0
M  V30 939 C 86.2367 1.6151 -2.53643 0
M  V30 940 C 87.7847 1.73623 -2.6043 0
M  V30 941 C 88.2597 2.33906 -3.93767 0
M  V30 942 N 89.7507 2.41323 -3.9537 0
M  V30 943 C 90.4857 2.88888 -4.95309 0
M  V30 944 N 89.9817 3.36401 -6.05645 0
M  V30 945 N 91.7747 2.88037 -4.82692 0
M  V30 946 H 83.9257 0.0998155 -2.12165 0
M  V30 947 H 86.1887 0.106907 -0.941953 0
M  V30 948 H 85.8947 0.978739 -3.37807 0
M  V30 949 H 85.7687 2.60411 -2.72885 0
M  V30 950 H 88.1557 2.36384 -1.76655 0
M  V30 951 H 88.2367 0.733945 -2.45045 0
M  V30 952 H 87.8807 1.71776 -4.7797 0
M  V30 953 H 87.8107 3.34799 -4.06469 0
M  V30 954 H 90.3017 2.07734 -3.15682 0
M  V30 955 H 90.6147 3.71186 -6.77821 0
M  V30 956 H 88.9597 3.34427 -6.09248 0
M  V30 957 H 92.1507 2.50237 -3.95599 0
M  V30 958 H 92.3237 3.24792 -5.60726 0
M  V30 959 N 85.7298 1.2412 0.971189 0
M  V30 960 C 86.9578 1.10575 1.74874 0
M  V30 961 C 87.3728 -0.342017 1.85676 0
M  V30 962 O 86.7298 -1.23617 1.34258 0
M  V30 963 C 86.7808 1.73579 3.171 0
M  V30 964 O 86.5018 3.12695 3.06844 0
M  V30 965 C 88.0028 1.65598 4.11208 0
M  V30 966 H 85.2228 0.386504 0.548503 0
M  V30 967 H 87.7668 1.64156 1.21955 0
M  V30 968 H 85.9218 1.24009 3.67016 0
M  V30 969 H 86.3358 3.43412 3.96445 0
M  V30 970 H 87.8098 2.1437 5.08674 0
M  V30 971 H 88.2868 0.616532 4.34851 0
M  V30 972 H 88.8928 2.14578 3.67201 0
M  V30 973 N 87.2079 -1.17134 1.05439 0
M  V30 974 C 88.1559 -2.23289 0.651511 0
M  V30 975 C 89.1499 -1.66186 -0.328411 0
M  V30 976 O 90.3559 -1.78949 -0.194206 0
M  V30 977 H 86.7309 -0.726938 0.192523 0
M  V30 978 H 88.7019 -2.54565 1.55689 0
M  V30 979 C 87.4509 -3.47671 0.0448436 0
M  V30 980 H 86.7739 -3.91918 0.78996 0
M  V30 981 H 88.2139 -4.2353 -0.19964 0
M  V30 982 C 86.6729 -3.14453 -1.20918 0
M  V30 983 O 87.2029 -3.29459 -2.29825 0
M  V30 984 N 85.4089 -2.68657 -1.10779 0
M  V30 985 H 84.9559 -2.56646 -0.221526 0
M  V30 986 H 84.9139 -2.46804 -1.9477 0
M  V30 987 N 88.686 -0.835752 -1.33615 0
M  V30 988 C 89.932 -0.430596 -1.98176 0
M  V30 989 C 90.265 1.00684 -1.66061 0
M  V30 990 O 89.54 1.70339 -0.938877 0
M  V30 991 C 89.823 -0.648065 -3.5422 0
M  V30 992 C 89.676 -2.13255 -3.96033 0
M  V30 993 C 90.995 -0.0922113 -4.40003 0
M  V30 994 H 88.114 -0.157924 -0.719881 0
M  V30 995 H 90.756 -1.05069 -1.58305 0
M  V30 996 H 88.906 -0.120237 -3.88314 0
M  V30 997 H 90.578 -2.725 -3.72211 0
M  V30 998 H 88.821 -2.61823 -3.45878 0
M  V30 999 H 89.492 -2.23547 -5.04708 0
M  V30 1000 H 91.968 -0.543343 -4.12537 0
M  V30 1001 H 90.844 -0.274083 -5.48215 0
M  V30 1002 H 91.105 1.00378 -4.30554 0
M  V30 1003 N 90.1641 1.46063 -0.591896 0
M  V30 1004 C 91.4101 2.02638 -0.0811191 0
M  V30 1005 C 91.7431 1.4613 1.27905 0
M  V30 1006 O 91.0181 0.629908 1.84017 0
M  V30 1007 C 91.3011 3.60091 -0.0252436 0
M  V30 1008 C 91.1541 4.26965 -1.41496 0
M  V30 1009 C 92.4731 4.3496 0.670685 0
M  V30 1010 H 89.5921 0.73635 -0.0309524 0
M  V30 1011 H 92.2341 1.741 -0.760859 0
M  V30 1012 H 90.3841 3.84535 0.553624 0
M  V30 1013 H 92.0561 4.13756 -2.0397 0
M  V30 1014 H 90.2991 3.85971 -1.98011 0
M  V30 1015 H 90.9701 5.35781 -1.32825 0
M  V30 1016 H 93.4461 4.15716 0.178825 0
M  V30 1017 H 92.3221 5.44686 0.678837 0
M  V30 1018 H 92.5831 4.06685 1.73379 0
M  V30 1019 N 91.6422 0.330177 1.54103 0
M  V30 1020 C 92.5722 -0.525353 2.27513 0
M  V30 1021 C 93.5532 -1.11383 1.2856 0
M  V30 1022 O 94.7382 -1.13773 1.57383 0
M  V30 1023 C 91.8682 -1.6831 3.03791 0
M  V30 1024 C 90.8222 -1.2236 4.10137 0
M  V30 1025 C 90.1482 -2.46882 4.74293 0
M  V30 1026 C 91.4482 -0.333697 5.21233 0
M  V30 1027 H 93.1422 0.087013 2.99274 0
M  V30 1028 H 90.6882 0.0432893 1.43935 0
M  V30 1029 H 92.6412 -2.28795 3.5388 0
M  V30 1030 H 91.3652 -2.32216 2.29659 0
M  V30 1031 H 90.0242 -0.64165 3.60941 0
M  V30 1032 H 89.6722 -3.09165 3.96769 0
M  V30 1033 H 89.3722 -2.16825 5.46133 0
M  V30 1034 H 90.8962 -3.08117 5.27159 0
M  V30 1035 H 92.3102 -0.845013 5.67038 0
M  V30 1036 H 90.7072 -0.125612 5.99969 0
M  V30 1037 H 91.7772 0.633724 4.80741 0
M  V30 1038 N 93.1203 -1.57491 0.0584922 0
M  V30 1039 C 94.3483 -1.97296 -0.623037 0
M  V30 1040 C 94.7633 -0.936338 -1.63946 0
M  V30 1041 O 94.1203 0.0785981 -1.82331 0
M  V30 1042 C 94.1713 -3.37183 -1.30345 0
M  V30 1043 O 93.8923 -4.36872 -0.32773 0
M  V30 1044 C 95.3933 -3.91788 -2.07406 0
M  V30 1045 H 92.6133 -0.649153 -0.169826 0
M  V30 1046 H 95.1573 -2.04106 0.12696 0
M  V30 1047 H 93.3123 -3.31502 -2.00463 0
M  V30 1048 H 93.7263 -5.18141 -0.814269 0
M  V30 1049 H 95.2003 -4.91926 -2.50425 0
M  V30 1050 H 95.6773 -3.27609 -2.92521 0
M  V30 1051 H 96.2833 -4.00829 -1.42184 0
M  V30 1052 N 94.5984 0.214957 -1.56127 0
M  V30 1053 C 95.5484 1.27006 -1.8935 0
M  V30 1054 C 96.5324 1.41969 -0.757202 0
M  V30 1055 O 97.7244 1.44673 -1.01973 0
M  V30 1056 C 94.8534 2.61911 -2.2194 0
M  V30 1057 C 93.9394 2.50822 -3.41978 0
M  V30 1058 N 94.3304 2.09391 -4.60423 0
M  V30 1059 C 92.6284 2.81765 -3.45723 0
M  V30 1060 C 93.3294 2.09712 -5.42582 0
M  V30 1061 N 92.3054 2.50454 -4.82466 0
M  V30 1062 H 96.1074 0.940734 -2.78437 0
M  V30 1063 H 93.6214 0.423492 -1.56781 0
M  V30 1064 H 95.6184 3.38096 -2.43919 0
M  V30 1065 H 94.2784 2.95684 -1.34169 0
M  V30 1066 H 95.2894 1.80416 -4.85459 0
M  V30 1067 H 91.9664 3.19865 -2.68314 0
M  V30 1068 H 93.3564 1.79748 -6.4741 0
M  V30 1069 N 96.0765 1.50051 0.48192 0
M  V30 1070 C 97.0085 1.64263 1.59844 0
M  V30 1071 C 98.0215 0.52451 1.54119 0
M  V30 1072 O 99.2105 0.797293 1.59704 0
M  V30 1073 C 96.3105 1.60102 2.98698 0
M  V30 1074 C 95.4835 2.87767 3.29407 0
M  V30 1075 C 94.5425 2.76397 4.47762 0
M  V30 1076 O 93.5685 3.50348 4.48603 0
M  V30 1077 N 94.7705 1.89222 5.48794 0
M  V30 1078 H 97.5355 2.60566 1.48073 0
M  V30 1079 H 95.0965 1.47379 0.670149 0
M  V30 1080 H 97.0885 1.50123 3.75826 0
M  V30 1081 H 95.6585 0.715798 3.04294 0
M  V30 1082 H 94.8785 3.11954 2.40994 0
M  V30 1083 H 96.1665 3.72365 3.4673 0
M  V30 1084 H 95.5645 1.28434 5.50928 0
M  V30 1085 H 94.1215 1.85154 6.24949 0
M  V30 1086 N 97.5546 -0.734337 1.39446 0
M  V30 1087 C 98.4646 -1.87879 1.40495 0
M  V30 1088 C 99.4806 -1.714 0.299672 0
M  V30 1089 O 100.657 -1.93991 0.541249 0
M  V30 1090 C 97.7216 -3.23477 1.24754 0
M  V30 1091 C 96.7826 -3.52344 2.45259 0
M  V30 1092 C 96.0156 -4.81473 2.30259 0
M  V30 1093 O 96.2386 -5.55237 1.30643 0
M  V30 1094 O 95.1726 -5.10254 3.19256 0
M  V30 1095 H 98.9986 -1.89949 2.36966 0
M  V30 1096 H 96.5836 -0.882243 1.20569 0
M  V30 1097 H 98.4656 -4.04509 1.18111 0
M  V30 1098 H 97.1406 -3.22176 0.313781 0
M  V30 1099 H 96.0476 -2.71396 2.57478 0
M  V30 1100 H 97.3806 -3.58426 3.37331 0
M  V30 1101 N 99.0327 -1.24633 -0.964593 0
M  V30 1102 C 100.31 -0.995809 -1.68354 0
M  V30 1103 C 100.69 0.480964 -2.05548 0
M  V30 1104 O 100.038 1.45599 -1.76105 0
M  V30 1105 C 100.248 -1.92177 -2.91323 0
M  V30 1106 C 101.596 -2.19446 -3.63495 0
M  V30 1107 O 102.62 -1.89855 -3.01386 0
M  V30 1108 O 101.479 -2.69714 -4.75307 0
M  V30 1109 H 98.5727 -0.376854 -0.736146 0
M  V30 1110 H 101.119 -1.35745 -1.0184 0
M  V30 1111 H 99.8907 -2.91938 -2.60553 0
M  V30 1112 H 99.5137 -1.56349 -3.65569 0
M  V30 1113 N 100.511 1.16574 -1.06058 0
M  V30 1114 C 101.741 1.90675 -0.795397 0
M  V30 1115 C 102.149 1.77547 0.653735 0
M  V30 1116 O 101.492 1.11611 1.45907 0
M  V30 1117 C 101.554 3.42011 -1.10764 0
M  V30 1118 C 101.218 3.78924 -2.55471 0
M  V30 1119 C 102.215 3.81042 -3.53699 0
M  V30 1120 C 99.8998 4.09626 -2.90708 0
M  V30 1121 C 101.894 4.13346 -4.85205 0
M  V30 1122 C 99.5808 4.41597 -4.22416 0
M  V30 1123 C 100.579 4.43436 -5.19474 0
M  V30 1124 O 100.267 4.74649 -6.48817 0
M  V30 1125 H 99.9988 0.611554 -0.288058 0
M  V30 1126 H 102.553 1.48711 -1.41683 0
M  V30 1127 H 100.783 3.84312 -0.429128 0
M  V30 1128 H 102.472 3.97384 -0.827077 0
M  V30 1129 H 103.238 3.57437 -3.27817 0
M  V30 1130 H 99.1168 4.07361 -2.15819 0
M  V30 1131 H 102.661 4.14696 -5.60957 0
M  V30 1132 H 98.5578 4.64667 -4.48056 0
M  V30 1133 H 99.3258 4.9247 -6.5377 0
M  V30 1134 N 101.989 0.842826 1.3317 0
M  V30 1135 C 102.921 0.236245 2.27979 0
M  V30 1136 C 103.934 -0.585282 1.51915 0
M  V30 1137 O 105.123 -0.411705 1.73687 0
M  V30 1138 C 102.223 -0.685717 3.3189 0
M  V30 1139 C 101.396 0.0973448 4.37292 0
M  V30 1140 C 100.455 -0.748565 5.20848 0
M  V30 1141 O 99.4809 -0.186339 5.68895 0
M  V30 1142 N 100.683 -2.06527 5.42519 0
M  V30 1143 H 103.448 1.05088 2.80672 0
M  V30 1144 H 101.009 0.701667 1.45905 0
M  V30 1145 H 103.001 -1.25669 3.84694 0
M  V30 1146 H 101.571 -1.40105 2.79445 0
M  V30 1147 H 100.791 0.849706 3.84933 0
M  V30 1148 H 102.079 0.635643 5.04814 0
M  V30 1149 H 101.477 -2.54554 5.05192 0
M  V30 1150 H 100.034 -2.58464 5.98364 0
M  V30 1151 N 103.467 -1.45747 0.599634 0
M  V30 1152 C 104.43 -2.28917 -0.113835 0
M  V30 1153 C 105.43 -1.3933 -0.802729 0
M  V30 1154 O 106.62 -1.61534 -0.652103 0
M  V30 1155 C 103.752 -3.20152 -1.17114 0
M  V30 1156 H 104.945 -2.93478 0.617289 0
M  V30 1157 H 102.498 -1.52137 0.358327 0
M  V30 1158 H 103.233 -2.60374 -1.93329 0
M  V30 1159 H 103.018 -3.86133 -0.681468 0
M  V30 1160 H 104.508 -3.82708 -1.67105 0
M  V30 1161 N 104.945 -0.338344 -1.53925 0
M  V30 1162 C 105.877 0.555117 -2.22376 0
M  V30 1163 C 106.89 1.06812 -1.22862 0
M  V30 1164 O 108.079 0.979163 -1.49247 0
M  V30 1165 C 105.179 1.77609 -2.88631 0
M  V30 1166 C 104.352 1.39927 -4.14414 0
M  V30 1167 C 103.411 2.47936 -4.64127 0
M  V30 1168 O 102.437 2.11461 -5.28463 0
M  V30 1169 N 103.639 3.79107 -4.39612 0
M  V30 1170 H 106.404 -0.0310778 -2.99684 0
M  V30 1171 H 103.965 -0.162226 -1.61085 0
M  V30 1172 H 105.957 2.49287 -3.18807 0
M  V30 1173 H 104.527 2.26978 -2.14941 0
M  V30 1174 H 103.747 0.513481 -3.90841 0
M  V30 1175 H 105.035 1.12341 -4.96243 0
M  V30 1176 H 104.433 4.11531 -3.88148 0
M  V30 1177 H 102.99 4.4697 -4.74406 0
M  V30 1178 N 106.423 1.57458 -0.0668435 0
M  V30 1179 C 107.671 1.92919 0.602214 0
M  V30 1180 C 107.992 0.947215 1.70449 0
M  V30 1181 O 107.262 -0.00544117 1.95899 0
M  V30 1182 H 105.842 0.71217 0.22544 0
M  V30 1183 H 108.504 1.94508 -0.123535 0
M  V30 1184 H 107.6 2.94589 1.03073 0
M  V30 1185 N 107.901 -0.206675 1.56239 0
M  V30 1186 C 108.864 -1.23976 1.92776 0
M  V30 1187 C 109.864 -1.39041 0.807729 0
M  V30 1188 O 111.054 -1.37051 1.0753 0
M  V30 1189 C 108.186 -2.61112 2.19165 0
M  V30 1190 H 109.379 -0.927764 2.85189 0
M  V30 1191 H 106.932 -0.447718 1.4975 0
M  V30 1192 H 107.667 -2.97386 1.29352 0
M  V30 1193 H 107.452 -2.51552 3.00772 0
M  V30 1194 H 108.942 -3.35633 2.48476 0
M  V30 1195 N 109.379 -1.50304 -0.473955 0
M  V30 1196 C 110.625 -1.61389 -1.22806 0
M  V30 1197 C 110.958 -0.311955 -1.91678 0
M  V30 1198 O 110.233 0.686384 -1.81986 0
M  V30 1199 C 110.516 -2.79219 -2.27396 0
M  V30 1200 C 110.369 -4.19286 -1.62848 0
M  V30 1201 C 111.688 -2.92614 -3.28732 0
M  V30 1202 H 108.807 -0.587399 -0.445119 0
M  V30 1203 H 111.449 -1.82681 -0.522265 0
M  V30 1204 H 109.599 -2.61195 -2.87592 0
M  V30 1205 H 111.271 -4.48892 -1.06271 0
M  V30 1206 H 109.514 -4.23677 -0.931693 0
M  V30 1207 H 110.185 -4.97655 -2.38838 0
M  V30 1208 H 112.661 -3.09105 -2.78556 0
M  V30 1209 H 111.537 -3.76688 -3.99246 0
M  V30 1210 H 111.798 -2.03107 -3.92683 0
M  V30 1211 N 110.857 0.726932 -1.39834 0
M  V30 1212 C 112.103 1.48884 -1.377 0
M  V30 1213 C 112.436 1.94185 0.0244852 0
M  V30 1214 O 111.711 1.67361 0.990986 0
M  V30 1215 C 111.994 2.72288 -2.3565 0
M  V30 1216 C 111.847 2.32956 -3.84775 0
M  V30 1217 C 113.166 3.74414 -2.31306 0
M  V30 1218 H 110.285 0.540062 -0.5015 0
M  V30 1219 H 112.927 0.830547 -1.70886 0
M  V30 1220 H 111.077 3.28457 -2.07481 0
M  V30 1221 H 112.749 1.82356 -4.23726 0
M  V30 1222 H 110.992 1.65088 -4.01159 0
M  V30 1223 H 111.663 3.21362 -4.4881 0
M  V30 1224 H 114.139 3.27849 -2.56231 0
M  V30 1225 H 113.015 4.58414 -3.01907 0
M  V30 1226 H 113.276 4.21909 -1.32081 0
M  V30 1227 N 112.336 1.25143 0.95797 0
M  V30 1228 C 113.582 1.09855 1.70469 0
M  V30 1229 C 113.915 -0.360187 1.90831 0
M  V30 1230 O 113.19 -1.26568 1.47685 0
M  V30 1231 C 113.473 1.8497 3.08963 0
M  V30 1232 C 113.326 3.38652 2.96032 0
M  V30 1233 C 114.645 1.63016 4.08795 0
M  V30 1234 H 111.764 0.400465 0.618706 0
M  V30 1235 H 114.406 1.53933 1.11376 0
M  V30 1236 H 112.556 1.47505 3.59409 0
M  V30 1237 H 114.228 3.85772 2.52938 0
M  V30 1238 H 112.471 3.66534 2.32025 0
M  V30 1239 H 113.142 3.8642 3.94187 0
M  V30 1240 H 115.618 1.95625 3.67247 0
M  V30 1241 H 114.494 2.18015 5.03747 0
M  V30 1242 H 114.755 0.570692 4.38401 0
M  V30 1243 N 113.814 -1.1601 1.06675 0
M  V30 1244 C 114.764 -2.18512 0.650888 0
M  V30 1245 C 115.748 -1.57677 -0.320441 0
M  V30 1246 O 116.94 -1.76482 -0.135266 0
M  V30 1247 C 114.069 -3.43273 0.0429255 0
M  V30 1248 C 113.155 -4.11176 1.03898 0
M  V30 1249 N 113.546 -4.54672 2.216 0
M  V30 1250 C 111.844 -4.37417 0.870779 0
M  V30 1251 C 112.545 -5.07248 2.84736 0
M  V30 1252 N 111.521 -5.0037 2.12441 0
M  V30 1253 H 115.323 -2.49863 1.54745 0
M  V30 1254 H 112.837 -1.32503 0.938975 0
M  V30 1255 H 114.834 -4.16006 -0.272857 0
M  V30 1256 H 113.494 -3.13408 -0.84884 0
M  V30 1257 H 114.505 -4.4828 2.59356 0
M  V30 1258 H 111.182 -4.17488 0.0313293 0
M  V30 1259 H 112.572 -5.50912 3.84636 0
M  V30 1260 N 115.292 -0.849877 -1.32721 0
M  V30 1261 C 116.569 -0.372405 -1.92022 0
M  V30 1262 C 116.949 1.1435 -1.77447 0
M  V30 1263 O 116.297 1.96296 -1.16962 0
M  V30 1264 C 116.507 -0.831482 -3.3895 0
M  V30 1265 C 117.855 -0.845882 -4.16089 0
M  V30 1266 O 118.879 -0.775806 -3.47649 0
M  V30 1267 O 117.738 -0.943753 -5.38289 0
M  V30 1268 H 114.832 -0.107667 -0.819961 0
M  V30 1269 H 117.378 -0.93646 -1.41522 0
M  V30 1270 H 116.15 -1.87448 -3.4348 0
M  V30 1271 H 115.773 -0.24461 -3.96847 0
M  V30 1272 N 116.77 1.45427 -0.607355 0
M  V30 1273 C 118.016 2.0254 -0.102607 0
M  V30 1274 C 118.349 1.47478 1.26348 0
M  V30 1275 O 117.624 0.64939 1.83339 0
M  V30 1276 C 117.907 3.60044 -0.0634347 0
M  V30 1277 C 117.76 4.2544 -1.46017 0
M  V30 1278 C 119.079 4.35646 0.624514 0
M  V30 1279 H 116.198 0.73598 -0.0387607 0
M  V30 1280 H 118.84 1.73284 -0.779282 0
M  V30 1281 H 116.99 3.85101 0.512808 0
M  V30 1282 H 118.662 4.11569 -2.08347 0
M  V30 1283 H 116.905 3.83849 -2.02094 0
M  V30 1284 H 117.576 5.34342 -1.385 0
M  V30 1285 H 120.052 4.15882 0.134723 0
M  V30 1286 H 118.928 5.45376 0.621028 0
M  V30 1287 H 119.189 4.08501 1.69055 0
M  V30 1288 N 118.248 0.346503 1.53744 0
M  V30 1289 C 119.211 -0.496439 2.23759 0
M  V30 1290 C 120.211 -1.0252 1.2388 0
M  V30 1291 O 121.401 -0.913974 1.48297 0
M  V30 1292 C 118.533 -1.69187 2.95954 0
M  V30 1293 H 119.726 0.115952 2.99676 0
M  V30 1294 H 117.279 0.0978939 1.55993 0
M  V30 1295 H 118.014 -2.34288 2.24231 0
M  V30 1296 H 117.799 -1.31989 3.69217 0
M  V30 1297 H 119.289 -2.28969 3.49232 0
M  V30 1298 N 119.726 -1.57421 0.075193 0
M  V30 1299 C 120.689 -2.11791 -0.876203 0
M  V30 1300 C 121.689 -1.04268 -1.22412 0
M  V30 1301 O 122.879 -1.30242 -1.15684 0
M  V30 1302 C 120.011 -2.62207 -2.17854 0
M  V30 1303 H 121.204 -2.9716 -0.40444 0
M  V30 1304 H 118.757 -1.55333 -0.173557 0
M  V30 1305 H 119.492 -1.803 -2.6956 0
M  V30 1306 H 119.277 -3.40802 -1.93897 0
M  V30 1307 H 120.767 -3.04335 -2.85955 0
M  V30 1308 N 121.204 0.198386 -1.56346 0
M  V30 1309 C 122.45 0.920648 -1.80698 0
M  V30 1310 C 122.783 1.83045 -0.648697 0
M  V30 1311 O 122.058 1.91308 0.350925 0
M  V30 1312 C 122.341 1.73971 -3.15287 0
M  V30 1313 C 122.194 0.85485 -4.41602 0
M  V30 1314 C 123.513 2.71296 -3.46535 0
M  V30 1315 H 120.632 0.333261 -0.657348 0
M  V30 1316 H 123.274 0.188198 -1.89066 0
M  V30 1317 H 121.424 2.36416 -3.08285 0
M  V30 1318 H 123.096 0.245362 -4.60647 0
M  V30 1319 H 121.339 0.161398 -4.335 0
M  V30 1320 H 122.01 1.46286 -5.32264 0
M  V30 1321 H 124.486 2.18983 -3.53816 0
M  V30 1322 H 123.362 3.2569 -4.41834 0
M  V30 1323 H 123.623 3.5018 -2.69864 0
M  V30 1324 N 122.682 1.50554 0.465978 0
M  V30 1325 C 123.929 1.61798 1.21768 0
M  V30 1326 C 124.257 0.320696 1.91838 0
M  V30 1327 O 123.512 -0.693724 1.82992 0
M  V30 1328 C 123.811 2.75152 2.28093 0
M  V30 1329 C 123.477 4.15454 1.75239 0
M  V30 1330 C 122.139 4.53628 1.60546 0
M  V30 1331 C 124.491 5.03121 1.36083 0
M  V30 1332 C 121.819 5.77204 1.05128 0
M  V30 1333 C 124.171 6.27249 0.821056 0
M  V30 1334 C 122.835 6.64221 0.660795 0
M  V30 1335 H 122.105 0.592063 0.445582 0
M  V30 1336 H 124.752 1.84503 0.512927 0
M  V30 1337 H 123.057 2.46556 3.04496 0
M  V30 1338 H 124.754 2.81055 2.86023 0
M  V30 1339 H 121.344 3.85341 1.87644 0
M  V30 1340 H 125.528 4.74257 1.46267 0
M  V30 1341 H 120.784 6.0452 0.91462 0
M  V30 1342 H 124.958 6.94537 0.509018 0
M  V30 1343 H 122.585 7.59854 0.229226 0
M  V30 1344 N 124.16 -0.719506 1.40217 0
M  V30 1345 C 125.123 -1.8153 1.39927 0
M  V30 1346 C 126.123 -1.58095 0.293723 0
M  V30 1347 O 127.313 -1.65209 0.552429 0
M  V30 1348 C 124.445 -3.19561 1.18716 0
M  V30 1349 H 125.638 -1.83186 2.37451 0
M  V30 1350 H 123.191 -0.924746 1.26008 0
M  V30 1351 H 123.926 -3.23557 0.219366 0
M  V30 1352 H 123.711 -3.3797 1.98793 0
M  V30 1353 H 125.201 -3.99598 1.21291 0
M  V30 1354 N 125.638 -1.25649 -0.95132 0
M  V30 1355 C 126.868 -1.13179 -1.72841 0
M  V30 1356 C 127.276 0.316827 -1.86528 0
M  V30 1357 O 126.619 1.22948 -1.3649 0
M  V30 1358 C 126.681 -1.71644 -3.15878 0
M  V30 1359 C 126.345 -3.20667 -3.25609 0
M  V30 1360 C 127.342 -4.17616 -3.09666 0
M  V30 1361 C 125.027 -3.6094 -3.49324 0
M  V30 1362 C 127.021 -5.52817 -3.17289 0
M  V30 1363 C 124.708 -4.96278 -3.56584 0
M  V30 1364 C 125.706 -5.92025 -3.40581 0
M  V30 1365 O 125.394 -7.24899 -3.47528 0
M  V30 1366 H 125.126 -0.395389 -0.54831 0
M  V30 1367 H 127.68 -1.66566 -1.20187 0
M  V30 1368 H 125.91 -1.12707 -3.69911 0
M  V30 1369 H 127.599 -1.54225 -3.75459 0
M  V30 1370 H 128.365 -3.87842 -2.91211 0
M  V30 1371 H 124.244 -2.86907 -3.6084 0
M  V30 1372 H 127.788 -6.2753 -3.04716 0
M  V30 1373 H 123.685 -5.25716 -3.74556 0
M  V30 1374 H 124.453 -7.33039 -3.64138 0
M  V30 1375 N 127.117 1.15442 -1.07289 0
M  V30 1376 C 128.08 2.18358 -0.696591 0
M  V30 1377 C 129.08 1.58637 0.262837 0
M  V30 1378 O 130.27 1.74145 0.0438809 0
M  V30 1379 C 127.402 3.4089 -0.0266151 0
M  V30 1380 H 128.595 2.53162 -1.60776 0
M  V30 1381 H 126.148 1.29893 -0.869342 0
M  V30 1382 H 126.883 3.11653 0.896822 0
M  V30 1383 H 126.668 3.85495 -0.716657 0
M  V30 1384 H 128.158 4.17009 0.222028 0
M  V30 1385 N 128.595 0.856903 1.32268 0
M  V30 1386 C 129.542 0.301172 2.28827 0
M  V30 1387 C 130.512 -0.593104 1.5515 0
M  V30 1388 O 131.697 -0.527537 1.83362 0
M  V30 1389 C 128.837 -0.502523 3.41422 0
M  V30 1390 C 127.95 0.417797 4.29975 0
M  V30 1391 C 127.085 -0.398749 5.29701 0
M  V30 1392 C 126.124 0.518827 6.09897 0
M  V30 1393 N 125.261 -0.260674 7.01616 0
M  V30 1394 H 130.101 1.12983 2.75751 0
M  V30 1395 H 127.638 0.568582 1.35667 0
M  V30 1396 H 129.596 -0.984141 4.05426 0
M  V30 1397 H 128.226 -1.29599 2.95642 0
M  V30 1398 H 127.278 1.01781 3.66531 0
M  V30 1399 H 128.59 1.12191 4.86019 0
M  V30 1400 H 127.744 -0.943435 5.9932 0
M  V30 1401 H 126.483 -1.13622 4.7428 0
M  V30 1402 H 125.488 1.07538 5.39181 0
M  V30 1403 H 126.713 1.25495 6.67404 0
M  V30 1404 H 124.659 -0.981198 6.4862 0
M  V30 1405 H 124.576 0.384364 7.55022 0
M  V30 1406 H 125.844 -0.787014 7.75517 0
M  V30 1407 N 130.073 -1.45103 0.615059 0
M  V30 1408 C 131.005 -2.28786 -0.13762 0
M  V30 1409 C 132.018 -1.40376 -0.824525 0
M  V30 1410 O 133.207 -1.64681 -0.688662 0
M  V30 1411 C 130.307 -3.16322 -1.21628 0
M  V30 1412 C 129.48 -4.33054 -0.615039 0
M  V30 1413 C 128.539 -5.01743 -1.58556 0
M  V30 1414 O 127.565 -5.58293 -1.10895 0
M  V30 1415 N 128.767 -5.01714 -2.91998 0
M  V30 1416 H 131.532 -2.94025 0.580483 0
M  V30 1417 H 129.093 -1.55373 0.45507 0
M  V30 1418 H 131.085 -3.59139 -1.86552 0
M  V30 1419 H 129.655 -2.52943 -1.83681 0
M  V30 1420 H 128.875 -3.93627 0.21245 0
M  V30 1421 H 130.163 -5.08431 -0.193704 0
M  V30 1422 H 129.561 -4.57075 -3.33316 0
M  V30 1423 H 128.118 -5.48371 -3.52325 0
M  V30 1424 N 131.551 -0.354651 -1.53558 0
M  V30 1425 C 132.501 0.513179 -2.2215 0
M  V30 1426 C 133.485 1.05734 -1.21281 0
M  V30 1427 O 134.677 0.989202 -1.46778 0
M  V30 1428 C 131.806 1.65798 -3.00609 0
M  V30 1429 C 130.892 1.12722 -4.08845 0
M  V30 1430 N 131.283 0.318563 -5.04796 0
M  V30 1431 C 129.581 1.40307 -4.23356 0
M  V30 1432 C 130.282 0.0292224 -5.81693 0
M  V30 1433 N 129.258 0.623891 -5.40008 0
M  V30 1434 H 133.06 -0.111586 -2.93688 0
M  V30 1435 H 130.574 -0.162091 -1.61589 0
M  V30 1436 H 132.571 2.29176 -3.48258 0
M  V30 1437 H 131.231 2.28591 -2.306 0
M  V30 1438 H 132.242 -0.0413091 -5.17884 0
M  V30 1439 H 128.919 2.03458 -3.6457 0
M  V30 1440 H 130.309 -0.623808 -6.68998 0
M  V30 1441 N 133.029 1.57378 -0.0835403 0
M  V30 1442 C 134.44 1.81261 0.447358 0
M  V30 1443 C 134.791 0.998331 1.68902 0
M  V30 1444 O 133.916 0.224282 2.15235 0
M  V30 1445 C 134.511 3.28767 0.818386 0
M  V30 1446 C 133.07 3.53455 1.29409 0
M  V30 1447 C 132.217 2.75831 0.285024 0
M  V30 1448 H 135.168 1.5566 -0.309115 0
M  V30 1449 H 135.189 3.41459 1.67887 0
M  V30 1450 H 134.701 3.88006 -0.0855019 0
M  V30 1451 H 132.802 2.99534 2.21608 0
M  V30 1452 H 132.915 4.62128 1.2639 0
M  V30 1453 H 131.279 2.42947 0.764767 0
M  V30 1454 H 132.062 3.37813 -0.611341 0
M  V30 1455 N 134.507 -0.190092 1.56449 0
M  V30 1456 C 135.784 -0.935886 1.71757 0
M  V30 1457 C 136.164 -2.01173 0.639726 0
M  V30 1458 O 135.512 -2.25827 -0.348502 0
M  V30 1459 C 135.722 -1.51775 3.1427 0
M  V30 1460 C 137.07 -1.99794 3.74656 0
M  V30 1461 O 138.094 -1.61607 3.1743 0
M  V30 1462 O 136.953 -2.70079 4.751 0
M  V30 1463 H 134.047 -0.439229 0.700719 0
M  V30 1464 H 136.593 -0.179395 1.68749 0
M  V30 1465 H 135.365 -0.742505 3.84191 0
M  V30 1466 H 134.988 -2.33894 3.21527 0
M  V30 1467 N 135.985 -1.50799 -0.457987 0
M  V30 1468 C 136.917 -1.66786 -1.57211 0
M  V30 1469 C 137.93 -0.548962 -1.53265 0
M  V30 1470 O 139.119 -0.8226 -1.58416 0
M  V30 1471 C 136.219 -1.64834 -2.96113 0
M  V30 1472 C 135.392 -2.92971 -3.24787 0
M  V30 1473 C 134.451 -2.83485 -4.43309 0
M  V30 1474 O 133.477 -3.5744 -4.42973 0
M  V30 1475 N 134.679 -1.97929 -5.45714 0
M  V30 1476 H 137.444 -2.62889 -1.43909 0
M  V30 1477 H 135.005 -1.48427 -0.646617 0
M  V30 1478 H 136.997 -1.56084 -3.7339 0
M  V30 1479 H 135.567 -0.764118 -3.03117 0
M  V30 1480 H 134.787 -3.15749 -2.36 0
M  V30 1481 H 136.075 -3.77834 -3.40762 0
M  V30 1482 H 135.473 -1.37182 -5.48815 0
M  V30 1483 H 134.03 -1.95073 -6.21924 0
M  V30 1484 N 137.463 0.71206 -1.40597 0
M  V30 1485 C 138.373 1.8562 -1.43466 0
M  V30 1486 C 139.389 1.70902 -0.326902 0
M  V30 1487 O 140.565 1.93105 -0.572043 0
M  V30 1488 C 137.63 3.21451 -1.29884 0
M  V30 1489 C 136.691 3.48398 -2.50833 0
M  V30 1490 C 135.924 4.77749 -2.3789 0
M  V30 1491 O 136.147 5.53089 -1.39459 0
M  V30 1492 O 135.081 5.05111 -3.27333 0
M  V30 1493 H 138.907 1.86155 -2.39958 0
M  V30 1494 H 136.492 0.86295 -1.21957 0
M  V30 1495 H 138.374 4.02579 -1.24531 0
M  V30 1496 H 137.049 3.21636 -0.364997 0
M  V30 1497 H 135.956 2.67265 -2.61763 0
M  V30 1498 H 137.289 3.53014 -3.4299 0
M  V30 1499 N 138.941 1.26152 0.944643 0
M  V30 1500 C 139.871 1.09902 2.06019 0
M  V30 1501 C 140.852 0.00519538 1.70099 0
M  V30 1502 O 142.037 0.176583 1.93396 0
M  V30 1503 C 139.167 0.727562 3.39594 0
M  V30 1504 C 138.121 1.77274 3.89561 0
M  V30 1505 C 137.447 1.25569 5.19747 0
M  V30 1506 C 138.747 3.17357 4.14827 0
M  V30 1507 H 140.441 2.03217 2.19871 0
M  V30 1508 H 137.987 0.978452 1.05652 0
M  V30 1509 H 139.94 0.600777 4.17095 0
M  V30 1510 H 138.664 -0.241287 3.25707 0
M  V30 1511 H 137.323 1.88814 3.14237 0
M  V30 1512 H 136.971 0.276783 5.02238 0
M  V30 1513 H 136.671 1.95433 5.54148 0
M  V30 1514 H 138.195 1.1415 5.99835 0
M  V30 1515 H 139.609 3.08914 4.82954 0
M  V30 1516 H 138.006 3.84781 4.60504 0
M  V30 1517 H 139.076 3.63673 3.20734 0
M  V30 1518 N 140.419 -1.14872 1.07899 0
M  V30 1519 C 141.665 -1.86064 0.806725 0
M  V30 1520 C 141.998 -1.82434 -0.665706 0
M  V30 1521 O 141.273 -1.25138 -1.48899 0
M  V30 1522 C 141.556 -3.34929 1.32267 0
M  V30 1523 C 141.409 -3.47161 2.86006 0
M  V30 1524 C 142.728 -4.29863 0.943717 0
M  V30 1525 H 139.847 -0.675591 0.294526 0
M  V30 1526 H 142.489 -1.34925 1.33773 0
M  V30 1527 H 140.639 -3.78611 0.870974 0
M  V30 1528 H 142.311 -3.12302 3.39507 0
M  V30 1529 H 140.554 -2.88539 3.23925 0
M  V30 1530 H 141.225 -4.51777 3.17177 0
M  V30 1531 H 143.701 -3.9417 1.33302 0
M  V30 1532 H 142.577 -5.32494 1.33198 0
M  V30 1533 H 142.838 -4.41846 -0.149796 0
M  V30 1534 N 141.898 -0.863906 -1.31812 0
M  V30 1535 C 143.147 -0.46801 -1.96195 0
M  V30 1536 C 143.46 0.983474 -1.69077 0
M  V30 1537 O 144.666 1.48523 -2.27273 0
M  V30 1538 C 143.122 -0.785995 -3.51212 0
M  V30 1539 C 142.73 -2.25383 -3.87178 0
M  V30 1540 C 144.474 -0.458274 -4.22019 0
M  V30 1541 C 142.381 -2.51455 -5.3528 0
M  V30 1542 H 141.311 -0.171283 -0.734287 0
M  V30 1543 H 143.962 -1.05597 -1.50072 0
M  V30 1544 H 142.344 -0.127359 -3.95795 0
M  V30 1545 H 143.518 -2.95502 -3.53575 0
M  V30 1546 H 141.833 -2.54698 -3.2942 0
M  V30 1547 H 144.43 -0.630369 -5.30971 0
M  V30 1548 H 144.773 0.600834 -4.11941 0
M  V30 1549 H 145.306 -1.07319 -3.8305 0
M  V30 1550 H 142.045 -3.56025 -5.50387 0
M  V30 1551 H 141.565 -1.85923 -5.70257 0
M  V30 1552 H 143.244 -2.35874 -6.02472 0
M  V30 1553 N 143.376 1.44774 -0.622745 0
M  V30 1554 C 144.339 2.29069 0.0774015 0
M  V30 1555 C 145.339 1.4059 0.780461 0
M  V30 1556 O 146.529 1.62551 0.626322 0
M  V30 1557 C 143.661 3.21974 1.12006 0
M  V30 1558 H 144.854 2.92459 -0.663901 0
M  V30 1559 H 142.407 1.51548 -0.382486 0
M  V30 1560 H 143.142 2.63417 1.89162 0
M  V30 1561 H 142.927 3.87168 0.619951 0
M  V30 1562 H 144.417 3.85318 1.60995 0
M  V30 1563 N 144.854 0.36279 1.53368 0
M  V30 1564 C 146.102 -0.227326 2.00817 0
M  V30 1565 C 146.423 -1.49511 1.25186 0
M  V30 1566 O 145.693 -1.92482 0.364348 0
M  V30 1567 H 144.273 -0.0869923 0.741917 0
M  V30 1568 H 146.935 0.488381 1.88682 0
M  V30 1569 H 146.031 -0.456273 3.08747 0
M  V30 1570 N 146.332 -1.57332 0.0918853 0
M  V30 1571 C 147.58 -1.93853 -0.571446 0
M  V30 1572 C 147.901 -0.974212 -1.6892 0
M  V30 1573 O 147.171 -0.0257254 -1.95883 0
M  V30 1574 H 145.751 -0.715666 -0.214082 0
M  V30 1575 H 148.413 -1.94287 0.154464 0
M  V30 1576 H 147.509 -2.96191 -0.983729 0
M  V30 1577 N 147.81 0.181792 -1.56548 0
M  V30 1578 C 148.773 1.20894 -1.94724 0
M  V30 1579 C 149.773 1.37738 -0.829747 0
M  V30 1580 O 150.963 1.35323 -1.09697 0
M  V30 1581 C 148.095 2.57593 -2.23291 0
M  V30 1582 H 149.288 0.882275 -2.86629 0
M  V30 1583 H 146.841 0.423838 -1.50444 0
M  V30 1584 H 147.576 2.95291 -1.34067 0
M  V30 1585 H 147.361 2.46735 -3.04736 0
M  V30 1586 H 148.851 3.31637 -2.53785 0
M  V30 1587 N 149.288 1.51039 0.449983 0
M  V30 1588 C 150.22 1.67617 1.56324 0
M  V30 1589 C 151.233 0.557083 1.52972 0
M  V30 1590 O 152.422 0.830989 1.57977 0
M  V30 1591 C 149.522 1.66402 2.95235 0
M  V30 1592 C 148.695 2.9469 3.23229 0
M  V30 1593 C 147.754 2.85832 4.41799 0
M  V30 1594 O 146.78 3.59785 4.41071 0
M  V30 1595 N 147.982 2.00821 5.44657 0
M  V30 1596 H 150.747 2.63648 1.42512 0
M  V30 1597 H 148.308 1.48767 0.638737 0
M  V30 1598 H 150.3 1.58062 3.72557 0
M  V30 1599 H 148.87 0.780182 3.02708 0
M  V30 1600 H 148.09 3.16996 2.34323 0
M  V30 1601 H 149.378 3.79636 3.38754 0
M  V30 1602 H 148.776 1.40091 5.48079 0
M  V30 1603 H 147.333 1.98368 6.20881 0
M  V30 1604 N 150.766 -0.704594 1.40972 0
M  V30 1605 C 152.015 -1.46018 1.39146 0
M  V30 1606 C 152.328 -1.956 0.000589254 0
M  V30 1607 O 153.534 -2.71137 -0.1403 0
M  V30 1608 C 151.99 -2.63996 2.4461 0
M  V30 1609 C 151.598 -2.21238 3.89561 0
M  V30 1610 C 153.342 -3.41677 2.51907 0
M  V30 1611 C 151.249 -3.3612 4.86598 0
M  V30 1612 H 150.179 -0.548444 0.517422 0
M  V30 1613 H 152.83 -0.765784 1.66757 0
M  V30 1614 H 151.212 -3.3566 2.10115 0
M  V30 1615 H 152.386 -1.56923 4.33257 0
M  V30 1616 H 150.701 -1.56574 3.85841 0
M  V30 1617 H 153.298 -4.27182 3.2159 0
M  V30 1618 H 153.641 -3.86247 1.55303 0
M  V30 1619 H 154.174 -2.77064 2.85448 0
M  V30 1620 H 150.913 -2.96572 5.84573 0
M  V30 1621 H 150.433 -3.99315 4.47557 0
M  V30 1622 H 152.112 -4.02029 5.06934 0
M  V30 1623 N 152.244 -1.26651 -0.937939 0
M  V30 1624 C 153.491 -1.12387 -1.6845 0
M  V30 1625 C 153.819 0.332208 -1.91642 0
M  V30 1626 O 153.074 1.2602 -1.49725 0
M  V30 1627 C 153.373 -1.84168 -3.06295 0
M  V30 1628 C 153.039 -3.34056 -3.02849 0
M  V30 1629 C 151.701 -3.74942 -3.01616 0
M  V30 1630 C 154.053 -4.29741 -2.9491 0
M  V30 1631 C 151.381 -5.09894 -2.90215 0
M  V30 1632 C 153.733 -5.64738 -2.8505 0
M  V30 1633 C 152.397 -6.0493 -2.82162 0
M  V30 1634 H 151.667 -0.411252 -0.616403 0
M  V30 1635 H 154.314 -1.57134 -1.09459 0
M  V30 1636 H 152.619 -1.319 -3.6893 0
M  V30 1637 H 154.316 -1.70569 -3.62915 0
M  V30 1638 H 150.906 -3.01534 -3.0459 0
M  V30 1639 H 155.09 -3.99133 -2.94969 0
M  V30 1640 H 150.346 -5.40194 -2.86358 0
M  V30 1641 H 154.52 -6.38561 -2.77872 0
M  V30 1642 H 152.147 -7.09457 -2.73084 0
M  V30 1643 N 153.722 1.14298 -1.08507 0
M  V30 1644 C 154.95 1.89219 -0.836876 0
M  V30 1645 C 155.365 1.78638 0.611054 0
M  V30 1646 O 154.722 1.14643 1.41998 0
M  V30 1647 C 154.773 3.39158 -1.25116 0
M  V30 1648 O 154.494 3.49449 -2.64229 0
M  V30 1649 C 155.995 4.31073 -1.03398 0
M  V30 1650 H 153.215 0.599328 -0.301739 0
M  V30 1651 H 155.759 1.44746 -1.44461 0
M  V30 1652 H 153.914 3.81251 -0.687514 0
M  V30 1653 H 154.328 4.42589 -2.81452 0
M  V30 1654 H 155.802 5.34646 -1.37323 0
M  V30 1655 H 156.279 4.3919 0.0289259 0
M  V30 1656 H 156.885 3.94738 -1.58311 0
M  V30 1657 N 155.201 0.870884 1.31352 0
M  V30 1658 C 156.164 0.332243 2.26779 0
M  V30 1659 C 157.164 -0.517302 1.52252 0
M  V30 1660 O 158.354 -0.326477 1.71113 0
M  V30 1661 C 155.486 -0.528066 3.36785 0
M  V30 1662 H 156.679 1.17469 2.75937 0
M  V30 1663 H 154.232 0.64655 1.423 0
M  V30 1664 H 154.967 -1.39167 2.92922 0
M  V30 1665 H 154.752 0.0802582 3.92018 0
M  V30 1666 H 156.242 -0.897179 4.07849 0
M  V30 1667 N 156.679 -1.44442 0.630414 0
M  V30 1668 C 157.926 -2.02052 0.134617 0
M  V30 1669 C 158.254 -1.49576 -1.24327 0
M  V30 1670 O 157.509 -0.669806 -1.83881 0
M  V30 1671 C 157.808 -3.57332 0.0697835 0
M  V30 1672 C 157.474 -4.29058 1.38635 0
M  V30 1673 C 156.136 -4.4837 1.74694 0
M  V30 1674 C 158.488 -4.69872 2.25543 0
M  V30 1675 C 155.816 -5.05756 2.97369 0
M  V30 1676 C 158.168 -5.28616 3.47487 0
M  V30 1677 C 156.832 -5.46147 3.8377 0
M  V30 1678 H 156.102 -0.739361 0.0492598 0
M  V30 1679 H 158.749 -1.73217 0.816586 0
M  V30 1680 H 157.054 -3.85577 -0.695553 0
M  V30 1681 H 158.751 -3.99637 -0.330344 0
M  V30 1682 H 155.341 -4.14357 1.09574 0
M  V30 1683 H 159.525 -4.54666 1.98979 0
M  V30 1684 H 154.781 -5.17515 3.25558 0
M  V30 1685 H 158.955 -5.59192 4.15063 0
M  V30 1686 H 156.582 -5.9038 4.7891 0
M  V30 1687 N 158.157 -0.370918 -1.53173 0
M  V30 1688 C 159.104 0.473035 -2.259 0
M  V30 1689 C 160.074 1.07311 -1.26781 0
M  V30 1690 O 161.259 1.1046 -1.55574 0
M  V30 1691 C 158.399 1.60405 -3.05556 0
M  V30 1692 C 157.512 1.02863 -4.19575 0
M  V30 1693 C 156.647 2.12918 -4.86661 0
M  V30 1694 C 155.686 1.52869 -5.92704 0
M  V30 1695 N 154.823 2.56779 -6.53459 0
M  V30 1696 H 159.663 -0.153649 -2.97604 0
M  V30 1697 H 157.2 -0.0875946 -1.46839 0
M  V30 1698 H 159.158 2.27034 -3.50016 0
M  V30 1699 H 157.788 2.20131 -2.36097 0
M  V30 1700 H 156.84 0.252465 -3.79561 0
M  V30 1701 H 158.152 0.549642 -4.95762 0
M  V30 1702 H 157.306 2.87356 -5.34333 0
M  V30 1703 H 156.045 2.6417 -4.09958 0
M  V30 1704 H 155.05 0.769479 -5.44389 0
M  V30 1705 H 156.275 1.02435 -6.7133 0
M  V30 1706 H 154.221 3.07235 -5.79606 0
M  V30 1707 H 154.138 2.13583 -7.25202 0
M  V30 1708 H 155.406 3.30903 -7.05779 0
M  V30 1709 N 159.635 1.57281 -0.100228 0
M  V30 1710 C 160.912 1.86014 0.604812 0
M  V30 1711 C 161.292 0.998025 1.86018 0
M  V30 1712 O 160.64 0.0718184 2.28387 0
M  V30 1713 C 160.85 3.36784 0.915278 0
M  V30 1714 C 162.198 4.04957 1.27651 0
M  V30 1715 O 163.222 3.41695 1.00613 0
M  V30 1716 O 162.081 5.16593 1.7831 0
M  V30 1717 H 159.175 0.76942 0.303185 0
M  V30 1718 H 161.721 1.69176 -0.133313 0
M  V30 1719 H 160.493 3.91292 0.0248896 0
M  V30 1720 H 160.116 3.58987 1.70921 0
M  V30 1721 N 161.113 -0.173488 1.56642 0
M  V30 1722 C 162.39 -0.917617 1.7274 0
M  V30 1723 C 162.77 -2.00484 0.661027 0
M  V30 1724 O 162.118 -2.26184 -0.32453 0
M  V30 1725 C 162.328 -1.48433 3.15862 0
M  V30 1726 C 163.676 -1.95809 3.76754 0
M  V30 1727 O 164.7 -1.58231 3.19126 0
M  V30 1728 O 163.559 -2.65024 4.77938 0
M  V30 1729 H 160.653 -0.431772 0.705338 0
M  V30 1730 H 163.199 -0.161487 1.6893 0
M  V30 1731 H 161.971 -0.701715 3.84957 0
M  V30 1732 H 161.594 -2.30471 3.23989 0
M  V30 1733 N 162.591 -1.51276 -0.441967 0
M  V30 1734 C 163.837 -1.63958 -1.19355 0
M  V30 1735 C 164.17 -0.352543 -1.90973 0
M  V30 1736 O 163.445 0.647627 -1.83401 0
M  V30 1737 C 163.728 -2.83979 -2.21422 0
M  V30 1738 C 163.581 -4.22646 -1.53918 0
M  V30 1739 C 164.9 -2.99521 -3.22451 0
M  V30 1740 H 162.019 -0.596709 -0.432559 0
M  V30 1741 H 164.661 -1.83748 -0.483398 0
M  V30 1742 H 162.811 -2.67237 -2.81987 0
M  V30 1743 H 164.483 -4.51045 -0.967256 0
M  V30 1744 H 162.726 -4.25558 -0.841615 0
M  V30 1745 H 163.397 -5.02609 -2.28229 0
M  V30 1746 H 165.873 -3.14944 -2.71937 0
M  V30 1747 H 164.749 -3.85072 -3.91166 0
M  V30 1748 H 165.01 -2.11391 -3.88287 0
M  V30 1749 N 164.069 0.697108 -1.41344 0
M  V30 1750 C 165.346 1.45154 -1.31109 0
M  V30 1751 C 165.726 2.11009 0.0620449 0
M  V30 1752 O 165.074 2.01571 1.07618 0
M  V30 1753 C 165.284 2.47223 -2.46337 0
M  V30 1754 C 166.632 3.1252 -2.87431 0
M  V30 1755 O 167.656 2.57547 -2.46065 0
M  V30 1756 O 166.515 4.12083 -3.58957 0
M  V30 1757 H 163.609 0.646365 -0.515889 0
M  V30 1758 H 166.155 0.727716 -1.53305 0
M  V30 1759 H 164.927 1.97204 -3.37974 0
M  V30 1760 H 164.55 3.27116 -2.2601 0
M  V30 1761 N 165.547 1.27147 0.931209 0
M  V30 1762 C 166.775 1.16082 1.71267 0
M  V30 1763 C 167.19 -0.282772 1.8667 0
M  V30 1764 O 166.547 -1.19283 1.38122 0
M  V30 1765 C 166.598 1.8358 3.11417 0
M  V30 1766 O 166.319 3.22299 2.96741 0
M  V30 1767 C 167.82 1.78597 4.05732 0
M  V30 1768 H 165.04 0.403758 0.535929 0
M  V30 1769 H 167.584 1.67953 1.16671 0
M  V30 1770 H 165.739 1.35623 3.62885 0
M  V30 1771 H 166.153 3.55851 3.85319 0
M  V30 1772 H 167.627 2.30444 5.01597 0
M  V30 1773 H 168.104 0.754564 4.3267 0
M  V30 1774 H 168.71 2.26152 3.60188 0
M  V30 1775 N 167.025 -1.13721 1.09112 0
M  V30 1776 C 167.955 -2.21148 0.749385 0
M  V30 1777 C 168.936 -1.6792 -0.271475 0
M  V30 1778 O 170.121 -1.93693 -0.140251 0
M  V30 1779 C 167.251 -3.46905 0.165659 0
M  V30 1780 C 166.205 -4.13203 1.11567 0
M  V30 1781 C 165.531 -5.33248 0.393809 0
M  V30 1782 C 166.831 -4.60912 2.45678 0
M  V30 1783 H 168.525 -2.4999 1.64758 0
M  V30 1784 H 166.071 -1.20156 0.793626 0
M  V30 1785 H 168.024 -4.21313 -0.085466 0
M  V30 1786 H 166.748 -3.17449 -0.767714 0
M  V30 1787 H 165.407 -3.40758 1.35202 0
M  V30 1788 H 165.055 -5.00054 -0.543599 0
M  V30 1789 H 164.755 -5.78552 1.02721 0
M  V30 1790 H 166.279 -6.10413 0.150908 0
M  V30 1791 H 167.693 -5.26759 2.26269 0
M  V30 1792 H 166.09 -5.16944 3.04776 0
M  V30 1793 H 167.16 -3.75603 3.06677 0
M  V30 1794 N 168.503 -0.877838 -1.30888 0
M  V30 1795 C 169.433 -0.35534 -2.3078 0
M  V30 1796 C 170.414 0.557994 -1.60687 0
M  V30 1797 O 171.599 0.473355 -1.88343 0
M  V30 1798 C 168.729 0.437221 -3.44537 0
M  V30 1799 C 167.683 -0.383715 -4.26276 0
M  V30 1800 C 167.009 0.535014 -5.32017 0
M  V30 1801 C 168.309 -1.62201 -4.96476 0
M  V30 1802 H 170.003 -1.19007 -2.74732 0
M  V30 1803 H 167.549 -0.573698 -1.32078 0
M  V30 1804 H 169.502 0.813334 -4.13477 0
M  V30 1805 H 168.226 1.30553 -2.99372 0
M  V30 1806 H 166.885 -0.741874 -3.59015 0
M  V30 1807 H 166.533 1.40083 -4.831 0
M  V30 1808 H 166.233 -0.0104211 -5.87599 0
M  V30 1809 H 167.757 0.907799 -6.03814 0
M  V30 1810 H 169.171 -1.31689 -5.5797 0
M  V30 1811 H 167.568 -2.10711 -5.61891 0
M  V30 1812 H 168.638 -2.37044 -4.23011 0
M  V30 1813 N 169.982 1.44106 -0.638065 0
M  V30 1814 C 171.228 2.02277 -0.145546 0
M  V30 1815 C 171.561 1.50125 1.23191 0
M  V30 1816 O 170.836 0.688133 1.8192 0
M  V30 1817 C 171.119 3.59829 -0.139791 0
M  V30 1818 C 170.972 4.22247 -1.55008 0
M  V30 1819 C 172.291 4.36873 0.531966 0
M  V30 1820 H 169.41 0.734992 -0.0543632 0
M  V30 1821 H 172.052 1.71592 -0.815863 0
M  V30 1822 H 170.202 3.86102 0.431007 0
M  V30 1823 H 171.874 4.07057 -2.1703 0
M  V30 1824 H 170.117 3.79476 -2.10191 0
M  V30 1825 H 170.788 5.31284 -1.49804 0
M  V30 1826 H 173.264 4.16074 0.0464781 0
M  V30 1827 H 172.14 5.4657 0.505206 0
M  V30 1828 H 172.401 4.11995 1.60352 0
M  V30 1829 N 171.46 0.379036 1.52974 0
M  V30 1830 C 172.688 -0.20679 2.05864 0
M  V30 1831 C 173.103 -1.41356 1.25155 0
M  V30 1832 O 172.46 -1.8009 0.295588 0
M  V30 1833 C 172.511 -0.587045 3.56702 0
M  V30 1834 O 172.232 0.571776 4.34353 0
M  V30 1835 C 173.733 -1.22983 4.25899 0
M  V30 1836 H 170.953 -0.0336123 0.670158 0
M  V30 1837 H 173.497 0.541298 1.97206 0
M  V30 1838 H 171.652 -1.28504 3.65466 0
M  V30 1839 H 172.066 0.261544 5.23847 0
M  V30 1840 H 173.54 -1.44635 5.32715 0
M  V30 1841 H 174.017 -2.19416 3.80465 0
M  V30 1842 H 174.623 -0.572892 4.21424 0
M  V30 1843 N 172.938 -1.57226 0.108567 0
M  V30 1844 C 174.354 -1.5766 -0.248058 0
M  V30 1845 C 174.554 -1.12063 -1.67464 0
M  V30 1846 O 173.61 -0.803236 -2.39383 0
M  V30 1847 C 174.923 -3.0069 -0.0242287 0
M  V30 1848 C 176.471 -3.12868 -0.0909372 0
M  V30 1849 C 176.946 -4.57879 0.105067 0
M  V30 1850 N 178.437 -4.63172 0.0506846 0
M  V30 1851 C 179.172 -5.73126 0.177396 0
M  V30 1852 N 178.668 -6.91866 0.359696 0
M  V30 1853 N 180.461 -5.61977 0.117709 0
M  V30 1854 H 172.612 -1.85169 1.04049 0
M  V30 1855 H 174.875 -0.85529 0.40888 0
M  V30 1856 H 174.581 -3.38299 0.961604 0
M  V30 1857 H 174.455 -3.6945 -0.76068 0
M  V30 1858 H 176.842 -2.75124 -1.06729 0
M  V30 1859 H 176.923 -2.46672 0.677225 0
M  V30 1860 H 176.567 -4.96321 1.07834 0
M  V30 1861 H 176.497 -5.22153 -0.682954 0
M  V30 1862 H 178.988 -3.778 -0.0871266 0
M  V30 1863 H 179.301 -7.71503 0.447529 0
M  V30 1864 H 177.646 -6.93874 0.395536 0
M  V30 1865 H 180.837 -4.68094 -0.0236741 0
M  V30 1866 H 181.01 -6.47627 0.219905 0
M  V30 1867 N 174.416 0.165178 -1.56732 0
M  V30 1868 C 175.346 1.20651 -1.99914 0
M  V30 1869 C 176.327 1.45827 -0.875705 0
M  V30 1870 O 177.512 1.57057 -1.14223 0
M  V30 1871 C 174.642 2.54401 -2.36427 0
M  V30 1872 C 173.596 2.43782 -3.51787 0
M  V30 1873 C 172.922 3.82078 -3.7406 0
M  V30 1874 C 174.222 1.93732 -4.85041 0
M  V30 1875 H 175.916 0.847534 -2.87154 0
M  V30 1876 H 173.462 0.40625 -1.38151 0
M  V30 1877 H 175.415 3.27458 -2.65234 0
M  V30 1878 H 174.139 2.92098 -1.46103 0
M  V30 1879 H 172.798 1.73178 -3.23117 0
M  V30 1880 H 172.446 4.17179 -2.81017 0
M  V30 1881 H 172.146 3.7584 -4.51684 0
M  V30 1882 H 173.67 4.56712 -4.05274 0
M  V30 1883 H 175.084 2.56569 -5.12684 0
M  V30 1884 H 173.481 1.98428 -5.66345 0
M  V30 1885 H 174.551 0.891962 -4.76626 0
M  V30 1886 N 175.894 1.51508 0.433938 0
M  V30 1887 C 176.857 1.72473 1.50949 0
M  V30 1888 C 177.857 0.594725 1.49398 0
M  V30 1889 O 179.047 0.862315 1.5136 0
M  V30 1890 C 176.179 1.78431 2.90474 0
M  V30 1891 H 177.372 2.68467 1.33662 0
M  V30 1892 H 174.925 1.41549 0.662836 0
M  V30 1893 H 175.66 0.842645 3.13161 0
M  V30 1894 H 175.445 2.60558 2.93005 0
M  V30 1895 H 176.935 1.96479 3.68491 0
M  V30 1896 N 177.372 -0.689602 1.41712 0
M  V30 1897 C 178.62 -1.4468 1.4111 0
M  V30 1898 C 178.941 -1.94986 0.0232196 0
M  V30 1899 O 178.211 -1.72097 -0.935913 0
M  V30 1900 H 176.791 -0.536847 0.519427 0
M  V30 1901 H 179.453 -0.815825 1.77004 0
M  V30 1902 H 178.549 -2.30706 2.10193 0
M  V30 1903 N 178.85 -1.27639 -0.924453 0
M  V30 1904 C 180.075 -1.17101 -1.71179 0
M  V30 1905 C 180.5 0.268134 -1.86179 0
M  V30 1906 O 179.858 1.19415 -1.36418 0
M  V30 1907 C 179.906 -1.86313 -3.08739 0
M  V30 1908 O 179.01 -1.16331 -3.95652 0
M  V30 1909 H 178.351 -0.407091 -0.524569 0
M  V30 1910 H 180.881 -1.68767 -1.15666 0
M  V30 1911 H 180.891 -1.938 -3.59034 0
M  V30 1912 H 179.566 -2.91001 -2.97138 0
M  V30 1913 H 178.143 -1.16935 -3.54091 0
M  V30 1914 N 180.328 1.1314 -1.09713 0
M  V30 1915 C 181.575 1.84484 -0.834987 0
M  V30 1916 C 181.903 1.83689 0.639418 0
M  V30 1917 O 181.158 1.2724 1.4869 0
M  V30 1918 C 181.457 3.32167 -1.3191 0
M  V30 1919 C 181.123 3.53139 -2.80363 0
M  V30 1920 C 179.785 3.58571 -3.20905 0
M  V30 1921 C 182.137 3.60866 -3.76065 0
M  V30 1922 C 179.465 3.69267 -4.55916 0
M  V30 1923 C 181.817 3.73089 -5.10869 0
M  V30 1924 C 180.481 3.76775 -5.50996 0
M  V30 1925 H 179.751 0.675073 -0.305544 0
M  V30 1926 H 182.398 1.33554 -1.37243 0
M  V30 1927 H 180.703 3.85469 -0.701517 0
M  V30 1928 H 182.4 3.85821 -1.09284 0
M  V30 1929 H 178.99 3.49569 -2.47991 0
M  V30 1930 H 183.174 3.55946 -3.45855 0
M  V30 1931 H 178.43 3.70388 -4.86438 0
M  V30 1932 H 182.604 3.78011 -5.84877 0
M  V30 1933 H 180.231 3.84815 -6.55608 0
M  V30 1934 N 181.806 0.884767 1.30421 0
M  V30 1935 C 182.716 0.355398 2.31892 0
M  V30 1936 C 183.732 -0.542261 1.65335 0
M  V30 1937 O 184.908 -0.435432 1.96637 0
M  V30 1938 C 181.973 -0.421661 3.44126 0
M  V30 1939 C 181.034 0.505727 4.26311 0
M  V30 1940 C 180.267 -0.234343 5.33185 0
M  V30 1941 O 180.49 -1.46045 5.51386 0
M  V30 1942 O 179.424 0.415443 6.00465 0
M  V30 1943 H 183.25 1.19685 2.79122 0
M  V30 1944 H 180.835 0.648596 1.34587 0
M  V30 1945 H 182.717 -0.861641 4.12497 0
M  V30 1946 H 181.392 -1.23942 2.99032 0
M  V30 1947 H 180.299 0.994513 3.60639 0
M  V30 1948 H 181.632 1.28948 4.75009 0
M  V30 1949 N 183.284 -1.43765 0.645699 0
M  V30 1950 C 184.532 -2.01499 0.155731 0
M  V30 1951 C 184.853 -1.51151 -1.232 0
M  V30 1952 O 184.123 -0.721044 -1.82148 0
M  V30 1953 H 182.703 -0.745003 0.0545817 0
M  V30 1954 H 185.365 -1.76075 0.835677 0
M  V30 1955 H 184.461 -3.1181 0.134577 0
M  V30 1956 N 184.763 -0.387143 -1.52771 0
M  V30 1957 C 186.04 0.253197 -1.93954 0
M  V30 1958 C 186.42 1.64545 -1.32243 0
M  V30 1959 O 185.768 2.23191 -0.489699 0
M  V30 1960 C 185.978 0.281722 -3.47861 0
M  V30 1961 C 187.326 0.511715 -4.21505 0
M  V30 1962 O 188.35 0.362023 -3.54356 0
M  V30 1963 O 187.209 0.804847 -5.40541 0
M  V30 1964 H 184.303 0.156845 -0.811991 0
M  V30 1965 H 186.849 -0.441494 -1.63856 0
M  V30 1966 H 185.621 -0.693571 -3.85104 0
M  V30 1967 H 185.244 1.02142 -3.84256 0
M  V30 1968 N 186.241 1.57166 -0.116904 0
M  V30 1969 C 187.469 1.99473 0.549383 0
M  V30 1970 C 187.884 0.996541 1.60357 0
M  V30 1971 O 187.241 -0.0108731 1.82497 0
M  V30 1972 C 187.292 3.41788 1.17741 0
M  V30 1973 O 187.013 4.37788 0.165362 0
M  V30 1974 C 188.514 3.99216 1.92722 0
M  V30 1975 H 185.734 0.655009 0.145616 0
M  V30 1976 H 188.278 2.03494 -0.202625 0
M  V30 1977 H 186.433 3.38713 1.88021 0
M  V30 1978 H 186.847 5.20806 0.621403 0
M  V30 1979 H 188.321 5.00882 2.31995 0
M  V30 1980 H 188.798 3.3824 2.80161 0
M  V30 1981 H 189.404 4.0583 1.27209 0
M  V30 1982 N 187.719 -0.156864 1.56817 0
M  V30 1983 C 188.666 -1.19394 1.97519 0
M  V30 1984 C 189.636 -1.4322 0.841265 0
M  V30 1985 O 190.821 -1.55719 1.10255 0
M  V30 1986 C 187.961 -2.52483 2.35258 0
M  V30 1987 C 187.074 -2.35914 3.61896 0
M  V30 1988 C 186.209 -3.61969 3.88782 0
M  V30 1989 C 185.248 -3.40395 5.08722 0
M  V30 1990 N 184.385 -4.58556 5.31668 0
M  V30 1991 H 189.225 -0.839845 2.85921 0
M  V30 1992 H 186.762 -0.403264 1.41464 0
M  V30 1993 H 188.72 -3.30071 2.55165 0
M  V30 1994 H 187.35 -2.85859 1.49949 0
M  V30 1995 H 186.402 -1.49429 3.49821 0
M  V30 1996 H 187.714 -2.15926 4.49641 0
M  V30 1997 H 186.868 -4.47989 4.09135 0
M  V30 1998 H 185.607 -3.84951 2.9944 0
M  V30 1999 H 184.612 -2.52763 4.88253 0
M  V30 2000 H 185.837 -3.18822 5.99608 0
M  V30 2001 H 183.783 -4.81729 4.45279 0
M  V30 2002 H 183.7 -4.41535 6.13664 0
M  V30 2003 H 184.968 -5.45817 5.5651 0
M  V30 2004 N 189.197 -1.51736 -0.425897 0
M  V30 2005 C 190.13 -1.68574 -1.53812 0
M  V30 2006 C 191.108 -0.53328 -1.53606 0
M  V30 2007 O 192.292 -0.758555 -1.72564 0
M  V30 2008 C 189.419 -1.70977 -2.92377 0
M  V30 2009 C 188.465 -2.92324 -3.10563 0
M  V30 2010 S 189.298 -4.52952 -2.85648 0
M  V30 2011 C 190.454 -4.58117 -4.26474 0
M  V30 2012 H 190.687 -2.62647 -1.39298 0
M  V30 2013 H 188.22 -1.41564 -0.616361 0
M  V30 2014 H 190.178 -1.73047 -3.72243 0
M  V30 2015 H 188.839 -0.78061 -3.04245 0
M  V30 2016 H 188.032 -2.90439 -4.11899 0
M  V30 2017 H 187.634 -2.88055 -2.38538 0
M  V30 2018 H 189.926 -4.34462 -5.19855 0
M  V30 2019 H 190.869 -5.59983 -4.33388 0
M  V30 2020 H 191.277 -3.8732 -4.10662 0
M  V30 2021 N 190.675 0.682077 -1.42076 0
M  V30 2022 C 191.924 1.43786 -1.41451 0
M  V30 2023 C 192.237 1.95574 -0.0317074 0
M  V30 2024 O 193.443 2.71326 0.0971462 0
M  V30 2025 C 191.899 2.60071 -2.48779 0
M  V30 2026 C 191.507 2.15013 -3.93031 0
M  V30 2027 C 193.251 3.37626 -2.57311 0
M  V30 2028 C 191.158 3.28336 -4.91883 0
M  V30 2029 H 190.088 0.540143 -0.526082 0
M  V30 2030 H 192.739 0.739157 -1.67955 0
M  V30 2031 H 191.121 3.32275 -2.15429 0
M  V30 2032 H 192.295 1.5001 -4.35699 0
M  V30 2033 H 190.61 1.50416 -3.88284 0
M  V30 2034 H 193.207 4.22012 -3.28345 0
M  V30 2035 H 193.55 3.83727 -1.61429 0
M  V30 2036 H 194.083 2.72488 -2.89819 0
M  V30 2037 H 190.822 2.87234 -5.89217 0
M  V30 2038 H 190.342 3.92145 -4.53853 0
M  V30 2039 H 192.021 3.93913 -5.13265 0
M  V30 2040 N 192.153 1.28127 0.917671 0
M  V30 2041 C 193.564 1.13622 1.48145 0
M  V30 2042 C 193.915 -0.275207 1.9426 0
M  V30 2043 O 193.04 -1.1691 1.82102 0
M  V30 2044 C 193.635 2.05648 2.69248 0
M  V30 2045 C 192.194 1.95219 3.21818 0
M  V30 2046 C 191.341 1.97618 1.94532 0
M  V30 2047 H 194.292 1.40874 0.730772 0
M  V30 2048 H 194.313 1.61818 3.44377 0
M  V30 2049 H 193.825 3.08365 2.35653 0
M  V30 2050 H 191.926 0.955244 3.60147 0
M  V30 2051 H 192.039 2.81976 3.87333 0
M  V30 2052 H 190.403 1.41973 2.11461 0
M  V30 2053 H 191.186 3.02007 1.63238 0
M  V30 2054 N 193.631 -1.12557 1.10312 0
M  V30 2055 C 194.561 -2.20341 0.772798 0
M  V30 2056 C 195.542 -1.68198 -0.25365 0
M  V30 2057 O 196.727 -1.93831 -0.119699 0
M  V30 2058 C 193.857 -3.46709 0.202443 0
M  V30 2059 C 192.811 -4.11996 1.15943 0
M  V30 2060 C 192.137 -5.328 0.450345 0
M  V30 2061 C 193.437 -4.5828 2.50552 0
M  V30 2062 H 195.131 -2.48229 1.674 0
M  V30 2063 H 192.677 -1.19308 0.806326 0
M  V30 2064 H 194.63 -4.2138 -0.0407752 0
M  V30 2065 H 193.354 -3.18245 -0.734001 0
M  V30 2066 H 192.013 -3.39305 1.38808 0
M  V30 2067 H 191.661 -5.00602 -0.490531 0
M  V30 2068 H 191.361 -5.7743 1.08851 0
M  V30 2069 H 192.885 -6.10219 0.215642 0
M  V30 2070 H 194.299 -5.2433 2.31843 0
M  V30 2071 H 192.696 -5.13683 3.10242 0
M  V30 2072 H 193.766 -3.72329 3.10643 0
M  V30 2073 N 195.109 -0.891671 -1.2995 0
M  V30 2074 C 196.057 -0.353066 -2.29905 0
M  V30 2075 C 197.051 0.543509 -1.60444 0
M  V30 2076 O 198.257 0.4272 -1.74857 0
M  V30 2077 H 194.632 -0.095531 -0.745907 0
M  V30 2078 H 196.603 -1.20961 -2.72784 0
M  V30 2079 C 195.352 0.411475 -3.45257 0
M  V30 2080 H 194.675 -0.269182 -3.98893 0
M  V30 2081 H 196.115 0.753328 -4.17254 0
M  V30 2082 C 194.574 1.6111 -2.9588 0
M  V30 2083 O 195.104 2.71045 -2.96475 0
M  V30 2084 N 193.31 1.45054 -2.51809 0
M  V30 2085 H 192.857 0.556175 -2.51524 0
M  V30 2086 H 192.815 2.25453 -2.1913 0
M  V30 2087 N 196.587 1.43421 -0.653314 0
M  V30 2088 C 197.833 2.02641 -0.175593 0
M  V30 2089 C 198.188 1.5062 1.19713 0
M  V30 2090 O 197.481 0.689697 1.78756 0
M  V30 2091 C 197.675 3.57176 -0.126623 0
M  V30 2092 C 197.504 4.24191 -1.49306 0
M  V30 2093 C 196.274 4.60257 -2.08547 0
M  V30 2094 C 198.472 4.53193 -2.43148 0
M  V30 2095 N 196.454 5.12345 -3.38194 0
M  V30 2096 C 197.825 5.06601 -3.57429 0
M  V30 2097 C 199.88 4.35161 -2.41949 0
M  V30 2098 C 198.583 5.43875 -4.70736 0
M  V30 2099 C 200.609 4.73498 -3.54336 0
M  V30 2100 C 199.971 5.27039 -4.67343 0
M  V30 2101 H 196.07 0.77441 -0.108686 0
M  V30 2102 H 198.654 1.74596 -0.861638 0
M  V30 2103 H 196.825 3.84784 0.528766 0
M  V30 2104 H 198.557 4.03078 0.36198 0
M  V30 2105 H 195.312 4.45302 -1.61255 0
M  V30 2106 H 195.736 5.42842 -4.04538 0
M  V30 2107 H 200.378 3.9304 -1.55818 0
M  V30 2108 H 198.096 5.8494 -5.57558 0
M  V30 2109 H 201.682 4.61241 -3.5461 0
M  V30 2110 H 200.562 5.56153 -5.52868 0
M  V30 2111 N 198.065 0.39524 1.52563 0
M  V30 2112 C 199.342 -0.242908 1.94086 0
M  V30 2113 C 199.722 -1.63841 1.33114 0
M  V30 2114 O 199.07 -2.22928 0.501529 0
M  V30 2115 C 199.28 -0.26327 3.48006 0
M  V30 2116 C 200.628 -0.489354 4.21771 0
M  V30 2117 O 201.652 -0.343226 3.54543 0
M  V30 2118 O 200.511 -0.776169 5.4096 0
M  V30 2119 H 197.605 -0.152536 0.812811 0
M  V30 2120 H 200.151 0.450178 1.6362 0
M  V30 2121 H 198.923 0.713985 3.84731 0
M  V30 2122 H 198.546 -1.00103 3.84792 0
M  V30 2123 N 199.544 -1.57102 0.125237 0
M  V30 2124 C 200.821 -1.86953 -0.575142 0
M  V30 2125 C 201.201 -1.02749 -1.84407 0
M  V30 2126 O 200.549 -0.108144 -2.28244 0
M  V30 2127 C 200.759 -3.38198 -0.861583 0
M  V30 2128 C 202.107 -4.06937 -1.21192 0
M  V30 2129 O 203.131 -3.43252 -0.951645 0
M  V30 2130 O 201.99 -5.19364 -1.70068 0
M  V30 2131 H 199.084 -0.774147 -0.290906 0
M  V30 2132 H 201.63 -1.68942 0.160211 0
M  V30 2133 H 200.402 -3.91282 0.0373647 0
M  V30 2134 H 200.025 -3.61661 -1.65188 0
M  V30 2135 N 201.022 0.148545 -1.56898 0
M  V30 2136 C 202.269 0.861418 -1.83264 0
M  V30 2137 C 202.597 1.81239 -0.705883 0
M  V30 2138 O 201.852 1.93305 0.305212 0
M  V30 2139 C 202.151 1.67064 -3.1595 0
M  V30 2140 C 201.817 0.866591 -4.42494 0
M  V30 2141 C 200.479 0.644762 -4.76861 0
M  V30 2142 C 202.831 0.30418 -5.20312 0
M  V30 2143 C 200.159 -0.15021 -5.86508 0
M  V30 2144 C 202.511 -0.477824 -6.30793 0
M  V30 2145 C 201.175 -0.710244 -6.63711 0
M  V30 2146 H 200.445 0.315215 -0.670612 0
M  V30 2147 H 203.092 0.125142 -1.91091 0
M  V30 2148 H 201.397 2.47698 -3.03567 0
M  V30 2149 H 203.094 2.22566 -3.33565 0
M  V30 2150 H 199.684 1.04955 -4.15551 0
M  V30 2151 H 203.868 0.462844 -4.94137 0
M  V30 2152 H 199.124 -0.339796 -6.10455 0
M  V30 2153 H 203.298 -0.92076 -6.90286 0
M  V30 2154 H 200.925 -1.3281 -7.48509 0
M  V30 2155 N 202.5 1.5196 0.417844 0
M  V30 2156 C 203.728 1.69426 1.18753 0
M  V30 2157 C 204.143 0.399955 1.84515 0
M  V30 2158 O 203.5 -0.623288 1.71527 0
M  V30 2159 C 203.551 2.82375 2.25714 0
M  V30 2160 O 203.272 4.06793 1.62638 0
M  V30 2161 C 204.773 3.11277 3.15628 0
M  V30 2162 H 201.993 0.568031 0.357186 0
M  V30 2163 H 204.537 1.98475 0.49273 0
M  V30 2164 H 202.692 2.5587 2.90877 0
M  V30 2165 H 203.106 4.69667 2.3348 0
M  V30 2166 H 204.58 3.93843 3.86771 0
M  V30 2167 H 205.057 2.24473 3.77503 0
M  V30 2168 H 205.663 3.39515 2.56144 0
M  V30 2169 N 203.978 -0.674533 1.42435 0
M  V30 2170 C 204.925 -1.78807 1.45934 0
M  V30 2171 C 205.895 -1.63157 0.311271 0
M  V30 2172 O 207.08 -1.83707 0.515383 0
M  V30 2173 C 204.22 -3.16839 1.36773 0
M  V30 2174 C 203.333 -3.43774 2.61617 0
M  V30 2175 C 202.468 -4.71536 2.44597 0
M  V30 2176 C 201.507 -4.91505 3.64814 0
M  V30 2177 N 200.644 -6.10508 3.46734 0
M  V30 2178 H 205.484 -1.75151 2.41093 0
M  V30 2179 H 203.021 -0.85504 1.19697 0
M  V30 2180 H 204.979 -3.96606 1.29459 0
M  V30 2181 H 203.609 -3.19619 0.452089 0
M  V30 2182 H 202.661 -2.58259 2.79297 0
M  V30 2183 H 203.973 -3.54423 3.50978 0
M  V30 2184 H 203.127 -5.59393 2.3487 0
M  V30 2185 H 201.866 -4.6317 1.52726 0
M  V30 2186 H 200.871 -4.0209 3.74972 0
M  V30 2187 H 202.096 -5.01716 4.57665 0
M  V30 2188 H 200.042 -6.03315 2.5758 0
M  V30 2189 H 199.959 -6.2202 4.29682 0
M  V30 2190 H 201.227 -7.01044 3.40819 0
M  V30 2191 N 205.456 -1.28612 -0.910864 0
M  V30 2192 C 206.702 -1.16106 -1.66274 0
M  V30 2193 C 207.035 0.289113 -1.92036 0
M  V30 2194 O 206.31 1.21 -1.52281 0
M  V30 2195 C 206.593 -1.96309 -3.01885 0
M  V30 2196 C 206.446 -3.49405 -2.8326 0
M  V30 2197 C 207.765 -1.78076 -4.02463 0
M  V30 2198 H 204.884 -0.423152 -0.603417 0
M  V30 2199 H 207.526 -1.57961 -1.05586 0
M  V30 2200 H 205.676 -1.60742 -3.53687 0
M  V30 2201 H 207.348 -3.94894 -2.38446 0
M  V30 2202 H 205.591 -3.74893 -2.18261 0
M  V30 2203 H 206.262 -4.00784 -3.79574 0
M  V30 2204 H 208.738 -2.0912 -3.59733 0
M  V30 2205 H 207.614 -2.36561 -4.95308 0
M  V30 2206 H 207.875 -0.733008 -4.35981 0
M  V30 2207 N 206.934 1.1197 -1.10907 0
M  V30 2208 C 208.159 1.87942 -0.877064 0
M  V30 2209 C 208.584 1.79341 0.567314 0
M  V30 2210 O 207.942 1.15184 1.40009 0
M  V30 2211 C 207.99 3.34926 -1.33629 0
M  V30 2212 O 207.094 4.09303 -0.504447 0
M  V30 2213 H 206.435 0.583785 -0.316371 0
M  V30 2214 H 208.965 1.4157 -1.47712 0
M  V30 2215 H 208.975 3.8577 -1.32837 0
M  V30 2216 H 207.65 3.40504 -2.3881 0
M  V30 2217 H 206.227 3.68393 -0.577993 0
M  V30 2218 N 208.412 0.89855 1.29475 0
M  V30 2219 C 209.637 0.538561 2.00285 0
M  V30 2220 C 210.062 -0.869135 1.66816 0
M  V30 2221 O 209.42 -1.57831 0.892145 0
M  V30 2222 C 209.468 0.736475 3.52999 0
M  V30 2223 O 208.572 -0.211537 4.11857 0
M  V30 2224 H 207.913 0.210563 0.62973 0
M  V30 2225 H 210.443 1.20982 1.64998 0
M  V30 2226 H 210.453 0.640685 4.02938 0
M  V30 2227 H 209.128 1.76276 3.76696 0
M  V30 2228 H 207.705 -0.0682991 3.72837 0
M  V30 2229 N 209.89 -1.43072 0.660911 0
M  V30 2230 C 211.306 -1.56169 0.329173 0
M  V30 2231 C 211.506 -1.64317 -1.16629 0
M  V30 2232 O 210.562 -1.60245 -1.95135 0
M  V30 2233 C 211.875 -2.81873 1.04729 0
M  V30 2234 C 213.423 -2.95627 1.02828 0
M  V30 2235 C 213.898 -4.24174 1.72744 0
M  V30 2236 N 215.389 -4.31055 1.69545 0
M  V30 2237 C 216.124 -5.29304 2.20511 0
M  V30 2238 N 215.62 -6.33786 2.79799 0
M  V30 2239 N 217.413 -5.21008 2.10966 0
M  V30 2240 H 209.564 -1.36027 1.63127 0
M  V30 2241 H 211.827 -0.653823 0.686454 0
M  V30 2242 H 211.533 -2.81942 2.10242 0
M  V30 2243 H 211.407 -3.72338 0.603702 0
M  V30 2244 H 213.794 -2.95094 -0.0184742 0
M  V30 2245 H 213.875 -2.06431 1.51063 0
M  V30 2246 H 213.519 -4.25467 2.7738 0
M  V30 2247 H 213.449 -5.1228 1.2197 0
M  V30 2248 H 215.94 -3.56174 1.26288 0
M  V30 2249 H 216.253 -7.05086 3.16344 0
M  V30 2250 H 214.598 -6.34387 2.83863 0
M  V30 2251 H 217.789 -4.38301 1.64347 0
M  V30 2252 H 217.962 -5.97416 2.50993 0
M  V30 2253 N 211.368 -0.403325 -1.52352 0
M  V30 2254 C 212.596 0.174012 -2.06167 0
M  V30 2255 C 213.011 1.39347 -1.27388 0
M  V30 2256 O 212.368 1.79597 -0.324201 0
M  V30 2257 C 212.419 0.530223 -3.5759 0
M  V30 2258 O 212.14 -0.640806 -4.33388 0
M  V30 2259 C 213.641 1.16192 -4.27802 0
M  V30 2260 H 210.861 0.0229464 -0.670608 0
M  V30 2261 H 213.405 -0.572604 -1.9632 0
M  V30 2262 H 211.56 1.22673 -3.67464 0
M  V30 2263 H 211.974 -0.344851 -5.23365 0
M  V30 2264 H 213.448 1.36141 -5.34948 0
M  V30 2265 H 213.925 2.13335 -3.83907 0
M  V30 2266 H 214.531 0.505775 -4.22282 0
M  V30 2267 N 212.846 1.57033 -0.133567 0
M  V30 2268 C 214.092 1.95976 0.521649 0
M  V30 2269 C 214.425 1.01779 1.65393 0
M  V30 2270 O 213.7 0.0576581 1.94415 0
M  V30 2271 C 213.983 3.44738 1.04057 0
M  V30 2272 C 213.836 4.49711 -0.0892897 0
M  V30 2273 C 215.155 3.95682 1.92675 0
M  V30 2274 H 212.274 0.712579 0.188149 0
M  V30 2275 H 214.916 1.88813 -0.212076 0
M  V30 2276 H 213.066 3.50973 1.66583 0
M  V30 2277 H 214.738 4.55565 -0.725152 0
M  V30 2278 H 212.981 4.27261 -0.750378 0
M  V30 2279 H 213.652 5.51099 0.315284 0
M  V30 2280 H 216.128 3.91841 1.39998 0
M  V30 2281 H 215.004 5.00262 2.25897 0
M  V30 2282 H 215.265 3.37239 2.85872 0
M  V30 2283 N 214.325 -0.140222 1.56975 0
M  V30 2284 C 215.235 -1.19223 2.02047 0
M  V30 2285 C 216.251 -1.46612 0.937062 0
M  V30 2286 O 217.427 -1.58148 1.24704 0
M  V30 2287 C 214.492 -2.50414 2.39778 0
M  V30 2288 C 213.553 -2.30612 3.621 0
M  V30 2289 C 212.786 -3.55547 3.98023 0
M  V30 2290 O 213.009 -4.62004 3.34528 0
M  V30 2291 O 211.943 -3.47808 4.91237 0
M  V30 2292 H 215.769 -0.839559 2.91865 0
M  V30 2293 H 213.354 -0.349453 1.45256 0
M  V30 2294 H 215.236 -3.27747 2.64877 0
M  V30 2295 H 213.911 -2.85198 1.53114 0
M  V30 2296 H 212.818 -1.51207 3.4218 0
M  V30 2297 H 214.151 -2.00741 4.49404 0
M  V30 2298 N 215.803 -1.52179 -0.40978 0
M  V30 2299 C 217.08 -1.56769 -1.16974 0
M  V30 2300 C 217.46 -0.348322 -2.08206 0
M  V30 2301 O 216.808 0.664862 -2.18613 0
M  V30 2302 C 217.018 -2.89603 -1.9476 0
M  V30 2303 C 218.366 -3.42579 -2.50849 0
M  V30 2304 O 219.39 -2.91338 -2.04941 0
M  V30 2305 O 218.249 -4.32054 -3.34652 0
M  V30 2306 H 215.343 -0.631439 -0.534054 0
M  V30 2307 H 217.889 -1.64507 -0.416613 0
M  V30 2308 H 216.661 -3.698 -1.27921 0
M  V30 2309 H 216.284 -2.85155 -2.77079 0
M  V30 2310 N 217.281 0.66697 -1.42791 0
M  V30 2311 C 218.509 1.45505 -1.47091 0
M  V30 2312 C 218.924 1.8861 -0.0845873 0
M  V30 2313 O 218.281 1.58632 0.90234 0
M  V30 2314 C 218.332 2.69906 -2.40485 0
M  V30 2315 O 218.053 2.28608 -3.73725 0
M  V30 2316 C 219.554 3.63396 -2.53886 0
M  V30 2317 H 216.774 0.447459 -0.500022 0
M  V30 2318 H 219.318 0.818866 -1.8739 0
M  V30 2319 H 217.473 3.29696 -2.03419 0
M  V30 2320 H 217.887 3.08997 -4.23817 0
M  V30 2321 H 219.361 4.47387 -3.2334 0
M  V30 2322 H 219.838 4.09824 -1.57927 0
M  V30 2323 H 220.444 3.09495 -2.91706 0
M  V30 2324 N 218.759 1.29093 0.90403 0
M  V30 2325 C 219.707 1.13727 2.02901 0
M  V30 2326 C 220.701 0.0539853 1.69314 0
M  V30 2327 O 221.907 0.213469 1.7873 0
M  V30 2328 H 218.282 0.35117 0.664969 0
M  V30 2329 H 220.253 2.08982 2.13001 0
M  V30 2330 C 219.002 0.826066 3.37745 0
M  V30 2331 H 218.325 1.65164 3.64089 0
M  V30 2332 H 219.765 0.758559 4.17159 0
M  V30 2333 C 218.224 -0.470541 3.33598 0
M  V30 2334 O 218.754 -1.49792 3.72727 0
M  V30 2335 N 216.96 -0.474812 2.86695 0
M  V30 2336 H 216.507 0.361692 2.55048 0
M  V30 2337 H 216.465 -1.34236 2.84303 0
M  V30 2338 N 220.237 -1.11381 1.11499 0
M  V30 2339 C 221.648 -1.6465 0.880191 0
M  V30 2340 C 221.999 -1.87199 -0.587434 0
M  V30 2341 O 221.124 -1.60667 -1.44966 0
M  V30 2342 C 221.719 -2.99105 1.59128 0
M  V30 2343 C 220.278 -3.49279 1.40289 0
M  V30 2344 C 219.425 -2.24077 1.63354 0
M  V30 2345 H 222.376 -0.950123 1.27116 0
M  V30 2346 H 222.397 -3.66107 1.03664 0
M  V30 2347 H 221.909 -2.82661 2.65941 0
M  V30 2348 H 220.01 -3.70887 0.356888 0
M  V30 2349 H 220.123 -4.2803 2.15238 0
M  V30 2350 H 218.487 -2.31733 1.05698 0
M  V30 2351 H 219.27 -2.10175 2.71443 0
M  V30 2352 N 221.715 -0.905404 -1.28997 0
M  V30 2353 C 222.678 -0.392253 -2.25819 0
M  V30 2354 C 223.678 0.476753 -1.5357 0
M  V30 2355 O 224.868 0.280994 -1.71919 0
M  V30 2356 C 222 0.438588 -3.38067 0
M  V30 2357 H 223.193 -1.24743 -2.72725 0
M  V30 2358 H 220.746 -0.684051 -1.40536 0
M  V30 2359 H 221.481 1.31352 -2.96508 0
M  V30 2360 H 221.266 -0.184167 -3.91667 0
M  V30 2361 H 222.756 0.78873 -4.10084 0
M  V30 2362 N 223.193 1.4272 -0.668489 0
M  V30 2363 C 224.123 2.335 -0.000100175 0
M  V30 2364 C 225.104 1.50328 0.795964 0
M  V30 2365 O 226.289 1.78949 0.754385 0
M  V30 2366 C 223.419 3.33874 0.956302 0
M  V30 2367 C 222.373 4.27152 0.269278 0
M  V30 2368 C 221.699 5.17684 1.33818 0
M  V30 2369 C 222.999 5.15373 -0.847805 0
M  V30 2370 H 224.693 2.89639 -0.758244 0
M  V30 2371 H 222.239 1.39269 -0.366079 0
M  V30 2372 H 224.192 3.9629 1.43292 0
M  V30 2373 H 222.916 2.76025 1.74579 0
M  V30 2374 H 221.575 3.66123 -0.187042 0
M  V30 2375 H 221.223 4.56165 2.1195 0
M  V30 2376 H 220.923 5.80918 0.883659 0
M  V30 2377 H 222.447 5.82974 1.81586 0
M  V30 2378 H 223.861 5.7151 -0.452681 0
M  V30 2379 H 222.258 5.87407 -1.22773 0
M  V30 2380 H 223.328 4.5415 -1.69929 0
M  V30 2381 N 224.671 0.411399 1.52136 0
M  V30 2382 C 225.899 -0.163076 2.06256 0
M  V30 2383 C 226.314 -1.3867 1.28125 0
M  V30 2384 O 225.671 -1.79423 0.333721 0
M  V30 2385 C 225.722 -0.511252 3.57867 0
M  V30 2386 O 225.443 0.66378 4.33042 0
M  V30 2387 C 226.944 -1.13921 4.28412 0
M  V30 2388 H 224.164 -0.0193897 0.67072 0
M  V30 2389 H 226.708 0.583007 1.96013 0
M  V30 2390 H 224.863 -1.20723 3.6811 0
M  V30 2391 H 225.277 0.372601 5.23175 0
M  V30 2392 H 226.751 -1.33302 5.35663 0
M  V30 2393 H 227.228 -2.11296 3.85033 0
M  V30 2394 H 227.834 -0.483373 4.22544 0
M  V30 2395 N 226.149 -1.5696 0.141893 0
M  V30 2396 C 227.099 -2.13074 -0.811383 0
M  V30 2397 C 228.083 -1.05726 -1.21288 0
M  V30 2398 O 229.275 -1.31914 -1.18015 0
M  V30 2399 C 226.404 -2.75186 -2.0525 0
M  V30 2400 C 225.49 -3.8965 -1.67432 0
M  V30 2401 N 225.881 -4.95733 -1.0041 0
M  V30 2402 C 224.179 -4.00262 -1.96739 0
M  V30 2403 C 224.88 -5.75858 -0.822345 0
M  V30 2404 N 223.856 -5.26452 -1.3546 0
M  V30 2405 H 227.658 -2.92465 -0.290031 0
M  V30 2406 H 225.172 -1.6229 -0.0598218 0
M  V30 2407 H 227.169 -3.13745 -2.74535 0
M  V30 2408 H 225.829 -1.97266 -2.57907 0
M  V30 2409 H 226.84 -5.13607 -0.665441 0
M  V30 2410 H 223.517 -3.33412 -2.51282 0
M  V30 2411 H 224.907 -6.71254 -0.294496 0
M  V30 2412 N 227.627 0.131896 -1.57047 0
M  V30 2413 C 228.855 0.856461 -1.88341 0
M  V30 2414 C 229.27 1.74042 -0.731757 0
M  V30 2415 O 228.627 1.80051 0.297945 0
M  V30 2416 C 228.678 1.70064 -3.18999 0
M  V30 2417 O 228.399 0.852278 -4.2973 0
M  V30 2418 C 229.9 2.53148 -3.63911 0
M  V30 2419 H 227.12 0.246885 -0.62393 0
M  V30 2420 H 229.664 0.120152 -2.04147 0
M  V30 2421 H 227.819 2.38984 -3.04902 0
M  V30 2422 H 228.233 1.43329 -5.04537 0
M  V30 2423 H 229.707 3.07931 -4.58129 0
M  V30 2424 H 230.184 3.29901 -2.89935 0
M  V30 2425 H 230.79 1.89492 -3.80753 0
M  V30 2426 N 229.106 1.52395 0.401703 0
M  V30 2427 C 230.336 1.70429 1.1678 0
M  V30 2428 C 230.744 0.416702 1.84554 0
M  V30 2429 O 230.087 -0.617697 1.73003 0
M  V30 2430 C 230.149 2.78919 2.26814 0
M  V30 2431 C 229.813 4.20437 1.79113 0
M  V30 2432 C 230.81 5.04028 1.27482 0
M  V30 2433 C 228.495 4.66704 1.85722 0
M  V30 2434 C 230.489 6.31961 0.830913 0
M  V30 2435 C 228.176 5.94625 1.40942 0
M  V30 2436 C 229.174 6.77082 0.897128 0
M  V30 2437 O 228.862 8.02607 0.455822 0
M  V30 2438 H 228.594 0.574272 0.356634 0
M  V30 2439 H 231.148 1.99767 0.477724 0
M  V30 2440 H 229.378 2.44973 2.99207 0
M  V30 2441 H 231.067 2.8548 2.88541 0
M  V30 2442 H 231.833 4.69471 1.21744 0
M  V30 2443 H 227.712 4.0262 2.24539 0
M  V30 2444 H 231.256 6.96271 0.430368 0
M  V30 2445 H 227.153 6.28688 1.46362 0
M  V30 2446 H 227.921 8.16453 0.578457 0
M  V30 2447 N 230.584 -0.659388 1.43143 0
M  V30 2448 C 231.494 -1.80167 1.50256 0
M  V30 2449 C 232.51 -1.69571 0.390106 0
M  V30 2450 O 233.686 -1.90849 0.643319 0
M  V30 2451 C 230.751 -3.16409 1.41725 0
M  V30 2452 C 229.812 -3.38848 2.63591 0
M  V30 2453 C 229.045 -4.68591 2.55458 0
M  V30 2454 O 229.268 -5.47532 1.59891 0
M  V30 2455 O 228.202 -4.92614 3.45854 0
M  V30 2456 H 232.028 -1.77121 2.46702 0
M  V30 2457 H 229.613 -0.817092 1.25076 0
M  V30 2458 H 231.495 -3.9768 1.39387 0
M  V30 2459 H 230.17 -3.20059 0.484118 0
M  V30 2460 H 229.077 -2.57366 2.71502 0
M  V30 2461 H 230.41 -3.4004 3.55856 0
M  V30 2462 N 232.062 -1.29571 -0.897171 0
M  V30 2463 C 233.308 -1.17863 -1.65034 0
M  V30 2464 C 233.641 0.268729 -1.92332 0
M  V30 2465 O 232.916 1.19378 -1.53555 0
M  V30 2466 C 233.199 -1.995 -2.99786 0
M  V30 2467 C 233.052 -3.5239 -2.79538 0
M  V30 2468 C 234.371 -1.82335 -4.00552 0
M  V30 2469 H 231.49 -0.429528 -0.598895 0
M  V30 2470 H 234.132 -1.59072 -1.03905 0
M  V30 2471 H 232.282 -1.64485 -3.51962 0
M  V30 2472 H 233.954 -3.97401 -2.34244 0
M  V30 2473 H 232.197 -3.77187 -2.14273 0
M  V30 2474 H 232.868 -4.04787 -3.75302 0
M  V30 2475 H 235.344 -2.12924 -3.57495 0
M  V30 2476 H 234.22 -2.41801 -4.92771 0
M  V30 2477 H 234.481 -0.779209 -4.35179 0
M  V30 2478 N 233.54 1.10788 -1.12088 0
M  V30 2479 C 234.786 1.8313 -0.885148 0
M  V30 2480 C 235.141 1.8336 0.582839 0
M  V30 2481 O 234.434 1.28062 1.42516 0
M  V30 2482 C 234.628 3.29294 -1.38926 0
M  V30 2483 C 234.457 3.43302 -2.90472 0
M  V30 2484 C 233.227 3.55928 -3.58669 0
M  V30 2485 C 235.425 3.37014 -3.88492 0
M  V30 2486 N 233.407 3.58475 -4.98366 0
M  V30 2487 C 234.778 3.46263 -5.14298 0
M  V30 2488 C 236.833 3.20589 -3.80955 0
M  V30 2489 C 235.536 3.4078 -6.33452 0
M  V30 2490 C 237.562 3.16427 -4.99628 0
M  V30 2491 C 236.924 3.26253 -6.2429 0
M  V30 2492 H 233.023 0.685054 -0.377128 0
M  V30 2493 H 235.607 1.3251 -1.4265 0
M  V30 2494 H 233.778 3.78416 -0.874999 0
M  V30 2495 H 235.51 3.89578 -1.09596 0
M  V30 2496 H 232.265 3.58779 -3.09151 0
M  V30 2497 H 232.689 3.6337 -5.71219 0
M  V30 2498 H 237.331 3.11873 -2.85474 0
M  V30 2499 H 235.049 3.48263 -7.29204 0
M  V30 2500 H 238.635 3.04874 -4.95523 0
M  V30 2501 H 237.515 3.2303 -7.14578 0
M  V30 2502 N 235.018 0.912232 1.28515 0
M  V30 2503 C 235.95 0.35676 2.26406 0
M  V30 2504 C 236.963 -0.503933 1.54804 0
M  V30 2505 O 238.152 -0.319059 1.75625 0
M  V30 2506 C 235.252 -0.508825 3.35058 0
M  V30 2507 C 234.425 0.329007 4.36161 0
M  V30 2508 C 233.484 -0.471422 5.24084 0
M  V30 2509 O 232.51 0.115482 5.69083 0
M  V30 2510 N 233.712 -1.77479 5.52704 0
M  V30 2511 H 236.477 1.19818 2.74707 0
M  V30 2512 H 234.038 0.778022 1.4198 0
M  V30 2513 H 236.03 -1.051 3.90815 0
M  V30 2514 H 234.6 -1.25095 2.86478 0
M  V30 2515 H 233.82 1.05256 3.79888 0
M  V30 2516 H 235.108 0.90234 5.00735 0
M  V30 2517 H 234.506 -2.27417 5.17975 0
M  V30 2518 H 233.063 -2.26382 6.11224 0
M  V30 2519 N 236.496 -1.42363 0.676048 0
M  V30 2520 C 237.443 -2.308 -0.00150904 0
M  V30 2521 C 238.413 -1.46032 -0.791444 0
M  V30 2522 O 239.598 -1.74861 -0.76344 0
M  V30 2523 C 236.738 -3.31883 -0.945919 0
M  V30 2524 C 235.851 -4.31741 -0.149675 0
M  V30 2525 C 234.986 -5.19898 -1.08995 0
M  V30 2526 C 234.025 -6.11434 -0.285465 0
M  V30 2527 N 233.162 -6.92138 -1.17851 0
M  V30 2528 H 238.002 -2.88187 0.758455 0
M  V30 2529 H 235.539 -1.41952 0.38576 0
M  V30 2530 H 237.497 -3.89019 -1.50731 0
M  V30 2531 H 236.127 -2.76093 -1.6725 0
M  V30 2532 H 235.179 -3.76713 0.528359 0
M  V30 2533 H 236.491 -4.96534 0.474866 0
M  V30 2534 H 235.645 -5.81772 -1.72123 0
M  V30 2535 H 234.384 -4.55284 -1.74837 0
M  V30 2536 H 233.389 -5.48627 0.359018 0
M  V30 2537 H 234.614 -6.78097 0.368883 0
M  V30 2538 H 232.56 -6.30152 -1.82332 0
M  V30 2539 H 232.477 -7.53542 -0.609082 0
M  V30 2540 H 233.745 -7.58499 -1.79722 0
M  V30 2541 N 237.974 -0.419461 -1.51915 0
M  V30 2542 C 238.921 0.400927 -2.27291 0
M  V30 2543 C 239.891 1.03224 -1.30131 0
M  V30 2544 O 241.076 1.05455 -1.59009 0
M  V30 2545 C 238.216 1.50603 -3.10504 0
M  V30 2546 C 237.329 0.89462 -4.22635 0
M  V30 2547 C 236.464 1.97328 -4.93189 0
M  V30 2548 C 235.503 1.33935 -5.97267 0
M  V30 2549 N 234.64 2.3586 -6.61298 0
M  V30 2550 H 239.48 -0.248251 -2.96964 0
M  V30 2551 H 237.017 -0.134266 -1.46486 0
M  V30 2552 H 238.975 2.15783 -3.57062 0
M  V30 2553 H 237.605 2.12509 -2.42981 0
M  V30 2554 H 236.657 0.131583 -3.80172 0
M  V30 2555 H 237.969 0.391641 -4.9726 0
M  V30 2556 H 237.123 2.70211 -5.43204 0
M  V30 2557 H 235.862 2.50994 -4.18155 0
M  V30 2558 H 234.867 0.595896 -5.46561 0
M  V30 2559 H 236.092 0.810252 -6.74249 0
M  V30 2560 H 234.038 2.88639 -5.89087 0
M  V30 2561 H 233.955 1.90403 -7.3163 0
M  V30 2562 H 235.223 3.08282 -7.15949 0
M  V30 2563 N 239.452 1.56882 -0.150215 0
M  V30 2564 C 240.415 2.1573 0.774157 0
M  V30 2565 C 241.415 1.0999 1.17298 0
M  V30 2566 O 242.605 1.35613 1.09338 0
M  V30 2567 C 239.737 2.72302 2.05096 0
M  V30 2568 H 240.93 2.98752 0.262201 0
M  V30 2569 H 238.483 1.55985 0.099248 0
M  V30 2570 H 239.218 1.92956 2.6065 0
M  V30 2571 H 239.003 3.49665 1.77416 0
M  V30 2572 H 240.493 3.17632 2.71109 0
M  V30 2573 O 240.969 0.011717 1.61496 0
M  V30 2574 H 241.66 -0.603327 1.84064 0
M  V30 END ATOM
M  V30 BEGIN BOND
M  V30 END BOND
M  V30 END CTAB
M  END
$$$$
