drugbank_target|P00387 NADH-cytochrome b5 reductase 3 (DB00157; DB03147; DB09130)
 OpenBabel12092119253D

  0  0  0     0  0            999 V3000
M  V30 BEGIN CTAB
M  V30 COUNTS 4844 4912 0 0 0
M  V30 BEGIN ATOM
M  V30 1 H -0.908 1.98254 -0.117106 0
M  V30 2 N 0 1.576 0 0
M  V30 3 C 0.933 2.03868 1.02534 0
M  V30 4 C 1.911 0.928543 1.3348 0
M  V30 5 O 3.095 1.19667 1.45644 0
M  V30 6 C 0.222 2.43627 2.35294 0
M  V30 7 C -0.732 3.65373 2.2001 0
M  V30 8 S 0.101 5.13292 1.52614 0
M  V30 9 C 1.257 5.56322 2.86805 0
M  V30 10 H 1.49 2.90518 0.631377 0
M  V30 11 H -0.977 1.52953 0.210867 0
M  V30 12 H 0.981 2.67203 3.11629 0
M  V30 13 H -0.358 1.57376 2.7183 0
M  V30 14 H -1.165 3.90944 3.18086 0
M  V30 15 H -1.563 3.418 1.51819 0
M  V30 16 H 0.729 5.58782 3.83104 0
M  V30 17 H 1.672 6.56266 2.65933 0
M  V30 18 H 2.08 4.83886 2.90714 0
M  V30 19 N 1.4781 -0.272755 1.55222 0
M  V30 20 C 2.7261 -1.00234 1.75492 0
M  V30 21 C 3.0471 -1.8681 0.5592 0
M  V30 22 O 2.3171 -1.91215 -0.425882 0
M  V30 23 H 0.8971 -0.373076 0.647166 0
M  V30 24 H 3.5591 -0.296926 1.92625 0
M  V30 25 H 2.6551 -1.63913 2.65592 0
M  V30 26 N 2.9562 -1.48159 -0.537278 0
M  V30 27 C 3.9192 -1.61665 -1.62472 0
M  V30 28 C 4.9192 -0.490395 -1.5314 0
M  V30 29 O 6.1092 -0.755998 -1.5694 0
M  V30 30 C 3.2412 -1.57997 -3.02076 0
M  V30 31 H 4.4342 -2.58621 -1.51839 0
M  V30 32 H 1.9872 -1.36647 -0.758771 0
M  V30 33 H 2.7222 -0.624913 -3.18222 0
M  V30 34 H 2.5072 -2.39755 -3.10258 0
M  V30 35 H 3.9972 -1.70627 -3.81151 0
M  V30 36 N 4.4343 0.785586 -1.36625 0
M  V30 37 C 5.3663 1.90711 -1.2713 0
M  V30 38 C 6.3793 1.61688 -0.189986 0
M  V30 39 O 7.5683 1.72864 -0.445014 0
M  V30 40 C 4.6683 3.25611 -0.939713 0
M  V30 41 C 3.8413 3.82385 -2.12369 0
M  V30 42 C 2.9003 4.95732 -1.76456 0
M  V30 43 O 1.9263 5.12047 -2.48589 0
M  V30 44 N 3.1283 5.76258 -0.700492 0
M  V30 45 H 5.8933 1.99376 -2.23762 0
M  V30 46 H 3.4543 0.964041 -1.30069 0
M  V30 47 H 5.4463 3.98937 -0.680554 0
M  V30 48 H 4.0163 3.12538 -0.0624074 0
M  V30 49 H 3.2363 3.01001 -2.54543 0
M  V30 50 H 4.5243 4.17047 -2.9146 0
M  V30 51 H 3.9223 5.65609 -0.101624 0
M  V30 52 H 2.4793 6.4987 -0.501165 0
M  V30 53 N 5.9124 1.20967 1.01018 0
M  V30 54 C 6.8424 0.988272 2.11555 0
M  V30 55 C 7.8234 -0.0849778 1.69888 0
M  V30 56 O 9.0084 0.0738202 1.9406 0
M  V30 57 C 6.1384 0.546528 3.42973 0
M  V30 58 C 5.0924 1.56375 3.9841 0
M  V30 59 C 4.4184 0.97842 5.25672 0
M  V30 60 C 5.7184 2.94922 4.31066 0
M  V30 61 H 7.4124 1.91276 2.30334 0
M  V30 62 H 4.9584 0.921073 1.1069 0
M  V30 63 H 6.9114 0.378839 4.19694 0
M  V30 64 H 5.6354 -0.413598 3.23971 0
M  V30 65 H 4.2944 1.71891 3.23804 0
M  V30 66 H 3.9424 0.0101688 5.02999 0
M  V30 67 H 3.6424 1.65784 5.63728 0
M  V30 68 H 5.1664 0.821939 6.05043 0
M  V30 69 H 6.5804 2.8288 4.9865 0
M  V30 70 H 4.9774 3.5983 4.80253 0
M  V30 71 H 6.0474 3.4616 3.39561 0
M  V30 72 N 7.3905 -1.2043 1.01659 0
M  V30 73 C 8.6155 -1.94318 0.724942 0
M  V30 74 C 9.0405 -1.74266 -0.708034 0
M  V30 75 O 8.3985 -1.03694 -1.48719 0
M  V30 76 C 8.4465 -3.44486 1.06591 0
M  V30 77 O 7.5505 -4.12017 0.177599 0
M  V30 78 H 6.8915 -0.60708 0.26898 0
M  V30 79 H 9.4215 -1.52861 1.35995 0
M  V30 80 H 9.4315 -3.95106 1.01762 0
M  V30 81 H 8.1065 -3.58404 2.10997 0
M  V30 82 H 6.6835 -3.71821 0.283421 0
M  V30 83 N 8.8686 -0.792821 -1.36206 0
M  V30 84 C 10.0966 -0.378825 -2.03402 0
M  V30 85 C 10.5116 1.00586 -1.59774 0
M  V30 86 O 9.8686 1.64574 -0.788764 0
M  V30 87 C 9.9196 -0.43683 -3.58851 0
M  V30 88 O 9.6406 -1.76691 -4.00889 0
M  V30 89 C 11.1416 -0.0138943 -4.43298 0
M  V30 90 H 8.3616 -0.155673 -0.652692 0
M  V30 91 H 10.9056 -1.07261 -1.74113 0
M  V30 92 H 9.0606 0.208575 -3.86838 0
M  V30 93 H 9.4746 -1.72011 -4.95492 0
M  V30 94 H 10.9486 -0.105615 -5.51899 0
M  V30 95 H 11.4256 1.03915 -4.2673 0
M  V30 96 H 12.0316 -0.63192 -4.20579 0
M  V30 97 N 10.3467 1.47872 -0.545128 0
M  V30 98 C 11.2767 2.32661 0.197793 0
M  V30 99 C 12.2577 1.43041 0.920504 0
M  V30 100 O 13.4427 1.71912 0.90333 0
M  V30 101 C 10.5727 3.24569 1.23582 0
M  V30 102 C 9.5267 4.23333 0.630323 0
M  V30 103 C 8.8527 5.0448 1.77211 0
M  V30 104 C 10.1527 5.20704 -0.407974 0
M  V30 105 H 11.8467 2.95024 -0.510045 0
M  V30 106 H 9.3927 1.4187 -0.246731 0
M  V30 107 H 11.3457 3.8272 1.76362 0
M  V30 108 H 10.0697 2.60236 1.97344 0
M  V30 109 H 8.7287 3.6639 0.123922 0
M  V30 110 H 8.3767 4.36561 2.49847 0
M  V30 111 H 8.0767 5.71339 1.37281 0
M  V30 112 H 9.6007 5.65487 2.3034 0
M  V30 113 H 11.0147 5.7329 0.033305 0
M  V30 114 H 9.4117 5.95699 -0.725486 0
M  V30 115 H 10.4817 4.66917 -1.30828 0
M  V30 116 N 11.8248 0.280983 1.55075 0
M  V30 117 C 13.0728 -0.333455 1.9933 0
M  V30 118 C 13.3938 -1.55937 1.17085 0
M  V30 119 O 12.6638 -1.94143 0.261805 0
M  V30 120 H 11.2438 -0.126197 0.736263 0
M  V30 121 H 13.9058 0.387678 1.91005 0
M  V30 122 H 13.0018 -0.619292 3.05894 0
M  V30 123 N 13.3029 -1.57598 0.00835791 0
M  V30 124 C 14.2529 -2.05431 -0.989045 0
M  V30 125 C 15.2369 -0.950662 -1.29812 0
M  V30 126 O 16.4289 -1.21438 -1.28771 0
M  V30 127 C 13.5579 -2.56801 -2.27833 0
M  V30 128 C 12.6439 -3.74058 -1.99853 0
M  V30 129 N 13.0349 -4.8544 -1.42062 0
M  V30 130 C 11.3329 -3.82148 -2.29953 0
M  V30 131 C 12.0339 -5.66817 -1.30743 0
M  V30 132 N 11.0099 -5.13077 -1.7959 0
M  V30 133 H 14.8119 -2.88955 -0.536853 0
M  V30 134 H 12.3259 -1.61199 -0.197148 0
M  V30 135 H 14.3229 -2.89349 -3.00137 0
M  V30 136 H 12.9829 -1.74699 -2.73698 0
M  V30 137 H 13.9939 -5.0612 -1.09833 0
M  V30 138 H 10.6709 -3.10916 -2.78635 0
M  V30 139 H 12.0609 -6.66343 -0.862328 0
M  V30 140 N 14.781 0.264519 -1.55364 0
M  V30 141 C 15.714 1.35297 -1.83766 0
M  V30 142 C 16.692 1.47171 -0.691336 0
M  V30 143 O 17.876 1.63663 -0.935238 0
M  V30 144 C 15.003 2.72847 -2.00679 0
M  V30 145 C 14.049 2.78214 -3.23263 0
M  V30 146 S 14.882 2.36601 -4.80396 0
M  V30 147 C 16.038 3.7611 -5.00292 0
M  V30 148 H 16.271 1.11003 -2.758 0
M  V30 149 H 13.804 0.464596 -1.47244 0
M  V30 150 H 15.762 3.52057 -2.11108 0
M  V30 151 H 14.423 2.94388 -1.09518 0
M  V30 152 H 13.616 3.7919 -3.3201 0
M  V30 153 H 13.218 2.07034 -3.11469 0
M  V30 154 H 15.51 4.71457 -4.86554 0
M  V30 155 H 16.453 3.7231 -6.02321 0
M  V30 156 H 16.861 3.67806 -4.28228 0
M  V30 157 N 16.2591 1.48442 0.529413 0
M  V30 158 C 17.5051 1.5672 1.28711 0
M  V30 159 C 17.8381 0.2406 1.92704 0
M  V30 160 O 17.1131 -0.753454 1.79313 0
M  V30 161 C 17.3961 2.70587 2.37603 0
M  V30 162 C 17.2491 4.12953 1.78297 0
M  V30 163 C 18.5681 2.80212 3.39366 0
M  V30 164 H 15.6871 0.570474 0.466613 0
M  V30 165 H 18.3291 1.80617 0.589706 0
M  V30 166 H 16.4791 2.50342 2.97088 0
M  V30 167 H 18.1511 4.44639 1.22858 0
M  V30 168 H 16.3941 4.19927 1.0883 0
M  V30 169 H 17.0651 4.88448 2.57144 0
M  V30 170 H 19.5411 2.98553 2.89836 0
M  V30 171 H 18.4171 3.61611 4.12951 0
M  V30 172 H 18.6781 1.88393 3.99951 0
M  V30 173 N 17.7372 -0.778329 1.37039 0
M  V30 174 C 18.6672 -1.90546 1.34962 0
M  V30 175 C 19.6482 -1.68681 0.219274 0
M  V30 176 O 20.8332 -1.89634 0.418624 0
M  V30 177 C 17.9632 -3.27734 1.14925 0
M  V30 178 C 16.9172 -3.64147 2.24902 0
M  V30 179 C 16.2432 -4.99806 1.89996 0
M  V30 180 C 17.5432 -3.71579 3.67051 0
M  V30 181 H 19.2372 -1.92541 2.29277 0
M  V30 182 H 16.7832 -0.924948 1.10366 0
M  V30 183 H 18.7362 -4.06215 1.12104 0
M  V30 184 H 17.4602 -3.26154 0.170631 0
M  V30 185 H 16.1192 -2.8797 2.26868 0
M  V30 186 H 15.7672 -4.94759 0.906796 0
M  V30 187 H 15.4672 -5.25139 2.63634 0
M  V30 188 H 16.9912 -5.80694 1.88749 0
M  V30 189 H 18.4052 -4.40227 3.67251 0
M  V30 190 H 16.8022 -4.08405 4.39688 0
M  V30 191 H 17.8722 -2.72404 4.01154 0
M  V30 192 N 19.2153 -1.21501 -1.00376 0
M  V30 193 C 20.4623 -1.03299 -1.74171 0
M  V30 194 C 20.7903 0.433326 -1.89612 0
M  V30 195 O 20.0453 1.33779 -1.42834 0
M  V30 196 C 20.3443 -1.67673 -3.15627 0
M  V30 197 C 20.0103 -3.17533 -3.2013 0
M  V30 198 C 18.6723 -3.58427 -3.21067 0
M  V30 199 C 21.0243 -4.13504 -3.17275 0
M  V30 200 C 18.3523 -4.93794 -3.16835 0
M  V30 201 C 20.7043 -5.48834 -3.14585 0
M  V30 202 C 19.3683 -5.89123 -3.13831 0
M  V30 203 H 18.6383 -0.377999 -0.637336 0
M  V30 204 H 21.2853 -1.51111 -1.17634 0
M  V30 205 H 19.5903 -1.12158 -3.75404 0
M  V30 206 H 21.2873 -1.51091 -3.71446 0
M  V30 207 H 17.8773 -2.84965 -3.20145 0
M  V30 208 H 22.0613 -3.82936 -3.15711 0
M  V30 209 H 17.3173 -5.24255 -3.1459 0
M  V30 210 H 21.4913 -6.22934 -3.1133 0
M  V30 211 H 19.1183 -6.93984 -3.10307 0
M  V30 212 N 20.6934 1.19889 -1.02296 0
M  V30 213 C 22.1044 1.71124 -0.746568 0
M  V30 214 C 22.4554 1.81939 0.734335 0
M  V30 215 O 21.5804 1.48639 1.57275 0
M  V30 216 C 22.1754 3.10804 -1.34857 0
M  V30 217 C 20.7344 3.59323 -1.1209 0
M  V30 218 C 19.8814 2.3635 -1.45031 0
M  V30 219 H 22.8324 1.04813 -1.19163 0
M  V30 220 H 22.8534 3.73186 -0.742437 0
M  V30 221 H 22.3654 3.029 -2.42638 0
M  V30 222 H 20.4664 3.7255 -0.0610337 0
M  V30 223 H 20.5794 4.4378 -1.80544 0
M  V30 224 H 18.9434 2.39399 -0.869487 0
M  V30 225 H 19.7264 2.31081 -2.53883 0
M  V30 226 N 22.1715 0.800033 1.35784 0
M  V30 227 C 23.4175 0.377901 1.99248 0
M  V30 228 C 23.7505 -1.05052 1.63333 0
M  V30 229 O 23.0255 -1.72768 0.893385 0
M  V30 230 C 23.3085 0.553922 3.55814 0
M  V30 231 C 23.1615 2.0268 4.01548 0
M  V30 232 C 24.4805 -0.0244802 4.40093 0
M  V30 233 H 21.5995 0.138782 0.723815 0
M  V30 234 H 24.2415 1.00835 1.61035 0
M  V30 235 H 22.3915 0.0172398 3.88496 0
M  V30 236 H 24.0635 2.62536 3.79305 0
M  V30 237 H 22.3065 2.5256 3.52698 0
M  V30 238 H 22.9775 2.10087 5.10458 0
M  V30 239 H 25.4535 0.433775 4.13833 0
M  V30 240 H 24.3295 0.128637 5.48749 0
M  V30 241 H 24.5905 -1.11758 4.27741 0
M  V30 242 N 23.6496 -1.47581 0.552962 0
M  V30 243 C 24.8956 -2.03369 0.0355807 0
M  V30 244 C 25.2506 -1.42016 -1.29805 0
M  V30 245 O 24.5436 -0.564917 -1.83083 0
M  V30 246 C 24.7376 -3.57199 -0.119728 0
M  V30 247 C 24.5666 -4.33468 1.1973 0
M  V30 248 C 23.3366 -4.7353 1.76345 0
M  V30 249 C 25.5346 -4.68866 2.11351 0
M  V30 250 N 23.5166 -5.34426 3.02097 0
M  V30 251 C 24.8876 -5.3002 3.21681 0
M  V30 252 C 26.9426 -4.50795 2.11397 0
M  V30 253 C 25.6456 -5.75011 4.32151 0
M  V30 254 C 27.6716 -4.96782 3.20876 0
M  V30 255 C 27.0336 -5.57981 4.29926 0
M  V30 256 H 23.1326 -0.780058 0.0550806 0
M  V30 257 H 25.7166 -1.80117 0.739315 0
M  V30 258 H 23.8876 -3.80227 -0.792579 0
M  V30 259 H 25.6196 -3.99627 -0.638792 0
M  V30 260 H 22.3746 -4.55352 1.30196 0
M  V30 261 H 22.7986 -5.69421 3.66182 0
M  V30 262 H 27.4406 -4.0284 1.28372 0
M  V30 263 H 25.1586 -6.21959 5.15938 0
M  V30 264 H 28.7446 -4.84573 3.21994 0
M  V30 265 H 27.6246 -5.92918 5.13243 0
M  V30 266 N 25.1277 -0.289203 -1.54924 0
M  V30 267 C 26.3747 0.323519 -1.99899 0
M  V30 268 C 26.7027 1.54797 -1.17762 0
M  V30 269 O 25.9577 1.94237 -0.238835 0
M  V30 270 C 26.2567 0.736119 -3.49737 0
M  V30 271 C 25.9227 -0.385276 -4.49251 0
M  V30 272 C 24.5847 -0.693156 -4.76181 0
M  V30 273 C 26.9367 -1.14021 -5.08575 0
M  V30 274 C 24.2647 -1.7593 -5.59701 0
M  V30 275 C 26.6167 -2.19619 -5.93254 0
M  V30 276 C 25.2807 -2.51026 -6.185 0
M  V30 277 H 24.5507 0.118384 -0.731482 0
M  V30 278 H 27.1977 -0.405847 -1.8715 0
M  V30 279 H 25.5027 1.54539 -3.60035 0
M  V30 280 H 27.1997 1.22118 -3.81953 0
M  V30 281 H 23.7897 -0.135202 -4.28387 0
M  V30 282 H 27.9737 -0.915611 -4.87781 0
M  V30 283 H 23.2297 -2.0075 -5.77503 0
M  V30 284 H 27.4037 -2.78581 -6.38252 0
M  V30 285 H 25.0307 -3.33772 -6.83008 0
M  V30 286 N 26.6058 1.57591 -0.0167156 0
M  V30 287 C 27.5358 2.12496 0.967858 0
M  V30 288 C 28.5168 1.03807 1.34752 0
M  V30 289 O 29.7018 1.31577 1.42833 0
M  V30 290 C 26.8318 2.64194 2.25431 0
M  V30 291 C 25.7858 3.77559 2.01576 0
M  V30 292 C 25.1118 4.15636 3.36379 0
M  V30 293 C 26.4118 5.04151 1.36489 0
M  V30 294 H 28.1058 2.95013 0.510643 0
M  V30 295 H 25.6518 1.41915 0.244181 0
M  V30 296 H 27.6048 3.01236 2.94678 0
M  V30 297 H 26.3288 1.78821 2.73296 0
M  V30 298 H 24.9878 3.40937 1.34751 0
M  V30 299 H 24.6358 3.27263 3.81979 0
M  V30 300 H 24.3358 4.92022 3.21229 0
M  V30 301 H 25.8598 4.5525 4.06915 0
M  V30 302 H 27.2738 5.38857 1.95718 0
M  V30 303 H 25.6708 5.85453 1.31776 0
M  V30 304 H 26.7408 4.83733 0.336219 0
M  V30 305 N 28.0839 -0.256276 1.55502 0
M  V30 306 C 29.3139 -1.00196 1.80677 0
M  V30 307 C 29.7219 -1.79805 0.588797 0
M  V30 308 O 29.0649 -1.78055 -0.451883 0
M  V30 309 C 29.1269 -1.99515 2.99055 0
M  V30 310 C 28.7909 -1.38688 4.35448 0
M  V30 311 C 29.7879 -0.794079 5.138 0
M  V30 312 C 27.4729 -1.40906 4.82132 0
M  V30 313 C 29.4669 -0.231562 6.36979 0
M  V30 314 C 27.1539 -0.842684 6.05262 0
M  V30 315 C 28.1519 -0.254953 6.82524 0
M  V30 316 O 27.8399 0.3027 8.0333 0
M  V30 317 H 27.5719 -0.300919 0.60533 0
M  V30 318 H 30.1259 -0.287307 2.03381 0
M  V30 319 H 28.3559 -2.74785 2.72084 0
M  V30 320 H 30.0449 -2.60349 3.11405 0
M  V30 321 H 30.8109 -0.769519 4.78856 0
M  V30 322 H 26.6899 -1.85591 4.21992 0
M  V30 323 H 30.2339 0.227816 6.97228 0
M  V30 324 H 26.1309 -0.86454 6.39684 0
M  V30 325 H 26.8989 0.193662 8.18271 0
M  V30 326 N 29.562 -1.4872 -0.521534 0
M  V30 327 C 30.787 -1.61101 -1.30618 0
M  V30 328 C 31.212 -0.274611 -1.86085 0
M  V30 329 O 30.57 0.754937 -1.64834 0
M  V30 330 C 30.618 -2.66709 -2.4269 0
M  V30 331 O 29.722 -2.24456 -3.45967 0
M  V30 332 H 29.063 -0.539921 -0.386499 0
M  V30 333 H 31.593 -1.94767 -0.626645 0
M  V30 334 H 31.603 -2.88245 -2.88754 0
M  V30 335 H 30.278 -3.63727 -2.01682 0
M  V30 336 H 28.855 -2.13168 -3.05964 0
M  V30 337 N 31.0401 0.771051 -1.3745 0
M  V30 338 C 31.9701 1.89827 -1.3597 0
M  V30 339 C 32.9511 1.68562 -0.228216 0
M  V30 340 O 34.1361 1.8941 -0.428675 0
M  V30 341 C 31.2661 3.2712 -1.16662 0
M  V30 342 C 30.2201 3.6295 -2.2683 0
M  V30 343 C 29.5461 4.98791 -1.92644 0
M  V30 344 C 30.8461 3.69627 -3.69017 0
M  V30 345 H 32.5401 1.91323 -2.30295 0
M  V30 346 H 30.0861 0.919082 -1.10855 0
M  V30 347 H 32.0391 4.05615 -1.14256 0
M  V30 348 H 30.7631 3.26059 -0.187926 0
M  V30 349 H 29.4221 2.86763 -2.28392 0
M  V30 350 H 29.0701 4.94271 -0.933021 0
M  V30 351 H 28.7701 5.23733 -2.66416 0
M  V30 352 H 30.2941 5.79685 -1.91826 0
M  V30 353 H 31.7081 4.38273 -3.69581 0
M  V30 354 H 30.1051 4.06067 -4.41848 0
M  V30 355 H 31.1751 2.70273 -4.02592 0
M  V30 356 N 32.5182 1.22032 0.997298 0
M  V30 357 C 33.4482 1.01065 2.10495 0
M  V30 358 C 34.4292 -0.0669542 1.69968 0
M  V30 359 O 35.6142 0.0943987 1.9397 0
M  V30 360 C 32.7442 0.582874 3.42374 0
M  V30 361 C 31.6982 1.60592 3.96729 0
M  V30 362 C 31.0242 1.03412 5.24605 0
M  V30 363 C 32.3242 2.99478 4.27914 0
M  V30 364 H 34.0182 1.93708 2.28292 0
M  V30 365 H 31.5642 0.932761 1.09707 0
M  V30 366 H 33.5172 0.423332 4.19268 0
M  V30 367 H 32.2412 -0.379213 3.24391 0
M  V30 368 H 30.9002 1.75316 3.21963 0
M  V30 369 H 30.5482 0.063518 5.0296 0
M  V30 370 H 30.2482 1.71754 5.61938 0
M  V30 371 H 31.7722 0.886066 6.04137 0
M  V30 372 H 33.1862 2.88153 4.95622 0
M  V30 373 H 31.5832 3.64903 4.76409 0
M  V30 374 H 32.6532 3.49742 3.3587 0
M  V30 375 N 33.9963 -1.19345 1.0293 0
M  V30 376 C 34.9293 -2.21347 0.555029 0
M  V30 377 C 35.9073 -1.57492 -0.404351 0
M  V30 378 O 37.0913 -1.85741 -0.321352 0
M  V30 379 C 34.2183 -3.38163 -0.19064 0
M  V30 380 C 33.2643 -4.20375 0.720236 0
M  V30 381 S 34.0973 -4.88371 2.19668 0
M  V30 382 C 35.2533 -6.08597 1.46153 0
M  V30 383 H 35.4863 -2.61235 1.41929 0
M  V30 384 H 33.0193 -1.29598 0.839272 0
M  V30 385 H 34.9773 -4.05871 -0.614724 0
M  V30 386 H 33.6383 -2.9671 -1.03063 0
M  V30 387 H 32.8313 -5.03793 0.14455 0
M  V30 388 H 32.4333 -3.57987 1.08266 0
M  V30 389 H 34.7253 -6.73354 0.748357 0
M  V30 390 H 35.6683 -6.7065 2.27233 0
M  V30 391 H 36.0763 -5.56297 0.958842 0
M  V30 392 N 35.4744 -0.807222 -1.35358 0
M  V30 393 C 36.4214 -0.216037 -2.29787 0
M  V30 394 C 37.3914 0.650278 -1.52842 0
M  V30 395 O 38.5764 0.595227 -1.81278 0
M  V30 396 C 35.7164 0.628893 -3.39321 0
M  V30 397 C 34.8294 -0.257927 -4.31229 0
M  V30 398 C 33.9644 0.595069 -5.27856 0
M  V30 399 C 33.0034 -0.292111 -6.11403 0
M  V30 400 N 32.1404 0.520895 -7.00165 0
M  V30 401 H 36.9804 -1.02671 -2.79755 0
M  V30 402 H 34.5174 -0.517839 -1.37684 0
M  V30 403 H 36.4754 1.13393 -4.01494 0
M  V30 404 H 35.1054 1.40482 -2.90628 0
M  V30 405 H 34.1574 -0.881076 -3.70056 0
M  V30 406 H 35.4694 -0.940759 -4.89848 0
M  V30 407 H 34.6234 1.16522 -5.95405 0
M  V30 408 H 33.3624 1.31146 -4.69736 0
M  V30 409 H 32.3674 -0.874525 -5.428 0
M  V30 410 H 33.5924 -1.00638 -6.71602 0
M  V30 411 H 31.5384 1.22125 -6.44532 0
M  V30 412 H 31.4554 -0.103877 -7.55929 0
M  V30 413 H 32.7234 1.0743 -7.72062 0
M  V30 414 N 36.9525 1.47285 -0.560781 0
M  V30 415 C 37.8825 2.32857 0.173105 0
M  V30 416 C 38.8635 1.44009 0.905281 0
M  V30 417 O 40.0485 1.7286 0.885046 0
M  V30 418 C 37.1785 3.25861 1.20133 0
M  V30 419 C 36.1325 4.23978 0.585388 0
M  V30 420 C 35.4585 5.06332 1.7185 0
M  V30 421 C 36.7585 5.20242 -0.463178 0
M  V30 422 H 38.4525 2.94466 -0.541307 0
M  V30 423 H 35.9985 1.41601 -0.261764 0
M  V30 424 H 37.9515 3.84569 1.72293 0
M  V30 425 H 36.6755 2.62315 1.94573 0
M  V30 426 H 35.3345 3.66501 0.085054 0
M  V30 427 H 34.9825 4.39186 2.45203 0
M  V30 428 H 34.6825 5.72762 1.31213 0
M  V30 429 H 36.2065 5.67899 2.24329 0
M  V30 430 H 37.6205 5.73293 -0.027502 0
M  V30 431 H 36.0175 5.94896 -0.788627 0
M  V30 432 H 37.0875 4.65504 -1.35773 0
M  V30 433 N 38.4306 0.297415 1.54768 0
M  V30 434 C 39.6776 -0.312913 2.00068 0
M  V30 435 C 40.0056 -1.54171 1.18582 0
M  V30 436 O 39.2606 -1.94108 0.249133 0
M  V30 437 C 39.5596 -0.717561 3.50123 0
M  V30 438 C 39.2256 0.409095 4.4904 0
M  V30 439 C 37.8876 0.718399 4.75807 0
M  V30 440 C 40.2396 1.16717 5.07963 0
M  V30 441 C 37.5676 1.78896 5.5876 0
M  V30 442 C 39.9196 2.22762 5.92081 0
M  V30 443 C 38.5836 2.54303 6.1716 0
M  V30 444 H 37.8536 -0.114503 0.7321 0
M  V30 445 H 40.5006 0.415767 1.86932 0
M  V30 446 H 38.8056 -1.52627 3.60849 0
M  V30 447 H 40.5026 -1.20091 3.82595 0
M  V30 448 H 37.0926 0.157918 4.28309 0
M  V30 449 H 41.2766 0.941466 4.87289 0
M  V30 450 H 36.5326 2.0381 5.7643 0
M  V30 451 H 40.7066 2.81962 6.36765 0
M  V30 452 H 38.3336 3.3739 6.81229 0
M  V30 453 N 39.9087 -1.5758 0.0250728 0
M  V30 454 C 40.8407 -2.06869 -0.986796 0
M  V30 455 C 41.8537 -0.991332 -1.29137 0
M  V30 456 O 43.0427 -1.26761 -1.25674 0
M  V30 457 C 40.1427 -2.47486 -2.31525 0
M  V30 458 C 39.3157 -3.78253 -2.19643 0
M  V30 459 C 38.3747 -4.05464 -3.35388 0
M  V30 460 O 37.4007 -4.75774 -3.12454 0
M  V30 461 N 38.6027 -3.55321 -4.59051 0
M  V30 462 H 41.3677 -2.94302 -0.566276 0
M  V30 463 H 38.9287 -1.6109 -0.161776 0
M  V30 464 H 40.9207 -2.62785 -3.07776 0
M  V30 465 H 39.4907 -1.65441 -2.65232 0
M  V30 466 H 38.7107 -3.7279 -1.28144 0
M  V30 467 H 39.9987 -4.63936 -2.08903 0
M  V30 468 H 39.3967 -2.98431 -4.80578 0
M  V30 469 H 37.9537 -3.75905 -5.32483 0
M  V30 470 N 41.3868 0.248026 -1.55636 0
M  V30 471 C 42.8028 0.596483 -1.48035 0
M  V30 472 C 43.0028 1.88386 -0.715039 0
M  V30 473 O 42.0588 2.51319 -0.243944 0
M  V30 474 C 43.3718 0.700258 -2.92433 0
M  V30 475 C 44.9198 0.792659 -3.02797 0
M  V30 476 C 45.3948 0.928005 -4.485 0
M  V30 477 N 46.8858 0.992903 -4.52433 0
M  V30 478 C 47.6208 1.11687 -5.62418 0
M  V30 479 N 47.1168 1.20645 -6.82214 0
M  V30 480 N 48.9098 1.14994 -5.50212 0
M  V30 481 H 41.0608 -0.597109 -2.03834 0
M  V30 482 H 43.3238 -0.205925 -0.925364 0
M  V30 483 H 43.0298 -0.175658 -3.51261 0
M  V30 484 H 42.9038 1.57255 -3.42857 0
M  V30 485 H 45.2908 1.65903 -2.4405 0
M  V30 486 H 45.3718 -0.104762 -2.55585 0
M  V30 487 H 45.0158 0.0661971 -5.07857 0
M  V30 488 H 44.9458 1.84045 -4.93391 0
M  V30 489 H 47.4368 0.935064 -3.66149 0
M  V30 490 H 47.7498 1.30008 -7.61786 0
M  V30 491 H 46.0948 1.17605 -6.84977 0
M  V30 492 H 49.2858 1.07643 -4.55555 0
M  V30 493 H 49.4588 1.24311 -6.35965 0
M  V30 494 N 42.8649 1.48995 0.513639 0
M  V30 495 C 44.0899 1.61792 1.29762 0
M  V30 496 C 44.5149 0.284475 1.85936 0
M  V30 497 O 43.8729 -0.746185 1.65232 0
M  V30 498 C 43.9209 2.67993 2.41272 0
M  V30 499 O 43.0249 2.26287 3.44772 0
M  V30 500 H 42.3659 0.541963 0.38363 0
M  V30 501 H 44.8959 1.95097 0.616307 0
M  V30 502 H 44.9059 2.89772 2.87221 0
M  V30 503 H 43.5809 3.64791 1.9975 0
M  V30 504 H 42.1579 2.14788 3.04829 0
M  V30 505 N 44.343 -0.763751 1.37857 0
M  V30 506 C 45.571 -1.55293 1.36718 0
M  V30 507 C 45.986 -1.88745 -0.0455434 0
M  V30 508 O 45.343 -1.52039 -1.00947 0
M  V30 509 C 45.394 -2.85831 2.2132 0
M  V30 510 O 45.115 -2.5381 3.57089 0
M  V30 511 C 46.616 -3.80023 2.28249 0
M  V30 512 H 43.836 -0.480841 0.468009 0
M  V30 513 H 46.38 -0.946009 1.81303 0
M  V30 514 H 44.535 -3.42926 1.80223 0
M  V30 515 H 44.949 -3.37459 4.01524 0
M  V30 516 H 46.423 -4.68599 2.91752 0
M  V30 517 H 46.9 -4.1973 1.2932 0
M  V30 518 H 47.506 -3.28855 2.69693 0
M  V30 519 N 45.8211 -1.22559 -0.990812 0
M  V30 520 C 47.2321 -1.04791 -1.54518 0
M  V30 521 C 47.5831 0.387998 -1.92325 0
M  V30 522 O 46.7081 1.27328 -1.74976 0
M  V30 523 C 47.3031 -1.896 -2.80779 0
M  V30 524 C 45.8621 -1.76124 -3.32652 0
M  V30 525 C 45.0091 -1.8594 -2.05722 0
M  V30 526 H 47.9601 -1.36374 -0.811662 0
M  V30 527 H 47.9811 -1.41464 -3.53225 0
M  V30 528 H 47.4931 -2.94101 -2.53231 0
M  V30 529 H 45.5941 -0.743643 -3.65104 0
M  V30 530 H 45.7071 -2.58913 -4.03114 0
M  V30 531 H 44.0711 -1.29403 -2.19379 0
M  V30 532 H 44.8541 -2.91976 -1.80568 0
M  V30 533 N 47.2992 1.18797 -1.03562 0
M  V30 534 C 48.2622 2.20464 -0.626769 0
M  V30 535 C 49.2622 1.57721 0.313173 0
M  V30 536 O 50.4522 1.73917 0.0992615 0
M  V30 537 C 47.5842 3.40802 0.0818498 0
M  V30 538 H 48.7772 2.58149 -1.5264 0
M  V30 539 H 46.3302 1.32593 -0.827578 0
M  V30 540 H 47.0652 3.08642 0.995518 0
M  V30 541 H 46.8502 3.8758 -0.593652 0
M  V30 542 H 48.3402 4.16092 0.354584 0
M  V30 543 N 48.7773 0.814389 1.34928 0
M  V30 544 C 50.0263 0.394871 1.97797 0
M  V30 545 C 50.3393 -1.04555 1.65311 0
M  V30 546 O 51.5453 -1.56856 2.21604 0
M  V30 547 C 50.0013 0.655103 3.53888 0
M  V30 548 C 49.6093 2.10858 3.95276 0
M  V30 549 C 51.3533 0.301329 4.23429 0
M  V30 550 C 49.2603 2.31415 5.44244 0
M  V30 551 H 48.1903 0.143913 0.740139 0
M  V30 552 H 50.8413 0.999544 1.53888 0
M  V30 553 H 49.2233 -0.0196253 3.95995 0
M  V30 554 H 50.3973 2.82176 3.64298 0
M  V30 555 H 48.7123 2.42297 3.38646 0
M  V30 556 H 51.3093 0.432869 5.32945 0
M  V30 557 H 51.6523 -0.75331 4.09428 0
M  V30 558 H 52.1853 0.930288 3.86769 0
M  V30 559 H 48.9243 3.35353 5.63222 0
M  V30 560 H 48.4443 1.6463 5.76764 0
M  V30 561 H 50.1233 2.13352 6.10811 0
M  V30 562 N 50.2554 -1.46986 0.568584 0
M  V30 563 C 51.4834 -2.0683 0.0539956 0
M  V30 564 C 51.8984 -1.41953 -1.24478 0
M  V30 565 O 51.2554 -0.519933 -1.74937 0
M  V30 566 C 51.3064 -3.61254 -0.133362 0
M  V30 567 O 51.0274 -4.237 1.11399 0
M  V30 568 C 52.5284 -4.37992 -0.683927 0
M  V30 569 H 49.7484 -0.669058 0.0510141 0
M  V30 570 H 52.2924 -1.88824 0.785234 0
M  V30 571 H 50.4474 -3.78735 -0.81477 0
M  V30 572 H 50.8614 -5.16388 0.91888 0
M  V30 573 H 52.3354 -5.46684 -0.764263 0
M  V30 574 H 52.8124 -4.05058 -1.69778 0
M  V30 575 H 53.4184 -4.25283 -0.0378494 0
M  V30 576 N 51.7335 -0.305618 -1.54608 0
M  V30 577 C 52.6635 0.561482 -2.26649 0
M  V30 578 C 53.6445 1.13415 -1.26772 0
M  V30 579 O 54.8295 1.16262 -1.55553 0
M  V30 580 C 51.9595 1.73122 -3.01075 0
M  V30 581 C 50.9135 1.2887 -4.08138 0
M  V30 582 C 50.2395 2.54396 -4.70305 0
M  V30 583 C 51.5395 0.416578 -5.20636 0
M  V30 584 H 53.2335 -0.0393902 -2.99374 0
M  V30 585 H 50.7795 -0.020385 -1.43986 0
M  V30 586 H 52.7325 2.34396 -3.50195 0
M  V30 587 H 51.4565 2.3584 -2.25936 0
M  V30 588 H 50.1155 0.698991 -3.59875 0
M  V30 589 H 49.7635 3.15439 -3.918 0
M  V30 590 H 49.4635 2.25486 -5.42614 0
M  V30 591 H 50.9875 3.16464 -5.2219 0
M  V30 592 H 52.4015 0.935116 -5.65622 0
M  V30 593 H 50.7985 0.221046 -5.99693 0
M  V30 594 H 51.8685 -0.557162 -4.81688 0
M  V30 595 N 53.2116 1.57565 -0.0334293 0
M  V30 596 C 54.1216 2.13943 0.962572 0
M  V30 597 C 55.1376 1.09276 1.35406 0
M  V30 598 O 56.3136 1.41355 1.4346 0
M  V30 599 C 53.3786 2.65887 2.22497 0
M  V30 600 C 52.4396 3.85286 1.8935 0
M  V30 601 C 51.6726 4.34743 3.09571 0
M  V30 602 O 51.8956 3.83352 4.22371 0
M  V30 603 O 50.8296 5.26538 2.91618 0
M  V30 604 H 54.6556 2.99333 0.513169 0
M  V30 605 H 52.2406 1.4822 0.18743 0
M  V30 606 H 54.1226 2.99346 2.96598 0
M  V30 607 H 52.7976 1.83578 2.6661 0
M  V30 608 H 51.7046 3.56746 1.1262 0
M  V30 609 H 53.0376 4.68771 1.5005 0
M  V30 610 N 54.6897 -0.239769 1.55765 0
M  V30 611 C 55.9147 -0.988373 1.82335 0
M  V30 612 C 56.3397 -1.77886 0.611421 0
M  V30 613 O 55.6977 -1.75889 -0.439639 0
M  V30 614 C 55.7457 -1.89627 3.06715 0
M  V30 615 O 54.8497 -2.98904 2.84131 0
M  V30 616 H 54.1907 -0.280858 0.601677 0
M  V30 617 H 56.7207 -0.258597 2.02959 0
M  V30 618 H 56.7307 -2.30957 3.36338 0
M  V30 619 H 55.4057 -1.31511 3.9456 0
M  V30 620 H 53.9827 -2.61651 2.65694 0
M  V30 621 N 56.1678 -1.49265 -0.50573 0
M  V30 622 C 57.5788 -1.51769 -1.08734 0
M  V30 623 C 57.9298 -0.301192 -1.93874 0
M  V30 624 O 57.0548 0.589456 -2.08217 0
M  V30 625 C 57.6498 -2.75017 -1.97867 0
M  V30 626 C 56.2088 -2.80314 -2.51199 0
M  V30 627 C 55.3558 -2.4562 -1.28709 0
M  V30 628 H 58.3068 -1.56031 -0.289855 0
M  V30 629 H 58.3278 -2.5491 -2.82491 0
M  V30 630 H 57.8398 -3.63539 -1.35873 0
M  V30 631 H 55.9408 -1.96061 -3.16845 0
M  V30 632 H 56.0538 -3.82366 -2.88675 0
M  V30 633 H 54.4178 -1.97297 -1.61078 0
M  V30 634 H 55.2008 -3.36411 -0.6843 0
M  V30 635 N 57.6459 0.756429 -1.3826 0
M  V30 636 C 58.9229 1.50584 -1.24835 0
M  V30 637 C 59.3029 2.10556 0.151485 0
M  V30 638 O 58.6509 1.96825 1.1607 0
M  V30 639 C 58.8609 2.57448 -2.3563 0
M  V30 640 C 60.2089 3.24429 -2.73917 0
M  V30 641 O 61.2329 2.67751 -2.34921 0
M  V30 642 O 60.0919 4.26937 -3.41156 0
M  V30 643 H 57.1859 0.667664 -0.48801 0
M  V30 644 H 59.7319 0.792083 -1.5008 0
M  V30 645 H 58.5039 2.11362 -3.29305 0
M  V30 646 H 58.1269 3.36408 -2.11933 0
M  V30 647 N 59.124 1.23083 0.984299 0
M  V30 648 C 60.373 1.05466 1.71929 0
M  V30 649 C 60.686 -0.409211 1.91272 0
M  V30 650 O 61.892 -0.705226 2.62181 0
M  V30 651 C 60.348 1.83874 3.09384 0
M  V30 652 C 59.956 3.34566 2.97943 0
M  V30 653 C 61.7 1.74734 3.8687 0
M  V30 654 C 59.607 4.05381 4.30605 0
M  V30 655 H 58.537 0.391039 0.644674 0
M  V30 656 H 61.188 1.47013 1.09815 0
M  V30 657 H 59.57 1.35131 3.72231 0
M  V30 658 H 60.744 3.90767 2.44209 0
M  V30 659 H 59.059 3.44476 2.33934 0
M  V30 660 H 61.656 2.24957 4.85076 0
M  V30 661 H 61.999 0.709372 4.10212 0
M  V30 662 H 62.532 2.21067 3.30717 0
M  V30 663 H 59.271 5.09467 4.1246 0
M  V30 664 H 58.791 3.53967 4.84218 0
M  V30 665 H 60.47 4.11458 4.99311 0
M  V30 666 N 60.6021 -1.18246 1.0419 0
M  V30 667 C 61.5491 -2.2192 0.634037 0
M  V30 668 C 62.5191 -1.62179 -0.358765 0
M  V30 669 O 63.7041 -1.89122 -0.252466 0
M  V30 670 C 60.8441 -3.451 0.00445535 0
M  V30 671 C 59.9571 -4.19174 1.04487 0
M  V30 672 C 59.0921 -5.29813 0.383676 0
M  V30 673 C 58.1311 -5.9566 1.4091 0
M  V30 674 N 57.2681 -6.97834 0.772784 0
M  V30 675 H 62.1081 -2.56164 1.52263 0
M  V30 676 H 59.6451 -1.25843 0.761701 0
M  V30 677 H 61.6031 -4.15485 -0.377919 0
M  V30 678 H 60.2331 -3.11472 -0.847652 0
M  V30 679 H 59.2851 -3.47604 1.54518 0
M  V30 680 H 60.5971 -4.64267 1.82368 0
M  V30 681 H 59.7511 -6.06677 -0.0528366 0
M  V30 682 H 58.4901 -4.85825 -0.427208 0
M  V30 683 H 57.4951 -5.17535 1.85574 0
M  V30 684 H 58.7201 -6.4173 2.22171 0
M  V30 685 H 56.6661 -6.55998 -0.0177708 0
M  V30 686 H 56.5831 -7.41186 1.48928 0
M  V30 687 H 57.8511 -7.78665 0.36071 0
M  V30 688 N 62.0802 -0.821533 -1.34494 0
M  V30 689 C 63.3102 -0.421272 -2.02259 0
M  V30 690 C 63.7182 0.977047 -1.6202 0
M  V30 691 O 63.0612 1.64348 -0.820703 0
M  V30 692 C 63.1232 -0.44231 -3.56769 0
M  V30 693 C 62.7872 -1.79372 -4.20327 0
M  V30 694 C 63.7842 -2.75435 -4.40944 0
M  V30 695 C 61.4692 -2.08182 -4.57127 0
M  V30 696 C 63.4632 -3.98482 -4.97484 0
M  V30 697 C 61.1502 -3.31489 -5.13379 0
M  V30 698 C 62.1482 -4.26457 -5.33501 0
M  V30 699 O 61.8362 -5.47585 -5.88562 0
M  V30 700 H 61.5682 -0.167473 -0.654927 0
M  V30 701 H 64.1222 -1.11073 -1.72777 0
M  V30 702 H 62.3522 0.303836 -3.85505 0
M  V30 703 H 64.0412 -0.0622925 -4.05852 0
M  V30 704 H 64.8072 -2.54473 -4.12878 0
M  V30 705 H 60.6862 -1.35066 -4.4077 0
M  V30 706 H 64.2302 -4.72618 -5.13106 0
M  V30 707 H 60.1272 -3.52316 -5.40873 0
M  V30 708 H 60.8952 -5.49086 -6.06998 0
M  V30 709 N 63.5583 1.46682 -0.576371 0
M  V30 710 C 64.9693 1.86112 -0.148091 0
M  V30 711 C 65.3203 1.48073 1.2872 0
M  V30 712 O 64.4453 0.892656 1.97131 0
M  V30 713 C 65.0403 3.37786 -0.261982 0
M  V30 714 C 63.5993 3.76235 0.111384 0
M  V30 715 C 62.7463 2.70713 -0.60083 0
M  V30 716 H 65.6973 1.37927 -0.78497 0
M  V30 717 H 65.7183 3.77007 0.514364 0
M  V30 718 H 65.2303 3.6544 -1.30671 0
M  V30 719 H 63.3313 3.54198 1.15649 0
M  V30 720 H 63.4443 4.78391 -0.26052 0
M  V30 721 H 61.8083 2.54666 -0.0417783 0
M  V30 722 H 62.5913 3.01208 -1.64708 0
M  V30 723 N 65.0364 0.313813 1.54444 0
M  V30 724 C 65.9664 -0.549454 2.26943 0
M  V30 725 C 66.9474 -1.12741 1.27372 0
M  V30 726 O 68.1324 -1.15436 1.56167 0
M  V30 727 C 65.2624 -1.71523 3.01989 0
M  V30 728 C 64.2164 -1.26703 4.08816 0
M  V30 729 C 63.5424 -2.51898 4.71647 0
M  V30 730 C 64.8424 -0.388962 5.2085 0
M  V30 731 H 66.5364 0.0552661 2.99349 0
M  V30 732 H 64.0824 0.0280207 1.43973 0
M  V30 733 H 66.0354 -2.32535 3.51433 0
M  V30 734 H 64.7594 -2.34639 2.27183 0
M  V30 735 H 63.4184 -0.679896 3.6024 0
M  V30 736 H 63.0664 -3.13356 3.93468 0
M  V30 737 H 62.7664 -2.22605 5.43802 0
M  V30 738 H 64.2904 -3.1369 5.23861 0
M  V30 739 H 65.7044 -0.905107 5.6611 0
M  V30 740 H 64.1014 -0.18924 5.99802 0
M  V30 741 H 65.1714 0.582699 4.81386 0
M  V30 742 N 66.5145 -1.57545 0.0417849 0
M  V30 743 C 67.9305 -1.56467 -0.314704 0
M  V30 744 C 68.1305 -1.04859 -1.72066 0
M  V30 745 O 67.1865 -0.700983 -2.42575 0
M  V30 746 C 68.4995 -3.00317 -0.15174 0
M  V30 747 C 70.0475 -3.12201 -0.223553 0
M  V30 748 C 70.5225 -4.57913 -0.0892295 0
M  V30 749 N 72.0135 -4.6297 -0.145808 0
M  V30 750 C 72.7485 -5.73362 -0.0658459 0
M  V30 751 N 72.2445 -6.92769 0.0659282 0
M  V30 752 N 74.0375 -5.6197 -0.12075 0
M  V30 753 H 66.1885 -1.89416 0.961014 0
M  V30 754 H 68.4515 -0.871862 0.372237 0
M  V30 755 H 68.1575 -3.42073 0.817254 0
M  V30 756 H 68.0315 -3.65892 -0.916692 0
M  V30 757 H 70.4185 -2.70349 -1.18301 0
M  V30 758 H 70.4995 -2.49323 0.571994 0
M  V30 759 H 70.1435 -5.00448 0.866867 0
M  V30 760 H 70.0735 -5.18786 -0.903802 0
M  V30 761 H 72.5645 -3.7709 -0.247286 0
M  V30 762 H 72.8775 -7.72707 0.119905 0
M  V30 763 H 71.2225 -6.94927 0.100885 0
M  V30 764 H 74.4135 -4.67572 -0.222187 0
M  V30 765 H 74.5865 -6.47977 -0.0549735 0
M  V30 766 N 67.9926 0.231505 -1.5589 0
M  V30 767 C 68.9226 1.29022 -1.94617 0
M  V30 768 C 69.9036 1.4941 -0.813067 0
M  V30 769 O 71.0886 1.6176 -1.07459 0
M  V30 770 C 68.2186 2.64199 -2.25424 0
M  V30 771 C 67.1726 2.58484 -3.41131 0
M  V30 772 C 66.4986 3.97599 -3.57518 0
M  V30 773 C 67.7986 2.1413 -4.76388 0
M  V30 774 H 69.4926 0.968563 -2.83301 0
M  V30 775 H 67.0386 0.464479 -1.36303 0
M  V30 776 H 68.9916 3.38413 -2.51107 0
M  V30 777 H 67.7156 2.98032 -1.33583 0
M  V30 778 H 66.3746 1.86727 -3.15481 0
M  V30 779 H 66.0226 4.28723 -2.6307 0
M  V30 780 H 65.7226 3.94659 -4.35337 0
M  V30 781 H 67.2466 4.7349 -3.85538 0
M  V30 782 H 68.6606 2.78083 -5.01341 0
M  V30 783 H 67.0576 2.2227 -5.57419 0
M  V30 784 H 68.1276 1.09331 -4.72414 0
M  V30 785 N 69.4707 1.49531 0.497807 0
M  V30 786 C 70.7197 1.58426 1.24837 0
M  V30 787 C 71.0327 0.277643 1.93619 0
M  V30 788 O 72.2387 0.24517 2.70391 0
M  V30 789 C 70.6947 2.79538 2.26686 0
M  V30 790 C 70.3027 4.16971 1.63828 0
M  V30 791 C 72.0467 2.97764 3.0255 0
M  V30 792 C 69.9537 5.29301 2.63807 0
M  V30 793 H 68.8837 0.58989 0.469623 0
M  V30 794 H 71.5347 1.75923 0.521857 0
M  V30 795 H 69.9167 2.55542 3.02514 0
M  V30 796 H 71.0907 4.51116 0.939711 0
M  V30 797 H 69.4057 4.04129 1.00342 0
M  V30 798 H 72.0027 3.78856 3.77323 0
M  V30 799 H 72.3457 2.08448 3.60354 0
M  V30 800 H 72.8787 3.21815 2.33838 0
M  V30 801 H 69.6177 6.20687 2.10779 0
M  V30 802 H 69.1377 4.99606 3.31894 0
M  V30 803 H 70.8167 5.58768 3.2617 0
M  V30 804 N 70.9488 -0.749086 1.3866 0
M  V30 805 C 72.2258 -1.4992 1.25632 0
M  V30 806 C 72.6058 -2.10633 -0.140317 0
M  V30 807 O 71.9538 -1.97437 -1.15025 0
M  V30 808 C 72.1638 -2.56195 2.36992 0
M  V30 809 C 73.5118 -3.22972 2.75634 0
M  V30 810 O 74.5358 -2.66502 2.36337 0
M  V30 811 O 73.3948 -4.25122 3.43415 0
M  V30 812 H 70.4888 -0.665067 0.491544 0
M  V30 813 H 73.0348 -0.784113 1.50498 0
M  V30 814 H 71.8068 -2.09612 3.30422 0
M  V30 815 H 71.4298 -3.35279 2.13714 0
M  V30 816 N 72.4269 -1.23603 -0.977757 0
M  V30 817 C 73.8429 -0.999251 -1.24447 0
M  V30 818 C 74.0429 0.298053 -1.99283 0
M  V30 819 O 73.0989 1.01681 -2.31122 0
M  V30 820 C 74.4119 -2.20784 -2.04144 0
M  V30 821 C 75.9599 -2.25303 -2.17273 0
M  V30 822 C 76.4349 -3.45755 -3.00362 0
M  V30 823 N 77.9259 -3.4601 -3.07947 0
M  V30 824 C 78.6609 -4.35868 -3.72568 0
M  V30 825 N 78.1569 -5.35966 -4.38991 0
M  V30 826 N 79.9499 -4.23605 -3.6948 0
M  V30 827 H 72.1009 -2.06986 -0.476483 0
M  V30 828 H 74.3639 -0.907801 -0.273134 0
M  V30 829 H 74.0699 -3.14945 -1.56533 0
M  V30 830 H 73.9439 -2.22085 -3.04891 0
M  V30 831 H 76.3309 -1.3168 -2.64092 0
M  V30 832 H 76.4119 -2.28033 -1.15907 0
M  V30 833 H 76.0559 -4.39687 -2.5424 0
M  V30 834 H 75.9859 -3.40266 -4.01904 0
M  V30 835 H 78.4769 -2.73588 -2.60688 0
M  V30 836 H 78.7899 -6.00783 -4.86086 0
M  V30 837 H 77.1349 -5.39863 -4.37691 0
M  V30 838 H 80.3259 -3.44647 -3.16759 0
M  V30 839 H 80.4989 -4.93836 -4.1956 0
M  V30 840 N 73.905 1.17692 -1.04816 0
M  V30 841 C 74.815 2.25229 -0.65643 0
M  V30 842 C 75.831 1.71018 0.320761 0
M  V30 843 O 77.007 2.00649 0.173805 0
M  V30 844 C 74.072 3.46684 -0.0332629 0
M  V30 845 C 73.133 4.15997 -1.06042 0
M  V30 846 C 72.366 5.31654 -0.466893 0
M  V30 847 O 72.589 5.65777 0.724758 0
M  V30 848 O 71.523 5.89831 -1.1993 0
M  V30 849 H 75.349 2.61016 -1.55255 0
M  V30 850 H 72.934 1.24919 -0.81949 0
M  V30 851 H 74.816 4.20234 0.313256 0
M  V30 852 H 73.491 3.12703 0.836566 0
M  V30 853 H 72.398 3.44482 -1.45886 0
M  V30 854 H 73.731 4.53996 -1.90127 0
M  V30 855 N 75.3831 0.828654 1.34056 0
M  V30 856 C 76.6321 0.415828 1.97367 0
M  V30 857 C 76.9451 -1.02796 1.6641 0
M  V30 858 O 78.1511 -1.54497 2.23255 0
M  V30 859 C 76.6071 0.692601 3.53173 0
M  V30 860 C 76.2151 2.15038 3.93017 0
M  V30 861 C 77.9591 0.346222 4.23086 0
M  V30 862 C 75.8661 2.37174 5.41758 0
M  V30 863 H 74.7961 0.151755 0.738571 0
M  V30 864 H 77.4471 1.01581 1.52819 0
M  V30 865 H 75.8291 0.0223764 3.95994 0
M  V30 866 H 77.0031 2.86024 3.61285 0
M  V30 867 H 75.3181 2.45875 3.36057 0
M  V30 868 H 77.9151 0.48937 5.32456 0
M  V30 869 H 78.2581 -0.709842 4.10204 0
M  V30 870 H 78.7911 0.971258 3.85761 0
M  V30 871 H 75.5301 3.41308 5.59633 0
M  V30 872 H 75.0501 1.70738 5.74986 0
M  V30 873 H 76.7291 2.19818 6.08514 0
M  V30 874 N 76.8612 -1.46375 0.584142 0
M  V30 875 C 78.1102 -2.01585 0.0679741 0
M  V30 876 C 78.4232 -1.46109 -1.30045 0
M  V30 877 O 79.6292 -1.93148 -1.90804 0
M  V30 878 C 78.0852 -3.5983 0.0709207 0
M  V30 879 C 77.6932 -4.24303 1.43775 0
M  V30 880 C 79.4372 -4.22693 -0.391228 0
M  V30 881 C 77.3442 -5.74631 1.39834 0
M  V30 882 H 76.2742 -0.753689 0.0216421 0
M  V30 883 H 78.9252 -1.68093 0.736001 0
M  V30 884 H 77.3072 -3.90405 -0.663299 0
M  V30 885 H 78.4812 -4.05335 2.19181 0
M  V30 886 H 76.7962 -3.73539 1.84004 0
M  V30 887 H 79.3932 -5.3289 -0.439524 0
M  V30 888 H 79.7362 -3.91728 -1.40906 0
M  V30 889 H 80.2692 -3.96749 0.288974 0
M  V30 890 H 77.0082 -6.10258 2.39303 0
M  V30 891 H 76.5282 -5.95858 0.686505 0
M  V30 892 H 78.2072 -6.37375 1.11187 0
M  V30 893 N 78.3393 -0.321999 -1.54275 0
M  V30 894 C 79.5643 0.285791 -2.05422 0
M  V30 895 C 79.9893 1.45124 -1.19669 0
M  V30 896 O 79.3473 1.80132 -0.205441 0
M  V30 897 C 79.3953 0.69956 -3.53749 0
M  V30 898 O 78.4993 1.8021 -3.70942 0
M  V30 899 H 77.8403 0.0518962 -0.661969 0
M  V30 900 H 80.3703 -0.469954 -1.9913 0
M  V30 901 H 80.3803 0.982649 -3.9599 0
M  V30 902 H 79.0553 -0.152864 -4.15619 0
M  V30 903 H 77.6323 1.51794 -3.40607 0
M  V30 904 N 79.8174 1.5752 -0.0501392 0
M  V30 905 C 80.7674 2.07981 0.934231 0
M  V30 906 C 81.7514 0.984745 1.27246 0
M  V30 907 O 82.9434 1.24809 1.25506 0
M  V30 908 C 80.0724 2.62751 2.20945 0
M  V30 909 C 79.1584 3.79225 1.89865 0
M  V30 910 N 79.5494 4.89036 1.29142 0
M  V30 911 C 77.8474 3.88111 2.19741 0
M  V30 912 C 78.5484 5.70084 1.15669 0
M  V30 913 N 77.5244 5.17659 1.65923 0
M  V30 914 H 81.3264 2.90277 0.460053 0
M  V30 915 H 78.8404 1.61665 0.15434 0
M  V30 916 H 80.8374 2.97205 2.9236 0
M  V30 917 H 79.4974 1.81894 2.6897 0
M  V30 918 H 80.5084 5.08854 0.963756 0
M  V30 919 H 77.1854 3.18194 2.70293 0
M  V30 920 H 78.5754 6.68395 0.685356 0
M  V30 921 N 81.2955 -0.223234 1.56011 0
M  V30 922 C 82.5725 -0.972108 1.69733 0
M  V30 923 C 82.9525 -2.02485 0.59691 0
M  V30 924 O 82.3005 -2.25037 -0.396324 0
M  V30 925 C 82.5105 -1.58407 3.10979 0
M  V30 926 C 83.8585 -2.07696 3.70334 0
M  V30 927 O 84.8825 -1.68304 3.1393 0
M  V30 928 O 83.7415 -2.80096 4.69264 0
M  V30 929 H 80.8355 -0.453993 0.691245 0
M  V30 930 H 83.3815 -0.215149 1.68331 0
M  V30 931 H 82.1535 -0.823831 3.82529 0
M  V30 932 H 81.7765 -2.40661 3.16493 0
M  V30 933 N 82.7736 -1.49793 -0.48987 0
M  V30 934 C 84.0016 -1.63568 -1.26701 0
M  V30 935 C 84.4166 -0.311465 -1.86213 0
M  V30 936 O 83.7736 0.704416 -1.68357 0
M  V30 937 C 83.8246 -2.71284 -2.38929 0
M  V30 938 O 83.5456 -3.9857 -1.81861 0
M  V30 939 C 85.0466 -2.95864 -3.3012 0
M  V30 940 H 82.2666 -0.550342 -0.383881 0
M  V30 941 H 84.8106 -1.95898 -0.586864 0
M  V30 942 H 82.9656 -2.417 -3.02753 0
M  V30 943 H 83.3796 -4.57993 -2.55622 0
M  V30 944 H 84.8536 -3.74941 -4.05121 0
M  V30 945 H 85.3306 -2.06206 -3.87783 0
M  V30 946 H 85.9366 -3.26907 -2.72051 0
M  V30 947 N 84.2517 0.741722 -1.39055 0
M  V30 948 C 85.6677 1.04638 -1.20512 0
M  V30 949 C 85.8677 2.01405 -0.0620218 0
M  V30 950 O 84.9237 2.45547 0.588457 0
M  V30 951 C 86.2367 1.6151 -2.53643 0
M  V30 952 C 87.7847 1.73623 -2.6043 0
M  V30 953 C 88.2597 2.33906 -3.93767 0
M  V30 954 N 89.7507 2.41323 -3.9537 0
M  V30 955 C 90.4857 2.88888 -4.95309 0
M  V30 956 N 89.9817 3.36401 -6.05645 0
M  V30 957 N 91.7747 2.88037 -4.82692 0
M  V30 958 H 83.9257 0.0998155 -2.12165 0
M  V30 959 H 86.1887 0.106907 -0.941953 0
M  V30 960 H 85.8947 0.978739 -3.37807 0
M  V30 961 H 85.7687 2.60411 -2.72885 0
M  V30 962 H 88.1557 2.36384 -1.76655 0
M  V30 963 H 88.2367 0.733945 -2.45045 0
M  V30 964 H 87.8807 1.71776 -4.7797 0
M  V30 965 H 87.8107 3.34799 -4.06469 0
M  V30 966 H 90.3017 2.07734 -3.15682 0
M  V30 967 H 90.6147 3.71186 -6.77821 0
M  V30 968 H 88.9597 3.34427 -6.09248 0
M  V30 969 H 92.1507 2.50237 -3.95599 0
M  V30 970 H 92.3237 3.24792 -5.60726 0
M  V30 971 N 85.7298 1.2412 0.971189 0
M  V30 972 C 87.1458 1.00584 1.23916 0
M  V30 973 C 87.3458 -0.287481 1.99439 0
M  V30 974 O 86.4018 -1.00454 2.31658 0
M  V30 975 C 87.7148 2.21864 2.0297 0
M  V30 976 C 89.2628 2.26452 2.16076 0
M  V30 977 C 89.7378 3.47343 2.98524 0
M  V30 978 N 91.2288 3.47639 3.06107 0
M  V30 979 C 91.9638 4.37837 3.70251 0
M  V30 980 N 91.4598 5.38286 4.36142 0
M  V30 981 N 93.2528 4.25558 3.67228 0
M  V30 982 H 85.4038 2.07236 0.465499 0
M  V30 983 H 87.6668 0.909236 0.268315 0
M  V30 984 H 87.3728 3.15771 1.54861 0
M  V30 985 H 87.2468 2.23698 3.03709 0
M  V30 986 H 89.6338 1.33078 2.6339 0
M  V30 987 H 89.7148 2.28645 1.14696 0
M  V30 988 H 89.3588 4.41029 2.51905 0
M  V30 989 H 89.2888 3.42393 4.00093 0
M  V30 990 H 91.7798 2.74966 2.59233 0
M  V30 991 H 92.0928 6.03352 4.82894 0
M  V30 992 H 90.4378 5.42176 4.34822 0
M  V30 993 H 93.6288 3.46322 3.14927 0
M  V30 994 H 93.8018 4.96054 4.16935 0
M  V30 995 N 87.2079 -1.17134 1.05439 0
M  V30 996 C 88.4549 -1.87456 0.765942 0
M  V30 997 C 88.7829 -1.81189 -0.707153 0
M  V30 998 O 88.0379 -1.21633 -1.5331 0
M  V30 999 C 88.3369 -3.36833 1.19491 0
M  V30 1000 C 88.0029 -3.63301 2.67063 0
M  V30 1001 C 86.6649 -3.70234 3.07376 0
M  V30 1002 C 89.0169 -3.74575 3.62413 0
M  V30 1003 C 86.3449 -3.85933 4.41896 0
M  V30 1004 C 88.6969 -3.91793 4.9667 0
M  V30 1005 C 87.3609 -3.96966 5.36633 0
M  V30 1006 H 86.6309 -0.685948 0.280278 0
M  V30 1007 H 89.2779 -1.38556 1.32192 0
M  V30 1008 H 87.5829 -3.87807 0.557969 0
M  V30 1009 H 89.2799 -3.89611 0.948893 0
M  V30 1010 H 85.8699 -3.58532 2.34846 0
M  V30 1011 H 90.0539 -3.68537 3.32406 0
M  V30 1012 H 85.3099 -3.88187 4.72357 0
M  V30 1013 H 89.4839 -3.99458 5.70444 0
M  V30 1014 H 87.1109 -4.08883 6.40874 0
M  V30 1015 N 88.686 -0.835752 -1.33615 0
M  V30 1016 C 90.102 -0.523139 -1.50783 0
M  V30 1017 C 90.302 0.950171 -1.77691 0
M  V30 1018 O 89.358 1.73411 -1.83534 0
M  V30 1019 C 90.671 -1.39378 -2.66448 0
M  V30 1020 C 92.219 -1.39223 -2.80332 0
M  V30 1021 C 92.694 -2.24765 -3.99055 0
M  V30 1022 N 94.185 -2.22458 -4.06284 0
M  V30 1023 C 94.92 -2.85386 -4.97336 0
M  V30 1024 N 94.416 -3.57354 -5.93523 0
M  V30 1025 N 96.209 -2.74872 -4.90308 0
M  V30 1026 H 88.36 -1.78952 -1.14411 0
M  V30 1027 H 90.623 -0.763297 -0.562212 0
M  V30 1028 H 90.329 -2.44061 -2.53234 0
M  V30 1029 H 90.203 -1.0676 -3.61776 0
M  V30 1030 H 92.59 -0.353136 -2.92979 0
M  V30 1031 H 92.671 -1.75846 -1.85773 0
M  V30 1032 H 92.315 -3.28732 -3.87167 0
M  V30 1033 H 92.245 -1.85485 -4.92852 0
M  V30 1034 H 94.736 -1.70119 -3.37443 0
M  V30 1035 H 95.049 -4.02584 -6.59656 0
M  V30 1036 H 93.394 -3.61461 -5.93608 0
M  V30 1037 H 96.585 -2.18213 -4.14126 0
M  V30 1038 H 96.758 -3.24199 -5.61069 0
M  V30 1039 N 90.1641 1.46063 -0.591896 0
M  V30 1040 C 91.4111 2.02338 -0.0809991 0
M  V30 1041 C 91.7391 1.46228 1.28249 0
M  V30 1042 O 90.9941 0.620818 1.85592 0
M  V30 1043 C 91.2931 3.57391 0.0249813 0
M  V30 1044 C 90.9591 4.32583 -1.27211 0
M  V30 1045 C 89.6211 4.52844 -1.62745 0
M  V30 1046 C 91.9731 4.75687 -2.13005 0
M  V30 1047 C 89.3011 5.13462 -2.83855 0
M  V30 1048 C 91.6531 5.37644 -3.3335 0
M  V30 1049 C 90.3171 5.5613 -3.69155 0
M  V30 1050 H 89.5871 0.740407 -0.0296397 0
M  V30 1051 H 92.2341 1.75321 -0.770374 0
M  V30 1052 H 90.5391 3.83597 0.797537 0
M  V30 1053 H 92.2361 3.98621 0.436184 0
M  V30 1054 H 88.8261 4.17116 -0.985499 0
M  V30 1055 H 93.0101 4.59782 -1.86855 0
M  V30 1056 H 88.2661 5.25965 -3.11722 0
M  V30 1057 H 92.4401 5.7 -4.00092 0
M  V30 1058 H 90.0671 6.0287 -4.63089 0
M  V30 1059 N 91.6422 0.330177 1.54103 0
M  V30 1060 C 92.6052 -0.520144 2.2322 0
M  V30 1061 C 93.6052 -1.03828 1.22786 0
M  V30 1062 O 94.7952 -0.929652 1.4732 0
M  V30 1063 C 91.9272 -1.72317 2.94142 0
M  V30 1064 H 93.1202 0.0841605 2.99782 0
M  V30 1065 H 90.6732 0.0813433 1.56088 0
M  V30 1066 H 91.4082 -2.36653 2.21734 0
M  V30 1067 H 91.1932 -1.35898 3.67796 0
M  V30 1068 H 92.6832 -2.3266 3.46784 0
M  V30 1069 N 93.1203 -1.57491 0.0584922 0
M  V30 1070 C 94.0503 -2.14988 -0.911178 0
M  V30 1071 C 95.0313 -1.07343 -1.31952 0
M  V30 1072 O 96.2163 -1.35318 -1.39294 0
M  V30 1073 C 93.3463 -2.70078 -2.18347 0
M  V30 1074 C 92.3003 -3.82771 -1.91495 0
M  V30 1075 C 91.6263 -4.24408 -3.25241 0
M  V30 1076 C 92.9263 -5.07592 -1.23075 0
M  V30 1077 H 94.6203 -2.96263 -0.432246 0
M  V30 1078 H 92.1663 -1.42512 -0.206469 0
M  V30 1079 H 94.1193 -3.08943 -2.86587 0
M  V30 1080 H 92.8433 -1.86005 -2.68458 0
M  V30 1081 H 91.5023 -3.44389 -1.25664 0
M  V30 1082 H 91.1503 -3.37275 -3.73168 0
M  V30 1083 H 90.8503 -5.00366 -3.08071 0
M  V30 1084 H 92.3743 -4.65879 -3.94701 0
M  V30 1085 H 93.7883 -5.43857 -1.81362 0
M  V30 1086 H 92.1853 -5.88741 -1.16207 0
M  V30 1087 H 93.2553 -4.84454 -0.207847 0
M  V30 1088 N 94.5984 0.214957 -1.56127 0
M  V30 1089 C 96.0094 0.781386 -1.69562 0
M  V30 1090 C 96.3604 1.84707 -0.66165 0
M  V30 1091 O 95.4854 2.156 0.185927 0
M  V30 1092 C 96.0804 1.42411 -3.07416 0
M  V30 1093 C 94.6394 1.93786 -3.22683 0
M  V30 1094 C 93.7864 0.800438 -2.65496 0
M  V30 1095 H 96.7374 -0.00980633 -1.58697 0
M  V30 1096 H 96.7584 2.29309 -3.0364 0
M  V30 1097 H 96.2704 0.64826 -3.82648 0
M  V30 1098 H 94.3714 2.74152 -2.52332 0
M  V30 1099 H 94.4844 2.1133 -4.29973 0
M  V30 1100 H 92.8484 1.2095 -2.2415 0
M  V30 1101 H 93.6314 0.0371471 -3.4328 0
M  V30 1102 N 96.0765 1.50051 0.48192 0
M  V30 1103 C 97.3015 1.64508 1.26301 0
M  V30 1104 C 97.7265 0.323851 1.85291 0
M  V30 1105 O 97.0845 -0.710969 1.66778 0
M  V30 1106 C 97.1325 2.7305 2.35533 0
M  V30 1107 O 96.2365 2.3355 3.39895 0
M  V30 1108 H 95.5775 0.549978 0.372048 0
M  V30 1109 H 98.1075 1.9636 0.574786 0
M  V30 1110 H 98.1175 2.95799 2.8101 0
M  V30 1111 H 96.7925 3.68946 1.91967 0
M  V30 1112 H 95.3695 2.21205 3.00204 0
M  V30 1113 N 97.5546 -0.734337 1.39446 0
M  V30 1114 C 98.9656 -1.31264 1.32766 0
M  V30 1115 C 99.3166 -1.96198 -0.00767497 0
M  V30 1116 O 98.4416 -1.96346 -0.909796 0
M  V30 1117 C 99.0366 -2.38682 2.4045 0
M  V30 1118 C 97.5956 -2.92184 2.37288 0
M  V30 1119 C 96.7426 -1.6576 2.22304 0
M  V30 1120 H 99.6936 -0.531799 1.49525 0
M  V30 1121 H 99.7146 -3.19087 2.07276 0
M  V30 1122 H 99.2266 -1.91392 3.37625 0
M  V30 1123 H 97.3276 -3.43752 1.43754 0
M  V30 1124 H 97.4406 -3.45253 3.3217 0
M  V30 1125 H 95.8046 -1.9012 1.69489 0
M  V30 1126 H 96.5876 -1.20521 3.21449 0
M  V30 1127 N 99.0327 -1.24633 -0.964593 0
M  V30 1128 C 99.9647 -0.999302 -2.06268 0
M  V30 1129 C 100.978 0.0323226 -1.62768 0
M  V30 1130 O 102.167 -0.205079 -1.77318 0
M  V30 1131 C 99.2667 -0.486816 -3.35385 0
M  V30 1132 C 98.4397 -1.5823 -4.07777 0
M  V30 1133 C 97.4987 -1.07191 -5.15166 0
M  V30 1134 O 96.5247 -1.76426 -5.41168 0
M  V30 1135 N 97.7267 0.0920373 -5.80427 0
M  V30 1136 H 100.492 -1.94477 -2.28033 0
M  V30 1137 H 98.0527 -1.15704 -1.13244 0
M  V30 1138 H 100.045 -0.130066 -4.04491 0
M  V30 1139 H 98.6147 0.364459 -3.10468 0
M  V30 1140 H 97.8347 -2.11109 -3.32906 0
M  V30 1141 H 99.1227 -2.31854 -4.52903 0
M  V30 1142 H 98.5207 0.670784 -5.61709 0
M  V30 1143 H 97.0777 0.389905 -6.50633 0
M  V30 1144 N 100.511 1.16574 -1.06058 0
M  V30 1145 C 101.461 2.18854 -0.63929 0
M  V30 1146 C 102.445 1.57505 0.328798 0
M  V30 1147 O 103.637 1.76408 0.144623 0
M  V30 1148 C 100.766 3.43291 -0.0247203 0
M  V30 1149 C 99.8518 4.11722 -1.01716 0
M  V30 1150 N 100.243 4.55841 -2.19186 0
M  V30 1151 C 98.5408 4.37872 -0.847569 0
M  V30 1152 C 99.2418 5.08751 -2.82042 0
M  V30 1153 N 98.2178 5.01489 -2.09784 0
M  V30 1154 H 102.02 2.5068 -1.53417 0
M  V30 1155 H 99.5338 1.32999 -0.931935 0
M  V30 1156 H 101.531 4.15856 0.294915 0
M  V30 1157 H 100.191 3.12954 0.865448 0
M  V30 1158 H 101.202 4.49649 -2.56975 0
M  V30 1159 H 97.8788 4.17499 -0.00918848 0
M  V30 1160 H 99.2688 5.52944 -3.81709 0
M  V30 1161 N 101.989 0.842826 1.3317 0
M  V30 1162 C 103.238 0.436738 1.96915 0
M  V30 1163 C 103.551 -1.01025 1.67491 0
M  V30 1164 O 104.757 -1.5212 2.24881 0
M  V30 1165 C 103.213 0.730021 3.52418 0
M  V30 1166 C 102.821 2.19195 3.90714 0
M  V30 1167 C 104.565 0.391076 4.22695 0
M  V30 1168 C 102.472 2.42907 5.39212 0
M  V30 1169 H 101.402 0.15958 0.736919 0
M  V30 1170 H 104.053 1.03196 1.51733 0
M  V30 1171 H 102.435 0.0643755 3.95948 0
M  V30 1172 H 103.609 2.8984 3.58231 0
M  V30 1173 H 101.924 2.49425 3.33431 0
M  V30 1174 H 104.521 0.545817 5.31907 0
M  V30 1175 H 104.864 -0.666294 4.10933 0
M  V30 1176 H 105.397 1.01212 3.84709 0
M  V30 1177 H 102.136 3.47224 5.55982 0
M  V30 1178 H 101.656 1.76827 5.73142 0
M  V30 1179 H 103.335 2.2626 6.06148 0
M  V30 1180 N 103.467 -1.45747 0.599634 0
M  V30 1181 C 104.397 -2.33235 -0.111306 0
M  V30 1182 C 105.378 -1.46359 -0.866781 0
M  V30 1183 O 106.563 -1.75146 -0.838904 0
M  V30 1184 C 103.693 -3.28932 -1.11451 0
M  V30 1185 C 102.647 -4.25381 -0.472772 0
M  V30 1186 C 101.973 -5.1071 -1.58365 0
M  V30 1187 C 103.273 -5.18831 0.600948 0
M  V30 1188 H 104.967 -2.92927 0.61919 0
M  V30 1189 H 102.513 -1.40857 0.299215 0
M  V30 1190 H 104.466 -3.89002 -1.62036 0
M  V30 1191 H 103.19 -2.67381 -1.8755 0
M  V30 1192 H 101.849 -3.66598 0.0121472 0
M  V30 1193 H 101.497 -4.45533 -2.33473 0
M  V30 1194 H 101.197 -5.7604 -1.15982 0
M  V30 1195 H 102.721 -5.73647 -2.09194 0
M  V30 1196 H 104.135 -5.73019 0.179491 0
M  V30 1197 H 102.532 -5.92595 0.946076 0
M  V30 1198 H 103.602 -4.6174 1.48068 0
M  V30 1199 N 104.945 -0.338344 -1.53925 0
M  V30 1200 C 106.193 0.259245 -2.0043 0
M  V30 1201 C 106.514 1.51484 -1.22791 0
M  V30 1202 O 105.784 1.93037 -0.33368 0
M  V30 1203 H 104.364 0.0987845 -0.740439 0
M  V30 1204 H 107.026 -0.458302 -1.89435 0
M  V30 1205 H 106.122 0.505334 -3.07982 0
M  V30 1206 N 106.423 1.57458 -0.0668435 0
M  V30 1207 C 107.353 2.15468 0.899764 0
M  V30 1208 C 108.334 1.08042 1.31381 0
M  V30 1209 O 109.519 1.36054 1.38574 0
M  V30 1210 C 106.649 2.71232 2.16911 0
M  V30 1211 C 105.603 3.83781 1.89463 0
M  V30 1212 C 104.929 4.26127 3.22986 0
M  V30 1213 C 106.229 5.08238 1.20381 0
M  V30 1214 H 107.923 2.96488 0.416529 0
M  V30 1215 H 105.469 1.4262 0.198908 0
M  V30 1216 H 107.422 3.10458 2.84945 0
M  V30 1217 H 106.146 1.87426 2.67468 0
M  V30 1218 H 104.805 3.45051 1.23836 0
M  V30 1219 H 104.453 3.39249 3.71374 0
M  V30 1220 H 104.153 5.01993 3.05413 0
M  V30 1221 H 105.677 4.67966 3.92225 0
M  V30 1222 H 107.091 5.44811 1.78475 0
M  V30 1223 H 105.488 5.89349 1.13083 0
M  V30 1224 H 106.558 4.84558 0.182153 0
M  V30 1225 N 107.901 -0.206675 1.56239 0
M  V30 1226 C 109.312 -0.772383 1.69974 0
M  V30 1227 C 109.663 -1.84353 0.671436 0
M  V30 1228 O 108.788 -2.15695 -0.174491 0
M  V30 1229 C 109.383 -1.40779 3.08167 0
M  V30 1230 C 107.942 -1.92072 3.23706 0
M  V30 1231 C 107.089 -0.786347 2.65917 0
M  V30 1232 H 110.04 0.0182223 1.5869 0
M  V30 1233 H 110.061 -2.27696 3.04852 0
M  V30 1234 H 109.573 -0.627958 3.82986 0
M  V30 1235 H 107.674 -2.7281 2.53782 0
M  V30 1236 H 107.787 -2.09046 4.31087 0
M  V30 1237 H 106.151 -1.1976 2.24788 0
M  V30 1238 H 106.934 -0.0189416 3.43295 0
M  V30 1239 N 109.379 -1.50304 -0.473955 0
M  V30 1240 C 110.625 -1.61389 -1.22806 0
M  V30 1241 C 110.958 -0.311955 -1.91678 0
M  V30 1242 O 110.233 0.686384 -1.81986 0
M  V30 1243 C 110.516 -2.79219 -2.27396 0
M  V30 1244 C 110.369 -4.19286 -1.62848 0
M  V30 1245 C 111.688 -2.92614 -3.28732 0
M  V30 1246 H 108.807 -0.587399 -0.445119 0
M  V30 1247 H 111.449 -1.82681 -0.522265 0
M  V30 1248 H 109.599 -2.61195 -2.87592 0
M  V30 1249 H 111.271 -4.48892 -1.06271 0
M  V30 1250 H 109.514 -4.23677 -0.931693 0
M  V30 1251 H 110.185 -4.97655 -2.38838 0
M  V30 1252 H 112.661 -3.09105 -2.78556 0
M  V30 1253 H 111.537 -3.76688 -3.99246 0
M  V30 1254 H 111.798 -2.03107 -3.92683 0
M  V30 1255 N 110.857 0.726932 -1.39834 0
M  V30 1256 C 112.105 1.4837 -1.37225 0
M  V30 1257 C 112.426 1.94979 0.0284857 0
M  V30 1258 O 111.696 1.69555 0.981213 0
M  V30 1259 H 110.276 0.55043 -0.505011 0
M  V30 1260 H 112.938 0.862468 -1.74778 0
M  V30 1261 H 112.034 2.36198 -2.04003 0
M  V30 1262 N 112.336 1.25143 0.95797 0
M  V30 1263 C 113.268 1.01023 2.05735 0
M  V30 1264 C 114.281 -0.0236902 1.62783 0
M  V30 1265 O 115.47 0.21448 1.77207 0
M  V30 1266 C 112.57 0.504595 3.35122 0
M  V30 1267 C 111.743 1.6039 4.06932 0
M  V30 1268 C 110.802 1.09922 5.14591 0
M  V30 1269 O 109.828 1.79293 5.40225 0
M  V30 1270 N 111.03 -0.0612545 5.80468 0
M  V30 1271 H 113.795 1.95683 2.26998 0
M  V30 1272 H 111.356 1.16303 1.12629 0
M  V30 1273 H 113.348 0.151516 4.04416 0
M  V30 1274 H 111.918 -0.347989 3.10657 0
M  V30 1275 H 111.138 2.12872 3.31782 0
M  V30 1276 H 112.426 2.34252 4.51667 0
M  V30 1277 H 111.824 -0.640985 5.62057 0
M  V30 1278 H 110.381 -0.355395 6.5083 0
M  V30 1279 N 113.814 -1.1601 1.06675 0
M  V30 1280 C 114.764 -2.18512 0.650888 0
M  V30 1281 C 115.748 -1.57677 -0.320441 0
M  V30 1282 O 116.94 -1.76482 -0.135266 0
M  V30 1283 C 114.069 -3.43273 0.0429255 0
M  V30 1284 C 113.155 -4.11176 1.03898 0
M  V30 1285 N 113.546 -4.54672 2.216 0
M  V30 1286 C 111.844 -4.37417 0.870779 0
M  V30 1287 C 112.545 -5.07248 2.84736 0
M  V30 1288 N 111.521 -5.0037 2.12441 0
M  V30 1289 H 115.323 -2.49863 1.54745 0
M  V30 1290 H 112.837 -1.32503 0.938975 0
M  V30 1291 H 114.834 -4.16006 -0.272857 0
M  V30 1292 H 113.494 -3.13408 -0.84884 0
M  V30 1293 H 114.505 -4.4828 2.59356 0
M  V30 1294 H 111.182 -4.17488 0.0313293 0
M  V30 1295 H 112.572 -5.50912 3.84636 0
M  V30 1296 N 115.292 -0.849877 -1.32721 0
M  V30 1297 C 116.541 -0.447175 -1.96681 0
M  V30 1298 C 116.854 1.00135 -1.68025 0
M  V30 1299 O 118.06 1.50926 -2.25685 0
M  V30 1300 C 116.516 -0.7487 -3.52026 0
M  V30 1301 C 116.124 -2.21264 -3.89546 0
M  V30 1302 C 117.868 -0.413487 -4.22481 0
M  V30 1303 C 115.775 -2.45763 -5.37917 0
M  V30 1304 H 114.705 -0.163486 -0.736063 0
M  V30 1305 H 117.356 -1.03999 -1.51183 0
M  V30 1306 H 115.738 -0.0853727 -3.95908 0
M  V30 1307 H 116.912 -2.91736 -3.56689 0
M  V30 1308 H 115.227 -2.5119 -3.32103 0
M  V30 1309 H 117.824 -0.574017 -5.3161 0
M  V30 1310 H 118.167 0.644492 -4.11281 0
M  V30 1311 H 118.7 -1.03251 -3.84167 0
M  V30 1312 H 115.439 -3.50168 -5.54132 0
M  V30 1313 H 114.959 -1.79864 -5.72197 0
M  V30 1314 H 116.638 -2.29471 -6.0494 0
M  V30 1315 N 116.77 1.45427 -0.607355 0
M  V30 1316 C 118 2.06314 -0.108656 0
M  V30 1317 C 118.408 1.45269 1.21217 0
M  V30 1318 O 117.751 0.561115 1.74921 0
M  V30 1319 C 117.813 3.59345 0.105618 0
M  V30 1320 C 117.477 4.42723 -1.13337 0
M  V30 1321 C 118.474 4.77715 -2.05145 0
M  V30 1322 C 116.159 4.83478 -1.36213 0
M  V30 1323 C 118.153 5.52317 -3.18158 0
M  V30 1324 C 115.84 5.57835 -2.49527 0
M  V30 1325 C 116.838 5.92171 -3.40327 0
M  V30 1326 O 116.526 6.65019 -4.51669 0
M  V30 1327 H 116.258 0.672782 -0.0658842 0
M  V30 1328 H 118.812 1.87664 -0.834945 0
M  V30 1329 H 117.042 3.76394 0.886796 0
M  V30 1330 H 118.731 4.02076 0.555886 0
M  V30 1331 H 119.497 4.46787 -1.88697 0
M  V30 1332 H 115.376 4.56188 -0.664362 0
M  V30 1333 H 118.92 5.79036 -3.89054 0
M  V30 1334 H 114.817 5.88177 -2.65928 0
M  V30 1335 H 115.585 6.83469 -4.50348 0
M  V30 1336 N 118.248 0.346503 1.53744 0
M  V30 1337 C 119.178 -0.501193 2.28058 0
M  V30 1338 C 120.159 -1.10014 1.29734 0
M  V30 1339 O 121.344 -1.12097 1.58581 0
M  V30 1340 C 118.474 -1.65078 3.05559 0
M  V30 1341 C 117.428 -1.18003 4.11411 0
M  V30 1342 C 116.754 -2.41837 4.76884 0
M  V30 1343 C 118.054 -0.278394 5.21558 0
M  V30 1344 H 119.748 0.11875 2.99164 0
M  V30 1345 H 117.294 0.0585531 1.43881 0
M  V30 1346 H 119.247 -2.25028 3.56287 0
M  V30 1347 H 117.971 -2.29767 2.32109 0
M  V30 1348 H 116.63 -0.603331 3.61601 0
M  V30 1349 H 116.278 -3.0494 4.00026 0
M  V30 1350 H 115.978 -2.1102 5.48402 0
M  V30 1351 H 117.502 -3.02508 5.30397 0
M  V30 1352 H 118.916 -0.784823 5.67903 0
M  V30 1353 H 117.313 -0.0619707 6.00068 0
M  V30 1354 H 118.383 0.684677 4.80042 0
M  V30 1355 N 119.726 -1.57421 0.075193 0
M  V30 1356 C 120.951 -1.98364 -0.605515 0
M  V30 1357 C 121.376 -0.953383 -1.62149 0
M  V30 1358 O 120.734 0.0806053 -1.81121 0
M  V30 1359 C 120.782 -3.38332 -1.24756 0
M  V30 1360 O 119.886 -3.37959 -2.36342 0
M  V30 1361 H 119.227 -0.645553 -0.155428 0
M  V30 1362 H 121.757 -2.04044 0.150714 0
M  V30 1363 H 121.767 -3.75591 -1.5936 0
M  V30 1364 H 120.442 -4.12846 -0.503129 0
M  V30 1365 H 119.019 -3.12474 -2.03506 0
M  V30 1366 N 121.204 0.198386 -1.56346 0
M  V30 1367 C 122.167 1.22952 -1.93431 0
M  V30 1368 C 123.167 1.38611 -0.815092 0
M  V30 1369 O 124.357 1.36479 -1.08255 0
M  V30 1370 C 121.489 2.59946 -2.20546 0
M  V30 1371 H 122.682 0.912626 -2.85677 0
M  V30 1372 H 120.235 0.43977 -1.49986 0
M  V30 1373 H 120.97 2.96696 -1.30927 0
M  V30 1374 H 120.755 2.49953 -3.02102 0
M  V30 1375 H 122.245 3.3431 -2.50253 0
M  V30 1376 N 122.682 1.50554 0.465978 0
M  V30 1377 C 124.098 1.38093 0.800154 0
M  V30 1378 C 124.298 0.440988 1.96615 0
M  V30 1379 O 123.354 -0.114499 2.5224 0
M  V30 1380 C 124.667 2.79565 1.10742 0
M  V30 1381 C 126.215 2.88516 1.21357 0
M  V30 1382 C 126.69 4.30833 1.55393 0
M  V30 1383 N 128.181 4.33807 1.62375 0
M  V30 1384 C 128.916 5.40927 1.90225 0
M  V30 1385 N 128.412 6.58247 2.16062 0
M  V30 1386 N 130.205 5.28376 1.9177 0
M  V30 1387 H 122.356 2.10237 -0.302366 0
M  V30 1388 H 124.619 0.945203 -0.0727746 0
M  V30 1389 H 124.325 3.50208 0.323661 0
M  V30 1390 H 124.199 3.17125 2.04234 0
M  V30 1391 H 126.586 2.1809 1.98799 0
M  V30 1392 H 126.667 2.54492 0.258321 0
M  V30 1393 H 126.311 5.01799 0.784889 0
M  V30 1394 H 126.241 4.62347 2.52076 0
M  V30 1395 H 128.732 3.49212 1.44427 0
M  V30 1396 H 129.045 7.3569 2.36601 0
M  V30 1397 H 127.39 6.61413 2.13444 0
M  V30 1398 H 130.581 4.35715 1.71085 0
M  V30 1399 H 130.754 6.11944 2.13139 0
M  V30 1400 N 124.16 -0.719506 1.40217 0
M  V30 1401 C 125.409 -1.47486 1.37589 0
M  V30 1402 C 125.722 -1.9559 -0.0201568 0
M  V30 1403 O 126.928 -2.70973 -0.169049 0
M  V30 1404 C 125.384 -2.66575 2.41796 0
M  V30 1405 C 124.992 -2.25358 3.87192 0
M  V30 1406 C 126.736 -3.4433 2.48269 0
M  V30 1407 C 124.643 -3.41262 4.83005 0
M  V30 1408 H 123.573 -0.553901 0.511576 0
M  V30 1409 H 126.224 -0.783427 1.65936 0
M  V30 1410 H 124.606 -3.3787 2.06543 0
M  V30 1411 H 125.78 -1.61509 4.31569 0
M  V30 1412 H 124.095 -1.60657 3.84159 0
M  V30 1413 H 126.692 -4.30569 3.17041 0
M  V30 1414 H 127.035 -3.87872 1.51198 0
M  V30 1415 H 127.568 -2.80076 2.82493 0
M  V30 1416 H 124.307 -3.02755 5.81394 0
M  V30 1417 H 123.827 -4.0404 4.43297 0
M  V30 1418 H 125.506 -4.07383 5.02641 0
M  V30 1419 N 125.638 -1.25649 -0.95132 0
M  V30 1420 C 126.915 -1.01361 -1.67288 0
M  V30 1421 C 127.295 0.459135 -2.06046 0
M  V30 1422 O 126.643 1.43723 -1.7764 0
M  V30 1423 C 126.853 -1.95256 -2.89268 0
M  V30 1424 C 128.201 -2.23289 -3.61147 0
M  V30 1425 O 129.225 -1.93041 -2.99355 0
M  V30 1426 O 128.084 -2.74741 -4.72419 0
M  V30 1427 H 125.178 -0.38464 -0.732107 0
M  V30 1428 H 127.724 -1.36817 -1.00395 0
M  V30 1429 H 126.496 -2.94685 -2.57442 0
M  V30 1430 H 126.119 -1.60218 -3.6389 0
M  V30 1431 N 127.117 1.15442 -1.07289 0
M  V30 1432 C 128.365 1.85845 -0.794096 0
M  V30 1433 C 128.686 1.82692 0.681809 0
M  V30 1434 O 127.956 1.26741 1.49377 0
M  V30 1435 H 126.536 0.688089 -0.290763 0
M  V30 1436 H 129.198 1.39947 -1.3565 0
M  V30 1437 H 128.294 2.91001 -1.12804 0
M  V30 1438 N 128.595 0.856903 1.32268 0
M  V30 1439 C 129.543 0.291987 2.3076 0
M  V30 1440 C 130.537 -0.585857 1.58947 0
M  V30 1441 O 131.743 -0.47341 1.73663 0
M  V30 1442 H 128.118 0.075721 0.748178 0
M  V30 1443 H 130.089 1.13687 2.75895 0
M  V30 1444 C 128.838 -0.502869 3.44044 0
M  V30 1445 H 128.161 0.163328 3.99466 0
M  V30 1446 H 129.601 -0.863691 4.1511 0
M  V30 1447 C 128.06 -1.68898 2.91505 0
M  V30 1448 O 128.59 -2.78811 2.89184 0
M  V30 1449 N 126.796 -1.51679 2.47875 0
M  V30 1450 H 126.343 -0.622666 2.49961 0
M  V30 1451 H 126.301 -2.31184 2.13076 0
M  V30 1452 N 130.073 -1.45103 0.615059 0
M  V30 1453 C 131.003 -2.33339 -0.0865619 0
M  V30 1454 C 131.984 -1.4727 -0.851209 0
M  V30 1455 O 133.169 -1.76026 -0.820281 0
M  V30 1456 C 130.299 -3.30095 -1.07956 0
M  V30 1457 C 129.253 -4.25858 -0.427628 0
M  V30 1458 C 128.579 -5.12361 -1.5294 0
M  V30 1459 C 129.879 -5.18165 0.655944 0
M  V30 1460 H 131.573 -2.92254 0.650224 0
M  V30 1461 H 129.119 -1.40532 0.314138 0
M  V30 1462 H 131.072 -3.90698 -1.57901 0
M  V30 1463 H 129.796 -2.69355 -1.84703 0
M  V30 1464 H 128.455 -3.66564 0.0510292 0
M  V30 1465 H 128.103 -4.47984 -2.28734 0
M  V30 1466 H 127.803 -5.77238 -1.09865 0
M  V30 1467 H 129.327 -5.75833 -2.03098 0
M  V30 1468 H 130.741 -5.72796 0.240257 0
M  V30 1469 H 129.138 -5.91559 1.00888 0
M  V30 1470 H 130.208 -4.60144 1.52957 0
M  V30 1471 N 131.551 -0.354651 -1.53558 0
M  V30 1472 C 132.797 0.238797 -2.01389 0
M  V30 1473 C 133.13 1.49309 -1.2418 0
M  V30 1474 O 132.405 1.91638 -0.332457 0
M  V30 1475 C 132.688 0.541771 -3.56001 0
M  V30 1476 C 132.541 -0.725388 -4.43912 0
M  V30 1477 C 133.86 1.34685 -4.18984 0
M  V30 1478 H 130.979 0.0853177 -0.732045 0
M  V30 1479 H 133.621 -0.477384 -1.83905 0
M  V30 1480 H 131.771 1.15189 -3.71031 0
M  V30 1481 H 133.443 -1.36313 -4.407 0
M  V30 1482 H 131.686 -1.34801 -4.12324 0
M  V30 1483 H 132.357 -0.468505 -5.50008 0
M  V30 1484 H 134.833 0.830837 -4.07721 0
M  V30 1485 H 133.709 1.52759 -5.27215 0
M  V30 1486 H 133.97 2.35221 -3.74331 0
M  V30 1487 N 133.029 1.57378 -0.0835403 0
M  V30 1488 C 134.275 1.94217 0.583733 0
M  V30 1489 C 134.608 0.964653 1.68547 0
M  V30 1490 O 133.883 -0.00422258 1.945 0
M  V30 1491 C 134.166 3.41253 1.14972 0
M  V30 1492 C 134.019 4.49768 0.0538277 0
M  V30 1493 C 135.338 3.89352 2.05166 0
M  V30 1494 H 132.457 0.706233 0.210724 0
M  V30 1495 H 135.099 1.89392 -0.1519 0
M  V30 1496 H 133.249 3.45496 1.77665 0
M  V30 1497 H 134.921 4.57641 -0.579851 0
M  V30 1498 H 133.164 4.29432 -0.614068 0
M  V30 1499 H 133.835 5.49817 0.490452 0
M  V30 1500 H 136.311 3.87189 1.52393 0
M  V30 1501 H 135.187 4.92822 2.41698 0
M  V30 1502 H 135.448 3.27973 2.96456 0
M  V30 1503 N 134.507 -0.190092 1.56449 0
M  V30 1504 C 135.923 -0.54113 1.50146 0
M  V30 1505 C 136.123 -1.85603 0.784465 0
M  V30 1506 O 135.179 -2.5024 0.337051 0
M  V30 1507 C 136.492 -0.591241 2.9483 0
M  V30 1508 C 138.04 -0.679732 3.0553 0
M  V30 1509 C 138.515 -0.760908 4.51635 0
M  V30 1510 N 140.006 -0.824302 4.55806 0
M  V30 1511 C 140.741 -0.907365 5.66175 0
M  V30 1512 N 140.237 -0.952422 6.86222 0
M  V30 1513 N 142.03 -0.94494 5.541 0
M  V30 1514 H 134.181 0.67235 2.01478 0
M  V30 1515 H 136.444 0.240127 0.917084 0
M  V30 1516 H 136.15 0.305905 3.50367 0
M  V30 1517 H 136.024 -1.44422 3.48457 0
M  V30 1518 H 138.411 -1.56731 2.50039 0
M  V30 1519 H 138.492 0.199549 2.5502 0
M  V30 1520 H 138.136 0.122336 5.07753 0
M  V30 1521 H 138.066 -1.65606 4.99882 0
M  V30 1522 H 140.557 -0.798526 3.69367 0
M  V30 1523 H 140.87 -1.01645 7.66086 0
M  V30 1524 H 139.215 -0.921014 6.8887 0
M  V30 1525 H 142.406 -0.906612 4.59236 0
M  V30 1526 H 142.579 -1.00622 6.4014 0
M  V30 1527 N 135.985 -1.50799 -0.457987 0
M  V30 1528 C 137.396 -1.55152 -1.0385 0
M  V30 1529 C 137.747 -0.362719 -1.92818 0
M  V30 1530 O 136.872 0.522915 -2.09987 0
M  V30 1531 C 137.467 -2.81173 -1.89017 0
M  V30 1532 C 136.026 -2.88164 -2.42154 0
M  V30 1533 C 135.173 -2.49591 -1.20829 0
M  V30 1534 H 138.124 -1.56874 -0.240068 0
M  V30 1535 H 138.145 -2.63769 -2.74238 0
M  V30 1536 H 137.657 -3.67677 -1.24238 0
M  V30 1537 H 135.758 -2.06042 -3.10447 0
M  V30 1538 H 135.871 -3.91356 -2.76364 0
M  V30 1539 H 134.235 -2.02322 -1.54719 0
M  V30 1540 H 135.018 -3.38418 -0.576927 0
M  V30 1541 N 137.463 0.71206 -1.40597 0
M  V30 1542 C 138.693 1.49894 -1.42181 0
M  V30 1543 C 139.101 1.89189 -0.0208078 0
M  V30 1544 O 138.444 1.56223 0.966436 0
M  V30 1545 C 138.506 2.80215 -2.25211 0
M  V30 1546 C 138.17 2.63221 -3.73582 0
M  V30 1547 C 139.167 2.30249 -4.66135 0
M  V30 1548 C 136.852 2.79376 -4.17438 0
M  V30 1549 C 138.846 2.13645 -6.00529 0
M  V30 1550 C 136.533 2.6239 -5.51901 0
M  V30 1551 C 137.531 2.29573 -6.43262 0
M  V30 1552 O 137.219 2.12719 -7.75246 0
M  V30 1553 H 136.951 0.469031 -0.486812 0
M  V30 1554 H 139.505 0.88564 -1.85326 0
M  V30 1555 H 137.735 3.4389 -1.76852 0
M  V30 1556 H 139.424 3.41947 -2.18694 0
M  V30 1557 H 140.19 2.17398 -4.33547 0
M  V30 1558 H 136.069 3.03906 -3.46644 0
M  V30 1559 H 139.613 1.87953 -6.71803 0
M  V30 1560 H 135.51 2.74826 -5.84073 0
M  V30 1561 H 136.278 2.27611 -7.86216 0
M  V30 1562 N 138.941 1.26152 0.944643 0
M  V30 1563 C 140.169 1.14259 1.72489 0
M  V30 1564 C 140.584 -0.302555 1.8636 0
M  V30 1565 O 139.941 -1.20741 1.36849 0
M  V30 1566 C 139.992 1.80266 3.13347 0
M  V30 1567 O 139.713 3.19133 3.00143 0
M  V30 1568 C 141.214 1.74283 4.07603 0
M  V30 1569 H 138.434 0.398051 0.540181 0
M  V30 1570 H 140.978 1.66706 1.18446 0
M  V30 1571 H 139.133 1.31766 3.64303 0
M  V30 1572 H 139.547 3.51744 3.89071 0
M  V30 1573 H 141.021 2.25111 5.04013 0
M  V30 1574 H 141.498 0.708631 4.33446 0
M  V30 1575 H 142.104 2.22319 3.62567 0
M  V30 1576 N 140.419 -1.14872 1.07899 0
M  V30 1577 C 141.83 -1.67367 0.827363 0
M  V30 1578 C 142.181 -1.85236 -0.646693 0
M  V30 1579 O 141.306 -1.55974 -1.50004 0
M  V30 1580 C 141.901 -3.04016 1.49532 0
M  V30 1581 C 140.46 -3.53566 1.29106 0
M  V30 1582 C 139.607 -2.29161 1.56143 0
M  V30 1583 H 142.558 -0.990083 1.24028 0
M  V30 1584 H 142.579 -3.69219 0.919643 0
M  V30 1585 H 142.091 -2.90978 2.56814 0
M  V30 1586 H 140.192 -3.71835 0.238713 0
M  V30 1587 H 140.305 -4.34661 2.01511 0
M  V30 1588 H 138.669 -2.34978 0.982717 0
M  V30 1589 H 139.452 -2.18705 2.64619 0
M  V30 1590 N 141.898 -0.863906 -1.31812 0
M  V30 1591 C 143.147 -0.46801 -1.96195 0
M  V30 1592 C 143.46 0.983474 -1.69077 0
M  V30 1593 O 144.666 1.48523 -2.27273 0
M  V30 1594 C 143.122 -0.785995 -3.51212 0
M  V30 1595 C 142.73 -2.25383 -3.87178 0
M  V30 1596 C 144.474 -0.458274 -4.22019 0
M  V30 1597 C 142.381 -2.51455 -5.3528 0
M  V30 1598 H 141.311 -0.171283 -0.734287 0
M  V30 1599 H 143.962 -1.05597 -1.50072 0
M  V30 1600 H 142.344 -0.127359 -3.95795 0
M  V30 1601 H 143.518 -2.95502 -3.53575 0
M  V30 1602 H 141.833 -2.54698 -3.2942 0
M  V30 1603 H 144.43 -0.630369 -5.30971 0
M  V30 1604 H 144.773 0.600834 -4.11941 0
M  V30 1605 H 145.306 -1.07319 -3.8305 0
M  V30 1606 H 142.045 -3.56025 -5.50387 0
M  V30 1607 H 141.565 -1.85923 -5.70257 0
M  V30 1608 H 143.244 -2.35874 -6.02472 0
M  V30 1609 N 143.376 1.44774 -0.622745 0
M  V30 1610 C 144.601 2.06999 -0.128968 0
M  V30 1611 C 145.026 1.4617 1.1839 0
M  V30 1612 O 144.384 0.560007 1.72434 0
M  V30 1613 C 144.432 3.60595 -0.0188351 0
M  V30 1614 O 143.536 3.99398 1.02739 0
M  V30 1615 H 142.877 0.659047 -0.0809544 0
M  V30 1616 H 145.407 1.85784 -0.85705 0
M  V30 1617 H 145.417 4.07627 0.174476 0
M  V30 1618 H 144.092 4.04252 -0.977384 0
M  V30 1619 H 142.669 3.64011 0.809326 0
M  V30 1620 N 144.854 0.36279 1.53368 0
M  V30 1621 C 146.079 -0.231226 2.06107 0
M  V30 1622 C 146.504 -1.419 1.23474 0
M  V30 1623 O 145.862 -1.79524 0.253128 0
M  V30 1624 C 145.91 -0.605523 3.5548 0
M  V30 1625 O 145.014 -1.70312 3.7559 0
M  V30 1626 H 144.355 -0.034327 0.663112 0
M  V30 1627 H 146.885 0.522584 1.97814 0
M  V30 1628 H 146.895 -0.877314 3.98456 0
M  V30 1629 H 145.57 0.263004 4.15068 0
M  V30 1630 H 144.147 -1.4271 3.44512 0
M  V30 1631 N 146.332 -1.57332 0.0918853 0
M  V30 1632 C 147.609 -1.85691 -0.614668 0
M  V30 1633 C 147.989 -0.988146 -1.86545 0
M  V30 1634 O 147.337 -0.0597055 -2.28422 0
M  V30 1635 C 147.547 -3.36294 -0.933126 0
M  V30 1636 C 148.895 -4.04275 -1.29796 0
M  V30 1637 O 149.919 -3.41157 -1.02424 0
M  V30 1638 O 148.778 -5.1564 -1.81047 0
M  V30 1639 H 145.872 -0.767802 -0.307261 0
M  V30 1640 H 148.418 -1.69244 0.12434 0
M  V30 1641 H 147.19 -3.91273 -0.0456404 0
M  V30 1642 H 146.813 -3.58076 -1.72822 0
M  V30 1643 N 147.81 0.181792 -1.56548 0
M  V30 1644 C 149.087 0.926765 -1.72251 0
M  V30 1645 C 149.467 2.00831 -0.650386 0
M  V30 1646 O 148.815 2.26008 0.336521 0
M  V30 1647 C 149.025 1.50106 -3.1507 0
M  V30 1648 C 150.373 1.97805 -3.75711 0
M  V30 1649 O 151.397 1.59922 -3.18282 0
M  V30 1650 O 150.256 2.67555 -4.76525 0
M  V30 1651 H 147.35 0.435506 -0.703039 0
M  V30 1652 H 149.896 0.170443 -1.68842 0
M  V30 1653 H 148.668 0.72212 -3.84579 0
M  V30 1654 H 148.291 2.32186 -3.22763 0
M  V30 1655 N 149.288 1.51039 0.449983 0
M  V30 1656 C 150.565 1.53612 1.21089 0
M  V30 1657 C 150.945 0.292997 2.09057 0
M  V30 1658 O 150.293 -0.72259 2.16774 0
M  V30 1659 C 150.503 2.84337 2.0237 0
M  V30 1660 C 151.851 3.35807 2.59843 0
M  V30 1661 O 152.875 2.85802 2.12593 0
M  V30 1662 O 151.734 4.23029 3.45989 0
M  V30 1663 H 148.828 0.617057 0.550608 0
M  V30 1664 H 151.374 1.63344 0.460082 0
M  V30 1665 H 150.146 3.66278 1.37681 0
M  V30 1666 H 149.769 2.77708 2.84542 0
M  V30 1667 N 150.766 -0.704594 1.40972 0
M  V30 1668 C 151.713 -1.81862 1.42109 0
M  V30 1669 C 152.683 -1.63781 0.276593 0
M  V30 1670 O 153.868 -1.84759 0.4763 0
M  V30 1671 C 151.008 -3.19669 1.30022 0
M  V30 1672 C 150.121 -3.49246 2.54267 0
M  V30 1673 C 149.256 -4.76618 2.3454 0
M  V30 1674 C 148.295 -4.99133 3.54306 0
M  V30 1675 N 147.432 -6.17726 3.33706 0
M  V30 1676 H 152.272 -1.80226 2.37324 0
M  V30 1677 H 149.809 -0.880238 1.17857 0
M  V30 1678 H 151.767 -3.99263 1.21018 0
M  V30 1679 H 150.397 -3.20506 0.384192 0
M  V30 1680 H 149.449 -2.64125 2.73756 0
M  V30 1681 H 150.761 -3.61788 3.43381 0
M  V30 1682 H 149.915 -5.64249 2.22952 0
M  V30 1683 H 148.654 -4.66305 1.42867 0
M  V30 1684 H 147.659 -4.09953 3.66359 0
M  V30 1685 H 148.884 -5.11311 4.4692 0
M  V30 1686 H 146.83 -6.08642 2.44725 0
M  V30 1687 H 146.747 -6.30995 4.16391 0
M  V30 1688 H 148.015 -7.08115 3.25873 0
M  V30 1689 N 152.244 -1.26651 -0.937939 0
M  V30 1690 C 153.492 -1.12165 -1.68118 0
M  V30 1691 C 153.813 0.334983 -1.92101 0
M  V30 1692 O 153.083 1.23583 -1.52 0
M  V30 1693 H 151.663 -0.412093 -0.623048 0
M  V30 1694 H 154.325 -1.59027 -1.12678 0
M  V30 1695 H 153.421 -1.64289 -2.6536 0
M  V30 1696 N 153.722 1.14298 -1.08507 0
M  V30 1697 C 154.969 1.85359 -0.815373 0
M  V30 1698 C 155.297 1.83001 0.658865 0
M  V30 1699 O 154.552 1.25655 1.50031 0
M  V30 1700 C 154.851 3.33547 -1.28379 0
M  V30 1701 C 154.517 3.56093 -2.76602 0
M  V30 1702 C 153.179 3.61955 -3.17084 0
M  V30 1703 C 155.531 3.64834 -3.72217 0
M  V30 1704 C 152.859 3.74082 -4.51973 0
M  V30 1705 C 155.211 3.78487 -5.06883 0
M  V30 1706 C 153.875 3.82598 -5.46969 0
M  V30 1707 H 153.145 0.678276 -0.298366 0
M  V30 1708 H 155.792 1.35002 -1.35819 0
M  V30 1709 H 154.097 3.86191 -0.660593 0
M  V30 1710 H 155.794 3.86959 -1.05186 0
M  V30 1711 H 152.384 3.52179 -2.4427 0
M  V30 1712 H 156.568 3.59595 -3.42061 0
M  V30 1713 H 151.824 3.75527 -4.82483 0
M  V30 1714 H 155.998 3.84193 -5.80834 0
M  V30 1715 H 153.625 3.91747 -6.51489 0
M  V30 1716 N 155.201 0.870884 1.31352 0
M  V30 1717 C 156.447 0.482987 1.96965 0
M  V30 1718 C 156.78 -0.962462 1.68672 0
M  V30 1719 O 156.055 -1.6779 0.98371 0
M  V30 1720 C 156.338 0.741752 3.52378 0
M  V30 1721 C 156.191 2.2368 3.9024 0
M  V30 1722 C 157.51 0.208838 4.39604 0
M  V30 1723 H 154.629 0.176955 0.715441 0
M  V30 1724 H 157.271 1.09229 1.55464 0
M  V30 1725 H 155.421 0.223149 3.87859 0
M  V30 1726 H 157.093 2.82273 3.64856 0
M  V30 1727 H 155.336 2.70901 3.38814 0
M  V30 1728 H 156.007 2.3685 4.98604 0
M  V30 1729 H 158.483 0.652529 4.10952 0
M  V30 1730 H 157.359 0.419336 5.47296 0
M  V30 1731 H 157.62 -0.889275 4.33064 0
M  V30 1732 N 156.679 -1.44442 0.630414 0
M  V30 1733 C 157.956 -1.9549 0.0655657 0
M  V30 1734 C 158.336 -1.5724 -1.40851 0
M  V30 1735 O 157.684 -0.846116 -2.12257 0
M  V30 1736 C 157.894 -3.47812 0.287691 0
M  V30 1737 C 159.242 -4.24216 0.180513 0
M  V30 1738 O 160.266 -3.55526 0.219019 0
M  V30 1739 O 159.125 -5.46434 0.0848493 0
M  V30 1740 H 156.219 -0.826688 -0.0227177 0
M  V30 1741 H 158.765 -1.54496 0.702068 0
M  V30 1742 H 157.537 -3.687 1.31056 0
M  V30 1743 H 157.16 -3.95751 -0.382984 0
M  V30 1744 N 158.157 -0.370918 -1.53173 0
M  V30 1745 C 159.087 0.464847 -2.28826 0
M  V30 1746 C 160.068 1.07936 -1.31468 0
M  V30 1747 O 161.253 1.0956 -1.60344 0
M  V30 1748 C 158.383 1.60196 -3.08147 0
M  V30 1749 C 157.337 1.11443 -4.13237 0
M  V30 1750 C 156.663 2.3422 -4.80672 0
M  V30 1751 C 157.963 0.195384 -5.21934 0
M  V30 1752 H 159.657 -0.166329 -2.98938 0
M  V30 1753 H 157.203 -0.0814359 -1.4377 0
M  V30 1754 H 159.156 2.19332 -3.59822 0
M  V30 1755 H 157.88 2.26045 -2.35735 0
M  V30 1756 H 156.539 0.545727 -3.62515 0
M  V30 1757 H 156.187 2.98537 -4.04827 0
M  V30 1758 H 155.887 2.02269 -5.51689 0
M  V30 1759 H 157.411 2.94032 -5.35143 0
M  V30 1760 H 158.825 0.694375 -5.69079 0
M  V30 1761 H 157.222 -0.0335027 -6.00091 0
M  V30 1762 H 158.292 -0.760961 -4.78892 0
M  V30 1763 N 159.635 1.57281 -0.100228 0
M  V30 1764 C 160.881 1.94826 0.563101 0
M  V30 1765 C 161.214 0.982475 1.67514 0
M  V30 1766 O 160.489 0.0164069 1.94493 0
M  V30 1767 C 160.772 3.42453 1.11346 0
M  V30 1768 C 160.625 4.498 0.00612081 0
M  V30 1769 C 161.944 3.91506 2.01024 0
M  V30 1770 H 159.063 0.708428 0.203221 0
M  V30 1771 H 161.705 1.8922 -0.171979 0
M  V30 1772 H 159.855 3.47361 1.7399 0
M  V30 1773 H 161.527 4.57 -0.628357 0
M  V30 1774 H 159.77 4.28756 -0.659581 0
M  V30 1775 H 160.441 5.50306 0.432109 0
M  V30 1776 H 162.917 3.88784 1.48278 0
M  V30 1777 H 161.793 4.95358 2.36457 0
M  V30 1778 H 162.054 3.31099 2.92961 0
M  V30 1779 N 161.113 -0.173488 1.56642 0
M  V30 1780 C 162.362 -0.888758 1.81063 0
M  V30 1781 C 162.675 -1.83506 0.67712 0
M  V30 1782 O 163.881 -2.59254 0.806206 0
M  V30 1783 C 162.337 -1.63091 3.20826 0
M  V30 1784 C 161.945 -0.728357 4.4204 0
M  V30 1785 C 163.689 -2.33454 3.54541 0
M  V30 1786 C 161.596 -1.47062 5.72823 0
M  V30 1787 H 160.526 -0.335618 0.675186 0
M  V30 1788 H 163.177 -0.141712 1.82952 0
M  V30 1789 H 161.559 -2.42263 3.13248 0
M  V30 1790 H 162.733 0.0262449 4.60793 0
M  V30 1791 H 161.048 -0.134492 4.16183 0
M  V30 1792 H 163.645 -2.89578 4.49498 0
M  V30 1793 H 163.988 -3.08687 2.79317 0
M  V30 1794 H 164.521 -1.61227 3.63663 0
M  V30 1795 H 161.26 -0.760658 6.51072 0
M  V30 1796 H 160.78 -2.1986 5.58052 0
M  V30 1797 H 162.459 -2.01868 6.14702 0
M  V30 1798 N 162.591 -1.51276 -0.441967 0
M  V30 1799 C 163.538 -1.72256 -1.53612 0
M  V30 1800 C 164.508 -0.564164 -1.56225 0
M  V30 1801 O 165.693 -0.798074 -1.73307 0
M  V30 1802 C 162.833 -1.84932 -2.91366 0
M  V30 1803 C 161.946 -3.12459 -2.98317 0
M  V30 1804 C 161.081 -3.15758 -4.27166 0
M  V30 1805 C 160.12 -4.37619 -4.27967 0
M  V30 1806 N 159.257 -4.38493 -5.48333 0
M  V30 1807 H 164.097 -2.65654 -1.35026 0
M  V30 1808 H 161.634 -1.31662 -0.656009 0
M  V30 1809 H 163.592 -1.90263 -3.7129 0
M  V30 1810 H 162.222 -0.949461 -3.08521 0
M  V30 1811 H 161.274 -3.1646 -2.11086 0
M  V30 1812 H 162.586 -4.02382 -2.94771 0
M  V30 1813 H 161.74 -3.19979 -5.15459 0
M  V30 1814 H 160.479 -2.23715 -4.33362 0
M  V30 1815 H 159.484 -4.33579 -3.38067 0
M  V30 1816 H 160.709 -5.30921 -4.23438 0
M  V30 1817 H 158.655 -3.49318 -5.55259 0
M  V30 1818 H 158.572 -5.22219 -5.46647 0
M  V30 1819 H 159.84 -4.469 -6.38671 0
M  V30 1820 N 164.069 0.697108 -1.41344 0
M  V30 1821 C 165.315 1.4593 -1.40827 0
M  V30 1822 C 165.648 1.94193 -0.0167098 0
M  V30 1823 O 164.923 1.69425 0.955263 0
M  V30 1824 C 165.206 2.67229 -2.41373 0
M  V30 1825 C 165.059 2.24741 -3.8963 0
M  V30 1826 C 166.378 3.69423 -2.39196 0
M  V30 1827 H 163.497 0.529303 -0.512842 0
M  V30 1828 H 166.139 0.794112 -1.72609 0
M  V30 1829 H 164.289 3.23982 -2.14401 0
M  V30 1830 H 165.961 1.73327 -4.27499 0
M  V30 1831 H 164.204 1.56542 -4.0457 0
M  V30 1832 H 164.875 3.1177 -4.55525 0
M  V30 1833 H 167.351 3.2234 -2.63128 0
M  V30 1834 H 166.227 4.51907 -3.11563 0
M  V30 1835 H 166.488 4.19012 -1.41001 0
M  V30 1836 N 165.547 1.27147 0.931209 0
M  V30 1837 C 166.777 1.15914 1.71019 0
M  V30 1838 C 167.185 -0.287112 1.87009 0
M  V30 1839 O 166.528 -1.20761 1.38429 0
M  V30 1840 C 166.59 1.76647 3.13107 0
M  V30 1841 C 166.254 3.25807 3.20467 0
M  V30 1842 C 167.251 4.22489 3.02983 0
M  V30 1843 C 164.936 3.66452 3.43538 0
M  V30 1844 C 166.93 5.57794 3.08454 0
M  V30 1845 C 164.617 5.01888 3.48643 0
M  V30 1846 C 165.615 5.97369 3.31119 0
M  V30 1847 O 165.303 7.30337 3.35952 0
M  V30 1848 H 165.035 0.404062 0.54195 0
M  V30 1849 H 167.589 1.68457 1.17521 0
M  V30 1850 H 165.819 1.18578 3.68071 0
M  V30 1851 H 167.508 1.60179 3.72958 0
M  V30 1852 H 168.274 3.92425 2.85004 0
M  V30 1853 H 164.153 2.92611 3.5623 0
M  V30 1854 H 167.697 6.32298 2.94694 0
M  V30 1855 H 163.594 5.31609 3.66145 0
M  V30 1856 H 164.362 7.38739 3.5243 0
M  V30 1857 N 167.025 -1.13721 1.09112 0
M  V30 1858 C 168.272 -1.84924 0.825192 0
M  V30 1859 C 168.6 -1.83347 -0.649151 0
M  V30 1860 O 167.855 -1.26449 -1.49362 0
M  V30 1861 C 168.154 -3.32861 1.30146 0
M  V30 1862 C 167.82 -3.54621 2.78486 0
M  V30 1863 C 166.482 -3.60268 3.18999 0
M  V30 1864 C 168.834 -3.62855 3.74146 0
M  V30 1865 C 166.162 -3.71679 4.53951 0
M  V30 1866 C 168.514 -3.75793 5.08883 0
M  V30 1867 C 167.178 -3.79692 5.4899 0
M  V30 1868 H 166.448 -0.676684 0.301959 0
M  V30 1869 H 169.095 -1.3428 1.36533 0
M  V30 1870 H 167.4 -3.85835 0.681064 0
M  V30 1871 H 169.097 -3.86395 1.07236 0
M  V30 1872 H 165.687 -3.50879 2.46134 0
M  V30 1873 H 169.871 -3.57775 3.43963 0
M  V30 1874 H 165.127 -3.72963 4.84467 0
M  V30 1875 H 169.301 -3.81107 5.82864 0
M  V30 1876 H 166.928 -3.88287 6.53558 0
M  V30 1877 N 168.503 -0.877838 -1.30888 0
M  V30 1878 C 169.45 -0.337538 -2.28318 0
M  V30 1879 C 170.42 0.568346 -1.56074 0
M  V30 1880 O 171.605 0.498298 -1.84178 0
M  V30 1881 C 168.745 0.448142 -3.42178 0
M  V30 1882 C 167.858 -0.48615 -4.29256 0
M  V30 1883 C 166.993 0.314427 -5.30269 0
M  V30 1884 C 166.032 -0.615791 -6.08995 0
M  V30 1885 N 165.169 0.14902 -7.01942 0
M  V30 1886 H 170.009 -1.17356 -2.73919 0
M  V30 1887 H 167.546 -0.590094 -1.34745 0
M  V30 1888 H 169.504 0.919517 -4.06941 0
M  V30 1889 H 168.134 1.24879 -2.97666 0
M  V30 1890 H 167.186 -1.076 -3.64865 0
M  V30 1891 H 168.498 -1.19909 -4.84173 0
M  V30 1892 H 167.652 0.847969 -6.00745 0
M  V30 1893 H 166.391 1.06062 -4.76027 0
M  V30 1894 H 165.396 -1.16102 -5.37401 0
M  V30 1895 H 166.621 -1.36097 -6.65323 0
M  V30 1896 H 164.567 0.877884 -6.50099 0
M  V30 1897 H 164.484 -0.504433 -7.54315 0
M  V30 1898 H 165.752 0.663537 -7.76671 0
M  V30 1899 N 169.982 1.44106 -0.638065 0
M  V30 1900 C 171.259 1.95453 -0.0759321 0
M  V30 1901 C 171.639 1.57984 1.40015 0
M  V30 1902 O 170.987 0.857361 2.11806 0
M  V30 1903 C 171.197 3.47655 -0.306132 0
M  V30 1904 C 172.545 4.24114 -0.203008 0
M  V30 1905 O 173.569 3.55405 -0.237871 0
M  V30 1906 O 172.428 5.46381 -0.113827 0
M  V30 1907 H 169.522 0.826797 0.0183332 0
M  V30 1908 H 172.068 1.54122 -0.710251 0
M  V30 1909 H 170.84 3.68 -1.3301 0
M  V30 1910 H 170.463 3.95949 0.361991 0
M  V30 1911 N 171.46 0.379036 1.52974 0
M  V30 1912 C 172.688 -0.20679 2.05864 0
M  V30 1913 C 173.103 -1.41356 1.25155 0
M  V30 1914 O 172.46 -1.8009 0.295588 0
M  V30 1915 C 172.511 -0.587045 3.56702 0
M  V30 1916 O 172.232 0.571776 4.34353 0
M  V30 1917 C 173.733 -1.22983 4.25899 0
M  V30 1918 H 170.953 -0.0336123 0.670158 0
M  V30 1919 H 173.497 0.541298 1.97206 0
M  V30 1920 H 171.652 -1.28504 3.65466 0
M  V30 1921 H 172.066 0.261544 5.23847 0
M  V30 1922 H 173.54 -1.44635 5.32715 0
M  V30 1923 H 174.017 -2.19416 3.80465 0
M  V30 1924 H 174.623 -0.572892 4.21424 0
M  V30 1925 N 172.938 -1.57226 0.108567 0
M  V30 1926 C 173.888 -2.11305 -0.856396 0
M  V30 1927 C 174.872 -1.03129 -1.23504 0
M  V30 1928 O 176.064 -1.29381 -1.20787 0
M  V30 1929 C 173.193 -2.70771 -2.11041 0
M  V30 1930 C 172.279 -3.86011 -1.7566 0
M  V30 1931 N 172.67 -4.93492 -1.10902 0
M  V30 1932 C 170.968 -3.95999 -2.05185 0
M  V30 1933 C 171.669 -5.73984 -0.944308 0
M  V30 1934 N 170.645 -5.2346 -1.46596 0
M  V30 1935 H 174.447 -2.91784 -0.352002 0
M  V30 1936 H 171.961 -1.62126 -0.0942324 0
M  V30 1937 H 173.958 -3.07851 -2.81128 0
M  V30 1938 H 172.618 -1.91751 -2.62034 0
M  V30 1939 H 173.629 -5.1208 -0.774235 0
M  V30 1940 H 170.306 -3.28007 -2.58298 0
M  V30 1941 H 171.696 -6.70479 -0.436813 0
M  V30 1942 N 174.416 0.165178 -1.56732 0
M  V30 1943 C 175.827 0.727046 -1.71962 0
M  V30 1944 C 176.178 1.82508 -0.720078 0
M  V30 1945 O 175.303 2.16082 0.117242 0
M  V30 1946 C 175.898 1.32559 -3.11791 0
M  V30 1947 C 174.457 1.83422 -3.28684 0
M  V30 1948 C 173.604 0.715567 -2.67908 0
M  V30 1949 H 176.555 -0.0602896 -1.58585 0
M  V30 1950 H 176.576 2.19533 -3.10782 0
M  V30 1951 H 176.088 0.526195 -3.84516 0
M  V30 1952 H 174.189 2.65986 -2.60926 0
M  V30 1953 H 174.302 1.97543 -4.36478 0
M  V30 1954 H 172.666 1.13758 -2.27884 0
M  V30 1955 H 173.449 -0.0720836 -3.43224 0
M  V30 1956 N 175.894 1.51508 0.433938 0
M  V30 1957 C 176.841 1.73068 1.52696 0
M  V30 1958 C 177.811 0.572441 1.55924 0
M  V30 1959 O 178.996 0.807253 1.72882 0
M  V30 1960 C 176.136 1.86474 2.90381 0
M  V30 1961 C 175.249 3.14037 2.96656 0
M  V30 1962 C 174.384 3.18019 4.25485 0
M  V30 1963 C 173.423 4.39882 4.2564 0
M  V30 1964 N 172.56 4.41394 5.45999 0
M  V30 1965 H 177.4 2.66366 1.33615 0
M  V30 1966 H 174.937 1.32008 0.649018 0
M  V30 1967 H 176.895 1.92229 3.70275 0
M  V30 1968 H 175.525 0.965809 3.08013 0
M  V30 1969 H 174.577 3.17575 2.09404 0
M  V30 1970 H 175.889 4.0394 2.92633 0
M  V30 1971 H 175.043 3.22708 5.13755 0
M  V30 1972 H 173.782 2.2601 4.3217 0
M  V30 1973 H 172.787 4.35366 3.35763 0
M  V30 1974 H 174.012 5.33159 4.20617 0
M  V30 1975 H 171.958 3.52258 5.53399 0
M  V30 1976 H 171.875 5.25111 5.4387 0
M  V30 1977 H 173.143 4.50281 6.36292 0
M  V30 1978 N 177.372 -0.689602 1.41712 0
M  V30 1979 C 178.619 -1.44966 1.4139 0
M  V30 1980 C 178.947 -1.94484 0.025105 0
M  V30 1981 O 178.202 -1.70307 -0.964048 0
M  V30 1982 C 178.501 -2.67298 2.37247 0
M  V30 1983 C 178.167 -2.36405 3.83958 0
M  V30 1984 C 176.829 -2.27691 4.23923 0
M  V30 1985 C 179.181 -2.11043 4.76561 0
M  V30 1986 C 176.509 -1.91719 5.54492 0
M  V30 1987 C 178.861 -1.76578 6.07456 0
M  V30 1988 C 177.525 -1.66363 6.46436 0
M  V30 1989 H 176.795 -0.53047 0.517381 0
M  V30 1990 H 179.442 -0.787655 1.74552 0
M  V30 1991 H 177.747 -3.38461 1.9736 0
M  V30 1992 H 179.444 -3.25452 2.34269 0
M  V30 1993 H 176.034 -2.44085 3.52308 0
M  V30 1994 H 180.218 -2.16717 4.46483 0
M  V30 1995 H 175.474 -1.82367 5.83568 0
M  V30 1996 H 179.648 -1.55974 6.78708 0
M  V30 1997 H 177.275 -1.38258 7.47522 0
M  V30 1998 N 178.85 -1.27639 -0.924453 0
M  V30 1999 C 180.261 -1.12834 -1.48746 0
M  V30 2000 C 180.612 0.285505 -1.94112 0
M  V30 2001 O 179.737 1.17874 -1.81479 0
M  V30 2002 C 180.332 -2.04217 -2.70334 0
M  V30 2003 C 178.891 -1.93509 -3.22848 0
M  V30 2004 C 178.038 -1.96583 -1.95577 0
M  V30 2005 H 180.989 -1.40484 -0.738233 0
M  V30 2006 H 181.01 -1.59989 -3.4523 0
M  V30 2007 H 180.522 -3.07111 -2.37285 0
M  V30 2008 H 178.623 -0.936131 -3.60649 0
M  V30 2009 H 178.736 -2.79917 -3.88823 0
M  V30 2010 H 177.1 -1.4085 -2.12211 0
M  V30 2011 H 177.883 -3.01137 -1.64837 0
M  V30 2012 N 180.328 1.1314 -1.09713 0
M  V30 2013 C 181.291 2.16831 -0.742751 0
M  V30 2014 C 182.291 1.59159 0.229129 0
M  V30 2015 O 183.481 1.74199 0.00693237 0
M  V30 2016 C 180.613 3.40756 -0.0989168 0
M  V30 2017 H 181.806 2.49695 -1.66109 0
M  V30 2018 H 179.359 1.2802 -0.896699 0
M  V30 2019 H 180.094 3.13485 0.830514 0
M  V30 2020 H 179.879 3.83888 -0.798265 0
M  V30 2021 H 181.369 4.17386 0.133524 0
M  V30 2022 N 181.806 0.884767 1.30421 0
M  V30 2023 C 183.054 0.502112 1.95763 0
M  V30 2024 C 183.375 -0.951815 1.70192 0
M  V30 2025 O 182.645 -1.6692 1.0254 0
M  V30 2026 H 181.225 0.182694 0.724315 0
M  V30 2027 H 183.887 1.1278 1.58955 0
M  V30 2028 H 182.983 0.672188 3.04775 0
M  V30 2029 N 183.284 -1.43765 0.645699 0
M  V30 2030 C 184.532 -2.01499 0.155731 0
M  V30 2031 C 184.853 -1.51151 -1.232 0
M  V30 2032 O 184.123 -0.721044 -1.82148 0
M  V30 2033 H 182.703 -0.745003 0.0545817 0
M  V30 2034 H 185.365 -1.76075 0.835677 0
M  V30 2035 H 184.461 -3.1181 0.134577 0
M  V30 2036 N 184.763 -0.387143 -1.52771 0
M  V30 2037 C 185.71 0.449048 -2.26389 0
M  V30 2038 C 186.68 1.05961 -1.27912 0
M  V30 2039 O 187.865 1.08804 -1.56737 0
M  V30 2040 C 185.005 1.57155 -3.0724 0
M  V30 2041 C 184.118 0.984066 -4.20643 0
M  V30 2042 C 183.253 2.07745 -4.88892 0
M  V30 2043 C 182.292 1.46574 -5.94292 0
M  V30 2044 N 181.429 2.49834 -6.56146 0
M  V30 2045 H 186.269 -0.185205 -2.97424 0
M  V30 2046 H 183.806 -0.103164 -1.46738 0
M  V30 2047 H 185.764 2.23309 -3.52405 0
M  V30 2048 H 184.394 2.17615 -2.38419 0
M  V30 2049 H 183.446 0.212193 -3.79808 0
M  V30 2050 H 184.758 0.497029 -4.96318 0
M  V30 2051 H 183.912 2.81673 -5.3735 0
M  V30 2052 H 182.651 2.59807 -4.12737 0
M  V30 2053 H 181.656 0.711696 -5.45174 0
M  V30 2054 H 182.881 0.953088 -6.72379 0
M  V30 2055 H 180.827 3.0107 -5.82832 0
M  V30 2056 H 180.744 2.05879 -7.27427 0
M  V30 2057 H 182.012 3.23399 -7.09249 0
M  V30 2058 N 186.241 1.57166 -0.116904 0
M  V30 2059 C 187.174 2.10912 0.871291 0
M  V30 2060 C 188.152 1.025 1.26224 0
M  V30 2061 O 189.336 1.3014 1.36366 0
M  V30 2062 C 186.463 2.6041 2.16574 0
M  V30 2063 C 185.509 3.80687 1.92302 0
M  V30 2064 S 186.342 5.23199 1.14119 0
M  V30 2065 C 187.498 5.76064 2.44748 0
M  V30 2066 H 187.731 2.94401 0.414138 0
M  V30 2067 H 185.264 1.54096 0.096829 0
M  V30 2068 H 187.222 2.89583 2.9095 0
M  V30 2069 H 185.883 1.77106 2.59408 0
M  V30 2070 H 185.076 4.13462 2.8821 0
M  V30 2071 H 184.678 3.5212 1.26047 0
M  V30 2072 H 186.97 5.8566 3.406 0
M  V30 2073 H 187.913 6.74184 2.16521 0
M  V30 2074 H 188.321 5.04117 2.54019 0
M  V30 2075 N 187.719 -0.156864 1.56817 0
M  V30 2076 C 188.944 -0.890331 1.87318 0
M  V30 2077 C 189.369 -1.74394 0.704855 0
M  V30 2078 O 188.727 -1.77972 -0.345786 0
M  V30 2079 C 188.775 -1.73102 3.16336 0
M  V30 2080 O 187.879 -2.83422 2.99576 0
M  V30 2081 H 187.22 -0.24857 0.615718 0
M  V30 2082 H 189.75 -0.150649 2.04045 0
M  V30 2083 H 189.76 -2.12803 3.48107 0
M  V30 2084 H 188.435 -1.10412 4.00976 0
M  V30 2085 H 187.012 -2.47199 2.7919 0
M  V30 2086 N 189.197 -1.51736 -0.425897 0
M  V30 2087 C 190.129 -1.70083 -1.53638 0
M  V30 2088 C 191.142 -0.581349 -1.52066 0
M  V30 2089 O 192.331 -0.856017 -1.56635 0
M  V30 2090 C 189.431 -1.71078 -2.9255 0
M  V30 2091 C 188.604 -2.99795 -3.185 0
M  V30 2092 C 187.663 -2.92825 -4.37196 0
M  V30 2093 O 186.689 -3.66756 -4.35291 0
M  V30 2094 N 187.891 -2.0946 -5.41393 0
M  V30 2095 H 190.656 -2.65882 -1.383 0
M  V30 2096 H 188.217 -1.49765 -0.614988 0
M  V30 2097 H 190.209 -1.63969 -3.69995 0
M  V30 2098 H 188.779 -0.828242 -3.01428 0
M  V30 2099 H 187.999 -3.20684 -2.2925 0
M  V30 2100 H 189.287 -3.84977 -3.32671 0
M  V30 2101 H 188.685 -1.48792 -5.45781 0
M  V30 2102 H 187.242 -2.08221 -6.17647 0
M  V30 2103 N 190.675 0.682077 -1.42076 0
M  V30 2104 C 191.905 1.46844 -1.45329 0
M  V30 2105 C 192.313 1.89102 -0.0609328 0
M  V30 2106 O 191.656 1.58238 0.933082 0
M  V30 2107 C 191.718 2.75375 -2.31104 0
M  V30 2108 C 191.382 2.55238 -3.79081 0
M  V30 2109 C 192.379 2.20309 -4.70914 0
M  V30 2110 C 190.064 2.70459 -4.2327 0
M  V30 2111 C 192.058 2.00859 -6.04925 0
M  V30 2112 C 189.745 2.50624 -5.57343 0
M  V30 2113 C 190.743 2.15876 -6.47986 0
M  V30 2114 O 190.431 1.96227 -7.79583 0
M  V30 2115 H 190.163 0.4586 -0.496651 0
M  V30 2116 H 192.717 0.846131 -1.87162 0
M  V30 2117 H 190.947 3.40061 -1.84107 0
M  V30 2118 H 192.636 3.37231 -2.25898 0
M  V30 2119 H 193.402 2.08153 -4.38061 0
M  V30 2120 H 189.281 2.96485 -3.53012 0
M  V30 2121 H 192.825 1.7366 -6.75639 0
M  V30 2122 H 188.722 2.62375 -5.89771 0
M  V30 2123 H 189.49 2.10883 -7.90867 0
M  V30 2124 N 192.153 1.28127 0.917671 0
M  V30 2125 C 193.083 1.14248 2.03641 0
M  V30 2126 C 194.064 0.0412748 1.7005 0
M  V30 2127 O 195.249 0.217566 1.92977 0
M  V30 2128 C 192.379 0.799431 3.37974 0
M  V30 2129 C 191.333 1.85497 3.85713 0
M  V30 2130 C 190.659 1.36565 5.16966 0
M  V30 2131 C 191.959 3.26085 4.08002 0
M  V30 2132 H 193.653 2.07835 2.15511 0
M  V30 2133 H 191.199 1.00064 1.03553 0
M  V30 2134 H 193.152 0.689114 4.15727 0
M  V30 2135 H 191.876 -0.172145 3.26146 0
M  V30 2136 H 190.535 1.95437 3.10161 0
M  V30 2137 H 190.183 0.383253 5.01538 0
M  V30 2138 H 189.883 2.07143 5.49878 0
M  V30 2139 H 191.407 1.26848 5.97279 0
M  V30 2140 H 192.821 3.19089 4.76293 0
M  V30 2141 H 191.218 3.94462 4.52238 0
M  V30 2142 H 192.288 3.70394 3.12948 0
M  V30 2143 N 193.631 -1.12557 1.10312 0
M  V30 2144 C 194.541 -2.21841 0.763142 0
M  V30 2145 C 195.557 -1.72354 -0.238801 0
M  V30 2146 O 196.733 -2.01249 -0.0778746 0
M  V30 2147 C 193.798 -3.46131 0.198632 0
M  V30 2148 C 192.859 -4.10464 1.25769 0
M  V30 2149 C 192.092 -5.28821 0.72002 0
M  V30 2150 O 192.315 -5.6859 -0.453993 0
M  V30 2151 O 191.249 -5.83437 1.47935 0
M  V30 2152 H 195.075 -2.53312 1.67532 0
M  V30 2153 H 192.66 -1.20867 0.878157 0
M  V30 2154 H 194.542 -4.2125 -0.112401 0
M  V30 2155 H 193.217 -3.16338 -0.686419 0
M  V30 2156 H 192.124 -3.3713 1.62156 0
M  V30 2157 H 193.457 -4.44408 2.11571 0
M  V30 2158 N 195.109 -0.891671 -1.2995 0
M  V30 2159 C 196.334 -0.527932 -2.00568 0
M  V30 2160 C 196.759 0.877969 -1.66353 0
M  V30 2161 O 196.117 1.58301 -0.883762 0
M  V30 2162 C 196.165 -0.717745 -3.53385 0
M  V30 2163 O 195.269 0.233376 -4.11739 0
M  V30 2164 H 194.61 -0.20722 -0.630837 0
M  V30 2165 H 197.14 -1.20105 -1.65638 0
M  V30 2166 H 197.15 -0.619307 -4.03272 0
M  V30 2167 H 195.825 -1.74276 -3.77625 0
M  V30 2168 H 194.402 0.0880706 -3.72796 0
M  V30 2169 N 196.587 1.43421 -0.653314 0
M  V30 2170 C 197.52 2.2803 0.0879804 0
M  V30 2171 C 198.498 1.39833 0.82979 0
M  V30 2172 O 199.682 1.69275 0.829341 0
M  V30 2173 C 196.809 3.19247 1.13132 0
M  V30 2174 C 195.855 4.23704 0.487546 0
M  V30 2175 S 196.688 5.30377 -0.738961 0
M  V30 2176 C 197.844 6.25162 0.30384 0
M  V30 2177 H 198.077 2.90554 -0.629739 0
M  V30 2178 H 195.61 1.47934 -0.442156 0
M  V30 2179 H 197.568 3.72346 1.72827 0
M  V30 2180 H 196.229 2.55901 1.82136 0
M  V30 2181 H 195.422 4.87631 1.27407 0
M  V30 2182 H 195.024 3.73983 -0.0352915 0
M  V30 2183 H 197.316 6.67321 1.17 0
M  V30 2184 H 198.259 7.07463 -0.300402 0
M  V30 2185 H 198.667 5.60864 0.63969 0
M  V30 2186 N 198.065 0.39524 1.52563 0
M  V30 2187 C 198.997 -0.472201 2.24283 0
M  V30 2188 C 200.01 -1.02178 1.26742 0
M  V30 2189 O 201.199 -0.923097 1.52778 0
M  V30 2190 C 198.299 -1.66775 2.95024 0
M  V30 2191 C 197.472 -1.2445 4.19322 0
M  V30 2192 C 196.531 -2.30539 4.7301 0
M  V30 2193 O 195.557 -1.91702 5.35947 0
M  V30 2194 N 196.759 -3.6253 4.53379 0
M  V30 2195 H 199.524 0.142282 2.99362 0
M  V30 2196 H 197.085 0.2219 1.60372 0
M  V30 2197 H 199.077 -2.37283 3.27839 0
M  V30 2198 H 197.647 -2.18845 2.23217 0
M  V30 2199 H 196.867 -0.368069 3.92478 0
M  V30 2200 H 198.155 -0.938457 5.0007 0
M  V30 2201 H 197.553 -3.96841 4.03154 0
M  V30 2202 H 196.11 -4.29055 4.90668 0
M  V30 2203 N 199.544 -1.57102 0.125237 0
M  V30 2204 C 200.793 -1.94582 -0.531095 0
M  V30 2205 C 201.106 -1.01126 -1.6743 0
M  V30 2206 O 202.312 -1.28097 -2.39381 0
M  V30 2207 C 200.768 -3.45839 -0.996164 0
M  V30 2208 C 200.376 -4.47842 0.118926 0
M  V30 2209 C 202.12 -3.92227 -1.62352 0
M  V30 2210 C 200.027 -5.90284 -0.363192 0
M  V30 2211 H 198.957 -0.726391 -0.20217 0
M  V30 2212 H 201.608 -1.82339 0.206092 0
M  V30 2213 H 199.99 -3.53338 -1.78796 0
M  V30 2214 H 201.164 -4.52018 0.895358 0
M  V30 2215 H 199.479 -4.11243 0.653324 0
M  V30 2216 H 202.076 -4.96069 -1.99548 0
M  V30 2217 H 202.419 -3.32552 -2.50429 0
M  V30 2218 H 202.952 -3.87554 -0.897019 0
M  V30 2219 H 199.691 -6.53728 0.481679 0
M  V30 2220 H 199.211 -5.89515 -1.10597 0
M  V30 2221 H 200.89 -6.41752 -0.822377 0
M  V30 2222 N 201.022 0.148545 -1.56898 0
M  V30 2223 C 202.27 0.859717 -1.82902 0
M  V30 2224 C 202.591 1.81775 -0.70588 0
M  V30 2225 O 201.861 1.93994 0.272586 0
M  V30 2226 H 200.441 0.320469 -0.674766 0
M  V30 2227 H 203.103 0.142918 -1.94375 0
M  V30 2228 H 202.199 1.4229 -2.77777 0
M  V30 2229 N 202.5 1.5196 0.417844 0
M  V30 2230 C 203.777 1.56146 1.17803 0
M  V30 2231 C 204.157 0.337275 2.08388 0
M  V30 2232 O 203.505 -0.676447 2.18258 0
M  V30 2233 C 203.715 2.88566 1.96293 0
M  V30 2234 C 205.063 3.41244 2.52662 0
M  V30 2235 O 206.087 2.90247 2.06483 0
M  V30 2236 O 204.946 4.30273 3.36938 0
M  V30 2237 H 202.04 0.628598 0.537395 0
M  V30 2238 H 204.586 1.64283 0.425331 0
M  V30 2239 H 203.358 3.69116 1.2988 0
M  V30 2240 H 202.981 2.83681 2.78587 0
M  V30 2241 N 203.978 -0.674533 1.42435 0
M  V30 2242 C 205.206 -1.46283 1.46317 0
M  V30 2243 C 205.621 -1.88653 0.0745836 0
M  V30 2244 O 204.978 -1.58151 -0.91074 0
M  V30 2245 C 205.029 -2.71178 2.3905 0
M  V30 2246 O 204.75 -2.30586 3.72507 0
M  V30 2247 C 206.251 -3.64738 2.51955 0
M  V30 2248 H 203.471 -0.450104 0.497642 0
M  V30 2249 H 206.015 -0.828792 1.86953 0
M  V30 2250 H 204.17 -3.3077 2.01667 0
M  V30 2251 H 204.584 -3.11241 4.22172 0
M  V30 2252 H 206.058 -4.49096 3.20962 0
M  V30 2253 H 206.535 -4.10656 1.55752 0
M  V30 2254 H 207.141 -3.11038 2.90061 0
M  V30 2255 N 205.456 -1.28612 -0.910864 0
M  V30 2256 C 206.705 -1.15311 -1.65488 0
M  V30 2257 C 207.018 0.296999 -1.93332 0
M  V30 2258 O 208.224 0.551168 -2.65847 0
M  V30 2259 C 206.68 -2.01599 -2.98137 0
M  V30 2260 C 206.288 -3.51367 -2.7793 0
M  V30 2261 C 208.032 -1.96993 -3.76024 0
M  V30 2262 C 205.939 -4.29797 -4.06237 0
M  V30 2263 H 204.869 -0.42796 -0.620779 0
M  V30 2264 H 207.52 -1.53166 -1.01057 0
M  V30 2265 H 205.902 -1.56603 -3.63719 0
M  V30 2266 H 207.076 -4.0434 -2.21011 0
M  V30 2267 H 205.391 -3.57529 -2.13452 0
M  V30 2268 H 207.988 -2.52856 -4.71135 0
M  V30 2269 H 208.331 -0.94733 -4.05378 0
M  V30 2270 H 208.864 -2.39973 -3.17266 0
M  V30 2271 H 205.603 -5.32648 -3.82055 0
M  V30 2272 H 205.123 -3.81596 -4.62757 0
M  V30 2273 H 206.802 -4.39869 -4.74473 0
M  V30 2274 N 206.934 1.1197 -1.10907 0
M  V30 2275 C 207.844 2.21433 -0.774896 0
M  V30 2276 C 208.86 1.72478 0.229657 0
M  V30 2277 O 210.036 2.01288 0.0672008 0
M  V30 2278 C 207.101 3.4602 -0.216986 0
M  V30 2279 C 206.162 4.09791 -1.27944 0
M  V30 2280 C 205.395 5.28431 -0.748055 0
M  V30 2281 O 205.618 5.68823 0.423833 0
M  V30 2282 O 204.552 5.82644 -1.51027 0
M  V30 2283 H 208.378 2.5242 -1.68873 0
M  V30 2284 H 205.963 1.20399 -0.884555 0
M  V30 2285 H 207.845 4.21304 0.090059 0
M  V30 2286 H 206.52 3.16698 0.669633 0
M  V30 2287 H 205.427 3.36265 -1.63941 0
M  V30 2288 H 206.76 4.4328 -2.13925 0
M  V30 2289 N 208.412 0.89855 1.29475 0
M  V30 2290 C 209.659 0.523882 1.95606 0
M  V30 2291 C 209.987 -0.929608 1.70847 0
M  V30 2292 O 209.242 -1.67401 1.01367 0
M  V30 2293 C 209.541 0.761398 3.49195 0
M  V30 2294 C 209.207 2.19207 3.94029 0
M  V30 2295 C 207.869 2.58326 4.05982 0
M  V30 2296 C 210.221 3.12379 4.17216 0
M  V30 2297 C 207.549 3.898 4.38489 0
M  V30 2298 C 209.901 4.43401 4.51197 0
M  V30 2299 C 208.565 4.82394 4.61359 0
M  V30 2300 H 207.835 0.191702 0.715773 0
M  V30 2301 H 210.482 1.13699 1.54094 0
M  V30 2302 H 208.787 0.0653622 3.91745 0
M  V30 2303 H 210.484 0.450904 3.98457 0
M  V30 2304 H 207.074 1.87846 3.85242 0
M  V30 2305 H 211.258 2.83371 4.07449 0
M  V30 2306 H 206.514 4.19734 4.44559 0
M  V30 2307 H 210.688 5.15623 4.68087 0
M  V30 2308 H 208.315 5.84306 4.86303 0
M  V30 2309 N 209.89 -1.43072 0.660911 0
M  V30 2310 C 211.306 -1.56169 0.329173 0
M  V30 2311 C 211.506 -1.64317 -1.16629 0
M  V30 2312 O 210.562 -1.60245 -1.95135 0
M  V30 2313 C 211.875 -2.81873 1.04729 0
M  V30 2314 C 213.423 -2.95627 1.02828 0
M  V30 2315 C 213.898 -4.24174 1.72744 0
M  V30 2316 N 215.389 -4.31055 1.69545 0
M  V30 2317 C 216.124 -5.29304 2.20511 0
M  V30 2318 N 215.62 -6.33786 2.79799 0
M  V30 2319 N 217.413 -5.21008 2.10966 0
M  V30 2320 H 209.564 -1.36027 1.63127 0
M  V30 2321 H 211.827 -0.653823 0.686454 0
M  V30 2322 H 211.533 -2.81942 2.10242 0
M  V30 2323 H 211.407 -3.72338 0.603702 0
M  V30 2324 H 213.794 -2.95094 -0.0184742 0
M  V30 2325 H 213.875 -2.06431 1.51063 0
M  V30 2326 H 213.519 -4.25467 2.7738 0
M  V30 2327 H 213.449 -5.1228 1.2197 0
M  V30 2328 H 215.94 -3.56174 1.26288 0
M  V30 2329 H 216.253 -7.05086 3.16344 0
M  V30 2330 H 214.598 -6.34387 2.83863 0
M  V30 2331 H 217.789 -4.38301 1.64347 0
M  V30 2332 H 217.962 -5.97416 2.50993 0
M  V30 2333 N 211.368 -0.403325 -1.52352 0
M  V30 2334 C 212.616 0.174003 -2.0135 0
M  V30 2335 C 212.937 1.46139 -1.29106 0
M  V30 2336 O 212.207 1.91448 -0.415253 0
M  V30 2337 H 210.787 0.0672911 -0.743963 0
M  V30 2338 H 213.449 -0.538235 -1.87321 0
M  V30 2339 H 212.545 0.374254 -3.09848 0
M  V30 2340 N 212.846 1.57033 -0.133567 0
M  V30 2341 C 214.257 1.82593 0.389464 0
M  V30 2342 C 214.608 1.05156 1.6564 0
M  V30 2343 O 213.733 0.292644 2.14412 0
M  V30 2344 C 214.328 3.31204 0.713377 0
M  V30 2345 C 212.887 3.57393 1.18098 0
M  V30 2346 C 212.034 2.76598 0.197126 0
M  V30 2347 H 214.985 1.54598 -0.358481 0
M  V30 2348 H 215.006 3.46627 1.56939 0
M  V30 2349 H 214.518 3.87537 -0.2089 0
M  V30 2350 H 212.619 3.06433 2.11966 0
M  V30 2351 H 212.732 4.65915 1.11624 0
M  V30 2352 H 211.096 2.45257 0.687088 0
M  V30 2353 H 211.879 3.35697 -0.718504 0
M  V30 2354 N 214.325 -0.140222 1.56975 0
M  V30 2355 C 215.55 -0.870414 1.88251 0
M  V30 2356 C 215.975 -1.73637 0.723312 0
M  V30 2357 O 215.333 -1.78329 -0.32689 0
M  V30 2358 C 215.381 -1.69737 3.18154 0
M  V30 2359 O 214.485 -2.80229 3.02565 0
M  V30 2360 H 213.826 -0.242025 0.61832 0
M  V30 2361 H 216.356 -0.128999 2.04193 0
M  V30 2362 H 216.366 -2.09099 3.50345 0
M  V30 2363 H 215.041 -1.06152 4.02125 0
M  V30 2364 H 213.618 -2.44224 2.81796 0
M  V30 2365 N 215.803 -1.52179 -0.40978 0
M  V30 2366 C 217.051 -1.65878 -1.15451 0
M  V30 2367 C 217.372 -0.390771 -1.91044 0
M  V30 2368 O 216.642 0.594323 -1.86667 0
M  V30 2369 H 215.222 -0.611405 -0.429177 0
M  V30 2370 H 217.884 -1.89219 -0.467134 0
M  V30 2371 H 216.98 -2.49954 -1.86894 0
M  V30 2372 N 217.281 0.66697 -1.42791 0
M  V30 2373 C 218.211 1.79218 -1.49677 0
M  V30 2374 C 219.192 1.66405 -0.352623 0
M  V30 2375 O 220.377 1.85708 -0.567993 0
M  V30 2376 C 217.507 3.17565 -1.40605 0
M  V30 2377 C 216.461 3.45124 -2.53127 0
M  V30 2378 C 215.787 4.83127 -2.29112 0
M  V30 2379 C 217.087 3.41236 -3.95418 0
M  V30 2380 H 218.781 1.73713 -2.43853 0
M  V30 2381 H 216.327 0.83432 -1.17367 0
M  V30 2382 H 218.28 3.96022 -1.44029 0
M  V30 2383 H 217.004 3.23767 -0.429271 0
M  V30 2384 H 215.663 2.69031 -2.49034 0
M  V30 2385 H 215.311 4.85988 -1.29709 0
M  V30 2386 H 215.011 5.02528 -3.04531 0
M  V30 2387 H 216.535 5.63859 -2.34297 0
M  V30 2388 H 217.949 4.09651 -4.01073 0
M  V30 2389 H 216.346 3.72173 -4.70752 0
M  V30 2390 H 217.416 2.39665 -4.21532 0
M  V30 2391 N 218.759 1.29093 0.90403 0
M  V30 2392 C 219.689 1.16401 2.02418 0
M  V30 2393 C 220.67 0.0593085 1.69997 0
M  V30 2394 O 221.855 0.238021 1.92736 0
M  V30 2395 C 218.985 0.835233 3.37107 0
M  V30 2396 C 217.939 1.89578 3.83724 0
M  V30 2397 C 217.265 1.42041 5.15489 0
M  V30 2398 C 218.565 3.30394 4.04521 0
M  V30 2399 H 220.259 2.10109 2.13295 0
M  V30 2400 H 217.805 1.01157 1.02486 0
M  V30 2401 H 219.758 0.733169 4.14973 0
M  V30 2402 H 218.482 -0.137543 3.2631 0
M  V30 2403 H 217.141 1.98715 3.08071 0
M  V30 2404 H 216.789 0.436426 5.01103 0
M  V30 2405 H 216.489 2.12964 5.4765 0
M  V30 2406 H 218.013 1.33176 5.959 0
M  V30 2407 H 219.427 3.24123 4.72882 0
M  V30 2408 H 217.824 3.99237 4.48029 0
M  V30 2409 H 218.894 3.73692 3.09002 0
M  V30 2410 N 220.237 -1.11381 1.11499 0
M  V30 2411 C 221.483 -1.83403 0.865512 0
M  V30 2412 C 221.816 -1.84459 -0.607329 0
M  V30 2413 O 221.091 -1.29811 -1.44842 0
M  V30 2414 C 221.374 -3.30552 1.42855 0
M  V30 2415 C 221.227 -3.37886 2.96906 0
M  V30 2416 C 222.546 -4.26643 1.08 0
M  V30 2417 H 219.665 -0.665879 0.31587 0
M  V30 2418 H 222.307 -1.30601 1.37998 0
M  V30 2419 H 220.457 -3.75648 0.990985 0
M  V30 2420 H 222.129 -3.01343 3.49271 0
M  V30 2421 H 220.372 -2.78088 3.32941 0
M  V30 2422 H 221.043 -4.41458 3.31389 0
M  V30 2423 H 223.519 -3.89729 1.45775 0
M  V30 2424 H 222.395 -5.27986 1.50072 0
M  V30 2425 H 222.656 -4.42099 -0.00915037 0
M  V30 2426 N 221.715 -0.905404 -1.28997 0
M  V30 2427 C 222.945 -0.549049 -1.99171 0
M  V30 2428 C 223.353 0.87203 -1.67906 0
M  V30 2429 O 222.696 1.58796 -0.923561 0
M  V30 2430 C 222.758 -0.668306 -3.53234 0
M  V30 2431 C 222.422 -2.0574 -4.08069 0
M  V30 2432 C 223.419 -3.0292 -4.22534 0
M  V30 2433 C 221.104 -2.36833 -4.42962 0
M  V30 2434 C 223.098 -4.29314 -4.71135 0
M  V30 2435 C 220.785 -3.63467 -4.91258 0
M  V30 2436 C 221.783 -4.59522 -5.053 0
M  V30 2437 O 221.471 -5.83907 -5.52546 0
M  V30 2438 H 221.203 -0.208784 -0.64295 0
M  V30 2439 H 223.757 -1.21836 -1.65363 0
M  V30 2440 H 221.987 0.0580547 -3.86656 0
M  V30 2441 H 223.676 -0.320273 -4.04634 0
M  V30 2442 H 224.442 -2.80216 -3.95859 0
M  V30 2443 H 220.321 -1.62824 -4.31288 0
M  V30 2444 H 223.865 -5.04293 -4.8201 0
M  V30 2445 H 219.762 -3.86 -5.17372 0
M  V30 2446 H 220.53 -5.86578 -5.70849 0
M  V30 2447 N 223.193 1.4272 -0.668489 0
M  V30 2448 C 224.125 2.2914 0.052613 0
M  V30 2449 C 225.138 1.43339 0.771857 0
M  V30 2450 O 226.327 1.67123 0.627067 0
M  V30 2451 C 223.427 3.20618 1.09804 0
M  V30 2452 C 222.6 4.35039 0.45389 0
M  V30 2453 C 221.659 5.07282 1.39825 0
M  V30 2454 O 220.685 5.62024 0.900978 0
M  V30 2455 N 221.887 5.12206 2.73176 0
M  V30 2456 H 224.652 2.91668 -0.689209 0
M  V30 2457 H 222.213 1.53577 -0.512422 0
M  V30 2458 H 224.205 3.65815 1.73094 0
M  V30 2459 H 222.775 2.59585 1.74167 0
M  V30 2460 H 221.995 3.92567 -0.358396 0
M  V30 2461 H 223.283 5.088 0.00486972 0
M  V30 2462 H 222.681 4.6913 3.16122 0
M  V30 2463 H 221.238 5.61069 3.31729 0
M  V30 2464 N 224.671 0.411399 1.52136 0
M  V30 2465 C 225.919 -0.163322 2.01439 0
M  V30 2466 C 226.24 -1.45453 1.29879 0
M  V30 2467 O 225.51 -1.91225 0.4254 0
M  V30 2468 H 224.09 -0.0633447 0.744309 0
M  V30 2469 H 226.752 0.548161 1.87033 0
M  V30 2470 H 225.848 -0.357817 3.10042 0
M  V30 2471 N 226.149 -1.5696 0.141893 0
M  V30 2472 C 227.096 -2.16501 -0.799737 0
M  V30 2473 C 228.066 -1.09643 -1.24771 0
M  V30 2474 O 229.251 -1.3766 -1.32115 0
M  V30 2475 C 226.391 -2.78679 -2.03549 0
M  V30 2476 C 225.504 -3.99914 -1.6338 0
M  V30 2477 C 224.639 -4.50106 -2.82096 0
M  V30 2478 C 223.678 -5.63819 -2.38275 0
M  V30 2479 N 222.815 -6.08651 -3.49983 0
M  V30 2480 H 227.655 -2.96632 -0.285179 0
M  V30 2481 H 225.192 -1.46533 -0.129053 0
M  V30 2482 H 227.15 -3.1287 -2.75986 0
M  V30 2483 H 225.78 -2.012 -2.52425 0
M  V30 2484 H 224.832 -3.71735 -0.807279 0
M  V30 2485 H 226.144 -4.82311 -1.27192 0
M  V30 2486 H 225.298 -4.86325 -3.62729 0
M  V30 2487 H 224.037 -3.66706 -3.21525 0
M  V30 2488 H 223.042 -5.2718 -1.56081 0
M  V30 2489 H 224.267 -6.49 -1.99938 0
M  V30 2490 H 222.213 -5.28188 -3.89042 0
M  V30 2491 H 222.13 -6.85961 -3.17794 0
M  V30 2492 H 223.398 -6.49515 -4.30988 0
M  V30 2493 N 227.627 0.131896 -1.57047 0
M  V30 2494 C 228.875 0.840269 -1.83804 0
M  V30 2495 C 229.196 1.81017 -0.72512 0
M  V30 2496 O 228.466 1.94272 0.251995 0
M  V30 2497 H 227.046 0.313294 -0.678127 0
M  V30 2498 H 229.708 0.122294 -1.94516 0
M  V30 2499 H 228.804 1.39335 -2.79271 0
M  V30 2500 N 229.106 1.52395 0.401703 0
M  V30 2501 C 230.053 1.76268 1.48991 0
M  V30 2502 C 231.023 0.605386 1.54675 0
M  V30 2503 O 232.208 0.843742 1.7113 0
M  V30 2504 C 229.348 1.92592 2.86361 0
M  V30 2505 C 228.461 3.20259 2.89928 0
M  V30 2506 C 227.596 3.26972 4.18644 0
M  V30 2507 C 226.635 4.48812 4.16214 0
M  V30 2508 N 225.772 4.52877 5.36514 0
M  V30 2509 H 230.612 2.6914 1.27935 0
M  V30 2510 H 228.149 1.33355 0.620871 0
M  V30 2511 H 230.107 2.0004 3.66115 0
M  V30 2512 H 228.737 1.03093 3.05895 0
M  V30 2513 H 227.789 3.21945 2.02621 0
M  V30 2514 H 229.101 4.10056 2.83999 0
M  V30 2515 H 228.255 3.33533 5.06794 0
M  V30 2516 H 226.994 2.35126 4.27278 0
M  V30 2517 H 225.999 4.4239 3.26453 0
M  V30 2518 H 227.224 5.41961 4.09213 0
M  V30 2519 H 225.17 3.63917 5.45802 0
M  V30 2520 H 225.087 5.36529 5.32609 0
M  V30 2521 H 226.355 4.63676 6.26597 0
M  V30 2522 N 230.584 -0.659388 1.43143 0
M  V30 2523 C 231.831 -1.41935 1.44433 0
M  V30 2524 C 232.159 -1.94387 0.0663522 0
M  V30 2525 O 231.414 -1.72314 -0.927706 0
M  V30 2526 C 231.713 -2.62206 2.42864 0
M  V30 2527 C 231.379 -2.28208 3.88886 0
M  V30 2528 C 230.041 -2.18647 4.28657 0
M  V30 2529 C 232.393 -2.00887 4.8093 0
M  V30 2530 C 229.721 -1.79914 5.58433 0
M  V30 2531 C 232.073 -1.63653 6.11065 0
M  V30 2532 C 230.737 -1.52614 6.49819 0
M  V30 2533 H 230.007 -0.519376 0.528517 0
M  V30 2534 H 232.654 -0.750453 1.76183 0
M  V30 2535 H 230.959 -3.34199 2.04495 0
M  V30 2536 H 232.656 -3.2041 2.41119 0
M  V30 2537 H 229.246 -2.36557 3.57406 0
M  V30 2538 H 233.43 -2.07198 4.5098 0
M  V30 2539 H 228.686 -1.69948 5.87305 0
M  V30 2540 H 232.86 -1.41543 6.81864 0
M  V30 2541 H 230.487 -1.22371 7.50286 0
M  V30 2542 N 232.062 -1.29571 -0.897171 0
M  V30 2543 C 233.025 -1.14913 -1.98312 0
M  V30 2544 C 234.025 -0.0838629 -1.60581 0
M  V30 2545 O 235.215 -0.331006 -1.71026 0
M  V30 2546 C 232.347 -0.757835 -3.3237 0
M  V30 2547 H 233.54 -2.11377 -2.12743 0
M  V30 2548 H 231.093 -1.12793 -1.08201 0
M  V30 2549 H 231.828 0.206837 -3.2364 0
M  V30 2550 H 231.613 -1.52755 -3.61121 0
M  V30 2551 H 233.103 -0.678408 -4.12053 0
M  V30 2552 N 233.54 1.10788 -1.12088 0
M  V30 2553 C 234.789 1.82036 -0.868659 0
M  V30 2554 C 235.102 1.85929 0.607426 0
M  V30 2555 O 236.308 2.53346 0.97613 0
M  V30 2556 C 234.764 3.26951 -1.50435 0
M  V30 2557 C 234.372 3.31367 -3.01496 0
M  V30 2558 C 236.116 4.03053 -1.33225 0
M  V30 2559 C 234.023 4.7072 -3.58017 0
M  V30 2560 H 232.953 0.682108 -0.321318 0
M  V30 2561 H 235.604 1.24618 -1.34694 0
M  V30 2562 H 233.986 3.84343 -0.953735 0
M  V30 2563 H 235.16 2.83819 -3.6302 0
M  V30 2564 H 233.475 2.6875 -3.18061 0
M  V30 2565 H 236.072 5.05981 -1.72878 0
M  V30 2566 H 236.415 4.15387 -0.275529 0
M  V30 2567 H 236.948 3.52066 -1.85188 0
M  V30 2568 H 233.687 4.63585 -4.63432 0
M  V30 2569 H 233.207 5.1865 -3.01268 0
M  V30 2570 H 234.886 5.39685 -3.56859 0
M  V30 2571 N 235.018 0.912232 1.28515 0
M  V30 2572 C 236.434 0.610159 1.47476 0
M  V30 2573 C 236.634 -0.844955 1.82928 0
M  V30 2574 O 235.69 -1.62416 1.93332 0
M  V30 2575 C 237.003 1.54675 2.57868 0
M  V30 2576 C 238.551 1.55331 2.71738 0
M  V30 2577 C 239.026 2.47649 3.85272 0
M  V30 2578 N 240.517 2.45767 3.92623 0
M  V30 2579 C 241.252 3.13896 4.79851 0
M  V30 2580 N 240.748 3.9135 5.71679 0
M  V30 2581 N 242.541 3.02991 4.73448 0
M  V30 2582 H 234.692 1.85318 1.03783 0
M  V30 2583 H 236.955 0.794777 0.516753 0
M  V30 2584 H 236.661 2.5841 2.38574 0
M  V30 2585 H 236.535 1.27671 3.54937 0
M  V30 2586 H 238.922 0.52335 2.90422 0
M  V30 2587 H 239.003 1.86378 1.75205 0
M  V30 2588 H 238.647 3.50745 3.67342 0
M  V30 2589 H 238.577 2.13904 4.81199 0
M  V30 2590 H 241.068 1.89503 3.26951 0
M  V30 2591 H 241.381 4.40359 6.35062 0
M  V30 2592 H 239.726 3.95455 5.71524 0
M  V30 2593 H 242.917 2.41987 4.007 0
M  V30 2594 H 243.09 3.5636 5.41213 0
M  V30 2595 N 236.496 -1.42363 0.676048 0
M  V30 2596 C 237.907 -1.84649 0.275948 0
M  V30 2597 C 238.258 -1.56588 -1.18214 0
M  V30 2598 O 237.383 -1.02634 -1.90513 0
M  V30 2599 C 237.978 -3.35178 0.494053 0
M  V30 2600 C 236.537 -3.76109 0.148061 0
M  V30 2601 C 235.684 -2.65931 0.785891 0
M  V30 2602 H 238.635 -1.32192 0.878121 0
M  V30 2603 H 238.656 -3.79655 -0.25343 0
M  V30 2604 H 238.168 -3.55571 1.55535 0
M  V30 2605 H 236.269 -3.61323 -0.909742 0
M  V30 2606 H 236.382 -4.7546 0.589454 0
M  V30 2607 H 234.746 -2.53773 0.217113 0
M  V30 2608 H 235.529 -2.89146 1.85067 0
M  V30 2609 N 237.974 -0.419461 -1.51915 0
M  V30 2610 C 239.251 0.211999 -1.94448 0
M  V30 2611 C 239.631 1.61703 -1.35703 0
M  V30 2612 O 238.979 2.22102 -0.536931 0
M  V30 2613 C 239.189 0.207872 -3.4838 0
M  V30 2614 C 240.537 0.422192 -4.22496 0
M  V30 2615 O 241.561 0.286778 -3.55044 0
M  V30 2616 O 240.42 0.690009 -5.42126 0
M  V30 2617 H 237.514 0.139586 -0.815135 0
M  V30 2618 H 240.06 -0.476151 -1.62883 0
M  V30 2619 H 238.832 -0.775102 -3.83546 0
M  V30 2620 H 238.455 0.939688 -3.86336 0
M  V30 2621 N 239.452 1.56882 -0.150215 0
M  V30 2622 C 240.399 2.16922 0.788244 0
M  V30 2623 C 241.369 1.10303 1.24187 0
M  V30 2624 O 242.554 1.38359 1.31383 0
M  V30 2625 C 239.694 2.79754 2.02068 0
M  V30 2626 C 238.807 4.00775 1.61257 0
M  V30 2627 C 237.942 4.51595 2.79705 0
M  V30 2628 C 236.981 5.65074 2.35282 0
M  V30 2629 N 236.118 6.10499 3.4675 0
M  V30 2630 H 240.958 2.96779 0.269444 0
M  V30 2631 H 238.495 1.46599 0.12128 0
M  V30 2632 H 240.453 3.14329 2.74323 0
M  V30 2633 H 239.083 2.02536 2.51354 0
M  V30 2634 H 238.135 3.72158 0.787553 0
M  V30 2635 H 239.447 4.82978 1.24633 0
M  V30 2636 H 238.601 4.88242 3.60145 0
M  V30 2637 H 237.34 3.68406 3.19576 0
M  V30 2638 H 236.345 5.28 1.53283 0
M  V30 2639 H 237.57 6.50052 1.96493 0
M  V30 2640 H 235.516 5.30243 3.86236 0
M  V30 2641 H 235.433 6.87637 3.14152 0
M  V30 2642 H 236.701 6.51791 4.27537 0
M  V30 2643 N 240.93 -0.123565 1.57115 0
M  V30 2644 C 241.877 -1.15177 2.00007 0
M  V30 2645 C 242.847 -1.41403 0.871454 0
M  V30 2646 O 244.032 -1.53346 1.13533 0
M  V30 2647 C 241.172 -2.47436 2.40561 0
M  V30 2648 C 240.285 -2.28184 3.66819 0
M  V30 2649 C 239.42 -3.53641 3.96373 0
M  V30 2650 C 238.459 -3.29528 5.15827 0
M  V30 2651 N 237.596 -4.47175 5.41275 0
M  V30 2652 H 242.436 -0.779008 2.87638 0
M  V30 2653 H 239.973 -0.373166 1.42288 0
M  V30 2654 H 241.931 -3.24584 2.62109 0
M  V30 2655 H 240.561 -2.82614 1.55978 0
M  V30 2656 H 239.613 -1.41976 3.52912 0
M  V30 2657 H 240.925 -2.0634 4.5412 0
M  V30 2658 H 240.079 -4.39209 4.18545 0
M  V30 2659 H 238.818 -3.78512 3.07538 0
M  V30 2660 H 237.823 -2.42349 4.93505 0
M  V30 2661 H 239.048 -3.06031 6.06236 0
M  V30 2662 H 236.994 -4.72175 4.55397 0
M  V30 2663 H 236.911 -4.28419 6.22891 0
M  V30 2664 H 238.179 -5.3389 5.67963 0
M  V30 2665 N 242.408 -1.52605 -0.393616 0
M  V30 2666 C 243.633 -1.71592 -1.16495 0
M  V30 2667 C 244.058 -0.43133 -1.83088 0
M  V30 2668 O 243.416 0.612523 -1.7064 0
M  V30 2669 C 243.464 -2.86318 -2.19213 0
M  V30 2670 O 242.568 -2.52969 -3.257 0
M  V30 2671 H 241.909 -0.570734 -0.33935 0
M  V30 2672 H 244.439 -1.99377 -0.459324 0
M  V30 2673 H 244.449 -3.1168 -2.63286 0
M  V30 2674 H 243.124 -3.79511 -1.7013 0
M  V30 2675 H 241.701 -2.38332 -2.86797 0
M  V30 2676 N 243.887 0.651787 -1.4349 0
M  V30 2677 C 244.835 1.78586 -1.49029 0
M  V30 2678 C 245.829 1.65448 -0.363767 0
M  V30 2679 O 247.035 1.71777 -0.537821 0
M  V30 2680 H 243.41 0.589236 -0.467231 0
M  V30 2681 H 245.381 1.71035 -2.44519 0
M  V30 2682 C 244.13 3.16851 -1.43181 0
M  V30 2683 H 243.453 3.27598 -2.29171 0
M  V30 2684 H 244.893 3.96156 -1.51118 0
M  V30 2685 C 243.352 3.36568 -0.149616 0
M  V30 2686 O 243.882 3.93885 0.788509 0
M  V30 2687 N 242.088 2.90539 -0.0593484 0
M  V30 2688 H 241.635 2.4408 -0.823575 0
M  V30 2689 H 241.593 3.04108 0.797853 0
M  V30 2690 N 245.365 1.30045 0.890287 0
M  V30 2691 C 246.776 1.16738 1.45702 0
M  V30 2692 C 247.127 -0.233939 1.948 0
M  V30 2693 O 246.252 -1.13021 1.84541 0
M  V30 2694 C 246.847 2.11313 2.64825 0
M  V30 2695 C 245.406 2.02001 3.17604 0
M  V30 2696 C 244.553 2.01699 1.90296 0
M  V30 2697 H 247.504 1.42392 0.700726 0
M  V30 2698 H 247.525 1.69086 3.40867 0
M  V30 2699 H 247.037 3.13294 2.2906 0
M  V30 2700 H 245.138 1.03142 3.5804 0
M  V30 2701 H 245.251 2.90128 3.81264 0
M  V30 2702 H 243.615 1.46427 2.08402 0
M  V30 2703 H 244.398 3.05402 1.56795 0
M  V30 2704 N 246.843 -1.10192 1.12674 0
M  V30 2705 C 248.092 -1.81573 0.8783 0
M  V30 2706 C 248.405 -1.86249 -0.597557 0
M  V30 2707 O 249.611 -2.5386 -0.962681 0
M  V30 2708 C 248.067 -3.26149 1.52167 0
M  V30 2709 C 247.675 -3.29763 3.03249 0
M  V30 2710 C 249.419 -4.0234 1.3536 0
M  V30 2711 C 247.326 -4.68815 3.60508 0
M  V30 2712 H 246.256 -0.680394 0.324931 0
M  V30 2713 H 248.907 -1.23902 1.35353 0
M  V30 2714 H 247.289 -3.83832 0.974104 0
M  V30 2715 H 248.463 -2.8189 3.6452 0
M  V30 2716 H 246.778 -2.67059 3.19481 0
M  V30 2717 H 249.375 -5.05058 1.75559 0
M  V30 2718 H 249.718 -4.15235 0.297554 0
M  V30 2719 H 250.251 -3.51079 1.87052 0
M  V30 2720 H 246.99 -4.61121 4.65884 0
M  V30 2721 H 246.51 -5.17045 3.04014 0
M  V30 2722 H 248.189 -5.37785 3.59717 0
M  V30 2723 N 248.321 -0.919034 -1.28029 0
M  V30 2724 C 249.57 -0.550802 -1.94034 0
M  V30 2725 C 249.883 0.910877 -1.73096 0
M  V30 2726 O 251.089 1.3875 -2.33368 0
M  V30 2727 C 249.545 -0.934249 -3.47563 0
M  V30 2728 C 249.153 -2.41602 -3.7727 0
M  V30 2729 C 250.897 -0.636854 -4.19696 0
M  V30 2730 C 248.804 -2.73932 -5.24133 0
M  V30 2731 H 247.734 -0.202273 -0.726362 0
M  V30 2732 H 250.385 -1.11867 -1.45458 0
M  V30 2733 H 248.767 -0.295115 -3.94899 0
M  V30 2734 H 249.941 -3.10233 -3.40723 0
M  V30 2735 H 248.256 -2.68441 -3.18321 0
M  V30 2736 H 250.853 -0.855005 -5.2782 0
M  V30 2737 H 251.196 0.425575 -4.14119 0
M  V30 2738 H 251.729 -1.23469 -3.78154 0
M  V30 2739 H 248.468 -3.79049 -5.34792 0
M  V30 2740 H 247.988 -2.09942 -5.61858 0
M  V30 2741 H 249.667 -2.61215 -5.91925 0
M  V30 2742 N 249.799 1.42003 -0.683588 0
M  V30 2743 C 251.215 1.55625 -0.353976 0
M  V30 2744 C 251.415 1.66151 1.14 0
M  V30 2745 O 250.471 1.63329 1.92561 0
M  V30 2746 C 251.784 2.80171 -1.092 0
M  V30 2747 C 253.332 2.93954 -1.07518 0
M  V30 2748 C 253.807 4.21372 -1.79471 0
M  V30 2749 N 255.298 4.28303 -1.76381 0
M  V30 2750 C 256.033 5.25729 -2.28904 0
M  V30 2751 N 255.529 6.29254 -2.89846 0
M  V30 2752 N 257.322 5.17586 -2.19228 0
M  V30 2753 H 249.473 1.33415 -1.6527 0
M  V30 2754 H 251.736 0.64282 -0.696769 0
M  V30 2755 H 251.442 2.78561 -2.14701 0
M  V30 2756 H 251.316 3.7133 -0.662862 0
M  V30 2757 H 253.703 2.95086 -0.028475 0
M  V30 2758 H 253.784 2.04002 -1.54328 0
M  V30 2759 H 253.428 4.21001 -2.84114 0
M  V30 2760 H 253.358 5.10275 -1.30104 0
M  V30 2761 H 255.849 3.54119 -1.31939 0
M  V30 2762 H 256.162 6.99964 -3.27522 0
M  V30 2763 H 254.507 6.29791 -2.93919 0
M  V30 2764 H 257.698 4.35631 -1.71299 0
M  V30 2765 H 257.871 5.93348 -2.60466 0
M  V30 2766 N 251.277 0.427512 1.51691 0
M  V30 2767 C 252.505 -0.141191 2.06418 0
M  V30 2768 C 252.92 -1.37303 1.29589 0
M  V30 2769 O 252.277 -1.79059 0.352732 0
M  V30 2770 C 252.328 -0.473266 3.58389 0
M  V30 2771 O 252.049 0.709673 4.32314 0
M  V30 2772 C 253.55 -1.09371 4.29596 0
M  V30 2773 H 250.77 -0.0122747 0.670888 0
M  V30 2774 H 253.314 0.603764 1.95384 0
M  V30 2775 H 251.469 -1.16812 3.69369 0
M  V30 2776 H 251.883 0.42807 5.2275 0
M  V30 2777 H 253.357 -1.27613 5.37046 0
M  V30 2778 H 253.834 -2.072 3.87253 0
M  V30 2779 H 254.44 -0.43853 4.23033 0
M  V30 2780 N 252.755 -1.56801 0.158532 0
M  V30 2781 C 254.001 -1.96781 -0.490405 0
M  V30 2782 C 254.334 -1.04397 -1.63753 0
M  V30 2783 O 253.609 -0.0885805 -1.94298 0
M  V30 2784 C 253.892 -3.4635 -0.985594 0
M  V30 2785 C 253.745 -4.49512 0.160824 0
M  V30 2786 C 255.064 -3.98697 -1.86355 0
M  V30 2787 H 252.183 -0.715482 -0.176788 0
M  V30 2788 H 254.825 -1.88451 0.242088 0
M  V30 2789 H 252.975 -3.53579 -1.60978 0
M  V30 2790 H 254.647 -4.54353 0.797537 0
M  V30 2791 H 252.89 -4.26013 0.818256 0
M  V30 2792 H 253.561 -5.51531 -0.227569 0
M  V30 2793 H 256.037 -3.94019 -1.33746 0
M  V30 2794 H 254.913 -5.03792 -2.17909 0
M  V30 2795 H 255.174 -3.41744 -2.8047 0
M  V30 2796 N 254.233 0.115231 -1.57178 0
M  V30 2797 C 255.18 1.14115 -2.00615 0
M  V30 2798 C 256.15 1.40939 -0.878941 0
M  V30 2799 O 257.335 1.52741 -1.14345 0
M  V30 2800 C 254.475 2.46156 -2.4187 0
M  V30 2801 C 253.588 2.26236 -3.68024 0
M  V30 2802 C 252.723 3.51534 -3.98243 0
M  V30 2803 C 251.762 3.26787 -5.17568 0
M  V30 2804 N 250.899 4.44298 -5.43639 0
M  V30 2805 H 255.739 0.763743 -2.88047 0
M  V30 2806 H 253.276 0.365615 -1.42484 0
M  V30 2807 H 255.234 3.23189 -2.63827 0
M  V30 2808 H 253.864 2.81783 -1.57475 0
M  V30 2809 H 252.916 1.40102 -3.5366 0
M  V30 2810 H 254.228 2.03929 -4.55208 0
M  V30 2811 H 253.382 4.36984 -4.20868 0
M  V30 2812 H 252.121 3.76876 -3.09541 0
M  V30 2813 H 251.126 2.39729 -4.94783 0
M  V30 2814 H 252.351 3.02812 -6.0785 0
M  V30 2815 H 250.297 4.69754 -4.57895 0
M  V30 2816 H 250.214 4.25109 -6.25154 0
M  V30 2817 H 251.482 5.3087 -5.70786 0
M  V30 2818 N 255.711 1.52812 0.385517 0
M  V30 2819 C 256.936 1.72207 1.15583 0
M  V30 2820 C 257.361 0.441034 1.82857 0
M  V30 2821 O 256.719 -0.603465 1.70962 0
M  V30 2822 C 256.767 2.87476 2.17692 0
M  V30 2823 O 255.871 2.54693 3.24354 0
M  V30 2824 H 255.212 0.572526 0.336319 0
M  V30 2825 H 257.742 1.99618 0.448744 0
M  V30 2826 H 257.752 3.13072 2.6163 0
M  V30 2827 H 256.427 3.80408 1.68115 0
M  V30 2828 H 255.004 2.3985 2.85529 0
M  V30 2829 N 257.189 -0.644168 1.43834 0
M  V30 2830 C 258.435 -1.40603 1.46146 0
M  V30 2831 C 258.768 -1.93997 0.0887717 0
M  V30 2832 O 258.043 -1.72854 -0.891724 0
M  V30 2833 C 258.326 -2.58086 2.51124 0
M  V30 2834 C 258.179 -2.10126 3.97702 0
M  V30 2835 C 259.498 -3.60291 2.52742 0
M  V30 2836 H 256.617 -0.509905 0.532134 0
M  V30 2837 H 259.259 -0.729502 1.75437 0
M  V30 2838 H 257.409 -3.15801 2.26278 0
M  V30 2839 H 259.081 -1.57342 4.33637 0
M  V30 2840 H 257.324 -1.41419 4.10101 0
M  V30 2841 H 257.995 -2.94649 4.66783 0
M  V30 2842 H 260.471 -3.12352 2.7491 0
M  V30 2843 H 259.347 -4.40032 3.28121 0
M  V30 2844 H 259.608 -4.1349 1.56455 0
M  V30 2845 N 258.668 -1.30515 -0.883378 0
M  V30 2846 C 259.916 -1.19194 -1.63209 0
M  V30 2847 C 260.237 0.253205 -1.93349 0
M  V30 2848 O 259.507 1.17025 -1.57105 0
M  V30 2849 H 258.087 -0.438148 -0.605009 0
M  V30 2850 H 260.749 -1.63663 -1.05832 0
M  V30 2851 H 259.845 -1.75396 -2.58153 0
M  V30 2852 N 260.146 1.09593 -1.13257 0
M  V30 2853 C 261.079 2.15451 -0.752061 0
M  V30 2854 C 262.057 1.60493 0.260913 0
M  V30 2855 O 263.241 1.8788 0.152819 0
M  V30 2856 C 260.368 3.38506 -0.114594 0
M  V30 2857 C 259.414 4.12183 -1.09579 0
M  V30 2858 S 260.247 4.6661 -2.62745 0
M  V30 2859 C 261.403 5.92966 -2.00354 0
M  V30 2860 H 261.636 2.47395 -1.64872 0
M  V30 2861 H 259.169 1.21515 -0.952545 0
M  V30 2862 H 261.127 4.09757 0.246808 0
M  V30 2863 H 259.788 3.04784 0.759309 0
M  V30 2864 H 258.981 5.00445 -0.597545 0
M  V30 2865 H 258.583 3.46785 -1.40057 0
M  V30 2866 H 260.875 6.63882 -1.35156 0
M  V30 2867 H 261.818 6.47467 -2.86691 0
M  V30 2868 H 262.226 5.45405 -1.4558 0
M  V30 2869 N 261.624 0.925811 1.2754 0
M  V30 2870 C 262.873 0.561084 1.93739 0
M  V30 2871 C 263.186 -0.901685 1.73577 0
M  V30 2872 O 264.392 -1.37511 2.34101 0
M  V30 2873 C 262.848 0.952668 3.47062 0
M  V30 2874 C 262.456 2.43599 3.75983 0
M  V30 2875 C 264.2 0.659103 4.19352 0
M  V30 2876 C 262.107 2.76707 5.22673 0
M  V30 2877 H 261.037 0.206122 0.725279 0
M  V30 2878 H 263.688 1.12637 1.44863 0
M  V30 2879 H 262.07 0.316053 3.94737 0
M  V30 2880 H 263.244 3.12035 3.39073 0
M  V30 2881 H 261.559 2.70125 3.16893 0
M  V30 2882 H 264.156 0.882985 5.27359 0
M  V30 2883 H 264.499 -0.403607 4.14339 0
M  V30 2884 H 265.032 1.25473 3.77494 0
M  V30 2885 H 261.771 3.8188 5.32774 0
M  V30 2886 H 261.291 2.12919 5.60737 0
M  V30 2887 H 262.97 2.6435 5.90532 0
M  V30 2888 N 263.102 -1.41638 0.69111 0
M  V30 2889 C 264.065 -2.29178 0.0319786 0
M  V30 2890 C 265.065 -1.44153 -0.712496 0
M  V30 2891 O 266.255 -1.65354 -0.548053 0
M  V30 2892 C 263.387 -3.26952 -0.965161 0
M  V30 2893 H 264.58 -2.88959 0.802681 0
M  V30 2894 H 262.133 -1.4955 0.454356 0
M  V30 2895 H 262.868 -2.72142 -1.76378 0
M  V30 2896 H 262.653 -3.89685 -0.434522 0
M  V30 2897 H 264.143 -3.92561 -1.42428 0
M  V30 2898 N 264.58 -0.43555 -1.51462 0
M  V30 2899 C 265.828 0.131254 -2.01673 0
M  V30 2900 C 266.149 1.43368 -1.32177 0
M  V30 2901 O 265.419 1.90524 -0.455769 0
M  V30 2902 H 263.999 0.0514954 -0.745223 0
M  V30 2903 H 266.661 -0.577847 -1.86137 0
M  V30 2904 H 265.757 0.308446 -3.10572 0
M  V30 2905 N 266.058 1.56714 -0.166846 0
M  V30 2906 C 267.306 1.96358 0.478305 0
M  V30 2907 C 267.627 1.0537 1.6408 0
M  V30 2908 O 266.897 0.119154 1.95537 0
M  V30 2909 H 265.477 0.725065 0.179692 0
M  V30 2910 H 268.139 1.93329 -0.246985 0
M  V30 2911 H 267.235 3.00547 0.841292 0
M  V30 2912 N 267.536 -0.106894 1.57237 0
M  V30 2913 C 268.764 -0.826389 1.8968 0
M  V30 2914 C 269.179 -1.72856 0.759353 0
M  V30 2915 O 268.536 -1.80503 -0.269263 0
M  V30 2916 C 268.587 -1.64967 3.21665 0
M  V30 2917 O 268.308 -0.783804 4.31031 0
M  V30 2918 C 269.809 -2.47326 3.67892 0
M  V30 2919 H 267.029 -0.236927 0.627779 0
M  V30 2920 H 269.573 -0.0876593 2.04312 0
M  V30 2921 H 267.728 -2.34103 3.08666 0
M  V30 2922 H 268.142 -1.35284 5.06753 0
M  V30 2923 H 269.616 -3.00604 4.6297 0
M  V30 2924 H 270.093 -3.25247 2.95146 0
M  V30 2925 H 270.699 -1.83411 3.83719 0
M  V30 2926 N 269.014 -1.53014 -0.377408 0
M  V30 2927 C 270.262 -1.6829 -1.11906 0
M  V30 2928 C 270.583 -0.431206 -1.90173 0
M  V30 2929 O 269.853 0.554595 -1.87886 0
M  V30 2930 H 268.433 -0.620371 -0.416112 0
M  V30 2931 H 271.095 -1.90167 -0.426893 0
M  V30 2932 H 270.191 -2.53862 -1.8155 0
M  V30 2933 N 270.492 0.636531 -1.44174 0
M  V30 2934 C 271.741 1.39213 -1.45954 0
M  V30 2935 C 272.054 1.95374 -0.0939119 0
M  V30 2936 O 273.26 2.71498 0.0107767 0
M  V30 2937 C 271.716 2.52025 -2.56927 0
M  V30 2938 C 271.324 2.024 -3.99673 0
M  V30 2939 C 273.068 3.29269 -2.67922 0
M  V30 2940 C 270.975 3.12521 -5.0208 0
M  V30 2941 H 269.905 0.523132 -0.542999 0
M  V30 2942 H 272.556 0.685349 -1.70221 0
M  V30 2943 H 270.938 3.25253 -2.25891 0
M  V30 2944 H 272.112 1.36073 -4.40251 0
M  V30 2945 H 270.427 1.37987 -3.92872 0
M  V30 2946 H 273.024 4.11352 -3.41605 0
M  V30 2947 H 273.367 3.78397 -1.73555 0
M  V30 2948 H 273.9 2.63129 -2.98342 0
M  V30 2949 H 270.639 2.68343 -5.98057 0
M  V30 2950 H 270.159 3.77507 -4.66099 0
M  V30 2951 H 271.838 3.77385 -5.25538 0
M  V30 2952 N 271.97 1.30982 0.876444 0
M  V30 2953 C 273.198 1.23242 1.6619 0
M  V30 2954 C 273.613 -0.203345 1.87702 0
M  V30 2955 O 272.97 -1.13317 1.43057 0
M  V30 2956 C 273.021 1.96623 3.03351 0
M  V30 2957 O 272.742 3.34594 2.82804 0
M  V30 2958 C 274.243 1.95644 3.97792 0
M  V30 2959 H 271.463 0.426126 0.518322 0
M  V30 2960 H 274.007 1.7275 1.09442 0
M  V30 2961 H 272.162 1.50892 3.56806 0
M  V30 2962 H 272.576 3.71873 3.69879 0
M  V30 2963 H 274.05 2.51511 4.91372 0
M  V30 2964 H 274.527 0.937395 4.2908 0
M  V30 2965 H 275.133 2.41225 3.50272 0
M  V30 2966 N 273.449 -1.08991 1.13837 0
M  V30 2967 C 274.86 -1.62746 0.914917 0
M  V30 2968 C 275.211 -1.88403 -0.547594 0
M  V30 2969 O 274.336 -1.63706 -1.41525 0
M  V30 2970 C 274.931 -2.95662 1.65437 0
M  V30 2971 C 273.49 -3.46225 1.47666 0
M  V30 2972 C 272.637 -2.20562 1.6807 0
M  V30 2973 H 275.588 -0.922946 1.29102 0
M  V30 2974 H 275.609 -3.63825 1.11407 0
M  V30 2975 H 275.121 -2.76956 2.71877 0
M  V30 2976 H 273.222 -3.70046 0.435478 0
M  V30 2977 H 273.335 -4.23368 2.24268 0
M  V30 2978 H 271.699 -2.29439 1.10589 0
M  V30 2979 H 272.482 -2.0437 2.7584 0
M  V30 2980 N 274.927 -0.932562 -1.27047 0
M  V30 2981 C 275.86 -0.379774 -2.25018 0
M  V30 2982 C 276.838 0.526587 -1.53837 0
M  V30 2983 O 278.022 0.465992 -1.82649 0
M  V30 2984 C 275.149 0.455187 -3.35627 0
M  V30 2985 C 274.195 -0.388428 -4.24728 0
M  V30 2986 S 275.028 -1.80701 -5.04091 0
M  V30 2987 C 276.184 -0.979865 -6.18182 0
M  V30 2988 H 276.417 -1.2101 -2.71558 0
M  V30 2989 H 273.95 -0.735078 -1.35779 0
M  V30 2990 H 275.908 0.931052 -3.99802 0
M  V30 2991 H 274.569 1.26009 -2.87716 0
M  V30 2992 H 273.762 0.25089 -5.03375 0
M  V30 2993 H 273.364 -0.798649 -3.65373 0
M  V30 2994 H 275.656 -0.218115 -6.77149 0
M  V30 2995 H 276.599 -1.73951 -6.86401 0
M  V30 2996 H 277.007 -0.51973 -5.62102 0
M  V30 2997 N 276.405 1.4127 -0.698611 0
M  V30 2998 C 277.335 2.33447 -0.049629 0
M  V30 2999 C 278.316 1.51982 0.763898 0
M  V30 3000 O 279.501 1.80509 0.716257 0
M  V30 3001 C 276.631 3.35828 0.885267 0
M  V30 3002 C 275.585 4.27627 0.178613 0
M  V30 3003 C 274.911 5.20406 1.22807 0
M  V30 3004 C 276.211 5.13459 -0.956933 0
M  V30 3005 H 277.905 2.87966 -0.81951 0
M  V30 3006 H 275.451 1.38461 -0.395538 0
M  V30 3007 H 277.404 3.9924 1.34854 0
M  V30 3008 H 276.128 2.79666 1.68685 0
M  V30 3009 H 274.787 3.65643 -0.26466 0
M  V30 3010 H 274.435 4.60558 2.02226 0
M  V30 3011 H 274.135 5.82661 0.760239 0
M  V30 3012 H 275.659 5.86695 1.69179 0
M  V30 3013 H 277.073 5.70421 -0.573805 0
M  V30 3014 H 275.47 5.8467 -1.35205 0
M  V30 3015 H 276.54 4.50443 -1.79524 0
M  V30 3016 N 277.883 0.443576 1.51229 0
M  V30 3017 C 278.815 -0.400608 2.25672 0
M  V30 3018 C 279.828 -0.980945 1.29928 0
M  V30 3019 O 281.017 -0.874024 1.55638 0
M  V30 3020 C 278.117 -1.57304 3.00181 0
M  V30 3021 C 277.29 -1.11046 4.23069 0
M  V30 3022 C 276.349 -2.15374 4.80105 0
M  V30 3023 O 275.375 -1.74554 5.41774 0
M  V30 3024 N 276.577 -3.47922 4.64683 0
M  V30 3025 H 279.342 0.23745 2.98758 0
M  V30 3026 H 276.903 0.272809 1.59585 0
M  V30 3027 H 278.895 -2.26733 3.35223 0
M  V30 3028 H 277.465 -2.11632 2.30066 0
M  V30 3029 H 276.685 -0.243019 3.9345 0
M  V30 3030 H 277.973 -0.778888 5.02803 0
M  V30 3031 H 277.371 -3.83815 4.15575 0
M  V30 3032 H 275.928 -4.13228 5.0407 0
M  V30 3033 N 279.361 -1.56624 0.175154 0
M  V30 3034 C 280.607 -1.9729 -0.469506 0
M  V30 3035 C 280.94 -1.06128 -1.62636 0
M  V30 3036 O 280.215 -0.109183 -1.94193 0
M  V30 3037 C 280.498 -3.47375 -0.948804 0
M  V30 3038 C 280.351 -4.49317 0.208491 0
M  V30 3039 C 281.67 -4.00652 -1.82116 0
M  V30 3040 H 278.789 -0.717317 -0.16919 0
M  V30 3041 H 281.431 -1.88184 0.262062 0
M  V30 3042 H 279.581 -3.55267 -1.57219 0
M  V30 3043 H 281.253 -4.53482 0.845682 0
M  V30 3044 H 279.496 -4.25121 0.863395 0
M  V30 3045 H 280.167 -5.51741 -0.169059 0
M  V30 3046 H 282.643 -3.95416 -1.2956 0
M  V30 3047 H 281.519 -5.06075 -2.12554 0
M  V30 3048 H 281.78 -3.44699 -2.7683 0
M  V30 3049 N 280.839 0.0985539 -1.57292 0
M  V30 3050 C 282.088 0.801358 -1.85098 0
M  V30 3051 C 282.401 1.80066 -0.763902 0
M  V30 3052 O 283.607 2.55112 -0.928981 0
M  V30 3053 C 282.063 1.47599 -3.28242 0
M  V30 3054 C 281.671 0.516624 -4.45011 0
M  V30 3055 C 283.415 2.16272 -3.65276 0
M  V30 3056 C 281.322 1.19564 -5.79188 0
M  V30 3057 H 280.252 0.303022 -0.69043 0
M  V30 3058 H 282.903 0.0542623 -1.8342 0
M  V30 3059 H 281.285 2.27042 -3.2445 0
M  V30 3060 H 282.459 -0.246065 -4.60143 0
M  V30 3061 H 280.774 -0.064227 -4.1635 0
M  V30 3062 H 283.371 2.67802 -4.62803 0
M  V30 3063 H 283.714 2.95009 -2.93727 0
M  V30 3064 H 284.247 1.43693 -3.70941 0
M  V30 3065 H 280.986 0.449157 -6.53959 0
M  V30 3066 H 280.506 1.92984 -5.67906 0
M  V30 3067 H 282.185 1.7231 -6.23633 0
M  V30 3068 N 282.317 1.53212 0.369288 0
M  V30 3069 C 283.733 1.42902 0.710712 0
M  V30 3070 C 283.933 0.565135 1.93413 0
M  V30 3071 O 282.989 0.0461484 2.52458 0
M  V30 3072 C 284.302 2.86042 0.927382 0
M  V30 3073 C 285.85 2.9565 1.02762 0
M  V30 3074 C 286.325 4.39843 1.27679 0
M  V30 3075 N 287.816 4.43256 1.34457 0
M  V30 3076 C 288.551 5.51929 1.55439 0
M  V30 3077 N 288.047 6.70655 1.73762 0
M  V30 3078 N 289.84 5.39502 1.57779 0
M  V30 3079 H 281.991 2.07888 -0.435457 0
M  V30 3080 H 284.254 0.938661 -0.132739 0
M  V30 3081 H 283.96 3.51557 0.100287 0
M  V30 3082 H 283.834 3.29472 1.83653 0
M  V30 3083 H 286.221 2.30291 1.84527 0
M  V30 3084 H 286.302 2.5562 0.0959504 0
M  V30 3085 H 285.946 5.05774 0.464175 0
M  V30 3086 H 285.876 4.77443 2.22162 0
M  V30 3087 H 288.367 3.5769 1.21926 0
M  V30 3088 H 288.68 7.49248 1.89335 0
M  V30 3089 H 287.025 6.73648 1.70948 0
M  V30 3090 H 290.216 4.45713 1.43029 0
M  V30 3091 H 290.389 6.2426 1.7379 0
M  V30 3092 N 283.795 -0.628877 1.44509 0
M  V30 3093 C 284.758 -1.72263 1.51188 0
M  V30 3094 C 285.758 -1.55907 0.39367 0
M  V30 3095 O 286.948 -1.61361 0.656377 0
M  V30 3096 C 284.08 -3.11365 1.38798 0
M  V30 3097 H 285.273 -1.67714 2.4862 0
M  V30 3098 H 282.826 -0.842737 1.31634 0
M  V30 3099 H 283.561 -3.21507 0.424693 0
M  V30 3100 H 283.346 -3.24644 2.19884 0
M  V30 3101 H 284.836 -3.91075 1.46458 0
M  V30 3102 N 285.273 -1.31445 -0.869486 0
M  V30 3103 C 286.522 -1.20517 -1.61736 0
M  V30 3104 C 286.835 0.235341 -1.94179 0
M  V30 3105 O 288.041 0.466312 -2.67465 0
M  V30 3106 C 286.497 -2.10982 -2.91573 0
M  V30 3107 C 286.105 -3.60032 -2.66611 0
M  V30 3108 C 287.849 -2.08856 -3.69567 0
M  V30 3109 C 285.756 -4.42503 -3.92358 0
M  V30 3110 H 284.686 -0.447493 -0.606849 0
M  V30 3111 H 287.337 -1.56303 -0.96133 0
M  V30 3112 H 285.719 -1.68095 -3.58553 0
M  V30 3113 H 286.893 -4.11167 -2.08035 0
M  V30 3114 H 285.208 -3.64139 -2.0197 0
M  V30 3115 H 287.805 -2.67716 -4.62852 0
M  V30 3116 H 288.148 -1.07582 -4.02159 0
M  V30 3117 H 288.681 -2.49945 -3.09471 0
M  V30 3118 H 285.42 -5.44533 -3.64916 0
M  V30 3119 H 284.94 -3.96125 -4.50383 0
M  V30 3120 H 286.619 -4.54741 -4.60238 0
M  V30 3121 N 286.751 1.08385 -1.14413 0
M  V30 3122 C 287.684 2.14642 -0.774871 0
M  V30 3123 C 288.662 1.60761 0.243876 0
M  V30 3124 O 289.846 1.88031 0.132883 0
M  V30 3125 C 286.973 3.38366 -0.150491 0
M  V30 3126 C 286.019 4.10997 -1.13945 0
M  V30 3127 S 286.852 4.63797 -2.67679 0
M  V30 3128 C 288.008 5.90808 -2.06631 0
M  V30 3129 H 288.241 2.45633 -1.67487 0
M  V30 3130 H 285.774 1.20498 -0.96538 0
M  V30 3131 H 287.732 4.09996 0.203334 0
M  V30 3132 H 286.393 3.05572 0.72694 0
M  V30 3133 H 285.586 4.99783 -0.65059 0
M  V30 3134 H 285.188 3.4528 -1.43727 0
M  V30 3135 H 287.48 6.62411 -1.4219 0
M  V30 3136 H 288.423 6.4439 -2.93542 0
M  V30 3137 H 288.831 5.4383 -1.51357 0
M  V30 3138 N 288.23 0.939286 1.26551 0
M  V30 3139 C 289.177 0.446088 2.26448 0
M  V30 3140 C 290.147 -0.493234 1.58608 0
M  V30 3141 O 291.332 -0.409857 1.86346 0
M  V30 3142 C 288.472 -0.284375 3.43926 0
M  V30 3143 C 287.585 0.690399 4.26448 0
M  V30 3144 C 286.72 -0.0610712 5.31165 0
M  V30 3145 C 285.759 0.905649 6.05363 0
M  V30 3146 N 284.896 0.186055 7.01853 0
M  V30 3147 H 289.736 1.30291 2.68008 0
M  V30 3148 H 287.273 0.65371 1.31776 0
M  V30 3149 H 289.231 -0.724313 4.10864 0
M  V30 3150 H 287.861 -1.10535 3.03285 0
M  V30 3151 H 286.913 1.24885 3.59316 0
M  V30 3152 H 288.225 1.42873 4.779 0
M  V30 3153 H 287.379 -0.56038 6.04106 0
M  V30 3154 H 286.118 -0.832297 4.80546 0
M  V30 3155 H 285.123 1.4161 5.3125 0
M  V30 3156 H 286.348 1.67685 6.58072 0
M  V30 3157 H 284.294 -0.566714 6.53548 0
M  V30 3158 H 284.211 0.863752 7.51049 0
M  V30 3159 H 285.479 -0.292221 7.78952 0
M  V30 3160 N 289.708 -1.40897 0.706093 0
M  V30 3161 C 290.985 -1.94868 0.169099 0
M  V30 3162 C 291.365 -1.64485 -1.32318 0
M  V30 3163 O 290.713 -0.95744 -2.07474 0
M  V30 3164 C 290.923 -3.45798 0.471654 0
M  V30 3165 C 292.271 -4.22663 0.405127 0
M  V30 3166 O 293.295 -3.53865 0.407168 0
M  V30 3167 O 292.154 -5.45216 0.374383 0
M  V30 3168 H 289.248 -0.82673 0.0211352 0
M  V30 3169 H 291.794 -1.50558 0.782976 0
M  V30 3170 H 290.566 -3.61235 1.50416 0
M  V30 3171 H 290.189 -3.97225 -0.172666 0
M  V30 3172 N 291.186 -0.45159 -1.50991 0
M  V30 3173 C 292.597 0.00818571 -1.86698 0
M  V30 3174 C 292.948 1.40661 -1.3678 0
M  V30 3175 O 292.073 2.0391 -0.724546 0
M  V30 3176 C 292.668 0.0216303 -3.38793 0
M  V30 3177 C 291.227 0.425865 -3.73983 0
M  V30 3178 C 290.374 -0.372163 -2.74791 0
M  V30 3179 H 293.325 -0.666785 -1.44013 0
M  V30 3180 H 293.346 0.828078 -3.7138 0
M  V30 3181 H 292.858 -0.996288 -3.75094 0
M  V30 3182 H 290.959 1.44886 -3.43277 0
M  V30 3183 H 291.072 0.140761 -4.78893 0
M  V30 3184 H 289.436 0.171498 -2.54122 0
M  V30 3185 H 290.219 -1.38922 -3.13935 0
M  V30 3186 N 292.664 1.56529 -0.183458 0
M  V30 3187 C 293.941 1.88959 0.50536 0
M  V30 3188 C 294.321 1.09523 1.80466 0
M  V30 3189 O 293.669 0.19278 2.27685 0
M  V30 3190 C 293.879 3.41162 0.73547 0
M  V30 3191 C 295.227 4.11155 1.06005 0
M  V30 3192 O 296.251 3.46548 0.823594 0
M  V30 3193 O 295.11 5.25318 1.50675 0
M  V30 3194 H 292.204 0.78441 0.261973 0
M  V30 3195 H 294.75 1.68231 -0.222802 0
M  V30 3196 H 293.522 3.90874 -0.182561 0
M  V30 3197 H 293.145 3.67543 1.51651 0
M  V30 3198 N 294.142 -0.090211 1.57342 0
M  V30 3199 C 295.419 -0.824761 1.77361 0
M  V30 3200 C 295.799 -1.96698 0.76637 0
M  V30 3201 O 295.147 -2.27586 -0.204179 0
M  V30 3202 C 295.357 -1.31481 3.23286 0
M  V30 3203 C 296.705 -1.75563 3.86604 0
M  V30 3204 O 297.729 -1.41093 3.27065 0
M  V30 3205 O 296.588 -2.39317 4.91314 0
M  V30 3206 H 293.682 -0.393776 0.727234 0
M  V30 3207 H 296.228 -0.0717138 1.69548 0
M  V30 3208 H 295 -0.496671 3.88135 0
M  V30 3209 H 294.623 -2.12973 3.35751 0
M  V30 3210 N 295.62 -1.53406 -0.361157 0
M  V30 3211 C 296.57 -1.76536 -1.44287 0
M  V30 3212 C 297.554 -0.620019 -1.48474 0
M  V30 3213 O 298.746 -0.878834 -1.53641 0
M  V30 3214 C 295.875 -1.96266 -2.81664 0
M  V30 3215 C 294.961 -3.16815 -2.81938 0
M  V30 3216 N 295.352 -4.38637 -2.51855 0
M  V30 3217 C 293.65 -3.17627 -3.13096 0
M  V30 3218 C 294.351 -5.20401 -2.59919 0
M  V30 3219 N 293.327 -4.56712 -2.94814 0
M  V30 3220 H 297.129 -2.68331 -1.19899 0
M  V30 3221 H 294.643 -1.52091 -0.56938 0
M  V30 3222 H 296.64 -2.10966 -3.59582 0
M  V30 3223 H 295.3 -1.05702 -3.07013 0
M  V30 3224 H 296.311 -4.66293 -2.25369 0
M  V30 3225 H 292.988 -2.36971 -3.43731 0
M  V30 3226 H 294.378 -6.27586 -2.39969 0
M  V30 3227 N 297.098 0.621204 -1.44841 0
M  V30 3228 C 298.326 1.40752 -1.51646 0
M  V30 3229 C 298.741 1.88246 -0.144549 0
M  V30 3230 O 298.098 1.61422 0.851416 0
M  V30 3231 C 298.149 2.62119 -2.4895 0
M  V30 3232 O 297.87 2.16602 -3.80808 0
M  V30 3233 C 299.371 3.55135 -2.65319 0
M  V30 3234 H 296.591 0.431325 -0.514004 0
M  V30 3235 H 299.135 0.758835 -1.899 0
M  V30 3236 H 297.29 3.23058 -2.13805 0
M  V30 3237 H 297.704 2.95358 -4.33433 0
M  V30 3238 H 299.178 4.36874 -3.37409 0
M  V30 3239 H 299.655 4.04592 -1.70886 0
M  V30 3240 H 300.261 3.00058 -3.01405 0
M  V30 3241 N 298.576 1.31904 0.862503 0
M  V30 3242 C 299.822 1.22197 1.61851 0
M  V30 3243 C 300.155 -0.217641 1.92977 0
M  V30 3244 O 299.43 -1.15264 1.56666 0
M  V30 3245 C 299.713 2.07378 2.94391 0
M  V30 3246 C 299.566 3.59678 2.70096 0
M  V30 3247 C 300.885 1.92891 3.95577 0
M  V30 3248 H 298.004 0.445255 0.587296 0
M  V30 3249 H 300.646 1.6177 0.99651 0
M  V30 3250 H 298.796 1.73758 3.47477 0
M  V30 3251 H 300.468 4.03472 2.23625 0
M  V30 3252 H 298.711 3.82735 2.04197 0
M  V30 3253 H 299.382 4.14595 3.64438 0
M  V30 3254 H 301.858 2.22327 3.51724 0
M  V30 3255 H 300.734 2.54781 4.86187 0
M  V30 3256 H 300.995 0.894315 4.3296 0
M  V30 3257 N 300.054 -1.07777 1.14986 0
M  V30 3258 C 301.294 -1.81888 0.932527 0
M  V30 3259 C 301.658 -1.84509 -0.531064 0
M  V30 3260 O 302.859 -2.54448 -0.866577 0
M  V30 3261 C 301.13 -3.23244 1.52473 0
M  V30 3262 S 302.689 -4.14154 1.44989 0
M  V30 3263 H 299.507 -0.626752 0.335712 0
M  V30 3264 H 302.109 -1.29503 1.46455 0
M  V30 3265 H 300.813 -3.18922 2.58296 0
M  V30 3266 H 300.344 -3.80704 0.991381 0
M  V30 3267 H 302.359 -4.94247 0.439799 0
M  V30 3268 N 301.532 -0.945985 -1.26051 0
M  V30 3269 C 302.482 -0.430164 -2.23905 0
M  V30 3270 C 303.466 0.47579 -1.53704 0
M  V30 3271 O 304.658 0.310252 -1.7426 0
M  V30 3272 C 301.787 0.298957 -3.41996 0
M  V30 3273 C 300.873 -0.624566 -4.19476 0
M  V30 3274 N 301.264 -1.75245 -4.74471 0
M  V30 3275 C 299.562 -0.431082 -4.43912 0
M  V30 3276 C 300.263 -2.32834 -5.3307 0
M  V30 3277 N 299.239 -1.61583 -5.1903 0
M  V30 3278 H 303.041 -1.29107 -2.64024 0
M  V30 3279 H 300.555 -0.802428 -1.41191 0
M  V30 3280 H 302.552 0.685565 -4.11225 0
M  V30 3281 H 301.212 1.15657 -3.03403 0
M  V30 3282 H 302.223 -2.13449 -4.71868 0
M  V30 3283 H 298.9 0.384364 -4.15727 0
M  V30 3284 H 300.29 -3.27893 -5.86461 0
M  V30 3285 N 303.011 1.40521 -0.713556 0
M  V30 3286 C 303.941 2.33381 -0.0743864 0
M  V30 3287 C 304.922 1.52784 0.747735 0
M  V30 3288 O 306.107 1.81258 0.697071 0
M  V30 3289 C 303.237 3.36748 0.849598 0
M  V30 3290 C 302.191 4.27793 0.133247 0
M  V30 3291 C 301.517 5.21679 1.17281 0
M  V30 3292 C 302.817 5.12415 -1.01134 0
M  V30 3293 H 304.511 2.87081 -0.850007 0
M  V30 3294 H 302.057 1.38034 -0.410201 0
M  V30 3295 H 304.01 4.00648 1.30612 0
M  V30 3296 H 302.734 2.81439 1.65709 0
M  V30 3297 H 301.393 3.65342 -0.303426 0
M  V30 3298 H 301.041 4.62677 1.9733 0
M  V30 3299 H 300.741 5.83435 0.698397 0
M  V30 3300 H 302.265 5.88456 1.62947 0
M  V30 3301 H 303.679 5.69781 -0.634274 0
M  V30 3302 H 302.076 5.83203 -1.41399 0
M  V30 3303 H 303.146 4.48514 -1.84292 0
M  V30 3304 N 304.489 0.459591 1.5075 0
M  V30 3305 C 305.419 -0.330644 2.31147 0
M  V30 3306 C 306.4 -1.00087 1.37538 0
M  V30 3307 O 307.585 -1.00025 1.66459 0
M  V30 3308 C 304.715 -1.41958 3.16962 0
M  V30 3309 C 303.669 -0.871608 4.19031 0
M  V30 3310 C 302.995 -2.05797 4.9351 0
M  V30 3311 C 304.295 0.109251 5.22186 0
M  V30 3312 H 305.989 0.340336 2.97459 0
M  V30 3313 H 303.535 0.165119 1.4305 0
M  V30 3314 H 305.488 -1.9798 3.71997 0
M  V30 3315 H 304.212 -2.11917 2.48513 0
M  V30 3316 H 302.871 -0.333442 3.6508 0
M  V30 3317 H 302.519 -2.74427 4.21544 0
M  V30 3318 H 302.219 -1.6976 5.62544 0
M  V30 3319 H 303.743 -2.62331 5.51375 0
M  V30 3320 H 305.157 -0.361405 5.7216 0
M  V30 3321 H 303.554 0.383316 5.98875 0
M  V30 3322 H 304.624 1.03887 4.73641 0
M  V30 3323 N 305.967 -1.56429 0.191757 0
M  V30 3324 C 307.214 -1.97485 -0.447891 0
M  V30 3325 C 307.542 -1.07852 -1.61859 0
M  V30 3326 O 306.797 -0.116903 -1.95351 0
M  V30 3327 C 307.096 -3.44449 -0.953384 0
M  V30 3328 C 306.762 -4.50781 0.103586 0
M  V30 3329 C 305.424 -4.79584 0.394023 0
M  V30 3330 C 307.776 -5.1471 0.819946 0
M  V30 3331 C 305.104 -5.69607 1.40585 0
M  V30 3332 C 307.456 -6.05827 1.8209 0
M  V30 3333 C 306.12 -6.32987 2.11857 0
M  V30 3334 H 305.39 -0.722648 -0.163895 0
M  V30 3335 H 308.037 -1.89322 0.28802 0
M  V30 3336 H 306.342 -3.49666 -1.76751 0
M  V30 3337 H 308.039 -3.73569 -1.45765 0
M  V30 3338 H 304.629 -4.28394 -0.132951 0
M  V30 3339 H 308.813 -4.92552 0.608789 0
M  V30 3340 H 304.069 -5.88926 1.64243 0
M  V30 3341 H 308.243 -6.54424 2.38123 0
M  V30 3342 H 305.87 -7.02544 2.90407 0
M  V30 3343 N 307.445 0.0818655 -1.57387 0
M  V30 3344 C 308.408 1.08265 -2.02018 0
M  V30 3345 C 309.408 1.32183 -0.915664 0
M  V30 3346 O 310.598 1.28073 -1.18081 0
M  V30 3347 C 307.73 2.42871 -2.39221 0
M  V30 3348 H 308.923 0.698204 -2.91659 0
M  V30 3349 H 306.476 0.327303 -1.52835 0
M  V30 3350 H 307.211 2.86167 -1.52575 0
M  V30 3351 H 306.996 2.26855 -3.19811 0
M  V30 3352 H 308.486 3.14826 -2.74362 0
M  V30 3353 N 308.923 1.53595 0.353017 0
M  V30 3354 C 309.871 1.81605 1.45335 0
M  V30 3355 C 310.865 0.685923 1.54892 0
M  V30 3356 O 312.071 0.869095 1.57628 0
M  V30 3357 H 308.446 0.575204 0.484401 0
M  V30 3358 H 310.417 2.73679 1.18921 0
M  V30 3359 C 309.166 2.03406 2.81995 0
M  V30 3360 H 308.489 2.89814 2.75405 0
M  V30 3361 H 309.929 2.26975 3.58132 0
M  V30 3362 C 308.388 0.816794 3.26849 0
M  V30 3363 O 308.918 0.0115856 4.01698 0
M  V30 3364 N 307.124 0.636682 2.8354 0
M  V30 3365 H 306.671 1.2931 2.22793 0
M  V30 3366 H 306.629 -0.176336 3.13905 0
M  V30 3367 N 310.401 -0.613514 1.45168 0
M  V30 3368 C 311.333 -1.73825 1.4939 0
M  V30 3369 C 312.346 -1.58175 0.385304 0
M  V30 3370 O 313.535 -1.66165 0.652036 0
M  V30 3371 C 310.635 -3.11758 1.32891 0
M  V30 3372 C 309.808 -3.53704 2.57317 0
M  V30 3373 C 308.867 -4.70579 2.35462 0
M  V30 3374 O 307.893 -4.77996 3.09044 0
M  V30 3375 N 309.095 -5.63454 1.39644 0
M  V30 3376 H 311.86 -1.70669 2.46358 0
M  V30 3377 H 309.421 -0.79862 1.40832 0
M  V30 3378 H 311.413 -3.87692 1.1609 0
M  V30 3379 H 309.983 -3.09456 0.442218 0
M  V30 3380 H 309.203 -2.67794 2.89275 0
M  V30 3381 H 310.491 -3.78486 3.40038 0
M  V30 3382 H 309.889 -5.6017 0.789062 0
M  V30 3383 H 308.446 -6.38944 1.28816 0
M  V30 3384 N 311.879 -1.3236 -0.855495 0
M  V30 3385 C 313.107 -1.2587 -1.64208 0
M  V30 3386 C 313.522 0.173457 -1.88002 0
M  V30 3387 O 312.879 1.11027 -1.44842 0
M  V30 3388 C 312.93 -2.01424 -3.00184 0
M  V30 3389 O 312.651 -3.39051 -2.77445 0
M  V30 3390 C 314.152 -2.01948 -3.94629 0
M  V30 3391 H 311.372 -0.434318 -0.511477 0
M  V30 3392 H 313.916 -1.74469 -1.0668 0
M  V30 3393 H 312.071 -1.56549 -3.5436 0
M  V30 3394 H 312.485 -3.77711 -3.63916 0
M  V30 3395 H 313.959 -2.59297 -4.87308 0
M  V30 3396 H 314.436 -1.00554 -4.27534 0
M  V30 3397 H 315.042 -2.46767 -3.4639 0
M  V30 3398 N 313.357 1.07166 -1.15556 0
M  V30 3399 C 314.267 2.17947 -0.868116 0
M  V30 3400 C 315.283 1.73297 0.156297 0
M  V30 3401 O 316.459 2.01392 -0.0182327 0
M  V30 3402 C 313.524 3.44789 -0.36355 0
M  V30 3403 C 312.585 4.03996 -1.45209 0
M  V30 3404 C 311.818 5.24783 -0.971508 0
M  V30 3405 O 312.041 5.70109 0.182194 0
M  V30 3406 O 310.975 5.75715 -1.75603 0
M  V30 3407 H 314.801 2.4503 -1.79427 0
M  V30 3408 H 312.386 1.16539 -0.934824 0
M  V30 3409 H 314.268 4.21307 -0.0887113 0
M  V30 3410 H 312.943 3.19253 0.534708 0
M  V30 3411 H 311.85 3.29009 -1.78056 0
M  V30 3412 H 313.183 4.33808 -2.32533 0
M  V30 3413 N 314.835 0.952656 1.25548 0
M  V30 3414 C 315.782 0.47008 2.25962 0
M  V30 3415 C 316.752 -0.476384 1.59122 0
M  V30 3416 O 317.937 -0.39007 1.8677 0
M  V30 3417 C 315.077 -0.247881 3.44209 0
M  V30 3418 C 314.19 0.735591 4.25691 0
M  V30 3419 C 313.325 -0.0047306 5.312 0
M  V30 3420 C 312.364 0.969805 6.04368 0
M  V30 3421 N 311.501 0.260486 7.01617 0
M  V30 3422 H 316.341 1.33126 2.66611 0
M  V30 3423 H 313.878 0.66765 1.31076 0
M  V30 3424 H 315.836 -0.680695 4.1161 0
M  V30 3425 H 314.466 -1.07312 3.0444 0
M  V30 3426 H 313.518 1.28689 3.57971 0
M  V30 3427 H 314.83 1.47934 4.76358 0
M  V30 3428 H 313.984 -0.496275 6.04667 0
M  V30 3429 H 312.723 -0.781282 4.81401 0
M  V30 3430 H 311.728 1.47237 5.29718 0
M  V30 3431 H 312.953 1.74655 6.56256 0
M  V30 3432 H 310.899 -0.497364 6.54112 0
M  V30 3433 H 310.816 0.943362 7.50091 0
M  V30 3434 H 312.084 -0.209587 7.79218 0
M  V30 3435 N 316.313 -1.40141 0.720998 0
M  V30 3436 C 317.59 -1.94677 0.189757 0
M  V30 3437 C 317.97 -1.65879 -1.30566 0
M  V30 3438 O 317.318 -0.979391 -2.06447 0
M  V30 3439 C 317.528 -3.45279 0.508304 0
M  V30 3440 C 318.876 -4.22209 0.449934 0
M  V30 3441 O 319.9 -3.53413 0.444677 0
M  V30 3442 O 318.759 -5.44788 0.432189 0
M  V30 3443 H 315.853 -0.826459 0.0299026 0
M  V30 3444 H 318.399 -1.49719 0.7989 0
M  V30 3445 H 317.171 -3.59619 1.54239 0
M  V30 3446 H 316.794 -3.97386 -0.130525 0
M  V30 3447 N 317.792 -0.46758 -1.50504 0
M  V30 3448 C 319.041 0.0902868 -2.01498 0
M  V30 3449 C 319.354 1.411 -1.35463 0
M  V30 3450 O 320.56 2.0536 -1.77594 0
M  V30 3451 C 319.016 0.21142 -3.59278 0
M  V30 3452 C 318.624 -1.10065 -4.34269 0
M  V30 3453 C 320.368 0.721433 -4.18325 0
M  V30 3454 C 318.275 -0.943505 -5.83825 0
M  V30 3455 H 317.205 0.037517 -0.753066 0
M  V30 3456 H 319.856 -0.601943 -1.73346 0
M  V30 3457 H 318.238 0.967352 -3.84003 0
M  V30 3458 H 319.412 -1.86726 -4.21272 0
M  V30 3459 H 317.727 -1.5415 -3.86816 0
M  V30 3460 H 320.324 0.85598 -5.27804 0
M  V30 3461 H 320.667 1.71186 -3.79475 0
M  V30 3462 H 321.2 0.0229843 -3.97793 0
M  V30 3463 H 317.939 -1.90719 -6.27141 0
M  V30 3464 H 317.459 -0.217213 -5.99407 0
M  V30 3465 H 319.138 -0.608715 -6.4413 0
M  V30 3466 N 319.27 1.56325 -0.20005 0
M  V30 3467 C 320.2 2.22318 0.713916 0
M  V30 3468 C 321.181 1.18788 1.21752 0
M  V30 3469 O 322.366 1.47309 1.26545 0
M  V30 3470 C 319.496 2.88639 1.93144 0
M  V30 3471 C 318.45 3.98457 1.56255 0
M  V30 3472 C 317.776 4.51967 2.85709 0
M  V30 3473 C 319.076 5.16612 0.768747 0
M  V30 3474 H 320.77 2.98952 0.163755 0
M  V30 3475 H 318.316 1.43792 0.0773219 0
M  V30 3476 H 320.269 3.33491 2.57608 0
M  V30 3477 H 318.993 2.09419 2.50621 0
M  V30 3478 H 317.652 3.54305 0.941471 0
M  V30 3479 H 317.3 3.69503 3.41287 0
M  V30 3480 H 317 5.26071 2.6177 0
M  V30 3481 H 318.524 4.99523 3.51154 0
M  V30 3482 H 319.938 5.57977 1.3166 0
M  V30 3483 H 318.335 5.96812 0.627286 0
M  V30 3484 H 319.405 4.84358 -0.229168 0
M  V30 3485 N 320.748 -0.0735177 1.57428 0
M  V30 3486 C 321.678 -1.0879 2.06608 0
M  V30 3487 C 322.659 -1.40473 0.959237 0
M  V30 3488 O 323.844 -1.5013 1.23185 0
M  V30 3489 C 320.974 -2.40183 2.50857 0
M  V30 3490 C 319.928 -2.22858 3.65402 0
M  V30 3491 C 319.254 -3.59619 3.957 0
M  V30 3492 C 320.554 -1.65123 4.95511 0
M  V30 3493 H 322.248 -0.678673 2.91607 0
M  V30 3494 H 319.794 -0.325013 1.40284 0
M  V30 3495 H 321.747 -3.11437 2.83874 0
M  V30 3496 H 320.471 -2.83083 1.62885 0
M  V30 3497 H 319.13 -1.54045 3.32664 0
M  V30 3498 H 318.778 -4.00086 3.04861 0
M  V30 3499 H 318.478 -3.48866 4.72828 0
M  V30 3500 H 320.002 -4.32306 4.31212 0
M  V30 3501 H 321.416 -2.26241 5.26771 0
M  V30 3502 H 319.813 -1.65071 5.7695 0
M  V30 3503 H 320.883 -0.612559 4.81015 0
M  V30 3504 N 322.226 -1.5378 -0.344866 0
M  V30 3505 C 323.642 -1.44015 -0.687888 0
M  V30 3506 C 323.842 -0.595834 -1.92489 0
M  V30 3507 O 322.898 -0.0863064 -2.52352 0
M  V30 3508 C 324.211 -2.87481 -0.881758 0
M  V30 3509 C 325.759 -2.97247 -0.980459 0
M  V30 3510 C 326.234 -4.41819 -1.20665 0
M  V30 3511 N 327.725 -4.45339 -1.27389 0
M  V30 3512 C 328.46 -5.54333 -1.46639 0
M  V30 3513 N 327.956 -6.73335 -1.63071 0
M  V30 3514 N 329.749 -5.41944 -1.49176 0
M  V30 3515 H 321.9 -2.07169 0.468475 0
M  V30 3516 H 324.163 -0.93643 0.147655 0
M  V30 3517 H 323.869 -3.51672 -0.0443444 0
M  V30 3518 H 323.743 -3.32352 -1.78388 0
M  V30 3519 H 326.13 -2.33197 -1.8084 0
M  V30 3520 H 326.211 -2.5574 -0.0552713 0
M  V30 3521 H 325.855 -5.06449 -0.383652 0
M  V30 3522 H 325.785 -4.80917 -2.14539 0
M  V30 3523 H 328.276 -3.59585 -1.1622 0
M  V30 3524 H 328.589 -7.52165 -1.77391 0
M  V30 3525 H 326.934 -6.76282 -1.60209 0
M  V30 3526 H 330.125 -4.47932 -1.3592 0
M  V30 3527 H 330.298 -6.26946 -1.63837 0
M  V30 3528 N 323.704 0.605807 -1.45491 0
M  V30 3529 C 325.115 1.18777 -1.44045 0
M  V30 3530 C 325.466 1.95471 -0.169001 0
M  V30 3531 O 324.591 2.0374 0.729324 0
M  V30 3532 C 325.186 2.16064 -2.60963 0
M  V30 3533 C 323.745 2.69633 -2.62631 0
M  V30 3534 C 322.892 1.45072 -2.36325 0
M  V30 3535 H 325.843 0.395017 -1.53705 0
M  V30 3536 H 325.864 2.9913 -2.35163 0
M  V30 3537 H 325.376 1.60217 -3.53486 0
M  V30 3538 H 323.477 3.29414 -1.74119 0
M  V30 3539 H 323.59 3.13944 -3.61906 0
M  V30 3540 H 321.954 1.74089 -1.85917 0
M  V30 3541 H 322.737 0.910899 -3.30995 0
M  V30 3542 N 325.182 1.32811 0.848464 0
M  V30 3543 C 326.092 1.24278 1.98978 0
M  V30 3544 C 327.108 0.155176 1.73307 0
M  V30 3545 O 328.284 0.376999 1.9784 0
M  V30 3546 C 325.349 0.972444 3.32783 0
M  V30 3547 C 324.41 2.14911 3.71634 0
M  V30 3548 C 323.643 1.89157 4.99054 0
M  V30 3549 O 323.866 0.837165 5.64223 0
M  V30 3550 O 322.8 2.75433 5.35183 0
M  V30 3551 H 326.626 2.20238 2.09115 0
M  V30 3552 H 324.211 1.12762 0.980052 0
M  V30 3553 H 326.093 0.838432 4.12975 0
M  V30 3554 H 324.768 0.043051 3.23671 0
M  V30 3555 H 323.675 2.33862 2.91992 0
M  V30 3556 H 325.008 3.06151 3.85399 0
M  V30 3557 N 326.66 -1.06551 1.16123 0
M  V30 3558 C 327.59 -2.15935 0.88851 0
M  V30 3559 C 328.571 -1.69306 -0.164135 0
M  V30 3560 O 329.756 -1.94193 -0.0167857 0
M  V30 3561 C 326.886 -3.45149 0.385942 0
M  V30 3562 C 325.84 -4.05271 1.3762 0
M  V30 3563 C 325.166 -5.29664 0.732137 0
M  V30 3564 C 326.466 -4.44355 2.74493 0
M  V30 3565 H 328.16 -2.39006 1.80323 0
M  V30 3566 H 325.706 -1.14866 0.868435 0
M  V30 3567 H 327.659 -4.21004 0.182647 0
M  V30 3568 H 326.383 -3.21689 -0.564274 0
M  V30 3569 H 325.042 -3.3147 1.56599 0
M  V30 3570 H 324.69 -5.02499 -0.224483 0
M  V30 3571 H 324.39 -5.70848 1.39307 0
M  V30 3572 H 325.914 -6.08218 0.538802 0
M  V30 3573 H 327.328 -5.11303 2.59311 0
M  V30 3574 H 325.725 -4.96515 3.37035 0
M  V30 3575 H 326.795 -3.55339 3.29943 0
M  V30 3576 N 328.138 -0.959301 -1.25041 0
M  V30 3577 C 329.048 -0.489994 -2.29426 0
M  V30 3578 C 330.064 0.444944 -1.68215 0
M  V30 3579 O 331.24 0.320046 -1.98841 0
M  V30 3580 C 328.305 0.220309 -3.45999 0
M  V30 3581 C 327.366 -0.753418 -4.22637 0
M  V30 3582 C 326.599 -0.076918 -5.33645 0
M  V30 3583 O 326.822 1.13649 -5.58963 0
M  V30 3584 O 325.756 -0.764824 -5.97021 0
M  V30 3585 H 329.582 -1.35755 -2.71669 0
M  V30 3586 H 327.167 -0.725961 -1.30576 0
M  V30 3587 H 329.049 0.619677 -4.16819 0
M  V30 3588 H 327.724 1.06296 -3.0575 0
M  V30 3589 H 326.631 -1.20308 -3.54227 0
M  V30 3590 H 327.964 -1.56423 -4.66683 0
M  V30 3591 N 329.616 1.39756 -0.72842 0
M  V30 3592 C 330.526 2.34444 -0.0855374 0
M  V30 3593 C 331.542 1.57976 0.729356 0
M  V30 3594 O 332.718 1.90301 0.659346 0
M  V30 3595 C 329.783 3.36965 0.815798 0
M  V30 3596 C 328.844 4.29299 -0.0105996 0
M  V30 3597 C 328.077 5.26923 0.84781 0
M  V30 3598 O 328.3 5.30859 2.08673 0
M  V30 3599 O 327.234 6.01249 0.279969 0
M  V30 3600 H 331.06 2.91065 -0.866892 0
M  V30 3601 H 328.645 1.4117 -0.48902 0
M  V30 3602 H 330.527 3.99804 1.33171 0
M  V30 3603 H 329.202 2.82739 1.57608 0
M  V30 3604 H 328.109 3.69703 -0.571877 0
M  V30 3605 H 329.442 4.86712 -0.73295 0
M  V30 3606 N 331.094 0.475555 1.50254 0
M  V30 3607 C 332.024 -0.30611 2.31485 0
M  V30 3608 C 333.005 -0.986228 1.38591 0
M  V30 3609 O 334.19 -0.982541 1.67511 0
M  V30 3610 C 331.32 -1.38588 3.1845 0
M  V30 3611 C 330.274 -0.827115 4.19932 0
M  V30 3612 C 329.6 -2.00551 4.95665 0
M  V30 3613 C 330.9 0.16463 5.2204 0
M  V30 3614 H 332.594 0.371866 2.97082 0
M  V30 3615 H 330.14 0.180282 1.42867 0
M  V30 3616 H 332.093 -1.94023 3.74076 0
M  V30 3617 H 330.817 -2.09269 2.50747 0
M  V30 3618 H 329.476 -0.294702 3.65414 0
M  V30 3619 H 329.124 -2.6994 4.2443 0
M  V30 3620 H 328.824 -1.63784 5.64313 0
M  V30 3621 H 330.348 -2.56468 5.54127 0
M  V30 3622 H 331.762 -0.300699 5.72511 0
M  V30 3623 H 330.159 0.446813 5.98434 0
M  V30 3624 H 331.229 1.08905 4.72512 0
M  V30 3625 N 332.573 -1.56217 0.208337 0
M  V30 3626 C 333.989 -1.58919 -0.14729 0
M  V30 3627 C 334.189 -1.22486 -1.59998 0
M  V30 3628 O 333.245 -0.953849 -2.3379 0
M  V30 3629 C 334.558 -3.00236 0.167048 0
M  V30 3630 C 336.106 -3.12813 0.108219 0
M  V30 3631 C 336.581 -4.56284 0.396049 0
M  V30 3632 N 338.072 -4.61912 0.345142 0
M  V30 3633 C 338.807 -5.70837 0.541523 0
M  V30 3634 N 338.303 -6.88178 0.798968 0
M  V30 3635 N 340.096 -5.60091 0.474867 0
M  V30 3636 H 332.247 -1.78177 1.15614 0
M  V30 3637 H 334.51 -0.827555 0.462446 0
M  V30 3638 H 334.216 -3.31499 1.1748 0
M  V30 3639 H 334.09 -3.7354 -0.524184 0
M  V30 3640 H 336.477 -2.81354 -0.890157 0
M  V30 3641 H 336.558 -2.41866 0.832729 0
M  V30 3642 H 336.202 -4.88458 1.3918 0
M  V30 3643 H 336.132 -5.25439 -0.349502 0
M  V30 3644 H 338.623 -3.77589 0.153316 0
M  V30 3645 H 338.936 -7.67095 0.93727 0
M  V30 3646 H 337.281 -6.89953 0.836013 0
M  V30 3647 H 340.472 -4.67297 0.274064 0
M  V30 3648 H 340.645 -6.44917 0.631326 0
M  V30 3649 N 334.051 0.0651679 -1.57465 0
M  V30 3650 C 334.999 1.09542 -2.05191 0
M  V30 3651 C 335.993 1.39675 -0.958509 0
M  V30 3652 O 337.199 1.39003 -1.14359 0
M  V30 3653 H 333.574 0.370623 -0.654326 0
M  V30 3654 H 335.545 0.666802 -2.90854 0
M  V30 3655 C 334.294 2.39881 -2.51699 0
M  V30 3656 H 333.617 2.17547 -3.3543 0
M  V30 3657 H 335.057 3.104 -2.88839 0
M  V30 3658 C 333.516 3.0631 -1.40271 0
M  V30 3659 O 334.046 3.94664 -0.748523 0
M  V30 3660 N 332.252 2.67041 -1.14618 0
M  V30 3661 H 331.799 1.95281 -1.67997 0
M  V30 3662 H 331.757 3.1181 -0.402688 0
M  V30 3663 N 335.529 1.53961 0.336706 0
M  V30 3664 C 336.476 1.82428 1.41381 0
M  V30 3665 C 337.446 0.670444 1.51968 0
M  V30 3666 O 338.631 0.915565 1.67398 0
M  V30 3667 C 335.771 2.04564 2.77934 0
M  V30 3668 C 334.884 3.32267 2.76084 0
M  V30 3669 C 334.019 3.44434 4.04399 0
M  V30 3670 C 333.058 4.66061 3.96804 0
M  V30 3671 N 332.195 4.75224 5.16823 0
M  V30 3672 H 337.035 2.74324 1.16405 0
M  V30 3673 H 334.572 1.35869 0.563752 0
M  V30 3674 H 336.53 2.15388 3.57301 0
M  V30 3675 H 335.16 1.15974 3.01247 0
M  V30 3676 H 334.212 3.3025 1.88784 0
M  V30 3677 H 335.524 4.21733 2.66351 0
M  V30 3678 H 334.678 3.54728 4.92192 0
M  V30 3679 H 333.417 2.53037 4.16921 0
M  V30 3680 H 332.422 4.55838 3.07396 0
M  V30 3681 H 333.647 5.58829 3.85858 0
M  V30 3682 H 331.593 3.86739 5.29876 0
M  V30 3683 H 331.51 5.58636 5.09374 0
M  V30 3684 H 332.778 4.89835 6.06367 0
M  V30 3685 N 337.007 -0.598083 1.45811 0
M  V30 3686 C 337.957 -1.70272 1.51629 0
M  V30 3687 C 338.941 -1.56382 0.378629 0
M  V30 3688 O 340.133 -1.65557 0.626087 0
M  V30 3689 C 337.262 -3.09042 1.49493 0
M  V30 3690 C 336.348 -3.28284 2.68496 0
M  V30 3691 N 336.739 -3.17748 3.93535 0
M  V30 3692 C 335.037 -3.59182 2.64394 0
M  V30 3693 C 335.738 -3.38579 4.7301 0
M  V30 3694 N 334.714 -3.63016 4.04624 0
M  V30 3695 H 338.516 -1.60634 2.46118 0
M  V30 3696 H 336.03 -0.801642 1.41235 0
M  V30 3697 H 338.027 -3.88302 1.51747 0
M  V30 3698 H 336.687 -3.19823 0.560683 0
M  V30 3699 H 337.698 -2.95944 4.25014 0
M  V30 3700 H 334.375 -3.76742 1.79922 0
M  V30 3701 H 335.765 -3.35747 5.82 0
M  V30 3702 N 338.485 -1.33259 -0.841409 0
M  V30 3703 C 339.71 -1.2775 -1.63385 0
M  V30 3704 C 340.135 0.149188 -1.87507 0
M  V30 3705 O 339.493 1.10498 -1.43736 0
M  V30 3706 C 339.541 -2.05571 -2.96265 0
M  V30 3707 O 338.645 -1.41257 -3.87453 0
M  V30 3708 H 337.986 -0.439627 -0.497618 0
M  V30 3709 H 340.516 -1.75782 -1.04699 0
M  V30 3710 H 340.526 -2.16241 -3.45982 0
M  V30 3711 H 339.201 -3.09309 -2.7803 0
M  V30 3712 H 337.778 -1.39217 -3.45938 0
M  V30 3713 N 339.963 1.05934 -1.16686 0
M  V30 3714 C 340.926 2.11669 -0.879144 0
M  V30 3715 C 341.926 1.60294 0.127445 0
M  V30 3716 O 343.116 1.7389 -0.103865 0
M  V30 3717 C 340.248 3.39438 -0.315425 0
M  V30 3718 H 341.441 2.38626 -1.81653 0
M  V30 3719 H 338.994 1.22058 -0.976299 0
M  V30 3720 H 339.729 3.18132 0.629468 0
M  V30 3721 H 339.514 3.78034 -1.04079 0
M  V30 3722 H 341.004 4.17391 -0.132189 0
M  V30 3723 N 341.441 0.965919 1.2453 0
M  V30 3724 C 342.857 0.67216 1.44756 0
M  V30 3725 C 343.057 -0.766609 1.86347 0
M  V30 3726 O 342.113 -1.5407 2.00047 0
M  V30 3727 C 343.426 1.65473 2.51076 0
M  V30 3728 C 344.974 1.66716 2.64905 0
M  V30 3729 C 345.449 2.63766 3.74421 0
M  V30 3730 N 346.94 2.62198 3.81846 0
M  V30 3731 C 347.675 3.33966 4.66106 0
M  V30 3732 N 347.171 4.15245 5.54566 0
M  V30 3733 N 348.964 3.22799 4.60171 0
M  V30 3734 H 341.115 1.89553 0.958293 0
M  V30 3735 H 343.378 0.815979 0.482579 0
M  V30 3736 H 343.084 2.68296 2.27399 0
M  V30 3737 H 342.958 1.4261 3.49202 0
M  V30 3738 H 345.345 0.646057 2.87941 0
M  V30 3739 H 345.426 1.93642 1.67142 0
M  V30 3740 H 345.07 3.6601 3.52135 0
M  V30 3741 H 345 2.34121 4.71694 0
M  V30 3742 H 347.491 2.032 3.18619 0
M  V30 3743 H 347.804 4.66898 6.15814 0
M  V30 3744 H 346.149 4.1934 5.54237 0
M  V30 3745 H 349.34 2.58764 3.90075 0
M  V30 3746 H 349.513 3.78994 5.25612 0
M  V30 3747 N 342.919 -1.39368 0.735821 0
M  V30 3748 C 344.166 -2.00497 0.284123 0
M  V30 3749 C 344.494 -1.58387 -1.12889 0
M  V30 3750 O 343.749 -0.804359 -1.78406 0
M  V30 3751 C 344.048 -3.5583 0.334651 0
M  V30 3752 C 343.714 -4.17593 1.7008 0
M  V30 3753 C 342.376 -4.34176 2.07472 0
M  V30 3754 C 344.728 -4.51848 2.59775 0
M  V30 3755 C 342.056 -4.82304 3.34065 0
M  V30 3756 C 344.408 -5.01384 3.85741 0
M  V30 3757 C 343.072 -5.16175 4.23225 0
M  V30 3758 H 342.342 -0.73367 0.103968 0
M  V30 3759 H 344.989 -1.66683 0.942825 0
M  V30 3760 H 343.294 -3.89674 -0.407625 0
M  V30 3761 H 344.991 -4.00986 -0.0329927 0
M  V30 3762 H 341.581 -4.05087 1.40008 0
M  V30 3763 H 345.765 -4.38653 2.32157 0
M  V30 3764 H 341.021 -4.91941 3.63049 0
M  V30 3765 H 345.195 -5.26863 4.55399 0
M  V30 3766 H 342.822 -5.5323 5.21384 0
M  V30 3767 N 344.397 -0.483516 -1.5 0
M  V30 3768 C 345.344 0.304164 -2.28787 0
M  V30 3769 C 346.314 0.976114 -1.34392 0
M  V30 3770 O 347.499 0.986156 -1.63339 0
M  V30 3771 C 344.639 1.37298 -3.16612 0
M  V30 3772 C 343.752 0.714561 -4.26049 0
M  V30 3773 C 342.887 1.76232 -5.01114 0
M  V30 3774 C 341.926 1.08483 -6.0241 0
M  V30 3775 N 341.063 2.076 -6.70706 0
M  V30 3776 H 345.903 -0.373981 -2.95644 0
M  V30 3777 H 343.44 -0.196275 -1.45785 0
M  V30 3778 H 345.398 2.00445 -3.65893 0
M  V30 3779 H 344.028 2.02012 -2.51776 0
M  V30 3780 H 343.08 -0.0297798 -3.80388 0
M  V30 3781 H 344.392 0.180383 -4.98474 0
M  V30 3782 H 343.546 2.46929 -5.54176 0
M  V30 3783 H 342.285 2.33033 -4.28424 0
M  V30 3784 H 341.29 0.363545 -5.48597 0
M  V30 3785 H 342.515 0.523551 -6.77079 0
M  V30 3786 H 340.461 2.63394 -6.00799 0
M  V30 3787 H 340.378 1.59201 -7.39047 0
M  V30 3788 H 341.646 2.77639 -7.2838 0
M  V30 3789 N 345.875 1.56104 -0.216619 0
M  V30 3790 C 346.805 2.23063 0.690296 0
M  V30 3791 C 347.786 1.20072 1.20485 0
M  V30 3792 O 348.971 1.48643 1.24976 0
M  V30 3793 C 346.101 2.90672 1.90072 0
M  V30 3794 C 345.055 4.00092 1.5202 0
M  V30 3795 C 344.381 4.54972 2.80899 0
M  V30 3796 C 345.681 5.17398 0.71391 0
M  V30 3797 H 347.375 2.99109 0.132038 0
M  V30 3798 H 344.921 1.43866 0.0620664 0
M  V30 3799 H 346.874 3.36204 2.54057 0
M  V30 3800 H 345.598 2.12066 2.48386 0
M  V30 3801 H 344.257 3.55283 0.903839 0
M  V30 3802 H 343.905 3.73102 3.37348 0
M  V30 3803 H 343.605 5.28817 2.56176 0
M  V30 3804 H 345.129 5.0322 3.45836 0
M  V30 3805 H 346.543 5.59342 1.25735 0
M  V30 3806 H 344.94 5.97444 0.563951 0
M  V30 3807 H 346.01 4.84088 -0.280527 0
M  V30 3808 N 347.353 -0.0568162 1.57498 0
M  V30 3809 C 348.599 -0.748893 1.89111 0
M  V30 3810 C 348.954 -1.74422 0.81208 0
M  V30 3811 O 348.247 -1.90731 -0.182247 0
M  V30 3812 C 348.441 -1.48359 3.25153 0
M  V30 3813 C 348.27 -0.560924 4.46188 0
M  V30 3814 C 347.04 -0.192264 5.04934 0
M  V30 3815 C 349.238 0.148824 5.14085 0
M  V30 3816 N 347.22 0.734555 6.0949 0
M  V30 3817 C 348.591 0.932286 6.12951 0
M  V30 3818 C 350.646 0.218713 4.97419 0
M  V30 3819 C 349.349 1.77917 6.96949 0
M  V30 3820 C 351.375 1.05262 5.81957 0
M  V30 3821 C 350.737 1.82409 6.80372 0
M  V30 3822 H 346.836 -0.249002 0.741298 0
M  V30 3823 H 349.42 -0.00984926 1.94698 0
M  V30 3824 H 347.591 -2.19326 3.20547 0
M  V30 3825 H 349.323 -2.12586 3.44368 0
M  V30 3826 H 346.078 -0.548421 4.70414 0
M  V30 3827 H 346.502 1.19165 6.6643 0
M  V30 3828 H 351.144 -0.363407 4.21235 0
M  V30 3829 H 348.862 2.3722 7.72497 0
M  V30 3830 H 352.448 1.10987 5.71116 0
M  V30 3831 H 351.328 2.45895 7.44651 0
M  V30 3832 N 348.832 -1.54138 -0.328536 0
M  V30 3833 C 350.062 -1.75807 -1.08516 0
M  V30 3834 C 350.47 -0.50428 -1.82356 0
M  V30 3835 O 349.813 0.534451 -1.75754 0
M  V30 3836 C 349.875 -2.89423 -2.13248 0
M  V30 3837 C 349.539 -4.28504 -1.5885 0
M  V30 3838 C 350.536 -5.09536 -1.03289 0
M  V30 3839 C 348.221 -4.75034 -1.63243 0
M  V30 3840 C 350.215 -6.35206 -0.52845 0
M  V30 3841 C 347.902 -6.00672 -1.12411 0
M  V30 3842 C 348.9 -6.80592 -0.573062 0
M  V30 3843 O 348.588 -8.03867 -0.0723692 0
M  V30 3844 H 348.32 -0.590633 -0.328829 0
M  V30 3845 H 350.874 -2.01819 -0.381868 0
M  V30 3846 H 349.104 -2.5897 -2.87178 0
M  V30 3847 H 350.793 -2.98921 -2.74592 0
M  V30 3848 H 351.559 -4.74745 -0.99206 0
M  V30 3849 H 347.438 -4.12875 -2.05074 0
M  V30 3850 H 350.982 -6.97532 -0.0976774 0
M  V30 3851 H 346.879 -6.34955 -1.162 0
M  V30 3852 H 347.647 -8.18283 -0.188258 0
M  V30 3853 N 350.31 0.590341 -1.46126 0
M  V30 3854 C 351.538 1.37504 -1.54597 0
M  V30 3855 C 351.953 1.87897 -0.184447 0
M  V30 3856 O 351.31 1.63192 0.816984 0
M  V30 3857 C 351.361 2.56779 -2.54454 0
M  V30 3858 O 351.082 2.08476 -3.85317 0
M  V30 3859 C 352.583 3.49427 -2.72792 0
M  V30 3860 H 349.803 0.420325 -0.523037 0
M  V30 3861 H 352.347 0.718383 -1.91467 0
M  V30 3862 H 350.502 3.1845 -2.20609 0
M  V30 3863 H 350.916 2.86097 -4.396 0
M  V30 3864 H 352.39 4.29619 -3.466 0
M  V30 3865 H 352.867 4.00876 -1.79429 0
M  V30 3866 H 353.473 2.93598 -3.07702 0
M  V30 3867 N 351.788 1.33704 0.83433 0
M  V30 3868 C 352.718 1.26967 1.95963 0
M  V30 3869 C 353.699 0.149337 1.69443 0
M  V30 3870 O 354.884 0.339852 1.91203 0
M  V30 3871 C 352.014 1.01275 3.32206 0
M  V30 3872 C 350.968 2.09652 3.73136 0
M  V30 3873 C 350.294 1.69166 5.07235 0
M  V30 3874 C 351.594 3.51372 3.86439 0
M  V30 3875 H 353.288 2.2112 2.01857 0
M  V30 3876 H 350.834 1.06447 0.969793 0
M  V30 3877 H 352.787 0.952106 4.10503 0
M  V30 3878 H 351.511 0.0356203 3.26581 0
M  V30 3879 H 350.17 2.14766 2.97104 0
M  V30 3880 H 349.818 0.701437 4.98085 0
M  V30 3881 H 349.518 2.41694 5.35591 0
M  V30 3882 H 351.042 1.64576 5.88003 0
M  V30 3883 H 352.456 3.48734 4.55036 0
M  V30 3884 H 350.853 4.22425 4.26236 0
M  V30 3885 H 351.923 3.89546 2.88759 0
M  V30 3886 N 353.266 -1.05314 1.17247 0
M  V30 3887 C 354.543 -1.75184 0.87005 0
M  V30 3888 C 354.923 -2.01481 -0.629965 0
M  V30 3889 O 354.271 -1.64988 -1.58086 0
M  V30 3890 C 354.481 -3.04594 1.70363 0
M  V30 3891 C 355.829 -3.78567 1.92281 0
M  V30 3892 O 356.853 -3.14461 1.67311 0
M  V30 3893 O 355.712 -4.93755 2.3424 0
M  V30 3894 H 352.806 -0.761729 0.322021 0
M  V30 3895 H 355.352 -1.11493 1.27935 0
M  V30 3896 H 354.124 -2.81201 2.72106 0
M  V30 3897 H 353.747 -3.76022 1.29202 0
M  V30 3898 N 354.744 -0.972509 -1.24016 0
M  V30 3899 C 356.16 -0.679827 -1.44397 0
M  V30 3900 C 356.36 0.756716 -1.86751 0
M  V30 3901 O 355.416 1.53007 -2.00861 0
M  V30 3902 C 356.729 -1.66803 -2.50195 0
M  V30 3903 C 358.277 -1.68119 -2.64017 0
M  V30 3904 C 358.752 -2.65748 -3.73017 0
M  V30 3905 N 360.243 -2.64219 -3.8045 0
M  V30 3906 C 360.978 -3.36433 -4.64328 0
M  V30 3907 N 360.474 -4.1818 -5.52356 0
M  V30 3908 N 362.267 -3.25235 -4.58453 0
M  V30 3909 H 354.418 -1.90059 -0.948228 0
M  V30 3910 H 356.681 -0.818527 -0.478245 0
M  V30 3911 H 356.387 -2.69498 -2.25973 0
M  V30 3912 H 356.261 -1.4446 -3.48441 0
M  V30 3913 H 358.648 -0.661319 -2.87594 0
M  V30 3914 H 358.729 -1.94525 -1.66113 0
M  V30 3915 H 358.373 -3.67872 -3.50189 0
M  V30 3916 H 358.303 -2.36619 -4.70446 0
M  V30 3917 H 360.794 -2.04887 -3.17537 0
M  V30 3918 H 361.107 -4.70157 -6.13329 0
M  V30 3919 H 359.452 -4.22273 -5.52006 0
M  V30 3920 H 362.643 -2.60829 -3.88698 0
M  V30 3921 H 362.816 -3.81776 -5.23594 0
M  V30 3922 N 356.222 1.38976 -0.743202 0
M  V30 3923 C 357.185 2.28901 -0.117014 0
M  V30 3924 C 358.185 1.46698 0.658503 0
M  V30 3925 O 359.375 1.67274 0.486305 0
M  V30 3926 C 356.507 3.30309 0.84315 0
M  V30 3927 H 357.7 2.8578 -0.909373 0
M  V30 3928 H 355.253 1.47761 -0.509547 0
M  V30 3929 H 355.988 2.785 1.66157 0
M  V30 3930 H 355.773 3.91029 0.289594 0
M  V30 3931 H 357.263 3.97577 1.2776 0
M  V30 3932 N 357.7 0.491464 1.49741 0
M  V30 3933 C 359.111 0.0413169 1.86654 0
M  V30 3934 C 359.462 -1.36985 1.40462 0
M  V30 3935 O 358.587 -2.01917 0.778354 0
M  V30 3936 C 359.182 0.0682023 3.38731 0
M  V30 3937 C 357.741 -0.32656 3.74981 0
M  V30 3938 C 356.888 0.444888 2.73708 0
M  V30 3939 H 359.839 0.704733 1.42194 0
M  V30 3940 H 359.86 -0.729322 3.73445 0
M  V30 3941 H 359.372 1.09539 3.72321 0
M  V30 3942 H 357.473 -1.35734 3.46997 0
M  V30 3943 H 357.586 -0.013741 4.79098 0
M  V30 3944 H 355.95 -0.104062 2.54487 0
M  V30 3945 H 356.733 1.47197 3.10142 0
M  V30 3946 N 359.178 -1.55987 0.224894 0
M  V30 3947 C 360.088 -2.24066 -0.69511 0
M  V30 3948 C 361.104 -1.24939 -1.21104 0
M  V30 3949 O 362.28 -1.5776 -1.25195 0
M  V30 3950 C 359.345 -2.90983 -1.88493 0
M  V30 3951 C 358.406 -4.05462 -1.41064 0
M  V30 3952 C 357.639 -4.69179 -2.54375 0
M  V30 3953 O 357.862 -4.31895 -3.72589 0
M  V30 3954 O 356.796 -5.58108 -2.25386 0
M  V30 3955 H 360.622 -3.03353 -0.145149 0
M  V30 3956 H 358.207 -1.49399 -0.00569476 0
M  V30 3957 H 360.089 -3.33209 -2.57972 0
M  V30 3958 H 358.764 -2.14653 -2.42293 0
M  V30 3959 H 357.671 -3.67798 -0.683774 0
M  V30 3960 H 359.004 -4.83545 -0.918985 0
M  V30 3961 N 360.656 0.0484629 -1.57525 0
M  V30 3962 C 361.619 1.03956 -2.04269 0
M  V30 3963 C 362.619 1.30211 -0.943496 0
M  V30 3964 O 363.809 1.25539 -1.20771 0
M  V30 3965 C 360.941 2.37742 -2.44319 0
M  V30 3966 H 362.134 0.636182 -2.93075 0
M  V30 3967 H 359.687 0.294811 -1.53494 0
M  V30 3968 H 360.422 2.82866 -1.5861 0
M  V30 3969 H 360.207 2.20021 -3.24551 0
M  V30 3970 H 361.697 3.08936 -2.80978 0
M  V30 3971 N 362.134 1.5431 0.320358 0
M  V30 3972 C 363.38 1.73859 1.05568 0
M  V30 3973 C 363.735 0.507807 1.85578 0
M  V30 3974 O 363.028 -0.499789 1.84967 0
M  V30 3975 C 363.222 2.95639 2.00828 0
M  V30 3976 C 363.051 4.30444 1.30186 0
M  V30 3977 C 361.821 4.94544 1.03703 0
M  V30 3978 C 364.019 5.0929 0.716138 0
M  V30 3979 N 362.001 6.13172 0.298846 0
M  V30 3980 C 363.372 6.19903 0.109729 0
M  V30 3981 C 365.427 4.94034 0.619269 0
M  V30 3982 C 364.13 7.16924 -0.584153 0
M  V30 3983 C 366.156 5.91369 -0.0609184 0
M  V30 3984 C 365.518 7.01336 -0.656258 0
M  V30 3985 H 361.617 0.688988 0.36989 0
M  V30 3986 H 364.201 1.9177 0.336494 0
M  V30 3987 H 362.372 2.79188 2.70016 0
M  V30 3988 H 364.104 3.03802 2.6737 0
M  V30 3989 H 360.859 4.54536 1.33019 0
M  V30 3990 H 361.283 6.76977 -0.0561964 0
M  V30 3991 H 365.925 4.0916 1.06526 0
M  V30 3992 H 363.643 8.01354 -1.04197 0
M  V30 3993 H 367.229 5.81642 -0.135552 0
M  V30 3994 H 366.109 7.75359 -1.17423 0
M  V30 3995 N 363.613 -0.582584 1.46437 0
M  V30 3996 C 364.89 -1.34276 1.4223 0
M  V30 3997 C 365.27 -2.10835 0.10583 0
M  V30 3998 O 364.618 -2.09485 -0.912596 0
M  V30 3999 C 364.828 -2.26865 2.65204 0
M  V30 4000 C 366.176 -2.88691 3.11356 0
M  V30 4001 O 367.2 -2.37178 2.65753 0
M  V30 4002 O 366.059 -3.82255 3.90568 0
M  V30 4003 H 363.153 -0.603326 0.565621 0
M  V30 4004 H 365.699 -0.603591 1.58603 0
M  V30 4005 H 364.471 -1.69724 3.52576 0
M  V30 4006 H 364.094 -3.08122 2.5129 0
M  V30 4007 N 365.091 -1.34144 -0.827227 0
M  V30 4008 C 366.321 -1.29138 -1.61267 0
M  V30 4009 C 366.729 0.137597 -1.88699 0
M  V30 4010 O 366.072 1.09379 -1.47587 0
M  V30 4011 C 366.134 -2.0097 -2.9808 0
M  V30 4012 C 365.798 -3.50242 -2.93563 0
M  V30 4013 C 366.795 -4.4523 -2.68452 0
M  V30 4014 C 364.48 -3.92592 -3.13331 0
M  V30 4015 C 366.474 -5.80542 -2.63154 0
M  V30 4016 C 364.161 -5.28005 -3.07658 0
M  V30 4017 C 365.159 -6.21792 -2.82602 0
M  V30 4018 O 364.847 -7.54723 -2.76853 0
M  V30 4019 H 364.579 -0.445851 -0.508127 0
M  V30 4020 H 367.133 -1.77263 -1.03763 0
M  V30 4021 H 365.363 -1.47451 -3.57484 0
M  V30 4022 H 367.052 -1.89309 -3.5905 0
M  V30 4023 H 367.818 -4.13832 -2.52919 0
M  V30 4024 H 363.697 -3.19994 -3.31851 0
M  V30 4025 H 367.241 -6.53717 -2.43516 0
M  V30 4026 H 363.138 -5.59023 -3.22743 0
M  V30 4027 H 363.906 -7.64409 -2.92611 0
M  V30 4028 N 366.569 1.04691 -1.17803 0
M  V30 4029 C 367.817 1.7743 -0.967617 0
M  V30 4030 C 368.138 1.88359 0.504574 0
M  V30 4031 O 367.408 1.40402 1.36617 0
M  V30 4032 H 365.988 0.657242 -0.355024 0
M  V30 4033 H 368.65 1.2638 -1.48371 0
M  V30 4034 H 367.746 2.78924 -1.40027 0
M  V30 4035 N 368.047 0.979072 1.23499 0
M  V30 4036 C 368.979 0.476271 2.24197 0
M  V30 4037 C 369.992 -0.421166 1.57258 0
M  V30 4038 O 371.181 -0.225515 1.7707 0
M  V30 4039 C 368.281 -0.330503 3.37285 0
M  V30 4040 C 367.454 0.559744 4.33804 0
M  V30 4041 C 366.513 -0.192954 5.25846 0
M  V30 4042 O 365.539 0.416978 5.67671 0
M  V30 4043 N 366.741 -1.47932 5.61334 0
M  V30 4044 H 369.506 1.34211 2.67969 0
M  V30 4045 H 367.067 0.852189 1.37657 0
M  V30 4046 H 369.059 -0.842361 3.95836 0
M  V30 4047 H 367.629 -1.09734 2.92707 0
M  V30 4048 H 366.849 1.25245 3.73775 0
M  V30 4049 H 368.137 1.1665 4.95248 0
M  V30 4050 H 367.535 -1.9964 5.29302 0
M  V30 4051 H 366.092 -1.93664 6.22364 0
M  V30 4052 N 369.525 -1.3858 0.750561 0
M  V30 4053 C 370.773 -1.99789 0.30477 0
M  V30 4054 C 371.094 -1.59874 -1.11649 0
M  V30 4055 O 370.364 -0.85417 -1.76297 0
M  V30 4056 H 368.944 -0.738902 0.109694 0
M  V30 4057 H 371.606 -1.69391 0.963983 0
M  V30 4058 H 370.702 -3.09952 0.365499 0
M  V30 4059 N 371.003 -0.499398 -1.49478 0
M  V30 4060 C 372.25 0.0456899 -2.02448 0
M  V30 4061 C 372.578 1.37142 -1.37921 0
M  V30 4062 O 371.833 1.89111 -0.503544 0
M  V30 4063 C 372.132 0.248424 -3.56536 0
M  V30 4064 C 371.798 -0.999107 -4.39692 0
M  V30 4065 C 370.46 -1.34108 -4.62135 0
M  V30 4066 C 372.812 -1.82842 -4.88076 0
M  V30 4067 C 370.14 -2.51191 -5.30208 0
M  V30 4068 C 372.492 -2.99076 -5.57437 0
M  V30 4069 C 371.156 -3.33655 -5.78127 0
M  V30 4070 H 370.426 0.0167191 -0.740811 0
M  V30 4071 H 373.073 -0.65923 -1.79795 0
M  V30 4072 H 371.378 1.03586 -3.77859 0
M  V30 4073 H 373.075 0.684605 -3.95113 0
M  V30 4074 H 369.665 -0.722729 -4.22463 0
M  V30 4075 H 373.849 -1.57737 -4.70566 0
M  V30 4076 H 369.105 -2.78221 -5.44429 0
M  V30 4077 H 373.279 -3.63664 -5.93904 0
M  V30 4078 H 370.906 -4.24483 -6.30649 0
M  V30 4079 N 372.481 1.55866 -0.233164 0
M  V30 4080 C 373.727 1.98897 0.395959 0
M  V30 4081 C 374.06 1.12091 1.58585 0
M  V30 4082 O 373.335 0.181182 1.93654 0
M  V30 4083 C 373.618 3.50658 0.819224 0
M  V30 4084 C 373.471 4.48233 -0.375109 0
M  V30 4085 C 374.79 4.07135 1.67121 0
M  V30 4086 H 371.909 0.723102 0.142451 0
M  V30 4087 H 374.551 1.87082 -0.331725 0
M  V30 4088 H 372.701 3.60857 1.43925 0
M  V30 4089 H 374.373 4.50031 -1.01341 0
M  V30 4090 H 372.616 4.21624 -1.02058 0
M  V30 4091 H 373.287 5.51988 -0.0358328 0
M  V30 4092 H 375.763 3.99952 1.14795 0
M  V30 4093 H 374.639 5.13615 1.93625 0
M  V30 4094 H 374.9 3.54736 2.63846 0
M  V30 4095 N 373.959 -0.0401083 1.57549 0
M  V30 4096 C 374.907 -1.06264 2.06908 0
M  V30 4097 C 375.901 -1.38132 0.980608 0
M  V30 4098 O 377.107 -1.37167 1.16556 0
M  V30 4099 H 373.482 -0.360166 0.660139 0
M  V30 4100 H 375.453 -0.620445 2.91878 0
M  V30 4101 C 374.202 -2.35846 2.55483 0
M  V30 4102 H 373.525 -2.12183 3.38849 0
M  V30 4103 H 374.965 -3.05765 2.93741 0
M  V30 4104 C 373.424 -3.0404 1.45126 0
M  V30 4105 O 373.954 -3.93424 0.811216 0
M  V30 4106 N 372.16 -2.65184 1.18852 0
M  V30 4107 H 371.707 -1.92584 1.71083 0
M  V30 4108 H 371.665 -3.1113 0.452244 0
M  V30 4109 N 375.437 -1.54477 -0.31217 0
M  V30 4110 C 376.347 -1.87695 -1.4074 0
M  V30 4111 C 377.363 -0.769975 -1.56036 0
M  V30 4112 O 378.539 -1.06537 -1.70915 0
M  V30 4113 C 375.604 -2.10755 -2.75287 0
M  V30 4114 C 374.665 -3.34514 -2.69071 0
M  V30 4115 C 373.898 -3.56465 -3.97201 0
M  V30 4116 O 374.121 -2.81637 -4.96021 0
M  V30 4117 O 373.055 -4.49964 -3.9977 0
M  V30 4118 H 376.881 -2.80849 -1.15574 0
M  V30 4119 H 374.466 -1.40526 -0.507228 0
M  V30 4120 H 376.348 -2.27188 -3.54913 0
M  V30 4121 H 375.023 -1.20788 -3.0032 0
M  V30 4122 H 373.93 -3.23456 -1.87955 0
M  V30 4123 H 375.263 -4.24575 -2.48992 0
M  V30 4124 N 376.915 0.57481 -1.46744 0
M  V30 4125 C 377.825 1.711 -1.60505 0
M  V30 4126 C 378.841 1.67008 -0.488307 0
M  V30 4127 O 380.017 1.86774 -0.753495 0
M  V30 4128 C 377.082 3.07608 -1.59932 0
M  V30 4129 C 376.143 3.22904 -2.82898 0
M  V30 4130 C 375.376 4.529 -2.82343 0
M  V30 4131 O 375.599 5.37278 -1.91542 0
M  V30 4132 O 374.533 4.71611 -3.73987 0
M  V30 4133 H 378.359 1.62436 -2.56609 0
M  V30 4134 H 375.944 0.742779 -1.29627 0
M  V30 4135 H 377.826 3.88877 -1.62336 0
M  V30 4136 H 376.501 3.16692 -0.669898 0
M  V30 4137 H 375.408 2.41099 -2.86046 0
M  V30 4138 H 376.741 3.18715 -3.75076 0
M  V30 4139 N 378.394 1.34581 0.820102 0
M  V30 4140 C 379.327 1.20735 1.93644 0
M  V30 4141 C 380.305 0.0983343 1.62302 0
M  V30 4142 O 381.489 0.263997 1.86642 0
M  V30 4143 C 378.616 0.856037 3.27704 0
M  V30 4144 C 377.662 1.97521 3.78005 0
M  V30 4145 S 378.495 3.58906 3.97425 0
M  V30 4146 C 379.651 3.25822 5.34407 0
M  V30 4147 H 379.884 2.15231 2.05093 0
M  V30 4148 H 377.417 1.1964 0.97599 0
M  V30 4149 H 379.375 0.660133 4.05157 0
M  V30 4150 H 378.036 -0.0706253 3.14021 0
M  V30 4151 H 377.229 1.68321 4.75062 0
M  V30 4152 H 376.831 2.12875 3.07507 0
M  V30 4153 H 379.123 2.77812 6.17922 0
M  V30 4154 H 380.066 4.22029 5.68592 0
M  V30 4155 H 380.474 2.61932 5.00052 0
M  V30 4156 N 379.872 -1.04064 1.18357 0
M  V30 4157 C 381.121 -1.76662 0.973313 0
M  V30 4158 C 381.434 -1.89154 -0.497991 0
M  V30 4159 O 382.64 -2.58606 -0.826762 0
M  V30 4160 C 381.096 -3.17624 1.69242 0
M  V30 4161 C 380.704 -3.13225 3.20303 0
M  V30 4162 C 382.448 -3.946 1.56497 0
M  V30 4163 C 380.355 -4.49046 3.84853 0
M  V30 4164 H 379.285 -0.662214 0.36054 0
M  V30 4165 H 381.936 -1.16553 1.41731 0
M  V30 4166 H 380.318 -3.78129 1.1762 0
M  V30 4167 H 381.492 -2.62172 3.78949 0
M  V30 4168 H 379.807 -2.49749 3.33189 0
M  V30 4169 H 382.404 -4.95042 2.02084 0
M  V30 4170 H 382.747 -4.13074 0.517243 0
M  V30 4171 H 383.28 -3.4067 2.05399 0
M  V30 4172 H 380.019 -4.35777 4.89672 0
M  V30 4173 H 379.539 -5.00203 3.30994 0
M  V30 4174 H 381.218 -5.17961 3.87718 0
M  V30 4175 N 381.35 -0.985608 -1.22978 0
M  V30 4176 C 382.766 -0.695104 -1.43668 0
M  V30 4177 C 382.966 0.736866 -1.87543 0
M  V30 4178 O 382.022 1.50868 -2.02473 0
M  V30 4179 C 383.335 -1.69447 -2.48412 0
M  V30 4180 C 384.883 -1.70909 -2.62219 0
M  V30 4181 C 385.358 -2.6969 -3.70178 0
M  V30 4182 N 386.849 -2.6824 -3.77626 0
M  V30 4183 C 387.584 -3.41339 -4.60733 0
M  V30 4184 N 387.08 -4.24015 -5.4789 0
M  V30 4185 N 388.873 -3.30079 -4.54977 0
M  V30 4186 H 381.024 -1.91054 -0.928016 0
M  V30 4187 H 383.287 -0.823553 -0.469536 0
M  V30 4188 H 382.993 -2.7188 -2.23102 0
M  V30 4189 H 382.867 -1.48147 -3.46889 0
M  V30 4190 H 385.254 -0.691785 -2.86877 0
M  V30 4191 H 385.335 -1.96276 -1.6404 0
M  V30 4192 H 384.979 -3.71566 -3.46268 0
M  V30 4193 H 384.909 -2.41595 -4.67909 0
M  V30 4194 H 387.4 -2.08243 -3.15346 0
M  V30 4195 H 387.713 -4.76636 -6.08308 0
M  V30 4196 H 386.058 -4.28104 -5.47496 0
M  V30 4197 H 389.249 -2.64937 -3.85909 0
M  V30 4198 H 389.422 -3.87308 -5.19516 0
M  V30 4199 N 382.828 1.3818 -0.7579 0
M  V30 4200 C 384.105 1.94106 -0.241306 0
M  V30 4201 C 384.485 1.69282 1.26122 0
M  V30 4202 O 383.833 1.03378 2.03777 0
M  V30 4203 C 384.043 3.43809 -0.59967 0
M  V30 4204 C 385.391 4.20868 -0.561717 0
M  V30 4205 O 386.415 3.5211 -0.538222 0
M  V30 4206 O 385.274 5.43451 -0.576478 0
M  V30 4207 H 382.368 0.825376 -0.0518042 0
M  V30 4208 H 384.914 1.47548 -0.838315 0
M  V30 4209 H 383.686 3.55403 -1.6372 0
M  V30 4210 H 383.309 3.97592 0.0251197 0
M  V30 4211 N 384.306 0.507319 1.49211 0
M  V30 4212 C 385.256 -0.287112 2.26185 0
M  V30 4213 C 386.24 -0.929983 1.31302 0
M  V30 4214 O 387.432 -0.836538 1.55984 0
M  V30 4215 C 384.561 -1.34718 3.15763 0
M  V30 4216 C 383.647 -0.710235 4.18111 0
M  V30 4217 N 384.038 0.190836 5.0544 0
M  V30 4218 C 382.336 -0.97009 4.35322 0
M  V30 4219 C 383.037 0.55606 5.79036 0
M  V30 4220 N 382.013 -0.0775232 5.43545 0
M  V30 4221 H 385.815 0.406445 2.91076 0
M  V30 4222 H 383.329 0.323814 1.59139 0
M  V30 4223 H 385.326 -1.92982 3.69545 0
M  V30 4224 H 383.986 -2.04235 2.52424 0
M  V30 4225 H 384.997 0.562047 5.14841 0
M  V30 4226 H 381.674 -1.65753 3.83187 0
M  V30 4227 H 383.064 1.2936 6.5933 0
M  V30 4228 N 385.784 -1.5574 0.241426 0
M  V30 4229 C 386.714 -2.24133 -0.654722 0
M  V30 4230 C 387.695 -1.21974 -1.1856 0
M  V30 4231 O 388.88 -1.50612 -1.22595 0
M  V30 4232 C 386.01 -2.93659 -1.85423 0
M  V30 4233 C 384.964 -4.0246 -1.45636 0
M  V30 4234 C 384.29 -4.59383 -2.73626 0
M  V30 4235 C 385.59 -5.18468 -0.631506 0
M  V30 4236 H 387.284 -2.99281 -0.0844353 0
M  V30 4237 H 384.83 -1.43947 -0.0391707 0
M  V30 4238 H 386.783 -3.40203 -2.48676 0
M  V30 4239 H 385.507 -2.15991 -2.44981 0
M  V30 4240 H 384.166 -3.56676 -0.847202 0
M  V30 4241 H 383.814 -3.78422 -3.3137 0
M  V30 4242 H 383.514 -5.32826 -2.4773 0
M  V30 4243 H 385.038 -5.08658 -3.37786 0
M  V30 4244 H 386.452 -5.61272 -1.1682 0
M  V30 4245 H 384.849 -5.98266 -0.468831 0
M  V30 4246 H 385.919 -4.8358 0.357506 0
M  V30 4247 N 387.262 0.0317525 -1.57568 0
M  V30 4248 C 388.673 0.578692 -1.77505 0
M  V30 4249 C 389.024 1.75749 -0.872164 0
M  V30 4250 O 388.149 2.16298 -0.0663106 0
M  V30 4251 C 388.744 1.05658 -3.21904 0
M  V30 4252 C 387.303 1.54906 -3.43047 0
M  V30 4253 C 386.45 0.485939 -2.73009 0
M  V30 4254 H 389.401 -0.194475 -1.57504 0
M  V30 4255 H 389.422 1.92404 -3.28269 0
M  V30 4256 H 388.934 0.198422 -3.87592 0
M  V30 4257 H 387.035 2.42915 -2.82529 0
M  V30 4258 H 387.148 1.59841 -4.5165 0
M  V30 4259 H 385.512 0.940354 -2.36705 0
M  V30 4260 H 386.295 -0.362709 -3.41379 0
M  V30 4261 N 388.74 1.54641 0.303973 0
M  V30 4262 C 390.151 1.64811 0.877163 0
M  V30 4263 C 390.502 0.554838 1.88191 0
M  V30 4264 O 389.627 -0.309033 2.14182 0
M  V30 4265 C 390.222 2.9876 1.59775 0
M  V30 4266 C 388.781 3.11061 2.11938 0
M  V30 4267 C 387.928 2.60479 0.951097 0
M  V30 4268 H 390.879 1.58493 0.0810486 0
M  V30 4269 H 390.9 2.90017 2.46314 0
M  V30 4270 H 390.412 3.7831 0.866226 0
M  V30 4271 H 388.513 2.36225 2.88146 0
M  V30 4272 H 388.626 4.17171 2.35595 0
M  V30 4273 H 386.99 2.16859 1.33583 0
M  V30 4274 H 387.773 3.42504 0.233581 0
M  V30 4275 N 390.218 -0.567019 1.47046 0
M  V30 4276 C 391.629 -1.14916 1.47143 0
M  V30 4277 C 391.98 -1.94954 0.220767 0
M  V30 4278 O 391.105 -2.05602 -0.67505 0
M  V30 4279 C 391.7 -2.09069 2.666 0
M  V30 4280 C 390.259 -2.62575 2.69687 0
M  V30 4281 C 389.406 -1.38755 2.40088 0
M  V30 4282 H 392.357 -0.354126 1.54699 0
M  V30 4283 H 392.378 -2.92789 2.43011 0
M  V30 4284 H 391.89 -1.50789 3.57609 0
M  V30 4285 H 389.991 -3.24681 1.82792 0
M  V30 4286 H 390.104 -3.04239 3.70102 0
M  V30 4287 H 388.468 -1.69098 1.90468 0
M  V30 4288 H 389.251 -0.822822 3.33293 0
M  V30 4289 N 391.696 -1.35014 -0.812953 0
M  V30 4290 C 392.606 -1.2951 -1.95613 0
M  V30 4291 C 393.622 -0.20107 -1.72834 0
M  V30 4292 O 394.798 -0.42932 -1.96771 0
M  V30 4293 C 391.863 -1.06033 -3.30088 0
M  V30 4294 C 390.924 -2.24688 -3.65805 0
M  V30 4295 C 390.157 -2.02322 -4.93864 0
M  V30 4296 O 390.38 -0.986464 -5.61805 0
M  V30 4297 O 389.314 -2.89525 -5.27692 0
M  V30 4298 H 393.14 -2.25705 -2.03202 0
M  V30 4299 H 390.725 -1.15321 -0.949811 0
M  V30 4300 H 392.607 -0.94763 -4.10607 0
M  V30 4301 H 391.282 -0.128852 -3.23443 0
M  V30 4302 H 390.189 -2.41521 -2.85689 0
M  V30 4303 H 391.522 -3.16261 -3.77147 0
M  V30 4304 N 393.175 1.03435 -1.18907 0
M  V30 4305 C 394.085 2.15075 -0.937015 0
M  V30 4306 C 395.101 1.73706 0.101085 0
M  V30 4307 O 396.277 2.01232 -0.0822948 0
M  V30 4308 C 393.342 3.43458 -0.473057 0
M  V30 4309 C 392.403 3.99172 -1.57989 0
M  V30 4310 C 391.636 5.21427 -1.13797 0
M  V30 4311 O 391.859 5.704 0.000725941 0
M  V30 4312 O 390.793 5.69837 -1.9383 0
M  V30 4313 H 394.619 2.39198 -1.87131 0
M  V30 4314 H 392.204 1.13506 -0.971427 0
M  V30 4315 H 394.086 4.20811 -0.222702 0
M  V30 4316 H 392.761 3.20793 0.432869 0
M  V30 4317 H 391.668 3.23178 -1.88433 0
M  V30 4318 H 393.001 4.2619 -2.46217 0
M  V30 4319 N 394.653 0.992116 1.22453 0
M  V30 4320 C 395.563 0.55065 2.28046 0
M  V30 4321 C 396.579 -0.400189 1.69335 0
M  V30 4322 O 397.755 -0.267215 1.99619 0
M  V30 4323 C 394.82 -0.128496 3.46462 0
M  V30 4324 C 393.881 0.865208 4.20491 0
M  V30 4325 C 393.114 0.218377 5.33253 0
M  V30 4326 O 393.337 -0.987894 5.6178 0
M  V30 4327 O 392.271 0.922845 5.94783 0
M  V30 4328 H 396.097 1.4291 2.67975 0
M  V30 4329 H 393.682 0.760326 1.28606 0
M  V30 4330 H 395.564 -0.508947 4.18315 0
M  V30 4331 H 394.239 -0.981526 3.0846 0
M  V30 4332 H 393.146 1.29658 3.50913 0
M  V30 4333 H 394.479 1.68741 4.62371 0
M  V30 4334 N 396.131 -1.37776 0.765217 0
M  V30 4335 C 397.542 -1.82521 0.392819 0
M  V30 4336 C 397.893 -1.63789 -1.08017 0
M  V30 4337 O 397.018 -1.14542 -1.83601 0
M  V30 4338 C 397.613 -3.31358 0.706214 0
M  V30 4339 C 396.172 -3.74406 0.386952 0
M  V30 4340 C 395.319 -2.60394 0.953422 0
M  V30 4341 H 398.27 -1.2634 0.960412 0
M  V30 4342 H 398.291 -3.80498 -0.0114706 0
M  V30 4343 H 397.803 -3.44959 1.77833 0
M  V30 4344 H 395.904 -3.66377 -0.678112 0
M  V30 4345 H 396.017 -4.70749 0.890636 0
M  V30 4346 H 394.381 -2.51878 0.378064 0
M  V30 4347 H 395.164 -2.76791 2.03081 0
M  V30 4348 N 397.609 -0.515225 -1.4894 0
M  V30 4349 C 398.539 0.244628 -2.32215 0
M  V30 4350 C 399.52 0.949136 -1.41157 0
M  V30 4351 O 400.705 0.937783 -1.70057 0
M  V30 4352 C 397.835 1.30096 -3.22013 0
M  V30 4353 C 396.789 0.715486 -4.21977 0
M  V30 4354 C 396.115 1.87339 -5.00808 0
M  V30 4355 C 397.415 -0.302982 -5.2142 0
M  V30 4356 H 399.109 -0.450501 -2.95991 0
M  V30 4357 H 396.655 -0.218098 -1.42339 0
M  V30 4358 H 398.608 1.84037 -3.79089 0
M  V30 4359 H 397.332 2.02547 -2.56207 0
M  V30 4360 H 395.991 0.197715 -3.66066 0
M  V30 4361 H 395.639 2.58592 -4.31438 0
M  V30 4362 H 395.339 1.48764 -5.68457 0
M  V30 4363 H 396.863 2.41686 -5.60732 0
M  V30 4364 H 398.277 0.148802 -5.73107 0
M  V30 4365 H 396.674 -0.60532 -5.97039 0
M  V30 4366 H 397.744 -1.21395 -4.69459 0
M  V30 4367 N 399.087 1.5561 -0.249682 0
M  V30 4368 C 400.333 1.99306 0.374841 0
M  V30 4369 C 400.666 1.13767 1.57387 0
M  V30 4370 O 399.941 0.201711 1.93451 0
M  V30 4371 C 400.224 3.51507 0.781986 0
M  V30 4372 C 400.077 4.4781 -0.422629 0
M  V30 4373 C 401.396 4.08884 1.62793 0
M  V30 4374 H 398.515 0.724572 0.134773 0
M  V30 4375 H 401.157 1.86719 -0.351549 0
M  V30 4376 H 399.307 3.62363 1.4009 0
M  V30 4377 H 400.979 4.48931 -1.06108 0
M  V30 4378 H 399.222 4.20518 -1.06524 0
M  V30 4379 H 399.893 5.51919 -0.0943766 0
M  V30 4380 H 402.369 4.01147 1.10547 0
M  V30 4381 H 401.245 5.1564 1.88166 0
M  V30 4382 H 401.506 3.57515 2.60068 0
M  V30 4383 N 400.565 -0.0233959 1.57583 0
M  V30 4384 C 401.495 -1.02162 2.09965 0
M  V30 4385 C 402.476 -1.3735 1.00344 0
M  V30 4386 O 403.661 -1.46135 1.27899 0
M  V30 4387 C 400.791 -2.32081 2.58371 0
M  V30 4388 C 399.745 -2.1112 3.72307 0
M  V30 4389 C 399.071 -3.46848 4.06941 0
M  V30 4390 C 400.371 -1.49276 5.00514 0
M  V30 4391 H 402.065 -0.585557 2.93618 0
M  V30 4392 H 399.611 -0.280218 1.41247 0
M  V30 4393 H 401.564 -3.02249 2.93639 0
M  V30 4394 H 400.288 -2.77758 1.71808 0
M  V30 4395 H 398.947 -1.43384 3.37397 0
M  V30 4396 H 398.595 -3.90184 3.17436 0
M  V30 4397 H 398.295 -3.33646 4.83688 0
M  V30 4398 H 399.819 -4.18369 4.44747 0
M  V30 4399 H 401.233 -2.09368 5.33702 0
M  V30 4400 H 399.63 -1.46632 5.8191 0
M  V30 4401 H 400.7 -0.459217 4.82721 0
M  V30 4402 N 402.043 -1.548 -0.295768 0
M  V30 4403 C 402.976 -1.81003 -1.38972 0
M  V30 4404 C 403.954 -0.661544 -1.48534 0
M  V30 4405 O 405.138 -0.902074 -1.65514 0
M  V30 4406 C 402.265 -1.95141 -2.76835 0
M  V30 4407 C 401.311 -3.17592 -2.84671 0
M  V30 4408 S 402.144 -4.75531 -2.46232 0
M  V30 4409 C 403.3 -4.92613 -3.86114 0
M  V30 4410 H 403.533 -2.73507 -1.16537 0
M  V30 4411 H 401.066 -1.46278 -0.494168 0
M  V30 4412 H 403.024 -2.03972 -3.56238 0
M  V30 4413 H 401.685 -1.03565 -2.96535 0
M  V30 4414 H 400.878 -3.24303 -3.85803 0
M  V30 4415 H 400.48 -3.07235 -2.13267 0
M  V30 4416 H 402.772 -4.76957 -4.81164 0
M  V30 4417 H 403.715 -5.94698 -3.8437 0
M  V30 4418 H 404.123 -4.2073 -3.76359 0
M  V30 4419 N 403.521 0.559213 -1.47345 0
M  V30 4420 C 404.761 1.32728 -1.55444 0
M  V30 4421 C 405.125 1.90838 -0.210895 0
M  V30 4422 O 406.326 2.68282 -0.166719 0
M  V30 4423 C 404.597 2.4092 -2.63993 0
M  V30 4424 S 406.156 3.2784 -2.91661 0
M  V30 4425 H 402.974 0.451883 -0.548929 0
M  V30 4426 H 405.576 0.640404 -1.84714 0
M  V30 4427 H 404.28 1.9666 -3.60212 0
M  V30 4428 H 403.811 3.14351 -2.36531 0
M  V30 4429 H 405.826 4.40341 -2.28722 0
M  V30 4430 N 404.999 1.35443 0.805782 0
M  V30 4431 C 406.247 1.28507 1.55982 0
M  V30 4432 C 406.568 -0.140046 1.94496 0
M  V30 4433 O 405.838 -1.07666 1.63661 0
M  V30 4434 H 404.418 0.472676 0.578434 0
M  V30 4435 H 407.08 1.69555 0.961098 0
M  V30 4436 H 406.176 1.90148 2.47488 0
M  V30 4437 N 406.477 -1.02803 1.19454 0
M  V30 4438 C 407.888 -1.57667 0.999899 0
M  V30 4439 C 408.239 -1.91041 -0.446956 0
M  V30 4440 O 407.364 -1.70978 -1.32648 0
M  V30 4441 C 407.959 -2.86477 1.80877 0
M  V30 4442 C 406.518 -3.37911 1.65811 0
M  V30 4443 C 405.665 -2.11343 1.79526 0
M  V30 4444 H 408.616 -0.853214 1.33813 0
M  V30 4445 H 408.637 -3.57408 1.30536 0
M  V30 4446 H 408.149 -2.62155 2.86175 0
M  V30 4447 H 406.25 -3.67218 0.63102 0
M  V30 4448 H 406.363 -4.10885 2.46395 0
M  V30 4449 H 404.727 -2.23254 1.22596 0
M  V30 4450 H 405.51 -1.89461 2.86285 0
M  V30 4451 N 407.956 -0.998596 -1.21925 0
M  V30 4452 C 409.367 -0.711939 -1.72593 0
M  V30 4453 C 409.718 0.770842 -1.80423 0
M  V30 4454 O 408.843 1.60237 -1.4544 0
M  V30 4455 C 409.438 -1.28567 -3.13458 0
M  V30 4456 C 407.997 -1.04828 -3.61508 0
M  V30 4457 C 407.144 -1.4024 -2.39224 0
M  V30 4458 H 410.095 -1.17027 -1.07193 0
M  V30 4459 H 410.116 -0.667098 -3.74607 0
M  V30 4460 H 409.628 -2.36486 -3.07727 0
M  V30 4461 H 407.729 0.0140383 -3.72597 0
M  V30 4462 H 407.842 -1.71566 -4.47328 0
M  V30 4463 H 406.206 -0.821077 -2.41103 0
M  V30 4464 H 406.989 -2.49176 -2.36149 0
M  V30 4465 N 409.434 1.37368 -0.772513 0
M  V30 4466 C 410.845 1.8231 -0.402493 0
M  V30 4467 C 411.196 1.6436 1.07146 0
M  V30 4468 O 410.321 1.15514 1.82991 0
M  V30 4469 C 410.916 3.30979 -0.723776 0
M  V30 4470 C 409.475 3.74195 -0.406802 0
M  V30 4471 C 408.622 2.59885 -0.967218 0
M  V30 4472 H 411.573 1.25829 -0.967099 0
M  V30 4473 H 411.594 3.80499 -0.00870832 0
M  V30 4474 H 411.106 3.44011 -1.7966 0
M  V30 4475 H 409.207 3.66732 0.658673 0
M  V30 4476 H 409.32 4.7027 -0.915588 0
M  V30 4477 H 407.684 2.51674 -0.391416 0
M  V30 4478 H 408.467 2.7571 -2.04546 0
M  V30 4479 N 410.912 0.523116 1.48665 0
M  V30 4480 C 411.845 -0.290518 2.26343 0
M  V30 4481 C 412.823 -0.950913 1.31895 0
M  V30 4482 O 414.007 -0.976662 1.61225 0
M  V30 4483 C 411.134 -1.41088 3.07915 0
M  V30 4484 C 410.18 -0.862597 4.17686 0
M  V30 4485 S 411.013 0.264135 5.34848 0
M  V30 4486 C 412.169 -0.858864 6.19979 0
M  V30 4487 H 412.402 0.368726 2.95005 0
M  V30 4488 H 409.935 0.30878 1.51281 0
M  V30 4489 H 411.893 -2.0527 3.55492 0
M  V30 4490 H 410.554 -2.04182 2.38681 0
M  V30 4491 H 409.747 -1.70287 4.74361 0
M  V30 4492 H 409.349 -0.297595 3.72814 0
M  V30 4493 H 411.641 -1.7591 6.54264 0
M  V30 4494 H 412.584 -0.330244 7.07329 0
M  V30 4495 H 412.992 -1.13617 5.52948 0
M  V30 4496 N 412.39 -1.55475 0.257931 0
M  V30 4497 C 413.639 -1.98383 -0.364275 0
M  V30 4498 C 413.952 -1.14952 -1.58258 0
M  V30 4499 O 415.158 -1.47924 -2.27664 0
M  V30 4500 C 413.614 -3.53037 -0.699479 0
M  V30 4501 C 413.222 -4.45223 0.498046 0
M  V30 4502 C 414.966 -4.04575 -1.28526 0
M  V30 4503 C 412.873 -5.91238 0.138383 0
M  V30 4504 H 411.803 -0.740911 -0.13988 0
M  V30 4505 H 414.454 -1.79936 0.359883 0
M  V30 4506 H 412.836 -3.6722 -1.48207 0
M  V30 4507 H 414.01 -4.42803 1.27522 0
M  V30 4508 H 412.325 -4.04226 0.999503 0
M  V30 4509 H 414.922 -5.11196 -1.56788 0
M  V30 4510 H 415.265 -3.5258 -2.21344 0
M  V30 4511 H 415.798 -3.93762 -0.565337 0
M  V30 4512 H 412.537 -6.47294 1.03398 0
M  V30 4513 H 412.057 -5.96768 -0.602374 0
M  V30 4514 H 413.736 -6.46413 -0.27553 0
M  V30 4515 N 413.868 0.0150385 -1.57593 0
M  V30 4516 C 414.8 1.03912 -2.04291 0
M  V30 4517 C 415.813 1.31618 -0.958146 0
M  V30 4518 O 417.002 1.28859 -1.23522 0
M  V30 4519 C 414.102 2.37749 -2.41514 0
M  V30 4520 C 413.275 2.29198 -3.72541 0
M  V30 4521 C 412.334 3.45598 -3.96797 0
M  V30 4522 O 411.36 3.24461 -4.67668 0
M  V30 4523 N 412.562 4.67945 -3.43523 0
M  V30 4524 H 415.327 0.64099 -2.92765 0
M  V30 4525 H 412.888 0.20272 -1.60626 0
M  V30 4526 H 414.88 3.14364 -2.54867 0
M  V30 4527 H 413.45 2.69357 -1.58637 0
M  V30 4528 H 412.67 1.3759 -3.69408 0
M  V30 4529 H 413.958 2.20642 -4.5847 0
M  V30 4530 H 413.356 4.88017 -2.86104 0
M  V30 4531 H 411.913 5.41878 -3.62232 0
M  V30 4532 N 415.346 1.54954 0.287554 0
M  V30 4533 C 416.576 1.78622 1.03816 0
M  V30 4534 C 416.984 0.552451 1.80955 0
M  V30 4535 O 416.327 -0.487665 1.77109 0
M  V30 4536 C 416.389 2.94975 2.055 0
M  V30 4537 C 416.053 4.32565 1.47433 0
M  V30 4538 C 417.05 5.12096 0.897436 0
M  V30 4539 C 414.735 4.79195 1.50591 0
M  V30 4540 C 416.729 6.36383 0.359851 0
M  V30 4541 C 414.416 6.03441 0.964459 0
M  V30 4542 C 415.414 6.81872 0.392413 0
M  V30 4543 O 415.102 8.03777 -0.140788 0
M  V30 4544 H 414.834 0.599144 0.313053 0
M  V30 4545 H 417.388 2.02761 0.328225 0
M  V30 4546 H 415.618 2.66493 2.80211 0
M  V30 4547 H 417.307 3.06097 2.6657 0
M  V30 4548 H 418.073 4.77209 0.865841 0
M  V30 4549 H 413.952 4.18167 1.94055 0
M  V30 4550 H 417.496 6.97545 -0.0872951 0
M  V30 4551 H 413.393 6.37813 0.993246 0
M  V30 4552 H 414.161 8.18495 -0.0287617 0
M  V30 4553 N 416.824 -0.551391 1.4764 0
M  V30 4554 C 417.787 -1.64007 1.60107 0
M  V30 4555 C 418.787 -1.53601 0.47576 0
M  V30 4556 O 419.977 -1.57655 0.740988 0
M  V30 4557 C 417.109 -3.03569 1.55108 0
M  V30 4558 H 418.302 -1.543 2.57161 0
M  V30 4559 H 415.855 -0.771776 1.35917 0
M  V30 4560 H 416.59 -3.18804 0.594519 0
M  V30 4561 H 416.375 -3.12532 2.36783 0
M  V30 4562 H 417.865 -3.82762 1.66982 0
M  V30 4563 N 418.302 -1.35869 -0.798587 0
M  V30 4564 C 419.542 -1.30961 -1.56935 0
M  V30 4565 C 419.906 0.112404 -1.91671 0
M  V30 4566 O 421.107 0.285937 -2.67275 0
M  V30 4567 C 419.378 -2.19811 -2.81811 0
M  V30 4568 S 420.937 -2.32498 -3.72143 0
M  V30 4569 H 417.755 -0.465297 -0.537606 0
M  V30 4570 H 420.357 -1.71344 -0.941346 0
M  V30 4571 H 419.061 -3.22095 -2.54329 0
M  V30 4572 H 418.592 -1.80415 -3.49591 0
M  V30 4573 H 420.607 -1.5157 -4.72484 0
M  V30 4574 N 419.78 1.02168 -1.19998 0
M  V30 4575 C 420.71 2.12488 -0.96804 0
M  V30 4576 C 421.691 1.69799 0.101185 0
M  V30 4577 O 422.876 1.94121 -0.0552993 0
M  V30 4578 C 420.006 3.43479 -0.513776 0
M  V30 4579 C 418.96 3.99884 -1.52566 0
M  V30 4580 C 418.286 5.26582 -0.928214 0
M  V30 4581 C 419.586 4.33861 -2.90795 0
M  V30 4582 H 421.28 2.32149 -1.89069 0
M  V30 4583 H 418.826 1.11564 -0.910468 0
M  V30 4584 H 420.779 4.20036 -0.338774 0
M  V30 4585 H 419.503 3.23561 0.444493 0
M  V30 4586 H 418.162 3.25429 -1.68794 0
M  V30 4587 H 417.81 5.02986 0.0378289 0
M  V30 4588 H 417.51 5.65284 -1.60397 0
M  V30 4589 H 419.034 6.05799 -0.764167 0
M  V30 4590 H 420.448 5.01327 -2.78109 0
M  V30 4591 H 418.845 4.83664 -3.55231 0
M  V30 4592 H 419.915 3.42848 -3.42904 0
M  V30 4593 N 421.258 1.00505 1.21394 0
M  V30 4594 C 422.669 0.721082 1.72213 0
M  V30 4595 C 423.02 -0.761263 1.80829 0
M  V30 4596 O 422.145 -1.59464 1.46288 0
M  V30 4597 C 422.74 1.30228 3.12772 0
M  V30 4598 C 421.299 1.06743 3.60947 0
M  V30 4599 C 420.446 1.41507 2.38477 0
M  V30 4600 H 423.397 1.17594 1.06571 0
M  V30 4601 H 423.418 0.686955 3.74247 0
M  V30 4602 H 422.93 2.38115 3.06468 0
M  V30 4603 H 421.031 0.00572162 3.726 0
M  V30 4604 H 421.144 1.73936 4.46411 0
M  V30 4605 H 419.508 0.833852 2.40664 0
M  V30 4606 H 420.291 2.50424 2.34824 0
M  V30 4607 N 422.737 -1.36956 0.779787 0
M  V30 4608 C 423.685 -2.32053 0.15942 0
M  V30 4609 C 424.679 -1.55333 -0.675878 0
M  V30 4610 O 425.885 -1.70668 -0.57204 0
M  V30 4611 H 422.26 -0.751286 0.0327707 0
M  V30 4612 H 424.231 -2.8195 0.977078 0
M  V30 4613 C 422.98 -3.40602 -0.698977 0
M  V30 4614 H 422.303 -3.99746 -0.0655966 0
M  V30 4615 H 423.743 -4.09486 -1.09989 0
M  V30 4616 C 422.202 -2.81359 -1.85307 0
M  V30 4617 O 422.732 -2.72751 -2.94906 0
M  V30 4618 N 420.938 -2.38786 -1.65619 0
M  V30 4619 H 420.485 -2.45987 -0.764725 0
M  V30 4620 H 420.443 -1.99493 -2.43002 0
M  V30 4621 N 424.215 -0.530993 -1.48385 0
M  V30 4622 C 425.145 0.219985 -2.32461 0
M  V30 4623 C 426.126 0.934111 -1.42156 0
M  V30 4624 O 427.311 0.919694 -1.71042 0
M  V30 4625 C 424.441 1.26674 -3.23375 0
M  V30 4626 C 423.395 0.67069 -4.22712 0
M  V30 4627 C 422.721 1.82017 -5.02766 0
M  V30 4628 C 424.021 -0.358268 -5.2107 0
M  V30 4629 H 425.715 -0.48187 -2.95497 0
M  V30 4630 H 423.261 -0.233182 -1.42099 0
M  V30 4631 H 425.214 1.80006 -3.81019 0
M  V30 4632 H 423.938 1.99818 -2.58341 0
M  V30 4633 H 422.597 0.158878 -3.66256 0
M  V30 4634 H 422.245 2.54002 -4.34157 0
M  V30 4635 H 421.945 1.42727 -5.70003 0
M  V30 4636 H 423.469 2.35725 -5.63264 0
M  V30 4637 H 424.883 0.0880081 -5.73232 0
M  V30 4638 H 423.28 -0.66861 -5.96364 0
M  V30 4639 H 424.35 -1.26367 -4.68145 0
M  V30 4640 N 425.693 1.55336 -0.266172 0
M  V30 4641 C 426.97 1.91372 0.404486 0
M  V30 4642 C 427.35 1.18935 1.74407 0
M  V30 4643 O 426.698 0.3132 2.26343 0
M  V30 4644 C 426.908 3.44581 0.553593 0
M  V30 4645 C 428.256 4.16196 0.840618 0
M  V30 4646 O 429.28 3.50426 0.638739 0
M  V30 4647 O 428.139 5.32567 1.22618 0
M  V30 4648 H 425.233 0.797194 0.220025 0
M  V30 4649 H 427.779 1.66813 -0.311664 0
M  V30 4650 H 426.551 3.89357 -0.389498 0
M  V30 4651 H 426.174 3.75065 1.31955 0
M  V30 4652 N 427.171 -0.0066808 1.57599 0
M  V30 4653 C 428.121 -1.0086 2.04478 0
M  V30 4654 C 429.105 -1.30714 0.938231 0
M  V30 4655 O 430.297 -1.29924 1.20203 0
M  V30 4656 C 427.426 -2.30273 2.54615 0
M  V30 4657 C 426.512 -2.03413 3.72134 0
M  V30 4658 N 426.903 -1.46688 4.84062 0
M  V30 4659 C 425.201 -2.33589 3.79937 0
M  V30 4660 C 425.902 -1.36146 5.65543 0
M  V30 4661 N 424.878 -1.84477 5.1134 0
M  V30 4662 H 428.68 -0.564402 2.8843 0
M  V30 4663 H 426.194 -0.212521 1.61003 0
M  V30 4664 H 428.191 -3.02885 2.86472 0
M  V30 4665 H 426.851 -2.75352 1.72079 0
M  V30 4666 H 427.862 -1.14658 5.05049 0
M  V30 4667 H 424.539 -2.81589 3.08243 0
M  V30 4668 H 425.929 -0.925873 6.6549 0
M  V30 4669 N 428.649 -1.55105 -0.279332 0
M  V30 4670 C 429.895 -1.75672 -1.01327 0
M  V30 4671 C 430.228 -0.552739 -1.86168 0
M  V30 4672 O 429.503 0.449827 -1.89227 0
M  V30 4673 C 429.786 -3.05825 -1.90114 0
M  V30 4674 C 429.639 -4.36565 -1.08309 0
M  V30 4675 C 430.958 -3.31975 -2.8893 0
M  V30 4676 H 428.077 -0.639149 -0.366957 0
M  V30 4677 H 430.719 -1.87833 -0.286154 0
M  V30 4678 H 428.869 -2.95588 -2.52111 0
M  V30 4679 H 430.541 -4.58751 -0.484314 0
M  V30 4680 H 428.784 -4.32076 -0.386362 0
M  V30 4681 H 429.455 -5.23946 -1.73737 0
M  V30 4682 H 431.931 -3.41963 -2.37067 0
M  V30 4683 H 430.807 -4.2432 -3.48201 0
M  V30 4684 H 431.068 -2.51309 -3.63725 0
M  V30 4685 N 430.127 0.543554 -1.4793 0
M  V30 4686 C 431.375 1.29752 -1.54948 0
M  V30 4687 C 431.696 1.93764 -0.219242 0
M  V30 4688 O 430.966 1.80639 0.75805 0
M  V30 4689 H 429.546 0.481874 -0.570795 0
M  V30 4690 H 432.208 0.633636 -1.84312 0
M  V30 4691 H 431.304 2.08392 -2.32334 0
M  V30 4692 N 431.605 1.3629 0.791371 0
M  V30 4693 C 432.555 1.26988 1.89362 0
M  V30 4694 C 433.539 0.161795 1.60084 0
M  V30 4695 O 434.731 0.394426 1.72549 0
M  V30 4696 C 431.86 1.05944 3.26544 0
M  V30 4697 C 430.946 2.21211 3.61838 0
M  V30 4698 N 431.337 3.46518 3.68455 0
M  V30 4699 C 429.635 2.12933 3.91887 0
M  V30 4700 C 430.336 4.2241 3.99931 0
M  V30 4701 N 429.312 3.51329 4.14812 0
M  V30 4702 H 433.114 2.21908 1.92702 0
M  V30 4703 H 430.628 1.28982 0.986787 0
M  V30 4704 H 432.625 0.973666 4.05371 0
M  V30 4705 H 431.285 0.119223 3.24481 0
M  V30 4706 H 432.296 3.80677 3.51148 0
M  V30 4707 H 428.973 1.26855 3.97761 0
M  V30 4708 H 430.363 5.30767 4.1199 0
M  V30 4709 N 433.083 -1.0153 1.20538 0
M  V30 4710 C 434.494 -1.56598 1.01657 0
M  V30 4711 C 434.845 -1.91505 -0.426668 0
M  V30 4712 O 433.97 -1.72375 -1.30827 0
M  V30 4713 C 434.565 -2.84542 1.83905 0
M  V30 4714 C 433.124 -3.36133 1.69386 0
M  V30 4715 C 432.271 -2.09427 1.81757 0
M  V30 4716 H 435.222 -0.838974 1.34711 0
M  V30 4717 H 435.243 -3.56004 1.34319 0
M  V30 4718 H 434.755 -2.59105 2.8894 0
M  V30 4719 H 432.856 -3.66528 0.669933 0
M  V30 4720 H 432.969 -4.08248 2.50739 0
M  V30 4721 H 431.333 -2.21941 1.24957 0
M  V30 4722 H 432.116 -1.86414 2.88279 0
M  V30 4723 N 434.561 -1.01147 -1.20859 0
M  V30 4724 C 435.789 -0.716911 -1.94082 0
M  V30 4725 C 436.204 0.721568 -1.74467 0
M  V30 4726 O 435.561 1.48889 -1.05539 0
M  V30 4727 C 435.612 -1.03662 -3.46318 0
M  V30 4728 O 435.333 -2.4186 -3.65288 0
M  V30 4729 C 436.834 -0.762386 -4.36695 0
M  V30 4730 H 434.054 -0.26367 -0.617024 0
M  V30 4731 H 436.598 -1.35127 -1.53496 0
M  V30 4732 H 434.753 -0.447757 -3.84804 0
M  V30 4733 H 435.167 -2.53224 -4.59323 0
M  V30 4734 H 436.641 -1.03621 -5.42187 0
M  V30 4735 H 437.118 0.303514 -4.3815 0
M  V30 4736 H 437.724 -1.33316 -4.03865 0
M  V30 4737 N 436.039 1.36541 -0.78704 0
M  V30 4738 C 436.949 2.3387 -0.184896 0
M  V30 4739 C 437.965 1.60927 0.661697 0
M  V30 4740 O 439.141 1.92927 0.57804 0
M  V30 4741 C 436.206 3.40122 0.672145 0
M  V30 4742 C 435.267 4.28867 -0.19267 0
M  V30 4743 C 434.5 5.30045 0.623561 0
M  V30 4744 O 434.723 5.39232 1.8597 0
M  V30 4745 O 433.657 6.01895 0.0247068 0
M  V30 4746 H 437.483 2.87126 -0.989562 0
M  V30 4747 H 435.068 1.38969 -0.548455 0
M  V30 4748 H 436.95 4.05093 1.16094 0
M  V30 4749 H 435.625 2.89169 1.45474 0
M  V30 4750 H 434.532 3.66945 -0.728166 0
M  V30 4751 H 435.865 4.83165 -0.938722 0
M  V30 4752 N 437.518 0.538854 1.48102 0
M  V30 4753 C 438.934 0.19732 1.58376 0
M  V30 4754 C 439.134 -1.29971 1.5398 0
M  V30 4755 O 438.19 -2.07861 1.43352 0
M  V30 4756 C 439.503 0.807716 2.89649 0
M  V30 4757 C 441.051 0.77726 3.03196 0
M  V30 4758 C 441.526 1.36639 4.37143 0
M  V30 4759 N 443.017 1.32875 4.43732 0
M  V30 4760 C 443.752 1.7544 5.45901 0
M  V30 4761 N 443.248 2.25776 6.54979 0
M  V30 4762 N 445.041 1.66623 5.36836 0
M  V30 4763 H 437.192 1.5117 1.49202 0
M  V30 4764 H 439.455 0.629327 0.708979 0
M  V30 4765 H 439.161 1.85909 2.98548 0
M  V30 4766 H 439.035 0.289975 3.76084 0
M  V30 4767 H 441.422 -0.265374 2.93904 0
M  V30 4768 H 441.503 1.33256 2.18349 0
M  V30 4769 H 441.147 2.408 4.47189 0
M  V30 4770 H 441.077 0.786689 5.20691 0
M  V30 4771 H 443.568 0.96037 3.65493 0
M  V30 4772 H 443.881 2.56226 7.29087 0
M  V30 4773 H 442.226 2.29775 6.55918 0
M  V30 4774 H 445.417 1.27089 4.50517 0
M  V30 4775 H 445.59 2.00115 6.16326 0
M  V30 4776 N 438.996 -1.55193 0.274407 0
M  V30 4777 C 440.236 -2.01488 -0.343778 0
M  V30 4778 C 440.6 -1.1586 -1.53103 0
M  V30 4779 O 441.801 -1.51732 -2.2188 0
M  V30 4780 C 440.072 -3.50134 -0.717021 0
M  V30 4781 S 441.631 -4.18417 -1.32184 0
M  V30 4782 H 438.449 -0.70291 -0.106948 0
M  V30 4783 H 441.051 -1.91446 0.396075 0
M  V30 4784 H 439.755 -4.10104 0.155947 0
M  V30 4785 H 439.286 -3.64159 -1.48835 0
M  V30 4786 H 441.301 -4.21984 -2.61044 0
M  V30 4787 N 440.474 -0.00167713 -1.576 0
M  V30 4788 C 441.721 0.68282 -1.90641 0
M  V30 4789 C 442.049 1.73686 -0.875415 0
M  V30 4790 O 441.304 1.95334 0.119575 0
M  V30 4791 C 441.603 1.36189 -3.30435 0
M  V30 4792 C 441.269 0.440887 -4.48739 0
M  V30 4793 C 439.931 0.187312 -4.80835 0
M  V30 4794 C 442.283 -0.193134 -5.20842 0
M  V30 4795 C 439.611 -0.70855 -5.82406 0
M  V30 4796 C 441.963 -1.07688 -6.23367 0
M  V30 4797 C 440.627 -1.33962 -6.53919 0
M  V30 4798 H 439.897 0.249862 -0.697603 0
M  V30 4799 H 442.544 -0.0575642 -1.91413 0
M  V30 4800 H 440.849 2.17636 -3.25794 0
M  V30 4801 H 442.546 1.89759 -3.5326 0
M  V30 4802 H 439.136 0.648694 -4.23663 0
M  V30 4803 H 443.32 -0.0102445 -4.96299 0
M  V30 4804 H 438.576 -0.920097 -6.04437 0
M  V30 4805 H 442.75 -1.57451 -6.78367 0
M  V30 4806 H 440.377 -2.03549 -7.32442 0
M  V30 4807 N 441.952 1.55251 0.271103 0
M  V30 4808 C 443.198 1.76207 1.00394 0
M  V30 4809 C 443.531 0.562604 1.85872 0
M  V30 4810 O 442.806 -0.439785 1.89463 0
M  V30 4811 C 443.089 3.06828 1.8849 0
M  V30 4812 C 442.942 4.37134 1.05992 0
M  V30 4813 C 444.261 3.33503 2.87165 0
M  V30 4814 H 441.38 0.641086 0.363562 0
M  V30 4815 H 444.022 1.87982 0.276189 0
M  V30 4816 H 442.172 2.96921 2.5054 0
M  V30 4817 H 443.844 4.59001 0.459978 0
M  V30 4818 H 442.087 4.32275 0.363443 0
M  V30 4819 H 442.758 5.2486 1.70955 0
M  V30 4820 H 445.234 3.43215 2.3525 0
M  V30 4821 H 444.11 4.2616 3.45946 0
M  V30 4822 H 444.371 2.53235 3.62387 0
M  V30 4823 N 443.43 -0.535701 1.48216 0
M  V30 4824 C 444.677 -1.29183 1.55942 0
M  V30 4825 C 445.005 -1.93125 0.230857 0
M  V30 4826 O 444.26 -1.79556 -0.778331 0
M  V30 4827 C 444.559 -2.4068 2.64212 0
M  V30 4828 C 444.225 -1.94428 4.06827 0
M  V30 4829 C 442.887 -1.81532 4.45645 0
M  V30 4830 C 445.239 -1.59405 4.96225 0
M  V30 4831 C 442.567 -1.31939 5.71672 0
M  V30 4832 C 444.919 -1.11276 6.22736 0
M  V30 4833 C 443.583 -0.969924 6.60416 0
M  V30 4834 H 442.853 -0.472715 0.570632 0
M  V30 4835 H 445.5 -0.598437 1.81909 0
M  V30 4836 H 443.805 -3.15666 2.32083 0
M  V30 4837 H 445.502 -2.98822 2.67407 0
M  V30 4838 H 442.092 -2.05415 3.76168 0
M  V30 4839 H 446.276 -1.68231 4.66917 0
M  V30 4840 H 441.532 -1.19562 5.99596 0
M  V30 4841 H 445.706 -0.832453 6.91407 0
M  V30 4842 H 443.333 -0.583436 7.57958 0
M  V30 4843 O 444.947 -1.46458 -0.680617 0
M  V30 4844 H 445.638 -1.40531 -1.33307 0
M  V30 END ATOM
M  V30 BEGIN BOND
M  V30 END BOND
M  V30 END CTAB
M  END
$$$$
