drugbank_target|P00378 Dihydrofolate reductase (DB03904)
 OpenBabel12092121233D

  0  0  0     0  0            999 V3000
M  V30 BEGIN CTAB
M  V30 COUNTS 3067 3103 0 0 0
M  V30 BEGIN ATOM
M  V30 1 H -0.908 1.98254 -0.117106 0
M  V30 2 N 0 1.576 0 0
M  V30 3 C 1.246 1.9085 0.685863 0
M  V30 4 C 1.579 0.873954 1.73423 0
M  V30 5 O 0.854 -0.107317 1.94204 0
M  V30 6 C 1.137 3.34679 1.32899 0
M  V30 7 C 0.99 4.4885 0.292164 0
M  V30 8 C 2.309 3.77929 2.25516 0
M  V30 9 H -0.572 0.69407 0.247863 0
M  V30 10 H 2.07 1.89931 -0.0512938 0
M  V30 11 H 0.22 3.35593 1.95729 0
M  V30 12 H 1.892 4.60071 -0.33645 0
M  V30 13 H 0.135 4.32083 -0.385573 0
M  V30 14 H 0.806 5.46444 0.781208 0
M  V30 15 H 3.282 3.78567 1.72703 0
M  V30 16 H 2.158 4.79317 2.67481 0
M  V30 17 H 2.419 3.11797 3.13424 0
M  V30 18 N 1.4781 -0.272755 1.55222 0
M  V30 19 C 2.8941 -0.619959 1.47067 0
M  V30 20 C 3.0941 -1.895 0.684978 0
M  V30 21 O 2.1501 -2.51675 0.203931 0
M  V30 22 C 3.4631 -0.746693 2.91282 0
M  V30 23 C 5.0111 -0.840731 3.01497 0
M  V30 24 C 5.4861 -0.99924 4.46967 0
M  V30 25 N 6.9771 -1.06476 4.50796 0
M  V30 26 C 7.7121 -1.20621 5.6057 0
M  V30 27 N 7.2081 -1.31483 6.80209 0
M  V30 28 N 9.0011 -1.23733 5.48312 0
M  V30 29 H 1.1521 0.564606 2.04758 0
M  V30 30 H 3.4151 0.191177 0.928523 0
M  V30 31 H 3.1211 0.119753 3.51496 0
M  V30 32 H 2.9951 -1.6269 3.40311 0
M  V30 33 H 5.3821 -1.69764 2.41379 0
M  V30 34 H 5.4631 0.0640874 2.5572 0
M  V30 35 H 5.1071 -0.146984 5.07687 0
M  V30 36 H 5.0371 -1.91871 4.90401 0
M  V30 37 H 7.5281 -0.993196 3.64615 0
M  V30 38 H 7.8411 -1.42111 7.59621 0
M  V30 39 H 6.1861 -1.28487 6.8302 0
M  V30 40 H 9.3771 -1.14877 4.53785 0
M  V30 41 H 9.5501 -1.34412 6.33906 0
M  V30 42 N 2.9562 -1.48159 -0.537278 0
M  V30 43 C 4.1812 -1.59707 -1.32319 0
M  V30 44 C 4.6062 -0.254859 -1.86365 0
M  V30 45 O 3.9642 0.772378 -1.64024 0
M  V30 46 C 4.0122 -2.6412 -2.45505 0
M  V30 47 O 3.1162 -2.20774 -3.48328 0
M  V30 48 H 2.4572 -0.535791 -0.392204 0
M  V30 49 H 4.9872 -1.94092 -0.647268 0
M  V30 50 H 4.9972 -2.85166 -2.91795 0
M  V30 51 H 3.6722 -3.61567 -2.05528 0
M  V30 52 H 2.2492 -2.09911 -3.08207 0
M  V30 53 N 4.4343 0.785586 -1.36625 0
M  V30 54 C 5.3643 1.91259 -1.33949 0
M  V30 55 C 6.3453 1.68795 -0.210325 0
M  V30 56 O 7.5303 1.89854 -0.408561 0
M  V30 57 C 4.6603 3.28339 -1.13186 0
M  V30 58 C 3.6143 3.65335 -2.22967 0
M  V30 59 C 2.9403 5.00806 -1.87342 0
M  V30 60 C 4.2403 3.7352 -3.65075 0
M  V30 61 H 5.9343 1.93755 -2.28253 0
M  V30 62 H 3.4803 0.930788 -1.09874 0
M  V30 63 H 5.4333 4.06804 -1.09948 0
M  V30 64 H 4.1573 3.2624 -0.153332 0
M  V30 65 H 2.8163 2.89169 -2.25337 0
M  V30 66 H 2.4643 4.95233 -0.880545 0
M  V30 67 H 2.1643 5.26529 -2.60846 0
M  V30 68 H 3.6883 5.81687 -1.85667 0
M  V30 69 H 5.1023 4.42168 -3.64911 0
M  V30 70 H 3.4993 4.10731 -4.37516 0
M  V30 71 H 4.5693 2.74527 -3.99703 0
M  V30 72 N 5.9124 1.20967 1.01018 0
M  V30 73 C 6.8604 0.961223 2.1181 0
M  V30 74 C 7.8544 -0.0897034 1.69162 0
M  V30 75 O 9.0604 0.0612271 1.79896 0
M  V30 76 H 5.4354 0.29355 0.692338 0
M  V30 77 H 7.4064 1.90178 2.29946 0
M  V30 78 C 6.1554 0.536854 3.4353 0
M  V30 79 H 5.4784 1.33713 3.76777 0
M  V30 80 H 6.9184 0.402286 4.22087 0
M  V30 81 C 5.3774 -0.751574 3.2841 0
M  V30 82 O 5.9074 -1.80841 3.58691 0
M  V30 83 N 4.1134 -0.716079 2.81639 0
M  V30 84 H 3.6604 0.144236 2.57196 0
M  V30 85 H 3.6184 -1.57847 2.71904 0
M  V30 86 N 7.3905 -1.2043 1.01659 0
M  V30 87 C 8.6155 -1.94318 0.724942 0
M  V30 88 C 9.0405 -1.74266 -0.708034 0
M  V30 89 O 8.3985 -1.03694 -1.48719 0
M  V30 90 C 8.4465 -3.44486 1.06591 0
M  V30 91 O 7.5505 -4.12017 0.177599 0
M  V30 92 H 6.8915 -0.60708 0.26898 0
M  V30 93 H 9.4215 -1.52861 1.35995 0
M  V30 94 H 9.4315 -3.95106 1.01762 0
M  V30 95 H 8.1065 -3.58404 2.10997 0
M  V30 96 H 6.6835 -3.71821 0.283421 0
M  V30 97 N 8.8686 -0.792821 -1.36206 0
M  V30 98 C 10.1176 -0.363353 -1.984 0
M  V30 99 C 10.4306 1.07172 -1.63626 0
M  V30 100 O 11.6366 1.60362 -2.19081 0
M  V30 101 C 10.0926 -0.59872 -3.54885 0
M  V30 102 C 9.7006 -2.04543 -3.9858 0
M  V30 103 C 11.4446 -0.233926 -4.23855 0
M  V30 104 C 9.3516 -2.22727 -5.47856 0
M  V30 105 H 8.2816 -0.13212 -0.742334 0
M  V30 106 H 10.9326 -0.974935 -1.55458 0
M  V30 107 H 9.3146 0.0826222 -3.95914 0
M  V30 108 H 10.4886 -2.76345 -3.68741 0
M  V30 109 H 8.8036 -2.36879 -3.42458 0
M  V30 110 H 11.4006 -0.348027 -5.33566 0
M  V30 111 H 11.7436 0.818351 -4.08177 0
M  V30 112 H 12.2766 -0.868639 -3.882 0
M  V30 113 H 9.0156 -3.2635 -5.68486 0
M  V30 114 H 8.5356 -1.55434 -5.7931 0
M  V30 115 H 10.2146 -2.03607 -6.14128 0
M  V30 116 N 10.3467 1.47872 -0.545128 0
M  V30 117 C 11.5927 2.02793 -0.0166104 0
M  V30 118 C 11.9257 1.41987 1.32489 0
M  V30 119 O 11.2007 0.571045 1.85928 0
M  V30 120 C 11.4837 3.59989 0.0893294 0
M  V30 121 C 11.3367 4.3125 -1.27841 0
M  V30 122 C 12.6557 4.32606 0.808724 0
M  V30 123 H 9.7747 0.736962 -0.00751035 0
M  V30 124 H 12.4167 1.76433 -0.705085 0
M  V30 125 H 10.5667 3.82579 0.675681 0
M  V30 126 H 12.2387 4.20035 -1.90704 0
M  V30 127 H 10.4817 3.92076 -1.85632 0
M  V30 128 H 11.1527 5.39736 -1.15713 0
M  V30 129 H 13.6287 4.14936 0.310992 0
M  V30 130 H 12.5047 5.42251 0.851782 0
M  V30 131 H 12.7657 4.00963 1.86229 0
M  V30 132 N 11.8248 0.280983 1.55075 0
M  V30 133 C 12.7878 -0.590896 2.21452 0
M  V30 134 C 13.7878 -1.07682 1.19421 0
M  V30 135 O 14.9778 -0.97605 1.44288 0
M  V30 136 C 12.1098 -1.81587 2.88511 0
M  V30 137 H 13.3028 -0.0112554 2.99898 0
M  V30 138 H 10.8558 0.0316438 1.56268 0
M  V30 139 H 11.5908 -2.43587 2.14093 0
M  V30 140 H 11.3758 -1.4753 3.63287 0
M  V30 141 H 12.8658 -2.43575 3.39206 0
M  V30 142 N 13.3029 -1.57598 0.00835791 0
M  V30 143 C 14.5489 -1.91211 -0.675732 0
M  V30 144 C 14.8819 -0.883139 -1.72958 0
M  V30 145 O 14.1569 0.097016 -1.94258 0
M  V30 146 C 14.4399 -3.35379 -1.31123 0
M  V30 147 C 14.2929 -4.48999 -0.268356 0
M  V30 148 C 15.6119 -3.7912 -2.23508 0
M  V30 149 H 12.7309 -0.695374 -0.244179 0
M  V30 150 H 15.3729 -1.89901 0.0613655 0
M  V30 151 H 13.5229 -3.36626 -1.93946 0
M  V30 152 H 15.1949 -4.59887 0.360844 0
M  V30 153 H 13.4379 -4.31873 0.408482 0
M  V30 154 H 14.1089 -5.46851 -0.752218 0
M  V30 155 H 16.5849 -3.79477 -1.70693 0
M  V30 156 H 15.4609 -4.80729 -2.64936 0
M  V30 157 H 15.7219 -3.13455 -3.11766 0
M  V30 158 N 14.781 0.264519 -1.55364 0
M  V30 159 C 16.021 1.00254 -1.78125 0
M  V30 160 C 16.385 1.83187 -0.575017 0
M  V30 161 O 17.586 2.60029 -0.681042 0
M  V30 162 C 15.857 1.85478 -3.05504 0
M  V30 163 S 17.416 2.6543 -3.49417 0
M  V30 164 H 14.234 0.337522 -0.625779 0
M  V30 165 H 16.836 0.272111 -1.93597 0
M  V30 166 H 15.54 1.23491 -3.9138 0
M  V30 167 H 15.071 2.62827 -2.92721 0
M  V30 168 H 17.086 3.87958 -3.09359 0
M  V30 169 N 16.2591 1.48442 0.529413 0
M  V30 170 C 17.1911 1.59095 1.64989 0
M  V30 171 C 18.2041 0.475212 1.5571 0
M  V30 172 O 19.3931 0.746081 1.6216 0
M  V30 173 C 16.4931 1.50518 3.0364 0
M  V30 174 C 15.6661 2.77142 3.38395 0
M  V30 175 C 14.7251 2.62012 4.56329 0
M  V30 176 O 13.7511 3.35898 4.59522 0
M  V30 177 N 14.9531 1.71667 5.54536 0
M  V30 178 H 17.7181 2.55723 1.56287 0
M  V30 179 H 15.2791 1.45173 0.716697 0
M  V30 180 H 17.2711 1.38091 3.80412 0
M  V30 181 H 15.8411 0.618627 3.06418 0
M  V30 182 H 15.0611 3.0413 2.50796 0
M  V30 183 H 16.3491 3.61146 3.58401 0
M  V30 184 H 15.7471 1.10841 5.54735 0
M  V30 185 H 14.3041 1.65178 6.30523 0
M  V30 186 N 17.7372 -0.778329 1.37039 0
M  V30 187 C 18.6852 -1.91278 1.32345 0
M  V30 188 C 19.6792 -1.68051 0.213331 0
M  V30 189 O 20.8852 -1.75922 0.38098 0
M  V30 190 H 17.2602 -0.628909 0.412283 0
M  V30 191 H 19.2312 -1.92355 2.28127 0
M  V30 192 C 17.9802 -3.28455 1.14073 0
M  V30 193 H 17.3032 -3.46901 1.98746 0
M  V30 194 H 18.7432 -4.08152 1.14837 0
M  V30 195 C 17.2022 -3.36548 -0.154015 0
M  V30 196 O 17.7322 -3.85186 -1.13993 0
M  V30 197 N 15.9382 -2.89894 -0.202475 0
M  V30 198 H 15.4852 -2.50504 0.600476 0
M  V30 199 H 15.4432 -2.9569 -1.06841 0
M  V30 200 N 19.2153 -1.21501 -1.00376 0
M  V30 201 C 20.1483 -0.918669 -2.08892 0
M  V30 202 C 21.1263 0.134277 -1.62045 0
M  V30 203 O 22.3103 0.00504255 -1.88499 0
M  V30 204 C 19.4373 -0.379645 -3.36566 0
M  V30 205 C 18.4833 -1.41559 -4.02323 0
M  V30 206 S 19.3163 -2.98521 -4.44574 0
M  V30 207 C 20.4723 -2.46228 -5.75433 0
M  V30 208 H 20.7053 -1.83761 -2.33707 0
M  V30 209 H 18.2383 -1.04489 -1.13673 0
M  V30 210 H 20.1963 -0.0752195 -4.10431 0
M  V30 211 H 18.8573 0.518008 -3.09799 0
M  V30 212 H 18.0503 -0.988076 -4.9422 0
M  V30 213 H 17.6523 -1.66815 -3.34737 0
M  V30 214 H 19.9443 -1.86791 -6.51241 0
M  V30 215 H 20.8873 -3.36572 -6.22997 0
M  V30 216 H 21.2953 -1.87894 -5.32312 0
M  V30 217 N 20.6934 1.19889 -1.02296 0
M  V30 218 C 21.9414 1.89046 -0.714558 0
M  V30 219 C 22.2624 1.79636 0.758681 0
M  V30 220 O 21.5324 1.20292 1.54618 0
M  V30 221 H 20.1124 0.699802 -0.261317 0
M  V30 222 H 22.7744 1.45574 -1.29592 0
M  V30 223 H 21.8704 2.95524 -1.0036 0
M  V30 224 N 22.1715 0.800033 1.35784 0
M  V30 225 C 23.4205 0.37387 1.98205 0
M  V30 226 C 23.7335 -1.06302 1.64193 0
M  V30 227 O 24.9395 -1.59198 2.19928 0
M  V30 228 C 23.3955 0.617532 3.54562 0
M  V30 229 C 23.0035 2.06654 3.9749 0
M  V30 230 C 24.7475 0.256401 4.23725 0
M  V30 231 C 22.6545 2.2563 5.46667 0
M  V30 232 H 21.5845 0.136055 0.741623 0
M  V30 233 H 24.2355 0.983166 1.54939 0
M  V30 234 H 22.6175 -0.0616248 3.95952 0
M  V30 235 H 23.7915 2.78296 3.67271 0
M  V30 236 H 22.1065 2.38691 3.41197 0
M  V30 237 H 24.7035 0.376318 5.33374 0
M  V30 238 H 25.0465 -0.796692 4.08606 0
M  V30 239 H 25.5795 0.889214 3.87734 0
M  V30 240 H 22.3185 3.2936 5.66747 0
M  V30 241 H 21.8385 1.58504 5.78478 0
M  V30 242 H 23.5175 2.06861 6.1304 0
M  V30 243 N 23.6496 -1.47581 0.552962 0
M  V30 244 C 24.8976 -2.02082 0.0272703 0
M  V30 245 C 25.2186 -1.4301 -1.32563 0
M  V30 246 O 24.4886 -0.603745 -1.86365 0
M  V30 247 H 23.0686 -0.746966 0.00709182 0
M  V30 248 H 25.7306 -1.81033 0.722008 0
M  V30 249 H 24.8266 -3.12034 -0.0639951 0
M  V30 250 N 25.1277 -0.289203 -1.54924 0
M  V30 251 C 26.0747 0.592115 -2.23075 0
M  V30 252 C 27.0447 1.13881 -1.20915 0
M  V30 253 O 28.2297 1.18551 -1.495 0
M  V30 254 C 25.3697 1.76376 -2.96623 0
M  V30 255 C 24.4827 1.24959 -4.13533 0
M  V30 256 C 23.6177 2.38416 -4.74691 0
M  V30 257 C 22.6567 1.84072 -5.83767 0
M  V30 258 N 21.7937 2.91057 -6.38929 0
M  V30 259 H 26.6337 0.00432038 -2.98 0
M  V30 260 H 24.1707 -0.00963529 -1.47097 0
M  V30 261 H 26.1287 2.45268 -3.3749 0
M  V30 262 H 24.7587 2.32337 -2.24097 0
M  V30 263 H 23.8107 0.453307 -3.77689 0
M  V30 264 H 25.1227 0.811662 -4.92152 0
M  V30 265 H 24.2767 3.15276 -5.18349 0
M  V30 266 H 23.0157 2.8553 -3.95378 0
M  V30 267 H 22.0207 1.05697 -5.39545 0
M  V30 268 H 23.2457 1.37877 -6.64956 0
M  V30 269 H 21.1917 3.37526 -5.62505 0
M  V30 270 H 21.1087 2.51724 -7.12861 0
M  V30 271 H 22.3767 3.6785 -6.87246 0
M  V30 272 N 26.6058 1.57591 -0.0167156 0
M  V30 273 C 27.8828 1.82547 0.702564 0
M  V30 274 C 28.2628 0.898018 1.91047 0
M  V30 275 O 27.6108 -0.0493456 2.28447 0
M  V30 276 C 27.8208 3.31459 1.09251 0
M  V30 277 C 29.1688 3.97622 1.48937 0
M  V30 278 O 30.1928 3.35881 1.18584 0
M  V30 279 O 29.0518 5.06415 2.05442 0
M  V30 280 H 26.1458 0.752268 0.343544 0
M  V30 281 H 28.6918 1.69644 -0.0434495 0
M  V30 282 H 27.4638 3.9061 0.23227 0
M  V30 283 H 27.0868 3.49422 1.89709 0
M  V30 284 N 28.0839 -0.256276 1.55502 0
M  V30 285 C 29.3319 -0.983672 1.76545 0
M  V30 286 C 29.6529 -1.86206 0.578982 0
M  V30 287 O 28.9229 -1.91656 -0.405577 0
M  V30 288 H 27.5029 -0.366191 0.651086 0
M  V30 289 H 30.1649 -0.276479 1.92929 0
M  V30 290 H 29.2609 -1.61087 2.67315 0
M  V30 291 N 29.562 -1.4872 -0.521534 0
M  V30 292 C 30.51 -1.64328 -1.64618 0
M  V30 293 C 31.504 -0.50953 -1.61555 0
M  V30 294 O 32.71 -0.688525 -1.66311 0
M  V30 295 H 29.085 -0.517805 -0.545328 0
M  V30 296 H 31.056 -2.58767 -1.48601 0
M  V30 297 C 29.805 -1.70805 -3.02855 0
M  V30 298 H 29.128 -2.5741 -3.05909 0
M  V30 299 H 30.568 -1.85766 -3.81139 0
M  V30 300 C 29.027 -0.448479 -3.33902 0
M  V30 301 O 29.557 0.434928 -3.99339 0
M  V30 302 N 27.763 -0.317616 -2.88859 0
M  V30 303 H 27.31 -1.03748 -2.35784 0
M  V30 304 H 27.268 0.524113 -3.10001 0
M  V30 305 N 31.0401 0.771051 -1.3745 0
M  V30 306 C 31.9701 1.89827 -1.3597 0
M  V30 307 C 32.9511 1.68562 -0.228216 0
M  V30 308 O 34.1361 1.8941 -0.428675 0
M  V30 309 C 31.2661 3.2712 -1.16662 0
M  V30 310 C 30.2201 3.6295 -2.2683 0
M  V30 311 C 29.5461 4.98791 -1.92644 0
M  V30 312 C 30.8461 3.69627 -3.69017 0
M  V30 313 H 32.5401 1.91323 -2.30295 0
M  V30 314 H 30.0861 0.919082 -1.10855 0
M  V30 315 H 32.0391 4.05615 -1.14256 0
M  V30 316 H 30.7631 3.26059 -0.187926 0
M  V30 317 H 29.4221 2.86763 -2.28392 0
M  V30 318 H 29.0701 4.94271 -0.933021 0
M  V30 319 H 28.7701 5.23733 -2.66416 0
M  V30 320 H 30.2941 5.79685 -1.91826 0
M  V30 321 H 31.7081 4.38273 -3.69581 0
M  V30 322 H 30.1051 4.06067 -4.41848 0
M  V30 323 H 31.1751 2.70273 -4.02592 0
M  V30 324 N 32.5182 1.22032 0.997298 0
M  V30 325 C 33.9292 1.0397 1.55071 0
M  V30 326 C 34.2802 -0.398192 1.92117 0
M  V30 327 O 33.4052 -1.28254 1.74298 0
M  V30 328 C 34.0002 1.88109 2.81781 0
M  V30 329 C 32.5592 1.74357 3.33581 0
M  V30 330 C 31.7062 1.84846 2.06706 0
M  V30 331 H 34.6572 1.35941 0.818883 0
M  V30 332 H 34.6782 1.39589 3.53971 0
M  V30 333 H 34.1902 2.92754 2.54787 0
M  V30 334 H 32.2912 0.72427 3.65493 0
M  V30 335 H 32.4042 2.56772 4.04481 0
M  V30 336 H 30.7682 1.28238 2.20062 0
M  V30 337 H 31.5512 2.91014 1.82114 0
M  V30 338 N 33.9963 -1.19345 1.0293 0
M  V30 339 C 35.2423 -1.89585 0.736824 0
M  V30 340 C 35.5973 -1.78148 -0.726703 0
M  V30 341 O 34.8903 -1.16332 -1.52242 0
M  V30 342 C 35.0843 -3.39292 1.12319 0
M  V30 343 C 34.9133 -3.65298 2.62273 0
M  V30 344 C 33.6833 -3.83304 3.29251 0
M  V30 345 C 35.8813 -3.6682 3.60482 0
M  V30 346 N 33.8633 -3.96944 4.68304 0
M  V30 347 C 35.2343 -3.86037 4.85155 0
M  V30 348 C 37.2893 -3.49848 3.54275 0
M  V30 349 C 35.9923 -3.9004 6.04369 0
M  V30 350 C 38.0183 -3.55129 4.72903 0
M  V30 351 C 37.3803 -3.74831 5.9639 0
M  V30 352 H 33.4793 -0.712856 0.321497 0
M  V30 353 H 36.0633 -1.43427 1.31669 0
M  V30 354 H 34.2343 -3.84172 0.571524 0
M  V30 355 H 35.9663 -3.97055 0.78292 0
M  V30 356 H 32.7213 -3.82211 2.79663 0
M  V30 357 H 33.1453 -4.07613 5.40538 0
M  V30 358 H 37.7873 -3.33572 2.59788 0
M  V30 359 H 35.5053 -4.05108 6.99223 0
M  V30 360 H 39.0913 -3.43287 4.69729 0
M  V30 361 H 37.9713 -3.78792 6.86649 0
M  V30 362 N 35.4744 -0.807222 -1.35358 0
M  V30 363 C 36.8854 -0.44876 -1.81226 0
M  V30 364 C 37.2364 1.02929 -1.67033 0
M  V30 365 O 36.3614 1.79991 -1.20133 0
M  V30 366 C 36.9564 -0.807774 -3.2903 0
M  V30 367 C 35.5154 -0.501901 -3.73039 0
M  V30 368 C 34.6624 -1.03304 -2.57339 0
M  V30 369 H 37.6134 -0.998808 -1.23327 0
M  V30 370 H 37.6344 -0.10554 -3.80354 0
M  V30 371 H 37.1464 -1.88357 -3.39328 0
M  V30 372 H 35.2474 0.565128 -3.68289 0
M  V30 373 H 35.3604 -1.03497 -4.67787 0
M  V30 374 H 33.7244 -0.455339 -2.50597 0
M  V30 375 H 34.5074 -2.11496 -2.70415 0
M  V30 376 N 36.9525 1.47285 -0.560781 0
M  V30 377 C 38.3635 1.86258 -0.128343 0
M  V30 378 C 38.7145 1.46699 1.30284 0
M  V30 379 O 37.8395 0.871698 1.98067 0
M  V30 380 C 38.4345 3.38044 -0.22614 0
M  V30 381 C 36.9935 3.76096 0.151283 0
M  V30 382 C 36.1405 2.71335 -0.572084 0
M  V30 383 H 39.0915 1.38752 -0.770297 0
M  V30 384 H 39.1125 3.76441 0.554322 0
M  V30 385 H 38.6245 3.66806 -1.26788 0
M  V30 386 H 36.7255 3.52951 1.19399 0
M  V30 387 H 36.8385 4.78641 -0.209765 0
M  V30 388 H 35.2025 2.54696 -0.0147653 0
M  V30 389 H 35.9855 3.02938 -1.61504 0
M  V30 390 N 38.4306 0.297415 1.54768 0
M  V30 391 C 39.3606 -0.573494 2.26348 0
M  V30 392 C 40.3416 -1.14085 1.26169 0
M  V30 393 O 41.5266 -1.17086 1.54934 0
M  V30 394 C 38.6566 -1.74716 3.00153 0
M  V30 395 C 37.6106 -1.31032 4.07449 0
M  V30 396 C 36.9366 -2.56887 4.68949 0
M  V30 397 C 38.2366 -0.444183 5.20408 0
M  V30 398 H 39.9306 0.0235131 2.99391 0
M  V30 399 H 37.4766 0.0127488 1.43994 0
M  V30 400 H 39.4296 -2.3625 3.48947 0
M  V30 401 H 38.1536 -2.37035 2.24682 0
M  V30 402 H 36.8126 -0.718066 3.59499 0
M  V30 403 H 36.4606 -3.17512 3.90122 0
M  V30 404 H 36.1606 -2.2836 5.41411 0
M  V30 405 H 37.6846 -3.19229 5.20505 0
M  V30 406 H 39.0986 -0.9651 5.65118 0
M  V30 407 H 37.4956 -0.252846 5.99567 0
M  V30 408 H 38.5656 0.531609 4.81977 0
M  V30 409 N 39.9087 -1.5758 0.0250728 0
M  V30 410 C 41.3247 -1.56124 -0.331282 0
M  V30 411 C 41.5247 -1.03029 -1.73169 0
M  V30 412 O 40.5807 -0.675215 -2.43305 0
M  V30 413 C 41.8937 -3.00139 -0.183584 0
M  V30 414 C 43.4417 -3.11946 -0.256654 0
M  V30 415 C 43.9167 -4.57793 -0.137792 0
M  V30 416 N 45.4077 -4.6279 -0.194904 0
M  V30 417 C 46.1427 -5.7326 -0.126655 0
M  V30 418 N 45.6387 -6.928 -0.00755288 0
M  V30 419 N 47.4317 -5.61811 -0.180348 0
M  V30 420 H 39.5827 -1.90424 0.94087 0
M  V30 421 H 41.8457 -0.875761 0.362968 0
M  V30 422 H 41.5517 -3.4292 0.780927 0
M  V30 423 H 41.4257 -3.64899 -0.955448 0
M  V30 424 H 43.8127 -2.69079 -1.21162 0
M  V30 425 H 43.8937 -2.49915 0.545517 0
M  V30 426 H 43.5377 -5.01339 0.813739 0
M  V30 427 H 43.4677 -5.17798 -0.958775 0
M  V30 428 H 45.9587 -3.76807 -0.287267 0
M  V30 429 H 46.2717 -7.72791 0.0379428 0
M  V30 430 H 44.6167 -6.94995 0.0271731 0
M  V30 431 H 47.8077 -4.6731 -0.271767 0
M  V30 432 H 47.9807 -6.47882 -0.123697 0
M  V30 433 N 41.3868 0.248026 -1.55636 0
M  V30 434 C 42.3348 1.32683 -1.91045 0
M  V30 435 C 43.3288 1.49883 -0.789401 0
M  V30 436 O 44.5348 1.51371 -0.974007 0
M  V30 437 H 40.9098 0.444272 -0.606734 0
M  V30 438 H 42.8808 1.00085 -2.81115 0
M  V30 439 C 41.6298 2.6755 -2.22064 0
M  V30 440 H 40.9528 2.55114 -3.07826 0
M  V30 441 H 42.3928 3.41912 -2.50743 0
M  V30 442 C 40.8518 3.20556 -1.0366 0
M  V30 443 O 41.3818 4.00695 -0.284016 0
M  V30 444 N 39.5878 2.78568 -0.82753 0
M  V30 445 H 39.1348 2.1351 -1.44123 0
M  V30 446 H 39.0928 3.14378 -0.0369803 0
M  V30 447 N 42.8649 1.48995 0.513639 0
M  V30 448 C 43.7749 1.67443 1.64317 0
M  V30 449 C 44.7909 0.556947 1.64846 0
M  V30 450 O 45.9669 0.830082 1.83498 0
M  V30 451 C 43.0319 1.72515 3.00732 0
M  V30 452 C 42.0929 2.96009 3.1093 0
M  V30 453 C 41.3259 3.00829 4.40837 0
M  V30 454 O 41.5489 2.13594 5.28898 0
M  V30 455 O 40.4829 3.93168 4.55744 0
M  V30 456 H 44.3089 2.63106 1.51687 0
M  V30 457 H 41.8939 1.32588 0.688543 0
M  V30 458 H 43.7759 1.78277 3.81831 0
M  V30 459 H 42.4509 0.800278 3.13651 0
M  V30 460 H 41.3579 2.9577 2.29065 0
M  V30 461 H 42.6909 3.87934 3.02933 0
M  V30 462 N 44.343 -0.763751 1.37857 0
M  V30 463 C 45.573 -1.55067 1.3652 0
M  V30 464 C 45.981 -1.89135 -0.0494227 0
M  V30 465 O 45.324 -1.52529 -1.02375 0
M  V30 466 C 45.386 -2.8838 2.14656 0
M  V30 467 C 45.05 -2.76905 3.63555 0
M  V30 468 C 46.047 -2.4739 4.57268 0
M  V30 469 C 43.732 -2.94676 4.06781 0
M  V30 470 C 45.726 -2.35786 5.92186 0
M  V30 471 C 43.413 -2.82692 5.41782 0
M  V30 472 C 44.411 -2.53289 6.34298 0
M  V30 473 O 44.099 -2.41345 7.66817 0
M  V30 474 H 43.831 -0.486776 0.469069 0
M  V30 475 H 46.385 -0.953812 1.81911 0
M  V30 476 H 44.615 -3.50217 1.63967 0
M  V30 477 H 46.304 -3.49828 2.05852 0
M  V30 478 H 47.07 -2.33339 4.2518 0
M  V30 479 H 42.949 -3.16563 3.35126 0
M  V30 480 H 46.493 -2.12757 6.64365 0
M  V30 481 H 42.39 -2.96314 5.7347 0
M  V30 482 H 43.158 -2.56634 7.77226 0
M  V30 483 N 45.8211 -1.22559 -0.990812 0
M  V30 484 C 46.7681 -0.997519 -2.0813 0
M  V30 485 C 47.7381 0.0814702 -1.659 0
M  V30 486 O 48.9231 -0.0685424 -1.90677 0
M  V30 487 C 46.0631 -0.583615 -3.40129 0
M  V30 488 C 45.1761 -1.7336 -3.9569 0
M  V30 489 C 44.3111 -1.26748 -5.15857 0
M  V30 490 C 43.3501 -2.38888 -5.63559 0
M  V30 491 N 42.4871 -1.93308 -6.74964 0
M  V30 492 H 47.3271 -1.93099 -2.26973 0
M  V30 493 H 44.8641 -0.962114 -1.11273 0
M  V30 494 H 46.8221 -0.324801 -4.15934 0
M  V30 495 H 45.4521 0.312845 -3.2128 0
M  V30 496 H 44.5041 -2.10669 -3.16738 0
M  V30 497 H 45.8161 -2.57704 -4.27071 0
M  V30 498 H 44.9701 -0.966173 -5.98957 0
M  V30 499 H 43.7091 -0.394272 -4.86104 0
M  V30 500 H 42.7141 -2.69805 -4.79046 0
M  V30 501 H 43.9391 -3.26728 -5.95336 0
M  V30 502 H 41.8851 -1.08352 -6.4699 0
M  V30 503 H 41.8021 -2.71217 -7.05675 0
M  V30 504 H 43.0701 -1.66252 -7.61564 0
M  V30 505 N 47.2992 1.18797 -1.03562 0
M  V30 506 C 48.5292 1.92319 -0.754773 0
M  V30 507 C 48.9372 1.7612 0.691248 0
M  V30 508 O 48.2802 1.08491 1.48241 0
M  V30 509 C 48.3422 3.44284 -1.03484 0
M  V30 510 C 48.0062 3.84258 -2.47376 0
M  V30 511 C 49.0032 3.88459 -3.45537 0
M  V30 512 C 46.6882 4.15701 -2.81954 0
M  V30 513 C 48.6822 4.23545 -4.76328 0
M  V30 514 C 46.3692 4.50458 -4.12954 0
M  V30 515 C 47.3672 4.54356 -5.09951 0
M  V30 516 O 47.0552 4.88305 -6.38603 0
M  V30 517 H 46.7872 0.617527 -0.275021 0
M  V30 518 H 49.3412 1.51683 -1.38497 0
M  V30 519 H 47.5712 3.85135 -0.347513 0
M  V30 520 H 49.2602 3.99049 -0.7426 0
M  V30 521 H 50.0262 3.6431 -3.20162 0
M  V30 522 H 45.9052 4.11847 -2.0713 0
M  V30 523 H 49.4492 4.26502 -5.52035 0
M  V30 524 H 45.3462 4.74067 -4.38099 0
M  V30 525 H 46.1142 5.06227 -6.43177 0
M  V30 526 N 48.7773 0.814389 1.34928 0
M  V30 527 C 50.0243 0.398423 1.98542 0
M  V30 528 C 50.3523 -1.03638 1.64589 0
M  V30 529 O 49.6073 -1.73509 0.90516 0
M  V30 530 C 49.9063 0.537781 3.53331 0
M  V30 531 C 49.5723 1.93704 4.07172 0
M  V30 532 C 48.2343 2.31984 4.21589 0
M  V30 533 C 50.5863 2.85213 4.36237 0
M  V30 534 C 47.9143 3.61125 4.62391 0
M  V30 535 C 50.2663 4.13809 4.78482 0
M  V30 536 C 48.9303 4.52077 4.91104 0
M  V30 537 H 48.2003 0.145793 0.726516 0
M  V30 538 H 50.8473 1.03669 1.61012 0
M  V30 539 H 49.1523 -0.183906 3.91368 0
M  V30 540 H 50.8493 0.196588 4.00518 0
M  V30 541 H 47.4393 1.62966 3.96409 0
M  V30 542 H 51.6233 2.56885 4.24645 0
M  V30 543 H 46.8793 3.90612 4.70353 0
M  V30 544 H 51.0533 4.84811 4.99932 0
M  V30 545 H 48.6803 5.52196 5.22478 0
M  V30 546 N 50.2554 -1.46986 0.568584 0
M  V30 547 C 51.1874 -2.28233 -0.210337 0
M  V30 548 C 52.2004 -1.37682 -0.868767 0
M  V30 549 O 53.3894 -1.62406 -0.740705 0
M  V30 550 C 50.4894 -3.12293 -1.3163 0
M  V30 551 C 49.6624 -4.30878 -0.7525 0
M  V30 552 C 48.7214 -4.96445 -1.74439 0
M  V30 553 O 47.7474 -5.54482 -1.286 0
M  V30 554 N 48.9494 -4.92171 -3.07812 0
M  V30 555 H 51.7144 -2.95723 0.486648 0
M  V30 556 H 49.2754 -1.56742 0.405409 0
M  V30 557 H 51.2674 -3.53022 -1.97883 0
M  V30 558 H 49.8374 -2.46971 -1.91636 0
M  V30 559 H 49.0574 -3.94104 0.0871128 0
M  V30 560 H 50.3454 -5.07558 -0.35536 0
M  V30 561 H 49.7434 -4.46239 -3.47688 0
M  V30 562 H 48.3004 -5.36884 -3.69592 0
M  V30 563 N 51.7335 -0.305618 -1.54608 0
M  V30 564 C 53.1495 0.0476228 -1.59529 0
M  V30 565 C 53.3495 1.52025 -1.32252 0
M  V30 566 O 52.4055 2.27368 -1.09818 0
M  V30 567 C 53.7185 -0.354471 -2.98603 0
M  V30 568 C 55.2665 -0.303622 -3.11524 0
M  V30 569 C 55.7415 -0.680608 -4.52915 0
M  V30 570 N 57.2325 -0.63332 -4.5885 0
M  V30 571 C 57.9675 -0.897432 -5.66334 0
M  V30 572 N 57.4635 -1.22775 -6.81834 0
M  V30 573 N 59.2565 -0.824186 -5.56025 0
M  V30 574 H 51.4075 -1.2653 -1.70599 0
M  V30 575 H 53.6705 -0.513291 -0.797017 0
M  V30 576 H 53.3765 -1.3798 -3.23503 0
M  V30 577 H 53.2505 0.289568 -3.76087 0
M  V30 578 H 55.6375 0.712472 -2.8637 0
M  V30 579 H 55.7185 -0.982348 -2.36185 0
M  V30 580 H 55.3625 -1.69453 -4.78799 0
M  V30 581 H 55.2925 0.0202385 -5.26596 0
M  V30 582 H 57.7835 -0.389138 -3.75891 0
M  V30 583 H 58.0965 -1.41513 -7.59733 0
M  V30 584 H 56.4415 -1.26583 -6.83375 0
M  V30 585 H 59.6325 -0.565748 -4.64669 0
M  V30 586 H 59.8055 -1.03338 -6.39707 0
M  V30 587 N 53.2116 1.57565 -0.0334293 0
M  V30 588 C 54.1446 2.05997 0.981866 0
M  V30 589 C 55.1226 0.956647 1.3148 0
M  V30 590 O 56.3066 1.22729 1.43073 0
M  V30 591 C 53.4336 2.48564 2.30074 0
M  V30 592 C 52.4796 3.69958 2.12211 0
M  V30 593 S 53.3126 5.16414 1.41692 0
M  V30 594 C 54.4686 5.6228 2.7494 0
M  V30 595 H 54.7016 2.91792 0.569612 0
M  V30 596 H 52.2346 1.53366 0.178376 0
M  V30 597 H 54.1926 2.73753 3.05892 0
M  V30 598 H 52.8536 1.63106 2.68431 0
M  V30 599 H 52.0466 3.97603 3.09722 0
M  V30 600 H 51.6486 3.44943 1.44535 0
M  V30 601 H 53.9406 5.66783 3.71165 0
M  V30 602 H 54.8836 6.61759 2.51953 0
M  V30 603 H 55.2916 4.89944 2.80384 0
M  V30 604 N 54.6897 -0.239769 1.55765 0
M  V30 605 C 55.9177 -0.98417 1.81994 0
M  V30 606 C 56.3327 -1.7867 0.610124 0
M  V30 607 O 55.6897 -1.77571 -0.421271 0
M  V30 608 C 55.7407 -1.91635 3.06526 0
M  V30 609 O 55.4617 -1.14629 4.22838 0
M  V30 610 C 56.9627 -2.77616 3.45607 0
M  V30 611 H 54.1827 -0.28928 0.605441 0
M  V30 612 H 56.7267 -0.260499 2.02834 0
M  V30 613 H 54.8817 -2.5942 2.87715 0
M  V30 614 H 55.2957 -1.77745 4.93464 0
M  V30 615 H 56.7697 -3.38759 4.35828 0
M  V30 616 H 57.2467 -3.4909 2.6652 0
M  V30 617 H 57.8527 -2.15271 3.66795 0
M  V30 618 N 56.1678 -1.49265 -0.50573 0
M  V30 619 C 57.3928 -1.62478 -1.28902 0
M  V30 620 C 57.8178 -0.294332 -1.85783 0
M  V30 621 O 57.1758 0.737412 -1.65626 0
M  V30 622 C 57.2238 -2.69268 -2.39848 0
M  V30 623 O 56.3278 -2.28113 -3.43567 0
M  V30 624 H 55.6688 -0.54399 -0.380751 0
M  V30 625 H 58.1988 -1.95421 -0.605952 0
M  V30 626 H 58.2088 -2.91291 -2.85681 0
M  V30 627 H 56.8838 -3.65846 -1.97812 0
M  V30 628 H 55.4608 -2.16401 -3.03685 0
M  V30 629 N 57.6459 0.756429 -1.3826 0
M  V30 630 C 58.8739 1.54565 -1.3754 0
M  V30 631 C 59.2889 1.88767 0.0355331 0
M  V30 632 O 58.6459 1.52572 1.0014 0
M  V30 633 C 58.6969 2.84654 -2.22833 0
M  V30 634 O 58.4179 2.51912 -3.5843 0
M  V30 635 C 59.9189 3.78807 -2.30261 0
M  V30 636 H 57.1389 0.478353 -0.470553 0
M  V30 637 H 59.6829 0.936381 -1.81803 0
M  V30 638 H 57.8379 3.41965 -1.8204 0
M  V30 639 H 58.2519 3.35325 -4.03308 0
M  V30 640 H 59.7259 4.67045 -2.94233 0
M  V30 641 H 60.2029 4.19038 -1.31545 0
M  V30 642 H 60.8089 3.2742 -2.71433 0
M  V30 643 N 59.124 1.23083 0.984299 0
M  V30 644 C 60.349 1.088 1.76571 0
M  V30 645 C 60.774 -0.356657 1.84688 0
M  V30 646 O 60.132 -1.25788 1.30565 0
M  V30 647 C 60.18 1.71371 3.17277 0
M  V30 648 O 59.284 0.973213 4.00752 0
M  V30 649 H 58.625 0.381599 0.543395 0
M  V30 650 H 61.155 1.63057 1.23587 0
M  V30 651 H 61.165 1.76449 3.67872 0
M  V30 652 H 59.84 2.76493 3.10684 0
M  V30 653 H 58.417 0.999078 3.59267 0
M  V30 654 N 60.6021 -1.18246 1.0419 0
M  V30 655 C 61.5521 -2.19843 0.604392 0
M  V30 656 C 62.5361 -1.56962 -0.353814 0
M  V30 657 O 63.7281 -1.76156 -0.17267 0
M  V30 658 C 60.8571 -3.43287 -0.0298975 0
M  V30 659 C 59.9431 -4.13288 0.951531 0
M  V30 660 N 60.3341 -4.59271 2.11906 0
M  V30 661 C 58.6321 -4.39165 0.7778 0
M  V30 662 C 59.3331 -5.13173 2.73912 0
M  V30 663 N 58.3091 -5.04763 2.01779 0
M  V30 664 H 62.1111 -2.53089 1.4941 0
M  V30 665 H 59.6251 -1.34465 0.910658 0
M  V30 666 H 61.6221 -4.15334 -0.361037 0
M  V30 667 H 60.2821 -3.11537 -0.915127 0
M  V30 668 H 61.2931 -4.5368 2.49789 0
M  V30 669 H 57.9701 -4.17461 -0.0572331 0
M  V30 670 H 59.3601 -5.58947 3.72864 0
M  V30 671 N 62.0802 -0.821533 -1.34494 0
M  V30 672 C 63.3262 -0.409552 -1.98622 0
M  V30 673 C 63.6592 1.0244 -1.64984 0
M  V30 674 O 62.9342 1.71325 -0.920758 0
M  V30 675 C 63.2172 -0.610458 -3.54888 0
M  V30 676 C 63.0702 -2.09043 -3.98273 0
M  V30 677 C 64.3892 -0.0455379 -4.40076 0
M  V30 678 H 61.5082 -0.15028 -0.721516 0
M  V30 679 H 64.1502 -1.03384 -1.59411 0
M  V30 680 H 62.3002 -0.079044 -3.8842 0
M  V30 681 H 63.9722 -2.68537 -3.75081 0
M  V30 682 H 62.2152 -2.58139 -3.48635 0
M  V30 683 H 62.8862 -2.18182 -5.07051 0
M  V30 684 H 65.3622 -0.499557 -4.1309 0
M  V30 685 H 64.2382 -0.215922 -5.48475 0
M  V30 686 H 64.4992 1.04939 -4.29465 0
M  V30 687 N 63.5583 1.46682 -0.576371 0
M  V30 688 C 64.4683 2.34032 0.163141 0
M  V30 689 C 65.4843 1.49367 0.892501 0
M  V30 690 O 66.6603 1.82252 0.857106 0
M  V30 691 C 63.7253 3.26435 1.16795 0
M  V30 692 C 62.7863 4.26998 0.443944 0
M  V30 693 C 62.0193 5.14986 1.40088 0
M  V30 694 O 62.2423 5.05785 2.637 0
M  V30 695 O 61.1763 5.94906 0.914917 0
M  V30 696 H 65.0023 2.98607 -0.55388 0
M  V30 697 H 62.5873 1.45554 -0.336821 0
M  V30 698 H 64.4693 3.83459 1.74748 0
M  V30 699 H 63.1443 2.64465 1.86655 0
M  V30 700 H 62.0513 3.7368 -0.177271 0
M  V30 701 H 63.3843 4.91736 -0.213566 0
M  V30 702 N 65.0364 0.313813 1.54444 0
M  V30 703 C 66.2844 -0.291099 1.99993 0
M  V30 704 C 66.6054 -1.53418 1.20366 0
M  V30 705 O 65.8754 -1.93544 0.302927 0
M  V30 706 H 64.4554 -0.110552 0.738774 0
M  V30 707 H 67.1174 0.428106 1.9014 0
M  V30 708 H 66.2134 -0.554268 3.07139 0
M  V30 709 N 66.5145 -1.57545 0.0417849 0
M  V30 710 C 67.4615 -2.10977 -0.935805 0
M  V30 711 C 68.4315 -1.01486 -1.31491 0
M  V30 712 O 69.6165 -1.2898 -1.40602 0
M  V30 713 C 66.7565 -2.65169 -2.2086 0
M  V30 714 C 65.8695 -3.88714 -1.88482 0
M  V30 715 C 65.0045 -4.31254 -3.1015 0
M  V30 716 C 64.0435 -5.47524 -2.7365 0
M  V30 717 N 63.1805 -5.85162 -3.87982 0
M  V30 718 H 68.0205 -2.94218 -0.473249 0
M  V30 719 H 65.5575 -1.45415 -0.221981 0
M  V30 720 H 67.5155 -2.94685 -2.95325 0
M  V30 721 H 66.1455 -1.8474 -2.64709 0
M  V30 722 H 65.1975 -3.65849 -1.04205 0
M  V30 723 H 66.5095 -4.73245 -1.57608 0
M  V30 724 H 65.6635 -4.62273 -3.92923 0
M  V30 725 H 64.4025 -3.45516 -3.44195 0
M  V30 726 H 63.4075 -5.16187 -1.89291 0
M  V30 727 H 64.6325 -6.34971 -2.40807 0
M  V30 728 H 62.5785 -5.02377 -4.21846 0
M  V30 729 H 62.4955 -6.64362 -3.60775 0
M  V30 730 H 63.7635 -6.20791 -4.71422 0
M  V30 731 N 67.9926 0.231505 -1.5589 0
M  V30 732 C 68.9246 1.31006 -1.8807 0
M  V30 733 C 69.9376 1.43539 -0.768145 0
M  V30 734 O 71.1266 1.44614 -1.04638 0
M  V30 735 C 68.2266 2.68688 -2.06543 0
M  V30 736 C 67.3996 2.78228 -3.37502 0
M  V30 737 C 66.4586 3.96857 -3.4553 0
M  V30 738 O 65.4846 3.85662 -4.18633 0
M  V30 739 N 66.6866 5.1072 -2.75944 0
M  V30 740 H 69.4516 1.03731 -2.81176 0
M  V30 741 H 67.0126 0.421573 -1.56315 0
M  V30 742 H 69.0046 3.46412 -2.09239 0
M  V30 743 H 67.5746 2.88605 -1.20109 0
M  V30 744 H 66.7946 1.87059 -3.46991 0
M  V30 745 H 68.0826 2.81564 -4.23791 0
M  V30 746 H 67.4806 5.2271 -2.16311 0
M  V30 747 H 66.0376 5.86523 -2.84314 0
M  V30 748 N 69.4707 1.49531 0.497807 0
M  V30 749 C 70.4187 1.66926 1.61983 0
M  V30 750 C 71.4127 0.535167 1.60724 0
M  V30 751 O 72.6187 0.714896 1.65195 0
M  V30 752 H 68.9937 0.526415 0.537021 0
M  V30 753 H 70.9647 2.61098 1.44465 0
M  V30 754 C 69.7137 1.75602 3.00099 0
M  V30 755 H 69.0367 2.62244 3.01775 0
M  V30 756 H 70.4767 1.91807 3.78135 0
M  V30 757 C 68.9357 0.501543 3.33146 0
M  V30 758 O 69.4657 -0.371342 3.9998 0
M  V30 759 N 67.6717 0.363531 2.88317 0
M  V30 760 H 67.2187 1.07485 2.34104 0
M  V30 761 H 67.1767 -0.474728 3.10795 0
M  V30 762 N 70.9488 -0.749086 1.3866 0
M  V30 763 C 71.9118 -1.84457 1.36045 0
M  V30 764 C 72.9118 -1.58682 0.260122 0
M  V30 765 O 74.1018 -1.66343 0.517261 0
M  V30 766 C 71.2338 -3.22008 1.11911 0
M  V30 767 H 72.4268 -1.88182 2.33512 0
M  V30 768 H 69.9798 -0.951266 1.24019 0
M  V30 769 H 70.7148 -3.2395 0.150686 0
M  V30 770 H 70.4998 -3.42111 1.91579 0
M  V30 771 H 71.9898 -4.0208 1.12788 0
M  V30 772 N 72.4269 -1.23603 -0.977757 0
M  V30 773 C 73.6729 -1.07129 -1.72195 0
M  V30 774 C 74.0059 0.390501 -1.90233 0
M  V30 775 O 73.2809 1.28902 -1.45653 0
M  V30 776 C 73.5639 -1.80031 -3.11867 0
M  V30 777 C 73.4169 -3.33899 -3.01383 0
M  V30 778 C 74.7359 -1.56492 -4.11337 0
M  V30 779 H 71.8549 -0.390571 -0.624999 0
M  V30 780 H 74.4969 -1.52142 -1.13811 0
M  V30 781 H 72.6469 -1.41768 -3.6171 0
M  V30 782 H 74.3189 -3.81699 -2.59043 0
M  V30 783 H 72.5619 -3.62796 -2.37827 0
M  V30 784 H 73.2329 -3.801 -4.00285 0
M  V30 785 H 75.7089 -1.89757 -3.70313 0
M  V30 786 H 74.5849 -2.09973 -5.07151 0
M  V30 787 H 74.8459 -0.500874 -4.39254 0
M  V30 788 N 73.905 1.17692 -1.04816 0
M  V30 789 C 75.154 1.87192 -0.751132 0
M  V30 790 C 75.467 1.8169 0.724441 0
M  V30 791 O 76.673 2.46625 1.13527 0
M  V30 792 C 75.129 3.35857 -1.29338 0
M  V30 793 C 74.737 3.4987 -2.79812 0
M  V30 794 C 76.481 4.10709 -1.07322 0
M  V30 795 C 74.388 4.92536 -3.27356 0
M  V30 796 H 73.318 0.701162 -0.277288 0
M  V30 797 H 75.969 1.32932 -1.26496 0
M  V30 798 H 74.351 3.89631 -0.707376 0
M  V30 799 H 75.525 3.06332 -3.44235 0
M  V30 800 H 73.84 2.88433 -3.00325 0
M  V30 801 H 76.437 5.15952 -1.4035 0
M  V30 802 H 76.78 4.16299 -0.0108001 0
M  V30 803 H 77.313 3.6313 -1.62423 0
M  V30 804 H 74.052 4.92119 -4.33012 0
M  V30 805 H 73.572 5.3676 -2.67673 0
M  V30 806 H 75.251 5.61288 -3.21815 0
M  V30 807 N 75.3831 0.828654 1.34056 0
M  V30 808 C 76.3161 0.199763 2.27324 0
M  V30 809 C 77.2941 -0.647168 1.49166 0
M  V30 810 O 78.4781 -0.609661 1.78369 0
M  V30 811 C 75.6051 -0.720455 3.30949 0
M  V30 812 C 74.6511 0.0496888 4.26471 0
M  V30 813 S 75.4841 1.40072 5.16856 0
M  V30 814 C 76.6401 0.485527 6.24014 0
M  V30 815 H 76.8731 0.990478 2.80316 0
M  V30 816 H 74.4061 0.624857 1.41191 0
M  V30 817 H 76.3641 -1.24581 3.91139 0
M  V30 818 H 75.0251 -1.48474 2.76793 0
M  V30 819 H 74.2181 -0.650104 4.9979 0
M  V30 820 H 73.8201 0.505779 3.70564 0
M  V30 821 H 76.1121 -0.320672 6.76741 0
M  V30 822 H 77.0551 1.18856 6.98054 0
M  V30 823 H 77.4631 0.0714109 5.64455 0
M  V30 824 N 76.8612 -1.46375 0.584142 0
M  V30 825 C 78.1092 -2.01978 0.0701287 0
M  V30 826 C 78.4302 -1.4579 -1.295 0
M  V30 827 O 77.7002 -0.64314 -1.85042 0
M  V30 828 H 76.2802 -0.746648 0.0229345 0
M  V30 829 H 78.9422 -1.79461 0.760245 0
M  V30 830 H 78.0382 -3.121 0.0022064 0
M  V30 831 N 78.3393 -0.321999 -1.54275 0
M  V30 832 C 79.2863 0.544664 -2.24281 0
M  V30 833 C 80.2563 1.1129 -1.23303 0
M  V30 834 O 81.4413 1.15354 -1.51981 0
M  V30 835 C 78.5813 1.70045 -3.00298 0
M  V30 836 C 77.6943 1.16159 -4.1609 0
M  V30 837 C 76.8293 2.28293 -4.79641 0
M  V30 838 C 75.8683 1.71648 -5.8754 0
M  V30 839 N 75.0053 2.77438 -6.44959 0
M  V30 840 H 79.8453 -0.0588907 -2.97942 0
M  V30 841 H 77.3823 -0.0408345 -1.47043 0
M  V30 842 H 79.3403 2.38054 -3.42616 0
M  V30 843 H 77.9703 2.27531 -2.28975 0
M  V30 844 H 77.0223 0.373092 -3.78566 0
M  V30 845 H 78.3343 0.707087 -4.93763 0
M  V30 846 H 77.4883 3.0421 -5.2492 0
M  V30 847 H 76.2273 2.77079 -4.01346 0
M  V30 848 H 75.2323 0.942282 -5.41665 0
M  V30 849 H 76.4573 1.23741 -6.67731 0
M  V30 850 H 74.4033 3.25519 -5.69538 0
M  V30 851 H 74.3203 2.36547 -7.1804 0
M  V30 852 H 75.5883 3.53189 -6.94894 0
M  V30 853 N 79.8174 1.5752 -0.0501392 0
M  V30 854 C 80.7644 2.1147 0.924603 0
M  V30 855 C 81.7344 1.02182 1.30951 0
M  V30 856 O 82.9194 1.29723 1.39916 0
M  V30 857 C 80.0594 2.66337 2.19451 0
M  V30 858 C 79.1724 3.89708 1.86418 0
M  V30 859 C 78.3074 4.32893 3.07859 0
M  V30 860 C 77.3464 5.48967 2.70742 0
M  V30 861 N 76.4834 5.87211 3.84874 0
M  V30 862 H 81.3234 2.94465 0.457639 0
M  V30 863 H 78.8604 1.45531 0.214266 0
M  V30 864 H 80.8184 2.96247 2.93758 0
M  V30 865 H 79.4484 1.86141 2.63726 0
M  V30 866 H 78.5004 3.66396 1.02264 0
M  V30 867 H 79.8124 4.74074 1.55096 0
M  V30 868 H 78.9664 4.6435 3.90466 0
M  V30 869 H 77.7054 3.47336 3.42358 0
M  V30 870 H 76.7104 5.17183 1.86551 0
M  V30 871 H 77.9354 6.3624 2.37436 0
M  V30 872 H 75.8814 5.04607 4.19175 0
M  V30 873 H 75.7984 6.66266 3.57247 0
M  V30 874 H 77.0664 6.23282 4.68123 0
M  V30 875 N 81.2955 -0.223234 1.56011 0
M  V30 876 C 82.5235 -0.964812 1.83027 0
M  V30 877 C 82.9385 -1.78013 0.62904 0
M  V30 878 O 82.2955 -1.78008 -0.402414 0
M  V30 879 C 82.3465 -1.88373 3.08542 0
M  V30 880 O 82.0675 -1.10137 4.2403 0
M  V30 881 C 83.5685 -2.73934 3.48533 0
M  V30 882 H 80.7885 -0.282842 0.608475 0
M  V30 883 H 83.3325 -0.238971 2.03099 0
M  V30 884 H 81.4875 -2.56354 2.9045 0
M  V30 885 H 81.9015 -1.72501 4.95322 0
M  V30 886 H 83.3755 -3.34117 4.39397 0
M  V30 887 H 83.8525 -3.46244 2.70207 0
M  V30 888 H 84.4585 -2.11369 3.69057 0
M  V30 889 N 82.7736 -1.49793 -0.48987 0
M  V30 890 C 84.0196 -1.61049 -1.24236 0
M  V30 891 C 84.3746 -0.298412 -1.90072 0
M  V30 892 O 83.6676 0.702262 -1.78266 0
M  V30 893 C 83.8616 -2.71488 -2.32441 0
M  V30 894 C 83.6906 -4.13308 -1.77218 0
M  V30 895 C 82.4606 -4.79955 -1.58023 0
M  V30 896 C 84.6586 -4.98176 -1.27772 0
M  V30 897 N 82.6406 -6.06052 -0.978465 0
M  V30 898 C 84.0116 -6.14843 -0.798 0
M  V30 899 C 86.0666 -4.84091 -1.16449 0
M  V30 900 C 84.7696 -7.18975 -0.216245 0
M  V30 901 C 86.7956 -5.88382 -0.596698 0
M  V30 902 C 86.1576 -7.04285 -0.127262 0
M  V30 903 H 82.2566 -0.643611 -0.444172 0
M  V30 904 H 84.8406 -1.86842 -0.54754 0
M  V30 905 H 83.0116 -2.47449 -2.99372 0
M  V30 906 H 84.7436 -2.72205 -2.99477 0
M  V30 907 H 81.4986 -4.36936 -1.82712 0
M  V30 908 H 81.9226 -6.73407 -0.696534 0
M  V30 909 H 86.5646 -3.94786 -1.5134 0
M  V30 910 H 84.2826 -8.0797 0.144903 0
M  V30 911 H 87.8686 -5.79545 -0.511716 0
M  V30 912 H 86.7486 -7.83606 0.30523 0
M  V30 913 N 84.2517 0.741722 -1.39055 0
M  V30 914 C 85.4987 1.50114 -1.35912 0
M  V30 915 C 85.8267 1.94443 0.0470937 0
M  V30 916 O 85.0817 1.66612 1.02659 0
M  V30 917 C 85.3807 2.7592 -2.27163 0
M  V30 918 C 85.0467 2.50493 -3.74919 0
M  V30 919 C 83.7087 2.43267 -4.1518 0
M  V30 920 C 86.0607 2.28585 -4.684 0
M  V30 921 C 83.3887 2.12166 -5.46994 0
M  V30 922 C 85.7407 1.99002 -6.00484 0
M  V30 923 C 84.4047 1.90241 -6.39816 0
M  V30 924 H 83.6747 0.549306 -0.497336 0
M  V30 925 H 86.3217 0.851896 -1.71508 0
M  V30 926 H 84.6267 3.45553 -1.84663 0
M  V30 927 H 86.3237 3.33923 -2.22028 0
M  V30 928 H 82.9137 2.56992 -3.43006 0
M  V30 929 H 87.0977 2.33139 -4.38132 0
M  V30 930 H 82.3537 2.03901 -5.76398 0
M  V30 931 H 86.5277 1.81057 -6.72452 0
M  V30 932 H 84.1547 1.65907 -7.41875 0
M  V30 933 N 85.7298 1.2412 0.971189 0
M  V30 934 C 86.9548 1.10667 1.75407 0
M  V30 935 C 87.3798 -0.337048 1.85056 0
M  V30 936 O 86.7378 -1.24396 1.31892 0
M  V30 937 C 86.7858 1.74726 3.15441 0
M  V30 938 O 85.8898 1.01566 3.99697 0
M  V30 939 H 85.2308 0.387341 0.539317 0
M  V30 940 H 87.7608 1.64358 1.2185 0
M  V30 941 H 87.7708 1.80341 3.6598 0
M  V30 942 H 86.4458 2.79773 3.07734 0
M  V30 943 H 85.0228 1.03713 3.58187 0
M  V30 944 N 87.2079 -1.17134 1.05439 0
M  V30 945 C 88.4569 -1.86791 0.761049 0
M  V30 946 C 88.7699 -1.82072 -0.714795 0
M  V30 947 O 89.9759 -2.47223 -1.12218 0
M  V30 948 C 88.4319 -3.35166 1.31117 0
M  V30 949 C 88.0399 -3.48381 2.81664 0
M  V30 950 C 89.7839 -4.10134 1.09499 0
M  V30 951 C 87.6909 -4.90793 3.29964 0
M  V30 952 H 86.6209 -0.699681 0.281002 0
M  V30 953 H 89.2719 -1.3226 1.27199 0
M  V30 954 H 87.6539 -3.8925 0.72803 0
M  V30 955 H 88.8279 -3.04502 3.45855 0
M  V30 956 H 87.1429 -2.86836 3.01851 0
M  V30 957 H 89.7399 -5.152 1.43084 0
M  V30 958 H 90.0829 -4.16287 0.0328772 0
M  V30 959 H 90.6159 -3.62264 1.64346 0
M  V30 960 H 87.3549 -4.89816 4.35616 0
M  V30 961 H 86.8749 -5.35333 2.70516 0
M  V30 962 H 88.5539 -5.59573 3.24787 0
M  V30 963 N 88.686 -0.835752 -1.33615 0
M  V30 964 C 90.097 -0.487099 -1.80234 0
M  V30 965 C 90.448 0.993627 -1.69179 0
M  V30 966 O 89.573 1.77403 -1.23924 0
M  V30 967 C 90.168 -0.877385 -3.27242 0
M  V30 968 C 88.727 -0.580915 -3.7189 0
M  V30 969 C 87.874 -1.0874 -2.5509 0
M  V30 970 H 90.825 -1.02474 -1.2118 0
M  V30 971 H 90.846 -0.186195 -3.80044 0
M  V30 972 H 90.358 -1.95512 -3.35256 0
M  V30 973 H 88.459 0.486881 -3.69405 0
M  V30 974 H 88.572 -1.13396 -4.65487 0
M  V30 975 H 86.936 -0.508392 -2.49575 0
M  V30 976 H 87.719 -2.17184 -2.65868 0
M  V30 977 N 90.1641 1.46063 -0.591896 0
M  V30 978 C 91.0741 2.34192 0.13831 0
M  V30 979 C 92.0901 1.50305 0.876608 0
M  V30 980 O 93.2661 1.8315 0.837728 0
M  V30 981 C 90.3311 3.27656 1.13326 0
M  V30 982 C 89.3921 4.27445 0.39863 0
M  V30 983 C 88.6251 5.16443 1.34618 0
M  V30 984 O 88.8481 5.08553 2.58321 0
M  V30 985 O 87.7821 5.95843 0.851768 0
M  V30 986 H 91.6081 2.98002 -0.58552 0
M  V30 987 H 89.1931 1.45188 -0.352239 0
M  V30 988 H 91.0751 3.85291 1.70671 0
M  V30 989 H 89.7501 2.6643 1.83839 0
M  V30 990 H 88.6571 3.73471 -0.216895 0
M  V30 991 H 89.9901 4.91482 -0.265709 0
M  V30 992 N 91.6422 0.330177 1.54103 0
M  V30 993 C 92.5892 -0.532762 2.24567 0
M  V30 994 C 93.5592 -1.10635 1.23892 0
M  V30 995 O 94.7442 -1.14546 1.5259 0
M  V30 996 C 91.8842 -1.6845 3.01195 0
M  V30 997 C 90.9972 -1.13951 4.167 0
M  V30 998 C 90.1322 -2.25746 4.80845 0
M  V30 999 C 89.1712 -1.6853 5.88442 0
M  V30 1000 N 88.3082 -2.74014 6.46421 0
M  V30 1001 H 93.1482 0.0746905 2.97906 0
M  V30 1002 H 90.6852 0.048632 1.4702 0
M  V30 1003 H 92.6432 -2.36234 3.43874 0
M  V30 1004 H 91.2732 -2.26314 2.30178 0
M  V30 1005 H 90.3252 -0.35301 3.78758 0
M  V30 1006 H 91.6372 -0.680892 4.94131 0
M  V30 1007 H 90.7912 -3.01422 5.26526 0
M  V30 1008 H 89.5302 -2.74947 4.0281 0
M  V30 1009 H 88.5352 -0.913543 5.42157 0
M  V30 1010 H 89.7602 -1.20198 6.68378 0
M  V30 1011 H 87.7062 -3.22494 5.71256 0
M  V30 1012 H 87.6232 -2.32735 7.19285 0
M  V30 1013 H 88.8912 -3.49499 6.96757 0
M  V30 1014 N 93.1203 -1.57491 0.0584922 0
M  V30 1015 C 94.0683 -2.13148 -0.931168 0
M  V30 1016 C 95.0623 -1.06507 -1.31729 0
M  V30 1017 O 96.2683 -1.24906 -1.29609 0
M  V30 1018 H 92.6433 -0.68137 -0.31818 0
M  V30 1019 H 94.6143 -2.95187 -0.436707 0
M  V30 1020 C 93.3633 -2.69732 -2.19408 0
M  V30 1021 H 92.6863 -3.51454 -1.90578 0
M  V30 1022 H 94.1263 -3.12287 -2.86798 0
M  V30 1023 C 92.5853 -1.63855 -2.94369 0
M  V30 1024 O 93.1153 -1.05565 -3.87581 0
M  V30 1025 N 91.3213 -1.35202 -2.57233 0
M  V30 1026 H 90.8683 -1.82791 -1.81508 0
M  V30 1027 H 90.8263 -0.645922 -3.07693 0
M  V30 1028 N 94.5984 0.214957 -1.56127 0
M  V30 1029 C 96.0144 0.564948 -1.49267 0
M  V30 1030 C 96.2144 1.86827 -0.754838 0
M  V30 1031 O 95.2704 2.50745 -0.297198 0
M  V30 1032 C 96.5834 0.638071 -2.93852 0
M  V30 1033 C 98.1314 0.728253 -3.0441 0
M  V30 1034 C 98.6064 0.832663 -4.50367 0
M  V30 1035 N 100.097 0.896712 -4.54437 0
M  V30 1036 C 100.832 0.997324 -5.6466 0
M  V30 1037 N 100.328 1.06147 -6.8462 0
M  V30 1038 N 102.121 1.03297 -5.52527 0
M  V30 1039 H 94.2724 -0.640211 -2.02522 0
M  V30 1040 H 96.5354 -0.225507 -0.920788 0
M  V30 1041 H 96.2414 -0.250126 -3.50809 0
M  V30 1042 H 96.1154 1.49947 -3.46115 0
M  V30 1043 H 98.5024 1.60689 -2.47514 0
M  V30 1044 H 98.5834 -0.158952 -2.55306 0
M  V30 1045 H 98.2274 -0.0415417 -5.07883 0
M  V30 1046 H 98.1574 1.73538 -4.97184 0
M  V30 1047 H 100.648 0.857188 -3.6805 0
M  V30 1048 H 100.961 1.1382 -7.64372 0
M  V30 1049 H 99.3064 1.03049 -6.87318 0
M  V30 1050 H 102.497 0.979558 -4.57736 0
M  V30 1051 H 102.67 1.10793 -6.38458 0
M  V30 1052 N 96.0765 1.50051 0.48192 0
M  V30 1053 C 97.4875 1.5348 1.06305 0
M  V30 1054 C 97.8385 0.331997 1.93371 0
M  V30 1055 O 96.9635 -0.556256 2.09129 0
M  V30 1056 C 97.5585 2.7813 1.93466 0
M  V30 1057 C 96.1175 2.84275 2.46707 0
M  V30 1058 C 95.2645 2.47637 1.24785 0
M  V30 1059 H 98.2155 1.56472 0.264995 0
M  V30 1060 H 98.2365 2.59372 2.78399 0
M  V30 1061 H 97.7485 3.65654 1.30072 0
M  V30 1062 H 95.8495 2.01077 3.13686 0
M  V30 1063 H 95.9625 3.8691 2.82555 0
M  V30 1064 H 94.3265 1.99835 1.57918 0
M  V30 1065 H 95.1095 3.37457 0.630694 0
M  V30 1066 N 97.5546 -0.734337 1.39446 0
M  V30 1067 C 98.4846 -1.86155 1.40955 0
M  V30 1068 C 99.4656 -1.67898 0.272827 0
M  V30 1069 O 100.651 -1.88207 0.478743 0
M  V30 1070 C 97.7806 -3.23912 1.25294 0
M  V30 1071 C 96.7346 -3.56808 2.36373 0
M  V30 1072 C 96.0606 -4.93508 2.058 0
M  V30 1073 C 97.3606 -3.59713 3.78687 0
M  V30 1074 H 99.0546 -1.8515 2.35287 0
M  V30 1075 H 96.6006 -0.889367 1.13253 0
M  V30 1076 H 98.5536 -4.02443 1.2497 0
M  V30 1077 H 97.2776 -3.25446 0.274308 0
M  V30 1078 H 95.9366 -2.80606 2.35914 0
M  V30 1079 H 95.5846 -4.91623 1.06374 0
M  V30 1080 H 95.2846 -5.16486 2.80208 0
M  V30 1081 H 96.8086 -5.74396 2.07128 0
M  V30 1082 H 98.2226 -4.2832 3.81071 0
M  V30 1083 H 96.6196 -3.94209 4.52459 0
M  V30 1084 H 97.6896 -2.59504 4.09617 0
M  V30 1085 N 99.0327 -1.24633 -0.964593 0
M  V30 1086 C 99.9797 -1.04144 -2.05968 0
M  V30 1087 C 100.95 0.046262 -1.66036 0
M  V30 1088 O 102.135 -0.108972 -1.90489 0
M  V30 1089 C 99.2747 -0.65563 -3.38815 0
M  V30 1090 C 98.3877 -1.81714 -3.91923 0
M  V30 1091 C 97.5227 -1.37662 -5.13052 0
M  V30 1092 C 96.5617 -2.50788 -5.58365 0
M  V30 1093 N 95.6987 -2.07582 -6.70712 0
M  V30 1094 H 100.539 -1.9787 -2.22827 0
M  V30 1095 H 98.0757 -0.9855 -1.09208 0
M  V30 1096 H 100.034 -0.412954 -4.15151 0
M  V30 1097 H 98.6637 0.244627 -3.21872 0
M  V30 1098 H 97.7157 -2.1734 -3.12198 0
M  V30 1099 H 99.0277 -2.66705 -4.21509 0
M  V30 1100 H 98.1817 -1.093 -5.96773 0
M  V30 1101 H 96.9207 -0.497293 -4.85158 0
M  V30 1102 H 95.9257 -2.79906 -4.73215 0
M  V30 1103 H 97.1507 -3.39283 -5.88272 0
M  V30 1104 H 95.0967 -1.22051 -6.44546 0
M  V30 1105 H 95.0137 -2.86125 -6.99763 0
M  V30 1106 H 96.2817 -1.82369 -7.57867 0
M  V30 1107 N 100.511 1.16574 -1.06058 0
M  V30 1108 C 101.788 1.83048 -0.689416 0
M  V30 1109 C 102.168 1.94122 0.829443 0
M  V30 1110 O 101.516 1.48249 1.7388 0
M  V30 1111 C 101.726 3.20186 -1.38859 0
M  V30 1112 C 103.074 3.95989 -1.53226 0
M  V30 1113 O 104.098 3.29696 -1.3483 0
M  V30 1114 O 102.957 5.14813 -1.83384 0
M  V30 1115 H 100.051 0.790258 -0.243764 0
M  V30 1116 H 102.597 1.23797 -1.16071 0
M  V30 1117 H 101.369 3.07146 -2.4244 0
M  V30 1118 H 100.992 3.87112 -0.907216 0
M  V30 1119 N 101.989 0.842826 1.3317 0
M  V30 1120 C 103.405 0.531128 1.50503 0
M  V30 1121 C 103.605 -0.940734 1.78192 0
M  V30 1122 O 102.661 -1.72436 1.84451 0
M  V30 1123 C 103.974 1.40789 2.65705 0
M  V30 1124 C 105.522 1.40708 2.79589 0
M  V30 1125 C 105.997 2.26878 3.97857 0
M  V30 1126 N 107.488 2.24609 4.05099 0
M  V30 1127 C 108.223 2.88019 4.95815 0
M  V30 1128 N 107.719 3.60496 5.9162 0
M  V30 1129 N 109.512 2.77469 4.88843 0
M  V30 1130 H 101.663 1.79557 1.1346 0
M  V30 1131 H 103.926 0.766267 0.558156 0
M  V30 1132 H 103.632 2.454 2.51936 0
M  V30 1133 H 103.506 1.08677 3.61205 0
M  V30 1134 H 105.893 0.368668 2.92788 0
M  V30 1135 H 105.974 1.76829 1.84838 0
M  V30 1136 H 105.618 3.3078 3.85418 0
M  V30 1137 H 105.548 1.88096 4.91861 0
M  V30 1138 H 108.039 1.71906 3.36536 0
M  V30 1139 H 108.352 4.06076 6.57512 0
M  V30 1140 H 106.697 3.64604 5.91683 0
M  V30 1141 H 109.888 2.20406 4.12963 0
M  V30 1142 H 110.061 3.2717 5.59342 0
M  V30 1143 N 103.467 -1.45747 0.599634 0
M  V30 1144 C 104.716 -2.01502 0.0893511 0
M  V30 1145 C 105.029 -1.4748 -1.28488 0
M  V30 1146 O 106.235 -1.95161 -1.88745 0
M  V30 1147 C 104.691 -3.59735 0.109082 0
M  V30 1148 C 104.299 -4.22754 1.48267 0
M  V30 1149 C 106.043 -4.23085 -0.346374 0
M  V30 1150 C 103.95 -5.73115 1.45921 0
M  V30 1151 H 102.88 -0.753417 0.0296347 0
M  V30 1152 H 105.531 -1.67303 0.753788 0
M  V30 1153 H 103.913 -3.91087 -0.621854 0
M  V30 1154 H 105.087 -4.02987 2.23468 0
M  V30 1155 H 103.402 -3.71567 1.87955 0
M  V30 1156 H 105.999 -5.33327 -0.38298 0
M  V30 1157 H 106.342 -3.93201 -1.36743 0
M  V30 1158 H 106.875 -3.9642 0.331038 0
M  V30 1159 H 103.614 -6.07685 2.45762 0
M  V30 1160 H 103.134 -5.95097 0.749665 0
M  V30 1161 H 104.813 -6.3616 1.17941 0
M  V30 1162 N 104.945 -0.338344 -1.53925 0
M  V30 1163 C 105.893 0.536231 -2.26335 0
M  V30 1164 C 106.887 1.1063 -1.28286 0
M  V30 1165 O 108.093 1.05264 -1.46012 0
M  V30 1166 H 104.468 0.191602 -0.727181 0
M  V30 1167 H 106.439 -0.0965747 -2.98244 0
M  V30 1168 C 105.188 1.67803 -3.04528 0
M  V30 1169 H 104.511 1.24864 -3.79801 0
M  V30 1170 H 105.951 2.26526 -3.58416 0
M  V30 1171 C 104.41 2.60439 -2.13712 0
M  V30 1172 O 104.94 3.6255 -1.72975 0
M  V30 1173 N 103.146 2.29006 -1.78898 0
M  V30 1174 H 102.693 1.46011 -2.12223 0
M  V30 1175 H 102.651 2.91248 -1.18416 0
M  V30 1176 N 106.423 1.57458 -0.0668435 0
M  V30 1177 C 107.672 1.92477 0.602947 0
M  V30 1178 C 107.985 0.948419 1.71068 0
M  V30 1179 O 109.191 1.19124 2.43971 0
M  V30 1180 C 107.647 3.41903 1.12383 0
M  V30 1181 C 107.255 4.47975 0.04737 0
M  V30 1182 C 108.999 3.85931 1.76797 0
M  V30 1183 C 106.906 5.88529 0.582022 0
M  V30 1184 H 105.836 0.718387 0.22899 0
M  V30 1185 H 108.487 1.82978 -0.138276 0
M  V30 1186 H 106.869 3.46459 1.91787 0
M  V30 1187 H 108.043 4.55029 -0.726978 0
M  V30 1188 H 106.358 4.13384 -0.500243 0
M  V30 1189 H 108.955 4.88322 2.17821 0
M  V30 1190 H 109.298 3.23029 2.62599 0
M  V30 1191 H 109.831 3.83958 1.04024 0
M  V30 1192 H 106.57 6.55065 -0.238721 0
M  V30 1193 H 106.09 5.85004 1.324 0
M  V30 1194 H 107.769 6.38258 1.05999 0
M  V30 1195 N 107.901 -0.206675 1.56239 0
M  V30 1196 C 109.147 -0.930218 1.80208 0
M  V30 1197 C 109.48 -1.83387 0.638981 0
M  V30 1198 O 108.755 -1.91119 -0.361066 0
M  V30 1199 C 109.038 -1.75641 3.1436 0
M  V30 1200 C 108.891 -0.878257 4.41142 0
M  V30 1201 C 110.21 -2.73129 3.45092 0
M  V30 1202 H 107.329 -0.336742 0.655571 0
M  V30 1203 H 109.971 -0.198222 1.88963 0
M  V30 1204 H 108.121 -2.38048 3.07027 0
M  V30 1205 H 109.793 -0.269787 4.6051 0
M  V30 1206 H 108.036 -0.184385 4.33408 0
M  V30 1207 H 108.707 -1.49106 5.3148 0
M  V30 1208 H 111.183 -2.20856 3.52649 0
M  V30 1209 H 110.059 -3.28028 4.40101 0
M  V30 1210 H 110.32 -3.51606 2.68003 0
M  V30 1211 N 109.379 -1.50304 -0.473955 0
M  V30 1212 C 110.309 -1.71886 -1.58042 0
M  V30 1213 C 111.29 -0.567799 -1.60344 0
M  V30 1214 O 112.475 -0.806623 -1.76656 0
M  V30 1215 C 109.605 -1.81036 -2.96384 0
M  V30 1216 C 108.559 -2.962 -3.08949 0
M  V30 1217 C 107.885 -2.9049 -4.48909 0
M  V30 1218 C 109.185 -4.36752 -2.86434 0
M  V30 1219 H 110.879 -2.64527 -1.40234 0
M  V30 1220 H 108.425 -1.27295 -0.673201 0
M  V30 1221 H 110.378 -1.94719 -3.73714 0
M  V30 1222 H 109.102 -0.850147 -3.15341 0
M  V30 1223 H 107.761 -2.82164 -2.3405 0
M  V30 1224 H 107.409 -1.92321 -4.64781 0
M  V30 1225 H 107.109 -3.67802 -4.58253 0
M  V30 1226 H 108.633 -3.06218 -5.28264 0
M  V30 1227 H 110.047 -4.5133 -3.53517 0
M  V30 1228 H 108.444 -5.15493 -3.07225 0
M  V30 1229 H 109.514 -4.49321 -1.82316 0
M  V30 1230 N 110.857 0.726932 -1.39834 0
M  V30 1231 C 112.082 1.52121 -1.40976 0
M  V30 1232 C 112.507 1.88098 -0.00826029 0
M  V30 1233 O 111.865 1.52479 0.980807 0
M  V30 1234 C 111.913 2.78021 -2.29644 0
M  V30 1235 O 111.017 3.74272 -1.73188 0
M  V30 1236 H 110.358 0.45908 -0.479731 0
M  V30 1237 H 112.888 0.896207 -1.83927 0
M  V30 1238 H 112.898 3.26671 -2.44438 0
M  V30 1239 H 111.573 2.51169 -3.31492 0
M  V30 1240 H 110.15 3.33073 -1.6768 0
M  V30 1241 N 112.336 1.25143 0.95797 0
M  V30 1242 C 113.752 1.01892 1.22842 0
M  V30 1243 C 113.952 -0.266311 1.99732 0
M  V30 1244 O 113.008 -0.979913 2.3271 0
M  V30 1245 C 114.321 2.24004 2.00606 0
M  V30 1246 C 115.869 2.28731 2.13662 0
M  V30 1247 C 116.344 3.5049 2.94823 0
M  V30 1248 N 117.835 3.50866 3.02403 0
M  V30 1249 C 118.57 4.4174 3.65586 0
M  V30 1250 N 118.066 5.42882 4.30408 0
M  V30 1251 N 119.859 4.29429 3.62694 0
M  V30 1252 H 112.01 2.07718 0.443493 0
M  V30 1253 H 114.273 0.912031 0.258657 0
M  V30 1254 H 113.979 3.17395 1.51503 0
M  V30 1255 H 113.853 2.26907 3.01319 0
M  V30 1256 H 116.24 1.35865 2.61963 0
M  V30 1257 H 116.321 2.29848 1.12265 0
M  V30 1258 H 115.965 4.43676 2.47213 0
M  V30 1259 H 115.895 3.46617 3.96439 0
M  V30 1260 H 118.386 2.777 2.56302 0
M  V30 1261 H 118.699 6.0844 4.76467 0
M  V30 1262 H 117.044 5.46758 4.29047 0
M  V30 1263 H 120.235 3.49643 3.11236 0
M  V30 1264 H 120.408 5.00448 4.1165 0
M  V30 1265 N 113.814 -1.1601 1.06675 0
M  V30 1266 C 114.724 -2.24156 0.692179 0
M  V30 1267 C 115.74 -1.71507 -0.293513 0
M  V30 1268 O 116.916 -2.009 -0.141861 0
M  V30 1269 C 113.981 -3.46587 0.0884131 0
M  V30 1270 C 113.042 -4.14257 1.12646 0
M  V30 1271 C 112.275 -5.30844 0.551416 0
M  V30 1272 O 112.498 -5.66858 -0.634656 0
M  V30 1273 O 111.432 -5.87848 1.29298 0
M  V30 1274 H 115.258 -2.58513 1.59388 0
M  V30 1275 H 112.843 -1.23599 0.83926 0
M  V30 1276 H 114.725 -4.20679 -0.246361 0
M  V30 1277 H 113.4 -3.13994 -0.786712 0
M  V30 1278 H 112.307 -3.42118 1.51348 0
M  V30 1279 H 113.64 -4.50914 1.97325 0
M  V30 1280 N 115.292 -0.849877 -1.32721 0
M  V30 1281 C 116.222 -0.306308 -2.31482 0
M  V30 1282 C 117.203 0.591952 -1.59468 0
M  V30 1283 O 118.388 0.513199 -1.87296 0
M  V30 1284 C 115.518 0.510204 -3.43532 0
M  V30 1285 C 114.472 -0.293209 -4.26994 0
M  V30 1286 C 113.798 0.647743 -5.30762 0
M  V30 1287 C 115.098 -1.51634 -4.99804 0
M  V30 1288 H 116.792 -1.13153 -2.77195 0
M  V30 1289 H 114.338 -0.545553 -1.33266 0
M  V30 1290 H 116.291 0.900856 -4.11658 0
M  V30 1291 H 115.015 1.36874 -2.96535 0
M  V30 1292 H 113.674 -0.665555 -3.60508 0
M  V30 1293 H 113.322 1.50299 -4.8002 0
M  V30 1294 H 113.022 0.11422 -5.87489 0
M  V30 1295 H 114.546 1.03567 -6.01753 0
M  V30 1296 H 115.96 -1.19824 -5.60638 0
M  V30 1297 H 114.357 -1.98745 -5.66234 0
M  V30 1298 H 115.427 -2.28018 -4.27943 0
M  V30 1299 N 116.77 1.45427 -0.607355 0
M  V30 1300 C 117.717 2.3053 0.111625 0
M  V30 1301 C 118.687 1.4209 0.860216 0
M  V30 1302 O 119.872 1.71019 0.845998 0
M  V30 1303 C 117.012 3.26992 1.10319 0
M  V30 1304 C 116.125 4.30535 0.355493 0
M  V30 1305 C 115.26 5.14105 1.33676 0
M  V30 1306 C 114.299 6.09376 0.576862 0
M  V30 1307 N 113.436 6.85727 1.5074 0
M  V30 1308 H 118.276 2.91477 -0.620093 0
M  V30 1309 H 115.813 1.43631 -0.317594 0
M  V30 1310 H 117.771 3.81385 1.6912 0
M  V30 1311 H 116.401 2.67799 1.80232 0
M  V30 1312 H 115.453 3.78805 -0.348023 0
M  V30 1313 H 116.765 4.98235 -0.237423 0
M  V30 1314 H 115.919 5.72897 1.99684 0
M  V30 1315 H 114.658 4.46423 1.9636 0
M  V30 1316 H 113.663 5.49715 -0.0968519 0
M  V30 1317 H 114.888 6.79085 -0.0449341 0
M  V30 1318 H 112.834 6.20735 2.12189 0
M  V30 1319 H 112.751 7.49778 0.967913 0
M  V30 1320 H 114.019 7.4906 2.15706 0
M  V30 1321 N 118.248 0.346503 1.53744 0
M  V30 1322 C 119.158 -0.517293 2.28826 0
M  V30 1323 C 120.174 -1.10935 1.3405 0
M  V30 1324 O 121.35 -1.1244 1.6709 0
M  V30 1325 C 118.415 -1.65098 3.04866 0
M  V30 1326 C 117.476 -1.0884 4.15274 0
M  V30 1327 C 116.709 -2.16806 4.87679 0
M  V30 1328 O 116.932 -3.3758 4.59778 0
M  V30 1329 O 115.866 -1.80934 5.74061 0
M  V30 1330 H 119.692 0.0931396 3.03557 0
M  V30 1331 H 117.277 0.111458 1.48984 0
M  V30 1332 H 119.159 -2.31053 3.5241 0
M  V30 1333 H 117.834 -2.24717 2.32989 0
M  V30 1334 H 116.741 -0.3933 3.72027 0
M  V30 1335 H 118.074 -0.537036 4.89261 0
M  V30 1336 N 119.726 -1.57421 0.075193 0
M  V30 1337 C 120.689 -2.11791 -0.876203 0
M  V30 1338 C 121.689 -1.04268 -1.22412 0
M  V30 1339 O 122.879 -1.30242 -1.15684 0
M  V30 1340 C 120.011 -2.62207 -2.17854 0
M  V30 1341 H 121.204 -2.9716 -0.40444 0
M  V30 1342 H 118.757 -1.55333 -0.173557 0
M  V30 1343 H 119.492 -1.803 -2.6956 0
M  V30 1344 H 119.277 -3.40802 -1.93897 0
M  V30 1345 H 120.767 -3.04335 -2.85955 0
M  V30 1346 N 121.204 0.198386 -1.56346 0
M  V30 1347 C 122.615 0.763358 -1.70381 0
M  V30 1348 C 122.966 1.83995 -0.681203 0
M  V30 1349 O 122.091 2.15785 0.16305 0
M  V30 1350 C 122.686 1.39143 -3.08909 0
M  V30 1351 C 121.245 1.90352 -3.2472 0
M  V30 1352 C 120.392 0.772233 -2.6633 0
M  V30 1353 H 123.343 -0.0266377 -1.58678 0
M  V30 1354 H 123.364 2.26076 -3.06055 0
M  V30 1355 H 122.876 0.607638 -3.83314 0
M  V30 1356 H 120.977 2.71461 -2.55225 0
M  V30 1357 H 121.09 2.06757 -4.3219 0
M  V30 1358 H 119.454 1.18566 -2.2542 0
M  V30 1359 H 120.237 0.00073556 -3.433 0
M  V30 1360 N 122.682 1.50554 0.465978 0
M  V30 1361 C 123.629 1.6979 1.56333 0
M  V30 1362 C 124.599 0.539239 1.57103 0
M  V30 1363 O 125.784 0.770401 1.74555 0
M  V30 1364 C 122.924 1.80273 2.94271 0
M  V30 1365 C 122.037 3.07674 3.0325 0
M  V30 1366 C 121.172 3.08922 4.32135 0
M  V30 1367 C 120.211 4.30755 4.34875 0
M  V30 1368 N 119.348 4.29714 5.55239 0
M  V30 1369 H 124.188 2.63472 1.39235 0
M  V30 1370 H 121.725 1.30602 0.676873 0
M  V30 1371 H 123.683 1.84332 3.74269 0
M  V30 1372 H 122.313 0.900258 3.09992 0
M  V30 1373 H 121.365 3.13062 2.16094 0
M  V30 1374 H 122.677 3.97642 3.01135 0
M  V30 1375 H 121.831 3.11738 5.20485 0
M  V30 1376 H 120.57 2.16792 4.36866 0
M  V30 1377 H 119.575 4.28146 3.44922 0
M  V30 1378 H 120.8 5.24117 4.31831 0
M  V30 1379 H 118.746 3.4044 5.60746 0
M  V30 1380 H 118.663 5.13456 5.54886 0
M  V30 1381 H 119.931 4.36683 6.457 0
M  V30 1382 N 124.16 -0.719506 1.40217 0
M  V30 1383 C 125.408 -1.47641 1.3801 0
M  V30 1384 C 125.729 -1.94992 -0.018145 0
M  V30 1385 O 124.999 -1.70073 -0.972207 0
M  V30 1386 H 123.579 -0.547744 0.507923 0
M  V30 1387 H 126.241 -0.853187 1.75233 0
M  V30 1388 H 125.337 -2.35112 2.05253 0
M  V30 1389 N 125.638 -1.25649 -0.95132 0
M  V30 1390 C 126.601 -1.06399 -2.03007 0
M  V30 1391 C 127.601 -0.0156794 -1.60792 0
M  V30 1392 O 128.791 -0.25817 -1.72276 0
M  V30 1393 C 125.923 -0.616184 -3.35285 0
M  V30 1394 H 127.116 -2.02164 -2.21517 0
M  V30 1395 H 124.669 -1.08103 -1.12887 0
M  V30 1396 H 125.404 0.343917 -3.22471 0
M  V30 1397 H 125.189 -1.37301 -3.67275 0
M  V30 1398 H 126.679 -0.503032 -4.14559 0
M  V30 1399 N 127.117 1.15442 -1.07289 0
M  V30 1400 C 128.067 2.18164 -0.662467 0
M  V30 1401 C 129.051 1.57845 0.312074 0
M  V30 1402 O 130.243 1.76552 0.125905 0
M  V30 1403 C 127.372 3.43246 -0.0611295 0
M  V30 1404 C 126.458 4.1062 -1.06077 0
M  V30 1405 N 126.849 4.53491 -2.24008 0
M  V30 1406 C 125.147 4.36949 -0.893964 0
M  V30 1407 C 125.848 5.05731 -2.87422 0
M  V30 1408 N 124.824 4.99236 -2.15091 0
M  V30 1409 H 128.626 2.49038 -1.56068 0
M  V30 1410 H 126.14 1.32003 -0.945988 0
M  V30 1411 H 128.137 4.16145 0.250792 0
M  V30 1412 H 126.797 3.13854 0.832207 0
M  V30 1413 H 127.808 4.46898 -2.6173 0
M  V30 1414 H 124.485 4.17466 -0.0534693 0
M  V30 1415 H 125.875 5.48865 -3.87553 0
M  V30 1416 N 128.595 0.856903 1.32268 0
M  V30 1417 C 129.825 0.47475 2.01071 0
M  V30 1418 C 130.233 -0.933746 1.64553 0
M  V30 1419 O 129.576 -1.62114 0.863989 0
M  V30 1420 C 129.638 0.536746 3.55471 0
M  V30 1421 C 129.302 1.90453 4.15423 0
M  V30 1422 C 130.299 2.87029 4.33486 0
M  V30 1423 C 127.984 2.20229 4.51447 0
M  V30 1424 C 129.978 4.11532 4.86744 0
M  V30 1425 C 127.665 3.44984 5.0441 0
M  V30 1426 C 128.663 4.40452 5.22007 0
M  V30 1427 O 128.351 5.62998 5.73837 0
M  V30 1428 H 128.083 0.184778 0.650256 0
M  V30 1429 H 130.637 1.15615 1.69771 0
M  V30 1430 H 128.867 -0.20152 3.86175 0
M  V30 1431 H 130.556 0.169875 4.05544 0
M  V30 1432 H 131.322 2.6533 4.05986 0
M  V30 1433 H 127.201 1.46705 4.37034 0
M  V30 1434 H 130.745 4.86056 5.00395 0
M  V30 1435 H 126.642 3.66532 5.31342 0
M  V30 1436 H 127.41 5.64987 5.92226 0
M  V30 1437 N 130.073 -1.45103 0.615059 0
M  V30 1438 C 131.003 -2.33339 -0.0865619 0
M  V30 1439 C 131.984 -1.4727 -0.851209 0
M  V30 1440 O 133.169 -1.76026 -0.820281 0
M  V30 1441 C 130.299 -3.30095 -1.07956 0
M  V30 1442 C 129.253 -4.25858 -0.427628 0
M  V30 1443 C 128.579 -5.12361 -1.5294 0
M  V30 1444 C 129.879 -5.18165 0.655944 0
M  V30 1445 H 131.573 -2.92254 0.650224 0
M  V30 1446 H 129.119 -1.40532 0.314138 0
M  V30 1447 H 131.072 -3.90698 -1.57901 0
M  V30 1448 H 129.796 -2.69355 -1.84703 0
M  V30 1449 H 128.455 -3.66564 0.0510292 0
M  V30 1450 H 128.103 -4.47984 -2.28734 0
M  V30 1451 H 127.803 -5.77238 -1.09865 0
M  V30 1452 H 129.327 -5.75833 -2.03098 0
M  V30 1453 H 130.741 -5.72796 0.240257 0
M  V30 1454 H 129.138 -5.91559 1.00888 0
M  V30 1455 H 130.208 -4.60144 1.52957 0
M  V30 1456 N 131.551 -0.354651 -1.53558 0
M  V30 1457 C 132.776 0.242153 -2.05981 0
M  V30 1458 C 133.201 1.42553 -1.2272 0
M  V30 1459 O 132.559 1.79656 -0.243604 0
M  V30 1460 C 132.607 0.624367 -3.55154 0
M  V30 1461 O 131.711 1.72301 -3.74681 0
M  V30 1462 H 131.052 0.0378432 -0.662921 0
M  V30 1463 H 133.582 -0.512087 -1.98088 0
M  V30 1464 H 133.592 0.898433 -3.97985 0
M  V30 1465 H 132.267 -0.240989 -4.15201 0
M  V30 1466 H 130.844 1.44535 -3.4375 0
M  V30 1467 N 133.029 1.57378 -0.0835403 0
M  V30 1468 C 133.976 2.13384 0.879539 0
M  V30 1469 C 134.946 1.04936 1.28754 0
M  V30 1470 O 136.131 1.32662 1.37133 0
M  V30 1471 C 133.271 2.70932 2.13752 0
M  V30 1472 C 132.384 3.93575 1.7811 0
M  V30 1473 C 131.519 4.39326 2.98607 0
M  V30 1474 C 130.558 5.54587 2.59037 0
M  V30 1475 N 129.695 5.95243 3.72331 0
M  V30 1476 H 134.535 2.9537 0.395076 0
M  V30 1477 H 132.072 1.45953 0.183349 0
M  V30 1478 H 134.03 3.02411 2.87408 0
M  V30 1479 H 132.66 1.91693 2.59718 0
M  V30 1480 H 131.712 3.68483 0.94469 0
M  V30 1481 H 133.024 4.77258 1.45005 0
M  V30 1482 H 132.178 4.72528 3.80529 0
M  V30 1483 H 130.917 3.5452 3.34913 0
M  V30 1484 H 129.922 5.21024 1.75539 0
M  V30 1485 H 131.147 6.41133 2.23887 0
M  V30 1486 H 129.093 5.13385 4.08378 0
M  V30 1487 H 129.01 6.73694 3.43034 0
M  V30 1488 H 130.278 6.33072 4.54797 0
M  V30 1489 N 134.507 -0.190092 1.56449 0
M  V30 1490 C 135.732 -0.929864 1.85387 0
M  V30 1491 C 136.157 -1.7585 0.667704 0
M  V30 1492 O 135.515 -1.77198 -0.383459 0
M  V30 1493 C 135.563 -1.79773 3.12593 0
M  V30 1494 O 134.667 -2.89713 2.93496 0
M  V30 1495 H 134.008 -0.261574 0.610307 0
M  V30 1496 H 136.538 -0.193896 2.03679 0
M  V30 1497 H 136.548 -2.20139 3.43515 0
M  V30 1498 H 135.223 -1.18892 3.98544 0
M  V30 1499 H 133.8 -2.53065 2.73884 0
M  V30 1500 N 135.985 -1.50799 -0.457987 0
M  V30 1501 C 136.915 -1.73553 -1.5621 0
M  V30 1502 C 137.896 -0.584774 -1.59732 0
M  V30 1503 O 139.081 -0.825314 -1.7579 0
M  V30 1504 C 136.211 -1.84169 -2.94447 0
M  V30 1505 C 135.165 -2.99461 -3.0579 0
M  V30 1506 C 134.491 -2.95235 -4.45803 0
M  V30 1507 C 135.791 -4.39766 -2.81786 0
M  V30 1508 H 137.485 -2.66 -1.37421 0
M  V30 1509 H 135.031 -1.28002 -0.659662 0
M  V30 1510 H 136.984 -1.98672 -3.71628 0
M  V30 1511 H 135.708 -0.883545 -3.14422 0
M  V30 1512 H 134.367 -2.8463 -2.31044 0
M  V30 1513 H 134.015 -1.97239 -4.62715 0
M  V30 1514 H 133.715 -3.72642 -4.54326 0
M  V30 1515 H 135.239 -3.11803 -5.24987 0
M  V30 1516 H 136.653 -4.55054 -3.4871 0
M  V30 1517 H 135.05 -5.18722 -3.0174 0
M  V30 1518 H 136.12 -4.51229 -1.7754 0
M  V30 1519 N 137.463 0.71206 -1.40597 0
M  V30 1520 C 138.74 1.46536 -1.29563 0
M  V30 1521 C 139.12 2.10931 0.0844217 0
M  V30 1522 O 138.468 2.00418 1.0975 0
M  V30 1523 C 138.678 2.49821 -2.43701 0
M  V30 1524 C 140.026 3.15551 -2.841 0
M  V30 1525 O 141.05 2.60142 -2.4332 0
M  V30 1526 O 139.909 4.15867 -3.54566 0
M  V30 1527 H 137.003 0.651801 -0.509004 0
M  V30 1528 H 139.549 0.743935 -1.52524 0
M  V30 1529 H 138.321 2.00778 -3.35863 0
M  V30 1530 H 137.944 3.29495 -2.22528 0
M  V30 1531 N 138.941 1.26152 0.944643 0
M  V30 1532 C 140.218 1.02247 1.66748 0
M  V30 1533 C 140.598 -0.448202 2.06287 0
M  V30 1534 O 139.946 -1.42779 1.78399 0
M  V30 1535 C 140.156 1.96788 2.88228 0
M  V30 1536 C 141.504 2.25201 3.59958 0
M  V30 1537 O 142.528 1.94626 2.98327 0
M  V30 1538 O 141.387 2.77242 4.70956 0
M  V30 1539 H 138.481 0.388517 0.730057 0
M  V30 1540 H 141.027 1.37348 0.99668 0
M  V30 1541 H 139.799 2.96047 2.55875 0
M  V30 1542 H 139.422 1.62145 3.63035 0
M  V30 1543 N 140.419 -1.14872 1.07899 0
M  V30 1544 C 141.382 -2.17986 0.708161 0
M  V30 1545 C 142.382 -1.58775 -0.25442 0
M  V30 1546 O 143.572 -1.74166 -0.034645 0
M  V30 1547 C 140.704 -3.40871 0.0446929 0
M  V30 1548 H 141.897 -2.52306 1.62116 0
M  V30 1549 H 139.45 -1.2943 0.876218 0
M  V30 1550 H 140.185 -3.12124 -0.880281 0
M  V30 1551 H 139.97 -3.8511 0.737091 0
M  V30 1552 H 141.46 -4.17121 -0.19991 0
M  V30 1553 N 141.898 -0.863906 -1.31812 0
M  V30 1554 C 142.828 -0.330843 -2.31144 0
M  V30 1555 C 143.809 0.575005 -1.60087 0
M  V30 1556 O 144.994 0.493304 -1.8783 0
M  V30 1557 C 142.124 0.47374 -3.44054 0
M  V30 1558 C 141.078 -0.338481 -4.26659 0
M  V30 1559 C 140.404 0.591412 -5.31419 0
M  V30 1560 C 141.704 -1.56926 -4.98168 0
M  V30 1561 H 143.398 -1.16086 -2.75979 0
M  V30 1562 H 140.944 -0.559657 -1.32679 0
M  V30 1563 H 142.897 0.857143 -4.12591 0
M  V30 1564 H 141.621 1.33721 -2.9797 0
M  V30 1565 H 140.28 -0.703754 -3.59782 0
M  V30 1566 H 139.928 1.45199 -4.81587 0
M  V30 1567 H 139.628 0.0519022 -5.87577 0
M  V30 1568 H 141.152 0.97179 -6.02817 0
M  V30 1569 H 142.566 -1.25764 -5.59336 0
M  V30 1570 H 140.963 -2.04739 -5.64094 0
M  V30 1571 H 142.033 -2.32544 -4.25501 0
M  V30 1572 N 143.376 1.44774 -0.622745 0
M  V30 1573 C 144.339 2.29069 0.0774015 0
M  V30 1574 C 145.339 1.4059 0.780461 0
M  V30 1575 O 146.529 1.62551 0.626322 0
M  V30 1576 C 143.661 3.21974 1.12006 0
M  V30 1577 H 144.854 2.92459 -0.663901 0
M  V30 1578 H 142.407 1.51548 -0.382486 0
M  V30 1579 H 143.142 2.63417 1.89162 0
M  V30 1580 H 142.927 3.87168 0.619951 0
M  V30 1581 H 144.417 3.85318 1.60995 0
M  V30 1582 N 144.854 0.36279 1.53368 0
M  V30 1583 C 145.784 -0.476976 2.28576 0
M  V30 1584 C 146.765 -1.08631 1.30894 0
M  V30 1585 O 147.95 -1.10409 1.59761 0
M  V30 1586 C 145.08 -1.61828 3.07293 0
M  V30 1587 C 144.034 -1.13633 4.1264 0
M  V30 1588 C 143.36 -2.36766 4.79423 0
M  V30 1589 C 144.66 -0.223061 5.21823 0
M  V30 1590 H 146.354 0.150474 2.99022 0
M  V30 1591 H 143.9 0.0738103 1.43811 0
M  V30 1592 H 145.853 -2.21237 3.58653 0
M  V30 1593 H 144.577 -2.27292 2.34533 0
M  V30 1594 H 143.236 -0.564945 3.62221 0
M  V30 1595 H 142.884 -3.0068 4.03238 0
M  V30 1596 H 142.584 -2.05192 5.50609 0
M  V30 1597 H 144.108 -2.96865 5.33576 0
M  V30 1598 H 145.522 -0.724545 5.68703 0
M  V30 1599 H 143.919 0.001678 6.001 0
M  V30 1600 H 144.989 0.735553 4.79289 0
M  V30 1601 N 146.332 -1.57332 0.0918853 0
M  V30 1602 C 147.262 -2.16872 -0.865371 0
M  V30 1603 C 148.243 -1.10118 -1.29646 0
M  V30 1604 O 149.428 -1.38242 -1.36392 0
M  V30 1605 C 146.558 -2.74649 -2.12569 0
M  V30 1606 C 145.512 -3.86747 -1.83333 0
M  V30 1607 C 144.838 -4.31212 -3.16166 0
M  V30 1608 C 146.138 -5.10089 -1.1228 0
M  V30 1609 H 147.832 -2.97114 -0.369307 0
M  V30 1610 H 145.378 -1.42918 -0.176194 0
M  V30 1611 H 147.331 -3.14952 -2.7997 0
M  V30 1612 H 146.055 -1.91657 -2.64452 0
M  V30 1613 H 144.714 -3.46978 -1.18331 0
M  V30 1614 H 144.362 -3.45115 -3.6593 0
M  V30 1615 H 144.062 -5.06788 -2.97388 0
M  V30 1616 H 145.586 -4.74146 -3.84731 0
M  V30 1617 H 147 -5.47582 -1.69785 0
M  V30 1618 H 145.397 -5.91073 -1.03693 0
M  V30 1619 H 146.467 -4.84786 -0.105041 0
M  V30 1620 N 147.81 0.181792 -1.56548 0
M  V30 1621 C 149.087 0.926765 -1.72251 0
M  V30 1622 C 149.467 2.00831 -0.650386 0
M  V30 1623 O 148.815 2.26008 0.336521 0
M  V30 1624 C 149.025 1.50106 -3.1507 0
M  V30 1625 C 150.373 1.97805 -3.75711 0
M  V30 1626 O 151.397 1.59922 -3.18282 0
M  V30 1627 O 150.256 2.67555 -4.76525 0
M  V30 1628 H 147.35 0.435506 -0.703039 0
M  V30 1629 H 149.896 0.170443 -1.68842 0
M  V30 1630 H 148.668 0.72212 -3.84579 0
M  V30 1631 H 148.291 2.32186 -3.22763 0
M  V30 1632 N 149.288 1.51039 0.449983 0
M  V30 1633 C 150.513 1.6715 1.22783 0
M  V30 1634 C 150.938 0.363081 1.84563 0
M  V30 1635 O 150.296 -0.675433 1.68249 0
M  V30 1636 C 150.344 2.77985 2.29689 0
M  V30 1637 O 149.448 2.40707 3.34864 0
M  V30 1638 H 148.789 0.557746 0.360299 0
M  V30 1639 H 151.319 1.97535 0.533005 0
M  V30 1640 H 151.329 3.01693 2.74673 0
M  V30 1641 H 150.004 3.72935 1.84098 0
M  V30 1642 H 148.581 2.27523 2.95445 0
M  V30 1643 N 150.766 -0.704594 1.40972 0
M  V30 1644 C 152.177 -1.28418 1.3552 0
M  V30 1645 C 152.528 -1.96171 0.0339434 0
M  V30 1646 O 151.653 -1.98231 -0.867944 0
M  V30 1647 C 152.248 -2.33528 2.45459 0
M  V30 1648 C 150.807 -2.87085 2.43433 0
M  V30 1649 C 149.954 -1.61007 2.2577 0
M  V30 1650 H 152.905 -0.499963 1.50619 0
M  V30 1651 H 152.926 -3.14619 2.13998 0
M  V30 1652 H 152.438 -1.84187 3.41609 0
M  V30 1653 H 150.539 -3.40626 1.51013 0
M  V30 1654 H 150.652 -3.3813 3.39419 0
M  V30 1655 H 149.016 -1.86482 1.73483 0
M  V30 1656 H 149.799 -1.13675 3.23933 0
M  V30 1657 N 152.244 -1.26651 -0.937939 0
M  V30 1658 C 153.154 -1.10276 -2.07066 0
M  V30 1659 C 154.17 -0.0354197 -1.73964 0
M  V30 1660 O 155.346 -0.239816 -1.99967 0
M  V30 1661 C 152.411 -0.740887 -3.38691 0
M  V30 1662 C 151.472 -1.88799 -3.85556 0
M  V30 1663 C 150.705 -1.54329 -5.10899 0
M  V30 1664 O 150.928 -0.446494 -5.6865 0
M  V30 1665 O 149.862 -2.37911 -5.52885 0
M  V30 1666 H 153.688 -2.05309 -2.23789 0
M  V30 1667 H 151.273 -1.05743 -1.0554 0
M  V30 1668 H 153.155 -0.55195 -4.1777 0
M  V30 1669 H 151.83 0.180022 -3.23199 0
M  V30 1670 H 150.737 -2.13191 -3.07409 0
M  V30 1671 H 152.07 -2.78874 -4.05574 0
M  V30 1672 N 153.722 1.14298 -1.08507 0
M  V30 1673 C 154.652 2.21542 -0.737646 0
M  V30 1674 C 155.633 1.67773 0.280377 0
M  V30 1675 O 156.818 1.93616 0.150521 0
M  V30 1676 C 153.948 3.46988 -0.147259 0
M  V30 1677 C 152.902 4.13789 -1.09374 0
M  V30 1678 C 152.228 5.33449 -0.365524 0
M  V30 1679 C 153.528 4.62208 -2.4323 0
M  V30 1680 H 155.222 2.5086 -1.6343 0
M  V30 1681 H 152.768 1.20576 -0.787243 0
M  V30 1682 H 154.721 4.21262 0.107808 0
M  V30 1683 H 153.445 3.17037 0.784538 0
M  V30 1684 H 152.104 3.4147 -1.33393 0
M  V30 1685 H 151.752 4.99759 0.57011 0
M  V30 1686 H 151.452 5.79088 -0.996512 0
M  V30 1687 H 152.976 6.10485 -0.118534 0
M  V30 1688 H 154.39 5.27952 -2.23472 0
M  V30 1689 H 152.787 5.18553 -3.02031 0
M  V30 1690 H 153.857 3.77224 -3.04681 0
M  V30 1691 N 155.201 0.870884 1.31352 0
M  V30 1692 C 156.148 0.325425 2.28494 0
M  V30 1693 C 157.118 -0.576615 1.5577 0
M  V30 1694 O 158.303 -0.508059 1.83911 0
M  V30 1695 C 155.443 -0.466283 3.41935 0
M  V30 1696 C 154.556 0.463378 4.29508 0
M  V30 1697 C 153.691 -0.342544 5.30094 0
M  V30 1698 C 152.73 0.583486 6.09313 0
M  V30 1699 N 151.867 -0.186244 7.01853 0
M  V30 1700 H 156.707 1.15901 2.74538 0
M  V30 1701 H 154.244 0.58294 1.35056 0
M  V30 1702 H 156.202 -0.941085 4.06447 0
M  V30 1703 H 154.832 -1.26456 2.97 0
M  V30 1704 H 153.884 1.05663 3.65431 0
M  V30 1705 H 155.196 1.1734 4.84802 0
M  V30 1706 H 154.35 -0.879816 6.00287 0
M  V30 1707 H 153.089 -1.08585 4.75458 0
M  V30 1708 H 152.094 1.13251 5.3801 0
M  V30 1709 H 153.319 1.32566 6.66035 0
M  V30 1710 H 151.265 -0.912348 6.49625 0
M  V30 1711 H 151.182 0.464422 7.54572 0
M  V30 1712 H 152.45 -0.704716 7.76308 0
M  V30 1713 N 156.679 -1.44442 0.630414 0
M  V30 1714 C 157.904 -2.06927 0.139944 0
M  V30 1715 C 158.329 -1.46795 -1.17613 0
M  V30 1716 O 157.687 -0.569144 -1.72135 0
M  V30 1717 C 157.735 -3.6058 0.0379581 0
M  V30 1718 O 156.839 -3.99937 -1.0062 0
M  V30 1719 H 156.18 -0.658608 0.0844483 0
M  V30 1720 H 158.71 -1.85327 0.866891 0
M  V30 1721 H 158.72 -4.07714 -0.152856 0
M  V30 1722 H 157.395 -4.03728 0.998809 0
M  V30 1723 H 155.972 -3.64436 -0.79001 0
M  V30 1724 N 158.157 -0.370918 -1.53173 0
M  V30 1725 C 159.104 0.473035 -2.259 0
M  V30 1726 C 160.074 1.07311 -1.26781 0
M  V30 1727 O 161.259 1.1046 -1.55574 0
M  V30 1728 C 158.399 1.60405 -3.05556 0
M  V30 1729 C 157.512 1.02863 -4.19575 0
M  V30 1730 C 156.647 2.12918 -4.86661 0
M  V30 1731 C 155.686 1.52869 -5.92704 0
M  V30 1732 N 154.823 2.56779 -6.53459 0
M  V30 1733 H 159.663 -0.153649 -2.97604 0
M  V30 1734 H 157.2 -0.0875946 -1.46839 0
M  V30 1735 H 159.158 2.27034 -3.50016 0
M  V30 1736 H 157.788 2.20131 -2.36097 0
M  V30 1737 H 156.84 0.252465 -3.79561 0
M  V30 1738 H 158.152 0.549642 -4.95762 0
M  V30 1739 H 157.306 2.87356 -5.34333 0
M  V30 1740 H 156.045 2.6417 -4.09958 0
M  V30 1741 H 155.05 0.769479 -5.44389 0
M  V30 1742 H 156.275 1.02435 -6.7133 0
M  V30 1743 H 154.221 3.07235 -5.79606 0
M  V30 1744 H 154.138 2.13583 -7.25202 0
M  V30 1745 H 155.406 3.30903 -7.05779 0
M  V30 1746 N 159.635 1.57281 -0.100228 0
M  V30 1747 C 160.881 1.94826 0.563101 0
M  V30 1748 C 161.214 0.982475 1.67514 0
M  V30 1749 O 160.489 0.0164069 1.94493 0
M  V30 1750 C 160.772 3.42453 1.11346 0
M  V30 1751 C 160.625 4.498 0.00612081 0
M  V30 1752 C 161.944 3.91506 2.01024 0
M  V30 1753 H 159.063 0.708428 0.203221 0
M  V30 1754 H 161.705 1.8922 -0.171979 0
M  V30 1755 H 159.855 3.47361 1.7399 0
M  V30 1756 H 161.527 4.57 -0.628357 0
M  V30 1757 H 159.77 4.28756 -0.659581 0
M  V30 1758 H 160.441 5.50306 0.432109 0
M  V30 1759 H 162.917 3.88784 1.48278 0
M  V30 1760 H 161.793 4.95358 2.36457 0
M  V30 1761 H 162.054 3.31099 2.92961 0
M  V30 1762 N 161.113 -0.173488 1.56642 0
M  V30 1763 C 162.39 -0.917617 1.7274 0
M  V30 1764 C 162.77 -2.00484 0.661027 0
M  V30 1765 O 162.118 -2.26184 -0.32453 0
M  V30 1766 C 162.328 -1.48433 3.15862 0
M  V30 1767 C 163.676 -1.95809 3.76754 0
M  V30 1768 O 164.7 -1.58231 3.19126 0
M  V30 1769 O 163.559 -2.65024 4.77938 0
M  V30 1770 H 160.653 -0.431772 0.705338 0
M  V30 1771 H 163.199 -0.161487 1.6893 0
M  V30 1772 H 161.971 -0.701715 3.84957 0
M  V30 1773 H 161.594 -2.30471 3.23989 0
M  V30 1774 N 162.591 -1.51276 -0.441967 0
M  V30 1775 C 163.524 -1.66933 -1.55591 0
M  V30 1776 C 164.502 -0.516958 -1.54163 0
M  V30 1777 O 165.686 -0.740209 -1.73358 0
M  V30 1778 C 162.813 -1.67866 -2.94174 0
M  V30 1779 C 161.859 -2.89013 -3.13646 0
M  V30 1780 S 162.692 -4.49897 -2.90436 0
M  V30 1781 C 163.848 -4.53568 -4.31308 0
M  V30 1782 H 164.081 -2.61155 -1.42076 0
M  V30 1783 H 161.614 -1.40902 -0.631341 0
M  V30 1784 H 163.572 -1.69089 -3.74058 0
M  V30 1785 H 162.233 -0.748296 -3.05056 0
M  V30 1786 H 161.426 -2.86054 -4.14957 0
M  V30 1787 H 161.028 -2.85509 -2.4158 0
M  V30 1788 H 163.32 -4.28924 -5.24434 0
M  V30 1789 H 164.263 -5.55355 -4.39303 0
M  V30 1790 H 164.671 -3.82943 -4.14747 0
M  V30 1791 N 164.069 0.697108 -1.41344 0
M  V30 1792 C 165.315 1.4593 -1.40827 0
M  V30 1793 C 165.648 1.94193 -0.0167098 0
M  V30 1794 O 164.923 1.69425 0.955263 0
M  V30 1795 C 165.206 2.67229 -2.41373 0
M  V30 1796 C 165.059 2.24741 -3.8963 0
M  V30 1797 C 166.378 3.69423 -2.39196 0
M  V30 1798 H 163.497 0.529303 -0.512842 0
M  V30 1799 H 166.139 0.794112 -1.72609 0
M  V30 1800 H 164.289 3.23982 -2.14401 0
M  V30 1801 H 165.961 1.73327 -4.27499 0
M  V30 1802 H 164.204 1.56542 -4.0457 0
M  V30 1803 H 164.875 3.1177 -4.55525 0
M  V30 1804 H 167.351 3.2234 -2.63128 0
M  V30 1805 H 166.227 4.51907 -3.11563 0
M  V30 1806 H 166.488 4.19012 -1.41001 0
M  V30 1807 N 165.547 1.27147 0.931209 0
M  V30 1808 C 166.793 1.14455 1.68141 0
M  V30 1809 C 167.148 -0.307172 1.89932 0
M  V30 1810 O 166.441 -1.22158 1.47607 0
M  V30 1811 C 166.635 1.8579 3.05314 0
M  V30 1812 C 166.464 3.3775 2.96909 0
M  V30 1813 C 165.234 4.07062 2.99381 0
M  V30 1814 C 167.432 4.33783 2.76291 0
M  V30 1815 N 165.414 5.45618 2.8138 0
M  V30 1816 C 166.785 5.59582 2.6696 0
M  V30 1817 C 168.84 4.23915 2.61152 0
M  V30 1818 C 167.543 6.76639 2.44033 0
M  V30 1819 C 169.569 5.40689 2.39602 0
M  V30 1820 C 168.931 6.65443 2.3101 0
M  V30 1821 H 165.03 0.473667 0.622225 0
M  V30 1822 H 167.614 1.60568 1.10118 0
M  V30 1823 H 165.785 1.42138 3.61457 0
M  V30 1824 H 167.517 1.65634 3.69253 0
M  V30 1825 H 164.272 3.585 3.09475 0
M  V30 1826 H 164.696 6.184 2.75519 0
M  V30 1827 H 169.338 3.28189 2.66555 0
M  V30 1828 H 167.056 7.72451 2.3737 0
M  V30 1829 H 170.642 5.34932 2.28778 0
M  V30 1830 H 169.522 7.54277 2.14558 0
M  V30 1831 N 167.025 -1.13721 1.09112 0
M  V30 1832 C 168.274 -1.84275 0.82009 0
M  V30 1833 C 168.587 -1.84253 -0.656509 0
M  V30 1834 O 169.793 -2.50668 -1.04296 0
M  V30 1835 C 168.249 -3.30825 1.41714 0
M  V30 1836 C 167.857 -3.39244 2.92605 0
M  V30 1837 C 169.601 -4.06443 1.22492 0
M  V30 1838 C 167.508 -4.80047 3.45411 0
M  V30 1839 H 166.438 -0.690387 0.30312 0
M  V30 1840 H 169.089 -1.28146 1.31343 0
M  V30 1841 H 167.471 -3.86737 0.851498 0
M  V30 1842 H 168.645 -2.93344 3.55367 0
M  V30 1843 H 166.96 -2.77088 3.10823 0
M  V30 1844 H 169.557 -5.10387 1.59402 0
M  V30 1845 H 169.9 -4.15972 0.165299 0
M  V30 1846 H 170.433 -3.56852 1.75788 0
M  V30 1847 H 167.172 -4.75709 4.50978 0
M  V30 1848 H 166.692 -5.26455 2.87411 0
M  V30 1849 H 168.371 -5.48957 3.42425 0
M  V30 1850 N 168.503 -0.877838 -1.30888 0
M  V30 1851 C 169.749 -0.493426 -1.96706 0
M  V30 1852 C 170.082 0.953504 -1.6918 0
M  V30 1853 O 169.357 1.67266 -0.992594 0
M  V30 1854 C 169.64 -0.760429 -3.51979 0
M  V30 1855 C 169.493 -2.25747 -3.89048 0
M  V30 1856 C 170.812 -0.232148 -4.39487 0
M  V30 1857 H 167.931 -0.180746 -0.714493 0
M  V30 1858 H 170.573 -1.10052 -1.54882 0
M  V30 1859 H 168.723 -0.243715 -3.87735 0
M  V30 1860 H 170.395 -2.84204 -3.63354 0
M  V30 1861 H 168.638 -2.72694 -3.37373 0
M  V30 1862 H 169.309 -2.39491 -4.97341 0
M  V30 1863 H 171.785 -0.674314 -4.106 0
M  V30 1864 H 170.661 -0.448355 -5.47066 0
M  V30 1865 H 170.922 0.866297 -4.33529 0
M  V30 1866 N 169.982 1.44106 -0.638065 0
M  V30 1867 C 171.23 2.01579 -0.145043 0
M  V30 1868 C 171.551 1.50496 1.24 0
M  V30 1869 O 170.821 0.711374 1.82527 0
M  V30 1870 H 169.401 0.745282 -0.05063 0
M  V30 1871 H 172.063 1.76516 -0.826327 0
M  V30 1872 H 171.159 3.11877 -0.118039 0
M  V30 1873 N 171.46 0.379036 1.52974 0
M  V30 1874 C 172.708 -0.206014 2.01047 0
M  V30 1875 C 173.029 -1.48175 1.26765 0
M  V30 1876 O 172.299 -1.92085 0.384743 0
M  V30 1877 H 170.879 -0.0791184 0.742798 0
M  V30 1878 H 173.541 0.508366 1.88153 0
M  V30 1879 H 172.637 -0.423501 3.09213 0
M  V30 1880 N 172.938 -1.57226 0.108567 0
M  V30 1881 C 174.166 -1.99179 -0.559954 0
M  V30 1882 C 174.581 -0.988022 -1.60884 0
M  V30 1883 O 173.938 0.0205512 -1.82488 0
M  V30 1884 C 173.989 -3.41159 -1.19552 0
M  V30 1885 O 173.71 -4.37694 -0.188577 0
M  V30 1886 C 175.211 -3.98188 -1.94837 0
M  V30 1887 H 172.431 -0.654228 -0.149088 0
M  V30 1888 H 174.975 -2.03598 0.19183 0
M  V30 1889 H 173.13 -3.37711 -1.89815 0
M  V30 1890 H 173.544 -5.20469 -0.649014 0
M  V30 1891 H 175.018 -4.99644 -2.34648 0
M  V30 1892 H 175.495 -3.3675 -2.81951 0
M  V30 1893 H 176.101 -4.0515 -1.2936 0
M  V30 1894 N 174.416 0.165178 -1.56732 0
M  V30 1895 C 175.379 1.18822 -1.95995 0
M  V30 1896 C 176.379 1.3685 -0.84431 0
M  V30 1897 O 177.569 1.34152 -1.11126 0
M  V30 1898 C 174.701 2.5521 -2.26011 0
M  V30 1899 H 175.894 0.851825 -2.87548 0
M  V30 1900 H 173.447 0.407857 -1.50885 0
M  V30 1901 H 174.182 2.93852 -1.37191 0
M  V30 1902 H 173.967 2.43489 -3.07336 0
M  V30 1903 H 175.457 3.28927 -2.57288 0
M  V30 1904 N 175.894 1.51508 0.433938 0
M  V30 1905 C 177.14 1.64588 1.18484 0
M  V30 1906 C 177.473 0.362666 1.90784 0
M  V30 1907 O 176.748 -0.637892 1.83742 0
M  V30 1908 C 177.031 2.85149 2.19913 0
M  V30 1909 C 176.884 4.23456 1.51674 0
M  V30 1910 C 178.203 3.01227 3.20858 0
M  V30 1911 H 175.322 0.598994 0.429389 0
M  V30 1912 H 177.964 1.84002 0.473647 0
M  V30 1913 H 176.114 2.68729 2.80566 0
M  V30 1914 H 177.786 4.51552 0.943322 0
M  V30 1915 H 176.029 4.25998 0.819035 0
M  V30 1916 H 176.7 5.03812 2.2556 0
M  V30 1917 H 179.176 3.16382 2.70263 0
M  V30 1918 H 178.052 3.87141 3.89118 0
M  V30 1919 H 178.313 2.13447 3.8716 0
M  V30 1920 N 177.372 -0.689602 1.41712 0
M  V30 1921 C 178.602 -1.47613 1.44548 0
M  V30 1922 C 179.01 -1.89132 0.0509034 0
M  V30 1923 O 178.353 -1.57741 -0.94146 0
M  V30 1924 C 178.415 -2.76596 2.2964 0
M  V30 1925 C 178.079 -2.57245 3.77722 0
M  V30 1926 C 179.076 -2.22804 4.69739 0
M  V30 1927 C 176.761 -2.727 4.2183 0
M  V30 1928 C 178.755 -2.04064 6.03851 0
M  V30 1929 C 176.442 -2.53576 5.56006 0
M  V30 1930 C 177.44 -2.1931 6.46832 0
M  V30 1931 O 177.128 -2.00359 7.78532 0
M  V30 1932 H 176.86 -0.461227 0.494212 0
M  V30 1933 H 179.414 -0.856045 1.86711 0
M  V30 1934 H 177.644 -3.41033 1.82301 0
M  V30 1935 H 179.333 -3.38424 2.24107 0
M  V30 1936 H 180.099 -2.10473 4.36951 0
M  V30 1937 H 175.978 -2.98353 3.51435 0
M  V30 1938 H 179.522 -1.77241 6.74708 0
M  V30 1939 H 175.419 -2.65499 5.88371 0
M  V30 1940 H 176.187 -2.15075 7.89737 0
M  V30 1941 N 178.85 -1.27639 -0.924453 0
M  V30 1942 C 179.797 -1.10644 -2.0255 0
M  V30 1943 C 180.767 -0.00658438 -1.66099 0
M  V30 1944 O 181.952 -0.16952 -1.90045 0
M  V30 1945 C 179.092 -0.76309 -3.36557 0
M  V30 1946 C 178.205 -1.94091 -3.85944 0
M  V30 1947 C 177.34 -1.53914 -5.08413 0
M  V30 1948 C 176.379 -2.68425 -5.50104 0
M  V30 1949 N 175.516 -2.28815 -6.63768 0
M  V30 1950 H 180.356 -2.04858 -2.16419 0
M  V30 1951 H 177.893 -1.01974 -1.06017 0
M  V30 1952 H 179.851 -0.544822 -4.13627 0
M  V30 1953 H 178.481 0.142102 -3.22487 0
M  V30 1954 H 177.533 -2.27162 -3.05125 0
M  V30 1955 H 178.845 -2.7998 -4.12811 0
M  V30 1956 H 177.999 -1.28231 -5.92994 0
M  V30 1957 H 176.738 -0.651391 -4.8333 0
M  V30 1958 H 175.743 -2.94819 -4.64071 0
M  V30 1959 H 176.968 -3.57826 -5.7718 0
M  V30 1960 H 174.914 -1.42495 -6.40337 0
M  V30 1961 H 174.831 -3.08242 -6.90306 0
M  V30 1962 H 176.099 -2.06387 -7.51681 0
M  V30 1963 N 180.328 1.1314 -1.09713 0
M  V30 1964 C 181.291 2.16831 -0.742751 0
M  V30 1965 C 182.291 1.59159 0.229129 0
M  V30 1966 O 183.481 1.74199 0.00693237 0
M  V30 1967 C 180.613 3.40756 -0.0989168 0
M  V30 1968 H 181.806 2.49695 -1.66109 0
M  V30 1969 H 179.359 1.2802 -0.896699 0
M  V30 1970 H 180.094 3.13485 0.830514 0
M  V30 1971 H 179.879 3.83888 -0.798265 0
M  V30 1972 H 181.369 4.17386 0.133524 0
M  V30 1973 N 181.806 0.884767 1.30421 0
M  V30 1974 C 182.769 0.356277 2.26414 0
M  V30 1975 C 183.769 -0.501124 1.52792 0
M  V30 1976 O 184.959 -0.30831 1.7145 0
M  V30 1977 C 182.091 -0.492316 3.37326 0
M  V30 1978 H 183.284 1.20389 2.74675 0
M  V30 1979 H 180.837 0.661607 1.41607 0
M  V30 1980 H 181.572 -1.36052 2.94381 0
M  V30 1981 H 181.357 0.121832 3.91911 0
M  V30 1982 H 182.847 -0.853871 4.08777 0
M  V30 1983 N 183.284 -1.43765 0.645699 0
M  V30 1984 C 184.217 -2.2798 -0.100072 0
M  V30 1985 C 185.195 -1.39391 -0.837194 0
M  V30 1986 O 186.379 -1.68833 -0.838306 0
M  V30 1987 C 183.506 -3.18643 -1.14823 0
M  V30 1988 C 182.552 -4.2344 -0.510009 0
M  V30 1989 S 183.385 -5.30761 0.710824 0
M  V30 1990 C 184.541 -6.24992 -0.33699 0
M  V30 1991 H 184.774 -2.90884 0.614322 0
M  V30 1992 H 182.307 -1.48166 0.434304 0
M  V30 1993 H 184.265 -3.71424 -1.74799 0
M  V30 1994 H 182.926 -2.54932 -1.8349 0
M  V30 1995 H 182.119 -4.86948 -1.29991 0
M  V30 1996 H 181.721 -3.73997 0.0154577 0
M  V30 1997 H 184.013 -6.66691 -1.20537 0
M  V30 1998 H 184.956 -7.07612 0.262879 0
M  V30 1999 H 185.364 -5.60517 -0.669425 0
M  V30 2000 N 184.763 -0.387143 -1.52771 0
M  V30 2001 C 185.673 0.456442 -2.30117 0
M  V30 2002 C 186.689 1.07342 -1.36944 0
M  V30 2003 O 187.865 1.07971 -1.70013 0
M  V30 2004 C 184.93 1.56957 -3.09136 0
M  V30 2005 C 183.991 0.977916 -4.18014 0
M  V30 2006 C 183.224 2.038 -4.93256 0
M  V30 2007 O 183.447 3.25271 -4.68567 0
M  V30 2008 O 182.381 1.6565 -5.78657 0
M  V30 2009 H 186.207 -0.17359 -3.03203 0
M  V30 2010 H 183.792 -0.150919 -1.48636 0
M  V30 2011 H 185.674 2.21628 -3.58412 0
M  V30 2012 H 184.349 2.18461 -2.38865 0
M  V30 2013 H 183.256 0.294525 -3.72939 0
M  V30 2014 H 184.589 0.407128 -4.90513 0
M  V30 2015 N 186.241 1.57166 -0.116904 0
M  V30 2016 C 187.188 2.15202 0.83408 0
M  V30 2017 C 188.158 1.07644 1.26499 0
M  V30 2018 O 189.343 1.35541 1.34288 0
M  V30 2019 C 186.483 2.75405 2.07957 0
M  V30 2020 C 185.596 3.97264 1.69721 0
M  V30 2021 C 184.731 4.45561 2.89221 0
M  V30 2022 C 183.77 5.59956 2.47215 0
M  V30 2023 N 182.907 6.03006 3.59622 0
M  V30 2024 H 187.747 2.96141 0.332335 0
M  V30 2025 H 185.284 1.46309 0.152349 0
M  V30 2026 H 187.242 3.08439 2.80929 0
M  V30 2027 H 185.872 1.97159 2.55594 0
M  V30 2028 H 184.924 3.70404 0.866316 0
M  V30 2029 H 186.236 4.80226 1.34849 0
M  V30 2030 H 185.39 4.80493 3.7042 0
M  V30 2031 H 184.129 3.61544 3.27318 0
M  V30 2032 H 183.134 5.2463 1.64448 0
M  V30 2033 H 184.359 6.45738 2.10238 0
M  V30 2034 H 182.305 5.21931 3.97396 0
M  V30 2035 H 182.222 6.80819 3.28667 0
M  V30 2036 H 183.49 6.42576 4.41267 0
M  V30 2037 N 187.719 -0.156864 1.56817 0
M  V30 2038 C 189.13 -0.717916 1.72345 0
M  V30 2039 C 189.481 -1.82124 0.729747 0
M  V30 2040 O 188.606 -2.16141 -0.105781 0
M  V30 2041 C 189.201 -1.30904 3.12489 0
M  V30 2042 C 187.76 -1.81676 3.29653 0
M  V30 2043 C 186.907 -0.701349 2.68284 0
M  V30 2044 H 189.858 0.0686989 1.58551 0
M  V30 2045 H 189.879 -2.17882 3.11942 0
M  V30 2046 H 189.391 -0.505796 3.8479 0
M  V30 2047 H 187.492 -2.64598 2.62333 0
M  V30 2048 H 187.605 -1.95226 4.3752 0
M  V30 2049 H 185.969 -1.12548 2.28484 0
M  V30 2050 H 186.752 0.0902846 3.43181 0
M  V30 2051 N 189.197 -1.51736 -0.425897 0
M  V30 2052 C 190.446 -1.64201 -1.17136 0
M  V30 2053 C 190.759 -0.369705 -1.92074 0
M  V30 2054 O 191.965 -0.373898 -2.68913 0
M  V30 2055 C 190.421 -2.90035 -2.13091 0
M  V30 2056 C 190.029 -4.24312 -1.43747 0
M  V30 2057 C 191.773 -3.1186 -2.87999 0
M  V30 2058 C 189.68 -5.41285 -2.38253 0
M  V30 2059 H 188.61 -0.611624 -0.440944 0
M  V30 2060 H 191.261 -1.78212 -0.437328 0
M  V30 2061 H 189.643 -2.69684 -2.89977 0
M  V30 2062 H 190.817 -4.55086 -0.723408 0
M  V30 2063 H 189.132 -4.08456 -0.809465 0
M  V30 2064 H 191.729 -3.96427 -3.58817 0
M  V30 2065 H 192.072 -2.25403 -3.49999 0
M  V30 2066 H 192.605 -3.32605 -2.18217 0
M  V30 2067 H 189.344 -6.30037 -1.80925 0
M  V30 2068 H 188.864 -5.14872 -3.0768 0
M  V30 2069 H 190.543 -5.73694 -2.99139 0
M  V30 2070 N 190.675 0.682077 -1.42076 0
M  V30 2071 C 191.623 1.81707 -1.45208 0
M  V30 2072 C 192.617 1.66183 -0.328591 0
M  V30 2073 O 193.823 1.7288 -0.501264 0
M  V30 2074 H 190.198 0.599014 -0.454628 0
M  V30 2075 H 192.169 1.76183 -2.40836 0
M  V30 2076 C 190.918 3.19816 -1.36428 0
M  V30 2077 H 190.241 3.32385 -2.22171 0
M  V30 2078 H 191.681 3.99272 -1.42681 0
M  V30 2079 C 190.14 3.36809 -0.078191 0
M  V30 2080 O 190.67 3.92124 0.87188 0
M  V30 2081 N 188.876 2.906 0.00229266 0
M  V30 2082 H 188.423 2.45772 -0.771616 0
M  V30 2083 H 188.381 3.02347 0.862179 0
M  V30 2084 N 192.153 1.28127 0.917671 0
M  V30 2085 C 193.103 1.08361 2.00604 0
M  V30 2086 C 194.087 0.00847518 1.60898 0
M  V30 2087 O 195.279 0.228167 1.75523 0
M  V30 2088 C 192.408 0.743376 3.35155 0
M  V30 2089 C 191.494 1.85716 3.81275 0
M  V30 2090 N 191.885 3.09822 3.99805 0
M  V30 2091 C 190.183 1.74612 4.10398 0
M  V30 2092 C 190.884 3.82368 4.38372 0
M  V30 2093 N 189.86 3.10192 4.4641 0
M  V30 2094 H 193.662 2.02531 2.12975 0
M  V30 2095 H 191.176 1.18989 1.10523 0
M  V30 2096 H 193.173 0.582859 4.12805 0
M  V30 2097 H 191.833 -0.190595 3.2414 0
M  V30 2098 H 192.844 3.45475 3.85833 0
M  V30 2099 H 189.521 0.883657 4.08041 0
M  V30 2100 H 190.911 4.89082 4.60704 0
M  V30 2101 N 193.631 -1.12557 1.10312 0
M  V30 2102 C 195.047 -1.36036 0.834649 0
M  V30 2103 C 195.247 -1.93946 -0.546539 0
M  V30 2104 O 194.303 -2.16484 -1.29966 0
M  V30 2105 C 195.616 -2.30312 1.9333 0
M  V30 2106 C 197.164 -2.43906 1.9616 0
M  V30 2107 C 197.639 -3.41496 3.05195 0
M  V30 2108 N 199.13 -3.49053 3.04494 0
M  V30 2109 C 199.865 -4.24471 3.85502 0
M  V30 2110 N 199.361 -5.02966 4.76442 0
M  V30 2111 N 201.154 -4.19864 3.73725 0
M  V30 2112 H 193.305 -0.733246 1.99342 0
M  V30 2113 H 195.568 -0.385234 0.866198 0
M  V30 2114 H 195.274 -1.94933 2.92735 0
M  V30 2115 H 195.148 -3.30421 1.81939 0
M  V30 2116 H 197.535 -2.78567 0.973886 0
M  V30 2117 H 197.616 -1.4369 2.11629 0
M  V30 2118 H 197.26 -3.07565 4.04186 0
M  V30 2119 H 197.19 -4.41539 2.86968 0
M  V30 2120 H 199.681 -2.93053 2.38596 0
M  V30 2121 H 199.994 -5.57846 5.34815 0
M  V30 2122 H 198.339 -5.02167 4.80472 0
M  V30 2123 H 201.53 -3.57623 3.02032 0
M  V30 2124 H 201.703 -4.78386 4.37093 0
M  V30 2125 N 195.109 -0.891671 -1.2995 0
M  V30 2126 C 196.039 -0.379797 -2.30391 0
M  V30 2127 C 197.02 0.540919 -1.6127 0
M  V30 2128 O 198.205 0.453352 -1.88834 0
M  V30 2129 C 195.335 0.400654 -3.44981 0
M  V30 2130 C 194.289 -0.428905 -4.25846 0
M  V30 2131 C 193.615 0.478557 -5.32554 0
M  V30 2132 C 194.915 -1.67458 -4.94727 0
M  V30 2133 H 196.609 -1.21914 -2.73454 0
M  V30 2134 H 194.155 -0.587675 -1.31462 0
M  V30 2135 H 196.108 0.769434 -4.14316 0
M  V30 2136 H 194.832 1.27371 -3.0074 0
M  V30 2137 H 193.491 -0.779911 -3.58208 0
M  V30 2138 H 193.139 1.34951 -4.84559 0
M  V30 2139 H 192.839 -0.0727433 -5.87555 0
M  V30 2140 H 194.363 0.843705 -6.04743 0
M  V30 2141 H 195.777 -1.376 -5.56542 0
M  V30 2142 H 194.174 -2.16659 -5.59624 0
M  V30 2143 H 195.244 -2.41518 -4.20473 0
M  V30 2144 N 196.587 1.43421 -0.653314 0
M  V30 2145 C 197.834 2.01812 -0.166745 0
M  V30 2146 C 198.162 1.51535 1.21931 0
M  V30 2147 O 197.417 0.698975 1.82792 0
M  V30 2148 C 197.716 3.57176 -0.126623 0
M  V30 2149 C 197.382 4.26798 -1.45444 0
M  V30 2150 C 196.044 4.45534 -1.81805 0
M  V30 2151 C 198.396 4.66225 -2.32989 0
M  V30 2152 C 195.724 5.00961 -3.05377 0
M  V30 2153 C 198.076 5.23021 -3.55853 0
M  V30 2154 C 196.74 5.39973 -3.9241 0
M  V30 2155 H 196.01 0.738484 -0.0610162 0
M  V30 2156 H 198.657 1.71896 -0.84404 0
M  V30 2157 H 196.962 3.86634 0.634123 0
M  V30 2158 H 198.659 4.00112 0.266723 0
M  V30 2159 H 195.249 4.12561 -1.16153 0
M  V30 2160 H 199.433 4.51443 -2.06187 0
M  V30 2161 H 194.689 5.12271 -3.3375 0
M  V30 2162 H 198.863 5.52518 -4.23907 0
M  V30 2163 H 196.49 5.82687 -4.88242 0
M  V30 2164 N 198.065 0.39524 1.52563 0
M  V30 2165 C 199.311 -0.185318 2.01952 0
M  V30 2166 C 199.644 -1.45964 1.28095 0
M  V30 2167 O 198.919 -1.90689 0.38315 0
M  V30 2168 C 199.202 -0.447193 3.57312 0
M  V30 2169 C 199.055 0.842828 4.41833 0
M  V30 2170 C 200.374 -1.23529 4.22408 0
M  V30 2171 H 197.493 -0.0658788 0.73405 0
M  V30 2172 H 200.135 0.525975 1.82575 0
M  V30 2173 H 198.285 -1.05312 3.73954 0
M  V30 2174 H 199.957 1.4795 4.36931 0
M  V30 2175 H 198.2 1.45686 4.08605 0
M  V30 2176 H 198.871 0.614165 5.48573 0
M  V30 2177 H 201.347 -0.722445 4.0978 0
M  V30 2178 H 200.223 -1.38727 5.3108 0
M  V30 2179 H 200.484 -2.25213 3.80436 0
M  V30 2180 N 199.544 -1.57102 0.125237 0
M  V30 2181 C 200.772 -1.99761 -0.538797 0
M  V30 2182 C 201.187 -1.00503 -1.59827 0
M  V30 2183 O 200.544 0.00119474 -1.825 0
M  V30 2184 C 200.595 -3.42408 -1.15927 0
M  V30 2185 O 200.316 -4.37869 -0.142143 0
M  V30 2186 C 201.817 -4.00232 -1.90602 0
M  V30 2187 H 199.037 -0.655772 -0.14214 0
M  V30 2188 H 201.581 -2.03383 0.213413 0
M  V30 2189 H 199.736 -3.39706 -1.86223 0
M  V30 2190 H 200.15 -5.21128 -0.593775 0
M  V30 2191 H 201.624 -5.02105 -2.29335 0
M  V30 2192 H 202.101 -3.39721 -2.78363 0
M  V30 2193 H 202.707 -4.06499 -1.25055 0
M  V30 2194 N 201.022 0.148545 -1.56898 0
M  V30 2195 C 202.438 0.501131 -1.51528 0
M  V30 2196 C 202.638 1.83458 -0.833399 0
M  V30 2197 O 201.694 2.49259 -0.40328 0
M  V30 2198 C 203.007 0.512864 -2.96294 0
M  V30 2199 C 204.555 0.598487 -3.07225 0
M  V30 2200 C 205.03 0.640897 -4.53494 0
M  V30 2201 N 206.521 0.703163 -4.57832 0
M  V30 2202 C 207.256 0.756935 -5.68382 0
M  V30 2203 N 206.752 0.770147 -6.88506 0
M  V30 2204 N 208.545 0.797698 -5.56411 0
M  V30 2205 H 200.696 -0.725532 -1.99624 0
M  V30 2206 H 202.959 -0.264358 -0.910395 0
M  V30 2207 H 202.665 -0.398691 -3.49433 0
M  V30 2208 H 202.539 1.35133 -3.52163 0
M  V30 2209 H 204.926 1.50046 -2.54106 0
M  V30 2210 H 205.007 -0.267093 -2.54402 0
M  V30 2211 H 204.651 -0.256915 -5.0725 0
M  V30 2212 H 204.581 1.52295 -5.04097 0
M  V30 2213 H 207.072 0.700314 -3.71354 0
M  V30 2214 H 207.385 0.812983 -7.68512 0
M  V30 2215 H 205.73 0.738049 -6.9107 0
M  V30 2216 H 208.921 0.784535 -4.61479 0
M  V30 2217 H 209.094 0.83614 -6.42583 0
M  V30 2218 N 202.5 1.5196 0.417844 0
M  V30 2219 C 203.749 1.6482 1.16264 0
M  V30 2220 C 204.062 0.379886 1.91876 0
M  V30 2221 O 205.268 0.388154 2.68711 0
M  V30 2222 C 203.724 2.91161 2.1155 0
M  V30 2223 C 203.332 4.25068 1.41495 0
M  V30 2224 C 205.076 3.13383 2.86341 0
M  V30 2225 C 202.983 5.42541 2.35379 0
M  V30 2226 H 201.913 0.613954 0.437694 0
M  V30 2227 H 204.564 1.78442 0.427871 0
M  V30 2228 H 202.946 2.71218 2.88543 0
M  V30 2229 H 204.12 4.55463 0.699263 0
M  V30 2230 H 202.435 4.0888 0.787792 0
M  V30 2231 H 205.032 3.98324 3.5671 0
M  V30 2232 H 205.375 2.27256 3.48798 0
M  V30 2233 H 205.908 3.33757 2.1645 0
M  V30 2234 H 202.647 6.30987 1.77582 0
M  V30 2235 H 202.167 5.16497 3.04945 0
M  V30 2236 H 203.846 5.75272 2.96093 0
M  V30 2237 N 203.978 -0.674533 1.42435 0
M  V30 2238 C 204.908 -1.80009 1.48724 0
M  V30 2239 C 205.889 -1.6659 0.343793 0
M  V30 2240 O 207.074 -1.86007 0.558137 0
M  V30 2241 C 204.204 -3.18306 1.38919 0
M  V30 2242 C 203.158 -3.46461 2.51294 0
M  V30 2243 C 202.484 -4.84335 2.26547 0
M  V30 2244 C 203.784 -3.43328 3.93603 0
M  V30 2245 H 205.478 -1.75004 2.42928 0
M  V30 2246 H 203.024 -0.840533 1.16923 0
M  V30 2247 H 204.977 -3.9678 1.41927 0
M  V30 2248 H 203.701 -3.2399 0.412094 0
M  V30 2249 H 202.36 -2.70348 2.47604 0
M  V30 2250 H 202.008 -4.86669 1.2713 0
M  V30 2251 H 201.708 -5.04136 3.01861 0
M  V30 2252 H 203.232 -5.65094 2.31304 0
M  V30 2253 H 204.646 -4.11772 3.98894 0
M  V30 2254 H 203.043 -3.74664 4.68771 0
M  V30 2255 H 204.113 -2.41897 4.20255 0
M  V30 2256 N 205.456 -1.28612 -0.910864 0
M  V30 2257 C 206.406 -1.09423 -2.00026 0
M  V30 2258 C 207.39 -0.0170079 -1.60891 0
M  V30 2259 O 208.582 -0.237472 -1.754 0
M  V30 2260 C 205.711 -0.76114 -3.34756 0
M  V30 2261 C 204.797 -1.87735 -3.80285 0
M  V30 2262 N 205.188 -3.11938 -3.98156 0
M  V30 2263 C 203.486 -1.76786 -4.09467 0
M  V30 2264 C 204.187 -3.84687 -4.36338 0
M  V30 2265 N 203.163 -3.12555 -4.44759 0
M  V30 2266 H 206.965 -2.03658 -2.11898 0
M  V30 2267 H 204.479 -1.19573 -1.09891 0
M  V30 2268 H 206.476 -0.604743 -4.12491 0
M  V30 2269 H 205.136 0.173403 -3.24237 0
M  V30 2270 H 206.147 -3.47516 -3.83996 0
M  V30 2271 H 202.824 -0.905284 -4.07567 0
M  V30 2272 H 204.214 -4.91518 -4.58104 0
M  V30 2273 N 206.934 1.1197 -1.10907 0
M  V30 2274 C 207.844 2.21433 -0.774896 0
M  V30 2275 C 208.86 1.72478 0.229657 0
M  V30 2276 O 210.036 2.01288 0.0672008 0
M  V30 2277 C 207.101 3.4602 -0.216986 0
M  V30 2278 C 206.162 4.09791 -1.27944 0
M  V30 2279 C 205.395 5.28431 -0.748055 0
M  V30 2280 O 205.618 5.68823 0.423833 0
M  V30 2281 O 204.552 5.82644 -1.51027 0
M  V30 2282 H 208.378 2.5242 -1.68873 0
M  V30 2283 H 205.963 1.20399 -0.884555 0
M  V30 2284 H 207.845 4.21304 0.090059 0
M  V30 2285 H 206.52 3.16698 0.669633 0
M  V30 2286 H 205.427 3.36265 -1.63941 0
M  V30 2287 H 206.76 4.4328 -2.13925 0
M  V30 2288 N 208.412 0.89855 1.29475 0
M  V30 2289 C 209.659 0.523882 1.95606 0
M  V30 2290 C 209.987 -0.929608 1.70847 0
M  V30 2291 O 209.242 -1.67401 1.01367 0
M  V30 2292 C 209.541 0.761398 3.49195 0
M  V30 2293 C 209.207 2.19207 3.94029 0
M  V30 2294 C 207.869 2.58326 4.05982 0
M  V30 2295 C 210.221 3.12379 4.17216 0
M  V30 2296 C 207.549 3.898 4.38489 0
M  V30 2297 C 209.901 4.43401 4.51197 0
M  V30 2298 C 208.565 4.82394 4.61359 0
M  V30 2299 H 207.835 0.191702 0.715773 0
M  V30 2300 H 210.482 1.13699 1.54094 0
M  V30 2301 H 208.787 0.0653622 3.91745 0
M  V30 2302 H 210.484 0.450904 3.98457 0
M  V30 2303 H 207.074 1.87846 3.85242 0
M  V30 2304 H 211.258 2.83371 4.07449 0
M  V30 2305 H 206.514 4.19734 4.44559 0
M  V30 2306 H 210.688 5.15623 4.68087 0
M  V30 2307 H 208.315 5.84306 4.86303 0
M  V30 2308 N 209.89 -1.43072 0.660911 0
M  V30 2309 C 210.8 -2.34585 -0.0264163 0
M  V30 2310 C 211.816 -1.54316 -0.803898 0
M  V30 2311 O 212.992 -1.86939 -0.749391 0
M  V30 2312 C 210.057 -3.32689 -0.975639 0
M  V30 2313 C 209.118 -4.2886 -0.194236 0
M  V30 2314 C 208.351 -5.22278 -1.09825 0
M  V30 2315 O 208.574 -5.20299 -2.33763 0
M  V30 2316 O 207.508 -5.99228 -0.566513 0
M  V30 2317 H 211.334 -2.94869 0.727034 0
M  V30 2318 H 208.919 -1.43342 0.42111 0
M  V30 2319 H 210.801 -3.92995 -1.52094 0
M  V30 2320 H 209.476 -2.74898 -1.70918 0
M  V30 2321 H 208.383 -3.72011 0.394835 0
M  V30 2322 H 209.716 -4.89655 0.499899 0
M  V30 2323 N 211.368 -0.403325 -1.52352 0
M  V30 2324 C 212.593 0.176499 -2.06648 0
M  V30 2325 C 213.018 1.38577 -1.27193 0
M  V30 2326 O 212.376 1.7879 -0.300637 0
M  V30 2327 C 212.424 0.511061 -3.5696 0
M  V30 2328 O 211.528 1.60294 -3.79973 0
M  V30 2329 H 210.869 0.0167337 -0.663789 0
M  V30 2330 H 213.399 -0.574848 -1.96359 0
M  V30 2331 H 213.409 0.771362 -4.00642 0
M  V30 2332 H 212.084 -0.37296 -4.14224 0
M  V30 2333 H 210.661 1.33526 -3.48174 0
M  V30 2334 N 212.846 1.57033 -0.133567 0
M  V30 2335 C 214.123 1.87256 0.56522 0
M  V30 2336 C 214.503 1.03726 1.83859 0
M  V30 2337 O 213.851 0.120247 2.28183 0
M  V30 2338 C 214.061 3.3865 0.843636 0
M  V30 2339 C 215.409 4.07574 1.19032 0
M  V30 2340 O 216.433 3.43752 0.933429 0
M  V30 2341 O 215.292 5.20259 1.67312 0
M  V30 2342 H 212.386 0.775678 0.286796 0
M  V30 2343 H 214.932 1.68855 -0.169168 0
M  V30 2344 H 213.704 3.91257 -0.0581149 0
M  V30 2345 H 213.327 3.62532 1.63268 0
M  V30 2346 N 214.325 -0.140222 1.56975 0
M  V30 2347 C 215.553 -0.866437 1.87884 0
M  V30 2348 C 215.968 -1.74428 0.722517 0
M  V30 2349 O 215.325 -1.79891 -0.30749 0
M  V30 2350 C 215.376 -1.71753 3.18093 0
M  V30 2351 O 215.097 -0.875056 4.29272 0
M  V30 2352 C 216.598 -2.55074 3.62563 0
M  V30 2353 H 213.818 -0.25019 0.622612 0
M  V30 2354 H 216.362 -0.130977 2.0408 0
M  V30 2355 H 214.517 -2.40598 3.03631 0
M  V30 2356 H 214.931 -1.46002 5.03769 0
M  V30 2357 H 216.405 -3.10356 4.5649 0
M  V30 2358 H 216.882 -3.31434 2.88181 0
M  V30 2359 H 217.488 -1.91509 3.79743 0
M  V30 2360 N 215.803 -1.52179 -0.40978 0
M  V30 2361 C 217.05 -1.66206 -1.15679 0
M  V30 2362 C 217.378 -0.391674 -1.90516 0
M  V30 2363 O 216.633 0.62533 -1.8544 0
M  V30 2364 C 216.932 -2.83428 -2.17723 0
M  V30 2365 C 216.598 -4.21672 -1.59699 0
M  V30 2366 C 215.26 -4.59274 -1.43599 0
M  V30 2367 C 217.612 -5.07825 -1.17317 0
M  V30 2368 C 214.94 -5.80709 -0.836328 0
M  V30 2369 C 217.292 -6.29864 -0.587691 0
M  V30 2370 C 215.956 -6.66216 -0.413818 0
M  V30 2371 H 215.226 -0.608192 -0.423301 0
M  V30 2372 H 217.873 -1.86279 -0.444097 0
M  V30 2373 H 216.178 -2.57687 -2.95135 0
M  V30 2374 H 217.875 -2.91477 -2.75394 0
M  V30 2375 H 214.465 -3.9204 -1.73213 0
M  V30 2376 H 218.649 -4.79359 -1.28565 0
M  V30 2377 H 213.905 -6.07498 -0.689626 0
M  V30 2378 H 218.079 -6.95948 -0.250894 0
M  V30 2379 H 215.706 -7.60182 0.0529471 0
M  V30 2380 N 217.281 0.66697 -1.42791 0
M  V30 2381 C 218.528 1.42699 -1.43678 0
M  V30 2382 C 218.856 1.94419 -0.0560425 0
M  V30 2383 O 218.111 1.7182 0.936831 0
M  V30 2384 C 218.41 2.6349 -2.4147 0
M  V30 2385 C 218.076 2.30267 -3.8767 0
M  V30 2386 C 216.738 2.20918 -4.27491 0
M  V30 2387 C 219.09 2.03435 -4.79858 0
M  V30 2388 C 216.418 1.82873 -5.57471 0
M  V30 2389 C 218.77 1.66892 -6.10188 0
M  V30 2390 C 217.434 1.56058 -6.49001 0
M  V30 2391 H 216.704 0.522171 -0.525755 0
M  V30 2392 H 219.351 0.759785 -1.75783 0
M  V30 2393 H 217.656 3.35279 -2.0272 0
M  V30 2394 H 219.353 3.21684 -2.39417 0
M  V30 2395 H 215.943 2.38449 -3.56146 0
M  V30 2396 H 220.127 2.09586 -4.49875 0
M  V30 2397 H 215.383 1.7306 -5.86396 0
M  V30 2398 H 219.557 1.45157 -6.81104 0
M  V30 2399 H 217.184 1.26348 -7.49627 0
M  V30 2400 N 218.759 1.29093 0.90403 0
M  V30 2401 C 220.17 1.15186 1.46932 0
M  V30 2402 C 220.521 -0.254587 1.94541 0
M  V30 2403 O 219.646 -1.14972 1.83332 0
M  V30 2404 C 220.241 2.08492 2.67051 0
M  V30 2405 C 218.8 1.98621 3.19729 0
M  V30 2406 C 217.947 1.9967 1.92425 0
M  V30 2407 H 220.898 1.41641 0.715789 0
M  V30 2408 H 220.919 1.65461 3.42641 0
M  V30 2409 H 220.431 3.10847 2.3237 0
M  V30 2410 H 218.532 0.993389 3.59114 0
M  V30 2411 H 218.645 2.86068 3.8432 0
M  V30 2412 H 217.009 1.44208 2.09943 0
M  V30 2413 H 217.792 3.03721 1.60026 0
M  V30 2414 N 220.237 -1.11381 1.11499 0
M  V30 2415 C 221.147 -2.21019 0.786628 0
M  V30 2416 C 222.163 -1.72597 -0.220507 0
M  V30 2417 O 223.339 -2.01321 -0.0565251 0
M  V30 2418 C 220.404 -3.459 0.235333 0
M  V30 2419 C 219.465 -4.09107 1.30115 0
M  V30 2420 C 218.698 -5.28027 0.776068 0
M  V30 2421 O 218.921 -5.6904 -0.393661 0
M  V30 2422 O 217.855 -5.81835 1.54114 0
M  V30 2423 H 221.681 -2.51521 1.70209 0
M  V30 2424 H 219.266 -1.19928 0.890928 0
M  V30 2425 H 221.148 -4.21346 -0.067715 0
M  V30 2426 H 219.823 -3.17049 -0.652828 0
M  V30 2427 H 218.73 -3.35391 1.65722 0
M  V30 2428 H 220.063 -4.42139 2.16273 0
M  V30 2429 N 221.715 -0.905404 -1.28997 0
M  V30 2430 C 222.964 -0.530191 -1.94607 0
M  V30 2431 C 223.277 0.929185 -1.72121 0
M  V30 2432 O 224.483 1.41218 -2.31883 0
M  V30 2433 C 222.939 -0.897333 -3.48534 0
M  V30 2434 C 222.547 -2.37587 -3.79811 0
M  V30 2435 C 224.291 -0.592304 -4.20347 0
M  V30 2436 C 222.198 -2.68357 -5.27009 0
M  V30 2437 H 221.128 -0.194558 -0.728466 0
M  V30 2438 H 223.779 -1.10318 -1.46636 0
M  V30 2439 H 222.161 -0.253214 -3.9519 0
M  V30 2440 H 223.335 -3.06602 -3.43994 0
M  V30 2441 H 221.65 -2.6505 -3.2115 0
M  V30 2442 H 224.247 -0.798975 -5.28697 0
M  V30 2443 H 224.59 0.469474 -4.13644 0
M  V30 2444 H 225.123 -1.19452 -3.79442 0
M  V30 2445 H 221.862 -3.73355 -5.38782 0
M  V30 2446 H 221.382 -2.03971 -5.64053 0
M  V30 2447 H 223.061 -2.54922 -5.94663 0
M  V30 2448 N 223.193 1.4272 -0.668489 0
M  V30 2449 C 224.47 1.95248 -0.117373 0
M  V30 2450 C 224.85 1.60919 1.36632 0
M  V30 2451 O 224.198 0.902095 2.09939 0
M  V30 2452 C 224.408 3.46927 -0.379806 0
M  V30 2453 C 225.756 4.23588 -0.292923 0
M  V30 2454 O 226.78 3.5482 -0.313204 0
M  V30 2455 O 225.639 5.46017 -0.229697 0
M  V30 2456 H 222.733 0.827 0.00079152 0
M  V30 2457 H 225.279 1.52581 -0.742783 0
M  V30 2458 H 224.051 3.65096 -1.40786 0
M  V30 2459 H 223.674 3.96627 0.277923 0
M  V30 2460 N 224.671 0.411399 1.52136 0
M  V30 2461 C 225.901 -0.16284 2.05957 0
M  V30 2462 C 226.309 -1.3922 1.28119 0
M  V30 2463 O 225.652 -1.80768 0.326881 0
M  V30 2464 C 225.714 -0.575946 3.54856 0
M  V30 2465 C 225.378 0.542998 4.53763 0
M  V30 2466 C 226.375 1.40726 5.00492 0
M  V30 2467 C 224.06 0.716337 4.97166 0
M  V30 2468 C 226.054 2.4298 5.8927 0
M  V30 2469 C 223.741 1.74218 5.8574 0
M  V30 2470 C 224.739 2.59731 6.31687 0
M  V30 2471 O 224.427 3.60558 7.18507 0
M  V30 2472 H 224.159 -0.0229125 0.675612 0
M  V30 2473 H 226.713 0.581634 1.96993 0
M  V30 2474 H 224.943 -1.37274 3.61515 0
M  V30 2475 H 226.632 -1.07836 3.91313 0
M  V30 2476 H 227.398 1.28476 4.67674 0
M  V30 2477 H 223.277 0.0603857 4.6096 0
M  V30 2478 H 226.821 3.0976 6.25055 0
M  V30 2479 H 222.718 1.86498 6.17971 0
M  V30 2480 H 223.486 3.56829 7.36624 0
M  V30 2481 N 226.149 -1.5696 0.141893 0
M  V30 2482 C 227.096 -2.16501 -0.799737 0
M  V30 2483 C 228.066 -1.09643 -1.24771 0
M  V30 2484 O 229.251 -1.3766 -1.32115 0
M  V30 2485 C 226.391 -2.78679 -2.03549 0
M  V30 2486 C 225.504 -3.99914 -1.6338 0
M  V30 2487 C 224.639 -4.50106 -2.82096 0
M  V30 2488 C 223.678 -5.63819 -2.38275 0
M  V30 2489 N 222.815 -6.08651 -3.49983 0
M  V30 2490 H 227.655 -2.96632 -0.285179 0
M  V30 2491 H 225.192 -1.46533 -0.129053 0
M  V30 2492 H 227.15 -3.1287 -2.75986 0
M  V30 2493 H 225.78 -2.012 -2.52425 0
M  V30 2494 H 224.832 -3.71735 -0.807279 0
M  V30 2495 H 226.144 -4.82311 -1.27192 0
M  V30 2496 H 225.298 -4.86325 -3.62729 0
M  V30 2497 H 224.037 -3.66706 -3.21525 0
M  V30 2498 H 223.042 -5.2718 -1.56081 0
M  V30 2499 H 224.267 -6.49 -1.99938 0
M  V30 2500 H 222.213 -5.28188 -3.89042 0
M  V30 2501 H 222.13 -6.85961 -3.17794 0
M  V30 2502 H 223.398 -6.49515 -4.30988 0
M  V30 2503 N 227.627 0.131896 -1.57047 0
M  V30 2504 C 228.904 0.871495 -1.75112 0
M  V30 2505 C 229.284 1.9866 -0.713949 0
M  V30 2506 O 228.632 2.26965 0.264447 0
M  V30 2507 C 228.842 1.40007 -3.19686 0
M  V30 2508 C 230.19 1.85752 -3.81813 0
M  V30 2509 O 231.214 1.49715 -3.23209 0
M  V30 2510 O 230.073 2.5226 -4.84796 0
M  V30 2511 H 227.167 0.412919 -0.716538 0
M  V30 2512 H 229.713 0.116641 -1.69299 0
M  V30 2513 H 228.485 0.599404 -3.86682 0
M  V30 2514 H 228.108 2.218 -3.29986 0
M  V30 2515 N 229.106 1.52395 0.401703 0
M  V30 2516 C 230.353 1.66817 1.14796 0
M  V30 2517 C 230.681 0.401772 1.90305 0
M  V30 2518 O 229.936 -0.615487 1.85769 0
M  V30 2519 C 230.235 2.84578 2.16217 0
M  V30 2520 C 229.901 4.22513 1.5746 0
M  V30 2521 C 228.563 4.60029 1.41161 0
M  V30 2522 C 230.915 5.0844 1.14622 0
M  V30 2523 C 228.243 5.81144 0.80552 0
M  V30 2524 C 230.595 6.30167 0.55428 0
M  V30 2525 C 229.259 6.66426 0.378482 0
M  V30 2526 H 228.529 0.610428 0.420069 0
M  V30 2527 H 231.176 1.86512 0.434212 0
M  V30 2528 H 229.481 2.59248 2.93764 0
M  V30 2529 H 231.178 2.92933 2.73845 0
M  V30 2530 H 227.768 3.92953 1.71132 0
M  V30 2531 H 231.952 4.80034 1.26021 0
M  V30 2532 H 227.208 6.07855 0.657399 0
M  V30 2533 H 231.382 6.96071 0.213983 0
M  V30 2534 H 229.009 7.60143 -0.0932606 0
M  V30 2535 N 230.584 -0.659388 1.43143 0
M  V30 2536 C 231.531 -1.77249 1.47822 0
M  V30 2537 C 232.501 -1.62818 0.328558 0
M  V30 2538 O 233.686 -1.83151 0.534838 0
M  V30 2539 C 230.826 -3.15371 1.40126 0
M  V30 2540 C 229.939 -3.4098 2.65249 0
M  V30 2541 C 229.074 -4.68915 2.49584 0
M  V30 2542 C 228.113 -4.87608 3.70006 0
M  V30 2543 N 227.25 -6.06796 3.53189 0
M  V30 2544 H 232.09 -1.72584 2.42938 0
M  V30 2545 H 229.627 -0.842297 1.20598 0
M  V30 2546 H 231.585 -3.9521 1.33659 0
M  V30 2547 H 230.215 -3.19121 0.485964 0
M  V30 2548 H 229.267 -2.55282 2.8202 0
M  V30 2549 H 230.579 -3.50681 3.54717 0
M  V30 2550 H 229.733 -5.56871 2.4079 0
M  V30 2551 H 228.472 -4.61524 1.5763 0
M  V30 2552 H 227.477 -3.9809 3.79215 0
M  V30 2553 H 228.702 -4.96834 4.62961 0
M  V30 2554 H 226.648 -6.00549 2.63965 0
M  V30 2555 H 226.565 -6.17428 4.36255 0
M  V30 2556 H 227.833 -6.9739 3.48236 0
M  V30 2557 N 232.062 -1.29571 -0.897171 0
M  V30 2558 C 232.992 -1.17473 -2.01798 0
M  V30 2559 C 233.973 -0.068323 -1.69963 0
M  V30 2560 O 235.158 -0.248239 -1.92607 0
M  V30 2561 C 232.288 -0.853099 -3.36659 0
M  V30 2562 C 231.242 -1.9161 -3.82713 0
M  V30 2563 C 230.568 -1.44773 -5.14728 0
M  V30 2564 C 231.868 -3.32535 -4.02763 0
M  V30 2565 H 233.562 -2.11237 -2.12177 0
M  V30 2566 H 231.108 -1.01699 -1.01948 0
M  V30 2567 H 233.061 -0.755165 -4.14578 0
M  V30 2568 H 231.785 0.120236 -3.26379 0
M  V30 2569 H 230.444 -2.00346 -3.07013 0
M  V30 2570 H 230.092 -0.462995 -5.00865 0
M  V30 2571 H 229.792 -2.15865 -5.46513 0
M  V30 2572 H 231.316 -1.36334 -5.95185 0
M  V30 2573 H 232.73 -3.26626 -4.71156 0
M  V30 2574 H 231.127 -4.01607 -4.45905 0
M  V30 2575 H 232.197 -3.75326 -3.07016 0
M  V30 2576 N 233.54 1.10788 -1.12088 0
M  V30 2577 C 234.47 2.19083 -0.807755 0
M  V30 2578 C 235.451 1.6858 0.226859 0
M  V30 2579 O 236.636 1.93997 0.0888475 0
M  V30 2580 C 233.766 3.46344 -0.257576 0
M  V30 2581 C 232.72 4.101 -1.22483 0
M  V30 2582 C 232.046 5.32016 -0.535052 0
M  V30 2583 C 233.346 4.54236 -2.57811 0
M  V30 2584 H 235.04 2.45534 -1.71328 0
M  V30 2585 H 232.586 1.1801 -0.825205 0
M  V30 2586 H 234.539 4.21392 -0.0262679 0
M  V30 2587 H 233.263 3.19373 0.683278 0
M  V30 2588 H 231.922 3.37054 -1.44189 0
M  V30 2589 H 231.57 5.01319 0.410827 0
M  V30 2590 H 231.27 5.75625 -1.18024 0
M  V30 2591 H 232.794 6.09799 -0.312695 0
M  V30 2592 H 234.208 5.20575 -2.40155 0
M  V30 2593 H 232.605 5.08682 -3.18375 0
M  V30 2594 H 233.675 3.6734 -3.16528 0
M  V30 2595 N 235.018 0.912232 1.28515 0
M  V30 2596 C 236.246 0.560416 1.99166 0
M  V30 2597 C 236.661 -0.857927 1.68182 0
M  V30 2598 O 236.018 -1.56805 0.933733 0
M  V30 2599 C 236.069 0.758142 3.53461 0
M  V30 2600 O 235.79 2.12067 3.83352 0
M  V30 2601 C 237.291 0.412954 4.41372 0
M  V30 2602 H 234.511 0.213805 0.636026 0
M  V30 2603 H 237.055 1.22502 1.63749 0
M  V30 2604 H 235.21 0.140556 3.87145 0
M  V30 2605 H 235.624 2.15923 4.77993 0
M  V30 2606 H 237.098 0.60208 5.48707 0
M  V30 2607 H 237.575 -0.65073 4.34353 0
M  V30 2608 H 238.181 1.00802 4.13182 0
M  V30 2609 N 236.496 -1.42363 0.676048 0
M  V30 2610 C 237.406 -2.346 -0.00153389 0
M  V30 2611 C 238.422 -1.5516 -0.787485 0
M  V30 2612 O 239.598 -1.87723 -0.729521 0
M  V30 2613 C 236.663 -3.33705 -0.940298 0
M  V30 2614 C 235.724 -4.29042 -0.148739 0
M  V30 2615 C 234.957 -5.23413 -1.04279 0
M  V30 2616 O 235.18 -5.22749 -2.28232 0
M  V30 2617 O 234.114 -5.99795 -0.502925 0
M  V30 2618 H 237.94 -2.94082 0.758268 0
M  V30 2619 H 235.525 -1.42888 0.436289 0
M  V30 2620 H 237.407 -3.94586 -1.47917 0
M  V30 2621 H 236.082 -2.76695 -1.67993 0
M  V30 2622 H 234.989 -3.71571 0.43427 0
M  V30 2623 H 236.322 -4.89097 0.551805 0
M  V30 2624 N 237.974 -0.419461 -1.51915 0
M  V30 2625 C 239.204 0.151915 -2.06041 0
M  V30 2626 C 239.612 1.38539 -1.28855 0
M  V30 2627 O 238.955 1.80592 -0.336463 0
M  V30 2628 C 239.017 0.557119 -3.55157 0
M  V30 2629 C 238.681 -0.567054 -4.53468 0
M  V30 2630 C 239.678 -1.43379 -4.99738 0
M  V30 2631 C 237.363 -0.742693 -4.96779 0
M  V30 2632 C 239.357 -2.46102 -5.87973 0
M  V30 2633 C 237.044 -1.77322 -5.84808 0
M  V30 2634 C 238.042 -2.63078 -6.30301 0
M  V30 2635 O 237.73 -3.64364 -7.16585 0
M  V30 2636 H 237.462 0.0193293 -0.675724 0
M  V30 2637 H 240.016 -0.592073 -1.96682 0
M  V30 2638 H 238.246 1.35355 -3.62238 0
M  V30 2639 H 239.935 1.05759 -3.9188 0
M  V30 2640 H 240.701 -1.30954 -4.66986 0
M  V30 2641 H 236.58 -0.0848307 -4.60922 0
M  V30 2642 H 240.124 -3.13071 -6.23404 0
M  V30 2643 H 236.021 -1.89773 -6.16974 0
M  V30 2644 H 236.789 -3.60731 -7.34721 0
M  V30 2645 N 239.452 1.56882 -0.150215 0
M  V30 2646 C 240.863 1.82995 0.370076 0
M  V30 2647 C 241.214 1.06907 1.64515 0
M  V30 2648 O 240.339 0.315369 2.1409 0
M  V30 2649 C 240.934 3.31942 0.678208 0
M  V30 2650 C 239.493 3.58625 1.14301 0
M  V30 2651 C 238.64 2.76792 0.167778 0
M  V30 2652 H 241.591 1.54209 -0.374858 0
M  V30 2653 H 241.612 3.48272 1.53254 0
M  V30 2654 H 241.124 3.87294 -0.249991 0
M  V30 2655 H 239.225 3.08664 2.08704 0
M  V30 2656 H 239.338 4.67073 1.06676 0
M  V30 2657 H 237.702 2.45972 0.661037 0
M  V30 2658 H 238.485 3.34916 -0.754069 0
M  V30 2659 N 240.93 -0.123565 1.57115 0
M  V30 2660 C 242.178 -0.83051 1.84247 0
M  V30 2661 C 242.499 -1.80629 0.73471 0
M  V30 2662 O 241.769 -1.94403 -0.241688 0
M  V30 2663 H 240.349 -0.309694 0.679778 0
M  V30 2664 H 243.011 -0.111976 1.94578 0
M  V30 2665 H 242.107 -1.37852 2.80006 0
M  V30 2666 N 242.408 -1.52605 -0.393616 0
M  V30 2667 C 243.654 -1.67672 -1.14079 0
M  V30 2668 C 243.987 -0.413121 -1.89755 0
M  V30 2669 O 243.262 0.588952 -1.85369 0
M  V30 2670 C 243.545 -2.9088 -2.12276 0
M  V30 2671 C 243.398 -4.27329 -1.40394 0
M  V30 2672 C 244.717 -3.09628 -3.12759 0
M  V30 2673 H 241.836 -0.610168 -0.413356 0
M  V30 2674 H 244.478 -1.85193 -0.424696 0
M  V30 2675 H 242.628 -2.76073 -2.73342 0
M  V30 2676 H 244.3 -4.53894 -0.82327 0
M  V30 2677 H 242.543 -4.2802 -0.705801 0
M  V30 2678 H 243.214 -5.09615 -2.12123 0
M  V30 2679 H 245.69 -3.23436 -2.61779 0
M  V30 2680 H 244.566 -3.97322 -3.78717 0
M  V30 2681 H 244.827 -2.23637 -3.81365 0
M  V30 2682 N 243.887 0.651787 -1.4349 0
M  V30 2683 C 245.298 1.233 -1.40193 0
M  V30 2684 C 245.649 1.9591 -0.106727 0
M  V30 2685 O 244.774 2.01316 0.793773 0
M  V30 2686 C 245.369 2.24257 -2.53957 0
M  V30 2687 C 243.928 2.77852 -2.5392 0
M  V30 2688 C 243.075 1.52517 -2.3159 0
M  V30 2689 H 246.026 0.443717 -1.52371 0
M  V30 2690 H 246.047 3.0646 -2.25528 0
M  V30 2691 H 245.559 1.71382 -3.4821 0
M  V30 2692 H 243.66 3.34786 -1.63551 0
M  V30 2693 H 243.773 3.25299 -3.51735 0
M  V30 2694 H 242.137 1.79915 -1.80285 0
M  V30 2695 H 242.92 1.01574 -3.27929 0
M  V30 2696 N 245.365 1.30045 0.890287 0
M  V30 2697 C 246.328 1.15963 1.977 0
M  V30 2698 C 247.328 0.0923777 1.60534 0
M  V30 2699 O 248.518 0.340071 1.70848 0
M  V30 2700 C 245.65 0.775451 3.31963 0
M  V30 2701 H 246.843 2.12502 2.11619 0
M  V30 2702 H 244.396 1.13366 1.07601 0
M  V30 2703 H 245.131 -0.189671 3.23745 0
M  V30 2704 H 244.916 1.54668 3.60306 0
M  V30 2705 H 246.406 0.700251 4.11687 0
M  V30 2706 N 246.843 -1.10192 1.12674 0
M  V30 2707 C 248.12 -1.78717 0.794965 0
M  V30 2708 C 248.5 -1.98628 -0.714853 0
M  V30 2709 O 247.848 -1.58135 -1.64941 0
M  V30 2710 C 248.058 -3.11546 1.5729 0
M  V30 2711 C 249.406 -3.86382 1.76052 0
M  V30 2712 O 250.43 -3.21274 1.53823 0
M  V30 2713 O 249.289 -5.03246 2.13087 0
M  V30 2714 H 246.383 -0.774702 0.289423 0
M  V30 2715 H 248.929 -1.16819 1.23091 0
M  V30 2716 H 247.701 -2.92489 2.59935 0
M  V30 2717 H 247.324 -3.81164 1.13137 0
M  V30 2718 N 248.321 -0.919034 -1.28029 0
M  V30 2719 C 249.57 -0.550802 -1.94034 0
M  V30 2720 C 249.883 0.910877 -1.73096 0
M  V30 2721 O 251.089 1.3875 -2.33368 0
M  V30 2722 C 249.545 -0.934249 -3.47563 0
M  V30 2723 C 249.153 -2.41602 -3.7727 0
M  V30 2724 C 250.897 -0.636854 -4.19696 0
M  V30 2725 C 248.804 -2.73932 -5.24133 0
M  V30 2726 H 247.734 -0.202273 -0.726362 0
M  V30 2727 H 250.385 -1.11867 -1.45458 0
M  V30 2728 H 248.767 -0.295115 -3.94899 0
M  V30 2729 H 249.941 -3.10233 -3.40723 0
M  V30 2730 H 248.256 -2.68441 -3.18321 0
M  V30 2731 H 250.853 -0.855005 -5.2782 0
M  V30 2732 H 251.196 0.425575 -4.14119 0
M  V30 2733 H 251.729 -1.23469 -3.78154 0
M  V30 2734 H 248.468 -3.79049 -5.34792 0
M  V30 2735 H 247.988 -2.09942 -5.61858 0
M  V30 2736 H 249.667 -2.61215 -5.91925 0
M  V30 2737 N 249.799 1.42003 -0.683588 0
M  V30 2738 C 250.731 2.29183 0.0283068 0
M  V30 2739 C 251.744 1.4415 0.756611 0
M  V30 2740 O 252.933 1.67779 0.609306 0
M  V30 2741 C 250.033 3.21765 1.06398 0
M  V30 2742 C 249.206 4.35496 0.407723 0
M  V30 2743 C 248.265 5.08737 1.34437 0
M  V30 2744 O 247.291 5.62948 0.841318 0
M  V30 2745 N 248.493 5.15075 2.67728 0
M  V30 2746 H 251.258 2.9092 -0.720105 0
M  V30 2747 H 248.819 1.53025 -0.528682 0
M  V30 2748 H 250.811 3.6763 1.69204 0
M  V30 2749 H 249.381 2.61418 1.71404 0
M  V30 2750 H 248.601 3.92165 -0.400012 0
M  V30 2751 H 249.889 5.08776 -0.0490956 0
M  V30 2752 H 249.287 4.72457 3.11129 0
M  V30 2753 H 247.844 5.64556 3.2576 0
M  V30 2754 N 251.277 0.427512 1.51691 0
M  V30 2755 C 252.187 -0.39527 2.31246 0
M  V30 2756 C 253.203 -1.03674 1.39742 0
M  V30 2757 O 254.379 -1.03425 1.72816 0
M  V30 2758 C 251.444 -1.48706 3.13189 0
M  V30 2759 C 250.505 -0.866743 4.20459 0
M  V30 2760 C 249.738 -1.90651 4.98486 0
M  V30 2761 O 249.961 -3.12733 4.77026 0
M  V30 2762 O 248.895 -1.5025 5.82845 0
M  V30 2763 H 252.721 0.253918 3.02637 0
M  V30 2764 H 250.306 0.190274 1.48183 0
M  V30 2765 H 252.188 -2.12047 3.64162 0
M  V30 2766 H 250.863 -2.12051 2.44573 0
M  V30 2767 H 249.77 -0.195544 3.73589 0
M  V30 2768 H 251.103 -0.276934 4.9142 0
M  V30 2769 N 252.755 -1.56801 0.158532 0
M  V30 2770 C 253.665 -2.20916 -0.789518 0
M  V30 2771 C 254.681 -1.1969 -1.26294 0
M  V30 2772 O 255.857 -1.52308 -1.31773 0
M  V30 2773 C 252.922 -2.82727 -2.00665 0
M  V30 2774 C 251.983 -3.99114 -1.58134 0
M  V30 2775 C 251.216 -4.57968 -2.74045 0
M  V30 2776 O 251.439 -4.15704 -3.90572 0
M  V30 2777 O 250.373 -5.48047 -2.48855 0
M  V30 2778 H 254.199 -3.02464 -0.273681 0
M  V30 2779 H 251.784 -1.4924 -0.0690548 0
M  V30 2780 H 253.666 -3.21968 -2.71872 0
M  V30 2781 H 252.341 -2.04184 -2.51179 0
M  V30 2782 H 251.248 -3.64567 -0.839155 0
M  V30 2783 H 252.581 -4.79212 -1.12325 0
M  V30 2784 N 254.233 0.115231 -1.57178 0
M  V30 2785 C 255.51 0.852873 -1.76027 0
M  V30 2786 C 255.89 1.97892 -0.73498 0
M  V30 2787 O 255.238 2.27232 0.24036 0
M  V30 2788 C 255.448 1.36608 -3.21153 0
M  V30 2789 C 256.796 1.81692 -3.83762 0
M  V30 2790 O 257.82 1.46278 -3.24779 0
M  V30 2791 O 256.679 2.47104 -4.87444 0
M  V30 2792 H 253.773 0.405296 -0.720877 0
M  V30 2793 H 256.319 0.0986785 -1.69413 0
M  V30 2794 H 255.091 0.558357 -3.87296 0
M  V30 2795 H 254.714 2.18287 -3.3232 0
M  V30 2796 N 255.711 1.52812 0.385517 0
M  V30 2797 C 256.959 1.67694 1.12797 0
M  V30 2798 C 257.28 0.421115 1.90399 0
M  V30 2799 O 256.55 -0.564551 1.87589 0
M  V30 2800 H 255.13 0.618155 0.419396 0
M  V30 2801 H 257.792 1.89938 0.436972 0
M  V30 2802 H 256.888 2.52896 1.82894 0
M  V30 2803 N 257.189 -0.644168 1.43834 0
M  V30 2804 C 258.438 -1.39985 1.45214 0
M  V30 2805 C 258.751 -1.95421 0.0835494 0
M  V30 2806 O 259.957 -2.71488 -0.0251748 0
M  V30 2807 C 258.413 -2.53384 2.55587 0
M  V30 2808 C 258.021 -2.04517 3.98594 0
M  V30 2809 C 259.765 -3.30685 2.66172 0
M  V30 2810 C 257.672 -3.1518 5.00416 0
M  V30 2811 H 256.602 -0.526005 0.540218 0
M  V30 2812 H 259.253 -0.694367 1.69855 0
M  V30 2813 H 257.635 -3.26446 2.24163 0
M  V30 2814 H 258.809 -1.38405 4.39523 0
M  V30 2815 H 257.124 -1.40068 3.92135 0
M  V30 2816 H 259.721 -4.13158 3.39418 0
M  V30 2817 H 260.064 -3.79312 1.71546 0
M  V30 2818 H 260.597 -2.64708 2.96942 0
M  V30 2819 H 257.336 -2.71511 5.96625 0
M  V30 2820 H 256.856 -3.79974 4.64091 0
M  V30 2821 H 258.535 -3.80166 5.23529 0
M  V30 2822 N 258.668 -1.30515 -0.883378 0
M  V30 2823 C 259.6 -1.12846 -1.99496 0
M  V30 2824 C 260.613 -0.0712571 -1.62644 0
M  V30 2825 O 261.802 -0.317432 -1.75655 0
M  V30 2826 C 258.902 -0.699123 -3.3161 0
M  V30 2827 C 258.075 -1.83842 -3.96889 0
M  V30 2828 C 257.134 -1.39737 -5.07307 0
M  V30 2829 O 256.16 -2.10485 -5.28852 0
M  V30 2830 N 257.362 -0.277279 -5.79837 0
M  V30 2831 H 260.127 -2.08585 -2.15203 0
M  V30 2832 H 257.688 -1.22672 -1.05656 0
M  V30 2833 H 259.68 -0.387044 -4.02845 0
M  V30 2834 H 258.25 0.166276 -3.12157 0
M  V30 2835 H 257.47 -2.31853 -3.18807 0
M  V30 2836 H 258.758 -2.60187 -4.37241 0
M  V30 2837 H 258.156 0.3122 -5.64838 0
M  V30 2838 H 256.713 -0.0246623 -6.51795 0
M  V30 2839 N 260.146 1.09593 -1.13257 0
M  V30 2840 C 261.376 1.85231 -0.915049 0
M  V30 2841 C 261.784 1.81345 0.539498 0
M  V30 2842 O 261.127 1.20664 1.38513 0
M  V30 2843 C 261.189 3.34275 -1.3229 0
M  V30 2844 C 260.853 3.6191 -2.79052 0
M  V30 2845 C 261.85 3.57777 -3.77216 0
M  V30 2846 C 259.535 3.90309 -3.16171 0
M  V30 2847 C 261.529 3.81652 -5.1051 0
M  V30 2848 C 259.216 4.13839 -4.49644 0
M  V30 2849 C 260.214 4.09502 -5.46623 0
M  V30 2850 O 259.902 4.32426 -6.77689 0
M  V30 2851 H 259.634 0.591997 -0.326367 0
M  V30 2852 H 262.188 1.394 -1.50854 0
M  V30 2853 H 260.418 3.80805 -0.672667 0
M  V30 2854 H 262.107 3.9132 -1.07812 0
M  V30 2855 H 262.873 3.35865 -3.49885 0
M  V30 2856 H 258.752 3.92811 -2.41289 0
M  V30 2857 H 262.296 3.78182 -5.86195 0
M  V30 2858 H 258.193 4.35232 -4.767 0
M  V30 2859 H 258.961 4.49896 -6.83766 0
M  V30 2860 N 261.624 0.925811 1.2754 0
M  V30 2861 C 262.571 0.422045 2.26908 0
M  V30 2862 C 263.541 -0.510029 1.58076 0
M  V30 2863 O 264.726 -0.429599 1.85901 0
M  V30 2864 C 261.866 -0.320837 3.43605 0
M  V30 2865 C 260.979 0.64513 4.27156 0
M  V30 2866 C 260.114 -0.117405 5.3107 0
M  V30 2867 C 259.153 0.841391 6.0629 0
M  V30 2868 N 258.29 0.111604 7.02011 0
M  V30 2869 H 263.13 1.27441 2.69375 0
M  V30 2870 H 260.667 0.639697 1.32462 0
M  V30 2871 H 262.625 -0.76785 4.10073 0
M  V30 2872 H 261.255 -1.13745 3.02096 0
M  V30 2873 H 260.307 1.21067 3.6062 0
M  V30 2874 H 261.619 1.37797 4.79389 0
M  V30 2875 H 260.773 -0.624422 6.03478 0
M  V30 2876 H 259.512 -0.883219 4.79636 0
M  V30 2877 H 258.517 1.35967 5.32722 0
M  V30 2878 H 259.742 1.60696 6.59813 0
M  V30 2879 H 257.688 -0.635999 6.5291 0
M  V30 2880 H 257.605 0.784044 7.51923 0
M  V30 2881 H 258.873 -0.374823 7.78598 0
M  V30 2882 N 263.102 -1.41638 0.69111 0
M  V30 2883 C 264.349 -2.01299 0.220193 0
M  V30 2884 C 264.677 -1.54715 -1.17871 0
M  V30 2885 O 263.932 -0.747193 -1.80874 0
M  V30 2886 C 264.231 -3.56714 0.221277 0
M  V30 2887 C 263.897 -4.22792 1.56709 0
M  V30 2888 C 262.559 -4.40557 1.93554 0
M  V30 2889 C 264.911 -4.59883 2.45268 0
M  V30 2890 C 262.239 -4.92688 3.18552 0
M  V30 2891 C 264.591 -5.13403 3.69595 0
M  V30 2892 C 263.255 -5.29379 4.06589 0
M  V30 2893 H 262.525 -0.736606 0.0805743 0
M  V30 2894 H 265.172 -1.69598 0.889319 0
M  V30 2895 H 263.477 -3.8818 -0.531391 0
M  V30 2896 H 265.174 -4.00678 -0.160547 0
M  V30 2897 H 261.764 -4.09336 1.2705 0
M  V30 2898 H 265.948 -4.45817 2.18084 0
M  V30 2899 H 261.204 -5.03242 3.47214 0
M  V30 2900 H 265.378 -5.41084 4.38407 0
M  V30 2901 H 263.005 -5.69537 5.03519 0
M  V30 2902 N 264.58 -0.43555 -1.51462 0
M  V30 2903 C 265.49 0.383001 -2.31453 0
M  V30 2904 C 266.506 1.02931 -1.4029 0
M  V30 2905 O 267.682 1.02507 -1.73362 0
M  V30 2906 C 264.747 1.47043 -3.13973 0
M  V30 2907 C 263.808 0.844433 -4.20913 0
M  V30 2908 C 263.041 1.88004 -4.9949 0
M  V30 2909 O 263.264 3.10199 -4.78678 0
M  V30 2910 O 262.198 1.47157 -5.83634 0
M  V30 2911 H 266.024 -0.269964 -3.02498 0
M  V30 2912 H 263.609 -0.19813 -1.4808 0
M  V30 2913 H 265.491 2.10113 -3.65281 0
M  V30 2914 H 264.166 2.10751 -2.45695 0
M  V30 2915 H 263.073 0.175729 -3.73687 0
M  V30 2916 H 264.406 0.250869 -4.9156 0
M  V30 2917 N 266.058 1.56714 -0.166846 0
M  V30 2918 C 267.304 1.97039 0.479962 0
M  V30 2919 C 267.637 1.05264 1.63197 0
M  V30 2920 O 266.912 0.0988833 1.94248 0
M  V30 2921 C 267.195 3.46867 0.967212 0
M  V30 2922 C 267.048 4.49421 -0.18466 0
M  V30 2923 C 268.367 3.9968 1.84238 0
M  V30 2924 H 265.486 0.71641 0.172992 0
M  V30 2925 H 268.128 1.8832 -0.252079 0
M  V30 2926 H 266.278 3.54428 1.59101 0
M  V30 2927 H 267.95 4.53924 -0.821621 0
M  V30 2928 H 266.193 4.25573 -0.840837 0
M  V30 2929 H 266.864 5.51644 0.198317 0
M  V30 2930 H 269.34 3.94723 1.31655 0
M  V30 2931 H 268.216 5.04941 2.15234 0
M  V30 2932 H 268.477 3.43226 2.78654 0
M  V30 2933 N 267.536 -0.106894 1.57237 0
M  V30 2934 C 268.766 -0.825191 1.89405 0
M  V30 2935 C 269.174 -1.73374 0.757496 0
M  V30 2936 O 268.517 -1.81552 -0.280115 0
M  V30 2937 C 268.579 -1.70102 3.1671 0
M  V30 2938 C 268.243 -0.965523 4.46684 0
M  V30 2939 C 269.24 -0.300741 5.19029 0
M  V30 2940 C 266.925 -0.943105 4.93367 0
M  V30 2941 C 268.919 0.376622 6.36286 0
M  V30 2942 C 266.606 -0.261949 6.10538 0
M  V30 2943 C 267.604 0.396748 6.81847 0
M  V30 2944 O 267.292 1.06701 7.96787 0
M  V30 2945 H 267.024 -0.241852 0.631255 0
M  V30 2946 H 269.578 -0.0921491 2.05193 0
M  V30 2947 H 267.808 -2.47601 2.97036 0
M  V30 2948 H 269.497 -2.29483 3.34802 0
M  V30 2949 H 270.263 -0.309599 4.84011 0
M  V30 2950 H 266.142 -1.44524 4.3776 0
M  V30 2951 H 269.686 0.891334 6.91882 0
M  V30 2952 H 265.583 -0.250896 6.45012 0
M  V30 2953 H 266.351 0.972707 8.127 0
M  V30 2954 N 269.014 -1.53014 -0.377408 0
M  V30 2955 C 269.946 -1.74884 -1.48149 0
M  V30 2956 C 270.959 -0.629433 -1.5014 0
M  V30 2957 O 272.148 -0.905416 -1.53833 0
M  V30 2958 C 269.248 -1.80299 -2.86959 0
M  V30 2959 C 268.421 -3.09776 -3.08801 0
M  V30 2960 C 267.48 -3.06586 -4.27658 0
M  V30 2961 O 266.506 -3.80419 -4.23403 0
M  V30 2962 N 267.708 -2.26578 -5.34455 0
M  V30 2963 H 270.473 -2.70147 -1.29771 0
M  V30 2964 H 268.034 -1.51646 -0.56703 0
M  V30 2965 H 270.026 -1.75657 -3.64591 0
M  V30 2966 H 268.596 -0.92372 -2.98641 0
M  V30 2967 H 267.816 -3.27815 -2.18931 0
M  V30 2968 H 269.104 -3.95366 -3.20255 0
M  V30 2969 H 268.502 -1.66081 -5.40771 0
M  V30 2970 H 267.059 -2.27766 -6.10709 0
M  V30 2971 N 270.492 0.636531 -1.44174 0
M  V30 2972 C 271.439 1.74875 -1.50624 0
M  V30 2973 C 272.409 1.62275 -0.35442 0
M  V30 2974 O 273.594 1.82276 -0.563908 0
M  V30 2975 C 270.734 3.13102 -1.45125 0
M  V30 2976 C 269.847 3.36717 -2.7064 0
M  V30 2977 C 268.982 4.64885 -2.57013 0
M  V30 2978 C 268.021 4.8166 -3.77717 0
M  V30 2979 N 267.158 6.01101 -3.62798 0
M  V30 2980 H 271.998 1.68697 -2.45653 0
M  V30 2981 H 269.535 0.823004 -1.21922 0
M  V30 2982 H 271.493 3.93034 -1.39929 0
M  V30 2983 H 270.123 3.18308 -0.536671 0
M  V30 2984 H 269.175 2.50763 -2.86046 0
M  V30 2985 H 270.487 3.44993 -3.60252 0
M  V30 2986 H 269.641 5.52969 -2.49619 0
M  V30 2987 H 268.38 4.58957 -1.64953 0
M  V30 2988 H 267.385 3.92007 -3.85501 0
M  V30 2989 H 268.61 4.89406 -4.70807 0
M  V30 2990 H 266.556 5.96273 -2.73486 0
M  V30 2991 H 266.473 6.10409 -4.46023 0
M  V30 2992 H 267.741 6.91761 -3.59286 0
M  V30 2993 N 271.97 1.30982 0.876444 0
M  V30 2994 C 273.195 1.23373 1.66715 0
M  V30 2995 C 273.62 -0.19885 1.87046 0
M  V30 2996 O 272.978 -1.1427 1.40756 0
M  V30 2997 C 273.026 1.97644 3.01611 0
M  V30 2998 O 272.13 1.30935 3.91062 0
M  V30 2999 H 271.471 0.426279 0.509099 0
M  V30 3000 H 274.001 1.72944 1.09323 0
M  V30 3001 H 274.011 2.06992 3.51594 0
M  V30 3002 H 272.686 3.01829 2.86133 0
M  V30 3003 H 271.263 1.29996 3.49507 0
M  V30 3004 N 273.449 -1.08991 1.13837 0
M  V30 3005 C 274.695 -1.81526 0.90422 0
M  V30 3006 C 275.028 -1.85706 -0.568066 0
M  V30 3007 O 274.303 -1.32855 -1.42056 0
M  V30 3008 C 274.586 -3.27447 1.49835 0
M  V30 3009 C 274.439 -3.31512 3.04006 0
M  V30 3010 C 275.758 -4.24256 1.17025 0
M  V30 3011 H 272.877 -0.659029 0.329923 0
M  V30 3012 H 275.519 -1.27644 1.40737 0
M  V30 3013 H 273.669 -3.73462 1.07044 0
M  V30 3014 H 275.341 -2.93867 3.55584 0
M  V30 3015 H 273.584 -2.70963 3.38765 0
M  V30 3016 H 274.255 -4.34329 3.40679 0
M  V30 3017 H 276.731 -3.86549 1.54009 0
M  V30 3018 H 275.607 -5.24684 1.61237 0
M  V30 3019 H 275.868 -4.42019 0.0846274 0
M  V30 3020 N 274.927 -0.932562 -1.27047 0
M  V30 3021 C 275.857 -0.452902 -2.29066 0
M  V30 3022 C 276.838 0.489338 -1.62909 0
M  V30 3023 O 278.023 0.393046 -1.90181 0
M  V30 3024 C 275.153 0.290698 -3.46081 0
M  V30 3025 C 274.107 -0.564168 -4.24265 0
M  V30 3026 C 273.433 0.308886 -5.33807 0
M  V30 3027 C 274.733 -1.83112 -4.89149 0
M  V30 3028 H 276.427 -1.30552 -2.69437 0
M  V30 3029 H 273.973 -0.629201 -1.29526 0
M  V30 3030 H 275.926 0.637233 -4.16554 0
M  V30 3031 H 274.65 1.17738 -3.0464 0
M  V30 3032 H 273.309 -0.893477 -3.55545 0
M  V30 3033 H 272.957 1.19467 -4.88607 0
M  V30 3034 H 272.657 -0.259633 -5.87026 0
M  V30 3035 H 274.181 0.650884 -6.07121 0
M  V30 3036 H 275.595 -1.55236 -5.51883 0
M  V30 3037 H 273.992 -2.34353 -5.52448 0
M  V30 3038 H 275.062 -2.54772 -4.12576 0
M  V30 3039 N 276.405 1.4127 -0.698611 0
M  V30 3040 C 277.368 2.29158 -0.044132 0
M  V30 3041 C 278.368 1.44529 0.704841 0
M  V30 3042 O 279.558 1.65643 0.539276 0
M  V30 3043 C 276.69 3.27459 0.947809 0
M  V30 3044 H 277.883 2.88529 -0.817994 0
M  V30 3045 H 275.436 1.49307 -0.46228 0
M  V30 3046 H 276.171 2.73073 1.74933 0
M  V30 3047 H 275.956 3.8991 0.41385 0
M  V30 3048 H 277.446 3.93311 1.40344 0
M  V30 3049 N 277.883 0.443576 1.51229 0
M  V30 3050 C 278.815 -0.400608 2.25672 0
M  V30 3051 C 279.828 -0.980945 1.29928 0
M  V30 3052 O 281.017 -0.874024 1.55638 0
M  V30 3053 C 278.117 -1.57304 3.00181 0
M  V30 3054 C 277.29 -1.11046 4.23069 0
M  V30 3055 C 276.349 -2.15374 4.80105 0
M  V30 3056 O 275.375 -1.74554 5.41774 0
M  V30 3057 N 276.577 -3.47922 4.64683 0
M  V30 3058 H 279.342 0.23745 2.98758 0
M  V30 3059 H 276.903 0.272809 1.59585 0
M  V30 3060 H 278.895 -2.26733 3.35223 0
M  V30 3061 H 277.465 -2.11632 2.30066 0
M  V30 3062 H 276.685 -0.243019 3.9345 0
M  V30 3063 H 277.973 -0.778888 5.02803 0
M  V30 3064 H 277.371 -3.83815 4.15575 0
M  V30 3065 H 275.928 -4.13228 5.0407 0
M  V30 3066 O 279.4 -1.58373 0.316273 0
M  V30 3067 H 280.091 -1.92143 -0.24513 0
M  V30 END ATOM
M  V30 BEGIN BOND
M  V30 END BOND
M  V30 END CTAB
M  END
$$$$
