drugbank_target|P00363 Fumarate reductase flavoprotein subunit (DB00730; DB07490; DB07918)
 OpenBabel12092119343D

  0  0  0     0  0            999 V3000
M  V30 BEGIN CTAB
M  V30 COUNTS 9143 9236 0 0 0
M  V30 BEGIN ATOM
M  V30 1 H -0.908 1.98254 -0.117106 0
M  V30 2 N 0 1.576 0 0
M  V30 3 C 0.933 2.03868 1.02534 0
M  V30 4 C 1.911 0.928543 1.3348 0
M  V30 5 O 3.095 1.19667 1.45644 0
M  V30 6 C 0.222 2.43627 2.35294 0
M  V30 7 C -0.732 3.65373 2.2001 0
M  V30 8 S 0.101 5.13292 1.52614 0
M  V30 9 C 1.257 5.56322 2.86805 0
M  V30 10 H 1.49 2.90518 0.631377 0
M  V30 11 H -0.977 1.52953 0.210867 0
M  V30 12 H 0.981 2.67203 3.11629 0
M  V30 13 H -0.358 1.57376 2.7183 0
M  V30 14 H -1.165 3.90944 3.18086 0
M  V30 15 H -1.563 3.418 1.51819 0
M  V30 16 H 0.729 5.58782 3.83104 0
M  V30 17 H 1.672 6.56266 2.65933 0
M  V30 18 H 2.08 4.83886 2.90714 0
M  V30 19 N 1.4781 -0.272755 1.55222 0
M  V30 20 C 2.4101 -1.35946 1.8453 0
M  V30 21 C 3.4231 -1.45525 0.729818 0
M  V30 22 O 4.6121 -1.47337 1.00767 0
M  V30 23 C 1.7121 -2.74069 1.99347 0
M  V30 24 C 0.8851 -2.87079 3.30007 0
M  V30 25 C -0.0559 -4.05879 3.34886 0
M  V30 26 O -1.0299 -3.96626 4.08261 0
M  V30 27 N 0.1721 -5.17857 2.62307 0
M  V30 28 H 2.9371 -1.11149 2.78327 0
M  V30 29 H 0.4981 -0.462869 1.55142 0
M  V30 30 H 2.4901 -3.51838 1.99981 0
M  V30 31 H 1.0601 -2.91688 1.12415 0
M  V30 32 H 0.2801 -1.96193 3.41909 0
M  V30 33 H 1.5681 -2.92701 4.16177 0
M  V30 34 H 0.9661 -5.28261 2.02377 0
M  V30 35 H -0.4769 -5.93855 2.68663 0
M  V30 36 N 2.9562 -1.48159 -0.537278 0
M  V30 37 C 4.1842 -1.59454 -1.31841 0
M  V30 38 C 4.5992 -0.252065 -1.8711 0
M  V30 39 O 3.9562 0.757621 -1.66031 0
M  V30 40 C 4.0072 -2.63546 -2.47439 0
M  V30 41 O 3.7282 -3.92583 -1.94449 0
M  V30 42 C 5.2292 -2.85212 -3.39366 0
M  V30 43 H 2.4492 -0.53785 -0.401196 0
M  V30 44 H 4.9932 -1.93932 -0.648891 0
M  V30 45 H 3.1482 -2.31946 -3.1029 0
M  V30 46 H 3.5622 -4.49629 -2.70063 0
M  V30 47 H 5.0362 -3.61863 -4.16844 0
M  V30 48 H 5.5132 -1.93765 -3.94147 0
M  V30 49 H 6.1192 -3.18086 -2.82314 0
M  V30 50 N 4.4343 0.785586 -1.36625 0
M  V30 51 C 5.6813 1.54362 -1.31067 0
M  V30 52 C 6.0093 1.94195 0.10893 0
M  V30 53 O 5.2643 1.63262 1.07908 0
M  V30 54 C 5.5633 2.83007 -2.1827 0
M  V30 55 C 5.2293 2.62294 -3.6676 0
M  V30 56 C 3.8913 2.56353 -4.0723 0
M  V30 57 C 6.2433 2.43371 -4.6089 0
M  V30 58 C 3.5713 2.29461 -5.39967 0
M  V30 59 C 5.9233 2.18005 -5.93849 0
M  V30 60 C 4.5873 2.105 -6.3344 0
M  V30 61 H 3.8573 0.564851 -0.479609 0
M  V30 62 H 6.5043 0.906028 -1.68711 0
M  V30 63 H 4.8093 3.51253 -1.73576 0
M  V30 64 H 6.5063 3.40817 -2.11292 0
M  V30 65 H 3.0963 2.67774 -3.34656 0
M  V30 66 H 7.2803 2.46959 -4.30494 0
M  V30 67 H 2.5363 2.22135 -5.69619 0
M  V30 68 H 6.7103 2.02359 -6.66351 0
M  V30 69 H 4.3373 1.89425 -7.36222 0
M  V30 70 N 5.9124 1.20967 1.01018 0
M  V30 71 C 6.8444 0.922059 2.09835 0
M  V30 72 C 7.8574 -0.0927106 1.62536 0
M  V30 73 O 9.0464 0.139127 1.77957 0
M  V30 74 C 6.1464 0.362004 3.36961 0
M  V30 75 C 5.3194 1.42986 4.13369 0
M  V30 76 C 4.3784 0.879976 5.1879 0
M  V30 77 O 3.4044 1.56219 5.47343 0
M  V30 78 N 4.6064 -0.307396 5.79686 0
M  V30 79 H 7.3714 1.8588 2.35093 0
M  V30 80 H 4.9324 1.11422 1.1746 0
M  V30 81 H 6.9244 -0.0201474 4.04695 0
M  V30 82 H 5.4944 -0.479437 3.08902 0
M  V30 83 H 4.7144 1.98608 3.40512 0
M  V30 84 H 6.0024 2.14885 4.61196 0
M  V30 85 H 5.4004 -0.878796 5.58832 0
M  V30 86 H 3.9574 -0.631115 6.48737 0
M  V30 87 N 7.3905 -1.2043 1.01659 0
M  V30 88 C 8.3535 -2.21433 0.591616 0
M  V30 89 C 9.3535 -1.57203 -0.338226 0
M  V30 90 O 10.5435 -1.73737 -0.126918 0
M  V30 91 C 7.6755 -3.40628 -0.136058 0
M  V30 92 H 8.8685 -2.60545 1.48514 0
M  V30 93 H 6.4215 -1.33893 0.806379 0
M  V30 94 H 7.1565 -3.07019 -1.04449 0
M  V30 95 H 6.9415 -3.88475 0.531917 0
M  V30 96 H 8.4315 -4.15475 -0.420735 0
M  V30 97 N 8.8686 -0.792821 -1.36206 0
M  V30 98 C 10.1456 -0.290627 -1.93429 0
M  V30 99 C 10.5256 1.21773 -1.72437 0
M  V30 100 O 9.8736 2.0108 -1.08531 0
M  V30 101 C 10.0836 -0.686973 -3.42172 0
M  V30 102 C 11.4316 -0.668643 -4.19302 0
M  V30 103 O 12.4556 -0.627658 -3.50626 0
M  V30 104 O 11.3146 -0.714597 -5.41808 0
M  V30 105 H 8.4086 -0.0727927 -0.82379 0
M  V30 106 H 10.9546 -0.875593 -1.45367 0
M  V30 107 H 9.7266 -1.72711 -3.51122 0
M  V30 108 H 9.3496 -0.0760733 -3.97527 0
M  V30 109 N 10.3467 1.47872 -0.545128 0
M  V30 110 C 11.2767 2.32661 0.197793 0
M  V30 111 C 12.2577 1.43041 0.920504 0
M  V30 112 O 13.4427 1.71912 0.90333 0
M  V30 113 C 10.5727 3.24569 1.23582 0
M  V30 114 C 9.5267 4.23333 0.630323 0
M  V30 115 C 8.8527 5.0448 1.77211 0
M  V30 116 C 10.1527 5.20704 -0.407974 0
M  V30 117 H 11.8467 2.95024 -0.510045 0
M  V30 118 H 9.3927 1.4187 -0.246731 0
M  V30 119 H 11.3457 3.8272 1.76362 0
M  V30 120 H 10.0697 2.60236 1.97344 0
M  V30 121 H 8.7287 3.6639 0.123922 0
M  V30 122 H 8.3767 4.36561 2.49847 0
M  V30 123 H 8.0767 5.71339 1.37281 0
M  V30 124 H 9.6007 5.65487 2.3034 0
M  V30 125 H 11.0147 5.7329 0.033305 0
M  V30 126 H 9.4117 5.95699 -0.725486 0
M  V30 127 H 10.4817 4.66917 -1.30828 0
M  V30 128 N 11.8248 0.280983 1.55075 0
M  V30 129 C 12.7878 -0.590896 2.21452 0
M  V30 130 C 13.7878 -1.07682 1.19421 0
M  V30 131 O 14.9778 -0.97605 1.44288 0
M  V30 132 C 12.1098 -1.81587 2.88511 0
M  V30 133 H 13.3028 -0.0112554 2.99898 0
M  V30 134 H 10.8558 0.0316438 1.56268 0
M  V30 135 H 11.5908 -2.43587 2.14093 0
M  V30 136 H 11.3758 -1.4753 3.63287 0
M  V30 137 H 12.8658 -2.43575 3.39206 0
M  V30 138 N 13.3029 -1.57598 0.00835791 0
M  V30 139 C 14.5519 -1.90107 -0.673968 0
M  V30 140 C 14.8649 -0.884275 -1.7447 0
M  V30 141 O 16.0709 -1.09987 -2.48224 0
M  V30 142 C 14.5269 -3.37497 -1.24995 0
M  V30 143 C 14.1349 -4.47491 -0.2136 0
M  V30 144 C 15.8789 -3.79104 -1.90999 0
M  V30 145 C 13.7859 -5.85963 -0.80005 0
M  V30 146 H 12.7159 -0.709393 -0.255495 0
M  V30 147 H 15.3669 -1.83365 0.0702693 0
M  V30 148 H 13.7489 -3.39102 -2.04513 0
M  V30 149 H 14.9229 -4.57414 0.557596 0
M  V30 150 H 13.2379 -4.14956 0.346474 0
M  V30 151 H 15.8349 -4.79901 -2.35795 0
M  V30 152 H 16.1779 -3.1306 -2.74407 0
M  V30 153 H 16.7109 -3.79833 -1.18203 0
M  V30 154 H 13.4499 -6.555 -0.00456708 0
M  V30 155 H 12.9699 -5.79687 -1.54021 0
M  V30 156 H 14.6489 -6.33884 -1.29615 0
M  V30 157 N 14.781 0.264519 -1.55364 0
M  V30 158 C 16.027 0.99646 -1.76631 0
M  V30 159 C 16.36 1.85632 -0.570478 0
M  V30 160 O 15.635 1.89647 0.43175 0
M  V30 161 C 15.918 1.87187 -3.07625 0
M  V30 162 C 15.771 1.04138 -4.37579 0
M  V30 163 C 17.09 2.85749 -3.34717 0
M  V30 164 H 14.209 0.360841 -0.642622 0
M  V30 165 H 16.851 0.268218 -1.88097 0
M  V30 166 H 15.001 2.49279 -2.9798 0
M  V30 167 H 16.673 0.440517 -4.59192 0
M  V30 168 H 14.916 0.345115 -4.32425 0
M  V30 169 H 15.587 1.68729 -5.2558 0
M  V30 170 H 18.063 2.33793 -3.4421 0
M  V30 171 H 16.939 3.44136 -4.27623 0
M  V30 172 H 17.2 3.61311 -2.54768 0
M  V30 173 N 16.2591 1.48442 0.529413 0
M  V30 174 C 17.5071 1.56179 1.28267 0
M  V30 175 C 17.8281 0.237721 1.93546 0
M  V30 176 O 17.0981 -0.740779 1.81354 0
M  V30 177 H 15.6781 0.575367 0.476405 0
M  V30 178 H 18.3401 1.84909 0.61602 0
M  V30 179 H 17.4361 2.34312 2.06165 0
M  V30 180 N 17.7372 -0.778329 1.37039 0
M  V30 181 C 18.7002 -1.87301 1.32102 0
M  V30 182 C 19.7002 -1.59198 0.226405 0
M  V30 183 O 20.8902 -1.67403 0.481861 0
M  V30 184 C 18.0222 -3.24309 1.05055 0
M  V30 185 H 19.2152 -1.93093 2.29467 0
M  V30 186 H 16.7682 -0.977358 1.21973 0
M  V30 187 H 17.5032 -3.24196 0.0819373 0
M  V30 188 H 17.2882 -3.46098 1.84279 0
M  V30 189 H 18.7782 -4.04382 1.04234 0
M  V30 190 N 19.2153 -1.21501 -1.00376 0
M  V30 191 C 20.4633 -1.03095 -1.73827 0
M  V30 192 C 20.7843 0.436341 -1.90055 0
M  V30 193 O 20.0543 1.31466 -1.45236 0
M  V30 194 H 18.6343 -0.378487 -0.644016 0
M  V30 195 H 21.2963 -1.52831 -1.20949 0
M  V30 196 H 20.3923 -1.49991 -2.73695 0
M  V30 197 N 20.6934 1.19889 -1.02296 0
M  V30 198 C 21.9414 1.89046 -0.714558 0
M  V30 199 C 22.2624 1.79636 0.758681 0
M  V30 200 O 21.5324 1.20292 1.54618 0
M  V30 201 H 20.1124 0.699802 -0.261317 0
M  V30 202 H 22.7744 1.45574 -1.29592 0
M  V30 203 H 21.8704 2.95524 -1.0036 0
M  V30 204 N 22.1715 0.800033 1.35784 0
M  V30 205 C 23.1345 0.211565 2.28221 0
M  V30 206 C 24.1345 -0.59728 1.49296 0
M  V30 207 O 25.3245 -0.416721 1.69142 0
M  V30 208 C 22.4565 -0.705846 3.33513 0
M  V30 209 H 23.6495 1.02677 2.81776 0
M  V30 210 H 21.2025 0.570211 1.45528 0
M  V30 211 H 21.9375 -1.54498 2.85133 0
M  V30 212 H 21.7225 -0.127655 3.91892 0
M  V30 213 H 23.2125 -1.11211 4.02519 0
M  V30 214 N 23.6496 -1.47581 0.552962 0
M  V30 215 C 24.8976 -2.02082 0.0272703 0
M  V30 216 C 25.2186 -1.4301 -1.32563 0
M  V30 217 O 24.4886 -0.603745 -1.86365 0
M  V30 218 H 23.0686 -0.746966 0.00709182 0
M  V30 219 H 25.7306 -1.81033 0.722008 0
M  V30 220 H 24.8266 -3.12034 -0.0639951 0
M  V30 221 N 25.1277 -0.289203 -1.54924 0
M  V30 222 C 26.0577 0.58549 -2.2604 0
M  V30 223 C 27.0387 1.14753 -1.25562 0
M  V30 224 O 28.2237 1.17906 -1.54311 0
M  V30 225 C 25.3537 1.76305 -2.99222 0
M  V30 226 C 24.3077 1.33191 -4.06748 0
M  V30 227 C 23.6337 2.5937 -4.6758 0
M  V30 228 C 24.9337 0.471775 -5.20165 0
M  V30 229 H 26.6277 -0.00763532 -2.99399 0
M  V30 230 H 24.1737 -0.00511229 -1.43999 0
M  V30 231 H 26.1267 2.38097 -3.47689 0
M  V30 232 H 24.8507 2.38223 -2.23422 0
M  V30 233 H 23.5097 0.737121 -3.59113 0
M  V30 234 H 23.1577 3.19576 -3.88433 0
M  V30 235 H 22.8577 2.31228 -5.40192 0
M  V30 236 H 24.3817 3.21985 -5.18804 0
M  V30 237 H 25.7957 0.995056 -5.64599 0
M  V30 238 H 24.1927 0.284639 -5.99425 0
M  V30 239 H 25.2627 -0.506041 -4.82252 0
M  V30 240 N 26.6058 1.57591 -0.0167156 0
M  V30 241 C 28.0218 1.55946 0.339557 0
M  V30 242 C 28.2218 1.02109 1.73713 0
M  V30 243 O 27.2778 0.662303 2.43659 0
M  V30 244 C 28.5908 3.00037 0.199499 0
M  V30 245 C 30.1388 3.11805 0.273193 0
M  V30 246 C 30.6138 4.57713 0.162068 0
M  V30 247 N 32.1048 4.6268 0.219444 0
M  V30 248 C 32.8398 5.73185 0.157054 0
M  V30 249 N 32.3358 6.92786 0.0442936 0
M  V30 250 N 34.1288 5.61707 0.21014 0
M  V30 251 H 26.2798 1.90921 -0.930758 0
M  V30 252 H 28.5428 0.877674 -0.358319 0
M  V30 253 H 28.2488 3.4333 -0.76273 0
M  V30 254 H 28.1228 3.64387 0.974786 0
M  V30 255 H 30.5098 2.68433 1.22587 0
M  V30 256 H 30.5908 2.50201 -0.532256 0
M  V30 257 H 30.2348 5.01763 -0.78714 0
M  V30 258 H 30.1648 5.17283 0.986222 0
M  V30 259 H 32.6558 3.76649 0.307246 0
M  V30 260 H 32.9688 7.728 0.00304069 0
M  V30 261 H 31.3138 6.94999 0.00968457 0
M  V30 262 H 34.5048 4.6716 0.296546 0
M  V30 263 H 34.6778 6.47807 0.158054 0
M  V30 264 N 28.0839 -0.256276 1.55502 0
M  V30 265 C 29.0469 -1.30047 1.88734 0
M  V30 266 C 30.0469 -1.4154 0.763086 0
M  V30 267 O 31.2369 -1.40403 1.03115 0
M  V30 268 C 28.3689 -2.67953 2.10747 0
M  V30 269 H 29.5619 -1.01802 2.82093 0
M  V30 270 H 27.1149 -0.495134 1.4825 0
M  V30 271 H 27.8499 -3.01351 1.19825 0
M  V30 272 H 27.6349 -2.60993 2.92617 0
M  V30 273 H 29.1249 -3.43368 2.37673 0
M  V30 274 N 29.562 -1.4872 -0.521534 0
M  V30 275 C 30.525 -1.63379 -1.60748 0
M  V30 276 C 31.525 -0.50661 -1.52611 0
M  V30 277 O 32.715 -0.772601 -1.5613 0
M  V30 278 C 29.847 -1.61192 -3.00383 0
M  V30 279 H 31.04 -2.60217 -1.49087 0
M  V30 280 H 28.593 -1.37444 -0.744235 0
M  V30 281 H 29.328 -0.65863 -3.17541 0
M  V30 282 H 29.113 -2.43032 -3.07698 0
M  V30 283 H 30.603 -1.7466 -3.7932 0
M  V30 284 N 31.0401 0.771051 -1.3745 0
M  V30 285 C 32.2891 1.52491 -1.3202 0
M  V30 286 C 32.6021 1.9538 0.0927347 0
M  V30 287 O 33.8081 2.70159 0.269503 0
M  V30 288 C 32.2641 2.75366 -2.31736 0
M  V30 289 C 31.8721 2.39573 -3.78562 0
M  V30 290 C 33.6161 3.53307 -2.35318 0
M  V30 291 C 31.5231 3.58954 -4.70007 0
M  V30 292 H 30.4531 0.572506 -0.490666 0
M  V30 293 H 33.1041 0.844474 -1.62914 0
M  V30 294 H 31.4861 3.45303 -1.93861 0
M  V30 295 H 32.6601 1.77415 -4.25277 0
M  V30 296 H 30.9751 1.74805 -3.77932 0
M  V30 297 H 33.5721 4.42039 -3.00842 0
M  V30 298 H 33.9151 3.93217 -1.36698 0
M  V30 299 H 34.4481 2.90367 -2.71904 0
M  V30 300 H 31.1871 3.24125 -5.69757 0
M  V30 301 H 30.7071 4.20214 -4.27996 0
M  V30 302 H 32.3861 4.25758 -4.87175 0
M  V30 303 N 32.5182 1.22032 0.997298 0
M  V30 304 C 33.4812 0.987909 2.06816 0
M  V30 305 C 34.4812 -0.0440084 1.6074 0
M  V30 306 O 35.6712 0.194053 1.73116 0
M  V30 307 C 32.8032 0.49132 3.37341 0
M  V30 308 H 33.9962 1.93803 2.28868 0
M  V30 309 H 31.5492 1.03838 1.16822 0
M  V30 310 H 32.2842 -0.463364 3.20973 0
M  V30 311 H 32.0692 1.23575 3.72118 0
M  V30 312 H 33.5592 0.348824 4.16141 0
M  V30 313 N 33.9963 -1.19345 1.0293 0
M  V30 314 C 34.9593 -2.20793 0.615069 0
M  V30 315 C 35.9593 -1.57553 -0.321533 0
M  V30 316 O 37.1493 -1.73862 -0.108483 0
M  V30 317 C 34.2813 -3.40754 -0.0999222 0
M  V30 318 H 35.4743 -2.58955 1.51269 0
M  V30 319 H 33.0273 -1.3303 0.820534 0
M  V30 320 H 33.7623 -3.0811 -1.01187 0
M  V30 321 H 33.5473 -3.87889 0.57309 0
M  V30 322 H 35.0373 -4.15898 -0.376645 0
M  V30 323 N 35.4744 -0.807222 -1.35358 0
M  V30 324 C 36.4374 -0.223665 -2.28106 0
M  V30 325 C 37.4374 0.589354 -1.4961 0
M  V30 326 O 38.6274 0.407745 -1.69361 0
M  V30 327 C 35.7594 0.688149 -3.33882 0
M  V30 328 H 36.9524 -1.04169 -2.81227 0
M  V30 329 H 34.5054 -0.577921 -1.45223 0
M  V30 330 H 35.2404 1.52984 -2.85948 0
M  V30 331 H 35.0254 0.10687 -3.91954 0
M  V30 332 H 36.5154 1.09075 -4.03104 0
M  V30 333 N 36.9525 1.47285 -0.560781 0
M  V30 334 C 37.8845 2.28118 0.222438 0
M  V30 335 C 38.8975 1.37219 0.876056 0
M  V30 336 O 40.0865 1.62011 0.749307 0
M  V30 337 C 37.1865 3.1159 1.33285 0
M  V30 338 C 36.3595 4.30473 0.77534 0
M  V30 339 C 35.4185 4.95513 1.77069 0
M  V30 340 O 34.4445 5.53792 1.31539 0
M  V30 341 N 35.6465 4.90531 3.10418 0
M  V30 342 H 38.4115 2.95976 -0.470958 0
M  V30 343 H 35.9725 1.56955 -0.39709 0
M  V30 344 H 37.9645 3.51967 1.99752 0
M  V30 345 H 36.5345 2.45951 1.92943 0
M  V30 346 H 35.7545 3.94144 -0.0662113 0
M  V30 347 H 37.0425 5.07362 0.382272 0
M  V30 348 H 36.4405 4.44389 3.5005 0
M  V30 349 H 34.9975 5.34917 3.72434 0
M  V30 350 N 38.4306 0.297415 1.54768 0
M  V30 351 C 39.3936 -0.567375 2.22066 0
M  V30 352 C 40.3936 -1.06409 1.20556 0
M  V30 353 O 41.5836 -0.960691 1.45315 0
M  V30 354 C 38.7156 -1.78517 2.90421 0
M  V30 355 H 39.9086 0.0205534 2.99893 0
M  V30 356 H 37.4616 0.0482163 1.56226 0
M  V30 357 H 38.1966 -2.41303 2.16664 0
M  V30 358 H 37.9816 -1.43669 3.64831 0
M  V30 359 H 39.4716 -2.39964 3.41771 0
M  V30 360 N 39.9087 -1.5758 0.0250728 0
M  V30 361 C 40.8567 -2.11125 -0.97617 0
M  V30 362 C 41.8507 -1.03689 -1.33959 0
M  V30 363 O 43.0567 -1.22128 -1.3223 0
M  V30 364 H 39.4317 -0.674468 -0.332561 0
M  V30 365 H 41.4027 -2.94194 -0.499223 0
M  V30 366 C 40.1517 -2.65017 -2.2508 0
M  V30 367 H 39.4747 -3.47333 -1.9799 0
M  V30 368 H 40.9147 -3.06133 -2.93357 0
M  V30 369 C 39.3737 -1.57574 -2.97779 0
M  V30 370 O 39.9037 -0.973203 -3.89733 0
M  V30 371 N 38.1097 -1.29716 -2.60043 0
M  V30 372 H 37.6567 -1.789 -1.85345 0
M  V30 373 H 37.6147 -0.58051 -3.08994 0
M  V30 374 N 41.3868 0.248026 -1.55636 0
M  V30 375 C 42.7978 0.817177 -1.67866 0
M  V30 376 C 43.1488 1.86069 -0.622322 0
M  V30 377 O 42.2738 2.15157 0.231618 0
M  V30 378 C 42.8688 1.489 -3.04326 0
M  V30 379 C 41.4278 2.00587 -3.185 0
M  V30 380 C 40.5748 0.856573 -2.63739 0
M  V30 381 H 43.5258 0.0238579 -1.58682 0
M  V30 382 H 43.5468 2.35698 -2.98708 0
M  V30 383 H 43.0588 0.729279 -3.81186 0
M  V30 384 H 41.1598 2.79443 -2.4646 0
M  V30 385 H 41.2728 2.20402 -4.25393 0
M  V30 386 H 39.6368 1.25678 -2.21534 0
M  V30 387 H 40.4198 0.109953 -3.43124 0
M  V30 388 N 42.8649 1.48995 0.513639 0
M  V30 389 C 43.8129 1.65199 1.63744 0
M  V30 390 C 44.8069 0.51809 1.61283 0
M  V30 391 O 46.0129 0.697335 1.65943 0
M  V30 392 H 42.3879 0.52069 0.542574 0
M  V30 393 H 44.3589 2.59552 1.47226 0
M  V30 394 C 43.1079 1.72409 3.01945 0
M  V30 395 H 42.4309 2.59029 3.04539 0
M  V30 396 H 43.8709 1.87785 3.80148 0
M  V30 397 C 42.3299 0.46618 3.33659 0
M  V30 398 O 42.8599 -0.413744 3.99564 0
M  V30 399 N 41.0659 0.332931 2.88687 0
M  V30 400 H 40.6129 1.04996 2.35231 0
M  V30 401 H 40.5709 -0.507665 3.10274 0
M  V30 402 N 44.343 -0.763751 1.37857 0
M  V30 403 C 45.306 -1.85889 1.34081 0
M  V30 404 C 46.306 -1.58949 0.243277 0
M  V30 405 O 47.496 -1.66882 0.499589 0
M  V30 406 C 44.628 -3.23176 1.08489 0
M  V30 407 H 45.821 -1.90648 2.31502 0
M  V30 408 H 43.374 -0.964367 1.23003 0
M  V30 409 H 44.109 -3.24091 0.116318 0
M  V30 410 H 43.894 -3.44124 1.8794 0
M  V30 411 H 45.384 -4.03254 1.08517 0
M  V30 412 N 45.8211 -1.22559 -0.990812 0
M  V30 413 C 46.7681 -0.997519 -2.0813 0
M  V30 414 C 47.7381 0.0814702 -1.659 0
M  V30 415 O 48.9231 -0.0685424 -1.90677 0
M  V30 416 C 46.0631 -0.583615 -3.40129 0
M  V30 417 C 45.1761 -1.7336 -3.9569 0
M  V30 418 C 44.3111 -1.26748 -5.15857 0
M  V30 419 C 43.3501 -2.38888 -5.63559 0
M  V30 420 N 42.4871 -1.93308 -6.74964 0
M  V30 421 H 47.3271 -1.93099 -2.26973 0
M  V30 422 H 44.8641 -0.962114 -1.11273 0
M  V30 423 H 46.8221 -0.324801 -4.15934 0
M  V30 424 H 45.4521 0.312845 -3.2128 0
M  V30 425 H 44.5041 -2.10669 -3.16738 0
M  V30 426 H 45.8161 -2.57704 -4.27071 0
M  V30 427 H 44.9701 -0.966173 -5.98957 0
M  V30 428 H 43.7091 -0.394272 -4.86104 0
M  V30 429 H 42.7141 -2.69805 -4.79046 0
M  V30 430 H 43.9391 -3.26728 -5.95336 0
M  V30 431 H 41.8851 -1.08352 -6.4699 0
M  V30 432 H 41.8021 -2.71217 -7.05675 0
M  V30 433 H 43.0701 -1.66252 -7.61564 0
M  V30 434 N 47.2992 1.18797 -1.03562 0
M  V30 435 C 48.5482 1.87978 -0.731235 0
M  V30 436 C 48.8612 1.80911 0.743671 0
M  V30 437 O 50.0672 2.45407 1.16137 0
M  V30 438 C 48.5232 3.3721 -1.25768 0
M  V30 439 C 48.1312 3.52818 -2.76085 0
M  V30 440 C 49.8752 4.11825 -1.0296 0
M  V30 441 C 47.7822 4.9598 -3.22114 0
M  V30 442 H 46.7122 0.704063 -0.269835 0
M  V30 443 H 49.3632 1.34266 -1.25079 0
M  V30 444 H 47.7452 3.90359 -0.666011 0
M  V30 445 H 48.9192 3.09965 -3.40966 0
M  V30 446 H 47.2342 2.91602 -2.97249 0
M  V30 447 H 49.8312 5.17411 -1.34869 0
M  V30 448 H 50.1742 4.16287 0.0333546 0
M  V30 449 H 50.7072 3.64833 -1.58562 0
M  V30 450 H 47.4462 4.96684 -4.27768 0
M  V30 451 H 46.9662 5.39569 -2.61965 0
M  V30 452 H 48.6452 5.6467 -3.15844 0
M  V30 453 N 48.7773 0.814389 1.34928 0
M  V30 454 C 49.7403 0.235759 2.27984 0
M  V30 455 C 50.7403 -0.581412 1.49921 0
M  V30 456 O 51.9303 -0.398758 1.69575 0
M  V30 457 C 49.0623 -0.670433 3.34242 0
M  V30 458 H 50.2553 1.05659 2.80671 0
M  V30 459 H 47.8083 0.585614 1.44915 0
M  V30 460 H 48.5433 -1.51466 2.86755 0
M  V30 461 H 48.3283 -0.0860822 3.92005 0
M  V30 462 H 49.8183 -1.06935 4.03676 0
M  V30 463 N 50.2554 -1.46986 0.568584 0
M  V30 464 C 51.1854 -2.32946 -0.160753 0
M  V30 465 C 52.1664 -1.44487 -0.897631 0
M  V30 466 O 53.3514 -1.73327 -0.875867 0
M  V30 467 C 50.4814 -3.26494 -1.18403 0
M  V30 468 C 49.4354 -4.24282 -0.562895 0
M  V30 469 C 48.7614 -5.07236 -1.69163 0
M  V30 470 C 50.0614 -5.19989 0.490761 0
M  V30 471 H 51.7554 -2.94175 0.556916 0
M  V30 472 H 49.3014 -1.4146 0.26927 0
M  V30 473 H 51.2544 -3.85477 -1.70251 0
M  V30 474 H 49.9784 -2.63343 -1.93179 0
M  V30 475 H 48.6374 -3.66541 -0.0656164 0
M  V30 476 H 48.2854 -4.4048 -2.42871 0
M  V30 477 H 47.9854 -5.7345 -1.28174 0
M  V30 478 H 49.5094 -5.6908 -2.21314 0
M  V30 479 H 50.9234 -5.73271 0.0579047 0
M  V30 480 H 49.3204 -5.94469 0.820165 0
M  V30 481 H 50.3904 -4.64777 1.3824 0
M  V30 482 N 51.7335 -0.305618 -1.54608 0
M  V30 483 C 52.9825 0.303098 -1.9941 0
M  V30 484 C 53.2955 1.54648 -1.19764 0
M  V30 485 O 54.5015 2.23007 -1.54855 0
M  V30 486 C 52.9575 0.590588 -3.55021 0
M  V30 487 C 52.5655 -0.634719 -4.43481 0
M  V30 488 C 54.3095 1.16025 -4.08336 0
M  V30 489 C 52.2165 -0.320126 -5.90533 0
M  V30 490 H 51.1465 0.117031 -0.744862 0
M  V30 491 H 53.7975 -0.415045 -1.78745 0
M  V30 492 H 52.1795 1.36845 -3.71604 0
M  V30 493 H 53.3535 -1.41079 -4.38672 0
M  V30 494 H 51.6685 -1.12333 -4.00962 0
M  V30 495 H 54.2655 1.40994 -5.15776 0
M  V30 496 H 54.6085 2.10397 -3.5922 0
M  V30 497 H 55.1415 0.443985 -3.95315 0
M  V30 498 H 51.8805 -1.23254 -6.43808 0
M  V30 499 H 51.4005 0.418579 -5.98338 0
M  V30 500 H 53.0795 0.0766241 -6.46955 0
M  V30 501 N 53.2116 1.57565 -0.0334293 0
M  V30 502 C 54.4366 1.96689 0.657895 0
M  V30 503 C 54.8616 0.910057 1.64619 0
M  V30 504 O 54.2196 -0.128598 1.80843 0
M  V30 505 C 54.2676 3.34905 1.33683 0
M  V30 506 O 53.3716 3.31574 2.45219 0
M  V30 507 H 52.7126 0.641205 0.172489 0
M  V30 508 H 55.2426 2.04372 -0.0965621 0
M  V30 509 H 55.2526 3.71234 1.69262 0
M  V30 510 H 53.9276 4.11366 0.612411 0
M  V30 511 H 52.5046 3.06968 2.11719 0
M  V30 512 N 54.6897 -0.239769 1.55765 0
M  V30 513 C 55.6367 -1.29696 1.90913 0
M  V30 514 C 56.6067 -1.47478 0.764164 0
M  V30 515 O 57.7917 -1.61345 1.01845 0
M  V30 516 C 54.9317 -2.64598 2.21544 0
M  V30 517 C 54.0447 -2.54765 3.48882 0
M  V30 518 C 53.1797 -3.82069 3.69049 0
M  V30 519 C 52.2187 -3.66883 4.89963 0
M  V30 520 N 51.3557 -4.86094 5.06614 0
M  V30 521 H 56.1957 -0.990224 2.81067 0
M  V30 522 H 53.7327 -0.477684 1.39128 0
M  V30 523 H 55.6907 -3.43132 2.3731 0
M  V30 524 H 54.3207 -2.93405 1.34585 0
M  V30 525 H 53.3727 -1.67763 3.41409 0
M  V30 526 H 54.6847 -2.39457 4.37563 0
M  V30 527 H 53.8387 -4.69046 3.84812 0
M  V30 528 H 52.5777 -4.00282 2.78614 0
M  V30 529 H 51.5827 -2.78289 4.74168 0
M  V30 530 H 52.8077 -3.50157 5.81865 0
M  V30 531 H 50.7537 -5.04655 4.19117 0
M  V30 532 H 50.6707 -4.73443 5.89396 0
M  V30 533 H 51.9387 -5.74549 5.26795 0
M  V30 534 N 56.1678 -1.49265 -0.50573 0
M  V30 535 C 57.4138 -1.58748 -1.26202 0
M  V30 536 C 57.7468 -0.271227 -1.92297 0
M  V30 537 O 57.0218 0.724831 -1.80489 0
M  V30 538 C 57.3048 -2.74332 -2.33268 0
M  V30 539 C 57.1578 -4.15737 -1.71705 0
M  V30 540 C 58.4768 -2.85576 -3.34865 0
M  V30 541 H 55.5958 -0.577826 -0.457478 0
M  V30 542 H 58.2378 -1.81532 -0.560897 0
M  V30 543 H 56.3878 -2.55036 -2.93068 0
M  V30 544 H 58.0598 -4.46537 -1.15769 0
M  V30 545 H 56.3028 -4.21605 -1.02135 0
M  V30 546 H 56.9738 -4.92477 -2.49341 0
M  V30 547 H 59.4498 -3.03127 -2.8505 0
M  V30 548 H 58.3258 -3.68135 -4.07146 0
M  V30 549 H 58.5868 -1.94732 -3.96903 0
M  V30 550 N 57.6459 0.756429 -1.3826 0
M  V30 551 C 58.8759 1.54341 -1.3734 0
M  V30 552 C 59.2839 1.89159 0.0393917 0
M  V30 553 O 58.6269 1.5307 1.01565 0
M  V30 554 C 58.6889 2.87238 -2.16182 0
M  V30 555 C 58.3529 2.74973 -3.65019 0
M  V30 556 C 59.3499 2.44962 -4.58574 0
M  V30 557 C 57.0349 2.92515 -4.08338 0
M  V30 558 C 59.0289 2.32642 -5.93428 0
M  V30 559 C 56.7159 2.79815 -5.43274 0
M  V30 560 C 57.7139 2.49921 -6.35632 0
M  V30 561 O 57.4019 2.37275 -7.68086 0
M  V30 562 H 57.1339 0.484281 -0.471643 0
M  V30 563 H 59.6879 0.944152 -1.82414 0
M  V30 564 H 57.9179 3.49342 -1.65822 0
M  V30 565 H 59.6069 3.48731 -2.07705 0
M  V30 566 H 60.3729 2.31081 -4.26412 0
M  V30 567 H 56.2519 3.14781 -3.368 0
M  V30 568 H 59.7959 2.0923 -6.65484 0
M  V30 569 H 55.6929 2.93269 -5.75034 0
M  V30 570 H 56.4609 2.52509 -7.78577 0
M  V30 571 N 59.124 1.23083 0.984299 0
M  V30 572 C 60.535 1.05609 1.5396 0
M  V30 573 C 60.886 -0.377793 1.92528 0
M  V30 574 O 60.011 -1.26398 1.75649 0
M  V30 575 C 60.606 1.91087 2.7977 0
M  V30 576 C 59.165 1.77885 3.31713 0
M  V30 577 C 58.312 1.87028 2.04733 0
M  V30 578 H 61.263 1.36802 0.804419 0
M  V30 579 H 61.284 1.43336 3.5247 0
M  V30 580 H 60.796 2.9544 2.51668 0
M  V30 581 H 58.897 0.762995 3.64704 0
M  V30 582 H 59.01 2.61047 4.01735 0
M  V30 583 H 57.374 1.30565 2.18689 0
M  V30 584 H 58.157 2.92929 1.79017 0
M  V30 585 N 60.6021 -1.18246 1.0419 0
M  V30 586 C 61.5351 -2.20746 0.578474 0
M  V30 587 C 62.5131 -1.57912 -0.387624 0
M  V30 588 O 63.6971 -1.86071 -0.301634 0
M  V30 589 C 60.8241 -3.38346 -0.154762 0
M  V30 590 C 59.8701 -4.19587 0.764782 0
M  V30 591 S 60.7031 -4.86014 2.24835 0
M  V30 592 C 61.8591 -6.07012 1.526 0
M  V30 593 H 62.0921 -2.59715 1.44691 0
M  V30 594 H 59.6251 -1.287 0.85297 0
M  V30 595 H 61.5831 -4.065 -0.571641 0
M  V30 596 H 60.2441 -2.97786 -0.999105 0
M  V30 597 H 59.4371 -5.03611 0.197976 0
M  V30 598 H 59.0391 -3.56818 1.12057 0
M  V30 599 H 61.3311 -6.72523 0.819733 0
M  V30 600 H 62.2741 -6.68202 2.34333 0
M  V30 601 H 62.6821 -5.55249 1.01779 0
M  V30 602 N 62.0802 -0.821533 -1.34494 0
M  V30 603 C 63.4962 -0.507117 -1.51329 0
M  V30 604 C 63.6962 0.968964 -1.76673 0
M  V30 605 O 62.7522 1.75348 -1.81685 0
M  V30 606 C 64.0652 -1.36544 -2.67911 0
M  V30 607 C 65.6132 -1.36242 -2.81793 0
M  V30 608 C 66.0882 -2.2052 -4.01416 0
M  V30 609 N 67.5792 -2.18136 -4.08621 0
M  V30 610 C 68.3142 -2.80095 -5.00334 0
M  V30 611 N 67.8102 -3.51039 -5.9728 0
M  V30 612 N 69.6032 -2.69656 -4.93196 0
M  V30 613 H 61.7542 -1.77729 -1.16302 0
M  V30 614 H 64.0172 -0.757291 -0.570276 0
M  V30 615 H 63.7232 -2.41361 -2.55808 0
M  V30 616 H 63.5972 -1.02917 -3.62888 0
M  V30 617 H 65.9842 -0.322041 -2.93338 0
M  V30 618 H 66.0652 -1.73866 -1.87628 0
M  V30 619 H 65.7092 -3.24607 -3.90631 0
M  V30 620 H 65.6392 -1.80247 -4.94791 0
M  V30 621 H 68.1302 -1.6653 -3.39229 0
M  V30 622 H 68.4432 -3.95565 -6.63889 0
M  V30 623 H 66.7882 -3.55145 -5.97409 0
M  V30 624 H 69.9792 -2.13808 -4.16418 0
M  V30 625 H 70.1522 -3.1823 -5.64476 0
M  V30 626 N 63.5583 1.46682 -0.576371 0
M  V30 627 C 64.7833 2.07304 -0.0630475 0
M  V30 628 C 65.2083 1.42329 1.2298 0
M  V30 629 O 64.5663 0.504865 1.74129 0
M  V30 630 C 64.6143 3.60472 0.095895 0
M  V30 631 O 63.7183 3.95927 1.15394 0
M  V30 632 H 63.0593 0.661288 -0.0599463 0
M  V30 633 H 65.5893 1.88417 -0.797511 0
M  V30 634 H 65.5993 4.06865 0.304071 0
M  V30 635 H 64.2743 4.07157 -0.84828 0
M  V30 636 H 62.8513 3.61252 0.924724 0
M  V30 637 N 65.0364 0.313813 1.54444 0
M  V30 638 C 65.9864 -0.571898 2.20711 0
M  V30 639 C 66.9704 -1.08913 1.18435 0
M  V30 640 O 68.1624 -1.02777 1.44104 0
M  V30 641 C 65.2914 -1.7371 2.96108 0
M  V30 642 C 64.3774 -1.23522 4.05713 0
M  V30 643 N 64.7684 -0.452288 5.03774 0
M  V30 644 C 63.0664 -1.51482 4.19487 0
M  V30 645 C 63.7674 -0.183438 5.81411 0
M  V30 646 N 62.7434 -0.766845 5.38164 0
M  V30 647 H 66.5454 0.0336802 2.93881 0
M  V30 648 H 64.0594 0.119192 1.61962 0
M  V30 649 H 66.0564 -2.38329 3.4206 0
M  V30 650 H 64.7164 -2.34625 2.24458 0
M  V30 651 H 65.7274 -0.0960131 5.17811 0
M  V30 652 H 62.4044 -2.13053 3.59047 0
M  V30 653 H 63.7944 0.446216 6.70417 0
M  V30 654 N 66.5145 -1.57545 0.0417849 0
M  V30 655 C 67.7425 -1.96624 -0.643928 0
M  V30 656 C 68.1575 -0.918897 -1.64929 0
M  V30 657 O 67.5145 0.0979323 -1.82237 0
M  V30 658 C 67.5655 -3.35781 -1.33914 0
M  V30 659 O 67.2865 -4.365 -0.374048 0
M  V30 660 C 68.7875 -3.89566 -2.1155 0
M  V30 661 H 66.0075 -0.647316 -0.176702 0
M  V30 662 H 68.5515 -2.04229 0.105304 0
M  V30 663 H 66.7065 -3.29357 -2.03968 0
M  V30 664 H 67.1205 -5.17248 -0.869179 0
M  V30 665 H 68.5945 -4.89242 -2.55628 0
M  V30 666 H 69.0715 -3.24488 -2.9598 0
M  V30 667 H 69.6775 -3.99298 -1.46427 0
M  V30 668 N 67.9926 0.231505 -1.5589 0
M  V30 669 C 69.2386 0.95877 -1.78705 0
M  V30 670 C 69.5716 1.8438 -0.609725 0
M  V30 671 O 68.8466 1.90521 0.391426 0
M  V30 672 C 69.1296 1.8062 -3.11526 0
M  V30 673 C 68.9826 0.948328 -4.39689 0
M  V30 674 C 70.3016 2.78585 -3.40703 0
M  V30 675 H 67.4206 0.347129 -0.650131 0
M  V30 676 H 70.0626 0.228259 -1.88624 0
M  V30 677 H 68.2126 2.42902 -3.03201 0
M  V30 678 H 69.8846 0.343016 -4.60023 0
M  V30 679 H 68.1276 0.253314 -4.3306 0
M  V30 680 H 68.7986 1.57543 -5.29041 0
M  V30 681 H 71.2746 2.26439 -3.49091 0
M  V30 682 H 70.1506 3.34988 -4.34826 0
M  V30 683 H 70.4116 3.55825 -2.62375 0
M  V30 684 N 69.4707 1.49531 0.497807 0
M  V30 685 C 70.4337 1.65916 1.58128 0
M  V30 686 C 71.4337 0.530825 1.51786 0
M  V30 687 O 72.6237 0.797342 1.54881 0
M  V30 688 C 69.7557 1.65951 2.9778 0
M  V30 689 H 70.9487 2.62556 1.44929 0
M  V30 690 H 68.5017 1.38611 0.722275 0
M  V30 691 H 69.2367 0.709065 3.16453 0
M  V30 692 H 69.0217 2.47897 3.03792 0
M  V30 693 H 70.5117 1.80673 3.76493 0
M  V30 694 N 70.9488 -0.749086 1.3866 0
M  V30 695 C 71.9118 -1.84457 1.36045 0
M  V30 696 C 72.9118 -1.58682 0.260122 0
M  V30 697 O 74.1018 -1.66343 0.517261 0
M  V30 698 C 71.2338 -3.22008 1.11911 0
M  V30 699 H 72.4268 -1.88182 2.33512 0
M  V30 700 H 69.9798 -0.951266 1.24019 0
M  V30 701 H 70.7148 -3.2395 0.150686 0
M  V30 702 H 70.4998 -3.42111 1.91579 0
M  V30 703 H 71.9898 -4.0208 1.12788 0
M  V30 704 N 72.4269 -1.23603 -0.977757 0
M  V30 705 C 73.3369 -1.03632 -2.1047 0
M  V30 706 C 74.3529 0.0199435 -1.73989 0
M  V30 707 O 75.5289 -0.176076 -2.00629 0
M  V30 708 C 72.5939 -0.63276 -3.40877 0
M  V30 709 C 71.6549 -1.76437 -3.91367 0
M  V30 710 C 70.8879 -1.37997 -5.15551 0
M  V30 711 O 71.1109 -0.265357 -5.69782 0
M  V30 712 O 70.0449 -2.20201 -5.60174 0
M  V30 713 H 73.8709 -1.98086 -2.30208 0
M  V30 714 H 71.4559 -1.02332 -1.08851 0
M  V30 715 H 73.3379 -0.418761 -4.19314 0
M  V30 716 H 72.0129 0.282754 -3.22463 0
M  V30 717 H 70.9199 -2.03304 -3.14036 0
M  V30 718 H 72.2529 -2.6583 -4.14241 0
M  V30 719 N 73.905 1.17692 -1.04816 0
M  V30 720 C 75.153 1.87488 -0.754497 0
M  V30 721 C 75.474 1.81205 0.720407 0
M  V30 722 O 74.744 1.23544 1.52032 0
M  V30 723 H 73.324 0.694101 -0.276102 0
M  V30 724 H 75.986 1.42793 -1.32651 0
M  V30 725 H 75.082 2.93328 -1.06606 0
M  V30 726 N 75.3831 0.828654 1.34056 0
M  V30 727 C 76.6311 0.41863 1.97717 0
M  V30 728 C 76.9521 -1.02314 1.66002 0
M  V30 729 O 76.2221 -1.71119 0.953683 0
M  V30 730 H 74.8021 0.151809 0.731412 0
M  V30 731 H 77.4641 1.05936 1.63596 0
M  V30 732 H 76.5601 0.542318 3.07352 0
M  V30 733 N 76.8612 -1.46375 0.584142 0
M  V30 734 C 78.0862 -2.07268 0.0740405 0
M  V30 735 C 78.5112 -1.42979 -1.22223 0
M  V30 736 O 77.8692 -0.514092 -1.73859 0
M  V30 737 C 77.9172 -3.60518 -0.0767769 0
M  V30 738 O 77.0212 -3.96533 -1.13292 0
M  V30 739 H 76.3622 -0.660961 0.0634524 0
M  V30 740 H 78.8922 -1.87991 0.807492 0
M  V30 741 H 78.9022 -4.07021 -0.282489 0
M  V30 742 H 77.5772 -4.06702 0.86986 0
M  V30 743 H 76.1542 -3.61738 -0.905553 0
M  V30 744 N 78.3393 -0.321999 -1.54275 0
M  V30 745 C 79.3023 0.531975 -2.22941 0
M  V30 746 C 80.3023 1.04478 -1.22234 0
M  V30 747 O 81.4923 0.937452 -1.46825 0
M  V30 748 C 78.6243 1.73874 -2.93224 0
M  V30 749 H 79.8173 -0.0682612 -2.99822 0
M  V30 750 H 77.3703 -0.0730644 -1.56129 0
M  V30 751 H 78.1053 2.37825 -2.20476 0
M  V30 752 H 77.8903 1.37847 -3.6707 0
M  V30 753 H 79.3803 2.34496 -3.45545 0
M  V30 754 N 79.8174 1.5752 -0.0501392 0
M  V30 755 C 80.7804 2.1037 0.909786 0
M  V30 756 C 81.7804 1.02308 1.24056 0
M  V30 757 O 82.9704 1.28385 1.17741 0
M  V30 758 C 80.1024 2.58708 2.21998 0
M  V30 759 H 81.2954 2.96479 0.451665 0
M  V30 760 H 78.8484 1.55038 0.198248 0
M  V30 761 H 79.5834 1.75989 2.72394 0
M  V30 762 H 79.3684 3.37675 1.99295 0
M  V30 763 H 80.8584 2.99747 2.9076 0
M  V30 764 N 81.2955 -0.223234 1.56011 0
M  V30 765 C 82.5415 -0.949279 1.79211 0
M  V30 766 C 82.8745 -1.84054 0.619494 0
M  V30 767 O 82.1495 -1.90726 -0.381317 0
M  V30 768 C 82.4325 -1.78965 3.12479 0
M  V30 769 C 82.2855 -0.924997 4.40186 0
M  V30 770 C 83.6045 -2.76774 3.42175 0
M  V30 771 H 80.7235 -0.343676 0.651963 0
M  V30 772 H 83.3655 -0.218253 1.88742 0
M  V30 773 H 81.5155 -2.41291 3.04485 0
M  V30 774 H 83.1875 -0.318615 4.60198 0
M  V30 775 H 81.4305 -0.230344 4.33188 0
M  V30 776 H 82.1015 -1.54735 5.29869 0
M  V30 777 H 84.5775 -2.24584 3.50287 0
M  V30 778 H 83.4535 -3.32678 4.36597 0
M  V30 779 H 83.7145 -3.54429 2.64258 0
M  V30 780 N 82.7736 -1.49793 -0.48987 0
M  V30 781 C 83.7366 -1.66752 -1.57246 0
M  V30 782 C 84.7366 -0.538867 -1.51502 0
M  V30 783 O 85.9266 -0.805545 -1.54456 0
M  V30 784 C 83.0586 -1.67528 -2.96896 0
M  V30 785 H 84.2516 -2.63321 -1.43534 0
M  V30 786 H 81.8046 -1.38992 -0.714914 0
M  V30 787 H 82.5396 -0.725837 -3.16073 0
M  V30 788 H 82.3246 -2.49504 -3.02473 0
M  V30 789 H 83.8146 -1.82667 -3.7553 0
M  V30 790 N 84.2517 0.741722 -1.39055 0
M  V30 791 C 85.1837 1.8657 -1.33133 0
M  V30 792 C 86.1967 1.61001 -0.241329 0
M  V30 793 O 87.3857 1.7136 -0.499784 0
M  V30 794 C 84.4857 3.22457 -1.04283 0
M  V30 795 C 83.6587 3.75435 -2.24427 0
M  V30 796 C 82.7177 4.89867 -1.92138 0
M  V30 797 O 81.7437 5.03879 -2.64754 0
M  V30 798 N 82.9457 5.73738 -0.88347 0
M  V30 799 H 85.7107 1.92156 -2.29991 0
M  V30 800 H 83.2717 0.922172 -1.3307 0
M  V30 801 H 85.2637 3.9657 -0.807128 0
M  V30 802 H 83.8337 3.12181 -0.161807 0
M  V30 803 H 83.0537 2.92751 -2.6399 0
M  V30 804 H 84.3417 4.07563 -3.04581 0
M  V30 805 H 83.7397 5.64999 -0.281517 0
M  V30 806 H 82.2967 6.47947 -0.707662 0
M  V30 807 N 85.7298 1.2412 0.971189 0
M  V30 808 C 87.0068 0.986867 1.6888 0
M  V30 809 C 87.3868 -0.491857 2.0529 0
M  V30 810 O 86.7348 -1.46531 1.75331 0
M  V30 811 C 86.9448 1.9063 2.92338 0
M  V30 812 C 88.2928 2.17515 3.64654 0
M  V30 813 O 89.3168 1.88254 3.02388 0
M  V30 814 O 88.1758 2.6719 4.7673 0
M  V30 815 H 85.2698 0.372944 0.738134 0
M  V30 816 H 87.8158 1.35203 1.02559 0
M  V30 817 H 86.5878 2.90552 2.62097 0
M  V30 818 H 86.2108 1.54408 3.66393 0
M  V30 819 N 87.2079 -1.17134 1.05439 0
M  V30 820 C 88.1579 -2.1919 0.627675 0
M  V30 821 C 89.1419 -1.57328 -0.337147 0
M  V30 822 O 90.3339 -1.76329 -0.153976 0
M  V30 823 C 87.4629 -3.43299 0.00651435 0
M  V30 824 C 86.5489 -4.12255 0.995312 0
M  V30 825 N 86.9399 -4.56997 2.16765 0
M  V30 826 C 85.2379 -4.38316 0.824336 0
M  V30 827 C 85.9389 -5.10239 2.7934 0
M  V30 828 N 84.9149 -5.02595 2.07122 0
M  V30 829 H 88.7169 -2.5149 1.52086 0
M  V30 830 H 86.2309 -1.33491 0.924868 0
M  V30 831 H 88.2279 -4.15693 -0.316965 0
M  V30 832 H 86.8879 -3.1249 -0.882033 0
M  V30 833 H 87.8989 -4.51006 2.54587 0
M  V30 834 H 84.5759 -4.17498 -0.0129526 0
M  V30 835 H 85.9659 -5.54961 3.78772 0
M  V30 836 N 88.686 -0.835752 -1.33615 0
M  V30 837 C 89.963 -0.352017 -1.92406 0
M  V30 838 C 90.343 1.16225 -1.76224 0
M  V30 839 O 89.691 1.97526 -1.14873 0
M  V30 840 C 89.901 -0.795485 -3.39813 0
M  V30 841 C 91.249 -0.801703 -4.16963 0
M  V30 842 O 92.273 -0.738889 -3.48452 0
M  V30 843 O 91.132 -0.886607 -5.3926 0
M  V30 844 H 88.226 -0.0989641 -0.821057 0
M  V30 845 H 90.772 -0.921397 -1.42507 0
M  V30 846 H 89.544 -1.83795 -3.45449 0
M  V30 847 H 89.167 -0.202505 -3.97084 0
M  V30 848 N 90.1641 1.46063 -0.591896 0
M  V30 849 C 91.3891 2.07226 -0.0850314 0
M  V30 850 C 91.8141 1.43625 1.21463 0
M  V30 851 O 91.1721 0.523305 1.73583 0
M  V30 852 C 91.2201 3.60554 0.0576567 0
M  V30 853 O 90.3241 3.97128 1.11188 0
M  V30 854 H 89.6651 0.660615 -0.0669568 0
M  V30 855 H 92.1951 1.8756 -0.81745 0
M  V30 856 H 92.2051 4.07165 0.2609 0
M  V30 857 H 90.8801 4.06235 -0.891416 0
M  V30 858 H 89.4571 3.62213 0.886356 0
M  V30 859 N 91.6422 0.330177 1.54103 0
M  V30 860 C 92.8892 -0.270405 2.00686 0
M  V30 861 C 93.2172 -1.51621 1.21825 0
M  V30 862 O 92.4722 -1.93536 0.29025 0
M  V30 863 C 92.7712 -0.643134 3.51566 0
M  V30 864 C 92.4372 0.504251 4.48072 0
M  V30 865 C 91.0992 0.819163 4.74176 0
M  V30 866 C 93.4512 1.27465 5.05373 0
M  V30 867 C 90.7792 1.90708 5.5484 0
M  V30 868 C 93.1312 2.35271 5.87223 0
M  V30 869 C 91.7952 2.67336 6.11627 0
M  V30 870 H 91.0652 -0.0989482 0.734364 0
M  V30 871 H 93.7122 0.455324 1.86008 0
M  V30 872 H 92.0172 -1.44938 3.64006 0
M  V30 873 H 93.7142 -1.11949 3.85056 0
M  V30 874 H 90.3042 0.248733 4.27878 0
M  V30 875 H 94.4882 1.04462 4.85182 0
M  V30 876 H 89.7442 2.15991 5.71977 0
M  V30 877 H 93.9182 2.95405 6.30641 0
M  V30 878 H 91.5452 3.51763 6.73919 0
M  V30 879 N 93.1203 -1.57491 0.0584922 0
M  V30 880 C 94.0303 -2.15448 -0.928414 0
M  V30 881 C 95.0463 -1.11416 -1.3365 0
M  V30 882 O 96.2223 -1.4362 -1.41193 0
M  V30 883 C 93.2873 -2.69393 -2.18239 0
M  V30 884 C 92.3483 -3.88249 -1.83196 0
M  V30 885 C 91.5813 -4.39613 -3.02616 0
M  V30 886 O 91.8043 -3.90023 -4.16219 0
M  V30 887 O 90.7383 -5.31111 -2.83204 0
M  V30 888 H 94.5643 -3.00112 -0.465483 0
M  V30 889 H 92.1493 -1.48499 -0.163826 0
M  V30 890 H 94.0313 -3.04026 -2.91798 0
M  V30 891 H 92.7063 -1.87796 -2.63656 0
M  V30 892 H 91.6133 -3.58492 -1.06931 0
M  V30 893 H 92.9463 -4.71098 -1.42573 0
M  V30 894 N 94.5984 0.214957 -1.56127 0
M  V30 895 C 95.8284 0.953707 -1.8327 0
M  V30 896 C 96.2364 1.78181 -0.636262 0
M  V30 897 O 95.5794 1.79191 0.404516 0
M  V30 898 C 95.6414 1.91516 -3.0424 0
M  V30 899 C 95.3054 1.27094 -4.38972 0
M  V30 900 C 96.3024 0.657575 -5.15725 0
M  V30 901 C 93.9874 1.28073 -4.85698 0
M  V30 902 C 95.9814 0.0625968 -6.37369 0
M  V30 903 C 93.6684 0.681914 -6.07283 0
M  V30 904 C 94.6664 0.0739046 -6.8296 0
M  V30 905 O 94.3544 -0.515582 -8.02245 0
M  V30 906 H 94.0864 0.284764 -0.613095 0
M  V30 907 H 96.6404 0.233283 -2.04071 0
M  V30 908 H 94.8704 2.67475 -2.79274 0
M  V30 909 H 96.5594 2.52001 -3.18198 0
M  V30 910 H 97.3254 0.642288 -4.80728 0
M  V30 911 H 93.2044 1.74337 -4.26764 0
M  V30 912 H 96.7484 -0.412593 -6.96379 0
M  V30 913 H 92.6454 0.694636 -6.41752 0
M  V30 914 H 93.4134 -0.410544 -8.1747 0
M  V30 915 N 96.0765 1.50051 0.48192 0
M  V30 916 C 97.0265 1.64512 1.5786 0
M  V30 917 C 98.0105 0.500073 1.52932 0
M  V30 918 O 99.2025 0.753964 1.60139 0
M  V30 919 C 96.3315 1.73263 2.9637 0
M  V30 920 C 95.4175 2.93409 3.06222 0
M  V30 921 N 95.8085 4.17236 2.85915 0
M  V30 922 C 94.1065 2.91742 3.37346 0
M  V30 923 C 94.8075 4.981 3.00451 0
M  V30 924 N 93.7835 4.3184 3.30174 0
M  V30 925 H 97.5855 2.57955 1.40842 0
M  V30 926 H 95.0995 1.47086 0.688439 0
M  V30 927 H 97.0965 1.81724 3.75209 0
M  V30 928 H 95.7565 0.809711 3.14442 0
M  V30 929 H 96.7675 4.46909 2.6171 0
M  V30 930 H 93.4445 2.08907 3.61475 0
M  V30 931 H 94.8345 6.06532 2.89082 0
M  V30 932 N 97.5546 -0.734337 1.39446 0
M  V30 933 C 98.8016 -1.49391 1.36706 0
M  V30 934 C 99.1296 -1.94465 -0.0367813 0
M  V30 935 O 98.3846 -1.67154 -1.01774 0
M  V30 936 C 98.6836 -2.74711 2.28623 0
M  V30 937 C 98.3496 -2.48501 3.76242 0
M  V30 938 C 97.0116 -2.41062 4.16464 0
M  V30 939 C 99.3636 -2.26098 4.69606 0
M  V30 940 C 96.6916 -2.09262 5.48112 0
M  V30 941 C 99.0436 -1.95814 6.01531 0
M  V30 942 C 97.7076 -1.86845 6.40816 0
M  V30 943 H 96.9776 -0.546661 0.500243 0
M  V30 944 H 99.6246 -0.842788 1.71957 0
M  V30 945 H 97.9296 -3.44569 1.86492 0
M  V30 946 H 99.6266 -3.32741 2.23796 0
M  V30 947 H 96.2166 -2.55169 3.44364 0
M  V30 948 H 100.401 -2.30812 4.39363 0
M  V30 949 H 95.6566 -2.00841 5.77471 0
M  V30 950 H 99.8306 -1.77488 6.73403 0
M  V30 951 H 97.4576 -1.6197 7.42745 0
M  V30 952 N 99.0327 -1.24633 -0.964593 0
M  V30 953 C 99.9827 -1.00841 -2.04487 0
M  V30 954 C 100.967 0.0512468 -1.60818 0
M  V30 955 O 102.159 -0.162865 -1.76249 0
M  V30 956 C 99.2877 -0.618474 -3.37683 0
M  V30 957 C 98.3737 -1.71437 -3.87905 0
M  V30 958 N 98.7647 -2.9477 -4.11029 0
M  V30 959 C 97.0627 -1.5926 -4.16596 0
M  V30 960 C 97.7637 -3.65834 -4.52261 0
M  V30 961 N 96.7397 -2.9341 -4.57615 0
M  V30 962 H 100.542 -1.94487 -2.20345 0
M  V30 963 H 98.0557 -1.14805 -1.14863 0
M  V30 964 H 100.053 -0.429247 -4.14684 0
M  V30 965 H 98.7127 0.310766 -3.23209 0
M  V30 966 H 99.7237 -3.30917 -3.9839 0
M  V30 967 H 96.4007 -0.731606 -4.1104 0
M  V30 968 H 97.7907 -4.71646 -4.78539 0
M  V30 969 N 100.511 1.16574 -1.06058 0
M  V30 970 C 101.788 1.83048 -0.689416 0
M  V30 971 C 102.168 1.94122 0.829443 0
M  V30 972 O 101.516 1.48249 1.7388 0
M  V30 973 C 101.726 3.20186 -1.38859 0
M  V30 974 C 103.074 3.95989 -1.53226 0
M  V30 975 O 104.098 3.29696 -1.3483 0
M  V30 976 O 102.957 5.14813 -1.83384 0
M  V30 977 H 100.051 0.790258 -0.243764 0
M  V30 978 H 102.597 1.23797 -1.16071 0
M  V30 979 H 101.369 3.07146 -2.4244 0
M  V30 980 H 100.992 3.87112 -0.907216 0
M  V30 981 N 101.989 0.842826 1.3317 0
M  V30 982 C 103.217 0.454055 2.01856 0
M  V30 983 C 103.632 -0.94587 1.63397 0
M  V30 984 O 102.989 -1.61534 0.849302 0
M  V30 985 C 103.04 0.569715 3.56982 0
M  V30 986 O 102.761 1.91448 3.94055 0
M  V30 987 C 104.262 0.178412 4.42941 0
M  V30 988 H 101.482 0.17979 0.646465 0
M  V30 989 H 104.026 1.1365 1.70012 0
M  V30 990 H 102.181 -0.0648587 3.87346 0
M  V30 991 H 102.595 1.90282 4.88767 0
M  V30 992 H 104.069 0.310376 5.51127 0
M  V30 993 H 104.546 -0.880056 4.30293 0
M  V30 994 H 105.152 0.787579 4.17944 0
M  V30 995 N 103.467 -1.45747 0.599634 0
M  V30 996 C 104.713 -2.02592 0.0918643 0
M  V30 997 C 105.046 -1.46806 -1.27128 0
M  V30 998 O 104.321 -0.639658 -1.83681 0
M  V30 999 C 104.604 -3.60073 0.0443398 0
M  V30 1000 C 104.457 -4.26208 1.43759 0
M  V30 1001 C 105.776 -4.35309 -0.647608 0
M  V30 1002 H 102.895 -0.736175 0.034857 0
M  V30 1003 H 105.537 -1.73694 0.770081 0
M  V30 1004 H 103.687 -3.84823 -0.533224 0
M  V30 1005 H 105.359 -4.12668 2.06162 0
M  V30 1006 H 103.602 -3.84916 2.00056 0
M  V30 1007 H 104.273 -5.35069 1.35665 0
M  V30 1008 H 106.749 -4.15805 -0.156776 0
M  V30 1009 H 105.625 -5.45038 -0.649942 0
M  V30 1010 H 105.886 -4.07598 -1.71219 0
M  V30 1011 N 104.945 -0.338344 -1.53925 0
M  V30 1012 C 105.908 0.508299 -2.23493 0
M  V30 1013 C 106.908 1.03175 -1.23335 0
M  V30 1014 O 108.098 0.921826 -1.47811 0
M  V30 1015 C 105.23 1.70754 -2.95052 0
M  V30 1016 H 106.423 -0.100058 -2.99733 0
M  V30 1017 H 103.976 -0.0896198 -1.56043 0
M  V30 1018 H 104.711 2.35474 -2.22986 0
M  V30 1019 H 104.496 1.33946 -3.68512 0
M  V30 1020 H 105.986 2.30818 -3.48013 0
M  V30 1021 N 106.423 1.57458 -0.0668435 0
M  V30 1022 C 107.671 1.92919 0.602214 0
M  V30 1023 C 107.992 0.947215 1.70449 0
M  V30 1024 O 107.262 -0.00544117 1.95899 0
M  V30 1025 H 105.842 0.71217 0.22544 0
M  V30 1026 H 108.504 1.94508 -0.123535 0
M  V30 1027 H 107.6 2.94589 1.03073 0
M  V30 1028 N 107.901 -0.206675 1.56239 0
M  V30 1029 C 109.149 -0.927007 1.79586 0
M  V30 1030 C 109.47 -1.8427 0.637929 0
M  V30 1031 O 108.74 -1.92849 -0.344398 0
M  V30 1032 H 107.32 -0.345292 0.662407 0
M  V30 1033 H 109.982 -0.21496 1.93711 0
M  V30 1034 H 109.078 -1.52501 2.72305 0
M  V30 1035 N 109.379 -1.50304 -0.473955 0
M  V30 1036 C 110.656 -1.51667 -1.23518 0
M  V30 1037 C 111.036 -0.259701 -2.09496 0
M  V30 1038 O 110.384 0.756986 -2.15597 0
M  V30 1039 C 110.594 -2.81082 -2.06868 0
M  V30 1040 C 111.942 -3.31631 -2.65153 0
M  V30 1041 O 112.966 -2.82384 -2.17113 0
M  V30 1042 O 111.825 -4.17471 -3.52675 0
M  V30 1043 H 108.919 -0.60822 -0.560355 0
M  V30 1044 H 111.465 -1.62592 -0.486011 0
M  V30 1045 H 110.237 -3.64041 -1.4349 0
M  V30 1046 H 109.86 -2.73146 -2.88924 0
M  V30 1047 N 110.857 0.726932 -1.39834 0
M  V30 1048 C 112.103 1.48771 -1.38704 0
M  V30 1049 C 112.458 1.92394 0.0146387 0
M  V30 1050 O 111.751 1.64474 0.982797 0
M  V30 1051 C 111.945 2.73495 -2.30077 0
M  V30 1052 C 111.774 2.42068 -3.78989 0
M  V30 1053 C 110.544 2.33966 -4.4787 0
M  V30 1054 C 112.742 2.0708 -4.70768 0
M  V30 1055 N 110.724 1.95095 -5.82075 0
M  V30 1056 C 112.095 1.78719 -5.93683 0
M  V30 1057 C 114.15 1.93618 -4.58712 0
M  V30 1058 C 112.853 1.3825 -7.05889 0
M  V30 1059 C 114.879 1.54553 -5.70848 0
M  V30 1060 C 114.241 1.27082 -6.92842 0
M  V30 1061 H 110.34 0.542919 -0.562817 0
M  V30 1062 H 112.924 0.84408 -1.75452 0
M  V30 1063 H 111.095 3.35625 -1.95474 0
M  V30 1064 H 112.827 3.39755 -2.19883 0
M  V30 1065 H 109.582 2.51331 -4.0141 0
M  V30 1066 H 110.006 1.7823 -6.53118 0
M  V30 1067 H 114.648 2.13522 -3.64922 0
M  V30 1068 H 112.366 1.17088 -7.99572 0
M  V30 1069 H 115.952 1.44731 -5.6351 0
M  V30 1070 H 114.832 0.973069 -7.78139 0
M  V30 1071 N 112.336 1.25143 0.95797 0
M  V30 1072 C 113.266 1.07711 2.07173 0
M  V30 1073 C 114.247 -0.0128462 1.70095 0
M  V30 1074 O 115.432 0.156061 1.93572 0
M  V30 1075 C 112.562 0.691503 3.40346 0
M  V30 1076 C 111.516 1.73132 3.9142 0
M  V30 1077 C 110.842 1.20049 5.21049 0
M  V30 1078 C 112.142 3.1294 4.1817 0
M  V30 1079 H 113.836 2.00873 2.22014 0
M  V30 1080 H 111.382 0.967191 1.06684 0
M  V30 1081 H 113.335 0.556505 4.17709 0
M  V30 1082 H 112.059 -0.275819 3.25433 0
M  V30 1083 H 110.718 1.8547 3.16222 0
M  V30 1084 H 110.366 0.223499 5.02503 0
M  V30 1085 H 110.066 1.89545 5.56189 0
M  V30 1086 H 111.59 1.07782 6.01012 0
M  V30 1087 H 113.004 3.03775 4.86203 0
M  V30 1088 H 111.401 3.79875 4.64559 0
M  V30 1089 H 112.471 3.6025 3.24573 0
M  V30 1090 N 113.814 -1.1601 1.06675 0
M  V30 1091 C 115.054 -1.88304 0.795037 0
M  V30 1092 C 115.418 -1.80062 -0.666466 0
M  V30 1093 O 116.619 -2.47319 -1.05293 0
M  V30 1094 C 114.89 -3.33664 1.28076 0
M  V30 1095 S 116.449 -4.23768 1.13868 0
M  V30 1096 H 113.267 -0.649928 0.288296 0
M  V30 1097 H 115.869 -1.4001 1.36445 0
M  V30 1098 H 114.573 -3.37203 2.33927 0
M  V30 1099 H 114.104 -3.87009 0.706253 0
M  V30 1100 H 116.119 -4.96148 0.0719668 0
M  V30 1101 N 115.292 -0.849877 -1.32721 0
M  V30 1102 C 116.202 -0.293791 -2.32753 0
M  V30 1103 C 117.218 0.585906 -1.63839 0
M  V30 1104 O 118.394 0.487413 -1.95413 0
M  V30 1105 C 115.459 0.512752 -3.42887 0
M  V30 1106 C 114.52 -0.39252 -4.27502 0
M  V30 1107 C 113.753 0.375625 -5.32377 0
M  V30 1108 O 113.976 1.60613 -5.4732 0
M  V30 1109 O 112.91 -0.256094 -6.01355 0
M  V30 1110 H 116.736 -1.12242 -2.82197 0
M  V30 1111 H 114.321 -0.612685 -1.36259 0
M  V30 1112 H 116.203 0.970704 -4.10067 0
M  V30 1113 H 114.878 1.31826 -2.95641 0
M  V30 1114 H 113.785 -0.898547 -3.63149 0
M  V30 1115 H 115.118 -1.16309 -4.7826 0
M  V30 1116 N 116.77 1.45427 -0.607355 0
M  V30 1117 C 117.702 2.2871 0.149752 0
M  V30 1118 C 118.715 1.39937 0.831958 0
M  V30 1119 O 119.904 1.64313 0.697385 0
M  V30 1120 C 117.004 3.15673 1.23304 0
M  V30 1121 C 116.177 4.32722 0.637996 0
M  V30 1122 C 115.236 5.00895 1.61215 0
M  V30 1123 O 114.262 5.57697 1.13854 0
M  V30 1124 N 115.464 5.00159 2.94655 0
M  V30 1125 H 118.229 2.94328 -0.564882 0
M  V30 1126 H 115.79 1.55612 -0.446823 0
M  V30 1127 H 117.782 3.58144 1.88454 0
M  V30 1128 H 116.352 2.51965 1.8502 0
M  V30 1129 H 115.572 3.93734 -0.191572 0
M  V30 1130 H 116.86 5.08321 0.220665 0
M  V30 1131 H 116.258 4.553 3.35735 0
M  V30 1132 H 114.815 5.46495 3.55228 0
M  V30 1133 N 118.248 0.346503 1.53744 0
M  V30 1134 C 119.525 -0.304532 1.93215 0
M  V30 1135 C 119.905 -1.67993 1.27834 0
M  V30 1136 O 119.253 -2.24411 0.430352 0
M  V30 1137 C 119.463 -0.373852 3.46992 0
M  V30 1138 C 120.811 -0.62329 4.2 0
M  V30 1139 O 121.835 -0.455847 3.53271 0
M  V30 1140 O 120.694 -0.947879 5.38217 0
M  V30 1141 H 117.788 -0.178318 0.807547 0
M  V30 1142 H 120.334 0.397895 1.64969 0
M  V30 1143 H 119.106 0.591224 3.86808 0
M  V30 1144 H 118.729 -1.12294 3.81413 0
M  V30 1145 N 119.726 -1.57421 0.075193 0
M  V30 1146 C 120.972 -1.93905 -0.594025 0
M  V30 1147 C 121.305 -0.955701 -1.69056 0
M  V30 1148 O 120.58 0.0145373 -1.94495 0
M  V30 1149 C 120.863 -3.40638 -1.1678 0
M  V30 1150 C 120.716 -4.49733 -0.0776792 0
M  V30 1151 C 122.035 -3.88259 -2.07228 0
M  V30 1152 H 119.154 -0.705105 -0.214466 0
M  V30 1153 H 121.796 -1.8947 0.141854 0
M  V30 1154 H 119.946 -3.44549 -1.79494 0
M  V30 1155 H 121.618 -4.57942 0.555573 0
M  V30 1156 H 119.861 -4.29751 0.591286 0
M  V30 1157 H 120.532 -5.49549 -0.519603 0
M  V30 1158 H 123.008 -3.86376 -1.54445 0
M  V30 1159 H 121.884 -4.91533 -2.44308 0
M  V30 1160 H 122.145 -3.26396 -2.98191 0
M  V30 1161 N 121.204 0.198386 -1.56346 0
M  V30 1162 C 122.45 0.920648 -1.80698 0
M  V30 1163 C 122.783 1.83045 -0.648697 0
M  V30 1164 O 122.058 1.91308 0.350925 0
M  V30 1165 C 122.341 1.73971 -3.15287 0
M  V30 1166 C 122.194 0.85485 -4.41602 0
M  V30 1167 C 123.513 2.71296 -3.46535 0
M  V30 1168 H 120.632 0.333261 -0.657348 0
M  V30 1169 H 123.274 0.188198 -1.89066 0
M  V30 1170 H 121.424 2.36416 -3.08285 0
M  V30 1171 H 123.096 0.245362 -4.60647 0
M  V30 1172 H 121.339 0.161398 -4.335 0
M  V30 1173 H 122.01 1.46286 -5.32264 0
M  V30 1174 H 124.486 2.18983 -3.53816 0
M  V30 1175 H 123.362 3.2569 -4.41834 0
M  V30 1176 H 123.623 3.5018 -2.69864 0
M  V30 1177 N 122.682 1.50554 0.465978 0
M  V30 1178 C 123.959 1.5232 1.22712 0
M  V30 1179 C 124.339 0.270807 2.09356 0
M  V30 1180 O 123.687 -0.745541 2.15995 0
M  V30 1181 C 123.897 2.82175 2.05374 0
M  V30 1182 C 125.245 3.33033 2.6339 0
M  V30 1183 O 126.269 2.83531 2.15612 0
M  V30 1184 O 125.128 4.19336 3.50456 0
M  V30 1185 H 122.222 0.611183 0.557122 0
M  V30 1186 H 124.768 1.62847 0.477381 0
M  V30 1187 H 123.54 3.64797 1.41558 0
M  V30 1188 H 123.163 2.74675 2.87471 0
M  V30 1189 N 124.16 -0.719506 1.40217 0
M  V30 1190 C 125.39 -1.50646 1.41384 0
M  V30 1191 C 125.798 -1.89197 0.0107743 0
M  V30 1192 O 125.141 -1.55709 -0.974708 0
M  V30 1193 C 125.203 -2.81405 2.23722 0
M  V30 1194 C 124.867 -2.65199 3.72181 0
M  V30 1195 C 125.864 -2.32717 4.64907 0
M  V30 1196 C 123.549 -2.81586 4.1595 0
M  V30 1197 C 125.543 -2.16827 5.99387 0
M  V30 1198 C 123.23 -2.65313 5.50502 0
M  V30 1199 C 124.228 -2.32981 6.42035 0
M  V30 1200 O 123.916 -2.16827 7.74107 0
M  V30 1201 H 123.648 -0.471606 0.484318 0
M  V30 1202 H 126.202 -0.895456 1.84853 0
M  V30 1203 H 124.432 -3.44823 1.75026 0
M  V30 1204 H 126.121 -3.43102 2.16878 0
M  V30 1205 H 126.887 -2.19694 4.32388 0
M  V30 1206 H 122.766 -3.0574 3.45027 0
M  V30 1207 H 126.31 -1.91513 6.70797 0
M  V30 1208 H 122.207 -2.7792 5.82607 0
M  V30 1209 H 122.975 -2.31778 7.84998 0
M  V30 1210 N 125.638 -1.25649 -0.95132 0
M  V30 1211 C 126.885 -1.10594 -1.69633 0
M  V30 1212 C 127.213 0.352515 -1.91279 0
M  V30 1213 O 126.468 1.27601 -1.4838 0
M  V30 1214 C 126.767 -1.80909 -3.08231 0
M  V30 1215 C 126.433 -3.30825 -3.06375 0
M  V30 1216 C 125.095 -3.71722 -3.05576 0
M  V30 1217 C 127.447 -4.26589 -2.99452 0
M  V30 1218 C 124.775 -5.06788 -2.95606 0
M  V30 1219 C 127.127 -5.61683 -2.91024 0
M  V30 1220 C 125.791 -6.01904 -2.88562 0
M  V30 1221 H 125.061 -0.404691 -0.620731 0
M  V30 1222 H 127.708 -1.55964 -1.11119 0
M  V30 1223 H 126.013 -1.27979 -3.70309 0
M  V30 1224 H 127.71 -1.6671 -3.64704 0
M  V30 1225 H 124.3 -2.98287 -3.07771 0
M  V30 1226 H 128.484 -3.95982 -2.99185 0
M  V30 1227 H 123.74 -5.37126 -2.92071 0
M  V30 1228 H 127.914 -6.35578 -2.84629 0
M  V30 1229 H 125.541 -7.06521 -2.80593 0
M  V30 1230 N 127.117 1.15442 -1.07289 0
M  V30 1231 C 128.363 1.86489 -0.796846 0
M  V30 1232 C 128.696 1.82078 0.675371 0
M  V30 1233 O 127.971 1.24346 1.4956 0
M  V30 1234 C 128.254 3.35626 -1.30489 0
M  V30 1235 C 128.107 3.48673 -2.84161 0
M  V30 1236 C 129.426 4.30357 -0.920907 0
M  V30 1237 H 126.545 0.677144 -0.290939 0
M  V30 1238 H 129.187 1.35633 -1.33056 0
M  V30 1239 H 127.337 3.79068 -0.850883 0
M  V30 1240 H 129.009 3.14099 -3.37846 0
M  V30 1241 H 127.252 2.90253 -3.22391 0
M  V30 1242 H 127.923 4.53453 -3.14777 0
M  V30 1243 H 130.399 3.94871 -1.3121 0
M  V30 1244 H 129.275 5.33193 -1.30372 0
M  V30 1245 H 129.536 4.4176 0.173226 0
M  V30 1246 N 128.595 0.856903 1.32268 0
M  V30 1247 C 129.545 0.274899 2.26337 0
M  V30 1248 C 130.529 -0.580543 1.50062 0
M  V30 1249 O 131.721 -0.429559 1.71708 0
M  V30 1250 C 128.85 -0.533841 3.39124 0
M  V30 1251 C 127.936 0.334114 4.22782 0
M  V30 1252 N 128.327 1.42143 4.85416 0
M  V30 1253 C 126.625 0.124256 4.45827 0
M  V30 1254 C 127.326 1.95559 5.47843 0
M  V30 1255 N 126.302 1.25444 5.28928 0
M  V30 1256 H 130.104 1.10612 2.72291 0
M  V30 1257 H 127.618 0.703258 1.46383 0
M  V30 1258 H 129.615 -0.96722 4.05525 0
M  V30 1259 H 128.275 -1.36283 2.94715 0
M  V30 1260 H 129.286 1.80436 4.85451 0
M  V30 1261 H 125.963 -0.669837 4.12092 0
M  V30 1262 H 127.353 2.86714 6.07655 0
M  V30 1263 N 130.073 -1.45103 0.615059 0
M  V30 1264 C 131.023 -2.27679 -0.120966 0
M  V30 1265 C 132.007 -1.3775 -0.831491 0
M  V30 1266 O 133.199 -1.61683 -0.720249 0
M  V30 1267 C 130.328 -3.24767 -1.1127 0
M  V30 1268 C 129.414 -4.22184 -0.402627 0
M  V30 1269 N 129.805 -5.02692 0.559884 0
M  V30 1270 C 128.103 -4.4125 -0.649202 0
M  V30 1271 C 128.804 -5.73421 0.977942 0
M  V30 1272 N 127.78 -5.42657 0.320104 0
M  V30 1273 H 131.582 -2.87325 0.618181 0
M  V30 1274 H 129.096 -1.56345 0.439304 0
M  V30 1275 H 131.093 -3.82666 -1.65446 0
M  V30 1276 H 129.753 -2.66682 -1.85232 0
M  V30 1277 H 130.764 -5.09354 0.936976 0
M  V30 1278 H 127.441 -3.9428 -1.37293 0
M  V30 1279 H 128.831 -6.48107 1.77222 0
M  V30 1280 N 131.551 -0.354651 -1.53558 0
M  V30 1281 C 132.791 0.238651 -2.03002 0
M  V30 1282 C 133.155 1.46878 -1.23656 0
M  V30 1283 O 134.356 2.13699 -1.63053 0
M  V30 1284 C 132.627 0.534175 -3.53386 0
M  V30 1285 S 134.186 1.10271 -4.24719 0
M  V30 1286 H 131.004 0.0702908 -0.707517 0
M  V30 1287 H 133.606 -0.494987 -1.8913 0
M  V30 1288 H 132.31 -0.368765 -4.0874 0
M  V30 1289 H 131.841 1.29718 -3.71398 0
M  V30 1290 H 133.856 2.38772 -4.34974 0
M  V30 1291 N 133.029 1.57378 -0.0835403 0
M  V30 1292 C 134.44 1.81261 0.447358 0
M  V30 1293 C 134.791 0.998331 1.68902 0
M  V30 1294 O 133.916 0.224282 2.15235 0
M  V30 1295 C 134.511 3.28767 0.818386 0
M  V30 1296 C 133.07 3.53455 1.29409 0
M  V30 1297 C 132.217 2.75831 0.285024 0
M  V30 1298 H 135.168 1.5566 -0.309115 0
M  V30 1299 H 135.189 3.41459 1.67887 0
M  V30 1300 H 134.701 3.88006 -0.0855019 0
M  V30 1301 H 132.802 2.99534 2.21608 0
M  V30 1302 H 132.915 4.62128 1.2639 0
M  V30 1303 H 131.279 2.42947 0.764767 0
M  V30 1304 H 132.062 3.37813 -0.611341 0
M  V30 1305 N 134.507 -0.190092 1.56449 0
M  V30 1306 C 135.735 -0.925772 1.85033 0
M  V30 1307 C 136.15 -1.76638 0.666658 0
M  V30 1308 O 135.507 -1.78822 -0.364565 0
M  V30 1309 C 135.558 -1.81786 3.12468 0
M  V30 1310 O 135.279 -1.01118 4.26271 0
M  V30 1311 C 136.78 -2.6648 3.54265 0
M  V30 1312 H 134 -0.269872 0.614337 0
M  V30 1313 H 136.544 -0.195837 2.0356 0
M  V30 1314 H 134.699 -2.50136 2.95822 0
M  V30 1315 H 135.113 -1.61956 4.98869 0
M  V30 1316 H 136.587 -3.24722 4.46385 0
M  V30 1317 H 137.064 -3.40434 2.77491 0
M  V30 1318 H 137.67 -2.03493 3.73458 0
M  V30 1319 N 135.985 -1.50799 -0.457987 0
M  V30 1320 C 136.895 -1.73426 -1.57989 0
M  V30 1321 C 137.911 -0.617745 -1.62665 0
M  V30 1322 O 139.087 -0.897614 -1.80291 0
M  V30 1323 C 136.152 -1.83557 -2.94122 0
M  V30 1324 C 135.213 -3.07345 -2.99729 0
M  V30 1325 C 134.446 -3.16983 -4.29368 0
M  V30 1326 O 134.669 -2.33077 -5.20607 0
M  V30 1327 O 133.603 -4.09812 -4.40837 0
M  V30 1328 H 137.429 -2.68555 -1.41817 0
M  V30 1329 H 135.014 -1.35052 -0.638859 0
M  V30 1330 H 136.896 -1.92326 -3.74952 0
M  V30 1331 H 135.571 -0.916137 -3.10465 0
M  V30 1332 H 134.478 -3.04068 -2.1793 0
M  V30 1333 H 135.811 -3.9891 -2.88326 0
M  V30 1334 N 137.463 0.71206 -1.40597 0
M  V30 1335 C 138.396 1.83582 -1.35546 0
M  V30 1336 C 139.374 1.61032 -0.225284 0
M  V30 1337 O 140.558 1.83998 -0.409519 0
M  V30 1338 C 137.685 3.19983 -1.11034 0
M  V30 1339 C 136.731 3.61355 -2.2655 0
M  V30 1340 S 137.564 3.68062 -3.88961 0
M  V30 1341 C 138.72 5.07216 -3.66719 0
M  V30 1342 H 138.953 1.87586 -2.30648 0
M  V30 1343 H 136.486 0.879182 -1.26924 0
M  V30 1344 H 138.444 3.98734 -0.975761 0
M  V30 1345 H 137.105 3.13608 -0.175798 0
M  V30 1346 H 136.298 4.60403 -2.0505 0
M  V30 1347 H 135.9 2.8987 -2.36329 0
M  V30 1348 H 138.192 5.94238 -3.25404 0
M  V30 1349 H 139.135 5.33753 -4.6531 0
M  V30 1350 H 139.543 4.77976 -3.00332 0
M  V30 1351 N 138.941 1.26152 0.944643 0
M  V30 1352 C 140.169 1.14259 1.72489 0
M  V30 1353 C 140.584 -0.302555 1.8636 0
M  V30 1354 O 139.941 -1.20741 1.36849 0
M  V30 1355 C 139.992 1.80266 3.13347 0
M  V30 1356 O 139.713 3.19133 3.00143 0
M  V30 1357 C 141.214 1.74283 4.07603 0
M  V30 1358 H 138.434 0.398051 0.540181 0
M  V30 1359 H 140.978 1.66706 1.18446 0
M  V30 1360 H 139.133 1.31766 3.64303 0
M  V30 1361 H 139.547 3.51744 3.89071 0
M  V30 1362 H 141.021 2.25111 5.04013 0
M  V30 1363 H 141.498 0.708631 4.33446 0
M  V30 1364 H 142.104 2.22319 3.62567 0
M  V30 1365 N 140.419 -1.14872 1.07899 0
M  V30 1366 C 141.351 -2.19425 0.662231 0
M  V30 1367 C 142.364 -1.60231 -0.288079 0
M  V30 1368 O 143.553 -1.78336 -0.076534 0
M  V30 1369 C 140.653 -3.38867 -0.0470695 0
M  V30 1370 C 139.826 -4.27597 0.920831 0
M  V30 1371 C 138.885 -5.25616 0.247805 0
M  V30 1372 O 137.911 -5.62189 0.890599 0
M  V30 1373 N 139.113 -5.71746 -1.00435 0
M  V30 1374 H 141.878 -2.55797 1.56166 0
M  V30 1375 H 139.439 -1.30042 0.964404 0
M  V30 1376 H 141.431 -4.01497 -0.50813 0
M  V30 1377 H 140.001 -3.00864 -0.848523 0
M  V30 1378 H 139.221 -3.61982 1.56087 0
M  V30 1379 H 140.509 -4.83748 1.57688 0
M  V30 1380 H 139.907 -5.44153 -1.54642 0
M  V30 1381 H 138.464 -6.36389 -1.40899 0
M  V30 1382 N 141.898 -0.863906 -1.31812 0
M  V30 1383 C 142.828 -0.330843 -2.31144 0
M  V30 1384 C 143.809 0.575005 -1.60087 0
M  V30 1385 O 144.994 0.493304 -1.8783 0
M  V30 1386 C 142.124 0.47374 -3.44054 0
M  V30 1387 C 141.078 -0.338481 -4.26659 0
M  V30 1388 C 140.404 0.591412 -5.31419 0
M  V30 1389 C 141.704 -1.56926 -4.98168 0
M  V30 1390 H 143.398 -1.16086 -2.75979 0
M  V30 1391 H 140.944 -0.559657 -1.32679 0
M  V30 1392 H 142.897 0.857143 -4.12591 0
M  V30 1393 H 141.621 1.33721 -2.9797 0
M  V30 1394 H 140.28 -0.703754 -3.59782 0
M  V30 1395 H 139.928 1.45199 -4.81587 0
M  V30 1396 H 139.628 0.0519022 -5.87577 0
M  V30 1397 H 141.152 0.97179 -6.02817 0
M  V30 1398 H 142.566 -1.25764 -5.59336 0
M  V30 1399 H 140.963 -2.04739 -5.64094 0
M  V30 1400 H 142.033 -2.32544 -4.25501 0
M  V30 1401 N 143.376 1.44774 -0.622745 0
M  V30 1402 C 144.286 2.34433 0.0886031 0
M  V30 1403 C 145.302 1.52131 0.844529 0
M  V30 1404 O 146.478 1.84886 0.798691 0
M  V30 1405 C 143.543 3.29986 1.0635 0
M  V30 1406 C 142.604 4.28195 0.307873 0
M  V30 1407 C 141.837 5.19183 1.23633 0
M  V30 1408 O 142.06 5.13918 2.47476 0
M  V30 1409 O 140.994 5.97515 0.725189 0
M  V30 1410 H 144.82 2.96693 -0.648599 0
M  V30 1411 H 142.405 1.44408 -0.382957 0
M  V30 1412 H 144.287 3.88825 1.6246 0
M  V30 1413 H 142.962 2.70269 1.78146 0
M  V30 1414 H 141.869 3.72927 -0.296064 0
M  V30 1415 H 143.202 4.90808 -0.3699 0
M  V30 1416 N 144.854 0.36279 1.53368 0
M  V30 1417 C 145.784 -0.476976 2.28576 0
M  V30 1418 C 146.765 -1.08631 1.30894 0
M  V30 1419 O 147.95 -1.10409 1.59761 0
M  V30 1420 C 145.08 -1.61828 3.07293 0
M  V30 1421 C 144.034 -1.13633 4.1264 0
M  V30 1422 C 143.36 -2.36766 4.79423 0
M  V30 1423 C 144.66 -0.223061 5.21823 0
M  V30 1424 H 146.354 0.150474 2.99022 0
M  V30 1425 H 143.9 0.0738103 1.43811 0
M  V30 1426 H 145.853 -2.21237 3.58653 0
M  V30 1427 H 144.577 -2.27292 2.34533 0
M  V30 1428 H 143.236 -0.564945 3.62221 0
M  V30 1429 H 142.884 -3.0068 4.03238 0
M  V30 1430 H 142.584 -2.05192 5.50609 0
M  V30 1431 H 144.108 -2.96865 5.33576 0
M  V30 1432 H 145.522 -0.724545 5.68703 0
M  V30 1433 H 143.919 0.001678 6.001 0
M  V30 1434 H 144.989 0.735553 4.79289 0
M  V30 1435 N 146.332 -1.57332 0.0918853 0
M  V30 1436 C 147.578 -1.95328 -0.567313 0
M  V30 1437 C 147.933 -0.972866 -1.65991 0
M  V30 1438 O 147.226 0.00166256 -1.916 0
M  V30 1439 C 147.42 -3.37689 -1.17051 0
M  V30 1440 C 147.249 -4.49489 -0.137875 0
M  V30 1441 C 146.019 -5.04498 0.284515 0
M  V30 1442 C 148.217 -5.10393 0.63271 0
M  V30 1443 N 146.199 -5.99853 1.30576 0
M  V30 1444 C 147.57 -6.01435 1.50587 0
M  V30 1445 C 149.625 -4.93143 0.68658 0
M  V30 1446 C 148.328 -6.77077 2.42815 0
M  V30 1447 C 150.354 -5.69445 1.59645 0
M  V30 1448 C 149.716 -6.60151 2.45725 0
M  V30 1449 H 145.815 -0.761467 -0.178023 0
M  V30 1450 H 148.399 -1.93924 0.173706 0
M  V30 1451 H 146.57 -3.39793 -1.88136 0
M  V30 1452 H 148.302 -3.62872 -1.79181 0
M  V30 1453 H 145.057 -4.73489 -0.102593 0
M  V30 1454 H 145.481 -6.52231 1.81449 0
M  V30 1455 H 150.123 -4.22785 0.035244 0
M  V30 1456 H 147.841 -7.46699 3.08975 0
M  V30 1457 H 151.427 -5.58112 1.64323 0
M  V30 1458 H 150.307 -7.18159 3.14987 0
M  V30 1459 N 147.81 0.181792 -1.56548 0
M  V30 1460 C 149.058 0.89832 -1.81038 0
M  V30 1461 C 149.379 1.83232 -0.667164 0
M  V30 1462 O 148.649 1.93372 0.313673 0
M  V30 1463 H 147.229 0.33471 -0.667816 0
M  V30 1464 H 149.891 0.184116 -1.94028 0
M  V30 1465 H 148.987 1.4815 -2.74696 0
M  V30 1466 N 149.288 1.51039 0.449983 0
M  V30 1467 C 150.528 1.64732 1.21007 0
M  V30 1468 C 150.892 0.349865 1.88785 0
M  V30 1469 O 152.093 0.362431 2.66345 0
M  V30 1470 C 150.364 2.80902 2.20973 0
M  V30 1471 S 151.923 3.14851 3.05638 0
M  V30 1472 H 148.741 0.5805 0.410538 0
M  V30 1473 H 151.343 1.88901 0.503634 0
M  V30 1474 H 150.047 3.73627 1.69796 0
M  V30 1475 H 149.578 2.58882 2.96215 0
M  V30 1476 H 151.593 2.60306 4.22439 0
M  V30 1477 N 150.766 -0.704594 1.40972 0
M  V30 1478 C 152.177 -1.28418 1.3552 0
M  V30 1479 C 152.528 -1.96171 0.0339434 0
M  V30 1480 O 151.653 -1.98231 -0.867944 0
M  V30 1481 C 152.248 -2.33528 2.45459 0
M  V30 1482 C 150.807 -2.87085 2.43433 0
M  V30 1483 C 149.954 -1.61007 2.2577 0
M  V30 1484 H 152.905 -0.499963 1.50619 0
M  V30 1485 H 152.926 -3.14619 2.13998 0
M  V30 1486 H 152.438 -1.84187 3.41609 0
M  V30 1487 H 150.539 -3.40626 1.51013 0
M  V30 1488 H 150.652 -3.3813 3.39419 0
M  V30 1489 H 149.016 -1.86482 1.73483 0
M  V30 1490 H 149.799 -1.13675 3.23933 0
M  V30 1491 N 152.244 -1.26651 -0.937939 0
M  V30 1492 C 153.49 -1.13562 -1.68746 0
M  V30 1493 C 153.845 0.317241 -1.89767 0
M  V30 1494 O 153.138 1.22939 -1.46957 0
M  V30 1495 C 153.332 -1.84168 -3.06295 0
M  V30 1496 C 153.161 -3.36171 -2.98696 0
M  V30 1497 C 151.931 -4.05468 -3.01535 0
M  V30 1498 C 154.129 -4.32312 -2.78588 0
M  V30 1499 N 152.111 -5.44118 -2.84269 0
M  V30 1500 C 153.482 -5.58159 -2.69924 0
M  V30 1501 C 155.537 -4.22524 -2.63396 0
M  V30 1502 C 154.24 -6.75335 -2.47618 0
M  V30 1503 C 156.266 -5.39411 -2.42466 0
M  V30 1504 C 155.628 -6.64208 -2.34536 0
M  V30 1505 H 151.727 -0.470361 -0.624728 0
M  V30 1506 H 154.311 -1.59982 -1.10968 0
M  V30 1507 H 152.482 -1.40219 -3.62206 0
M  V30 1508 H 154.214 -1.63674 -3.70126 0
M  V30 1509 H 150.969 -3.56854 -3.11372 0
M  V30 1510 H 151.393 -6.1693 -2.78795 0
M  V30 1511 H 156.035 -3.26771 -2.68292 0
M  V30 1512 H 153.753 -7.71182 -2.41463 0
M  V30 1513 H 157.339 -5.33711 -2.31611 0
M  V30 1514 H 156.219 -7.53129 -2.18555 0
M  V30 1515 N 153.722 1.14298 -1.08507 0
M  V30 1516 C 154.947 1.8976 -0.837001 0
M  V30 1517 C 155.372 1.78097 0.605228 0
M  V30 1518 O 154.73 1.12188 1.4242 0
M  V30 1519 C 154.778 3.37685 -1.26495 0
M  V30 1520 O 153.882 4.10281 -0.417514 0
M  V30 1521 H 153.223 0.590365 -0.303917 0
M  V30 1522 H 155.753 1.44672 -1.44676 0
M  V30 1523 H 155.763 3.88501 -1.24625 0
M  V30 1524 H 154.438 3.45492 -2.31534 0
M  V30 1525 H 153.015 3.69536 -0.499722 0
M  V30 1526 N 155.201 0.870884 1.31352 0
M  V30 1527 C 156.617 0.562932 1.49343 0
M  V30 1528 C 156.817 -0.902725 1.80148 0
M  V30 1529 O 155.873 -1.68484 1.88067 0
M  V30 1530 C 157.186 1.46393 2.62659 0
M  V30 1531 C 158.734 1.46607 2.76542 0
M  V30 1532 C 159.209 2.35266 3.92955 0
M  V30 1533 N 160.7 2.33151 4.00243 0
M  V30 1534 C 161.435 2.98471 4.89594 0
M  V30 1535 N 160.931 3.72964 5.8384 0
M  V30 1536 N 162.724 2.87775 4.82848 0
M  V30 1537 H 154.875 1.81923 1.09626 0
M  V30 1538 H 157.138 0.777934 0.541777 0
M  V30 1539 H 156.844 2.50689 2.46674 0
M  V30 1540 H 156.718 1.16314 3.58819 0
M  V30 1541 H 159.105 0.43069 2.9194 0
M  V30 1542 H 159.186 1.8071 1.81046 0
M  V30 1543 H 158.83 3.38881 3.78315 0
M  V30 1544 H 158.76 1.98487 4.87761 0
M  V30 1545 H 161.251 1.79006 3.32814 0
M  V30 1546 H 161.564 4.19932 6.4875 0
M  V30 1547 H 159.909 3.77073 5.83816 0
M  V30 1548 H 163.1 2.29116 4.08195 0
M  V30 1549 H 163.273 3.38961 5.52277 0
M  V30 1550 N 156.679 -1.44442 0.630414 0
M  V30 1551 C 158.095 -1.56832 0.295973 0
M  V30 1552 C 158.295 -1.61806 -1.20088 0
M  V30 1553 O 157.351 -1.5607 -1.9849 0
M  V30 1554 C 158.664 -2.84031 0.987264 0
M  V30 1555 C 160.212 -2.97742 0.96534 0
M  V30 1556 C 160.687 -4.27743 1.63708 0
M  V30 1557 N 162.178 -4.34555 1.60364 0
M  V30 1558 C 162.913 -5.33862 2.09234 0
M  V30 1559 N 162.409 -6.39578 2.66292 0
M  V30 1560 N 164.202 -5.25366 1.99867 0
M  V30 1561 H 156.353 -1.39457 1.60205 0
M  V30 1562 H 158.616 -0.668237 0.672431 0
M  V30 1563 H 158.322 -2.86338 2.04215 0
M  V30 1564 H 158.196 -3.73534 0.524588 0
M  V30 1565 H 160.583 -2.94989 -0.0810639 0
M  V30 1566 H 160.664 -2.09589 1.4665 0
M  V30 1567 H 160.308 -4.31255 2.68293 0
M  V30 1568 H 160.238 -5.14752 1.11076 0
M  V30 1569 H 162.729 -3.58772 1.18705 0
M  V30 1570 H 163.042 -7.11637 3.01317 0
M  V30 1571 H 161.387 -6.40265 2.70343 0
M  V30 1572 H 164.578 -4.41688 1.55013 0
M  V30 1573 H 164.751 -6.02606 2.38265 0
M  V30 1574 N 158.157 -0.370918 -1.53173 0
M  V30 1575 C 159.568 0.107139 -1.86392 0
M  V30 1576 C 159.919 1.47714 -1.29132 0
M  V30 1577 O 159.044 2.07464 -0.615439 0
M  V30 1578 C 159.639 0.201187 -3.38202 0
M  V30 1579 C 158.198 0.623507 -3.712 0
M  V30 1580 C 157.345 -0.225978 -2.76378 0
M  V30 1581 H 160.296 -0.58951 -1.47345 0
M  V30 1582 H 160.317 1.02377 -3.66468 0
M  V30 1583 H 159.829 -0.796058 -3.79848 0
M  V30 1584 H 157.93 1.62879 -3.35114 0
M  V30 1585 H 158.043 0.394414 -4.77474 0
M  V30 1586 H 156.407 0.305962 -2.52856 0
M  V30 1587 H 157.19 -1.22086 -3.20858 0
M  V30 1588 N 159.635 1.57281 -0.100228 0
M  V30 1589 C 160.912 1.86014 0.604812 0
M  V30 1590 C 161.292 0.998025 1.86018 0
M  V30 1591 O 160.64 0.0718184 2.28387 0
M  V30 1592 C 160.85 3.36784 0.915278 0
M  V30 1593 C 162.198 4.04957 1.27651 0
M  V30 1594 O 163.222 3.41695 1.00613 0
M  V30 1595 O 162.081 5.16593 1.7831 0
M  V30 1596 H 159.175 0.76942 0.303185 0
M  V30 1597 H 161.721 1.69176 -0.133313 0
M  V30 1598 H 160.493 3.91292 0.0248896 0
M  V30 1599 H 160.116 3.58987 1.70921 0
M  V30 1600 N 161.113 -0.173488 1.56642 0
M  V30 1601 C 162.361 -0.888706 1.81512 0
M  V30 1602 C 162.682 -1.82875 0.676872 0
M  V30 1603 O 161.952 -1.93536 -0.303414 0
M  V30 1604 H 160.532 -0.331164 0.669582 0
M  V30 1605 H 163.194 -0.173823 1.94123 0
M  V30 1606 H 162.29 -1.46691 2.75478 0
M  V30 1607 N 162.591 -1.51276 -0.441967 0
M  V30 1608 C 163.816 -1.67799 -1.21895 0
M  V30 1609 C 164.241 -0.372864 -1.84367 0
M  V30 1610 O 163.599 0.666501 -1.68604 0
M  V30 1611 C 163.647 -2.79199 -2.28211 0
M  V30 1612 O 162.751 -2.42479 -3.33583 0
M  V30 1613 H 162.092 -0.559649 -0.357336 0
M  V30 1614 H 164.622 -1.97815 -0.522522 0
M  V30 1615 H 164.632 -3.03146 -2.73069 0
M  V30 1616 H 163.307 -3.73906 -1.82118 0
M  V30 1617 H 161.884 -2.29087 -2.94234 0
M  V30 1618 N 164.069 0.697108 -1.41344 0
M  V30 1619 C 165.315 1.4593 -1.40827 0
M  V30 1620 C 165.648 1.94193 -0.0167098 0
M  V30 1621 O 164.923 1.69425 0.955263 0
M  V30 1622 C 165.206 2.67229 -2.41373 0
M  V30 1623 C 165.059 2.24741 -3.8963 0
M  V30 1624 C 166.378 3.69423 -2.39196 0
M  V30 1625 H 163.497 0.529303 -0.512842 0
M  V30 1626 H 166.139 0.794112 -1.72609 0
M  V30 1627 H 164.289 3.23982 -2.14401 0
M  V30 1628 H 165.961 1.73327 -4.27499 0
M  V30 1629 H 164.204 1.56542 -4.0457 0
M  V30 1630 H 164.875 3.1177 -4.55525 0
M  V30 1631 H 167.351 3.2234 -2.63128 0
M  V30 1632 H 166.227 4.51907 -3.11563 0
M  V30 1633 H 166.488 4.19012 -1.41001 0
M  V30 1634 N 165.547 1.27147 0.931209 0
M  V30 1635 C 166.495 1.09398 2.05268 0
M  V30 1636 C 167.489 0.0180591 1.6939 0
M  V30 1637 O 168.695 0.17551 1.79142 0
M  V30 1638 H 165.07 0.336986 0.672268 0
M  V30 1639 H 167.041 2.04416 2.17386 0
M  V30 1640 C 165.79 0.75424 3.39421 0
M  V30 1641 H 165.113 1.57404 3.67511 0
M  V30 1642 H 166.553 0.669903 4.18674 0
M  V30 1643 C 165.012 -0.541197 3.32525 0
M  V30 1644 O 165.542 -1.57664 3.69466 0
M  V30 1645 N 163.748 -0.535517 2.85623 0
M  V30 1646 H 163.295 0.307511 2.55758 0
M  V30 1647 H 163.253 -1.40236 2.81392 0
M  V30 1648 N 167.025 -1.13721 1.09112 0
M  V30 1649 C 168.271 -1.85198 0.826414 0
M  V30 1650 C 168.604 -1.83129 -0.646319 0
M  V30 1651 O 167.879 -1.2671 -1.47563 0
M  V30 1652 C 168.162 -3.33507 1.35812 0
M  V30 1653 C 168.015 -3.44108 2.89672 0
M  V30 1654 C 169.334 -4.28838 0.989256 0
M  V30 1655 H 166.453 -0.67243 0.301675 0
M  V30 1656 H 169.095 -1.33499 1.35197 0
M  V30 1657 H 167.245 -3.77666 0.911082 0
M  V30 1658 H 168.917 -3.08684 3.428 0
M  V30 1659 H 167.16 -2.85087 3.26967 0
M  V30 1660 H 167.831 -4.48388 3.21951 0
M  V30 1661 H 170.307 -3.92734 1.37475 0
M  V30 1662 H 169.183 -5.31051 1.38838 0
M  V30 1663 H 169.444 -4.4198 -0.102924 0
M  V30 1664 N 168.503 -0.877838 -1.30888 0
M  V30 1665 C 169.919 -0.570844 -1.49042 0
M  V30 1666 C 170.119 0.893159 -1.80624 0
M  V30 1667 O 169.175 1.67485 -1.88958 0
M  V30 1668 C 170.488 -1.47784 -2.61878 0
M  V30 1669 C 172.036 -1.48071 -2.75761 0
M  V30 1670 C 172.511 -2.37347 -3.91702 0
M  V30 1671 N 174.002 -2.35271 -3.99001 0
M  V30 1672 C 174.737 -3.01063 -4.88004 0
M  V30 1673 N 174.233 -3.76055 -5.81854 0
M  V30 1674 N 176.026 -2.90332 -4.81315 0
M  V30 1675 H 168.177 -1.82502 -1.0866 0
M  V30 1676 H 170.44 -0.780797 -0.537644 0
M  V30 1677 H 170.146 -2.51993 -2.45341 0
M  V30 1678 H 170.02 -1.18215 -3.58197 0
M  V30 1679 H 172.407 -0.446166 -2.91708 0
M  V30 1680 H 172.488 -1.81668 -1.80085 0
M  V30 1681 H 172.132 -3.40883 -3.76512 0
M  V30 1682 H 172.062 -2.01071 -4.86701 0
M  V30 1683 H 174.553 -1.80768 -3.3186 0
M  V30 1684 H 174.866 -4.23366 -6.46514 0
M  V30 1685 H 173.211 -3.80163 -5.81808 0
M  V30 1686 H 176.402 -2.31278 -4.06974 0
M  V30 1687 H 176.575 -3.41885 -5.50471 0
M  V30 1688 N 169.982 1.44106 -0.638065 0
M  V30 1689 C 171.398 1.56672 -0.304286 0
M  V30 1690 C 171.598 1.6244 1.19228 0
M  V30 1691 O 170.654 1.57121 1.9766 0
M  V30 1692 C 171.967 2.83503 -1.00231 0
M  V30 1693 C 173.515 2.97226 -0.981116 0
M  V30 1694 C 173.99 4.26868 -1.65974 0
M  V30 1695 N 175.481 4.33698 -1.62666 0
M  V30 1696 C 176.216 5.32745 -2.12063 0
M  V30 1697 N 175.712 6.38157 -2.6968 0
M  V30 1698 N 177.505 5.24299 -2.02651 0
M  V30 1699 H 169.656 1.38605 -1.60942 0
M  V30 1700 H 171.919 0.664661 -0.675965 0
M  V30 1701 H 171.625 2.85251 -2.0573 0
M  V30 1702 H 171.499 3.73251 -0.54439 0
M  V30 1703 H 173.886 2.95027 0.0654188 0
M  V30 1704 H 173.967 2.08808 -1.47759 0
M  V30 1705 H 173.611 4.29826 -2.70576 0
M  V30 1706 H 173.541 5.14156 -1.13804 0
M  V30 1707 H 176.032 3.58138 -1.20606 0
M  V30 1708 H 176.345 7.10029 -3.05087 0
M  V30 1709 H 174.69 6.38823 -2.73734 0
M  V30 1710 H 177.881 4.4086 -1.57353 0
M  V30 1711 H 178.054 6.01334 -2.41457 0
M  V30 1712 N 171.46 0.379036 1.52974 0
M  V30 1713 C 172.707 -0.206421 2.01445 0
M  V30 1714 C 173.035 -1.47668 1.26587 0
M  V30 1715 O 172.29 -1.92514 0.351675 0
M  V30 1716 C 172.589 -0.53096 3.53434 0
M  V30 1717 C 172.255 0.646546 4.46241 0
M  V30 1718 C 170.917 0.969604 4.7133 0
M  V30 1719 C 173.269 1.43479 5.01062 0
M  V30 1720 C 170.597 2.08263 5.48492 0
M  V30 1721 C 172.949 2.53834 5.7944 0
M  V30 1722 C 171.613 2.86659 6.02812 0
M  V30 1723 H 170.883 -0.0755349 0.73714 0
M  V30 1724 H 173.53 0.514271 1.84465 0
M  V30 1725 H 171.835 -1.33285 3.68432 0
M  V30 1726 H 173.532 -0.996417 3.88423 0
M  V30 1727 H 170.122 0.384734 4.2687 0
M  V30 1728 H 174.306 1.19844 4.81613 0
M  V30 1729 H 169.562 2.34078 5.64816 0
M  V30 1730 H 173.736 3.15319 6.20924 0
M  V30 1731 H 171.363 3.73026 6.62387 0
M  V30 1732 N 172.938 -1.57226 0.108567 0
M  V30 1733 C 174.186 -1.94448 -0.550853 0
M  V30 1734 C 174.507 -0.992074 -1.67878 0
M  V30 1735 O 173.777 -0.0465 -1.95845 0
M  V30 1736 H 172.357 -0.717897 -0.206479 0
M  V30 1737 H 175.019 -1.94112 0.175062 0
M  V30 1738 H 174.115 -2.97218 -0.952259 0
M  V30 1739 N 174.416 0.165178 -1.56732 0
M  V30 1740 C 175.664 0.879068 -1.8198 0
M  V30 1741 C 175.985 1.82514 -0.686561 0
M  V30 1742 O 175.255 1.93694 0.293146 0
M  V30 1743 H 173.835 0.327608 -0.671329 0
M  V30 1744 H 176.497 0.163526 -1.94213 0
M  V30 1745 H 175.593 1.45228 -2.76252 0
M  V30 1746 N 175.894 1.51508 0.433938 0
M  V30 1747 C 176.827 1.67756 1.54704 0
M  V30 1748 C 177.805 0.525127 1.53887 0
M  V30 1749 O 178.989 0.749393 1.72963 0
M  V30 1750 C 176.116 1.69424 2.9328 0
M  V30 1751 C 175.162 2.90673 3.12108 0
M  V30 1752 S 175.995 4.51431 2.88046 0
M  V30 1753 C 177.151 4.55849 4.28897 0
M  V30 1754 H 177.384 2.61904 1.40689 0
M  V30 1755 H 174.917 1.41235 0.62386 0
M  V30 1756 H 176.875 1.7107 3.73156 0
M  V30 1757 H 175.536 0.764464 3.04655 0
M  V30 1758 H 174.729 2.88251 4.13434 0
M  V30 1759 H 174.331 2.86786 2.40062 0
M  V30 1760 H 176.623 4.31699 5.22152 0
M  V30 1761 H 177.566 5.57676 4.36351 0
M  V30 1762 H 177.974 3.85137 4.12711 0
M  V30 1763 N 177.372 -0.689602 1.41712 0
M  V30 1764 C 178.319 -1.80345 1.44029 0
M  V30 1765 C 179.289 -1.63478 0.293948 0
M  V30 1766 O 180.474 -1.84244 0.495869 0
M  V30 1767 C 177.614 -3.18272 1.33405 0
M  V30 1768 C 176.727 -3.46529 2.57956 0
M  V30 1769 C 175.862 -4.74103 2.39582 0
M  V30 1770 C 174.901 -4.95347 3.5958 0
M  V30 1771 N 174.038 -6.14151 3.40239 0
M  V30 1772 H 178.878 -1.77698 2.39222 0
M  V30 1773 H 176.415 -0.867688 1.18784 0
M  V30 1774 H 178.373 -3.97956 1.25246 0
M  V30 1775 H 177.003 -3.2008 0.418164 0
M  V30 1776 H 176.055 -2.61207 2.76542 0
M  V30 1777 H 177.367 -3.58126 3.47199 0
M  V30 1778 H 176.521 -5.61853 2.28924 0
M  V30 1779 H 175.26 -4.64763 1.47805 0
M  V30 1780 H 174.265 -4.06044 3.70686 0
M  V30 1781 H 175.49 -5.06542 4.52318 0
M  V30 1782 H 173.436 -6.06013 2.51167 0
M  V30 1783 H 173.353 -6.26543 4.23061 0
M  V30 1784 H 174.621 -7.04619 3.33365 0
M  V30 1785 N 178.85 -1.27639 -0.924453 0
M  V30 1786 C 180.099 -1.13549 -1.66702 0
M  V30 1787 C 180.412 0.317487 -1.93006 0
M  V30 1788 O 181.618 0.579333 -2.65247 0
M  V30 1789 C 180.074 -1.98426 -3.00259 0
M  V30 1790 C 179.682 -3.484 -2.81641 0
M  V30 1791 C 181.426 -1.92993 -3.78092 0
M  V30 1792 C 179.333 -4.25464 -4.10773 0
M  V30 1793 H 178.263 -0.421351 -0.625283 0
M  V30 1794 H 180.914 -1.52085 -1.02676 0
M  V30 1795 H 179.296 -1.52736 -3.6536 0
M  V30 1796 H 180.47 -4.01973 -2.25287 0
M  V30 1797 H 178.785 -3.55245 -2.17232 0
M  V30 1798 H 181.382 -2.47844 -4.7379 0
M  V30 1799 H 181.725 -0.904281 -4.0636 0
M  V30 1800 H 182.258 -2.36595 -3.19793 0
M  V30 1801 H 178.997 -5.28566 -3.87683 0
M  V30 1802 H 178.517 -3.76667 -4.66779 0
M  V30 1803 H 180.196 -4.34812 -4.79111 0
M  V30 1804 N 180.328 1.1314 -1.09713 0
M  V30 1805 C 181.238 2.22242 -0.751367 0
M  V30 1806 C 182.254 1.72224 0.247938 0
M  V30 1807 O 183.43 2.01205 0.0885463 0
M  V30 1808 C 180.495 3.46231 -0.180274 0
M  V30 1809 C 179.556 4.11125 -1.2359 0
M  V30 1810 C 178.789 5.29195 -0.691966 0
M  V30 1811 O 179.012 5.68342 0.48414 0
M  V30 1812 O 177.946 5.84214 -1.44838 0
M  V30 1813 H 181.772 2.54197 -1.66186 0
M  V30 1814 H 179.357 1.21331 -0.871735 0
M  V30 1815 H 181.239 4.21185 0.134739 0
M  V30 1816 H 179.914 3.1597 0.703185 0
M  V30 1817 H 178.821 3.37985 -1.60366 0
M  V30 1818 H 180.154 4.45524 -2.09211 0
M  V30 1819 N 181.806 0.884767 1.30421 0
M  V30 1820 C 183.222 0.57874 1.48737 0
M  V30 1821 C 183.422 -0.883567 1.81095 0
M  V30 1822 O 182.478 -1.6648 1.89844 0
M  V30 1823 C 183.791 1.49171 2.61091 0
M  V30 1824 C 185.339 1.49532 2.74971 0
M  V30 1825 C 185.814 2.39421 3.90438 0
M  V30 1826 N 187.305 2.37383 3.97748 0
M  V30 1827 C 188.04 3.03647 4.86401 0
M  V30 1828 N 187.536 3.79136 5.79852 0
M  V30 1829 N 189.329 2.9288 4.79768 0
M  V30 1830 H 181.48 1.83075 1.0769 0
M  V30 1831 H 183.743 0.783637 0.533495 0
M  V30 1832 H 183.449 2.53291 2.44001 0
M  V30 1833 H 183.323 1.20113 3.57565 0
M  V30 1834 H 185.71 0.46163 2.91467 0
M  V30 1835 H 185.791 1.8262 1.79119 0
M  V30 1836 H 185.435 3.42874 3.74699 0
M  V30 1837 H 185.365 2.03649 4.85628 0
M  V30 1838 H 187.856 1.82525 3.30897 0
M  V30 1839 H 188.169 4.26789 6.4426 0
M  V30 1840 H 186.514 3.83243 5.79784 0
M  V30 1841 H 189.705 2.33433 4.05742 0
M  V30 1842 H 189.878 3.448 5.4865 0
M  V30 1843 N 183.284 -1.43765 0.645699 0
M  V30 1844 C 184.512 -2.06253 0.163556 0
M  V30 1845 C 184.927 -1.48352 -1.16778 0
M  V30 1846 O 184.284 -0.611932 -1.71935 0
M  V30 1847 C 184.335 -3.61453 0.0583186 0
M  V30 1848 O 184.056 -4.172 1.33702 0
M  V30 1849 C 185.557 -4.41002 -0.450795 0
M  V30 1850 H 182.777 -0.665413 0.0864077 0
M  V30 1851 H 185.321 -1.84396 0.884222 0
M  V30 1852 H 183.476 -3.82522 -0.612865 0
M  V30 1853 H 183.89 -5.10791 1.19131 0
M  V30 1854 H 185.364 -5.49966 -0.473403 0
M  V30 1855 H 185.841 -4.13488 -1.48068 0
M  V30 1856 H 186.447 -4.24886 0.187637 0
M  V30 1857 N 184.763 -0.387143 -1.52771 0
M  V30 1858 C 186.009 0.188506 -2.02525 0
M  V30 1859 C 186.364 1.44649 -1.26864 0
M  V30 1860 O 185.657 1.88189 -0.359945 0
M  V30 1861 C 185.851 0.512209 -3.53711 0
M  V30 1862 C 185.68 -0.712855 -4.44014 0
M  V30 1863 C 184.45 -1.23147 -4.90064 0
M  V30 1864 C 186.648 -1.58453 -4.89282 0
M  V30 1865 N 184.63 -2.41431 -5.64433 0
M  V30 1866 C 186.001 -2.61381 -5.6221 0
M  V30 1867 C 188.056 -1.60488 -4.71326 0
M  V30 1868 C 186.759 -3.66227 -6.19088 0
M  V30 1869 C 188.785 -2.6424 -5.29085 0
M  V30 1870 C 188.147 -3.6589 -6.01917 0
M  V30 1871 H 184.246 0.0311236 -0.78138 0
M  V30 1872 H 186.83 -0.536548 -1.87161 0
M  V30 1873 H 185.001 1.20632 -3.69192 0
M  V30 1874 H 186.733 1.07482 -3.90166 0
M  V30 1875 H 183.488 -0.792795 -4.66917 0
M  V30 1876 H 183.912 -3.01274 -6.0627 0
M  V30 1877 H 188.554 -0.83247 -4.14524 0
M  V30 1878 H 186.272 -4.44337 -6.74974 0
M  V30 1879 H 189.858 -2.66695 -5.17074 0
M  V30 1880 H 188.738 -4.44855 -6.45813 0
M  V30 1881 N 186.241 1.57166 -0.116904 0
M  V30 1882 C 187.488 1.95123 0.541603 0
M  V30 1883 C 187.816 1.00006 1.6682 0
M  V30 1884 O 187.071 0.0235658 1.95686 0
M  V30 1885 C 187.37 3.39508 1.11664 0
M  V30 1886 C 187.036 4.50762 0.111606 0
M  V30 1887 C 185.698 4.80918 -0.164758 0
M  V30 1888 C 188.05 5.18036 -0.573438 0
M  V30 1889 C 185.378 5.75666 -1.13249 0
M  V30 1890 C 187.73 6.13824 -1.52978 0
M  V30 1891 C 186.394 6.42374 -1.81415 0
M  V30 1892 H 185.664 0.714005 0.198187 0
M  V30 1893 H 188.311 1.9048 -0.197365 0
M  V30 1894 H 186.616 3.40835 1.93232 0
M  V30 1895 H 188.313 3.66189 1.63422 0
M  V30 1896 H 184.903 4.27272 0.337192 0
M  V30 1897 H 189.087 4.94896 -0.373092 0
M  V30 1898 H 184.343 5.96092 -1.35958 0
M  V30 1899 H 188.517 6.65039 -2.06629 0
M  V30 1900 H 186.144 7.15599 -2.56557 0
M  V30 1901 N 187.719 -0.156864 1.56817 0
M  V30 1902 C 188.682 -1.17781 1.96622 0
M  V30 1903 C 189.682 -1.36401 0.851555 0
M  V30 1904 O 190.872 -1.33561 1.11836 0
M  V30 1905 C 188.004 -2.54008 2.27361 0
M  V30 1906 H 189.197 -0.836564 2.87996 0
M  V30 1907 H 186.75 -0.39985 1.51099 0
M  V30 1908 H 187.485 -2.9312 1.38748 0
M  V30 1909 H 187.27 -2.41856 3.08623 0
M  V30 1910 H 188.76 -3.27558 2.59029 0
M  V30 1911 N 189.197 -1.51736 -0.425897 0
M  V30 1912 C 190.16 -1.73271 -1.50032 0
M  V30 1913 C 191.16 -0.602639 -1.4908 0
M  V30 1914 O 192.35 -0.87033 -1.509 0
M  V30 1915 C 189.482 -1.79969 -2.89523 0
M  V30 1916 H 190.675 -2.69172 -1.32237 0
M  V30 1917 H 188.228 -1.41899 -0.65532 0
M  V30 1918 H 188.963 -0.859241 -3.1271 0
M  V30 1919 H 188.748 -2.62109 -2.91619 0
M  V30 1920 H 190.238 -1.9843 -3.67444 0
M  V30 1921 N 190.675 0.682077 -1.42076 0
M  V30 1922 C 191.952 1.43755 -1.32642 0
M  V30 1923 C 192.332 2.11063 0.0396611 0
M  V30 1924 O 191.68 2.02701 1.05474 0
M  V30 1925 C 191.89 2.44596 -2.48946 0
M  V30 1926 C 193.238 3.09454 -2.9073 0
M  V30 1927 O 194.262 2.54922 -2.48783 0
M  V30 1928 O 193.121 4.08253 -3.63307 0
M  V30 1929 H 190.215 0.640857 -0.522715 0
M  V30 1930 H 192.761 0.711415 -1.54068 0
M  V30 1931 H 191.533 1.93609 -3.40046 0
M  V30 1932 H 191.156 3.24701 -2.29467 0
M  V30 1933 N 192.153 1.28127 0.917671 0
M  V30 1934 C 193.1 1.11717 2.0196 0
M  V30 1935 C 194.07 0.0153929 1.66093 0
M  V30 1936 O 195.255 0.179596 1.89953 0
M  V30 1937 C 192.395 0.780927 3.36148 0
M  V30 1938 C 191.508 1.96135 3.84909 0
M  V30 1939 C 190.643 1.56609 5.0759 0
M  V30 1940 C 189.682 2.71339 5.48673 0
M  V30 1941 N 188.819 2.32332 6.62545 0
M  V30 1942 H 193.659 2.06003 2.15329 0
M  V30 1943 H 191.196 1.02535 1.05475 0
M  V30 1944 H 193.154 0.56675 4.13333 0
M  V30 1945 H 191.784 -0.124998 3.22558 0
M  V30 1946 H 190.836 2.28777 3.03916 0
M  V30 1947 H 192.148 2.82165 4.1132 0
M  V30 1948 H 191.302 1.31374 5.92305 0
M  V30 1949 H 190.041 0.677014 4.82978 0
M  V30 1950 H 189.046 2.97276 4.62501 0
M  V30 1951 H 190.271 3.60882 5.75274 0
M  V30 1952 H 188.217 1.45889 6.39572 0
M  V30 1953 H 188.134 3.11899 6.88662 0
M  V30 1954 H 189.402 2.10371 7.50576 0
M  V30 1955 N 193.631 -1.12557 1.10312 0
M  V30 1956 C 194.859 -1.87864 0.866873 0
M  V30 1957 C 195.274 -1.79588 -0.582557 0
M  V30 1958 O 194.631 -1.16887 -1.40156 0
M  V30 1959 C 194.682 -3.37125 1.30496 0
M  V30 1960 O 194.403 -3.45201 2.69755 0
M  V30 1961 C 195.904 -4.29373 1.10243 0
M  V30 1962 H 193.124 -0.594452 0.311236 0
M  V30 1963 H 195.668 -1.42429 1.46745 0
M  V30 1964 H 193.823 -3.80109 0.748081 0
M  V30 1965 H 194.237 -4.38056 2.88457 0
M  V30 1966 H 195.711 -5.32394 1.45811 0
M  V30 1967 H 196.188 -4.39181 0.0409492 0
M  V30 1968 H 196.794 -3.92169 1.64571 0
M  V30 1969 N 195.109 -0.891671 -1.2995 0
M  V30 1970 C 196.357 -0.512486 -1.95494 0
M  V30 1971 C 196.678 0.942776 -1.70695 0
M  V30 1972 O 195.948 1.66374 -1.03424 0
M  V30 1973 H 194.528 -0.186533 -0.723336 0
M  V30 1974 H 197.19 -1.13621 -1.58355 0
M  V30 1975 H 196.286 -0.688342 -3.04415 0
M  V30 1976 N 196.587 1.43421 -0.653314 0
M  V30 1977 C 197.834 2.01812 -0.166745 0
M  V30 1978 C 198.162 1.51535 1.21931 0
M  V30 1979 O 197.417 0.698975 1.82792 0
M  V30 1980 C 197.716 3.57176 -0.126623 0
M  V30 1981 C 197.382 4.26798 -1.45444 0
M  V30 1982 C 196.044 4.45534 -1.81805 0
M  V30 1983 C 198.396 4.66225 -2.32989 0
M  V30 1984 C 195.724 5.00961 -3.05377 0
M  V30 1985 C 198.076 5.23021 -3.55853 0
M  V30 1986 C 196.74 5.39973 -3.9241 0
M  V30 1987 H 196.01 0.738484 -0.0610162 0
M  V30 1988 H 198.657 1.71896 -0.84404 0
M  V30 1989 H 196.962 3.86634 0.634123 0
M  V30 1990 H 198.659 4.00112 0.266723 0
M  V30 1991 H 195.249 4.12561 -1.16153 0
M  V30 1992 H 199.433 4.51443 -2.06187 0
M  V30 1993 H 194.689 5.12271 -3.3375 0
M  V30 1994 H 198.863 5.52518 -4.23907 0
M  V30 1995 H 196.49 5.82687 -4.88242 0
M  V30 1996 N 198.065 0.39524 1.52563 0
M  V30 1997 C 199.015 -0.4541 2.23432 0
M  V30 1998 C 199.999 -1.02482 1.24042 0
M  V30 1999 O 201.191 -0.949938 1.49349 0
M  V30 2000 C 198.32 -1.57769 3.049 0
M  V30 2001 C 197.406 -1.01842 4.1169 0
M  V30 2002 N 197.797 -0.184613 5.05463 0
M  V30 2003 C 196.095 -1.29033 4.26927 0
M  V30 2004 C 196.796 0.125013 5.81566 0
M  V30 2005 N 195.772 -0.480498 5.41472 0
M  V30 2006 H 199.574 0.189413 2.93289 0
M  V30 2007 H 197.088 0.204877 1.61102 0
M  V30 2008 H 199.085 -2.19862 3.54212 0
M  V30 2009 H 197.745 -2.22397 2.36579 0
M  V30 2010 H 198.756 0.178602 5.17592 0
M  V30 2011 H 195.433 -1.93721 3.69836 0
M  V30 2012 H 196.823 0.800962 6.67109 0
M  V30 2013 N 199.544 -1.57102 0.125237 0
M  V30 2014 C 200.477 -2.11371 -0.860094 0
M  V30 2015 C 201.455 -1.03168 -1.25679 0
M  V30 2016 O 202.639 -1.30862 -1.35674 0
M  V30 2017 C 199.766 -2.61555 -2.1519 0
M  V30 2018 C 198.812 -3.81701 -1.9028 0
M  V30 2019 S 199.645 -5.23797 -1.11343 0
M  V30 2020 C 200.801 -5.77353 -2.41689 0
M  V30 2021 H 201.034 -2.94617 -0.39852 0
M  V30 2022 H 198.567 -1.54145 -0.0886555 0
M  V30 2023 H 200.525 -2.91122 -2.89411 0
M  V30 2024 H 199.186 -1.78479 -2.58465 0
M  V30 2025 H 198.379 -4.14985 -2.86014 0
M  V30 2026 H 197.981 -3.52783 -1.24178 0
M  V30 2027 H 200.273 -5.87458 -3.37489 0
M  V30 2028 H 201.216 -6.75323 -2.12942 0
M  V30 2029 H 201.624 -5.05457 -2.51342 0
M  V30 2030 N 201.022 0.148545 -1.56898 0
M  V30 2031 C 201.952 1.18524 -2.01182 0
M  V30 2032 C 202.933 1.4489 -0.891123 0
M  V30 2033 O 204.118 1.55836 -1.15882 0
M  V30 2034 C 201.248 2.51879 -2.39112 0
M  V30 2035 C 200.202 2.40038 -3.54353 0
M  V30 2036 C 199.528 3.78089 -3.78091 0
M  V30 2037 C 200.828 1.88577 -4.87069 0
M  V30 2038 H 202.522 0.817029 -2.88036 0
M  V30 2039 H 200.068 0.391575 -1.38574 0
M  V30 2040 H 202.021 3.24627 -2.68692 0
M  V30 2041 H 200.745 2.90532 -1.49193 0
M  V30 2042 H 199.404 1.69742 -3.24936 0
M  V30 2043 H 199.052 4.14175 -2.85426 0
M  V30 2044 H 198.752 3.71028 -4.55645 0
M  V30 2045 H 200.276 4.52387 -4.10095 0
M  V30 2046 H 201.69 2.51117 -5.15377 0
M  V30 2047 H 200.087 1.9241 -5.68417 0
M  V30 2048 H 201.157 0.84136 -4.77545 0
M  V30 2049 N 202.5 1.5196 0.417844 0
M  V30 2050 C 203.45 1.7106 1.5074 0
M  V30 2051 C 204.434 0.564487 1.50673 0
M  V30 2052 O 205.626 0.821206 1.56797 0
M  V30 2053 C 202.755 1.85677 2.88754 0
M  V30 2054 C 201.841 3.06133 2.93502 0
M  V30 2055 N 202.232 4.28987 2.67962 0
M  V30 2056 C 200.53 3.05787 3.24669 0
M  V30 2057 C 201.231 5.10395 2.79055 0
M  V30 2058 N 200.207 4.45455 3.11561 0
M  V30 2059 H 204.009 2.63696 1.29775 0
M  V30 2060 H 201.523 1.49873 0.625436 0
M  V30 2061 H 203.52 1.97475 3.67164 0
M  V30 2062 H 202.18 0.942348 3.10725 0
M  V30 2063 H 203.191 4.57607 2.4252 0
M  V30 2064 H 199.868 2.2405 3.52289 0
M  V30 2065 H 201.258 6.18247 2.63097 0
M  V30 2066 N 203.978 -0.674533 1.42435 0
M  V30 2067 C 205.206 -1.46283 1.46317 0
M  V30 2068 C 205.621 -1.88653 0.0745836 0
M  V30 2069 O 204.978 -1.58151 -0.91074 0
M  V30 2070 C 205.029 -2.71178 2.3905 0
M  V30 2071 O 204.75 -2.30586 3.72507 0
M  V30 2072 C 206.251 -3.64738 2.51955 0
M  V30 2073 H 203.471 -0.450104 0.497642 0
M  V30 2074 H 206.015 -0.828792 1.86953 0
M  V30 2075 H 204.17 -3.3077 2.01667 0
M  V30 2076 H 204.584 -3.11241 4.22172 0
M  V30 2077 H 206.058 -4.49096 3.20962 0
M  V30 2078 H 206.535 -4.10656 1.55752 0
M  V30 2079 H 207.141 -3.11038 2.90061 0
M  V30 2080 N 205.456 -1.28612 -0.910864 0
M  V30 2081 C 206.386 -1.15326 -2.03032 0
M  V30 2082 C 207.367 -0.0502924 -1.70026 0
M  V30 2083 O 208.552 -0.227797 -1.92859 0
M  V30 2084 C 205.682 -0.817343 -3.37545 0
M  V30 2085 C 204.636 -1.8754 -3.84724 0
M  V30 2086 C 203.962 -1.39305 -5.16235 0
M  V30 2087 C 205.262 -3.28244 -4.06267 0
M  V30 2088 H 206.956 -2.08975 -2.14406 0
M  V30 2089 H 204.502 -1.00612 -1.03021 0
M  V30 2090 H 206.455 -0.711151 -4.15356 0
M  V30 2091 H 205.179 0.154846 -3.26233 0
M  V30 2092 H 203.838 -1.97079 -3.09121 0
M  V30 2093 H 203.486 -0.409846 -5.01328 0
M  V30 2094 H 203.186 -2.10057 -5.48771 0
M  V30 2095 H 204.71 -1.30014 -5.96598 0
M  V30 2096 H 206.124 -3.21611 -4.74594 0
M  V30 2097 H 204.521 -3.96855 -4.5014 0
M  V30 2098 H 205.591 -3.72048 -3.10979 0
M  V30 2099 N 206.934 1.1197 -1.10907 0
M  V30 2100 C 208.181 1.83588 -0.854507 0
M  V30 2101 C 208.509 1.84357 0.6199 0
M  V30 2102 O 207.764 1.28809 1.47332 0
M  V30 2103 C 208.063 3.30749 -1.35425 0
M  V30 2104 C 207.729 3.50146 -2.84093 0
M  V30 2105 C 206.391 3.55148 -3.2469 0
M  V30 2106 C 208.743 3.56857 -3.79872 0
M  V30 2107 C 206.071 3.6441 -4.59806 0
M  V30 2108 C 208.423 3.6765 -5.14797 0
M  V30 2109 C 207.087 3.7091 -5.54961 0
M  V30 2110 H 206.357 0.671795 -0.312686 0
M  V30 2111 H 209.004 1.32091 -1.38652 0
M  V30 2112 H 207.309 3.84703 -0.742361 0
M  V30 2113 H 209.006 3.8464 -1.1337 0
M  V30 2114 H 205.596 3.46919 -2.51685 0
M  V30 2115 H 209.78 3.52258 -3.49611 0
M  V30 2116 H 205.036 3.65208 -4.9034 0
M  V30 2117 H 209.21 3.71786 -5.88853 0
M  V30 2118 H 206.837 3.7784 -6.59652 0
M  V30 2119 N 208.412 0.89855 1.29475 0
M  V30 2120 C 209.344 0.332726 2.26772 0
M  V30 2121 C 210.357 -0.520323 1.54261 0
M  V30 2122 O 211.546 -0.337668 1.75277 0
M  V30 2123 C 208.646 -0.544334 3.345 0
M  V30 2124 C 207.819 0.282728 4.36485 0
M  V30 2125 C 206.878 -0.526982 5.23555 0
M  V30 2126 O 205.904 0.0551165 5.69173 0
M  V30 2127 N 207.106 -1.83331 5.5079 0
M  V30 2128 H 209.871 1.16897 2.75962 0
M  V30 2129 H 207.432 0.762919 1.42798 0
M  V30 2130 H 209.424 -1.09239 3.89678 0
M  V30 2131 H 207.994 -1.28127 2.85136 0
M  V30 2132 H 207.214 1.01221 3.80983 0
M  V30 2133 H 208.502 0.84918 5.01664 0
M  V30 2134 H 207.9 -2.32898 5.15534 0
M  V30 2135 H 206.457 -2.32852 6.08788 0
M  V30 2136 N 209.89 -1.43072 0.660911 0
M  V30 2137 C 211.118 -2.06067 0.185422 0
M  V30 2138 C 211.533 -1.49582 -1.15198 0
M  V30 2139 O 210.89 -0.630134 -1.71276 0
M  V30 2140 C 210.941 -3.61371 0.0966523 0
M  V30 2141 O 210.662 -4.15758 1.38119 0
M  V30 2142 C 212.163 -4.41455 -0.403996 0
M  V30 2143 H 209.383 -0.664459 0.0934604 0
M  V30 2144 H 211.927 -1.83447 0.90373 0
M  V30 2145 H 210.082 -3.8315 -0.572259 0
M  V30 2146 H 210.496 -5.09499 1.24542 0
M  V30 2147 H 211.97 -5.50437 -0.415045 0
M  V30 2148 H 212.447 -4.15036 -1.43674 0
M  V30 2149 H 213.053 -4.24663 0.232691 0
M  V30 2150 N 211.368 -0.403325 -1.52352 0
M  V30 2151 C 212.593 0.176499 -2.06648 0
M  V30 2152 C 213.018 1.38577 -1.27193 0
M  V30 2153 O 212.376 1.7879 -0.300637 0
M  V30 2154 C 212.424 0.511061 -3.5696 0
M  V30 2155 O 211.528 1.60294 -3.79973 0
M  V30 2156 H 210.869 0.0167337 -0.663789 0
M  V30 2157 H 213.399 -0.574848 -1.96359 0
M  V30 2158 H 213.409 0.771362 -4.00642 0
M  V30 2159 H 212.084 -0.37296 -4.14224 0
M  V30 2160 H 210.661 1.33526 -3.48174 0
M  V30 2161 N 212.846 1.57033 -0.133567 0
M  V30 2162 C 213.776 2.1909 0.807567 0
M  V30 2163 C 214.757 1.13517 1.26681 0
M  V30 2164 O 215.942 1.41809 1.32679 0
M  V30 2165 C 213.072 2.80188 2.05212 0
M  V30 2166 C 212.026 3.91471 1.73015 0
M  V30 2167 C 211.352 4.39443 3.04622 0
M  V30 2168 C 212.652 5.12886 0.987168 0
M  V30 2169 H 214.346 2.97988 0.290403 0
M  V30 2170 H 211.892 1.43335 0.138239 0
M  V30 2171 H 213.845 3.22264 2.71521 0
M  V30 2172 H 212.569 1.98601 2.59278 0
M  V30 2173 H 211.228 3.49993 1.0909 0
M  V30 2174 H 210.876 3.54695 3.56651 0
M  V30 2175 H 210.576 5.14495 2.83847 0
M  V30 2176 H 212.1 4.8418 3.72024 0
M  V30 2177 H 213.514 5.51891 1.55208 0
M  V30 2178 H 211.911 5.93615 0.87985 0
M  V30 2179 H 212.981 4.84894 -0.0235286 0
M  V30 2180 N 214.325 -0.140222 1.56975 0
M  V30 2181 C 215.257 -1.19818 1.95388 0
M  V30 2182 C 216.27 -1.38816 0.850525 0
M  V30 2183 O 217.459 -1.38267 1.12891 0
M  V30 2184 C 214.559 -2.56189 2.21857 0
M  V30 2185 C 213.732 -2.58077 3.5315 0
M  V30 2186 C 212.791 -3.76037 3.6808 0
M  V30 2187 O 211.817 -3.60598 4.40406 0
M  V30 2188 N 213.019 -4.93763 3.05251 0
M  V30 2189 H 215.784 -0.871609 2.86746 0
M  V30 2190 H 213.345 -0.32972 1.58507 0
M  V30 2191 H 215.337 -3.33623 2.2908 0
M  V30 2192 H 213.907 -2.81111 1.36731 0
M  V30 2193 H 213.127 -1.6651 3.57307 0
M  V30 2194 H 214.415 -2.56377 4.39486 0
M  V30 2195 H 213.813 -5.09209 2.46419 0
M  V30 2196 H 212.37 -5.68949 3.18026 0
M  V30 2197 N 215.803 -1.52179 -0.40978 0
M  V30 2198 C 217.05 -1.66206 -1.15679 0
M  V30 2199 C 217.378 -0.391674 -1.90516 0
M  V30 2200 O 216.633 0.62533 -1.8544 0
M  V30 2201 C 216.932 -2.83428 -2.17723 0
M  V30 2202 C 216.598 -4.21672 -1.59699 0
M  V30 2203 C 215.26 -4.59274 -1.43599 0
M  V30 2204 C 217.612 -5.07825 -1.17317 0
M  V30 2205 C 214.94 -5.80709 -0.836328 0
M  V30 2206 C 217.292 -6.29864 -0.587691 0
M  V30 2207 C 215.956 -6.66216 -0.413818 0
M  V30 2208 H 215.226 -0.608192 -0.423301 0
M  V30 2209 H 217.873 -1.86279 -0.444097 0
M  V30 2210 H 216.178 -2.57687 -2.95135 0
M  V30 2211 H 217.875 -2.91477 -2.75394 0
M  V30 2212 H 214.465 -3.9204 -1.73213 0
M  V30 2213 H 218.649 -4.79359 -1.28565 0
M  V30 2214 H 213.905 -6.07498 -0.689626 0
M  V30 2215 H 218.079 -6.95948 -0.250894 0
M  V30 2216 H 215.706 -7.60182 0.0529471 0
M  V30 2217 N 217.281 0.66697 -1.42791 0
M  V30 2218 C 218.692 1.2478 -1.38877 0
M  V30 2219 C 219.043 1.96012 -0.0859426 0
M  V30 2220 O 218.168 2.00463 0.815081 0
M  V30 2221 C 218.763 2.26938 -2.51564 0
M  V30 2222 C 217.322 2.80529 -2.50959 0
M  V30 2223 C 216.469 1.54965 -2.29959 0
M  V30 2224 H 219.42 0.459853 -1.51892 0
M  V30 2225 H 219.441 3.08834 -2.22265 0
M  V30 2226 H 218.953 1.75065 -3.46372 0
M  V30 2227 H 217.054 3.36502 -1.59991 0
M  V30 2228 H 217.167 3.29012 -3.48265 0
M  V30 2229 H 215.531 1.81817 -1.78366 0
M  V30 2230 H 216.314 1.05047 -3.26833 0
M  V30 2231 N 218.759 1.29093 0.90403 0
M  V30 2232 C 219.691 1.09658 2.01266 0
M  V30 2233 C 220.704 0.0453729 1.62737 0
M  V30 2234 O 221.893 0.289446 1.76138 0
M  V30 2235 C 218.993 0.646278 3.32681 0
M  V30 2236 C 218.166 1.77505 3.99763 0
M  V30 2237 C 217.225 1.31649 5.09465 0
M  V30 2238 O 216.251 2.02045 5.32134 0
M  V30 2239 N 217.453 0.184997 5.80205 0
M  V30 2240 H 220.218 2.05135 2.18494 0
M  V30 2241 H 217.779 1.20975 1.07594 0
M  V30 2242 H 219.771 0.322906 4.0341 0
M  V30 2243 H 218.341 -0.215916 3.11853 0
M  V30 2244 H 217.561 2.26752 3.22455 0
M  V30 2245 H 218.849 2.53198 4.41325 0
M  V30 2246 H 218.247 -0.402021 5.6427 0
M  V30 2247 H 216.804 -0.0790358 6.51752 0
M  V30 2248 N 220.237 -1.11381 1.11499 0
M  V30 2249 C 221.486 -1.82494 0.858993 0
M  V30 2250 C 221.799 -1.85605 -0.617278 0
M  V30 2251 O 223.005 -2.52824 -0.989552 0
M  V30 2252 C 221.461 -3.27745 1.48699 0
M  V30 2253 C 221.069 -3.32961 2.99735 0
M  V30 2254 C 222.813 -4.03754 1.31085 0
M  V30 2255 C 220.72 -4.72612 3.55516 0
M  V30 2256 H 219.65 -0.683802 0.317696 0
M  V30 2257 H 222.301 -1.25331 1.34031 0
M  V30 2258 H 220.683 -3.84844 0.933339 0
M  V30 2259 H 221.857 -2.85741 3.61509 0
M  V30 2260 H 220.172 -2.70433 3.16631 0
M  V30 2261 H 222.769 -5.06891 1.70192 0
M  V30 2262 H 223.112 -4.15527 0.253496 0
M  V30 2263 H 223.645 -3.53043 1.83318 0
M  V30 2264 H 220.384 -4.66036 4.60967 0
M  V30 2265 H 219.904 -5.2024 2.98513 0
M  V30 2266 H 221.583 -5.4157 3.53992 0
M  V30 2267 N 221.715 -0.905404 -1.28997 0
M  V30 2268 C 222.647 -0.344748 -2.26592 0
M  V30 2269 C 223.66 0.512135 -1.54535 0
M  V30 2270 O 224.849 0.328368 -1.75454 0
M  V30 2271 C 221.949 0.526587 -3.34784 0
M  V30 2272 C 221.122 -0.305871 -4.36329 0
M  V30 2273 C 220.181 0.499209 -5.23827 0
M  V30 2274 O 219.207 -0.0853004 -5.69136 0
M  V30 2275 N 220.409 1.80408 -5.51755 0
M  V30 2276 H 223.174 -1.18359 -2.75338 0
M  V30 2277 H 220.735 -0.770481 -1.42391 0
M  V30 2278 H 222.727 1.07171 -3.90252 0
M  V30 2279 H 221.297 1.26613 -2.85811 0
M  V30 2280 H 220.517 -1.0324 -3.80441 0
M  V30 2281 H 221.805 -0.875773 -5.01206 0
M  V30 2282 H 221.203 2.3016 -5.16762 0
M  V30 2283 H 219.76 2.29621 -6.10014 0
M  V30 2284 N 223.193 1.4272 -0.668489 0
M  V30 2285 C 224.609 1.55992 -0.33745 0
M  V30 2286 C 224.809 1.64933 1.15756 0
M  V30 2287 O 223.865 1.61278 1.94282 0
M  V30 2288 C 225.178 2.81314 -1.06222 0
M  V30 2289 C 226.726 2.95078 -1.04394 0
M  V30 2290 C 227.201 4.23252 -1.74991 0
M  V30 2291 N 228.692 4.3015 -1.71829 0
M  V30 2292 C 229.427 5.28127 -2.23315 0
M  V30 2293 N 228.923 6.32293 -2.83156 0
M  V30 2294 N 230.716 5.19882 -2.13726 0
M  V30 2295 H 222.867 1.3516 -1.63846 0
M  V30 2296 H 225.13 0.650174 -0.689912 0
M  V30 2297 H 224.836 2.80823 -2.11734 0
M  V30 2298 H 224.71 3.72012 -0.62344 0
M  V30 2299 H 227.097 2.951 0.0028244 0
M  V30 2300 H 227.178 2.05627 -1.52155 0
M  V30 2301 H 226.822 4.2399 -2.79633 0
M  V30 2302 H 226.752 5.11626 -1.24685 0
M  V30 2303 H 229.243 3.55499 -1.28175 0
M  V30 2304 H 229.556 7.03398 -3.20079 0
M  V30 2305 H 227.901 6.32873 -2.87223 0
M  V30 2306 H 231.092 4.37423 -1.66669 0
M  V30 2307 H 231.265 5.96077 -2.54158 0
M  V30 2308 N 224.671 0.411399 1.52136 0
M  V30 2309 C 225.918 -0.163645 2.01838 0
M  V30 2310 C 226.246 -1.4495 1.29691 0
M  V30 2311 O 225.501 -1.91725 0.392431 0
M  V30 2312 C 225.8 -0.455872 3.54481 0
M  V30 2313 C 225.466 0.741055 4.44769 0
M  V30 2314 C 224.128 1.06936 4.69167 0
M  V30 2315 C 226.48 1.54075 4.97906 0
M  V30 2316 C 223.808 2.19851 5.43951 0
M  V30 2317 C 226.16 2.66067 5.73926 0
M  V30 2318 C 224.824 2.99381 5.96596 0
M  V30 2319 H 224.094 -0.0598821 0.738576 0
M  V30 2320 H 226.741 0.553283 1.83333 0
M  V30 2321 H 225.046 -1.2544 3.71177 0
M  V30 2322 H 226.743 -0.913802 3.90449 0
M  V30 2323 H 223.333 0.475192 4.25958 0
M  V30 2324 H 227.517 1.30033 4.78963 0
M  V30 2325 H 222.773 2.46006 5.59724 0
M  V30 2326 H 226.947 3.28419 6.14096 0
M  V30 2327 H 224.574 3.86992 6.54325 0
M  V30 2328 N 226.149 -1.5696 0.141893 0
M  V30 2329 C 227.426 -1.87553 -0.555281 0
M  V30 2330 C 227.806 -1.04699 -1.83306 0
M  V30 2331 O 227.154 -0.132346 -2.28116 0
M  V30 2332 C 227.364 -3.39093 -0.825664 0
M  V30 2333 C 228.712 -4.08199 -1.16869 0
M  V30 2334 O 229.736 -3.44242 -0.915185 0
M  V30 2335 O 228.595 -5.21139 -1.6455 0
M  V30 2336 H 225.689 -0.777188 -0.282679 0
M  V30 2337 H 228.235 -1.68763 0.17812 0
M  V30 2338 H 227.007 -3.91221 0.0788633 0
M  V30 2339 H 226.63 -3.63393 -1.61343 0
M  V30 2340 N 227.627 0.131896 -1.57047 0
M  V30 2341 C 228.537 1.1815 -2.02676 0
M  V30 2342 C 229.553 1.46113 -0.944824 0
M  V30 2343 O 230.729 1.57485 -1.25541 0
M  V30 2344 C 227.794 2.49139 -2.41103 0
M  V30 2345 C 226.855 2.28688 -3.63318 0
M  V30 2346 C 226.088 3.53431 -3.99903 0
M  V30 2347 O 226.311 4.60223 -3.36973 0
M  V30 2348 O 225.245 3.45198 -4.93074 0
M  V30 2349 H 229.071 0.824069 -2.92306 0
M  V30 2350 H 226.656 0.341745 -1.45439 0
M  V30 2351 H 228.538 3.26338 -2.66611 0
M  V30 2352 H 227.213 2.84382 -1.54624 0
M  V30 2353 H 226.12 1.4939 -3.42977 0
M  V30 2354 H 227.453 1.98355 -4.50462 0
M  V30 2355 N 229.106 1.52395 0.401703 0
M  V30 2356 C 230.056 1.72649 1.48917 0
M  V30 2357 C 231.04 0.580436 1.50066 0
M  V30 2358 O 232.232 0.83779 1.55917 0
M  V30 2359 C 229.361 1.88729 2.86769 0
M  V30 2360 C 228.447 3.09228 2.90239 0
M  V30 2361 N 228.838 4.31805 2.63396 0
M  V30 2362 C 227.136 3.09214 3.21408 0
M  V30 2363 C 227.837 5.13326 2.73625 0
M  V30 2364 N 226.813 4.48735 3.06819 0
M  V30 2365 H 230.615 2.65058 1.26971 0
M  V30 2366 H 228.129 1.50528 0.609504 0
M  V30 2367 H 230.126 2.01358 3.65049 0
M  V30 2368 H 228.786 0.975252 3.09708 0
M  V30 2369 H 229.797 4.60154 2.37653 0
M  V30 2370 H 226.474 2.27774 3.49893 0
M  V30 2371 H 227.864 6.21003 2.56524 0
M  V30 2372 N 230.584 -0.659388 1.43143 0
M  V30 2373 C 231.831 -1.41935 1.44433 0
M  V30 2374 C 232.159 -1.94387 0.0663522 0
M  V30 2375 O 231.414 -1.72314 -0.927706 0
M  V30 2376 C 231.713 -2.62206 2.42864 0
M  V30 2377 C 231.379 -2.28208 3.88886 0
M  V30 2378 C 230.041 -2.18647 4.28657 0
M  V30 2379 C 232.393 -2.00887 4.8093 0
M  V30 2380 C 229.721 -1.79914 5.58433 0
M  V30 2381 C 232.073 -1.63653 6.11065 0
M  V30 2382 C 230.737 -1.52614 6.49819 0
M  V30 2383 H 230.007 -0.519376 0.528517 0
M  V30 2384 H 232.654 -0.750453 1.76183 0
M  V30 2385 H 230.959 -3.34199 2.04495 0
M  V30 2386 H 232.656 -3.2041 2.41119 0
M  V30 2387 H 229.246 -2.36557 3.57406 0
M  V30 2388 H 233.43 -2.07198 4.5098 0
M  V30 2389 H 228.686 -1.69948 5.87305 0
M  V30 2390 H 232.86 -1.41543 6.81864 0
M  V30 2391 H 230.487 -1.22371 7.50286 0
M  V30 2392 N 232.062 -1.29571 -0.897171 0
M  V30 2393 C 233.308 -1.17863 -1.65034 0
M  V30 2394 C 233.641 0.268729 -1.92332 0
M  V30 2395 O 232.916 1.19378 -1.53555 0
M  V30 2396 C 233.199 -1.995 -2.99786 0
M  V30 2397 C 233.052 -3.5239 -2.79538 0
M  V30 2398 C 234.371 -1.82335 -4.00552 0
M  V30 2399 H 231.49 -0.429528 -0.598895 0
M  V30 2400 H 234.132 -1.59072 -1.03905 0
M  V30 2401 H 232.282 -1.64485 -3.51962 0
M  V30 2402 H 233.954 -3.97401 -2.34244 0
M  V30 2403 H 232.197 -3.77187 -2.14273 0
M  V30 2404 H 232.868 -4.04787 -3.75302 0
M  V30 2405 H 235.344 -2.12924 -3.57495 0
M  V30 2406 H 234.22 -2.41801 -4.92771 0
M  V30 2407 H 234.481 -0.779209 -4.35179 0
M  V30 2408 N 233.54 1.10788 -1.12088 0
M  V30 2409 C 234.47 2.19083 -0.807755 0
M  V30 2410 C 235.451 1.6858 0.226859 0
M  V30 2411 O 236.636 1.93997 0.0888475 0
M  V30 2412 C 233.766 3.46344 -0.257576 0
M  V30 2413 C 232.72 4.101 -1.22483 0
M  V30 2414 C 232.046 5.32016 -0.535052 0
M  V30 2415 C 233.346 4.54236 -2.57811 0
M  V30 2416 H 235.04 2.45534 -1.71328 0
M  V30 2417 H 232.586 1.1801 -0.825205 0
M  V30 2418 H 234.539 4.21392 -0.0262679 0
M  V30 2419 H 233.263 3.19373 0.683278 0
M  V30 2420 H 231.922 3.37054 -1.44189 0
M  V30 2421 H 231.57 5.01319 0.410827 0
M  V30 2422 H 231.27 5.75625 -1.18024 0
M  V30 2423 H 232.794 6.09799 -0.312695 0
M  V30 2424 H 234.208 5.20575 -2.40155 0
M  V30 2425 H 232.605 5.08682 -3.18375 0
M  V30 2426 H 233.675 3.6734 -3.16528 0
M  V30 2427 N 235.018 0.912232 1.28515 0
M  V30 2428 C 236.295 0.463597 1.90027 0
M  V30 2429 C 236.675 -1.05753 1.82701 0
M  V30 2430 O 236.023 -1.90492 1.26194 0
M  V30 2431 C 236.233 0.992253 3.34597 0
M  V30 2432 C 237.581 1.04344 4.11579 0
M  V30 2433 O 238.605 0.94079 3.43551 0
M  V30 2434 O 237.464 1.1995 5.33174 0
M  V30 2435 H 234.558 0.146666 0.813891 0
M  V30 2436 H 237.104 1.00292 1.36893 0
M  V30 2437 H 235.876 2.03623 3.34146 0
M  V30 2438 H 235.499 0.433672 3.95228 0
M  V30 2439 N 236.496 -1.42363 0.676048 0
M  V30 2440 C 237.745 -2.00745 0.196037 0
M  V30 2441 C 238.058 -1.54083 -1.20489 0
M  V30 2442 O 239.264 -2.04891 -1.78134 0
M  V30 2443 C 237.72 -3.58651 0.299616 0
M  V30 2444 C 237.328 -4.143 1.70468 0
M  V30 2445 C 239.072 -4.24326 -0.121619 0
M  V30 2446 C 236.979 -5.64574 1.76096 0
M  V30 2447 H 235.909 -0.750787 0.0695301 0
M  V30 2448 H 238.56 -1.63072 0.841412 0
M  V30 2449 H 236.942 -3.93833 -0.413673 0
M  V30 2450 H 238.116 -3.90575 2.44515 0
M  V30 2451 H 236.431 -3.61081 2.07387 0
M  V30 2452 H 239.028 -5.34607 -0.0997362 0
M  V30 2453 H 239.371 -3.99897 -1.15708 0
M  V30 2454 H 239.904 -3.94108 0.540706 0
M  V30 2455 H 236.643 -5.93804 2.77628 0
M  V30 2456 H 236.163 -5.90286 1.06406 0
M  V30 2457 H 237.842 -6.29013 1.51496 0
M  V30 2458 N 237.974 -0.419461 -1.51915 0
M  V30 2459 C 238.904 0.391813 -2.30189 0
M  V30 2460 C 239.885 1.03699 -1.34836 0
M  V30 2461 O 241.07 1.04403 -1.63748 0
M  V30 2462 C 238.2 1.50312 -3.13087 0
M  V30 2463 C 237.154 0.9824 -4.16573 0
M  V30 2464 C 236.48 2.18809 -4.8788 0
M  V30 2465 C 237.78 0.0292356 -5.22292 0
M  V30 2466 H 239.474 -0.26135 -2.98257 0
M  V30 2467 H 237.02 -0.127134 -1.43438 0
M  V30 2468 H 238.973 2.07773 -3.66617 0
M  V30 2469 H 237.697 2.18431 -2.42807 0
M  V30 2470 H 236.356 0.430119 -3.64068 0
M  V30 2471 H 236.004 2.85507 -4.14119 0
M  V30 2472 H 235.704 1.84615 -5.57845 0
M  V30 2473 H 237.228 2.76858 -5.44226 0
M  V30 2474 H 238.642 0.512976 -5.71 0
M  V30 2475 H 237.039 -0.2244 -5.9968 0
M  V30 2476 H 238.109 -0.912931 -4.76228 0
M  V30 2477 N 239.452 1.56882 -0.150215 0
M  V30 2478 C 240.698 1.96518 0.500834 0
M  V30 2479 C 241.031 1.03527 1.64304 0
M  V30 2480 O 240.306 0.0782751 1.94342 0
M  V30 2481 C 240.589 3.45822 1.00395 0
M  V30 2482 C 240.442 4.49591 -0.136983 0
M  V30 2483 C 241.761 3.97704 1.88467 0
M  V30 2484 H 238.88 0.714535 0.18058 0
M  V30 2485 H 241.522 1.88577 -0.232091 0
M  V30 2486 H 239.672 3.5272 1.62851 0
M  V30 2487 H 241.344 4.5477 -0.77343 0
M  V30 2488 H 239.587 4.26441 -0.795652 0
M  V30 2489 H 240.258 5.51402 0.256815 0
M  V30 2490 H 242.734 3.93304 1.35834 0
M  V30 2491 H 241.61 5.0263 2.20578 0
M  V30 2492 H 241.871 3.40252 2.82279 0
M  V30 2493 N 240.93 -0.123565 1.57115 0
M  V30 2494 C 242.207 -0.862196 1.75572 0
M  V30 2495 C 242.587 -1.98279 0.724475 0
M  V30 2496 O 241.935 -2.27102 -0.252407 0
M  V30 2497 C 242.145 -1.38309 3.20424 0
M  V30 2498 C 243.493 -1.83724 3.82793 0
M  V30 2499 O 244.517 -1.47999 3.23998 0
M  V30 2500 O 243.376 -2.49685 4.86127 0
M  V30 2501 H 240.47 -0.409113 0.718718 0
M  V30 2502 H 243.016 -0.107661 1.69358 0
M  V30 2503 H 241.788 -0.578889 3.86994 0
M  V30 2504 H 241.411 -2.20046 3.31158 0
M  V30 2505 N 242.408 -1.52605 -0.393616 0
M  V30 2506 C 243.685 -1.58001 -1.15304 0
M  V30 2507 C 244.065 -0.370385 -2.07825 0
M  V30 2508 O 243.413 0.641638 -2.19306 0
M  V30 2509 C 243.623 -2.91652 -1.91677 0
M  V30 2510 C 244.971 -3.4522 -2.47201 0
M  V30 2511 O 245.995 -2.93495 -2.01839 0
M  V30 2512 O 244.854 -4.35579 -3.3005 0
M  V30 2513 H 241.948 -0.637068 -0.527327 0
M  V30 2514 H 244.494 -1.64939 -0.399141 0
M  V30 2515 H 243.266 -3.71136 -1.23992 0
M  V30 2516 H 242.889 -2.88077 -2.74039 0
M  V30 2517 N 243.887 0.651787 -1.4349 0
M  V30 2518 C 245.135 1.40888 -1.44897 0
M  V30 2519 C 245.456 1.94856 -0.0749086 0
M  V30 2520 O 244.726 1.74518 0.889956 0
M  V30 2521 H 243.306 0.522887 -0.533478 0
M  V30 2522 H 245.968 0.768609 -1.79104 0
M  V30 2523 H 245.064 2.25052 -2.16236 0
M  V30 2524 N 245.365 1.30045 0.890287 0
M  V30 2525 C 246.315 1.12592 1.9826 0
M  V30 2526 C 247.299 0.0426021 1.60844 0
M  V30 2527 O 248.491 0.265346 1.75 0
M  V30 2528 C 245.62 0.814301 3.33503 0
M  V30 2529 C 244.706 1.93761 3.7725 0
M  V30 2530 N 245.097 3.18232 3.93143 0
M  V30 2531 C 243.395 1.83277 4.06602 0
M  V30 2532 C 244.096 3.9158 4.30163 0
M  V30 2533 N 243.072 3.19591 4.3973 0
M  V30 2534 H 246.874 2.07003 2.08631 0
M  V30 2535 H 244.388 1.21307 1.07974 0
M  V30 2536 H 246.385 0.67029 4.11476 0
M  V30 2537 H 245.045 -0.121797 3.24471 0
M  V30 2538 H 246.056 3.53581 3.78419 0
M  V30 2539 H 242.733 0.97001 4.06075 0
M  V30 2540 H 244.123 4.98744 4.50226 0
M  V30 2541 N 246.843 -1.10192 1.12674 0
M  V30 2542 C 248.089 -1.82475 0.884915 0
M  V30 2543 C 248.422 -1.85093 -0.58773 0
M  V30 2544 O 247.697 -1.3134 -1.43457 0
M  V30 2545 C 247.98 -3.29018 1.46353 0
M  V30 2546 C 247.833 -3.34718 3.00473 0
M  V30 2547 C 249.152 -4.25473 1.12519 0
M  V30 2548 H 246.271 -0.662492 0.322915 0
M  V30 2549 H 248.913 -1.2913 1.39375 0
M  V30 2550 H 247.063 -3.74576 1.03077 0
M  V30 2551 H 248.735 -2.97622 3.52447 0
M  V30 2552 H 246.978 -2.74541 3.35872 0
M  V30 2553 H 247.649 -4.37918 3.36053 0
M  V30 2554 H 250.125 -3.88161 1.499 0
M  V30 2555 H 249.001 -5.26365 1.55663 0
M  V30 2556 H 249.262 -4.42084 0.0377407 0
M  V30 2557 N 248.321 -0.919034 -1.28029 0
M  V30 2558 C 249.737 -0.617972 -1.4715 0
M  V30 2559 C 249.937 0.835242 -1.83374 0
M  V30 2560 O 248.993 1.61388 -1.94191 0
M  V30 2561 C 250.306 -1.56041 -2.57044 0
M  V30 2562 C 251.854 -1.56769 -2.7091 0
M  V30 2563 C 252.329 -2.49688 -3.83953 0
M  V30 2564 N 253.82 -2.47845 -3.91314 0
M  V30 2565 C 254.555 -3.16437 -4.78179 0
M  V30 2566 N 254.051 -3.94376 -5.69596 0
M  V30 2567 N 255.844 -3.05498 -4.71834 0
M  V30 2568 H 247.995 -1.85866 -1.02798 0
M  V30 2569 H 250.258 -0.797506 -0.512531 0
M  V30 2570 H 249.964 -2.59671 -2.372 0
M  V30 2571 H 249.838 -1.29551 -3.54255 0
M  V30 2572 H 252.225 -0.538745 -2.90141 0
M  V30 2573 H 252.306 -1.87305 -1.74214 0
M  V30 2574 H 251.95 -3.52688 -3.65477 0
M  V30 2575 H 251.88 -2.16453 -4.80058 0
M  V30 2576 H 254.371 -1.91234 -3.25941 0
M  V30 2577 H 254.684 -4.43721 -6.32718 0
M  V30 2578 H 253.029 -3.98481 -5.69419 0
M  V30 2579 H 256.22 -2.44108 -3.99411 0
M  V30 2580 H 256.393 -3.59225 -5.39316 0
M  V30 2581 N 249.799 1.42003 -0.683588 0
M  V30 2582 C 251.047 2.01015 -0.209101 0
M  V30 2583 C 251.368 1.54365 1.19149 0
M  V30 2584 O 250.638 0.769083 1.80172 0
M  V30 2585 H 249.218 0.743294 -0.074315 0
M  V30 2586 H 251.88 1.73798 -0.882066 0
M  V30 2587 H 250.976 3.11343 -0.2172 0
M  V30 2588 N 251.277 0.427512 1.51691 0
M  V30 2589 C 252.207 -0.3796 2.30394 0
M  V30 2590 C 253.188 -1.02982 1.35384 0
M  V30 2591 O 254.373 -1.03534 1.643 0
M  V30 2592 C 251.503 -1.48649 3.1388 0
M  V30 2593 C 250.457 -0.960294 4.17088 0
M  V30 2594 C 249.783 -2.16219 4.89033 0
M  V30 2595 C 251.083 -0.00153679 5.223 0
M  V30 2596 H 252.777 0.277164 2.98114 0
M  V30 2597 H 250.323 0.134739 1.43368 0
M  V30 2598 H 252.276 -2.05826 3.67714 0
M  V30 2599 H 251 -2.1714 2.43962 0
M  V30 2600 H 249.659 -0.410806 3.64291 0
M  V30 2601 H 249.307 -2.83307 4.15628 0
M  V30 2602 H 249.007 -1.81654 5.58816 0
M  V30 2603 H 250.531 -2.73968 5.45687 0
M  V30 2604 H 251.945 -0.482687 5.71264 0
M  V30 2605 H 250.342 0.256199 5.99553 0
M  V30 2606 H 251.412 0.938174 4.75738 0
M  V30 2607 N 252.755 -1.56801 0.158532 0
M  V30 2608 C 254.001 -1.96781 -0.490405 0
M  V30 2609 C 254.334 -1.04397 -1.63753 0
M  V30 2610 O 253.609 -0.0885805 -1.94298 0
M  V30 2611 C 253.892 -3.4635 -0.985594 0
M  V30 2612 C 253.745 -4.49512 0.160824 0
M  V30 2613 C 255.064 -3.98697 -1.86355 0
M  V30 2614 H 252.183 -0.715482 -0.176788 0
M  V30 2615 H 254.825 -1.88451 0.242088 0
M  V30 2616 H 252.975 -3.53579 -1.60978 0
M  V30 2617 H 254.647 -4.54353 0.797537 0
M  V30 2618 H 252.89 -4.26013 0.818256 0
M  V30 2619 H 253.561 -5.51531 -0.227569 0
M  V30 2620 H 256.037 -3.94019 -1.33746 0
M  V30 2621 H 254.913 -5.03792 -2.17909 0
M  V30 2622 H 255.174 -3.41744 -2.8047 0
M  V30 2623 N 254.233 0.115231 -1.57178 0
M  V30 2624 C 255.196 1.12526 -1.99676 0
M  V30 2625 C 256.196 1.34095 -0.88742 0
M  V30 2626 O 257.386 1.30548 -1.15337 0
M  V30 2627 C 254.518 2.4789 -2.34015 0
M  V30 2628 H 255.711 0.759912 -2.90113 0
M  V30 2629 H 253.264 0.359648 -1.52106 0
M  V30 2630 H 253.999 2.89339 -1.4647 0
M  V30 2631 H 253.784 2.33588 -3.14927 0
M  V30 2632 H 255.274 3.20575 -2.67622 0
M  V30 2633 N 255.711 1.52812 0.385517 0
M  V30 2634 C 256.644 1.72592 1.49289 0
M  V30 2635 C 257.622 0.573819 1.52138 0
M  V30 2636 O 258.806 0.80404 1.70492 0
M  V30 2637 C 255.933 1.78669 2.87741 0
M  V30 2638 C 254.979 3.00455 3.02703 0
M  V30 2639 S 255.812 4.60366 2.73538 0
M  V30 2640 C 256.968 4.69263 4.14177 0
M  V30 2641 H 257.201 2.66248 1.32285 0
M  V30 2642 H 254.734 1.43148 0.578611 0
M  V30 2643 H 256.692 1.82855 3.67524 0
M  V30 2644 H 255.353 0.861 3.02069 0
M  V30 2645 H 254.546 3.01258 4.04054 0
M  V30 2646 H 254.148 2.94278 2.30817 0
M  V30 2647 H 256.44 4.48092 5.08153 0
M  V30 2648 H 257.383 5.71276 4.18388 0
M  V30 2649 H 257.791 3.98072 4.00249 0
M  V30 2650 N 257.189 -0.644168 1.43834 0
M  V30 2651 C 258.137 -1.77793 1.49974 0
M  V30 2652 C 259.131 -1.65253 0.372536 0
M  V30 2653 O 260.337 -1.7149 0.546924 0
M  V30 2654 H 256.712 -0.58675 0.47035 0
M  V30 2655 H 258.683 -1.69736 2.45423 0
M  V30 2656 C 257.432 -3.16087 1.4486 0
M  V30 2657 H 256.755 -3.26378 2.30905 0
M  V30 2658 H 258.195 -3.95349 1.53217 0
M  V30 2659 C 256.654 -3.36484 0.167463 0
M  V30 2660 O 257.184 -3.94298 -0.767609 0
M  V30 2661 N 255.39 -2.90504 0.0747556 0
M  V30 2662 H 254.937 -2.4364 0.836507 0
M  V30 2663 H 254.895 -3.04527 -0.781714 0
M  V30 2664 N 258.668 -1.30515 -0.883378 0
M  V30 2665 C 259.601 -1.11359 -1.99184 0
M  V30 2666 C 260.579 -0.0207858 -1.62587 0
M  V30 2667 O 261.763 -0.174646 -1.87689 0
M  V30 2668 C 258.89 -0.69871 -3.31415 0
M  V30 2669 C 257.936 -1.79261 -3.86998 0
M  V30 2670 S 258.769 -3.39536 -4.14096 0
M  V30 2671 C 259.925 -2.99954 -5.49344 0
M  V30 2672 H 260.158 -2.052 -2.15128 0
M  V30 2673 H 257.691 -1.14847 -1.03196 0
M  V30 2674 H 259.649 -0.466075 -4.07846 0
M  V30 2675 H 258.31 0.220368 -3.13326 0
M  V30 2676 H 257.503 -1.45464 -4.82552 0
M  V30 2677 H 257.105 -1.97961 -3.17313 0
M  V30 2678 H 259.397 -2.48013 -6.30473 0
M  V30 2679 H 260.34 -3.9442 -5.8808 0
M  V30 2680 H 260.748 -2.37775 -5.1198 0
M  V30 2681 N 260.146 1.09593 -1.13257 0
M  V30 2682 C 261.079 2.15451 -0.752061 0
M  V30 2683 C 262.057 1.60493 0.260913 0
M  V30 2684 O 263.241 1.8788 0.152819 0
M  V30 2685 C 260.368 3.38506 -0.114594 0
M  V30 2686 C 259.414 4.12183 -1.09579 0
M  V30 2687 S 260.247 4.6661 -2.62745 0
M  V30 2688 C 261.403 5.92966 -2.00354 0
M  V30 2689 H 261.636 2.47395 -1.64872 0
M  V30 2690 H 259.169 1.21515 -0.952545 0
M  V30 2691 H 261.127 4.09757 0.246808 0
M  V30 2692 H 259.788 3.04784 0.759309 0
M  V30 2693 H 258.981 5.00445 -0.597545 0
M  V30 2694 H 258.583 3.46785 -1.40057 0
M  V30 2695 H 260.875 6.63882 -1.35156 0
M  V30 2696 H 261.818 6.47467 -2.86691 0
M  V30 2697 H 262.226 5.45405 -1.4558 0
M  V30 2698 N 261.624 0.925811 1.2754 0
M  V30 2699 C 262.534 0.428993 2.30644 0
M  V30 2700 C 263.55 -0.489387 1.66976 0
M  V30 2701 O 264.726 -0.372653 1.97922 0
M  V30 2702 C 261.791 -0.311967 3.45294 0
M  V30 2703 C 260.852 0.641098 4.24486 0
M  V30 2704 C 260.085 -0.0645955 5.33661 0
M  V30 2705 O 260.308 -1.28429 5.55754 0
M  V30 2706 O 259.242 0.606265 5.98839 0
M  V30 2707 H 263.068 1.28504 2.75173 0
M  V30 2708 H 260.653 0.691086 1.32455 0
M  V30 2709 H 262.535 -0.729972 4.15029 0
M  V30 2710 H 261.21 -1.14365 3.02824 0
M  V30 2711 H 260.117 1.10874 3.57292 0
M  V30 2712 H 261.45 1.43995 4.70666 0
M  V30 2713 N 263.102 -1.41638 0.69111 0
M  V30 2714 C 264.35 -2.00902 0.219758 0
M  V30 2715 C 264.671 -1.54994 -1.18329 0
M  V30 2716 O 263.941 -0.778628 -1.79762 0
M  V30 2717 H 262.521 -0.74289 0.0782558 0
M  V30 2718 H 265.183 -1.73327 0.891271 0
M  V30 2719 H 264.279 -3.11224 0.233708 0
M  V30 2720 N 264.58 -0.43555 -1.51462 0
M  V30 2721 C 265.808 0.130242 -2.0649 0
M  V30 2722 C 266.223 1.36614 -1.30315 0
M  V30 2723 O 265.58 1.78869 -0.362223 0
M  V30 2724 C 265.631 0.454253 -3.58635 0
M  V30 2725 O 265.352 -0.73259 -4.31931 0
M  V30 2726 C 266.853 1.07091 -4.3017 0
M  V30 2727 H 264.073 0.00871669 -0.670943 0
M  V30 2728 H 266.617 -0.614117 -1.95061 0
M  V30 2729 H 264.772 1.14851 -3.69984 0
M  V30 2730 H 265.186 -0.455787 -5.22516 0
M  V30 2731 H 266.66 1.24764 -5.37716 0
M  V30 2732 H 267.137 2.05144 -3.88346 0
M  V30 2733 H 267.743 0.416089 -4.2326 0
M  V30 2734 N 266.058 1.56714 -0.166846 0
M  V30 2735 C 266.988 2.20754 0.760913 0
M  V30 2736 C 267.969 1.16178 1.24244 0
M  V30 2737 O 269.154 1.44592 1.29641 0
M  V30 2738 C 266.284 2.84478 1.99223 0
M  V30 2739 C 265.238 3.95053 1.64672 0
M  V30 2740 C 264.564 4.45805 2.95232 0
M  V30 2741 C 265.864 5.14865 0.878155 0
M  V30 2742 H 267.558 2.98537 0.22713 0
M  V30 2743 H 265.104 1.43596 0.107805 0
M  V30 2744 H 267.057 3.27951 2.64624 0
M  V30 2745 H 265.781 2.04056 2.55007 0
M  V30 2746 H 264.44 3.52228 1.01641 0
M  V30 2747 H 264.088 3.62181 3.49047 0
M  V30 2748 H 263.788 5.204 2.7287 0
M  V30 2749 H 265.312 4.91962 3.6167 0
M  V30 2750 H 266.726 5.55059 1.43466 0
M  V30 2751 H 265.123 5.95348 0.753738 0
M  V30 2752 H 266.193 4.84735 -0.126377 0
M  V30 2753 N 267.536 -0.106894 1.57237 0
M  V30 2754 C 268.782 -0.81373 1.85759 0
M  V30 2755 C 269.115 -1.78952 0.754315 0
M  V30 2756 O 268.39 -1.93029 -0.23879 0
M  V30 2757 C 268.673 -1.55293 3.24894 0
M  V30 2758 C 268.526 -0.595929 4.45835 0
M  V30 2759 C 269.845 -2.5063 3.61763 0
M  V30 2760 H 266.964 -0.294369 0.67566 0
M  V30 2761 H 269.606 -0.0776472 1.89841 0
M  V30 2762 H 267.756 -2.1804 3.21544 0
M  V30 2763 H 269.428 0.0236262 4.61294 0
M  V30 2764 H 267.671 0.0916191 4.33703 0
M  V30 2765 H 268.342 -1.15004 5.39887 0
M  V30 2766 H 270.818 -1.97982 3.65981 0
M  V30 2767 H 269.694 -2.99376 4.60071 0
M  V30 2768 H 269.955 -3.3385 2.89821 0
M  V30 2769 N 269.014 -1.53014 -0.377408 0
M  V30 2770 C 269.946 -1.74884 -1.48149 0
M  V30 2771 C 270.959 -0.629433 -1.5014 0
M  V30 2772 O 272.148 -0.905416 -1.53833 0
M  V30 2773 C 269.248 -1.80299 -2.86959 0
M  V30 2774 C 268.421 -3.09776 -3.08801 0
M  V30 2775 C 267.48 -3.06586 -4.27658 0
M  V30 2776 O 266.506 -3.80419 -4.23403 0
M  V30 2777 N 267.708 -2.26578 -5.34455 0
M  V30 2778 H 270.473 -2.70147 -1.29771 0
M  V30 2779 H 268.034 -1.51646 -0.56703 0
M  V30 2780 H 270.026 -1.75657 -3.64591 0
M  V30 2781 H 268.596 -0.92372 -2.98641 0
M  V30 2782 H 267.816 -3.27815 -2.18931 0
M  V30 2783 H 269.104 -3.95366 -3.20255 0
M  V30 2784 H 268.502 -1.66081 -5.40771 0
M  V30 2785 H 267.059 -2.27766 -6.10709 0
M  V30 2786 N 270.492 0.636531 -1.44174 0
M  V30 2787 C 271.741 1.39213 -1.45954 0
M  V30 2788 C 272.054 1.95374 -0.0939119 0
M  V30 2789 O 273.26 2.71498 0.0107767 0
M  V30 2790 C 271.716 2.52025 -2.56927 0
M  V30 2791 C 271.324 2.024 -3.99673 0
M  V30 2792 C 273.068 3.29269 -2.67922 0
M  V30 2793 C 270.975 3.12521 -5.0208 0
M  V30 2794 H 269.905 0.523132 -0.542999 0
M  V30 2795 H 272.556 0.685349 -1.70221 0
M  V30 2796 H 270.938 3.25253 -2.25891 0
M  V30 2797 H 272.112 1.36073 -4.40251 0
M  V30 2798 H 270.427 1.37987 -3.92872 0
M  V30 2799 H 273.024 4.11352 -3.41605 0
M  V30 2800 H 273.367 3.78397 -1.73555 0
M  V30 2801 H 273.9 2.63129 -2.98342 0
M  V30 2802 H 270.639 2.68343 -5.98057 0
M  V30 2803 H 270.159 3.77507 -4.66099 0
M  V30 2804 H 271.838 3.77385 -5.25538 0
M  V30 2805 N 271.97 1.30982 0.876444 0
M  V30 2806 C 273.386 1.09498 1.16113 0
M  V30 2807 C 273.586 -0.13875 2.01022 0
M  V30 2808 O 272.642 -0.829935 2.38471 0
M  V30 2809 C 273.955 2.36308 1.85954 0
M  V30 2810 C 275.503 2.41856 1.98683 0
M  V30 2811 C 275.978 3.6853 2.71937 0
M  V30 2812 N 277.469 3.69387 2.79477 0
M  V30 2813 C 278.204 4.64096 3.36753 0
M  V30 2814 N 277.7 5.69155 3.95012 0
M  V30 2815 N 279.493 4.51626 3.3465 0
M  V30 2816 H 271.644 2.10118 0.310494 0
M  V30 2817 H 273.907 0.926634 0.200131 0
M  V30 2818 H 273.613 3.26388 1.31011 0
M  V30 2819 H 273.487 2.4561 2.86278 0
M  V30 2820 H 275.874 1.52249 2.52793 0
M  V30 2821 H 275.955 2.36523 0.9742 0
M  V30 2822 H 275.599 4.58499 2.18496 0
M  V30 2823 H 275.529 3.71127 3.73593 0
M  V30 2824 H 278.02 2.93438 2.38123 0
M  V30 2825 H 278.333 6.3751 4.36808 0
M  V30 2826 H 276.678 5.72937 3.93406 0
M  V30 2827 H 279.869 3.68728 2.8837 0
M  V30 2828 H 280.042 5.25614 3.7899 0
M  V30 2829 N 273.449 -1.08991 1.13837 0
M  V30 2830 C 274.412 -2.13925 0.822715 0
M  V30 2831 C 275.412 -1.599 -0.1699 0
M  V30 2832 O 276.602 -1.74104 0.0577251 0
M  V30 2833 C 273.734 -3.40155 0.225318 0
M  V30 2834 H 274.927 -2.43358 1.75262 0
M  V30 2835 H 272.48 -1.24603 0.943594 0
M  V30 2836 H 273.215 -3.16352 -0.713594 0
M  V30 2837 H 273 -3.80661 0.940193 0
M  V30 2838 H 274.49 -4.17594 0.0214784 0
M  V30 2839 N 274.927 -0.932562 -1.27047 0
M  V30 2840 C 275.875 -0.42603 -2.28665 0
M  V30 2841 C 276.869 0.49219 -1.62092 0
M  V30 2842 O 278.075 0.371355 -1.76128 0
M  V30 2843 H 274.45 -0.119213 -0.742491 0
M  V30 2844 H 276.421 -1.29579 -2.68797 0
M  V30 2845 C 275.17 0.301426 -3.46391 0
M  V30 2846 H 274.493 -0.39595 -3.97834 0
M  V30 2847 H 275.933 0.6202 -4.1944 0
M  V30 2848 C 274.392 1.51616 -3.00856 0
M  V30 2849 O 274.922 2.61476 -3.04948 0
M  V30 2850 N 273.128 1.36969 -2.56296 0
M  V30 2851 H 272.675 0.475873 -2.53166 0
M  V30 2852 H 272.633 2.18368 -2.26192 0
M  V30 2853 N 276.405 1.4127 -0.698611 0
M  V30 2854 C 277.368 2.29158 -0.044132 0
M  V30 2855 C 278.368 1.44529 0.704841 0
M  V30 2856 O 279.558 1.65643 0.539276 0
M  V30 2857 C 276.69 3.27459 0.947809 0
M  V30 2858 H 277.883 2.88529 -0.817994 0
M  V30 2859 H 275.436 1.49307 -0.46228 0
M  V30 2860 H 276.171 2.73073 1.74933 0
M  V30 2861 H 275.956 3.8991 0.41385 0
M  V30 2862 H 277.446 3.93311 1.40344 0
M  V30 2863 N 277.883 0.443576 1.51229 0
M  V30 2864 C 279.129 -0.120975 2.02439 0
M  V30 2865 C 279.462 -1.41815 1.32674 0
M  V30 2866 O 278.737 -1.89373 0.443622 0
M  V30 2867 C 279.02 -0.333291 3.58554 0
M  V30 2868 C 278.873 0.982968 4.38928 0
M  V30 2869 C 280.192 -1.10028 4.26124 0
M  V30 2870 H 277.311 -0.0424923 0.735774 0
M  V30 2871 H 279.953 0.583794 1.80809 0
M  V30 2872 H 278.103 -0.933614 3.77115 0
M  V30 2873 H 279.775 1.61775 4.32003 0
M  V30 2874 H 278.018 1.58611 4.03763 0
M  V30 2875 H 278.689 0.788379 5.46341 0
M  V30 2876 H 281.165 -0.591711 4.11871 0
M  V30 2877 H 280.041 -1.21761 5.35225 0
M  V30 2878 H 280.302 -2.12996 3.87408 0
M  V30 2879 N 279.361 -1.56624 0.175154 0
M  V30 2880 C 280.607 -1.9729 -0.469506 0
M  V30 2881 C 280.94 -1.06128 -1.62636 0
M  V30 2882 O 280.215 -0.109183 -1.94193 0
M  V30 2883 C 280.498 -3.47375 -0.948804 0
M  V30 2884 C 280.351 -4.49317 0.208491 0
M  V30 2885 C 281.67 -4.00652 -1.82116 0
M  V30 2886 H 278.789 -0.717317 -0.16919 0
M  V30 2887 H 281.431 -1.88184 0.262062 0
M  V30 2888 H 279.581 -3.55267 -1.57219 0
M  V30 2889 H 281.253 -4.53482 0.845682 0
M  V30 2890 H 279.496 -4.25121 0.863395 0
M  V30 2891 H 280.167 -5.51741 -0.169059 0
M  V30 2892 H 282.643 -3.95416 -1.2956 0
M  V30 2893 H 281.519 -5.06075 -2.12554 0
M  V30 2894 H 281.78 -3.44699 -2.7683 0
M  V30 2895 N 280.839 0.0985539 -1.57292 0
M  V30 2896 C 281.772 1.15082 -1.97057 0
M  V30 2897 C 282.75 1.39025 -0.843255 0
M  V30 2898 O 283.934 1.52842 -1.10325 0
M  V30 2899 C 281.061 2.50069 -2.28437 0
M  V30 2900 C 280.107 2.42428 -3.509 0
M  V30 2901 S 280.94 1.84414 -5.02744 0
M  V30 2902 C 282.096 3.21032 -5.37298 0
M  V30 2903 H 282.329 0.811815 -2.86002 0
M  V30 2904 H 279.862 0.306102 -1.51335 0
M  V30 2905 H 281.82 3.27729 -2.47192 0
M  V30 2906 H 280.481 2.8114 -1.40069 0
M  V30 2907 H 279.674 3.41911 -3.70288 0
M  V30 2908 H 279.276 1.72896 -3.31637 0
M  V30 2909 H 281.568 4.17297 -5.33731 0
M  V30 2910 H 282.511 3.06452 -6.38352 0
M  V30 2911 H 282.919 3.20404 -4.64759 0
M  V30 2912 N 282.317 1.53212 0.369288 0
M  V30 2913 C 283.28 1.7872 1.43498 0
M  V30 2914 C 284.28 0.657554 1.46741 0
M  V30 2915 O 285.47 0.925736 1.47566 0
M  V30 2916 C 282.602 1.90591 2.82645 0
M  V30 2917 H 283.795 2.73894 1.22156 0
M  V30 2918 H 281.348 1.44233 0.602203 0
M  V30 2919 H 282.083 0.974709 3.09306 0
M  V30 2920 H 281.868 2.72751 2.8169 0
M  V30 2921 H 283.358 2.11931 3.59826 0
M  V30 2922 N 283.795 -0.628877 1.44509 0
M  V30 2923 C 285.023 -1.41554 1.50897 0
M  V30 2924 C 285.438 -1.8832 0.134564 0
M  V30 2925 O 284.795 -1.60969 -0.859965 0
M  V30 2926 C 284.846 -2.63435 2.47556 0
M  V30 2927 O 284.567 -2.18619 3.79654 0
M  V30 2928 C 286.068 -3.56537 2.63431 0
M  V30 2929 H 283.288 -0.434044 0.511709 0
M  V30 2930 H 285.832 -0.768895 1.89495 0
M  V30 2931 H 283.987 -3.24187 2.12089 0
M  V30 2932 H 284.401 -2.97652 4.31861 0
M  V30 2933 H 285.875 -4.38657 3.35088 0
M  V30 2934 H 286.352 -4.05493 1.68738 0
M  V30 2935 H 286.958 -3.01653 2.9981 0
M  V30 2936 N 285.273 -1.31445 -0.869486 0
M  V30 2937 C 286.521 -1.20918 -1.61936 0
M  V30 2938 C 286.842 0.232683 -1.93607 0
M  V30 2939 O 286.112 1.15352 -1.58338 0
M  V30 2940 H 284.692 -0.44454 -0.600328 0
M  V30 2941 H 287.354 -1.64776 -1.0409 0
M  V30 2942 H 286.45 -1.78124 -2.56278 0
M  V30 2943 N 286.751 1.08385 -1.14413 0
M  V30 2944 C 287.999 1.80419 -0.910679 0
M  V30 2945 C 288.32 1.86658 0.564243 0
M  V30 2946 O 287.59 1.35985 1.41014 0
M  V30 2947 H 286.17 0.668204 -0.333934 0
M  V30 2948 H 288.832 1.31037 -1.44275 0
M  V30 2949 H 287.928 2.83238 -1.31082 0
M  V30 2950 N 288.23 0.939286 1.26551 0
M  V30 2951 C 289.193 0.451987 2.24699 0
M  V30 2952 C 290.193 -0.435869 1.5478 0
M  V30 2953 O 291.383 -0.235314 1.72603 0
M  V30 2954 C 288.515 -0.348801 3.39111 0
M  V30 2955 H 289.708 1.3193 2.69322 0
M  V30 2956 H 287.261 0.721072 1.38673 0
M  V30 2957 H 287.996 -1.23444 2.99887 0
M  V30 2958 H 287.781 0.287945 3.91041 0
M  V30 2959 H 289.271 -0.679726 4.12031 0
M  V30 2960 N 289.708 -1.40897 0.706093 0
M  V30 2961 C 290.956 -2.00657 0.241054 0
M  V30 2962 C 291.277 -1.56241 -1.16678 0
M  V30 2963 O 290.547 -0.79765 -1.78926 0
M  V30 2964 H 289.127 -0.742018 0.0861308 0
M  V30 2965 H 291.789 -1.72372 0.909604 0
M  V30 2966 H 290.885 -3.10958 0.266705 0
M  V30 2967 N 291.186 -0.45159 -1.50991 0
M  V30 2968 C 292.602 -0.104647 -1.59257 0
M  V30 2969 C 292.802 1.38728 -1.4614 0
M  V30 2970 O 291.858 2.15866 -1.30989 0
M  V30 2971 C 293.171 -0.637468 -2.93865 0
M  V30 2972 C 294.719 -0.599166 -3.07212 0
M  V30 2973 C 295.194 -1.1092 -4.44366 0
M  V30 2974 N 296.685 -1.06778 -4.50725 0
M  V30 2975 C 297.42 -1.43314 -5.55201 0
M  V30 2976 N 296.916 -1.87204 -6.67028 0
M  V30 2977 N 298.709 -1.3504 -5.45638 0
M  V30 2978 H 290.86 -1.42214 -1.57762 0
M  V30 2979 H 293.123 -0.586921 -0.744465 0
M  V30 2980 H 292.829 -1.68187 -3.08879 0
M  V30 2981 H 292.703 -0.0702139 -3.77135 0
M  V30 2982 H 295.09 0.436277 -2.91857 0
M  V30 2983 H 295.171 -1.20299 -2.25747 0
M  V30 2984 H 294.815 -2.14318 -4.60467 0
M  V30 2985 H 294.745 -0.481773 -5.24392 0
M  V30 2986 H 297.236 -0.745643 -3.70471 0
M  V30 2987 H 297.549 -2.13282 -7.42786 0
M  V30 2988 H 295.894 -1.91142 -6.68199 0
M  V30 2989 H 299.085 -1.00607 -4.57161 0
M  V30 2990 H 299.258 -1.63841 -6.26945 0
M  V30 2991 N 292.664 1.56529 -0.183458 0
M  V30 2992 C 293.91 1.97537 0.459036 0
M  V30 2993 C 294.243 1.06989 1.62071 0
M  V30 2994 O 293.518 0.11948 1.94133 0
M  V30 2995 C 293.801 3.47874 0.930368 0
M  V30 2996 C 293.654 4.492 -0.232317 0
M  V30 2997 C 294.973 4.01612 1.79989 0
M  V30 2998 H 292.092 0.718204 0.165383 0
M  V30 2999 H 294.734 1.88042 -0.272038 0
M  V30 3000 H 292.884 3.56095 1.55333 0
M  V30 3001 H 294.556 4.53027 -0.86972 0
M  V30 3002 H 292.799 4.24657 -0.885928 0
M  V30 3003 H 293.47 5.51823 0.139796 0
M  V30 3004 H 295.946 3.96097 1.27461 0
M  V30 3005 H 294.822 5.07195 2.09867 0
M  V30 3006 H 295.083 3.46163 2.74998 0
M  V30 3007 N 294.142 -0.090211 1.57342 0
M  V30 3008 C 295.372 -0.805055 1.90269 0
M  V30 3009 C 295.78 -1.72561 0.775842 0
M  V30 3010 O 295.123 -1.81839 -0.260843 0
M  V30 3011 C 295.185 -1.66734 3.18497 0
M  V30 3012 C 294.849 -0.918092 4.47683 0
M  V30 3013 C 295.846 -0.245674 5.19319 0
M  V30 3014 C 293.531 -0.890724 4.94339 0
M  V30 3015 C 295.525 0.444088 6.35851 0
M  V30 3016 C 293.212 -0.197179 6.10782 0
M  V30 3017 C 294.21 0.469044 6.81388 0
M  V30 3018 O 293.898 1.15146 7.95611 0
M  V30 3019 H 293.63 -0.235143 0.633785 0
M  V30 3020 H 296.184 -0.0703805 2.05279 0
M  V30 3021 H 294.414 -2.44437 2.99646 0
M  V30 3022 H 296.103 -2.25919 3.37217 0
M  V30 3023 H 296.869 -0.258246 4.84312 0
M  V30 3024 H 292.748 -1.39873 4.39268 0
M  V30 3025 H 296.292 0.964667 6.90898 0
M  V30 3026 H 292.189 -0.18247 6.45242 0
M  V30 3027 H 292.957 1.05885 8.11622 0
M  V30 3028 N 295.62 -1.53406 -0.361157 0
M  V30 3029 C 297.036 -1.43277 -0.703124 0
M  V30 3030 C 297.236 -0.575384 -1.9311 0
M  V30 3031 O 296.292 -0.0595362 -2.5243 0
M  V30 3032 C 297.605 -2.8653 -0.9122 0
M  V30 3033 C 299.153 -2.96191 -1.01193 0
M  V30 3034 C 299.628 -4.40514 -1.25345 0
M  V30 3035 N 301.119 -4.43962 -1.32105 0
M  V30 3036 C 301.854 -5.52746 -1.5251 0
M  V30 3037 N 301.35 -6.71567 -1.70203 0
M  V30 3038 N 303.143 -5.40331 -1.54916 0
M  V30 3039 H 295.294 -2.07654 0.446475 0
M  V30 3040 H 297.557 -0.937944 0.137715 0
M  V30 3041 H 297.263 -3.51605 -0.0816414 0
M  V30 3042 H 297.137 -3.30441 -1.81903 0
M  V30 3043 H 299.524 -2.31266 -1.83303 0
M  V30 3044 H 299.605 -2.55667 -0.0823929 0
M  V30 3045 H 299.249 -5.06014 -0.437346 0
M  V30 3046 H 299.179 -4.78614 -2.19627 0
M  V30 3047 H 301.67 -3.58332 -1.20028 0
M  V30 3048 H 301.983 -7.50241 -1.85359 0
M  V30 3049 H 300.328 -6.74545 -1.67373 0
M  V30 3050 H 303.519 -4.46465 -1.40663 0
M  V30 3051 H 303.692 -6.25173 -1.70477 0
M  V30 3052 N 297.098 0.621204 -1.44841 0
M  V30 3053 C 298.328 1.40548 -1.51426 0
M  V30 3054 C 298.736 1.88673 -0.141083 0
M  V30 3055 O 298.079 1.62053 0.865128 0
M  V30 3056 C 298.141 2.65325 -2.42576 0
M  V30 3057 C 297.805 2.3893 -3.89566 0
M  V30 3058 C 298.802 2.00138 -4.79834 0
M  V30 3059 C 296.487 2.52263 -4.3436 0
M  V30 3060 C 298.481 1.75021 -6.129 0
M  V30 3061 C 296.168 2.2676 -5.67471 0
M  V30 3062 C 297.166 1.88199 -6.56559 0
M  V30 3063 O 296.854 1.62986 -7.87204 0
M  V30 3064 H 296.586 0.437122 -0.515655 0
M  V30 3065 H 299.14 0.765987 -1.90583 0
M  V30 3066 H 297.37 3.31947 -1.98364 0
M  V30 3067 H 299.059 3.27347 -2.39998 0
M  V30 3068 H 299.825 1.89386 -4.46495 0
M  V30 3069 H 295.704 2.81246 -3.65269 0
M  V30 3070 H 299.248 1.44848 -6.82396 0
M  V30 3071 H 295.145 2.37125 -6.00368 0
M  V30 3072 H 295.913 1.7715 -7.991 0
M  V30 3073 N 298.576 1.31904 0.862503 0
M  V30 3074 C 299.524 1.20125 1.9918 0
M  V30 3075 C 300.518 0.107824 1.69056 0
M  V30 3076 O 301.724 0.270223 1.7796 0
M  V30 3077 H 298.099 0.372148 0.65346 0
M  V30 3078 H 300.07 2.15652 2.06244 0
M  V30 3079 C 298.819 0.933099 3.34946 0
M  V30 3080 H 298.142 1.76664 3.5865 0
M  V30 3081 H 299.582 0.890892 4.14535 0
M  V30 3082 C 298.041 -0.364172 3.34926 0
M  V30 3083 O 298.571 -1.37858 3.77304 0
M  V30 3084 N 296.777 -0.383362 2.8806 0
M  V30 3085 H 296.324 0.442651 2.53768 0
M  V30 3086 H 296.282 -1.25123 2.8843 0
M  V30 3087 N 300.054 -1.07777 1.14986 0
M  V30 3088 C 301.282 -1.84018 0.945773 0
M  V30 3089 C 301.697 -1.81897 -0.505863 0
M  V30 3090 O 301.054 -1.22726 -1.35072 0
M  V30 3091 C 301.105 -3.31287 1.44677 0
M  V30 3092 O 300.826 -3.33449 2.84154 0
M  V30 3093 C 302.327 -4.24311 1.28355 0
M  V30 3094 H 299.547 -0.580716 0.336169 0
M  V30 3095 H 302.091 -1.36077 1.52654 0
M  V30 3096 H 300.246 -3.76594 0.908625 0
M  V30 3097 H 300.66 -4.25427 3.06777 0
M  V30 3098 H 302.134 -5.2573 1.68261 0
M  V30 3099 H 302.611 -4.38612 0.227184 0
M  V30 3100 H 303.217 -3.84836 1.81056 0
M  V30 3101 N 301.532 -0.945985 -1.26051 0
M  V30 3102 C 302.48 -0.450259 -2.282 0
M  V30 3103 C 303.474 0.47497 -1.62605 0
M  V30 3104 O 304.68 0.352653 -1.76512 0
M  V30 3105 H 301.055 -0.127081 -0.741184 0
M  V30 3106 H 303.026 -1.32422 -2.67408 0
M  V30 3107 C 301.775 0.26467 -3.46691 0
M  V30 3108 H 301.098 -0.438123 -3.97392 0
M  V30 3109 H 302.538 0.575678 -4.20074 0
M  V30 3110 C 300.997 1.48416 -3.02447 0
M  V30 3111 O 301.527 2.58227 -3.07704 0
M  V30 3112 N 299.733 1.34243 -2.57735 0
M  V30 3113 H 299.28 0.448994 -2.53657 0
M  V30 3114 H 299.238 2.15957 -2.28495 0
M  V30 3115 N 303.011 1.40521 -0.713556 0
M  V30 3116 C 304.259 2.00527 -0.251692 0
M  V30 3117 C 304.58 1.56857 1.15848 0
M  V30 3118 O 303.85 0.807127 1.785 0
M  V30 3119 H 302.43 0.741551 -0.0900646 0
M  V30 3120 H 305.092 1.71887 -0.918733 0
M  V30 3121 H 304.188 3.10813 -0.283192 0
M  V30 3122 N 304.489 0.459591 1.5075 0
M  V30 3123 C 305.737 -0.0991532 2.01857 0
M  V30 3124 C 306.058 -1.41247 1.34441 0
M  V30 3125 O 305.328 -1.89775 0.486022 0
M  V30 3126 H 303.908 -0.039633 0.745948 0
M  V30 3127 H 306.57 0.607387 1.85194 0
M  V30 3128 H 305.666 -0.258998 3.11023 0
M  V30 3129 N 305.967 -1.56429 0.191757 0
M  V30 3130 C 307.216 -1.9666 -0.448088 0
M  V30 3131 C 307.529 -1.08136 -1.62991 0
M  V30 3132 O 308.735 -1.38135 -2.33733 0
M  V30 3133 C 307.191 -3.49753 -0.848585 0
M  V30 3134 C 306.799 -4.46935 0.308764 0
M  V30 3135 C 308.543 -3.9876 -1.4557 0
M  V30 3136 C 306.45 -5.91293 -0.112506 0
M  V30 3137 H 305.38 -0.734312 -0.171179 0
M  V30 3138 H 308.031 -1.81301 0.283242 0
M  V30 3139 H 306.413 -3.60604 -1.63649 0
M  V30 3140 H 307.587 -4.47813 1.08627 0
M  V30 3141 H 305.902 -4.08102 0.827158 0
M  V30 3142 H 308.499 -5.04086 -1.78328 0
M  V30 3143 H 308.842 -3.42875 -2.36099 0
M  V30 3144 H 309.375 -3.9101 -0.731836 0
M  V30 3145 H 306.114 -6.51097 0.758514 0
M  V30 3146 H 305.634 -5.93676 -0.854941 0
M  V30 3147 H 307.313 -6.44663 -0.549448 0
M  V30 3148 N 307.445 0.0818655 -1.57387 0
M  V30 3149 C 308.691 0.784074 -1.8703 0
M  V30 3150 C 309.024 1.77729 -0.782689 0
M  V30 3151 O 308.299 1.93384 0.208051 0
M  V30 3152 C 308.582 1.50105 -3.27323 0
M  V30 3153 C 308.435 0.524925 -4.46727 0
M  V30 3154 C 309.754 2.44843 -3.65705 0
M  V30 3155 H 306.873 0.283582 -0.680257 0
M  V30 3156 H 309.515 0.0474352 -1.89941 0
M  V30 3157 H 307.665 2.12897 -3.24972 0
M  V30 3158 H 309.337 -0.0970111 -4.61198 0
M  V30 3159 H 307.58 -0.160606 -4.33503 0
M  V30 3160 H 308.251 1.064 -5.41648 0
M  V30 3161 H 310.727 1.92135 -3.69085 0
M  V30 3162 H 309.603 2.92018 -4.64776 0
M  V30 3163 H 309.864 3.29197 -2.95096 0
M  V30 3164 N 308.923 1.53595 0.353017 0
M  V30 3165 C 310.151 1.74311 1.1146 0
M  V30 3166 C 310.566 0.477854 1.82653 0
M  V30 3167 O 309.923 -0.549977 1.74016 0
M  V30 3168 C 309.974 2.91694 2.13534 0
M  V30 3169 O 309.695 4.13325 1.45238 0
M  V30 3170 C 311.196 3.24384 3.02142 0
M  V30 3171 H 308.416 0.582669 0.332773 0
M  V30 3172 H 310.96 2.00386 0.408107 0
M  V30 3173 H 309.115 2.67977 2.79763 0
M  V30 3174 H 309.529 4.79148 2.13349 0
M  V30 3175 H 311.003 4.09893 3.69718 0
M  V30 3176 H 311.48 2.40282 3.67643 0
M  V30 3177 H 312.086 3.50073 2.41514 0
M  V30 3178 N 310.401 -0.613514 1.45168 0
M  V30 3179 C 311.649 -1.36997 1.48581 0
M  V30 3180 C 311.97 -1.94589 0.126545 0
M  V30 3181 O 311.24 -1.76816 -0.843372 0
M  V30 3182 H 309.82 -0.508558 0.547154 0
M  V30 3183 H 312.482 -0.720853 1.81079 0
M  V30 3184 H 311.578 -2.1924 2.22127 0
M  V30 3185 N 311.879 -1.3236 -0.855495 0
M  V30 3186 C 313.156 -1.13491 -1.59309 0
M  V30 3187 C 313.536 0.30503 -2.08885 0
M  V30 3188 O 312.884 1.30151 -1.87811 0
M  V30 3189 C 313.094 -2.16176 -2.73987 0
M  V30 3190 C 314.442 -2.49463 -3.43589 0
M  V30 3191 O 315.466 -2.14715 -2.84211 0
M  V30 3192 O 314.325 -3.09027 -4.50738 0
M  V30 3193 H 311.419 -0.437887 -0.701559 0
M  V30 3194 H 313.965 -1.43887 -0.899696 0
M  V30 3195 H 312.737 -3.1297 -2.34873 0
M  V30 3196 H 312.36 -1.86769 -3.51003 0
M  V30 3197 N 313.357 1.07166 -1.15556 0
M  V30 3198 C 314.605 1.79443 -0.929764 0
M  V30 3199 C 314.926 1.87246 0.544414 0
M  V30 3200 O 314.196 1.37473 1.39564 0
M  V30 3201 H 312.776 0.664625 -0.341003 0
M  V30 3202 H 315.438 1.29499 -1.45657 0
M  V30 3203 H 314.534 2.81832 -1.34079 0
M  V30 3204 N 314.835 0.952656 1.25548 0
M  V30 3205 C 315.768 0.415525 2.24385 0
M  V30 3206 C 316.746 -0.502046 1.54655 0
M  V30 3207 O 317.93 -0.436875 1.83368 0
M  V30 3208 C 315.057 -0.401734 3.36309 0
M  V30 3209 C 314.103 0.455949 4.24056 0
M  V30 3210 S 314.936 1.88698 5.01152 0
M  V30 3211 C 316.092 1.07809 6.16545 0
M  V30 3212 H 316.325 1.25315 2.69599 0
M  V30 3213 H 313.858 0.756587 1.34592 0
M  V30 3214 H 315.816 -0.867329 4.01233 0
M  V30 3215 H 314.477 -1.21416 2.89684 0
M  V30 3216 H 313.67 -0.170776 5.03711 0
M  V30 3217 H 313.272 0.856675 3.64056 0
M  V30 3218 H 315.564 0.325816 6.76716 0
M  V30 3219 H 316.507 1.84849 6.83547 0
M  V30 3220 H 316.915 0.60909 5.61204 0
M  V30 3221 N 316.313 -1.40141 0.720998 0
M  V30 3222 C 317.561 -2.0039 0.262323 0
M  V30 3223 C 317.882 -1.57469 -1.15015 0
M  V30 3224 O 317.152 -0.816582 -1.78069 0
M  V30 3225 H 315.732 -0.741063 0.093996 0
M  V30 3226 H 318.394 -1.71398 0.927835 0
M  V30 3227 H 317.49 -3.10658 0.299671 0
M  V30 3228 N 317.792 -0.46758 -1.50504 0
M  V30 3229 C 318.725 0.374324 -2.25109 0
M  V30 3230 C 319.703 0.99921 -1.28275 0
M  V30 3231 O 320.887 1.03583 -1.57489 0
M  V30 3232 C 318.014 1.52419 -3.02467 0
M  V30 3233 C 317.06 1.01702 -4.14197 0
M  V30 3234 S 317.893 -0.0654477 -5.3546 0
M  V30 3235 C 319.049 1.08837 -6.16365 0
M  V30 3236 H 319.282 -0.258983 -2.9617 0
M  V30 3237 H 316.815 -0.252421 -1.52323 0
M  V30 3238 H 318.773 2.18322 -3.47628 0
M  V30 3239 H 317.434 2.129 -2.30938 0
M  V30 3240 H 316.627 1.87776 -4.67714 0
M  V30 3241 H 316.229 0.435757 -3.71453 0
M  V30 3242 H 318.521 2.00071 -6.47285 0
M  V30 3243 H 319.464 0.592538 -7.05616 0
M  V30 3244 H 319.872 1.34061 -5.4835 0
M  V30 3245 N 319.27 1.56325 -0.20005 0
M  V30 3246 C 320.233 2.18084 0.705132 0
M  V30 3247 C 321.233 1.13666 1.1374 0
M  V30 3248 O 322.423 1.39023 1.04968 0
M  V30 3249 C 319.555 2.78689 1.96329 0
M  V30 3250 H 320.748 2.99435 0.167023 0
M  V30 3251 H 318.301 1.56221 0.0495725 0
M  V30 3252 H 319.036 2.0115 2.5438 0
M  V30 3253 H 318.821 3.55133 1.66202 0
M  V30 3254 H 320.311 3.26096 2.60866 0
M  V30 3255 N 320.748 -0.0735177 1.57428 0
M  V30 3256 C 321.678 -1.0879 2.06608 0
M  V30 3257 C 322.659 -1.40473 0.959237 0
M  V30 3258 O 323.844 -1.5013 1.23185 0
M  V30 3259 C 320.974 -2.40183 2.50857 0
M  V30 3260 C 319.928 -2.22858 3.65402 0
M  V30 3261 C 319.254 -3.59619 3.957 0
M  V30 3262 C 320.554 -1.65123 4.95511 0
M  V30 3263 H 322.248 -0.678673 2.91607 0
M  V30 3264 H 319.794 -0.325013 1.40284 0
M  V30 3265 H 321.747 -3.11437 2.83874 0
M  V30 3266 H 320.471 -2.83083 1.62885 0
M  V30 3267 H 319.13 -1.54045 3.32664 0
M  V30 3268 H 318.778 -4.00086 3.04861 0
M  V30 3269 H 318.478 -3.48866 4.72828 0
M  V30 3270 H 320.002 -4.32306 4.31212 0
M  V30 3271 H 321.416 -2.26241 5.26771 0
M  V30 3272 H 319.813 -1.65071 5.7695 0
M  V30 3273 H 320.883 -0.612559 4.81015 0
M  V30 3274 N 322.226 -1.5378 -0.344866 0
M  V30 3275 C 323.451 -1.75211 -1.10977 0
M  V30 3276 C 323.876 -0.48936 -1.81623 0
M  V30 3277 O 323.234 0.557925 -1.72502 0
M  V30 3278 C 323.282 -2.93147 -2.09993 0
M  V30 3279 O 322.386 -2.63203 -3.17487 0
M  V30 3280 H 321.727 -0.581241 -0.321021 0
M  V30 3281 H 324.257 -2.00738 -0.395661 0
M  V30 3282 H 324.267 -3.19898 -2.53237 0
M  V30 3283 H 322.942 -3.84731 -1.5797 0
M  V30 3284 H 321.519 -2.47336 -2.79069 0
M  V30 3285 N 323.704 0.605807 -1.45491 0
M  V30 3286 C 324.654 1.71074 -1.50724 0
M  V30 3287 C 325.638 1.5658 -0.37033 0
M  V30 3288 O 326.83 1.65887 -0.617299 0
M  V30 3289 C 323.959 3.0983 -1.47852 0
M  V30 3290 C 323.045 3.29704 -2.66751 0
M  V30 3291 N 323.436 3.19831 -3.91844 0
M  V30 3292 C 321.734 3.60579 -2.62486 0
M  V30 3293 C 322.435 3.41083 -4.71208 0
M  V30 3294 N 321.411 3.65157 -4.02693 0
M  V30 3295 H 325.213 1.61937 -2.45263 0
M  V30 3296 H 322.727 0.80912 -1.40808 0
M  V30 3297 H 324.724 3.89101 -1.49686 0
M  V30 3298 H 323.384 3.20115 -0.543714 0
M  V30 3299 H 324.395 2.98194 -4.23439 0
M  V30 3300 H 321.072 3.7769 -1.77922 0
M  V30 3301 H 322.462 3.38828 -5.80211 0
M  V30 3302 N 325.182 1.32811 0.848464 0
M  V30 3303 C 326.43 1.23479 1.59991 0
M  V30 3304 C 326.751 -0.201853 1.93952 0
M  V30 3305 O 326.021 -1.12818 1.60153 0
M  V30 3306 H 324.601 0.454034 0.593179 0
M  V30 3307 H 327.263 1.66412 1.01455 0
M  V30 3308 H 326.359 1.82178 2.53412 0
M  V30 3309 N 326.66 -1.06551 1.16123 0
M  V30 3310 C 327.906 -1.79567 0.94252 0
M  V30 3311 C 328.239 -1.86869 -0.528547 0
M  V30 3312 O 327.514 -1.35838 -1.39206 0
M  V30 3313 C 327.797 -3.24195 1.56747 0
M  V30 3314 C 327.65 -3.24989 3.10969 0
M  V30 3315 C 328.969 -4.21678 1.25998 0
M  V30 3316 H 326.088 -0.651883 0.343828 0
M  V30 3317 H 328.73 -1.2463 1.43413 0
M  V30 3318 H 326.88 -3.71107 1.14942 0
M  V30 3319 H 328.552 -2.86258 3.61737 0
M  V30 3320 H 326.795 -2.63716 3.44436 0
M  V30 3321 H 327.466 -4.27005 3.49815 0
M  V30 3322 H 329.942 -3.83196 1.62174 0
M  V30 3323 H 328.818 -5.21146 1.7233 0
M  V30 3324 H 329.079 -4.4174 0.178367 0
M  V30 3325 N 328.138 -0.959301 -1.25041 0
M  V30 3326 C 329.549 -0.65667 -1.74771 0
M  V30 3327 C 329.9 0.827852 -1.77879 0
M  V30 3328 O 329.025 1.64783 -1.40269 0
M  V30 3329 C 329.62 -1.1853 -3.1739 0
M  V30 3330 C 328.179 -0.932734 -3.6466 0
M  V30 3331 C 327.326 -1.32558 -2.43564 0
M  V30 3332 H 330.277 -1.13558 -1.10862 0
M  V30 3333 H 330.298 -0.547582 -3.76539 0
M  V30 3334 H 329.81 -2.26576 -3.15095 0
M  V30 3335 H 327.911 0.13257 -3.72364 0
M  V30 3336 H 328.024 -1.57248 -4.52559 0
M  V30 3337 H 326.388 -0.743956 -2.43593 0
M  V30 3338 H 327.171 -2.41537 -2.43957 0
M  V30 3339 N 329.616 1.39756 -0.72842 0
M  V30 3340 C 330.546 2.33289 -0.0991354 0
M  V30 3341 C 331.527 1.53568 0.731489 0
M  V30 3342 O 332.712 1.81987 0.677807 0
M  V30 3343 C 329.842 3.3763 0.813834 0
M  V30 3344 C 328.796 4.2791 0.0878663 0
M  V30 3345 C 328.122 5.22894 1.11741 0
M  V30 3346 C 329.422 5.11314 -1.06563 0
M  V30 3347 H 331.116 2.86163 -0.880408 0
M  V30 3348 H 328.662 1.37591 -0.424819 0
M  V30 3349 H 330.615 4.0201 1.26355 0
M  V30 3350 H 329.339 2.83181 1.62715 0
M  V30 3351 H 327.998 3.65 -0.342159 0
M  V30 3352 H 327.646 4.64744 1.92412 0
M  V30 3353 H 327.346 5.84143 0.636477 0
M  V30 3354 H 328.87 5.90151 1.56697 0
M  V30 3355 H 330.284 5.69076 -0.694671 0
M  V30 3356 H 328.681 5.81671 -1.47577 0
M  V30 3357 H 329.751 4.46534 -1.89038 0
M  V30 3358 N 331.094 0.475555 1.50254 0
M  V30 3359 C 332.51 0.12997 1.5907 0
M  V30 3360 C 332.71 -1.36385 1.48328 0
M  V30 3361 O 331.766 -2.13754 1.34407 0
M  V30 3362 C 333.079 0.684139 2.92814 0
M  V30 3363 C 334.627 0.647965 3.0622 0
M  V30 3364 C 335.102 1.17975 4.42545 0
M  V30 3365 N 336.593 1.13936 4.48969 0
M  V30 3366 C 337.328 1.52129 5.52851 0
M  V30 3367 N 336.824 1.97793 6.63965 0
M  V30 3368 N 338.617 1.43704 5.4342 0
M  V30 3369 H 330.768 1.44706 1.55479 0
M  V30 3370 H 333.031 0.598691 0.735033 0
M  V30 3371 H 332.737 1.73079 3.06164 0
M  V30 3372 H 332.611 0.130204 3.76975 0
M  V30 3373 H 334.998 -0.38979 2.92514 0
M  V30 3374 H 335.079 1.23876 2.23805 0
M  V30 3375 H 334.723 2.21616 4.57 0
M  V30 3376 H 334.653 0.565138 5.23559 0
M  V30 3377 H 337.144 0.804488 3.69238 0
M  V30 3378 H 337.457 2.25072 7.39299 0
M  V30 3379 H 335.802 2.01749 6.65073 0
M  V30 3380 H 338.993 1.07867 4.55502 0
M  V30 3381 H 339.166 1.73794 6.24259 0
M  V30 3382 N 332.573 -1.56217 0.208337 0
M  V30 3383 C 333.85 -1.89739 -0.475234 0
M  V30 3384 C 334.23 -1.1238 -1.78701 0
M  V30 3385 O 333.578 -0.228979 -2.2735 0
M  V30 3386 C 333.788 -3.42289 -0.681101 0
M  V30 3387 C 335.136 -4.12789 -0.994507 0
M  V30 3388 O 336.16 -3.47814 -0.768357 0
M  V30 3389 O 335.019 -5.27649 -1.42299 0
M  V30 3390 H 332.113 -0.788478 -0.249461 0
M  V30 3391 H 334.659 -1.67855 0.249538 0
M  V30 3392 H 333.431 -3.90534 0.244722 0
M  V30 3393 H 333.054 -3.69909 -1.45785 0
M  V30 3394 N 334.051 0.0651679 -1.57465 0
M  V30 3395 C 334.984 1.10876 -1.99453 0
M  V30 3396 C 335.962 1.37205 -0.872555 0
M  V30 3397 O 337.146 1.50468 -1.13542 0
M  V30 3398 C 334.273 2.45167 -2.3369 0
M  V30 3399 C 333.319 2.3493 -3.55964 0
M  V30 3400 S 334.152 1.73708 -5.06543 0
M  V30 3401 C 335.308 3.09563 -5.43987 0
M  V30 3402 H 335.541 0.750967 -2.87659 0
M  V30 3403 H 333.074 0.273933 -1.51951 0
M  V30 3404 H 335.032 3.22412 -2.54088 0
M  V30 3405 H 333.693 2.78105 -1.46001 0
M  V30 3406 H 332.886 3.3398 -3.77457 0
M  V30 3407 H 332.488 1.65823 -3.3523 0
M  V30 3408 H 334.78 4.05882 -5.42463 0
M  V30 3409 H 335.723 2.92843 -6.44708 0
M  V30 3410 H 336.131 3.10474 -4.71451 0
M  V30 3411 N 335.529 1.53961 0.336706 0
M  V30 3412 C 336.439 1.85432 1.43708 0
M  V30 3413 C 337.455 0.745053 1.57242 0
M  V30 3414 O 338.631 1.03804 1.72588 0
M  V30 3415 C 335.696 2.06349 2.78605 0
M  V30 3416 C 334.757 3.30191 2.74358 0
M  V30 3417 C 333.99 3.50101 4.02822 0
M  V30 3418 O 334.213 2.7371 5.00439 0
M  V30 3419 O 333.147 4.43547 4.06878 0
M  V30 3420 H 336.973 2.78975 1.20028 0
M  V30 3421 H 334.558 1.39701 0.52952 0
M  V30 3422 H 336.44 2.21513 3.58483 0
M  V30 3423 H 335.115 1.15995 3.02203 0
M  V30 3424 H 334.022 3.20425 1.93078 0
M  V30 3425 H 335.355 4.2056 2.55715 0
M  V30 3426 N 337.007 -0.598083 1.45811 0
M  V30 3427 C 338.254 -1.35681 1.50323 0
M  V30 3428 C 338.582 -1.9393 0.148739 0
M  V30 3429 O 337.837 -1.76094 -0.853787 0
M  V30 3430 C 338.136 -2.51669 2.53766 0
M  V30 3431 C 337.802 -2.11508 3.98215 0
M  V30 3432 C 336.464 -2.0027 4.37545 0
M  V30 3433 C 338.816 -1.80308 4.89018 0
M  V30 3434 C 336.144 -1.56067 5.65562 0
M  V30 3435 C 338.496 -1.37589 6.17456 0
M  V30 3436 C 337.16 -1.24916 6.55708 0
M  V30 3437 H 336.43 -0.496492 0.550069 0
M  V30 3438 H 339.077 -0.675052 1.79207 0
M  V30 3439 H 337.382 -3.25225 2.18486 0
M  V30 3440 H 339.079 -3.09895 2.54492 0
M  V30 3441 H 335.669 -2.21185 3.67117 0
M  V30 3442 H 339.853 -1.87884 4.59362 0
M  V30 3443 H 335.109 -1.44886 5.93985 0
M  V30 3444 H 339.283 -1.12495 6.87254 0
M  V30 3445 H 336.91 -0.904386 7.54801 0
M  V30 3446 N 338.485 -1.33259 -0.841409 0
M  V30 3447 C 339.731 -1.24757 -1.59886 0
M  V30 3448 C 340.064 0.186913 -1.93298 0
M  V30 3449 O 339.339 1.12757 -1.5848 0
M  V30 3450 C 339.622 -2.12036 -2.91055 0
M  V30 3451 C 339.475 -3.63929 -2.6434 0
M  V30 3452 C 340.794 -1.9916 -3.92458 0
M  V30 3453 H 337.913 -0.454542 -0.580138 0
M  V30 3454 H 340.555 -1.63335 -0.970647 0
M  V30 3455 H 338.705 -1.79265 -3.44669 0
M  V30 3456 H 340.377 -4.06978 -2.17178 0
M  V30 3457 H 338.62 -3.85935 -1.98082 0
M  V30 3458 H 339.291 -4.20341 -3.57796 0
M  V30 3459 H 341.767 -2.27895 -3.48143 0
M  V30 3460 H 340.643 -2.62484 -4.82072 0
M  V30 3461 H 340.904 -0.963082 -4.31482 0
M  V30 3462 N 339.963 1.05934 -1.16686 0
M  V30 3463 C 340.895 2.13468 -0.834503 0
M  V30 3464 C 341.908 1.62013 0.15984 0
M  V30 3465 O 343.097 1.7838 -0.0654228 0
M  V30 3466 C 340.197 3.3817 -0.222361 0
M  V30 3467 C 339.37 4.18928 -1.25771 0
M  V30 3468 C 338.429 5.21985 -0.664703 0
M  V30 3469 O 337.455 5.53334 -1.33453 0
M  V30 3470 N 338.657 5.77919 0.546834 0
M  V30 3471 H 341.422 2.42578 -1.75999 0
M  V30 3472 H 338.983 1.21967 -1.06469 0
M  V30 3473 H 340.975 4.04266 0.187472 0
M  V30 3474 H 339.545 3.06655 0.606758 0
M  V30 3475 H 338.765 3.48433 -1.84358 0
M  V30 3476 H 340.053 4.69687 -1.95631 0
M  V30 3477 H 339.451 5.54721 1.10912 0
M  V30 3478 H 338.008 6.45573 0.898829 0
M  V30 3479 N 341.441 0.965919 1.2453 0
M  V30 3480 C 342.671 0.643451 1.96324 0
M  V30 3481 C 343.079 -0.790927 1.71875 0
M  V30 3482 O 342.422 -1.54208 0.998273 0
M  V30 3483 C 342.484 0.836078 3.49643 0
M  V30 3484 C 342.148 2.24975 3.97788 0
M  V30 3485 C 343.145 3.22735 4.07601 0
M  V30 3486 C 340.83 2.57697 4.31158 0
M  V30 3487 C 342.824 4.51303 4.50116 0
M  V30 3488 C 340.511 3.86492 4.73357 0
M  V30 3489 C 341.509 4.83107 4.828 0
M  V30 3490 O 341.197 6.09605 5.24058 0
M  V30 3491 H 340.929 0.239223 0.632257 0
M  V30 3492 H 343.483 1.29587 1.59362 0
M  V30 3493 H 341.713 0.12649 3.86493 0
M  V30 3494 H 343.402 0.512965 4.02646 0
M  V30 3495 H 344.168 2.98783 3.82039 0
M  V30 3496 H 340.047 1.83216 4.23028 0
M  V30 3497 H 343.591 5.26716 4.57401 0
M  V30 3498 H 339.488 4.10245 4.98366 0
M  V30 3499 H 340.256 6.13146 5.42213 0
M  V30 3500 N 342.919 -1.39368 0.735821 0
M  V30 3501 C 343.869 -2.27885 0.0724287 0
M  V30 3502 C 344.853 -1.44301 -0.711756 0
M  V30 3503 O 346.045 -1.67206 -0.58063 0
M  V30 3504 C 343.174 -3.33029 -0.833454 0
M  V30 3505 C 342.26 -4.24078 -0.0433749 0
M  V30 3506 N 342.651 -4.96138 0.983903 0
M  V30 3507 C 340.949 -4.45164 -0.272905 0
M  V30 3508 C 341.65 -5.63069 1.4604 0
M  V30 3509 N 340.626 -5.37991 0.778857 0
M  V30 3510 H 344.428 -2.81052 0.859467 0
M  V30 3511 H 341.942 -1.5206 0.570227 0
M  V30 3512 H 343.939 -3.95311 -1.32419 0
M  V30 3513 H 342.599 -2.81421 -1.61964 0
M  V30 3514 H 343.61 -4.9958 1.36528 0
M  V30 3515 H 340.287 -4.04497 -1.03383 0
M  V30 3516 H 341.677 -6.30755 2.31511 0
M  V30 3517 N 344.397 -0.483516 -1.5 0
M  V30 3518 C 345.808 -0.0314176 -1.86674 0
M  V30 3519 C 346.159 1.37728 -1.39733 0
M  V30 3520 O 345.284 2.02327 -0.767635 0
M  V30 3521 C 345.879 -0.0502376 -3.38763 0
M  V30 3522 C 344.438 0.346442 -3.74802 0
M  V30 3523 C 343.585 -0.430366 -2.7394 0
M  V30 3524 H 346.536 -0.697182 -1.42566 0
M  V30 3525 H 346.557 0.749116 -3.73053 0
M  V30 3526 H 346.069 -1.07563 -3.72897 0
M  V30 3527 H 344.17 1.37572 -3.46273 0
M  V30 3528 H 344.283 0.0391486 -4.79084 0
M  V30 3529 H 342.647 0.117557 -2.54429 0
M  V30 3530 H 343.43 -1.4555 -3.10918 0
M  V30 3531 N 345.875 1.56104 -0.216619 0
M  V30 3532 C 347.103 2.02563 0.421413 0
M  V30 3533 C 347.518 1.0965 1.53695 0
M  V30 3534 O 346.875 0.10521 1.82196 0
M  V30 3535 C 346.926 3.48584 0.957665 0
M  V30 3536 O 346.647 4.37953 -0.113389 0
M  V30 3537 C 348.148 4.10664 1.66943 0
M  V30 3538 H 345.368 0.662944 0.103665 0
M  V30 3539 H 347.912 2.01793 -0.331629 0
M  V30 3540 H 346.067 3.49985 1.661 0
M  V30 3541 H 346.481 5.23704 0.288932 0
M  V30 3542 H 347.955 5.14622 1.99671 0
M  V30 3543 H 348.432 3.55373 2.58083 0
M  V30 3544 H 349.038 4.13098 1.01142 0
M  V30 3545 N 347.353 -0.0568162 1.57498 0
M  V30 3546 C 348.601 -0.751617 1.87604 0
M  V30 3547 C 348.922 -1.77351 0.81066 0
M  V30 3548 O 348.192 -1.95254 -0.159018 0
M  V30 3549 H 346.772 -0.280583 0.692302 0
M  V30 3550 H 349.434 -0.0293483 1.94878 0
M  V30 3551 H 348.53 -1.25852 2.856 0
M  V30 3552 N 348.832 -1.54138 -0.328536 0
M  V30 3553 C 349.762 -1.86167 -1.40939 0
M  V30 3554 C 350.743 -0.718044 -1.54202 0
M  V30 3555 O 351.928 -0.971328 -1.68163 0
M  V30 3556 C 349.058 -2.08461 -2.77779 0
M  V30 3557 C 348.012 -3.24299 -2.7931 0
M  V30 3558 C 347.338 -3.31955 -4.19178 0
M  V30 3559 C 348.638 -4.62065 -2.43502 0
M  V30 3560 H 350.332 -2.76689 -1.14383 0
M  V30 3561 H 347.878 -1.33132 -0.548806 0
M  V30 3562 H 349.831 -2.29453 -3.53454 0
M  V30 3563 H 348.555 -1.14684 -3.05802 0
M  V30 3564 H 347.214 -3.03187 -2.0609 0
M  V30 3565 H 346.862 -2.35745 -4.44335 0
M  V30 3566 H 346.562 -4.09805 -4.2111 0
M  V30 3567 H 348.086 -3.55175 -4.96672 0
M  V30 3568 H 349.5 -4.8297 -3.08889 0
M  V30 3569 H 347.897 -5.42429 -2.56693 0
M  V30 3570 H 348.967 -4.64652 -1.38659 0
M  V30 3571 N 350.31 0.590341 -1.46126 0
M  V30 3572 C 351.721 1.17243 -1.45296 0
M  V30 3573 C 352.072 1.95281 -0.189723 0
M  V30 3574 O 351.197 2.04502 0.707674 0
M  V30 3575 C 351.792 2.13284 -2.6324 0
M  V30 3576 C 350.351 2.66832 -2.65476 0
M  V30 3577 C 349.498 1.42557 -2.3785 0
M  V30 3578 H 352.449 0.378692 -1.54116 0
M  V30 3579 H 352.47 2.96619 -2.38323 0
M  V30 3580 H 351.982 1.56459 -3.55165 0
M  V30 3581 H 350.083 3.27548 -1.77603 0
M  V30 3582 H 350.196 3.10088 -3.65215 0
M  V30 3583 H 348.56 1.72107 -1.87753 0
M  V30 3584 H 349.343 0.875741 -3.31942 0
M  V30 3585 N 351.788 1.33704 0.83433 0
M  V30 3586 C 353.036 1.25169 1.58673 0
M  V30 3587 C 353.357 -0.18127 1.94156 0
M  V30 3588 O 352.627 -1.11113 1.6134 0
M  V30 3589 H 351.207 0.4603 0.58833 0
M  V30 3590 H 353.869 1.67478 0.996847 0
M  V30 3591 H 352.965 1.84856 2.51465 0
M  V30 3592 N 353.266 -1.05314 1.17247 0
M  V30 3593 C 354.491 -1.82509 0.985148 0
M  V30 3594 C 354.916 -1.82343 -0.461788 0
M  V30 3595 O 354.274 -1.23151 -1.33055 0
M  V30 3596 C 354.322 -3.26566 1.52929 0
M  V30 3597 O 353.426 -4.05666 0.742225 0
M  V30 3598 H 352.767 -0.564347 0.349869 0
M  V30 3599 H 355.297 -1.32718 1.55715 0
M  V30 3600 H 355.307 -3.77369 1.55103 0
M  V30 3601 H 353.982 -3.26001 2.58256 0
M  V30 3602 H 352.559 -3.64397 0.791794 0
M  V30 3603 N 354.744 -0.972509 -1.24016 0
M  V30 3604 C 355.992 -0.635776 -1.91839 0
M  V30 3605 C 356.313 0.832312 -1.76345 0
M  V30 3606 O 355.583 1.5946 -1.13795 0
M  V30 3607 H 354.163 -0.232157 -0.710009 0
M  V30 3608 H 356.825 -1.23462 -1.50809 0
M  V30 3609 H 355.921 -0.880545 -2.99421 0
M  V30 3610 N 356.222 1.38976 -0.743202 0
M  V30 3611 C 357.471 1.99581 -0.291592 0
M  V30 3612 C 357.784 1.59656 1.13001 0
M  V30 3613 O 358.99 2.13157 1.68156 0
M  V30 3614 C 357.446 3.56813 -0.470391 0
M  V30 3615 C 357.054 4.05695 -1.90041 0
M  V30 3616 C 358.798 4.24423 -0.0809709 0
M  V30 3617 C 356.705 5.5553 -2.02832 0
M  V30 3618 H 355.635 0.746615 -0.105272 0
M  V30 3619 H 358.286 1.58872 -0.918258 0
M  V30 3620 H 356.668 3.95359 0.225299 0
M  V30 3621 H 357.842 3.78464 -2.62872 0
M  V30 3622 H 356.157 3.50775 -2.24379 0
M  V30 3623 H 358.754 5.34474 -0.155445 0
M  V30 3624 H 359.097 4.04962 0.96497 0
M  V30 3625 H 359.63 3.9108 -0.728124 0
M  V30 3626 H 356.369 5.79881 -3.05643 0
M  V30 3627 H 355.889 5.84537 -1.34448 0
M  V30 3628 H 357.568 6.21069 -1.81335 0
M  V30 3629 N 357.7 0.491464 1.49741 0
M  V30 3630 C 358.63 -0.28154 2.31796 0
M  V30 3631 C 359.611 -0.971473 1.3963 0
M  V30 3632 O 360.796 -0.964719 1.68543 0
M  V30 3633 C 357.926 -1.35203 3.19902 0
M  V30 3634 C 356.88 -0.782529 4.20786 0
M  V30 3635 C 356.206 -1.95283 4.97764 0
M  V30 3636 C 357.506 0.21999 5.21837 0
M  V30 3637 H 359.2 0.403355 2.96671 0
M  V30 3638 H 356.746 0.195425 1.42668 0
M  V30 3639 H 358.699 -1.90045 3.76113 0
M  V30 3640 H 357.423 -2.06598 2.52953 0
M  V30 3641 H 356.082 -0.255928 3.65706 0
M  V30 3642 H 355.73 -2.65423 4.2727 0
M  V30 3643 H 355.43 -1.57789 5.66018 0
M  V30 3644 H 356.954 -2.50577 5.56816 0
M  V30 3645 H 358.368 -0.23996 5.72798 0
M  V30 3646 H 356.765 0.51026 5.97927 0
M  V30 3647 H 357.835 1.13911 4.7133 0
M  V30 3648 N 359.178 -1.55987 0.224894 0
M  V30 3649 C 360.111 -2.16413 -0.723929 0
M  V30 3650 C 361.089 -1.10952 -1.18863 0
M  V30 3651 O 362.273 -1.39225 -1.27077 0
M  V30 3652 C 359.4 -2.74711 -1.98121 0
M  V30 3653 C 358.446 -3.9303 -1.6562 0
M  V30 3654 S 359.279 -5.29817 -0.778058 0
M  V30 3655 C 360.435 -5.91555 -2.04483 0
M  V30 3656 H 360.668 -2.96555 -0.210347 0
M  V30 3657 H 358.201 -1.54397 0.00955457 0
M  V30 3658 H 360.159 -3.08938 -2.70311 0
M  V30 3659 H 358.82 -1.94555 -2.46591 0
M  V30 3660 H 358.013 -4.32334 -2.59043 0
M  V30 3661 H 357.615 -3.59966 -1.01491 0
M  V30 3662 H 359.907 -6.07732 -2.99446 0
M  V30 3663 H 360.85 -6.87498 -1.69563 0
M  V30 3664 H 361.258 -5.20419 -2.18688 0
M  V30 3665 N 360.656 0.0484629 -1.57525 0
M  V30 3666 C 361.884 0.755421 -1.92616 0
M  V30 3667 C 362.299 1.69919 -0.822984 0
M  V30 3668 O 361.656 1.81378 0.202085 0
M  V30 3669 C 361.707 1.52915 -3.27566 0
M  V30 3670 O 361.428 0.62329 -4.33644 0
M  V30 3671 C 362.929 2.33502 -3.76818 0
M  V30 3672 H 360.149 0.213465 -0.63614 0
M  V30 3673 H 362.693 0.0117698 -2.04497 0
M  V30 3674 H 360.848 2.22486 -3.17142 0
M  V30 3675 H 361.262 1.16383 -5.11425 0
M  V30 3676 H 362.736 2.83214 -4.73808 0
M  V30 3677 H 363.213 3.14068 -3.07014 0
M  V30 3678 H 363.819 1.69043 -3.90262 0
M  V30 3679 N 362.134 1.5431 0.320358 0
M  V30 3680 C 363.044 1.86946 1.41734 0
M  V30 3681 C 364.06 0.761689 1.56443 0
M  V30 3682 O 365.236 1.05629 1.71477 0
M  V30 3683 C 362.301 2.09293 2.76401 0
M  V30 3684 C 361.362 3.33082 2.70841 0
M  V30 3685 C 360.595 3.54353 3.99086 0
M  V30 3686 O 360.818 2.79002 4.97508 0
M  V30 3687 O 359.752 4.47838 4.0215 0
M  V30 3688 H 363.578 2.80232 1.17062 0
M  V30 3689 H 361.163 1.40255 0.514673 0
M  V30 3690 H 363.045 2.25303 3.56113 0
M  V30 3691 H 361.72 1.19194 3.00956 0
M  V30 3692 H 360.627 3.22454 1.89668 0
M  V30 3693 H 361.96 4.23249 2.5124 0
M  V30 3694 N 363.613 -0.582584 1.46437 0
M  V30 3695 C 364.861 -1.33814 1.51453 0
M  V30 3696 C 365.182 -1.94277 0.167792 0
M  V30 3697 O 364.452 -1.78566 -0.805677 0
M  V30 3698 H 363.032 -0.496838 0.557818 0
M  V30 3699 H 365.694 -0.682281 1.82568 0
M  V30 3700 H 364.79 -2.14479 2.26728 0
M  V30 3701 N 365.091 -1.34144 -0.827227 0
M  V30 3702 C 366.331 -1.27603 -1.59677 0
M  V30 3703 C 366.695 0.153035 -1.91389 0
M  V30 3704 O 367.896 0.342566 -2.66608 0
M  V30 3705 C 366.167 -2.13784 -2.86411 0
M  V30 3706 S 367.726 -2.24552 -3.76991 0
M  V30 3707 H 364.544 -0.453789 -0.547354 0
M  V30 3708 H 367.146 -1.69309 -0.977479 0
M  V30 3709 H 365.85 -3.16627 -2.61104 0
M  V30 3710 H 365.381 -1.72959 -3.5334 0
M  V30 3711 H 367.396 -1.41514 -4.75593 0
M  V30 3712 N 366.569 1.04691 -1.17803 0
M  V30 3713 C 367.985 1.29963 -0.926379 0
M  V30 3714 C 368.185 1.97251 0.411635 0
M  V30 3715 O 367.241 2.24922 1.14744 0
M  V30 3716 C 368.554 2.16447 -2.08737 0
M  V30 3717 C 370.102 2.29814 -2.12496 0
M  V30 3718 C 370.577 3.19661 -3.27995 0
M  V30 3719 N 372.068 3.27247 -3.27816 0
M  V30 3720 C 372.803 3.96906 -4.13827 0
M  V30 3721 N 372.299 4.6895 -5.09959 0
M  V30 3722 N 374.092 3.93122 -4.01761 0
M  V30 3723 H 366.243 0.594182 -2.0392 0
M  V30 3724 H 368.506 0.324649 -0.890678 0
M  V30 3725 H 368.212 1.74304 -3.05469 0
M  V30 3726 H 368.086 3.17103 -2.04268 0
M  V30 3727 H 370.473 2.71196 -1.16347 0
M  V30 3728 H 370.554 1.2877 -2.21025 0
M  V30 3729 H 370.198 2.78991 -4.24413 0
M  V30 3730 H 370.128 4.20722 -3.16703 0
M  V30 3731 H 372.619 2.75921 -2.58217 0
M  V30 3732 H 372.932 5.19679 -5.71974 0
M  V30 3733 H 371.277 4.67875 -5.13924 0
M  V30 3734 H 374.468 3.35967 -3.2595 0
M  V30 3735 H 374.641 4.47139 -4.6901 0
M  V30 3736 N 368.047 0.979072 1.23499 0
M  V30 3737 C 369.295 0.645941 1.91499 0
M  V30 3738 C 369.616 -0.822948 1.76784 0
M  V30 3739 O 368.886 -1.58854 1.14639 0
M  V30 3740 H 367.466 0.235919 0.708767 0
M  V30 3741 H 370.128 1.2426 1.50152 0
M  V30 3742 H 369.224 0.896411 2.9895 0
M  V30 3743 N 369.525 -1.3858 0.750561 0
M  V30 3744 C 370.435 -2.34278 0.122825 0
M  V30 3745 C 371.451 -1.59116 -0.704131 0
M  V30 3746 O 372.627 -1.91326 -0.628987 0
M  V30 3747 C 369.692 -3.38221 -0.762086 0
M  V30 3748 C 368.753 -4.29227 0.078896 0
M  V30 3749 C 367.986 -5.28205 -0.763874 0
M  V30 3750 O 368.209 -5.34112 -2.00201 0
M  V30 3751 O 367.143 -6.01618 -0.18428 0
M  V30 3752 H 370.969 -2.89649 0.913088 0
M  V30 3753 H 368.554 -1.40374 0.511417 0
M  V30 3754 H 370.436 -4.01872 -1.26793 0
M  V30 3755 H 369.111 -2.85211 -1.5309 0
M  V30 3756 H 368.018 -3.68747 0.630621 0
M  V30 3757 H 369.351 -4.85484 0.810289 0
M  V30 3758 N 371.003 -0.499398 -1.49478 0
M  V30 3759 C 372.251 0.0455996 -2.02049 0
M  V30 3760 C 372.572 1.37633 -1.38138 0
M  V30 3761 O 371.842 1.8842 -0.536166 0
M  V30 3762 H 370.422 0.0198416 -0.746736 0
M  V30 3763 H 373.084 -0.656274 -1.83519 0
M  V30 3764 H 372.18 0.176445 -3.11601 0
M  V30 3765 N 372.481 1.55866 -0.233164 0
M  V30 3766 C 373.729 1.9821 0.394593 0
M  V30 3767 C 374.05 1.12234 1.59463 0
M  V30 3768 O 373.32 0.201981 1.94856 0
M  V30 3769 H 371.9 0.732034 0.148778 0
M  V30 3770 H 374.562 1.92107 -0.32876 0
M  V30 3771 H 373.658 3.03845 0.713063 0
M  V30 3772 N 373.959 -0.0401083 1.57549 0
M  V30 3773 C 375.208 -0.732108 1.87944 0
M  V30 3774 C 375.521 -1.77107 0.830206 0
M  V30 3775 O 376.727 -2.51488 1.02302 0
M  V30 3776 C 375.183 -1.35315 3.33494 0
M  V30 3777 C 374.791 -0.351105 4.46622 0
M  V30 3778 C 376.535 -2.02566 3.73051 0
M  V30 3779 C 374.442 -0.979859 5.83226 0
M  V30 3780 H 373.372 -0.277188 0.701201 0
M  V30 3781 H 376.023 0.0138501 1.83495 0
M  V30 3782 H 374.405 -2.14844 3.32653 0
M  V30 3783 H 375.579 0.416674 4.58912 0
M  V30 3784 H 373.894 0.218708 4.15825 0
M  V30 3785 H 376.491 -2.50441 4.72423 0
M  V30 3786 H 376.834 -2.83904 3.04474 0
M  V30 3787 H 377.367 -1.29827 3.76018 0
M  V30 3788 H 374.106 -0.206135 6.55176 0
M  V30 3789 H 373.626 -1.71774 5.74677 0
M  V30 3790 H 375.305 -1.49046 6.29599 0
M  V30 3791 N 375.437 -1.54477 -0.31217 0
M  V30 3792 C 376.367 -1.87652 -1.38957 0
M  V30 3793 C 377.348 -0.734358 -1.53431 0
M  V30 3794 O 378.533 -0.98911 -1.67123 0
M  V30 3795 C 375.663 -2.11396 -2.75552 0
M  V30 3796 C 374.617 -3.27243 -2.75855 0
M  V30 3797 C 373.943 -3.36382 -4.15633 0
M  V30 3798 C 375.243 -4.64622 -2.38587 0
M  V30 3799 H 376.937 -2.77887 -1.11442 0
M  V30 3800 H 374.483 -1.33707 -0.534655 0
M  V30 3801 H 376.436 -2.33189 -3.51 0
M  V30 3802 H 375.16 -1.17921 -3.04569 0
M  V30 3803 H 373.819 -3.05356 -2.02863 0
M  V30 3804 H 373.467 -2.40445 -4.41809 0
M  V30 3805 H 373.167 -4.14249 -4.1674 0
M  V30 3806 H 374.691 -3.60422 -4.92877 0
M  V30 3807 H 376.105 -4.86219 -3.03749 0
M  V30 3808 H 374.502 -5.45121 -2.50925 0
M  V30 3809 H 375.572 -4.66097 -1.33723 0
M  V30 3810 N 376.915 0.57481 -1.46744 0
M  V30 3811 C 378.161 1.3347 -1.52688 0
M  V30 3812 C 378.494 1.93353 -0.181229 0
M  V30 3813 O 377.769 1.76912 0.808237 0
M  V30 3814 C 378.052 2.45811 -2.63152 0
M  V30 3815 C 377.905 1.90912 -4.07275 0
M  V30 3816 C 379.224 3.47822 -2.69644 0
M  V30 3817 H 376.343 0.483935 -0.555856 0
M  V30 3818 H 378.985 0.644968 -1.78718 0
M  V30 3819 H 377.135 3.04646 -2.41088 0
M  V30 3820 H 378.807 1.36473 -4.4065 0
M  V30 3821 H 377.05 1.21691 -4.16382 0
M  V30 3822 H 377.721 2.72042 -4.80309 0
M  V30 3823 H 380.197 2.9888 -2.895 0
M  V30 3824 H 379.073 4.23876 -3.48742 0
M  V30 3825 H 379.334 4.05555 -1.76005 0
M  V30 3826 N 378.394 1.34581 0.820102 0
M  V30 3827 C 379.342 1.26401 1.95258 0
M  V30 3828 C 380.336 0.161553 1.68628 0
M  V30 3829 O 381.542 0.326703 1.7701 0
M  V30 3830 H 377.917 0.392749 0.64129 0
M  V30 3831 H 379.888 2.22105 1.99279 0
M  V30 3832 C 378.637 1.03919 3.31807 0
M  V30 3833 H 377.96 1.87984 3.52848 0
M  V30 3834 H 379.4 1.02232 4.11491 0
M  V30 3835 C 377.859 -0.257433 3.35915 0
M  V30 3836 O 378.389 -1.25784 3.81499 0
M  V30 3837 N 376.595 -0.291524 2.89134 0
M  V30 3838 H 376.142 0.523161 2.52232 0
M  V30 3839 H 376.1 -1.15883 2.92264 0
M  V30 3840 N 379.872 -1.04064 1.18357 0
M  V30 3841 C 380.819 -2.12077 0.910603 0
M  V30 3842 C 381.789 -1.65421 -0.15 0
M  V30 3843 O 382.974 -1.90797 -0.0103614 0
M  V30 3844 C 380.114 -3.42252 0.442472 0
M  V30 3845 C 379.227 -4.0252 1.5685 0
M  V30 3846 C 378.362 -5.20657 1.05309 0
M  V30 3847 C 377.401 -5.72955 2.1538 0
M  V30 3848 N 376.538 -6.8238 1.65233 0
M  V30 3849 H 381.378 -2.34764 1.83548 0
M  V30 3850 H 378.915 -1.15157 0.915279 0
M  V30 3851 H 380.873 -4.16921 0.152534 0
M  V30 3852 H 379.503 -3.19712 -0.445428 0
M  V30 3853 H 378.555 -3.25178 1.97391 0
M  V30 3854 H 379.867 -4.37362 2.39824 0
M  V30 3855 H 379.021 -6.0244 0.717677 0
M  V30 3856 H 377.76 -4.87318 0.19293 0
M  V30 3857 H 376.765 -4.89793 2.49766 0
M  V30 3858 H 377.99 -6.08337 3.01832 0
M  V30 3859 H 375.936 -6.50917 0.815064 0
M  V30 3860 H 375.853 -7.16286 2.41805 0
M  V30 3861 H 377.121 -7.67788 1.34619 0
M  V30 3862 N 381.35 -0.985608 -1.22978 0
M  V30 3863 C 382.298 -0.522631 -2.26652 0
M  V30 3864 C 383.292 0.422998 -1.64034 0
M  V30 3865 O 384.498 0.296319 -1.77544 0
M  V30 3866 H 380.873 -0.150597 -0.736766 0
M  V30 3867 H 382.844 -1.40863 -2.63059 0
M  V30 3868 C 381.593 0.154238 -3.47358 0
M  V30 3869 H 380.916 -0.564329 -3.95797 0
M  V30 3870 H 382.356 0.441744 -4.21693 0
M  V30 3871 C 380.815 1.38719 -3.07016 0
M  V30 3872 O 381.345 2.48307 -3.15764 0
M  V30 3873 N 379.551 1.25975 -2.61875 0
M  V30 3874 H 379.098 0.368068 -2.54957 0
M  V30 3875 H 379.056 2.08578 -2.3525 0
M  V30 3876 N 382.828 1.3818 -0.7579 0
M  V30 3877 C 384.076 1.99624 -0.315361 0
M  V30 3878 C 384.397 1.60464 1.10799 0
M  V30 3879 O 383.667 0.863507 1.75842 0
M  V30 3880 H 382.247 0.73831 -0.113611 0
M  V30 3881 H 384.909 1.68878 -0.972952 0
M  V30 3882 H 384.005 3.09754 -0.381931 0
M  V30 3883 N 384.306 0.507319 1.49211 0
M  V30 3884 C 385.536 -0.0315292 2.06576 0
M  V30 3885 C 385.944 -1.30791 1.36713 0
M  V30 3886 O 385.287 -1.78324 0.441181 0
M  V30 3887 C 385.349 -0.349104 3.57801 0
M  V30 3888 C 385.013 0.830475 4.49391 0
M  V30 3889 C 386.01 1.72271 4.90529 0
M  V30 3890 C 383.695 1.03107 4.91604 0
M  V30 3891 C 385.689 2.79964 5.72625 0
M  V30 3892 C 383.376 2.11116 5.73475 0
M  V30 3893 C 384.374 2.99379 6.1389 0
M  V30 3894 O 384.062 4.05523 6.94123 0
M  V30 3895 H 383.794 0.0201002 0.675701 0
M  V30 3896 H 386.348 0.705737 1.92895 0
M  V30 3897 H 384.578 -1.14005 3.69513 0
M  V30 3898 H 386.267 -0.827319 3.97379 0
M  V30 3899 H 387.033 1.57958 4.58557 0
M  V30 3900 H 382.912 0.353417 4.59643 0
M  V30 3901 H 386.456 3.48884 6.04091 0
M  V30 3902 H 382.353 2.25421 6.0486 0
M  V30 3903 H 383.121 4.02953 7.1244 0
M  V30 3904 N 385.784 -1.5574 0.241426 0
M  V30 3905 C 387.2 -1.59196 -0.113548 0
M  V30 3906 C 387.4 -1.25852 -1.57364 0
M  V30 3907 O 386.456 -1.00322 -2.31715 0
M  V30 3908 C 387.769 -2.99814 0.230695 0
M  V30 3909 C 389.317 -3.12513 0.174547 0
M  V30 3910 C 389.792 -4.55342 0.492744 0
M  V30 3911 N 391.283 -4.61076 0.443043 0
M  V30 3912 C 392.018 -5.6956 0.662484 0
M  V30 3913 N 391.514 -6.86328 0.944761 0
M  V30 3914 N 393.307 -5.58957 0.593564 0
M  V30 3915 H 385.458 -1.75685 1.19368 0
M  V30 3916 H 387.721 -0.81756 0.479896 0
M  V30 3917 H 387.427 -3.28932 1.24485 0
M  V30 3918 H 387.301 -3.74568 -0.444833 0
M  V30 3919 H 389.688 -2.83179 -0.830277 0
M  V30 3920 H 389.769 -2.40045 0.883845 0
M  V30 3921 H 389.413 -4.85396 1.4951 0
M  V30 3922 H 389.343 -5.26062 -0.23797 0
M  V30 3923 H 391.834 -3.77179 0.233374 0
M  V30 3924 H 392.147 -7.64935 1.09977 0
M  V30 3925 H 390.492 -6.88025 0.982175 0
M  V30 3926 H 393.683 -4.66611 0.373123 0
M  V30 3927 H 393.856 -6.43433 0.767981 0
M  V30 3928 N 387.262 0.0317525 -1.57568 0
M  V30 3929 C 388.492 0.733884 -1.93126 0
M  V30 3930 C 388.9 1.69563 -0.839352 0
M  V30 3931 O 388.243 1.82681 0.193175 0
M  V30 3932 C 388.305 1.54798 -3.24465 0
M  V30 3933 C 387.969 0.751304 -4.50782 0
M  V30 3934 C 388.966 0.0527632 -5.19873 0
M  V30 3935 C 386.651 0.706639 -4.97305 0
M  V30 3936 C 388.645 -0.679774 -6.33765 0
M  V30 3937 C 386.332 -0.0296449 -6.11093 0
M  V30 3938 C 387.33 -0.721614 -6.79177 0
M  V30 3939 O 387.018 -1.44595 -7.90789 0
M  V30 3940 H 386.75 0.211459 -0.642076 0
M  V30 3941 H 389.304 -0.00585615 -2.05399 0
M  V30 3942 H 387.534 2.33147 -3.08512 0
M  V30 3943 H 389.223 2.13247 -3.4537 0
M  V30 3944 H 389.989 0.0783188 -4.84937 0
M  V30 3945 H 385.868 1.23474 -4.44157 0
M  V30 3946 H 389.412 -1.22042 -6.86842 0
M  V30 3947 H 385.309 -0.0571331 -6.45475 0
M  V30 3948 H 386.077 -1.35935 -8.07133 0
M  V30 3949 N 388.74 1.54641 0.303973 0
M  V30 3950 C 389.67 1.88386 1.3796 0
M  V30 3951 C 390.651 0.742485 1.5304 0
M  V30 3952 O 391.836 0.997959 1.66597 0
M  V30 3953 C 388.966 2.12854 2.74427 0
M  V30 3954 C 387.92 3.28702 2.74115 0
M  V30 3955 C 387.246 3.38582 4.13844 0
M  V30 3956 C 388.546 4.65881 2.3612 0
M  V30 3957 H 390.24 2.78474 1.09966 0
M  V30 3958 H 387.786 1.33988 0.527556 0
M  V30 3959 H 389.739 2.35047 3.49758 0
M  V30 3960 H 388.463 1.19535 3.03939 0
M  V30 3961 H 387.122 3.06428 2.0124 0
M  V30 3962 H 386.77 2.42784 4.40528 0
M  V30 3963 H 386.47 4.16453 4.14537 0
M  V30 3964 H 387.994 3.63031 4.90959 0
M  V30 3965 H 389.408 4.87823 3.01167 0
M  V30 3966 H 387.805 5.46444 2.48031 0
M  V30 3967 H 388.875 4.66799 1.3125 0
M  V30 3968 N 390.218 -0.567019 1.47046 0
M  V30 3969 C 391.15 -1.68985 1.54844 0
M  V30 3970 C 392.163 -1.56869 0.435431 0
M  V30 3971 O 393.352 -1.64006 0.70457 0
M  V30 3972 C 390.452 -3.07373 1.42742 0
M  V30 3973 C 389.625 -3.45339 2.6844 0
M  V30 3974 C 388.684 -4.62849 2.50314 0
M  V30 3975 O 387.71 -4.67922 3.24095 0
M  V30 3976 N 388.912 -5.58726 1.57499 0
M  V30 3977 H 391.677 -1.62745 2.51663 0
M  V30 3978 H 389.238 -0.753411 1.43302 0
M  V30 3979 H 391.23 -3.83803 1.28365 0
M  V30 3980 H 389.8 -3.07893 0.540445 0
M  V30 3981 H 389.02 -2.58455 2.97648 0
M  V30 3982 H 390.308 -3.67476 3.51907 0
M  V30 3983 H 389.706 -5.57376 0.966876 0
M  V30 3984 H 388.263 -6.34523 1.49078 0
M  V30 3985 N 391.696 -1.35014 -0.812953 0
M  V30 3986 C 392.973 -1.18502 -1.55617 0
M  V30 3987 C 393.353 0.238421 -2.09749 0
M  V30 3988 O 392.701 1.2411 -1.91857 0
M  V30 3989 C 392.911 -2.24783 -2.66971 0
M  V30 3990 C 394.259 -2.60268 -3.35478 0
M  V30 3991 O 395.283 -2.23648 -2.77236 0
M  V30 3992 O 394.142 -3.2321 -4.40678 0
M  V30 3993 H 391.236 -0.459984 -0.687272 0
M  V30 3994 H 393.782 -1.46677 -0.853464 0
M  V30 3995 H 392.554 -3.20284 -2.24798 0
M  V30 3996 H 392.177 -1.97841 -3.44884 0
M  V30 3997 N 393.175 1.03435 -1.18907 0
M  V30 3998 C 394.405 1.8012 -1.01195 0
M  V30 3999 C 394.813 1.8395 0.442613 0
M  V30 4000 O 394.156 1.27836 1.31923 0
M  V30 4001 C 394.218 3.26792 -1.49823 0
M  V30 4002 C 393.882 3.46609 -2.97844 0
M  V30 4003 C 394.879 3.37278 -3.95651 0
M  V30 4004 C 392.564 3.73001 -3.36416 0
M  V30 4005 C 394.558 3.54054 -5.30023 0
M  V30 4006 C 392.245 3.89423 -4.70949 0
M  V30 4007 C 393.243 3.79951 -5.67562 0
M  V30 4008 O 392.931 3.95895 -6.99659 0
M  V30 4009 H 392.663 0.573865 -0.357289 0
M  V30 4010 H 395.217 1.31207 -1.58031 0
M  V30 4011 H 393.447 3.76703 -0.873578 0
M  V30 4012 H 395.136 3.85055 -1.28404 0
M  V30 4013 H 395.902 3.16846 -3.67197 0
M  V30 4014 H 391.781 3.79469 -2.61772 0
M  V30 4015 H 395.325 3.46577 -6.05417 0
M  V30 4016 H 391.222 4.09351 -4.99101 0
M  V30 4017 H 391.99 4.13019 -7.06653 0
M  V30 4018 N 394.653 0.992116 1.22453 0
M  V30 4019 C 395.901 0.666215 1.90804 0
M  V30 4020 C 396.222 -0.804152 1.77647 0
M  V30 4021 O 395.492 -1.57629 1.16318 0
M  V30 4022 H 394.072 0.243423 0.706225 0
M  V30 4023 H 396.734 1.25845 1.48825 0
M  V30 4024 H 395.83 0.928069 2.97982 0
M  V30 4025 N 396.131 -1.37776 0.765217 0
M  V30 4026 C 397.064 -2.28008 0.0935025 0
M  V30 4027 C 398.042 -1.45985 -0.716047 0
M  V30 4028 O 399.226 -1.75331 -0.692203 0
M  V30 4029 C 396.353 -3.27228 -0.874052 0
M  V30 4030 C 395.399 -4.26239 -0.149307 0
M  V30 4031 S 396.232 -5.22827 1.15809 0
M  V30 4032 C 397.388 -6.256 0.193906 0
M  V30 4033 H 397.621 -2.84631 0.858637 0
M  V30 4034 H 395.154 -1.43952 0.558313 0
M  V30 4035 H 397.112 -3.84902 -1.42691 0
M  V30 4036 H 395.773 -2.69565 -1.61225 0
M  V30 4037 H 394.966 -4.96213 -0.88254 0
M  V30 4038 H 394.568 -3.7252 0.332366 0
M  V30 4039 H 396.86 -6.74508 -0.636011 0
M  V30 4040 H 397.803 -7.02838 0.861638 0
M  V30 4041 H 398.211 -5.64173 -0.191975 0
M  V30 4042 N 397.609 -0.515225 -1.4894 0
M  V30 4043 C 398.857 0.0241671 -2.02086 0
M  V30 4044 C 399.178 1.3616 -1.3959 0
M  V30 4045 O 398.448 1.87841 -0.556121 0
M  V30 4046 H 397.028 0.0119203 -0.746905 0
M  V30 4047 H 399.69 -0.675702 -1.82812 0
M  V30 4048 H 398.786 0.143385 -3.1177 0
M  V30 4049 N 399.087 1.5561 -0.249682 0
M  V30 4050 C 400.498 1.84979 0.252949 0
M  V30 4051 C 400.849 1.17153 1.57384 0
M  V30 4052 O 399.974 0.450884 2.11651 0
M  V30 4053 C 400.569 3.35584 0.465732 0
M  V30 4054 C 399.128 3.65169 0.912624 0
M  V30 4055 C 398.275 2.77299 -0.00859085 0
M  V30 4056 H 401.226 1.51513 -0.47217 0
M  V30 4057 H 401.247 3.57313 1.30795 0
M  V30 4058 H 400.759 3.8492 -0.49579 0
M  V30 4059 H 398.86 3.21312 1.88652 0
M  V30 4060 H 398.973 4.72912 0.767559 0
M  V30 4061 H 397.337 2.49678 0.50327 0
M  V30 4062 H 398.12 3.29442 -0.965537 0
M  V30 4063 N 400.565 -0.0233959 1.57583 0
M  V30 4064 C 401.475 -1.03907 2.10334 0
M  V30 4065 C 402.491 -1.39257 1.04323 0
M  V30 4066 O 403.667 -1.48462 1.36091 0
M  V30 4067 C 400.732 -2.31938 2.57693 0
M  V30 4068 C 399.793 -2.03117 3.78209 0
M  V30 4069 C 399.026 -3.25043 4.233 0
M  V30 4070 O 399.249 -4.35916 3.67876 0
M  V30 4071 O 398.183 -3.10411 5.15683 0
M  V30 4072 H 402.009 -0.620748 2.97288 0
M  V30 4073 H 399.594 -0.240743 1.47448 0
M  V30 4074 H 401.476 -3.07196 2.88458 0
M  V30 4075 H 400.151 -2.73055 1.73847 0
M  V30 4076 H 399.058 -1.25408 3.52454 0
M  V30 4077 H 400.391 -1.66852 4.63056 0
M  V30 4078 N 402.043 -1.548 -0.295768 0
M  V30 4079 C 403.271 -1.78327 -1.04914 0
M  V30 4080 C 403.686 -0.545316 -1.80753 0
M  V30 4081 O 403.043 0.485013 -1.75937 0
M  V30 4082 C 403.094 -2.99418 -2.02561 0
M  V30 4083 O 402.815 -4.18431 -1.29798 0
M  V30 4084 C 404.316 -3.35375 -2.89895 0
M  V30 4085 H 401.536 -0.594618 -0.310918 0
M  V30 4086 H 404.08 -2.01763 -0.333454 0
M  V30 4087 H 402.235 -2.78175 -2.69624 0
M  V30 4088 H 402.649 -4.86736 -1.95419 0
M  V30 4089 H 404.123 -4.23332 -3.54251 0
M  V30 4090 H 404.6 -2.53761 -3.58472 0
M  V30 4091 H 405.206 -3.58796 -2.28355 0
M  V30 4092 N 403.521 0.559213 -1.47345 0
M  V30 4093 C 404.932 1.14134 -1.47751 0
M  V30 4094 C 405.283 1.94834 -0.231103 0
M  V30 4095 O 404.408 2.05957 0.664137 0
M  V30 4096 C 405.003 2.07653 -2.67705 0
M  V30 4097 C 403.562 2.61141 -2.71076 0
M  V30 4098 C 402.709 1.3748 -2.40821 0
M  V30 4099 H 405.66 0.345917 -1.54884 0
M  V30 4100 H 405.681 2.91497 -2.44561 0
M  V30 4101 H 405.193 1.4889 -3.58404 0
M  V30 4102 H 403.294 3.23707 -1.84511 0
M  V30 4103 H 403.407 3.02272 -3.7171 0
M  V30 4104 H 401.771 1.68086 -1.91362 0
M  V30 4105 H 402.554 0.805135 -3.33725 0
M  V30 4106 N 404.999 1.35443 0.805782 0
M  V30 4107 C 405.929 1.31095 1.93226 0
M  V30 4108 C 406.91 0.185244 1.69088 0
M  V30 4109 O 408.095 0.380332 1.90439 0
M  V30 4110 C 405.225 1.08299 3.29983 0
M  V30 4111 C 404.179 2.17519 3.68605 0
M  V30 4112 C 403.505 1.79887 5.03532 0
M  V30 4113 C 404.805 3.5949 3.78898 0
M  V30 4114 H 406.499 2.25352 1.97122 0
M  V30 4115 H 404.045 1.0848 0.946996 0
M  V30 4116 H 405.998 1.03897 4.08391 0
M  V30 4117 H 404.722 0.104885 3.26432 0
M  V30 4118 H 403.381 2.2102 2.92482 0
M  V30 4119 H 403.029 0.80693 4.96485 0
M  V30 4120 H 402.729 2.53001 5.30344 0
M  V30 4121 H 404.253 1.77011 5.84379 0
M  V30 4122 H 405.667 3.58307 4.47536 0
M  V30 4123 H 404.064 4.31371 4.1718 0
M  V30 4124 H 405.134 3.95584 2.80431 0
M  V30 4125 N 406.477 -1.02803 1.19454 0
M  V30 4126 C 407.725 -1.75869 0.995722 0
M  V30 4127 C 408.046 -1.89138 -0.474543 0
M  V30 4128 O 407.316 -1.42558 -1.34366 0
M  V30 4129 H 405.896 -0.651511 0.365435 0
M  V30 4130 H 408.558 -1.24004 1.50363 0
M  V30 4131 H 407.654 -2.76661 1.44447 0
M  V30 4132 N 407.956 -0.998596 -1.21925 0
M  V30 4133 C 408.866 -0.562736 -2.27751 0
M  V30 4134 C 409.882 0.391203 -1.69545 0
M  V30 4135 O 411.058 0.256625 -1.99758 0
M  V30 4136 C 408.123 0.11012 -3.46525 0
M  V30 4137 C 407.184 -0.887495 -4.20026 0
M  V30 4138 C 406.417 -0.246654 -5.3313 0
M  V30 4139 O 406.64 0.958088 -5.62296 0
M  V30 4140 O 405.574 -0.954374 -5.94286 0
M  V30 4141 H 409.4 -1.44329 -2.67213 0
M  V30 4142 H 406.985 -0.767135 -1.28201 0
M  V30 4143 H 408.867 0.486756 -4.18579 0
M  V30 4144 H 407.542 0.965154 -3.08976 0
M  V30 4145 H 406.449 -1.31517 -3.5022 0
M  V30 4146 H 407.782 -1.71191 -4.6147 0
M  V30 4147 N 409.434 1.37368 -0.772513 0
M  V30 4148 C 410.845 1.8231 -0.402493 0
M  V30 4149 C 411.196 1.6436 1.07146 0
M  V30 4150 O 410.321 1.15514 1.82991 0
M  V30 4151 C 410.916 3.30979 -0.723776 0
M  V30 4152 C 409.475 3.74195 -0.406802 0
M  V30 4153 C 408.622 2.59885 -0.967218 0
M  V30 4154 H 411.573 1.25829 -0.967099 0
M  V30 4155 H 411.594 3.80499 -0.00870832 0
M  V30 4156 H 411.106 3.44011 -1.7966 0
M  V30 4157 H 409.207 3.66732 0.658673 0
M  V30 4158 H 409.32 4.7027 -0.915588 0
M  V30 4159 H 407.684 2.51674 -0.391416 0
M  V30 4160 H 408.467 2.7571 -2.04546 0
M  V30 4161 N 410.912 0.523116 1.48665 0
M  V30 4162 C 411.859 -0.243398 2.29513 0
M  V30 4163 C 412.829 -0.940139 1.36933 0
M  V30 4164 O 414.014 -0.942503 1.65896 0
M  V30 4165 C 411.154 -1.28855 3.20141 0
M  V30 4166 C 410.267 -0.60135 4.27794 0
M  V30 4167 C 409.402 -1.62884 5.05611 0
M  V30 4168 C 408.441 -0.924726 6.05075 0
M  V30 4169 N 407.578 -1.89744 6.75975 0
M  V30 4170 H 412.418 0.452234 2.94549 0
M  V30 4171 H 409.955 0.234858 1.45213 0
M  V30 4172 H 411.913 -1.90674 3.71079 0
M  V30 4173 H 410.543 -1.95266 2.57043 0
M  V30 4174 H 409.595 0.130623 3.80176 0
M  V30 4175 H 410.907 -0.0481585 4.98777 0
M  V30 4176 H 410.061 -2.32149 5.60528 0
M  V30 4177 H 408.8 -2.21592 4.34452 0
M  V30 4178 H 407.805 -0.217966 5.49368 0
M  V30 4179 H 409.03 -0.343851 6.78229 0
M  V30 4180 H 406.976 -2.47373 6.07571 0
M  V30 4181 H 406.893 -1.3955 7.43009 0
M  V30 4182 H 408.161 -2.58229 7.35485 0
M  V30 4183 N 412.39 -1.55475 0.257931 0
M  V30 4184 C 413.338 -2.23244 -0.653076 0
M  V30 4185 C 414.332 -1.22366 -1.17144 0
M  V30 4186 O 415.538 -1.40347 -1.12706 0
M  V30 4187 H 411.913 -0.716247 -0.229117 0
M  V30 4188 H 413.884 -2.98343 -0.0584788 0
M  V30 4189 C 412.633 -2.95401 -1.83395 0
M  V30 4190 H 411.956 -3.72802 -1.44424 0
M  V30 4191 H 413.396 -3.46165 -2.44838 0
M  V30 4192 C 411.855 -1.99895 -2.71189 0
M  V30 4193 O 412.385 -1.53909 -3.71046 0
M  V30 4194 N 410.591 -1.6676 -2.3799 0
M  V30 4195 H 410.138 -2.04352 -1.56837 0
M  V30 4196 H 410.096 -1.03127 -2.97005 0
M  V30 4197 N 413.868 0.0150385 -1.57593 0
M  V30 4198 C 414.815 1.01126 -2.07466 0
M  V30 4199 C 415.785 1.35064 -0.966794 0
M  V30 4200 O 416.97 1.4516 -1.23827 0
M  V30 4201 C 414.11 2.30276 -2.57035 0
M  V30 4202 C 413.223 2.02373 -3.81666 0
M  V30 4203 C 412.358 3.25496 -4.19793 0
M  V30 4204 C 411.397 2.93211 -5.37303 0
M  V30 4205 N 410.534 4.08826 -5.70794 0
M  V30 4206 H 415.374 0.57901 -2.92321 0
M  V30 4207 H 412.911 0.27426 -1.44521 0
M  V30 4208 H 414.869 3.05757 -2.83846 0
M  V30 4209 H 413.499 2.71197 -1.75077 0
M  V30 4210 H 412.551 1.17327 -3.61854 0
M  V30 4211 H 413.863 1.74567 -4.67256 0
M  V30 4212 H 413.017 4.09333 -4.47807 0
M  V30 4213 H 411.756 3.56428 -3.32882 0
M  V30 4214 H 410.761 2.07777 -5.09027 0
M  V30 4215 H 411.986 2.63542 -6.25877 0
M  V30 4216 H 409.932 4.39682 -4.86842 0
M  V30 4217 H 409.849 3.84491 -6.50924 0
M  V30 4218 H 411.117 4.93496 -6.03392 0
M  V30 4219 N 415.346 1.54954 0.287554 0
M  V30 4220 C 416.576 1.78622 1.03816 0
M  V30 4221 C 416.984 0.552451 1.80955 0
M  V30 4222 O 416.327 -0.487665 1.77109 0
M  V30 4223 C 416.389 2.94975 2.055 0
M  V30 4224 C 416.053 4.32565 1.47433 0
M  V30 4225 C 417.05 5.12096 0.897436 0
M  V30 4226 C 414.735 4.79195 1.50591 0
M  V30 4227 C 416.729 6.36383 0.359851 0
M  V30 4228 C 414.416 6.03441 0.964459 0
M  V30 4229 C 415.414 6.81872 0.392413 0
M  V30 4230 O 415.102 8.03777 -0.140788 0
M  V30 4231 H 414.834 0.599144 0.313053 0
M  V30 4232 H 417.388 2.02761 0.328225 0
M  V30 4233 H 415.618 2.66493 2.80211 0
M  V30 4234 H 417.307 3.06097 2.6657 0
M  V30 4235 H 418.073 4.77209 0.865841 0
M  V30 4236 H 413.952 4.18167 1.94055 0
M  V30 4237 H 417.496 6.97545 -0.0872951 0
M  V30 4238 H 413.393 6.37813 0.993246 0
M  V30 4239 H 414.161 8.18495 -0.0287617 0
M  V30 4240 N 416.824 -0.551391 1.4764 0
M  V30 4241 C 417.757 -1.6738 1.5511 0
M  V30 4242 C 418.735 -1.5753 0.402856 0
M  V30 4243 O 419.919 -1.78307 0.611475 0
M  V30 4244 C 417.046 -3.05661 1.45908 0
M  V30 4245 C 416.092 -3.33938 2.65307 0
M  V30 4246 S 416.925 -3.22553 4.27457 0
M  V30 4247 C 418.081 -4.63317 4.20818 0
M  V30 4248 H 418.314 -1.6079 2.50068 0
M  V30 4249 H 415.847 -0.732674 1.35909 0
M  V30 4250 H 417.805 -3.8542 1.41286 0
M  V30 4251 H 416.466 -3.09711 0.523248 0
M  V30 4252 H 415.659 -4.34761 2.54948 0
M  V30 4253 H 415.261 -2.61809 2.67081 0
M  V30 4254 H 417.553 -5.54391 3.89431 0
M  V30 4255 H 418.496 -4.78732 5.21748 0
M  V30 4256 H 418.904 -4.41636 3.51593 0
M  V30 4257 N 418.302 -1.35869 -0.798587 0
M  V30 4258 C 419.212 -1.31578 -1.94228 0
M  V30 4259 C 420.228 -0.21939 -1.72611 0
M  V30 4260 O 421.404 -0.450167 -1.96305 0
M  V30 4261 C 418.469 -1.09528 -3.28944 0
M  V30 4262 C 417.53 -2.28556 -3.63402 0
M  V30 4263 C 416.763 -2.07549 -4.9169 0
M  V30 4264 O 416.986 -1.046 -5.60727 0
M  V30 4265 O 415.92 -2.95106 -5.24591 0
M  V30 4266 H 419.746 -2.27847 -2.00796 0
M  V30 4267 H 417.331 -1.16322 -0.937526 0
M  V30 4268 H 419.213 -0.991127 -4.09579 0
M  V30 4269 H 417.888 -0.16315 -3.23289 0
M  V30 4270 H 416.795 -2.44538 -2.83112 0
M  V30 4271 H 418.128 -3.20244 -3.73771 0
M  V30 4272 N 419.78 1.02168 -1.19998 0
M  V30 4273 C 420.71 2.12488 -0.96804 0
M  V30 4274 C 421.691 1.69799 0.101185 0
M  V30 4275 O 422.876 1.94121 -0.0552993 0
M  V30 4276 C 420.006 3.43479 -0.513776 0
M  V30 4277 C 418.96 3.99884 -1.52566 0
M  V30 4278 C 418.286 5.26582 -0.928214 0
M  V30 4279 C 419.586 4.33861 -2.90795 0
M  V30 4280 H 421.28 2.32149 -1.89069 0
M  V30 4281 H 418.826 1.11564 -0.910468 0
M  V30 4282 H 420.779 4.20036 -0.338774 0
M  V30 4283 H 419.503 3.23561 0.444493 0
M  V30 4284 H 418.162 3.25429 -1.68794 0
M  V30 4285 H 417.81 5.02986 0.0378289 0
M  V30 4286 H 417.51 5.65284 -1.60397 0
M  V30 4287 H 419.034 6.05799 -0.764167 0
M  V30 4288 H 420.448 5.01327 -2.78109 0
M  V30 4289 H 418.845 4.83664 -3.55231 0
M  V30 4290 H 419.915 3.42848 -3.42904 0
M  V30 4291 N 421.258 1.00505 1.21394 0
M  V30 4292 C 422.506 0.686415 1.90086 0
M  V30 4293 C 422.827 -0.785264 1.7849 0
M  V30 4294 O 422.097 -1.56387 1.17983 0
M  V30 4295 H 420.677 0.2509 0.703604 0
M  V30 4296 H 423.339 1.27417 1.47482 0
M  V30 4297 H 422.435 0.959621 2.96981 0
M  V30 4298 N 422.737 -1.36956 0.779787 0
M  V30 4299 C 424.148 -1.82094 0.412156 0
M  V30 4300 C 424.499 -1.64926 -1.06273 0
M  V30 4301 O 423.624 -1.16483 -1.82375 0
M  V30 4302 C 424.219 -3.3059 0.741319 0
M  V30 4303 C 422.778 -3.73974 0.426641 0
M  V30 4304 C 421.925 -2.59368 0.980987 0
M  V30 4305 H 424.876 -1.25314 0.973758 0
M  V30 4306 H 424.897 -3.80489 0.028887 0
M  V30 4307 H 424.409 -3.43054 1.81482 0
M  V30 4308 H 422.51 -3.67076 -0.639215 0
M  V30 4309 H 422.623 -4.69778 0.940515 0
M  V30 4310 H 420.987 -2.51463 0.404757 0
M  V30 4311 H 421.77 -2.74621 2.06005 0
M  V30 4312 N 424.215 -0.530993 -1.48385 0
M  V30 4313 C 425.631 -0.188919 -1.58478 0
M  V30 4314 C 425.831 1.30786 -1.53288 0
M  V30 4315 O 424.887 2.08619 -1.42248 0
M  V30 4316 C 426.2 -0.792343 -2.90073 0
M  V30 4317 C 427.748 -0.76117 -3.03604 0
M  V30 4318 C 428.223 -1.34319 -4.37861 0
M  V30 4319 N 429.714 -1.3052 -4.44431 0
M  V30 4320 C 430.449 -1.72543 -5.46824 0
M  V30 4321 N 429.945 -2.22299 -6.56167 0
M  V30 4322 N 431.738 -1.63773 -5.37712 0
M  V30 4323 H 423.889 -1.50377 -1.50002 0
M  V30 4324 H 426.152 -0.625559 -0.712306 0
M  V30 4325 H 425.858 -1.84323 -2.99529 0
M  V30 4326 H 425.732 -0.270026 -3.76232 0
M  V30 4327 H 428.119 0.280957 -2.93759 0
M  V30 4328 H 428.2 -1.32097 -2.19053 0
M  V30 4329 H 427.844 -2.38425 -4.4846 0
M  V30 4330 H 427.774 -0.759064 -5.21101 0
M  V30 4331 H 430.265 -0.940973 -3.65997 0
M  V30 4332 H 430.578 -2.52356 -7.30436 0
M  V30 4333 H 428.923 -2.26293 -6.57127 0
M  V30 4334 H 432.114 -1.24698 -4.51185 0
M  V30 4335 H 432.287 -1.96844 -6.17379 0
M  V30 4336 N 425.693 1.55336 -0.266172 0
M  V30 4337 C 426.97 1.91372 0.404486 0
M  V30 4338 C 427.35 1.18935 1.74407 0
M  V30 4339 O 426.698 0.3132 2.26343 0
M  V30 4340 C 426.908 3.44581 0.553593 0
M  V30 4341 C 428.256 4.16196 0.840618 0
M  V30 4342 O 429.28 3.50426 0.638739 0
M  V30 4343 O 428.139 5.32567 1.22618 0
M  V30 4344 H 425.233 0.797194 0.220025 0
M  V30 4345 H 427.779 1.66813 -0.311664 0
M  V30 4346 H 426.551 3.89357 -0.389498 0
M  V30 4347 H 426.174 3.75065 1.31955 0
M  V30 4348 N 427.171 -0.0066808 1.57599 0
M  V30 4349 C 428.118 -1.00024 2.08 0
M  V30 4350 C 429.088 -1.34549 0.973943 0
M  V30 4351 O 430.273 -1.44502 1.24595 0
M  V30 4352 C 427.413 -2.2891 2.58252 0
M  V30 4353 C 426.526 -2.00346 3.82734 0
M  V30 4354 C 425.661 -3.23265 4.21513 0
M  V30 4355 C 424.7 -2.90357 5.3885 0
M  V30 4356 N 423.837 -4.05793 5.72954 0
M  V30 4357 H 428.677 -0.563499 2.92624 0
M  V30 4358 H 426.214 -0.266592 1.44664 0
M  V30 4359 H 428.172 -3.04247 2.85464 0
M  V30 4360 H 426.802 -2.70265 1.76512 0
M  V30 4361 H 425.854 -1.15406 3.62471 0
M  V30 4362 H 427.166 -1.72086 4.68175 0
M  V30 4363 H 426.32 -4.06953 4.49971 0
M  V30 4364 H 425.059 -3.54657 3.34768 0
M  V30 4365 H 424.064 -2.05075 5.10122 0
M  V30 4366 H 425.289 -2.60219 6.27266 0
M  V30 4367 H 423.235 -4.37094 4.89167 0
M  V30 4368 H 423.152 -3.81034 6.52954 0
M  V30 4369 H 424.42 -4.90289 6.06001 0
M  V30 4370 N 428.649 -1.55105 -0.279332 0
M  V30 4371 C 429.895 -1.75672 -1.01327 0
M  V30 4372 C 430.228 -0.552739 -1.86168 0
M  V30 4373 O 429.503 0.449827 -1.89227 0
M  V30 4374 C 429.786 -3.05825 -1.90114 0
M  V30 4375 C 429.639 -4.36565 -1.08309 0
M  V30 4376 C 430.958 -3.31975 -2.8893 0
M  V30 4377 H 428.077 -0.639149 -0.366957 0
M  V30 4378 H 430.719 -1.87833 -0.286154 0
M  V30 4379 H 428.869 -2.95588 -2.52111 0
M  V30 4380 H 430.541 -4.58751 -0.484314 0
M  V30 4381 H 428.784 -4.32076 -0.386362 0
M  V30 4382 H 429.455 -5.23946 -1.73737 0
M  V30 4383 H 431.931 -3.41963 -2.37067 0
M  V30 4384 H 430.807 -4.2432 -3.48201 0
M  V30 4385 H 431.068 -2.51309 -3.63725 0
M  V30 4386 N 430.127 0.543554 -1.4793 0
M  V30 4387 C 431.352 1.32995 -1.59145 0
M  V30 4388 C 431.777 1.86472 -0.246956 0
M  V30 4389 O 431.135 1.63696 0.779324 0
M  V30 4390 C 431.183 2.46623 -2.63077 0
M  V30 4391 O 430.287 3.49261 -2.19295 0
M  V30 4392 H 429.628 0.394472 -0.534124 0
M  V30 4393 H 432.158 0.655489 -1.93816 0
M  V30 4394 H 432.168 2.93001 -2.83926 0
M  V30 4395 H 430.843 2.07059 -3.60693 0
M  V30 4396 H 429.42 3.09094 -2.08603 0
M  V30 4397 N 431.605 1.3629 0.791371 0
M  V30 4398 C 432.537 1.26321 1.91248 0
M  V30 4399 C 433.55 0.18313 1.61767 0
M  V30 4400 O 434.739 0.437682 1.73051 0
M  V30 4401 C 431.839 0.925901 3.26007 0
M  V30 4402 C 431.012 2.10746 3.83281 0
M  V30 4403 C 430.071 1.74352 4.96475 0
M  V30 4404 O 429.097 2.46416 5.13096 0
M  V30 4405 N 430.299 0.676058 5.7655 0
M  V30 4406 H 433.064 2.22915 2.00323 0
M  V30 4407 H 430.625 1.29659 0.969546 0
M  V30 4408 H 432.617 0.663636 3.99222 0
M  V30 4409 H 431.187 0.0491581 3.12561 0
M  V30 4410 H 430.407 2.53264 3.02077 0
M  V30 4411 H 431.695 2.8969 4.18279 0
M  V30 4412 H 431.093 0.0776467 5.65647 0
M  V30 4413 H 429.65 0.473612 6.50077 0
M  V30 4414 N 433.083 -1.0153 1.20538 0
M  V30 4415 C 434.046 -2.0826 0.957098 0
M  V30 4416 C 435.046 -1.60657 -0.0678655 0
M  V30 4417 O 436.236 -1.73385 0.168332 0
M  V30 4418 C 433.368 -3.38033 0.441188 0
M  V30 4419 H 434.561 -2.31719 1.90384 0
M  V30 4420 H 432.114 -1.1835 1.02093 0
M  V30 4421 H 432.849 -3.20249 -0.510961 0
M  V30 4422 H 432.634 -3.73911 1.18038 0
M  V30 4423 H 434.124 -4.16613 0.287009 0
M  V30 4424 N 434.561 -1.01147 -1.20859 0
M  V30 4425 C 435.808 -0.697865 -1.90095 0
M  V30 4426 C 436.136 0.772014 -1.78522 0
M  V30 4427 O 435.391 1.57595 -1.16027 0
M  V30 4428 C 435.69 -1.0727 -3.40922 0
M  V30 4429 C 435.356 -2.53792 -3.72693 0
M  V30 4430 C 434.018 -2.93829 -3.81075 0
M  V30 4431 C 436.37 -3.48674 -3.87397 0
M  V30 4432 C 433.698 -4.27696 -4.01613 0
M  V30 4433 C 436.05 -4.82223 -4.09444 0
M  V30 4434 C 434.714 -5.21973 -4.16054 0
M  V30 4435 H 433.984 -0.255367 -0.695607 0
M  V30 4436 H 436.631 -1.27111 -1.43231 0
M  V30 4437 H 434.936 -0.417799 -3.89566 0
M  V30 4438 H 436.633 -0.807818 -3.92779 0
M  V30 4439 H 433.223 -2.21768 -3.66765 0
M  V30 4440 H 437.407 -3.18904 -3.80281 0
M  V30 4441 H 432.663 -4.58055 -4.04964 0
M  V30 4442 H 436.837 -5.55672 -4.19763 0
M  V30 4443 H 434.464 -6.25717 -4.31721 0
M  V30 4444 N 436.039 1.36541 -0.78704 0
M  V30 4445 C 437.285 2.00044 -0.367938 0
M  V30 4446 C 437.64 1.61345 1.04812 0
M  V30 4447 O 436.933 0.856936 1.71368 0
M  V30 4448 C 437.127 3.54343 -0.466485 0
M  V30 4449 C 436.956 4.08029 -1.89058 0
M  V30 4450 C 435.726 4.38284 -2.51466 0
M  V30 4451 C 437.924 4.27954 -2.85236 0
M  V30 4452 N 435.906 4.77778 -3.85488 0
M  V30 4453 C 437.277 4.70227 -4.04088 0
M  V30 4454 C 439.332 4.10119 -2.82324 0
M  V30 4455 C 438.035 4.96532 -5.20432 0
M  V30 4456 C 440.061 4.37569 -3.97854 0
M  V30 4457 C 439.423 4.80095 -5.15449 0
M  V30 4458 H 435.522 0.760525 -0.182004 0
M  V30 4459 H 438.106 1.65589 -1.02413 0
M  V30 4460 H 436.277 3.88072 0.159606 0
M  V30 4461 H 438.009 4.04693 -0.0238577 0
M  V30 4462 H 434.764 4.27905 -2.02965 0
M  V30 4463 H 435.188 5.01813 -4.54437 0
M  V30 4464 H 439.83 3.76399 -1.92571 0
M  V30 4465 H 437.548 5.29134 -6.10773 0
M  V30 4466 H 441.134 4.25341 -3.96958 0
M  V30 4467 H 440.014 5.00925 -6.0336 0
M  V30 4468 N 437.518 0.538854 1.48102 0
M  V30 4469 C 438.468 -0.23907 2.26743 0
M  V30 4470 C 439.452 -0.901923 1.33245 0
M  V30 4471 O 440.644 -0.803263 1.57723 0
M  V30 4472 C 437.773 -1.2799 3.18549 0
M  V30 4473 C 436.859 -0.621388 4.19523 0
M  V30 4474 N 437.25 0.298004 5.04921 0
M  V30 4475 C 435.548 -0.877533 4.37282 0
M  V30 4476 C 436.249 0.678757 5.77726 0
M  V30 4477 N 435.225 0.0377881 5.43587 0
M  V30 4478 H 439.027 0.468096 2.90148 0
M  V30 4479 H 436.541 0.357497 1.58416 0
M  V30 4480 H 438.538 -1.851 3.73555 0
M  V30 4481 H 437.198 -1.98835 2.567 0
M  V30 4482 H 438.209 0.671126 5.13533 0
M  V30 4483 H 434.886 -1.57588 3.86616 0
M  V30 4484 H 436.276 1.43316 6.56437 0
M  V30 4485 N 438.996 -1.55193 0.274407 0
M  V30 4486 C 439.906 -2.26164 -0.623473 0
M  V30 4487 C 440.922 -1.28729 -1.17068 0
M  V30 4488 O 442.098 -1.61663 -1.20112 0
M  V30 4489 C 439.163 -2.96833 -1.7914 0
M  V30 4490 C 438.224 -4.09745 -1.28093 0
M  V30 4491 C 437.457 -4.77034 -2.3932 0
M  V30 4492 O 437.68 -4.4353 -3.5866 0
M  V30 4493 O 436.614 -5.64996 -2.07516 0
M  V30 4494 H 440.44 -3.03661 -0.0485661 0
M  V30 4495 H 438.025 -1.49341 0.0418382 0
M  V30 4496 H 439.907 -3.41248 -2.4724 0
M  V30 4497 H 438.582 -2.22253 -2.35341 0
M  V30 4498 H 437.489 -3.69787 -0.566416 0
M  V30 4499 H 438.822 -4.86224 -0.764683 0
M  V30 4500 N 440.474 -0.00167713 -1.576 0
M  V30 4501 C 441.72 0.67819 -1.91761 0
M  V30 4502 C 442.075 1.71288 -0.876256 0
M  V30 4503 O 441.368 1.91276 0.111333 0
M  V30 4504 C 441.562 1.36189 -3.30435 0
M  V30 4505 C 441.391 0.394938 -4.47962 0
M  V30 4506 C 440.161 0.00472875 -5.053 0
M  V30 4507 C 442.359 -0.339521 -5.13178 0
M  V30 4508 N 440.341 -0.960257 -6.06343 0
M  V30 4509 C 441.712 -1.15914 -6.09068 0
M  V30 4510 C 443.767 -0.403177 -4.96265 0
M  V30 4511 C 442.47 -2.03661 -6.89866 0
M  V30 4512 C 444.496 -1.26788 -5.77649 0
M  V30 4513 C 443.858 -2.07535 -6.73134 0
M  V30 4514 H 439.957 0.221317 -0.750028 0
M  V30 4515 H 442.541 -0.0624182 -1.946 0
M  V30 4516 H 440.712 2.07278 -3.28467 0
M  V30 4517 H 442.444 1.99658 -3.52021 0
M  V30 4518 H 439.199 0.373452 -4.72125 0
M  V30 4519 H 439.623 -1.43817 -6.61548 0
M  V30 4520 H 444.265 0.206818 -4.22294 0
M  V30 4521 H 441.983 -2.65727 -7.63161 0
M  V30 4522 H 445.569 -1.32107 -5.66603 0
M  V30 4523 H 444.449 -2.73363 -7.35012 0
M  V30 4524 N 441.952 1.55251 0.271103 0
M  V30 4525 C 443.368 1.47133 0.618393 0
M  V30 4526 C 443.568 0.686994 1.89427 0
M  V30 4527 O 442.624 0.206609 2.51653 0
M  V30 4528 C 443.937 2.91361 0.743593 0
M  V30 4529 C 445.485 3.01587 0.837522 0
M  V30 4530 C 445.96 4.47073 0.994483 0
M  V30 4531 N 447.451 4.50909 1.05996 0
M  V30 4532 C 448.186 5.60698 1.20024 0
M  V30 4533 N 447.682 6.80348 1.30759 0
M  V30 4534 N 449.475 5.48444 1.23149 0
M  V30 4535 H 441.626 2.04698 -0.566784 0
M  V30 4536 H 443.889 0.928319 -0.192165 0
M  V30 4537 H 443.595 3.51483 -0.123493 0
M  V30 4538 H 443.469 3.40484 1.62328 0
M  V30 4539 H 445.856 2.4156 1.69507 0
M  V30 4540 H 445.937 2.55713 -0.0668086 0
M  V30 4541 H 445.581 5.07703 0.141582 0
M  V30 4542 H 445.511 4.90605 1.91349 0
M  V30 4543 H 448.002 3.6472 0.989316 0
M  V30 4544 H 448.315 7.59772 1.41303 0
M  V30 4545 H 446.66 6.83156 1.27761 0
M  V30 4546 H 449.851 4.53907 1.14394 0
M  V30 4547 H 450.024 6.34049 1.33738 0
M  V30 4548 N 443.43 -0.535701 1.48216 0
M  V30 4549 C 444.377 -1.64083 1.62312 0
M  V30 4550 C 445.347 -1.59448 0.465365 0
M  V30 4551 O 446.532 -1.77959 0.688135 0
M  V30 4552 C 443.672 -3.0236 1.66349 0
M  V30 4553 C 442.785 -3.17273 2.93193 0
M  V30 4554 C 441.92 -4.46075 2.88427 0
M  V30 4555 C 440.959 -4.54496 4.1 0
M  V30 4556 N 440.096 -5.7468 4.03345 0
M  V30 4557 H 444.936 -1.51374 2.5669 0
M  V30 4558 H 442.473 -0.737059 1.27302 0
M  V30 4559 H 444.431 -3.82461 1.66672 0
M  V30 4560 H 443.061 -3.13854 0.754672 0
M  V30 4561 H 442.113 -2.30462 3.02641 0
M  V30 4562 H 443.425 -3.19357 3.83162 0
M  V30 4563 H 442.579 -5.3446 2.87119 0
M  V30 4564 H 441.318 -4.46504 1.96177 0
M  V30 4565 H 440.323 -3.64519 4.11589 0
M  V30 4566 H 441.548 -4.5581 5.03402 0
M  V30 4567 H 439.494 -5.76017 3.13912 0
M  V30 4568 H 439.411 -5.78234 4.87013 0
M  V30 4569 H 440.679 -6.65367 4.06087 0
M  V30 4570 N 444.908 -1.36708 -0.784132 0
M  V30 4571 C 446.156 -1.30972 -1.53918 0
M  V30 4572 C 446.477 0.109086 -1.94695 0
M  V30 4573 O 445.747 1.05048 -1.65353 0
M  V30 4574 H 444.327 -0.481819 -0.570841 0
M  V30 4575 H 446.989 -1.71063 -0.934002 0
M  V30 4576 H 446.085 -1.94061 -2.44431 0
M  V30 4577 N 446.386 1.0089 -1.21074 0
M  V30 4578 C 447.334 2.11707 -0.963476 0
M  V30 4579 C 448.328 1.69172 0.0879032 0
M  V30 4580 O 449.534 1.79889 -0.0631415 0
M  V30 4581 H 445.909 0.692026 -0.294287 0
M  V30 4582 H 447.88 2.29743 -1.90422 0
M  V30 4583 C 446.629 3.43473 -0.540509 0
M  V30 4584 H 445.952 3.76634 -1.34114 0
M  V30 4585 H 447.392 4.22044 -0.406777 0
M  V30 4586 C 445.851 3.2849 0.748079 0
M  V30 4587 O 446.381 3.58883 1.8046 0
M  V30 4588 N 444.587 2.81715 0.713081 0
M  V30 4589 H 444.134 2.5718 -0.146973 0
M  V30 4590 H 444.092 2.72071 1.57558 0
M  V30 4591 N 447.864 1.01787 1.20321 0
M  V30 4592 C 449.092 0.727194 1.937 0
M  V30 4593 C 449.507 -0.712305 1.74848 0
M  V30 4594 O 448.864 -1.48327 1.06327 0
M  V30 4595 C 448.915 1.05497 3.45764 0
M  V30 4596 O 448.636 2.43794 3.64 0
M  V30 4597 C 450.137 0.785534 4.36285 0
M  V30 4598 H 447.357 0.266939 0.615617 0
M  V30 4599 H 449.901 1.35939 1.52777 0
M  V30 4600 H 448.056 0.468158 3.84561 0
M  V30 4601 H 448.47 2.55656 4.57974 0
M  V30 4602 H 449.944 1.06495 5.4163 0
M  V30 4603 H 450.421 -0.280273 4.38305 0
M  V30 4604 H 451.027 1.35456 4.03152 0
M  V30 4605 N 449.342 -1.36122 0.79427 0
M  V30 4606 C 450.591 -1.98361 0.365464 0
M  V30 4607 C 450.904 -1.6374 -1.06997 0
M  V30 4608 O 452.11 -2.19251 -1.60129 0
M  V30 4609 C 450.566 -3.54821 0.602496 0
M  V30 4610 C 450.174 -3.98362 2.04967 0
M  V30 4611 C 451.918 -4.2383 0.238437 0
M  V30 4612 C 449.825 -5.47619 2.2331 0
M  V30 4613 H 448.755 -0.742193 0.13291 0
M  V30 4614 H 451.406 -1.55354 0.976589 0
M  V30 4615 H 449.788 -3.95922 -0.078409 0
M  V30 4616 H 450.962 -3.68447 2.76737 0
M  V30 4617 H 449.277 -3.42206 2.37243 0
M  V30 4618 H 451.874 -5.33529 0.353705 0
M  V30 4619 H 452.217 -4.08264 -0.814006 0
M  V30 4620 H 452.75 -3.88108 0.872769 0
M  V30 4621 H 449.489 -5.68138 3.26955 0
M  V30 4622 H 449.009 -5.79145 1.5605 0
M  V30 4623 H 450.688 -6.13911 2.0426 0
M  V30 4624 N 450.82 -0.546701 -1.47814 0
M  V30 4625 C 452.045 -0.021268 -2.07389 0
M  V30 4626 C 452.47 1.25822 -1.39822 0
M  V30 4627 O 451.828 1.75111 -0.46968 0
M  V30 4628 C 451.876 0.168502 -3.60206 0
M  V30 4629 O 450.98 1.23347 -3.93522 0
M  V30 4630 H 450.321 -0.0466108 -0.662362 0
M  V30 4631 H 452.851 -0.759387 -1.89985 0
M  V30 4632 H 452.861 0.385982 -4.0617 0
M  V30 4633 H 451.536 -0.766075 -4.08784 0
M  V30 4634 H 450.113 0.997319 -3.59316 0
M  V30 4635 N 452.299 1.55045 -0.282633 0
M  V30 4636 C 453.527 2.04168 0.33512 0
M  V30 4637 C 453.942 1.16071 1.48906 0
M  V30 4638 O 453.299 0.182391 1.81586 0
M  V30 4639 C 453.35 3.52332 0.808957 0
M  V30 4640 O 453.071 4.37078 -0.299038 0
M  V30 4641 C 454.572 4.17375 1.49375 0
M  V30 4642 H 451.792 0.666744 0.0754543 0
M  V30 4643 H 454.336 2.00205 -0.416918 0
M  V30 4644 H 452.491 3.56715 1.51106 0
M  V30 4645 H 452.905 5.24458 0.0665514 0
M  V30 4646 H 454.379 5.22627 1.77664 0
M  V30 4647 H 454.856 3.65999 2.42778 0
M  V30 4648 H 455.462 4.17016 0.835305 0
M  V30 4649 N 453.777 0.010035 1.57597 0
M  V30 4650 C 455.188 -0.531426 1.78977 0
M  V30 4651 C 455.539 -1.73375 0.918454 0
M  V30 4652 O 454.664 -2.16047 0.123635 0
M  V30 4653 C 455.259 -0.97086 3.24592 0
M  V30 4654 C 453.818 -1.45756 3.47033 0
M  V30 4655 C 452.965 -0.413384 2.74201 0
M  V30 4656 H 455.916 0.236166 1.56933 0
M  V30 4657 H 455.937 -1.83633 3.33255 0
M  V30 4658 H 455.449 -0.0955893 3.87982 0
M  V30 4659 H 453.55 -2.35339 2.88871 0
M  V30 4660 H 453.663 -1.4781 4.55729 0
M  V30 4661 H 452.027 -0.877266 2.39115 0
M  V30 4662 H 452.81 0.453092 3.40297 0
M  V30 4663 N 455.255 -1.55392 -0.262866 0
M  V30 4664 C 456.671 -1.47459 -0.610582 0
M  V30 4665 C 456.871 -0.697031 -1.8906 0
M  V30 4666 O 455.927 -0.219952 -2.5154 0
M  V30 4667 C 457.24 -2.91751 -0.728131 0
M  V30 4668 C 458.788 -3.02027 -0.821517 0
M  V30 4669 C 459.263 -4.47594 -0.97076 0
M  V30 4670 N 460.754 -4.51465 -1.03603 0
M  V30 4671 C 461.489 -5.61326 -1.17049 0
M  V30 4672 N 460.985 -6.81032 -1.2715 0
M  V30 4673 N 462.778 -5.49089 -1.20239 0
M  V30 4674 H 454.929 -2.04395 0.577632 0
M  V30 4675 H 457.192 -0.927287 0.197086 0
M  V30 4676 H 456.898 -3.51413 0.142132 0
M  V30 4677 H 456.772 -3.4134 -1.6052 0
M  V30 4678 H 459.159 -2.42456 -1.68224 0
M  V30 4679 H 459.24 -2.55674 0.0803688 0
M  V30 4680 H 458.884 -5.07771 -0.114655 0
M  V30 4681 H 458.814 -4.91613 -1.88745 0
M  V30 4682 H 461.305 -3.6524 -0.96996 0
M  V30 4683 H 461.618 -7.60511 -1.37271 0
M  V30 4684 H 459.963 -6.83824 -1.24136 0
M  V30 4685 H 463.154 -4.54507 -1.11985 0
M  V30 4686 H 463.327 -6.34749 -1.30373 0
M  V30 4687 N 456.733 0.527833 -1.48498 0
M  V30 4688 C 457.981 1.28101 -1.56316 0
M  V30 4689 C 458.302 1.9352 -0.239781 0
M  V30 4690 O 457.572 1.81433 0.738849 0
M  V30 4691 H 456.152 0.475793 -0.575873 0
M  V30 4692 H 458.814 0.614052 -1.84974 0
M  V30 4693 H 457.91 2.05916 -2.34532 0
M  V30 4694 N 458.211 1.37122 0.776871 0
M  V30 4695 C 459.488 1.22586 1.52421 0
M  V30 4696 C 459.868 -0.182726 2.10308 0
M  V30 4697 O 459.216 -1.18979 1.9508 0
M  V30 4698 C 459.426 2.31782 2.60918 0
M  V30 4699 C 460.774 2.69071 3.2846 0
M  V30 4700 O 461.798 2.3092 2.71209 0
M  V30 4701 O 460.657 3.3478 4.31954 0
M  V30 4702 H 457.751 0.478045 0.674835 0
M  V30 4703 H 460.297 1.48888 0.814275 0
M  V30 4704 H 459.069 3.26131 2.16227 0
M  V30 4705 H 458.692 2.06916 3.39517 0
M  V30 4706 N 459.689 -1.00246 1.21608 0
M  V30 4707 C 460.935 -1.74319 1.03638 0
M  V30 4708 C 461.268 -1.89408 -0.428749 0
M  V30 4709 O 460.543 -1.43026 -1.3181 0
M  V30 4710 C 460.826 -3.15431 1.73711 0
M  V30 4711 C 460.679 -3.08049 3.27759 0
M  V30 4712 C 461.998 -4.14407 1.48173 0
M  V30 4713 H 459.117 -0.632741 0.377899 0
M  V30 4714 H 461.759 -1.16853 1.49818 0
M  V30 4715 H 459.909 -3.64493 1.34452 0
M  V30 4716 H 461.581 -2.66681 3.76403 0
M  V30 4717 H 459.824 -2.45088 3.57931 0
M  V30 4718 H 460.495 -4.07862 3.71958 0
M  V30 4719 H 462.971 -3.74061 1.82258 0
M  V30 4720 H 461.847 -5.11279 1.99713 0
M  V30 4721 H 462.108 -4.40174 0.412273 0
M  V30 4722 N 461.167 -1.02423 -1.1978 0
M  V30 4723 C 462.413 -0.719051 -1.89625 0
M  V30 4724 C 462.746 0.750083 -1.7913 0
M  V30 4725 O 462.021 1.54574 -1.18056 0
M  V30 4726 C 462.304 -1.16499 -3.40735 0
M  V30 4727 C 462.157 -2.695 -3.60125 0
M  V30 4728 C 463.476 -0.742166 -4.33797 0
M  V30 4729 H 460.595 -0.26269 -0.688595 0
M  V30 4730 H 463.237 -1.27333 -1.41018 0
M  V30 4731 H 461.387 -0.69341 -3.82262 0
M  V30 4732 H 463.059 -3.24569 -3.278 0
M  V30 4733 H 461.302 -3.10113 -3.03336 0
M  V30 4734 H 461.973 -2.95757 -4.66081 0
M  V30 4735 H 464.449 -1.1477 -3.99959 0
M  V30 4736 H 463.325 -1.08213 -5.38127 0
M  V30 4737 H 463.586 0.355747 -4.40666 0
M  V30 4738 N 462.645 1.35699 -0.801477 0
M  V30 4739 C 463.875 2.02862 -0.3912 0
M  V30 4740 C 464.283 1.60552 1.00099 0
M  V30 4741 O 463.626 0.796215 1.65548 0
M  V30 4742 C 463.688 3.57386 -0.389299 0
M  V30 4743 C 463.352 4.22943 -1.73113 0
M  V30 4744 C 464.349 4.44984 -2.68859 0
M  V30 4745 C 462.034 4.60167 -2.01373 0
M  V30 4746 C 464.028 5.03345 -3.91053 0
M  V30 4747 C 461.715 5.18243 -3.23832 0
M  V30 4748 C 462.713 5.39773 -4.1849 0
M  V30 4749 O 462.401 5.96626 -5.38788 0
M  V30 4750 H 462.133 0.657341 -0.157732 0
M  V30 4751 H 464.687 1.74407 -1.08496 0
M  V30 4752 H 462.917 3.85011 0.361031 0
M  V30 4753 H 464.606 4.059 -0.0020365 0
M  V30 4754 H 465.372 4.1661 -2.48316 0
M  V30 4755 H 461.251 4.42726 -1.28508 0
M  V30 4756 H 464.795 5.20065 -4.64949 0
M  V30 4757 H 460.692 5.46044 -3.44248 0
M  V30 4758 H 461.46 6.15082 -5.40015 0
M  V30 4759 N 464.123 0.554532 1.47522 0
M  V30 4760 C 465.053 -0.182974 2.32782 0
M  V30 4761 C 466.034 -0.911377 1.43624 0
M  V30 4762 O 467.219 -0.892366 1.72483 0
M  V30 4763 C 464.349 -1.21513 3.25349 0
M  V30 4764 C 463.303 -0.603355 4.23726 0
M  V30 4765 C 462.629 -1.73995 5.05598 0
M  V30 4766 C 463.929 0.441121 5.20434 0
M  V30 4767 H 465.623 0.52882 2.94693 0
M  V30 4768 H 463.169 0.255759 1.41711 0
M  V30 4769 H 465.122 -1.73922 3.83835 0
M  V30 4770 H 463.846 -1.95683 2.61487 0
M  V30 4771 H 462.505 -0.10059 3.66462 0
M  V30 4772 H 462.153 -2.47063 4.38143 0
M  V30 4773 H 461.853 -1.3364 5.72201 0
M  V30 4774 H 463.377 -2.26735 5.66942 0
M  V30 4775 H 464.791 0.00319931 5.733 0
M  V30 4776 H 463.188 0.763402 5.95224 0
M  V30 4777 H 464.258 1.33799 4.66075 0
M  V30 4778 N 465.601 -1.54893 0.290851 0
M  V30 4779 C 466.878 -1.91991 -0.373989 0
M  V30 4780 C 467.258 -1.21694 -1.72493 0
M  V30 4781 O 466.606 -0.34917 -2.25816 0
M  V30 4782 C 466.816 -3.45419 -0.498703 0
M  V30 4783 C 468.164 -4.1748 -0.774298 0
M  V30 4784 O 469.188 -3.51398 -0.582908 0
M  V30 4785 O 468.047 -5.3445 -1.14129 0
M  V30 4786 H 465.141 -0.800593 -0.207315 0
M  V30 4787 H 467.687 -1.66297 0.338164 0
M  V30 4788 H 466.459 -3.88688 0.451392 0
M  V30 4789 H 466.082 -3.77117 -1.25972 0
M  V30 4790 N 467.08 -0.0183926 -1.57589 0
M  V30 4791 C 468.01 0.965596 -2.12599 0
M  V30 4792 C 468.991 1.34641 -1.0395 0
M  V30 4793 O 470.176 1.42693 -1.31729 0
M  V30 4794 C 467.306 2.25149 -2.64434 0
M  V30 4795 C 466.26 2.01175 -3.77773 0
M  V30 4796 C 465.586 3.35937 -4.15994 0
M  V30 4797 C 466.886 1.35953 -5.04296 0
M  V30 4798 H 468.58 0.507504 -2.95067 0
M  V30 4799 H 466.126 0.242671 -1.41941 0
M  V30 4800 H 468.079 2.94357 -3.01549 0
M  V30 4801 H 466.803 2.73105 -1.79112 0
M  V30 4802 H 465.462 1.34388 -3.4108 0
M  V30 4803 H 465.11 3.81631 -3.27669 0
M  V30 4804 H 464.81 3.20705 -4.92364 0
M  V30 4805 H 466.334 4.0643 -4.55683 0
M  V30 4806 H 467.748 1.95144 -5.39065 0
M  V30 4807 H 466.145 1.31152 -5.85593 0
M  V30 4808 H 467.215 0.331071 -4.83768 0
M  V30 4809 N 468.558 1.5553 0.254621 0
M  V30 4810 C 469.974 1.4778 0.602753 0
M  V30 4811 C 470.174 0.707047 1.88688 0
M  V30 4812 O 469.23 0.233288 2.5142 0
M  V30 4813 C 470.543 2.92133 0.712648 0
M  V30 4814 C 472.091 3.02458 0.805488 0
M  V30 4815 C 472.566 4.48102 0.947009 0
M  V30 4816 N 474.057 4.52008 1.01207 0
M  V30 4817 C 474.792 5.61939 1.1407 0
M  V30 4818 N 474.288 6.81697 1.23536 0
M  V30 4819 N 476.081 5.49719 1.17325 0
M  V30 4820 H 468.232 2.04085 -0.588463 0
M  V30 4821 H 470.495 0.926229 -0.202001 0
M  V30 4822 H 470.201 3.51332 -0.160766 0
M  V30 4823 H 470.075 3.42187 1.58707 0
M  V30 4824 H 472.462 2.43344 1.66936 0
M  V30 4825 H 472.543 2.55627 -0.0939266 0
M  V30 4826 H 472.187 5.07824 0.087725 0
M  V30 4827 H 472.117 4.92607 1.86135 0
M  V30 4828 H 474.608 3.65749 0.950577 0
M  V30 4829 H 474.921 7.61228 1.33236 0
M  V30 4830 H 473.266 6.84473 1.20508 0
M  V30 4831 H 476.457 4.55095 1.09573 0
M  V30 4832 H 476.63 6.35432 1.27005 0
M  V30 4833 N 470.036 -0.519951 1.48776 0
M  V30 4834 C 470.986 -1.61995 1.60442 0
M  V30 4835 C 471.97 -1.54155 0.460991 0
M  V30 4836 O 473.162 -1.62006 0.712965 0
M  V30 4837 C 470.291 -3.00683 1.65664 0
M  V30 4838 C 469.377 -3.1359 2.8552 0
M  V30 4839 N 469.768 -2.96441 4.09825 0
M  V30 4840 C 468.066 -3.44662 2.83062 0
M  V30 4841 C 468.767 -3.1303 4.90293 0
M  V30 4842 N 467.743 -3.41058 4.23297 0
M  V30 4843 H 471.545 -1.47362 2.54287 0
M  V30 4844 H 469.059 -0.725649 1.45286 0
M  V30 4845 H 471.056 -3.79712 1.72117 0
M  V30 4846 H 469.716 -3.16401 0.729425 0
M  V30 4847 H 470.727 -2.72999 4.40104 0
M  V30 4848 H 467.404 -3.66675 1.9964 0
M  V30 4849 H 468.794 -3.04424 5.98979 0
M  V30 4850 N 471.514 -1.37532 -0.769588 0
M  V30 4851 C 472.444 -1.36172 -1.89682 0
M  V30 4852 C 473.425 -0.23001 -1.68538 0
M  V30 4853 O 474.61 -0.43069 -1.89364 0
M  V30 4854 C 471.74 -1.1701 -3.26995 0
M  V30 4855 C 470.694 -2.27216 -3.62708 0
M  V30 4856 C 470.02 -1.93174 -4.98586 0
M  V30 4857 C 471.32 -3.6941 -3.69234 0
M  V30 4858 H 473.014 -2.30499 -1.91078 0
M  V30 4859 H 470.56 -1.10953 -0.917902 0
M  V30 4860 H 472.513 -1.14688 -4.05493 0
M  V30 4861 H 471.237 -0.191395 -3.26039 0
M  V30 4862 H 469.896 -2.28697 -2.86519 0
M  V30 4863 H 469.544 -0.938281 -4.94171 0
M  V30 4864 H 469.244 -2.66973 -5.23449 0
M  V30 4865 H 470.768 -1.92443 -5.79481 0
M  V30 4866 H 472.182 -3.70047 -4.37879 0
M  V30 4867 H 470.579 -4.4228 -4.05597 0
M  V30 4868 H 471.649 -4.0288 -2.69844 0
M  V30 4869 N 472.992 0.995999 -1.22138 0
M  V30 4870 C 474.24 1.73167 -1.042 0
M  V30 4871 C 474.561 1.90329 0.42423 0
M  V30 4872 O 473.831 1.4607 1.30539 0
M  V30 4873 H 472.411 0.641593 -0.38258 0
M  V30 4874 H 475.073 1.19974 -1.53598 0
M  V30 4875 H 474.169 2.72734 -1.51731 0
M  V30 4876 N 474.47 1.03057 1.19235 0
M  V30 4877 C 475.38 0.622922 2.26179 0
M  V30 4878 C 476.396 -0.346113 1.70523 0
M  V30 4879 O 477.572 -0.203572 2.00369 0
M  V30 4880 C 474.637 -0.0182063 3.46695 0
M  V30 4881 C 473.698 0.998546 4.17526 0
M  V30 4882 C 472.931 0.387917 5.32288 0
M  V30 4883 O 473.154 -0.808668 5.64639 0
M  V30 4884 O 472.088 1.1116 5.91546 0
M  V30 4885 H 475.914 1.51363 2.63292 0
M  V30 4886 H 473.499 0.800856 1.26122 0
M  V30 4887 H 475.381 -0.375606 4.19723 0
M  V30 4888 H 474.056 -0.882895 3.11427 0
M  V30 4889 H 472.963 1.40756 3.4661 0
M  V30 4890 H 474.296 1.83366 4.56769 0
M  V30 4891 N 475.948 -1.35272 0.808662 0
M  V30 4892 C 476.895 -2.29764 0.218482 0
M  V30 4893 C 477.865 -1.52911 -0.648652 0
M  V30 4894 O 479.05 -1.81341 -0.593297 0
M  V30 4895 C 476.19 -3.39388 -0.625282 0
M  V30 4896 C 475.303 -4.31202 0.262516 0
M  V30 4897 C 474.438 -5.27919 -0.589451 0
M  V30 4898 C 473.477 -6.11371 0.298617 0
M  V30 4899 N 472.614 -7.0022 -0.513443 0
M  V30 4900 H 477.454 -2.79645 1.02968 0
M  V30 4901 H 474.991 -1.37629 0.519303 0
M  V30 4902 H 476.949 -4.01615 -1.12966 0
M  V30 4903 H 475.579 -2.90777 -1.40173 0
M  V30 4904 H 474.631 -3.69962 0.885013 0
M  V30 4905 H 475.943 -4.89748 0.945971 0
M  V30 4906 H 475.097 -5.95529 -1.15888 0
M  V30 4907 H 473.836 -4.69875 -1.30647 0
M  V30 4908 H 472.841 -5.42707 0.880301 0
M  V30 4909 H 474.066 -6.71494 1.01352 0
M  V30 4910 H 472.012 -6.44662 -1.21439 0
M  V30 4911 H 471.929 -7.55917 0.111922 0
M  V30 4912 H 473.197 -7.72175 -1.06608 0
M  V30 4913 N 477.426 -0.562348 -1.47226 0
M  V30 4914 C 478.373 0.182461 -2.30078 0
M  V30 4915 C 479.343 0.903503 -1.39377 0
M  V30 4916 O 480.528 0.898188 -1.68337 0
M  V30 4917 C 477.668 1.20322 -3.23445 0
M  V30 4918 C 476.781 0.487717 -4.29238 0
M  V30 4919 C 475.916 1.49422 -5.09752 0
M  V30 4920 C 474.955 0.763976 -6.07314 0
M  V30 4921 N 474.092 1.71755 -6.80768 0
M  V30 4922 H 478.932 -0.530169 -2.93246 0
M  V30 4923 H 476.469 -0.273276 -1.44539 0
M  V30 4924 H 478.427 1.80768 -3.76004 0
M  V30 4925 H 477.057 1.88382 -2.6213 0
M  V30 4926 H 476.109 -0.231374 -3.79696 0
M  V30 4927 H 477.421 -0.0841003 -4.98729 0
M  V30 4928 H 476.575 2.17206 -5.66486 0
M  V30 4929 H 475.314 2.09995 -4.40174 0
M  V30 4930 H 474.319 0.0722344 -5.49753 0
M  V30 4931 H 475.544 0.16391 -6.78902 0
M  V30 4932 H 473.49 2.31177 -6.13916 0
M  V30 4933 H 473.407 1.19802 -7.46447 0
M  V30 4934 H 474.675 2.38638 -7.42073 0
M  V30 4935 N 478.904 1.54736 -0.299062 0
M  V30 4936 C 479.834 2.26409 0.571085 0
M  V30 4937 C 480.815 1.2629 1.13951 0
M  V30 4938 O 482 1.55059 1.16921 0
M  V30 4939 C 479.13 3.00338 1.74396 0
M  V30 4940 C 478.084 4.07588 1.30599 0
M  V30 4941 C 477.41 4.69222 2.56387 0
M  V30 4942 C 478.71 5.20455 0.438645 0
M  V30 4943 H 480.404 2.99388 -0.0266991 0
M  V30 4944 H 477.95 1.43993 -0.0142812 0
M  V30 4945 H 479.903 3.49198 2.35878 0
M  V30 4946 H 478.627 2.24934 2.36796 0
M  V30 4947 H 477.286 3.59575 0.71424 0
M  V30 4948 H 476.934 3.9046 3.17097 0
M  V30 4949 H 476.634 5.41653 2.27784 0
M  V30 4950 H 478.158 5.20844 3.18675 0
M  V30 4951 H 479.572 5.65221 0.959085 0
M  V30 4952 H 477.969 5.99594 0.246466 0
M  V30 4953 H 479.039 4.8192 -0.536738 0
M  V30 4954 N 480.382 0.0267497 1.57577 0
M  V30 4955 C 481.332 -0.965003 2.06571 0
M  V30 4956 C 482.316 -1.28694 0.965746 0
M  V30 4957 O 483.508 -1.27345 1.22932 0
M  V30 4958 C 480.637 -2.24821 2.59443 0
M  V30 4959 C 479.723 -1.95474 3.76365 0
M  V30 4960 N 480.114 -1.36387 4.87065 0
M  V30 4961 C 478.412 -2.25478 3.84806 0
M  V30 4962 C 479.113 -1.24119 5.68304 0
M  V30 4963 N 478.089 -1.7359 5.15138 0
M  V30 4964 H 481.891 -0.503095 2.89562 0
M  V30 4965 H 479.405 -0.178322 1.61418 0
M  V30 4966 H 481.402 -2.9674 2.92833 0
M  V30 4967 H 480.062 -2.7164 1.77881 0
M  V30 4968 H 481.073 -1.03919 5.07367 0
M  V30 4969 H 477.75 -2.74987 3.14147 0
M  V30 4970 H 479.14 -0.784504 6.67304 0
M  V30 4971 N 481.861 -1.55662 -0.24637 0
M  V30 4972 C 482.771 -1.93495 -1.32653 0
M  V30 4973 C 483.787 -0.835462 -1.5263 0
M  V30 4974 O 484.963 -1.1369 -1.66242 0
M  V30 4975 C 482.028 -2.22242 -2.66101 0
M  V30 4976 C 481.089 -3.45625 -2.54641 0
M  V30 4977 C 480.322 -3.72991 -3.81724 0
M  V30 4978 O 480.545 -3.02421 -4.8363 0
M  V30 4979 O 479.479 -4.66515 -3.80325 0
M  V30 4980 H 483.305 -2.85498 -1.03559 0
M  V30 4981 H 480.89 -1.42551 -0.44717 0
M  V30 4982 H 482.772 -2.42037 -3.44958 0
M  V30 4983 H 481.447 -1.33417 -2.94926 0
M  V30 4984 H 480.354 -3.31136 -1.74067 0
M  V30 4985 H 481.687 -4.34754 -2.3076 0
M  V30 4986 N 483.339 0.512053 -1.4905 0
M  V30 4987 C 484.755 0.84224 -1.35567 0
M  V30 4988 C 484.955 1.97878 -0.380319 0
M  V30 4989 O 484.011 2.51769 0.19201 0
M  V30 4990 C 485.324 1.19286 -2.76028 0
M  V30 4991 C 486.872 1.30171 -2.84648 0
M  V30 4992 C 487.347 1.68568 -4.25851 0
M  V30 4993 N 488.838 1.75638 -4.28609 0
M  V30 4994 C 489.573 2.06769 -5.34821 0
M  V30 4995 N 489.069 2.36201 -6.51292 0
M  V30 4996 N 490.862 2.07927 -5.22229 0
M  V30 4997 H 483.013 -0.237574 -2.11067 0
M  V30 4998 H 485.276 -0.0436747 -0.946993 0
M  V30 4999 H 484.982 0.431199 -3.49047 0
M  V30 5000 H 484.856 2.13889 -3.10695 0
M  V30 5001 H 487.243 2.05411 -2.11873 0
M  V30 5002 H 487.324 0.336457 -2.53578 0
M  V30 5003 H 486.968 0.938824 -4.99148 0
M  V30 5004 H 486.898 2.66174 -4.54377 0
M  V30 5005 H 489.389 1.55097 -3.44606 0
M  V30 5006 H 489.702 2.59112 -7.28066 0
M  V30 5007 H 488.047 2.33681 -6.54536 0
M  V30 5008 H 491.238 1.84403 -4.30248 0
M  V30 5009 H 491.411 2.31856 -6.05101 0
M  V30 5010 N 484.817 1.37938 0.762283 0
M  V30 5011 C 485.747 1.37176 1.88958 0
M  V30 5012 C 486.728 0.238945 1.68413 0
M  V30 5013 O 487.913 0.440726 1.89133 0
M  V30 5014 C 485.043 1.18742 3.2637 0
M  V30 5015 C 483.997 2.29136 3.61498 0
M  V30 5016 C 483.323 1.95816 4.97554 0
M  V30 5017 C 484.623 3.71363 3.6727 0
M  V30 5018 H 486.317 2.31509 1.89853 0
M  V30 5019 H 483.863 1.11438 0.912005 0
M  V30 5020 H 485.816 1.16837 4.04879 0
M  V30 5021 H 484.54 0.208683 3.25933 0
M  V30 5022 H 483.199 2.30213 2.85303 0
M  V30 5023 H 482.847 0.964475 4.93667 0
M  V30 5024 H 482.547 2.69745 5.22026 0
M  V30 5025 H 484.071 1.95513 5.78452 0
M  V30 5026 H 485.485 3.72364 4.35911 0
M  V30 5027 H 483.882 4.44425 4.03245 0
M  V30 5028 H 484.952 4.04305 2.67704 0
M  V30 5029 N 486.295 -0.989507 1.22664 0
M  V30 5030 C 487.706 -1.54406 1.04955 0
M  V30 5031 C 488.057 -1.92366 -0.385951 0
M  V30 5032 O 487.182 -1.75111 -1.27142 0
M  V30 5033 C 487.777 -2.80578 1.89899 0
M  V30 5034 C 486.336 -3.32464 1.76478 0
M  V30 5035 C 485.483 -2.05524 1.86159 0
M  V30 5036 H 488.434 -0.810211 1.3646 0
M  V30 5037 H 488.455 -3.53075 1.4184 0
M  V30 5038 H 487.967 -2.52918 2.94371 0
M  V30 5039 H 486.068 -3.65024 0.747528 0
M  V30 5040 H 486.181 -4.02838 2.59342 0
M  V30 5041 H 484.545 -2.19241 1.29636 0
M  V30 5042 H 485.328 -1.80258 2.92168 0
M  V30 5043 N 487.773 -1.03688 -1.18687 0
M  V30 5044 C 489.02 -0.73803 -1.88572 0
M  V30 5045 C 489.348 0.733973 -1.8012 0
M  V30 5046 O 488.603 1.55098 -1.19344 0
M  V30 5047 C 488.902 -1.14477 -3.3857 0
M  V30 5048 C 488.568 -2.61641 -3.67226 0
M  V30 5049 C 487.23 -3.01846 -3.74757 0
M  V30 5050 C 489.582 -3.56812 -3.79914 0
M  V30 5051 C 486.91 -4.36118 -3.92451 0
M  V30 5052 C 489.262 -4.90799 -3.99123 0
M  V30 5053 C 487.926 -5.3068 -4.04888 0
M  V30 5054 H 487.196 -0.270064 -0.690034 0
M  V30 5055 H 489.843 -1.3012 -1.40503 0
M  V30 5056 H 488.148 -0.500337 -3.88592 0
M  V30 5057 H 489.845 -0.89095 -3.90977 0
M  V30 5058 H 486.435 -2.29498 -3.61979 0
M  V30 5059 H 490.619 -3.26899 -3.73431 0
M  V30 5060 H 485.875 -4.66542 -3.95157 0
M  V30 5061 H 490.049 -5.64451 -4.07882 0
M  V30 5062 H 487.676 -6.34733 -4.18351 0
M  V30 5063 N 489.251 1.34841 -0.815825 0
M  V30 5064 C 490.5 1.97755 -0.396976 0
M  V30 5065 C 490.813 1.65422 1.04379 0
M  V30 5066 O 492.019 2.21771 1.5662 0
M  V30 5067 C 490.475 3.53818 -0.658869 0
M  V30 5068 C 490.083 3.95051 -2.11278 0
M  V30 5069 C 491.827 4.23397 -0.305834 0
M  V30 5070 C 489.734 5.43997 -2.31994 0
M  V30 5071 H 488.664 0.739985 -0.1447 0
M  V30 5072 H 491.315 1.53781 -1.00118 0
M  V30 5073 H 489.697 3.95997 0.0154112 0
M  V30 5074 H 490.871 3.63998 -2.82564 0
M  V30 5075 H 489.186 3.38388 -2.42657 0
M  V30 5076 H 491.783 5.32899 -0.43854 0
M  V30 5077 H 492.126 4.09508 0.748952 0
M  V30 5078 H 492.659 3.8667 -0.934403 0
M  V30 5079 H 489.398 5.62865 -3.35952 0
M  V30 5080 H 488.918 5.76589 -1.65244 0
M  V30 5081 H 490.597 6.10584 -2.14001 0
M  V30 5082 N 490.729 0.570148 1.46925 0
M  V30 5083 C 491.969 0.0534743 2.0433 0
M  V30 5084 C 492.333 -1.27729 1.4335 0
M  V30 5085 O 493.534 -1.88244 1.91879 0
M  V30 5086 C 491.805 -0.0244296 3.57392 0
M  V30 5087 S 493.364 -0.485351 4.36108 0
M  V30 5088 H 490.182 0.0313908 0.710307 0
M  V30 5089 H 492.784 0.759808 1.80131 0
M  V30 5090 H 491.488 0.948261 3.99295 0
M  V30 5091 H 491.019 -0.753922 3.86108 0
M  V30 5092 H 493.034 -1.74258 4.64595 0
M  V30 5093 N 492.207 -1.54576 0.307264 0
M  V30 5094 C 493.117 -2.27435 -0.57536 0
M  V30 5095 C 494.133 -1.31183 -1.14311 0
M  V30 5096 O 495.309 -1.64175 -1.16656 0
M  V30 5097 C 492.374 -3.00566 -1.72803 0
M  V30 5098 C 491.435 -4.12369 -1.19373 0
M  V30 5099 C 490.668 -4.82003 -2.29147 0
M  V30 5100 O 490.891 -4.51038 -3.49171 0
M  V30 5101 O 489.825 -5.69271 -1.95485 0
M  V30 5102 H 493.651 -3.03696 0.0158558 0
M  V30 5103 H 491.236 -1.49219 0.0735064 0
M  V30 5104 H 493.118 -3.46416 -2.39946 0
M  V30 5105 H 491.793 -2.27195 -2.30574 0
M  V30 5106 H 490.7 -3.70905 -0.487851 0
M  V30 5107 H 492.033 -4.87736 -0.661376 0
M  V30 5108 N 493.685 -0.035106 -1.57561 0
M  V30 5109 C 494.615 0.942993 -2.13612 0
M  V30 5110 C 495.596 1.33531 -1.05373 0
M  V30 5111 O 496.781 1.41287 -1.33235 0
M  V30 5112 C 493.911 2.22332 -2.66807 0
M  V30 5113 C 492.865 1.97156 -3.79886 0
M  V30 5114 C 492.191 3.31506 -4.19533 0
M  V30 5115 C 493.491 1.30596 -5.05709 0
M  V30 5116 H 495.185 0.476179 -2.95589 0
M  V30 5117 H 492.731 0.227602 -1.4219 0
M  V30 5118 H 494.684 2.91142 -3.04654 0
M  V30 5119 H 493.408 2.7119 -1.81999 0
M  V30 5120 H 492.067 1.30763 -3.42486 0
M  V30 5121 H 491.715 3.78134 -3.31698 0
M  V30 5122 H 491.415 3.15465 -4.95738 0
M  V30 5123 H 492.939 4.01574 -4.59968 0
M  V30 5124 H 494.353 1.89416 -5.41105 0
M  V30 5125 H 492.75 1.24934 -5.86951 0
M  V30 5126 H 493.82 0.279742 -4.84092 0
M  V30 5127 N 495.163 1.55791 0.238111 0
M  V30 5128 C 496.126 1.90239 1.27835 0
M  V30 5129 C 497.126 0.779552 1.4064 0
M  V30 5130 O 498.316 1.04747 1.3919 0
M  V30 5131 C 495.448 2.13859 2.65475 0
M  V30 5132 H 496.641 2.83262 0.985034 0
M  V30 5133 H 494.194 1.48818 0.477799 0
M  V30 5134 H 494.929 1.23334 2.99932 0
M  V30 5135 H 494.714 2.95643 2.57561 0
M  V30 5136 H 496.204 2.41664 3.40571 0
M  V30 5137 N 496.642 -0.504142 1.49319 0
M  V30 5138 C 497.589 -1.60603 1.65756 0
M  V30 5139 C 498.559 -1.58425 0.499082 0
M  V30 5140 O 499.744 -1.76459 0.725728 0
M  V30 5141 C 496.884 -2.98764 1.72726 0
M  V30 5142 C 495.997 -3.10982 2.99857 0
M  V30 5143 C 495.132 -4.39857 2.97824 0
M  V30 5144 C 494.171 -4.45697 4.19548 0
M  V30 5145 N 493.308 -5.65995 4.15444 0
M  V30 5146 H 498.148 -1.45895 2.59843 0
M  V30 5147 H 495.685 -0.709891 1.28837 0
M  V30 5148 H 497.643 -3.78839 1.74747 0
M  V30 5149 H 496.273 -3.12183 0.821075 0
M  V30 5150 H 495.325 -2.23991 3.07461 0
M  V30 5151 H 496.637 -3.11157 3.89849 0
M  V30 5152 H 495.791 -5.2825 2.98391 0
M  V30 5153 H 494.53 -4.42242 2.05604 0
M  V30 5154 H 493.535 -3.55707 4.19229 0
M  V30 5155 H 494.76 -4.4503 5.12957 0
M  V30 5156 H 492.706 -5.69229 3.26059 0
M  V30 5157 H 492.623 -5.67773 4.99169 0
M  V30 5158 H 493.891 -6.56604 4.20109 0
M  V30 5159 N 498.12 -1.38341 -0.754957 0
M  V30 5160 C 499.083 -1.35262 -1.85032 0
M  V30 5161 C 500.083 -0.253393 -1.58791 0
M  V30 5162 O 501.273 -0.510205 -1.66561 0
M  V30 5163 C 498.405 -1.10544 -3.22479 0
M  V30 5164 H 499.598 -2.32712 -1.8917 0
M  V30 5165 H 497.151 -1.23614 -0.956515 0
M  V30 5166 H 497.886 -0.136952 -3.24011 0
M  V30 5167 H 497.671 -1.90127 -3.4292 0
M  V30 5168 H 499.161 -1.11082 -4.02555 0
M  V30 5169 N 499.598 0.982988 -1.23187 0
M  V30 5170 C 500.828 1.75666 -1.08743 0
M  V30 5171 C 501.236 1.85662 0.364195 0
M  V30 5172 O 500.579 1.33317 1.26382 0
M  V30 5173 C 500.641 3.20144 -1.63549 0
M  V30 5174 C 500.305 3.33665 -3.12277 0
M  V30 5175 C 501.302 3.20194 -4.096 0
M  V30 5176 C 498.987 3.58397 -3.51933 0
M  V30 5177 C 500.981 3.31256 -5.44563 0
M  V30 5178 C 498.668 3.69098 -4.87042 0
M  V30 5179 C 499.666 3.55537 -5.83166 0
M  V30 5180 O 499.354 3.65864 -7.1582 0
M  V30 5181 H 499.086 0.558194 -0.381307 0
M  V30 5182 H 501.64 1.24387 -1.63454 0
M  V30 5183 H 499.87 3.72659 -1.03256 0
M  V30 5184 H 501.559 3.79262 -1.4462 0
M  V30 5185 H 502.325 3.00987 -3.80305 0
M  V30 5186 H 498.204 3.68025 -2.77631 0
M  V30 5187 H 501.748 3.20588 -6.19572 0
M  V30 5188 H 497.645 3.87814 -5.16014 0
M  V30 5189 H 498.413 3.82675 -7.23534 0
M  V30 5190 N 501.076 1.04316 1.18135 0
M  V30 5191 C 502.322 0.749128 1.88457 0
M  V30 5192 C 502.655 -0.72149 1.803 0
M  V30 5193 O 501.93 -1.52676 1.205 0
M  V30 5194 C 502.213 1.21905 3.38838 0
M  V30 5195 C 502.066 2.75195 3.55792 0
M  V30 5196 C 503.385 0.811085 4.32561 0
M  V30 5197 H 500.504 0.273611 0.684329 0
M  V30 5198 H 503.146 1.29561 1.38975 0
M  V30 5199 H 501.296 0.754137 3.8111 0
M  V30 5200 H 502.968 3.29743 3.22595 0
M  V30 5201 H 501.211 3.14899 2.98364 0
M  V30 5202 H 501.882 3.03135 4.61317 0
M  V30 5203 H 504.358 1.21118 3.98082 0
M  V30 5204 H 503.234 1.16761 5.36338 0
M  V30 5205 H 503.495 -0.285596 4.41177 0
M  V30 5206 N 502.554 -1.34406 0.822964 0
M  V30 5207 C 503.802 -1.97892 0.410245 0
M  V30 5208 C 504.123 -1.65567 -1.03017 0
M  V30 5209 O 503.393 -0.94642 -1.71522 0
M  V30 5210 H 501.973 -0.732049 0.148707 0
M  V30 5211 H 504.635 -1.64043 1.05242 0
M  V30 5212 H 503.731 -3.07579 0.529284 0
M  V30 5213 N 504.032 -0.577932 -1.46621 0
M  V30 5214 C 505.278 -0.0617793 -2.02706 0
M  V30 5215 C 505.611 1.29294 -1.44903 0
M  V30 5216 O 504.886 1.8461 -0.61232 0
M  V30 5217 C 505.169 0.00911824 -3.60099 0
M  V30 5218 C 505.022 -1.37416 -4.28295 0
M  V30 5219 C 506.341 0.712159 -4.343 0
M  V30 5220 H 503.46 -0.0239246 -0.736612 0
M  V30 5221 H 506.102 -0.744211 -1.74818 0
M  V30 5222 H 504.252 0.590292 -3.83989 0
M  V30 5223 H 505.924 -2.00013 -4.15683 0
M  V30 5224 H 504.167 -1.94319 -3.87843 0
M  V30 5225 H 504.838 -1.27707 -5.37024 0
M  V30 5226 H 507.314 0.218486 -4.15526 0
M  V30 5227 H 506.19 0.730782 -5.44014 0
M  V30 5228 H 506.451 1.77251 -4.05012 0
M  V30 5229 N 505.51 1.54411 -0.315457 0
M  V30 5230 C 506.787 1.92562 0.343398 0
M  V30 5231 C 507.167 1.24423 1.70535 0
M  V30 5232 O 506.515 0.385051 2.25232 0
M  V30 5233 C 506.725 3.46168 0.443687 0
M  V30 5234 C 508.073 4.18659 0.707783 0
M  V30 5235 O 509.097 3.52281 0.52693 0
M  V30 5236 O 507.956 5.36198 1.05612 0
M  V30 5237 H 505.05 0.80379 0.194552 0
M  V30 5238 H 507.596 1.65738 -0.364577 0
M  V30 5239 H 506.368 3.8792 -0.513172 0
M  V30 5240 H 505.991 3.79073 1.19956 0
M  V30 5241 N 506.988 0.0434614 1.5754 0
M  V30 5242 C 508.399 -0.493343 1.80064 0
M  V30 5243 C 508.75 -1.71388 0.955023 0
M  V30 5244 O 507.875 -2.15736 0.169434 0
M  V30 5245 C 508.47 -0.90179 3.26578 0
M  V30 5246 C 507.029 -1.38362 3.50047 0
M  V30 5247 C 506.176 -0.355129 2.75017 0
M  V30 5248 H 509.127 0.2694 1.56397 0
M  V30 5249 H 509.148 -1.76523 3.37075 0
M  V30 5250 H 508.66 -0.013271 3.88098 0
M  V30 5251 H 506.761 -2.29159 2.93798 0
M  V30 5252 H 506.874 -1.3811 4.58762 0
M  V30 5253 H 505.238 -0.826348 2.40922 0
M  V30 5254 H 506.021 0.525172 3.39259 0
M  V30 5255 N 508.466 -1.55915 -0.229846 0
M  V30 5256 C 509.712 -1.78807 -0.956868 0
M  V30 5257 C 510.045 -0.611687 -1.84315 0
M  V30 5258 O 509.32 0.389398 -1.90562 0
M  V30 5259 C 509.603 -3.11718 -1.80288 0
M  V30 5260 C 509.456 -4.3979 -0.943649 0
M  V30 5261 C 510.775 -3.40999 -2.78222 0
M  V30 5262 H 507.894 -0.6505 -0.346437 0
M  V30 5263 H 510.536 -1.88648 -0.226252 0
M  V30 5264 H 508.686 -3.03459 -2.42579 0
M  V30 5265 H 510.358 -4.60059 -0.338121 0
M  V30 5266 H 508.601 -4.33086 -0.248705 0
M  V30 5267 H 509.272 -5.29208 -1.5698 0
M  V30 5268 H 511.748 -3.49332 -2.26067 0
M  V30 5269 H 510.624 -4.35183 -3.34526 0
M  V30 5270 H 510.885 -2.62754 -3.55546 0
M  V30 5271 N 509.944 0.496216 -1.49584 0
M  V30 5272 C 510.891 1.59722 -1.66606 0
M  V30 5273 C 511.861 1.58158 -0.507477 0
M  V30 5274 O 513.046 1.76072 -0.735076 0
M  V30 5275 C 510.186 2.97844 -1.74308 0
M  V30 5276 C 509.299 3.09388 -3.01502 0
M  V30 5277 C 508.434 4.38271 -3.00153 0
M  V30 5278 C 507.473 4.43466 -4.21906 0
M  V30 5279 N 506.61 5.63784 -4.1844 0
M  V30 5280 H 511.45 1.44515 -2.60613 0
M  V30 5281 H 508.987 0.703048 -1.29212 0
M  V30 5282 H 510.945 3.77907 -1.76754 0
M  V30 5283 H 509.575 3.11743 -0.837619 0
M  V30 5284 H 508.627 2.22357 -3.08645 0
M  V30 5285 H 509.939 3.09085 -3.91494 0
M  V30 5286 H 509.093 5.2666 -3.01188 0
M  V30 5287 H 507.832 4.41146 -2.07947 0
M  V30 5288 H 506.837 3.53478 -4.21109 0
M  V30 5289 H 508.062 4.42303 -5.1531 0
M  V30 5290 H 506.008 5.67491 -3.29074 0
M  V30 5291 H 505.925 5.65118 -5.02173 0
M  V30 5292 H 507.193 6.54367 -4.23585 0
M  V30 5293 N 511.423 1.38739 0.74761 0
M  V30 5294 C 512.333 1.38696 1.89211 0
M  V30 5295 C 513.349 0.283303 1.71678 0
M  V30 5296 O 514.525 0.522713 1.94498 0
M  V30 5297 C 511.59 1.21662 3.24653 0
M  V30 5298 C 510.651 2.41886 3.54669 0
M  V30 5299 C 509.884 2.25655 4.83648 0
M  V30 5300 O 510.107 1.25339 5.56459 0
M  V30 5301 O 509.041 3.14372 5.13277 0
M  V30 5302 H 512.867 2.35143 1.92202 0
M  V30 5303 H 510.452 1.19721 0.893708 0
M  V30 5304 H 512.334 1.14246 4.05618 0
M  V30 5305 H 511.009 0.283024 3.2246 0
M  V30 5306 H 509.916 2.54877 2.73841 0
M  V30 5307 H 511.249 3.33895 3.61628 0
M  V30 5308 N 512.901 -0.976442 1.23707 0
M  V30 5309 C 514.312 -1.53284 1.06587 0
M  V30 5310 C 514.663 -1.92765 -0.365526 0
M  V30 5311 O 513.788 -1.7645 -1.25277 0
M  V30 5312 C 514.383 -2.78548 1.92864 0
M  V30 5313 C 512.942 -3.30574 1.79994 0
M  V30 5314 C 512.089 -2.03538 1.88328 0
M  V30 5315 H 515.04 -0.795692 1.37311 0
M  V30 5316 H 515.061 -3.5155 1.45577 0
M  V30 5317 H 514.573 -2.49782 2.97037 0
M  V30 5318 H 512.674 -3.64211 0.786202 0
M  V30 5319 H 512.787 -4.00065 2.636 0
M  V30 5320 H 511.151 -2.17853 1.31954 0
M  V30 5321 H 511.934 -1.77149 2.94063 0
M  V30 5322 N 514.379 -1.04941 -1.1758 0
M  V30 5323 C 515.628 -0.753124 -1.87112 0
M  V30 5324 C 515.941 0.722507 -1.81767 0
M  V30 5325 O 517.147 1.13265 -2.46746 0
M  V30 5326 C 515.603 -1.29695 -3.35719 0
M  V30 5327 C 515.211 -2.80184 -3.49572 0
M  V30 5328 C 516.955 -1.07759 -4.10595 0
M  V30 5329 C 514.862 -3.2788 -4.92187 0
M  V30 5330 H 513.792 -0.278034 -0.700866 0
M  V30 5331 H 516.443 -1.26637 -1.32798 0
M  V30 5332 H 514.825 -0.711522 -3.89555 0
M  V30 5333 H 515.999 -3.44561 -3.05965 0
M  V30 5334 H 514.314 -3.00632 -2.88113 0
M  V30 5335 H 516.911 -1.40899 -5.15802 0
M  V30 5336 H 517.254 -0.0152302 -4.16297 0
M  V30 5337 H 517.787 -1.62809 -3.62957 0
M  V30 5338 H 514.526 -4.33535 -4.91658 0
M  V30 5339 H 514.046 -2.68245 -5.36475 0
M  V30 5340 H 515.725 -3.22412 -5.60945 0
M  V30 5341 N 515.857 1.33968 -0.830081 0
M  V30 5342 C 517.268 1.80439 -0.479455 0
M  V30 5343 C 517.619 1.68756 1.00079 0
M  V30 5344 O 516.744 1.23171 1.77927 0
M  V30 5345 C 517.339 3.27611 -0.863505 0
M  V30 5346 C 515.898 3.72133 -0.565145 0
M  V30 5347 C 515.045 2.55549 -1.07657 0
M  V30 5348 H 517.996 1.21614 -1.0196 0
M  V30 5349 H 518.017 3.8012 -0.170083 0
M  V30 5350 H 517.529 3.36082 -1.94089 0
M  V30 5351 H 515.63 3.69196 0.502536 0
M  V30 5352 H 515.743 4.65963 -1.11422 0
M  V30 5353 H 514.107 2.49788 -0.497807 0
M  V30 5354 H 514.89 2.66786 -2.16055 0
M  V30 5355 N 517.335 0.585699 1.46312 0
M  V30 5356 C 518.581 0.0725284 2.0267 0
M  V30 5357 C 518.914 -1.28523 1.45586 0
M  V30 5358 O 518.189 -1.84283 0.622101 0
M  V30 5359 C 518.472 0.0099788 3.60099 0
M  V30 5360 C 518.325 1.39685 4.27561 0
M  V30 5361 C 519.644 -0.689117 4.34671 0
M  V30 5362 H 516.763 0.0278307 0.736474 0
M  V30 5363 H 519.405 0.753472 1.74421 0
M  V30 5364 H 517.555 -0.56992 3.84297 0
M  V30 5365 H 519.227 2.02215 4.14617 0
M  V30 5366 H 517.47 1.96374 3.86807 0
M  V30 5367 H 518.141 1.30553 5.36339 0
M  V30 5368 H 520.617 -0.196446 4.15636 0
M  V30 5369 H 519.493 -0.701921 5.44393 0
M  V30 5370 H 519.754 -1.75101 4.05946 0
M  V30 5371 N 518.813 -1.54241 0.323641 0
M  V30 5372 C 520.229 -1.59574 -0.0290018 0
M  V30 5373 C 520.429 -1.34017 -1.50472 0
M  V30 5374 O 519.485 -1.12464 -2.26071 0
M  V30 5375 C 520.798 -2.98169 0.389295 0
M  V30 5376 C 522.346 -3.11148 0.339958 0
M  V30 5377 C 522.821 -4.5209 0.733418 0
M  V30 5378 N 524.312 -4.5808 0.686827 0
M  V30 5379 C 525.047 -5.65248 0.963464 0
M  V30 5380 N 524.543 -6.80355 1.30724 0
M  V30 5381 N 526.336 -5.55025 0.88902 0
M  V30 5382 H 518.487 -1.6911 1.28512 0
M  V30 5383 H 520.75 -0.790972 0.522558 0
M  V30 5384 H 520.456 -3.21871 1.41746 0
M  V30 5385 H 520.33 -3.76399 -0.245657 0
M  V30 5386 H 522.717 -2.87182 -0.679002 0
M  V30 5387 H 522.798 -2.35023 1.00985 0
M  V30 5388 H 522.442 -4.76788 1.75029 0
M  V30 5389 H 522.372 -5.26584 0.0412189 0
M  V30 5390 H 524.863 -3.75411 0.43298 0
M  V30 5391 H 525.176 -7.58029 1.5037 0
M  V30 5392 H 523.521 -6.81851 1.3455 0
M  V30 5393 H 526.712 -4.63977 0.619939 0
M  V30 5394 H 526.885 -6.38458 1.10797 0
M  V30 5395 N 520.291 -0.0518155 -1.57515 0
M  V30 5396 C 521.702 0.483787 -1.80323 0
M  V30 5397 C 522.053 1.70879 -0.964099 0
M  V30 5398 O 521.178 2.15643 -0.180872 0
M  V30 5399 C 521.773 0.884459 -3.27052 0
M  V30 5400 C 520.332 1.36504 -3.50776 0
M  V30 5401 C 519.479 0.340539 -2.75201 0
M  V30 5402 H 522.43 -0.277691 -1.56252 0
M  V30 5403 H 522.451 1.74733 -3.38007 0
M  V30 5404 H 521.963 -0.00731093 -3.88099 0
M  V30 5405 H 520.064 2.27598 -2.95009 0
M  V30 5406 H 520.177 1.35675 -4.59488 0
M  V30 5407 H 518.541 0.81356 -2.41357 0
M  V30 5408 H 519.324 -0.543156 -3.38976 0
M  V30 5409 N 521.769 1.56035 0.221574 0
M  V30 5410 C 522.997 1.8313 0.962864 0
M  V30 5411 C 523.412 0.630934 1.77946 0
M  V30 5412 O 522.769 -0.400519 1.78051 0
M  V30 5413 C 522.82 3.08742 1.88045 0
M  V30 5414 O 522.541 4.24147 1.09686 0
M  V30 5415 C 524.042 3.48824 2.73563 0
M  V30 5416 H 521.262 0.608775 0.282194 0
M  V30 5417 H 523.806 2.03124 0.23681 0
M  V30 5418 H 521.961 2.90723 2.56045 0
M  V30 5419 H 522.375 4.95505 1.71974 0
M  V30 5420 H 523.849 4.39752 3.3365 0
M  V30 5421 H 524.326 2.70575 3.45956 0
M  V30 5422 H 524.932 3.69282 2.10976 0
M  V30 5423 N 523.247 -0.488276 1.49845 0
M  V30 5424 C 524.21 -1.57069 1.66919 0
M  V30 5425 C 525.21 -1.51445 0.540479 0
M  V30 5426 O 526.4 -1.5437 0.807188 0
M  V30 5427 C 523.532 -2.96718 1.67844 0
M  V30 5428 H 524.725 -1.43254 2.63474 0
M  V30 5429 H 522.278 -0.713435 1.39068 0
M  V30 5430 H 523.013 -3.15996 0.7292 0
M  V30 5431 H 522.798 -3.02208 2.49826 0
M  V30 5432 H 524.288 -3.75335 1.83066 0
M  V30 5433 N 524.725 -1.39134 -0.740242 0
M  V30 5434 C 525.675 -1.33928 -1.84519 0
M  V30 5435 C 526.659 -0.221097 -1.59374 0
M  V30 5436 O 527.851 -0.458195 -1.70967 0
M  V30 5437 C 524.98 -1.17991 -3.22387 0
M  V30 5438 C 524.066 -2.34488 -3.53378 0
M  V30 5439 N 524.457 -3.59954 -3.5534 0
M  V30 5440 C 522.755 -2.27331 -3.83714 0
M  V30 5441 C 523.456 -4.36962 -3.83978 0
M  V30 5442 N 522.432 -3.66482 -4.01487 0
M  V30 5443 H 526.234 -2.28907 -1.84333 0
M  V30 5444 H 523.748 -1.32555 -0.938237 0
M  V30 5445 H 525.745 -1.12345 -4.01478 0
M  V30 5446 H 524.405 -0.23957 -3.23815 0
M  V30 5447 H 525.416 -3.93448 -3.36778 0
M  V30 5448 H 522.093 -1.41531 -3.92779 0
M  V30 5449 H 523.483 -5.45692 -3.92008 0
M  V30 5450 N 526.204 0.969867 -1.24223 0
M  V30 5451 C 527.434 1.74502 -1.106 0
M  V30 5452 C 527.842 1.86038 0.344483 0
M  V30 5453 O 527.185 1.3465 1.24961 0
M  V30 5454 C 527.247 3.18391 -1.66935 0
M  V30 5455 C 526.911 3.30334 -3.15798 0
M  V30 5456 C 527.908 3.15832 -4.12973 0
M  V30 5457 C 525.593 3.54644 -3.55715 0
M  V30 5458 C 527.587 3.25461 -5.48045 0
M  V30 5459 C 525.274 3.63912 -4.90929 0
M  V30 5460 C 526.272 3.49332 -5.86904 0
M  V30 5461 O 525.96 3.58251 -7.1966 0
M  V30 5462 H 525.692 0.554119 -0.387206 0
M  V30 5463 H 528.246 1.22646 -1.64764 0
M  V30 5464 H 526.476 3.71543 -1.07203 0
M  V30 5465 H 528.165 3.77707 -1.48634 0
M  V30 5466 H 528.931 2.96937 -3.83476 0
M  V30 5467 H 524.81 3.65059 -2.81519 0
M  V30 5468 H 528.354 3.13998 -6.22937 0
M  V30 5469 H 524.251 3.82319 -5.20098 0
M  V30 5470 H 525.019 3.7498 -7.27552 0
M  V30 5471 N 527.682 1.05563 1.17022 0
M  V30 5472 C 528.91 0.78845 1.91288 0
M  V30 5473 C 529.325 -0.656318 1.77025 0
M  V30 5474 O 528.682 -1.44869 1.10992 0
M  V30 5475 C 528.733 1.16444 3.42232 0
M  V30 5476 O 528.454 2.5525 3.5606 0
M  V30 5477 C 529.955 0.923937 4.33565 0
M  V30 5478 H 527.175 0.286389 0.606813 0
M  V30 5479 H 529.719 1.4073 1.48375 0
M  V30 5480 H 527.874 0.590266 3.82877 0
M  V30 5481 H 528.288 2.70097 4.49609 0
M  V30 5482 H 529.762 1.23672 5.37968 0
M  V30 5483 H 530.239 -0.140688 4.38975 0
M  V30 5484 H 530.845 1.48214 3.98639 0
M  V30 5485 N 529.16 -1.33526 0.837174 0
M  V30 5486 C 530.093 -2.27192 0.214233 0
M  V30 5487 C 531.071 -1.49575 -0.637657 0
M  V30 5488 O 532.255 -1.78753 -0.598291 0
M  V30 5489 C 529.382 -3.31401 -0.699367 0
M  V30 5490 C 528.428 -4.26431 0.0768429 0
M  V30 5491 S 529.261 -5.15954 1.4336 0
M  V30 5492 C 530.417 -6.23692 0.525251 0
M  V30 5493 H 530.65 -2.79679 1.00831 0
M  V30 5494 H 528.183 -1.4079 0.633834 0
M  V30 5495 H 530.141 -3.91924 -1.22088 0
M  V30 5496 H 528.802 -2.77732 -1.46709 0
M  V30 5497 H 527.995 -5.00193 -0.618268 0
M  V30 5498 H 527.597 -3.70235 0.529364 0
M  V30 5499 H 529.889 -6.76931 -0.277575 0
M  V30 5500 H 530.832 -6.97283 1.23299 0
M  V30 5501 H 531.24 -5.64398 0.107351 0
M  V30 5502 N 530.638 -0.59345 -1.46 0
M  V30 5503 C 531.886 -0.082988 -2.0193 0
M  V30 5504 C 532.207 1.28569 -1.46612 0
M  V30 5505 O 531.477 1.84629 -0.654909 0
M  V30 5506 H 530.057 -0.0276882 -0.746487 0
M  V30 5507 H 532.719 -0.771657 -1.78973 0
M  V30 5508 H 531.815 -0.022079 -3.12092 0
M  V30 5509 N 532.116 1.54067 -0.331816 0
M  V30 5510 C 533.364 2.00319 0.267739 0
M  V30 5511 C 533.685 1.22148 1.52003 0
M  V30 5512 O 532.955 0.325494 1.93177 0
M  V30 5513 H 531.535 0.740014 0.101922 0
M  V30 5514 H 534.197 1.89628 -0.450267 0
M  V30 5515 H 533.293 3.07765 0.518385 0
M  V30 5516 N 533.594 0.0601682 1.57485 0
M  V30 5517 C 534.843 -0.611101 1.9222 0
M  V30 5518 C 535.156 -1.71469 0.941159 0
M  V30 5519 O 536.362 -2.44473 1.18089 0
M  V30 5520 C 534.818 -1.13832 3.41424 0
M  V30 5521 C 534.426 -0.0663596 4.47951 0
M  V30 5522 C 536.17 -1.78432 3.85178 0
M  V30 5523 C 534.077 -0.606965 5.88277 0
M  V30 5524 H 533.007 -0.232033 0.71741 0
M  V30 5525 H 535.658 0.130518 1.83035 0
M  V30 5526 H 534.04 -1.93254 3.45643 0
M  V30 5527 H 535.214 0.707682 4.55333 0
M  V30 5528 H 533.529 0.482715 4.13593 0
M  V30 5529 H 536.126 -2.1989 4.87394 0
M  V30 5530 H 536.469 -2.63966 3.21913 0
M  V30 5531 H 537.002 -1.05651 3.83514 0
M  V30 5532 H 533.741 0.21095 6.5516 0
M  V30 5533 H 533.261 -1.34879 5.84438 0
M  V30 5534 H 534.94 -1.08704 6.37803 0
M  V30 5535 N 535.072 -1.5615 -0.213296 0
M  V30 5536 C 535.982 -1.96265 -1.28519 0
M  V30 5537 C 536.998 -0.86765 -1.50824 0
M  V30 5538 O 538.174 -1.17191 -1.63793 0
M  V30 5539 C 535.239 -2.27836 -2.61327 0
M  V30 5540 C 534.3 -3.50949 -2.47252 0
M  V30 5541 C 533.533 -3.81004 -3.73727 0
M  V30 5542 O 533.756 -3.12612 -4.77106 0
M  V30 5543 O 532.69 -4.74477 -3.70344 0
M  V30 5544 H 536.516 -2.87631 -0.974795 0
M  V30 5545 H 534.101 -1.43467 -0.416832 0
M  V30 5546 H 535.983 -2.49299 -3.39747 0
M  V30 5547 H 534.658 -1.39643 -2.9203 0
M  V30 5548 H 533.565 -3.34754 -1.67004 0
M  V30 5549 H 534.898 -4.39551 -2.21486 0
M  V30 5550 N 536.55 0.480323 -1.50102 0
M  V30 5551 C 537.778 1.25657 -1.64371 0
M  V30 5552 C 538.193 1.86011 -0.323316 0
M  V30 5553 O 537.55 1.68803 0.693682 0
M  V30 5554 C 537.601 2.37197 -2.728 0
M  V30 5555 O 537.322 1.7932 -3.9972 0
M  V30 5556 C 538.823 3.2823 -2.9796 0
M  V30 5557 H 536.043 0.380369 -0.552775 0
M  V30 5558 H 538.587 0.574379 -1.96268 0
M  V30 5559 H 536.742 3.01208 -2.43623 0
M  V30 5560 H 537.156 2.52701 -4.59611 0
M  V30 5561 H 538.63 4.02725 -3.77513 0
M  V30 5562 H 539.107 3.86462 -2.08671 0
M  V30 5563 H 539.713 2.69964 -3.28633 0
M  V30 5564 N 538.028 1.39524 0.732853 0
M  V30 5565 C 539.305 1.27373 1.48444 0
M  V30 5566 C 539.685 -0.115725 2.10783 0
M  V30 5567 O 539.033 -1.12713 1.98766 0
M  V30 5568 C 539.243 2.39966 2.53412 0
M  V30 5569 C 540.591 2.79384 3.19733 0
M  V30 5570 O 541.615 2.39431 2.63725 0
M  V30 5571 O 540.474 3.48353 4.21085 0
M  V30 5572 H 537.568 0.499272 0.659285 0
M  V30 5573 H 540.114 1.51403 0.766496 0
M  V30 5574 H 538.886 3.32845 2.05742 0
M  V30 5575 H 538.509 2.17612 3.32762 0
M  V30 5576 N 539.506 -0.963266 1.24736 0
M  V30 5577 C 540.438 -2.06162 1.0015 0
M  V30 5578 C 541.451 -1.62771 -0.0305905 0
M  V30 5579 O 542.64 -1.77296 0.206966 0
M  V30 5580 C 539.74 -3.35333 0.490385 0
M  V30 5581 C 538.913 -4.07609 1.58663 0
M  V30 5582 C 537.972 -5.15052 1.0774 0
M  V30 5583 O 536.998 -5.4098 1.77002 0
M  V30 5584 N 538.2 -5.80436 -0.0858605 0
M  V30 5585 H 540.965 -2.27825 1.94719 0
M  V30 5586 H 538.526 -1.13121 1.15825 0
M  V30 5587 H 540.518 -4.04477 0.134371 0
M  V30 5588 H 539.088 -3.10507 -0.361155 0
M  V30 5589 H 538.308 -3.32681 2.11463 0
M  V30 5590 H 539.596 -4.52656 2.32336 0
M  V30 5591 H 538.994 -5.6178 -0.664806 0
M  V30 5592 H 537.551 -6.50674 -0.382981 0
M  V30 5593 N 540.985 -1.06182 -1.16461 0
M  V30 5594 C 541.933 -0.665716 -2.2287 0
M  V30 5595 C 542.927 0.317822 -1.66392 0
M  V30 5596 O 544.133 0.182807 -1.79069 0
M  V30 5597 H 540.508 -0.197148 -0.725697 0
M  V30 5598 H 542.479 -1.57307 -2.53569 0
M  V30 5599 C 541.228 -0.0669803 -3.47635 0
M  V30 5600 H 540.551 -0.814899 -3.91407 0
M  V30 5601 H 541.991 0.172669 -4.23648 0
M  V30 5602 C 540.45 1.18913 -3.15216 0
M  V30 5603 O 540.98 2.27723 -3.30916 0
M  V30 5604 N 539.186 1.09066 -2.69357 0
M  V30 5605 H 538.733 0.20518 -2.56782 0
M  V30 5606 H 538.691 1.93195 -2.48039 0
M  V30 5607 N 542.463 1.3308 -0.844243 0
M  V30 5608 C 543.703 1.99414 -0.448697 0
M  V30 5609 C 544.067 1.65398 0.975058 0
M  V30 5610 O 545.268 2.24741 1.47461 0
M  V30 5611 C 543.539 3.51081 -0.669089 0
M  V30 5612 S 545.098 4.37241 -0.369564 0
M  V30 5613 H 541.916 0.690736 -0.168538 0
M  V30 5614 H 544.518 1.61977 -1.0947 0
M  V30 5615 H 543.222 3.73326 -1.70457 0
M  V30 5616 H 542.753 3.93399 -0.00913211 0
M  V30 5617 H 544.768 4.89568 0.808552 0
M  V30 5618 N 543.941 0.601185 1.45683 0
M  V30 5619 C 544.851 -0.123395 2.34275 0
M  V30 5620 C 545.867 -0.86702 1.5086 0
M  V30 5621 O 547.043 -0.826049 1.8368 0
M  V30 5622 C 544.108 -1.11237 3.2837 0
M  V30 5623 C 543.169 -0.371405 4.2769 0
M  V30 5624 C 542.402 -1.31327 5.1729 0
M  V30 5625 O 542.625 -2.55078 5.10188 0
M  V30 5626 O 541.559 -0.813811 5.96373 0
M  V30 5627 H 545.385 0.604483 2.97623 0
M  V30 5628 H 542.97 0.361477 1.44961 0
M  V30 5629 H 544.852 -1.68214 3.8637 0
M  V30 5630 H 543.527 -1.82139 2.67595 0
M  V30 5631 H 542.434 0.24067 3.73325 0
M  V30 5632 H 543.767 0.296998 4.91303 0
M  V30 5633 N 545.419 -1.53889 0.339982 0
M  V30 5634 C 546.647 -2.05271 -0.259114 0
M  V30 5635 C 547.062 -1.21517 -1.44496 0
M  V30 5636 O 546.419 -0.24966 -1.80784 0
M  V30 5637 C 546.47 -3.55092 -0.677634 0
M  V30 5638 O 546.191 -4.35667 0.461051 0
M  V30 5639 C 547.692 -4.22631 -1.33782 0
M  V30 5640 H 544.912 -0.669085 -0.0506566 0
M  V30 5641 H 547.456 -1.9852 0.490935 0
M  V30 5642 H 545.611 -3.62077 -1.37763 0
M  V30 5643 H 546.025 -5.24343 0.128144 0
M  V30 5644 H 547.499 -5.28861 -1.58145 0
M  V30 5645 H 547.976 -3.74758 -2.29027 0
M  V30 5646 H 548.582 -4.19829 -0.679957 0
M  V30 5647 N 546.897 -0.0685191 -1.57451 0
M  V30 5648 C 548.313 0.288101 -1.56978 0
M  V30 5649 C 548.513 1.70262 -1.07765 0
M  V30 5650 O 547.569 2.4135 -0.742054 0
M  V30 5651 C 548.882 0.100745 -3.00531 0
M  V30 5652 C 550.43 0.170531 -3.12535 0
M  V30 5653 C 550.905 0.0114944 -4.57999 0
M  V30 5654 N 552.396 0.0672065 -4.63151 0
M  V30 5655 C 553.131 -0.0314813 -5.73391 0
M  V30 5656 N 552.627 -0.183503 -6.92557 0
M  V30 5657 N 554.42 0.0253489 -5.62094 0
M  V30 5658 H 546.571 -0.993026 -1.87757 0
M  V30 5659 H 548.834 -0.386981 -0.865419 0
M  V30 5660 H 548.54 -0.875197 -3.40636 0
M  V30 5661 H 548.414 0.854457 -3.67395 0
M  V30 5662 H 550.801 1.13696 -2.72318 0
M  V30 5663 H 550.882 -0.614229 -2.48316 0
M  V30 5664 H 550.526 -0.951684 -4.98904 0
M  V30 5665 H 550.456 0.815617 -5.20245 0
M  V30 5666 H 552.947 0.183246 -3.77455 0
M  V30 5667 H 553.26 -0.251041 -7.72392 0
M  V30 5668 H 551.605 -0.218822 -6.94655 0
M  V30 5669 H 554.796 0.142794 -4.67882 0
M  V30 5670 H 554.969 -0.0550166 -6.47977 0
M  V30 5671 N 548.375 1.56261 0.205012 0
M  V30 5672 C 549.624 1.79236 0.925058 0
M  V30 5673 C 549.937 0.640011 1.84833 0
M  V30 5674 O 551.143 0.753809 2.60826 0
M  V30 5675 C 549.599 3.17475 1.69522 0
M  V30 5676 C 549.207 4.40482 0.817269 0
M  V30 5677 C 550.951 3.49766 2.4055 0
M  V30 5678 C 548.858 5.69744 1.58573 0
M  V30 5679 H 547.788 0.668287 0.349153 0
M  V30 5680 H 550.439 1.82629 0.178544 0
M  V30 5681 H 548.821 3.08304 2.48526 0
M  V30 5682 H 549.995 4.60752 0.0665988 0
M  V30 5683 H 548.31 4.15827 0.218316 0
M  V30 5684 H 550.907 4.43573 2.98575 0
M  V30 5685 H 551.25 2.73041 3.14252 0
M  V30 5686 H 551.783 3.60341 1.68522 0
M  V30 5687 H 548.522 6.49407 0.891679 0
M  V30 5688 H 548.042 5.53509 2.31059 0
M  V30 5689 H 549.721 6.1051 2.14212 0
M  V30 5690 N 549.853 -0.472356 1.50355 0
M  V30 5691 C 550.8 -1.57051 1.69126 0
M  V30 5692 C 551.77 -1.5733 0.532574 0
M  V30 5693 O 552.955 -1.7488 0.762994 0
M  V30 5694 C 550.095 -2.95033 1.79024 0
M  V30 5695 C 549.208 -3.04552 3.06386 0
M  V30 5696 C 548.343 -4.33441 3.07087 0
M  V30 5697 C 547.382 -4.36697 4.28908 0
M  V30 5698 N 546.519 -5.57056 4.27356 0
M  V30 5699 H 551.359 -1.40351 2.62879 0
M  V30 5700 H 548.896 -0.682403 1.30314 0
M  V30 5701 H 550.854 -3.75048 1.82744 0
M  V30 5702 H 549.484 -3.10371 0.887109 0
M  V30 5703 H 548.536 -2.17419 3.12143 0
M  V30 5704 H 549.848 -3.02818 3.96362 0
M  V30 5705 H 549.002 -5.21801 3.09529 0
M  V30 5706 H 547.741 -4.37782 2.14939 0
M  V30 5707 H 546.746 -3.46734 4.2668 0
M  V30 5708 H 547.971 -4.34049 5.22282 0
M  V30 5709 H 545.917 -5.62184 3.3806 0
M  V30 5710 H 545.834 -5.57058 5.111 0
M  V30 5711 H 547.102 -6.47545 4.33942 0
M  V30 5712 N 551.331 -1.39911 -0.725443 0
M  V30 5713 C 552.579 -1.37382 -1.48224 0
M  V30 5714 C 552.9 0.0264107 -1.94982 0
M  V30 5715 O 552.17 0.979408 -1.6966 0
M  V30 5716 H 550.75 -0.505596 -0.549892 0
M  V30 5717 H 553.412 -1.7487 -0.860608 0
M  V30 5718 H 552.508 -2.04254 -2.3598 0
M  V30 5719 N 552.809 0.956637 -1.25245 0
M  V30 5720 C 553.739 2.07058 -1.07931 0
M  V30 5721 C 554.72 1.70096 0.0110361 0
M  V30 5722 O 555.905 1.93555 -0.158121 0
M  V30 5723 C 553.035 3.40272 -0.695124 0
M  V30 5724 C 551.989 3.91235 -1.73549 0
M  V30 5725 C 551.315 5.20921 -1.20604 0
M  V30 5726 C 552.615 4.17837 -3.13385 0
M  V30 5727 H 554.309 2.218 -2.01109 0
M  V30 5728 H 551.855 1.06581 -0.968326 0
M  V30 5729 H 553.808 4.1765 -0.560949 0
M  V30 5730 H 552.532 3.25462 0.272355 0
M  V30 5731 H 551.191 3.16025 -1.85807 0
M  V30 5732 H 550.839 5.02479 -0.228846 0
M  V30 5733 H 550.539 5.55987 -1.90136 0
M  V30 5734 H 552.063 6.00897 -1.08421 0
M  V30 5735 H 553.477 4.8588 -3.04292 0
M  V30 5736 H 551.874 4.64154 -3.80369 0
M  V30 5737 H 552.944 3.2419 -3.60595 0
M  V30 5738 N 554.287 1.06798 1.15896 0
M  V30 5739 C 555.534 0.787767 1.86549 0
M  V30 5740 C 555.862 -0.685959 1.82002 0
M  V30 5741 O 555.117 -1.5188 1.23414 0
M  V30 5742 C 555.416 1.23414 3.35416 0
M  V30 5743 C 555.082 2.71285 3.6016 0
M  V30 5744 C 553.744 3.11676 3.66622 0
M  V30 5745 C 556.096 3.6676 3.7032 0
M  V30 5746 C 553.424 4.4637 3.8075 0
M  V30 5747 C 555.776 5.01209 3.8597 0
M  V30 5748 C 554.44 5.41229 3.90676 0
M  V30 5749 H 553.71 0.288264 0.682631 0
M  V30 5750 H 556.357 1.338 1.37003 0
M  V30 5751 H 554.662 0.60319 3.87129 0
M  V30 5752 H 556.359 0.994298 3.88477 0
M  V30 5753 H 552.949 2.39015 3.55767 0
M  V30 5754 H 557.133 3.36685 3.64633 0
M  V30 5755 H 552.389 4.76855 3.82648 0
M  V30 5756 H 556.563 5.75067 3.92773 0
M  V30 5757 H 554.19 6.45602 4.01375 0
M  V30 5758 N 555.766 -1.3263 0.851289 0
M  V30 5759 C 556.729 -2.27247 0.298541 0
M  V30 5760 C 557.729 -1.51467 -0.539847 0
M  V30 5761 O 558.919 -1.7061 -0.351843 0
M  V30 5762 C 556.051 -3.35964 -0.578004 0
M  V30 5763 H 557.244 -2.7765 1.13359 0
M  V30 5764 H 554.797 -1.43245 0.625354 0
M  V30 5765 H 555.532 -2.90823 -1.435 0
M  V30 5766 H 555.317 -3.92094 0.0220539 0
M  V30 5767 H 556.807 -4.06472 -0.957626 0
M  V30 5768 N 557.244 -0.608902 -1.45362 0
M  V30 5769 C 558.49 -0.104762 -2.02529 0
M  V30 5770 C 558.823 1.26191 -1.47613 0
M  V30 5771 O 558.098 1.8327 -0.65134 0
M  V30 5772 C 558.381 -0.0672661 -3.60037 0
M  V30 5773 C 558.234 -1.4647 -4.25284 0
M  V30 5774 C 559.553 0.619877 -4.35713 0
M  V30 5775 H 556.672 -0.0395438 -0.735938 0
M  V30 5776 H 559.314 -0.781126 -1.73201 0
M  V30 5777 H 557.464 0.50871 -3.85155 0
M  V30 5778 H 559.136 -2.08785 -4.11347 0
M  V30 5779 H 557.379 -2.02502 -3.83634 0
M  V30 5780 H 558.05 -1.39069 -5.34195 0
M  V30 5781 H 560.526 0.130297 -4.15896 0
M  V30 5782 H 559.402 0.615224 -5.45441 0
M  V30 5783 H 559.663 1.68621 -4.0868 0
M  V30 5784 N 558.722 1.53707 -0.348139 0
M  V30 5785 C 559.97 2.00591 0.246478 0
M  V30 5786 C 560.291 1.23753 1.50699 0
M  V30 5787 O 559.561 0.345964 1.92821 0
M  V30 5788 H 558.141 0.741053 0.0940679 0
M  V30 5789 H 560.803 1.89139 -0.470354 0
M  V30 5790 H 559.899 3.08297 0.485714 0
M  V30 5791 N 560.2 0.0768682 1.57412 0
M  V30 5792 C 561.11 -0.903207 2.16516 0
M  V30 5793 C 562.126 -1.32341 1.12968 0
M  V30 5794 O 563.302 -1.39507 1.45258 0
M  V30 5795 C 560.367 -2.1508 2.71922 0
M  V30 5796 C 559.428 -1.78653 3.90361 0
M  V30 5797 C 558.661 -2.97465 4.43114 0
M  V30 5798 O 558.884 -4.11638 3.94854 0
M  V30 5799 O 557.818 -2.76987 5.3438 0
M  V30 5800 H 561.644 -0.430427 3.00634 0
M  V30 5801 H 559.229 -0.146485 1.4868 0
M  V30 5802 H 561.111 -2.8823 3.07411 0
M  V30 5803 H 559.786 -2.61446 1.9086 0
M  V30 5804 H 558.693 -1.0274 3.59716 0
M  V30 5805 H 560.026 -1.37066 4.7273 0
M  V30 5806 N 561.678 -1.56367 -0.196722 0
M  V30 5807 C 562.918 -1.82315 -0.92415 0
M  V30 5808 C 563.282 -0.654117 -1.80514 0
M  V30 5809 O 564.483 -0.79345 -2.56823 0
M  V30 5810 C 562.754 -3.13279 -1.72021 0
M  V30 5811 S 564.313 -3.60627 -2.49988 0
M  V30 5812 H 561.131 -0.639862 -0.309997 0
M  V30 5813 H 563.733 -1.94597 -0.187684 0
M  V30 5814 H 562.437 -3.96379 -1.06358 0
M  V30 5815 H 561.968 -3.03871 -2.49852 0
M  V30 5816 H 563.983 -3.25934 -3.74141 0
M  V30 5817 N 563.156 0.464375 -1.50603 0
M  V30 5818 C 564.381 1.24372 -1.65971 0
M  V30 5819 C 564.806 1.84901 -0.345453 0
M  V30 5820 O 564.164 1.67596 0.691457 0
M  V30 5821 C 564.212 2.32331 -2.7578 0
M  V30 5822 O 563.316 3.37146 -2.375 0
M  V30 5823 H 562.657 0.365604 -0.554283 0
M  V30 5824 H 565.187 0.55183 -1.97018 0
M  V30 5825 H 565.197 2.77539 -2.99059 0
M  V30 5826 H 563.872 1.87648 -3.71162 0
M  V30 5827 H 562.449 2.97602 -2.24694 0
M  V30 5828 N 564.634 1.40294 0.718013 0
M  V30 5829 C 565.859 1.41941 1.5122 0
M  V30 5830 C 566.284 0.0202371 1.88089 0
M  V30 5831 O 565.642 -0.971078 1.53101 0
M  V30 5832 C 565.69 2.3141 2.76554 0
M  V30 5833 O 564.794 1.75567 3.73162 0
M  V30 5834 H 564.135 0.482644 0.456016 0
M  V30 5835 H 566.665 1.84494 0.884478 0
M  V30 5836 H 566.675 2.46513 3.25108 0
M  V30 5837 H 565.35 3.33085 2.49053 0
M  V30 5838 H 563.927 1.69798 3.31999 0
M  V30 5839 N 566.112 -0.949982 1.2575 0
M  V30 5840 C 567.358 -1.69766 1.10938 0
M  V30 5841 C 567.691 -1.91056 -0.348028 0
M  V30 5842 O 566.966 -1.48488 -1.25625 0
M  V30 5843 C 567.249 -3.07779 1.86933 0
M  V30 5844 C 567.102 -2.9387 3.4053 0
M  V30 5845 C 568.421 -4.07749 1.65616 0
M  V30 5846 H 565.54 -0.616144 0.404396 0
M  V30 5847 H 568.182 -1.10394 1.54639 0
M  V30 5848 H 566.332 -3.58462 1.4979 0
M  V30 5849 H 568.004 -2.50476 3.87375 0
M  V30 5850 H 566.247 -2.29686 3.68004 0
M  V30 5851 H 566.918 -3.91719 3.88922 0
M  V30 5852 H 569.394 -3.65994 1.97959 0
M  V30 5853 H 568.27 -5.02348 2.21218 0
M  V30 5854 H 568.531 -4.38029 0.598595 0
M  V30 5855 N 567.59 -1.07411 -1.15328 0
M  V30 5856 C 568.838 -0.796073 -1.85761 0
M  V30 5857 C 569.159 0.679864 -1.82764 0
M  V30 5858 O 568.429 1.49242 -1.269 0
M  V30 5859 H 567.009 -0.291495 -0.687779 0
M  V30 5860 H 569.671 -1.35799 -1.39802 0
M  V30 5861 H 568.767 -1.13114 -2.90881 0
M  V30 5862 N 569.068 1.32177 -0.85831 0
M  V30 5863 C 569.998 2.31282 -0.321041 0
M  V30 5864 C 570.979 1.59841 0.581786 0
M  V30 5865 O 572.164 1.87619 0.501262 0
M  V30 5866 C 569.294 3.4385 0.48832 0
M  V30 5867 C 568.248 4.26799 -0.320391 0
M  V30 5868 C 567.574 5.31164 0.613934 0
M  V30 5869 C 568.874 4.98829 -1.54813 0
M  V30 5870 H 570.568 2.76469 -1.14915 0
M  V30 5871 H 568.114 1.32916 -0.554028 0
M  V30 5872 H 570.067 4.12224 0.874626 0
M  V30 5873 H 568.791 2.97401 1.34983 0
M  V30 5874 H 567.45 3.60077 -0.688497 0
M  V30 5875 H 567.098 4.80967 1.47239 0
M  V30 5876 H 566.798 5.8755 0.0768097 0
M  V30 5877 H 568.322 6.024 0.997336 0
M  V30 5878 H 569.736 5.59864 -1.23392 0
M  V30 5879 H 568.133 5.64957 -2.02346 0
M  V30 5880 H 569.203 4.26483 -2.30739 0
M  V30 5881 N 570.547 0.616602 1.45037 0
M  V30 5882 C 571.497 -0.118543 2.27692 0
M  V30 5883 C 572.481 -0.830025 1.37838 0
M  V30 5884 O 573.673 -0.718528 1.6176 0
M  V30 5885 C 570.802 -1.10924 3.24886 0
M  V30 5886 C 569.888 -0.398134 4.22227 0
M  V30 5887 N 570.279 0.565233 5.02632 0
M  V30 5888 C 568.577 -0.644506 4.41319 0
M  V30 5889 C 569.278 0.984043 5.73316 0
M  V30 5890 N 568.254 0.325879 5.42622 0
M  V30 5891 H 572.056 0.621239 2.87259 0
M  V30 5892 H 569.57 0.440968 1.56299 0
M  V30 5893 H 571.567 -1.65038 3.82842 0
M  V30 5894 H 570.227 -1.84948 2.66879 0
M  V30 5895 H 571.238 0.942395 5.09254 0
M  V30 5896 H 567.915 -1.36873 3.94426 0
M  V30 5897 H 569.305 1.77911 6.47918 0
M  V30 5898 N 572.025 -1.5352 0.356285 0
M  V30 5899 C 573.273 -2.00719 -0.235837 0
M  V30 5900 C 573.594 -1.24551 -1.5004 0
M  V30 5901 O 572.864 -0.356185 -1.92635 0
M  V30 5902 H 571.444 -0.741542 -0.0901366 0
M  V30 5903 H 574.106 -1.88887 0.480378 0
M  V30 5904 H 573.202 -3.08551 -0.469357 0
M  V30 5905 N 573.503 -0.0852151 -1.57369 0
M  V30 5906 C 574.466 0.8627 -2.12344 0
M  V30 5907 C 575.466 1.21746 -1.05046 0
M  V30 5908 O 576.656 1.14852 -1.30976 0
M  V30 5909 C 573.788 2.1618 -2.63589 0
M  V30 5910 H 574.981 0.385511 -2.97412 0
M  V30 5911 H 572.534 0.163663 -1.55441 0
M  V30 5912 H 573.269 2.68406 -1.82013 0
M  V30 5913 H 573.054 1.91723 -3.4203 0
M  V30 5914 H 574.544 2.84011 -3.06149 0
M  V30 5915 N 574.981 1.5647 0.188427 0
M  V30 5916 C 575.929 1.95971 1.25293 0
M  V30 5917 C 576.923 0.846047 1.4676 0
M  V30 5918 O 578.129 1.03109 1.47542 0
M  V30 5919 H 574.504 0.623253 0.420784 0
M  V30 5920 H 576.475 2.84731 0.892792 0
M  V30 5921 C 575.224 2.32116 2.58877 0
M  V30 5922 H 574.547 3.17341 2.43176 0
M  V30 5923 H 575.987 2.63613 3.3209 0
M  V30 5924 C 574.446 1.15823 3.16365 0
M  V30 5925 O 574.976 0.436785 3.99318 0
M  V30 5926 N 573.182 0.933278 2.75206 0
M  V30 5927 H 572.729 1.52169 2.07852 0
M  V30 5928 H 572.687 0.156976 3.14008 0
M  V30 5929 N 576.459 -0.456382 1.50847 0
M  V30 5930 C 577.875 -0.791345 1.386 0
M  V30 5931 C 578.075 -1.9633 0.453498 0
M  V30 5932 O 577.131 -2.52308 -0.0984353 0
M  V30 5933 C 578.444 -1.08959 2.80265 0
M  V30 5934 C 579.992 -1.19517 2.89283 0
M  V30 5935 C 580.467 -1.52647 4.31814 0
M  V30 5936 N 581.958 -1.59609 4.34832 0
M  V30 5937 C 582.693 -1.86777 5.42127 0
M  V30 5938 N 582.189 -2.11866 6.59609 0
M  V30 5939 N 583.982 -1.88402 5.29586 0
M  V30 5940 H 576.133 0.315746 2.1004 0
M  V30 5941 H 578.396 0.0787916 0.94472 0
M  V30 5942 H 578.102 -0.301355 3.50407 0
M  V30 5943 H 577.976 -2.02211 3.18419 0
M  V30 5944 H 580.363 -1.97406 2.19351 0
M  V30 5945 H 580.444 -0.242111 2.54652 0
M  V30 5946 H 580.088 -0.752922 5.02288 0
M  V30 5947 H 580.018 -2.49127 4.63943 0
M  V30 5948 H 582.509 -1.42201 3.50125 0
M  V30 5949 H 582.822 -2.31912 7.37182 0
M  V30 5950 H 581.167 -2.09228 6.62758 0
M  V30 5951 H 584.358 -1.68307 4.36795 0
M  V30 5952 H 584.531 -2.09238 6.13289 0
M  V30 5953 N 577.937 -1.40673 -0.710563 0
M  V30 5954 C 578.867 -1.44095 -1.83736 0
M  V30 5955 C 579.848 -0.301286 -1.67411 0
M  V30 5956 O 581.033 -0.510618 -1.87367 0
M  V30 5957 C 578.163 -1.30773 -3.21738 0
M  V30 5958 C 577.117 -2.42395 -3.52745 0
M  V30 5959 C 576.443 -2.14147 -4.89944 0
M  V30 5960 C 577.743 -3.84738 -3.53234 0
M  V30 5961 H 579.437 -2.38396 -1.81129 0
M  V30 5962 H 576.983 -1.14746 -0.870017 0
M  V30 5963 H 578.936 -1.31783 -4.00264 0
M  V30 5964 H 577.66 -0.329507 -3.24934 0
M  V30 5965 H 576.319 -2.40643 -2.76562 0
M  V30 5966 H 575.967 -1.14703 -4.89747 0
M  V30 5967 H 575.667 -2.88934 -5.11655 0
M  V30 5968 H 577.191 -2.16848 -5.70797 0
M  V30 5969 H 578.605 -3.88286 -4.2179 0
M  V30 5970 H 577.002 -4.59085 -3.86473 0
M  V30 5971 H 578.072 -4.13962 -2.52514 0
M  V30 5972 N 579.415 0.9433 -1.26252 0
M  V30 5973 C 580.663 1.68592 -1.11451 0
M  V30 5974 C 580.984 1.91957 0.343123 0
M  V30 5975 O 580.254 1.51475 1.24226 0
M  V30 5976 H 578.834 0.624789 -0.409448 0
M  V30 5977 H 581.496 1.13351 -1.58548 0
M  V30 5978 H 580.592 2.66054 -1.63162 0
M  V30 5979 N 580.893 1.08022 1.14757 0
M  V30 5980 C 582.118 0.82895 1.90114 0
M  V30 5981 C 582.543 -0.612772 1.77839 0
M  V30 5982 O 581.901 -1.42895 1.11583 0
M  V30 5983 C 581.949 1.25062 3.38219 0
M  V30 5984 O 581.053 0.400119 4.10454 0
M  V30 5985 H 580.394 0.301412 0.591648 0
M  V30 5986 H 582.924 1.44062 1.45284 0
M  V30 5987 H 582.934 1.22977 3.89025 0
M  V30 5988 H 581.609 2.30067 3.46471 0
M  V30 5989 H 580.186 0.484052 3.69745 0
M  V30 5990 N 582.371 -1.3172 0.865308 0
M  V30 5991 C 583.319 -2.30569 0.306674 0
M  V30 5992 C 584.313 -1.59317 -0.575724 0
M  V30 5993 O 585.519 -1.73961 -0.462343 0
M  V30 5994 H 581.894 -0.747681 0.0804834 0
M  V30 5995 H 583.865 -2.75165 1.15441 0
M  V30 5996 C 582.614 -3.44358 -0.480952 0
M  V30 5997 H 581.937 -3.99354 0.18876 0
M  V30 5998 H 583.377 -4.15652 -0.837241 0
M  V30 5999 C 581.836 -2.92574 -1.67039 0
M  V30 6000 O 582.366 -2.90954 -2.76964 0
M  V30 6001 N 580.572 -2.48835 -1.50097 0
M  V30 6002 H 580.119 -2.50353 -0.606738 0
M  V30 6003 H 580.077 -2.14543 -2.29823 0
M  V30 6004 N 583.85 -0.624285 -1.44708 0
M  V30 6005 C 585.075 -0.131171 -2.06985 0
M  V30 6006 C 585.5 1.18234 -1.46295 0
M  V30 6007 O 584.858 1.72375 -0.561842 0
M  V30 6008 C 584.906 -0.0226724 -3.60593 0
M  V30 6009 O 584.01 1.02314 -3.99507 0
M  V30 6010 H 583.351 -0.0816556 -0.65896 0
M  V30 6011 H 585.88 -0.859027 -1.85693 0
M  V30 6012 H 585.891 0.170138 -4.07645 0
M  V30 6013 H 584.566 -0.981685 -4.04148 0
M  V30 6014 H 583.143 0.805452 -3.64097 0
M  V30 6015 N 585.328 1.53329 -0.364422 0
M  V30 6016 C 586.258 2.28627 0.474543 0
M  V30 6017 C 587.239 1.31009 1.08492 0
M  V30 6018 O 588.424 1.59878 1.10239 0
M  V30 6019 C 585.554 3.07465 1.61501 0
M  V30 6020 C 584.508 4.1276 1.13194 0
M  V30 6021 C 583.834 4.79674 2.36255 0
M  V30 6022 C 585.134 5.21847 0.217507 0
M  V30 6023 H 586.828 2.99005 -0.153656 0
M  V30 6024 H 584.374 1.43803 -0.0753406 0
M  V30 6025 H 586.327 3.58889 2.20855 0
M  V30 6026 H 585.051 2.34775 2.27042 0
M  V30 6027 H 583.71 3.62281 0.56109 0
M  V30 6028 H 583.358 4.03557 3.00251 0
M  V30 6029 H 583.058 5.50827 2.04606 0
M  V30 6030 H 584.582 5.33892 2.96297 0
M  V30 6031 H 585.996 5.6878 0.718493 0
M  V30 6032 H 584.393 6.00099 -0.00806408 0
M  V30 6033 H 585.463 4.7921 -0.740653 0
M  V30 6034 N 586.806 0.0935595 1.57322 0
M  V30 6035 C 587.769 -0.851426 2.12799 0
M  V30 6036 C 588.769 -1.21187 1.0569 0
M  V30 6037 O 589.959 -1.14156 1.31583 0
M  V30 6038 C 587.091 -2.14779 2.64731 0
M  V30 6039 H 588.284 -0.369733 2.97612 0
M  V30 6040 H 585.837 -0.155417 1.55525 0
M  V30 6041 H 586.572 -2.67437 1.83434 0
M  V30 6042 H 586.357 -1.89907 3.43042 0
M  V30 6043 H 587.847 -2.82383 3.07651 0
M  V30 6044 N 588.284 -1.56567 -0.180126 0
M  V30 6045 C 589.194 -1.98947 -1.24327 0
M  V30 6046 C 590.21 -0.899446 -1.4895 0
M  V30 6047 O 591.386 -1.20639 -1.61271 0
M  V30 6048 C 588.451 -2.33328 -2.56435 0
M  V30 6049 C 587.512 -3.56114 -2.39752 0
M  V30 6050 C 586.745 -3.88845 -3.65561 0
M  V30 6051 O 586.968 -3.22662 -4.70368 0
M  V30 6052 O 585.902 -4.82226 -3.60197 0
M  V30 6053 H 589.728 -2.89634 -0.913565 0
M  V30 6054 H 587.313 -1.44319 -0.386306 0
M  V30 6055 H 589.195 -2.5645 -3.34382 0
M  V30 6056 H 587.87 -1.45806 -2.89002 0
M  V30 6057 H 586.777 -3.38221 -1.59866 0
M  V30 6058 H 588.11 -4.4415 -2.12113 0
M  V30 6059 N 589.762 0.448376 -1.51087 0
M  V30 6060 C 590.692 1.55102 -1.74544 0
M  V30 6061 C 591.673 1.59357 -0.594932 0
M  V30 6062 O 592.858 1.75261 -0.836491 0
M  V30 6063 C 589.988 2.93268 -1.86041 0
M  V30 6064 C 588.942 3.03877 -3.01402 0
M  V30 6065 C 588.268 4.43914 -2.98068 0
M  V30 6066 C 589.568 2.7898 -4.41551 0
M  V30 6067 H 591.262 1.35724 -2.66869 0
M  V30 6068 H 588.808 0.651498 -1.28419 0
M  V30 6069 H 590.761 3.70356 -2.01034 0
M  V30 6070 H 589.485 3.13853 -0.903548 0
M  V30 6071 H 588.144 2.29227 -2.86096 0
M  V30 6072 H 587.792 4.6145 -2.00182 0
M  V30 6073 H 587.492 4.51944 -3.75527 0
M  V30 6074 H 589.016 5.22991 -3.1514 0
M  V30 6075 H 590.43 3.45805 -4.57265 0
M  V30 6076 H 588.827 2.98431 -5.20633 0
M  V30 6077 H 589.897 1.74663 -4.5235 0
M  V30 6078 N 591.24 1.41047 0.703093 0
M  V30 6079 C 592.486 1.40207 1.46526 0
M  V30 6080 C 592.819 0.00847763 1.94198 0
M  V30 6081 O 592.094 -0.962437 1.69019 0
M  V30 6082 C 592.377 2.40238 2.6825 0
M  V30 6083 C 592.23 3.88674 2.26391 0
M  V30 6084 C 593.549 2.37627 3.70434 0
M  V30 6085 H 590.668 0.510594 0.531472 0
M  V30 6086 H 593.31 1.72271 0.801422 0
M  V30 6087 H 591.46 2.13026 3.24888 0
M  V30 6088 H 593.132 4.2676 1.75138 0
M  V30 6089 H 591.375 4.03903 1.58255 0
M  V30 6090 H 592.046 4.542 3.13698 0
M  V30 6091 H 594.522 2.61759 3.23452 0
M  V30 6092 H 593.398 3.09645 4.53223 0
M  V30 6093 H 593.659 1.39223 4.19606 0
M  V30 6094 N 592.718 -0.936591 1.26751 0
M  V30 6095 C 593.964 -1.6858 1.12733 0
M  V30 6096 C 594.297 -1.91414 -0.327745 0
M  V30 6097 O 593.572 -1.49812 -1.24043 0
M  V30 6098 C 593.855 -3.05779 1.90187 0
M  V30 6099 C 593.708 -2.90242 3.43627 0
M  V30 6100 C 595.027 -4.0597 1.69931 0
M  V30 6101 H 592.146 -0.61182 0.410908 0
M  V30 6102 H 594.788 -1.08747 1.55801 0
M  V30 6103 H 592.938 -3.56853 1.53584 0
M  V30 6104 H 594.61 -2.46354 3.9001 0
M  V30 6105 H 592.853 -2.2577 3.70419 0
M  V30 6106 H 593.524 -3.87572 3.93055 0
M  V30 6107 H 596 -3.63874 2.0183 0
M  V30 6108 H 594.876 -4.99974 2.26534 0
M  V30 6109 H 595.137 -4.37369 0.64502 0
M  V30 6110 N 594.196 -1.08629 -1.14182 0
M  V30 6111 C 595.443 -0.817345 -1.85272 0
M  V30 6112 C 595.771 0.656917 -1.83071 0
M  V30 6113 O 595.026 1.49897 -1.25815 0
M  V30 6114 C 595.325 -1.28734 -3.3341 0
M  V30 6115 C 594.991 -2.76981 -3.55798 0
M  V30 6116 C 593.653 -3.17469 -3.61617 0
M  V30 6117 C 596.005 -3.72605 -3.64438 0
M  V30 6118 C 593.333 -4.52371 -3.736 0
M  V30 6119 C 595.685 -5.07286 -3.77947 0
M  V30 6120 C 594.349 -5.47376 -3.82016 0
M  V30 6121 H 593.619 -0.299088 -0.677958 0
M  V30 6122 H 596.266 -1.35962 -1.34857 0
M  V30 6123 H 594.571 -0.664702 -3.8612 0
M  V30 6124 H 596.268 -1.05598 -3.86846 0
M  V30 6125 H 592.858 -2.44644 -3.51919 0
M  V30 6126 H 597.042 -3.42443 -3.5923 0
M  V30 6127 H 592.298 -4.82882 -3.75013 0
M  V30 6128 H 596.472 -5.81243 -3.83575 0
M  V30 6129 H 594.099 -6.51906 -3.91054 0
M  V30 6130 N 595.674 1.31259 -0.872281 0
M  V30 6131 C 596.922 1.96233 -0.483409 0
M  V30 6132 C 597.243 1.69276 0.968012 0
M  V30 6133 O 596.513 1.00943 1.67891 0
M  V30 6134 H 595.093 0.726025 -0.175774 0
M  V30 6135 H 597.755 1.60024 -1.11258 0
M  V30 6136 H 596.851 3.05403 -0.643075 0
M  V30 6137 N 597.152 0.631951 1.44375 0
M  V30 6138 C 598.568 0.297642 1.568 0
M  V30 6139 C 598.768 -1.19916 1.61934 0
M  V30 6140 O 597.824 -1.98324 1.56281 0
M  V30 6141 C 599.137 0.990286 2.83926 0
M  V30 6142 C 600.685 0.968507 2.97639 0
M  V30 6143 C 601.16 1.64163 4.27568 0
M  V30 6144 N 602.651 1.60826 4.34384 0
M  V30 6145 C 603.386 2.09802 5.33639 0
M  V30 6146 N 602.882 2.66973 6.39294 0
M  V30 6147 N 604.675 2.00426 5.25153 0
M  V30 6148 H 596.826 1.60353 1.39286 0
M  V30 6149 H 599.089 0.673142 0.667521 0
M  V30 6150 H 598.795 2.04519 2.8612 0
M  V30 6151 H 598.669 0.528563 3.73478 0
M  V30 6152 H 601.056 -0.0779247 2.94997 0
M  V30 6153 H 601.137 1.46873 2.09433 0
M  V30 6154 H 600.781 2.68752 4.3097 0
M  V30 6155 H 600.711 1.11624 5.14634 0
M  V30 6156 H 603.202 1.19087 3.58646 0
M  V30 6157 H 603.515 3.02074 7.11316 0
M  V30 6158 H 601.86 2.71024 6.39977 0
M  V30 6159 H 605.051 1.55483 4.41523 0
M  V30 6160 H 605.224 2.38906 6.02352 0
M  V30 6161 N 598.631 -1.53133 0.372548 0
M  V30 6162 C 599.561 -2.28876 -0.462412 0
M  V30 6163 C 600.542 -1.31583 -1.07796 0
M  V30 6164 O 601.727 -1.60461 -1.09389 0
M  V30 6165 C 598.857 -3.08317 -1.59868 0
M  V30 6166 C 597.811 -4.13355 -1.11003 0
M  V30 6167 C 597.137 -4.8092 -2.33708 0
M  V30 6168 C 598.437 -5.21955 -0.18983 0
M  V30 6169 H 600.131 -2.9892 0.169511 0
M  V30 6170 H 597.677 -1.43761 0.0829658 0
M  V30 6171 H 599.63 -3.60055 -2.18949 0
M  V30 6172 H 598.354 -2.35976 -2.25794 0
M  V30 6173 H 597.013 -3.62573 -0.541869 0
M  V30 6174 H 596.661 -4.05144 -2.98106 0
M  V30 6175 H 596.361 -5.51904 -2.01682 0
M  V30 6176 H 597.885 -5.35455 -2.93462 0
M  V30 6177 H 599.299 -5.69153 -0.688319 0
M  V30 6178 H 597.696 -6.00087 0.0398887 0
M  V30 6179 H 598.766 -4.78811 0.766057 0
M  V30 6180 N 600.109 -0.101901 -1.5727 0
M  V30 6181 C 601.072 0.840129 -2.13247 0
M  V30 6182 C 602.072 1.20625 -1.06331 0
M  V30 6183 O 603.262 1.13456 -1.32186 0
M  V30 6184 C 600.394 2.13372 -2.65867 0
M  V30 6185 H 601.587 0.353945 -2.97804 0
M  V30 6186 H 599.14 0.147167 -1.55606 0
M  V30 6187 H 599.875 2.66461 -1.84849 0
M  V30 6188 H 599.66 1.88085 -3.44044 0
M  V30 6189 H 601.15 2.80748 -3.09145 0
M  V30 6190 N 601.587 1.56661 0.17182 0
M  V30 6191 C 602.835 1.81606 0.886774 0
M  V30 6192 C 603.156 0.678818 1.82803 0
M  V30 6193 O 602.426 -0.301354 1.93568 0
M  V30 6194 H 601.006 0.669934 0.330451 0
M  V30 6195 H 603.668 1.94142 0.171757 0
M  V30 6196 H 602.764 2.75634 1.46398 0
M  V30 6197 N 603.065 -0.440357 1.51323 0
M  V30 6198 C 603.975 -1.55955 1.75258 0
M  V30 6199 C 604.991 -1.61933 0.636687 0
M  V30 6200 O 606.167 -1.79231 0.918593 0
M  V30 6201 C 603.232 -2.9196 1.86977 0
M  V30 6202 C 602.293 -2.96122 3.10822 0
M  V30 6203 C 601.526 -4.2564 3.21973 0
M  V30 6204 O 601.749 -5.17851 2.39137 0
M  V30 6205 O 600.683 -4.36025 4.14929 0
M  V30 6206 H 604.509 -1.38673 2.70191 0
M  V30 6207 H 602.094 -0.623055 1.35788 0
M  V30 6208 H 603.976 -3.72682 1.96688 0
M  V30 6209 H 602.651 -3.09375 0.952307 0
M  V30 6210 H 601.558 -2.14366 3.06591 0
M  V30 6211 H 602.891 -2.83651 4.02247 0
M  V30 6212 N 604.543 -1.41418 -0.695603 0
M  V30 6213 C 605.475 -1.39195 -1.82092 0
M  V30 6214 C 606.488 -0.294132 -1.60121 0
M  V30 6215 O 607.677 -0.555854 -1.69625 0
M  V30 6216 C 604.777 -1.14828 -3.18854 0
M  V30 6217 C 603.95 -2.36649 -3.67853 0
M  V30 6218 C 603.009 -2.08139 -4.83285 0
M  V30 6219 O 602.035 -2.81177 -4.94902 0
M  V30 6220 N 603.237 -1.07162 -5.70523 0
M  V30 6221 H 606.002 -2.36185 -1.84491 0
M  V30 6222 H 603.563 -1.3603 -0.877923 0
M  V30 6223 H 605.555 -0.937075 -3.93702 0
M  V30 6224 H 604.125 -0.264358 -3.1148 0
M  V30 6225 H 603.345 -2.73472 -2.83913 0
M  V30 6226 H 604.633 -3.17816 -3.97329 0
M  V30 6227 H 604.031 -0.467124 -5.63768 0
M  V30 6228 H 602.588 -0.920311 -6.4527 0
M  V30 6229 N 606.021 0.929856 -1.27246 0
M  V30 6230 C 606.984 2.01172 -1.09829 0
M  V30 6231 C 607.984 1.60743 -0.0429687 0
M  V30 6232 O 609.174 1.71813 -0.287373 0
M  V30 6233 C 606.306 3.34191 -0.673003 0
M  V30 6234 H 607.499 2.18054 -2.05895 0
M  V30 6235 H 605.052 1.11036 -1.10003 0
M  V30 6236 H 605.787 3.23009 0.289134 0
M  V30 6237 H 605.572 3.64892 -1.43515 0
M  V30 6238 H 607.062 4.13646 -0.573323 0
M  V30 6239 N 607.499 1.09233 1.13605 0
M  V30 6240 C 608.727 0.848908 1.88683 0
M  V30 6241 C 609.142 -0.599667 1.79024 0
M  V30 6242 O 608.499 -1.41265 1.15544 0
M  V30 6243 C 608.55 1.27273 3.38355 0
M  V30 6244 O 608.271 2.66449 3.47759 0
M  V30 6245 C 609.772 1.0614 4.30406 0
M  V30 6246 H 606.992 0.305549 0.597395 0
M  V30 6247 H 609.536 1.4538 1.43823 0
M  V30 6248 H 607.691 0.711776 3.80805 0
M  V30 6249 H 608.105 2.84264 4.40788 0
M  V30 6250 H 609.579 1.40725 5.33761 0
M  V30 6251 H 610.056 -0.000960332 4.392 0
M  V30 6252 H 610.662 1.60821 3.93722 0
M  V30 6253 N 608.977 -1.30795 0.87923 0
M  V30 6254 C 609.887 -2.32041 0.345565 0
M  V30 6255 C 610.903 -1.65103 -0.549265 0
M  V30 6256 O 612.079 -1.9645 -0.443763 0
M  V30 6257 C 609.144 -3.43944 -0.436245 0
M  V30 6258 C 608.205 -4.26521 0.48765 0
M  V30 6259 C 607.438 -5.33081 -0.256943 0
M  V30 6260 O 607.661 -5.50762 -1.48381 0
M  V30 6261 O 606.595 -6.00635 0.389985 0
M  V30 6262 H 610.421 -2.79627 1.18501 0
M  V30 6263 H 608.006 -1.3486 0.642885 0
M  V30 6264 H 609.888 -4.12128 -0.879119 0
M  V30 6265 H 608.563 -2.98504 -1.25208 0
M  V30 6266 H 607.47 -3.61057 0.979216 0
M  V30 6267 H 608.803 -4.75551 1.26933 0
M  V30 6268 N 610.455 -0.639598 -1.44038 0
M  V30 6269 C 611.871 -0.305953 -1.5664 0
M  V30 6270 C 612.071 1.19055 -1.62567 0
M  V30 6271 O 611.127 1.97492 -1.57331 0
M  V30 6272 C 612.44 -1.00533 -2.83397 0
M  V30 6273 C 613.988 -0.984278 -2.97121 0
M  V30 6274 C 614.463 -1.66428 -4.26691 0
M  V30 6275 N 615.954 -1.63127 -4.33525 0
M  V30 6276 C 616.689 -2.12629 -5.32519 0
M  V30 6277 N 616.185 -2.70359 -6.3787 0
M  V30 6278 N 617.978 -2.03208 -5.24083 0
M  V30 6279 H 610.129 -1.6109 -1.38434 0
M  V30 6280 H 612.392 -0.676672 -0.663942 0
M  V30 6281 H 612.098 -2.06034 -2.85032 0
M  V30 6282 H 611.972 -0.548362 -3.73193 0
M  V30 6283 H 614.359 0.0622792 -2.95034 0
M  V30 6284 H 614.44 -1.47981 -2.08651 0
M  V30 6285 H 614.084 -2.71034 -4.29538 0
M  V30 6286 H 614.014 -1.14351 -5.14034 0
M  V30 6287 H 616.505 -1.20987 -3.58009 0
M  V30 6288 H 616.818 -3.05842 -7.09704 0
M  V30 6289 H 615.163 -2.74414 -6.38531 0
M  V30 6290 H 618.354 -1.57823 -4.40692 0
M  V30 6291 H 618.527 -2.42097 -6.01077 0
M  V30 6292 N 611.933 1.52934 -0.380664 0
M  V30 6293 C 612.896 2.24809 0.446473 0
M  V30 6294 C 613.896 1.26133 0.997347 0
M  V30 6295 O 615.086 1.50297 0.880714 0
M  V30 6296 C 612.218 2.99649 1.62553 0
M  V30 6297 H 613.411 2.99343 -0.182677 0
M  V30 6298 H 610.964 1.55736 -0.132618 0
M  V30 6299 H 611.699 2.29395 2.29235 0
M  V30 6300 H 611.484 3.72066 1.23732 0
M  V30 6301 H 612.974 3.54246 2.21133 0
M  V30 6302 N 613.412 0.11024 1.57214 0
M  V30 6303 C 614.375 -0.828808 2.1369 0
M  V30 6304 C 615.375 -1.20059 1.06969 0
M  V30 6305 O 616.565 -1.12754 1.32786 0
M  V30 6306 C 613.697 -2.11959 2.66994 0
M  V30 6307 H 614.89 -0.338146 2.97988 0
M  V30 6308 H 612.443 -0.138913 1.55681 0
M  V30 6309 H 613.178 -2.65476 1.8626 0
M  V30 6310 H 612.963 -1.86258 3.45037 0
M  V30 6311 H 614.453 -2.79105 3.10629 0
M  V30 6312 N 614.89 -1.56749 -0.16351 0
M  V30 6313 C 616.118 -1.86577 -0.894233 0
M  V30 6314 C 616.533 -0.696543 -1.75481 0
M  V30 6315 O 615.89 0.334161 -1.79415 0
M  V30 6316 C 615.941 -3.15508 -1.76456 0
M  V30 6317 O 615.662 -4.27926 -0.938685 0
M  V30 6318 C 617.163 -3.58737 -2.60428 0
M  V30 6319 H 614.383 -0.618829 -0.259405 0
M  V30 6320 H 616.927 -2.03863 -0.161259 0
M  V30 6321 H 615.082 -3.00025 -2.45079 0
M  V30 6322 H 615.496 -5.01546 -1.53465 0
M  V30 6323 H 616.97 -4.51832 -3.17099 0
M  V30 6324 H 617.447 -2.83229 -3.35675 0
M  V30 6325 H 618.053 -3.76858 -1.97125 0
M  V30 6326 N 616.368 0.432326 -1.51554 0
M  V30 6327 C 617.331 1.50765 -1.72634 0
M  V30 6328 C 618.331 1.49334 -0.596314 0
M  V30 6329 O 619.521 1.51268 -0.863925 0
M  V30 6330 C 616.653 2.90284 -1.7874 0
M  V30 6331 H 617.846 1.33377 -2.68609 0
M  V30 6332 H 615.399 0.661329 -1.4162 0
M  V30 6333 H 616.134 3.13071 -0.845977 0
M  V30 6334 H 615.919 2.92727 -2.6087 0
M  V30 6335 H 617.409 3.68282 -1.96871 0
M  V30 6336 N 617.846 1.41785 0.688094 0
M  V30 6337 C 619.094 1.41264 1.4453 0
M  V30 6338 C 619.415 0.0252946 1.94984 0
M  V30 6339 O 618.685 -0.934081 1.72197 0
M  V30 6340 H 617.265 0.519998 0.536294 0
M  V30 6341 H 619.927 1.7709 0.813941 0
M  V30 6342 H 619.023 2.10439 2.30482 0
M  V30 6343 N 619.324 -0.923095 1.27737 0
M  V30 6344 C 620.272 -2.04567 1.10703 0
M  V30 6345 C 621.266 -1.69375 0.0288445 0
M  V30 6346 O 622.472 -1.79027 0.186913 0
M  V30 6347 H 618.847 -0.670109 0.34126 0
M  V30 6348 H 620.818 -2.1608 2.05796 0
M  V30 6349 C 619.567 -3.38934 0.775837 0
M  V30 6350 H 618.89 -3.66501 1.59741 0
M  V30 6351 H 620.33 -4.18239 0.696548 0
M  V30 6352 C 618.789 -3.32863 -0.520012 0
M  V30 6353 O 619.319 -3.70462 -1.55308 0
M  V30 6354 N 617.525 -2.85958 -0.51732 0
M  V30 6355 H 617.072 -2.55557 0.32379 0
M  V30 6356 H 617.03 -2.82279 -1.38441 0
M  V30 6357 N 620.802 -1.09834 -1.13024 0
M  V30 6358 C 622.05 -0.835297 -1.8403 0
M  V30 6359 C 622.371 0.640944 -1.84165 0
M  V30 6360 O 621.641 1.46517 -1.30037 0
M  V30 6361 H 620.221 -0.306018 -0.681441 0
M  V30 6362 H 622.883 -1.38734 -1.36891 0
M  V30 6363 H 621.979 -1.19258 -2.88416 0
M  V30 6364 N 622.28 1.30327 -0.886154 0
M  V30 6365 C 623.228 2.30052 -0.343317 0
M  V30 6366 C 624.222 1.60212 0.550305 0
M  V30 6367 O 625.428 1.74674 0.434609 0
M  V30 6368 H 621.803 0.746306 -0.0923681 0
M  V30 6369 H 623.774 2.73294 -1.19804 0
M  V30 6370 C 622.523 3.45079 0.426107 0
M  V30 6371 H 621.846 3.99003 -0.25227 0
M  V30 6372 H 623.286 4.16931 0.771009 0
M  V30 6373 C 621.745 2.95195 1.62363 0
M  V30 6374 O 622.275 2.95323 2.723 0
M  V30 6375 N 620.481 2.51192 1.4612 0
M  V30 6376 H 620.028 2.51286 0.566832 0
M  V30 6377 H 619.986 2.18173 2.2638 0
M  V30 6378 N 623.758 0.647228 1.43697 0
M  V30 6379 C 624.668 -0.0487997 2.34549 0
M  V30 6380 C 625.684 -0.818586 1.53542 0
M  V30 6381 O 626.86 -0.767195 1.86215 0
M  V30 6382 C 623.925 -1.00734 3.31743 0
M  V30 6383 C 622.986 -0.23515 4.28655 0
M  V30 6384 C 622.219 -1.14803 5.21206 0
M  V30 6385 O 622.442 -2.38717 5.18045 0
M  V30 6386 O 621.376 -0.623667 5.9866 0
M  V30 6387 H 625.202 0.698863 2.9555 0
M  V30 6388 H 622.787 0.407412 1.43738 0
M  V30 6389 H 624.669 -1.55837 3.91526 0
M  V30 6390 H 623.344 -1.73534 2.73254 0
M  V30 6391 H 622.251 0.359319 3.7237 0
M  V30 6392 H 623.584 0.453152 4.9011 0
M  V30 6393 N 625.236 -1.5273 0.388769 0
M  V30 6394 C 626.199 -2.25043 -0.434544 0
M  V30 6395 C 627.199 -1.26661 -0.990644 0
M  V30 6396 O 628.389 -1.50762 -0.872731 0
M  V30 6397 C 625.521 -3.00507 -1.60961 0
M  V30 6398 H 626.714 -2.99242 0.198549 0
M  V30 6399 H 624.267 -1.55664 0.140875 0
M  V30 6400 H 625.002 -2.30607 -2.28015 0
M  V30 6401 H 624.787 -3.72716 -1.21757 0
M  V30 6402 H 626.277 -3.55413 -2.19251 0
M  V30 6403 N 626.714 -0.118576 -1.57153 0
M  V30 6404 C 627.677 0.817464 -2.14127 0
M  V30 6405 C 628.677 1.1949 -1.07604 0
M  V30 6406 O 629.867 1.12048 -1.33382 0
M  V30 6407 C 626.999 2.10541 -2.68115 0
M  V30 6408 H 628.192 0.322339 -2.98163 0
M  V30 6409 H 625.745 0.130655 -1.55753 0
M  V30 6410 H 626.48 2.64485 -1.87665 0
M  V30 6411 H 626.265 1.84425 -3.4602 0
M  V30 6412 H 627.755 2.77453 -3.12105 0
M  V30 6413 N 628.193 1.56834 0.155195 0
M  V30 6414 C 629.442 1.82088 0.867567 0
M  V30 6415 C 629.755 0.69849 1.82703 0
M  V30 6416 O 630.961 0.836407 2.58295 0
M  V30 6417 C 629.417 3.22707 1.59336 0
M  V30 6418 C 629.025 4.42859 0.676719 0
M  V30 6419 C 630.769 3.57242 2.293 0
M  V30 6420 C 628.676 5.74501 1.40367 0
M  V30 6421 H 627.606 0.679057 0.327715 0
M  V30 6422 H 630.257 1.83105 0.120351 0
M  V30 6423 H 628.639 3.16054 2.38591 0
M  V30 6424 H 629.813 4.60731 -0.0800196 0
M  V30 6425 H 628.128 4.16311 0.0859129 0
M  V30 6426 H 630.725 4.52847 2.84312 0
M  V30 6427 H 631.068 2.82901 3.05406 0
M  V30 6428 H 631.601 3.6552 1.56972 0
M  V30 6429 H 628.34 6.51915 0.684623 0
M  V30 6430 H 627.86 5.60579 2.13332 0
M  V30 6431 H 629.539 6.17016 1.94681 0
M  V30 6432 N 629.671 -0.424282 1.51781 0
M  V30 6433 C 630.581 -1.54087 1.76902 0
M  V30 6434 C 631.597 -1.61249 0.653826 0
M  V30 6435 O 632.773 -1.78247 0.937552 0
M  V30 6436 C 629.838 -2.8996 1.90063 0
M  V30 6437 C 628.899 -2.92809 3.13945 0
M  V30 6438 C 628.132 -4.22201 3.26469 0
M  V30 6439 O 628.355 -5.15286 2.44616 0
M  V30 6440 O 627.289 -4.31599 4.1953 0
M  V30 6441 H 631.115 -1.358 2.71647 0
M  V30 6442 H 628.7 -0.608618 1.36441 0
M  V30 6443 H 630.582 -3.70575 2.0063 0
M  V30 6444 H 629.257 -3.08347 0.985067 0
M  V30 6445 H 628.164 -2.11102 3.08847 0
M  V30 6446 H 629.497 -2.79369 4.05233 0
M  V30 6447 N 631.149 -1.42148 -0.680565 0
M  V30 6448 C 632.112 -1.4488 -1.77602 0
M  V30 6449 C 633.112 -0.337209 -1.57224 0
M  V30 6450 O 634.302 -0.597778 -1.63622 0
M  V30 6451 C 631.434 -1.27483 -3.16166 0
M  V30 6452 H 632.627 -2.42412 -1.76568 0
M  V30 6453 H 630.18 -1.28511 -0.889645 0
M  V30 6454 H 630.915 -0.30851 -3.22829 0
M  V30 6455 H 630.7 -2.08037 -3.3236 0
M  V30 6456 H 632.19 -1.32265 -3.96101 0
M  V30 6457 N 632.627 0.916307 -1.28225 0
M  V30 6458 C 633.559 2.02303 -1.07732 0
M  V30 6459 C 634.572 1.62773 -0.0298421 0
M  V30 6460 O 635.761 1.76406 -0.272626 0
M  V30 6461 C 632.861 3.33282 -0.614504 0
M  V30 6462 C 632.034 4.01439 -1.73682 0
M  V30 6463 C 631.093 5.10698 -1.26781 0
M  V30 6464 O 630.119 5.34038 -1.96958 0
M  V30 6465 N 631.321 5.80355 -0.129624 0
M  V30 6466 H 634.086 2.20442 -2.03041 0
M  V30 6467 H 631.647 1.08744 -1.19943 0
M  V30 6468 H 633.639 4.03699 -0.284397 0
M  V30 6469 H 632.209 3.11633 0.245664 0
M  V30 6470 H 631.429 3.24604 -2.23665 0
M  V30 6471 H 632.717 4.43721 -2.48976 0
M  V30 6472 H 632.115 5.6386 0.455847 0
M  V30 6473 H 630.672 6.51647 0.141224 0
M  V30 6474 N 634.105 1.10431 1.1244 0
M  V30 6475 C 635.068 0.756542 2.16354 0
M  V30 6476 C 636.068 -0.21899 1.59302 0
M  V30 6477 O 637.258 0.00415969 1.742 0
M  V30 6478 C 634.39 0.120612 3.40687 0
M  V30 6479 H 635.583 1.67696 2.48632 0
M  V30 6480 H 633.136 0.904832 1.27446 0
M  V30 6481 H 633.871 -0.810536 3.14008 0
M  V30 6482 H 633.656 0.822693 3.83372 0
M  V30 6483 H 635.146 -0.106945 4.17463 0
M  V30 6484 N 635.583 -1.29855 0.893053 0
M  V30 6485 C 636.546 -2.26183 0.370687 0
M  V30 6486 C 637.546 -1.53108 -0.491385 0
M  V30 6487 O 638.736 -1.71643 -0.297386 0
M  V30 6488 C 635.868 -3.37633 -0.470827 0
M  V30 6489 H 637.061 -2.73903 1.22135 0
M  V30 6490 H 634.614 -1.41183 0.67061 0
M  V30 6491 H 635.349 -2.95241 -1.34175 0
M  V30 6492 H 635.134 -3.91825 0.146784 0
M  V30 6493 H 636.624 -4.09313 -0.827825 0
M  V30 6494 N 637.061 -0.65484 -1.43351 0
M  V30 6495 C 638.309 -0.168559 -2.01396 0
M  V30 6496 C 638.63 1.22235 -1.51933 0
M  V30 6497 O 637.9 1.81685 -0.732627 0
M  V30 6498 H 636.48 -0.0593244 -0.744641 0
M  V30 6499 H 639.142 -0.846871 -1.75539 0
M  V30 6500 H 638.238 -0.154428 -3.11718 0
M  V30 6501 N 638.539 1.52521 -0.396863 0
M  V30 6502 C 639.785 2.01971 0.183169 0
M  V30 6503 C 640.118 1.2825 1.45827 0
M  V30 6504 O 639.393 0.385179 1.90648 0
M  V30 6505 C 639.676 3.5736 0.443391 0
M  V30 6506 C 639.529 4.41743 -0.84753 0
M  V30 6507 C 640.848 4.22539 1.2308 0
M  V30 6508 H 637.967 0.734119 0.0650976 0
M  V30 6509 H 640.609 1.82519 -0.527918 0
M  V30 6510 H 638.759 3.74066 1.04914 0
M  V30 6511 H 640.431 4.36773 -1.48414 0
M  V30 6512 H 638.674 4.0845 -1.4612 0
M  V30 6513 H 639.345 5.48507 -0.620003 0
M  V30 6514 H 641.821 4.09857 0.718084 0
M  V30 6515 H 640.697 5.31227 1.38162 0
M  V30 6516 H 640.958 3.80675 2.24808 0
M  V30 6517 N 640.017 0.126909 1.57088 0
M  V30 6518 C 640.927 -0.833867 2.1928 0
M  V30 6519 C 641.943 -1.2868 1.17122 0
M  V30 6520 O 643.119 -1.34815 1.49622 0
M  V30 6521 C 640.184 -2.0632 2.78627 0
M  V30 6522 C 639.245 -1.66143 3.95847 0
M  V30 6523 C 638.478 -2.83217 4.52354 0
M  V30 6524 O 638.701 -3.98868 4.0775 0
M  V30 6525 O 637.635 -2.59846 5.42922 0
M  V30 6526 H 641.461 -0.334564 3.01852 0
M  V30 6527 H 639.046 -0.0991091 1.49071 0
M  V30 6528 H 640.928 -2.78304 3.16425 0
M  V30 6529 H 639.603 -2.55242 1.99082 0
M  V30 6530 H 638.51 -0.912435 3.62802 0
M  V30 6531 H 639.843 -1.21957 4.76852 0
M  V30 6532 N 641.495 -1.56914 -0.146875 0
M  V30 6533 C 642.427 -1.94878 -1.20645 0
M  V30 6534 C 643.44 -0.844633 -1.39175 0
M  V30 6535 O 644.629 -1.12304 -1.38744 0
M  V30 6536 C 641.729 -2.20769 -2.57127 0
M  V30 6537 C 640.902 -3.52053 -2.59572 0
M  V30 6538 C 639.961 -3.66482 -3.77594 0
M  V30 6539 O 638.987 -4.38873 -3.62462 0
M  V30 6540 N 640.189 -3.03156 -4.95052 0
M  V30 6541 H 642.954 -2.86374 -0.883757 0
M  V30 6542 H 640.515 -1.58366 -0.336436 0
M  V30 6543 H 642.507 -2.27664 -3.34591 0
M  V30 6544 H 641.077 -1.35538 -2.81688 0
M  V30 6545 H 640.297 -3.56598 -1.68023 0
M  V30 6546 H 641.585 -4.38396 -2.58238 0
M  V30 6547 H 640.983 -2.44258 -5.10249 0
M  V30 6548 H 639.54 -3.15611 -5.70292 0
M  V30 6549 N 642.974 0.416227 -1.52004 0
M  V30 6550 C 644.39 0.754319 -1.40649 0
M  V30 6551 C 644.59 1.95059 -0.505392 0
M  V30 6552 O 643.646 2.5248 0.0315057 0
M  V30 6553 C 644.959 1.0149 -2.83055 0
M  V30 6554 C 646.507 1.11805 -2.9235 0
M  V30 6555 C 646.982 1.41144 -4.35709 0
M  V30 6556 N 648.473 1.48024 -4.38911 0
M  V30 6557 C 649.208 1.72338 -5.46889 0
M  V30 6558 N 648.704 1.94303 -6.64995 0
M  V30 6559 N 650.497 1.74294 -5.34395 0
M  V30 6560 H 642.648 -0.371324 -2.09129 0
M  V30 6561 H 644.911 -0.103811 -0.942299 0
M  V30 6562 H 644.617 0.208345 -3.51082 0
M  V30 6563 H 644.491 1.93697 -3.23668 0
M  V30 6564 H 646.878 1.91521 -2.24508 0
M  V30 6565 H 646.959 0.17451 -2.55204 0
M  V30 6566 H 646.603 0.619484 -5.04108 0
M  V30 6567 H 646.533 2.36739 -4.70385 0
M  V30 6568 H 649.024 1.32868 -3.53772 0
M  V30 6569 H 649.337 2.12286 -7.43071 0
M  V30 6570 H 647.682 1.91582 -6.68073 0
M  V30 6571 H 650.873 1.56667 -4.41104 0
M  V30 6572 H 651.046 1.92904 -6.18621 0
M  V30 6573 N 644.452 1.42507 0.673017 0
M  V30 6574 C 645.382 1.48916 1.79851 0
M  V30 6575 C 646.363 0.345566 1.66553 0
M  V30 6576 O 647.548 0.560116 1.85947 0
M  V30 6577 C 644.678 1.39258 3.18158 0
M  V30 6578 C 643.632 2.51662 3.46194 0
M  V30 6579 C 642.958 2.27062 4.84094 0
M  V30 6580 C 644.258 3.93968 3.42909 0
M  V30 6581 H 645.952 2.43114 1.74745 0
M  V30 6582 H 643.498 1.17013 0.839288 0
M  V30 6583 H 645.451 1.42349 3.96629 0
M  V30 6584 H 644.175 0.415542 3.23946 0
M  V30 6585 H 642.834 2.47891 2.70084 0
M  V30 6586 H 642.482 1.27648 4.86534 0
M  V30 6587 H 642.182 3.02398 5.03815 0
M  V30 6588 H 643.706 2.31905 5.64847 0
M  V30 6589 H 645.12 3.99332 4.11347 0
M  V30 6590 H 643.517 4.6917 3.74165 0
M  V30 6591 H 644.587 4.20512 2.41449 0
M  V30 6592 N 645.93 -0.909495 1.28709 0
M  V30 6593 C 646.877 -2.01245 1.13 0
M  V30 6594 C 647.847 -1.6608 0.0259684 0
M  V30 6595 O 649.032 -1.89835 0.191687 0
M  V30 6596 C 646.172 -3.35644 0.802315 0
M  V30 6597 C 645.285 -3.83653 1.98582 0
M  V30 6598 C 644.42 -5.06582 1.59837 0
M  V30 6599 C 643.459 -5.46934 2.74827 0
M  V30 6600 N 642.596 -6.61053 2.36546 0
M  V30 6601 H 647.436 -2.14013 2.0737 0
M  V30 6602 H 644.973 -1.0482 1.03205 0
M  V30 6603 H 646.931 -4.12963 0.593057 0
M  V30 6604 H 645.561 -3.22631 -0.104457 0
M  V30 6605 H 644.613 -3.02454 2.30708 0
M  V30 6606 H 645.925 -4.09515 2.84779 0
M  V30 6607 H 645.079 -5.91457 1.35143 0
M  V30 6608 H 643.818 -4.82537 0.707753 0
M  V30 6609 H 642.823 -4.60599 3.00215 0
M  V30 6610 H 644.048 -5.72965 3.64538 0
M  V30 6611 H 641.994 -6.3863 1.49959 0
M  V30 6612 H 641.911 -6.86662 3.16277 0
M  V30 6613 H 643.179 -7.49221 2.15146 0
M  V30 6614 N 647.408 -1.11026 -1.11852 0
M  V30 6615 C 648.685 -0.768347 -1.79877 0
M  V30 6616 C 649.065 0.744261 -1.97545 0
M  V30 6617 O 648.413 1.67271 -1.55669 0
M  V30 6618 C 648.623 -1.52648 -3.13846 0
M  V30 6619 C 649.971 -1.70297 -3.88953 0
M  V30 6620 O 650.995 -1.49037 -3.23522 0
M  V30 6621 O 649.854 -2.05593 -5.06353 0
M  V30 6622 H 646.948 -0.277891 -0.778913 0
M  V30 6623 H 649.494 -1.21343 -1.18633 0
M  V30 6624 H 648.266 -2.55564 -2.96315 0
M  V30 6625 H 647.889 -1.07466 -3.82801 0
M  V30 6626 N 648.886 1.2938 -0.899927 0
M  V30 6627 C 649.816 2.30144 -0.39446 0
M  V30 6628 C 650.797 1.61611 0.530639 0
M  V30 6629 O 651.982 1.89119 0.441319 0
M  V30 6630 C 649.112 3.45229 0.37868 0
M  V30 6631 C 648.066 4.25564 -0.456012 0
M  V30 6632 C 647.392 5.32848 0.444637 0
M  V30 6633 C 648.692 4.93651 -1.70605 0
M  V30 6634 H 650.386 2.72673 -1.23653 0
M  V30 6635 H 647.932 1.31086 -0.596034 0
M  V30 6636 H 649.885 4.14797 0.743037 0
M  V30 6637 H 648.609 3.01545 1.25453 0
M  V30 6638 H 647.268 3.57704 -0.802704 0
M  V30 6639 H 646.916 4.85408 1.31863 0
M  V30 6640 H 646.616 5.87497 -0.110154 0
M  V30 6641 H 648.14 6.05268 0.805182 0
M  V30 6642 H 649.554 5.55655 -1.41141 0
M  V30 6643 H 647.951 5.58233 -2.20217 0
M  V30 6644 H 649.021 4.18926 -2.4419 0
M  V30 6645 N 650.364 0.662433 1.43002 0
M  V30 6646 C 651.61 0.179857 2.02001 0
M  V30 6647 C 651.943 -1.20625 1.52195 0
M  V30 6648 O 651.218 -1.80726 0.718911 0
M  V30 6649 C 651.501 0.200845 3.59539 0
M  V30 6650 C 651.354 1.62153 4.19555 0
M  V30 6651 C 652.673 -0.457738 4.37713 0
M  V30 6652 H 649.792 0.0668305 0.733964 0
M  V30 6653 H 652.434 0.84487 1.70182 0
M  V30 6654 H 650.584 -0.365411 3.86778 0
M  V30 6655 H 652.256 2.23908 4.03315 0
M  V30 6656 H 650.499 2.16601 3.75854 0
M  V30 6657 H 651.17 1.58799 5.28665 0
M  V30 6658 H 653.646 0.0241495 4.16093 0
M  V30 6659 H 652.522 -0.412363 5.47349 0
M  V30 6660 H 652.783 -1.53336 4.14657 0
M  V30 6661 N 651.842 -1.52309 0.404946 0
M  V30 6662 C 652.79 -2.28452 -0.437321 0
M  V30 6663 C 653.784 -1.32975 -1.04948 0
M  V30 6664 O 654.99 -1.50451 -0.988159 0
M  V30 6665 H 651.365 -0.734824 -0.159805 0
M  V30 6666 H 653.336 -2.97542 0.22615 0
M  V30 6667 C 652.085 -3.11536 -1.54404 0
M  V30 6668 H 651.408 -3.84871 -1.08233 0
M  V30 6669 H 652.848 -3.67926 -2.10729 0
M  V30 6670 C 651.307 -2.24833 -2.50902 0
M  V30 6671 O 651.837 -1.88574 -3.54687 0
M  V30 6672 N 650.043 -1.88685 -2.21012 0
M  V30 6673 H 649.59 -2.18371 -1.36646 0
M  V30 6674 H 649.548 -1.30966 -2.85824 0
M  V30 6675 N 653.32 -0.135238 -1.57019 0
M  V30 6676 C 654.252 0.839675 -2.13265 0
M  V30 6677 C 655.265 1.21887 -1.07923 0
M  V30 6678 O 656.454 1.16499 -1.35241 0
M  V30 6679 C 653.554 2.13647 -2.63075 0
M  V30 6680 C 652.727 1.92646 -3.92691 0
M  V30 6681 C 651.786 3.06205 -4.27931 0
M  V30 6682 O 650.812 2.78409 -4.96465 0
M  V30 6683 N 652.014 4.33072 -3.86561 0
M  V30 6684 H 654.779 0.359026 -2.97542 0
M  V30 6685 H 652.34 0.0486979 -1.61827 0
M  V30 6686 H 654.332 2.88641 -2.8367 0
M  V30 6687 H 652.902 2.5301 -1.83588 0
M  V30 6688 H 652.122 1.01754 -3.80841 0
M  V30 6689 H 653.41 1.75939 -4.77413 0
M  V30 6690 H 652.808 4.58526 -3.31316 0
M  V30 6691 H 651.365 5.04885 -4.12231 0
M  V30 6692 N 654.798 1.5699 0.138552 0
M  V30 6693 C 656.075 1.74741 0.87891 0
M  V30 6694 C 656.455 0.705522 1.98961 0
M  V30 6695 O 655.803 -0.274066 2.2685 0
M  V30 6696 C 656.013 3.1909 1.4136 0
M  V30 6697 C 657.361 3.81023 1.87368 0
M  V30 6698 O 658.385 3.22571 1.51084 0
M  V30 6699 O 657.244 4.83722 2.54312 0
M  V30 6700 H 654.338 0.714781 0.415953 0
M  V30 6701 H 656.884 1.69248 0.123817 0
M  V30 6702 H 655.656 3.86424 0.61579 0
M  V30 6703 H 655.279 3.29043 2.23196 0
M  V30 6704 N 656.276 -0.40816 1.52223 0
M  V30 6705 C 657.524 -1.15274 1.66001 0
M  V30 6706 C 657.845 -1.91003 0.392803 0
M  V30 6707 O 657.115 -1.8673 -0.592336 0
M  V30 6708 H 655.695 -0.428526 0.611861 0
M  V30 6709 H 658.357 -0.46512 1.89269 0
M  V30 6710 H 657.453 -1.86628 2.50153 0
M  V30 6711 N 657.755 -1.42862 -0.66545 0
M  V30 6712 C 659.003 -1.43546 -1.42264 0
M  V30 6713 C 659.324 -0.0563116 -1.94919 0
M  V30 6714 O 658.594 0.906568 -1.73661 0
M  V30 6715 H 657.174 -0.528464 -0.527953 0
M  V30 6716 H 659.836 -1.78363 -0.785665 0
M  V30 6717 H 658.932 -2.14079 -2.27105 0
M  V30 6718 N 659.233 0.902656 -1.29189 0
M  V30 6719 C 660.143 2.03946 -1.15944 0
M  V30 6720 C 661.159 1.738 -0.0833803 0
M  V30 6721 O 662.335 1.9923 -0.29487 0
M  V30 6722 C 659.4 3.36519 -0.834006 0
M  V30 6723 C 658.461 3.80203 -1.9936 0
M  V30 6724 C 657.694 5.06449 -1.68359 0
M  V30 6725 O 657.917 5.67202 -0.603141 0
M  V30 6726 O 656.851 5.46114 -2.53067 0
M  V30 6727 H 660.677 2.18043 -2.11403 0
M  V30 6728 H 658.262 1.02584 -1.08613 0
M  V30 6729 H 660.144 4.16089 -0.666949 0
M  V30 6730 H 658.819 3.23573 0.0908245 0
M  V30 6731 H 657.726 3.01413 -2.21588 0
M  V30 6732 H 659.059 3.97729 -2.89952 0
M  V30 6733 N 660.711 1.11618 1.11262 0
M  V30 6734 C 661.659 0.771291 2.1944 0
M  V30 6735 C 662.653 -0.238073 1.67719 0
M  V30 6736 O 663.859 -0.0971628 1.79738 0
M  V30 6737 H 660.234 0.231548 0.715465 0
M  V30 6738 H 662.205 1.69226 2.45775 0
M  V30 6739 C 660.954 0.232765 3.4692 0
M  V30 6740 H 660.277 1.00072 3.87073 0
M  V30 6741 H 661.717 0.0296561 4.2399 0
M  V30 6742 C 660.176 -1.03738 3.20531 0
M  V30 6743 O 660.706 -2.11675 3.41404 0
M  V30 6744 N 658.912 -0.960906 2.74253 0
M  V30 6745 H 658.459 -0.0824323 2.57468 0
M  V30 6746 H 658.417 -1.8114 2.56974 0
M  V30 6747 N 662.189 -1.289 0.906776 0
M  V30 6748 C 663.435 -1.95919 0.546551 0
M  V30 6749 C 663.79 -1.70126 -0.8986 0
M  V30 6750 O 663.083 -1.00775 -1.62957 0
M  V30 6751 C 663.277 -3.48704 0.783617 0
M  V30 6752 C 663.106 -3.8935 2.25026 0
M  V30 6753 C 661.876 -4.13864 2.89905 0
M  V30 6754 C 664.074 -4.00535 3.22608 0
M  V30 6755 N 662.056 -4.41131 4.26939 0
M  V30 6756 C 663.427 -4.31936 4.44783 0
M  V30 6757 C 665.482 -3.83035 3.18102 0
M  V30 6758 C 664.185 -4.47659 5.63022 0
M  V30 6759 C 666.211 -3.99971 4.35634 0
M  V30 6760 C 665.573 -4.31738 5.5658 0
M  V30 6761 H 661.672 -0.74105 0.249737 0
M  V30 6762 H 664.256 -1.55696 1.16906 0
M  V30 6763 H 662.427 -3.87933 0.190437 0
M  V30 6764 H 664.159 -4.02835 0.38812 0
M  V30 6765 H 660.914 -4.07893 2.40666 0
M  V30 6766 H 661.338 -4.5886 4.97771 0
M  V30 6767 H 665.98 -3.57533 2.25677 0
M  V30 6768 H 663.698 -4.71995 6.55932 0
M  V30 6769 H 667.284 -3.87874 4.33641 0
M  V30 6770 H 666.164 -4.44568 6.4601 0
M  V30 6771 N 663.667 -0.670007 -1.42649 0
M  V30 6772 C 664.63 0.00204659 -2.292 0
M  V30 6773 C 665.63 0.733817 -1.4308 0
M  V30 6774 O 666.82 0.57254 -1.64522 0
M  V30 6775 C 663.952 1.01359 -3.25483 0
M  V30 6776 H 665.145 -0.759696 -2.90118 0
M  V30 6777 H 662.698 -0.432105 -1.50208 0
M  V30 6778 H 663.433 1.80399 -2.69493 0
M  V30 6779 H 663.218 0.492323 -3.88997 0
M  V30 6780 H 664.708 1.4824 -3.90403 0
M  V30 6781 N 665.145 1.52092 -0.413018 0
M  V30 6782 C 666.092 2.27119 0.410558 0
M  V30 6783 C 667.062 1.29692 1.03774 0
M  V30 6784 O 668.247 1.58561 1.06128 0
M  V30 6785 C 665.387 3.09863 1.51918 0
M  V30 6786 C 664.5 4.22252 0.912528 0
M  V30 6787 C 663.635 4.92348 1.99417 0
M  V30 6788 C 662.674 5.96694 1.36466 0
M  V30 6789 N 661.811 6.60292 2.38661 0
M  V30 6790 H 666.651 2.97067 -0.235661 0
M  V30 6791 H 664.188 1.46542 -0.128055 0
M  V30 6792 H 666.146 3.56144 2.17295 0
M  V30 6793 H 664.776 2.42078 2.13537 0
M  V30 6794 H 663.828 3.80113 0.147697 0
M  V30 6795 H 665.14 4.9709 0.412717 0
M  V30 6796 H 664.294 5.42054 2.72512 0
M  V30 6797 H 663.033 4.17087 2.52764 0
M  V30 6798 H 662.038 5.46304 0.61906 0
M  V30 6799 H 663.263 6.73899 0.838827 0
M  V30 6800 H 661.209 5.87858 2.91134 0
M  V30 6801 H 661.126 7.30816 1.93503 0
M  V30 6802 H 662.394 7.14635 3.11314 0
M  V30 6803 N 666.623 0.143563 1.56945 0
M  V30 6804 C 667.872 -0.50835 1.95189 0
M  V30 6805 C 668.185 -1.66239 1.03073 0
M  V30 6806 O 669.391 -2.3787 1.30882 0
M  V30 6807 C 667.847 -0.955735 3.46978 0
M  V30 6808 C 667.455 0.171183 4.47673 0
M  V30 6809 C 669.199 -1.57763 3.94095 0
M  V30 6810 C 667.106 -0.294279 5.90667 0
M  V30 6811 H 666.036 -0.193679 0.728701 0
M  V30 6812 H 668.687 0.227357 1.82086 0
M  V30 6813 H 667.069 -1.7466 3.55401 0
M  V30 6814 H 668.243 0.948049 4.50942 0
M  V30 6815 H 666.558 0.701273 4.10452 0
M  V30 6816 H 669.155 -1.93745 4.98364 0
M  V30 6817 H 669.498 -2.46531 3.35452 0
M  V30 6818 H 670.031 -0.851728 3.88575 0
M  V30 6819 H 666.77 0.557939 6.53121 0
M  V30 6820 H 666.29 -1.0371 5.90766 0
M  V30 6821 H 667.969 -0.747426 6.42668 0
M  V30 6822 N 668.101 -1.57061 -0.130224 0
M  V30 6823 C 669.517 -1.52103 -0.483413 0
M  V30 6824 C 669.717 -0.854752 -1.82473 0
M  V30 6825 O 668.773 -0.432342 -2.48771 0
M  V30 6826 C 670.086 -2.96872 -0.47825 0
M  V30 6827 C 671.634 -3.07902 -0.562592 0
M  V30 6828 C 672.109 -4.54211 -0.587929 0
M  V30 6829 N 673.6 -4.58621 -0.649684 0
M  V30 6830 C 674.335 -5.69227 -0.690551 0
M  V30 6831 N 673.831 -6.89358 -0.689743 0
M  V30 6832 N 675.624 -5.57304 -0.732708 0
M  V30 6833 H 667.775 -1.98764 0.748779 0
M  V30 6834 H 670.038 -0.907248 0.274965 0
M  V30 6835 H 669.744 -3.48944 0.439444 0
M  V30 6836 H 669.618 -3.53716 -1.31013 0
M  V30 6837 H 672.005 -2.5584 -1.47071 0
M  V30 6838 H 672.086 -2.54073 0.296764 0
M  V30 6839 H 671.73 -5.06915 0.316096 0
M  V30 6840 H 671.66 -5.0584 -1.46401 0
M  V30 6841 H 674.151 -3.72146 -0.656927 0
M  V30 6842 H 674.464 -7.69408 -0.723239 0
M  V30 6843 H 672.809 -6.91884 -0.657347 0
M  V30 6844 H 676 -4.62363 -0.730625 0
M  V30 6845 H 676.173 -6.43515 -0.76109 0
M  V30 6846 N 669.579 0.400081 -1.52437 0
M  V30 6847 C 670.856 1.15973 -1.57511 0
M  V30 6848 C 671.236 2.0798 -0.361572 0
M  V30 6849 O 670.584 2.19032 0.650929 0
M  V30 6850 C 670.794 1.92912 -2.90837 0
M  V30 6851 C 672.142 2.48662 -3.44169 0
M  V30 6852 O 673.166 2.03081 -2.92637 0
M  V30 6853 O 672.025 3.31894 -4.34176 0
M  V30 6854 H 669.119 0.530023 -0.634827 0
M  V30 6855 H 671.665 0.40613 -1.64769 0
M  V30 6856 H 670.437 1.25564 -3.70607 0
M  V30 6857 H 670.06 2.75257 -2.86913 0
M  V30 6858 N 671.057 1.43213 0.657864 0
M  V30 6859 C 671.967 1.50448 1.80007 0
M  V30 6860 C 672.983 0.39191 1.69529 0
M  V30 6861 O 674.159 0.645349 1.90781 0
M  V30 6862 C 671.224 1.42062 3.16258 0
M  V30 6863 C 670.285 2.63951 3.38568 0
M  V30 6864 C 669.518 2.55956 4.68318 0
M  V30 6865 O 669.741 1.60473 5.47361 0
M  V30 6866 O 668.675 3.46378 4.92245 0
M  V30 6867 H 672.501 2.4689 1.76858 0
M  V30 6868 H 670.086 1.25163 0.81576 0
M  V30 6869 H 671.968 1.3981 3.97531 0
M  V30 6870 H 670.643 0.487524 3.20008 0
M  V30 6871 H 669.55 2.71776 2.57077 0
M  V30 6872 H 670.883 3.56217 3.39662 0
M  V30 6873 N 672.536 -0.895792 1.29666 0
M  V30 6874 C 673.469 -2.00238 1.09453 0
M  V30 6875 C 674.447 -1.62599 0.00527044 0
M  V30 6876 O 675.631 -1.87847 0.156729 0
M  V30 6877 C 672.758 -3.32066 0.667054 0
M  V30 6878 C 671.804 -3.88691 1.7556 0
M  V30 6879 S 672.637 -4.17317 3.35569 0
M  V30 6880 C 673.793 -5.52181 2.94698 0
M  V30 6881 H 674.026 -2.17076 2.03138 0
M  V30 6882 H 671.559 -1.04287 1.13858 0
M  V30 6883 H 673.517 -4.08272 0.427136 0
M  V30 6884 H 672.178 -3.13101 -0.250256 0
M  V30 6885 H 671.371 -4.83918 1.40853 0
M  V30 6886 H 670.973 -3.19187 1.94924 0
M  V30 6887 H 673.265 -6.3281 2.41986 0
M  V30 6888 H 674.208 -5.91817 3.88791 0
M  V30 6889 H 674.616 -5.14225 2.32879 0
M  V30 6890 N 674.014 -1.12206 -1.10668 0
M  V30 6891 C 675.262 -0.874144 -1.82217 0
M  V30 6892 C 675.583 0.601736 -1.85484 0
M  V30 6893 O 674.853 1.43725 -1.33116 0
M  V30 6894 H 673.433 -0.320404 -0.674797 0
M  V30 6895 H 676.095 -1.41606 -1.33917 0
M  V30 6896 H 675.191 -1.25349 -2.85822 0
M  V30 6897 N 675.492 1.28418 -0.913599 0
M  V30 6898 C 676.422 2.29713 -0.418847 0
M  V30 6899 C 677.403 1.62165 0.513469 0
M  V30 6900 O 678.588 1.89576 0.421235 0
M  V30 6901 C 675.718 3.45612 0.342042 0
M  V30 6902 C 674.672 4.25056 -0.501123 0
M  V30 6903 C 673.998 5.3329 0.388097 0
M  V30 6904 C 675.298 4.91814 -1.75831 0
M  V30 6905 H 676.992 2.71346 -1.26538 0
M  V30 6906 H 674.538 1.30446 -0.609903 0
M  V30 6907 H 676.491 4.15562 0.699 0
M  V30 6908 H 675.215 3.02858 1.22248 0
M  V30 6909 H 673.874 3.56833 -0.840598 0
M  V30 6910 H 673.522 4.8678 1.26707 0
M  V30 6911 H 673.222 5.87347 -0.172459 0
M  V30 6912 H 674.746 6.06088 0.74094 0
M  V30 6913 H 676.16 5.54126 -1.47026 0
M  V30 6914 H 674.557 5.55866 -2.26126 0
M  V30 6915 H 675.627 4.16313 -2.4862 0
M  V30 6916 N 676.97 0.677563 1.42291 0
M  V30 6917 C 677.933 0.0101085 2.29198 0
M  V30 6918 C 678.933 -0.726219 1.43467 0
M  V30 6919 O 680.123 -0.563807 1.64824 0
M  V30 6920 C 677.255 -0.996316 3.26016 0
M  V30 6921 H 678.448 0.775071 2.89711 0
M  V30 6922 H 676.001 0.440065 1.49977 0
M  V30 6923 H 676.736 -1.78967 2.70446 0
M  V30 6924 H 676.521 -0.471687 3.89253 0
M  V30 6925 H 678.011 -1.46167 3.91184 0
M  V30 6926 N 678.448 -1.51871 0.421078 0
M  V30 6927 C 679.381 -2.23851 -0.443369 0
M  V30 6928 C 680.359 -1.25142 -1.03818 0
M  V30 6929 O 681.543 -1.5423 -1.08377 0
M  V30 6930 C 678.67 -2.97637 -1.61648 0
M  V30 6931 C 677.716 -4.10873 -1.14391 0
M  V30 6932 S 678.549 -5.35408 -0.0992403 0
M  V30 6933 C 679.705 -6.12726 -1.27739 0
M  V30 6934 H 679.938 -2.96826 0.167786 0
M  V30 6935 H 677.471 -1.53027 0.205461 0
M  V30 6936 H 679.429 -3.40751 -2.28909 0
M  V30 6937 H 678.09 -2.24282 -2.199 0
M  V30 6938 H 677.283 -4.61718 -2.02069 0
M  V30 6939 H 676.885 -3.69937 -0.549775 0
M  V30 6940 H 679.177 -6.40827 -2.19881 0
M  V30 6941 H 680.12 -7.03461 -0.809239 0
M  V30 6942 H 680.528 -5.43968 -1.5086 0
M  V30 6943 N 679.926 -0.151884 -1.56866 0
M  V30 6944 C 680.836 0.798876 -2.20579 0
M  V30 6945 C 681.852 1.268 -1.19154 0
M  V30 6946 O 683.028 1.32418 -1.51748 0
M  V30 6947 C 680.093 2.01861 -2.81874 0
M  V30 6948 C 679.154 1.59825 -3.9844 0
M  V30 6949 C 678.387 2.75984 -4.56802 0
M  V30 6950 O 678.61 3.92331 -4.14044 0
M  V30 6951 O 677.544 2.51175 -5.46987 0
M  V30 6952 H 681.37 0.2865 -3.02346 0
M  V30 6953 H 678.955 0.0753806 -1.4921 0
M  V30 6954 H 680.837 2.73235 -3.20813 0
M  V30 6955 H 679.512 2.52042 -2.03117 0
M  V30 6956 H 678.419 0.854601 -3.64208 0
M  V30 6957 H 679.752 1.14355 -4.78731 0
M  V30 6958 N 681.404 1.57128 0.121893 0
M  V30 6959 C 682.314 2.03425 1.16857 0
M  V30 6960 C 683.33 0.954108 1.45509 0
M  V30 6961 O 684.506 1.26541 1.56682 0
M  V30 6962 C 681.571 2.42685 2.47599 0
M  V30 6963 C 680.632 3.64767 2.2637 0
M  V30 6964 C 679.865 4.02145 3.50878 0
M  V30 6965 O 680.088 3.39897 4.58068 0
M  V30 6966 O 679.022 4.95262 3.42051 0
M  V30 6967 H 682.848 2.92825 0.80544 0
M  V30 6968 H 680.433 1.45654 0.332477 0
M  V30 6969 H 682.315 2.68684 3.24634 0
M  V30 6970 H 680.99 1.56432 2.83392 0
M  V30 6971 H 679.897 3.43922 1.47203 0
M  V30 6972 H 681.23 4.51716 1.95482 0
M  V30 6973 N 682.882 -0.391992 1.52647 0
M  V30 6974 C 684.13 -1.13507 1.67214 0
M  V30 6975 C 684.451 -1.90575 0.41304 0
M  V30 6976 O 683.721 -1.87348 -0.572498 0
M  V30 6977 H 682.301 -0.422013 0.616372 0
M  V30 6978 H 684.963 -0.44502 1.89751 0
M  V30 6979 H 684.059 -1.83964 2.52118 0
M  V30 6980 N 684.36 -1.4356 -0.65026 0
M  V30 6981 C 685.6 -1.46839 -1.42188 0
M  V30 6982 C 685.964 -0.0911433 -1.91784 0
M  V30 6983 O 687.165 0.00137545 -2.688 0
M  V30 6984 C 685.436 -2.48411 -2.56957 0
M  V30 6985 S 686.995 -2.70589 -3.45438 0
M  V30 6986 H 683.813 -0.519596 -0.485325 0
M  V30 6987 H 686.415 -1.80347 -0.75466 0
M  V30 6988 H 685.119 -3.47209 -2.18801 0
M  V30 6989 H 684.65 -2.16411 -3.28527 0
M  V30 6990 H 686.665 -2.00738 -4.53782 0
M  V30 6991 N 685.838 0.888903 -1.30139 0
M  V30 6992 C 687.086 1.63713 -1.18501 0
M  V30 6993 C 687.407 1.9324 0.261399 0
M  V30 6994 O 686.677 1.56608 1.17689 0
M  V30 6995 H 685.257 0.606861 -0.435579 0
M  V30 6996 H 687.919 1.06525 -1.63213 0
M  V30 6997 H 687.015 2.58894 -1.743 0
M  V30 6998 N 687.317 1.12792 1.10072 0
M  V30 6999 C 688.566 0.880232 1.81479 0
M  V30 7000 C 688.879 -0.595575 1.86312 0
M  V30 7001 O 690.085 -0.959979 2.53962 0
M  V30 7002 C 688.541 1.52514 3.25987 0
M  V30 7003 C 688.149 3.036 3.29441 0
M  V30 7004 C 689.893 1.35788 4.02196 0
M  V30 7005 C 687.8 3.61007 4.68431 0
M  V30 7006 H 686.73 0.325654 0.680048 0
M  V30 7007 H 689.381 1.35485 1.23758 0
M  V30 7008 H 687.763 0.978188 3.83728 0
M  V30 7009 H 688.937 3.64819 2.81502 0
M  V30 7010 H 687.252 3.19765 2.66719 0
M  V30 7011 H 689.849 1.76096 5.0487 0
M  V30 7012 H 690.192 0.301972 4.15203 0
M  V30 7013 H 690.725 1.87426 3.50879 0
M  V30 7014 H 687.464 4.66375 4.60625 0
M  V30 7015 H 686.984 3.04564 5.16721 0
M  V30 7016 H 688.663 3.60289 5.37402 0
M  V30 7017 N 688.795 -1.27931 0.920396 0
M  V30 7018 C 690.025 -1.98516 0.572256 0
M  V30 7019 C 690.433 -1.68912 -0.852375 0
M  V30 7020 O 689.776 -0.94203 -1.57707 0
M  V30 7021 C 689.838 -3.5243 0.709485 0
M  V30 7022 C 689.502 -4.0564 2.10489 0
M  V30 7023 C 690.499 -4.1897 3.07831 0
M  V30 7024 C 688.184 -4.40168 2.41986 0
M  V30 7025 C 690.178 -4.66093 4.34783 0
M  V30 7026 C 687.865 -4.86983 3.69176 0
M  V30 7027 C 688.863 -4.99903 4.65388 0
M  V30 7028 O 688.551 -5.45694 5.90316 0
M  V30 7029 H 688.283 -0.64047 0.216274 0
M  V30 7030 H 690.837 -1.6393 1.23758 0
M  V30 7031 H 689.067 -3.86698 -0.0129263 0
M  V30 7032 H 690.756 -4.04233 0.367474 0
M  V30 7033 H 691.522 -3.92562 2.84816 0
M  V30 7034 H 687.401 -4.29358 1.67846 0
M  V30 7035 H 690.945 -4.76092 5.09884 0
M  V30 7036 H 686.842 -5.12832 3.92012 0
M  V30 7037 H 687.61 -5.63965 5.932 0
M  V30 7038 N 690.273 -0.685099 -1.4193 0
M  V30 7039 C 691.689 -0.355632 -1.55587 0
M  V30 7040 C 691.889 1.13823 -1.66273 0
M  V30 7041 O 690.945 1.92387 -1.63534 0
M  V30 7042 C 692.258 -1.09498 -2.80055 0
M  V30 7043 C 693.806 -1.07831 -2.93839 0
M  V30 7044 C 694.281 -1.79919 -4.21181 0
M  V30 7045 N 695.772 -1.76837 -4.28115 0
M  V30 7046 C 696.507 -2.29463 -5.25485 0
M  V30 7047 N 696.003 -2.90516 -6.28945 0
M  V30 7048 N 697.796 -2.19779 -5.17353 0
M  V30 7049 H 689.947 -1.65412 -1.33239 0
M  V30 7050 H 692.21 -0.697453 -0.642078 0
M  V30 7051 H 691.916 -2.14997 -2.78333 0
M  V30 7052 H 691.79 -0.666813 -3.71259 0
M  V30 7053 H 694.177 -0.0316152 -2.95083 0
M  V30 7054 H 694.258 -1.54545 -2.03837 0
M  V30 7055 H 693.902 -2.84562 -4.20698 0
M  V30 7056 H 693.832 -1.30647 -5.10136 0
M  V30 7057 H 696.323 -1.32315 -3.53979 0
M  V30 7058 H 696.636 -3.28266 -6.99615 0
M  V30 7059 H 694.981 -2.94589 -6.29478 0
M  V30 7060 H 698.172 -1.71763 -4.35448 0
M  V30 7061 H 698.345 -2.61097 -5.9307 0
M  V30 7062 N 691.751 1.51645 -0.429126 0
M  V30 7063 C 692.979 2.06433 0.138994 0
M  V30 7064 C 693.394 1.29735 1.37165 0
M  V30 7065 O 692.751 0.354638 1.79021 0
M  V30 7066 C 692.802 3.58439 0.469452 0
M  V30 7067 O 692.523 4.32238 -0.714273 0
M  V30 7068 C 694.024 4.29712 1.08914 0
M  V30 7069 H 691.244 0.6709 0.0115608 0
M  V30 7070 H 693.788 1.9532 -0.605843 0
M  V30 7071 H 691.943 3.69494 1.16419 0
M  V30 7072 H 692.357 5.22704 -0.433633 0
M  V30 7073 H 693.831 5.37182 1.27042 0
M  V30 7074 H 694.308 3.87473 2.06788 0
M  V30 7075 H 694.914 4.2308 0.434028 0
M  V30 7076 N 693.229 0.160201 1.56784 0
M  V30 7077 C 694.64 -0.358417 1.83227 0
M  V30 7078 C 694.991 -1.63831 1.07952 0
M  V30 7079 O 694.116 -2.13885 0.328995 0
M  V30 7080 C 694.711 -0.657058 3.32368 0
M  V30 7081 C 693.27 -1.12015 3.59346 0
M  V30 7082 C 692.417 -0.15015 2.76893 0
M  V30 7083 H 695.368 0.384669 1.53967 0
M  V30 7084 H 695.389 -1.51033 3.49241 0
M  V30 7085 H 694.901 0.274647 3.87127 0
M  V30 7086 H 693.002 -2.06734 3.09987 0
M  V30 7087 H 693.115 -1.037 4.67743 0
M  V30 7088 H 691.479 -0.645361 2.46388 0
M  V30 7089 H 692.262 0.775379 3.34429 0
M  V30 7090 N 694.707 -1.5719 -0.113559 0
M  V30 7091 C 695.617 -2.04041 -1.15777 0
M  V30 7092 C 696.633 -0.961812 -1.45001 0
M  V30 7093 O 697.809 -1.2737 -1.56009 0
M  V30 7094 C 694.874 -2.43994 -2.46308 0
M  V30 7095 C 693.935 -3.65962 -2.24433 0
M  V30 7096 C 693.168 -4.04 -3.4874 0
M  V30 7097 O 693.391 -3.42321 -4.56259 0
M  V30 7098 O 692.325 -4.97069 -3.3942 0
M  V30 7099 H 696.151 -2.93248 -0.789899 0
M  V30 7100 H 693.736 -1.45828 -0.324748 0
M  V30 7101 H 695.618 -2.70401 -3.23204 0
M  V30 7102 H 694.293 -1.57932 -2.82558 0
M  V30 7103 H 693.2 -3.44697 -1.45377 0
M  V30 7104 H 694.533 -4.52746 -1.93084 0
M  V30 7105 N 696.185 0.383891 -1.52853 0
M  V30 7106 C 697.115 1.47559 -1.80965 0
M  V30 7107 C 698.096 1.5669 -0.661986 0
M  V30 7108 O 699.281 1.71556 -0.910072 0
M  V30 7109 C 696.411 2.85114 -1.98312 0
M  V30 7110 C 695.365 2.9082 -3.14019 0
M  V30 7111 C 694.691 4.30873 -3.16627 0
M  V30 7112 C 695.991 2.60001 -4.52986 0
M  V30 7113 H 697.685 1.24283 -2.72386 0
M  V30 7114 H 695.231 0.596445 -1.31067 0
M  V30 7115 H 697.184 3.61496 -2.16561 0
M  V30 7116 H 695.908 3.09738 -1.03585 0
M  V30 7117 H 694.567 2.16886 -2.9556 0
M  V30 7118 H 694.215 4.52545 -2.19573 0
M  V30 7119 H 693.915 4.3561 -3.94357 0
M  V30 7120 H 695.439 5.09154 -3.37038 0
M  V30 7121 H 696.853 3.261 -4.71521 0
M  V30 7122 H 695.25 2.76081 -5.32822 0
M  V30 7123 H 696.32 1.5532 -4.59351 0
M  V30 7124 N 697.663 1.43903 0.642637 0
M  V30 7125 C 698.596 1.44339 1.76753 0
M  V30 7126 C 699.574 0.303558 1.59741 0
M  V30 7127 O 700.758 0.498775 1.81781 0
M  V30 7128 C 697.885 1.26508 3.14187 0
M  V30 7129 C 696.931 2.43905 3.49875 0
M  V30 7130 S 697.764 4.0645 3.48653 0
M  V30 7131 C 698.92 3.91021 4.88726 0
M  V30 7132 H 699.153 2.39523 1.76113 0
M  V30 7133 H 696.686 1.31061 0.81623 0
M  V30 7134 H 698.644 1.16908 3.93501 0
M  V30 7135 H 697.305 0.328548 3.12377 0
M  V30 7136 H 696.498 2.27262 4.49853 0
M  V30 7137 H 696.1 2.50186 2.77998 0
M  V30 7138 H 698.392 3.54 5.77659 0
M  V30 7139 H 699.335 4.9079 5.10423 0
M  V30 7140 H 699.743 3.23287 4.62759 0
M  V30 7141 N 699.141 -0.881989 1.30609 0
M  V30 7142 C 700.073 -1.99375 1.13058 0
M  V30 7143 C 701.086 -1.62636 0.0729879 0
M  V30 7144 O 702.275 -1.75621 0.319301 0
M  V30 7145 C 699.375 -3.31536 0.702651 0
M  V30 7146 C 698.548 -3.96693 1.84265 0
M  V30 7147 C 697.607 -5.07158 1.40277 0
M  V30 7148 O 696.633 -5.28628 2.11048 0
M  V30 7149 N 697.835 -5.79808 0.283449 0
M  V30 7150 H 700.6 -2.14981 2.08814 0
M  V30 7151 H 698.161 -1.05526 1.22784 0
M  V30 7152 H 700.153 -4.02804 0.391331 0
M  V30 7153 H 698.723 -3.12175 -0.162954 0
M  V30 7154 H 697.943 -3.1856 2.32192 0
M  V30 7155 H 699.231 -4.36964 2.60653 0
M  V30 7156 H 698.629 -5.64871 -0.306189 0
M  V30 7157 H 697.186 -6.51792 0.0315985 0
M  V30 7158 N 700.619 -1.13374 -1.09472 0
M  V30 7159 C 701.566 -0.810682 -2.16094 0
M  V30 7160 C 702.536 0.227003 -1.64541 0
M  V30 7161 O 703.721 0.0993538 -1.90541 0
M  V30 7162 C 700.861 -0.282336 -3.43943 0
M  V30 7163 C 699.974 -1.37902 -4.09398 0
M  V30 7164 C 699.109 -0.809066 -5.25002 0
M  V30 7165 C 698.148 -1.88419 -5.82379 0
M  V30 7166 N 697.285 -1.33221 -6.89345 0
M  V30 7167 H 702.125 -1.72397 -2.43071 0
M  V30 7168 H 699.662 -0.860564 -1.19301 0
M  V30 7169 H 701.62 0.0421189 -4.17179 0
M  V30 7170 H 700.25 0.594083 -3.17286 0
M  V30 7171 H 699.302 -1.82008 -3.34032 0
M  V30 7172 H 700.614 -2.19161 -4.48074 0
M  V30 7173 H 699.768 -0.435867 -6.05132 0
M  V30 7174 H 698.507 0.0346058 -4.87688 0
M  V30 7175 H 697.512 -2.26646 -5.00911 0
M  V30 7176 H 698.737 -2.73125 -6.21755 0
M  V30 7177 H 696.683 -0.510535 -6.5401 0
M  V30 7178 H 696.6 -2.08129 -7.26786 0
M  V30 7179 H 697.868 -0.986565 -7.73232 0
M  V30 7180 N 702.098 1.27442 -0.927168 0
M  V30 7181 C 703.326 1.98498 -0.583622 0
M  V30 7182 C 703.741 1.69171 0.838241 0
M  V30 7183 O 703.098 0.951969 1.55704 0
M  V30 7184 C 703.149 3.52552 -0.799341 0
M  V30 7185 O 702.87 3.80851 -2.16527 0
M  V30 7186 C 704.371 4.4086 -0.464436 0
M  V30 7187 H 701.591 0.633487 -0.221213 0
M  V30 7188 H 704.135 1.62308 -1.24404 0
M  V30 7189 H 702.29 3.86955 -0.185728 0
M  V30 7190 H 702.704 4.75441 -2.21487 0
M  V30 7191 H 704.178 5.47967 -0.666075 0
M  V30 7192 H 704.655 4.35082 0.599995 0
M  V30 7193 H 705.261 4.11977 -1.05617 0
M  V30 7194 N 703.576 0.692616 1.41565 0
M  V30 7195 C 704.825 0.219452 2.00503 0
M  V30 7196 C 705.138 -1.18683 1.55479 0
M  V30 7197 O 706.344 -1.75731 2.06956 0
M  V30 7198 C 704.8 0.341451 3.58277 0
M  V30 7199 C 704.408 1.75291 4.12283 0
M  V30 7200 C 706.152 -0.0720899 4.24439 0
M  V30 7201 C 704.059 1.82673 5.62481 0
M  V30 7202 H 702.989 0.0782874 0.749925 0
M  V30 7203 H 705.64 0.860386 1.62079 0
M  V30 7204 H 704.022 -0.367683 3.94289 0
M  V30 7205 H 705.196 2.49057 3.87695 0
M  V30 7206 H 703.511 2.11587 3.58636 0
M  V30 7207 H 706.108 -0.0373385 5.34687 0
M  V30 7208 H 706.451 -1.11034 4.0122 0
M  V30 7209 H 706.984 0.586663 3.9345 0
M  V30 7210 H 703.723 2.84539 5.90523 0
M  V30 7211 H 703.243 1.13288 5.89004 0
M  V30 7212 H 704.922 1.58827 6.27203 0
M  V30 7213 N 705.054 -1.51416 0.437162 0
M  V30 7214 C 706.331 -1.94682 -0.189292 0
M  V30 7215 C 706.711 -1.37581 -1.60108 0
M  V30 7216 O 706.059 -0.562815 -2.2146 0
M  V30 7217 C 706.269 -3.48599 -0.167201 0
M  V30 7218 C 707.617 -4.2296 -0.372856 0
M  V30 7219 O 708.641 -3.55354 -0.245323 0
M  V30 7220 O 707.5 -5.42895 -0.626693 0
M  V30 7221 H 704.594 -0.816708 -0.130063 0
M  V30 7222 H 707.14 -1.62316 0.495128 0
M  V30 7223 H 705.912 -3.82616 0.81981 0
M  V30 7224 H 705.535 -3.87406 -0.894537 0
M  V30 7225 N 706.532 -0.168513 -1.56696 0
M  V30 7226 C 707.479 0.762875 -2.17828 0
M  V30 7227 C 708.449 1.22892 -1.11745 0
M  V30 7228 O 709.634 1.29759 -1.39883 0
M  V30 7229 C 706.774 1.9879 -2.82093 0
M  V30 7230 C 705.887 1.56568 -4.02629 0
M  V30 7231 C 705.022 2.74416 -4.54829 0
M  V30 7232 C 704.061 2.28671 -5.67782 0
M  V30 7233 N 703.198 3.39602 -6.14504 0
M  V30 7234 H 708.038 0.23479 -2.97074 0
M  V30 7235 H 705.575 0.104163 -1.46731 0
M  V30 7236 H 707.533 2.70636 -3.17509 0
M  V30 7237 H 706.163 2.48973 -2.05456 0
M  V30 7238 H 705.215 0.744067 -3.73052 0
M  V30 7239 H 706.527 1.18988 -4.844 0
M  V30 7240 H 705.681 3.54423 -4.92412 0
M  V30 7241 H 704.42 3.15254 -3.7211 0
M  V30 7242 H 703.425 1.4711 -5.29753 0
M  V30 7243 H 704.65 1.88894 -6.52301 0
M  V30 7244 H 702.596 3.80021 -5.34715 0
M  V30 7245 H 702.513 3.06105 -6.91257 0
M  V30 7246 H 703.781 4.19902 -6.56737 0
M  V30 7247 N 708.01 1.57248 0.105221 0
M  V30 7248 C 708.94 2.04374 1.12931 0
M  V30 7249 C 709.921 0.93074 1.42377 0
M  V30 7250 O 711.106 1.20136 1.52581 0
M  V30 7251 C 708.236 2.45967 2.45189 0
M  V30 7252 C 707.19 3.60838 2.30174 0
M  V30 7253 C 706.516 3.88374 3.67518 0
M  V30 7254 C 707.816 4.92084 1.75073 0
M  V30 7255 H 709.51 2.9018 0.737287 0
M  V30 7256 H 707.056 1.39601 0.353211 0
M  V30 7257 H 709.009 2.77542 3.17094 0
M  V30 7258 H 707.733 1.57148 2.86308 0
M  V30 7259 H 706.392 3.29493 1.60716 0
M  V30 7260 H 706.04 2.96739 4.06147 0
M  V30 7261 H 705.74 4.65703 3.58321 0
M  V30 7262 H 707.264 4.22415 4.40906 0
M  V30 7263 H 708.678 5.22106 2.36809 0
M  V30 7264 H 707.075 5.73507 1.76662 0
M  V30 7265 H 708.145 4.79684 0.709347 0
M  V30 7266 N 709.488 -0.375779 1.53054 0
M  V30 7267 C 710.451 -1.44254 1.7811 0
M  V30 7268 C 711.451 -1.47018 0.651328 0
M  V30 7269 O 712.641 -1.47957 0.919472 0
M  V30 7270 C 709.773 -2.8345 1.89391 0
M  V30 7271 H 710.966 -1.23316 2.73374 0
M  V30 7272 H 708.519 -0.608312 1.43977 0
M  V30 7273 H 709.254 -3.09716 0.961589 0
M  V30 7274 H 709.039 -2.82844 2.71555 0
M  V30 7275 H 710.529 -3.60722 2.10404 0
M  V30 7276 N 710.966 -1.44241 -0.634997 0
M  V30 7277 C 711.876 -1.53293 -1.77591 0
M  V30 7278 C 712.892 -0.418831 -1.68884 0
M  V30 7279 O 714.068 -0.675619 -1.8973 0
M  V30 7280 C 711.133 -1.47075 -3.13958 0
M  V30 7281 C 710.194 -2.69304 -3.34326 0
M  V30 7282 C 709.427 -2.63374 -4.64187 0
M  V30 7283 O 709.65 -1.69161 -5.44739 0
M  V30 7284 O 708.584 -3.54166 -4.86673 0
M  V30 7285 H 712.41 -2.49673 -1.72908 0
M  V30 7286 H 709.995 -1.26445 -0.795745 0
M  V30 7287 H 711.877 -1.46117 -3.95257 0
M  V30 7288 H 710.552 -0.538373 -3.19192 0
M  V30 7289 H 709.459 -2.75831 -2.52721 0
M  V30 7290 H 710.792 -3.61576 -3.33951 0
M  V30 7291 N 712.444 0.87505 -1.31075 0
M  V30 7292 C 713.374 1.99775 -1.20881 0
M  V30 7293 C 714.355 1.69822 -0.0971612 0
M  V30 7294 O 715.54 1.92158 -0.280895 0
M  V30 7295 C 712.67 3.35163 -0.910118 0
M  V30 7296 C 711.624 3.79406 -1.98078 0
M  V30 7297 C 710.95 5.12197 -1.53488 0
M  V30 7298 C 712.25 3.97061 -3.39323 0
M  V30 7299 H 713.944 2.08562 -2.14808 0
M  V30 7300 H 711.49 1.00207 -1.03415 0
M  V30 7301 H 713.443 4.13237 -0.825423 0
M  V30 7302 H 712.167 3.26536 0.064822 0
M  V30 7303 H 710.826 3.03568 -2.05528 0
M  V30 7304 H 710.474 5.00007 -0.547941 0
M  V30 7305 H 710.174 5.4277 -2.2511 0
M  V30 7306 H 711.698 5.92785 -1.46417 0
M  V30 7307 H 713.112 4.65545 -3.34576 0
M  V30 7308 H 711.509 4.39025 -4.09118 0
M  V30 7309 H 712.579 3.00601 -3.80483 0
M  V30 7310 N 713.922 1.13953 1.08869 0
M  V30 7311 C 714.854 0.779906 2.15523 0
M  V30 7312 C 715.867 -0.20102 1.61554 0
M  V30 7313 O 717.056 0.0200049 1.78489 0
M  V30 7314 C 714.156 0.136226 3.38626 0
M  V30 7315 C 713.329 1.15069 4.21993 0
M  V30 7316 C 712.388 0.531645 5.23507 0
M  V30 7317 O 711.414 1.19327 5.56552 0
M  V30 7318 N 712.616 -0.693734 5.7634 0
M  V30 7319 H 715.381 1.69769 2.46979 0
M  V30 7320 H 712.942 1.03331 1.24637 0
M  V30 7321 H 714.934 -0.290295 4.03658 0
M  V30 7322 H 713.504 -0.684603 3.05011 0
M  V30 7323 H 712.724 1.75431 3.53012 0
M  V30 7324 H 714.012 1.83614 4.74514 0
M  V30 7325 H 713.41 -1.24994 5.51718 0
M  V30 7326 H 711.967 -1.06283 6.43076 0
M  V30 7327 N 715.4 -1.26948 0.933913 0
M  V30 7328 C 716.31 -2.30366 0.443671 0
M  V30 7329 C 717.326 -1.67284 -0.478745 0
M  V30 7330 O 718.502 -1.98156 -0.360043 0
M  V30 7331 C 715.567 -3.45485 -0.289974 0
M  V30 7332 C 714.628 -4.24069 0.668114 0
M  V30 7333 C 713.861 -5.33691 -0.0306138 0
M  V30 7334 O 714.084 -5.5656 -1.24888 0
M  V30 7335 O 713.018 -5.98441 0.644384 0
M  V30 7336 H 716.844 -2.74349 1.30254 0
M  V30 7337 H 714.429 -1.32012 0.699506 0
M  V30 7338 H 716.311 -4.15486 -0.70353 0
M  V30 7339 H 714.986 -3.03546 -1.12435 0
M  V30 7340 H 713.893 -3.56579 1.13147 0
M  V30 7341 H 715.226 -4.69739 1.46989 0
M  V30 7342 N 716.879 -0.700114 -1.41195 0
M  V30 7343 C 718.295 -0.372114 -1.55201 0
M  V30 7344 C 718.495 1.12053 -1.6747 0
M  V30 7345 O 717.551 1.90642 -1.65566 0
M  V30 7346 C 718.864 -1.12462 -2.78878 0
M  V30 7347 C 720.412 -1.10941 -2.92679 0
M  V30 7348 C 720.887 -1.84376 -4.19249 0
M  V30 7349 N 722.378 -1.81368 -4.26216 0
M  V30 7350 C 723.113 -2.35024 -5.23021 0
M  V30 7351 N 722.609 -2.9717 -6.25829 0
M  V30 7352 N 724.402 -2.25254 -5.14992 0
M  V30 7353 H 716.553 -1.66816 -1.31477 0
M  V30 7354 H 718.816 -0.704223 -0.634644 0
M  V30 7355 H 718.522 -2.17937 -2.76037 0
M  V30 7356 H 718.396 -0.706152 -3.70531 0
M  V30 7357 H 720.783 -0.062911 -2.95033 0
M  V30 7358 H 720.864 -1.56698 -2.02187 0
M  V30 7359 H 720.508 -2.89008 -4.17656 0
M  V30 7360 H 720.438 -1.3605 -5.08722 0
M  V30 7361 H 722.929 -1.36062 -3.52556 0
M  V30 7362 H 723.242 -3.35668 -6.96094 0
M  V30 7363 H 721.587 -3.01249 -6.26318 0
M  V30 7364 H 724.778 -1.76372 -4.33602 0
M  V30 7365 H 724.951 -2.67373 -5.90268 0
M  V30 7366 N 718.357 1.51182 -0.445186 0
M  V30 7367 C 719.604 2.02152 0.118645 0
M  V30 7368 C 719.932 1.32888 1.42025 0
M  V30 7369 O 719.187 0.435041 1.90803 0
M  V30 7370 C 719.486 3.55408 0.376797 0
M  V30 7371 C 719.152 4.43008 -0.839945 0
M  V30 7372 C 717.814 4.66669 -1.17361 0
M  V30 7373 C 720.166 4.9435 -1.65127 0
M  V30 7374 C 717.494 5.38919 -2.31913 0
M  V30 7375 C 719.846 5.67857 -2.78786 0
M  V30 7376 C 718.51 5.89779 -3.12597 0
M  V30 7377 H 717.78 0.739727 0.0434152 0
M  V30 7378 H 720.427 1.82055 -0.593984 0
M  V30 7379 H 718.732 3.73879 1.1714 0
M  V30 7380 H 720.429 3.92388 0.826602 0
M  V30 7381 H 717.019 4.24793 -0.569958 0
M  V30 7382 H 721.203 4.75947 -1.4067 0
M  V30 7383 H 716.459 5.54105 -2.58413 0
M  V30 7384 H 720.633 6.06628 -3.42017 0
M  V30 7385 H 718.26 6.45542 -4.01471 0
M  V30 7386 N 719.835 0.176821 1.56605 0
M  V30 7387 C 720.782 -0.751312 2.18229 0
M  V30 7388 C 721.752 -1.22297 1.12395 0
M  V30 7389 O 722.937 -1.29015 1.40569 0
M  V30 7390 C 720.077 -1.97291 2.83143 0
M  V30 7391 C 719.19 -1.54431 4.03454 0
M  V30 7392 C 718.325 -2.72 4.56278 0
M  V30 7393 C 717.364 -2.25657 5.68986 0
M  V30 7394 N 716.501 -3.36338 6.16296 0
M  V30 7395 H 721.341 -0.219033 2.97194 0
M  V30 7396 H 718.878 -0.0963803 1.46784 0
M  V30 7397 H 720.836 -2.68949 3.1894 0
M  V30 7398 H 719.466 -2.4788 2.06773 0
M  V30 7399 H 718.518 -0.724273 3.73441 0
M  V30 7400 H 719.83 -1.16417 4.85024 0
M  V30 7401 H 718.984 -3.51806 4.94285 0
M  V30 7402 H 717.723 -3.13277 3.73777 0
M  V30 7403 H 716.728 -1.44299 5.30526 0
M  V30 7404 H 717.953 -1.85432 6.53293 0
M  V30 7405 H 715.899 -3.7718 5.36723 0
M  V30 7406 H 715.816 -3.02435 6.9287 0
M  V30 7407 H 717.084 -4.16413 6.58954 0
M  V30 7408 N 721.313 -1.57302 -0.09688 0
M  V30 7409 C 722.729 -1.53094 -0.451041 0
M  V30 7410 C 722.929 -0.893265 -1.80618 0
M  V30 7411 O 721.985 -0.485013 -2.47798 0
M  V30 7412 C 723.298 -2.9782 -0.415172 0
M  V30 7413 C 724.846 -3.09026 -0.497155 0
M  V30 7414 C 725.321 -4.55356 -0.491452 0
M  V30 7415 N 726.812 -4.59896 -0.552258 0
M  V30 7416 C 727.547 -5.70563 -0.569654 0
M  V30 7417 N 727.043 -6.90666 -0.543365 0
M  V30 7418 N 728.836 -5.58733 -0.614331 0
M  V30 7419 H 720.987 -1.97131 0.790771 0
M  V30 7420 H 723.25 -0.901211 0.294147 0
M  V30 7421 H 722.956 -3.47933 0.513362 0
M  V30 7422 H 722.83 -3.56416 -1.23481 0
M  V30 7423 H 725.217 -2.58902 -1.41611 0
M  V30 7424 H 725.298 -2.53386 0.35059 0
M  V30 7425 H 724.942 -5.06131 0.423549 0
M  V30 7426 H 724.872 -5.08832 -1.35639 0
M  V30 7427 H 727.363 -3.73456 -0.577842 0
M  V30 7428 H 727.676 -7.70769 -0.559873 0
M  V30 7429 H 726.021 -6.93123 -0.510441 0
M  V30 7430 H 729.212 -4.63809 -0.632387 0
M  V30 7431 H 729.385 -6.44984 -0.62442 0
M  V30 7432 N 722.791 0.367657 -1.53252 0
M  V30 7433 C 724.037 1.11216 -1.69584 0
M  V30 7434 C 724.37 1.89026 -0.445269 0
M  V30 7435 O 723.645 1.86342 0.557404 0
M  V30 7436 C 723.928 2.07308 -2.94441 0
M  V30 7437 C 723.781 1.3312 -4.2965 0
M  V30 7438 C 725.1 3.07459 -3.14892 0
M  V30 7439 H 722.219 0.40294 -0.617096 0
M  V30 7440 H 724.861 0.393201 -1.85887 0
M  V30 7441 H 723.011 2.68617 -2.80673 0
M  V30 7442 H 724.683 0.746111 -4.55226 0
M  V30 7443 H 722.926 0.633051 -4.29156 0
M  V30 7444 H 723.597 2.03443 -5.13142 0
M  V30 7445 H 726.073 2.56252 -3.27832 0
M  V30 7446 H 724.949 3.71919 -4.03693 0
M  V30 7447 H 725.21 3.77514 -2.30077 0
M  V30 7448 N 724.269 1.44576 0.627338 0
M  V30 7449 C 725.685 1.28546 0.945938 0
M  V30 7450 C 725.885 0.224003 2.00251 0
M  V30 7451 O 724.941 -0.388817 2.49488 0
M  V30 7452 C 726.254 2.65825 1.40561 0
M  V30 7453 C 727.802 2.73566 1.52088 0
M  V30 7454 C 728.277 4.11323 2.01438 0
M  V30 7455 N 729.768 4.13519 2.08702 0
M  V30 7456 C 730.503 5.16964 2.48065 0
M  V30 7457 N 729.999 6.30768 2.86538 0
M  V30 7458 N 731.792 5.04319 2.48232 0
M  V30 7459 H 723.943 2.1228 -0.0713567 0
M  V30 7460 H 726.206 0.947503 0.0307081 0
M  V30 7461 H 725.912 3.44591 0.703539 0
M  V30 7462 H 725.786 2.92969 2.37591 0
M  V30 7463 H 728.173 1.95116 2.21391 0
M  V30 7464 H 728.254 2.50159 0.534237 0
M  V30 7465 H 727.898 4.9025 1.32729 0
M  V30 7466 H 727.828 4.32109 3.0098 0
M  V30 7467 H 730.319 3.31385 1.81638 0
M  V30 7468 H 730.632 7.0551 3.15398 0
M  V30 7469 H 728.977 6.342 2.84281 0
M  V30 7470 H 732.168 4.14465 2.17569 0
M  V30 7471 H 732.341 5.85059 2.78585 0
M  V30 7472 N 725.747 -0.868086 1.31537 0
M  V30 7473 C 726.996 -1.61607 1.20689 0
M  V30 7474 C 727.309 -1.94204 -0.233275 0
M  V30 7475 O 728.515 -2.67515 -0.463465 0
M  V30 7476 C 726.971 -2.91348 2.11292 0
M  V30 7477 C 726.579 -2.66227 3.60315 0
M  V30 7478 C 728.323 -3.69344 2.09249 0
M  V30 7479 C 726.23 -3.91887 4.42921 0
M  V30 7480 H 725.16 -0.606373 0.448138 0
M  V30 7481 H 727.811 -0.959666 1.56405 0
M  V30 7482 H 726.193 -3.58374 1.68477 0
M  V30 7483 H 727.367 -2.07597 4.11388 0
M  V30 7484 H 725.682 -2.01582 3.64354 0
M  V30 7485 H 728.279 -4.62567 2.68209 0
M  V30 7486 H 728.622 -4.02044 1.0801 0
M  V30 7487 H 729.155 -3.09205 2.50274 0
M  V30 7488 H 725.894 -3.64336 5.44922 0
M  V30 7489 H 725.414 -4.49961 3.96605 0
M  V30 7490 H 727.093 -4.59754 4.55231 0
M  V30 7491 N 727.225 -1.14528 -1.08264 0
M  V30 7492 C 728.453 -0.937964 -1.84418 0
M  V30 7493 C 728.868 0.51357 -1.81681 0
M  V30 7494 O 728.225 1.35591 -1.22153 0
M  V30 7495 C 728.276 -1.43272 -3.31897 0
M  V30 7496 O 727.997 -2.82738 -3.34651 0
M  V30 7497 C 729.498 -1.26555 -4.24851 0
M  V30 7498 H 726.718 -0.333704 -0.582136 0
M  V30 7499 H 729.262 -1.52076 -1.36723 0
M  V30 7500 H 727.417 -0.892653 -3.76975 0
M  V30 7501 H 727.831 -3.04971 -4.26724 0
M  V30 7502 H 729.305 -1.66031 -5.26439 0
M  V30 7503 H 729.782 -0.208589 -4.38704 0
M  V30 7504 H 730.388 -1.79423 -3.856 0
M  V30 7505 N 728.703 1.26451 -0.940633 0
M  V30 7506 C 729.98 1.88947 -0.505811 0
M  V30 7507 C 730.36 1.85011 1.01657 0
M  V30 7508 O 729.708 1.30406 1.87634 0
M  V30 7509 C 729.918 3.32304 -1.06654 0
M  V30 7510 C 731.266 4.09153 -1.13486 0
M  V30 7511 O 732.29 3.41371 -1.01708 0
M  V30 7512 O 731.149 5.30369 -1.31797 0
M  V30 7513 H 728.243 0.810422 -0.164759 0
M  V30 7514 H 730.789 1.34625 -1.03316 0
M  V30 7515 H 729.561 3.29527 -2.11015 0
M  V30 7516 H 729.184 3.94164 -0.521603 0
M  V30 7517 N 730.181 0.707592 1.40822 0
M  V30 7518 C 731.409 0.253073 2.05346 0
M  V30 7519 C 731.824 -1.10218 1.53289 0
M  V30 7520 O 731.181 -1.69112 0.686105 0
M  V30 7521 C 731.232 0.215411 3.60858 0
M  V30 7522 O 730.953 1.51714 4.10992 0
M  V30 7523 C 732.454 -0.258636 4.42545 0
M  V30 7524 H 729.674 0.115256 0.661027 0
M  V30 7525 H 732.218 0.963555 1.80377 0
M  V30 7526 H 730.373 -0.445978 3.84824 0
M  V30 7527 H 730.787 1.41226 5.05129 0
M  V30 7528 H 732.261 -0.233849 5.51504 0
M  V30 7529 H 732.738 -1.2995 4.19535 0
M  V30 7530 H 733.344 0.372186 4.23668 0
M  V30 7531 N 731.66 -1.50943 0.453197 0
M  V30 7532 C 732.885 -2.07116 -0.108463 0
M  V30 7533 C 733.31 -1.31681 -1.3432 0
M  V30 7534 O 732.668 -0.359256 -1.77705 0
M  V30 7535 C 732.716 -3.58447 -0.393424 0
M  V30 7536 O 731.82 -3.85038 -1.47714 0
M  V30 7537 H 731.161 -0.66398 0.0050993 0
M  V30 7538 H 733.691 -1.94362 0.639095 0
M  V30 7539 H 733.701 -4.02961 -0.639222 0
M  V30 7540 H 732.376 -4.12774 0.508946 0
M  V30 7541 H 730.953 -3.52376 -1.22006 0
M  V30 7542 N 733.138 -0.185124 -1.56509 0
M  V30 7543 C 734.363 0.465278 -2.02114 0
M  V30 7544 C 734.788 1.55083 -1.06447 0
M  V30 7545 O 734.146 1.81241 -0.0462852 0
M  V30 7546 C 734.194 1.00784 -3.46229 0
M  V30 7547 O 733.298 2.12123 -3.53663 0
M  V30 7548 H 732.639 0.109891 -0.654843 0
M  V30 7549 H 735.169 -0.293072 -2.0249 0
M  V30 7550 H 735.179 1.32697 -3.85818 0
M  V30 7551 H 733.854 0.213113 -4.15354 0
M  V30 7552 H 732.431 1.8115 -3.25943 0
M  V30 7553 N 734.616 1.57351 0.0885366 0
M  V30 7554 C 735.862 1.86696 0.791996 0
M  V30 7555 C 736.195 0.775148 1.78059 0
M  V30 7556 O 735.47 -0.216247 1.93294 0
M  V30 7557 C 735.753 3.26684 1.51491 0
M  V30 7558 C 735.606 4.465 0.543858 0
M  V30 7559 C 736.925 3.64664 2.46391 0
M  V30 7560 H 734.044 0.679049 0.286463 0
M  V30 7561 H 736.686 1.89919 0.0554866 0
M  V30 7562 H 734.836 3.24067 2.14273 0
M  V30 7563 H 736.508 4.61235 -0.0774597 0
M  V30 7564 H 734.751 4.33567 -0.142228 0
M  V30 7565 H 735.422 5.41192 1.08696 0
M  V30 7566 H 737.898 3.68267 1.93698 0
M  V30 7567 H 736.774 4.63534 2.93986 0
M  V30 7568 H 737.035 2.93698 3.30445 0
M  V30 7569 N 736.094 -0.359525 1.53444 0
M  V30 7570 C 737.341 -1.10152 1.6992 0
M  V30 7571 C 737.669 -1.89125 0.4541 0
M  V30 7572 O 736.924 -1.87396 -0.564023 0
M  V30 7573 C 737.223 -2.08287 2.90433 0
M  V30 7574 C 736.889 -1.45749 4.26694 0
M  V30 7575 C 735.551 -1.28421 4.63747 0
M  V30 7576 C 737.903 -1.00557 5.11408 0
M  V30 7577 C 735.231 -0.644951 5.83144 0
M  V30 7578 C 737.583 -0.380288 6.31456 0
M  V30 7579 C 736.247 -0.194557 6.67216 0
M  V30 7580 H 735.517 -0.403076 0.621781 0
M  V30 7581 H 738.164 -0.382612 1.87639 0
M  V30 7582 H 736.469 -2.86503 2.67251 0
M  V30 7583 H 738.166 -2.65662 3.00374 0
M  V30 7584 H 734.756 -1.6023 3.97523 0
M  V30 7585 H 738.94 -1.12735 4.83326 0
M  V30 7586 H 734.196 -0.48952 6.09437 0
M  V30 7587 H 738.37 -0.0219455 6.96397 0
M  V30 7588 H 735.997 0.30285 7.59597 0
M  V30 7589 N 737.572 -1.44907 -0.619662 0
M  V30 7590 C 738.52 -1.52971 -1.75222 0
M  V30 7591 C 739.514 -0.400531 -1.64597 0
M  V30 7592 O 740.72 -0.575952 -1.70537 0
M  V30 7593 H 737.095 -0.480241 -0.578682 0
M  V30 7594 H 739.066 -2.48269 -1.65545 0
M  V30 7595 C 737.815 -1.50204 -3.13583 0
M  V30 7596 H 737.138 -2.36412 -3.22412 0
M  V30 7597 H 738.578 -1.59905 -3.92691 0
M  V30 7598 C 737.037 -0.22455 -3.36151 0
M  V30 7599 O 737.567 0.700574 -3.95544 0
M  V30 7600 N 735.773 -0.124052 -2.90335 0
M  V30 7601 H 735.32 -0.87774 -2.42185 0
M  V30 7602 H 735.278 0.729914 -3.0581 0
M  V30 7603 N 739.05 0.861098 -1.31996 0
M  V30 7604 C 740.278 1.6474 -1.25173 0
M  V30 7605 C 740.693 1.87926 0.181425 0
M  V30 7606 O 740.05 1.4437 1.1164 0
M  V30 7607 C 740.101 3.01036 -2.0015 0
M  V30 7608 O 739.822 2.7888 -3.37872 0
M  V30 7609 C 741.323 3.95481 -2.00273 0
M  V30 7610 H 738.543 0.513314 -0.432146 0
M  V30 7611 H 741.087 1.07419 -1.74016 0
M  V30 7612 H 739.242 3.55021 -1.55046 0
M  V30 7613 H 739.656 3.65514 -3.76165 0
M  V30 7614 H 741.13 4.88403 -2.57229 0
M  V30 7615 H 741.607 4.27957 -0.987407 0
M  V30 7616 H 742.213 3.47433 -2.45296 0
M  V30 7617 N 740.528 1.15101 1.07655 0
M  V30 7618 C 741.805 0.834578 1.76902 0
M  V30 7619 C 742.185 -0.670431 2.00171 0
M  V30 7620 O 741.533 -1.61378 1.6177 0
M  V30 7621 C 741.743 1.64191 3.07965 0
M  V30 7622 C 743.091 1.84615 3.82364 0
M  V30 7623 O 744.115 1.60941 3.17768 0
M  V30 7624 O 742.974 2.24244 4.98374 0
M  V30 7625 H 740.068 0.306608 0.768063 0
M  V30 7626 H 742.614 1.25663 1.14048 0
M  V30 7627 H 741.386 2.66386 2.86626 0
M  V30 7628 H 741.009 1.216 3.78549 0
M  V30 7629 N 742.006 -1.2595 0.947325 0
M  V30 7630 C 742.936 -2.28521 0.479604 0
M  V30 7631 C 743.917 -1.63469 -0.470293 0
M  V30 7632 O 745.102 -1.90627 -0.370824 0
M  V30 7633 C 742.232 -3.46397 -0.250289 0
M  V30 7634 C 741.186 -4.23578 0.613643 0
M  V30 7635 C 740.512 -5.34131 -0.246568 0
M  V30 7636 C 741.812 -4.86979 1.88809 0
M  V30 7637 H 743.506 -2.67895 1.33688 0
M  V30 7638 H 741.052 -1.28783 0.644274 0
M  V30 7639 H 743.005 -4.17269 -0.588576 0
M  V30 7640 H 741.729 -3.05993 -1.14175 0
M  V30 7641 H 740.388 -3.54478 0.93491 0
M  V30 7642 H 740.036 -4.89968 -1.13756 0
M  V30 7643 H 739.736 -5.86683 0.328123 0
M  V30 7644 H 741.26 -6.07839 -0.579986 0
M  V30 7645 H 742.674 -5.50034 1.61666 0
M  V30 7646 H 741.071 -5.49675 2.40784 0
M  V30 7647 H 742.141 -4.09575 2.5957 0
M  V30 7648 N 743.484 -0.715051 -1.40445 0
M  V30 7649 C 744.414 -0.0768699 -2.33373 0
M  V30 7650 C 745.395 0.746109 -1.52863 0
M  V30 7651 O 746.58 0.695142 -1.81332 0
M  V30 7652 C 743.71 0.846014 -3.36838 0
M  V30 7653 C 742.664 0.128694 -4.27806 0
M  V30 7654 C 741.99 1.16726 -5.21804 0
M  V30 7655 C 743.29 -1.01679 -5.12307 0
M  V30 7656 H 744.984 -0.853061 -2.8699 0
M  V30 7657 H 742.53 -0.41167 -1.3799 0
M  V30 7658 H 744.483 1.30185 -4.00786 0
M  V30 7659 H 743.207 1.6541 -2.81615 0
M  V30 7660 H 741.866 -0.307314 -3.6531 0
M  V30 7661 H 741.514 1.96838 -4.62887 0
M  V30 7662 H 741.214 0.692188 -5.83509 0
M  V30 7663 H 742.738 1.62321 -5.88629 0
M  V30 7664 H 744.152 -0.640337 -5.69713 0
M  V30 7665 H 742.549 -1.4202 -5.83053 0
M  V30 7666 H 743.619 -1.84769 -4.48317 0
M  V30 7667 N 744.962 1.50701 -0.461195 0
M  V30 7668 C 746.192 2.06381 0.0950376 0
M  V30 7669 C 746.6 1.32627 1.34933 0
M  V30 7670 O 745.943 0.386137 1.79596 0
M  V30 7671 C 746.005 3.56558 0.458965 0
M  V30 7672 C 745.669 4.51732 -0.691891 0
M  V30 7673 C 746.666 4.95594 -1.57105 0
M  V30 7674 C 744.351 4.94542 -0.879407 0
M  V30 7675 C 746.345 5.80963 -2.62223 0
M  V30 7676 C 744.032 5.79695 -1.93382 0
M  V30 7677 C 745.03 6.22806 -2.80359 0
M  V30 7678 O 744.718 7.06265 -3.83986 0
M  V30 7679 H 744.45 0.676 0.000687488 0
M  V30 7680 H 747.004 1.94974 -0.646087 0
M  V30 7681 H 745.234 3.65832 1.25314 0
M  V30 7682 H 746.923 3.94647 0.949124 0
M  V30 7683 H 747.689 4.63197 -1.43783 0
M  V30 7684 H 743.568 4.60513 -0.211907 0
M  V30 7685 H 747.112 6.14533 -3.30143 0
M  V30 7686 H 743.009 6.11506 -2.06715 0
M  V30 7687 H 743.777 7.24494 -3.80855 0
M  V30 7688 N 746.441 0.193421 1.56409 0
M  V30 7689 C 747.669 -0.451438 2.01915 0
M  V30 7690 C 748.084 -1.55306 1.07357 0
M  V30 7691 O 747.441 -1.82333 0.0781512 0
M  V30 7692 C 747.492 -1.00931 3.47124 0
M  V30 7693 O 747.213 0.0483623 4.38073 0
M  V30 7694 C 748.714 -1.73021 4.0814 0
M  V30 7695 H 745.934 -0.113495 0.661332 0
M  V30 7696 H 748.478 0.301636 2.02263 0
M  V30 7697 H 746.633 -1.71277 3.47481 0
M  V30 7698 H 747.047 -0.366644 5.23217 0
M  V30 7699 H 748.521 -2.07289 5.11601 0
M  V30 7700 H 748.998 -2.6333 3.51502 0
M  V30 7701 H 749.604 -1.07264 4.11551 0
M  V30 7702 N 747.919 -1.57396 -0.0801906 0
M  V30 7703 C 749.168 -1.8602 -0.779702 0
M  V30 7704 C 749.481 -0.784864 -1.79163 0
M  V30 7705 O 750.687 -0.958691 -2.54011 0
M  V30 7706 C 749.143 -3.29942 -1.43758 0
M  V30 7707 C 748.751 -4.45584 -0.464654 0
M  V30 7708 C 750.495 -3.67775 -2.11995 0
M  V30 7709 C 748.402 -5.80544 -1.12797 0
M  V30 7710 H 747.332 -0.69392 -0.294943 0
M  V30 7711 H 749.983 -1.83471 -0.0328527 0
M  V30 7712 H 748.365 -3.27078 -2.2324 0
M  V30 7713 H 749.539 -4.59824 0.299749 0
M  V30 7714 H 747.854 -4.16247 0.112813 0
M  V30 7715 H 750.451 -4.65896 -2.62383 0
M  V30 7716 H 750.794 -2.9715 -2.91561 0
M  V30 7717 H 751.327 -3.72593 -1.39354 0
M  V30 7718 H 748.066 -6.54439 -0.372807 0
M  V30 7719 H 747.586 -5.70119 -1.86344 0
M  V30 7720 H 749.265 -6.25602 -1.6502 0
M  V30 7721 N 749.397 0.351382 -1.53633 0
M  V30 7722 C 750.307 1.45471 -1.84052 0
M  V30 7723 C 751.323 1.57945 -0.730015 0
M  V30 7724 O 752.499 1.73571 -1.02153 0
M  V30 7725 C 749.564 2.80562 -2.03681 0
M  V30 7726 C 748.625 2.77497 -3.27558 0
M  V30 7727 C 747.858 4.06144 -3.46241 0
M  V30 7728 O 748.081 5.03028 -2.68922 0
M  V30 7729 O 747.015 4.11092 -4.39645 0
M  V30 7730 H 750.841 1.22684 -2.77817 0
M  V30 7731 H 748.426 0.542827 -1.3919 0
M  V30 7732 H 750.308 3.6058 -2.18082 0
M  V30 7733 H 748.983 3.03296 -1.13106 0
M  V30 7734 H 747.89 1.96126 -3.18568 0
M  V30 7735 H 749.223 2.59716 -4.18101 0
M  V30 7736 N 750.875 1.45233 0.611969 0
M  V30 7737 C 751.805 1.5641 1.73373 0
M  V30 7738 C 752.786 0.415896 1.64937 0
M  V30 7739 O 753.971 0.638478 1.83404 0
M  V30 7740 C 751.101 1.52627 3.11965 0
M  V30 7741 C 750.055 2.66119 3.35208 0
M  V30 7742 C 749.381 2.4739 4.74028 0
M  V30 7743 C 750.681 4.08157 3.25891 0
M  V30 7744 H 752.375 2.50307 1.64277 0
M  V30 7745 H 749.921 1.20467 0.788904 0
M  V30 7746 H 751.874 1.59043 3.90235 0
M  V30 7747 H 750.598 0.552564 3.21892 0
M  V30 7748 H 749.257 2.59123 2.59327 0
M  V30 7749 H 748.905 1.48168 4.80682 0
M  V30 7750 H 748.605 3.23494 4.90536 0
M  V30 7751 H 750.129 2.55653 5.54503 0
M  V30 7752 H 751.543 4.1642 3.9404 0
M  V30 7753 H 749.94 4.84617 3.5393 0
M  V30 7754 H 751.01 4.30374 2.23397 0
M  V30 7755 N 752.353 -0.854086 1.3245 0
M  V30 7756 C 753.601 -1.60513 1.228 0
M  V30 7757 C 753.922 -1.93865 -0.210073 0
M  V30 7758 O 753.192 -1.59673 -1.13496 0
M  V30 7759 H 751.772 -0.595099 0.451516 0
M  V30 7760 H 754.434 -1.0216 1.6598 0
M  V30 7761 H 753.53 -2.54182 1.81102 0
M  V30 7762 N 753.831 -1.1567 -1.07043 0
M  V30 7763 C 754.781 -0.824733 -2.12561 0
M  V30 7764 C 755.765 0.19243 -1.59745 0
M  V30 7765 O 756.957 -0.00728759 -1.76998 0
M  V30 7766 C 754.086 -0.31921 -3.41813 0
M  V30 7767 C 753.172 -1.36671 -4.01475 0
M  V30 7768 N 753.563 -2.57493 -4.35351 0
M  V30 7769 C 751.861 -1.22018 -4.28984 0
M  V30 7770 C 752.562 -3.24658 -4.82672 0
M  V30 7771 N 751.538 -2.52043 -4.81638 0
M  V30 7772 H 755.34 -1.74363 -2.3659 0
M  V30 7773 H 752.854 -1.04262 -1.24511 0
M  V30 7774 H 754.851 -0.0630216 -4.16852 0
M  V30 7775 H 753.511 0.593708 -3.19226 0
M  V30 7776 H 754.522 -2.94612 -4.25939 0
M  V30 7777 H 751.199 -0.367414 -4.1588 0
M  V30 7778 H 752.589 -4.2775 -5.1815 0
M  V30 7779 N 755.309 1.25446 -0.953992 0
M  V30 7780 C 756.557 1.92762 -0.607227 0
M  V30 7781 C 756.878 1.7509 0.858399 0
M  V30 7782 O 756.148 1.11416 1.61132 0
M  V30 7783 H 754.728 0.713377 -0.221591 0
M  V30 7784 H 757.39 1.52625 -1.21209 0
M  V30 7785 H 756.486 3.00695 -0.835998 0
M  V30 7786 N 756.787 0.722489 1.40064 0
M  V30 7787 C 757.717 0.0892452 2.33329 0
M  V30 7788 C 758.698 -0.737992 1.53257 0
M  V30 7789 O 759.883 -0.685516 1.81698 0
M  V30 7790 C 757.013 -0.828139 3.37282 0
M  V30 7791 C 755.967 -0.106005 4.27869 0
M  V30 7792 C 755.293 -1.13957 5.22415 0
M  V30 7793 C 756.593 1.04395 5.11761 0
M  V30 7794 H 758.287 0.868269 2.86534 0
M  V30 7795 H 755.833 0.418982 1.3777 0
M  V30 7796 H 757.786 -1.28058 4.01471 0
M  V30 7797 H 756.51 -1.63914 2.82489 0
M  V30 7798 H 755.169 0.326683 3.65142 0
M  V30 7799 H 754.817 -1.9438 4.63924 0
M  V30 7800 H 754.517 -0.661233 5.83868 0
M  V30 7801 H 756.041 -1.59197 5.89482 0
M  V30 7802 H 757.455 0.670541 5.69365 0
M  V30 7803 H 755.852 1.4511 5.82291 0
M  V30 7804 H 756.922 1.87144 4.47331 0
M  V30 7805 N 758.265 -1.50454 0.469181 0
M  V30 7806 C 759.213 -2.30101 -0.340033 0
M  V30 7807 C 760.207 -1.37306 -0.992135 0
M  V30 7808 O 761.413 -1.54506 -0.923458 0
M  V30 7809 H 757.788 -0.740941 -0.128495 0
M  V30 7810 H 759.759 -2.96315 0.352144 0
M  V30 7811 C 758.508 -3.17804 -1.41052 0
M  V30 7812 H 757.831 -3.89115 -0.918124 0
M  V30 7813 H 759.271 -3.76533 -1.94934 0
M  V30 7814 C 757.73 -2.35272 -2.4114 0
M  V30 7815 O 758.26 -2.03448 -3.4637 0
M  V30 7816 N 756.466 -1.97889 -2.1281 0
M  V30 7817 H 756.013 -2.2397 -1.27261 0
M  V30 7818 H 755.971 -1.42971 -2.80012 0
M  V30 7819 N 759.743 -0.201713 -1.56304 0
M  V30 7820 C 760.989 0.435952 -1.98059 0
M  V30 7821 C 761.322 1.60811 -1.08873 0
M  V30 7822 O 760.597 1.9398 -0.142128 0
M  V30 7823 C 760.88 0.889706 -3.48936 0
M  V30 7824 C 760.733 -0.284725 -4.48898 0
M  V30 7825 C 762.052 1.7529 -4.03685 0
M  V30 7826 H 759.171 0.15699 -0.720085 0
M  V30 7827 H 761.813 -0.293965 -1.87712 0
M  V30 7828 H 759.963 1.51166 -3.57884 0
M  V30 7829 H 761.635 -0.922531 -4.51981 0
M  V30 7830 H 759.878 -0.935427 -4.23594 0
M  V30 7831 H 760.549 0.0753865 -5.51949 0
M  V30 7832 H 763.025 1.2283 -3.97558 0
M  V30 7833 H 761.901 2.03933 -5.0961 0
M  V30 7834 H 762.162 2.70939 -3.49348 0
M  V30 7835 N 761.222 1.57436 0.0718424 0
M  V30 7836 C 762.185 2.02703 1.06977 0
M  V30 7837 C 763.185 0.924062 1.31597 0
M  V30 7838 O 764.375 1.18894 1.27318 0
M  V30 7839 C 761.507 2.40763 2.41342 0
M  V30 7840 H 762.7 2.92098 0.679619 0
M  V30 7841 H 760.253 1.5304 0.317565 0
M  V30 7842 H 760.988 1.54394 2.8519 0
M  V30 7843 H 760.773 3.21249 2.24814 0
M  V30 7844 H 762.263 2.76361 3.13073 0
M  V30 7845 N 762.7 -0.34323 1.53817 0
M  V30 7846 C 763.61 -1.44493 1.84821 0
M  V30 7847 C 764.626 -1.57556 0.738381 0
M  V30 7848 O 765.802 -1.73026 1.03072 0
M  V30 7849 C 762.867 -2.79478 2.05166 0
M  V30 7850 C 761.928 -2.75756 3.29025 0
M  V30 7851 C 761.161 -4.04302 3.4839 0
M  V30 7852 O 761.384 -5.01595 2.71586 0
M  V30 7853 O 760.318 -4.08754 4.41819 0
M  V30 7854 H 764.144 -1.21209 2.78464 0
M  V30 7855 H 761.729 -0.535437 1.39476 0
M  V30 7856 H 763.611 -3.59419 2.19991 0
M  V30 7857 H 762.286 -3.02692 1.14713 0
M  V30 7858 H 761.193 -1.94434 3.19603 0
M  V30 7859 H 762.526 -2.57495 4.19472 0
M  V30 7860 N 764.178 -1.45556 -0.604258 0
M  V30 7861 C 765.418 -1.51289 -1.37445 0
M  V30 7862 C 765.782 -0.152112 -1.91397 0
M  V30 7863 O 766.983 -0.0841419 -2.68668 0
M  V30 7864 C 765.254 -2.5646 -2.48924 0
M  V30 7865 S 766.813 -2.81442 -3.36654 0
M  V30 7866 H 763.631 -0.534774 -0.468549 0
M  V30 7867 H 766.233 -1.82657 -0.696902 0
M  V30 7868 H 764.937 -3.53995 -2.07644 0
M  V30 7869 H 764.468 -2.26753 -3.21476 0
M  V30 7870 H 766.483 -2.15074 -4.47166 0
M  V30 7871 N 765.656 0.84705 -1.32902 0
M  V30 7872 C 766.589 1.96038 -1.1681 0
M  V30 7873 C 767.567 1.62468 -0.0656144 0
M  V30 7874 O 768.751 1.87136 -0.226339 0
M  V30 7875 C 765.878 3.29362 -0.789839 0
M  V30 7876 C 764.924 3.81908 -1.89865 0
M  V30 7877 S 765.757 4.04576 -3.50826 0
M  V30 7878 C 766.913 5.40863 -3.14989 0
M  V30 7879 H 767.146 2.09387 -2.11055 0
M  V30 7880 H 764.679 0.999896 -1.1765 0
M  V30 7881 H 766.637 4.06405 -0.578369 0
M  V30 7882 H 765.298 3.13815 0.133878 0
M  V30 7883 H 764.491 4.78357 -1.58716 0
M  V30 7884 H 764.093 3.11733 -2.06636 0
M  V30 7885 H 766.385 6.23393 -2.65306 0
M  V30 7886 H 767.328 5.7698 -4.10488 0
M  V30 7887 H 767.736 5.05228 -2.51804 0
M  V30 7888 N 767.134 1.16236 1.06428 0
M  V30 7889 C 768.097 0.870163 2.1204 0
M  V30 7890 C 769.097 -0.134239 1.60239 0
M  V30 7891 O 770.287 0.0964932 1.73933 0
M  V30 7892 C 767.419 0.301033 3.39568 0
M  V30 7893 H 768.612 1.8064 2.39394 0
M  V30 7894 H 766.165 0.971116 1.2247 0
M  V30 7895 H 766.9 -0.642948 3.17863 0
M  V30 7896 H 766.685 1.02475 3.78472 0
M  V30 7897 H 768.175 0.114494 4.17443 0
M  V30 7898 N 768.612 -1.24939 0.960631 0
M  V30 7899 C 769.562 -2.23388 0.456266 0
M  V30 7900 C 770.546 -1.54249 -0.45782 0
M  V30 7901 O 771.738 -1.7461 -0.289894 0
M  V30 7902 C 768.867 -3.42321 -0.259024 0
M  V30 7903 C 767.953 -4.18718 0.673478 0
M  V30 7904 N 768.344 -4.72394 1.8077 0
M  V30 7905 C 766.642 -4.43378 0.482859 0
M  V30 7906 C 767.343 -5.30316 2.3904 0
M  V30 7907 N 766.319 -5.17109 1.67629 0
M  V30 7908 H 770.121 -2.62499 1.32179 0
M  V30 7909 H 767.635 -1.40245 0.818851 0
M  V30 7910 H 769.632 -4.11997 -0.637527 0
M  V30 7911 H 768.292 -3.04732 -1.12108 0
M  V30 7912 H 769.303 -4.69345 2.18942 0
M  V30 7913 H 765.98 -4.16147 -0.335821 0
M  V30 7914 H 767.37 -5.82594 3.34715 0
M  V30 7915 N 770.09 -0.729906 -1.39679 0
M  V30 7916 C 771.315 -0.284345 -2.05442 0
M  V30 7917 C 771.74 1.07056 -1.54663 0
M  V30 7918 O 771.098 1.67732 -0.688157 0
M  V30 7919 C 771.146 -0.290089 -3.59431 0
M  V30 7920 O 770.25 0.723978 -4.05995 0
M  V30 7921 H 769.591 -0.130311 -0.651088 0
M  V30 7922 H 772.121 -0.994403 -1.78809 0
M  V30 7923 H 772.131 -0.132712 -4.07784 0
M  V30 7924 H 770.806 -1.27877 -3.95753 0
M  V30 7925 H 769.383 0.533154 -3.69069 0
M  V30 7926 N 771.568 1.50203 -0.477153 0
M  V30 7927 C 772.531 2.27194 0.302599 0
M  V30 7928 C 773.531 1.32221 0.915112 0
M  V30 7929 O 774.721 1.55593 0.783348 0
M  V30 7930 C 771.853 3.0938 1.43167 0
M  V30 7931 H 773.046 2.97575 -0.372678 0
M  V30 7932 H 770.599 1.54578 -0.231392 0
M  V30 7933 H 771.334 2.43509 2.14182 0
M  V30 7934 H 771.119 3.79181 0.998197 0
M  V30 7935 H 772.609 3.67592 1.98157 0
M  V30 7936 N 773.046 0.209999 1.56195 0
M  V30 7937 C 773.979 -0.744546 2.15712 0
M  V30 7938 C 774.957 -1.19917 1.09812 0
M  V30 7939 O 776.141 -1.284 1.38006 0
M  V30 7940 C 773.268 -2.00733 2.72807 0
M  V30 7941 C 772.314 -1.69363 3.91431 0
M  V30 7942 S 773.147 -0.828579 5.29051 0
M  V30 7943 C 774.303 -2.10118 5.89577 0
M  V30 7944 H 774.536 -0.238636 2.96341 0
M  V30 7945 H 772.069 -0.00517877 1.54399 0
M  V30 7946 H 774.027 -2.73246 3.06344 0
M  V30 7947 H 772.688 -2.48436 1.92193 0
M  V30 7948 H 771.881 -2.63157 4.29842 0
M  V30 7949 H 771.483 -1.04921 3.58981 0
M  V30 7950 H 773.775 -3.05231 6.04847 0
M  V30 7951 H 774.718 -1.76116 6.85849 0
M  V30 7952 H 775.126 -2.23644 5.18308 0
M  V30 7953 N 774.524 -1.57472 -0.0634922 0
M  V30 7954 C 775.487 -2.03268 -1.059 0
M  V30 7955 C 776.487 -0.931028 -1.31105 0
M  V30 7956 O 777.677 -1.19567 -1.26686 0
M  V30 7957 C 774.809 -2.42039 -2.40062 0
M  V30 7958 H 776.002 -2.92454 -0.664119 0
M  V30 7959 H 773.555 -1.53206 -0.309444 0
M  V30 7960 H 774.29 -1.55904 -2.84367 0
M  V30 7961 H 774.075 -3.22437 -2.23108 0
M  V30 7962 H 775.565 -2.78017 -3.11603 0
M  V30 7963 N 776.003 0.335068 -1.53997 0
M  V30 7964 C 777.419 0.678704 -1.4445 0
M  V30 7965 C 777.619 1.92106 -0.608078 0
M  V30 7966 O 776.675 2.52292 -0.102373 0
M  V30 7967 C 777.988 0.863435 -2.88037 0
M  V30 7968 C 779.536 0.961513 -2.97866 0
M  V30 7969 C 780.011 1.1785 -4.42578 0
M  V30 7970 N 781.502 1.2455 -4.46141 0
M  V30 7971 C 782.237 1.43106 -5.55255 0
M  V30 7972 N 781.733 1.5878 -6.74359 0
M  V30 7973 N 783.526 1.45722 -5.42883 0
M  V30 7974 H 775.677 -0.481656 -2.06867 0
M  V30 7975 H 777.94 -0.153615 -0.935471 0
M  V30 7976 H 777.646 0.0219511 -3.51693 0
M  V30 7977 H 777.52 1.76268 -3.33481 0
M  V30 7978 H 779.907 1.79351 -2.34344 0
M  V30 7979 H 779.988 0.0389862 -2.5577 0
M  V30 7980 H 779.632 0.351397 -5.06683 0
M  V30 7981 H 779.562 2.11472 -4.82273 0
M  V30 7982 H 782.053 1.13928 -3.60318 0
M  V30 7983 H 782.366 1.72599 -7.53279 0
M  V30 7984 H 780.711 1.559 -6.77289 0
M  V30 7985 H 783.902 1.33065 -4.48789 0
M  V30 7986 H 784.075 1.59841 -6.27977 0
M  V30 7987 N 777.481 1.45874 0.596531 0
M  V30 7988 C 778.428 1.55389 1.70655 0
M  V30 7989 C 779.398 0.399036 1.61236 0
M  V30 7990 O 780.583 0.61396 1.80652 0
M  V30 7991 C 777.723 1.53705 3.0898 0
M  V30 7992 C 776.836 2.79823 3.29125 0
M  V30 7993 C 775.971 2.69735 4.5762 0
M  V30 7994 C 775.01 3.90856 4.71061 0
M  V30 7995 N 774.147 3.79237 5.90867 0
M  V30 7996 H 778.987 2.50211 1.61859 0
M  V30 7997 H 776.524 1.24146 0.789069 0
M  V30 7998 H 778.482 1.50715 3.89026 0
M  V30 7999 H 777.112 0.624247 3.16706 0
M  V30 8000 H 776.164 2.92852 2.42779 0
M  V30 8001 H 777.476 3.69628 3.34927 0
M  V30 8002 H 776.63 2.64773 5.45875 0
M  V30 8003 H 775.369 1.77547 4.54234 0
M  V30 8004 H 774.374 3.96164 3.81227 0
M  V30 8005 H 775.599 4.84124 4.76236 0
M  V30 8006 H 773.545 2.89825 5.88504 0
M  V30 8007 H 773.462 4.62686 5.97877 0
M  V30 8008 H 774.73 3.78227 6.8159 0
M  V30 8009 N 778.959 -0.83999 1.33349 0
M  V30 8010 C 779.869 -1.98182 1.25543 0
M  V30 8011 C 780.885 -1.73204 0.166208 0
M  V30 8012 O 782.061 -1.97596 0.389589 0
M  V30 8013 C 779.126 -3.32157 0.993614 0
M  V30 8014 C 778.187 -3.70258 2.17273 0
M  V30 8015 C 777.42 -4.9784 1.92331 0
M  V30 8016 O 777.643 -5.63679 0.873074 0
M  V30 8017 O 776.577 -5.33418 2.78835 0
M  V30 8018 H 780.403 -2.07708 2.21565 0
M  V30 8019 H 777.988 -0.972852 1.13384 0
M  V30 8020 H 779.87 -4.12433 0.864711 0
M  V30 8021 H 778.545 -3.23637 0.0636596 0
M  V30 8022 H 777.452 -2.90497 2.35716 0
M  V30 8023 H 778.785 -3.83442 3.08598 0
M  V30 8024 N 780.437 -1.16799 -1.0581 0
M  V30 8025 C 781.662 -0.977402 -1.82925 0
M  V30 8026 C 782.087 0.469514 -1.82146 0
M  V30 8027 O 781.445 1.33576 -1.22585 0
M  V30 8028 C 781.493 -1.51543 -3.27211 0
M  V30 8029 O 780.597 -0.725021 -4.05977 0
M  V30 8030 H 779.938 -0.347474 -0.565825 0
M  V30 8031 H 782.468 -1.55151 -1.33376 0
M  V30 8032 H 782.478 -1.53502 -3.78023 0
M  V30 8033 H 781.153 -2.56872 -3.27093 0
M  V30 8034 H 779.73 -0.77634 -3.64729 0
M  V30 8035 N 781.915 1.24427 -0.967243 0
M  V30 8036 C 783.331 1.44684 -0.6737 0
M  V30 8037 C 783.531 1.86429 0.764625 0
M  V30 8038 O 782.587 2.00211 1.53857 0
M  V30 8039 C 783.9 2.509 -1.6574 0
M  V30 8040 C 785.448 2.64728 -1.66998 0
M  V30 8041 C 785.923 3.7414 -2.64165 0
M  V30 8042 N 787.414 3.81567 -2.62604 0
M  V30 8043 C 788.149 4.6575 -3.34462 0
M  V30 8044 N 787.645 5.54124 -4.15835 0
M  V30 8045 N 789.438 4.59827 -3.23288 0
M  V30 8046 H 781.589 0.956276 -1.89655 0
M  V30 8047 H 783.852 0.48171 -0.816492 0
M  V30 8048 H 783.558 2.27113 -2.68538 0
M  V30 8049 H 783.432 3.4905 -1.42981 0
M  V30 8050 H 785.819 2.87872 -0.649121 0
M  V30 8051 H 785.9 1.66936 -1.93819 0
M  V30 8052 H 785.544 3.51745 -3.66384 0
M  V30 8053 H 785.474 4.71444 -2.34623 0
M  V30 8054 H 787.965 3.18403 -2.03539 0
M  V30 8055 H 788.278 6.15316 -4.67553 0
M  V30 8056 H 786.623 5.53791 -4.19929 0
M  V30 8057 H 789.814 3.898 -2.59179 0
M  V30 8058 H 789.987 5.25208 -3.79553 0
M  V30 8059 N 783.393 0.737304 1.3929 0
M  V30 8060 C 784.641 0.285691 2.00071 0
M  V30 8061 C 784.962 -1.13169 1.58801 0
M  V30 8062 O 784.232 -1.77104 0.837308 0
M  V30 8063 H 782.812 0.102638 0.739915 0
M  V30 8064 H 785.474 0.947775 1.70303 0
M  V30 8065 H 784.57 0.335906 3.10287 0
M  V30 8066 N 784.871 -1.49948 0.485112 0
M  V30 8067 C 785.834 -2.27351 -0.290546 0
M  V30 8068 C 786.834 -1.32704 -0.908087 0
M  V30 8069 O 788.024 -1.56007 -0.775085 0
M  V30 8070 C 785.156 -3.10135 -1.41524 0
M  V30 8071 H 786.349 -2.97374 0.388454 0
M  V30 8072 H 783.902 -1.54453 0.239586 0
M  V30 8073 H 784.637 -2.44641 -2.12888 0
M  V30 8074 H 784.422 -3.79705 -0.978074 0
M  V30 8075 H 785.912 -3.68638 -1.96204 0
M  V30 8076 N 786.349 -0.21828 -1.56081 0
M  V30 8077 C 787.299 0.706492 -2.16778 0
M  V30 8078 C 788.283 1.15987 -1.11516 0
M  V30 8079 O 789.475 1.11441 -1.37513 0
M  V30 8080 C 786.604 1.91583 -2.8487 0
M  V30 8081 C 785.69 1.48228 -3.97353 0
M  V30 8082 N 786.081 0.761113 -5.00041 0
M  V30 8083 C 784.379 1.76982 -4.09382 0
M  V30 8084 C 785.08 0.540496 -5.79184 0
M  V30 8085 N 784.056 1.09622 -5.32432 0
M  V30 8086 H 787.858 0.147038 -2.93532 0
M  V30 8087 H 785.372 -0.0194049 -1.62388 0
M  V30 8088 H 787.369 2.58906 -3.26762 0
M  V30 8089 H 786.029 2.47979 -2.09611 0
M  V30 8090 H 787.04 0.414141 -5.16241 0
M  V30 8091 H 783.717 2.34721 -3.45271 0
M  V30 8092 H 785.107 -0.0332531 -6.71892 0
M  V30 8093 N 787.827 1.57504 0.0551401 0
M  V30 8094 C 788.759 2.0158 1.09078 0
M  V30 8095 C 789.772 0.92434 1.34014 0
M  V30 8096 O 790.961 1.20202 1.31961 0
M  V30 8097 C 788.061 2.35385 2.43818 0
M  V30 8098 C 787.234 3.66588 2.38605 0
M  V30 8099 C 786.293 3.87874 3.55585 0
M  V30 8100 O 785.319 4.59259 3.36258 0
M  V30 8101 N 786.521 3.31503 4.76536 0
M  V30 8102 H 789.286 2.91039 0.71529 0
M  V30 8103 H 786.847 1.60058 0.243532 0
M  V30 8104 H 788.839 2.46784 3.20749 0
M  V30 8105 H 787.409 1.51731 2.73307 0
M  V30 8106 H 786.629 3.65787 1.46947 0
M  V30 8107 H 787.917 4.52706 2.32239 0
M  V30 8108 H 787.315 2.73592 4.9514 0
M  V30 8109 H 785.872 3.48324 5.50921 0
M  V30 8110 N 789.305 -0.326896 1.54172 0
M  V30 8111 C 790.721 -0.671034 1.44808 0
M  V30 8112 C 790.921 -1.91781 0.618258 0
M  V30 8113 O 789.977 -2.52235 0.115751 0
M  V30 8114 C 791.29 -0.848147 2.88491 0
M  V30 8115 C 792.838 -0.945702 2.98371 0
M  V30 8116 C 793.313 -1.15501 4.43197 0
M  V30 8117 N 794.804 -1.22183 4.46795 0
M  V30 8118 C 795.539 -1.4016 5.56006 0
M  V30 8119 N 795.035 -1.55202 6.75192 0
M  V30 8120 N 796.828 -1.42841 5.43648 0
M  V30 8121 H 788.979 0.49262 2.06608 0
M  V30 8122 H 791.242 0.158574 0.934643 0
M  V30 8123 H 790.948 -0.00329969 3.517 0
M  V30 8124 H 790.822 -1.74497 3.34411 0
M  V30 8125 H 793.209 -1.78106 2.35292 0
M  V30 8126 H 793.29 -0.0254215 2.55787 0
M  V30 8127 H 792.934 -0.324521 5.06862 0
M  V30 8128 H 792.864 -2.08911 4.83388 0
M  V30 8129 H 795.355 -1.12016 3.60917 0
M  V30 8130 H 795.668 -1.68601 7.54184 0
M  V30 8131 H 794.013 -1.52306 6.78106 0
M  V30 8132 H 797.204 -1.30683 4.49488 0
M  V30 8133 H 797.377 -1.56509 6.28816 0
M  V30 8134 N 790.784 -1.46188 -0.588786 0
M  V30 8135 C 791.714 -1.59148 -1.70863 0
M  V30 8136 C 792.695 -0.442083 -1.64255 0
M  V30 8137 O 793.88 -0.667575 -1.82365 0
M  V30 8138 C 791.01 -1.5757 -3.09498 0
M  V30 8139 C 789.964 -2.71418 -3.30932 0
M  V30 8140 C 789.29 -2.549 -4.70032 0
M  V30 8141 C 790.59 -4.1329 -3.19356 0
M  V30 8142 H 792.284 -2.52889 -1.60274 0
M  V30 8143 H 789.83 -1.21707 -0.769638 0
M  V30 8144 H 791.783 -1.65231 -3.87655 0
M  V30 8145 H 790.507 -0.603705 -3.20972 0
M  V30 8146 H 789.166 -2.63216 -2.55172 0
M  V30 8147 H 788.814 -1.55797 -4.78264 0
M  V30 8148 H 788.514 -3.31257 -4.85327 0
M  V30 8149 H 790.038 -2.64443 -5.50366 0
M  V30 8150 H 791.452 -4.22636 -3.87365 0
M  V30 8151 H 789.849 -4.90187 -3.46175 0
M  V30 8152 H 790.919 -4.33874 -2.16522 0
M  V30 8153 N 792.262 0.832906 -1.33792 0
M  V30 8154 C 793.539 1.57359 -1.16178 0
M  V30 8155 C 793.919 2.09372 0.269532 0
M  V30 8156 O 793.267 1.89993 1.26944 0
M  V30 8157 C 793.477 2.70279 -2.20795 0
M  V30 8158 C 794.825 3.39305 -2.55259 0
M  V30 8159 O 795.849 2.80526 -2.19508 0
M  V30 8160 O 794.708 4.45428 -3.16632 0
M  V30 8161 H 791.802 0.694025 -0.449731 0
M  V30 8162 H 794.348 0.875144 -1.45394 0
M  V30 8163 H 793.12 2.29527 -3.16911 0
M  V30 8164 H 792.743 3.47782 -1.927 0
M  V30 8165 N 793.74 1.17359 1.05189 0
M  V30 8166 C 794.65 0.904984 2.16442 0
M  V30 8167 C 795.666 -0.12686 1.73537 0
M  V30 8168 O 796.842 0.0524127 2.01332 0
M  V30 8169 C 793.907 0.422019 3.44122 0
M  V30 8170 C 792.968 1.52045 4.01473 0
M  V30 8171 C 792.201 1.06044 5.23059 0
M  V30 8172 O 792.424 -0.0854023 5.70336 0
M  V30 8173 O 791.358 1.85349 5.72651 0
M  V30 8174 H 795.184 1.8356 2.41949 0
M  V30 8175 H 792.769 0.95447 1.14936 0
M  V30 8176 H 794.651 0.160208 4.21095 0
M  V30 8177 H 793.326 -0.480444 3.20115 0
M  V30 8178 H 792.233 1.83615 3.25939 0
M  V30 8179 H 793.566 2.39863 4.29798 0
M  V30 8180 N 795.218 -1.23913 0.973828 0
M  V30 8181 C 796.466 -1.91771 0.637817 0
M  V30 8182 C 796.787 -1.76434 -0.830435 0
M  V30 8183 O 796.057 -1.13965 -1.59339 0
M  V30 8184 H 794.637 -0.709761 0.232912 0
M  V30 8185 H 797.299 -1.50677 1.23622 0
M  V30 8186 H 796.395 -2.99327 0.883731 0
M  V30 8187 N 796.696 -0.74468 -1.38897 0
M  V30 8188 C 797.936 -0.301691 -2.02161 0
M  V30 8189 C 798.3 1.09338 -1.57826 0
M  V30 8190 O 799.501 1.63499 -2.13358 0
M  V30 8191 C 797.772 -0.410601 -3.55034 0
M  V30 8192 S 799.331 -0.0488802 -4.38773 0
M  V30 8193 H 796.149 -0.117583 -0.70121 0
M  V30 8194 H 798.751 -0.973334 -1.69548 0
M  V30 8195 H 797.455 -1.42705 -3.8479 0
M  V30 8196 H 796.986 0.278531 -3.92413 0
M  V30 8197 H 799.001 1.16434 -4.82346 0
M  V30 8198 N 798.174 1.49689 -0.493057 0
M  V30 8199 C 799.402 2.06836 0.0513141 0
M  V30 8200 C 799.817 1.35436 1.31539 0
M  V30 8201 O 799.174 0.430248 1.77356 0
M  V30 8202 C 799.225 3.60107 0.317003 0
M  V30 8203 O 798.946 4.2882 -0.896957 0
M  V30 8204 C 800.447 4.33945 0.905902 0
M  V30 8205 H 797.667 0.670787 -0.0169048 0
M  V30 8206 H 800.211 1.92574 -0.688139 0
M  V30 8207 H 798.366 3.74099 1.00642 0
M  V30 8208 H 798.78 5.20395 -0.654939 0
M  V30 8209 H 800.254 5.42087 1.04144 0
M  V30 8210 H 800.731 3.95895 1.90168 0
M  V30 8211 H 801.337 4.2454 0.254195 0
M  V30 8212 N 799.652 0.226554 1.55963 0
M  V30 8213 C 800.562 -0.692725 2.24139 0
M  V30 8214 C 801.578 -1.20971 1.25068 0
M  V30 8215 O 802.754 -1.25027 1.57893 0
M  V30 8216 C 799.819 -1.88183 2.91184 0
M  V30 8217 C 798.88 -1.40633 4.05612 0
M  V30 8218 C 798.113 -2.53875 4.6945 0
M  V30 8219 O 798.336 -3.72129 4.32292 0
M  V30 8220 O 797.27 -2.24792 5.58348 0
M  V30 8221 H 801.096 -0.141921 3.03368 0
M  V30 8222 H 798.681 -0.0041049 1.49399 0
M  V30 8223 H 800.563 -2.57617 3.33484 0
M  V30 8224 H 799.238 -2.42064 2.14911 0
M  V30 8225 H 798.145 -0.67986 3.67871 0
M  V30 8226 H 799.478 -0.913838 4.83642 0
M  V30 8227 N 801.13 -1.57531 -0.0467866 0
M  V30 8228 C 802.546 -1.54451 -0.402107 0
M  V30 8229 C 802.746 -0.950275 -1.77685 0
M  V30 8230 O 801.802 -0.563602 -2.4613 0
M  V30 8231 C 803.115 -2.9899 -0.320212 0
M  V30 8232 C 804.663 -3.10452 -0.398588 0
M  V30 8233 C 805.138 -4.56689 -0.346335 0
M  V30 8234 N 806.629 -4.6142 -0.405666 0
M  V30 8235 C 807.364 -5.72087 -0.387845 0
M  V30 8236 N 806.86 -6.92045 -0.32336 0
M  V30 8237 N 808.653 -5.60404 -0.436263 0
M  V30 8238 H 800.804 -1.94515 0.853087 0
M  V30 8239 H 803.067 -0.891397 0.322669 0
M  V30 8240 H 802.773 -3.46124 0.623794 0
M  V30 8241 H 802.647 -3.60164 -1.1208 0
M  V30 8242 H 805.034 -2.63276 -1.33302 0
M  V30 8243 H 805.115 -2.52142 0.431026 0
M  V30 8244 H 804.759 -5.04527 0.584356 0
M  V30 8245 H 804.689 -5.12889 -1.19382 0
M  V30 8246 H 807.18 -3.75105 -0.458737 0
M  V30 8247 H 807.493 -7.7216 -0.314375 0
M  V30 8248 H 805.838 -6.94396 -0.28967 0
M  V30 8249 H 809.029 -4.65586 -0.48451 0
M  V30 8250 H 809.202 -6.46645 -0.418907 0
M  V30 8251 N 802.608 0.318715 -1.54344 0
M  V30 8252 C 803.885 1.07461 -1.63437 0
M  V30 8253 C 804.265 2.05771 -0.47131 0
M  V30 8254 O 803.613 2.22175 0.53391 0
M  V30 8255 C 803.823 1.77224 -3.00654 0
M  V30 8256 C 805.171 2.30069 -3.56866 0
M  V30 8257 O 806.195 1.87284 -3.0299 0
M  V30 8258 O 805.054 3.08412 -4.51159 0
M  V30 8259 H 802.148 0.495627 -0.66203 0
M  V30 8260 H 804.694 0.318218 -1.6669 0
M  V30 8261 H 803.466 1.05742 -3.76742 0
M  V30 8262 H 803.089 2.59662 -3.01101 0
M  V30 8263 N 804.086 1.46499 0.581025 0
M  V30 8264 C 805.363 1.42372 1.34125 0
M  V30 8265 C 805.743 0.108073 2.10823 0
M  V30 8266 O 805.091 -0.910366 2.09582 0
M  V30 8267 C 805.301 2.65445 2.26583 0
M  V30 8268 C 806.649 3.11664 2.88359 0
M  V30 8269 O 807.673 2.66006 2.36896 0
M  V30 8270 O 806.532 3.90974 3.81839 0
M  V30 8271 H 803.626 0.566262 0.602724 0
M  V30 8272 H 806.172 1.58667 0.601903 0
M  V30 8273 H 804.944 3.52756 1.69348 0
M  V30 8274 H 804.567 2.51618 3.07854 0
M  V30 8275 N 805.565 -0.825799 1.34232 0
M  V30 8276 C 806.811 -1.58419 1.26614 0
M  V30 8277 C 807.144 -1.93503 -0.164341 0
M  V30 8278 O 806.419 -1.59785 -1.109 0
M  V30 8279 C 806.702 -2.8856 2.15418 0
M  V30 8280 C 806.555 -2.60075 3.66989 0
M  V30 8281 C 807.874 -3.90107 2.03726 0
M  V30 8282 H 804.993 -0.574794 0.461282 0
M  V30 8283 H 807.635 -0.951519 1.64457 0
M  V30 8284 H 805.785 -3.42553 1.83275 0
M  V30 8285 H 807.457 -2.12414 4.09485 0
M  V30 8286 H 805.7 -1.93565 3.88221 0
M  V30 8287 H 806.371 -3.52866 4.24488 0
M  V30 8288 H 808.847 -3.45459 2.31942 0
M  V30 8289 H 807.723 -4.78976 2.68092 0
M  V30 8290 H 807.984 -4.30329 1.01337 0
M  V30 8291 N 807.043 -1.17915 -1.04565 0
M  V30 8292 C 807.991 -0.897919 -2.1457 0
M  V30 8293 C 808.985 0.139883 -1.68821 0
M  V30 8294 O 810.191 -0.00779463 -1.79998 0
M  V30 8295 H 806.566 -0.272867 -0.700748 0
M  V30 8296 H 808.537 -1.83268 -2.3549 0
M  V30 8297 C 807.286 -0.434634 -3.44973 0
M  V30 8298 H 806.609 -1.22469 -3.8058 0
M  V30 8299 H 808.049 -0.276804 -4.23095 0
M  V30 8300 C 806.508 0.848738 -3.26034 0
M  V30 8301 O 807.038 1.9141 -3.53164 0
M  V30 8302 N 805.244 0.799373 -2.79389 0
M  V30 8303 H 804.791 -0.0678192 -2.57511 0
M  V30 8304 H 804.749 1.6585 -2.67098 0
M  V30 8305 N 808.521 1.23394 -0.980386 0
M  V30 8306 C 809.768 1.91809 -0.649261 0
M  V30 8307 C 810.096 1.765 0.817197 0
M  V30 8308 O 809.351 1.11979 1.60497 0
M  V30 8309 C 809.65 3.43542 -0.985588 0
M  V30 8310 C 809.316 3.79031 -2.44225 0
M  V30 8311 C 807.978 3.88429 -2.84035 0
M  V30 8312 C 810.33 3.96145 -3.38702 0
M  V30 8313 C 807.658 4.12368 -4.17336 0
M  V30 8314 C 810.01 4.21583 -4.71646 0
M  V30 8315 C 808.674 4.29203 -5.11215 0
M  V30 8316 H 807.944 0.70188 -0.237581 0
M  V30 8317 H 810.591 1.4642 -1.23424 0
M  V30 8318 H 808.896 3.90503 -0.318521 0
M  V30 8319 H 810.593 3.94708 -0.707596 0
M  V30 8320 H 807.183 3.7229 -2.12362 0
M  V30 8321 H 811.367 3.88274 -3.09123 0
M  V30 8322 H 806.623 4.1649 -4.47601 0
M  V30 8323 H 810.797 4.33769 -5.4481 0
M  V30 8324 H 808.424 4.47505 -6.14527 0
M  V30 8325 N 809.999 0.752036 1.385 0
M  V30 8326 C 810.929 0.138718 2.33088 0
M  V30 8327 C 811.91 -0.705318 1.54788 0
M  V30 8328 O 813.095 -0.646821 1.83112 0
M  V30 8329 C 810.225 -0.75641 3.38963 0
M  V30 8330 C 809.179 -0.0152239 4.27997 0
M  V30 8331 C 808.505 -1.0285 5.24715 0
M  V30 8332 C 809.805 1.15226 5.09431 0
M  V30 8333 H 811.499 0.928852 2.84627 0
M  V30 8334 H 809.045 0.448111 1.3685 0
M  V30 8335 H 810.998 -1.19513 4.04097 0
M  V30 8336 H 809.722 -1.57885 2.85902 0
M  V30 8337 H 808.381 0.404061 3.64366 0
M  V30 8338 H 808.029 -1.84496 4.67943 0
M  V30 8339 H 807.729 -0.537238 5.85139 0
M  V30 8340 H 809.253 -1.46657 5.92726 0
M  V30 8341 H 810.667 0.791161 5.67815 0
M  V30 8342 H 809.064 1.57428 5.79082 0
M  V30 8343 H 810.134 1.9659 4.43261 0
M  V30 8344 N 811.477 -1.49425 0.500989 0
M  V30 8345 C 812.424 -2.29126 -0.277443 0
M  V30 8346 C 813.394 -1.35522 -0.960363 0
M  V30 8347 O 814.579 -1.64479 -0.967027 0
M  V30 8348 C 811.719 -3.18193 -1.33593 0
M  V30 8349 C 810.832 -4.26854 -0.664791 0
M  V30 8350 C 809.967 -5.03137 -1.70372 0
M  V30 8351 C 809.006 -6.03635 -1.01445 0
M  V30 8352 N 808.143 -6.73083 -1.99758 0
M  V30 8353 H 812.983 -2.95187 0.408458 0
M  V30 8354 H 810.52 -1.45546 0.213275 0
M  V30 8355 H 812.478 -3.68207 -1.96161 0
M  V30 8356 H 811.108 -2.54116 -1.9906 0
M  V30 8357 H 810.16 -3.80328 0.0741708 0
M  V30 8358 H 811.472 -4.9865 -0.122197 0
M  V30 8359 H 810.626 -5.5702 -2.40445 0
M  V30 8360 H 809.365 -4.31114 -2.28017 0
M  V30 8361 H 808.37 -5.48984 -0.299496 0
M  V30 8362 H 809.595 -6.77644 -0.444497 0
M  V30 8363 H 807.541 -6.03832 -2.56365 0
M  V30 8364 H 807.458 -7.40855 -1.50565 0
M  V30 8365 H 808.726 -7.3157 -2.69119 0
M  V30 8366 N 812.955 -0.234822 -1.55841 0
M  V30 8367 C 813.905 0.68346 -2.17515 0
M  V30 8368 C 814.889 1.14798 -1.1274 0
M  V30 8369 O 816.081 1.09976 -1.38688 0
M  V30 8370 C 813.21 1.88551 -2.86886 0
M  V30 8371 C 812.296 1.44006 -3.98903 0
M  V30 8372 N 812.687 0.708034 -5.0082 0
M  V30 8373 C 810.985 1.7263 -4.11236 0
M  V30 8374 C 811.686 0.479036 -5.79724 0
M  V30 8375 N 810.662 1.03968 -5.33565 0
M  V30 8376 H 814.464 0.115897 -2.93671 0
M  V30 8377 H 811.978 -0.0366273 -1.62359 0
M  V30 8378 H 813.975 2.55425 -3.2949 0
M  V30 8379 H 812.635 2.45742 -2.12229 0
M  V30 8380 H 813.646 0.359363 -5.16652 0
M  V30 8381 H 810.323 2.31046 -3.47741 0
M  V30 8382 H 811.713 -0.104514 -6.71819 0
M  V30 8383 N 814.433 1.57553 0.0384317 0
M  V30 8384 C 815.661 1.93093 0.743141 0
M  V30 8385 C 816.076 0.833787 1.69391 0
M  V30 8386 O 815.433 -0.190532 1.81503 0
M  V30 8387 C 815.484 3.28533 1.50826 0
M  V30 8388 O 815.205 4.34032 0.595665 0
M  V30 8389 C 816.706 3.78297 2.31098 0
M  V30 8390 H 813.926 0.637486 0.20941 0
M  V30 8391 H 816.47 2.045 -0.00125154 0
M  V30 8392 H 814.625 3.18552 2.20462 0
M  V30 8393 H 815.039 5.12155 1.13124 0
M  V30 8394 H 816.513 4.75602 2.80191 0
M  V30 8395 H 816.99 3.09008 3.12107 0
M  V30 8396 H 817.596 3.91331 1.66555 0
M  V30 8397 N 815.911 -0.310526 1.54511 0
M  V30 8398 C 816.841 -1.38757 1.878 0
M  V30 8399 C 817.822 -1.53353 0.735991 0
M  V30 8400 O 819.007 -1.67018 0.990887 0
M  V30 8401 C 816.137 -2.75327 2.11689 0
M  V30 8402 C 815.091 -2.75506 3.27537 0
M  V30 8403 C 814.417 -4.15275 3.36824 0
M  V30 8404 C 815.717 -2.38093 4.64875 0
M  V30 8405 H 817.411 -1.11146 2.78005 0
M  V30 8406 H 814.957 -0.533232 1.33763 0
M  V30 8407 H 816.91 -3.50752 2.33562 0
M  V30 8408 H 815.634 -3.04443 1.18245 0
M  V30 8409 H 814.293 -2.02538 3.05572 0
M  V30 8410 H 813.941 -4.41553 2.40915 0
M  V30 8411 H 813.641 -4.16299 4.14692 0
M  V30 8412 H 815.165 -4.92493 3.60947 0
M  V30 8413 H 816.579 -3.03232 4.86542 0
M  V30 8414 H 814.976 -2.50345 5.45387 0
M  V30 8415 H 816.046 -1.33227 4.66239 0
M  V30 8416 N 817.389 -1.46805 -0.573248 0
M  V30 8417 C 818.352 -1.57655 -1.66366 0
M  V30 8418 C 819.352 -0.452905 -1.5429 0
M  V30 8419 O 820.542 -0.717502 -1.58737 0
M  V30 8420 C 817.674 -1.50584 -3.05839 0
M  V30 8421 H 818.867 -2.54842 -1.581 0
M  V30 8422 H 816.42 -1.34756 -0.791868 0
M  V30 8423 H 817.155 -0.547127 -3.19651 0
M  V30 8424 H 816.94 -2.32118 -3.16012 0
M  V30 8425 H 818.43 -1.61282 -3.85199 0
M  V30 8426 N 818.867 0.818669 -1.34668 0
M  V30 8427 C 820.114 1.57512 -1.27264 0
M  V30 8428 C 820.442 1.93871 0.156254 0
M  V30 8429 O 819.697 1.60582 1.11857 0
M  V30 8430 C 819.996 2.88245 -2.11304 0
M  V30 8431 C 819.662 2.71159 -3.60255 0
M  V30 8432 C 818.324 2.66207 -4.00858 0
M  V30 8433 C 820.676 2.54538 -4.54819 0
M  V30 8434 C 818.004 2.4256 -5.34211 0
M  V30 8435 C 820.356 2.32421 -5.88356 0
M  V30 8436 C 819.02 2.25884 -6.28118 0
M  V30 8437 H 818.29 0.576378 -0.465692 0
M  V30 8438 H 820.937 0.9469 -1.66451 0
M  V30 8439 H 819.242 3.55381 -1.64958 0
M  V30 8440 H 820.939 3.45869 -2.02919 0
M  V30 8441 H 817.529 2.75856 -3.28027 0
M  V30 8442 H 821.713 2.57384 -4.24343 0
M  V30 8443 H 816.969 2.35959 -5.64033 0
M  V30 8444 H 821.143 2.18548 -6.61218 0
M  V30 8445 H 818.77 2.07322 -7.31383 0
M  V30 8446 N 820.346 1.18468 1.03938 0
M  V30 8447 C 821.762 0.934635 1.29371 0
M  V30 8448 C 821.962 -0.399067 1.97509 0
M  V30 8449 O 821.018 -1.13309 2.25648 0
M  V30 8450 C 822.331 2.10111 2.15114 0
M  V30 8451 C 823.879 2.13955 2.28456 0
M  V30 8452 C 824.354 3.30024 3.17566 0
M  V30 8453 N 825.845 3.29893 3.25153 0
M  V30 8454 C 826.58 4.16346 3.94263 0
M  V30 8455 N 826.076 5.12934 4.65693 0
M  V30 8456 N 827.869 4.04256 3.90556 0
M  V30 8457 H 820.02 2.04294 0.581185 0
M  V30 8458 H 822.283 0.892727 0.318971 0
M  V30 8459 H 821.989 3.06572 1.72355 0
M  V30 8460 H 821.863 2.06283 3.15796 0
M  V30 8461 H 824.25 1.18072 2.7045 0
M  V30 8462 H 824.331 2.2184 1.2736 0
M  V30 8463 H 823.975 4.26181 2.76283 0
M  V30 8464 H 823.905 3.19376 4.18697 0
M  V30 8465 H 826.396 2.59969 2.74271 0
M  V30 8466 H 826.709 5.75271 5.16026 0
M  V30 8467 H 825.054 5.16893 4.64593 0
M  V30 8468 H 828.245 3.28083 3.33885 0
M  V30 8469 H 828.418 4.71848 4.44144 0
M  V30 8470 N 821.824 -1.22873 0.986916 0
M  V30 8471 C 823.101 -1.86939 0.575589 0
M  V30 8472 C 823.481 -1.88656 -0.947205 0
M  V30 8473 O 822.829 -1.3728 -1.82665 0
M  V30 8474 C 823.039 -3.28117 1.18914 0
M  V30 8475 C 824.387 -4.04659 1.28593 0
M  V30 8476 O 825.411 -3.3736 1.14308 0
M  V30 8477 O 824.27 -5.25112 1.51391 0
M  V30 8478 H 821.364 -0.803748 0.194724 0
M  V30 8479 H 823.91 -1.30698 1.08241 0
M  V30 8480 H 822.682 -3.21468 2.231 0
M  V30 8481 H 822.305 -3.91956 0.667535 0
M  V30 8482 N 823.302 -0.75937 -1.38099 0
M  V30 8483 C 824.265 -0.14372 -2.28749 0
M  V30 8484 C 825.265 0.641338 -1.47457 0
M  V30 8485 O 826.455 0.466751 -1.67831 0
M  V30 8486 C 823.587 0.804545 -3.3127 0
M  V30 8487 H 824.78 -0.942663 -2.847 0
M  V30 8488 H 822.333 -0.526757 -1.47156 0
M  V30 8489 H 823.068 1.62895 -2.80421 0
M  V30 8490 H 822.853 0.243939 -3.9134 0
M  V30 8491 H 824.343 1.23111 -3.99041 0
M  V30 8492 N 824.78 1.49157 -0.508906 0
M  V30 8493 C 826.057 1.95363 0.0961913 0
M  V30 8494 C 826.437 1.45064 1.53362 0
M  V30 8495 O 825.785 0.667835 2.18523 0
M  V30 8496 C 825.995 3.49 0.000688881 0
M  V30 8497 C 827.343 4.24257 0.170632 0
M  V30 8498 O 828.367 3.5612 0.0754994 0
M  V30 8499 O 827.226 5.45267 0.366957 0
M  V30 8500 H 824.32 0.821984 0.0909489 0
M  V30 8501 H 826.866 1.59769 -0.572007 0
M  V30 8502 H 825.638 3.78269 -1.00143 0
M  V30 8503 H 825.261 3.91233 0.708682 0
M  V30 8504 N 826.258 0.243083 1.55714 0
M  V30 8505 C 827.506 -0.381964 1.98458 0
M  V30 8506 C 827.827 -1.58745 1.13247 0
M  V30 8507 O 827.097 -1.94723 0.214384 0
M  V30 8508 H 825.677 -0.144114 0.732967 0
M  V30 8509 H 828.339 0.340985 1.91894 0
M  V30 8510 H 827.435 -0.693702 3.04293 0
M  V30 8511 N 827.736 -1.57571 -0.0300757 0
M  V30 8512 C 828.964 -1.93485 -0.732891 0
M  V30 8513 C 829.379 -0.842758 -1.68947 0
M  V30 8514 O 828.736 0.180904 -1.81601 0
M  V30 8515 C 828.787 -3.29328 -1.49082 0
M  V30 8516 O 828.508 -4.34341 -0.572639 0
M  V30 8517 C 830.009 -3.79517 -2.29088 0
M  V30 8518 H 827.229 -0.638588 -0.206026 0
M  V30 8519 H 829.773 -2.04496 0.0120966 0
M  V30 8520 H 827.928 -3.19716 -2.1877 0
M  V30 8521 H 828.342 -5.12748 -1.10406 0
M  V30 8522 H 829.816 -4.77081 -2.77665 0
M  V30 8523 H 830.293 -3.10659 -3.10464 0
M  V30 8524 H 830.899 -3.92208 -1.64477 0
M  V30 8525 N 829.214 0.302327 -1.54673 0
M  V30 8526 C 830.442 1.05669 -1.77881 0
M  V30 8527 C 830.857 1.80983 -0.537648 0
M  V30 8528 O 830.214 1.7573 0.492467 0
M  V30 8529 C 830.265 2.03828 -2.98557 0
M  V30 8530 O 829.986 1.3157 -4.17877 0
M  V30 8531 C 831.487 2.91314 -3.34143 0
M  V30 8532 H 828.707 0.313436 -0.593295 0
M  V30 8533 H 831.251 0.342003 -2.0162 0
M  V30 8534 H 829.406 2.70801 -2.7703 0
M  V30 8535 H 829.82 1.97481 -4.85903 0
M  V30 8536 H 831.294 3.56042 -4.21827 0
M  V30 8537 H 831.771 3.59544 -2.52239 0
M  V30 8538 H 832.377 2.29874 -3.57824 0
M  V30 8539 N 830.692 1.47107 0.565454 0
M  V30 8540 C 832.108 1.32443 0.890566 0
M  V30 8541 C 832.308 0.308735 1.99121 0
M  V30 8542 O 831.364 -0.28265 2.50913 0
M  V30 8543 C 832.677 2.71548 1.2916 0
M  V30 8544 C 834.225 2.7977 1.40349 0
M  V30 8545 C 834.7 4.19497 1.83811 0
M  V30 8546 N 836.191 4.21998 1.90975 0
M  V30 8547 C 836.926 5.2702 2.25916 0
M  V30 8548 N 836.422 6.42353 2.59527 0
M  V30 8549 N 838.215 5.14393 2.26619 0
M  V30 8550 H 830.366 2.11786 -0.161328 0
M  V30 8551 H 832.629 0.947952 -0.00950631 0
M  V30 8552 H 832.335 3.47265 0.556753 0
M  V30 8553 H 832.209 3.02782 2.24951 0
M  V30 8554 H 834.596 2.0433 2.12916 0
M  V30 8555 H 834.677 2.522 0.427655 0
M  V30 8556 H 834.321 4.95439 1.11816 0
M  V30 8557 H 834.251 4.44486 2.82382 0
M  V30 8558 H 836.742 3.38791 1.6742 0
M  V30 8559 H 837.055 7.18252 2.85191 0
M  V30 8560 H 835.4 6.45687 2.57126 0
M  V30 8561 H 838.591 4.2332 1.99794 0
M  V30 8562 H 838.764 5.96349 2.5352 0
M  V30 8563 N 832.17 -0.811516 1.35101 0
M  V30 8564 C 833.1 -1.9378 1.30275 0
M  V30 8565 C 834.081 -1.69165 0.178075 0
M  V30 8566 O 835.266 -1.90599 0.372256 0
M  V30 8567 C 832.396 -3.30439 1.06899 0
M  V30 8568 C 831.35 -3.69523 2.15955 0
M  V30 8569 C 830.676 -5.0429 1.77751 0
M  V30 8570 C 831.976 -3.80419 3.57881 0
M  V30 8571 H 833.67 -1.98075 2.24514 0
M  V30 8572 H 831.216 -0.951586 1.08078 0
M  V30 8573 H 833.169 -4.08828 1.02164 0
M  V30 8574 H 831.893 -3.26473 0.0910462 0
M  V30 8575 H 830.552 -2.93416 2.19778 0
M  V30 8576 H 830.2 -4.96823 0.785876 0
M  V30 8577 H 829.9 -5.31411 2.5075 0
M  V30 8578 H 831.424 -5.85125 1.74533 0
M  V30 8579 H 832.838 -4.49051 3.56407 0
M  V30 8580 H 831.235 -4.19005 4.29598 0
M  V30 8581 H 832.305 -2.82105 3.94391 0
M  V30 8582 N 833.648 -1.19017 -1.03309 0
M  V30 8583 C 834.558 -0.939303 -2.14975 0
M  V30 8584 C 835.574 0.0992359 -1.73717 0
M  V30 8585 O 836.75 -0.0844362 -2.01223 0
M  V30 8586 C 833.815 -0.476712 -3.43407 0
M  V30 8587 C 832.876 -1.58413 -3.99003 0
M  V30 8588 C 832.109 -1.14352 -5.21305 0
M  V30 8589 O 832.332 -0.00534408 -5.704 0
M  V30 8590 O 831.266 -1.94436 -5.6963 0
M  V30 8591 H 835.092 -1.87386 -2.38998 0
M  V30 8592 H 832.677 -0.972635 -1.13403 0
M  V30 8593 H 834.559 -0.22718 -4.20787 0
M  V30 8594 H 833.234 0.429455 -3.20839 0
M  V30 8595 H 832.141 -1.88777 -3.22977 0
M  V30 8596 H 833.474 -2.4667 -4.25928 0
M  V30 8597 N 835.127 1.22348 -0.993418 0
M  V30 8598 C 836.357 1.94842 -0.687023 0
M  V30 8599 C 836.765 1.73594 0.752445 0
M  V30 8600 O 836.108 1.03238 1.51946 0
M  V30 8601 C 836.17 3.47694 -0.913754 0
M  V30 8602 C 835.834 3.92678 -2.33781 0
M  V30 8603 C 836.831 4.0031 -3.31734 0
M  V30 8604 C 834.516 4.25311 -2.67237 0
M  V30 8605 C 836.51 4.39951 -4.61218 0
M  V30 8606 C 834.197 4.64631 -3.9694 0
M  V30 8607 C 835.195 4.71919 -4.93742 0
M  V30 8608 O 834.883 5.10349 -6.21127 0
M  V30 8609 H 834.615 0.626771 -0.253247 0
M  V30 8610 H 837.169 1.56436 -1.33105 0
M  V30 8611 H 835.399 3.86115 -0.212552 0
M  V30 8612 H 837.088 4.01403 -0.602528 0
M  V30 8613 H 837.854 3.75288 -3.07219 0
M  V30 8614 H 833.733 4.18842 -1.92594 0
M  V30 8615 H 837.277 4.45555 -5.36774 0
M  V30 8616 H 833.174 4.89104 -4.21245 0
M  V30 8617 H 833.942 5.2842 -6.25072 0
M  V30 8618 N 836.605 0.766683 1.37694 0
M  V30 8619 C 837.83 0.338715 2.04615 0
M  V30 8620 C 838.255 -1.02918 1.57447 0
M  V30 8621 O 837.613 -1.65849 0.732386 0
M  V30 8622 C 837.661 0.385284 3.58536 0
M  V30 8623 O 836.765 -0.616081 4.07772 0
M  V30 8624 H 836.106 0.147527 0.647404 0
M  V30 8625 H 838.636 1.04146 1.7611 0
M  V30 8626 H 838.646 0.240782 4.07289 0
M  V30 8627 H 837.321 1.38325 3.92223 0
M  V30 8628 H 835.898 -0.435115 3.70353 0
M  V30 8629 N 838.083 -1.48885 0.516809 0
M  V30 8630 C 839.36 -1.95412 -0.0858293 0
M  V30 8631 C 839.74 -1.45875 -1.5259 0
M  V30 8632 O 839.088 -0.679415 -2.18166 0
M  V30 8633 C 839.298 -3.48995 0.0178194 0
M  V30 8634 C 840.646 -4.24342 -0.14813 0
M  V30 8635 O 841.67 -3.56155 -0.0566125 0
M  V30 8636 O 840.529 -5.45454 -0.338035 0
M  V30 8637 H 837.623 -0.822455 -0.0865884 0
M  V30 8638 H 840.169 -1.59464 0.580472 0
M  V30 8639 H 838.941 -3.77732 1.02147 0
M  V30 8640 H 838.564 -3.91604 -0.687924 0
M  V30 8641 N 839.561 -0.251338 -1.55583 0
M  V30 8642 C 840.807 0.37272 -1.99346 0
M  V30 8643 C 841.14 1.57266 -1.13934 0
M  V30 8644 O 840.415 1.9343 -0.20377 0
M  V30 8645 C 840.698 0.778245 -3.5159 0
M  V30 8646 C 840.551 -0.427394 -4.47765 0
M  V30 8647 C 841.87 1.62358 -4.09057 0
M  V30 8648 H 838.989 0.134002 -0.724715 0
M  V30 8649 H 841.631 -0.353536 -1.86682 0
M  V30 8650 H 839.781 1.39704 -3.62512 0
M  V30 8651 H 841.453 -1.06586 -4.48818 0
M  V30 8652 H 839.696 -1.06972 -4.20404 0
M  V30 8653 H 840.367 -0.10025 -5.51909 0
M  V30 8654 H 842.843 1.1012 -4.01264 0
M  V30 8655 H 841.719 1.87617 -5.1584 0
M  V30 8656 H 841.98 2.59688 -3.57791 0
M  V30 8657 N 841.039 1.57585 0.0217189 0
M  V30 8658 C 841.986 2.07036 1.02004 0
M  V30 8659 C 842.956 0.96106 1.35473 0
M  V30 8660 O 844.141 1.23211 1.45684 0
M  V30 8661 C 841.281 2.56056 2.31364 0
M  V30 8662 C 840.394 3.80805 2.03989 0
M  V30 8663 C 839.529 4.18409 3.27272 0
M  V30 8664 C 838.568 5.36055 2.95486 0
M  V30 8665 N 837.705 5.69056 4.11242 0
M  V30 8666 H 842.545 2.92073 0.591396 0
M  V30 8667 H 840.082 1.44403 0.280384 0
M  V30 8668 H 842.04 2.82548 3.06957 0
M  V30 8669 H 840.67 1.73925 2.71937 0
M  V30 8670 H 839.722 3.61354 1.1886 0
M  V30 8671 H 841.034 4.66512 1.76546 0
M  V30 8672 H 840.188 4.46068 4.11228 0
M  V30 8673 H 838.927 3.31369 3.57835 0
M  V30 8674 H 837.932 5.08142 2.09933 0
M  V30 8675 H 839.157 6.24755 2.66193 0
M  V30 8676 H 837.103 4.84974 4.41742 0
M  V30 8677 H 837.02 6.49288 3.87247 0
M  V30 8678 H 838.288 6.01295 4.96049 0
M  V30 8679 N 842.517 -0.29412 1.54831 0
M  V30 8680 C 843.766 -1.02614 1.73647 0
M  V30 8681 C 844.079 -1.88193 0.533162 0
M  V30 8682 O 845.285 -2.64713 0.603275 0
M  V30 8683 C 843.741 -1.87417 3.07251 0
M  V30 8684 C 843.349 -1.06806 4.35082 0
M  V30 8685 C 845.093 -2.60176 3.35423 0
M  V30 8686 C 843 -1.90926 5.59733 0
M  V30 8687 H 841.93 -0.386834 0.647206 0
M  V30 8688 H 844.581 -0.282789 1.81308 0
M  V30 8689 H 842.963 -2.65765 2.93572 0
M  V30 8690 H 844.137 -0.330226 4.59615 0
M  V30 8691 H 842.452 -0.455979 4.13896 0
M  V30 8692 H 845.049 -3.23476 4.25755 0
M  V30 8693 H 845.392 -3.29365 2.54606 0
M  V30 8694 H 845.925 -1.88871 3.50103 0
M  V30 8695 H 842.664 -1.26194 6.43238 0
M  V30 8696 H 842.184 -2.62363 5.39375 0
M  V30 8697 H 843.863 -2.48807 5.97247 0
M  V30 8698 N 843.995 -1.47404 -0.557645 0
M  V30 8699 C 845.223 -1.57622 -1.34026 0
M  V30 8700 C 845.638 -0.226256 -1.87439 0
M  V30 8701 O 844.995 0.78043 -1.64971 0
M  V30 8702 C 845.046 -2.60111 -2.51047 0
M  V30 8703 O 844.767 -3.89866 -1.99841 0
M  V30 8704 C 846.268 -2.80508 -3.43264 0
M  V30 8705 H 843.488 -0.532271 -0.40857 0
M  V30 8706 H 846.032 -1.93019 -0.675555 0
M  V30 8707 H 844.187 -2.27648 -3.13457 0
M  V30 8708 H 844.601 -4.45864 -2.76234 0
M  V30 8709 H 846.075 -3.56084 -4.21792 0
M  V30 8710 H 846.552 -1.88314 -3.9678 0
M  V30 8711 H 847.158 -3.14166 -2.86671 0
M  V30 8712 N 845.473 0.80434 -1.35529 0
M  V30 8713 C 846.701 1.59283 -1.32048 0
M  V30 8714 C 847.116 1.88527 0.101556 0
M  V30 8715 O 846.473 1.48975 1.05417 0
M  V30 8716 C 846.524 2.92276 -2.12737 0
M  V30 8717 O 846.245 2.64299 -3.49396 0
M  V30 8718 C 847.746 3.86631 -2.16867 0
M  V30 8719 H 844.966 0.494523 -0.453528 0
M  V30 8720 H 847.51 0.999415 -1.78415 0
M  V30 8721 H 845.665 3.48125 -1.69964 0
M  V30 8722 H 846.079 3.4923 -3.91329 0
M  V30 8723 H 847.553 4.77053 -2.77712 0
M  V30 8724 H 848.03 4.23384 -1.16803 0
M  V30 8725 H 848.636 3.36717 -2.59811 0
M  V30 8726 N 846.951 1.19563 1.02676 0
M  V30 8727 C 847.881 0.959024 2.12897 0
M  V30 8728 C 848.862 -0.108382 1.69754 0
M  V30 8729 O 850.047 0.0470698 1.94143 0
M  V30 8730 C 847.177 0.499211 3.43693 0
M  V30 8731 C 846.131 1.5087 4.00528 0
M  V30 8732 C 845.457 0.905884 5.2697 0
M  V30 8733 C 846.757 2.88954 4.3509 0
M  V30 8734 H 848.451 1.88084 2.32948 0
M  V30 8735 H 845.997 0.905731 1.11949 0
M  V30 8736 H 847.95 0.320965 4.20176 0
M  V30 8737 H 846.674 -0.458205 3.2337 0
M  V30 8738 H 845.333 1.67413 3.26142 0
M  V30 8739 H 844.981 -0.0591506 5.02965 0
M  V30 8740 H 844.681 1.58 5.65959 0
M  V30 8741 H 846.205 0.73848 6.06118 0
M  V30 8742 H 847.619 2.75981 5.02501 0
M  V30 8743 H 846.016 3.53177 4.85166 0
M  V30 8744 H 847.086 3.41447 3.44299 0
M  V30 8745 N 848.429 -1.21819 0.999893 0
M  V30 8746 C 849.84 -1.72517 0.713775 0
M  V30 8747 C 850.191 -1.80505 -0.768922 0
M  V30 8748 O 849.316 -1.45611 -1.60083 0
M  V30 8749 C 849.911 -3.13321 1.28901 0
M  V30 8750 C 848.47 -3.61396 1.05212 0
M  V30 8751 C 847.617 -2.39074 1.40494 0
M  V30 8752 H 850.568 -1.07068 1.17141 0
M  V30 8753 H 850.589 -3.74535 0.671084 0
M  V30 8754 H 850.101 -3.07475 2.36814 0
M  V30 8755 H 848.202 -3.72599 -0.0100732 0
M  V30 8756 H 848.315 -4.47145 1.72042 0
M  V30 8757 H 846.679 -2.41015 0.823642 0
M  V30 8758 H 847.462 -2.35884 2.49427 0
M  V30 8759 N 849.908 -0.773975 -1.37286 0
M  V30 8760 C 851.319 -0.404433 -1.82267 0
M  V30 8761 C 851.67 1.06971 -1.64474 0
M  V30 8762 O 850.795 1.82867 -1.15708 0
M  V30 8763 C 851.39 -0.727298 -3.30902 0
M  V30 8764 C 849.949 -0.410784 -3.74152 0
M  V30 8765 C 849.096 -0.969983 -2.59782 0
M  V30 8766 H 852.047 -0.968437 -1.25726 0
M  V30 8767 H 852.068 -0.0127575 -3.80498 0
M  V30 8768 H 851.58 -1.80026 -3.4382 0
M  V30 8769 H 849.681 0.65477 -3.66802 0
M  V30 8770 H 849.794 -0.920592 -4.70172 0
M  V30 8771 H 848.158 -0.394094 -2.51633 0
M  V30 8772 H 848.941 -2.04839 -2.75492 0
M  V30 8773 N 851.386 1.48609 -0.524698 0
M  V30 8774 C 852.349 2.28041 0.230166 0
M  V30 8775 C 853.349 1.35065 0.872584 0
M  V30 8776 O 854.539 1.58007 0.73345 0
M  V30 8777 C 851.671 3.13778 1.33252 0
M  V30 8778 H 852.864 2.96239 -0.467161 0
M  V30 8779 H 850.417 1.53763 -0.280452 0
M  V30 8780 H 851.152 2.502 2.06327 0
M  V30 8781 H 850.937 3.82165 0.877058 0
M  V30 8782 H 852.427 3.7371 1.86362 0
M  V30 8783 N 852.864 0.259585 1.55447 0
M  V30 8784 C 853.811 -0.634578 2.21905 0
M  V30 8785 C 854.781 -1.16168 1.18719 0
M  V30 8786 O 855.966 -1.21383 1.4721 0
M  V30 8787 C 853.106 -1.82005 2.93203 0
M  V30 8788 C 852.219 -1.32828 4.11073 0
M  V30 8789 C 851.354 -2.47431 4.70055 0
M  V30 8790 C 850.393 -1.95179 5.80148 0
M  V30 8791 N 849.53 -3.03197 6.33258 0
M  V30 8792 H 854.37 -0.0611886 2.97937 0
M  V30 8793 H 851.907 -0.0184378 1.47088 0
M  V30 8794 H 853.865 -2.51664 3.32748 0
M  V30 8795 H 852.495 -2.36571 2.19622 0
M  V30 8796 H 851.547 -0.525301 3.76756 0
M  V30 8797 H 852.859 -0.905435 4.90513 0
M  V30 8798 H 852.013 -3.25111 5.12238 0
M  V30 8799 H 850.752 -2.93023 3.89857 0
M  V30 8800 H 849.757 -1.15974 5.37429 0
M  V30 8801 H 850.982 -1.50541 6.62204 0
M  V30 8802 H 848.928 -3.48199 5.55961 0
M  V30 8803 H 848.845 -2.65282 7.07928 0
M  V30 8804 H 850.113 -3.80898 6.80101 0
M  V30 8805 N 854.342 -1.57594 -0.0133615 0
M  V30 8806 C 855.758 -1.5527 -0.369255 0
M  V30 8807 C 855.958 -0.987751 -1.7563 0
M  V30 8808 O 855.014 -0.615683 -2.44879 0
M  V30 8809 C 856.327 -2.99602 -0.25672 0
M  V30 8810 C 857.875 -3.11227 -0.332647 0
M  V30 8811 C 858.35 -4.57321 -0.249387 0
M  V30 8812 N 859.841 -4.62177 -0.3077 0
M  V30 8813 C 860.576 -5.72781 -0.26641 0
M  V30 8814 N 860.072 -6.92575 -0.176494 0
M  V30 8815 N 861.865 -5.61204 -0.317295 0
M  V30 8816 H 854.016 -1.92662 0.894154 0
M  V30 8817 H 856.279 -0.884352 0.341505 0
M  V30 8818 H 855.985 -3.44723 0.697072 0
M  V30 8819 H 855.859 -3.6246 -1.04415 0
M  V30 8820 H 858.246 -2.66045 -1.27688 0
M  V30 8821 H 858.327 -2.51171 0.484412 0
M  V30 8822 H 857.971 -5.03174 0.691242 0
M  V30 8823 H 857.901 -5.15306 -1.08476 0
M  V30 8824 H 860.392 -3.75994 -0.379069 0
M  V30 8825 H 860.705 -7.72653 -0.150518 0
M  V30 8826 H 859.05 -6.94854 -0.142314 0
M  V30 8827 H 862.241 -4.66509 -0.385643 0
M  V30 8828 H 862.414 -6.47388 -0.28165 0
M  V30 8829 N 855.82 0.285905 -1.54985 0
M  V30 8830 C 857.066 1.02071 -1.75241 0
M  V30 8831 C 857.399 1.864 -0.544842 0
M  V30 8832 O 856.674 1.89034 0.457844 0
M  V30 8833 C 856.957 1.91409 -3.05016 0
M  V30 8834 C 856.81 1.10158 -4.36102 0
M  V30 8835 C 858.129 2.90335 -3.30747 0
M  V30 8836 H 855.248 0.369663 -0.637588 0
M  V30 8837 H 857.89 0.294114 -1.8771 0
M  V30 8838 H 856.04 2.53362 -2.94517 0
M  V30 8839 H 857.712 0.503756 -4.58541 0
M  V30 8840 H 855.955 0.404675 -4.31908 0
M  V30 8841 H 856.626 1.75956 -5.23205 0
M  V30 8842 H 859.102 2.38514 -3.40955 0
M  V30 8843 H 857.978 3.49997 -4.2284 0
M  V30 8844 H 858.239 3.64787 -2.49765 0
M  V30 8845 N 857.298 1.47698 0.54982 0
M  V30 8846 C 858.528 1.58101 1.32995 0
M  V30 8847 C 858.936 0.232939 1.87761 0
M  V30 8848 O 858.279 -0.785058 1.6608 0
M  V30 8849 C 858.341 2.55228 2.53178 0
M  V30 8850 C 858.005 4.00756 2.19645 0
M  V30 8851 C 859.002 4.89025 1.76496 0
M  V30 8852 C 856.687 4.46147 2.30777 0
M  V30 8853 C 858.681 6.20707 1.44919 0
M  V30 8854 C 856.368 5.77856 1.98812 0
M  V30 8855 C 857.366 6.64957 1.55952 0
M  V30 8856 O 857.054 7.94217 1.24396 0
M  V30 8857 H 856.786 0.536362 0.411451 0
M  V30 8858 H 859.34 1.94092 0.67212 0
M  V30 8859 H 857.57 2.14319 3.21876 0
M  V30 8860 H 859.259 2.55678 3.15251 0
M  V30 8861 H 860.025 4.55201 1.67383 0
M  V30 8862 H 855.904 3.78552 2.63096 0
M  V30 8863 H 859.448 6.88649 1.11392 0
M  V30 8864 H 855.345 6.11219 2.0756 0
M  V30 8865 H 856.113 8.06789 1.37964 0
M  V30 8866 N 858.776 -0.797141 1.35954 0
M  V30 8867 C 860.024 -1.55161 1.29497 0
M  V30 8868 C 860.345 -1.94582 -0.127659 0
M  V30 8869 O 859.615 -1.64343 -1.06622 0
M  V30 8870 H 858.195 -0.575413 0.47635 0
M  V30 8871 H 860.857 -0.950282 1.70164 0
M  V30 8872 H 859.953 -2.46272 1.9172 0
M  V30 8873 N 860.254 -1.20106 -1.0204 0
M  V30 8874 C 861.502 -1.0069 -1.75231 0
M  V30 8875 C 861.823 0.462491 -1.89436 0
M  V30 8876 O 861.093 1.33455 -1.4341 0
M  V30 8877 H 859.673 -0.369576 -0.649171 0
M  V30 8878 H 862.335 -1.51149 -1.23044 0
M  V30 8879 H 861.431 -1.46205 -2.75736 0
M  V30 8880 N 861.732 1.21287 -1.00634 0
M  V30 8881 C 862.642 2.27388 -0.577226 0
M  V30 8882 C 863.658 1.69791 0.380399 0
M  V30 8883 O 864.834 1.99918 0.2439 0
M  V30 8884 C 861.899 3.46588 0.0880532 0
M  V30 8885 C 860.96 4.19453 -0.914222 0
M  V30 8886 C 860.193 5.32962 -0.280596 0
M  V30 8887 O 860.416 5.62895 0.922265 0
M  V30 8888 O 859.35 5.93666 -0.992196 0
M  V30 8889 H 863.176 2.66289 -1.46028 0
M  V30 8890 H 860.761 1.2771 -0.775283 0
M  V30 8891 H 862.643 4.18881 0.460094 0
M  V30 8892 H 861.318 3.09585 0.945461 0
M  V30 8893 H 860.225 3.49376 -1.33744 0
M  V30 8894 H 861.558 4.6037 -1.74126 0
M  V30 8895 N 863.21 0.781244 1.36873 0
M  V30 8896 C 864.173 0.180094 2.28491 0
M  V30 8897 C 865.173 -0.617798 1.48458 0
M  V30 8898 O 866.363 -0.439991 1.68552 0
M  V30 8899 C 863.495 -0.751741 3.32508 0
M  V30 8900 H 864.688 0.987837 2.83164 0
M  V30 8901 H 862.241 0.550102 1.463 0
M  V30 8902 H 862.976 -1.58413 2.82977 0
M  V30 8903 H 862.761 -0.181649 3.91679 0
M  V30 8904 H 864.251 -1.16748 4.00949 0
M  V30 8905 N 864.689 -1.48329 0.532571 0
M  V30 8906 C 865.966 -1.95492 -0.0650985 0
M  V30 8907 C 866.346 -1.47485 -1.51034 0
M  V30 8908 O 865.694 -0.702516 -2.17433 0
M  V30 8909 C 865.904 -3.48957 0.0548341 0
M  V30 8910 C 867.252 -4.24475 -0.103115 0
M  V30 8911 O 868.276 -3.56195 -0.0188343 0
M  V30 8912 O 867.135 -5.45781 -0.280164 0
M  V30 8913 H 864.229 -0.823327 -0.0778603 0
M  V30 8914 H 866.775 -1.58839 0.597353 0
M  V30 8915 H 865.547 -3.76628 1.06148 0
M  V30 8916 H 865.17 -3.92311 -0.64635 0
M  V30 8917 N 866.167 -0.267825 -1.55308 0
M  V30 8918 C 867.13 0.60965 -2.20943 0
M  V30 8919 C 868.13 1.0869 -1.18504 0
M  V30 8920 O 869.32 0.988248 -1.43455 0
M  V30 8921 C 866.452 1.84027 -2.86961 0
M  V30 8922 H 867.645 0.0366806 -2.99878 0
M  V30 8923 H 865.198 -0.0183941 -1.56289 0
M  V30 8924 H 865.933 2.45394 -2.1202 0
M  V30 8925 H 865.718 1.50605 -3.62023 0
M  V30 8926 H 867.208 2.46442 -3.37129 0
M  V30 8927 N 867.645 1.57599 0.00500368 0
M  V30 8928 C 868.608 2.07058 0.982832 0
M  V30 8929 C 869.608 0.979045 1.27559 0
M  V30 8930 O 870.798 1.24187 1.22161 0
M  V30 8931 C 867.93 2.50782 2.30914 0
M  V30 8932 H 869.123 2.94718 0.555119 0
M  V30 8933 H 866.676 1.54249 0.25237 0
M  V30 8934 H 867.411 1.66351 2.78385 0
M  V30 8935 H 867.196 3.30495 2.10987 0
M  V30 8936 H 868.686 2.89391 3.0107 0
M  V30 8937 N 869.123 -0.277682 1.55134 0
M  V30 8938 C 870.4 -1.0309 1.66228 0
M  V30 8939 C 870.78 -2.0445 0.525701 0
M  V30 8940 O 870.128 -2.23512 -0.474816 0
M  V30 8941 C 870.338 -1.6919 3.05247 0
M  V30 8942 C 871.686 -2.20526 3.62841 0
M  V30 8943 O 872.71 -1.79185 3.07849 0
M  V30 8944 O 871.569 -2.96342 4.59177 0
M  V30 8945 H 868.663 -0.4779 0.674937 0
M  V30 8946 H 871.209 -0.273912 1.67475 0
M  V30 8947 H 869.981 -0.957163 3.79413 0
M  V30 8948 H 869.604 -2.51587 3.07879 0
M  V30 8949 N 870.601 -1.47988 -0.541979 0
M  V30 8950 C 871.548 -1.61615 -1.6477 0
M  V30 8951 C 872.518 -0.458602 -1.59644 0
M  V30 8952 O 873.703 -0.680585 -1.78249 0
M  V30 8953 C 870.843 -1.65066 -3.03063 0
M  V30 8954 C 869.956 -2.91845 -3.18513 0
M  V30 8955 C 869.091 -2.86534 -4.47294 0
M  V30 8956 C 868.13 -4.0807 -4.5623 0
M  V30 8957 N 867.267 -4.00905 -5.76385 0
M  V30 8958 H 872.107 -2.56046 -1.52461 0
M  V30 8959 H 869.644 -1.26989 -0.742449 0
M  V30 8960 H 871.602 -1.65049 -3.83164 0
M  V30 8961 H 870.232 -0.74136 -3.14171 0
M  V30 8962 H 869.284 -3.01661 -2.31743 0
M  V30 8963 H 870.596 -3.81804 -3.20978 0
M  V30 8964 H 869.75 -2.84851 -5.35672 0
M  V30 8965 H 868.489 -1.94283 -4.47332 0
M  V30 8966 H 867.494 -4.10041 -3.66261 0
M  V30 8967 H 868.719 -5.01465 -4.5794 0
M  V30 8968 H 866.665 -3.11467 -5.77342 0
M  V30 8969 H 866.582 -4.84557 -5.80293 0
M  V30 8970 H 867.85 -4.03263 -6.67083 0
M  V30 8971 N 872.079 0.78992 -1.36375 0
M  V30 8972 C 873.042 1.88414 -1.30509 0
M  V30 8973 C 874.042 1.59384 -0.2129 0
M  V30 8974 O 875.232 1.67805 -0.467651 0
M  V30 8975 C 872.364 3.25188 -1.02302 0
M  V30 8976 H 873.557 1.95031 -2.27822 0
M  V30 8977 H 871.11 0.987664 -1.2114 0
M  V30 8978 H 871.845 3.24254 -0.0544486 0
M  V30 8979 H 871.63 3.47647 -1.81338 0
M  V30 8980 H 873.12 4.05252 -1.00801 0
M  V30 8981 N 873.557 1.20646 1.01402 0
M  V30 8982 C 874.467 0.973385 2.13453 0
M  V30 8983 C 875.483 -0.0715865 1.73853 0
M  V30 8984 O 876.659 0.116438 2.01063 0
M  V30 8985 C 873.724 0.531285 3.42605 0
M  V30 8986 C 872.785 1.64741 3.96433 0
M  V30 8987 C 872.018 1.22631 5.1942 0
M  V30 8988 O 872.241 0.0960891 5.70319 0
M  V30 8989 O 871.175 2.03474 5.66465 0
M  V30 8990 H 875.001 1.91164 2.35987 0
M  V30 8991 H 872.586 0.990553 1.11841 0
M  V30 8992 H 874.468 0.294095 4.20373 0
M  V30 8993 H 873.143 -0.378358 3.21481 0
M  V30 8994 H 872.05 1.93891 3.19933 0
M  V30 8995 H 873.383 2.53415 4.2195 0
M  V30 8996 N 875.035 -1.20752 1.01276 0
M  V30 8997 C 875.998 -2.2162 0.584583 0
M  V30 8998 C 876.998 -1.57094 -0.343215 0
M  V30 8999 O 878.188 -1.73696 -0.132433 0
M  V30 9000 C 875.32 -3.40583 -0.146872 0
M  V30 9001 H 876.513 -2.61015 1.47686 0
M  V30 9002 H 874.066 -1.34148 0.802123 0
M  V30 9003 H 874.801 -3.06686 -1.05424 0
M  V30 9004 H 874.586 -3.88642 0.51958 0
M  V30 9005 H 876.076 -4.15339 -0.433924 0
M  V30 9006 N 876.513 -0.788492 -1.36457 0
M  V30 9007 C 877.476 -0.192209 -2.28393 0
M  V30 9008 C 878.476 0.609916 -1.48784 0
M  V30 9009 O 879.666 0.431046 -1.68783 0
M  V30 9010 C 876.798 0.734096 -3.32902 0
M  V30 9011 H 877.991 -1.00284 -2.82636 0
M  V30 9012 H 875.544 -0.557852 -1.46006 0
M  V30 9013 H 876.279 1.5691 -2.83813 0
M  V30 9014 H 876.064 0.160875 -3.9177 0
M  V30 9015 H 877.554 1.1462 -4.01562 0
M  V30 9016 N 877.991 1.48044 -0.54043 0
M  V30 9017 C 878.939 2.31461 0.229862 0
M  V30 9018 C 879.933 1.41884 0.925495 0
M  V30 9019 O 881.139 1.58736 0.848689 0
M  V30 9020 H 877.514 0.746227 0.0929975 0
M  V30 9021 H 879.485 2.94297 -0.493118 0
M  V30 9022 C 878.234 3.24172 1.25729 0
M  V30 9023 H 877.557 3.93052 0.731426 0
M  V30 9024 H 878.997 3.85404 1.76747 0
M  V30 9025 C 877.456 2.4651 2.2964 0
M  V30 9026 O 877.986 2.19742 3.36268 0
M  V30 9027 N 876.192 2.07817 2.03127 0
M  V30 9028 H 875.739 2.29786 1.1643 0
M  V30 9029 H 875.697 1.56168 2.72872 0
M  V30 9030 N 879.47 0.276058 1.55163 0
M  V30 9031 C 880.417 -0.611006 2.22565 0
M  V30 9032 C 881.387 -1.14902 1.19945 0
M  V30 9033 O 882.572 -1.19815 1.48489 0
M  V30 9034 C 879.712 -1.78885 2.95117 0
M  V30 9035 C 878.825 -1.2846 4.12458 0
M  V30 9036 C 877.96 -2.42432 4.72652 0
M  V30 9037 C 876.999 -1.89015 5.82185 0
M  V30 9038 N 876.136 -2.96463 6.36439 0
M  V30 9039 H 880.976 -0.0295849 2.97985 0
M  V30 9040 H 878.513 -0.00283607 1.471 0
M  V30 9041 H 880.471 -2.48121 3.35398 0
M  V30 9042 H 879.101 -2.34229 2.22119 0
M  V30 9043 H 878.153 -0.485312 3.77292 0
M  V30 9044 H 879.465 -0.853358 4.91446 0
M  V30 9045 H 878.619 -3.19659 5.15658 0
M  V30 9046 H 877.358 -2.88872 3.92943 0
M  V30 9047 H 876.363 -1.10267 5.38629 0
M  V30 9048 H 877.588 -1.43509 6.63763 0
M  V30 9049 H 875.534 -3.42283 5.59623 0
M  V30 9050 H 875.451 -2.57759 7.10701 0
M  V30 9051 H 876.719 -3.73663 6.84103 0
M  V30 9052 N 880.948 -1.576 0.00335426 0
M  V30 9053 C 881.895 -2.08632 -0.986975 0
M  V30 9054 C 882.865 -0.982491 -1.33927 0
M  V30 9055 O 884.05 -1.25513 -1.43705 0
M  V30 9056 C 881.19 -2.59705 -2.27261 0
M  V30 9057 C 880.303 -3.84002 -1.97905 0
M  V30 9058 C 879.438 -4.23563 -3.20574 0
M  V30 9059 C 878.477 -5.40688 -2.8692 0
M  V30 9060 N 877.614 -5.75526 -4.02136 0
M  V30 9061 H 882.454 -2.92977 -0.544855 0
M  V30 9062 H 879.991 -1.44831 -0.257376 0
M  V30 9063 H 881.949 -2.87395 -3.02423 0
M  V30 9064 H 880.579 -1.7823 -2.69136 0
M  V30 9065 H 879.631 -3.63199 -1.13096 0
M  V30 9066 H 880.943 -4.69261 -1.69102 0
M  V30 9067 H 880.097 -4.52554 -4.04079 0
M  V30 9068 H 878.836 -3.37019 -3.52518 0
M  V30 9069 H 877.841 -5.11417 -2.01822 0
M  V30 9070 H 879.066 -6.2891 -2.5622 0
M  V30 9071 H 877.012 -4.9194 -4.33971 0
M  V30 9072 H 876.929 -6.55367 -3.76869 0
M  V30 9073 H 878.197 -6.0911 -4.8642 0
M  V30 9074 N 882.426 0.269451 -1.5528 0
M  V30 9075 C 883.336 1.35511 -1.91505 0
M  V30 9076 C 884.352 1.53854 -0.812712 0
M  V30 9077 O 885.528 1.67912 -1.1121 0
M  V30 9078 C 882.593 2.6937 -2.18267 0
M  V30 9079 C 881.654 2.59743 -3.41807 0
M  V30 9080 C 880.887 3.87219 -3.67283 0
M  V30 9081 O 881.11 4.88066 -2.95208 0
M  V30 9082 O 880.044 3.87209 -4.60818 0
M  V30 9083 H 883.87 1.07785 -2.8393 0
M  V30 9084 H 881.455 0.468282 -1.41871 0
M  V30 9085 H 883.337 3.48513 -2.36889 0
M  V30 9086 H 882.012 2.96874 -1.29024 0
M  V30 9087 H 880.919 1.78964 -3.28516 0
M  V30 9088 H 882.252 2.37188 -4.3128 0
M  V30 9089 N 883.904 1.48273 0.534124 0
M  V30 9090 C 884.851 1.62487 1.6391 0
M  V30 9091 C 885.821 0.467062 1.59398 0
M  V30 9092 O 887.006 0.690029 1.77885 0
M  V30 9093 C 884.146 1.66671 3.02183 0
M  V30 9094 C 883.259 2.9353 3.16961 0
M  V30 9095 C 882.394 2.88902 4.45768 0
M  V30 9096 C 881.433 4.10483 4.54059 0
M  V30 9097 N 880.57 4.03956 5.74251 0
M  V30 9098 H 885.41 2.56851 1.51101 0
M  V30 9099 H 882.947 1.27381 0.735704 0
M  V30 9100 H 884.905 1.67079 3.82283 0
M  V30 9101 H 883.535 0.758011 3.13774 0
M  V30 9102 H 882.587 3.02886 2.3014 0
M  V30 9103 H 883.899 3.83501 3.18949 0
M  V30 9104 H 883.053 2.87688 5.34154 0
M  V30 9105 H 881.792 1.96652 4.46295 0
M  V30 9106 H 880.797 4.11977 3.64081 0
M  V30 9107 H 882.022 5.03887 4.55274 0
M  V30 9108 H 879.968 3.14525 5.75682 0
M  V30 9109 H 879.885 4.87628 5.77715 0
M  V30 9110 H 881.153 4.06795 6.64935 0
M  V30 9111 N 885.382 -0.782676 1.36792 0
M  V30 9112 C 886.345 -1.8772 1.31507 0
M  V30 9113 C 887.345 -1.59269 0.221349 0
M  V30 9114 O 888.535 -1.67555 0.476544 0
M  V30 9115 C 885.667 -3.24641 1.04025 0
M  V30 9116 H 886.86 -1.9382 2.28853 0
M  V30 9117 H 884.413 -0.981226 1.21662 0
M  V30 9118 H 885.148 -3.24221 0.0716439 0
M  V30 9119 H 884.933 -3.46681 1.8318 0
M  V30 9120 H 886.423 -4.04711 1.02949 0
M  V30 9121 N 886.86 -1.21182 -1.00761 0
M  V30 9122 C 887.808 -0.965728 -2.11604 0
M  V30 9123 C 888.802 0.0861028 -1.69181 0
M  V30 9124 O 890.008 -0.0650558 -1.79882 0
M  V30 9125 H 886.383 -0.295023 -0.691712 0
M  V30 9126 H 888.354 -1.90667 -2.2954 0
M  V30 9127 C 887.103 -0.544164 -3.43415 0
M  V30 9128 H 886.426 -1.34515 -3.76491 0
M  V30 9129 H 887.866 -0.411268 -4.22001 0
M  V30 9130 C 886.325 0.744583 -3.28569 0
M  V30 9131 O 886.855 1.80078 -3.59075 0
M  V30 9132 N 885.061 0.710083 -2.81791 0
M  V30 9133 H 884.608 -0.14971 -2.57165 0
M  V30 9134 H 884.566 1.57268 -2.72239 0
M  V30 9135 N 888.338 1.20213 -1.01915 0
M  V30 9136 C 889.586 1.89272 -0.708552 0
M  V30 9137 C 889.907 1.79394 0.76438 0
M  V30 9138 O 889.177 1.198 1.54999 0
M  V30 9139 H 887.757 0.700628 -0.259094 0
M  V30 9140 H 890.419 1.45985 -1.29129 0
M  V30 9141 H 889.515 2.95841 -0.994215 0
M  V30 9142 O 889.855 0.931791 1.31909 0
M  V30 9143 H 890.546 0.55575 1.85556 0
M  V30 END ATOM
M  V30 BEGIN BOND
M  V30 END BOND
M  V30 END CTAB
M  END
$$$$
