drugbank_target|P00450 Ceruloplasmin (DB01373; DB01592; DB01593; DB12965; DB14487; DB14488; DB14489; DB14490; DB14491; DB14501; DB14533; DB14548)
 OpenBabel12092119483D

  0  0  0     0  0            999 V3000
M  V30 BEGIN CTAB
M  V30 COUNTS 16850 17094 0 0 0
M  V30 BEGIN ATOM
M  V30 1 H -0.908 1.98254 -0.117106 0
M  V30 2 N 0 1.576 0 0
M  V30 3 C 0.933 2.03868 1.02534 0
M  V30 4 C 1.911 0.928543 1.3348 0
M  V30 5 O 3.095 1.19667 1.45644 0
M  V30 6 C 0.222 2.43627 2.35294 0
M  V30 7 C -0.732 3.65373 2.2001 0
M  V30 8 S 0.101 5.13292 1.52614 0
M  V30 9 C 1.257 5.56322 2.86805 0
M  V30 10 H 1.49 2.90518 0.631377 0
M  V30 11 H -0.977 1.52953 0.210867 0
M  V30 12 H 0.981 2.67203 3.11629 0
M  V30 13 H -0.358 1.57376 2.7183 0
M  V30 14 H -1.165 3.90944 3.18086 0
M  V30 15 H -1.563 3.418 1.51819 0
M  V30 16 H 0.729 5.58782 3.83104 0
M  V30 17 H 1.672 6.56266 2.65933 0
M  V30 18 H 2.08 4.83886 2.90714 0
M  V30 19 N 1.4781 -0.272755 1.55222 0
M  V30 20 C 2.4251 -1.33716 1.88119 0
M  V30 21 C 3.3951 -1.49066 0.73271 0
M  V30 22 O 4.5801 -1.63469 0.984002 0
M  V30 23 C 1.7201 -2.69238 2.15882 0
M  V30 24 C 0.8331 -2.62108 3.43399 0
M  V30 25 C -0.0319 -3.89811 3.60861 0
M  V30 26 C -0.9929 -3.77193 4.8207 0
M  V30 27 N -1.8559 -4.9673 4.96189 0
M  V30 28 H 2.9841 -1.04962 2.78903 0
M  V30 29 H 0.5211 -0.507088 1.38083 0
M  V30 30 H 2.4791 -3.48089 2.29978 0
M  V30 31 H 1.1091 -2.96194 1.28331 0
M  V30 32 H 0.1611 -1.74967 3.37773 0
M  V30 33 H 1.4731 -2.48685 4.32386 0
M  V30 34 H 0.6271 -4.77103 3.74777 0
M  V30 35 H -0.6339 -4.06102 2.7006 0
M  V30 36 H -1.6289 -2.88284 4.68159 0
M  V30 37 H -0.4039 -3.62421 5.74307 0
M  V30 38 H -2.4579 -5.13431 4.08319 0
M  V30 39 H -2.5409 -4.85839 5.79221 0
M  V30 40 H -1.2729 -5.85594 5.1449 0
M  V30 41 N 2.9562 -1.48159 -0.537278 0
M  V30 42 C 4.2052 -1.5506 -1.28993 0
M  V30 43 C 4.5182 -0.226211 -1.94288 0
M  V30 44 O 5.7242 -0.173395 -2.70946 0
M  V30 45 C 4.1802 -2.73429 -2.34018 0
M  V30 46 C 3.7882 -4.1248 -1.74825 0
M  V30 47 C 5.5322 -2.89638 -3.10339 0
M  V30 48 C 3.4392 -5.22121 -2.77747 0
M  V30 49 H 2.3692 -0.577231 -0.485098 0
M  V30 50 H 5.0202 -1.74478 -0.568317 0
M  V30 51 H 3.4022 -2.47431 -3.09182 0
M  V30 52 H 4.5762 -4.48466 -1.05899 0
M  V30 53 H 2.8912 -4.01327 -1.11022 0
M  V30 54 H 5.4882 -3.68718 -3.87235 0
M  V30 55 H 5.8312 -1.9882 -3.65754 0
M  V30 56 H 6.3642 -3.15502 -2.42288 0
M  V30 57 H 3.1032 -6.1488 -2.27161 0
M  V30 58 H 2.6232 -4.90631 -3.45024 0
M  V30 59 H 4.3022 -5.49924 -3.4087 0
M  V30 60 N 4.4343 0.785586 -1.36625 0
M  V30 61 C 5.3643 1.91259 -1.33949 0
M  V30 62 C 6.3453 1.68795 -0.210325 0
M  V30 63 O 7.5303 1.89854 -0.408561 0
M  V30 64 C 4.6603 3.28339 -1.13186 0
M  V30 65 C 3.6143 3.65335 -2.22967 0
M  V30 66 C 2.9403 5.00806 -1.87342 0
M  V30 67 C 4.2403 3.7352 -3.65075 0
M  V30 68 H 5.9343 1.93755 -2.28253 0
M  V30 69 H 3.4803 0.930788 -1.09874 0
M  V30 70 H 5.4333 4.06804 -1.09948 0
M  V30 71 H 4.1573 3.2624 -0.153332 0
M  V30 72 H 2.8163 2.89169 -2.25337 0
M  V30 73 H 2.4643 4.95233 -0.880545 0
M  V30 74 H 2.1643 5.26529 -2.60846 0
M  V30 75 H 3.6883 5.81687 -1.85667 0
M  V30 76 H 5.1023 4.42168 -3.64911 0
M  V30 77 H 3.4993 4.10731 -4.37516 0
M  V30 78 H 4.5693 2.74527 -3.99703 0
M  V30 79 N 5.9124 1.20967 1.01018 0
M  V30 80 C 7.1614 1.01796 1.74128 0
M  V30 81 C 7.4744 -0.449691 1.90361 0
M  V30 82 O 8.6804 -0.76068 2.60626 0
M  V30 83 C 7.1364 1.7727 3.13215 0
M  V30 84 C 6.7444 3.28171 3.04972 0
M  V30 85 C 8.4884 1.66489 3.90489 0
M  V30 86 C 6.3954 3.96156 4.39107 0
M  V30 87 H 5.3254 0.377276 0.652824 0
M  V30 88 H 7.9764 1.44651 1.12909 0
M  V30 89 H 6.3584 1.27205 3.75013 0
M  V30 90 H 7.5324 3.85499 2.52443 0
M  V30 91 H 5.8474 3.39437 2.41188 0
M  V30 92 H 8.4444 2.14617 4.89738 0
M  V30 93 H 8.7874 0.6222 4.11624 0
M  V30 94 H 9.3204 2.14003 3.35332 0
M  V30 95 H 6.0594 5.00604 4.23174 0
M  V30 96 H 5.5794 3.43617 4.91617 0
M  V30 97 H 7.2584 4.00774 5.07926 0
M  V30 98 N 7.3905 -1.2043 1.01659 0
M  V30 99 C 8.3205 -2.25466 0.607226 0
M  V30 100 C 9.3015 -1.65853 -0.377716 0
M  V30 101 O 10.4865 -1.92409 -0.263149 0
M  V30 102 C 7.6165 -3.47256 -0.0552949 0
M  V30 103 C 6.5705 -4.19462 0.850632 0
M  V30 104 C 5.8965 -5.34673 0.0538859 0
M  V30 105 C 7.1965 -4.75603 2.15868 0
M  V30 106 H 8.8905 -2.59962 1.48526 0
M  V30 107 H 6.4365 -1.2496 0.715605 0
M  V30 108 H 8.3895 -4.19917 -0.353233 0
M  V30 109 H 7.1135 -3.11924 -0.968045 0
M  V30 110 H 5.7725 -3.48667 1.13257 0
M  V30 111 H 5.4205 -4.95585 -0.860514 0
M  V30 112 H 5.1205 -5.83913 0.657192 0
M  V30 113 H 6.6445 -6.10138 -0.237598 0
M  V30 114 H 8.0585 -5.40083 1.92311 0
M  V30 115 H 6.4555 -5.3528 2.71284 0
M  V30 116 H 7.5255 -3.94346 2.82169 0
M  V30 117 N 8.8686 -0.792821 -1.36206 0
M  V30 118 C 10.1166 -0.366062 -1.98757 0
M  V30 119 C 10.4376 1.0668 -1.63231 0
M  V30 120 O 9.7076 1.73587 -0.907978 0
M  V30 121 H 8.2876 -0.132364 -0.735179 0
M  V30 122 H 10.9496 -1.01562 -1.66347 0
M  V30 123 H 10.0456 -0.460638 -3.08682 0
M  V30 124 N 10.3467 1.47872 -0.545128 0
M  V30 125 C 11.5957 2.01695 -0.0145033 0
M  V30 126 C 11.9087 1.42609 1.33873 0
M  V30 127 O 13.1147 1.88021 1.95858 0
M  V30 128 C 11.5707 3.59892 0.0245068 0
M  V30 129 C 11.1787 4.27966 -1.32475 0
M  V30 130 C 12.9227 4.21507 0.50316 0
M  V30 131 C 10.8297 5.78136 -1.2455 0
M  V30 132 H 9.7597 0.753998 -0.00165172 0
M  V30 133 H 12.4107 1.69985 -0.691175 0
M  V30 134 H 10.7927 3.88509 0.766575 0
M  V30 135 H 11.9667 4.11003 -2.08357 0
M  V30 136 H 10.2817 3.78286 -1.74036 0
M  V30 137 H 12.8787 5.31538 0.580656 0
M  V30 138 H 13.2217 3.87855 1.51243 0
M  V30 139 H 13.7547 3.97376 -0.183681 0
M  V30 140 H 10.4937 6.16388 -2.23039 0
M  V30 141 H 10.0137 5.97469 -0.528282 0
M  V30 142 H 11.6927 6.40099 -0.942488 0
M  V30 143 N 11.8248 0.280983 1.55075 0
M  V30 144 C 13.0718 -0.334115 1.99725 0
M  V30 145 C 13.3998 -1.5542 1.1694 0
M  V30 146 O 12.6548 -1.94361 0.228531 0
M  V30 147 C 12.9538 -0.754656 3.49342 0
M  V30 148 C 12.6198 0.361445 4.49449 0
M  V30 149 C 11.2818 0.667893 4.76542 0
M  V30 150 C 13.6338 1.11322 5.09173 0
M  V30 151 C 10.9618 1.7296 5.60626 0
M  V30 152 C 13.3138 2.1647 5.9441 0
M  V30 153 C 11.9778 2.47742 6.19822 0
M  V30 154 H 11.2478 -0.122261 0.730844 0
M  V30 155 H 13.8948 0.395917 1.87363 0
M  V30 156 H 12.1998 -1.56446 3.5921 0
M  V30 157 H 13.8968 -1.24142 3.813 0
M  V30 158 H 10.4868 0.112481 4.28452 0
M  V30 159 H 14.6708 0.88973 4.8826 0
M  V30 160 H 9.9268 1.97684 5.78559 0
M  V30 161 H 14.1008 2.75193 6.3972 0
M  V30 162 H 11.7278 3.30145 6.84769 0
M  V30 163 N 13.3029 -1.57598 0.00835791 0
M  V30 164 C 14.2329 -2.1198 -0.979113 0
M  V30 165 C 15.2139 -1.03091 -1.35301 0
M  V30 166 O 16.3989 -1.30818 -1.43528 0
M  V30 167 C 13.5289 -2.62995 -2.26828 0
M  V30 168 C 12.4829 -3.76485 -2.03576 0
M  V30 169 C 11.8089 -4.13846 -3.38579 0
M  V30 170 C 13.1089 -5.0342 -1.39161 0
M  V30 171 H 14.8029 -2.94738 -0.526281 0
M  V30 172 H 12.3489 -1.41783 -0.251704 0
M  V30 173 H 14.3019 -2.99669 -2.96271 0
M  V30 174 H 13.0259 -1.7737 -2.7424 0
M  V30 175 H 11.6849 -3.40217 -1.36557 0
M  V30 176 H 11.3329 -3.25232 -3.83709 0
M  V30 177 H 11.0329 -4.90312 -3.23834 0
M  V30 178 H 12.5569 -4.53086 -4.09323 0
M  V30 179 H 13.9709 -5.37812 -1.98573 0
M  V30 180 H 12.3679 -5.84746 -1.34878 0
M  V30 181 H 13.4379 -4.83548 -0.361868 0
M  V30 182 N 14.781 0.264519 -1.55364 0
M  V30 183 C 16.028 0.994986 -1.7637 0
M  V30 184 C 16.356 1.85976 -0.5695 0
M  V30 185 O 15.611 1.90509 0.44776 0
M  V30 186 C 15.91 1.9004 -3.02687 0
M  V30 187 C 15.576 1.19243 -4.34847 0
M  V30 188 C 14.238 0.996709 -4.70764 0
M  V30 189 C 16.59 0.689296 -5.16622 0
M  V30 190 C 13.918 0.285261 -5.86006 0
M  V30 191 C 16.27 -0.00860079 -6.32599 0
M  V30 192 C 14.934 -0.215963 -6.67151 0
M  V30 193 H 14.204 0.364091 -0.645383 0
M  V30 194 H 16.851 0.266543 -1.89636 0
M  V30 195 H 15.156 2.69533 -2.84357 0
M  V30 196 H 16.853 2.46695 -3.16137 0
M  V30 197 H 13.443 1.3549 -4.06621 0
M  V30 198 H 17.627 0.828108 -4.89342 0
M  V30 199 H 12.883 0.113961 -6.11294 0
M  V30 200 H 17.057 -0.406186 -6.95214 0
M  V30 201 H 14.684 -0.769217 -7.56298 0
M  V30 202 N 16.2591 1.48442 0.529413 0
M  V30 203 C 17.1891 1.65902 1.64313 0
M  V30 204 C 18.1701 0.507897 1.6234 0
M  V30 205 O 19.3551 0.740503 1.79528 0
M  V30 206 C 16.4851 1.69911 3.02898 0
M  V30 207 C 15.4391 2.8453 3.19729 0
M  V30 208 C 14.7651 2.73629 4.59381 0
M  V30 209 C 16.0651 4.25821 3.02447 0
M  V30 210 H 17.7591 2.5914 1.49955 0
M  V30 211 H 15.3051 1.24709 0.719982 0
M  V30 212 H 17.2581 1.80715 3.80684 0
M  V30 213 H 15.9821 0.732524 3.18279 0
M  V30 214 H 14.6411 2.73283 2.44361 0
M  V30 215 H 14.2891 1.74938 4.71599 0
M  V30 216 H 13.9891 3.50541 4.71588 0
M  V30 217 H 15.5131 2.86401 5.39265 0
M  V30 218 H 16.9271 4.37898 3.70024 0
M  V30 219 H 15.3241 5.03735 3.26146 0
M  V30 220 H 16.3941 4.42244 1.98867 0
M  V30 221 N 17.7372 -0.778329 1.37039 0
M  V30 222 C 18.9772 -1.54973 1.33276 0
M  V30 223 C 19.3412 -1.91816 -0.0839376 0
M  V30 224 O 20.5422 -2.6767 -0.246228 0
M  V30 225 C 18.8132 -2.78517 2.23971 0
M  V30 226 S 20.3722 -3.6865 2.37997 0
M  V30 227 H 17.1902 -0.530639 0.473226 0
M  V30 228 H 19.7922 -0.915806 1.72723 0
M  V30 229 H 18.4962 -2.4952 3.25835 0
M  V30 230 H 18.0272 -3.46875 1.85584 0
M  V30 231 H 20.0422 -4.70182 1.58567 0
M  V30 232 N 19.2153 -1.21501 -1.00376 0
M  V30 233 C 20.4403 -1.05977 -1.78279 0
M  V30 234 C 20.8653 0.385994 -1.84097 0
M  V30 235 O 20.2233 1.27849 -1.28547 0
M  V30 236 C 20.2713 -1.66302 -3.19963 0
M  V30 237 O 19.3753 -0.909333 -4.0225 0
M  V30 238 H 18.7163 -0.372906 -0.549397 0
M  V30 239 H 21.2463 -1.6107 -1.26165 0
M  V30 240 H 21.2563 -1.70574 -3.70632 0
M  V30 241 H 19.9313 -2.71515 -3.15043 0
M  V30 242 H 18.5083 -0.941795 -3.60811 0
M  V30 243 N 20.6934 1.19889 -1.02296 0
M  V30 244 C 21.9214 1.9339 -0.735399 0
M  V30 245 C 22.3364 1.75148 0.704887 0
M  V30 246 O 21.6934 1.06954 1.47875 0
M  V30 247 C 21.7444 3.45313 -1.06962 0
M  V30 248 O 21.4654 3.62964 -2.45334 0
M  V30 249 C 22.9664 4.35948 -0.804021 0
M  V30 250 H 20.1864 0.61448 -0.269546 0
M  V30 251 H 22.7304 1.522 -1.36585 0
M  V30 252 H 20.8854 3.84359 -0.484455 0
M  V30 253 H 21.2994 4.56886 -2.57595 0
M  V30 254 H 22.7734 5.41174 -1.0879 0
M  V30 255 H 23.2504 4.3842 0.261691 0
M  V30 256 H 23.8564 4.02574 -1.37164 0
M  V30 257 N 22.1715 0.800033 1.35784 0
M  V30 258 C 23.5825 0.439142 1.81462 0
M  V30 259 C 23.9335 -1.03813 1.66485 0
M  V30 260 O 23.0585 -1.80626 1.19177 0
M  V30 261 C 23.6535 0.790314 3.29453 0
M  V30 262 C 22.2125 0.482111 3.733 0
M  V30 263 C 21.3595 1.01938 2.57883 0
M  V30 264 H 24.3105 0.992254 1.23855 0
M  V30 265 H 24.3315 0.0853677 3.80404 0
M  V30 266 H 23.8435 1.86554 3.40322 0
M  V30 267 H 21.9445 -0.584652 3.67984 0
M  V30 268 H 22.0575 1.01015 4.6833 0
M  V30 269 H 20.4215 0.442043 2.50835 0
M  V30 270 H 21.2045 2.10059 2.71533 0
M  V30 271 N 23.6496 -1.47581 0.552962 0
M  V30 272 C 24.6126 -2.28439 -0.186605 0
M  V30 273 C 25.6126 -1.36706 -0.84665 0
M  V30 274 O 26.8026 -1.59378 -0.703164 0
M  V30 275 C 23.9346 -3.16264 -1.2724 0
M  V30 276 H 25.1276 -2.95294 0.523609 0
M  V30 277 H 22.6806 -1.532 0.309745 0
M  V30 278 H 23.4156 -2.54091 -2.01514 0
M  V30 279 H 23.2006 -3.83769 -0.803968 0
M  V30 280 H 24.6906 -3.77198 -1.79196 0
M  V30 281 N 25.1277 -0.289203 -1.54924 0
M  V30 282 C 26.3737 0.316922 -2.00916 0
M  V30 283 C 26.7287 1.52424 -1.17408 0
M  V30 284 O 26.0217 1.90097 -0.239536 0
M  V30 285 C 26.2157 0.736119 -3.49737 0
M  V30 286 C 26.0447 -0.429036 -4.47649 0
M  V30 287 C 24.8147 -0.917311 -4.96904 0
M  V30 288 C 27.0127 -1.27016 -4.98369 0
M  V30 289 N 24.9947 -2.05046 -5.78644 0
M  V30 290 C 26.3657 -2.25097 -5.77695 0
M  V30 291 C 28.4207 -1.30188 -4.80578 0
M  V30 292 C 27.1237 -3.26114 -6.41126 0
M  V30 293 C 29.1497 -2.30057 -5.44819 0
M  V30 294 C 28.5117 -3.2687 -6.23968 0
M  V30 295 H 24.6107 0.0807535 -0.777819 0
M  V30 296 H 27.1947 -0.416434 -1.90194 0
M  V30 297 H 25.3657 1.43867 -3.60773 0
M  V30 298 H 27.0977 1.32078 -3.82541 0
M  V30 299 H 23.8527 -0.494248 -4.71014 0
M  V30 300 H 24.2767 -2.62108 -6.24202 0
M  V30 301 H 28.9187 -0.567163 -4.18979 0
M  V30 302 H 26.6367 -4.00512 -7.01866 0
M  V30 303 H 30.2227 -2.33271 -5.32988 0
M  V30 304 H 29.1027 -4.02883 -6.72796 0
M  V30 305 N 26.6058 1.57591 -0.0167156 0
M  V30 306 C 27.5688 2.08393 0.954204 0
M  V30 307 C 28.5688 0.996531 1.26198 0
M  V30 308 O 29.7588 1.25858 1.20438 0
M  V30 309 C 26.8908 2.5394 2.27436 0
M  V30 310 H 28.0838 2.95455 0.514451 0
M  V30 311 H 25.6368 1.54582 0.231089 0
M  V30 312 H 26.3718 1.70171 2.76066 0
M  V30 313 H 26.1568 3.33371 2.06412 0
M  V30 314 H 27.6468 2.93512 2.97053 0
M  V30 315 N 28.0839 -0.256276 1.55502 0
M  V30 316 C 29.0309 -1.31714 1.89526 0
M  V30 317 C 30.0009 -1.4828 0.748479 0
M  V30 318 O 31.1859 -1.62416 1.00128 0
M  V30 319 C 28.3259 -2.66933 2.18725 0
M  V30 320 C 27.4389 -2.58452 3.4616 0
M  V30 321 C 26.5739 -3.85961 3.64976 0
M  V30 322 C 25.6129 -3.72059 4.86044 0
M  V30 323 N 24.7499 -4.9144 5.01429 0
M  V30 324 H 29.5899 -1.01998 2.80001 0
M  V30 325 H 27.1269 -0.492413 1.38613 0
M  V30 326 H 29.0849 -3.4563 2.33657 0
M  V30 327 H 27.7149 -2.94816 1.31466 0
M  V30 328 H 26.7669 -1.71374 3.3961 0
M  V30 329 H 28.0789 -2.44085 4.34999 0
M  V30 330 H 27.2329 -4.73101 3.79816 0
M  V30 331 H 25.9719 -4.03215 2.74353 0
M  V30 332 H 24.9769 -2.83302 4.7119 0
M  V30 333 H 26.2019 -3.56309 5.78118 0
M  V30 334 H 24.1479 -5.09072 4.13741 0
M  V30 335 H 24.0649 -4.79668 5.84341 0
M  V30 336 H 25.3329 -5.80104 5.20672 0
M  V30 337 N 29.562 -1.4872 -0.521534 0
M  V30 338 C 30.472 -1.66569 -1.65203 0
M  V30 339 C 31.488 -0.548197 -1.65139 0
M  V30 340 O 32.664 -0.820339 -1.83936 0
M  V30 341 C 29.729 -1.70917 -3.01642 0
M  V30 342 C 28.79 -2.94356 -3.12495 0
M  V30 343 C 28.023 -2.98487 -4.42426 0
M  V30 344 O 28.246 -2.10786 -5.30024 0
M  V30 345 O 27.18 -3.90746 -4.57822 0
M  V30 346 H 31.006 -2.62298 -1.5308 0
M  V30 347 H 28.591 -1.3222 -0.695565 0
M  V30 348 H 30.473 -1.7625 -3.82771 0
M  V30 349 H 29.148 -0.783633 -3.14071 0
M  V30 350 H 28.055 -2.94552 -2.3063 0
M  V30 351 H 29.388 -3.86322 -3.04986 0
M  V30 352 N 31.0401 0.771051 -1.3745 0
M  V30 353 C 31.9871 1.88435 -1.3327 0
M  V30 354 C 32.9571 1.64914 -0.198136 0
M  V30 355 O 34.1421 1.86821 -0.387606 0
M  V30 356 C 31.2821 3.25509 -1.14622 0
M  V30 357 C 30.3951 3.60979 -2.37314 0
M  V30 358 C 29.5301 4.87265 -2.11533 0
M  V30 359 C 28.5691 5.15469 -3.30088 0
M  V30 360 N 27.7061 6.32944 -3.03853 0
M  V30 361 H 32.5461 1.91344 -2.28455 0
M  V30 362 H 30.0831 0.935466 -1.13523 0
M  V30 363 H 32.0411 4.04582 -1.01831 0
M  V30 364 H 30.6711 3.21974 -0.230837 0
M  V30 365 H 29.7231 2.76885 -2.60842 0
M  V30 366 H 31.0351 3.77759 -3.25729 0
M  V30 367 H 30.1891 5.74244 -1.95777 0
M  V30 368 H 28.9281 4.7259 -1.20457 0
M  V30 369 H 27.9331 4.26966 -3.46382 0
M  V30 370 H 29.1581 5.32052 -4.22016 0
M  V30 371 H 27.1041 6.19625 -2.15407 0
M  V30 372 H 27.0211 6.50143 -3.85812 0
M  V30 373 H 28.2891 7.22857 -2.91716 0
M  V30 374 N 32.5182 1.22032 0.997298 0
M  V30 375 C 33.4682 0.953838 2.07089 0
M  V30 376 C 34.4522 -0.0938669 1.60626 0
M  V30 377 O 35.6442 0.116078 1.76619 0
M  V30 378 C 32.7732 0.528726 3.39204 0
M  V30 379 C 31.8592 1.61092 3.92314 0
M  V30 380 N 32.2502 2.83768 4.18699 0
M  V30 381 C 30.5482 1.48158 4.20672 0
M  V30 382 C 31.2492 3.53715 4.61802 0
M  V30 383 N 30.2252 2.81174 4.65233 0
M  V30 384 H 34.0272 1.88577 2.25424 0
M  V30 385 H 31.5412 1.11719 1.17867 0
M  V30 386 H 33.5382 0.31915 4.15677 0
M  V30 387 H 32.1982 -0.39635 3.22272 0
M  V30 388 H 33.2092 3.20238 4.07023 0
M  V30 389 H 29.8862 0.622369 4.12835 0
M  V30 390 H 31.2762 4.58793 4.90875 0
M  V30 391 N 33.9963 -1.19345 1.0293 0
M  V30 392 C 35.2263 -1.92717 0.744563 0
M  V30 393 C 35.6343 -1.75751 -0.700579 0
M  V30 394 O 34.9773 -1.07703 -1.48815 0
M  V30 395 C 35.0393 -3.44828 1.01657 0
M  V30 396 C 34.7033 -3.85564 2.45335 0
M  V30 397 C 35.7003 -3.90286 3.43472 0
M  V30 398 C 33.3853 -4.1719 2.79746 0
M  V30 399 C 35.3793 -4.26065 4.74075 0
M  V30 400 C 33.0663 -4.52642 4.10559 0
M  V30 401 C 34.0643 -4.57054 5.07534 0
M  V30 402 O 33.7523 -4.91685 6.36004 0
M  V30 403 H 33.4843 -0.618977 0.271742 0
M  V30 404 H 36.0383 -1.52415 1.37691 0
M  V30 405 H 34.2683 -3.85314 0.327084 0
M  V30 406 H 35.9573 -3.99437 0.721427 0
M  V30 407 H 36.7233 -3.66002 3.18225 0
M  V30 408 H 32.6023 -4.1294 2.04943 0
M  V30 409 H 36.1463 -4.29423 5.49765 0
M  V30 410 H 32.0433 -4.76383 4.35579 0
M  V30 411 H 32.8113 -5.09631 6.40483 0
M  V30 412 N 35.4744 -0.807222 -1.35358 0
M  V30 413 C 36.7044 -0.399796 -2.02695 0
M  V30 414 C 37.1124 0.994176 -1.60974 0
M  V30 415 O 36.4554 1.65209 -0.803226 0
M  V30 416 C 36.5174 -0.404445 -3.57218 0
M  V30 417 C 36.1814 -1.74904 -4.22206 0
M  V30 418 C 37.1784 -2.70743 -4.4384 0
M  V30 419 C 34.8634 -2.03322 -4.5931 0
M  V30 420 C 36.8574 -3.93183 -5.01683 0
M  V30 421 C 34.5444 -3.26026 -5.16866 0
M  V30 422 C 35.5424 -4.20774 -5.37994 0
M  V30 423 O 35.2304 -5.41312 -5.94337 0
M  V30 424 H 34.9624 -0.160517 -0.656666 0
M  V30 425 H 37.5164 -1.09235 -1.73945 0
M  V30 426 H 35.7464 0.344707 -3.85161 0
M  V30 427 H 37.4354 -0.0192429 -4.05895 0
M  V30 428 H 38.2014 -2.5008 -4.15554 0
M  V30 429 H 34.0804 -1.30384 -4.42178 0
M  V30 430 H 37.6244 -4.6715 -5.1809 0
M  V30 431 H 33.5214 -3.46559 -5.44579 0
M  V30 432 H 34.2894 -5.42618 -6.12787 0
M  V30 433 N 36.9525 1.47285 -0.560781 0
M  V30 434 C 38.2015 2.01668 -0.035895 0
M  V30 435 C 38.5145 1.44021 1.32353 0
M  V30 436 O 39.7205 1.90088 1.93853 0
M  V30 437 C 38.1765 3.59897 -0.0136659 0
M  V30 438 C 37.7845 4.26536 -1.37006 0
M  V30 439 C 39.5285 4.22017 0.458425 0
M  V30 440 C 37.4355 5.76782 -1.30675 0
M  V30 441 H 36.3655 0.753938 -0.00964879 0
M  V30 442 H 39.0165 1.69243 -0.709166 0
M  V30 443 H 37.3985 3.89301 0.725325 0
M  V30 444 H 38.5725 4.0877 -2.12705 0
M  V30 445 H 36.8875 3.76419 -1.78038 0
M  V30 446 H 39.4845 5.32124 0.524247 0
M  V30 447 H 39.8275 3.89437 1.4712 0
M  V30 448 H 40.3605 3.97159 -0.225818 0
M  V30 449 H 37.0995 6.13988 -2.29564 0
M  V30 450 H 36.6195 5.96875 -0.591622 0
M  V30 451 H 38.2985 6.39063 -1.01033 0
M  V30 452 N 38.4306 0.297415 1.54768 0
M  V30 453 C 39.6786 -0.312295 1.99673 0
M  V30 454 C 39.9996 -1.54686 1.18732 0
M  V30 455 O 39.2696 -1.93854 0.282382 0
M  V30 456 H 37.8496 -0.118381 0.73756 0
M  V30 457 H 40.5116 0.407915 1.90583 0
M  V30 458 H 39.6076 -0.586813 3.06534 0
M  V30 459 N 39.9087 -1.5758 0.0250728 0
M  V30 460 C 41.1577 -1.90811 -0.653767 0
M  V30 461 C 41.4707 -0.90273 -1.73523 0
M  V30 462 O 42.6767 -1.12614 -2.47043 0
M  V30 463 C 41.1327 -3.38804 -1.21409 0
M  V30 464 C 40.7407 -4.47692 -0.166126 0
M  V30 465 C 42.4847 -3.81108 -1.86967 0
M  V30 466 C 40.3917 -5.86779 -0.737856 0
M  V30 467 H 39.3217 -0.712063 -0.247956 0
M  V30 468 H 41.9727 -1.83281 0.0897137 0
M  V30 469 H 40.3547 -3.41252 -2.00905 0
M  V30 470 H 41.5287 -4.56797 0.606079 0
M  V30 471 H 39.8437 -4.14565 0.390466 0
M  V30 472 H 42.4407 -4.82375 -2.30692 0
M  V30 473 H 42.7837 -3.15953 -2.71071 0
M  V30 474 H 43.3167 -3.81065 -1.14167 0
M  V30 475 H 40.0557 -6.55468 0.0649577 0
M  V30 476 H 39.5757 -5.81288 -1.47864 0
M  V30 477 H 41.2547 -6.35223 -1.22884 0
M  V30 478 N 41.3868 0.248026 -1.55636 0
M  V30 479 C 42.6358 0.974134 -1.76617 0
M  V30 480 C 42.9488 1.86528 -0.588796 0
M  V30 481 O 44.1548 2.62805 -0.681594 0
M  V30 482 C 42.6108 1.78213 -3.12679 0
M  V30 483 C 42.2188 0.93843 -4.38061 0
M  V30 484 C 43.9628 2.50104 -3.42999 0
M  V30 485 C 41.8698 1.74225 -5.65155 0
M  V30 486 H 40.7998 0.36745 -0.658405 0
M  V30 487 H 43.4508 0.22884 -1.82067 0
M  V30 488 H 41.8328 2.56933 -3.01333 0
M  V30 489 H 43.0068 0.193635 -4.60393 0
M  V30 490 H 41.3218 0.332905 -4.15067 0
M  V30 491 H 43.9188 3.10694 -4.3517 0
M  V30 492 H 44.2618 3.21662 -2.64271 0
M  V30 493 H 44.7948 1.78395 -3.55556 0
M  V30 494 H 41.5338 1.07043 -6.46701 0
M  V30 495 H 41.0538 2.46235 -5.46926 0
M  V30 496 H 42.7328 2.30967 -6.0437 0
M  V30 497 N 42.8649 1.48995 0.513639 0
M  V30 498 C 43.7749 1.67443 1.64317 0
M  V30 499 C 44.7909 0.556947 1.64846 0
M  V30 500 O 45.9669 0.830082 1.83498 0
M  V30 501 C 43.0319 1.72515 3.00732 0
M  V30 502 C 42.0929 2.96009 3.1093 0
M  V30 503 C 41.3259 3.00829 4.40837 0
M  V30 504 O 41.5489 2.13594 5.28898 0
M  V30 505 O 40.4829 3.93168 4.55744 0
M  V30 506 H 44.3089 2.63106 1.51687 0
M  V30 507 H 41.8939 1.32588 0.688543 0
M  V30 508 H 43.7759 1.78277 3.81831 0
M  V30 509 H 42.4509 0.800278 3.13651 0
M  V30 510 H 41.3579 2.9577 2.29065 0
M  V30 511 H 42.6909 3.87934 3.02933 0
M  V30 512 N 44.343 -0.763751 1.37857 0
M  V30 513 C 45.571 -1.55293 1.36718 0
M  V30 514 C 45.986 -1.88745 -0.0455434 0
M  V30 515 O 45.343 -1.52039 -1.00947 0
M  V30 516 C 45.394 -2.85831 2.2132 0
M  V30 517 O 45.115 -2.5381 3.57089 0
M  V30 518 C 46.616 -3.80023 2.28249 0
M  V30 519 H 43.836 -0.480841 0.468009 0
M  V30 520 H 46.38 -0.946009 1.81303 0
M  V30 521 H 44.535 -3.42926 1.80223 0
M  V30 522 H 44.949 -3.37459 4.01524 0
M  V30 523 H 46.423 -4.68599 2.91752 0
M  V30 524 H 46.9 -4.1973 1.2932 0
M  V30 525 H 47.506 -3.28855 2.69693 0
M  V30 526 N 45.8211 -1.22559 -0.990812 0
M  V30 527 C 47.0491 -1.07779 -1.76611 0
M  V30 528 C 47.4641 0.371513 -1.85109 0
M  V30 529 O 46.8211 1.25737 -1.32274 0
M  V30 530 C 46.8721 -1.68512 -3.19822 0
M  V30 531 O 46.5931 -3.07774 -3.1178 0
M  V30 532 C 48.0941 -1.59035 -4.13791 0
M  V30 533 H 45.3141 -0.377729 -0.554583 0
M  V30 534 H 47.8581 -1.62195 -1.24551 0
M  V30 535 H 46.0131 -1.18154 -3.68942 0
M  V30 536 H 46.4271 -3.37062 -4.01858 0
M  V30 537 H 47.9011 -2.0625 -5.1202 0
M  V30 538 H 48.3781 -0.547273 -4.35777 0
M  V30 539 H 48.9841 -2.08709 -3.70568 0
M  V30 540 N 47.2992 1.18797 -1.03562 0
M  V30 541 C 48.5452 1.89192 -0.746867 0
M  V30 542 C 48.9002 1.78531 0.717245 0
M  V30 543 O 48.1932 1.17137 1.51622 0
M  V30 544 C 48.3872 3.38692 -1.14117 0
M  V30 545 C 48.2162 3.63902 -2.64207 0
M  V30 546 C 46.9862 3.81553 -3.31279 0
M  V30 547 C 49.1842 3.64903 -3.62423 0
M  V30 548 N 47.1662 3.94455 -4.70402 0
M  V30 549 C 48.5372 3.83458 -4.87196 0
M  V30 550 C 50.5922 3.47965 -3.56125 0
M  V30 551 C 49.2952 3.86829 -6.06429 0
M  V30 552 C 51.3212 3.52616 -4.7478 0
M  V30 553 C 50.6832 3.71663 -5.9837 0
M  V30 554 H 46.7822 0.711141 -0.325273 0
M  V30 555 H 49.3662 1.42727 -1.32428 0
M  V30 556 H 47.5372 3.83864 -0.591889 0
M  V30 557 H 49.2692 3.96634 -0.803966 0
M  V30 558 H 46.0242 3.80723 -2.81686 0
M  V30 559 H 46.4482 4.0474 -5.42692 0
M  V30 560 H 51.0902 3.32189 -2.61553 0
M  V30 561 H 48.8082 4.01395 -7.01362 0
M  V30 562 H 52.3942 3.40791 -4.71543 0
M  V30 563 H 51.2742 3.75145 -6.88648 0
M  V30 564 N 48.7773 0.814389 1.34928 0
M  V30 565 C 50.0543 0.321363 1.92942 0
M  V30 566 C 50.4343 -1.19014 1.74353 0
M  V30 567 O 49.7823 -1.99328 1.11716 0
M  V30 568 C 49.9923 0.741323 3.41036 0
M  V30 569 C 51.3403 0.735266 4.18185 0
M  V30 570 O 52.3643 0.68336 3.49584 0
M  V30 571 O 51.2233 0.800703 5.40602 0
M  V30 572 H 48.3173 0.0858893 0.822528 0
M  V30 573 H 50.8633 0.898609 1.43955 0
M  V30 574 H 49.6353 1.78276 3.4833 0
M  V30 575 H 49.2583 0.139307 3.97356 0
M  V30 576 N 50.2554 -1.46986 0.568584 0
M  V30 577 C 51.4854 -2.0653 0.0539173 0
M  V30 578 C 51.8934 -1.42004 -1.25026 0
M  V30 579 O 51.2364 -0.514541 -1.76347 0
M  V30 580 C 51.2984 -3.58938 -0.200854 0
M  V30 581 C 50.9624 -4.45572 1.01559 0
M  V30 582 C 51.9594 -4.82986 1.92407 0
M  V30 583 C 49.6444 -4.8692 1.23346 0
M  V30 584 C 51.6384 -5.60559 3.03402 0
M  V30 585 C 49.3254 -5.64255 2.34649 0
M  V30 586 C 50.3234 -6.00986 3.24507 0
M  V30 587 O 50.0114 -6.76761 4.33878 0
M  V30 588 H 49.7434 -0.674292 0.0480234 0
M  V30 589 H 52.2974 -1.89812 0.784896 0
M  V30 590 H 50.5274 -3.73911 -0.986279 0
M  V30 591 H 52.2164 -4.0046 -0.662294 0
M  V30 592 H 52.9824 -4.51633 1.76785 0
M  V30 593 H 48.8614 -4.57789 0.543178 0
M  V30 594 H 52.4054 -5.89147 3.73565 0
M  V30 595 H 48.3024 -5.95021 2.5024 0
M  V30 596 H 49.0704 -6.95168 4.32068 0
M  V30 597 N 51.7335 -0.305618 -1.54608 0
M  V30 598 C 52.6965 0.555591 -2.22364 0
M  V30 599 C 53.6965 1.05768 -1.21119 0
M  V30 600 O 54.8865 0.952972 -1.45822 0
M  V30 601 C 52.0185 1.76974 -2.91364 0
M  V30 602 H 53.2115 -0.0364572 -2.99878 0
M  V30 603 H 50.7645 -0.0565007 -1.56198 0
M  V30 604 H 51.4995 2.40151 -2.17941 0
M  V30 605 H 51.2845 1.41732 -3.65588 0
M  V30 606 H 52.7745 2.38148 -3.43038 0
M  V30 607 N 53.2116 1.57565 -0.0334293 0
M  V30 608 C 54.4366 1.96689 0.657895 0
M  V30 609 C 54.8616 0.910057 1.64619 0
M  V30 610 O 54.2196 -0.128598 1.80843 0
M  V30 611 C 54.2676 3.34905 1.33683 0
M  V30 612 O 53.3716 3.31574 2.45219 0
M  V30 613 H 52.7126 0.641205 0.172489 0
M  V30 614 H 55.2426 2.04372 -0.0965621 0
M  V30 615 H 55.2526 3.71234 1.69262 0
M  V30 616 H 53.9276 4.11366 0.612411 0
M  V30 617 H 52.5046 3.06968 2.11719 0
M  V30 618 N 54.6897 -0.239769 1.55765 0
M  V30 619 C 55.9667 -0.990056 1.68693 0
M  V30 620 C 56.3467 -2.03107 0.5754 0
M  V30 621 O 55.6947 -2.24604 -0.42017 0
M  V30 622 C 55.9047 -1.61696 3.09282 0
M  V30 623 C 57.2527 -2.11613 3.6811 0
M  V30 624 O 58.2767 -1.71624 3.12127 0
M  V30 625 O 57.1357 -2.85057 4.66267 0
M  V30 626 H 54.2297 -0.461299 0.686391 0
M  V30 627 H 56.7757 -0.232991 1.68093 0
M  V30 628 H 55.5477 -0.864357 3.81634 0
M  V30 629 H 55.1707 -2.44005 3.13923 0
M  V30 630 N 56.1678 -1.49265 -0.50573 0
M  V30 631 C 57.1178 -1.6198 -1.60457 0
M  V30 632 C 58.1018 -0.47568 -1.53708 0
M  V30 633 O 59.2938 -0.728392 -1.61318 0
M  V30 634 C 56.4228 -1.68526 -2.99089 0
M  V30 635 C 55.5088 -2.885 -3.10852 0
M  V30 636 N 55.8998 -4.12635 -2.92517 0
M  V30 637 C 54.1978 -2.86338 -3.41945 0
M  V30 638 C 54.8988 -4.93258 -3.08337 0
M  V30 639 N 53.8748 -4.26533 -3.37003 0
M  V30 640 H 57.6768 -2.55681 -1.44928 0
M  V30 641 H 55.1908 -1.45972 -0.711752 0
M  V30 642 H 57.1878 -1.75732 -3.78053 0
M  V30 643 H 55.8478 -0.759584 -3.1569 0
M  V30 644 H 56.8588 -4.42689 -2.68787 0
M  V30 645 H 53.5358 -2.03129 -3.64753 0
M  V30 646 H 54.9258 -6.01856 -2.98695 0
M  V30 647 N 57.6459 0.756429 -1.3826 0
M  V30 648 C 58.8939 1.51248 -1.34047 0
M  V30 649 C 59.2149 1.94875 0.0698372 0
M  V30 650 O 58.4849 1.67436 1.01696 0
M  V30 651 H 57.0649 0.561018 -0.493222 0
M  V30 652 H 59.7269 0.899347 -1.7291 0
M  V30 653 H 58.8229 2.40472 -1.98947 0
M  V30 654 N 59.124 1.23083 0.984299 0
M  V30 655 C 60.034 1.02515 2.11016 0
M  V30 656 C 61.05 -0.0291702 1.73976 0
M  V30 657 O 62.226 0.165434 2.00719 0
M  V30 658 C 59.291 0.614673 3.41208 0
M  V30 659 C 58.352 1.74359 3.92297 0
M  V30 660 C 57.585 1.35261 5.16275 0
M  V30 661 O 57.808 0.235136 5.69915 0
M  V30 662 O 56.742 2.17227 5.61334 0
M  V30 663 H 60.568 1.96862 2.31255 0
M  V30 664 H 58.153 1.01753 1.09392 0
M  V30 665 H 60.035 0.396518 4.1953 0
M  V30 666 H 58.71 -0.299851 3.22308 0
M  V30 667 H 57.617 2.01635 3.1511 0
M  V30 668 H 58.95 2.63629 4.15645 0
M  V30 669 N 60.6021 -1.18246 1.0419 0
M  V30 670 C 61.5491 -2.2192 0.634037 0
M  V30 671 C 62.5191 -1.62179 -0.358765 0
M  V30 672 O 63.7041 -1.89122 -0.252466 0
M  V30 673 C 60.8441 -3.451 0.00445535 0
M  V30 674 C 59.9571 -4.19174 1.04487 0
M  V30 675 C 59.0921 -5.29813 0.383676 0
M  V30 676 C 58.1311 -5.9566 1.4091 0
M  V30 677 N 57.2681 -6.97834 0.772784 0
M  V30 678 H 62.1081 -2.56164 1.52263 0
M  V30 679 H 59.6451 -1.25843 0.761701 0
M  V30 680 H 61.6031 -4.15485 -0.377919 0
M  V30 681 H 60.2331 -3.11472 -0.847652 0
M  V30 682 H 59.2851 -3.47604 1.54518 0
M  V30 683 H 60.5971 -4.64267 1.82368 0
M  V30 684 H 59.7511 -6.06677 -0.0528366 0
M  V30 685 H 58.4901 -4.85825 -0.427208 0
M  V30 686 H 57.4951 -5.17535 1.85574 0
M  V30 687 H 58.7201 -6.4173 2.22171 0
M  V30 688 H 56.6661 -6.55998 -0.0177708 0
M  V30 689 H 56.5831 -7.41186 1.48928 0
M  V30 690 H 57.8511 -7.78665 0.36071 0
M  V30 691 N 62.0802 -0.821533 -1.34494 0
M  V30 692 C 63.0272 -0.240397 -2.29545 0
M  V30 693 C 63.9972 0.634031 -1.53523 0
M  V30 694 O 65.1822 0.575966 -1.81899 0
M  V30 695 C 62.3222 0.592869 -3.39969 0
M  V30 696 C 61.4352 -0.30365 -4.30932 0
M  V30 697 C 60.5702 0.539049 -5.28458 0
M  V30 698 C 59.6092 -0.356942 -6.11058 0
M  V30 699 N 58.7462 0.446603 -7.00678 0
M  V30 700 H 63.5862 -1.05632 -2.7865 0
M  V30 701 H 61.1232 -0.532413 -1.37127 0
M  V30 702 H 63.0812 1.09129 -4.02675 0
M  V30 703 H 61.7112 1.37392 -2.92102 0
M  V30 704 H 60.7632 -0.920276 -3.691 0
M  V30 705 H 62.0752 -0.992661 -4.88823 0
M  V30 706 H 61.2292 1.102 -5.96608 0
M  V30 707 H 59.9682 1.26157 -4.71101 0
M  V30 708 H 58.9732 -0.932047 -5.41842 0
M  V30 709 H 60.1982 -1.07755 -6.70497 0
M  V30 710 H 58.1442 1.15282 -6.45791 0
M  V30 711 H 58.0612 -0.184048 -7.55776 0
M  V30 712 H 59.3292 0.992352 -7.73158 0
M  V30 713 N 63.5583 1.46682 -0.576371 0
M  V30 714 C 64.4883 2.33028 0.148397 0
M  V30 715 C 65.4693 1.44961 0.889956 0
M  V30 716 O 66.6543 1.73789 0.866662 0
M  V30 717 C 63.7843 3.27117 1.1667 0
M  V30 718 C 62.7383 4.24575 0.540386 0
M  V30 719 C 62.0643 5.08126 1.6647 0
M  V30 720 C 63.3643 5.19722 -0.518331 0
M  V30 721 H 65.0583 2.93875 -0.572509 0
M  V30 722 H 62.6043 1.41315 -0.276768 0
M  V30 723 H 64.5573 3.86374 1.68204 0
M  V30 724 H 63.2813 2.64364 1.9178 0
M  V30 725 H 61.9403 3.66571 0.0461769 0
M  V30 726 H 61.5883 4.41762 2.40531 0
M  V30 727 H 61.2883 5.74122 1.25131 0
M  V30 728 H 62.8123 5.70246 2.18293 0
M  V30 729 H 64.2263 5.73232 -0.0883058 0
M  V30 730 H 62.6233 5.94026 -0.851679 0
M  V30 731 H 63.6933 4.64037 -1.40703 0
M  V30 732 N 65.0364 0.313813 1.54444 0
M  V30 733 C 66.2854 -0.292519 1.99568 0
M  V30 734 C 66.5984 -1.54011 1.20582 0
M  V30 735 O 67.8044 -2.22183 1.56035 0
M  V30 736 C 66.2604 -0.571752 3.55329 0
M  V30 737 C 65.8684 0.658229 4.43138 0
M  V30 738 C 67.6124 -1.13857 4.08946 0
M  V30 739 C 65.5194 0.351439 5.90355 0
M  V30 740 H 64.4494 -0.113079 0.745472 0
M  V30 741 H 67.1004 0.424518 1.78522 0
M  V30 742 H 65.4824 -1.34872 3.72325 0
M  V30 743 H 66.6564 1.43403 4.37918 0
M  V30 744 H 64.9714 1.14458 4.0036 0
M  V30 745 H 67.5684 -1.38257 5.16516 0
M  V30 746 H 67.9114 -2.08489 3.6033 0
M  V30 747 H 68.4444 -0.423015 3.95544 0
M  V30 748 H 65.1834 1.26667 6.43145 0
M  V30 749 H 64.7034 -0.386842 5.98551 0
M  V30 750 H 66.3824 -0.0423134 6.46986 0
M  V30 751 N 66.5145 -1.57545 0.0417849 0
M  V30 752 C 67.7395 -1.97035 -0.647455 0
M  V30 753 C 68.1645 -0.918775 -1.64135 0
M  V30 754 O 67.5225 0.119006 -1.80909 0
M  V30 755 C 67.5705 -3.35609 -1.31905 0
M  V30 756 O 66.6745 -3.3287 -2.43457 0
M  V30 757 H 66.0155 -0.64211 -0.169086 0
M  V30 758 H 68.5455 -2.04318 0.107399 0
M  V30 759 H 68.5555 -3.72126 -1.67291 0
M  V30 760 H 67.2305 -4.11685 -0.590586 0
M  V30 761 H 65.8075 -3.08087 -2.10088 0
M  V30 762 N 67.9926 0.231505 -1.5589 0
M  V30 763 C 69.2386 0.95877 -1.78705 0
M  V30 764 C 69.5716 1.8438 -0.609725 0
M  V30 765 O 68.8466 1.90521 0.391426 0
M  V30 766 C 69.1296 1.8062 -3.11526 0
M  V30 767 C 68.9826 0.948328 -4.39689 0
M  V30 768 C 70.3016 2.78585 -3.40703 0
M  V30 769 H 67.4206 0.347129 -0.650131 0
M  V30 770 H 70.0626 0.228259 -1.88624 0
M  V30 771 H 68.2126 2.42902 -3.03201 0
M  V30 772 H 69.8846 0.343016 -4.60023 0
M  V30 773 H 68.1276 0.253314 -4.3306 0
M  V30 774 H 68.7986 1.57543 -5.29041 0
M  V30 775 H 71.2746 2.26439 -3.49091 0
M  V30 776 H 70.1506 3.34988 -4.34826 0
M  V30 777 H 70.4116 3.55825 -2.62375 0
M  V30 778 N 69.4707 1.49531 0.497807 0
M  V30 779 C 70.7477 1.49682 1.25915 0
M  V30 780 C 71.1277 0.226339 2.09883 0
M  V30 781 O 70.4757 -0.791189 2.14365 0
M  V30 782 C 70.6857 2.77755 2.11313 0
M  V30 783 C 72.0337 3.27371 2.70395 0
M  V30 784 O 73.0577 2.78894 2.21578 0
M  V30 785 O 71.9167 4.11808 3.59272 0
M  V30 786 H 69.0107 0.599228 0.56996 0
M  V30 787 H 71.5567 1.61798 0.511816 0
M  V30 788 H 70.3287 3.61713 1.49264 0
M  V30 789 H 69.9517 2.68515 2.93233 0
M  V30 790 N 70.9488 -0.749086 1.3866 0
M  V30 791 C 72.1768 -1.53834 1.38358 0
M  V30 792 C 72.5918 -1.88783 -0.0255219 0
M  V30 793 O 71.9488 -1.53101 -0.993292 0
M  V30 794 C 71.9998 -2.83468 2.2434 0
M  V30 795 O 71.7208 -2.50008 3.5976 0
M  V30 796 C 73.2218 -3.7758 2.32267 0
M  V30 797 H 70.4418 -0.47585 0.473083 0
M  V30 798 H 72.9858 -0.926726 1.82297 0
M  V30 799 H 71.1408 -3.40995 1.83851 0
M  V30 800 H 71.5548 -3.33182 4.05081 0
M  V30 801 H 73.0288 -4.65478 2.96706 0
M  V30 802 H 73.5058 -4.18334 1.33765 0
M  V30 803 H 74.1118 -3.25976 2.73166 0
M  V30 804 N 72.4269 -1.23603 -0.977757 0
M  V30 805 C 73.3369 -1.03632 -2.1047 0
M  V30 806 C 74.3529 0.0199435 -1.73989 0
M  V30 807 O 75.5289 -0.176076 -2.00629 0
M  V30 808 C 72.5939 -0.63276 -3.40877 0
M  V30 809 C 71.6549 -1.76437 -3.91367 0
M  V30 810 C 70.8879 -1.37997 -5.15551 0
M  V30 811 O 71.1109 -0.265357 -5.69782 0
M  V30 812 O 70.0449 -2.20201 -5.60174 0
M  V30 813 H 73.8709 -1.98086 -2.30208 0
M  V30 814 H 71.4559 -1.02332 -1.08851 0
M  V30 815 H 73.3379 -0.418761 -4.19314 0
M  V30 816 H 72.0129 0.282754 -3.22463 0
M  V30 817 H 70.9199 -2.03304 -3.14036 0
M  V30 818 H 72.2529 -2.6583 -4.14241 0
M  V30 819 N 73.905 1.17692 -1.04816 0
M  V30 820 C 74.855 2.1952 -0.616042 0
M  V30 821 C 75.839 1.57147 0.345485 0
M  V30 822 O 77.031 1.76245 0.163325 0
M  V30 823 C 74.16 3.43298 0.0116917 0
M  V30 824 C 73.246 4.12777 -0.973435 0
M  V30 825 N 73.637 4.5814 -2.14339 0
M  V30 826 C 71.935 4.38747 -0.80108 0
M  V30 827 C 72.636 5.11713 -2.7663 0
M  V30 828 N 71.612 5.03686 -2.04453 0
M  V30 829 H 75.414 2.52293 -1.5075 0
M  V30 830 H 72.928 1.3398 -0.917776 0
M  V30 831 H 74.925 4.15519 0.339006 0
M  V30 832 H 73.585 3.12018 0.898593 0
M  V30 833 H 74.596 4.52349 -2.52191 0
M  V30 834 H 71.273 4.17485 0.0350934 0
M  V30 835 H 72.663 5.56962 -3.75823 0
M  V30 836 N 75.3831 0.828654 1.34056 0
M  V30 837 C 76.6081 0.431637 2.02859 0
M  V30 838 C 77.0331 -0.956339 1.61975 0
M  V30 839 O 76.3911 -1.62338 0.807228 0
M  V30 840 C 76.4391 0.548323 3.56407 0
M  V30 841 O 75.5431 -0.429556 4.10157 0
M  V30 842 H 74.8841 0.176886 0.640006 0
M  V30 843 H 77.4141 1.12066 1.71179 0
M  V30 844 H 77.4241 0.426196 4.05768 0
M  V30 845 H 76.0991 1.5606 3.8551 0
M  V30 846 H 74.6761 -0.265836 3.71951 0
M  V30 847 N 76.8612 -1.46375 0.584142 0
M  V30 848 C 77.8092 -2.32042 -0.161047 0
M  V30 849 C 78.8032 -1.44569 -0.882966 0
M  V30 850 O 80.0092 -1.61186 -0.801191 0
M  V30 851 H 76.3842 -0.748659 -0.0708033 0
M  V30 852 H 78.3552 -2.92704 0.580269 0
M  V30 853 C 77.1042 -3.27762 -1.1605 0
M  V30 854 H 76.4272 -3.95051 -0.614419 0
M  V30 855 H 77.8672 -3.90481 -1.65228 0
M  V30 856 C 76.3262 -2.53218 -2.22221 0
M  V30 857 O 76.8562 -2.29628 -3.29597 0
M  V30 858 N 75.0622 -2.13756 -1.96868 0
M  V30 859 H 74.6092 -2.33142 -1.09557 0
M  V30 860 H 74.5672 -1.642 -2.68115 0
M  V30 861 N 78.3393 -0.321999 -1.54275 0
M  V30 862 C 79.5883 0.281931 -1.9972 0
M  V30 863 C 79.9013 1.53369 -1.21397 0
M  V30 864 O 81.1073 2.21352 -1.57211 0
M  V30 865 C 79.5633 0.5529 -3.55628 0
M  V30 866 C 79.1713 -0.681721 -4.42783 0
M  V30 867 C 80.9153 1.11687 -4.09544 0
M  V30 868 C 78.8223 -0.382742 -5.9016 0
M  V30 869 H 77.7523 0.109124 -0.746062 0
M  V30 870 H 80.4033 -0.43398 -1.78294 0
M  V30 871 H 78.7853 1.32896 -3.73035 0
M  V30 872 H 79.9593 -1.45723 -4.37151 0
M  V30 873 H 78.2743 -1.1658 -3.99748 0
M  V30 874 H 80.8713 1.35515 -5.17242 0
M  V30 875 H 81.2143 2.06575 -3.61431 0
M  V30 876 H 81.7473 0.402032 -3.95763 0
M  V30 877 H 78.4863 -1.30076 -6.42464 0
M  V30 878 H 78.0063 0.355094 -5.98748 0
M  V30 879 H 79.6853 0.00800157 -6.47 0
M  V30 880 N 79.8174 1.5752 -0.0501392 0
M  V30 881 C 81.0474 1.96678 0.632573 0
M  V30 882 C 81.4554 0.926298 1.64974 0
M  V30 883 O 80.7984 -0.09802 1.83438 0
M  V30 884 C 80.8604 3.32068 1.37735 0
M  V30 885 C 80.5244 4.54076 0.516131 0
M  V30 886 C 81.5214 5.19445 -0.217357 0
M  V30 887 C 79.2064 5.00304 0.44736 0
M  V30 888 C 81.2004 6.29378 -1.00807 0
M  V30 889 C 78.8874 6.10114 -0.347038 0
M  V30 890 C 79.8854 6.74512 -1.07344 0
M  V30 891 O 79.5734 7.82211 -1.85477 0
M  V30 892 H 79.3054 0.652193 0.177821 0
M  V30 893 H 81.8594 2.05091 -0.112543 0
M  V30 894 H 80.0894 3.20206 2.16807 0
M  V30 895 H 81.7784 3.55981 1.95019 0
M  V30 896 H 82.5444 4.84689 -0.173688 0
M  V30 897 H 78.4234 4.49971 1.00235 0
M  V30 898 H 81.9674 6.79575 -1.57556 0
M  V30 899 H 77.8644 6.44307 -0.392349 0
M  V30 900 H 78.6324 7.98982 -1.77678 0
M  V30 901 N 81.2955 -0.223234 1.56011 0
M  V30 902 C 82.2255 -1.27988 1.95298 0
M  V30 903 C 83.2065 -1.48976 0.820979 0
M  V30 904 O 84.3915 -1.61188 1.08315 0
M  V30 905 C 81.5215 -2.63 2.26822 0
M  V30 906 C 80.4755 -2.56671 3.42497 0
M  V30 907 C 79.8015 -3.95697 3.59622 0
M  V30 908 C 81.1015 -2.11601 4.77517 0
M  V30 909 H 82.7955 -0.953525 2.8381 0
M  V30 910 H 80.3415 -0.457244 1.36548 0
M  V30 911 H 82.2945 -3.37077 2.52898 0
M  V30 912 H 81.0185 -2.9732 1.35161 0
M  V30 913 H 79.6775 -1.85051 3.16467 0
M  V30 914 H 79.3255 -4.27322 2.6534 0
M  V30 915 H 79.0255 -3.92345 4.37424 0
M  V30 916 H 80.5495 -4.71438 3.88044 0
M  V30 917 H 81.9635 -2.7542 5.02809 0
M  V30 918 H 80.3605 -2.19311 5.5859 0
M  V30 919 H 81.4305 -1.06824 4.72987 0
M  V30 920 N 82.7736 -1.49793 -0.48987 0
M  V30 921 C 83.7056 -1.63413 -1.60713 0
M  V30 922 C 84.7186 -0.516329 -1.54395 0
M  V30 923 O 85.9076 -0.788812 -1.60125 0
M  V30 924 C 83.0076 -1.58516 -2.99543 0
M  V30 925 C 82.1806 -2.86016 -3.30928 0
M  V30 926 C 81.2396 -2.74018 -4.49222 0
M  V30 927 O 80.2656 -3.47964 -4.50455 0
M  V30 928 N 81.4676 -1.86309 -5.4979 0
M  V30 929 H 84.2326 -2.59777 -1.49452 0
M  V30 930 H 81.7936 -1.47022 -0.677955 0
M  V30 931 H 83.7856 -1.48128 -3.76617 0
M  V30 932 H 82.3556 -0.69965 -3.0467 0
M  V30 933 H 81.5756 -3.10672 -2.42645 0
M  V30 934 H 82.8636 -3.70521 -3.487 0
M  V30 935 H 82.2616 -1.2551 -5.51601 0
M  V30 936 H 80.8186 -1.81837 -6.25922 0
M  V30 937 N 84.2517 0.741722 -1.39055 0
M  V30 938 C 85.1997 1.87702 -1.3737 0
M  V30 939 C 86.1937 1.67427 -0.257812 0
M  V30 940 O 87.3997 1.7485 -0.427489 0
M  V30 941 H 83.7747 0.617757 -0.428812 0
M  V30 942 H 85.7457 1.86239 -2.33147 0
M  V30 943 C 84.4947 3.25315 -1.22741 0
M  V30 944 H 83.8177 3.41509 -2.07873 0
M  V30 945 H 85.2577 4.04964 -1.25618 0
M  V30 946 C 83.7167 3.36838 0.0647316 0
M  V30 947 O 84.2467 3.88073 1.03741 0
M  V30 948 N 82.4527 2.90329 0.125544 0
M  V30 949 H 81.9997 2.48823 -0.666682 0
M  V30 950 H 81.9577 2.98418 0.989639 0
M  V30 951 N 85.7298 1.2412 0.971189 0
M  V30 952 C 86.9778 1.07668 1.71032 0
M  V30 953 C 87.2988 -0.385797 1.91146 0
M  V30 954 O 86.5688 -1.27569 1.4867 0
M  V30 955 H 85.1488 0.395429 0.633755 0
M  V30 956 H 87.8108 1.55984 1.16855 0
M  V30 957 H 86.9068 1.57195 2.69622 0
M  V30 958 N 87.2079 -1.17134 1.05439 0
M  V30 959 C 88.6189 -1.69084 0.791676 0
M  V30 960 C 88.9699 -1.83822 -0.685839 0
M  V30 961 O 88.0949 -1.52757 -1.53278 0
M  V30 962 C 88.6899 -3.07119 1.4305 0
M  V30 963 C 87.2489 -3.56225 1.21577 0
M  V30 964 C 86.3959 -2.32421 1.51247 0
M  V30 965 H 89.3469 -1.01617 1.219 0
M  V30 966 H 89.3679 -3.71087 0.84112 0
M  V30 967 H 88.8799 -2.9636 2.50584 0
M  V30 968 H 86.9809 -3.72257 0.159787 0
M  V30 969 H 87.0939 -4.38837 1.92246 0
M  V30 970 H 85.4579 -2.3701 0.932653 0
M  V30 971 H 86.2409 -2.24268 2.5992 0
M  V30 972 N 88.686 -0.835752 -1.33615 0
M  V30 973 C 89.963 -0.352017 -1.92406 0
M  V30 974 C 90.343 1.16225 -1.76224 0
M  V30 975 O 89.691 1.97526 -1.14873 0
M  V30 976 C 89.901 -0.795485 -3.39813 0
M  V30 977 C 91.249 -0.801703 -4.16963 0
M  V30 978 O 92.273 -0.738889 -3.48452 0
M  V30 979 O 91.132 -0.886607 -5.3926 0
M  V30 980 H 88.226 -0.0989641 -0.821057 0
M  V30 981 H 90.772 -0.921397 -1.42507 0
M  V30 982 H 89.544 -1.83795 -3.45449 0
M  V30 983 H 89.167 -0.202505 -3.97084 0
M  V30 984 N 90.1641 1.46063 -0.591896 0
M  V30 985 C 91.5801 1.57561 -0.254288 0
M  V30 986 C 91.7801 1.58565 1.24336 0
M  V30 987 O 90.8361 1.50753 2.02558 0
M  V30 988 C 92.1491 2.86549 -0.911611 0
M  V30 989 C 93.6971 3.00197 -0.886059 0
M  V30 990 C 94.1721 4.31933 -1.5231 0
M  V30 991 N 95.6631 4.38654 -1.48786 0
M  V30 992 C 96.3981 5.39222 -1.95006 0
M  V30 993 N 95.8941 6.46414 -2.49241 0
M  V30 994 N 97.6871 5.3048 -1.85868 0
M  V30 995 H 89.8381 1.43655 -1.56451 0
M  V30 996 H 92.1011 0.68583 -0.654478 0
M  V30 997 H 91.8071 2.91651 -1.96551 0
M  V30 998 H 91.6811 3.74794 -0.425368 0
M  V30 999 H 94.0681 2.9467 0.159246 0
M  V30 1000 H 94.1491 2.13403 -1.41041 0
M  V30 1001 H 93.7931 4.38217 -2.56765 0
M  V30 1002 H 93.7231 5.17516 -0.973891 0
M  V30 1003 H 96.2141 3.61793 -1.09151 0
M  V30 1004 H 96.5271 7.19376 -2.82344 0
M  V30 1005 H 94.8721 6.47208 -2.53272 0
M  V30 1006 H 98.0631 4.45643 -1.43248 0
M  V30 1007 H 98.2361 6.08711 -2.22204 0
M  V30 1008 N 91.6422 0.330177 1.54103 0
M  V30 1009 C 92.8912 -0.271336 1.99867 0
M  V30 1010 C 93.2042 -1.52723 1.22209 0
M  V30 1011 O 94.4102 -2.20515 1.58383 0
M  V30 1012 C 92.8662 -0.534032 3.55916 0
M  V30 1013 C 92.4742 0.705193 4.42415 0
M  V30 1014 C 94.2182 -1.09514 4.1013 0
M  V30 1015 C 92.1252 0.414035 5.89949 0
M  V30 1016 H 91.0552 -0.105166 0.74663 0
M  V30 1017 H 93.7062 0.443429 1.78062 0
M  V30 1018 H 92.0882 -1.30915 3.73734 0
M  V30 1019 H 93.2622 1.4804 4.36372 0
M  V30 1020 H 91.5772 1.18698 3.99124 0
M  V30 1021 H 94.1742 -1.3277 5.17954 0
M  V30 1022 H 94.5172 -2.04656 3.62521 0
M  V30 1023 H 95.0502 -0.381038 3.95971 0
M  V30 1024 H 91.7892 1.33481 6.41766 0
M  V30 1025 H 91.3092 -0.323336 5.98928 0
M  V30 1026 H 92.9882 0.0263105 6.46995 0
M  V30 1027 N 93.1203 -1.57491 0.0584922 0
M  V30 1028 C 94.3683 -1.92597 -0.612436 0
M  V30 1029 C 94.6893 -0.938162 -1.70949 0
M  V30 1030 O 93.9593 0.0158301 -1.95894 0
M  V30 1031 H 92.5393 -0.710964 -0.229214 0
M  V30 1032 H 95.2013 -1.94571 0.113218 0
M  V30 1033 H 94.2973 -2.94038 -1.04633 0
M  V30 1034 N 94.5984 0.214957 -1.56127 0
M  V30 1035 C 96.0144 0.564948 -1.49267 0
M  V30 1036 C 96.2144 1.86827 -0.754838 0
M  V30 1037 O 95.2704 2.50745 -0.297198 0
M  V30 1038 C 96.5834 0.638071 -2.93852 0
M  V30 1039 C 98.1314 0.728253 -3.0441 0
M  V30 1040 C 98.6064 0.832663 -4.50367 0
M  V30 1041 N 100.097 0.896712 -4.54437 0
M  V30 1042 C 100.832 0.997324 -5.6466 0
M  V30 1043 N 100.328 1.06147 -6.8462 0
M  V30 1044 N 102.121 1.03297 -5.52527 0
M  V30 1045 H 94.2724 -0.640211 -2.02522 0
M  V30 1046 H 96.5354 -0.225507 -0.920788 0
M  V30 1047 H 96.2414 -0.250126 -3.50809 0
M  V30 1048 H 96.1154 1.49947 -3.46115 0
M  V30 1049 H 98.5024 1.60689 -2.47514 0
M  V30 1050 H 98.5834 -0.158952 -2.55306 0
M  V30 1051 H 98.2274 -0.0415417 -5.07883 0
M  V30 1052 H 98.1574 1.73538 -4.97184 0
M  V30 1053 H 100.648 0.857188 -3.6805 0
M  V30 1054 H 100.961 1.1382 -7.64372 0
M  V30 1055 H 99.3064 1.03049 -6.87318 0
M  V30 1056 H 102.497 0.979558 -4.57736 0
M  V30 1057 H 102.67 1.10793 -6.38458 0
M  V30 1058 N 96.0765 1.50051 0.48192 0
M  V30 1059 C 97.0065 1.71046 1.58951 0
M  V30 1060 C 97.9875 0.559288 1.60642 0
M  V30 1061 O 99.1725 0.797243 1.77081 0
M  V30 1062 C 96.3025 1.79462 2.97339 0
M  V30 1063 C 95.2565 2.94558 3.10515 0
M  V30 1064 C 94.5825 2.88105 4.50444 0
M  V30 1065 C 95.8825 4.35227 2.88747 0
M  V30 1066 H 97.5765 2.6378 1.41635 0
M  V30 1067 H 95.1225 1.26936 0.679942 0
M  V30 1068 H 97.0755 1.92734 3.74742 0
M  V30 1069 H 95.7995 0.833412 3.15788 0
M  V30 1070 H 94.4585 2.80918 2.35543 0
M  V30 1071 H 94.1065 1.89853 4.65795 0
M  V30 1072 H 93.8065 3.65366 4.60197 0
M  V30 1073 H 95.3305 3.03412 5.29881 0
M  V30 1074 H 96.7445 4.49449 3.55905 0
M  V30 1075 H 95.1415 5.13856 3.09955 0
M  V30 1076 H 96.2115 4.48347 1.84696 0
M  V30 1077 N 97.5546 -0.734337 1.39446 0
M  V30 1078 C 98.7846 -1.52137 1.39778 0
M  V30 1079 C 99.1926 -1.89198 -0.00929312 0
M  V30 1080 O 98.5356 -1.54666 -0.991168 0
M  V30 1081 C 98.5976 -2.83762 2.20724 0
M  V30 1082 C 98.2616 -2.69131 3.69347 0
M  V30 1083 C 99.2586 -2.37635 4.62413 0
M  V30 1084 C 96.9436 -2.85982 4.1294 0
M  V30 1085 C 98.9376 -2.23172 5.97054 0
M  V30 1086 C 96.6246 -2.71137 5.47657 0
M  V30 1087 C 97.6226 -2.39777 6.39528 0
M  V30 1088 O 97.3106 -2.25026 7.71763 0
M  V30 1089 H 97.0426 -0.476717 0.479288 0
M  V30 1090 H 99.5966 -0.915012 1.83893 0
M  V30 1091 H 97.8266 -3.4666 1.71359 0
M  V30 1092 H 99.5156 -3.45383 2.13226 0
M  V30 1093 H 100.282 -2.24267 4.30034 0
M  V30 1094 H 96.1606 -3.09383 3.41765 0
M  V30 1095 H 99.7046 -1.98617 6.68728 0
M  V30 1096 H 95.6016 -2.84083 5.79626 0
M  V30 1097 H 96.3696 -2.40091 7.82495 0
M  V30 1098 N 99.0327 -1.24633 -0.964593 0
M  V30 1099 C 99.9797 -1.04144 -2.05968 0
M  V30 1100 C 100.95 0.046262 -1.66036 0
M  V30 1101 O 102.135 -0.108972 -1.90489 0
M  V30 1102 C 99.2747 -0.65563 -3.38815 0
M  V30 1103 C 98.3877 -1.81714 -3.91923 0
M  V30 1104 C 97.5227 -1.37662 -5.13052 0
M  V30 1105 C 96.5617 -2.50788 -5.58365 0
M  V30 1106 N 95.6987 -2.07582 -6.70712 0
M  V30 1107 H 100.539 -1.9787 -2.22827 0
M  V30 1108 H 98.0757 -0.9855 -1.09208 0
M  V30 1109 H 100.034 -0.412954 -4.15151 0
M  V30 1110 H 98.6637 0.244627 -3.21872 0
M  V30 1111 H 97.7157 -2.1734 -3.12198 0
M  V30 1112 H 99.0277 -2.66705 -4.21509 0
M  V30 1113 H 98.1817 -1.093 -5.96773 0
M  V30 1114 H 96.9207 -0.497293 -4.85158 0
M  V30 1115 H 95.9257 -2.79906 -4.73215 0
M  V30 1116 H 97.1507 -3.39283 -5.88272 0
M  V30 1117 H 95.0967 -1.22051 -6.44546 0
M  V30 1118 H 95.0137 -2.86125 -6.99763 0
M  V30 1119 H 96.2817 -1.82369 -7.57867 0
M  V30 1120 N 100.511 1.16574 -1.06058 0
M  V30 1121 C 101.458 2.20883 -0.669263 0
M  V30 1122 C 102.428 1.62729 0.332918 0
M  V30 1123 O 103.613 1.895 0.222346 0
M  V30 1124 C 100.753 3.45049 -0.0593572 0
M  V30 1125 C 99.8658 4.17458 -1.11143 0
M  V30 1126 C 99.0008 5.29135 -0.467916 0
M  V30 1127 C 98.0398 5.93343 -1.50369 0
M  V30 1128 N 97.1768 6.96516 -0.883706 0
M  V30 1129 H 102.017 2.53709 -1.5632 0
M  V30 1130 H 99.5538 1.24616 -0.781625 0
M  V30 1131 H 101.512 4.16033 0.311771 0
M  V30 1132 H 100.142 3.12781 0.797992 0
M  V30 1133 H 99.1938 3.45101 -1.60029 0
M  V30 1134 H 100.506 4.61307 -1.89731 0
M  V30 1135 H 99.6598 6.06684 -0.0436871 0
M  V30 1136 H 98.3988 4.86443 0.349864 0
M  V30 1137 H 97.4038 5.14517 -1.93784 0
M  V30 1138 H 98.6288 6.38114 -2.32352 0
M  V30 1139 H 96.5748 6.55943 -0.086595 0
M  V30 1140 H 96.4918 7.38723 -1.607 0
M  V30 1141 H 97.7598 7.77993 -0.484543 0
M  V30 1142 N 101.989 0.842826 1.3317 0
M  V30 1143 C 102.952 0.284065 2.27433 0
M  V30 1144 C 103.952 -0.54948 1.5112 0
M  V30 1145 O 105.142 -0.362699 1.70382 0
M  V30 1146 C 102.274 -0.599384 3.35589 0
M  V30 1147 H 103.467 1.11589 2.78366 0
M  V30 1148 H 101.02 0.616221 1.4364 0
M  V30 1149 H 101.755 -1.45349 2.89904 0
M  V30 1150 H 101.54 -0.00291266 3.921 0
M  V30 1151 H 103.03 -0.983488 4.05854 0
M  V30 1152 N 103.467 -1.45747 0.599634 0
M  V30 1153 C 104.397 -2.33235 -0.111306 0
M  V30 1154 C 105.378 -1.46359 -0.866781 0
M  V30 1155 O 106.563 -1.75146 -0.838904 0
M  V30 1156 C 103.693 -3.28932 -1.11451 0
M  V30 1157 C 102.647 -4.25381 -0.472772 0
M  V30 1158 C 101.973 -5.1071 -1.58365 0
M  V30 1159 C 103.273 -5.18831 0.600948 0
M  V30 1160 H 104.967 -2.92927 0.61919 0
M  V30 1161 H 102.513 -1.40857 0.299215 0
M  V30 1162 H 104.466 -3.89002 -1.62036 0
M  V30 1163 H 103.19 -2.67381 -1.8755 0
M  V30 1164 H 101.849 -3.66598 0.0121472 0
M  V30 1165 H 101.497 -4.45533 -2.33473 0
M  V30 1166 H 101.197 -5.7604 -1.15982 0
M  V30 1167 H 102.721 -5.73647 -2.09194 0
M  V30 1168 H 104.135 -5.73019 0.179491 0
M  V30 1169 H 102.532 -5.92595 0.946076 0
M  V30 1170 H 103.602 -4.6174 1.48068 0
M  V30 1171 N 104.945 -0.338344 -1.53925 0
M  V30 1172 C 106.175 0.260919 -2.04946 0
M  V30 1173 C 106.583 1.45174 -1.2133 0
M  V30 1174 O 105.926 1.82122 -0.240262 0
M  V30 1175 C 105.988 0.744596 -3.51704 0
M  V30 1176 C 105.652 -0.325883 -4.55837 0
M  V30 1177 C 106.649 -1.16687 -5.06636 0
M  V30 1178 C 104.334 -0.478317 -5.00017 0
M  V30 1179 C 106.328 -2.14588 -6.00192 0
M  V30 1180 C 104.015 -1.46073 -5.93385 0
M  V30 1181 C 105.013 -2.29297 -6.4336 0
M  V30 1182 O 104.701 -3.25867 -7.34892 0
M  V30 1183 H 104.433 0.0551207 -0.673749 0
M  V30 1184 H 106.987 -0.486984 -1.99544 0
M  V30 1185 H 105.217 1.54366 -3.54553 0
M  V30 1186 H 106.906 1.26383 -3.85723 0
M  V30 1187 H 107.672 -1.06016 -4.73271 0
M  V30 1188 H 103.551 0.159613 -4.60724 0
M  V30 1189 H 107.095 -2.79585 -6.39123 0
M  V30 1190 H 102.992 -1.56802 -6.26166 0
M  V30 1191 H 103.76 -3.21278 -7.5281 0
M  V30 1192 N 106.423 1.57458 -0.0668435 0
M  V30 1193 C 107.353 2.15468 0.899764 0
M  V30 1194 C 108.334 1.08042 1.31381 0
M  V30 1195 O 109.519 1.36054 1.38574 0
M  V30 1196 C 106.649 2.71232 2.16911 0
M  V30 1197 C 105.603 3.83781 1.89463 0
M  V30 1198 C 104.929 4.26127 3.22986 0
M  V30 1199 C 106.229 5.08238 1.20381 0
M  V30 1200 H 107.923 2.96488 0.416529 0
M  V30 1201 H 105.469 1.4262 0.198908 0
M  V30 1202 H 107.422 3.10458 2.84945 0
M  V30 1203 H 106.146 1.87426 2.67468 0
M  V30 1204 H 104.805 3.45051 1.23836 0
M  V30 1205 H 104.453 3.39249 3.71374 0
M  V30 1206 H 104.153 5.01993 3.05413 0
M  V30 1207 H 105.677 4.67966 3.92225 0
M  V30 1208 H 107.091 5.44811 1.78475 0
M  V30 1209 H 105.488 5.89349 1.13083 0
M  V30 1210 H 106.558 4.84558 0.182153 0
M  V30 1211 N 107.901 -0.206675 1.56239 0
M  V30 1212 C 108.833 -1.27997 1.9013 0
M  V30 1213 C 109.846 -1.42299 0.790883 0
M  V30 1214 O 111.035 -1.42931 1.06925 0
M  V30 1215 C 108.135 -2.65368 2.10792 0
M  V30 1216 C 107.308 -2.72824 3.41886 0
M  V30 1217 C 106.367 -3.9131 3.51799 0
M  V30 1218 O 105.393 -3.78953 4.24716 0
M  V30 1219 N 106.595 -5.06265 2.84035 0
M  V30 1220 H 109.36 -0.992444 2.82791 0
M  V30 1221 H 106.921 -0.396652 1.56966 0
M  V30 1222 H 108.913 -3.43039 2.14724 0
M  V30 1223 H 107.483 -2.86657 1.24685 0
M  V30 1224 H 106.703 -1.81515 3.49923 0
M  V30 1225 H 107.991 -2.74786 4.28217 0
M  V30 1226 H 107.389 -5.19203 2.246 0
M  V30 1227 H 105.946 -5.81925 2.93609 0
M  V30 1228 N 109.379 -1.50304 -0.473955 0
M  V30 1229 C 110.609 -1.64663 -1.24778 0
M  V30 1230 C 111.017 -0.328174 -1.86332 0
M  V30 1231 O 110.36 0.699536 -1.69859 0
M  V30 1232 C 110.422 -2.6778 -2.39863 0
M  V30 1233 C 110.086 -4.11413 -1.98969 0
M  V30 1234 C 111.083 -4.97372 -1.51385 0
M  V30 1235 C 108.768 -4.57312 -2.07777 0
M  V30 1236 C 110.762 -6.27277 -1.13148 0
M  V30 1237 C 108.449 -5.87223 -1.69152 0
M  V30 1238 C 109.447 -6.72031 -1.21915 0
M  V30 1239 O 109.135 -7.99518 -0.838237 0
M  V30 1240 H 108.867 -0.556602 -0.383627 0
M  V30 1241 H 111.421 -1.9726 -0.572491 0
M  V30 1242 H 109.651 -2.30419 -3.10554 0
M  V30 1243 H 111.34 -2.71388 -3.01833 0
M  V30 1244 H 112.106 -4.63128 -1.44004 0
M  V30 1245 H 107.985 -3.91449 -2.43493 0
M  V30 1246 H 111.529 -6.93425 -0.762077 0
M  V30 1247 H 107.426 -6.20989 -1.76191 0
M  V30 1248 H 108.194 -8.12764 -0.967339 0
M  V30 1249 N 110.857 0.726932 -1.39834 0
M  V30 1250 C 112.085 1.51613 -1.40787 0
M  V30 1251 C 112.5 1.88799 -0.00451505 0
M  V30 1252 O 111.857 1.54662 0.968809 0
M  V30 1253 C 111.908 2.79863 -2.28821 0
M  V30 1254 O 111.629 2.44253 -3.63692 0
M  V30 1255 C 113.13 3.73837 -2.38245 0
M  V30 1256 H 110.35 0.468264 -0.480593 0
M  V30 1257 H 112.894 0.897607 -1.83748 0
M  V30 1258 H 111.049 3.38027 -1.89252 0
M  V30 1259 H 111.463 3.26695 -4.1033 0
M  V30 1260 H 112.937 4.60699 -3.04073 0
M  V30 1261 H 113.414 4.16153 -1.40403 0
M  V30 1262 H 114.02 3.21589 -2.78317 0
M  V30 1263 N 112.336 1.25143 0.95797 0
M  V30 1264 C 113.613 1.00472 1.67823 0
M  V30 1265 C 113.993 -0.470056 2.058 0
M  V30 1266 O 113.341 -1.44663 1.76875 0
M  V30 1267 C 113.551 1.9372 2.90299 0
M  V30 1268 C 114.899 2.21371 3.62326 0
M  V30 1269 O 115.923 1.91451 3.00375 0
M  V30 1270 O 114.782 2.72231 4.7387 0
M  V30 1271 H 111.876 0.380752 0.734137 0
M  V30 1272 H 114.422 1.36283 1.01119 0
M  V30 1273 H 113.194 2.93316 2.59001 0
M  V30 1274 H 112.817 1.58286 3.64735 0
M  V30 1275 N 113.814 -1.1601 1.06675 0
M  V30 1276 C 114.724 -2.24156 0.692179 0
M  V30 1277 C 115.74 -1.71507 -0.293513 0
M  V30 1278 O 116.916 -2.009 -0.141861 0
M  V30 1279 C 113.981 -3.46587 0.0884131 0
M  V30 1280 C 113.042 -4.14257 1.12646 0
M  V30 1281 C 112.275 -5.30844 0.551416 0
M  V30 1282 O 112.498 -5.66858 -0.634656 0
M  V30 1283 O 111.432 -5.87848 1.29298 0
M  V30 1284 H 115.258 -2.58513 1.59388 0
M  V30 1285 H 112.843 -1.23599 0.83926 0
M  V30 1286 H 114.725 -4.20679 -0.246361 0
M  V30 1287 H 113.4 -3.13994 -0.786712 0
M  V30 1288 H 112.307 -3.42118 1.51348 0
M  V30 1289 H 113.64 -4.50914 1.97325 0
M  V30 1290 N 115.292 -0.849877 -1.32721 0
M  V30 1291 C 116.52 -0.464754 -2.01613 0
M  V30 1292 C 116.935 0.937191 -1.63897 0
M  V30 1293 O 116.292 1.61081 -0.857856 0
M  V30 1294 C 116.343 -0.588638 -3.56675 0
M  V30 1295 O 116.064 -1.93535 -3.93034 0
M  V30 1296 C 117.565 -0.2019 -4.4284 0
M  V30 1297 H 114.785 -0.183215 -0.645502 0
M  V30 1298 H 117.329 -1.1455 -1.69407 0
M  V30 1299 H 115.484 0.0443159 -3.87375 0
M  V30 1300 H 115.898 -1.92871 -4.87751 0
M  V30 1301 H 117.372 -0.339599 -5.50954 0
M  V30 1302 H 117.849 0.857224 -4.30753 0
M  V30 1303 H 118.455 -0.809733 -4.17521 0
M  V30 1304 N 116.77 1.45427 -0.607355 0
M  V30 1305 C 118.017 2.02241 -0.102455 0
M  V30 1306 C 118.345 1.4758 1.26691 0
M  V30 1307 O 117.6 0.640468 1.84923 0
M  V30 1308 C 117.899 3.57398 -0.0129263 0
M  V30 1309 C 117.565 4.3121 -1.31792 0
M  V30 1310 C 116.227 4.51092 -1.67539 0
M  V30 1311 C 118.579 4.73401 -2.18039 0
M  V30 1312 C 115.907 5.10422 -2.89285 0
M  V30 1313 C 118.259 5.34078 -3.39034 0
M  V30 1314 C 116.923 5.52184 -3.75033 0
M  V30 1315 H 116.193 0.740051 -0.037491 0
M  V30 1316 H 118.84 1.74494 -0.788926 0
M  V30 1317 H 117.145 3.84421 0.756806 0
M  V30 1318 H 118.842 3.99061 0.393881 0
M  V30 1319 H 115.432 4.16047 -1.02968 0
M  V30 1320 H 119.616 4.57774 -1.91721 0
M  V30 1321 H 114.872 5.22629 -3.17283 0
M  V30 1322 H 119.046 5.65724 -4.06115 0
M  V30 1323 H 116.673 5.97925 -4.69457 0
M  V30 1324 N 118.248 0.346503 1.53744 0
M  V30 1325 C 119.664 -0.00530975 1.59599 0
M  V30 1326 C 119.864 -1.48465 1.36236 0
M  V30 1327 O 118.92 -2.24376 1.15808 0
M  V30 1328 C 120.233 0.433516 2.97559 0
M  V30 1329 C 121.781 0.386111 3.10609 0
M  V30 1330 C 122.256 0.800451 4.50951 0
M  V30 1331 N 123.747 0.754753 4.5701 0
M  V30 1332 C 124.482 1.04727 5.63755 0
M  V30 1333 N 123.978 1.4081 6.7834 0
M  V30 1334 N 125.771 0.971316 5.53644 0
M  V30 1335 H 117.922 1.31009 1.67184 0
M  V30 1336 H 120.185 0.534242 0.783128 0
M  V30 1337 H 119.891 1.46509 3.19731 0
M  V30 1338 H 119.765 -0.189753 3.76722 0
M  V30 1339 H 122.152 -0.636295 2.88158 0
M  V30 1340 H 122.233 1.04462 2.33498 0
M  V30 1341 H 121.877 1.82088 4.74137 0
M  V30 1342 H 121.807 0.119386 5.26465 0
M  V30 1343 H 124.298 0.488662 3.74727 0
M  V30 1344 H 124.611 1.61607 7.55714 0
M  V30 1345 H 122.956 1.44657 6.79779 0
M  V30 1346 H 126.147 0.688748 4.63005 0
M  V30 1347 H 126.32 1.20263 6.36742 0
M  V30 1348 N 119.726 -1.57421 0.075193 0
M  V30 1349 C 120.954 -1.97946 -0.602076 0
M  V30 1350 C 121.369 -0.953674 -1.62943 0
M  V30 1351 O 120.726 0.0592551 -1.82404 0
M  V30 1352 C 120.777 -3.38546 -1.26762 0
M  V30 1353 O 120.498 -4.37195 -0.281376 0
M  V30 1354 C 121.999 -3.93966 -2.03239 0
M  V30 1355 H 119.219 -0.650918 -0.162931 0
M  V30 1356 H 121.763 -2.03959 0.148601 0
M  V30 1357 H 119.918 -3.33609 -1.96936 0
M  V30 1358 H 120.332 -5.18975 -0.759267 0
M  V30 1359 H 121.806 -4.94555 -2.45193 0
M  V30 1360 H 122.283 -3.30693 -2.8903 0
M  V30 1361 H 122.889 -4.02315 -1.37924 0
M  V30 1362 N 121.204 0.198386 -1.56346 0
M  V30 1363 C 122.432 0.935572 -1.84539 0
M  V30 1364 C 122.847 1.76989 -0.657281 0
M  V30 1365 O 122.204 1.78626 0.374043 0
M  V30 1366 C 122.255 1.8344 -3.11499 0
M  V30 1367 O 121.976 1.03377 -4.25728 0
M  V30 1368 C 123.477 2.68355 -3.52846 0
M  V30 1369 H 120.697 0.273126 -0.612897 0
M  V30 1370 H 123.241 0.20663 -2.03453 0
M  V30 1371 H 121.396 2.51701 -2.94492 0
M  V30 1372 H 121.81 1.64599 -4.98003 0
M  V30 1373 H 123.284 3.27085 -4.44657 0
M  V30 1374 H 123.761 3.41901 -2.75681 0
M  V30 1375 H 124.367 2.05471 -3.72373 0
M  V30 1376 N 122.682 1.50554 0.465978 0
M  V30 1377 C 123.931 1.61038 1.21448 0
M  V30 1378 C 124.244 0.31865 1.92987 0
M  V30 1379 O 125.45 0.302469 2.6981 0
M  V30 1380 C 123.906 2.84283 2.20706 0
M  V30 1381 C 123.514 4.20352 1.54946 0
M  V30 1382 C 125.258 3.04115 2.96166 0
M  V30 1383 C 123.165 5.34778 2.5252 0
M  V30 1384 H 122.095 0.599718 0.457005 0
M  V30 1385 H 124.746 1.7699 0.484424 0
M  V30 1386 H 123.128 2.61901 2.97025 0
M  V30 1387 H 124.302 4.53008 0.843811 0
M  V30 1388 H 122.617 4.06167 0.917475 0
M  V30 1389 H 125.214 3.86774 3.69202 0
M  V30 1390 H 125.557 2.16045 3.55852 0
M  V30 1391 H 126.09 3.26702 2.26959 0
M  V30 1392 H 122.829 6.25018 1.97566 0
M  V30 1393 H 122.349 5.06534 3.21222 0
M  V30 1394 H 124.028 5.65561 3.14245 0
M  V30 1395 N 124.16 -0.719506 1.40217 0
M  V30 1396 C 125.07 -1.86378 1.42479 0
M  V30 1397 C 126.086 -1.71073 0.317834 0
M  V30 1398 O 127.262 -1.93406 0.561794 0
M  V30 1399 C 124.327 -3.22136 1.28178 0
M  V30 1400 C 123.388 -3.49723 2.48982 0
M  V30 1401 C 122.621 -4.79004 2.35353 0
M  V30 1402 O 122.844 -5.53821 1.36524 0
M  V30 1403 O 121.778 -5.06839 3.2465 0
M  V30 1404 H 125.604 -1.87425 2.38968 0
M  V30 1405 H 123.189 -0.869405 1.21498 0
M  V30 1406 H 125.071 -4.03234 1.22395 0
M  V30 1407 H 123.746 -3.21825 0.347934 0
M  V30 1408 H 122.653 -2.6865 2.60342 0
M  V30 1409 H 123.986 -3.54828 3.41113 0
M  V30 1410 N 125.638 -1.25649 -0.95132 0
M  V30 1411 C 126.585 -1.06323 -2.04851 0
M  V30 1412 C 127.555 0.0286491 -1.66075 0
M  V30 1413 O 128.74 -0.12917 -1.90362 0
M  V30 1414 C 125.88 -0.691529 -3.381 0
M  V30 1415 C 124.993 -1.85861 -3.89974 0
M  V30 1416 C 124.128 -1.43096 -5.11563 0
M  V30 1417 C 123.167 -2.56696 -5.55674 0
M  V30 1418 N 122.304 -2.14684 -6.68472 0
M  V30 1419 H 127.144 -2.00222 -2.20715 0
M  V30 1420 H 124.681 -0.997027 -1.08156 0
M  V30 1421 H 126.639 -0.456963 -4.1469 0
M  V30 1422 H 125.269 0.210474 -3.22113 0
M  V30 1423 H 124.321 -2.20639 -3.09875 0
M  V30 1424 H 125.633 -2.71161 -4.18657 0
M  V30 1425 H 124.787 -1.15624 -5.9558 0
M  V30 1426 H 123.526 -0.548722 -4.84603 0
M  V30 1427 H 122.531 -2.84909 -4.7022 0
M  V30 1428 H 123.756 -3.45503 -5.8464 0
M  V30 1429 H 121.702 -1.28881 -6.43215 0
M  V30 1430 H 121.619 -2.9353 -6.96689 0
M  V30 1431 H 122.887 -1.90397 -7.5589 0
M  V30 1432 N 127.117 1.15442 -1.07289 0
M  V30 1433 C 128.528 1.67803 -0.818475 0
M  V30 1434 C 128.879 1.8489 0.656507 0
M  V30 1435 O 128.004 1.55176 1.50829 0
M  V30 1436 C 128.599 3.04805 -1.47917 0
M  V30 1437 C 127.158 3.54245 -1.27229 0
M  V30 1438 C 126.305 2.29986 -1.54925 0
M  V30 1439 H 129.256 0.996646 -1.23502 0
M  V30 1440 H 129.277 3.69702 -0.90005 0
M  V30 1441 H 128.789 2.92336 -2.55267 0
M  V30 1442 H 126.89 3.71956 -0.21899 0
M  V30 1443 H 127.003 4.35723 -1.99203 0
M  V30 1444 H 125.367 2.35496 -0.970242 0
M  V30 1445 H 126.15 2.20105 -2.63455 0
M  V30 1446 N 128.595 0.856903 1.32268 0
M  V30 1447 C 129.841 0.462069 1.97466 0
M  V30 1448 C 130.174 -0.980298 1.67642 0
M  V30 1449 O 129.449 -1.68824 0.965858 0
M  V30 1450 C 129.732 0.704336 3.53145 0
M  V30 1451 C 129.585 2.19529 3.9259 0
M  V30 1452 C 130.904 0.1622 4.39801 0
M  V30 1453 H 128.023 0.169357 0.717278 0
M  V30 1454 H 130.665 1.07574 1.56614 0
M  V30 1455 H 128.815 0.181999 3.88073 0
M  V30 1456 H 130.487 2.78387 3.67829 0
M  V30 1457 H 128.73 2.67292 3.41668 0
M  V30 1458 H 129.401 2.31549 5.01088 0
M  V30 1459 H 131.877 0.608905 4.11621 0
M  V30 1460 H 130.753 0.361265 5.4771 0
M  V30 1461 H 131.014 -0.935158 4.32096 0
M  V30 1462 N 130.073 -1.45103 0.615059 0
M  V30 1463 C 131.319 -2.03035 0.121804 0
M  V30 1464 C 131.674 -1.47393 -1.23665 0
M  V30 1465 O 130.967 -0.642061 -1.80522 0
M  V30 1466 C 131.161 -3.57386 0.0318797 0
M  V30 1467 C 130.99 -4.28 1.38007 0
M  V30 1468 C 129.76 -4.65624 1.9627 0
M  V30 1469 C 131.958 -4.5948 2.31047 0
M  V30 1470 N 129.94 -5.21132 3.24492 0
M  V30 1471 C 131.311 -5.159 3.43872 0
M  V30 1472 C 133.366 -4.41423 2.30326 0
M  V30 1473 C 132.069 -5.56165 4.5615 0
M  V30 1474 C 134.095 -4.82726 3.41658 0
M  V30 1475 C 133.457 -5.39245 4.53205 0
M  V30 1476 H 129.556 -0.77702 0.0881159 0
M  V30 1477 H 132.14 -1.76819 0.815044 0
M  V30 1478 H 130.311 -3.83247 -0.630599 0
M  V30 1479 H 132.043 -4.01976 -0.468721 0
M  V30 1480 H 128.798 -4.49421 1.49392 0
M  V30 1481 H 129.222 -5.53377 3.90004 0
M  V30 1482 H 133.864 -3.97033 1.45343 0
M  V30 1483 H 131.582 -5.99517 5.41854 0
M  V30 1484 H 135.168 -4.7048 3.42257 0
M  V30 1485 H 134.048 -5.70616 5.37929 0
M  V30 1486 N 131.551 -0.354651 -1.53558 0
M  V30 1487 C 132.481 0.489091 -2.2832 0
M  V30 1488 C 133.462 1.09324 -1.30316 0
M  V30 1489 O 134.647 1.11255 -1.59173 0
M  V30 1490 C 131.777 1.63456 -3.0643 0
M  V30 1491 C 130.731 1.1582 -4.12031 0
M  V30 1492 C 130.057 2.39305 -4.7816 0
M  V30 1493 C 131.357 0.250731 -5.21698 0
M  V30 1494 H 133.051 -0.134614 -2.99097 0
M  V30 1495 H 130.597 -0.0661826 -1.43848 0
M  V30 1496 H 132.55 2.23136 -3.57475 0
M  V30 1497 H 131.274 2.28533 -2.33325 0
M  V30 1498 H 129.933 0.584146 -3.61916 0
M  V30 1499 H 129.581 3.02814 -4.01637 0
M  V30 1500 H 129.281 2.08109 -5.49513 0
M  V30 1501 H 130.805 2.99691 -5.31994 0
M  V30 1502 H 132.219 0.754695 -5.68311 0
M  V30 1503 H 130.616 0.0301468 -6.00092 0
M  V30 1504 H 131.686 -0.710125 -4.79672 0
M  V30 1505 N 133.029 1.57378 -0.0835403 0
M  V30 1506 C 134.277 1.93547 0.581718 0
M  V30 1507 C 134.598 0.96524 1.69435 0
M  V30 1508 O 133.868 0.0153369 1.95894 0
M  V30 1509 H 132.448 0.714521 0.217874 0
M  V30 1510 H 135.11 1.94366 -0.144158 0
M  V30 1511 H 134.206 2.95665 0.999423 0
M  V30 1512 N 134.507 -0.190092 1.56449 0
M  V30 1513 C 135.754 -0.909705 1.80916 0
M  V30 1514 C 136.082 -1.83047 0.657583 0
M  V30 1515 O 135.337 -1.92428 -0.356356 0
M  V30 1516 C 135.636 -1.75382 3.1141 0
M  V30 1517 C 135.302 -0.983606 4.40041 0
M  V30 1518 C 133.964 -0.770967 4.74984 0
M  V30 1519 C 136.316 -0.442024 5.19322 0
M  V30 1520 C 133.644 -0.0053448 5.867 0
M  V30 1521 C 135.996 0.310412 6.31838 0
M  V30 1522 C 134.66 0.534023 6.6536 0
M  V30 1523 H 133.93 -0.332885 0.662019 0
M  V30 1524 H 136.577 -0.175762 1.90692 0
M  V30 1525 H 134.882 -2.55659 2.96893 0
M  V30 1526 H 136.579 -2.31331 3.27547 0
M  V30 1527 H 133.169 -1.15936 4.12622 0
M  V30 1528 H 137.353 -0.593693 4.92736 0
M  V30 1529 H 132.609 0.177825 6.11141 0
M  V30 1530 H 136.783 0.737419 6.92485 0
M  V30 1531 H 134.41 1.12918 7.51767 0
M  V30 1532 N 135.985 -1.50799 -0.457987 0
M  V30 1533 C 136.915 -1.73553 -1.5621 0
M  V30 1534 C 137.896 -0.584774 -1.59732 0
M  V30 1535 O 139.081 -0.825314 -1.7579 0
M  V30 1536 C 136.211 -1.84169 -2.94447 0
M  V30 1537 C 135.165 -2.99461 -3.0579 0
M  V30 1538 C 134.491 -2.95235 -4.45803 0
M  V30 1539 C 135.791 -4.39766 -2.81786 0
M  V30 1540 H 137.485 -2.66 -1.37421 0
M  V30 1541 H 135.031 -1.28002 -0.659662 0
M  V30 1542 H 136.984 -1.98672 -3.71628 0
M  V30 1543 H 135.708 -0.883545 -3.14422 0
M  V30 1544 H 134.367 -2.8463 -2.31044 0
M  V30 1545 H 134.015 -1.97239 -4.62715 0
M  V30 1546 H 133.715 -3.72642 -4.54326 0
M  V30 1547 H 135.239 -3.11803 -5.24987 0
M  V30 1548 H 136.653 -4.55054 -3.4871 0
M  V30 1549 H 135.05 -5.18722 -3.0174 0
M  V30 1550 H 136.12 -4.51229 -1.7754 0
M  V30 1551 N 137.463 0.71206 -1.40597 0
M  V30 1552 C 138.711 1.46907 -1.38791 0
M  V30 1553 C 139.032 1.94998 0.00780391 0
M  V30 1554 O 138.302 1.70587 0.963174 0
M  V30 1555 H 136.882 0.545043 -0.51082 0
M  V30 1556 H 139.544 0.843882 -1.75683 0
M  V30 1557 H 138.64 2.34021 -2.06496 0
M  V30 1558 N 138.941 1.26152 0.944643 0
M  V30 1559 C 140.352 1.10454 1.50522 0
M  V30 1560 C 140.703 -0.31635 1.93633 0
M  V30 1561 O 139.828 -1.20746 1.79581 0
M  V30 1562 C 140.423 1.99891 2.73549 0
M  V30 1563 C 138.982 1.88348 3.25886 0
M  V30 1564 C 138.129 1.93447 1.9868 0
M  V30 1565 H 141.08 1.39292 0.760489 0
M  V30 1566 H 141.101 1.54477 3.47732 0
M  V30 1567 H 140.613 3.03297 2.42141 0
M  V30 1568 H 138.714 0.878636 3.62092 0
M  V30 1569 H 138.827 2.73696 3.93227 0
M  V30 1570 H 137.191 1.37456 2.14425 0
M  V30 1571 H 137.974 2.98476 1.69607 0
M  V30 1572 N 140.419 -1.14872 1.07899 0
M  V30 1573 C 141.668 -1.85135 0.800499 0
M  V30 1574 C 141.981 -1.83547 -0.676014 0
M  V30 1575 O 143.187 -2.49548 -1.06948 0
M  V30 1576 C 141.643 -3.3231 1.38197 0
M  V30 1577 C 141.251 -3.42329 2.8899 0
M  V30 1578 C 142.995 -4.0772 1.18174 0
M  V30 1579 C 140.902 -4.83684 3.403 0
M  V30 1580 H 139.832 -0.693563 0.29578 0
M  V30 1581 H 142.483 -1.29532 1.29976 0
M  V30 1582 H 140.865 -3.87618 0.810431 0
M  V30 1583 H 142.039 -2.97097 3.52236 0
M  V30 1584 H 140.354 -2.80369 3.07867 0
M  V30 1585 H 142.951 -5.12049 1.5398 0
M  V30 1586 H 143.294 -4.16124 0.12117 0
M  V30 1587 H 143.827 -3.58696 1.71994 0
M  V30 1588 H 140.566 -4.80465 4.45907 0
M  V30 1589 H 140.086 -5.29474 2.81811 0
M  V30 1590 H 141.765 -5.52558 3.36584 0
M  V30 1591 N 141.898 -0.863906 -1.31812 0
M  V30 1592 C 143.147 -0.46801 -1.96195 0
M  V30 1593 C 143.46 0.983474 -1.69077 0
M  V30 1594 O 144.666 1.48523 -2.27273 0
M  V30 1595 C 143.122 -0.785995 -3.51212 0
M  V30 1596 C 142.73 -2.25383 -3.87178 0
M  V30 1597 C 144.474 -0.458274 -4.22019 0
M  V30 1598 C 142.381 -2.51455 -5.3528 0
M  V30 1599 H 141.311 -0.171283 -0.734287 0
M  V30 1600 H 143.962 -1.05597 -1.50072 0
M  V30 1601 H 142.344 -0.127359 -3.95795 0
M  V30 1602 H 143.518 -2.95502 -3.53575 0
M  V30 1603 H 141.833 -2.54698 -3.2942 0
M  V30 1604 H 144.43 -0.630369 -5.30971 0
M  V30 1605 H 144.773 0.600834 -4.11941 0
M  V30 1606 H 145.306 -1.07319 -3.8305 0
M  V30 1607 H 142.045 -3.56025 -5.50387 0
M  V30 1608 H 141.565 -1.85923 -5.70257 0
M  V30 1609 H 143.244 -2.35874 -6.02472 0
M  V30 1610 N 143.376 1.44774 -0.622745 0
M  V30 1611 C 144.323 2.30635 0.0871679 0
M  V30 1612 C 145.293 1.42994 0.845097 0
M  V30 1613 O 146.478 1.71907 0.827812 0
M  V30 1614 C 143.618 3.28144 1.06844 0
M  V30 1615 C 142.731 4.30888 0.309809 0
M  V30 1616 C 141.866 5.15494 1.28215 0
M  V30 1617 C 140.905 6.09953 0.512198 0
M  V30 1618 N 140.042 6.87287 1.43458 0
M  V30 1619 H 144.882 2.90803 -0.650974 0
M  V30 1620 H 142.419 1.43286 -0.33281 0
M  V30 1621 H 144.377 3.83157 1.65066 0
M  V30 1622 H 143.007 2.69695 1.77382 0
M  V30 1623 H 142.059 3.78414 -0.388181 0
M  V30 1624 H 143.371 4.97955 -0.290254 0
M  V30 1625 H 142.525 5.74983 1.93596 0
M  V30 1626 H 141.264 4.48481 1.91614 0
M  V30 1627 H 140.269 5.49581 -0.155151 0
M  V30 1628 H 141.494 6.78999 -0.116958 0
M  V30 1629 H 139.44 6.2295 2.05594 0
M  V30 1630 H 139.357 7.50763 0.888335 0
M  V30 1631 H 140.625 7.51306 2.07749 0
M  V30 1632 N 144.854 0.36279 1.53368 0
M  V30 1633 C 145.817 -0.472679 2.24273 0
M  V30 1634 C 146.817 -1.012 1.24961 0
M  V30 1635 O 148.007 -0.898194 1.49259 0
M  V30 1636 C 145.139 -1.66039 2.97731 0
M  V30 1637 H 146.332 0.14773 2.99536 0
M  V30 1638 H 143.885 0.114434 1.55881 0
M  V30 1639 H 144.62 -2.31896 2.26704 0
M  V30 1640 H 144.405 -1.28066 3.70596 0
M  V30 1641 H 145.895 -2.25252 3.51641 0
M  V30 1642 N 146.332 -1.57332 0.0918853 0
M  V30 1643 C 147.242 -2.17368 -0.882505 0
M  V30 1644 C 148.258 -1.14226 -1.31257 0
M  V30 1645 O 149.434 -1.46582 -1.38115 0
M  V30 1646 C 146.499 -2.73962 -2.12476 0
M  V30 1647 C 145.56 -3.92048 -1.7492 0
M  V30 1648 C 144.793 -4.45933 -2.93223 0
M  V30 1649 O 145.016 -3.98764 -4.07852 0
M  V30 1650 O 143.95 -5.36999 -2.71875 0
M  V30 1651 H 147.776 -3.01031 -0.40172 0
M  V30 1652 H 145.361 -1.48813 -0.132291 0
M  V30 1653 H 147.243 -3.10147 -2.85283 0
M  V30 1654 H 145.918 -1.93347 -2.59613 0
M  V30 1655 H 144.825 -3.6068 -0.993025 0
M  V30 1656 H 146.158 -4.74017 -1.32548 0
M  V30 1657 N 147.81 0.181792 -1.56548 0
M  V30 1658 C 149.038 0.915947 -1.85521 0
M  V30 1659 C 149.453 1.76282 -0.676016 0
M  V30 1660 O 148.81 1.79012 0.355077 0
M  V30 1661 C 148.861 1.80126 -3.13427 0
M  V30 1662 O 148.582 0.988562 -4.26801 0
M  V30 1663 C 150.083 2.64597 -3.55673 0
M  V30 1664 H 147.303 0.26661 -0.61576 0
M  V30 1665 H 149.847 0.185039 -2.03661 0
M  V30 1666 H 148.002 2.48563 -2.97145 0
M  V30 1667 H 148.416 1.59308 -4.99721 0
M  V30 1668 H 149.89 3.2235 -4.48101 0
M  V30 1669 H 150.367 3.38958 -2.79292 0
M  V30 1670 H 150.973 2.0151 -3.74532 0
M  V30 1671 N 149.288 1.51039 0.449983 0
M  V30 1672 C 150.536 1.62759 1.19808 0
M  V30 1673 C 150.857 0.339981 1.92013 0
M  V30 1674 O 150.127 -0.643606 1.85026 0
M  V30 1675 H 148.707 0.599811 0.445237 0
M  V30 1676 H 151.369 1.87914 0.517138 0
M  V30 1677 H 150.465 2.44911 1.93455 0
M  V30 1678 N 150.766 -0.704594 1.40972 0
M  V30 1679 C 152.043 -1.45847 1.30338 0
M  V30 1680 C 152.423 -2.10973 -0.0732344 0
M  V30 1681 O 151.771 -2.00997 -1.08685 0
M  V30 1682 C 151.981 -2.48525 2.45023 0
M  V30 1683 C 153.329 -3.1404 2.8577 0
M  V30 1684 O 154.353 -2.58848 2.44696 0
M  V30 1685 O 153.212 -4.13981 3.56766 0
M  V30 1686 H 150.306 -0.649092 0.512454 0
M  V30 1687 H 152.852 -0.735836 1.52917 0
M  V30 1688 H 151.624 -1.98994 3.36923 0
M  V30 1689 H 151.247 -3.2831 2.24272 0
M  V30 1690 N 152.244 -1.26651 -0.937939 0
M  V30 1691 C 153.191 -1.0849 -2.03712 0
M  V30 1692 C 154.161 0.011033 -1.66096 0
M  V30 1693 O 155.346 -0.149353 -1.90215 0
M  V30 1694 C 152.486 -0.72735 -3.37348 0
M  V30 1695 C 151.599 -1.89986 -3.87981 0
M  V30 1696 C 150.734 -1.48513 -5.10017 0
M  V30 1697 C 149.773 -2.62575 -5.5292 0
M  V30 1698 N 148.91 -2.21762 -6.66158 0
M  V30 1699 H 153.75 -2.02551 -2.18579 0
M  V30 1700 H 151.287 -1.00844 -1.07093 0
M  V30 1701 H 153.245 -0.50092 -4.14182 0
M  V30 1702 H 151.875 0.176298 -3.22318 0
M  V30 1703 H 150.927 -2.23913 -3.07518 0
M  V30 1704 H 152.239 -2.75586 -4.15757 0
M  V30 1705 H 151.393 -1.21934 -5.94321 0
M  V30 1706 H 150.132 -0.60009 -4.83994 0
M  V30 1707 H 149.137 -2.8988 -4.67172 0
M  V30 1708 H 150.362 -3.51685 -5.80943 0
M  V30 1709 H 148.308 -1.35696 -6.41812 0
M  V30 1710 H 148.225 -3.00903 -6.93537 0
M  V30 1711 H 149.493 -1.98403 -7.53828 0
M  V30 1712 N 153.722 1.14298 -1.08507 0
M  V30 1713 C 154.968 1.85633 -0.816581 0
M  V30 1714 C 155.301 1.82784 0.656021 0
M  V30 1715 O 154.576 1.25926 1.48233 0
M  V30 1716 C 154.859 3.34223 -1.34041 0
M  V30 1717 C 154.712 3.45639 -2.87843 0
M  V30 1718 C 156.031 4.29356 -0.9665 0
M  V30 1719 H 153.15 0.67402 -0.298104 0
M  V30 1720 H 155.792 1.34214 -1.34487 0
M  V30 1721 H 153.942 3.78144 -0.89104 0
M  V30 1722 H 155.614 3.10498 -3.41158 0
M  V30 1723 H 153.857 2.86817 -3.25451 0
M  V30 1724 H 154.528 4.50089 -3.19569 0
M  V30 1725 H 157.004 3.93457 -1.35391 0
M  V30 1726 H 155.88 5.3178 -1.3602 0
M  V30 1727 H 156.141 4.41919 0.126362 0
M  V30 1728 N 155.201 0.870884 1.31352 0
M  V30 1729 C 156.431 0.496049 2.00557 0
M  V30 1730 C 156.839 -0.916241 1.65534 0
M  V30 1731 O 156.182 -1.61188 0.881134 0
M  V30 1732 C 156.244 0.574418 3.54881 0
M  V30 1733 C 155.908 1.94849 4.1338 0
M  V30 1734 C 156.905 2.91611 4.30417 0
M  V30 1735 C 154.59 2.25005 4.49086 0
M  V30 1736 C 156.584 4.16672 4.82352 0
M  V30 1737 C 154.271 3.50315 5.00722 0
M  V30 1738 C 155.269 4.45964 5.17306 0
M  V30 1739 O 154.957 5.69052 5.67833 0
M  V30 1740 H 154.689 0.191664 0.64826 0
M  V30 1741 H 157.243 1.17409 1.68536 0
M  V30 1742 H 155.473 -0.160549 3.86367 0
M  V30 1743 H 157.162 0.212879 4.05341 0
M  V30 1744 H 157.928 2.69622 4.03149 0
M  V30 1745 H 153.807 1.51332 4.35453 0
M  V30 1746 H 157.351 4.91336 4.95211 0
M  V30 1747 H 153.248 3.72147 5.27424 0
M  V30 1748 H 154.016 5.71236 5.86201 0
M  V30 1749 N 156.679 -1.44442 0.630414 0
M  V30 1750 C 157.925 -2.02351 0.134816 0
M  V30 1751 C 158.258 -1.4947 -1.23986 0
M  V30 1752 O 157.533 -0.678475 -1.82283 0
M  V30 1753 C 157.816 -3.59898 0.120707 0
M  V30 1754 C 157.669 -4.23063 1.52767 0
M  V30 1755 C 158.988 -4.36585 -0.555127 0
M  V30 1756 H 156.107 -0.73527 0.0504646 0
M  V30 1757 H 158.749 -1.72022 0.806751 0
M  V30 1758 H 156.899 -3.85868 -0.451477 0
M  V30 1759 H 158.571 -4.08202 2.14869 0
M  V30 1760 H 156.814 -3.80586 2.08175 0
M  V30 1761 H 157.485 -5.32071 1.46984 0
M  V30 1762 H 159.961 -4.16044 -0.0685429 0
M  V30 1763 H 158.837 -5.46294 -0.534185 0
M  V30 1764 H 159.098 -4.11138 -1.62535 0
M  V30 1765 N 158.157 -0.370918 -1.53173 0
M  V30 1766 C 159.107 0.489588 -2.22681 0
M  V30 1767 C 160.091 1.04442 -1.22395 0
M  V30 1768 O 161.283 0.973578 -1.47819 0
M  V30 1769 C 158.412 1.626 -3.02351 0
M  V30 1770 C 157.498 1.08379 -4.10018 0
M  V30 1771 N 157.889 0.265004 -5.05105 0
M  V30 1772 C 156.187 1.35809 -4.2482 0
M  V30 1773 C 156.888 -0.0324755 -5.81691 0
M  V30 1774 N 155.864 0.566581 -5.40639 0
M  V30 1775 H 159.666 -0.142729 -2.93553 0
M  V30 1776 H 157.18 -0.179221 -1.61408 0
M  V30 1777 H 159.177 2.2547 -3.50669 0
M  V30 1778 H 157.837 2.26132 -2.33011 0
M  V30 1779 H 158.848 -0.0962352 -5.17811 0
M  V30 1780 H 155.525 1.9958 -3.66707 0
M  V30 1781 H 156.915 -0.69473 -6.68299 0
M  V30 1782 N 159.635 1.57281 -0.100228 0
M  V30 1783 C 160.565 2.17328 0.853857 0
M  V30 1784 C 161.546 1.10804 1.2906 0
M  V30 1785 O 162.731 1.38963 1.35657 0
M  V30 1786 C 159.861 2.75772 2.11109 0
M  V30 1787 C 158.815 3.87713 1.81279 0
M  V30 1788 C 158.141 4.32882 3.13874 0
M  V30 1789 C 159.441 5.10677 1.09574 0
M  V30 1790 H 161.135 2.97305 0.353545 0
M  V30 1791 H 158.681 1.43009 0.168612 0
M  V30 1792 H 160.634 3.16433 2.78296 0
M  V30 1793 H 159.358 1.93057 2.63432 0
M  V30 1794 H 158.017 3.476 1.16489 0
M  V30 1795 H 157.665 3.47051 3.64095 0
M  V30 1796 H 157.365 5.08358 2.94696 0
M  V30 1797 H 158.889 4.7618 3.82211 0
M  V30 1798 H 160.303 5.48474 1.66879 0
M  V30 1799 H 158.7 5.91615 1.00557 0
M  V30 1800 H 159.77 4.84835 0.0793299 0
M  V30 1801 N 161.113 -0.173488 1.56642 0
M  V30 1802 C 162.06 -1.21482 1.96242 0
M  V30 1803 C 163.03 -1.44104 0.826027 0
M  V30 1804 O 164.215 -1.5688 1.08597 0
M  V30 1805 C 161.355 -2.54964 2.32567 0
M  V30 1806 C 160.468 -2.39739 3.59373 0
M  V30 1807 C 159.603 -3.66072 3.84921 0
M  V30 1808 C 158.642 -3.45771 5.05083 0
M  V30 1809 N 157.779 -4.64169 5.26775 0
M  V30 1810 H 162.619 -0.870123 2.85014 0
M  V30 1811 H 160.156 -0.418245 1.41029 0
M  V30 1812 H 162.114 -3.32758 2.5165 0
M  V30 1813 H 160.744 -2.87433 1.46908 0
M  V30 1814 H 159.796 -1.53131 3.48217 0
M  V30 1815 H 161.108 -2.20683 4.47326 0
M  V30 1816 H 160.262 -4.52303 4.0436 0
M  V30 1817 H 159.001 -3.88105 2.9534 0
M  V30 1818 H 158.006 -2.57927 4.85545 0
M  V30 1819 H 159.231 -3.25163 5.96193 0
M  V30 1820 H 157.177 -4.86425 4.40144 0
M  V30 1821 H 157.094 -4.48019 6.08946 0
M  V30 1822 H 158.362 -5.51689 5.5069 0
M  V30 1823 N 162.591 -1.51276 -0.441967 0
M  V30 1824 C 163.539 -1.72823 -1.55676 0
M  V30 1825 C 164.533 -0.59445 -1.58627 0
M  V30 1826 O 165.739 -0.775715 -1.62427 0
M  V30 1827 H 162.114 -0.545983 -0.517113 0
M  V30 1828 H 164.085 -2.6628 -1.34675 0
M  V30 1829 C 162.834 -1.86619 -2.93375 0
M  V30 1830 H 162.157 -2.73264 -2.91834 0
M  V30 1831 H 163.597 -2.05709 -3.70756 0
M  V30 1832 C 162.056 -0.624842 -3.31055 0
M  V30 1833 O 162.586 0.222636 -4.01083 0
M  V30 1834 N 160.792 -0.470288 -2.86769 0
M  V30 1835 H 160.339 -1.161 -2.29953 0
M  V30 1836 H 160.297 0.359051 -3.12343 0
M  V30 1837 N 164.069 0.697108 -1.41344 0
M  V30 1838 C 164.999 1.82353 -1.45841 0
M  V30 1839 C 165.98 1.67115 -0.317247 0
M  V30 1840 O 167.165 1.86871 -0.528474 0
M  V30 1841 C 164.295 3.20476 -1.33838 0
M  V30 1842 C 163.249 3.50415 -2.4575 0
M  V30 1843 C 162.575 4.87878 -2.18813 0
M  V30 1844 C 163.875 3.49546 -3.88091 0
M  V30 1845 H 165.569 1.78846 -2.40113 0
M  V30 1846 H 163.115 0.859028 -1.15571 0
M  V30 1847 H 165.068 3.98988 -1.35596 0
M  V30 1848 H 163.792 3.24604 -0.360498 0
M  V30 1849 H 162.451 2.74253 -2.43271 0
M  V30 1850 H 162.099 4.8863 -1.19371 0
M  V30 1851 H 161.799 5.08875 -2.93803 0
M  V30 1852 H 163.323 5.68702 -2.22284 0
M  V30 1853 H 164.737 4.18066 -3.92293 0
M  V30 1854 H 163.134 3.82075 -4.62751 0
M  V30 1855 H 164.204 2.48552 -4.16353 0
M  V30 1856 N 165.547 1.27147 0.931209 0
M  V30 1857 C 166.51 1.09615 2.01289 0
M  V30 1858 C 167.51 0.0412581 1.60747 0
M  V30 1859 O 168.7 0.285545 1.71844 0
M  V30 1860 C 165.832 0.669447 3.34262 0
M  V30 1861 H 167.025 2.05662 2.18273 0
M  V30 1862 H 164.578 1.09885 1.11153 0
M  V30 1863 H 165.313 -0.292572 3.22978 0
M  V30 1864 H 165.098 1.43127 3.65044 0
M  V30 1865 H 166.588 0.568921 4.13706 0
M  V30 1866 N 167.025 -1.13721 1.09112 0
M  V30 1867 C 168.25 -1.89314 0.847053 0
M  V30 1868 C 168.675 -1.78416 -0.595774 0
M  V30 1869 O 168.033 -1.12942 -1.41823 0
M  V30 1870 C 168.081 -3.3701 1.28284 0
M  V30 1871 O 167.185 -4.10054 0.439267 0
M  V30 1872 H 166.526 -0.588745 0.307044 0
M  V30 1873 H 169.056 -1.43902 1.45442 0
M  V30 1874 H 169.066 -3.87834 1.26683 0
M  V30 1875 H 167.741 -3.4426 2.33363 0
M  V30 1876 H 166.318 -3.69266 0.519312 0
M  V30 1877 N 168.503 -0.877838 -1.30888 0
M  V30 1878 C 169.919 -0.570844 -1.49042 0
M  V30 1879 C 170.119 0.893159 -1.80624 0
M  V30 1880 O 169.175 1.67485 -1.88958 0
M  V30 1881 C 170.488 -1.47784 -2.61878 0
M  V30 1882 C 172.036 -1.48071 -2.75761 0
M  V30 1883 C 172.511 -2.37347 -3.91702 0
M  V30 1884 N 174.002 -2.35271 -3.99001 0
M  V30 1885 C 174.737 -3.01063 -4.88004 0
M  V30 1886 N 174.233 -3.76055 -5.81854 0
M  V30 1887 N 176.026 -2.90332 -4.81315 0
M  V30 1888 H 168.177 -1.82502 -1.0866 0
M  V30 1889 H 170.44 -0.780797 -0.537644 0
M  V30 1890 H 170.146 -2.51993 -2.45341 0
M  V30 1891 H 170.02 -1.18215 -3.58197 0
M  V30 1892 H 172.407 -0.446166 -2.91708 0
M  V30 1893 H 172.488 -1.81668 -1.80085 0
M  V30 1894 H 172.132 -3.40883 -3.76512 0
M  V30 1895 H 172.062 -2.01071 -4.86701 0
M  V30 1896 H 174.553 -1.80768 -3.3186 0
M  V30 1897 H 174.866 -4.23366 -6.46514 0
M  V30 1898 H 173.211 -3.80163 -5.81808 0
M  V30 1899 H 176.402 -2.31278 -4.06974 0
M  V30 1900 H 176.575 -3.41885 -5.50471 0
M  V30 1901 N 169.982 1.44106 -0.638065 0
M  V30 1902 C 171.393 1.85316 -0.226894 0
M  V30 1903 C 171.744 1.53399 1.22324 0
M  V30 1904 O 170.869 0.975463 1.93167 0
M  V30 1905 C 171.464 3.3637 -0.405013 0
M  V30 1906 C 170.023 3.76369 -0.0482902 0
M  V30 1907 C 169.17 2.67921 -0.715108 0
M  V30 1908 H 172.121 1.34474 -0.842764 0
M  V30 1909 H 172.142 3.7885 0.354 0
M  V30 1910 H 171.654 3.59569 -1.46053 0
M  V30 1911 H 169.755 3.58784 1.00522 0
M  V30 1912 H 169.868 4.76856 -0.463187 0
M  V30 1913 H 168.232 2.54259 -0.149753 0
M  V30 1914 H 169.015 2.93951 -1.77335 0
M  V30 1915 N 171.46 0.379036 1.52974 0
M  V30 1916 C 172.69 -0.20649 2.05566 0
M  V30 1917 C 173.098 -1.41906 1.25137 0
M  V30 1918 O 172.441 -1.81421 0.288464 0
M  V30 1919 C 172.503 -0.651086 3.53555 0
M  V30 1920 C 172.167 0.446626 4.54812 0
M  V30 1921 C 173.164 1.30079 5.03364 0
M  V30 1922 C 170.849 0.610719 4.98573 0
M  V30 1923 C 172.843 2.30426 5.94292 0
M  V30 1924 C 170.53 1.61754 5.89304 0
M  V30 1925 C 171.528 2.46274 6.37054 0
M  V30 1926 O 171.216 3.45237 7.25994 0
M  V30 1927 H 170.948 -0.0372381 0.674974 0
M  V30 1928 H 173.502 0.539718 1.98182 0
M  V30 1929 H 171.732 -1.44911 3.58522 0
M  V30 1930 H 173.421 -1.16112 3.88938 0
M  V30 1931 H 174.187 1.18527 4.70294 0
M  V30 1932 H 170.066 -0.0374044 4.60985 0
M  V30 1933 H 173.61 2.96432 6.31485 0
M  V30 1934 H 169.507 1.73348 6.21788 0
M  V30 1935 H 170.275 3.41124 7.44027 0
M  V30 1936 N 172.938 -1.57226 0.108567 0
M  V30 1937 C 174.166 -1.99179 -0.559954 0
M  V30 1938 C 174.581 -0.988022 -1.60884 0
M  V30 1939 O 173.938 0.0205512 -1.82488 0
M  V30 1940 C 173.989 -3.41159 -1.19552 0
M  V30 1941 O 173.71 -4.37694 -0.188577 0
M  V30 1942 C 175.211 -3.98188 -1.94837 0
M  V30 1943 H 172.431 -0.654228 -0.149088 0
M  V30 1944 H 174.975 -2.03598 0.19183 0
M  V30 1945 H 173.13 -3.37711 -1.89815 0
M  V30 1946 H 173.544 -5.20469 -0.649014 0
M  V30 1947 H 175.018 -4.99644 -2.34648 0
M  V30 1948 H 175.495 -3.3675 -2.81951 0
M  V30 1949 H 176.101 -4.0515 -1.2936 0
M  V30 1950 N 174.416 0.165178 -1.56732 0
M  V30 1951 C 175.663 0.880807 -1.8234 0
M  V30 1952 C 175.991 1.81977 -0.686621 0
M  V30 1953 O 175.246 1.92971 0.325697 0
M  V30 1954 C 175.545 1.70405 -3.1416 0
M  V30 1955 C 175.211 0.913475 -4.4155 0
M  V30 1956 C 173.873 0.695303 -4.7615 0
M  V30 1957 C 176.225 0.359349 -5.1996 0
M  V30 1958 C 173.553 -0.0879947 -5.86634 0
M  V30 1959 C 175.905 -0.410893 -6.31264 0
M  V30 1960 C 174.569 -0.639808 -6.64427 0
M  V30 1961 H 173.839 0.32231 -0.667231 0
M  V30 1962 H 176.486 0.145402 -1.90947 0
M  V30 1963 H 174.791 2.50903 -3.00923 0
M  V30 1964 H 176.488 2.26091 -3.31186 0
M  V30 1965 H 173.078 1.09357 -4.14414 0
M  V30 1966 H 177.262 0.515228 -4.93618 0
M  V30 1967 H 172.518 -0.27503 -6.10781 0
M  V30 1968 H 176.692 -0.847494 -6.91224 0
M  V30 1969 H 174.319 -1.24864 -7.49875 0
M  V30 1970 N 175.894 1.51508 0.433938 0
M  V30 1971 C 176.844 1.69451 1.52546 0
M  V30 1972 C 177.828 0.548474 1.51263 0
M  V30 1973 O 179.02 0.804529 1.57659 0
M  V30 1974 C 176.149 1.82604 2.90707 0
M  V30 1975 C 175.235 3.03002 2.96733 0
M  V30 1976 N 175.626 4.26121 2.72496 0
M  V30 1977 C 173.924 3.02327 3.27894 0
M  V30 1978 C 174.625 5.07407 2.84452 0
M  V30 1979 N 173.601 4.42126 3.16269 0
M  V30 1980 H 177.403 2.62305 1.32564 0
M  V30 1981 H 174.917 1.49202 0.641297 0
M  V30 1982 H 176.914 1.93569 3.69238 0
M  V30 1983 H 175.574 0.909339 3.11707 0
M  V30 1984 H 176.585 4.55009 2.4736 0
M  V30 1985 H 173.262 2.20301 3.54646 0
M  V30 1986 H 174.652 6.15422 2.69639 0
M  V30 1987 N 177.372 -0.689602 1.41712 0
M  V30 1988 C 178.597 -1.48329 1.44959 0
M  V30 1989 C 179.022 -1.8801 0.0581283 0
M  V30 1990 O 178.38 -1.55026 -0.940035 0
M  V30 1991 C 178.428 -2.71835 2.36935 0
M  V30 1992 O 177.532 -3.69549 1.8305 0
M  V30 1993 H 176.873 -0.446199 0.491734 0
M  V30 1994 H 179.403 -0.847127 1.86239 0
M  V30 1995 H 179.413 -3.20076 2.53013 0
M  V30 1996 H 178.088 -2.42291 3.38035 0
M  V30 1997 H 176.665 -3.2851 1.76452 0
M  V30 1998 N 178.85 -1.27639 -0.924453 0
M  V30 1999 C 179.8 -1.07295 -2.01176 0
M  V30 2000 C 180.784 5.77352e-05 -1.609 0
M  V30 2001 O 181.976 -0.218855 -1.75642 0
M  V30 2002 C 179.105 -0.725592 -3.35544 0
M  V30 2003 C 178.191 -1.83691 -3.82254 0
M  V30 2004 N 178.582 -3.07697 -4.01443 0
M  V30 2005 C 176.88 -1.72433 -4.11319 0
M  V30 2006 C 177.581 -3.80037 -4.40394 0
M  V30 2007 N 176.557 -3.0782 -4.48049 0
M  V30 2008 H 180.359 -2.01399 -2.14046 0
M  V30 2009 H 177.873 -1.18401 -1.11153 0
M  V30 2010 H 179.87 -0.560959 -4.13109 0
M  V30 2011 H 178.53 0.207782 -3.24034 0
M  V30 2012 H 179.541 -3.43424 -3.8766 0
M  V30 2013 H 176.218 -0.862005 -4.08504 0
M  V30 2014 H 177.608 -4.86632 -4.63291 0
M  V30 2015 N 180.328 1.1314 -1.09713 0
M  V30 2016 C 181.576 1.84119 -0.833338 0
M  V30 2017 C 181.897 1.84097 0.642904 0
M  V30 2018 O 181.167 1.29881 1.46655 0
M  V30 2019 H 179.747 0.681766 -0.305293 0
M  V30 2020 H 182.409 1.37038 -1.38588 0
M  V30 2021 H 181.505 2.88543 -1.18951 0
M  V30 2022 N 181.806 0.884767 1.30421 0
M  V30 2023 C 183.055 0.499164 1.95426 0
M  V30 2024 C 183.368 -0.95645 1.70621 0
M  V30 2025 O 184.574 -1.44889 2.29607 0
M  V30 2026 C 183.03 0.84177 3.49917 0
M  V30 2027 C 182.638 2.31514 3.83543 0
M  V30 2028 C 184.382 0.525355 4.21237 0
M  V30 2029 C 182.289 2.59939 5.31212 0
M  V30 2030 H 181.219 0.182944 0.73147 0
M  V30 2031 H 183.87 1.07971 1.48373 0
M  V30 2032 H 182.252 0.190311 3.95542 0
M  V30 2033 H 183.426 3.0109 3.48829 0
M  V30 2034 H 181.741 2.59907 3.25326 0
M  V30 2035 H 184.338 0.714762 5.29901 0
M  V30 2036 H 184.681 -0.535222 4.12845 0
M  V30 2037 H 185.214 1.134 3.81294 0
M  V30 2038 H 181.953 3.64736 5.44654 0
M  V30 2039 H 181.473 1.94972 5.67227 0
M  V30 2040 H 183.152 2.45429 5.98643 0
M  V30 2041 N 183.284 -1.43765 0.645699 0
M  V30 2042 C 184.512 -2.06253 0.163556 0
M  V30 2043 C 184.927 -1.48352 -1.16778 0
M  V30 2044 O 184.284 -0.611932 -1.71935 0
M  V30 2045 C 184.335 -3.61453 0.0583186 0
M  V30 2046 O 184.056 -4.172 1.33702 0
M  V30 2047 C 185.557 -4.41002 -0.450795 0
M  V30 2048 H 182.777 -0.665413 0.0864077 0
M  V30 2049 H 185.321 -1.84396 0.884222 0
M  V30 2050 H 183.476 -3.82522 -0.612865 0
M  V30 2051 H 183.89 -5.10791 1.19131 0
M  V30 2052 H 185.364 -5.49966 -0.473403 0
M  V30 2053 H 185.841 -4.13488 -1.48068 0
M  V30 2054 H 186.447 -4.24886 0.187637 0
M  V30 2055 N 184.763 -0.387143 -1.52771 0
M  V30 2056 C 185.993 0.195585 -2.05672 0
M  V30 2057 C 186.401 1.41241 -1.25887 0
M  V30 2058 O 185.744 1.81265 -0.298081 0
M  V30 2059 C 185.806 0.632327 -3.53895 0
M  V30 2060 C 185.47 -0.470739 -4.54569 0
M  V30 2061 C 186.467 -1.32746 -5.02667 0
M  V30 2062 C 184.152 -0.637151 -4.98243 0
M  V30 2063 C 186.146 -2.33574 -5.93061 0
M  V30 2064 C 183.833 -1.64877 -5.88438 0
M  V30 2065 C 184.831 -2.49649 -6.35739 0
M  V30 2066 O 184.519 -3.49082 -7.24153 0
M  V30 2067 H 184.251 0.033658 -0.675162 0
M  V30 2068 H 186.805 -0.550221 -1.97893 0
M  V30 2069 H 185.035 1.43008 -3.59285 0
M  V30 2070 H 186.724 1.14048 -3.89548 0
M  V30 2071 H 187.49 -1.21019 -4.69659 0
M  V30 2072 H 183.369 0.0129567 -4.60998 0
M  V30 2073 H 186.913 -2.99777 -6.29904 0
M  V30 2074 H 182.81 -1.76643 -6.2086 0
M  V30 2075 H 183.578 -3.45065 -7.42208 0
M  V30 2076 N 186.241 1.57166 -0.116904 0
M  V30 2077 C 187.471 1.99184 0.548586 0
M  V30 2078 C 187.879 0.995436 1.60897 0
M  V30 2079 O 187.222 -0.0201293 1.83689 0
M  V30 2080 C 187.284 3.37611 1.23526 0
M  V30 2081 C 186.948 4.55857 0.323077 0
M  V30 2082 C 187.945 5.18056 -0.437476 0
M  V30 2083 C 185.63 5.01751 0.234761 0
M  V30 2084 C 187.624 6.24536 -1.2741 0
M  V30 2085 C 185.311 6.08093 -0.605496 0
M  V30 2086 C 186.309 6.69352 -1.35856 0
M  V30 2087 O 185.997 7.7364 -2.18487 0
M  V30 2088 H 185.729 0.659148 0.149999 0
M  V30 2089 H 188.283 2.0443 -0.199428 0
M  V30 2090 H 186.513 3.29113 2.0303 0
M  V30 2091 H 188.202 3.63932 1.79745 0
M  V30 2092 H 188.968 4.83516 -0.379105 0
M  V30 2093 H 184.847 4.53817 0.810601 0
M  V30 2094 H 188.391 6.72281 -1.86237 0
M  V30 2095 H 184.288 6.42063 -0.665268 0
M  V30 2096 H 185.056 7.90727 -2.11406 0
M  V30 2097 N 187.719 -0.156864 1.56817 0
M  V30 2098 C 188.666 -1.19394 1.97519 0
M  V30 2099 C 189.636 -1.4322 0.841265 0
M  V30 2100 O 190.821 -1.55719 1.10255 0
M  V30 2101 C 187.961 -2.52483 2.35258 0
M  V30 2102 C 187.074 -2.35914 3.61896 0
M  V30 2103 C 186.209 -3.61969 3.88782 0
M  V30 2104 C 185.248 -3.40395 5.08722 0
M  V30 2105 N 184.385 -4.58556 5.31668 0
M  V30 2106 H 189.225 -0.839845 2.85921 0
M  V30 2107 H 186.762 -0.403264 1.41464 0
M  V30 2108 H 188.72 -3.30071 2.55165 0
M  V30 2109 H 187.35 -2.85859 1.49949 0
M  V30 2110 H 186.402 -1.49429 3.49821 0
M  V30 2111 H 187.714 -2.15926 4.49641 0
M  V30 2112 H 186.868 -4.47989 4.09135 0
M  V30 2113 H 185.607 -3.84951 2.9944 0
M  V30 2114 H 184.612 -2.52763 4.88253 0
M  V30 2115 H 185.837 -3.18822 5.99608 0
M  V30 2116 H 183.783 -4.81729 4.45279 0
M  V30 2117 H 183.7 -4.41535 6.13664 0
M  V30 2118 H 184.968 -5.45817 5.5651 0
M  V30 2119 N 189.197 -1.51736 -0.425897 0
M  V30 2120 C 190.107 -1.76738 -1.54275 0
M  V30 2121 C 191.123 -0.65211 -1.61318 0
M  V30 2122 O 192.299 -0.935654 -1.78346 0
M  V30 2123 C 189.364 -1.89755 -2.90162 0
M  V30 2124 C 188.425 -3.13633 -2.93143 0
M  V30 2125 C 187.658 -3.2602 -4.22548 0
M  V30 2126 O 187.881 -2.44067 -5.15546 0
M  V30 2127 O 186.815 -4.19071 -4.32046 0
M  V30 2128 H 190.641 -2.71502 -1.36089 0
M  V30 2129 H 188.226 -1.36376 -0.610069 0
M  V30 2130 H 190.108 -2.00236 -3.70788 0
M  V30 2131 H 188.783 -0.981785 -3.08452 0
M  V30 2132 H 187.69 -3.08622 -2.11431 0
M  V30 2133 H 189.023 -4.04936 -2.798 0
M  V30 2134 N 190.675 0.682077 -1.42076 0
M  V30 2135 C 191.625 1.78823 -1.41444 0
M  V30 2136 C 192.609 1.58323 -0.28681 0
M  V30 2137 O 193.801 1.68926 -0.528498 0
M  V30 2138 C 190.93 3.17232 -1.3122 0
M  V30 2139 C 190.016 3.4338 -2.489 0
M  V30 2140 N 190.407 3.40152 -3.7434 0
M  V30 2141 C 188.705 3.73986 -2.43003 0
M  V30 2142 C 189.406 3.65581 -4.52466 0
M  V30 2143 N 188.382 3.85989 -3.8277 0
M  V30 2144 H 192.184 1.7471 -2.36334 0
M  V30 2145 H 189.698 0.882622 -1.36321 0
M  V30 2146 H 191.695 3.96489 -1.2885 0
M  V30 2147 H 190.355 3.22547 -0.373263 0
M  V30 2148 H 191.366 3.20221 -4.07037 0
M  V30 2149 H 188.043 3.86591 -1.57651 0
M  V30 2150 H 189.433 3.69108 -5.61435 0
M  V30 2151 N 192.153 1.28127 0.917671 0
M  V30 2152 C 193.063 1.13556 2.05286 0
M  V30 2153 C 194.079 0.0630914 1.73886 0
M  V30 2154 O 195.255 0.271598 1.9956 0
M  V30 2155 C 192.32 0.794676 3.3747 0
M  V30 2156 C 191.381 1.94909 3.82504 0
M  V30 2157 C 190.614 1.62437 5.0838 0
M  V30 2158 O 190.837 0.536905 5.67867 0
M  V30 2159 O 189.771 2.46677 5.4903 0
M  V30 2160 H 193.597 2.08844 2.20495 0
M  V30 2161 H 191.182 1.07409 1.03845 0
M  V30 2162 H 193.064 0.618344 4.16839 0
M  V30 2163 H 191.739 -0.128581 3.23445 0
M  V30 2164 H 190.646 2.18055 3.03978 0
M  V30 2165 H 191.979 2.85291 4.01086 0
M  V30 2166 N 193.631 -1.12557 1.10312 0
M  V30 2167 C 194.879 -1.83675 0.843091 0
M  V30 2168 C 195.2 -1.84435 -0.633131 0
M  V30 2169 O 194.47 -1.30657 -1.45964 0
M  V30 2170 H 193.05 -0.680138 0.308904 0
M  V30 2171 H 195.712 -1.36301 1.39313 0
M  V30 2172 H 194.808 -2.87908 1.2048 0
M  V30 2173 N 195.109 -0.891671 -1.2995 0
M  V30 2174 C 196.072 -0.36828 -2.26222 0
M  V30 2175 C 197.072 0.493014 -1.53056 0
M  V30 2176 O 198.262 0.299213 -1.71611 0
M  V30 2177 C 195.394 0.47442 -3.37583 0
M  V30 2178 H 196.587 -1.21844 -2.74033 0
M  V30 2179 H 194.14 -0.669107 -1.41254 0
M  V30 2180 H 194.875 1.34489 -2.95099 0
M  V30 2181 H 194.66 -0.142615 -3.91841 0
M  V30 2182 H 196.15 0.83218 -4.09224 0
M  V30 2183 N 196.587 1.43421 -0.653314 0
M  V30 2184 C 197.836 2.01032 -0.164076 0
M  V30 2185 C 198.149 1.52147 1.22926 0
M  V30 2186 O 199.355 2.02031 1.81371 0
M  V30 2187 C 197.811 3.59082 -0.24252 0
M  V30 2188 C 197.419 4.1696 -1.63855 0
M  V30 2189 C 199.163 4.24079 0.18911 0
M  V30 2190 C 197.07 5.67304 -1.67092 0
M  V30 2191 H 196 0.751798 -0.0575769 0
M  V30 2192 H 198.651 1.6439 -0.815362 0
M  V30 2193 H 197.033 3.93125 0.476276 0
M  V30 2194 H 198.207 3.94416 -2.38271 0
M  V30 2195 H 196.522 3.64335 -2.01616 0
M  V30 2196 H 199.119 5.34381 0.184775 0
M  V30 2197 H 199.462 3.98005 1.22056 0
M  V30 2198 H 199.995 3.94918 -0.477938 0
M  V30 2199 H 196.734 5.98145 -2.68146 0
M  V30 2200 H 196.254 5.91904 -0.970014 0
M  V30 2201 H 197.933 6.31344 -1.4147 0
M  V30 2202 N 198.065 0.39524 1.52563 0
M  V30 2203 C 199.295 -0.184675 2.05773 0
M  V30 2204 C 199.703 -1.40571 1.26635 0
M  V30 2205 O 199.046 -1.81105 0.30769 0
M  V30 2206 C 199.108 -0.613551 3.54226 0
M  V30 2207 C 198.772 0.49484 4.54313 0
M  V30 2208 C 199.769 1.3541 5.01956 0
M  V30 2209 C 197.454 0.663565 4.97898 0
M  V30 2210 C 199.448 2.36716 5.91814 0
M  V30 2211 C 197.135 1.67996 5.87555 0
M  V30 2212 C 198.133 2.53017 6.34406 0
M  V30 2213 O 197.821 3.52917 7.22291 0
M  V30 2214 H 197.553 -0.030077 0.675331 0
M  V30 2215 H 200.107 0.560708 1.97599 0
M  V30 2216 H 198.337 -1.411 3.60038 0
M  V30 2217 H 200.026 -1.11981 3.90148 0
M  V30 2218 H 200.792 1.23509 4.6901 0
M  V30 2219 H 196.671 0.0114913 4.60999 0
M  V30 2220 H 200.215 3.03113 6.28306 0
M  V30 2221 H 196.112 1.79933 6.19915 0
M  V30 2222 H 196.88 3.48996 7.40367 0
M  V30 2223 N 199.544 -1.57102 0.125237 0
M  V30 2224 C 200.955 -1.82384 -0.399142 0
M  V30 2225 C 201.306 -1.04276 -1.66195 0
M  V30 2226 O 200.431 -0.281269 -2.14564 0
M  V30 2227 C 201.026 -3.30821 -0.730932 0
M  V30 2228 C 199.585 -3.56762 -1.19992 0
M  V30 2229 C 198.732 -2.7649 -0.211792 0
M  V30 2230 H 201.683 -1.54786 0.350277 0
M  V30 2231 H 201.704 -3.4579 -1.58775 0
M  V30 2232 H 201.216 -3.87643 0.188345 0
M  V30 2233 H 199.317 -3.05305 -2.13588 0
M  V30 2234 H 199.43 -4.65317 -1.14093 0
M  V30 2235 H 197.794 -2.4489 -0.700085 0
M  V30 2236 H 198.577 -3.36073 0.700691 0
M  V30 2237 N 201.022 0.148545 -1.56898 0
M  V30 2238 C 202.299 0.890019 -1.74178 0
M  V30 2239 C 202.679 1.99407 -0.692839 0
M  V30 2240 O 202.027 2.26671 0.288505 0
M  V30 2241 C 202.237 1.43389 -3.18183 0
M  V30 2242 C 203.585 1.89791 -3.79822 0
M  V30 2243 O 204.609 1.53134 -3.21603 0
M  V30 2244 O 203.468 2.57387 -4.82093 0
M  V30 2245 H 200.562 0.420496 -0.712118 0
M  V30 2246 H 203.108 0.134591 -1.69165 0
M  V30 2247 H 201.88 0.640383 -3.86024 0
M  V30 2248 H 201.503 2.25287 -3.27615 0
M  V30 2249 N 202.5 1.5196 0.417844 0
M  V30 2250 C 203.448 1.75278 1.52907 0
M  V30 2251 C 204.442 0.619611 1.57662 0
M  V30 2252 O 205.648 0.801457 1.61173 0
M  V30 2253 H 202.023 0.554141 0.508362 0
M  V30 2254 H 203.994 2.68389 1.30422 0
M  V30 2255 C 202.743 1.91262 2.90369 0
M  V30 2256 H 202.066 2.77872 2.8745 0
M  V30 2257 H 203.506 2.11581 3.67436 0
M  V30 2258 C 201.965 0.677431 3.30019 0
M  V30 2259 O 202.495 -0.158799 4.01386 0
M  V30 2260 N 200.701 0.515851 2.85985 0
M  V30 2261 H 200.248 1.19744 2.28077 0
M  V30 2262 H 200.206 -0.309315 3.12875 0
M  V30 2263 N 203.978 -0.674533 1.42435 0
M  V30 2264 C 205.206 -1.46283 1.46317 0
M  V30 2265 C 205.621 -1.88653 0.0745836 0
M  V30 2266 O 204.978 -1.58151 -0.91074 0
M  V30 2267 C 205.029 -2.71178 2.3905 0
M  V30 2268 O 204.75 -2.30586 3.72507 0
M  V30 2269 C 206.251 -3.64738 2.51955 0
M  V30 2270 H 203.471 -0.450104 0.497642 0
M  V30 2271 H 206.015 -0.828792 1.86953 0
M  V30 2272 H 204.17 -3.3077 2.01667 0
M  V30 2273 H 204.584 -3.11241 4.22172 0
M  V30 2274 H 206.058 -4.49096 3.20962 0
M  V30 2275 H 206.535 -4.10656 1.55752 0
M  V30 2276 H 207.141 -3.11038 2.90061 0
M  V30 2277 N 205.456 -1.28612 -0.910864 0
M  V30 2278 C 206.684 -1.18792 -1.69399 0
M  V30 2279 C 207.099 0.253039 -1.87097 0
M  V30 2280 O 206.456 1.17071 -1.40003 0
M  V30 2281 C 206.507 -1.88511 -3.08457 0
M  V30 2282 O 206.228 -3.26979 -2.91576 0
M  V30 2283 C 207.729 -1.85029 -4.02839 0
M  V30 2284 H 204.949 -0.412233 -0.529438 0
M  V30 2285 H 207.493 -1.69788 -1.13984 0
M  V30 2286 H 205.648 -1.41379 -3.60681 0
M  V30 2287 H 206.062 -3.61936 -3.79608 0
M  V30 2288 H 207.536 -2.38395 -4.97867 0
M  V30 2289 H 208.013 -0.823303 -4.31414 0
M  V30 2290 H 208.619 -2.31853 -3.56545 0
M  V30 2291 N 206.934 1.1197 -1.10907 0
M  V30 2292 C 208.211 1.79959 -0.766432 0
M  V30 2293 C 208.591 1.97466 0.746363 0
M  V30 2294 O 207.939 1.55491 1.67436 0
M  V30 2295 C 208.149 3.14009 -1.52314 0
M  V30 2296 C 209.497 3.89134 -1.69883 0
M  V30 2297 O 210.521 3.2368 -1.48692 0
M  V30 2298 O 209.38 5.06572 -2.05054 0
M  V30 2299 H 206.474 0.779208 -0.277062 0
M  V30 2300 H 209.02 1.18762 -1.21217 0
M  V30 2301 H 207.792 2.96587 -2.55249 0
M  V30 2302 H 207.415 3.82915 -1.07059 0
M  V30 2303 N 208.412 0.89855 1.29475 0
M  V30 2304 C 209.659 0.523882 1.95606 0
M  V30 2305 C 209.987 -0.929608 1.70847 0
M  V30 2306 O 209.242 -1.67401 1.01367 0
M  V30 2307 C 209.541 0.761398 3.49195 0
M  V30 2308 C 209.207 2.19207 3.94029 0
M  V30 2309 C 207.869 2.58326 4.05982 0
M  V30 2310 C 210.221 3.12379 4.17216 0
M  V30 2311 C 207.549 3.898 4.38489 0
M  V30 2312 C 209.901 4.43401 4.51197 0
M  V30 2313 C 208.565 4.82394 4.61359 0
M  V30 2314 H 207.835 0.191702 0.715773 0
M  V30 2315 H 210.482 1.13699 1.54094 0
M  V30 2316 H 208.787 0.0653622 3.91745 0
M  V30 2317 H 210.484 0.450904 3.98457 0
M  V30 2318 H 207.074 1.87846 3.85242 0
M  V30 2319 H 211.258 2.83371 4.07449 0
M  V30 2320 H 206.514 4.19734 4.44559 0
M  V30 2321 H 210.688 5.15623 4.68087 0
M  V30 2322 H 208.315 5.84306 4.86303 0
M  V30 2323 N 209.89 -1.43072 0.660911 0
M  V30 2324 C 210.822 -2.29108 -0.0647641 0
M  V30 2325 C 211.835 -1.42928 -0.779448 0
M  V30 2326 O 213.024 -1.66788 -0.635921 0
M  V30 2327 C 210.124 -3.20032 -1.11503 0
M  V30 2328 C 209.297 -4.34792 -0.476955 0
M  V30 2329 C 208.356 -5.06534 -1.42513 0
M  V30 2330 O 207.382 -5.61538 -0.930771 0
M  V30 2331 N 208.584 -5.1075 -2.75889 0
M  V30 2332 H 211.349 -2.92029 0.673731 0
M  V30 2333 H 208.91 -1.53846 0.50427 0
M  V30 2334 H 210.902 -3.64892 -1.75032 0
M  V30 2335 H 209.472 -2.58658 -1.75541 0
M  V30 2336 H 208.692 -3.92752 0.337572 0
M  V30 2337 H 209.98 -5.0879 -0.0318525 0
M  V30 2338 H 209.378 -4.67447 -3.18606 0
M  V30 2339 H 207.935 -5.59302 -3.347 0
M  V30 2340 N 211.368 -0.403325 -1.52352 0
M  V30 2341 C 212.784 -0.0539281 -1.59509 0
M  V30 2342 C 212.984 1.43307 -1.41652 0
M  V30 2343 O 212.04 2.19924 -1.24056 0
M  V30 2344 C 213.353 -0.543654 -2.95745 0
M  V30 2345 C 214.901 -0.501125 -3.08962 0
M  V30 2346 C 215.376 -0.967267 -4.47669 0
M  V30 2347 N 216.867 -0.923849 -4.53893 0
M  V30 2348 C 217.602 -1.25578 -5.5948 0
M  V30 2349 N 217.098 -1.65889 -6.72646 0
M  V30 2350 N 218.891 -1.17613 -5.49658 0
M  V30 2351 H 211.042 -1.37123 -1.62206 0
M  V30 2352 H 213.305 -0.56294 -0.76276 0
M  V30 2353 H 213.011 -1.58275 -3.14073 0
M  V30 2354 H 212.885 0.0498042 -3.77167 0
M  V30 2355 H 215.272 0.528909 -2.90321 0
M  V30 2356 H 215.353 -1.13056 -2.2946 0
M  V30 2357 H 214.997 -1.9956 -4.67053 0
M  V30 2358 H 214.927 -0.314698 -5.25659 0
M  V30 2359 H 217.418 -0.627403 -3.72655 0
M  V30 2360 H 217.731 -1.89543 -7.49195 0
M  V30 2361 H 216.076 -1.69787 -6.73942 0
M  V30 2362 H 219.267 -0.860115 -4.6013 0
M  V30 2363 H 219.44 -1.43812 -6.3184 0
M  V30 2364 N 212.846 1.57033 -0.133567 0
M  V30 2365 C 213.809 2.14897 0.796995 0
M  V30 2366 C 214.809 1.0874 1.18458 0
M  V30 2367 O 215.999 1.34446 1.1077 0
M  V30 2368 C 213.131 2.70112 2.07973 0
M  V30 2369 H 214.324 2.98457 0.293873 0
M  V30 2370 H 211.877 1.55871 0.115787 0
M  V30 2371 H 212.612 1.9018 2.62682 0
M  V30 2372 H 212.397 3.47764 1.81115 0
M  V30 2373 H 213.887 3.14738 2.74462 0
M  V30 2374 N 214.325 -0.140222 1.56975 0
M  V30 2375 C 215.602 -0.880769 1.74648 0
M  V30 2376 C 215.982 -1.99036 0.703404 0
M  V30 2377 O 215.33 -2.26821 -0.27648 0
M  V30 2378 C 215.54 -1.417 3.18939 0
M  V30 2379 C 216.888 -1.87774 3.80823 0
M  V30 2380 O 217.912 -1.51427 3.2241 0
M  V30 2381 O 216.771 -2.54827 4.83452 0
M  V30 2382 H 213.865 -0.416713 0.714338 0
M  V30 2383 H 216.411 -0.125618 1.69234 0
M  V30 2384 H 215.183 -0.619902 3.86359 0
M  V30 2385 H 214.806 -2.23546 3.28805 0
M  V30 2386 N 215.803 -1.52179 -0.40978 0
M  V30 2387 C 217.08 -1.56769 -1.16974 0
M  V30 2388 C 217.46 -0.348322 -2.08206 0
M  V30 2389 O 216.808 0.664862 -2.18613 0
M  V30 2390 C 217.018 -2.89603 -1.9476 0
M  V30 2391 C 218.366 -3.42579 -2.50849 0
M  V30 2392 O 219.39 -2.91338 -2.04941 0
M  V30 2393 O 218.249 -4.32054 -3.34652 0
M  V30 2394 H 215.343 -0.631439 -0.534054 0
M  V30 2395 H 217.889 -1.64507 -0.416613 0
M  V30 2396 H 216.661 -3.698 -1.27921 0
M  V30 2397 H 216.284 -2.85155 -2.77079 0
M  V30 2398 N 217.281 0.66697 -1.42791 0
M  V30 2399 C 218.228 1.7803 -1.4688 0
M  V30 2400 C 219.198 1.6299 -0.319919 0
M  V30 2401 O 220.383 1.83432 -0.525118 0
M  V30 2402 C 217.523 3.1611 -1.38451 0
M  V30 2403 C 216.636 3.42381 -2.63437 0
M  V30 2404 C 215.771 4.70232 -2.47094 0
M  V30 2405 C 214.81 4.89564 -3.67415 0
M  V30 2406 N 213.947 6.08661 -3.49966 0
M  V30 2407 H 218.787 1.7387 -2.42019 0
M  V30 2408 H 216.324 0.84868 -1.20149 0
M  V30 2409 H 218.282 3.95914 -1.31561 0
M  V30 2410 H 216.912 3.19374 -0.469033 0
M  V30 2411 H 215.964 2.56774 -2.80662 0
M  V30 2412 H 217.276 3.52557 -3.52853 0
M  V30 2413 H 216.43 5.5814 -2.37834 0
M  V30 2414 H 215.169 4.62353 -1.5518 0
M  V30 2415 H 214.174 4.00096 -3.77099 0
M  V30 2416 H 215.399 4.99282 -4.6032 0
M  V30 2417 H 213.345 6.0194 -2.60776 0
M  V30 2418 H 213.262 6.19733 -4.32975 0
M  V30 2419 H 214.53 6.99226 -3.44532 0
M  V30 2420 N 218.759 1.29093 0.90403 0
M  V30 2421 C 220.005 1.16986 1.65656 0
M  V30 2422 C 220.338 -0.278925 1.92186 0
M  V30 2423 O 219.613 -1.2019 1.5292 0
M  V30 2424 C 219.896 1.97908 3.0084 0
M  V30 2425 C 219.749 3.50903 2.81403 0
M  V30 2426 C 221.068 1.80208 4.01513 0
M  V30 2427 H 218.187 0.426346 0.601164 0
M  V30 2428 H 220.829 1.58518 1.04747 0
M  V30 2429 H 218.979 1.62616 3.52829 0
M  V30 2430 H 220.651 3.96153 2.36348 0
M  V30 2431 H 218.894 3.76045 2.1627 0
M  V30 2432 H 219.565 4.02791 3.77443 0
M  V30 2433 H 222.041 2.11025 3.58619 0
M  V30 2434 H 220.917 2.39184 4.94047 0
M  V30 2435 H 221.178 0.756119 4.35586 0
M  V30 2436 N 220.237 -1.11381 1.11499 0
M  V30 2437 C 221.467 -1.86663 0.885464 0
M  V30 2438 C 221.875 -1.80464 -0.568281 0
M  V30 2439 O 221.218 -1.18445 -1.40415 0
M  V30 2440 C 221.28 -3.36337 1.26956 0
M  V30 2441 C 220.944 -3.66304 2.73259 0
M  V30 2442 C 221.941 -3.63733 3.71476 0
M  V30 2443 C 219.626 -3.9529 3.09921 0
M  V30 2444 C 221.62 -3.89725 5.04374 0
M  V30 2445 C 219.307 -4.20941 4.43004 0
M  V30 2446 C 220.305 -4.18147 5.40039 0
M  V30 2447 O 219.993 -4.43153 6.70724 0
M  V30 2448 H 219.725 -0.597114 0.316908 0
M  V30 2449 H 222.279 -1.41782 1.48617 0
M  V30 2450 H 220.509 -3.81826 0.611999 0
M  V30 2451 H 222.198 -3.92986 1.01573 0
M  V30 2452 H 222.964 -3.41389 3.44498 0
M  V30 2453 H 218.843 -3.966 2.35009 0
M  V30 2454 H 222.387 -3.8746 5.80104 0
M  V30 2455 H 218.284 -4.42761 4.69716 0
M  V30 2456 H 219.052 -4.60717 6.76522 0
M  V30 2457 N 221.715 -0.905404 -1.28997 0
M  V30 2458 C 223.126 -0.581953 -1.77398 0
M  V30 2459 C 223.477 0.902552 -1.74208 0
M  V30 2460 O 222.602 1.70584 -1.33154 0
M  V30 2461 C 223.197 -1.04961 -3.22131 0
M  V30 2462 C 221.756 -0.777229 -3.68288 0
M  V30 2463 C 220.903 -1.22109 -2.48967 0
M  V30 2464 H 223.854 -1.08754 -1.15578 0
M  V30 2465 H 223.875 -0.387387 -3.78523 0
M  V30 2466 H 223.387 -2.13008 -3.24421 0
M  V30 2467 H 221.488 0.290383 -3.71467 0
M  V30 2468 H 221.601 -1.37911 -4.58822 0
M  V30 2469 H 219.965 -0.639971 -2.46529 0
M  V30 2470 H 220.748 -2.30972 -2.53982 0
M  V30 2471 N 223.193 1.4272 -0.668489 0
M  V30 2472 C 224.441 2.01226 -0.187769 0
M  V30 2473 C 224.762 1.53092 1.2078 0
M  V30 2474 O 224.032 0.74993 1.80977 0
M  V30 2475 H 222.612 0.744041 -0.0664272 0
M  V30 2476 H 225.274 1.74723 -0.863583 0
M  V30 2477 H 224.37 3.11556 -0.184166 0
M  V30 2478 N 224.671 0.411399 1.52136 0
M  V30 2479 C 225.581 -0.419774 2.30814 0
M  V30 2480 C 226.597 -1.0515 1.38634 0
M  V30 2481 O 227.773 -1.05252 1.71709 0
M  V30 2482 C 224.838 -1.52019 3.11594 0
M  V30 2483 C 223.899 -0.91129 4.19516 0
M  V30 2484 C 223.132 -1.95927 4.96436 0
M  V30 2485 O 223.355 -3.17775 4.73683 0
M  V30 2486 O 222.289 -1.56423 5.81219 0
M  V30 2487 H 226.115 0.221805 3.02889 0
M  V30 2488 H 223.7 0.174547 1.48377 0
M  V30 2489 H 225.582 -2.15898 3.61892 0
M  V30 2490 H 224.257 -2.14633 2.42311 0
M  V30 2491 H 223.164 -0.235157 3.7336 0
M  V30 2492 H 224.497 -0.32904 4.91099 0
M  V30 2493 N 226.149 -1.5696 0.141893 0
M  V30 2494 C 227.081 -2.13619 -0.830627 0
M  V30 2495 C 228.094 -1.08439 -1.21428 0
M  V30 2496 O 229.283 -1.35734 -1.15925 0
M  V30 2497 C 226.383 -2.63978 -2.12529 0
M  V30 2498 C 225.556 -3.93504 -1.9098 0
M  V30 2499 C 224.615 -4.29225 -3.04388 0
M  V30 2500 O 223.641 -4.97641 -2.76302 0
M  V30 2501 N 224.843 -3.88393 -4.31429 0
M  V30 2502 H 227.608 -2.97691 -0.34641 0
M  V30 2503 H 225.169 -1.61846 -0.0418375 0
M  V30 2504 H 227.161 -2.84891 -2.87436 0
M  V30 2505 H 225.731 -1.84659 -2.52229 0
M  V30 2506 H 224.951 -3.81269 -1.00139 0
M  V30 2507 H 226.239 -4.78154 -1.73914 0
M  V30 2508 H 225.637 -3.33257 -4.57117 0
M  V30 2509 H 224.194 -4.14368 -5.03133 0
M  V30 2510 N 227.627 0.131896 -1.57047 0
M  V30 2511 C 228.857 0.855219 -1.88068 0
M  V30 2512 C 229.265 1.74557 -0.729817 0
M  V30 2513 O 228.608 1.81083 0.308962 0
M  V30 2514 C 228.67 1.75119 -3.13964 0
M  V30 2515 C 228.334 1.03646 -4.45091 0
M  V30 2516 C 229.331 0.383276 -5.18485 0
M  V30 2517 C 227.016 1.02148 -4.91804 0
M  V30 2518 C 229.01 -0.275347 -6.36805 0
M  V30 2519 C 226.697 0.359047 -6.10044 0
M  V30 2520 C 227.695 -0.288222 -6.82392 0
M  V30 2521 O 227.383 -0.94011 -7.98384 0
M  V30 2522 H 227.115 0.251864 -0.627328 0
M  V30 2523 H 229.669 0.124782 -2.05021 0
M  V30 2524 H 227.899 2.52295 -2.9306 0
M  V30 2525 H 229.588 2.3478 -3.31109 0
M  V30 2526 H 230.354 0.386562 -4.83457 0
M  V30 2527 H 226.233 1.5147 -4.35405 0
M  V30 2528 H 229.777 -0.781148 -6.93213 0
M  V30 2529 H 225.674 0.35348 -6.44531 0
M  V30 2530 H 226.442 -0.84329 -8.14144 0
M  V30 2531 N 229.106 1.52395 0.401703 0
M  V30 2532 C 230.334 1.70676 1.16949 0
M  V30 2533 C 230.749 0.419503 1.8408 0
M  V30 2534 O 230.106 -0.605061 1.72178 0
M  V30 2535 C 230.157 2.84753 2.22706 0
M  V30 2536 O 229.878 4.08495 1.58314 0
M  V30 2537 C 231.379 3.14608 3.12309 0
M  V30 2538 H 228.599 0.571787 0.351142 0
M  V30 2539 H 231.143 1.98987 0.471652 0
M  V30 2540 H 229.298 2.58941 2.88147 0
M  V30 2541 H 229.712 4.72117 2.28485 0
M  V30 2542 H 231.186 3.97923 3.82572 0
M  V30 2543 H 231.663 2.28464 3.75101 0
M  V30 2544 H 232.269 3.42212 2.52529 0
M  V30 2545 N 230.584 -0.659388 1.43143 0
M  V30 2546 C 231.814 -1.44513 1.47646 0
M  V30 2547 C 232.222 -1.88981 0.0910095 0
M  V30 2548 O 231.565 -1.59702 -0.907789 0
M  V30 2549 C 231.627 -2.71663 2.35456 0
M  V30 2550 C 231.291 -2.49175 3.83094 0
M  V30 2551 C 232.288 -2.1279 4.74359 0
M  V30 2552 C 229.973 -2.63691 4.27519 0
M  V30 2553 C 231.967 -1.9121 6.08044 0
M  V30 2554 C 229.654 -2.41726 5.61259 0
M  V30 2555 C 230.652 -2.0554 6.51339 0
M  V30 2556 O 230.34 -1.838 7.82606 0
M  V30 2557 H 230.072 -0.45064 0.503884 0
M  V30 2558 H 232.626 -0.816248 1.88485 0
M  V30 2559 H 230.856 -3.37089 1.89493 0
M  V30 2560 H 232.545 -3.33595 2.31235 0
M  V30 2561 H 233.311 -2.01157 4.41317 0
M  V30 2562 H 229.19 -2.90832 3.57684 0
M  V30 2563 H 232.734 -1.62889 6.78316 0
M  V30 2564 H 228.631 -2.52959 5.9387 0
M  V30 2565 H 229.399 -1.98275 7.94122 0
M  V30 2566 N 232.062 -1.29571 -0.897171 0
M  V30 2567 C 232.995 -1.0924 -2.00354 0
M  V30 2568 C 233.973 -0.00354011 -1.626 0
M  V30 2569 O 235.157 -0.15473 -1.87864 0
M  V30 2570 C 232.284 -0.66352 -3.32137 0
M  V30 2571 C 231.33 -1.75146 -3.88878 0
M  V30 2572 S 232.163 -3.35124 -4.17674 0
M  V30 2573 C 233.319 -2.9411 -5.52494 0
M  V30 2574 H 233.552 -2.02907 -2.17292 0
M  V30 2575 H 231.085 -1.13746 -1.04408 0
M  V30 2576 H 233.043 -0.422791 -4.08317 0
M  V30 2577 H 231.704 0.253588 -3.13075 0
M  V30 2578 H 230.897 -1.40337 -4.84068 0
M  V30 2579 H 230.499 -1.94584 -3.19395 0
M  V30 2580 H 232.791 -2.41312 -6.33068 0
M  V30 2581 H 233.734 -3.88161 -5.9223 0
M  V30 2582 H 234.142 -2.32332 -5.14473 0
M  V30 2583 N 233.54 1.10788 -1.12088 0
M  V30 2584 C 234.47 2.19083 -0.807755 0
M  V30 2585 C 235.451 1.6858 0.226859 0
M  V30 2586 O 236.636 1.93997 0.0888475 0
M  V30 2587 C 233.766 3.46344 -0.257576 0
M  V30 2588 C 232.72 4.101 -1.22483 0
M  V30 2589 C 232.046 5.32016 -0.535052 0
M  V30 2590 C 233.346 4.54236 -2.57811 0
M  V30 2591 H 235.04 2.45534 -1.71328 0
M  V30 2592 H 232.586 1.1801 -0.825205 0
M  V30 2593 H 234.539 4.21392 -0.0262679 0
M  V30 2594 H 233.263 3.19373 0.683278 0
M  V30 2595 H 231.922 3.37054 -1.44189 0
M  V30 2596 H 231.57 5.01319 0.410827 0
M  V30 2597 H 231.27 5.75625 -1.18024 0
M  V30 2598 H 232.794 6.09799 -0.312695 0
M  V30 2599 H 234.208 5.20575 -2.40155 0
M  V30 2600 H 232.605 5.08682 -3.18375 0
M  V30 2601 H 233.675 3.6734 -3.16528 0
M  V30 2602 N 235.018 0.912232 1.28515 0
M  V30 2603 C 235.948 0.416403 2.29757 0
M  V30 2604 C 236.929 -0.515194 1.6211 0
M  V30 2605 O 238.114 -0.423253 1.89532 0
M  V30 2606 C 235.244 -0.34572 3.45575 0
M  V30 2607 C 234.198 0.496599 4.25109 0
M  V30 2608 C 233.524 -0.393771 5.33248 0
M  V30 2609 C 234.824 1.75307 4.92001 0
M  V30 2610 H 236.518 1.26249 2.7148 0
M  V30 2611 H 234.064 0.608515 1.30511 0
M  V30 2612 H 236.017 -0.703422 4.15488 0
M  V30 2613 H 234.741 -1.2257 3.02728 0
M  V30 2614 H 233.4 0.8368 3.56922 0
M  V30 2615 H 233.048 -1.27225 4.86644 0
M  V30 2616 H 232.748 0.166209 5.87365 0
M  V30 2617 H 234.272 -0.747389 6.06009 0
M  V30 2618 H 235.686 1.46437 5.54283 0
M  V30 2619 H 234.083 2.25534 5.56106 0
M  V30 2620 H 235.153 2.48176 4.16577 0
M  V30 2621 N 236.496 -1.42363 0.676048 0
M  V30 2622 C 237.459 -2.29199 0.00766941 0
M  V30 2623 C 238.459 -1.43389 -0.727745 0
M  V30 2624 O 239.649 -1.64764 -0.56556 0
M  V30 2625 C 236.781 -3.2591 -0.999785 0
M  V30 2626 H 237.974 -2.89794 0.771988 0
M  V30 2627 H 235.527 -1.50024 0.438468 0
M  V30 2628 H 236.262 -2.70256 -1.79255 0
M  V30 2629 H 236.047 -3.89202 -0.475829 0
M  V30 2630 H 237.537 -3.91028 -1.46583 0
M  V30 2631 N 237.974 -0.419461 -1.51915 0
M  V30 2632 C 239.202 0.152136 -2.0634 0
M  V30 2633 C 239.617 1.37988 -1.28859 0
M  V30 2634 O 238.974 1.79243 -0.343232 0
M  V30 2635 C 239.025 0.492266 -3.58133 0
M  V30 2636 O 238.746 -0.686736 -4.32684 0
M  V30 2637 C 240.247 1.11648 -4.2901 0
M  V30 2638 H 237.467 0.0158325 -0.670813 0
M  V30 2639 H 240.011 -0.593394 -1.95702 0
M  V30 2640 H 238.166 1.18769 -3.68745 0
M  V30 2641 H 238.58 -0.400341 -5.2297 0
M  V30 2642 H 240.054 1.3046 -5.36362 0
M  V30 2643 H 240.531 2.09251 -3.86148 0
M  V30 2644 H 241.137 0.460958 -4.22795 0
M  V30 2645 N 239.452 1.56882 -0.150215 0
M  V30 2646 C 240.362 2.20494 0.801222 0
M  V30 2647 C 241.378 1.19019 1.26927 0
M  V30 2648 O 242.554 1.51607 1.32579 0
M  V30 2649 C 239.619 2.81659 2.02161 0
M  V30 2650 C 238.68 3.9827 1.60249 0
M  V30 2651 C 237.913 4.56508 2.7647 0
M  V30 2652 O 238.136 4.13627 3.92771 0
M  V30 2653 O 237.07 5.46719 2.51757 0
M  V30 2654 H 240.896 3.02315 0.289717 0
M  V30 2655 H 238.481 1.49202 0.0769684 0
M  V30 2656 H 240.363 3.20522 2.73576 0
M  V30 2657 H 239.038 2.02849 2.52258 0
M  V30 2658 H 237.945 3.64117 0.858477 0
M  V30 2659 H 239.278 4.78609 1.14864 0
M  V30 2660 N 240.93 -0.123565 1.57115 0
M  V30 2661 C 241.84 -1.17074 2.033 0
M  V30 2662 C 242.856 -1.4561 0.952559 0
M  V30 2663 O 244.032 -1.56817 1.26374 0
M  V30 2664 C 241.097 -2.47857 2.42421 0
M  V30 2665 C 240.158 -2.26758 3.64526 0
M  V30 2666 C 239.391 -3.51305 4.01771 0
M  V30 2667 O 239.614 -4.5843 3.39409 0
M  V30 2668 O 238.548 -3.42578 4.94898 0
M  V30 2669 H 242.374 -0.808555 2.92739 0
M  V30 2670 H 239.959 -0.334027 1.45618 0
M  V30 2671 H 241.841 -3.2492 2.68338 0
M  V30 2672 H 240.516 -2.83558 1.5613 0
M  V30 2673 H 239.423 -1.47569 3.43765 0
M  V30 2674 H 240.756 -1.95963 4.51508 0
M  V30 2675 N 242.408 -1.52605 -0.393616 0
M  V30 2676 C 243.34 -1.73303 -1.49995 0
M  V30 2677 C 244.353 -0.613473 -1.50799 0
M  V30 2678 O 245.542 -0.889049 -1.54784 0
M  V30 2679 C 242.642 -1.77245 -2.88855 0
M  V30 2680 C 241.815 -3.06483 -3.12069 0
M  V30 2681 C 240.874 -3.02033 -4.30886 0
M  V30 2682 O 239.9 -3.75907 -4.27414 0
M  V30 2683 N 241.102 -2.20897 -5.36828 0
M  V30 2684 H 243.867 -2.68756 -1.32629 0
M  V30 2685 H 241.428 -1.51036 -0.583083 0
M  V30 2686 H 243.42 -1.7178 -3.66434 0
M  V30 2687 H 241.99 -0.891993 -2.99603 0
M  V30 2688 H 241.21 -3.25474 -2.22396 0
M  V30 2689 H 242.498 -3.91947 -3.2443 0
M  V30 2690 H 241.896 -1.60336 -5.42502 0
M  V30 2691 H 240.453 -2.21275 -6.13091 0
M  V30 2692 N 243.887 0.651787 -1.4349 0
M  V30 2693 C 245.112 1.44434 -1.48841 0
M  V30 2694 C 245.537 1.8779 -0.107955 0
M  V30 2695 O 244.895 1.57464 0.898602 0
M  V30 2696 C 244.943 2.65458 -2.44059 0
M  V30 2697 O 244.047 3.64566 -1.92784 0
M  V30 2698 H 243.388 0.433005 -0.503391 0
M  V30 2699 H 245.918 0.797451 -1.88419 0
M  V30 2700 H 245.928 3.13255 -2.6141 0
M  V30 2701 H 244.603 2.33244 -3.4434 0
M  V30 2702 H 243.18 3.23716 -1.851 0
M  V30 2703 N 245.365 1.30045 0.890287 0
M  V30 2704 C 246.776 1.16738 1.45702 0
M  V30 2705 C 247.127 -0.233939 1.948 0
M  V30 2706 O 246.252 -1.13021 1.84541 0
M  V30 2707 C 246.847 2.11313 2.64825 0
M  V30 2708 C 245.406 2.02001 3.17604 0
M  V30 2709 C 244.553 2.01699 1.90296 0
M  V30 2710 H 247.504 1.42392 0.700726 0
M  V30 2711 H 247.525 1.69086 3.40867 0
M  V30 2712 H 247.037 3.13294 2.2906 0
M  V30 2713 H 245.138 1.03142 3.5804 0
M  V30 2714 H 245.251 2.90128 3.81264 0
M  V30 2715 H 243.615 1.46427 2.08402 0
M  V30 2716 H 244.398 3.05402 1.56795 0
M  V30 2717 N 246.843 -1.10192 1.12674 0
M  V30 2718 C 248.091 -1.81845 0.881861 0
M  V30 2719 C 248.412 -1.85737 -0.593867 0
M  V30 2720 O 247.682 -1.33724 -1.4316 0
M  V30 2721 H 246.262 -0.673432 0.323261 0
M  V30 2722 H 248.924 -1.33316 1.42172 0
M  V30 2723 H 248.02 -2.85288 1.2656 0
M  V30 2724 N 248.321 -0.919034 -1.28029 0
M  V30 2725 C 249.231 -0.416756 -2.30869 0
M  V30 2726 C 250.247 0.498235 -1.66714 0
M  V30 2727 O 251.423 0.383144 -1.97722 0
M  V30 2728 C 248.488 0.330274 -3.45123 0
M  V30 2729 C 247.549 -0.618578 -4.2482 0
M  V30 2730 C 246.782 0.0928959 -5.33619 0
M  V30 2731 O 247.005 1.31375 -5.55065 0
M  V30 2732 O 245.939 -0.574499 -5.99152 0
M  V30 2733 H 249.765 -1.27043 -2.75851 0
M  V30 2734 H 247.35 -0.684052 -1.3282 0
M  V30 2735 H 249.232 0.751972 -4.14636 0
M  V30 2736 H 247.907 1.1597 -3.02213 0
M  V30 2737 H 246.814 -1.08978 -3.57875 0
M  V30 2738 H 248.147 -1.41497 -4.71423 0
M  V30 2739 N 249.799 1.42003 -0.683588 0
M  V30 2740 C 251.047 2.01015 -0.209101 0
M  V30 2741 C 251.368 1.54365 1.19149 0
M  V30 2742 O 250.638 0.769083 1.80172 0
M  V30 2743 H 249.218 0.743294 -0.074315 0
M  V30 2744 H 251.88 1.73798 -0.882066 0
M  V30 2745 H 250.976 3.11343 -0.2172 0
M  V30 2746 N 251.277 0.427512 1.51691 0
M  V30 2747 C 252.554 -0.201684 1.94557 0
M  V30 2748 C 252.934 -1.60981 1.36559 0
M  V30 2749 O 252.282 -2.21814 0.548702 0
M  V30 2750 C 252.492 -0.189394 3.48486 0
M  V30 2751 C 253.84 -0.39978 4.22714 0
M  V30 2752 O 254.864 -0.267945 3.55191 0
M  V30 2753 O 253.723 -0.661249 5.42485 0
M  V30 2754 H 250.817 -0.135261 0.815864 0
M  V30 2755 H 253.363 0.484782 1.62628 0
M  V30 2756 H 252.135 0.795431 3.8313 0
M  V30 2757 H 251.758 -0.919187 3.86829 0
M  V30 2758 N 252.755 -1.56801 0.158532 0
M  V30 2759 C 254.003 -1.96102 -0.488712 0
M  V30 2760 C 254.324 -1.04498 -1.64636 0
M  V30 2761 O 253.594 -0.108783 -1.95598 0
M  V30 2762 H 252.174 -0.724102 -0.183535 0
M  V30 2763 H 254.836 -1.93457 0.236728 0
M  V30 2764 H 253.932 -3.00097 -0.857219 0
M  V30 2765 N 254.233 0.115231 -1.57178 0
M  V30 2766 C 255.181 1.16014 -2.01602 0
M  V30 2767 C 256.175 1.42653 -0.913587 0
M  V30 2768 O 257.381 1.42571 -1.09879 0
M  V30 2769 H 253.756 0.391252 -0.642204 0
M  V30 2770 H 255.727 0.758998 -2.88586 0
M  V30 2771 C 254.476 2.47767 -2.4394 0
M  V30 2772 H 253.799 2.28108 -3.28339 0
M  V30 2773 H 255.239 3.19432 -2.78818 0
M  V30 2774 C 253.698 3.10617 -1.30455 0
M  V30 2775 O 254.228 3.96846 -0.622585 0
M  V30 2776 N 252.434 2.70553 -1.06064 0
M  V30 2777 H 251.981 2.00527 -1.61699 0
M  V30 2778 H 251.939 3.12934 -0.303284 0
M  V30 2779 N 255.711 1.52812 0.385517 0
M  V30 2780 C 256.951 1.69716 1.13911 0
M  V30 2781 C 257.315 0.42962 1.87132 0
M  V30 2782 O 258.516 0.475071 2.64569 0
M  V30 2783 C 256.787 2.90021 2.0886 0
M  V30 2784 S 258.346 3.27531 2.92009 0
M  V30 2785 H 255.164 0.59739 0.385547 0
M  V30 2786 H 257.766 1.90868 0.423061 0
M  V30 2787 H 256.47 3.80493 1.53797 0
M  V30 2788 H 256.001 2.71213 2.84969 0
M  V30 2789 H 258.016 2.77989 4.11019 0
M  V30 2790 N 257.189 -0.644168 1.43834 0
M  V30 2791 C 258.435 -1.40603 1.46146 0
M  V30 2792 C 258.768 -1.93997 0.0887717 0
M  V30 2793 O 258.043 -1.72854 -0.891724 0
M  V30 2794 C 258.326 -2.58086 2.51124 0
M  V30 2795 C 258.179 -2.10126 3.97702 0
M  V30 2796 C 259.498 -3.60291 2.52742 0
M  V30 2797 H 256.617 -0.509905 0.532134 0
M  V30 2798 H 259.259 -0.729502 1.75437 0
M  V30 2799 H 257.409 -3.15801 2.26278 0
M  V30 2800 H 259.081 -1.57342 4.33637 0
M  V30 2801 H 257.324 -1.41419 4.10101 0
M  V30 2802 H 257.995 -2.94649 4.66783 0
M  V30 2803 H 260.471 -3.12352 2.7491 0
M  V30 2804 H 259.347 -4.40032 3.28121 0
M  V30 2805 H 259.608 -4.1349 1.56455 0
M  V30 2806 N 258.668 -1.30515 -0.883378 0
M  V30 2807 C 259.896 -1.22359 -1.66841 0
M  V30 2808 C 260.311 0.213296 -1.87591 0
M  V30 2809 O 259.668 1.14075 -1.42454 0
M  V30 2810 C 259.719 -1.95011 -3.04389 0
M  V30 2811 O 259.44 -3.3309 -2.84575 0
M  V30 2812 C 260.941 -1.93532 -3.98824 0
M  V30 2813 H 258.161 -0.423371 -0.520575 0
M  V30 2814 H 260.705 -1.72167 -1.10357 0
M  V30 2815 H 258.86 -1.48997 -3.57601 0
M  V30 2816 H 259.274 -3.69907 -3.71846 0
M  V30 2817 H 260.748 -2.48902 -4.92699 0
M  V30 2818 H 261.225 -0.914627 -4.29571 0
M  V30 2819 H 261.831 -2.39364 -3.51547 0
M  V30 2820 N 260.146 1.09593 -1.13257 0
M  V30 2821 C 261.562 1.33775 -0.870423 0
M  V30 2822 C 261.762 1.95327 0.494926 0
M  V30 2823 O 260.818 2.19853 1.2418 0
M  V30 2824 C 262.131 2.25106 -1.99369 0
M  V30 2825 C 263.679 2.3862 -2.02558 0
M  V30 2826 C 264.154 3.33285 -3.14142 0
M  V30 2827 N 265.645 3.40857 -3.13641 0
M  V30 2828 C 266.38 4.14101 -3.96621 0
M  V30 2829 N 265.876 4.90157 -4.8961 0
M  V30 2830 N 267.669 4.09808 -3.84726 0
M  V30 2831 H 259.82 0.680136 -2.01216 0
M  V30 2832 H 262.083 0.362133 -0.876107 0
M  V30 2833 H 261.789 1.87103 -2.97801 0
M  V30 2834 H 261.663 3.25481 -1.90635 0
M  V30 2835 H 264.05 2.75887 -1.0474 0
M  V30 2836 H 264.131 1.38028 -2.15364 0
M  V30 2837 H 263.775 2.96741 -4.12198 0
M  V30 2838 H 263.705 4.33776 -2.98574 0
M  V30 2839 H 266.196 2.86624 -2.46282 0
M  V30 2840 H 266.509 5.4347 -5.49418 0
M  V30 2841 H 264.854 4.89251 -4.93617 0
M  V30 2842 H 268.045 3.4949 -3.11408 0
M  V30 2843 H 268.218 4.66629 -4.49623 0
M  V30 2844 N 261.624 0.925811 1.2754 0
M  V30 2845 C 262.873 0.561084 1.93739 0
M  V30 2846 C 263.186 -0.901685 1.73577 0
M  V30 2847 O 264.392 -1.37511 2.34101 0
M  V30 2848 C 262.848 0.952668 3.47062 0
M  V30 2849 C 262.456 2.43599 3.75983 0
M  V30 2850 C 264.2 0.659103 4.19352 0
M  V30 2851 C 262.107 2.76707 5.22673 0
M  V30 2852 H 261.037 0.206122 0.725279 0
M  V30 2853 H 263.688 1.12637 1.44863 0
M  V30 2854 H 262.07 0.316053 3.94737 0
M  V30 2855 H 263.244 3.12035 3.39073 0
M  V30 2856 H 261.559 2.70125 3.16893 0
M  V30 2857 H 264.156 0.882985 5.27359 0
M  V30 2858 H 264.499 -0.403607 4.14339 0
M  V30 2859 H 265.032 1.25473 3.77494 0
M  V30 2860 H 261.771 3.8188 5.32774 0
M  V30 2861 H 261.291 2.12919 5.60737 0
M  V30 2862 H 262.97 2.6435 5.90532 0
M  V30 2863 N 263.102 -1.41638 0.69111 0
M  V30 2864 C 264.332 -2.0533 0.228758 0
M  V30 2865 C 264.74 -1.52089 -1.12541 0
M  V30 2866 O 264.083 -0.662145 -1.71351 0
M  V30 2867 C 264.145 -3.59349 0.10407 0
M  V30 2868 C 263.809 -4.35362 1.38956 0
M  V30 2869 C 264.806 -4.64942 2.32648 0
M  V30 2870 C 262.491 -4.74714 1.64169 0
M  V30 2871 C 264.485 -5.32828 3.49818 0
M  V30 2872 C 262.172 -5.42338 2.81625 0
M  V30 2873 C 263.17 -5.71322 3.74273 0
M  V30 2874 O 262.858 -6.37554 4.89673 0
M  V30 2875 H 262.59 -0.667796 0.104997 0
M  V30 2876 H 265.144 -1.82477 0.942938 0
M  V30 2877 H 263.374 -3.80924 -0.665839 0
M  V30 2878 H 265.063 -4.04633 -0.320519 0
M  V30 2879 H 265.829 -4.35025 2.14425 0
M  V30 2880 H 261.708 -4.51538 0.929202 0
M  V30 2881 H 265.252 -5.55368 4.22152 0
M  V30 2882 H 261.149 -5.71673 2.99768 0
M  V30 2883 H 261.917 -6.56049 4.8943 0
M  V30 2884 N 264.58 -0.43555 -1.51462 0
M  V30 2885 C 265.53 0.394701 -2.24558 0
M  V30 2886 C 266.514 0.99157 -1.26715 0
M  V30 2887 O 267.706 0.910007 -1.51815 0
M  V30 2888 C 264.835 1.4963 -3.08975 0
M  V30 2889 C 263.921 0.908912 -4.14246 0
M  V30 2890 N 264.312 0.0505335 -5.05775 0
M  V30 2891 C 262.61 1.17668 -4.30198 0
M  V30 2892 C 263.311 -0.279161 -5.8103 0
M  V30 2893 N 262.287 0.336767 -5.42556 0
M  V30 2894 H 266.089 -0.267106 -2.92684 0
M  V30 2895 H 263.603 -0.247518 -1.60503 0
M  V30 2896 H 265.6 2.10394 -3.59917 0
M  V30 2897 H 264.26 2.16046 -2.42393 0
M  V30 2898 H 265.271 -0.31577 -5.16936 0
M  V30 2899 H 261.948 1.83847 -3.74842 0
M  V30 2900 H 263.338 -0.977553 -6.64751 0
M  V30 2901 N 266.058 1.56714 -0.166846 0
M  V30 2902 C 267.283 2.01557 0.488833 0
M  V30 2903 C 267.708 1.0463 1.56314 0
M  V30 2904 O 267.066 0.0251304 1.81283 0
M  V30 2905 C 267.114 3.4503 1.04818 0
M  V30 2906 O 266.218 3.51163 2.16236 0
M  V30 2907 H 265.559 0.653516 0.117526 0
M  V30 2908 H 268.089 2.02818 -0.269421 0
M  V30 2909 H 268.099 3.84243 1.37191 0
M  V30 2910 H 266.774 4.15077 0.261572 0
M  V30 2911 H 265.351 3.23807 1.84942 0
M  V30 2912 N 267.536 -0.106894 1.57237 0
M  V30 2913 C 268.486 -1.1366 1.9765 0
M  V30 2914 C 269.47 -1.36416 0.853203 0
M  V30 2915 O 270.662 -1.37305 1.11697 0
M  V30 2916 C 267.791 -2.46 2.39455 0
M  V30 2917 C 266.877 -2.26668 3.58445 0
M  V30 2918 N 267.268 -1.77176 4.73754 0
M  V30 2919 C 265.566 -2.57279 3.64312 0
M  V30 2920 C 266.267 -1.71836 5.5574 0
M  V30 2921 N 265.243 -2.16623 4.98573 0
M  V30 2922 H 269.045 -0.74669 2.84256 0
M  V30 2923 H 266.559 -0.314483 1.59326 0
M  V30 2924 H 268.556 -3.2049 2.6663 0
M  V30 2925 H 267.216 -2.85738 1.54219 0
M  V30 2926 H 268.227 -1.46545 4.96734 0
M  V30 2927 H 264.904 -3.00622 2.89711 0
M  V30 2928 H 266.294 -1.34723 6.58255 0
M  V30 2929 N 269.014 -1.53014 -0.377408 0
M  V30 2930 C 270.263 -1.67845 -1.11853 0
M  V30 2931 C 270.576 -0.430625 -1.90801 0
M  V30 2932 O 271.782 -0.459261 -2.67587 0
M  V30 2933 C 270.238 -2.96668 -2.03756 0
M  V30 2934 C 269.846 -4.28671 -1.30175 0
M  V30 2935 C 271.59 -3.20865 -2.77932 0
M  V30 2936 C 269.497 -5.48591 -2.20911 0
M  V30 2937 H 268.427 -0.625343 -0.421263 0
M  V30 2938 H 271.078 -1.79514 -0.380409 0
M  V30 2939 H 269.46 -2.78773 -2.8125 0
M  V30 2940 H 270.634 -4.57157 -0.578259 0
M  V30 2941 H 268.949 -4.10825 -0.679108 0
M  V30 2942 H 271.546 -4.07642 -3.46024 0
M  V30 2943 H 271.889 -2.36424 -3.4265 0
M  V30 2944 H 272.422 -3.39379 -2.07525 0
M  V30 2945 H 269.161 -6.35474 -1.6079 0
M  V30 2946 H 268.681 -5.244 -2.91144 0
M  V30 2947 H 270.36 -5.8292 -2.80736 0
M  V30 2948 N 270.492 0.636531 -1.44174 0
M  V30 2949 C 271.769 1.39463 -1.37148 0
M  V30 2950 C 272.149 2.11082 -0.027507 0
M  V30 2951 O 271.497 2.05954 0.989716 0
M  V30 2952 C 271.707 2.36552 -2.56601 0
M  V30 2953 C 273.055 3.00048 -3.00427 0
M  V30 2954 O 274.079 2.46878 -2.56767 0
M  V30 2955 O 272.938 3.96488 -3.76111 0
M  V30 2956 H 270.032 0.623903 -0.542839 0
M  V30 2957 H 272.578 0.662039 -1.56253 0
M  V30 2958 H 271.35 1.82692 -3.46034 0
M  V30 2959 H 270.973 3.17236 -2.39681 0
M  V30 2960 N 271.97 1.30982 0.876444 0
M  V30 2961 C 272.933 1.18054 1.96459 0
M  V30 2962 C 273.933 0.109399 1.60427 0
M  V30 2963 O 275.123 0.358173 1.70478 0
M  V30 2964 C 272.255 0.810616 3.31122 0
M  V30 2965 H 273.448 2.14735 2.09354 0
M  V30 2966 H 271.001 1.145 1.06392 0
M  V30 2967 H 271.736 -0.155322 3.23928 0
M  V30 2968 H 271.521 1.58481 3.58645 0
M  V30 2969 H 273.011 0.743876 4.10921 0
M  V30 2970 N 273.449 -1.08991 1.13837 0
M  V30 2971 C 274.86 -1.62746 0.914917 0
M  V30 2972 C 275.211 -1.88403 -0.547594 0
M  V30 2973 O 274.336 -1.63706 -1.41525 0
M  V30 2974 C 274.931 -2.95662 1.65437 0
M  V30 2975 C 273.49 -3.46225 1.47666 0
M  V30 2976 C 272.637 -2.20562 1.6807 0
M  V30 2977 H 275.588 -0.922946 1.29102 0
M  V30 2978 H 275.609 -3.63825 1.11407 0
M  V30 2979 H 275.121 -2.76956 2.71877 0
M  V30 2980 H 273.222 -3.70046 0.435478 0
M  V30 2981 H 273.335 -4.23368 2.24268 0
M  V30 2982 H 271.699 -2.29439 1.10589 0
M  V30 2983 H 272.482 -2.0437 2.7584 0
M  V30 2984 N 274.927 -0.932562 -1.27047 0
M  V30 2985 C 275.874 -0.434072 -2.26681 0
M  V30 2986 C 276.844 0.501639 -1.58344 0
M  V30 2987 O 278.029 0.419734 -1.86126 0
M  V30 2988 C 275.169 0.30261 -3.43771 0
M  V30 2989 C 274.282 -0.667774 -4.26808 0
M  V30 2990 C 273.417 0.0892393 -5.31125 0
M  V30 2991 C 272.456 -0.873532 -6.05835 0
M  V30 2992 N 271.593 -0.148832 -7.01942 0
M  V30 2993 H 276.433 -1.28868 -2.68695 0
M  V30 2994 H 273.97 -0.646713 -1.32121 0
M  V30 2995 H 275.928 0.746092 -4.10474 0
M  V30 2996 H 274.558 1.12142 -3.02695 0
M  V30 2997 H 273.61 -1.22978 -3.59973 0
M  V30 2998 H 274.922 -1.40337 -4.78651 0
M  V30 2999 H 274.076 0.592409 -6.03801 0
M  V30 3000 H 272.815 0.85777 -4.80097 0
M  V30 3001 H 271.82 -1.38791 -5.31994 0
M  V30 3002 H 273.045 -1.64193 -6.58952 0
M  V30 3003 H 270.991 0.601365 -6.53238 0
M  V30 3004 H 270.908 -0.82391 -7.51497 0
M  V30 3005 H 272.176 0.333527 -7.78786 0
M  V30 3006 N 276.405 1.4127 -0.698611 0
M  V30 3007 C 277.682 1.94955 -0.158762 0
M  V30 3008 C 278.062 1.63781 1.33188 0
M  V30 3009 O 277.41 0.946423 2.07979 0
M  V30 3010 C 277.62 3.46044 -0.453309 0
M  V30 3011 C 278.968 4.22872 -0.382707 0
M  V30 3012 O 279.992 3.54076 -0.388396 0
M  V30 3013 O 278.851 5.45407 -0.345463 0
M  V30 3014 H 275.945 0.82683 -0.0167505 0
M  V30 3015 H 278.491 1.50971 -0.77498 0
M  V30 3016 H 277.263 3.62028 -1.48498 0
M  V30 3017 H 276.886 3.97128 0.19373 0
M  V30 3018 N 277.883 0.443576 1.51229 0
M  V30 3019 C 279.132 -0.122332 2.01329 0
M  V30 3020 C 279.445 -1.43237 1.33201 0
M  V30 3021 O 280.651 -2.0816 1.74304 0
M  V30 3022 C 279.107 -0.268551 3.58897 0
M  V30 3023 C 278.715 1.03142 4.35965 0
M  V30 3024 C 280.459 -0.787894 4.17124 0
M  V30 3025 C 278.366 0.850504 5.85252 0
M  V30 3026 H 277.296 -0.0494929 0.752374 0
M  V30 3027 H 279.947 0.574289 1.74282 0
M  V30 3028 H 278.329 -1.02832 3.82415 0
M  V30 3029 H 279.503 1.80001 4.24189 0
M  V30 3030 H 277.818 1.47977 3.89219 0
M  V30 3031 H 280.415 -0.939841 5.26375 0
M  V30 3032 H 280.758 -1.77201 3.76703 0
M  V30 3033 H 281.291 -0.0862669 3.97706 0
M  V30 3034 H 278.03 1.80718 6.30096 0
M  V30 3035 H 277.55 0.121825 5.99676 0
M  V30 3036 H 279.229 0.506163 6.45017 0
M  V30 3037 N 279.361 -1.56624 0.175154 0
M  V30 3038 C 280.324 -2.16934 -0.739738 0
M  V30 3039 C 281.324 -1.11842 -1.15533 0
M  V30 3040 O 282.514 -1.37335 -1.07167 0
M  V30 3041 C 279.646 -2.75531 -2.00738 0
M  V30 3042 H 280.839 -2.99131 -0.214639 0
M  V30 3043 H 278.392 -1.56123 -0.0744197 0
M  V30 3044 H 279.127 -1.97078 -2.57548 0
M  V30 3045 H 278.912 -3.52444 -1.71831 0
M  V30 3046 H 280.402 -3.21904 -2.66021 0
M  V30 3047 N 280.839 0.0985539 -1.57292 0
M  V30 3048 C 282.064 0.820196 -1.90493 0
M  V30 3049 C 282.489 1.71658 -0.769094 0
M  V30 3050 O 281.847 1.79133 0.279495 0
M  V30 3051 C 281.895 1.61242 -3.22542 0
M  V30 3052 O 280.999 2.72108 -3.09888 0
M  V30 3053 H 280.34 0.225547 -0.62452 0
M  V30 3054 H 282.87 0.0748159 -2.04463 0
M  V30 3055 H 282.88 1.99737 -3.55766 0
M  V30 3056 H 281.555 0.954535 -4.04798 0
M  V30 3057 H 280.132 2.36667 -2.88172 0
M  V30 3058 N 282.317 1.53212 0.369288 0
M  V30 3059 C 283.565 1.68881 1.11012 0
M  V30 3060 C 283.886 0.441285 1.89941 0
M  V30 3061 O 283.156 -0.544623 1.88177 0
M  V30 3062 H 281.736 0.622569 0.412816 0
M  V30 3063 H 284.398 1.90391 0.416802 0
M  V30 3064 H 283.494 2.54822 1.80201 0
M  V30 3065 N 283.795 -0.628877 1.44509 0
M  V30 3066 C 284.725 -1.75187 1.54376 0
M  V30 3067 C 285.706 -1.65411 0.396618 0
M  V30 3068 O 286.891 -1.84137 0.617031 0
M  V30 3069 C 284.021 -3.13725 1.48976 0
M  V30 3070 C 282.975 -3.38291 2.62189 0
M  V30 3071 C 282.301 -4.76883 2.41841 0
M  V30 3072 C 283.601 -3.30632 4.04326 0
M  V30 3073 H 285.295 -1.67187 2.48373 0
M  V30 3074 H 282.841 -0.802909 1.19538 0
M  V30 3075 H 284.794 -3.92064 1.54478 0
M  V30 3076 H 283.518 -3.22515 0.514961 0
M  V30 3077 H 282.177 -2.62334 2.56079 0
M  V30 3078 H 281.825 -4.82378 1.42548 0
M  V30 3079 H 281.525 -4.94278 3.17747 0
M  V30 3080 H 283.049 -5.57449 2.49165 0
M  V30 3081 H 284.463 -3.98873 4.11793 0
M  V30 3082 H 282.86 -3.59561 4.80454 0
M  V30 3083 H 283.93 -2.28404 4.27738 0
M  V30 3084 N 285.273 -1.31445 -0.869486 0
M  V30 3085 C 286.522 -1.20517 -1.61736 0
M  V30 3086 C 286.835 0.235341 -1.94179 0
M  V30 3087 O 288.041 0.466312 -2.67465 0
M  V30 3088 C 286.497 -2.10982 -2.91573 0
M  V30 3089 C 286.105 -3.60032 -2.66611 0
M  V30 3090 C 287.849 -2.08856 -3.69567 0
M  V30 3091 C 285.756 -4.42503 -3.92358 0
M  V30 3092 H 284.686 -0.447493 -0.606849 0
M  V30 3093 H 287.337 -1.56303 -0.96133 0
M  V30 3094 H 285.719 -1.68095 -3.58553 0
M  V30 3095 H 286.893 -4.11167 -2.08035 0
M  V30 3096 H 285.208 -3.64139 -2.0197 0
M  V30 3097 H 287.805 -2.67716 -4.62852 0
M  V30 3098 H 288.148 -1.07582 -4.02159 0
M  V30 3099 H 288.681 -2.49945 -3.09471 0
M  V30 3100 H 285.42 -5.44533 -3.64916 0
M  V30 3101 H 284.94 -3.96125 -4.50383 0
M  V30 3102 H 286.619 -4.54741 -4.60238 0
M  V30 3103 N 286.751 1.08385 -1.14413 0
M  V30 3104 C 287.999 1.80419 -0.910679 0
M  V30 3105 C 288.32 1.86658 0.564243 0
M  V30 3106 O 287.59 1.35985 1.41014 0
M  V30 3107 H 286.17 0.668204 -0.333934 0
M  V30 3108 H 288.832 1.31037 -1.44275 0
M  V30 3109 H 287.928 2.83238 -1.31082 0
M  V30 3110 N 288.23 0.939286 1.26551 0
M  V30 3111 C 289.641 0.628782 1.75793 0
M  V30 3112 C 289.992 -0.856046 1.7654 0
M  V30 3113 O 289.117 -1.66994 1.3763 0
M  V30 3114 C 289.712 1.13465 3.19235 0
M  V30 3115 C 288.271 0.874601 3.66098 0
M  V30 3116 C 287.418 1.28667 2.45642 0
M  V30 3117 H 290.369 1.1178 1.12654 0
M  V30 3118 H 290.39 0.487609 3.77363 0
M  V30 3119 H 289.902 2.21535 3.1866 0
M  V30 3120 H 288.003 -0.191793 3.72106 0
M  V30 3121 H 288.116 1.50028 4.55004 0
M  V30 3122 H 286.48 0.705109 2.44745 0
M  V30 3123 H 287.263 2.37625 2.47769 0
M  V30 3124 N 289.708 -1.40897 0.706093 0
M  V30 3125 C 290.638 -2.33418 0.0620085 0
M  V30 3126 C 291.619 -1.52385 -0.755827 0
M  V30 3127 O 292.804 -1.80886 -0.706674 0
M  V30 3128 C 289.934 -3.36293 -0.867445 0
M  V30 3129 C 288.888 -4.27716 -0.155932 0
M  V30 3130 C 288.214 -5.2105 -1.20046 0
M  V30 3131 C 289.514 -5.12944 0.984149 0
M  V30 3132 H 291.208 -2.87527 0.83477 0
M  V30 3133 H 288.754 -1.38249 0.402875 0
M  V30 3134 H 290.707 -3.99949 -1.32735 0
M  V30 3135 H 289.431 -2.80556 -1.67199 0
M  V30 3136 H 288.09 -3.65498 0.284047 0
M  V30 3137 H 287.738 -4.61624 -1.99781 0
M  V30 3138 H 287.438 -5.83056 -0.729328 0
M  V30 3139 H 288.962 -5.87584 -1.66066 0
M  V30 3140 H 290.376 -5.70109 0.604048 0
M  V30 3141 H 288.773 -5.83945 1.38304 0
M  V30 3142 H 289.843 -4.49485 1.81911 0
M  V30 3143 N 291.186 -0.45159 -1.50991 0
M  V30 3144 C 292.435 0.111653 -2.01391 0
M  V30 3145 C 292.748 1.42529 -1.33959 0
M  V30 3146 O 293.954 2.07232 -1.75405 0
M  V30 3147 C 292.41 0.249514 -3.59034 0
M  V30 3148 C 292.018 -1.05453 -4.35412 0
M  V30 3149 C 293.762 0.765762 -4.17536 0
M  V30 3150 C 291.669 -0.881529 -5.84793 0
M  V30 3151 H 290.599 0.0455022 -0.752626 0
M  V30 3152 H 293.25 -0.583524 -1.73975 0
M  V30 3153 H 291.632 1.00803 -3.82955 0
M  V30 3154 H 292.806 -1.82248 -4.23229 0
M  V30 3155 H 291.121 -1.50039 -3.88429 0
M  V30 3156 H 293.718 0.911913 -5.26866 0
M  V30 3157 H 294.061 1.75201 -3.77638 0
M  V30 3158 H 294.594 0.0651744 -3.97747 0
M  V30 3159 H 291.333 -1.84057 -6.29129 0
M  V30 3160 H 290.853 -0.153625 -5.99603 0
M  V30 3161 H 292.532 -0.540363 -6.4474 0
M  V30 3162 N 292.664 1.56529 -0.183458 0
M  V30 3163 C 293.913 1.96419 0.458511 0
M  V30 3164 C 294.226 1.0727 1.63562 0
M  V30 3165 O 295.432 1.36893 2.34462 0
M  V30 3166 C 293.888 3.49298 0.867122 0
M  V30 3167 C 293.496 4.47092 -0.285057 0
M  V30 3168 C 295.24 3.97983 1.47683 0
M  V30 3169 C 293.147 5.91225 0.143862 0
M  V30 3170 H 292.077 0.733394 0.175071 0
M  V30 3171 H 294.728 1.81448 -0.273624 0
M  V30 3172 H 293.11 3.59731 1.65559 0
M  V30 3173 H 294.284 4.48383 -1.0625 0
M  V30 3174 H 292.599 4.08535 -0.805503 0
M  V30 3175 H 295.196 5.03134 1.80999 0
M  V30 3176 H 295.539 3.41618 2.37914 0
M  V30 3177 H 296.072 3.90617 0.752562 0
M  V30 3178 H 292.811 6.5149 -0.723974 0
M  V30 3179 H 292.331 5.93214 0.886413 0
M  V30 3180 H 294.01 6.44362 0.583628 0
M  V30 3181 N 294.142 -0.090211 1.57342 0
M  V30 3182 C 295.382 -0.798365 1.88163 0
M  V30 3183 C 295.746 -1.75662 0.775046 0
M  V30 3184 O 296.947 -2.50849 0.965816 0
M  V30 3185 C 295.218 -1.50376 3.24225 0
M  V30 3186 S 296.777 -2.24952 3.76752 0
M  V30 3187 H 293.595 -0.265883 0.659414 0
M  V30 3188 H 296.197 -0.055264 1.95422 0
M  V30 3189 H 294.901 -0.792286 4.0268 0
M  V30 3190 H 294.432 -2.28666 3.20118 0
M  V30 3191 H 296.447 -3.51173 3.5056 0
M  V30 3192 N 295.62 -1.53406 -0.361157 0
M  V30 3193 C 296.567 -1.80156 -1.44265 0
M  V30 3194 C 297.537 -0.646183 -1.53015 0
M  V30 3195 O 298.722 -0.888818 -1.68833 0
M  V30 3196 C 295.862 -2.00116 -2.81154 0
M  V30 3197 C 294.975 -3.27833 -2.81335 0
M  V30 3198 C 294.11 -3.37957 -4.09828 0
M  V30 3199 C 293.149 -4.59689 -4.04168 0
M  V30 3200 N 292.286 -4.66942 -5.24318 0
M  V30 3201 H 297.126 -2.72438 -1.20754 0
M  V30 3202 H 294.663 -1.34954 -0.585296 0
M  V30 3203 H 296.621 -2.09677 -3.60682 0
M  V30 3204 H 295.251 -1.11167 -3.03054 0
M  V30 3205 H 294.303 -3.27204 -1.94014 0
M  V30 3206 H 295.615 -4.17442 -2.73027 0
M  V30 3207 H 294.769 -3.46853 -4.97773 0
M  V30 3208 H 293.508 -2.46372 -4.20894 0
M  V30 3209 H 292.513 -4.50889 -3.14609 0
M  V30 3210 H 293.738 -5.5262 -3.947 0
M  V30 3211 H 291.684 -3.7826 -5.35962 0
M  V30 3212 H 291.601 -5.50462 -5.18197 0
M  V30 3213 H 292.869 -4.80127 -6.14084 0
M  V30 3214 N 297.098 0.621204 -1.44841 0
M  V30 3215 C 298.045 1.73267 -1.5247 0
M  V30 3216 C 299.015 1.6189 -0.371611 0
M  V30 3217 O 300.2 1.81668 -0.58321 0
M  V30 3218 C 297.34 3.11545 -1.48438 0
M  V30 3219 C 296.453 3.33827 -2.74196 0
M  V30 3220 C 295.588 4.62133 -2.61929 0
M  V30 3221 C 294.627 4.77627 -3.82804 0
M  V30 3222 N 293.764 5.97219 -3.69153 0
M  V30 3223 H 298.604 1.66082 -2.47428 0
M  V30 3224 H 296.141 0.810026 -1.22788 0
M  V30 3225 H 298.099 3.91528 -1.4409 0
M  V30 3226 H 296.729 3.1772 -0.570402 0
M  V30 3227 H 295.781 2.47715 -2.88689 0
M  V30 3228 H 297.093 3.41153 -3.6389 0
M  V30 3229 H 296.247 5.50291 -2.5547 0
M  V30 3230 H 294.986 4.57182 -1.69811 0
M  V30 3231 H 293.991 3.87896 -3.89637 0
M  V30 3232 H 295.216 4.84385 -4.75971 0
M  V30 3233 H 293.162 5.93339 -2.79794 0
M  V30 3234 H 293.079 6.05644 -4.52472 0
M  V30 3235 H 294.347 6.87912 -3.66603 0
M  V30 3236 N 298.576 1.31904 0.862503 0
M  V30 3237 C 299.853 1.12644 1.59908 0
M  V30 3238 C 300.233 -0.316104 2.0872 0
M  V30 3239 O 299.581 -1.31145 1.87118 0
M  V30 3240 C 299.791 2.1472 2.7513 0
M  V30 3241 C 301.139 2.47637 3.44907 0
M  V30 3242 O 302.163 2.13205 2.85346 0
M  V30 3243 O 301.022 3.06632 4.52371 0
M  V30 3244 H 298.116 0.43416 0.703871 0
M  V30 3245 H 300.662 1.43408 0.907314 0
M  V30 3246 H 299.434 3.1172 2.3653 0
M  V30 3247 H 299.057 1.84905 3.51989 0
M  V30 3248 N 300.054 -1.07777 1.14986 0
M  V30 3249 C 301.279 -1.84558 0.946213 0
M  V30 3250 C 301.704 -1.81323 -0.500362 0
M  V30 3251 O 301.062 -1.20301 -1.35637 0
M  V30 3252 C 301.11 -3.29736 1.45968 0
M  V30 3253 O 300.214 -4.07149 0.65601 0
M  V30 3254 H 299.555 -0.571641 0.33782 0
M  V30 3255 H 302.085 -1.35991 1.52865 0
M  V30 3256 H 302.095 -3.80574 1.47063 0
M  V30 3257 H 300.77 -3.31406 2.51283 0
M  V30 3258 H 299.347 -3.65994 0.714322 0
M  V30 3259 N 301.532 -0.945985 -1.26051 0
M  V30 3260 C 302.462 -0.477172 -2.28572 0
M  V30 3261 C 303.443 0.472032 -1.63419 0
M  V30 3262 O 304.628 0.372853 -1.90587 0
M  V30 3263 C 301.758 0.253975 -3.4637 0
M  V30 3264 C 300.712 -0.609135 -4.23643 0
M  V30 3265 C 300.038 0.252252 -5.34105 0
M  V30 3266 C 301.338 -1.8829 -4.8718 0
M  V30 3267 H 303.032 -1.33402 -2.68038 0
M  V30 3268 H 300.578 -0.642904 -1.28852 0
M  V30 3269 H 302.531 0.593016 -4.17207 0
M  V30 3270 H 301.255 1.145 -3.05871 0
M  V30 3271 H 299.914 -0.931138 -3.54578 0
M  V30 3272 H 299.562 1.14278 -4.89846 0
M  V30 3273 H 299.262 -0.32188 -5.86718 0
M  V30 3274 H 300.786 0.586454 -6.07777 0
M  V30 3275 H 302.2 -1.61081 -5.50205 0
M  V30 3276 H 300.597 -2.40199 -5.49931 0
M  V30 3277 H 301.667 -2.59134 -4.09851 0
M  V30 3278 N 303.011 1.40521 -0.713556 0
M  V30 3279 C 304.288 1.94775 -0.17943 0
M  V30 3280 C 304.668 1.65184 1.31444 0
M  V30 3281 O 304.016 0.968429 2.06963 0
M  V30 3282 C 304.226 3.45543 -0.489986 0
M  V30 3283 C 305.574 4.22442 -0.427536 0
M  V30 3284 O 306.598 3.53644 -0.425929 0
M  V30 3285 O 305.457 5.4501 -0.403292 0
M  V30 3286 H 302.551 0.826606 -0.0255192 0
M  V30 3287 H 305.097 1.5014 -0.790949 0
M  V30 3288 H 303.869 3.60432 -1.5233 0
M  V30 3289 H 303.492 3.97311 0.151598 0
M  V30 3290 N 304.489 0.459591 1.5075 0
M  V30 3291 C 305.436 -0.340524 2.28274 0
M  V30 3292 C 306.406 -0.997371 1.32822 0
M  V30 3293 O 307.591 -1.01202 1.61749 0
M  V30 3294 C 304.731 -1.42317 3.14388 0
M  V30 3295 C 303.844 -0.782251 4.24859 0
M  V30 3296 C 302.979 -1.84182 4.98247 0
M  V30 3297 C 302.018 -1.18053 6.00608 0
M  V30 3298 N 301.155 -2.18244 6.67319 0
M  V30 3299 H 305.995 0.326899 2.96202 0
M  V30 3300 H 303.532 0.173057 1.46078 0
M  V30 3301 H 305.49 -2.06241 3.62658 0
M  V30 3302 H 304.12 -2.05992 2.4853 0
M  V30 3303 H 303.172 -0.0307404 3.80388 0
M  V30 3304 H 304.484 -0.259663 4.98124 0
M  V30 3305 H 303.638 -2.55714 5.50177 0
M  V30 3306 H 302.377 -2.39819 4.24662 0
M  V30 3307 H 301.382 -0.450776 5.47949 0
M  V30 3308 H 302.607 -0.631202 6.7616 0
M  V30 3309 H 300.553 -2.72919 5.96533 0
M  V30 3310 H 300.47 -1.70938 7.36421 0
M  V30 3311 H 301.738 -2.89191 7.23871 0
M  V30 3312 N 305.967 -1.56429 0.191757 0
M  V30 3313 C 306.877 -2.22541 -0.742481 0
M  V30 3314 C 307.893 -1.22342 -1.23727 0
M  V30 3315 O 309.069 -1.55069 -1.28513 0
M  V30 3316 C 306.134 -2.8692 -1.94623 0
M  V30 3317 C 305.195 -4.02378 -1.49633 0
M  V30 3318 C 304.428 -4.63678 -2.6427 0
M  V30 3319 O 304.651 -4.23895 -3.81666 0
M  V30 3320 O 303.585 -5.53202 -2.37174 0
M  V30 3321 H 307.411 -3.02977 -0.209462 0
M  V30 3322 H 304.996 -1.49353 -0.0373832 0
M  V30 3323 H 306.878 -3.27663 -2.64982 0
M  V30 3324 H 305.553 -2.09466 -2.46791 0
M  V30 3325 H 304.46 -3.66265 -0.761636 0
M  V30 3326 H 305.793 -4.81487 -1.02134 0
M  V30 3327 N 307.445 0.0818655 -1.57387 0
M  V30 3328 C 308.392 1.09834 -2.0299 0
M  V30 3329 C 309.362 1.39043 -0.908639 0
M  V30 3330 O 310.547 1.50282 -1.17559 0
M  V30 3331 C 307.687 2.40971 -2.47037 0
M  V30 3332 C 306.8 2.18379 -3.7274 0
M  V30 3333 C 305.935 3.43008 -4.0561 0
M  V30 3334 C 304.974 3.15736 -5.24383 0
M  V30 3335 N 304.111 4.32667 -5.52941 0
M  V30 3336 H 308.951 0.702472 -2.89602 0
M  V30 3337 H 306.488 0.33531 -1.43227 0
M  V30 3338 H 308.446 3.1752 -2.70623 0
M  V30 3339 H 307.076 2.78379 -1.63417 0
M  V30 3340 H 306.128 1.32569 -3.56552 0
M  V30 3341 H 307.44 1.94227 -4.59431 0
M  V30 3342 H 306.594 4.27958 -4.30043 0
M  V30 3343 H 305.333 3.70225 -3.17466 0
M  V30 3344 H 304.338 2.2918 -4.99757 0
M  V30 3345 H 305.563 2.8985 -6.14136 0
M  V30 3346 H 303.509 4.59935 -4.67756 0
M  V30 3347 H 303.426 4.11753 -6.34031 0
M  V30 3348 H 304.694 5.18644 -5.81918 0
M  V30 3349 N 308.923 1.53595 0.353017 0
M  V30 3350 C 309.833 1.83897 1.45667 0
M  V30 3351 C 310.849 0.728334 1.58023 0
M  V30 3352 O 312.025 1.01968 1.73679 0
M  V30 3353 C 309.09 2.03383 2.80778 0
M  V30 3354 C 308.151 3.27262 2.77845 0
M  V30 3355 C 307.384 3.45809 4.06512 0
M  V30 3356 O 307.607 2.68387 5.03314 0
M  V30 3357 O 306.541 4.39207 4.11559 0
M  V30 3358 H 310.367 2.77686 1.2298 0
M  V30 3359 H 307.952 1.39132 0.544308 0
M  V30 3360 H 309.834 2.17698 3.60812 0
M  V30 3361 H 308.509 1.12783 3.03417 0
M  V30 3362 H 307.416 3.18359 1.96465 0
M  V30 3363 H 308.749 4.17824 2.60161 0
M  V30 3364 N 310.401 -0.613514 1.45168 0
M  V30 3365 C 311.348 -1.72456 1.53387 0
M  V30 3366 C 312.318 -1.6169 0.380191 0
M  V30 3367 O 313.503 -1.81356 0.592836 0
M  V30 3368 C 310.643 -3.10753 1.50088 0
M  V30 3369 C 309.756 -3.32368 2.75963 0
M  V30 3370 C 308.891 -4.60737 2.64376 0
M  V30 3371 C 307.93 -4.7559 3.85332 0
M  V30 3372 N 307.067 -5.95253 3.72315 0
M  V30 3373 H 311.907 -1.64768 2.48305 0
M  V30 3374 H 309.444 -0.803503 1.23216 0
M  V30 3375 H 311.402 -3.90758 1.46164 0
M  V30 3376 H 310.032 -3.17413 0.587243 0
M  V30 3377 H 309.084 -2.4618 2.89999 0
M  V30 3378 H 310.396 -3.39218 3.65695 0
M  V30 3379 H 309.55 -5.48928 2.58385 0
M  V30 3380 H 308.289 -4.56275 1.72233 0
M  V30 3381 H 307.294 -3.85824 3.91688 0
M  V30 3382 H 308.519 -4.81854 4.78533 0
M  V30 3383 H 306.465 -5.91847 2.82937 0
M  V30 3384 H 306.382 -6.03236 4.55677 0
M  V30 3385 H 307.65 -6.85958 3.70246 0
M  V30 3386 N 311.879 -1.3236 -0.855495 0
M  V30 3387 C 312.829 -1.17809 -1.95205 0
M  V30 3388 C 313.813 -0.0852319 -1.60674 0
M  V30 3389 O 315.005 -0.311651 -1.74235 0
M  V30 3390 C 312.134 -0.902437 -3.31226 0
M  V30 3391 C 311.22 -2.03695 -3.7198 0
M  V30 3392 N 311.611 -3.28544 -3.84568 0
M  V30 3393 C 309.909 -1.93993 -4.016 0
M  V30 3394 C 310.61 -4.02847 -4.19629 0
M  V30 3395 N 309.586 -3.31138 -4.31102 0
M  V30 3396 H 313.388 -2.12462 -2.0307 0
M  V30 3397 H 310.902 -1.24127 -1.0472 0
M  V30 3398 H 312.899 -0.77915 -4.09554 0
M  V30 3399 H 311.559 0.0357267 -3.2468 0
M  V30 3400 H 312.57 -3.6349 -3.68911 0
M  V30 3401 H 309.247 -1.07733 -4.03361 0
M  V30 3402 H 310.637 -5.10506 -4.36845 0
M  V30 3403 N 313.357 1.07166 -1.15556 0
M  V30 3404 C 314.606 1.79181 -0.926132 0
M  V30 3405 C 314.919 1.87768 0.547967 0
M  V30 3406 O 316.125 2.56323 0.895036 0
M  V30 3407 C 314.581 3.22 -1.60761 0
M  V30 3408 C 314.189 3.21607 -3.11886 0
M  V30 3409 C 315.933 3.9861 -1.4598 0
M  V30 3410 C 313.84 4.59092 -3.72812 0
M  V30 3411 H 312.77 0.67154 -0.342856 0
M  V30 3412 H 315.421 1.2027 -1.3859 0
M  V30 3413 H 313.803 3.81115 -1.07553 0
M  V30 3414 H 314.977 2.72127 -3.71865 0
M  V30 3415 H 313.292 2.58495 -3.2645 0
M  V30 3416 H 315.889 5.00225 -1.88888 0
M  V30 3417 H 316.232 4.143 -0.407541 0
M  V30 3418 H 316.765 3.45996 -1.96295 0
M  V30 3419 H 313.504 4.48606 -4.77946 0
M  V30 3420 H 313.024 5.08803 -3.17616 0
M  V30 3421 H 314.703 5.28059 -3.73848 0
M  V30 3422 N 314.835 0.952656 1.25548 0
M  V30 3423 C 316.112 0.523818 1.88456 0
M  V30 3424 C 316.492 -0.998871 1.85973 0
M  V30 3425 O 315.84 -1.86381 1.3219 0
M  V30 3426 C 316.05 1.0982 3.31271 0
M  V30 3427 C 317.398 1.17385 4.08051 0
M  V30 3428 O 318.422 1.04961 3.40384 0
M  V30 3429 O 317.281 1.36852 5.29088 0
M  V30 3430 H 314.375 0.172485 0.808813 0
M  V30 3431 H 316.921 1.04596 1.33633 0
M  V30 3432 H 315.693 2.1415 3.27499 0
M  V30 3433 H 315.316 0.559191 3.93648 0
M  V30 3434 N 316.313 -1.40141 0.720998 0
M  V30 3435 C 317.729 -1.54632 0.395113 0
M  V30 3436 C 317.929 -1.69115 -1.09555 0
M  V30 3437 O 316.985 -1.68377 -1.88163 0
M  V30 3438 C 318.298 -2.77177 1.1659 0
M  V30 3439 C 319.846 -2.91 1.15274 0
M  V30 3440 C 320.321 -4.16465 1.90579 0
M  V30 3441 N 321.812 -4.23476 1.87675 0
M  V30 3442 C 322.547 -5.19475 2.42762 0
M  V30 3443 N 322.043 -6.21348 3.06428 0
M  V30 3444 N 323.836 -5.11592 2.32874 0
M  V30 3445 H 315.987 -1.28986 1.68749 0
M  V30 3446 H 318.25 -0.62412 0.713567 0
M  V30 3447 H 317.956 -2.72771 2.22011 0
M  V30 3448 H 317.83 -3.69442 0.76108 0
M  V30 3449 H 320.217 -2.94907 0.106702 0
M  V30 3450 H 320.298 -1.99838 1.59682 0
M  V30 3451 H 319.942 -4.1332 2.95176 0
M  V30 3452 H 319.872 -5.06646 1.43587 0
M  V30 3453 H 322.363 -3.50497 1.41281 0
M  V30 3454 H 322.676 -6.91034 3.45965 0
M  V30 3455 H 321.021 -6.21777 3.10514 0
M  V30 3456 H 324.212 -4.30936 1.82789 0
M  V30 3457 H 324.385 -5.86233 2.76106 0
M  V30 3458 N 317.792 -0.46758 -1.50504 0
M  V30 3459 C 318.702 0.33382 -2.32213 0
M  V30 3460 C 319.718 0.999323 -1.42441 0
M  V30 3461 O 320.894 0.988068 -1.75497 0
M  V30 3462 C 317.959 1.4035 -3.17022 0
M  V30 3463 C 317.02 0.754961 -4.2261 0
M  V30 3464 C 316.253 1.77367 -5.03365 0
M  V30 3465 O 316.476 2.99976 -4.8515 0
M  V30 3466 O 315.41 1.34744 -5.86624 0
M  V30 3467 H 319.236 -0.334067 -3.01857 0
M  V30 3468 H 316.821 -0.229496 -1.47627 0
M  V30 3469 H 318.703 2.02318 -3.69656 0
M  V30 3470 H 317.378 2.05492 -2.5011 0
M  V30 3471 H 316.285 0.0964244 -3.73976 0
M  V30 3472 H 317.618 0.146545 -4.91982 0
M  V30 3473 N 319.27 1.56325 -0.20005 0
M  V30 3474 C 320.517 1.97719 0.437411 0
M  V30 3475 C 320.845 1.08709 1.61284 0
M  V30 3476 O 320.1 0.127261 1.95286 0
M  V30 3477 C 320.399 3.4495 0.935103 0
M  V30 3478 C 320.065 4.5072 -0.12749 0
M  V30 3479 C 318.727 4.79368 -0.419451 0
M  V30 3480 C 321.079 5.14268 -0.847231 0
M  V30 3481 C 318.407 5.68854 -1.43604 0
M  V30 3482 C 320.759 6.04852 -1.85301 0
M  V30 3483 C 319.423 6.31855 -2.15211 0
M  V30 3484 H 318.693 0.723507 0.16006 0
M  V30 3485 H 321.34 1.89166 -0.298056 0
M  V30 3486 H 319.645 3.50599 1.74894 0
M  V30 3487 H 321.342 3.74337 1.43781 0
M  V30 3488 H 317.932 4.28458 0.11023 0
M  V30 3489 H 322.116 4.92222 -0.634901 0
M  V30 3490 H 317.372 5.88047 -1.67364 0
M  V30 3491 H 321.546 6.53152 -2.41591 0
M  V30 3492 H 319.173 7.00994 -2.94129 0
M  V30 3493 N 320.748 -0.0735177 1.57428 0
M  V30 3494 C 321.994 -0.774145 1.87443 0
M  V30 3495 C 322.327 -1.77311 0.792103 0
M  V30 3496 O 321.602 -1.93492 -0.197793 0
M  V30 3497 C 321.885 -1.48367 3.28115 0
M  V30 3498 C 321.738 -0.501227 4.46999 0
M  V30 3499 C 323.057 -2.429 3.66998 0
M  V30 3500 H 320.176 -0.279971 0.681752 0
M  V30 3501 H 322.818 -0.0373616 1.89963 0
M  V30 3502 H 320.968 -2.11171 3.26097 0
M  V30 3503 H 322.64 0.121468 4.6114 0
M  V30 3504 H 320.883 0.183593 4.33411 0
M  V30 3505 H 321.554 -1.03526 5.42205 0
M  V30 3506 H 324.03 -1.90175 3.70098 0
M  V30 3507 H 322.906 -2.89549 4.66318 0
M  V30 3508 H 323.167 -3.27628 2.96837 0
M  V30 3509 N 322.226 -1.5378 -0.344866 0
M  V30 3510 C 323.472 -1.71216 -1.08687 0
M  V30 3511 C 323.805 -0.473281 -1.88345 0
M  V30 3512 O 323.08 0.52968 -1.87149 0
M  V30 3513 C 323.363 -2.97486 -2.02914 0
M  V30 3514 C 323.216 -4.31579 -1.26727 0
M  V30 3515 C 324.535 -3.19422 -3.0275 0
M  V30 3516 H 321.654 -0.62301 -0.393735 0
M  V30 3517 H 324.296 -1.8645 -0.365563 0
M  V30 3518 H 322.446 -2.84629 -2.64421 0
M  V30 3519 H 324.118 -4.56284 -0.67845 0
M  V30 3520 H 322.361 -4.30049 -0.569273 0
M  V30 3521 H 323.032 -5.16106 -1.95803 0
M  V30 3522 H 325.508 -3.316 -2.51357 0
M  V30 3523 H 324.384 -4.09169 -3.65885 0
M  V30 3524 H 324.645 -2.35656 -3.74057 0
M  V30 3525 N 323.704 0.605807 -1.45491 0
M  V30 3526 C 324.637 1.73022 -1.48791 0
M  V30 3527 C 325.615 1.58917 -0.344112 0
M  V30 3528 O 326.799 1.80453 -0.544876 0
M  V30 3529 C 323.926 3.10865 -1.34463 0
M  V30 3530 C 322.972 3.43554 -2.5273 0
M  V30 3531 S 323.805 3.38196 -4.15191 0
M  V30 3532 C 324.961 4.78616 -4.03333 0
M  V30 3533 H 325.194 1.69961 -2.43928 0
M  V30 3534 H 322.727 0.782611 -1.33096 0
M  V30 3535 H 324.685 3.90398 -1.26884 0
M  V30 3536 H 323.346 3.1144 -0.40794 0
M  V30 3537 H 322.539 4.43924 -2.38637 0
M  V30 3538 H 322.141 2.71541 -2.5718 0
M  V30 3539 H 324.433 5.68463 -3.68587 0
M  V30 3540 H 325.376 4.97767 -5.03621 0
M  V30 3541 H 325.784 4.54381 -3.34959 0
M  V30 3542 N 325.182 1.32811 0.848464 0
M  V30 3543 C 326.429 1.23724 1.60308 0
M  V30 3544 C 326.757 -0.1994 1.93475 0
M  V30 3545 O 326.012 -1.15406 1.5805 0
M  V30 3546 C 326.311 2.04831 2.92881 0
M  V30 3547 C 325.977 3.54125 2.79117 0
M  V30 3548 C 324.639 3.94829 2.7507 0
M  V30 3549 C 326.991 4.49036 2.64606 0
M  V30 3550 C 324.319 5.28675 2.544 0
M  V30 3551 C 326.671 5.83033 2.4547 0
M  V30 3552 C 325.335 6.22931 2.39819 0
M  V30 3553 H 324.605 0.452737 0.586609 0
M  V30 3554 H 327.252 1.64301 0.983743 0
M  V30 3555 H 325.557 1.57001 3.58968 0
M  V30 3556 H 327.254 1.95164 3.50303 0
M  V30 3557 H 323.844 3.21801 2.83094 0
M  V30 3558 H 328.028 4.18505 2.66772 0
M  V30 3559 H 323.284 5.58637 2.48465 0
M  V30 3560 H 327.458 6.56186 2.33222 0
M  V30 3561 H 325.085 7.26584 2.23562 0
M  V30 3562 N 326.66 -1.06551 1.16123 0
M  V30 3563 C 327.885 -1.83544 0.965735 0
M  V30 3564 C 328.31 -1.81843 -0.481102 0
M  V30 3565 O 327.668 -1.21732 -1.34354 0
M  V30 3566 C 327.716 -3.28169 1.49457 0
M  V30 3567 O 326.82 -4.0643 0.699157 0
M  V30 3568 H 326.161 -0.568026 0.343864 0
M  V30 3569 H 328.691 -1.34362 1.54299 0
M  V30 3570 H 328.701 -3.78992 1.51092 0
M  V30 3571 H 327.376 -3.28722 2.54784 0
M  V30 3572 H 325.953 -3.65216 0.7531 0
M  V30 3573 N 328.138 -0.959301 -1.25041 0
M  V30 3574 C 329.384 -0.617525 -1.9317 0
M  V30 3575 C 329.717 0.843981 -1.74902 0
M  V30 3576 O 328.992 1.60615 -1.09696 0
M  V30 3577 C 329.275 -0.982736 -3.46431 0
M  V30 3578 C 329.128 -2.50032 -3.73904 0
M  V30 3579 C 330.447 -0.511176 -4.37121 0
M  V30 3580 H 327.566 -0.22582 -0.701552 0
M  V30 3581 H 330.208 -1.19679 -1.4757 0
M  V30 3582 H 328.358 -0.489806 -3.854 0
M  V30 3583 H 330.03 -3.06737 -3.44544 0
M  V30 3584 H 328.273 -2.93598 -3.19348 0
M  V30 3585 H 328.944 -2.70635 -4.81103 0
M  V30 3586 H 331.42 -0.934075 -4.0548 0
M  V30 3587 H 330.296 -0.795361 -5.43107 0
M  V30 3588 H 330.557 0.588834 -4.38161 0
M  V30 3589 N 329.616 1.39756 -0.72842 0
M  V30 3590 C 330.862 2.00942 -0.273892 0
M  V30 3591 C 331.195 1.57656 1.13394 0
M  V30 3592 O 330.47 0.802434 1.77176 0
M  V30 3593 C 330.753 3.58211 -0.368346 0
M  V30 3594 C 330.606 4.11534 -1.81548 0
M  V30 3595 C 331.925 4.39372 0.253054 0
M  V30 3596 H 329.044 0.730047 -0.100996 0
M  V30 3597 H 331.686 1.66056 -0.923337 0
M  V30 3598 H 329.836 3.88061 0.184588 0
M  V30 3599 H 331.508 3.92431 -2.42478 0
M  V30 3600 H 329.751 3.65341 -2.33898 0
M  V30 3601 H 330.422 5.20682 -1.83288 0
M  V30 3602 H 332.898 4.15527 -0.218224 0
M  V30 3603 H 331.774 5.48677 0.156585 0
M  V30 3604 H 332.035 4.21358 1.33826 0
M  V30 3605 N 331.094 0.475555 1.50254 0
M  V30 3606 C 332.371 -0.139685 1.95101 0
M  V30 3607 C 332.751 -1.56555 1.41611 0
M  V30 3608 O 332.099 -2.19956 0.618993 0
M  V30 3609 C 332.309 -0.0784298 3.48912 0
M  V30 3610 C 333.657 -0.265095 4.23772 0
M  V30 3611 O 334.681 -0.154808 3.55863 0
M  V30 3612 O 333.54 -0.488327 5.44314 0
M  V30 3613 H 330.634 -0.109236 0.819754 0
M  V30 3614 H 333.18 0.536276 1.61004 0
M  V30 3615 H 331.952 0.916918 3.80405 0
M  V30 3616 H 331.575 -0.795655 3.89558 0
M  V30 3617 N 332.573 -1.56217 0.208337 0
M  V30 3618 C 333.483 -2.23316 -0.718836 0
M  V30 3619 C 334.499 -1.23648 -1.22422 0
M  V30 3620 O 335.675 -1.56423 -1.26861 0
M  V30 3621 C 332.74 -2.88968 -1.91568 0
M  V30 3622 C 331.801 -4.03943 -1.45357 0
M  V30 3623 C 331.034 -4.66455 -2.59337 0
M  V30 3624 O 331.257 -4.27919 -3.77149 0
M  V30 3625 O 330.191 -5.55686 -2.31293 0
M  V30 3626 H 334.017 -3.03182 -0.177315 0
M  V30 3627 H 331.602 -1.49384 -0.0215402 0
M  V30 3628 H 333.484 -3.30455 -2.61491 0
M  V30 3629 H 332.159 -2.12071 -2.44556 0
M  V30 3630 H 331.066 -3.67052 -0.722746 0
M  V30 3631 H 332.399 -4.82543 -0.970219 0
M  V30 3632 N 334.051 0.0651679 -1.57465 0
M  V30 3633 C 334.999 1.09542 -2.05191 0
M  V30 3634 C 335.993 1.39675 -0.958509 0
M  V30 3635 O 337.199 1.39003 -1.14359 0
M  V30 3636 H 333.574 0.370623 -0.654326 0
M  V30 3637 H 335.545 0.666802 -2.90854 0
M  V30 3638 C 334.294 2.39881 -2.51699 0
M  V30 3639 H 333.617 2.17547 -3.3543 0
M  V30 3640 H 335.057 3.104 -2.88839 0
M  V30 3641 C 333.516 3.0631 -1.40271 0
M  V30 3642 O 334.046 3.94664 -0.748523 0
M  V30 3643 N 332.252 2.67041 -1.14618 0
M  V30 3644 H 331.799 1.95281 -1.67997 0
M  V30 3645 H 331.757 3.1181 -0.402688 0
M  V30 3646 N 335.529 1.53961 0.336706 0
M  V30 3647 C 336.776 1.71536 1.07618 0
M  V30 3648 C 337.104 0.482125 1.8843 0
M  V30 3649 O 336.359 -0.536142 1.88213 0
M  V30 3650 C 336.658 2.93493 2.03953 0
M  V30 3651 C 336.324 4.28811 1.39399 0
M  V30 3652 C 334.986 4.65602 1.21523 0
M  V30 3653 C 337.338 5.12844 0.929541 0
M  V30 3654 C 334.666 5.84037 0.558312 0
M  V30 3655 C 337.018 6.31951 0.286505 0
M  V30 3656 C 335.682 6.67432 0.0954869 0
M  V30 3657 H 334.952 0.627696 0.393801 0
M  V30 3658 H 337.599 1.88186 0.354715 0
M  V30 3659 H 335.904 2.71475 2.82504 0
M  V30 3660 H 337.601 3.04285 2.61174 0
M  V30 3661 H 334.191 3.99858 1.54311 0
M  V30 3662 H 338.375 4.84947 1.05548 0
M  V30 3663 H 333.631 6.10097 0.398995 0
M  V30 3664 H 337.805 6.96352 -0.0814376 0
M  V30 3665 H 335.432 7.59063 -0.415579 0
M  V30 3666 N 337.007 -0.598083 1.45811 0
M  V30 3667 C 338.232 -1.3881 1.54099 0
M  V30 3668 C 338.657 -1.8726 0.177578 0
M  V30 3669 O 338.015 -1.6069 -0.839541 0
M  V30 3670 C 338.063 -2.56217 2.53743 0
M  V30 3671 O 337.167 -3.5716 2.06182 0
M  V30 3672 H 336.508 -0.414024 0.519115 0
M  V30 3673 H 339.038 -0.726971 1.91249 0
M  V30 3674 H 339.048 -3.03337 2.72856 0
M  V30 3675 H 337.723 -2.20303 3.5276 0
M  V30 3676 H 336.3 -3.16624 1.96987 0
M  V30 3677 N 338.485 -1.33259 -0.841409 0
M  V30 3678 C 339.731 -1.25766 -1.59857 0
M  V30 3679 C 340.086 0.175602 -1.91597 0
M  V30 3680 O 339.379 1.117 -1.55672 0
M  V30 3681 C 339.573 -2.06381 -2.9179 0
M  V30 3682 C 339.402 -3.57401 -2.72937 0
M  V30 3683 C 338.172 -4.26718 -2.70628 0
M  V30 3684 C 340.37 -4.51786 -2.45753 0
M  V30 3685 N 338.352 -5.63705 -2.43125 0
M  V30 3686 C 339.723 -5.76643 -2.27777 0
M  V30 3687 C 341.778 -4.40898 -2.31329 0
M  V30 3688 C 340.481 -6.91842 -1.96841 0
M  V30 3689 C 342.507 -5.55911 -2.01786 0
M  V30 3690 C 341.869 -6.79776 -1.8462 0
M  V30 3691 H 337.968 -0.515406 -0.588117 0
M  V30 3692 H 340.552 -1.67772 -0.987955 0
M  V30 3693 H 338.723 -1.667 -3.50807 0
M  V30 3694 H 340.455 -1.90678 -3.56965 0
M  V30 3695 H 337.21 -3.78968 -2.84043 0
M  V30 3696 H 337.634 -6.35911 -2.32265 0
M  V30 3697 H 342.276 -3.45772 -2.43314 0
M  V30 3698 H 339.994 -7.86968 -1.83594 0
M  V30 3699 H 343.58 -5.49421 -1.91384 0
M  V30 3700 H 342.46 -7.67266 -1.62088 0
M  V30 3701 N 339.963 1.05934 -1.16686 0
M  V30 3702 C 341.193 1.82226 -0.973515 0
M  V30 3703 C 341.601 1.8297 0.481532 0
M  V30 3704 O 340.944 1.25009 1.34604 0
M  V30 3705 C 341.006 3.29897 -1.42858 0
M  V30 3706 C 340.67 3.52849 -2.90425 0
M  V30 3707 C 341.667 3.45595 -3.88407 0
M  V30 3708 C 339.352 3.80053 -3.28428 0
M  V30 3709 C 341.346 3.65217 -5.22394 0
M  V30 3710 C 339.033 3.99325 -4.62583 0
M  V30 3711 C 340.031 3.91905 -5.59374 0
M  V30 3712 O 339.719 4.10647 -6.91104 0
M  V30 3713 H 339.451 0.581314 -0.345036 0
M  V30 3714 H 342.005 1.3453 -1.55212 0
M  V30 3715 H 340.235 3.78472 -0.793477 0
M  V30 3716 H 341.924 3.87692 -1.20207 0
M  V30 3717 H 342.69 3.24564 -3.60393 0
M  V30 3718 H 338.569 3.84936 -2.53664 0
M  V30 3719 H 342.113 3.59341 -5.9793 0
M  V30 3720 H 338.01 4.19846 -4.90306 0
M  V30 3721 H 338.778 4.27915 -6.97733 0
M  V30 3722 N 341.441 0.965919 1.2453 0
M  V30 3723 C 342.371 0.513476 2.27784 0
M  V30 3724 C 343.352 -0.445974 1.6415 0
M  V30 3725 O 344.537 -0.342485 1.91156 0
M  V30 3726 C 341.667 -0.198839 3.4673 0
M  V30 3727 C 340.621 0.676456 4.2262 0
M  V30 3728 C 339.947 -0.167248 5.34438 0
M  V30 3729 C 341.247 1.96017 4.84123 0
M  V30 3730 H 342.941 1.3765 2.65881 0
M  V30 3731 H 340.487 0.663321 1.27813 0
M  V30 3732 H 342.44 -0.526567 4.18097 0
M  V30 3733 H 341.164 -1.0962 3.07654 0
M  V30 3734 H 339.823 0.98743 3.53052 0
M  V30 3735 H 339.471 -1.0647 4.91603 0
M  V30 3736 H 339.171 0.415181 5.86131 0
M  V30 3737 H 340.695 -0.489688 6.08633 0
M  V30 3738 H 342.109 1.69814 5.47573 0
M  V30 3739 H 340.506 2.48918 5.4604 0
M  V30 3740 H 341.576 2.65622 4.05676 0
M  V30 3741 N 342.919 -1.39368 0.735821 0
M  V30 3742 C 343.829 -2.34395 0.0979693 0
M  V30 3743 C 344.845 -1.58361 -0.720968 0
M  V30 3744 O 346.021 -1.90648 -0.649245 0
M  V30 3745 C 343.086 -3.37393 -0.797916 0
M  V30 3746 C 342.147 -4.29287 0.0333662 0
M  V30 3747 C 341.38 -5.27365 -0.819854 0
M  V30 3748 O 341.603 -5.31959 -2.05855 0
M  V30 3749 O 340.537 -6.01389 -0.248079 0
M  V30 3750 H 344.363 -2.90601 0.882315 0
M  V30 3751 H 341.948 -1.40909 0.4965 0
M  V30 3752 H 343.83 -4.00505 -1.31048 0
M  V30 3753 H 342.505 -2.83571 -1.56106 0
M  V30 3754 H 341.412 -3.69395 0.591475 0
M  V30 3755 H 342.745 -4.86317 0.758752 0
M  V30 3756 N 344.397 -0.483516 -1.5 0
M  V30 3757 C 345.674 0.129337 -1.95172 0
M  V30 3758 C 346.054 1.55802 -1.4244 0
M  V30 3759 O 345.402 2.19625 -0.630649 0
M  V30 3760 C 345.612 0.0599251 -3.48949 0
M  V30 3761 C 346.96 0.242617 -4.23906 0
M  V30 3762 O 347.984 0.135933 -3.55941 0
M  V30 3763 O 346.843 0.459454 -5.44565 0
M  V30 3764 H 343.937 0.104887 -0.820322 0
M  V30 3765 H 346.483 -0.544807 -1.60717 0
M  V30 3766 H 345.255 -0.937079 -3.79914 0
M  V30 3767 H 344.878 0.774984 -3.89974 0
M  V30 3768 N 345.875 1.56104 -0.216619 0
M  V30 3769 C 346.823 2.21434 0.712036 0
M  V30 3770 C 347.817 1.19218 1.20348 0
M  V30 3771 O 349.023 1.3731 1.16387 0
M  V30 3772 H 345.398 0.70992 0.248026 0
M  V30 3773 H 347.369 2.98083 0.137558 0
M  V30 3774 C 346.118 2.90434 1.91163 0
M  V30 3775 H 345.441 3.68842 1.54258 0
M  V30 3776 H 346.881 3.39552 2.5393 0
M  V30 3777 C 345.34 1.92635 2.76394 0
M  V30 3778 O 345.87 1.44017 3.74996 0
M  V30 3779 N 344.076 1.60392 2.42328 0
M  V30 3780 H 343.623 2.00122 1.622 0
M  V30 3781 H 343.581 0.952159 2.99635 0
M  V30 3782 N 347.353 -0.0568162 1.57498 0
M  V30 3783 C 348.602 -0.752001 1.87157 0
M  V30 3784 C 348.915 -1.77978 0.811375 0
M  V30 3785 O 350.121 -2.52559 0.996293 0
M  V30 3786 C 348.577 -1.38844 3.3204 0
M  V30 3787 C 348.185 -0.398456 4.46225 0
M  V30 3788 C 349.929 -2.06512 3.70882 0
M  V30 3789 C 347.836 -1.04166 5.82154 0
M  V30 3790 H 346.766 -0.28461 0.698222 0
M  V30 3791 H 349.417 -0.00561272 1.83499 0
M  V30 3792 H 347.799 -2.1836 3.30356 0
M  V30 3793 H 348.973 0.367977 4.59328 0
M  V30 3794 H 347.288 0.174592 4.16034 0
M  V30 3795 H 349.885 -2.55437 4.6974 0
M  V30 3796 H 350.228 -2.87117 3.01445 0
M  V30 3797 H 350.761 -1.33808 3.7462 0
M  V30 3798 H 347.5 -0.275614 6.5492 0
M  V30 3799 H 347.02 -1.7786 5.72823 0
M  V30 3800 H 348.699 -1.55715 6.27982 0
M  V30 3801 N 348.832 -1.54138 -0.328536 0
M  V30 3802 C 349.779 -1.83176 -1.40411 0
M  V30 3803 C 350.749 -0.678494 -1.5161 0
M  V30 3804 O 351.934 -0.92443 -1.6691 0
M  V30 3805 C 349.074 -2.06035 -2.76846 0
M  V30 3806 C 348.187 -3.33727 -2.74318 0
M  V30 3807 C 347.322 -3.46574 -4.02567 0
M  V30 3808 C 346.361 -4.68159 -3.94327 0
M  V30 3809 N 345.498 -4.77959 -5.14296 0
M  V30 3810 H 350.338 -2.74938 -1.14948 0
M  V30 3811 H 347.875 -1.36166 -0.556538 0
M  V30 3812 H 349.833 -2.1728 -3.56153 0
M  V30 3813 H 348.463 -1.1757 -3.00628 0
M  V30 3814 H 347.515 -3.31246 -1.8703 0
M  V30 3815 H 348.827 -4.23139 -2.64111 0
M  V30 3816 H 347.981 -3.57333 -4.90304 0
M  V30 3817 H 346.72 -2.55245 -4.15574 0
M  V30 3818 H 345.725 -4.57461 -3.04974 0
M  V30 3819 H 346.95 -5.60868 -3.82889 0
M  V30 3820 H 344.896 -3.89544 -5.27818 0
M  V30 3821 H 344.813 -5.6133 -5.06404 0
M  V30 3822 H 346.081 -4.93044 -6.03761 0
M  V30 3823 N 350.31 0.590341 -1.46126 0
M  V30 3824 C 351.538 1.37504 -1.54597 0
M  V30 3825 C 351.953 1.87897 -0.184447 0
M  V30 3826 O 351.31 1.63192 0.816984 0
M  V30 3827 C 351.361 2.56779 -2.54454 0
M  V30 3828 O 351.082 2.08476 -3.85317 0
M  V30 3829 C 352.583 3.49427 -2.72792 0
M  V30 3830 H 349.803 0.420325 -0.523037 0
M  V30 3831 H 352.347 0.718383 -1.91467 0
M  V30 3832 H 350.502 3.1845 -2.20609 0
M  V30 3833 H 350.916 2.86097 -4.396 0
M  V30 3834 H 352.39 4.29619 -3.466 0
M  V30 3835 H 352.867 4.00876 -1.79429 0
M  V30 3836 H 353.473 2.93598 -3.07702 0
M  V30 3837 N 351.788 1.33704 0.83433 0
M  V30 3838 C 353.018 1.28281 1.6195 0
M  V30 3839 C 353.426 -0.147603 1.88623 0
M  V30 3840 O 352.769 -1.1016 1.47005 0
M  V30 3841 C 352.831 1.99386 2.99141 0
M  V30 3842 C 352.495 3.48681 2.95416 0
M  V30 3843 C 353.492 4.438 2.70809 0
M  V30 3844 C 351.177 3.90925 3.15409 0
M  V30 3845 C 353.171 5.79138 2.66229 0
M  V30 3846 C 350.858 5.26366 3.10454 0
M  V30 3847 C 351.856 6.20284 2.85895 0
M  V30 3848 O 351.544 7.53245 2.80852 0
M  V30 3849 H 351.276 0.44315 0.510484 0
M  V30 3850 H 353.83 1.76711 1.04702 0
M  V30 3851 H 352.06 1.45554 3.58261 0
M  V30 3852 H 353.749 1.87403 3.60049 0
M  V30 3853 H 354.515 4.12485 2.5511 0
M  V30 3854 H 350.394 3.18229 3.33543 0
M  V30 3855 H 353.938 6.52416 2.4698 0
M  V30 3856 H 349.835 5.57304 3.25703 0
M  V30 3857 H 350.603 7.62846 2.96661 0
M  V30 3858 N 353.266 -1.05314 1.17247 0
M  V30 3859 C 354.506 -1.79869 0.970898 0
M  V30 3860 C 354.87 -1.85594 -0.491808 0
M  V30 3861 O 356.071 -2.56229 -0.812409 0
M  V30 3862 C 354.342 -3.19937 1.59295 0
M  V30 3863 S 355.901 -4.10986 1.53741 0
M  V30 3864 H 352.719 -0.61949 0.348931 0
M  V30 3865 H 355.321 -1.26368 1.49169 0
M  V30 3866 H 354.025 -3.13372 2.65003 0
M  V30 3867 H 353.556 -3.78515 1.07191 0
M  V30 3868 H 355.571 -4.93203 0.544537 0
M  V30 3869 N 354.744 -0.972509 -1.24016 0
M  V30 3870 C 355.969 -0.654417 -1.96805 0
M  V30 3871 C 356.394 0.770398 -1.716 0
M  V30 3872 O 355.752 1.52361 -0.982647 0
M  V30 3873 C 355.8 -0.941031 -3.48105 0
M  V30 3874 O 354.904 -0.0289472 -4.1239 0
M  V30 3875 H 354.245 -0.24692 -0.616382 0
M  V30 3876 H 356.775 -1.30396 -1.57664 0
M  V30 3877 H 356.785 -0.87452 -3.98517 0
M  V30 3878 H 355.46 -1.97939 -3.65777 0
M  V30 3879 H 354.037 -0.149192 -3.72601 0
M  V30 3880 N 356.222 1.38976 -0.743202 0
M  V30 3881 C 357.132 2.3434 -0.110399 0
M  V30 3882 C 358.148 1.58741 0.712559 0
M  V30 3883 O 359.324 1.9099 0.639125 0
M  V30 3884 C 356.389 3.37812 0.780012 0
M  V30 3885 C 355.45 4.29263 -0.0561319 0
M  V30 3886 C 354.683 5.27793 0.791875 0
M  V30 3887 O 354.906 5.33043 2.03031 0
M  V30 3888 O 353.84 6.01512 0.216183 0
M  V30 3889 H 357.666 2.90129 -0.897714 0
M  V30 3890 H 355.251 1.40643 -0.503966 0
M  V30 3891 H 357.133 4.01194 1.28923 0
M  V30 3892 H 355.808 2.84395 1.546 0
M  V30 3893 H 354.715 3.69076 -0.611056 0
M  V30 3894 H 356.048 4.85907 -0.784531 0
M  V30 3895 N 357.7 0.491464 1.49741 0
M  V30 3896 C 359.111 0.0413169 1.86654 0
M  V30 3897 C 359.462 -1.36985 1.40462 0
M  V30 3898 O 358.587 -2.01917 0.778354 0
M  V30 3899 C 359.182 0.0682023 3.38731 0
M  V30 3900 C 357.741 -0.32656 3.74981 0
M  V30 3901 C 356.888 0.444888 2.73708 0
M  V30 3902 H 359.839 0.704733 1.42194 0
M  V30 3903 H 359.86 -0.729322 3.73445 0
M  V30 3904 H 359.372 1.09539 3.72321 0
M  V30 3905 H 357.473 -1.35734 3.46997 0
M  V30 3906 H 357.586 -0.013741 4.79098 0
M  V30 3907 H 355.95 -0.104062 2.54487 0
M  V30 3908 H 356.733 1.47197 3.10142 0
M  V30 3909 N 359.178 -1.55987 0.224894 0
M  V30 3910 C 360.088 -2.24066 -0.69511 0
M  V30 3911 C 361.104 -1.24939 -1.21104 0
M  V30 3912 O 362.28 -1.5776 -1.25195 0
M  V30 3913 C 359.345 -2.90983 -1.88493 0
M  V30 3914 C 358.406 -4.05462 -1.41064 0
M  V30 3915 C 357.639 -4.69179 -2.54375 0
M  V30 3916 O 357.862 -4.31895 -3.72589 0
M  V30 3917 O 356.796 -5.58108 -2.25386 0
M  V30 3918 H 360.622 -3.03353 -0.145149 0
M  V30 3919 H 358.207 -1.49399 -0.00569476 0
M  V30 3920 H 360.089 -3.33209 -2.57972 0
M  V30 3921 H 358.764 -2.14653 -2.42293 0
M  V30 3922 H 357.671 -3.67798 -0.683774 0
M  V30 3923 H 359.004 -4.83545 -0.918985 0
M  V30 3924 N 360.656 0.0484629 -1.57525 0
M  V30 3925 C 361.603 1.05504 -2.05275 0
M  V30 3926 C 362.573 1.37084 -0.937927 0
M  V30 3927 O 363.758 1.47754 -1.2072 0
M  V30 3928 C 360.898 2.35676 -2.52093 0
M  V30 3929 C 360.011 2.10423 -3.77288 0
M  V30 3930 C 359.146 3.34327 -4.12794 0
M  V30 3931 C 358.185 3.04542 -5.30962 0
M  V30 3932 N 357.322 4.20841 -5.61994 0
M  V30 3933 H 362.162 0.640885 -2.91027 0
M  V30 3934 H 359.699 0.304854 -1.43906 0
M  V30 3935 H 361.657 3.11709 -2.77297 0
M  V30 3936 H 360.287 2.7485 -1.69285 0
M  V30 3937 H 359.339 1.24976 -3.59284 0
M  V30 3938 H 360.651 1.84438 -4.63448 0
M  V30 3939 H 359.805 4.1874 -4.39024 0
M  V30 3940 H 358.544 3.63408 -3.25247 0
M  V30 3941 H 357.549 2.18528 -5.04505 0
M  V30 3942 H 358.774 2.76758 -6.20146 0
M  V30 3943 H 356.72 4.4991 -4.77406 0
M  V30 3944 H 356.637 3.98212 -6.42622 0
M  V30 3945 H 357.905 5.06184 -5.92789 0
M  V30 3946 N 362.134 1.5431 0.320358 0
M  V30 3947 C 363.38 1.72924 1.05949 0
M  V30 3948 C 363.713 0.503185 1.87568 0
M  V30 3949 O 362.988 -0.499839 1.87968 0
M  V30 3950 C 363.271 3.00676 1.98156 0
M  V30 3951 C 363.124 4.3354 1.19845 0
M  V30 3952 C 364.443 3.24198 2.9763 0
M  V30 3953 H 361.562 0.629195 0.383774 0
M  V30 3954 H 364.204 1.87008 0.335854 0
M  V30 3955 H 362.354 2.888 2.59859 0
M  V30 3956 H 364.026 4.57305 0.605773 0
M  V30 3957 H 362.269 4.309 0.500784 0
M  V30 3958 H 362.94 5.19156 1.87567 0
M  V30 3959 H 365.416 3.35557 2.4605 0
M  V30 3960 H 364.292 4.14938 3.59329 0
M  V30 3961 H 364.553 2.41577 3.7026 0
M  V30 3962 N 363.613 -0.582584 1.46437 0
M  V30 3963 C 364.89 -1.34276 1.4223 0
M  V30 3964 C 365.27 -2.10835 0.10583 0
M  V30 3965 O 364.618 -2.09485 -0.912596 0
M  V30 3966 C 364.828 -2.26865 2.65204 0
M  V30 3967 C 366.176 -2.88691 3.11356 0
M  V30 3968 O 367.2 -2.37178 2.65753 0
M  V30 3969 O 366.059 -3.82255 3.90568 0
M  V30 3970 H 363.153 -0.603326 0.565621 0
M  V30 3971 H 365.699 -0.603591 1.58603 0
M  V30 3972 H 364.471 -1.69724 3.52576 0
M  V30 3973 H 364.094 -3.08122 2.5129 0
M  V30 3974 N 365.091 -1.34144 -0.827227 0
M  V30 3975 C 366.038 -1.25364 -1.93785 0
M  V30 3976 C 367.008 -0.129774 -1.65592 0
M  V30 3977 O 368.193 -0.310024 -1.88264 0
M  V30 3978 C 365.333 -1.01064 -3.2997 0
M  V30 3979 C 364.446 -2.22185 -3.70484 0
M  V30 3980 C 363.581 -1.91203 -4.95595 0
M  V30 3981 C 362.62 -3.08491 -5.28677 0
M  V30 3982 N 361.757 -2.77421 -6.44967 0
M  V30 3983 H 366.597 -2.20347 -2.00627 0
M  V30 3984 H 364.134 -1.09558 -0.981608 0
M  V30 3985 H 366.092 -0.850139 -4.08446 0
M  V30 3986 H 364.722 -0.0975026 -3.22653 0
M  V30 3987 H 363.774 -2.4917 -2.87434 0
M  V30 3988 H 365.086 -3.0983 -3.90905 0
M  V30 3989 H 364.24 -1.71864 -5.81848 0
M  V30 3990 H 362.979 -1.00812 -4.77167 0
M  V30 3991 H 361.984 -3.28431 -4.40923 0
M  V30 3992 H 363.209 -3.99655 -5.49047 0
M  V30 3993 H 361.155 -1.89601 -6.28003 0
M  V30 3994 H 361.072 -3.58598 -6.6554 0
M  V30 3995 H 362.34 -2.61577 -7.34301 0
M  V30 3996 N 366.569 1.04691 -1.17803 0
M  V30 3997 C 367.846 1.7472 -0.879328 0
M  V30 3998 C 368.226 2.01812 0.619271 0
M  V30 3999 O 367.574 1.65824 1.57209 0
M  V30 4000 C 367.784 3.03686 -1.71976 0
M  V30 4001 C 369.132 3.77542 -1.94286 0
M  V30 4002 O 370.156 3.13569 -1.68976 0
M  V30 4003 O 369.015 4.92506 -2.36855 0
M  V30 4004 H 366.109 0.760011 -0.326056 0
M  V30 4005 H 368.655 1.10813 -1.28525 0
M  V30 4006 H 367.427 2.79754 -2.73594 0
M  V30 4007 H 367.05 3.75332 -1.31194 0
M  V30 4008 N 368.047 0.979072 1.23499 0
M  V30 4009 C 368.995 0.510604 2.26926 0
M  V30 4010 C 369.989 -0.431691 1.63807 0
M  V30 4011 O 371.195 -0.30573 1.77385 0
M  V30 4012 H 367.57 0.146688 0.737554 0
M  V30 4013 H 369.541 1.39466 2.63803 0
M  V30 4014 C 368.29 -0.172658 3.47271 0
M  V30 4015 H 367.613 0.543331 3.96091 0
M  V30 4016 H 369.053 -0.464101 4.21452 0
M  V30 4017 C 367.512 -1.40345 3.06276 0
M  V30 4018 O 368.042 -2.49978 3.14442 0
M  V30 4019 N 366.248 -1.27362 2.61203 0
M  V30 4020 H 365.795 -0.381584 2.54758 0
M  V30 4021 H 365.753 -2.09822 2.34141 0
M  V30 4022 N 369.525 -1.3858 0.750561 0
M  V30 4023 C 370.435 -2.34278 0.122825 0
M  V30 4024 C 371.451 -1.59116 -0.704131 0
M  V30 4025 O 372.627 -1.91326 -0.628987 0
M  V30 4026 C 369.692 -3.38221 -0.762086 0
M  V30 4027 C 368.753 -4.29227 0.078896 0
M  V30 4028 C 367.986 -5.28205 -0.763874 0
M  V30 4029 O 368.209 -5.34112 -2.00201 0
M  V30 4030 O 367.143 -6.01618 -0.18428 0
M  V30 4031 H 370.969 -2.89649 0.913088 0
M  V30 4032 H 368.554 -1.40374 0.511417 0
M  V30 4033 H 370.436 -4.01872 -1.26793 0
M  V30 4034 H 369.111 -2.85211 -1.5309 0
M  V30 4035 H 368.018 -3.68747 0.630621 0
M  V30 4036 H 369.351 -4.85484 0.810289 0
M  V30 4037 N 371.003 -0.499398 -1.49478 0
M  V30 4038 C 372.28 0.108629 -1.95298 0
M  V30 4039 C 372.66 1.54282 -1.44084 0
M  V30 4040 O 372.008 2.18944 -0.653908 0
M  V30 4041 C 372.218 0.0229111 -3.48992 0
M  V30 4042 C 373.566 0.197643 -4.2414 0
M  V30 4043 O 374.59 0.0981735 -3.56065 0
M  V30 4044 O 373.449 0.401669 -5.45022 0
M  V30 4045 H 370.543 0.096181 -0.821388 0
M  V30 4046 H 373.089 -0.561822 -1.6013 0
M  V30 4047 H 371.861 -0.977321 -3.78899 0
M  V30 4048 H 371.484 0.733579 -3.90774 0
M  V30 4049 N 372.481 1.55866 -0.233164 0
M  V30 4050 C 373.728 1.98603 0.395374 0
M  V30 4051 C 374.056 1.12105 1.58942 0
M  V30 4052 O 373.311 0.168656 1.94972 0
M  V30 4053 C 373.61 3.46856 0.861724 0
M  V30 4054 C 373.276 4.50348 -0.223066 0
M  V30 4055 C 371.938 4.78371 -0.521038 0
M  V30 4056 C 374.29 5.12355 -0.956124 0
M  V30 4057 C 371.618 5.6568 -1.55638 0
M  V30 4058 C 373.97 6.00786 -1.98089 0
M  V30 4059 C 372.634 6.27148 -2.28565 0
M  V30 4060 H 371.904 0.726739 0.144677 0
M  V30 4061 H 374.551 1.88491 -0.338114 0
M  V30 4062 H 372.856 3.5423 1.67418 0
M  V30 4063 H 374.553 3.77302 1.35809 0
M  V30 4064 H 371.143 4.28596 0.0193234 0
M  V30 4065 H 375.327 4.90765 -0.739166 0
M  V30 4066 H 370.583 5.84365 -1.798 0
M  V30 4067 H 374.757 6.4788 -2.55391 0
M  V30 4068 H 372.384 6.94597 -3.08932 0
M  V30 4069 N 373.959 -0.0401083 1.57549 0
M  V30 4070 C 374.891 -1.07149 2.02612 0
M  V30 4071 C 375.904 -1.33126 0.937085 0
M  V30 4072 O 377.093 -1.30808 1.21456 0
M  V30 4073 C 374.193 -2.41561 2.37701 0
M  V30 4074 C 373.366 -2.35096 3.68848 0
M  V30 4075 C 372.425 -3.51867 3.91249 0
M  V30 4076 O 371.451 -3.3186 4.62447 0
M  V30 4077 N 372.653 -4.73351 3.36035 0
M  V30 4078 H 375.418 -0.687485 2.91708 0
M  V30 4079 H 372.979 -0.228248 1.60283 0
M  V30 4080 H 374.971 -3.18379 2.49833 0
M  V30 4081 H 373.541 -2.71846 1.54332 0
M  V30 4082 H 372.761 -1.4345 3.67173 0
M  V30 4083 H 374.049 -2.27908 4.54901 0
M  V30 4084 H 373.447 -4.92507 2.78304 0
M  V30 4085 H 372.004 -5.47572 3.53565 0
M  V30 4086 N 375.437 -1.54477 -0.31217 0
M  V30 4087 C 376.347 -1.87695 -1.4074 0
M  V30 4088 C 377.363 -0.769975 -1.56036 0
M  V30 4089 O 378.539 -1.06537 -1.70915 0
M  V30 4090 C 375.604 -2.10755 -2.75287 0
M  V30 4091 C 374.665 -3.34514 -2.69071 0
M  V30 4092 C 373.898 -3.56465 -3.97201 0
M  V30 4093 O 374.121 -2.81637 -4.96021 0
M  V30 4094 O 373.055 -4.49964 -3.9977 0
M  V30 4095 H 376.881 -2.80849 -1.15574 0
M  V30 4096 H 374.466 -1.40526 -0.507228 0
M  V30 4097 H 376.348 -2.27188 -3.54913 0
M  V30 4098 H 375.023 -1.20788 -3.0032 0
M  V30 4099 H 373.93 -3.23456 -1.87955 0
M  V30 4100 H 375.263 -4.24575 -2.48992 0
M  V30 4101 N 376.915 0.57481 -1.46744 0
M  V30 4102 C 378.14 1.36341 -1.56288 0
M  V30 4103 C 378.565 1.86954 -0.207347 0
M  V30 4104 O 377.923 1.62006 0.813871 0
M  V30 4105 C 377.971 2.52147 -2.57787 0
M  V30 4106 O 377.075 3.53834 -2.11838 0
M  V30 4107 H 376.416 0.405713 -0.525636 0
M  V30 4108 H 378.946 0.696453 -1.92382 0
M  V30 4109 H 378.956 2.98958 -2.77648 0
M  V30 4110 H 377.631 2.14663 -3.5622 0
M  V30 4111 H 376.208 3.1345 -2.01999 0
M  V30 4112 N 378.394 1.34581 0.820102 0
M  V30 4113 C 379.342 1.26401 1.95258 0
M  V30 4114 C 380.336 0.161553 1.68628 0
M  V30 4115 O 381.542 0.326703 1.7701 0
M  V30 4116 H 377.917 0.392749 0.64129 0
M  V30 4117 H 379.888 2.22105 1.99279 0
M  V30 4118 C 378.637 1.03919 3.31807 0
M  V30 4119 H 377.96 1.87984 3.52848 0
M  V30 4120 H 379.4 1.02232 4.11491 0
M  V30 4121 C 377.859 -0.257433 3.35915 0
M  V30 4122 O 378.389 -1.25784 3.81499 0
M  V30 4123 N 376.595 -0.291524 2.89134 0
M  V30 4124 H 376.142 0.523161 2.52232 0
M  V30 4125 H 376.1 -1.15883 2.92264 0
M  V30 4126 N 379.872 -1.04064 1.18357 0
M  V30 4127 C 381.288 -1.2947 0.933258 0
M  V30 4128 C 381.488 -1.97466 -0.401169 0
M  V30 4129 O 380.544 -2.25528 -1.13549 0
M  V30 4130 C 381.857 -2.15337 2.09882 0
M  V30 4131 C 383.405 -2.28683 2.13712 0
M  V30 4132 C 383.88 -3.17917 3.29686 0
M  V30 4133 N 385.371 -3.25504 3.29547 0
M  V30 4134 C 386.106 -3.94706 4.15926 0
M  V30 4135 N 385.602 -4.66239 5.12439 0
M  V30 4136 N 387.395 -3.90986 4.0384 0
M  V30 4137 H 379.546 -0.583359 2.04232 0
M  V30 4138 H 381.809 -0.319921 0.892387 0
M  V30 4139 H 381.515 -1.72682 3.06389 0
M  V30 4140 H 381.389 -3.16015 2.05947 0
M  V30 4141 H 383.776 -2.70575 1.17784 0
M  V30 4142 H 383.857 -1.27596 2.21705 0
M  V30 4143 H 383.501 -2.76736 4.25887 0
M  V30 4144 H 383.431 -4.19036 3.1893 0
M  V30 4145 H 385.922 -2.74547 2.59677 0
M  V30 4146 H 386.235 -5.16638 5.74722 0
M  V30 4147 H 384.58 -4.65143 5.16398 0
M  V30 4148 H 387.771 -3.34234 3.27727 0
M  V30 4149 H 387.944 -4.44646 4.71375 0
M  V30 4150 N 381.35 -0.985608 -1.22978 0
M  V30 4151 C 382.283 -0.47487 -2.23204 0
M  V30 4152 C 383.261 0.460865 -1.55932 0
M  V30 4153 O 384.445 0.388105 -1.84461 0
M  V30 4154 C 381.572 0.312427 -3.37256 0
M  V30 4155 C 380.618 -0.568219 -4.22698 0
M  V30 4156 S 381.451 -2.01919 -4.95973 0
M  V30 4157 C 382.607 -1.24118 -6.1347 0
M  V30 4158 H 382.84 -1.32419 -2.66181 0
M  V30 4159 H 380.373 -0.792005 -1.32539 0
M  V30 4160 H 382.331 0.760645 -4.03391 0
M  V30 4161 H 380.992 1.13693 -2.92801 0
M  V30 4162 H 380.185 0.0371657 -5.03986 0
M  V30 4163 H 379.787 -0.952897 -3.61657 0
M  V30 4164 H 382.079 -0.505121 -6.75614 0
M  V30 4165 H 383.022 -2.02907 -6.78406 0
M  V30 4166 H 383.43 -0.757669 -5.59392 0
M  V30 4167 N 382.828 1.3818 -0.7579 0
M  V30 4168 C 384.058 2.04004 -0.326463 0
M  V30 4169 C 384.466 1.57286 1.05156 0
M  V30 4170 O 383.809 0.743144 1.67997 0
M  V30 4171 C 383.871 3.58444 -0.275402 0
M  V30 4172 C 383.535 4.28237 -1.59569 0
M  V30 4173 C 384.532 4.53312 -2.54566 0
M  V30 4174 C 382.217 4.66341 -1.86631 0
M  V30 4175 C 384.211 5.15531 -3.74842 0
M  V30 4176 C 381.898 5.28283 -3.0718 0
M  V30 4177 C 382.896 5.52814 -4.01106 0
M  V30 4178 O 382.584 6.13465 -5.19534 0
M  V30 4179 H 382.316 0.662026 -0.136739 0
M  V30 4180 H 384.87 1.7777 -1.02893 0
M  V30 4181 H 383.1 3.83667 0.483337 0
M  V30 4182 H 384.789 4.05701 0.127099 0
M  V30 4183 H 385.555 4.24299 -2.34936 0
M  V30 4184 H 381.434 4.46591 -1.14358 0
M  V30 4185 H 384.978 5.34594 -4.48168 0
M  V30 4186 H 380.875 5.56719 -3.26702 0
M  V30 4187 H 381.643 6.31951 -5.20173 0
M  V30 4188 N 384.306 0.507319 1.49211 0
M  V30 4189 C 385.531 -0.033725 2.07373 0
M  V30 4190 C 385.956 -1.29485 1.36437 0
M  V30 4191 O 385.314 -1.76294 0.423087 0
M  V30 4192 C 385.362 -0.263945 3.59633 0
M  V30 4193 O 384.466 -1.33737 3.90113 0
M  V30 4194 H 383.807 0.0290331 0.663365 0
M  V30 4195 H 386.337 0.708749 1.91932 0
M  V30 4196 H 386.347 -0.493536 4.05004 0
M  V30 4197 H 385.022 0.657424 4.10671 0
M  V30 4198 H 383.599 -1.09224 3.56545 0
M  V30 4199 N 385.784 -1.5574 0.241426 0
M  V30 4200 C 387.03 -1.99104 -0.385406 0
M  V30 4201 C 387.363 -1.1293 -1.57988 0
M  V30 4202 O 386.638 -0.191449 -1.93555 0
M  V30 4203 C 386.921 -3.51087 -0.800616 0
M  V30 4204 C 386.774 -4.48028 0.398874 0
M  V30 4205 C 388.093 -4.08015 -1.64959 0
M  V30 4206 H 385.212 -0.723848 -0.138614 0
M  V30 4207 H 387.854 -1.86903 0.341642 0
M  V30 4208 H 386.004 -3.61615 -1.4201 0
M  V30 4209 H 387.676 -4.49487 1.03726 0
M  V30 4210 H 385.919 -4.21077 1.04293 0
M  V30 4211 H 386.59 -5.51962 0.0651056 0
M  V30 4212 H 389.066 -4.00555 -1.12672 0
M  V30 4213 H 387.942 -5.14635 -1.90898 0
M  V30 4214 H 388.203 -3.56131 -2.61961 0
M  V30 4215 N 387.262 0.0317525 -1.57568 0
M  V30 4216 C 388.21 1.05165 -2.07468 0
M  V30 4217 C 389.204 1.3761 -0.98792 0
M  V30 4218 O 390.41 1.36546 -1.17282 0
M  V30 4219 H 386.785 0.35666 -0.66204 0
M  V30 4220 H 388.756 0.604958 -2.92203 0
M  V30 4221 C 387.505 2.34488 -2.56731 0
M  V30 4222 H 386.828 2.10383 -3.39969 0
M  V30 4223 H 388.268 3.04203 -2.95358 0
M  V30 4224 C 386.727 3.03266 -1.46736 0
M  V30 4225 O 387.257 3.92988 -0.832069 0
M  V30 4226 N 385.463 2.6455 -1.20256 0
M  V30 4227 H 385.01 1.91674 -1.72102 0
M  V30 4228 H 384.968 3.10886 -0.468737 0
M  V30 4229 N 388.74 1.54641 0.303973 0
M  V30 4230 C 389.988 1.73437 1.0375 0
M  V30 4231 C 390.309 0.521449 1.87899 0
M  V30 4232 O 389.579 -0.46432 1.90318 0
M  V30 4233 H 388.159 0.639518 0.386039 0
M  V30 4234 H 390.821 1.91988 0.335675 0
M  V30 4235 H 389.917 2.62235 1.69231 0
M  V30 4236 N 390.218 -0.567019 1.47046 0
M  V30 4237 C 391.448 -1.34831 1.56538 0
M  V30 4238 C 391.856 -1.8802 0.21101 0
M  V30 4239 O 391.199 -1.65152 -0.804387 0
M  V30 4240 C 391.261 -2.56139 2.52256 0
M  V30 4241 C 390.925 -2.24307 3.98165 0
M  V30 4242 C 391.922 -1.82192 4.86931 0
M  V30 4243 C 389.607 -2.35968 4.43423 0
M  V30 4244 C 391.601 -1.52153 6.18973 0
M  V30 4245 C 389.288 -2.05542 5.75496 0
M  V30 4246 C 390.286 -1.63701 6.63092 0
M  V30 4247 O 389.974 -1.33657 7.92711 0
M  V30 4248 H 389.706 -0.417683 0.531523 0
M  V30 4249 H 392.26 -0.694726 1.93294 0
M  V30 4250 H 390.49 -3.24356 2.10548 0
M  V30 4251 H 392.179 -3.18214 2.51982 0
M  V30 4252 H 392.945 -1.72684 4.53217 0
M  V30 4253 H 388.824 -2.67495 3.75456 0
M  V30 4254 H 392.368 -1.19421 6.87302 0
M  V30 4255 H 388.265 -2.14679 6.08755 0
M  V30 4256 H 389.033 -1.4737 8.05124 0
M  V30 4257 N 391.696 -1.35014 -0.812953 0
M  V30 4258 C 392.924 -1.31031 -1.6012 0
M  V30 4259 C 393.339 0.113558 -1.88458 0
M  V30 4260 O 392.696 1.06363 -1.48301 0
M  V30 4261 C 392.747 -2.10872 -2.93624 0
M  V30 4262 O 392.468 -3.47706 -2.66518 0
M  V30 4263 C 393.969 -2.14401 -3.88004 0
M  V30 4264 H 391.189 -0.45037 -0.497401 0
M  V30 4265 H 393.733 -1.77775 -1.01076 0
M  V30 4266 H 391.888 -1.67744 -3.492 0
M  V30 4267 H 392.302 -3.89097 -3.51715 0
M  V30 4268 H 393.776 -2.74669 -4.78812 0
M  V30 4269 H 394.253 -1.14105 -4.24119 0
M  V30 4270 H 394.859 -2.57662 -3.38364 0
M  V30 4271 N 393.175 1.03435 -1.18907 0
M  V30 4272 C 394.422 1.76743 -0.988334 0
M  V30 4273 C 394.75 1.88447 0.481441 0
M  V30 4274 O 394.005 1.39383 1.37371 0
M  V30 4275 C 394.304 3.19792 -1.59586 0
M  V30 4276 C 393.97 3.28108 -3.09283 0
M  V30 4277 C 392.632 3.30084 -3.5014 0
M  V30 4278 C 394.984 3.27696 -4.05296 0
M  V30 4279 C 392.312 3.29299 -4.85571 0
M  V30 4280 C 394.664 3.28451 -5.4065 0
M  V30 4281 C 393.328 3.28723 -5.80946 0
M  V30 4282 H 392.598 0.64675 -0.361657 0
M  V30 4283 H 395.245 1.21442 -1.48068 0
M  V30 4284 H 393.55 3.78136 -1.02568 0
M  V30 4285 H 395.247 3.75171 -1.41589 0
M  V30 4286 H 391.837 3.27294 -2.76725 0
M  V30 4287 H 396.021 3.25354 -3.74778 0
M  V30 4288 H 391.277 3.2783 -5.16079 0
M  V30 4289 H 395.451 3.27082 -6.14809 0
M  V30 4290 H 393.078 3.27868 -6.85862 0
M  V30 4291 N 394.653 0.992116 1.22453 0
M  V30 4292 C 395.901 0.666215 1.90804 0
M  V30 4293 C 396.222 -0.804152 1.77647 0
M  V30 4294 O 395.492 -1.57629 1.16318 0
M  V30 4295 H 394.072 0.243423 0.706225 0
M  V30 4296 H 396.734 1.25845 1.48825 0
M  V30 4297 H 395.83 0.928069 2.97982 0
M  V30 4298 N 396.131 -1.37776 0.765217 0
M  V30 4299 C 397.356 -2.04651 0.336537 0
M  V30 4300 C 397.781 -1.57337 -1.03086 0
M  V30 4301 O 397.139 -0.730621 -1.65927 0
M  V30 4302 C 397.187 -3.58577 0.381468 0
M  V30 4303 O 396.291 -4.07706 -0.62042 0
M  V30 4304 H 395.632 -0.64756 0.146838 0
M  V30 4305 H 398.162 -1.76221 1.03959 0
M  V30 4306 H 398.172 -4.07314 0.236448 0
M  V30 4307 H 396.847 -3.9237 1.37907 0
M  V30 4308 H 395.424 -3.70306 -0.439056 0
M  V30 4309 N 397.609 -0.515225 -1.4894 0
M  V30 4310 C 398.539 0.244628 -2.32215 0
M  V30 4311 C 399.52 0.949136 -1.41157 0
M  V30 4312 O 400.705 0.937783 -1.70057 0
M  V30 4313 C 397.835 1.30096 -3.22013 0
M  V30 4314 C 396.789 0.715486 -4.21977 0
M  V30 4315 C 396.115 1.87339 -5.00808 0
M  V30 4316 C 397.415 -0.302982 -5.2142 0
M  V30 4317 H 399.109 -0.450501 -2.95991 0
M  V30 4318 H 396.655 -0.218098 -1.42339 0
M  V30 4319 H 398.608 1.84037 -3.79089 0
M  V30 4320 H 397.332 2.02547 -2.56207 0
M  V30 4321 H 395.991 0.197715 -3.66066 0
M  V30 4322 H 395.639 2.58592 -4.31438 0
M  V30 4323 H 395.339 1.48764 -5.68457 0
M  V30 4324 H 396.863 2.41686 -5.60732 0
M  V30 4325 H 398.277 0.148802 -5.73107 0
M  V30 4326 H 396.674 -0.60532 -5.97039 0
M  V30 4327 H 397.744 -1.21395 -4.69459 0
M  V30 4328 N 399.087 1.5561 -0.249682 0
M  V30 4329 C 400.498 1.84979 0.252949 0
M  V30 4330 C 400.849 1.17153 1.57384 0
M  V30 4331 O 399.974 0.450884 2.11651 0
M  V30 4332 C 400.569 3.35584 0.465732 0
M  V30 4333 C 399.128 3.65169 0.912624 0
M  V30 4334 C 398.275 2.77299 -0.00859085 0
M  V30 4335 H 401.226 1.51513 -0.47217 0
M  V30 4336 H 401.247 3.57313 1.30795 0
M  V30 4337 H 400.759 3.8492 -0.49579 0
M  V30 4338 H 398.86 3.21312 1.88652 0
M  V30 4339 H 398.973 4.72912 0.767559 0
M  V30 4340 H 397.337 2.49678 0.50327 0
M  V30 4341 H 398.12 3.29442 -0.965537 0
M  V30 4342 N 400.565 -0.0233959 1.57583 0
M  V30 4343 C 401.813 -0.711654 1.89156 0
M  V30 4344 C 402.134 -1.75591 0.848096 0
M  V30 4345 O 401.404 -1.95547 -0.117566 0
M  V30 4346 H 399.984 -0.265835 0.698098 0
M  V30 4347 H 402.646 0.0119948 1.94896 0
M  V30 4348 H 401.742 -1.19766 2.88206 0
M  V30 4349 N 402.043 -1.548 -0.295768 0
M  V30 4350 C 402.973 -1.89115 -1.36959 0
M  V30 4351 C 403.954 -0.75059 -1.52644 0
M  V30 4352 O 405.139 -1.00678 -1.66065 0
M  V30 4353 C 402.269 -2.14307 -2.73295 0
M  V30 4354 C 401.223 -3.30151 -2.72368 0
M  V30 4355 C 400.549 -3.40772 -4.12042 0
M  V30 4356 C 401.849 -4.67126 -2.33646 0
M  V30 4357 H 403.543 -2.79053 -1.08488 0
M  V30 4358 H 401.089 -1.34266 -0.520443 0
M  V30 4359 H 403.042 -2.36898 -3.48507 0
M  V30 4360 H 401.766 -1.21145 -3.03301 0
M  V30 4361 H 400.425 -3.0749 -1.99613 0
M  V30 4362 H 400.073 -2.45117 -4.39234 0
M  V30 4363 H 399.773 -4.18645 -4.12322 0
M  V30 4364 H 401.297 -3.6563 -4.89027 0
M  V30 4365 H 402.711 -4.89414 -2.98575 0
M  V30 4366 H 401.108 -5.47751 -2.45129 0
M  V30 4367 H 402.178 -4.67489 -1.28772 0
M  V30 4368 N 403.521 0.559213 -1.47345 0
M  V30 4369 C 404.746 1.34676 -1.57725 0
M  V30 4370 C 405.171 1.86723 -0.227164 0
M  V30 4371 O 404.529 1.6286 0.796642 0
M  V30 4372 C 404.577 2.49399 -2.60447 0
M  V30 4373 O 403.681 3.51567 -2.15578 0
M  V30 4374 H 403.022 0.400115 -0.52991 0
M  V30 4375 H 405.552 0.676009 -1.93109 0
M  V30 4376 H 405.562 2.95996 -2.80803 0
M  V30 4377 H 404.237 2.10873 -3.58477 0
M  V30 4378 H 402.814 3.11289 -2.05313 0
M  V30 4379 N 404.999 1.35443 0.805782 0
M  V30 4380 C 405.932 1.22783 1.92353 0
M  V30 4381 C 406.91 0.115543 1.62189 0
M  V30 4382 O 408.094 0.283778 1.86352 0
M  V30 4383 C 405.221 0.890746 3.26777 0
M  V30 4384 C 404.267 2.01519 3.75889 0
M  V30 4385 S 405.1 3.63101 3.93596 0
M  V30 4386 C 406.256 3.31472 5.30921 0
M  V30 4387 H 406.489 2.17394 2.02798 0
M  V30 4388 H 404.022 1.20669 0.963245 0
M  V30 4389 H 405.98 0.703068 4.04434 0
M  V30 4390 H 404.641 -0.0373152 3.14078 0
M  V30 4391 H 403.834 1.7335 4.7325 0
M  V30 4392 H 403.436 2.16124 3.05231 0
M  V30 4393 H 405.728 2.8435 6.1494 0
M  V30 4394 H 406.671 4.28036 5.64084 0
M  V30 4395 H 407.079 2.67221 4.97246 0
M  V30 4396 N 406.477 -1.02803 1.19454 0
M  V30 4397 C 407.717 -1.77769 1.00883 0
M  V30 4398 C 408.081 -1.86596 -0.45233 0
M  V30 4399 O 409.282 -2.57895 -0.757877 0
M  V30 4400 C 407.553 -3.16486 1.66046 0
M  V30 4401 S 409.112 -4.07632 1.62424 0
M  V30 4402 H 405.93 -0.611949 0.361993 0
M  V30 4403 H 408.532 -1.23175 1.51816 0
M  V30 4404 H 407.236 -3.0768 2.7159 0
M  V30 4405 H 406.767 -3.76156 1.15196 0
M  V30 4406 H 408.782 -4.91937 0.64903 0
M  V30 4407 N 407.956 -0.998596 -1.21925 0
M  V30 4408 C 408.919 -0.558679 -2.22287 0
M  V30 4409 C 409.919 0.361525 -1.56683 0
M  V30 4410 O 411.109 0.152695 -1.73529 0
M  V30 4411 C 408.241 0.18661 -3.40389 0
M  V30 4412 H 409.434 -1.4463 -2.62721 0
M  V30 4413 H 406.987 -0.786413 -1.35075 0
M  V30 4414 H 407.722 1.08996 -3.05435 0
M  V30 4415 H 407.507 -0.474188 -3.89222 0
M  V30 4416 H 408.997 0.482367 -4.14805 0
M  V30 4417 N 409.434 1.37368 -0.772513 0
M  V30 4418 C 410.344 2.34053 -0.160081 0
M  V30 4419 C 411.36 1.60216 0.678728 0
M  V30 4420 O 412.536 1.92303 0.59847 0
M  V30 4421 C 409.601 3.3939 0.708182 0
M  V30 4422 C 408.662 4.29048 -0.147172 0
M  V30 4423 C 407.895 5.29354 0.679744 0
M  V30 4424 O 408.118 5.3723 1.91678 0
M  V30 4425 O 407.052 6.01835 0.0885444 0
M  V30 4426 H 410.878 2.88159 -0.959053 0
M  V30 4427 H 408.463 1.39543 -0.533685 0
M  V30 4428 H 410.345 4.03839 1.20384 0
M  V30 4429 H 409.02 2.8761 1.48533 0
M  V30 4430 H 407.927 3.67697 -0.689205 0
M  V30 4431 H 409.26 4.84134 -0.887423 0
M  V30 4432 N 410.912 0.523116 1.48665 0
M  V30 4433 C 412.189 -0.0775449 1.95446 0
M  V30 4434 C 412.569 -1.5197 1.4652 0
M  V30 4435 O 411.917 -2.17876 0.688657 0
M  V30 4436 C 412.127 0.0326135 3.48985 0
M  V30 4437 C 413.475 -0.130141 4.24401 0
M  V30 4438 O 414.499 -0.0415142 3.56176 0
M  V30 4439 O 413.358 -0.31491 5.45592 0
M  V30 4440 H 410.452 -0.0831012 0.822814 0
M  V30 4441 H 412.998 0.587227 1.59216 0
M  V30 4442 H 411.77 1.03748 3.77296 0
M  V30 4443 H 411.393 -0.671317 3.91892 0
M  V30 4444 N 412.39 -1.55475 0.257931 0
M  V30 4445 C 413.806 -1.59307 -0.0966563 0
M  V30 4446 C 414.006 -1.27514 -1.5602 0
M  V30 4447 O 413.062 -1.02774 -2.30637 0
M  V30 4448 C 414.375 -2.99552 0.262481 0
M  V30 4449 C 415.923 -3.1231 0.207683 0
M  V30 4450 C 416.398 -4.54793 0.541012 0
M  V30 4451 N 417.889 -4.6058 0.491921 0
M  V30 4452 C 418.624 -5.68825 0.722857 0
M  V30 4453 N 418.12 -6.85287 1.0175 0
M  V30 4454 N 419.913 -5.58296 0.652815 0
M  V30 4455 H 412.064 -1.74409 1.21224 0
M  V30 4456 H 414.327 -0.812424 0.48854 0
M  V30 4457 H 414.033 -3.27593 1.27967 0
M  V30 4458 H 413.907 -3.75019 -0.40508 0
M  V30 4459 H 416.294 -2.84044 -0.800195 0
M  V30 4460 H 416.375 -2.39095 0.909255 0
M  V30 4461 H 416.019 -4.83783 1.5465 0
M  V30 4462 H 415.949 -5.26285 -0.18216 0
M  V30 4463 H 418.44 -3.7691 0.273366 0
M  V30 4464 H 418.753 -7.63725 1.18084 0
M  V30 4465 H 417.098 -6.86945 1.05509 0
M  V30 4466 H 420.289 -4.66189 0.422592 0
M  V30 4467 H 420.462 -6.42582 0.836182 0
M  V30 4468 N 413.868 0.0150385 -1.57593 0
M  V30 4469 C 415.114 0.704043 -1.90187 0
M  V30 4470 C 415.447 1.74249 -0.857366 0
M  V30 4471 O 414.722 1.94092 0.125843 0
M  V30 4472 C 415.005 1.36087 -3.33395 0
M  V30 4473 C 414.858 0.334981 -4.48551 0
M  V30 4474 C 416.177 2.29112 -3.7576 0
M  V30 4475 H 413.296 0.254475 -0.691673 0
M  V30 4476 H 415.938 -0.0331678 -1.89971 0
M  V30 4477 H 414.088 1.98922 -3.3371 0
M  V30 4478 H 415.76 -0.292534 -4.60372 0
M  V30 4479 H 414.003 -0.344325 -4.32431 0
M  V30 4480 H 414.674 0.833316 -5.45674 0
M  V30 4481 H 417.15 1.76308 -3.76902 0
M  V30 4482 H 416.026 2.72043 -4.76743 0
M  V30 4483 H 416.287 3.16385 -3.08793 0
M  V30 4484 N 415.346 1.54954 0.287554 0
M  V30 4485 C 416.293 1.86834 1.35505 0
M  V30 4486 C 417.263 0.718452 1.49758 0
M  V30 4487 O 418.448 0.968358 1.644 0
M  V30 4488 C 415.588 2.13303 2.71286 0
M  V30 4489 C 414.701 3.40883 2.65373 0
M  V30 4490 C 413.836 3.57125 3.93236 0
M  V30 4491 C 412.875 4.78449 3.81776 0
M  V30 4492 N 412.012 4.91426 5.01443 0
M  V30 4493 H 416.852 2.77889 1.07619 0
M  V30 4494 H 414.389 1.37593 0.520241 0
M  V30 4495 H 416.347 2.26646 3.50267 0
M  V30 4496 H 414.977 1.25499 2.97405 0
M  V30 4497 H 414.029 3.36088 1.78182 0
M  V30 4498 H 415.341 4.29993 2.52799 0
M  V30 4499 H 414.495 3.70207 4.80658 0
M  V30 4500 H 413.234 2.66173 4.0866 0
M  V30 4501 H 412.239 4.65386 2.92738 0
M  V30 4502 H 413.464 5.70822 3.67884 0
M  V30 4503 H 411.41 4.03401 5.17304 0
M  V30 4504 H 411.327 5.74559 4.91343 0
M  V30 4505 H 412.595 5.08879 5.90477 0
M  V30 4506 N 416.824 -0.551391 1.4764 0
M  V30 4507 C 418.07 -1.30789 1.55774 0
M  V30 4508 C 418.425 -1.91143 0.219562 0
M  V30 4509 O 417.718 -1.7521 -0.775375 0
M  V30 4510 C 417.912 -2.43469 2.61644 0
M  V30 4511 C 417.741 -1.94157 4.05627 0
M  V30 4512 C 416.511 -1.77734 4.7301 0
M  V30 4513 C 418.709 -1.48262 4.92466 0
M  V30 4514 N 416.691 -1.22823 6.01488 0
M  V30 4515 C 418.062 -1.05156 6.11017 0
M  V30 4516 C 420.117 -1.36367 4.78862 0
M  V30 4517 C 418.82 -0.513357 7.17466 0
M  V30 4518 C 420.846 -0.839484 5.85411 0
M  V30 4519 C 420.208 -0.418377 7.03156 0
M  V30 4520 H 416.307 -0.470406 0.624694 0
M  V30 4521 H 418.891 -0.624331 1.84419 0
M  V30 4522 H 417.062 -3.09348 2.34859 0
M  V30 4523 H 418.794 -3.10477 2.59589 0
M  V30 4524 H 415.549 -2.00623 4.29007 0
M  V30 4525 H 415.973 -0.974393 6.69951 0
M  V30 4526 H 420.615 -1.67535 3.88191 0
M  V30 4527 H 418.333 -0.189318 8.07878 0
M  V30 4528 H 421.919 -0.750921 5.76934 0
M  V30 4529 H 420.799 -0.0190538 7.84198 0
M  V30 4530 N 418.302 -1.35869 -0.798587 0
M  V30 4531 C 419.532 -1.32529 -1.58491 0
M  V30 4532 C 419.94 0.0975405 -1.88948 0
M  V30 4533 O 419.283 1.06224 -1.49874 0
M  V30 4534 C 419.345 -2.07247 -2.9375 0
M  V30 4535 C 419.009 -3.56391 -2.86068 0
M  V30 4536 C 420.006 -4.50824 -2.58947 0
M  V30 4537 C 417.691 -3.9915 -3.04933 0
M  V30 4538 C 419.685 -5.85993 -2.5078 0
M  V30 4539 C 417.372 -5.34413 -2.96389 0
M  V30 4540 C 418.37 -6.27646 -2.69349 0
M  V30 4541 O 418.058 -7.60426 -2.60782 0
M  V30 4542 H 417.79 -0.456529 -0.498556 0
M  V30 4543 H 420.344 -1.79425 -0.999799 0
M  V30 4544 H 418.574 -1.55001 -3.54276 0
M  V30 4545 H 420.263 -1.96883 -3.54954 0
M  V30 4546 H 421.029 -4.19104 -2.44084 0
M  V30 4547 H 416.908 -3.26961 -3.24989 0
M  V30 4548 H 420.452 -6.58735 -2.29595 0
M  V30 4549 H 416.349 -5.65743 -3.10813 0
M  V30 4550 H 417.117 -7.70444 -2.76331 0
M  V30 4551 N 419.78 1.02168 -1.19998 0
M  V30 4552 C 420.71 2.12488 -0.96804 0
M  V30 4553 C 421.691 1.69799 0.101185 0
M  V30 4554 O 422.876 1.94121 -0.0552993 0
M  V30 4555 C 420.006 3.43479 -0.513776 0
M  V30 4556 C 418.96 3.99884 -1.52566 0
M  V30 4557 C 418.286 5.26582 -0.928214 0
M  V30 4558 C 419.586 4.33861 -2.90795 0
M  V30 4559 H 421.28 2.32149 -1.89069 0
M  V30 4560 H 418.826 1.11564 -0.910468 0
M  V30 4561 H 420.779 4.20036 -0.338774 0
M  V30 4562 H 419.503 3.23561 0.444493 0
M  V30 4563 H 418.162 3.25429 -1.68794 0
M  V30 4564 H 417.81 5.02986 0.0378289 0
M  V30 4565 H 417.51 5.65284 -1.60397 0
M  V30 4566 H 419.034 6.05799 -0.764167 0
M  V30 4567 H 420.448 5.01327 -2.78109 0
M  V30 4568 H 418.845 4.83664 -3.55231 0
M  V30 4569 H 419.915 3.42848 -3.42904 0
M  V30 4570 N 421.258 1.00505 1.21394 0
M  V30 4571 C 422.505 0.687774 1.90462 0
M  V30 4572 C 422.833 -0.78147 1.7811 0
M  V30 4573 O 422.088 -1.58208 1.1519 0
M  V30 4574 C 422.387 1.0546 3.41486 0
M  V30 4575 C 422.053 2.51812 3.74034 0
M  V30 4576 C 420.715 2.91804 3.82628 0
M  V30 4577 C 423.067 3.46614 3.8924 0
M  V30 4578 C 420.395 4.2556 4.03876 0
M  V30 4579 C 422.747 4.80044 4.11995 0
M  V30 4580 C 421.411 5.19759 4.18816 0
M  V30 4581 H 420.681 0.251674 0.696951 0
M  V30 4582 H 423.328 1.26349 1.43903 0
M  V30 4583 H 421.633 0.397133 3.89782 0
M  V30 4584 H 423.33 0.786976 3.93202 0
M  V30 4585 H 419.92 2.1982 3.67936 0
M  V30 4586 H 424.104 3.16883 3.81967 0
M  V30 4587 H 419.36 4.55901 4.07387 0
M  V30 4588 H 423.534 5.53439 4.22704 0
M  V30 4589 H 421.161 6.23418 4.35033 0
M  V30 4590 N 422.737 -1.36956 0.779787 0
M  V30 4591 C 423.985 -1.99097 0.347079 0
M  V30 4592 C 424.306 -1.62206 -1.08232 0
M  V30 4593 O 423.576 -0.891373 -1.74446 0
M  V30 4594 H 422.156 -0.736409 0.125342 0
M  V30 4595 H 424.818 -1.67308 0.999696 0
M  V30 4596 H 423.914 -3.09107 0.431162 0
M  V30 4597 N 424.215 -0.530993 -1.48385 0
M  V30 4598 C 425.148 0.278511 -2.26494 0
M  V30 4599 C 426.126 0.943905 -1.32398 0
M  V30 4600 O 427.31 0.968098 -1.61741 0
M  V30 4601 C 424.437 1.39453 -3.08659 0
M  V30 4602 C 423.483 0.840434 -4.18137 0
M  V30 4603 S 424.316 -0.292496 -5.34701 0
M  V30 4604 C 425.472 0.825973 -6.20426 0
M  V30 4605 H 425.705 -0.384365 -2.94805 0
M  V30 4606 H 423.238 -0.316799 -1.51115 0
M  V30 4607 H 425.196 2.03382 -3.56575 0
M  V30 4608 H 423.857 2.02913 -2.3976 0
M  V30 4609 H 423.05 1.67769 -4.75257 0
M  V30 4610 H 422.652 0.277819 -3.72967 0
M  V30 4611 H 424.944 1.72438 -6.55188 0
M  V30 4612 H 425.887 0.292728 -7.07495 0
M  V30 4613 H 426.295 1.10683 -5.53543 0
M  V30 4614 N 425.693 1.55336 -0.266172 0
M  V30 4615 C 426.941 1.99003 0.35246 0
M  V30 4616 C 427.262 1.15591 1.57047 0
M  V30 4617 O 426.532 0.243268 1.94384 0
M  V30 4618 H 425.112 0.735025 0.133217 0
M  V30 4619 H 427.774 1.91367 -0.369434 0
M  V30 4620 H 426.87 3.05289 0.648453 0
M  V30 4621 N 427.171 -0.0066808 1.57599 0
M  V30 4622 C 428.119 -1.01851 2.09115 0
M  V30 4623 C 429.113 -1.36021 1.00969 0
M  V30 4624 O 430.319 -1.34663 1.19439 0
M  V30 4625 H 426.694 -0.346083 0.667631 0
M  V30 4626 H 428.665 -0.558394 2.93129 0
M  V30 4627 C 427.414 -2.30374 2.60429 0
M  V30 4628 H 426.737 -2.04947 3.43273 0
M  V30 4629 H 428.177 -2.99466 3.00161 0
M  V30 4630 C 426.636 -3.00893 1.51542 0
M  V30 4631 O 427.166 -3.91614 0.894484 0
M  V30 4632 N 425.372 -2.62603 1.2445 0
M  V30 4633 H 424.919 -1.88911 1.75129 0
M  V30 4634 H 424.877 -3.10101 0.518137 0
M  V30 4635 N 428.649 -1.55105 -0.279332 0
M  V30 4636 C 429.559 -1.90638 -1.36727 0
M  V30 4637 C 430.575 -0.802899 -1.54368 0
M  V30 4638 O 431.751 -1.10138 -1.68616 0
M  V30 4639 C 428.816 -2.16547 -2.70755 0
M  V30 4640 C 427.877 -3.40146 -2.61915 0
M  V30 4641 C 427.11 -3.6481 -3.8955 0
M  V30 4642 O 427.333 -2.92095 -4.89935 0
M  V30 4643 O 426.267 -4.58343 -3.90135 0
M  V30 4644 H 430.093 -2.83237 -1.09591 0
M  V30 4645 H 427.678 -1.4157 -0.477306 0
M  V30 4646 H 429.56 -2.34665 -3.50014 0
M  V30 4647 H 428.235 -1.27131 -2.9769 0
M  V30 4648 H 427.142 -3.2737 -1.81052 0
M  V30 4649 H 428.475 -4.29761 -2.3993 0
M  V30 4650 N 430.127 0.543554 -1.4793 0
M  V30 4651 C 431.373 1.30201 -1.55485 0
M  V30 4652 C 431.706 1.92925 -0.222201 0
M  V30 4653 O 430.981 1.78586 0.77053 0
M  V30 4654 C 431.264 2.40174 -2.68307 0
M  V30 4655 C 431.117 1.8223 -4.11233 0
M  V30 4656 C 432.436 3.42024 -2.76961 0
M  V30 4657 H 429.555 0.472036 -0.565996 0
M  V30 4658 H 432.197 0.606914 -1.80046 0
M  V30 4659 H 430.347 2.99463 -2.47495 0
M  V30 4660 H 432.019 1.27096 -4.43446 0
M  V30 4661 H 430.262 1.12832 -4.18869 0
M  V30 4662 H 430.933 2.61793 -4.85972 0
M  V30 4663 H 433.409 2.92672 -2.95774 0
M  V30 4664 H 432.285 4.16383 -3.57654 0
M  V30 4665 H 432.546 4.0173 -1.84568 0
M  V30 4666 N 431.605 1.3629 0.791371 0
M  V30 4667 C 432.882 1.20962 1.53712 0
M  V30 4668 C 433.262 -0.205021 2.10102 0
M  V30 4669 O 432.61 -1.21042 1.93807 0
M  V30 4670 C 432.82 2.29002 2.63361 0
M  V30 4671 C 434.168 2.65572 3.31295 0
M  V30 4672 O 435.192 2.2803 2.73643 0
M  V30 4673 O 434.051 3.3018 4.35481 0
M  V30 4674 H 431.145 0.47086 0.679867 0
M  V30 4675 H 433.691 1.48016 0.830021 0
M  V30 4676 H 432.463 3.2382 2.19674 0
M  V30 4677 H 432.086 2.03303 3.41692 0
M  V30 4678 N 433.083 -1.0153 1.20538 0
M  V30 4679 C 434.329 -1.75408 1.01783 0
M  V30 4680 C 434.662 -1.88943 -0.448814 0
M  V30 4681 O 433.937 -1.4162 -1.33319 0
M  V30 4682 C 434.22 -3.17255 1.70356 0
M  V30 4683 C 434.073 -3.11508 3.24473 0
M  V30 4684 C 435.392 -4.15955 1.43769 0
M  V30 4685 H 432.511 -0.636713 0.371167 0
M  V30 4686 H 435.153 -1.18436 1.4857 0
M  V30 4687 H 433.303 -3.65898 1.30578 0
M  V30 4688 H 434.975 -2.70658 3.73553 0
M  V30 4689 H 433.218 -2.4887 3.55311 0
M  V30 4690 H 433.889 -4.11784 3.67611 0
M  V30 4691 H 436.365 -3.75973 1.7828 0
M  V30 4692 H 435.241 -5.13368 1.94279 0
M  V30 4693 H 435.502 -4.40586 0.365564 0
M  V30 4694 N 434.561 -1.01147 -1.20859 0
M  V30 4695 C 435.511 -0.548247 -2.2131 0
M  V30 4696 C 436.495 0.393646 -1.5601 0
M  V30 4697 O 437.687 0.217445 -1.75659 0
M  V30 4698 C 434.816 0.117252 -3.431 0
M  V30 4699 C 433.902 -0.846043 -4.15575 0
M  V30 4700 N 434.293 -2.00149 -4.64515 0
M  V30 4701 C 432.591 -0.665783 -4.41003 0
M  V30 4702 C 433.292 -2.60764 -5.19978 0
M  V30 4703 N 432.268 -1.88868 -5.09735 0
M  V30 4704 H 436.07 -1.42921 -2.56809 0
M  V30 4705 H 433.584 -0.876142 -1.36739 0
M  V30 4706 H 435.581 0.46662 -4.1428 0
M  V30 4707 H 434.241 0.994115 -3.09107 0
M  V30 4708 H 435.252 -2.38162 -4.5989 0
M  V30 4709 H 431.929 0.163456 -4.1718 0
M  V30 4710 H 433.319 -3.58519 -5.68255 0
M  V30 4711 N 436.039 1.36541 -0.78704 0
M  V30 4712 C 437.002 2.28413 -0.189778 0
M  V30 4713 C 438.002 1.48719 0.611499 0
M  V30 4714 O 439.192 1.68737 0.432842 0
M  V30 4715 C 436.324 3.32824 0.737638 0
M  V30 4716 H 437.517 2.82743 -0.999831 0
M  V30 4717 H 435.07 1.46065 -0.556298 0
M  V30 4718 H 435.805 2.83646 1.57212 0
M  V30 4719 H 435.59 3.91752 0.165044 0
M  V30 4720 H 437.08 4.0144 1.15047 0
M  V30 4721 N 437.518 0.538854 1.48102 0
M  V30 4722 C 438.481 -0.208395 2.28251 0
M  V30 4723 C 439.481 -0.859656 1.35892 0
M  V30 4724 O 440.671 -0.71834 1.58699 0
M  V30 4725 C 437.803 -1.30252 3.15035 0
M  V30 4726 H 438.996 0.495407 2.9578 0
M  V30 4727 H 436.549 0.295112 1.53489 0
M  V30 4728 H 437.284 -2.0393 2.52157 0
M  V30 4729 H 437.069 -0.840551 3.82985 0
M  V30 4730 H 438.559 -1.82787 3.75471 0
M  V30 4731 N 438.996 -1.55193 0.274407 0
M  V30 4732 C 440.243 -1.99581 -0.342579 0
M  V30 4733 C 440.571 -1.1628 -1.55914 0
M  V30 4734 O 439.826 -0.22029 -1.94456 0
M  V30 4735 C 440.125 -3.49019 -0.769458 0
M  V30 4736 C 439.791 -4.49598 0.342389 0
M  V30 4737 C 438.453 -4.76821 0.647686 0
M  V30 4738 C 440.805 -5.0964 1.09163 0
M  V30 4739 C 438.133 -5.61354 1.70581 0
M  V30 4740 C 440.485 -5.95323 2.13948 0
M  V30 4741 C 439.149 -6.20867 2.45113 0
M  V30 4742 H 438.419 -0.730319 -0.125358 0
M  V30 4743 H 441.066 -1.87529 0.387971 0
M  V30 4744 H 439.371 -3.58544 -1.57967 0
M  V30 4745 H 441.068 -3.8077 -1.25757 0
M  V30 4746 H 437.658 -4.28496 0.094318 0
M  V30 4747 H 441.842 -4.88632 0.869024 0
M  V30 4748 H 437.098 -5.79392 1.9523 0
M  V30 4749 H 441.272 -6.40881 2.72478 0
M  V30 4750 H 438.899 -6.86162 3.27239 0
M  V30 4751 N 440.474 -0.00167713 -1.576 0
M  V30 4752 C 441.721 0.68282 -1.90641 0
M  V30 4753 C 442.049 1.73686 -0.875415 0
M  V30 4754 O 441.304 1.95334 0.119575 0
M  V30 4755 C 441.603 1.36189 -3.30435 0
M  V30 4756 C 441.269 0.440887 -4.48739 0
M  V30 4757 C 439.931 0.187312 -4.80835 0
M  V30 4758 C 442.283 -0.193134 -5.20842 0
M  V30 4759 C 439.611 -0.70855 -5.82406 0
M  V30 4760 C 441.963 -1.07688 -6.23367 0
M  V30 4761 C 440.627 -1.33962 -6.53919 0
M  V30 4762 H 439.897 0.249862 -0.697603 0
M  V30 4763 H 442.544 -0.0575642 -1.91413 0
M  V30 4764 H 440.849 2.17636 -3.25794 0
M  V30 4765 H 442.546 1.89759 -3.5326 0
M  V30 4766 H 439.136 0.648694 -4.23663 0
M  V30 4767 H 443.32 -0.0102445 -4.96299 0
M  V30 4768 H 438.576 -0.920097 -6.04437 0
M  V30 4769 H 442.75 -1.57451 -6.78367 0
M  V30 4770 H 440.377 -2.03549 -7.32442 0
M  V30 4771 N 441.952 1.55251 0.271103 0
M  V30 4772 C 442.902 1.84649 1.33749 0
M  V30 4773 C 443.886 0.705529 1.44607 0
M  V30 4774 O 445.078 0.966916 1.48256 0
M  V30 4775 C 442.207 2.12354 2.69742 0
M  V30 4776 C 441.293 3.32714 2.62988 0
M  V30 4777 N 441.684 4.52575 2.25853 0
M  V30 4778 C 439.982 3.35341 2.94045 0
M  V30 4779 C 440.683 5.34669 2.29136 0
M  V30 4780 N 439.659 4.73123 2.67685 0
M  V30 4781 H 443.461 2.74865 1.0405 0
M  V30 4782 H 440.975 1.55152 0.479738 0
M  V30 4783 H 442.972 2.31572 3.4667 0
M  V30 4784 H 441.632 1.23422 3.00328 0
M  V30 4785 H 442.643 4.78639 1.978 0
M  V30 4786 H 439.32 2.56608 3.2933 0
M  V30 4787 H 440.71 6.40509 2.02971 0
M  V30 4788 N 443.43 -0.535701 1.48216 0
M  V30 4789 C 444.678 -1.28928 1.55634 0
M  V30 4790 C 444.999 -1.93645 0.229514 0
M  V30 4791 O 444.269 -1.81038 -0.74846 0
M  V30 4792 H 442.849 -0.47884 0.573342 0
M  V30 4793 H 445.511 -0.623853 1.84646 0
M  V30 4794 H 444.607 -2.07157 2.33436 0
M  V30 4795 N 444.908 -1.36708 -0.784132 0
M  V30 4796 C 445.84 -1.27333 -1.90575 0
M  V30 4797 C 446.853 -0.191706 -1.61667 0
M  V30 4798 O 448.042 -0.446854 -1.72816 0
M  V30 4799 C 445.142 -0.943177 -3.25511 0
M  V30 4800 C 444.315 -2.12776 -3.82158 0
M  V30 4801 C 443.374 -1.76983 -4.95544 0
M  V30 4802 O 442.4 -2.49134 -5.11782 0
M  V30 4803 N 443.602 -0.706624 -5.76183 0
M  V30 4804 H 446.367 -2.23974 -1.99138 0
M  V30 4805 H 443.928 -1.30171 -0.962656 0
M  V30 4806 H 445.92 -0.684799 -3.98864 0
M  V30 4807 H 444.49 -0.0657333 -3.12531 0
M  V30 4808 H 443.71 -2.54863 -3.0073 0
M  V30 4809 H 444.998 -2.91904 -4.16737 0
M  V30 4810 H 444.396 -0.107643 -5.65598 0
M  V30 4811 H 442.953 -0.50808 -6.49817 0
M  V30 4812 N 446.386 1.0089 -1.21074 0
M  V30 4813 C 447.349 2.0775 -0.968129 0
M  V30 4814 C 448.349 1.6069 0.0593445 0
M  V30 4815 O 449.539 1.73293 -0.177525 0
M  V30 4816 C 446.671 3.37794 -0.459108 0
M  V30 4817 H 447.864 2.30707 -1.9161 0
M  V30 4818 H 445.417 1.17807 -1.02719 0
M  V30 4819 H 446.152 3.20516 0.49397 0
M  V30 4820 H 445.937 3.7328 -1.20019 0
M  V30 4821 H 447.427 4.16454 -0.309099 0
M  V30 4822 N 447.864 1.01787 1.20321 0
M  V30 4823 C 448.794 0.609625 2.25401 0
M  V30 4824 C 449.775 -0.375951 1.65893 0
M  V30 4825 O 450.96 -0.261101 1.92437 0
M  V30 4826 C 448.09 -0.0515995 3.47262 0
M  V30 4827 C 447.044 0.855095 4.19371 0
M  V30 4828 C 446.37 0.0595757 5.34667 0
M  V30 4829 C 447.67 2.16374 4.75373 0
M  V30 4830 H 449.364 1.48803 2.59804 0
M  V30 4831 H 446.91 0.716934 1.24884 0
M  V30 4832 H 448.863 -0.348764 4.19954 0
M  V30 4833 H 447.587 -0.964726 3.12027 0
M  V30 4834 H 446.246 1.13628 3.48546 0
M  V30 4835 H 445.894 -0.85524 4.95676 0
M  V30 4836 H 445.594 0.663406 5.83843 0
M  V30 4837 H 447.118 -0.231105 6.10162 0
M  V30 4838 H 448.532 1.92885 5.39878 0
M  V30 4839 H 446.929 2.71853 5.34991 0
M  V30 4840 H 447.999 2.82589 3.94045 0
M  V30 4841 N 449.342 -1.36122 0.79427 0
M  V30 4842 C 450.57 -2.03362 0.380989 0
M  V30 4843 C 450.985 -1.59881 -1.00416 0
M  V30 4844 O 450.342 -0.790515 -1.6449 0
M  V30 4845 C 450.393 -3.58804 0.440649 0
M  V30 4846 O 450.114 -4.007 1.77118 0
M  V30 4847 C 451.615 -4.43296 0.0186117 0
M  V30 4848 H 448.835 -0.652526 0.156367 0
M  V30 4849 H 451.379 -1.73998 1.07447 0
M  V30 4850 H 449.534 -3.8686 -0.204458 0
M  V30 4851 H 449.948 -4.95309 1.72538 0
M  V30 4852 H 451.422 -5.51887 0.111488 0
M  V30 4853 H 451.899 -4.2684 -1.03461 0
M  V30 4854 H 452.505 -4.20512 0.636395 0
M  V30 4855 N 450.82 -0.546701 -1.47814 0
M  V30 4856 C 451.768 0.220048 -2.31557 0
M  V30 4857 C 452.762 0.919472 -1.42275 0
M  V30 4858 O 453.968 0.841953 -1.59095 0
M  V30 4859 H 450.343 0.0898334 -0.746615 0
M  V30 4860 H 452.314 -0.505589 -2.94086 0
M  V30 4861 C 451.063 1.24353 -3.24702 0
M  V30 4862 H 450.386 0.714758 -3.93359 0
M  V30 4863 H 451.826 1.75112 -3.8615 0
M  V30 4864 C 450.285 2.28593 -2.47481 0
M  V30 4865 O 450.815 3.35334 -2.21165 0
M  V30 4866 N 449.021 2.02244 -2.08676 0
M  V30 4867 H 448.568 1.15455 -2.30278 0
M  V30 4868 H 448.526 2.72207 -1.57323 0
M  V30 4869 N 452.299 1.55045 -0.282633 0
M  V30 4870 C 453.246 2.22822 0.601566 0
M  V30 4871 C 454.216 1.20431 1.14392 0
M  V30 4872 O 455.401 1.48996 1.19184 0
M  V30 4873 C 452.541 2.95873 1.77632 0
M  V30 4874 C 451.654 4.12999 1.26711 0
M  V30 4875 C 450.789 4.73676 2.40426 0
M  V30 4876 C 449.828 5.82981 1.86545 0
M  V30 4877 N 448.965 6.3769 2.93762 0
M  V30 4878 H 453.805 2.97995 0.0169528 0
M  V30 4879 H 451.342 1.471 -0.00339964 0
M  V30 4880 H 453.3 3.36447 2.46697 0
M  V30 4881 H 451.93 2.2311 2.33285 0
M  V30 4882 H 450.982 3.77494 0.469314 0
M  V30 4883 H 452.294 4.91803 0.832518 0
M  V30 4884 H 451.448 5.17008 3.17471 0
M  V30 4885 H 450.187 3.94164 2.87203 0
M  V30 4886 H 449.192 5.39092 1.07983 0
M  V30 4887 H 450.417 6.64366 1.40694 0
M  V30 4888 H 448.363 5.61069 3.39908 0
M  V30 4889 H 448.28 7.11788 2.54744 0
M  V30 4890 H 449.548 6.8568 3.7076 0
M  V30 4891 N 453.777 0.010035 1.57597 0
M  V30 4892 C 454.725 -0.996272 2.10184 0
M  V30 4893 C 455.719 -1.34942 1.02406 0
M  V30 4894 O 456.925 -1.33389 1.20861 0
M  V30 4895 H 453.3 -0.338982 0.671264 0
M  V30 4896 H 455.271 -0.527272 2.93705 0
M  V30 4897 C 454.02 -2.27599 2.62857 0
M  V30 4898 H 453.343 -2.01295 3.45428 0
M  V30 4899 H 454.783 -2.96265 3.0332 0
M  V30 4900 C 453.242 -2.99269 1.54725 0
M  V30 4901 O 453.772 -3.90644 0.93597 0
M  V30 4902 N 451.978 -2.61269 1.27228 0
M  V30 4903 H 451.525 -1.87043 1.77123 0
M  V30 4904 H 451.483 -3.09534 0.550999 0
M  V30 4905 N 455.255 -1.55392 -0.262866 0
M  V30 4906 C 456.485 -1.80251 -1.00961 0
M  V30 4907 C 456.893 -0.58117 -1.80053 0
M  V30 4908 O 456.236 0.459427 -1.77862 0
M  V30 4909 C 456.298 -2.98207 -2.00781 0
M  V30 4910 C 455.962 -4.34856 -1.40533 0
M  V30 4911 C 456.959 -5.13459 -0.815853 0
M  V30 4912 C 454.644 -4.8153 -1.42948 0
M  V30 4913 C 456.638 -6.36875 -0.258562 0
M  V30 4914 C 454.325 -6.04899 -0.868334 0
M  V30 4915 C 455.323 -6.8241 -0.283884 0
M  V30 4916 O 455.011 -8.03451 0.268644 0
M  V30 4917 H 454.743 -0.604049 -0.303482 0
M  V30 4918 H 457.297 -2.03257 -0.295926 0
M  V30 4919 H 455.527 -2.70917 -2.75936 0
M  V30 4920 H 457.216 -3.10299 -2.61667 0
M  V30 4921 H 457.982 -4.78526 -0.789812 0
M  V30 4922 H 453.861 -4.21201 -1.87378 0
M  V30 4923 H 457.405 -6.97318 0.198257 0
M  V30 4924 H 453.302 -6.39312 -0.891649 0
M  V30 4925 H 454.07 -8.18346 0.158974 0
M  V30 4926 N 456.733 0.527833 -1.48498 0
M  V30 4927 C 458.149 0.856571 -1.34666 0
M  V30 4928 C 458.349 1.98271 -0.35931 0
M  V30 4929 O 457.405 2.51551 0.218703 0
M  V30 4930 C 458.718 1.22207 -2.74747 0
M  V30 4931 C 460.266 1.33183 -2.83251 0
M  V30 4932 C 460.741 1.73075 -4.24039 0
M  V30 4933 N 462.232 1.80174 -4.26722 0
M  V30 4934 C 462.967 2.1243 -5.32598 0
M  V30 4935 N 462.463 2.43096 -6.4875 0
M  V30 4936 N 464.256 2.13454 -5.19994 0
M  V30 4937 H 456.407 -0.215174 -2.11307 0
M  V30 4938 H 458.67 -0.0336281 -0.947403 0
M  V30 4939 H 458.376 0.468195 -3.4857 0
M  V30 4940 H 458.25 2.17173 -3.08409 0
M  V30 4941 H 460.637 2.07647 -2.09683 0
M  V30 4942 H 460.718 0.363333 -2.53206 0
M  V30 4943 H 460.362 0.991712 -4.98124 0
M  V30 4944 H 460.292 2.70979 -4.51529 0
M  V30 4945 H 462.783 1.58744 -3.42942 0
M  V30 4946 H 463.096 2.6682 -7.25277 0
M  V30 4947 H 461.441 2.40611 -6.52021 0
M  V30 4948 H 464.632 1.88956 -4.28268 0
M  V30 4949 H 464.805 2.38261 -6.02608 0
M  V30 4950 N 458.211 1.37122 0.776871 0
M  V30 4951 C 459.46 1.31373 1.53049 0
M  V30 4952 C 459.773 -0.101016 1.95339 0
M  V30 4953 O 460.979 -0.280953 2.70042 0
M  V30 4954 C 459.435 2.30567 2.76346 0
M  V30 4955 C 459.043 3.77543 2.41175 0
M  V30 4956 C 460.787 2.33818 3.54301 0
M  V30 4957 C 458.694 4.68481 3.60943 0
M  V30 4958 H 457.624 0.488234 0.574581 0
M  V30 4959 H 460.275 1.62554 0.851372 0
M  V30 4960 H 458.657 1.92396 3.46121 0
M  V30 4961 H 459.831 4.24521 1.79216 0
M  V30 4962 H 458.146 3.77187 1.76405 0
M  V30 4963 H 460.743 2.98965 4.4331 0
M  V30 4964 H 461.086 1.3503 3.93793 0
M  V30 4965 H 461.619 2.7067 2.91518 0
M  V30 4966 H 458.358 5.68378 3.26537 0
M  V30 4967 H 457.878 4.2621 4.22025 0
M  V30 4968 H 459.557 4.85366 4.27819 0
M  V30 4969 N 459.689 -1.00246 1.21608 0
M  V30 4970 C 460.966 -1.71336 0.943568 0
M  V30 4971 C 461.346 -2.03972 -0.543943 0
M  V30 4972 O 460.694 -1.71545 -1.50946 0
M  V30 4973 C 460.904 -2.97094 1.83128 0
M  V30 4974 C 462.252 -3.70071 2.08165 0
M  V30 4975 O 463.276 -3.07081 1.80498 0
M  V30 4976 O 462.135 -4.83376 2.54971 0
M  V30 4977 H 459.229 -0.747386 0.354039 0
M  V30 4978 H 461.775 -1.05967 1.32549 0
M  V30 4979 H 460.547 -2.69407 2.83788 0
M  V30 4980 H 460.17 -3.70204 1.45034 0
M  V30 4981 N 461.167 -1.02423 -1.1978 0
M  V30 4982 C 462.395 -0.737456 -1.93311 0
M  V30 4983 C 462.81 0.703023 -1.75223 0
M  V30 4984 O 462.167 1.47761 -1.07112 0
M  V30 4985 C 462.218 -1.0733 -3.45199 0
M  V30 4986 O 461.939 -2.4572 -3.62702 0
M  V30 4987 C 463.44 -0.80866 -4.35862 0
M  V30 4988 H 460.66 -0.2702 -0.614193 0
M  V30 4989 H 463.204 -1.36747 -1.52054 0
M  V30 4990 H 461.359 -0.488545 -3.84307 0
M  V30 4991 H 461.773 -2.58081 -4.56612 0
M  V30 4992 H 463.247 -1.09365 -5.41057 0
M  V30 4993 H 463.724 0.257025 -4.38447 0
M  V30 4994 H 464.33 -1.37592 -4.02428 0
M  V30 4995 N 462.645 1.35699 -0.801477 0
M  V30 4996 C 463.894 1.98165 -0.375979 0
M  V30 4997 C 464.207 1.64306 1.06127 0
M  V30 4998 O 465.413 2.20097 1.58964 0
M  V30 4999 C 463.869 3.54497 -0.621305 0
M  V30 5000 C 463.477 3.9727 -2.07076 0
M  V30 5001 C 465.221 4.23697 -0.26091 0
M  V30 5002 C 463.128 5.46427 -2.26211 0
M  V30 5003 H 462.058 0.741478 -0.136844 0
M  V30 5004 H 464.709 1.54834 -0.984814 0
M  V30 5005 H 463.091 3.95958 0.0574112 0
M  V30 5006 H 464.265 3.66974 -2.78687 0
M  V30 5007 H 462.58 3.40943 -2.39054 0
M  V30 5008 H 465.177 5.33334 -0.381994 0
M  V30 5009 H 465.52 4.0869 0.792344 0
M  V30 5010 H 466.053 3.87639 -0.893339 0
M  V30 5011 H 462.792 5.66396 -3.29963 0
M  V30 5012 H 462.312 5.78309 -1.59119 0
M  V30 5013 H 463.991 6.12819 -2.07513 0
M  V30 5014 N 464.123 0.554532 1.47522 0
M  V30 5015 C 465.071 -0.207765 2.3167 0
M  V30 5016 C 466.065 -0.911914 1.4276 0
M  V30 5017 O 467.271 -0.833504 1.59539 0
M  V30 5018 H 463.646 -0.0858726 0.747081 0
M  V30 5019 H 465.617 0.521178 2.93813 0
M  V30 5020 C 464.366 -1.2263 3.25357 0
M  V30 5021 H 463.689 -0.693887 3.93732 0
M  V30 5022 H 465.129 -1.73062 3.87073 0
M  V30 5023 C 463.588 -2.27278 2.4869 0
M  V30 5024 O 464.118 -3.34156 2.22941 0
M  V30 5025 N 462.324 -2.01134 2.09746 0
M  V30 5026 H 461.871 -1.14232 2.30887 0
M  V30 5027 H 461.829 -2.71369 1.58765 0
M  V30 5028 N 465.601 -1.54893 0.290851 0
M  V30 5029 C 466.531 -2.26103 -0.583084 0
M  V30 5030 C 467.512 -1.25684 -1.14619 0
M  V30 5031 O 468.697 -1.54436 -1.17741 0
M  V30 5032 C 465.827 -2.99409 -1.75987 0
M  V30 5033 C 464.781 -4.0689 -1.32758 0
M  V30 5034 C 464.107 -4.67856 -2.58872 0
M  V30 5035 C 465.407 -5.20215 -0.46624 0
M  V30 5036 H 467.101 -2.99398 0.0108214 0
M  V30 5037 H 464.647 -1.43998 0.00664468 0
M  V30 5038 H 466.6 -3.47943 -2.37727 0
M  V30 5039 H 465.324 -2.23675 -2.37985 0
M  V30 5040 H 463.983 -3.59191 -0.733299 0
M  V30 5041 H 463.631 -3.88772 -3.19163 0
M  V30 5042 H 463.331 -5.40438 -2.30653 0
M  V30 5043 H 464.855 -5.19147 -3.21433 0
M  V30 5044 H 466.269 -5.64704 -0.989047 0
M  V30 5045 H 464.666 -5.99455 -0.27826 0
M  V30 5046 H 465.736 -4.82198 0.511173 0
M  V30 5047 N 467.08 -0.0183926 -1.57589 0
M  V30 5048 C 468.327 0.662562 -1.91354 0
M  V30 5049 C 468.655 1.72747 -0.893788 0
M  V30 5050 O 467.91 1.9545 0.0988509 0
M  V30 5051 C 468.209 1.32676 -3.31861 0
M  V30 5052 C 467.875 0.393267 -4.49182 0
M  V30 5053 C 466.537 0.136302 -4.81007 0
M  V30 5054 C 468.889 -0.248366 -5.20608 0
M  V30 5055 C 466.217 -0.770282 -5.81621 0
M  V30 5056 C 468.569 -1.14294 -6.22189 0
M  V30 5057 C 467.233 -1.4089 -6.52462 0
M  V30 5058 H 466.503 0.242448 -0.700214 0
M  V30 5059 H 469.15 -0.0778629 -1.91342 0
M  V30 5060 H 467.455 2.14168 -3.28084 0
M  V30 5061 H 469.152 1.86001 -3.55253 0
M  V30 5062 H 465.742 0.603723 -4.24327 0
M  V30 5063 H 469.926 -0.062883 -4.9626 0
M  V30 5064 H 465.182 -0.984154 -6.03427 0
M  V30 5065 H 469.356 -1.64637 -6.76659 0
M  V30 5066 H 466.983 -2.11306 -7.30242 0
M  V30 5067 N 468.558 1.5553 0.254621 0
M  V30 5068 C 469.969 1.67518 0.824286 0
M  V30 5069 C 470.32 0.614429 1.86331 0
M  V30 5070 O 469.445 -0.240736 2.15057 0
M  V30 5071 C 470.04 3.03692 1.50189 0
M  V30 5072 C 468.599 3.17646 2.01935 0
M  V30 5073 C 467.746 2.63373 0.867746 0
M  V30 5074 H 470.697 1.58671 0.0305843 0
M  V30 5075 H 470.718 2.97706 2.36962 0
M  V30 5076 H 470.23 3.80874 0.745431 0
M  V30 5077 H 468.331 2.45273 2.80485 0
M  V30 5078 H 468.444 4.24455 2.22204 0
M  V30 5079 H 466.808 2.20999 1.26616 0
M  V30 5080 H 467.591 3.43074 0.124498 0
M  V30 5081 N 470.036 -0.519951 1.48776 0
M  V30 5082 C 470.999 -1.60574 1.6355 0
M  V30 5083 C 471.999 -1.52557 0.508234 0
M  V30 5084 O 473.189 -1.56047 0.774262 0
M  V30 5085 C 470.321 -3.00211 1.61512 0
M  V30 5086 H 471.514 -1.4881 2.60376 0
M  V30 5087 H 469.067 -0.742772 1.37523 0
M  V30 5088 H 469.802 -3.17471 0.662009 0
M  V30 5089 H 469.587 -3.07439 2.43359 0
M  V30 5090 H 471.077 -3.79134 1.75064 0
M  V30 5091 N 471.514 -1.37532 -0.769588 0
M  V30 5092 C 472.742 -1.36059 -1.55871 0
M  V30 5093 C 473.157 0.053544 -1.88724 0
M  V30 5094 O 472.514 1.01591 -1.5161 0
M  V30 5095 C 472.565 -2.20107 -2.86767 0
M  V30 5096 O 472.286 -3.56009 -2.55321 0
M  V30 5097 C 473.787 -2.26636 -3.80987 0
M  V30 5098 H 471.007 -0.465967 -0.482821 0
M  V30 5099 H 473.551 -1.80901 -0.953686 0
M  V30 5100 H 471.706 -1.78768 -3.43687 0
M  V30 5101 H 472.12 -4.0009 -3.39158 0
M  V30 5102 H 473.594 -2.89763 -4.69831 0
M  V30 5103 H 474.071 -1.2754 -4.20274 0
M  V30 5104 H 474.677 -2.68296 -3.29996 0
M  V30 5105 N 472.992 0.995999 -1.22138 0
M  V30 5106 C 473.922 2.10387 -1.01289 0
M  V30 5107 C 474.903 1.69975 0.0651454 0
M  V30 5108 O 476.088 1.9396 -0.0964628 0
M  V30 5109 C 473.218 3.42312 -0.586517 0
M  V30 5110 C 472.172 3.96558 -1.61014 0
M  V30 5111 C 471.498 5.24494 -1.0397 0
M  V30 5112 C 472.798 4.27595 -2.99933 0
M  V30 5113 H 474.492 2.28086 -1.93951 0
M  V30 5114 H 472.038 1.09607 -0.933928 0
M  V30 5115 H 473.991 4.19223 -0.427793 0
M  V30 5116 H 472.715 3.24431 0.375761 0
M  V30 5117 H 471.374 3.21776 -1.75658 0
M  V30 5118 H 471.022 5.02953 -0.0688703 0
M  V30 5119 H 470.722 5.61755 -1.72352 0
M  V30 5120 H 472.246 6.04042 -0.892494 0
M  V30 5121 H 473.66 4.95315 -2.8868 0
M  V30 5122 H 472.057 4.76021 -3.6541 0
M  V30 5123 H 473.127 3.35498 -3.50099 0
M  V30 5124 N 474.47 1.03057 1.19235 0
M  V30 5125 C 475.717 0.728019 1.88961 0
M  V30 5126 C 476.045 -0.743515 1.79728 0
M  V30 5127 O 475.3 -1.55729 1.1852 0
M  V30 5128 C 475.599 1.1268 3.39172 0
M  V30 5129 C 475.265 2.5969 3.68608 0
M  V30 5130 C 473.927 2.99854 3.76352 0
M  V30 5131 C 476.279 3.54793 3.81801 0
M  V30 5132 C 473.607 4.34031 3.94758 0
M  V30 5133 C 475.959 4.88675 4.0172 0
M  V30 5134 C 474.623 5.28526 4.07697 0
M  V30 5135 H 473.893 0.266401 0.691456 0
M  V30 5136 H 476.54 1.29373 1.41191 0
M  V30 5137 H 474.845 0.479722 3.88852 0
M  V30 5138 H 476.542 0.870203 3.91444 0
M  V30 5139 H 473.132 2.27575 3.63191 0
M  V30 5140 H 477.316 3.24914 3.7516 0
M  V30 5141 H 472.572 4.6444 3.97625 0
M  V30 5142 H 476.746 5.6228 4.1087 0
M  V30 5143 H 474.373 6.32506 4.21712 0
M  V30 5144 N 475.948 -1.35272 0.808662 0
M  V30 5145 C 477.225 -1.93077 0.313181 0
M  V30 5146 C 477.605 -1.73847 -1.19752 0
M  V30 5147 O 476.953 -1.1087 -1.998 0
M  V30 5148 C 477.163 -3.41347 0.726859 0
M  V30 5149 C 478.511 -4.18493 0.717532 0
M  V30 5150 O 479.535 -3.4987 0.668535 0
M  V30 5151 O 478.394 -5.40937 0.777779 0
M  V30 5152 H 475.488 -0.822885 0.0824018 0
M  V30 5153 H 478.034 -1.44335 0.892499 0
M  V30 5154 H 476.806 -3.49082 1.76797 0
M  V30 5155 H 476.429 -3.97411 0.122461 0
M  V30 5156 N 477.426 -0.562348 -1.47226 0
M  V30 5157 C 478.389 0.172056 -2.28553 0
M  V30 5158 C 479.389 0.837928 -1.37242 0
M  V30 5159 O 480.579 0.693001 -1.59822 0
M  V30 5160 C 477.711 1.25223 -3.17068 0
M  V30 5161 H 478.904 -0.542401 -2.94954 0
M  V30 5162 H 476.457 -0.319493 -1.53 0
M  V30 5163 H 477.192 1.99892 -2.55369 0
M  V30 5164 H 476.977 0.779515 -3.84273 0
M  V30 5165 H 478.467 1.76791 -3.78332 0
M  V30 5166 N 478.904 1.54736 -0.299062 0
M  V30 5167 C 480.134 2.04215 0.312992 0
M  V30 5168 C 480.542 1.17596 1.48215 0
M  V30 5169 O 479.885 0.193835 1.82674 0
M  V30 5170 C 479.947 3.49696 0.833862 0
M  V30 5171 C 479.611 4.56518 -0.20977 0
M  V30 5172 C 480.608 5.09442 -1.03756 0
M  V30 5173 C 478.293 5.01073 -0.35091 0
M  V30 5174 C 480.287 6.05459 -1.99244 0
M  V30 5175 C 477.974 5.9691 -1.30924 0
M  V30 5176 C 478.972 6.48987 -2.1285 0
M  V30 5177 O 478.66 7.42947 -3.07059 0
M  V30 5178 H 478.392 0.672128 0.0722494 0
M  V30 5179 H 480.946 2.00718 -0.436043 0
M  V30 5180 H 479.176 3.5051 1.63339 0
M  V30 5181 H 480.865 3.82381 1.36159 0
M  V30 5182 H 481.631 4.75816 -0.939376 0
M  V30 5183 H 477.51 4.60168 0.276813 0
M  V30 5184 H 481.054 6.46031 -2.63229 0
M  V30 5185 H 476.951 6.29953 -1.40815 0
M  V30 5186 H 477.719 7.60743 -3.02015 0
M  V30 5187 N 480.382 0.0267497 1.57577 0
M  V30 5188 C 481.315 -0.99059 2.05579 0
M  V30 5189 C 482.293 -1.31884 0.951065 0
M  V30 5190 O 483.477 -1.43592 1.22121 0
M  V30 5191 C 480.604 -2.31125 2.47586 0
M  V30 5192 C 479.65 -2.13777 3.69055 0
M  V30 5193 S 480.483 -1.4388 5.15809 0
M  V30 5194 C 481.639 -2.77321 5.6111 0
M  V30 5195 H 481.872 -0.581976 2.91548 0
M  V30 5196 H 479.405 -0.184876 1.53289 0
M  V30 5197 H 481.363 -3.07049 2.72454 0
M  V30 5198 H 480.024 -2.6912 1.61967 0
M  V30 5199 H 479.217 -3.11405 3.96287 0
M  V30 5200 H 478.819 -1.45996 3.44327 0
M  V30 5201 H 481.111 -3.73565 5.65204 0
M  V30 5202 H 482.054 -2.54756 6.60685 0
M  V30 5203 H 482.462 -2.82459 4.88751 0
M  V30 5204 N 481.861 -1.55662 -0.24637 0
M  V30 5205 C 483.107 -1.77782 -0.975779 0
M  V30 5206 C 483.44 -0.592103 -1.84953 0
M  V30 5207 O 482.715 0.409588 -1.90138 0
M  V30 5208 C 482.998 -3.09788 -1.83584 0
M  V30 5209 C 482.851 -4.38764 -0.990241 0
M  V30 5210 C 484.17 -3.38029 -2.81823 0
M  V30 5211 H 481.289 -0.646789 -0.353317 0
M  V30 5212 H 483.931 -1.88398 -0.246248 0
M  V30 5213 H 482.081 -3.00869 -2.45784 0
M  V30 5214 H 483.753 -4.59675 -0.386897 0
M  V30 5215 H 481.996 -4.32798 -0.294626 0
M  V30 5216 H 482.667 -5.27514 -1.62584 0
M  V30 5217 H 485.143 -3.46915 -2.2976 0
M  V30 5218 H 484.019 -4.3161 -3.39122 0
M  V30 5219 H 484.28 -2.58968 -3.58313 0
M  V30 5220 N 483.339 0.512053 -1.4905 0
M  V30 5221 C 484.302 1.59704 -1.64399 0
M  V30 5222 C 485.302 1.52285 -0.516317 0
M  V30 5223 O 486.492 1.55635 -0.782527 0
M  V30 5224 C 483.624 2.9935 -1.63102 0
M  V30 5225 H 484.817 1.47428 -2.61161 0
M  V30 5226 H 482.37 0.735469 -1.37915 0
M  V30 5227 H 483.105 3.17116 -0.678836 0
M  V30 5228 H 482.89 3.06144 -2.44986 0
M  V30 5229 H 484.38 3.782 -1.77072 0
M  V30 5230 N 484.817 1.37938 0.762283 0
M  V30 5231 C 485.749 1.30349 1.88525 0
M  V30 5232 C 486.762 0.217402 1.61342 0
M  V30 5233 O 487.951 0.474291 1.72084 0
M  V30 5234 C 485.051 0.994844 3.23969 0
M  V30 5235 C 484.224 2.18829 3.78725 0
M  V30 5236 C 483.283 1.84844 4.92665 0
M  V30 5237 O 482.309 2.57244 5.07754 0
M  V30 5238 N 483.511 0.798201 5.74986 0
M  V30 5239 H 486.276 2.27114 1.95549 0
M  V30 5240 H 483.837 1.31686 0.941825 0
M  V30 5241 H 485.829 0.748168 3.97724 0
M  V30 5242 H 484.399 0.115446 3.12387 0
M  V30 5243 H 483.619 2.59615 2.96637 0
M  V30 5244 H 484.907 2.98497 4.1204 0
M  V30 5245 H 484.305 0.197611 5.65355 0
M  V30 5246 H 482.862 0.611396 6.48926 0
M  V30 5247 N 486.295 -0.989507 1.22664 0
M  V30 5248 C 487.243 -2.10148 0.997035 0
M  V30 5249 C 488.237 -1.6929 -0.0609783 0
M  V30 5250 O 489.443 -1.79766 0.0917523 0
M  V30 5251 H 485.818 -0.687256 0.305259 0
M  V30 5252 H 487.789 -2.26685 1.94053 0
M  V30 5253 C 486.538 -3.4257 0.595085 0
M  V30 5254 H 485.861 -3.74453 1.40089 0
M  V30 5255 H 487.301 -4.21344 0.473869 0
M  V30 5256 C 485.76 -3.29638 -0.695725 0
M  V30 5257 O 486.29 -3.61709 -1.74727 0
M  V30 5258 N 484.496 -2.82814 -0.668173 0
M  V30 5259 H 484.043 -2.56914 0.18787 0
M  V30 5260 H 484.001 -2.74544 -1.5321 0
M  V30 5261 N 487.773 -1.03688 -1.18687 0
M  V30 5262 C 489.184 -0.766488 -1.70241 0
M  V30 5263 C 489.535 0.713052 -1.82784 0
M  V30 5264 O 488.66 1.55529 -1.50465 0
M  V30 5265 C 489.255 -1.38475 -3.09209 0
M  V30 5266 C 487.814 -1.16276 -3.5799 0
M  V30 5267 C 486.961 -1.4778 -2.34641 0
M  V30 5268 H 489.912 -1.20378 -1.03415 0
M  V30 5269 H 489.933 -0.785939 -3.72295 0
M  V30 5270 H 489.445 -2.46157 -3.00048 0
M  V30 5271 H 487.546 -0.104508 -3.72453 0
M  V30 5272 H 487.659 -1.8571 -4.41643 0
M  V30 5273 H 486.023 -0.897366 -2.38368 0
M  V30 5274 H 486.806 -2.56562 -2.28102 0
M  V30 5275 N 489.251 1.34841 -0.815825 0
M  V30 5276 C 490.499 1.98107 -0.399744 0
M  V30 5277 C 490.82 1.65019 1.03894 0
M  V30 5278 O 490.09 0.937311 1.72021 0
M  V30 5279 H 488.67 0.732827 -0.144823 0
M  V30 5280 H 491.332 1.64599 -1.0437 0
M  V30 5281 H 490.428 3.07856 -0.512965 0
M  V30 5282 N 490.729 0.570148 1.46925 0
M  V30 5283 C 491.639 -0.173061 2.33961 0
M  V30 5284 C 492.655 -0.898825 1.48987 0
M  V30 5285 O 493.831 -0.864825 1.81887 0
M  V30 5286 C 490.896 -1.18177 3.25937 0
M  V30 5287 C 489.957 -0.462041 4.26806 0
M  V30 5288 C 489.19 -1.4227 5.14388 0
M  V30 5289 O 489.413 -2.65842 5.04662 0
M  V30 5290 O 488.347 -0.940127 5.94513 0
M  V30 5291 H 492.173 0.541216 2.98839 0
M  V30 5292 H 489.758 0.330647 1.45695 0
M  V30 5293 H 491.64 -1.76372 3.82715 0
M  V30 5294 H 490.315 -1.87774 2.63671 0
M  V30 5295 H 489.222 0.161429 3.73752 0
M  V30 5296 H 490.555 0.192719 4.91823 0
M  V30 5297 N 492.207 -1.54576 0.307264 0
M  V30 5298 C 493.453 -2.01272 -0.293453 0
M  V30 5299 C 493.808 -1.19178 -1.51044 0
M  V30 5300 O 493.101 -0.261704 -1.89804 0
M  V30 5301 C 493.295 -3.50572 -0.695253 0
M  V30 5302 C 493.124 -4.47118 0.481249 0
M  V30 5303 C 491.894 -4.958 0.97524 0
M  V30 5304 C 494.092 -4.96853 1.32823 0
M  V30 5305 N 492.074 -5.76212 2.11785 0
M  V30 5306 C 493.445 -5.75028 2.31824 0
M  V30 5307 C 495.5 -4.79026 1.35788 0
M  V30 5308 C 494.203 -6.37276 3.33574 0
M  V30 5309 C 496.229 -5.42097 2.364 0
M  V30 5310 C 495.591 -6.2011 3.34129 0
M  V30 5311 H 491.69 -0.778709 -0.0716705 0
M  V30 5312 H 494.274 -1.89695 0.438602 0
M  V30 5313 H 492.445 -3.62427 -1.39647 0
M  V30 5314 H 494.177 -3.84056 -1.27604 0
M  V30 5315 H 490.932 -4.70405 0.549184 0
M  V30 5316 H 491.356 -6.21101 2.69375 0
M  V30 5317 H 495.998 -4.18288 0.616021 0
M  V30 5318 H 493.716 -6.97144 4.08676 0
M  V30 5319 H 497.302 -5.30229 2.39475 0
M  V30 5320 H 496.182 -6.68049 4.10707 0
M  V30 5321 N 493.685 -0.035106 -1.57561 0
M  V30 5322 C 494.618 0.979673 -2.06101 0
M  V30 5323 C 495.596 1.31378 -0.958046 0
M  V30 5324 O 496.78 1.42942 -1.22881 0
M  V30 5325 C 493.907 2.29809 -2.48808 0
M  V30 5326 C 492.953 2.11817 -3.70184 0
M  V30 5327 S 493.786 1.41143 -5.16565 0
M  V30 5328 C 494.942 2.74341 -5.62572 0
M  V30 5329 H 495.175 0.566506 -2.91853 0
M  V30 5330 H 492.708 0.176744 -1.53385 0
M  V30 5331 H 494.666 3.056 -2.74078 0
M  V30 5332 H 493.327 2.68257 -1.63392 0
M  V30 5333 H 492.52 3.09299 -3.97933 0
M  V30 5334 H 492.122 1.44168 -3.45097 0
M  V30 5335 H 494.414 3.70562 -5.67177 0
M  V30 5336 H 495.357 2.51249 -6.62027 0
M  V30 5337 H 495.765 2.79863 -4.90242 0
M  V30 5338 N 495.163 1.55791 0.238111 0
M  V30 5339 C 496.093 1.94068 1.29846 0
M  V30 5340 C 497.074 0.806726 1.49753 0
M  V30 5341 O 498.259 1.06772 1.62214 0
M  V30 5342 C 495.389 2.24302 2.65153 0
M  V30 5343 C 494.343 3.40032 2.59927 0
M  V30 5344 C 493.669 3.55829 3.99111 0
M  V30 5345 C 494.969 4.75476 2.16148 0
M  V30 5346 H 496.663 2.82887 0.980563 0
M  V30 5347 H 494.209 1.36105 0.470253 0
M  V30 5348 H 496.162 2.4967 3.39475 0
M  V30 5349 H 494.886 1.32318 2.98596 0
M  V30 5350 H 493.545 3.14687 1.88063 0
M  V30 5351 H 493.193 2.6125 4.29834 0
M  V30 5352 H 492.893 4.3366 3.96501 0
M  V30 5353 H 494.417 3.83528 4.7512 0
M  V30 5354 H 495.831 5.00158 2.80205 0
M  V30 5355 H 494.228 5.56472 2.24631 0
M  V30 5356 H 495.298 4.71946 1.11333 0
M  V30 5357 N 496.642 -0.504142 1.49319 0
M  V30 5358 C 497.867 -1.28729 1.62615 0
M  V30 5359 C 498.292 -1.85752 0.296309 0
M  V30 5360 O 497.65 -1.65704 -0.735649 0
M  V30 5361 C 497.698 -2.39561 2.69524 0
M  V30 5362 O 496.802 -3.43324 2.28478 0
M  V30 5363 H 496.143 -0.380172 0.544395 0
M  V30 5364 H 498.673 -0.603872 1.95485 0
M  V30 5365 H 498.683 -2.8537 2.91595 0
M  V30 5366 H 497.358 -1.97423 3.66056 0
M  V30 5367 H 495.935 -3.03455 2.16725 0
M  V30 5368 N 498.12 -1.38341 -0.754957 0
M  V30 5369 C 499.36 -1.35888 -1.52689 0
M  V30 5370 C 499.724 0.0513682 -1.91931 0
M  V30 5371 O 500.925 0.200761 -2.68049 0
M  V30 5372 C 499.196 -2.28666 -2.74676 0
M  V30 5373 S 500.755 -2.4422 -3.64558 0
M  V30 5374 H 497.573 -0.482165 -0.522531 0
M  V30 5375 H 500.175 -1.74253 -0.886358 0
M  V30 5376 H 498.879 -3.30023 -2.43953 0
M  V30 5377 H 498.41 -1.91445 -3.43675 0
M  V30 5378 H 500.425 -1.66525 -4.67423 0
M  V30 5379 N 499.598 0.982988 -1.23187 0
M  V30 5380 C 500.53 2.07729 -0.968572 0
M  V30 5381 C 501.543 1.62702 0.0564821 0
M  V30 5382 O 502.732 1.77603 -0.178733 0
M  V30 5383 C 499.832 3.36071 -0.436974 0
M  V30 5384 C 499.005 4.10081 -1.52159 0
M  V30 5385 C 498.064 5.16701 -0.99532 0
M  V30 5386 O 497.09 5.43727 -1.68373 0
M  V30 5387 N 498.292 5.80226 0.178192 0
M  V30 5388 H 501.057 2.30894 -1.9107 0
M  V30 5389 H 498.618 1.14949 -1.1401 0
M  V30 5390 H 500.61 4.04639 -0.0700051 0
M  V30 5391 H 499.18 3.09893 0.410509 0
M  V30 5392 H 498.4 3.36004 -2.06144 0
M  V30 5393 H 499.688 4.56295 -2.25105 0
M  V30 5394 H 499.086 5.60651 0.754096 0
M  V30 5395 H 497.643 6.49982 0.486449 0
M  V30 5396 N 501.076 1.04316 1.18135 0
M  V30 5397 C 502.024 0.630175 2.23901 0
M  V30 5398 C 503.018 -0.344254 1.65865 0
M  V30 5399 O 504.224 -0.211273 1.78756 0
M  V30 5400 H 500.599 0.185578 0.728742 0
M  V30 5401 H 502.57 1.53253 2.56039 0
M  V30 5402 C 501.319 0.011666 3.47698 0
M  V30 5403 H 500.642 0.752526 3.92654 0
M  V30 5404 H 502.082 -0.240046 4.2332 0
M  V30 5405 C 500.541 -1.23913 3.13285 0
M  V30 5406 O 501.071 -2.32959 3.27251 0
M  V30 5407 N 499.277 -1.13338 2.67587 0
M  V30 5408 H 498.824 -0.246006 2.56423 0
M  V30 5409 H 498.782 -1.97116 2.44934 0
M  V30 5410 N 502.554 -1.34406 0.822964 0
M  V30 5411 C 503.484 -2.32052 0.259608 0
M  V30 5412 C 504.465 -1.58243 -0.623961 0
M  V30 5413 O 505.65 -1.86224 -0.55083 0
M  V30 5414 C 502.78 -3.42434 -0.579314 0
M  V30 5415 C 501.734 -4.27499 0.20712 0
M  V30 5416 C 501.06 -5.29349 -0.754547 0
M  V30 5417 C 502.36 -5.02758 1.41533 0
M  V30 5418 H 504.054 -2.79418 1.07545 0
M  V30 5419 H 501.6 -1.34338 0.518593 0
M  V30 5420 H 503.553 -4.0976 -0.983612 0
M  V30 5421 H 502.277 -2.93717 -1.4282 0
M  V30 5422 H 500.936 -3.61776 0.592787 0
M  V30 5423 H 500.584 -4.76895 -1.59939 0
M  V30 5424 H 500.284 -5.8714 -0.232561 0
M  V30 5425 H 501.808 -5.99544 -1.1567 0
M  V30 5426 H 503.222 -5.62938 1.08504 0
M  V30 5427 H 501.619 -5.70123 1.87296 0
M  V30 5428 H 502.689 -4.32451 2.1935 0
M  V30 5429 N 504.032 -0.577932 -1.46621 0
M  V30 5430 C 504.98 0.170882 -2.31971 0
M  V30 5431 C 505.974 0.889086 -1.44193 0
M  V30 5432 O 507.18 0.808017 -1.60845 0
M  V30 5433 H 503.555 0.0739763 -0.748353 0
M  V30 5434 H 505.526 -0.567856 -2.92947 0
M  V30 5435 C 504.275 1.17438 -3.27267 0
M  V30 5436 H 503.598 0.63116 -3.94787 0
M  V30 5437 H 505.038 1.66882 -3.89778 0
M  V30 5438 C 503.497 2.23292 -2.52274 0
M  V30 5439 O 504.027 3.30567 -2.28229 0
M  V30 5440 N 502.233 1.97772 -2.12919 0
M  V30 5441 H 501.78 1.10545 -2.32675 0
M  V30 5442 H 501.738 2.68809 -1.63062 0
M  V30 5443 N 505.51 1.54411 -0.315457 0
M  V30 5444 C 506.46 2.20772 0.569549 0
M  V30 5445 C 507.444 1.18551 1.08787 0
M  V30 5446 O 508.636 1.44213 1.02624 0
M  V30 5447 C 505.765 2.96293 1.73394 0
M  V30 5448 C 504.851 4.05844 1.2309 0
M  V30 5449 N 505.242 5.03822 0.446927 0
M  V30 5450 C 503.54 4.19648 1.51035 0
M  V30 5451 C 504.241 5.8143 0.17725 0
M  V30 5452 N 503.217 5.38245 0.761118 0
M  V30 5453 H 507.019 2.93877 -0.0368076 0
M  V30 5454 H 504.533 1.61949 -0.120915 0
M  V30 5455 H 506.53 3.42313 2.37965 0
M  V30 5456 H 505.19 2.24708 2.34386 0
M  V30 5457 H 506.201 5.17821 0.0905027 0
M  V30 5458 H 502.878 3.59274 2.1267 0
M  V30 5459 H 504.268 6.70369 -0.45335 0
M  V30 5460 N 506.988 0.0434614 1.5754 0
M  V30 5461 C 507.918 -0.931651 2.14109 0
M  V30 5462 C 508.899 -1.32971 1.06079 0
M  V30 5463 O 510.084 -1.40579 1.33982 0
M  V30 5464 C 507.214 -2.20914 2.67982 0
M  V30 5465 C 506.168 -1.95139 3.80926 0
M  V30 5466 C 505.494 -3.29276 4.21285 0
M  V30 5467 C 506.794 -1.27913 5.06395 0
M  V30 5468 H 508.488 -0.460497 2.95837 0
M  V30 5469 H 506.034 -0.220058 1.42309 0
M  V30 5470 H 507.987 -2.89522 3.06194 0
M  V30 5471 H 506.711 -2.70221 1.83434 0
M  V30 5472 H 505.37 -1.28945 3.43175 0
M  V30 5473 H 505.018 -3.76369 3.33699 0
M  V30 5474 H 504.718 -3.12831 4.97404 0
M  V30 5475 H 506.242 -3.99129 4.62091 0
M  V30 5476 H 507.656 -1.86544 5.42102 0
M  V30 5477 H 506.053 -1.2182 5.87605 0
M  V30 5478 H 507.123 -0.254066 4.84234 0
M  V30 5479 N 508.466 -1.55915 -0.229846 0
M  V30 5480 C 509.413 -1.91734 -1.28478 0
M  V30 5481 C 510.383 -0.773539 -1.46988 0
M  V30 5482 O 511.568 -1.02871 -1.60693 0
M  V30 5483 C 508.708 -2.23224 -2.63182 0
M  V30 5484 C 507.821 -3.50497 -2.52539 0
M  V30 5485 C 506.956 -3.71474 -3.79711 0
M  V30 5486 C 505.995 -4.92289 -3.63755 0
M  V30 5487 N 505.132 -5.09698 -4.82858 0
M  V30 5488 H 509.972 -2.81692 -0.972308 0
M  V30 5489 H 507.509 -1.39429 -0.468815 0
M  V30 5490 H 509.467 -2.3949 -3.41614 0
M  V30 5491 H 508.097 -1.36451 -2.92542 0
M  V30 5492 H 507.149 -3.4247 -1.65585 0
M  V30 5493 H 508.461 -4.39079 -2.36666 0
M  V30 5494 H 507.615 -3.87791 -4.66586 0
M  V30 5495 H 506.354 -2.81157 -3.985 0
M  V30 5496 H 505.359 -4.7593 -2.75264 0
M  V30 5497 H 506.584 -5.84083 -3.46445 0
M  V30 5498 H 504.53 -4.22322 -5.01976 0
M  V30 5499 H 504.447 -5.92399 -4.69681 0
M  V30 5500 H 505.715 -5.30443 -5.71183 0
M  V30 5501 N 509.944 0.496216 -1.49584 0
M  V30 5502 C 510.907 1.57952 -1.66084 0
M  V30 5503 C 511.907 1.51729 -0.53244 0
M  V30 5504 O 513.097 1.54796 -0.79899 0
M  V30 5505 C 510.229 2.97604 -1.66268 0
M  V30 5506 H 511.422 1.44649 -2.6271 0
M  V30 5507 H 508.975 0.7208 -1.38687 0
M  V30 5508 H 509.71 3.16378 -0.712432 0
M  V30 5509 H 509.495 3.03528 -2.4822 0
M  V30 5510 H 510.985 3.76301 -1.81073 0
M  V30 5511 N 511.423 1.38739 0.74761 0
M  V30 5512 C 512.671 1.35007 1.50391 0
M  V30 5513 C 512.992 -0.0574274 1.94915 0
M  V30 5514 O 512.262 -1.00628 1.6808 0
M  V30 5515 H 510.842 0.496784 0.557866 0
M  V30 5516 H 513.504 1.73479 0.888319 0
M  V30 5517 H 512.6 2.00474 2.392 0
M  V30 5518 N 512.901 -0.976442 1.23707 0
M  V30 5519 C 513.831 -2.08749 1.04624 0
M  V30 5520 C 514.812 -1.70057 -0.0380956 0
M  V30 5521 O 515.997 -1.93782 0.127308 0
M  V30 5522 C 513.127 -3.41335 0.640902 0
M  V30 5523 C 512.081 -3.93947 1.67302 0
M  V30 5524 C 511.407 -5.22774 1.12301 0
M  V30 5525 C 512.707 -4.22769 3.06697 0
M  V30 5526 H 514.401 -2.24972 1.97555 0
M  V30 5527 H 511.947 -1.08108 0.951247 0
M  V30 5528 H 513.9 -4.18489 0.494434 0
M  V30 5529 H 512.624 -3.24988 -0.324099 0
M  V30 5530 H 511.283 -3.18941 1.80755 0
M  V30 5531 H 510.931 -5.0278 0.148877 0
M  V30 5532 H 510.631 -5.58942 1.81267 0
M  V30 5533 H 512.155 -6.02546 0.988479 0
M  V30 5534 H 513.569 -4.90659 2.96524 0
M  V30 5535 H 511.966 -4.70147 3.72937 0
M  V30 5536 H 513.036 -3.29885 3.55392 0
M  V30 5537 N 514.379 -1.04941 -1.1758 0
M  V30 5538 C 515.311 -0.606174 -2.21039 0
M  V30 5539 C 516.324 0.328763 -1.59446 0
M  V30 5540 O 517.513 0.121895 -1.78083 0
M  V30 5541 C 514.613 0.133294 -3.38638 0
M  V30 5542 C 513.786 -0.811711 -4.29802 0
M  V30 5543 C 512.845 -0.113958 -5.26077 0
M  V30 5544 O 511.871 -0.747237 -5.64274 0
M  V30 5545 N 513.073 1.14953 -5.69004 0
M  V30 5546 H 515.838 -1.49606 -2.59689 0
M  V30 5547 H 513.399 -0.930997 -1.32454 0
M  V30 5548 H 515.391 0.610144 -4.00074 0
M  V30 5549 H 513.961 0.924816 -2.98607 0
M  V30 5550 H 513.181 -1.46824 -3.65837 0
M  V30 5551 H 514.469 -1.45326 -4.87604 0
M  V30 5552 H 513.867 1.68441 -5.40041 0
M  V30 5553 H 512.424 1.57049 -6.32597 0
M  V30 5554 N 515.857 1.33968 -0.830081 0
M  V30 5555 C 516.82 2.27694 -0.26235 0
M  V30 5556 C 517.82 1.50589 0.563876 0
M  V30 5557 O 519.01 1.70028 0.378941 0
M  V30 5558 C 516.142 3.35002 0.63138 0
M  V30 5559 H 517.335 2.79419 -1.08928 0
M  V30 5560 H 514.888 1.44221 -0.602486 0
M  V30 5561 H 515.623 2.88504 1.48109 0
M  V30 5562 H 515.408 3.92079 0.0403276 0
M  V30 5563 H 516.898 4.04897 1.02217 0
M  V30 5564 N 517.335 0.585699 1.46312 0
M  V30 5565 C 518.582 0.0724211 2.0237 0
M  V30 5566 C 518.91 -1.28868 1.45683 0
M  V30 5567 O 518.165 -1.85853 0.612945 0
M  V30 5568 C 518.464 -0.0401312 3.57377 0
M  V30 5569 C 518.13 1.25376 4.33119 0
M  V30 5570 C 516.792 1.60824 4.5353 0
M  V30 5571 C 519.144 2.10987 4.76586 0
M  V30 5572 C 516.472 2.81676 5.14661 0
M  V30 5573 C 518.824 3.31068 5.39052 0
M  V30 5574 C 517.488 3.66794 5.5769 0
M  V30 5575 H 516.758 0.0265007 0.740526 0
M  V30 5576 H 519.405 0.762935 1.75646 0
M  V30 5577 H 517.71 -0.813791 3.83255 0
M  V30 5578 H 519.407 -0.453078 3.98432 0
M  V30 5579 H 515.997 0.967808 4.1753 0
M  V30 5580 H 520.181 1.84904 4.60569 0
M  V30 5581 H 515.437 3.0949 5.27282 0
M  V30 5582 H 519.611 3.97672 5.71691 0
M  V30 5583 H 517.238 4.60529 6.04828 0
M  V30 5584 N 518.813 -1.54241 0.323641 0
M  V30 5585 C 520.06 -2.0057 -0.27891 0
M  V30 5586 C 520.388 -1.21181 -1.52136 0
M  V30 5587 O 519.643 -0.282043 -1.93657 0
M  V30 5588 C 519.942 -3.5129 -0.658031 0
M  V30 5589 C 519.608 -4.48281 0.485252 0
M  V30 5590 C 518.27 -4.74519 0.799055 0
M  V30 5591 C 520.622 -5.05909 1.25322 0
M  V30 5592 C 517.95 -5.55643 1.88354 0
M  V30 5593 C 520.302 -5.88215 2.32779 0
M  V30 5594 C 518.966 -6.12755 2.64741 0
M  V30 5595 H 518.236 -0.733938 -0.10206 0
M  V30 5596 H 520.883 -1.862 0.447435 0
M  V30 5597 H 519.188 -3.63388 -1.4648 0
M  V30 5598 H 520.885 -3.84578 -1.1358 0
M  V30 5599 H 517.475 -4.27979 0.230593 0
M  V30 5600 H 521.659 -4.8562 1.02404 0
M  V30 5601 H 516.915 -5.72888 2.13564 0
M  V30 5602 H 521.089 -6.31888 2.92729 0
M  V30 5603 H 518.716 -6.75404 3.48904 0
M  V30 5604 N 520.291 -0.0518155 -1.57515 0
M  V30 5605 C 521.223 0.951542 -2.08515 0
M  V30 5606 C 522.236 1.27436 -1.01311 0
M  V30 5607 O 523.425 1.23504 -1.28876 0
M  V30 5608 C 520.525 2.27291 -2.5138 0
M  V30 5609 C 519.698 2.13191 -3.81927 0
M  V30 5610 C 518.757 3.28458 -4.11098 0
M  V30 5611 O 517.783 3.04334 -4.81009 0
M  V30 5612 N 518.985 4.52954 -3.63061 0
M  V30 5613 H 521.75 0.516242 -2.9522 0
M  V30 5614 H 519.311 0.13441 -1.61341 0
M  V30 5615 H 521.303 3.03272 -2.67971 0
M  V30 5616 H 519.873 2.62386 -1.69919 0
M  V30 5617 H 519.093 1.21798 -3.74912 0
M  V30 5618 H 520.381 2.00999 -4.67415 0
M  V30 5619 H 519.779 4.75444 -3.06545 0
M  V30 5620 H 518.336 5.26026 -3.84889 0
M  V30 5621 N 521.769 1.56035 0.221574 0
M  V30 5622 C 523.015 1.79312 0.947372 0
M  V30 5623 C 523.348 0.621453 1.83988 0
M  V30 5624 O 522.623 -0.379287 1.90766 0
M  V30 5625 C 522.906 3.1267 1.78633 0
M  V30 5626 C 522.759 4.40284 0.920312 0
M  V30 5627 C 524.078 3.4247 2.7641 0
M  V30 5628 H 521.197 0.652328 0.342982 0
M  V30 5629 H 523.839 1.88765 0.216244 0
M  V30 5630 H 521.989 3.04741 2.40967 0
M  V30 5631 H 523.661 4.60232 0.313718 0
M  V30 5632 H 521.904 4.33212 0.225734 0
M  V30 5633 H 522.575 5.30033 1.54171 0
M  V30 5634 H 525.051 3.50526 2.24211 0
M  V30 5635 H 523.927 4.3695 3.32213 0
M  V30 5636 H 524.188 2.64635 3.54148 0
M  V30 5637 N 523.247 -0.488276 1.49845 0
M  V30 5638 C 524.179 -1.60539 1.63584 0
M  V30 5639 C 525.192 -1.5434 0.517972 0
M  V30 5640 O 526.381 -1.60041 0.790516 0
M  V30 5641 C 523.481 -2.99374 1.58835 0
M  V30 5642 C 522.654 -3.30624 2.86368 0
M  V30 5643 C 521.713 -4.4893 2.74496 0
M  V30 5644 O 520.739 -4.50085 3.48443 0
M  V30 5645 N 521.941 -5.49591 1.86894 0
M  V30 5646 H 524.706 -1.49176 2.59936 0
M  V30 5647 H 522.267 -0.67639 1.47094 0
M  V30 5648 H 524.259 -3.76459 1.48529 0
M  V30 5649 H 522.829 -3.04595 0.702892 0
M  V30 5650 H 522.049 -2.42314 3.1093 0
M  V30 5651 H 523.337 -3.48305 3.70892 0
M  V30 5652 H 522.735 -5.51467 1.26097 0
M  V30 5653 H 521.292 -6.25728 1.82503 0
M  V30 5654 N 524.725 -1.39134 -0.740242 0
M  V30 5655 C 525.635 -1.39697 -1.88473 0
M  V30 5656 C 526.651 -0.292403 -1.71526 0
M  V30 5657 O 527.827 -0.533021 -1.94219 0
M  V30 5658 C 524.892 -1.23382 -3.24003 0
M  V30 5659 C 523.953 -2.43763 -3.53381 0
M  V30 5660 C 523.186 -2.28216 -4.82445 0
M  V30 5661 O 523.409 -1.28288 -5.55786 0
M  V30 5662 O 522.343 -3.1709 -5.11603 0
M  V30 5663 H 526.169 -2.36159 -1.90952 0
M  V30 5664 H 523.754 -1.20194 -0.887346 0
M  V30 5665 H 525.636 -1.16395 -4.05006 0
M  V30 5666 H 524.311 -0.300121 -3.22306 0
M  V30 5667 H 523.218 -2.56325 -2.72485 0
M  V30 5668 H 524.551 -3.35808 -3.59852 0
M  V30 5669 N 526.204 0.969867 -1.24223 0
M  V30 5670 C 527.444 1.72754 -1.0925 0
M  V30 5671 C 527.808 1.88541 0.362787 0
M  V30 5672 O 529.009 2.61217 0.633969 0
M  V30 5673 C 527.28 3.08204 -1.80957 0
M  V30 5674 S 528.839 3.99418 -1.81688 0
M  V30 5675 H 525.657 0.593981 -0.390778 0
M  V30 5676 H 528.259 1.15792 -1.5752 0
M  V30 5677 H 526.963 2.94372 -2.85961 0
M  V30 5678 H 526.494 3.70232 -1.33012 0
M  V30 5679 H 528.509 4.8828 -0.883001 0
M  V30 5680 N 527.682 1.05563 1.17022 0
M  V30 5681 C 528.63 0.653887 2.2322 0
M  V30 5682 C 529.624 -0.326642 1.66221 0
M  V30 5683 O 530.83 -0.192301 1.7897 0
M  V30 5684 H 527.205 0.193297 0.726733 0
M  V30 5685 H 529.176 1.5596 2.54399 0
M  V30 5686 C 527.925 0.0485434 3.47666 0
M  V30 5687 H 527.248 0.79413 3.91834 0
M  V30 5688 H 528.688 -0.195133 4.23551 0
M  V30 5689 C 527.147 -1.20583 3.14581 0
M  V30 5690 O 527.677 -2.29475 3.29703 0
M  V30 5691 N 525.883 -1.10493 2.68774 0
M  V30 5692 H 525.43 -0.218795 2.56669 0
M  V30 5693 H 525.388 -1.94507 2.47011 0
M  V30 5694 N 529.16 -1.33526 0.837174 0
M  V30 5695 C 530.107 -2.29248 0.267169 0
M  V30 5696 C 531.077 -1.54252 -0.616071 0
M  V30 5697 O 532.262 -1.82559 -0.554699 0
M  V30 5698 C 529.402 -3.40638 -0.553152 0
M  V30 5699 C 528.515 -4.30548 0.353921 0
M  V30 5700 C 527.65 -5.29051 -0.477339 0
M  V30 5701 C 526.689 -6.106 0.42823 0
M  V30 5702 N 525.826 -7.01152 -0.364801 0
M  V30 5703 H 530.666 -2.77398 1.08877 0
M  V30 5704 H 528.203 -1.36496 0.54838 0
M  V30 5705 H 530.161 -4.03921 -1.04422 0
M  V30 5706 H 528.791 -2.93685 -1.33973 0
M  V30 5707 H 527.843 -3.68001 0.963289 0
M  V30 5708 H 529.155 -4.87631 1.04964 0
M  V30 5709 H 528.309 -5.97853 -1.0323 0
M  V30 5710 H 527.048 -4.72541 -1.2065 0
M  V30 5711 H 526.053 -5.40718 0.995219 0
M  V30 5712 H 527.278 -6.69193 1.15573 0
M  V30 5713 H 525.224 -6.47092 -1.07738 0
M  V30 5714 H 525.141 -7.5551 0.272238 0
M  V30 5715 H 526.409 -7.74263 -0.902054 0
M  V30 5716 N 530.638 -0.59345 -1.46 0
M  V30 5717 C 531.863 -0.0872365 -2.07216 0
M  V30 5718 C 532.288 1.2131 -1.43755 0
M  V30 5719 O 531.646 1.73528 -0.525152 0
M  V30 5720 C 531.694 0.0538197 -3.6056 0
M  V30 5721 O 530.798 1.10765 -3.97247 0
M  V30 5722 H 530.139 -0.0676598 -0.660544 0
M  V30 5723 H 532.669 -0.819445 -1.87473 0
M  V30 5724 H 532.679 0.256567 -4.07193 0
M  V30 5725 H 531.354 -0.895739 -4.0614 0
M  V30 5726 H 529.931 0.882501 -3.62307 0
M  V30 5727 N 532.116 1.54067 -0.331816 0
M  V30 5728 C 533.341 2.05599 0.272705 0
M  V30 5729 C 533.766 1.2059 1.44359 0
M  V30 5730 O 533.124 0.216907 1.79998 0
M  V30 5731 C 533.172 3.54188 0.677021 0
M  V30 5732 O 532.276 3.72082 1.77844 0
M  V30 5733 H 531.617 0.662286 0.0476801 0
M  V30 5734 H 534.147 1.98826 -0.482624 0
M  V30 5735 H 534.157 3.96608 0.957415 0
M  V30 5736 H 532.832 4.15513 -0.179325 0
M  V30 5737 H 531.409 3.41566 1.49622 0
M  V30 5738 N 533.594 0.0601682 1.57485 0
M  V30 5739 C 534.819 -0.624416 1.97777 0
M  V30 5740 C 535.244 -1.63051 0.937867 0
M  V30 5741 O 534.602 -1.81036 -0.0978845 0
M  V30 5742 C 534.65 -1.27979 3.37126 0
M  V30 5743 O 533.754 -2.39556 3.35688 0
M  V30 5744 H 533.095 -0.161581 0.64404 0
M  V30 5745 H 535.625 0.131237 2.04179 0
M  V30 5746 H 535.635 -1.62937 3.74053 0
M  V30 5747 H 534.31 -0.542501 4.12347 0
M  V30 5748 H 532.887 -2.06478 3.10517 0
M  V30 5749 N 535.072 -1.5615 -0.213296 0
M  V30 5750 C 536.019 -1.93086 -1.26437 0
M  V30 5751 C 536.989 -0.789086 -1.4616 0
M  V30 5752 O 538.174 -1.04569 -1.59593 0
M  V30 5753 C 535.314 -2.26003 -2.608 0
M  V30 5754 C 534.427 -3.53156 -2.48807 0
M  V30 5755 C 533.562 -3.7548 -3.7575 0
M  V30 5756 C 532.601 -4.96119 -3.58514 0
M  V30 5757 N 531.738 -5.14791 -4.77425 0
M  V30 5758 H 536.578 -2.82707 -0.942376 0
M  V30 5759 H 534.115 -1.39919 -0.454001 0
M  V30 5760 H 536.073 -2.431 -3.39055 0
M  V30 5761 H 534.703 -1.39546 -2.91079 0
M  V30 5762 H 533.755 -3.44207 -1.61944 0
M  V30 5763 H 535.067 -4.41565 -2.31996 0
M  V30 5764 H 534.221 -3.92718 -4.62447 0
M  V30 5765 H 532.96 -2.85368 -3.95495 0
M  V30 5766 H 531.965 -4.78823 -2.70201 0
M  V30 5767 H 533.19 -5.87724 -3.40231 0
M  V30 5768 H 531.136 -4.27623 -4.97468 0
M  V30 5769 H 531.053 -5.97347 -4.63371 0
M  V30 5770 H 532.321 -5.36471 -5.65525 0
M  V30 5771 N 536.55 0.480323 -1.50102 0
M  V30 5772 C 537.827 1.24159 -1.51142 0
M  V30 5773 C 538.207 2.09605 -0.250818 0
M  V30 5774 O 537.555 2.15274 0.766118 0
M  V30 5775 C 537.765 2.08057 -2.80202 0
M  V30 5776 C 539.113 2.66556 -3.30504 0
M  V30 5777 O 540.137 2.18308 -2.81461 0
M  V30 5778 O 538.996 3.54442 -4.15973 0
M  V30 5779 H 536.09 0.562928 -0.605839 0
M  V30 5780 H 538.636 0.492899 -1.62384 0
M  V30 5781 H 537.408 1.45032 -3.6343 0
M  V30 5782 H 537.031 2.90079 -2.71919 0
M  V30 5783 N 538.028 1.39524 0.732853 0
M  V30 5784 C 538.976 1.38563 1.86824 0
M  V30 5785 C 539.97 0.268467 1.67259 0
M  V30 5786 O 541.176 0.438613 1.74574 0
M  V30 5787 H 537.551 0.432737 0.615014 0
M  V30 5788 H 539.522 2.34328 1.84751 0
M  V30 5789 C 538.271 1.2481 3.24527 0
M  V30 5790 H 537.594 2.10044 3.40179 0
M  V30 5791 H 539.034 1.28194 4.04156 0
M  V30 5792 C 537.493 -0.0432825 3.36872 0
M  V30 5793 O 538.023 -1.01268 3.88726 0
M  V30 5794 N 536.229 -0.107055 2.90403 0
M  V30 5795 H 535.776 0.682512 2.48394 0
M  V30 5796 H 535.734 -0.970618 2.99042 0
M  V30 5797 N 539.506 -0.963266 1.24736 0
M  V30 5798 C 540.755 -1.70115 1.08369 0
M  V30 5799 C 541.068 -1.91939 -0.376688 0
M  V30 5800 O 542.274 -2.6334 -0.660624 0
M  V30 5801 C 540.73 -3.06218 1.89099 0
M  V30 5802 C 540.338 -2.92221 3.39574 0
M  V30 5803 C 542.082 -3.83848 1.81275 0
M  V30 5804 C 539.989 -4.23662 4.12631 0
M  V30 5805 H 538.919 -0.637944 0.401924 0
M  V30 5806 H 541.57 -1.07304 1.48856 0
M  V30 5807 H 539.952 -3.69884 1.41429 0
M  V30 5808 H 541.126 -2.37541 3.94856 0
M  V30 5809 H 539.441 -2.28054 3.48397 0
M  V30 5810 H 542.038 -4.81188 2.33158 0
M  V30 5811 H 542.381 -4.08949 0.778895 0
M  V30 5812 H 542.914 -3.26918 2.26649 0
M  V30 5813 H 539.653 -4.03753 5.16395 0
M  V30 5814 H 539.173 -4.78141 3.62135 0
M  V30 5815 H 540.852 -4.92256 4.19873 0
M  V30 5816 N 540.985 -1.06182 -1.16461 0
M  V30 5817 C 542.401 -0.785065 -1.38956 0
M  V30 5818 C 542.601 0.616103 -1.9185 0
M  V30 5819 O 541.657 1.37686 -2.11657 0
M  V30 5820 C 542.97 -1.84902 -2.37132 0
M  V30 5821 C 544.518 -1.8724 -2.50819 0
M  V30 5822 C 544.993 -2.92686 -3.52277 0
M  V30 5823 N 546.484 -2.91712 -3.59803 0
M  V30 5824 C 547.219 -3.69949 -4.38093 0
M  V30 5825 N 546.715 -4.58 -5.19815 0
M  V30 5826 N 548.508 -3.58346 -4.33064 0
M  V30 5827 H 540.659 -1.96569 -0.804634 0
M  V30 5828 H 542.922 -0.851747 -0.416211 0
M  V30 5829 H 542.628 -2.85518 -2.0536 0
M  V30 5830 H 542.502 -1.69908 -3.36766 0
M  V30 5831 H 544.889 -0.872827 -2.81897 0
M  V30 5832 H 544.97 -2.06311 -1.51226 0
M  V30 5833 H 544.614 -3.92835 -3.21937 0
M  V30 5834 H 544.544 -2.70864 -4.51598 0
M  V30 5835 H 547.035 -2.27876 -3.01464 0
M  V30 5836 H 547.348 -5.14357 -5.76764 0
M  V30 5837 H 545.693 -4.62056 -5.19162 0
M  V30 5838 H 548.884 -2.88943 -3.68279 0
M  V30 5839 H 549.057 -4.19563 -4.93833 0
M  V30 5840 N 542.463 1.3308 -0.844243 0
M  V30 5841 C 543.711 1.97215 -0.441676 0
M  V30 5842 C 544.032 1.67185 1.0037 0
M  V30 5843 O 543.302 0.973588 1.69994 0
M  V30 5844 H 541.882 0.72959 -0.160335 0
M  V30 5845 H 544.544 1.62348 -1.07838 0
M  V30 5846 H 543.64 3.06698 -0.57815 0
M  V30 5847 N 543.941 0.601185 1.45683 0
M  V30 5848 C 544.888 -0.121396 2.30481 0
M  V30 5849 C 545.858 -0.866232 1.41724 0
M  V30 5850 O 547.043 -0.85324 1.70659 0
M  V30 5851 C 544.183 -1.11704 3.26521 0
M  V30 5852 C 543.296 -0.373741 4.3038 0
M  V30 5853 C 542.431 -1.35854 5.13534 0
M  V30 5854 C 541.47 -0.602689 6.09126 0
M  V30 5855 N 540.607 -1.53645 6.85082 0
M  V30 5856 H 545.447 0.607732 2.91737 0
M  V30 5857 H 542.984 0.311502 1.43764 0
M  V30 5858 H 544.942 -1.70735 3.80664 0
M  V30 5859 H 543.572 -1.81366 2.67032 0
M  V30 5860 H 542.624 0.331962 3.78949 0
M  V30 5861 H 543.936 0.2163 4.98331 0
M  V30 5862 H 543.09 -2.02111 5.72046 0
M  V30 5863 H 541.829 -1.98251 4.45587 0
M  V30 5864 H 540.834 0.0735482 5.49751 0
M  V30 5865 H 542.059 0.0161467 6.79098 0
M  V30 5866 H 540.005 -2.14819 6.1983 0
M  V30 5867 H 539.922 -0.999688 7.49361 0
M  V30 5868 H 541.19 -2.1888 7.48139 0
M  V30 5869 N 545.419 -1.53889 0.339982 0
M  V30 5870 C 546.369 -2.2165 -0.534354 0
M  V30 5871 C 547.353 -1.20266 -1.06887 0
M  V30 5872 O 548.545 -1.45827 -1.00316 0
M  V30 5873 C 545.674 -2.99014 -1.68659 0
M  V30 5874 C 544.76 -4.07751 -1.16618 0
M  V30 5875 N 545.151 -5.04469 -0.366717 0
M  V30 5876 C 543.449 -4.21998 -1.4434 0
M  V30 5877 C 544.15 -5.81638 -0.0847275 0
M  V30 5878 N 543.126 -5.39388 -0.675391 0
M  V30 5879 H 546.928 -2.93781 0.0835562 0
M  V30 5880 H 544.442 -1.61736 0.146665 0
M  V30 5881 H 546.439 -3.46056 -2.32489 0
M  V30 5882 H 545.099 -2.28408 -2.30781 0
M  V30 5883 H 546.11 -5.17899 -0.00811038 0
M  V30 5884 H 542.787 -3.62612 -2.06928 0
M  V30 5885 H 544.177 -6.69563 0.559943 0
M  V30 5886 N 546.897 -0.0685191 -1.57451 0
M  V30 5887 C 548.143 0.602239 -1.93652 0
M  V30 5888 C 548.476 1.6946 -0.948526 0
M  V30 5889 O 547.751 1.94487 0.022782 0
M  V30 5890 C 548.034 1.18223 -3.4014 0
M  V30 5891 C 547.887 0.0967431 -4.49696 0
M  V30 5892 C 549.206 2.08872 -3.87377 0
M  V30 5893 H 546.325 0.217453 -0.70419 0
M  V30 5894 H 548.967 -0.133821 -1.89528 0
M  V30 5895 H 547.117 1.80953 -3.43785 0
M  V30 5896 H 548.789 -0.536155 -4.58174 0
M  V30 5897 H 547.032 -0.573063 -4.29998 0
M  V30 5898 H 547.703 0.542894 -5.49324 0
M  V30 5899 H 550.179 1.56081 -3.85717 0
M  V30 5900 H 549.055 2.46389 -4.90493 0
M  V30 5901 H 549.316 2.99572 -3.25129 0
M  V30 5902 N 548.375 1.56261 0.205012 0
M  V30 5903 C 549.791 1.49623 0.555433 0
M  V30 5904 C 549.991 0.766719 1.86343 0
M  V30 5905 O 549.047 0.313158 2.50551 0
M  V30 5906 C 550.36 2.94253 0.619347 0
M  V30 5907 C 551.908 3.04868 0.708855 0
M  V30 5908 C 552.383 4.50888 0.803969 0
M  V30 5909 N 553.874 4.54999 0.867758 0
M  V30 5910 C 554.609 5.65284 0.96135 0
M  V30 5911 N 554.105 6.85282 1.01786 0
M  V30 5912 N 555.898 5.53174 0.997771 0
M  V30 5913 H 548.049 2.0211 -0.653094 0
M  V30 5914 H 550.312 0.919333 -0.231366 0
M  V30 5915 H 550.018 3.50643 -0.272458 0
M  V30 5916 H 549.892 3.47063 1.47741 0
M  V30 5917 H 552.279 2.48532 1.5911 0
M  V30 5918 H 552.36 2.55199 -0.175205 0
M  V30 5919 H 552.004 5.07846 -0.0738798 0
M  V30 5920 H 551.934 4.98279 1.70369 0
M  V30 5921 H 554.425 3.68588 0.833735 0
M  V30 5922 H 554.738 7.65081 1.08951 0
M  V30 5923 H 553.083 6.8796 0.986706 0
M  V30 5924 H 556.274 4.5835 0.950392 0
M  V30 5925 H 556.447 6.39151 1.06725 0
M  V30 5926 N 549.853 -0.472356 1.50355 0
M  V30 5927 C 550.803 -1.56809 1.65514 0
M  V30 5928 C 551.787 -1.5261 0.509801 0
M  V30 5929 O 552.979 -1.59655 0.764145 0
M  V30 5930 C 550.108 -2.9526 1.75146 0
M  V30 5931 C 549.194 -3.04348 2.95353 0
M  V30 5932 N 549.585 -2.83253 4.19048 0
M  V30 5933 C 547.883 -3.35482 2.93884 0
M  V30 5934 C 548.584 -2.97273 5.00003 0
M  V30 5935 N 547.56 -3.27418 4.33934 0
M  V30 5936 H 551.362 -1.39197 2.58846 0
M  V30 5937 H 548.876 -0.67906 1.47521 0
M  V30 5938 H 550.873 -3.74044 1.8411 0
M  V30 5939 H 549.533 -3.1392 0.829717 0
M  V30 5940 H 550.544 -2.5886 4.48567 0
M  V30 5941 H 547.221 -3.60138 2.11204 0
M  V30 5942 H 548.611 -2.85214 6.08361 0
M  V30 5943 N 551.331 -1.39911 -0.725443 0
M  V30 5944 C 552.561 -1.40744 -1.51244 0
M  V30 5945 C 552.969 -0.00275403 -1.892 0
M  V30 5946 O 552.312 0.981299 -1.55294 0
M  V30 5947 C 552.374 -2.22527 -2.82351 0
M  V30 5948 C 552.038 -3.71053 -2.66774 0
M  V30 5949 C 553.035 -4.63916 -2.34686 0
M  V30 5950 C 550.72 -4.14753 -2.83347 0
M  V30 5951 C 552.714 -5.98463 -2.19366 0
M  V30 5952 C 550.401 -5.49372 -2.67644 0
M  V30 5953 C 551.399 -6.41042 -2.357 0
M  V30 5954 O 551.087 -7.73181 -2.20107 0
M  V30 5955 H 550.819 -0.482314 -0.473655 0
M  V30 5956 H 553.373 -1.84472 -0.903284 0
M  V30 5957 H 551.603 -1.73563 -3.45562 0
M  V30 5958 H 553.292 -2.15421 -3.44018 0
M  V30 5959 H 554.058 -4.31453 -2.21525 0
M  V30 5960 H 549.937 -3.43728 -3.072 0
M  V30 5961 H 553.481 -6.69979 -1.94354 0
M  V30 5962 H 549.378 -5.81424 -2.80387 0
M  V30 5963 H 550.146 -7.84008 -2.35103 0
M  V30 5964 N 552.809 0.956637 -1.25245 0
M  V30 5965 C 554.039 1.7332 -1.12445 0
M  V30 5966 C 554.447 1.86392 0.324732 0
M  V30 5967 O 553.79 1.35967 1.23526 0
M  V30 5968 C 553.852 3.16603 -1.70303 0
M  V30 5969 C 553.516 3.26966 -3.19284 0
M  V30 5970 C 554.513 3.11434 -4.16299 0
M  V30 5971 C 552.198 3.50851 -3.59456 0
M  V30 5972 C 554.192 3.1963 -5.51467 0
M  V30 5973 C 551.879 3.58684 -4.94761 0
M  V30 5974 C 552.877 3.43087 -5.90576 0
M  V30 5975 O 552.565 3.50598 -7.2342 0
M  V30 5976 H 552.297 0.549981 -0.393061 0
M  V30 5977 H 554.851 1.20892 -1.66055 0
M  V30 5978 H 553.081 3.70385 -1.11138 0
M  V30 5979 H 554.77 3.76109 -1.52632 0
M  V30 5980 H 555.536 2.92853 -3.86604 0
M  V30 5981 H 551.415 3.62053 -2.85375 0
M  V30 5982 H 554.959 3.07373 -6.26233 0
M  V30 5983 H 550.856 3.76782 -5.24124 0
M  V30 5984 H 551.624 3.67242 -7.31489 0
M  V30 5985 N 554.287 1.06798 1.15896 0
M  V30 5986 C 555.536 0.782796 1.8589 0
M  V30 5987 C 555.849 -0.693498 1.82893 0
M  V30 5988 O 557.055 -1.09325 2.48516 0
M  V30 5989 C 555.511 1.3502 3.33613 0
M  V30 5990 C 555.119 2.8571 3.45071 0
M  V30 5991 C 556.863 1.14278 4.08829 0
M  V30 5992 C 554.77 3.35669 4.86909 0
M  V30 5993 H 553.7 0.289149 0.696354 0
M  V30 5994 H 556.351 1.28734 1.30766 0
M  V30 5995 H 554.733 0.773407 3.88374 0
M  V30 5996 H 555.907 3.49385 3.00445 0
M  V30 5997 H 554.222 3.05178 2.83294 0
M  V30 5998 H 556.819 1.49087 5.13495 0
M  V30 5999 H 557.162 0.0814575 4.1622 0
M  V30 6000 H 557.695 1.68563 3.60321 0
M  V30 6001 H 554.434 4.41302 4.84698 0
M  V30 6002 H 553.954 2.76745 5.32139 0
M  V30 6003 H 555.633 3.31296 5.55745 0
M  V30 6004 N 555.766 -1.3263 0.851289 0
M  V30 6005 C 556.729 -2.27247 0.298541 0
M  V30 6006 C 557.729 -1.51467 -0.539847 0
M  V30 6007 O 558.919 -1.7061 -0.351843 0
M  V30 6008 C 556.051 -3.35964 -0.578004 0
M  V30 6009 H 557.244 -2.7765 1.13359 0
M  V30 6010 H 554.797 -1.43245 0.625354 0
M  V30 6011 H 555.532 -2.90823 -1.435 0
M  V30 6012 H 555.317 -3.92094 0.0220539 0
M  V30 6013 H 556.807 -4.06472 -0.957626 0
M  V30 6014 N 557.244 -0.608902 -1.45362 0
M  V30 6015 C 558.207 0.0992563 -2.28985 0
M  V30 6016 C 559.207 0.793841 -1.39838 0
M  V30 6017 O 560.397 0.641804 -1.61946 0
M  V30 6018 C 557.529 1.15073 -3.20891 0
M  V30 6019 H 558.722 -0.635964 -2.93079 0
M  V30 6020 H 556.275 -0.368007 -1.51906 0
M  V30 6021 H 557.01 1.91667 -2.616 0
M  V30 6022 H 556.795 0.656867 -3.86559 0
M  V30 6023 H 558.285 1.64665 -3.83765 0
M  V30 6024 N 558.722 1.53707 -0.348139 0
M  V30 6025 C 559.632 2.28881 0.514857 0
M  V30 6026 C 560.648 1.34168 1.10793 0
M  V30 6027 O 561.824 1.6721 1.12262 0
M  V30 6028 C 558.889 3.05042 1.64774 0
M  V30 6029 C 557.95 4.15389 1.08398 0
M  V30 6030 C 557.183 4.87909 2.16287 0
M  V30 6031 O 557.406 4.60137 3.3709 0
M  V30 6032 O 556.34 5.74254 1.80323 0
M  V30 6033 H 560.166 3.03547 -0.0963699 0
M  V30 6034 H 557.751 1.48972 -0.113043 0
M  V30 6035 H 559.633 3.52656 2.30677 0
M  V30 6036 H 558.308 2.33228 2.24469 0
M  V30 6037 H 557.215 3.72068 0.389341 0
M  V30 6038 H 558.548 4.89318 0.531829 0
M  V30 6039 N 560.2 0.0768682 1.57412 0
M  V30 6040 C 561.11 -0.903207 2.16516 0
M  V30 6041 C 562.126 -1.32341 1.12968 0
M  V30 6042 O 563.302 -1.39507 1.45258 0
M  V30 6043 C 560.367 -2.1508 2.71922 0
M  V30 6044 C 559.428 -1.78653 3.90361 0
M  V30 6045 C 558.661 -2.97465 4.43114 0
M  V30 6046 O 558.884 -4.11638 3.94854 0
M  V30 6047 O 557.818 -2.76987 5.3438 0
M  V30 6048 H 561.644 -0.430427 3.00634 0
M  V30 6049 H 559.229 -0.146485 1.4868 0
M  V30 6050 H 561.111 -2.8823 3.07411 0
M  V30 6051 H 559.786 -2.61446 1.9086 0
M  V30 6052 H 558.693 -1.0274 3.59716 0
M  V30 6053 H 560.026 -1.37066 4.7273 0
M  V30 6054 N 561.678 -1.56367 -0.196722 0
M  V30 6055 C 562.927 -1.79724 -0.915539 0
M  V30 6056 C 563.24 -0.649804 -1.84491 0
M  V30 6057 O 564.446 -0.767631 -2.60422 0
M  V30 6058 C 562.902 -3.18369 -1.67836 0
M  V30 6059 C 562.51 -4.4091 -0.793897 0
M  V30 6060 C 564.254 -3.51037 -2.38691 0
M  V30 6061 C 562.161 -5.70577 -1.55549 0
M  V30 6062 H 561.091 -0.67013 -0.345604 0
M  V30 6063 H 563.742 -1.82721 -0.168856 0
M  V30 6064 H 562.124 -3.09617 -2.46887 0
M  V30 6065 H 563.298 -4.60781 -0.042163 0
M  V30 6066 H 561.613 -4.15937 -0.19626 0
M  V30 6067 H 564.21 -4.4515 -2.96219 0
M  V30 6068 H 564.553 -2.74704 -3.12799 0
M  V30 6069 H 565.086 -3.61229 -1.66608 0
M  V30 6070 H 561.825 -6.49871 -0.857226 0
M  V30 6071 H 561.345 -5.54726 -2.2812 0
M  V30 6072 H 563.024 -6.11637 -2.10971 0
M  V30 6073 N 563.156 0.464375 -1.50603 0
M  V30 6074 C 564.405 1.21277 -1.61167 0
M  V30 6075 C 564.718 1.92953 -0.320704 0
M  V30 6076 O 565.924 2.69778 -0.30534 0
M  V30 6077 C 564.38 2.20403 -2.84518 0
M  V30 6078 C 563.988 1.54499 -4.20516 0
M  V30 6079 C 565.732 2.95843 -3.0443 0
M  V30 6080 C 563.639 2.51951 -5.35047 0
M  V30 6081 H 562.569 0.456367 -0.600204 0
M  V30 6082 H 565.22 0.48254 -1.77042 0
M  V30 6083 H 563.602 2.96746 -2.62217 0
M  V30 6084 H 564.776 0.83899 -4.53098 0
M  V30 6085 H 563.091 0.913152 -4.06264 0
M  V30 6086 H 565.688 3.6879 -3.87167 0
M  V30 6087 H 566.031 3.55622 -2.16423 0
M  V30 6088 H 566.564 2.26611 -3.26944 0
M  V30 6089 H 563.303 1.96901 -6.25228 0
M  V30 6090 H 562.823 3.20683 -5.06875 0
M  V30 6091 H 564.502 3.13643 -5.65895 0
M  V30 6092 N 564.634 1.40294 0.718013 0
M  V30 6093 C 565.88 1.39648 1.47885 0
M  V30 6094 C 566.235 -0.0023879 1.924 0
M  V30 6095 O 565.528 -0.972304 1.65096 0
M  V30 6096 C 565.722 2.31814 2.72024 0
M  V30 6097 C 565.551 3.80523 2.3965 0
M  V30 6098 C 564.321 4.49351 2.3111 0
M  V30 6099 C 566.519 4.72077 2.04079 0
M  V30 6100 N 564.501 5.83305 1.91385 0
M  V30 6101 C 565.872 5.94809 1.74935 0
M  V30 6102 C 567.927 4.59935 1.90694 0
M  V30 6103 C 566.63 7.06755 1.33753 0
M  V30 6104 C 568.656 5.7182 1.50915 0
M  V30 6105 C 568.018 6.93637 1.22668 0
M  V30 6106 H 564.117 0.566263 0.539324 0
M  V30 6107 H 566.701 1.75986 0.832891 0
M  V30 6108 H 564.872 1.97607 3.34374 0
M  V30 6109 H 566.604 2.22042 3.38348 0
M  V30 6110 H 563.359 4.03002 2.4877 0
M  V30 6111 H 563.783 6.54239 1.74068 0
M  V30 6112 H 568.425 3.66274 2.11194 0
M  V30 6113 H 566.143 8.00302 1.11995 0
M  V30 6114 H 569.729 5.64421 1.4114 0
M  V30 6115 H 568.609 7.78743 0.923502 0
M  V30 6116 N 566.112 -0.949982 1.2575 0
M  V30 6117 C 567.06 -2.06869 1.06339 0
M  V30 6118 C 568.054 -1.69399 -0.00708901 0
M  V30 6119 O 569.26 -1.79383 0.148897 0
M  V30 6120 H 565.635 -0.677197 0.326969 0
M  V30 6121 H 567.606 -2.20396 2.01167 0
M  V30 6122 C 566.355 -3.40503 0.703769 0
M  V30 6123 H 565.678 -3.69807 1.51931 0
M  V30 6124 H 567.118 -4.19623 0.607677 0
M  V30 6125 C 565.577 -3.31685 -0.5905 0
M  V30 6126 O 566.107 -3.67085 -1.63131 0
M  V30 6127 N 564.313 -2.84797 -0.577859 0
M  V30 6128 H 563.86 -2.56186 0.26951 0
M  V30 6129 H 563.818 -2.79279 -1.44398 0
M  V30 6130 N 567.59 -1.07411 -1.15328 0
M  V30 6131 C 568.82 -0.817595 -1.89734 0
M  V30 6132 C 569.228 0.63297 -1.78298 0
M  V30 6133 O 568.571 1.44594 -1.13306 0
M  V30 6134 C 568.633 -1.14748 -3.40695 0
M  V30 6135 C 568.297 -2.59876 -3.75917 0
M  V30 6136 C 569.294 -3.58122 -3.76888 0
M  V30 6137 C 566.979 -2.95469 -4.06206 0
M  V30 6138 C 568.973 -4.89996 -4.07655 0
M  V30 6139 C 566.66 -4.2754 -4.36638 0
M  V30 6140 C 567.658 -5.24614 -4.37344 0
M  V30 6141 O 567.346 -6.54312 -4.67045 0
M  V30 6142 H 567.078 -0.295175 -0.608151 0
M  V30 6143 H 569.632 -1.43409 -1.47048 0
M  V30 6144 H 567.862 -0.47395 -3.83785 0
M  V30 6145 H 569.551 -0.873397 -3.96392 0
M  V30 6146 H 570.317 -3.31966 -3.53587 0
M  V30 6147 H 566.196 -2.20558 -4.04815 0
M  V30 6148 H 569.74 -5.65759 -4.08121 0
M  V30 6149 H 565.637 -4.53449 -4.59407 0
M  V30 6150 H 566.405 -6.59473 -4.84807 0
M  V30 6151 N 569.068 1.32177 -0.85831 0
M  V30 6152 C 570.031 2.27086 -0.310588 0
M  V30 6153 C 571.031 1.51751 0.531806 0
M  V30 6154 O 572.221 1.70794 0.34279 0
M  V30 6155 C 569.353 3.36266 0.560179 0
M  V30 6156 H 570.546 2.77045 -1.1483 0
M  V30 6157 H 568.099 1.42911 -0.632942 0
M  V30 6158 H 568.834 2.9158 1.41956 0
M  V30 6159 H 568.619 3.92077 -0.0428473 0
M  V30 6160 H 570.109 4.06974 0.936056 0
M  V30 6161 N 570.547 0.616602 1.45037 0
M  V30 6162 C 571.958 0.199359 1.85633 0
M  V30 6163 C 572.309 -1.24588 1.51566 0
M  V30 6164 O 571.434 -1.94594 0.94668 0
M  V30 6165 C 572.029 0.355033 3.36935 0
M  V30 6166 C 570.588 -0.00758748 3.76399 0
M  V30 6167 C 569.735 0.675256 2.68953 0
M  V30 6168 H 572.686 0.822708 1.3571 0
M  V30 6169 H 572.707 -0.410201 3.78282 0
M  V30 6170 H 572.219 1.40699 3.61698 0
M  V30 6171 H 570.32 -1.05837 3.57252 0
M  V30 6172 H 570.433 0.392346 4.77491 0
M  V30 6173 H 568.797 0.111992 2.54454 0
M  V30 6174 H 569.58 1.72952 2.96551 0
M  V30 6175 N 572.025 -1.5352 0.356285 0
M  V30 6176 C 573.25 -2.06007 -0.239961 0
M  V30 6177 C 573.675 -1.22872 -1.42422 0
M  V30 6178 O 573.033 -0.245516 -1.7963 0
M  V30 6179 C 573.081 -3.5522 -0.620587 0
M  V30 6180 O 572.185 -3.74864 -1.71902 0
M  V30 6181 H 571.526 -0.662961 -0.0371377 0
M  V30 6182 H 574.056 -1.98033 0.514194 0
M  V30 6183 H 574.066 -3.98081 -0.894197 0
M  V30 6184 H 572.741 -4.15175 0.245407 0
M  V30 6185 H 571.318 -3.43904 -1.44169 0
M  V30 6186 N 573.503 -0.0852151 -1.57369 0
M  V30 6187 C 574.751 0.579658 -1.93609 0
M  V30 6188 C 575.072 1.69332 -0.967043 0
M  V30 6189 O 574.342 1.95892 -0.0174215 0
M  V30 6190 H 572.922 0.217113 -0.714752 0
M  V30 6191 H 575.584 -0.146226 -1.94351 0
M  V30 6192 H 574.68 0.996276 -2.95771 0
M  V30 6193 N 574.981 1.5647 0.188427 0
M  V30 6194 C 576.23 1.80207 0.905995 0
M  V30 6195 C 576.543 0.659579 1.84144 0
M  V30 6196 O 577.749 0.781431 2.60011 0
M  V30 6197 C 576.205 3.19255 1.66145 0
M  V30 6198 C 575.813 4.41324 0.770504 0
M  V30 6199 C 577.557 3.52298 2.36826 0
M  V30 6200 C 575.464 5.71394 1.52521 0
M  V30 6201 H 574.394 0.671953 0.342045 0
M  V30 6202 H 577.045 1.82808 0.159164 0
M  V30 6203 H 575.427 3.10922 2.45242 0
M  V30 6204 H 576.601 4.60797 0.0177261 0
M  V30 6205 H 574.916 4.16035 0.174199 0
M  V30 6206 H 577.513 4.46715 2.93854 0
M  V30 6207 H 577.856 2.76359 3.11338 0
M  V30 6208 H 578.389 3.62108 1.6469 0
M  V30 6209 H 575.128 6.50316 0.82275 0
M  V30 6210 H 574.648 5.55928 2.25175 0
M  V30 6211 H 576.327 6.12747 2.07725 0
M  V30 6212 N 576.459 -0.456382 1.50847 0
M  V30 6213 C 577.736 -1.21739 1.53098 0
M  V30 6214 C 578.116 -2.09179 0.284132 0
M  V30 6215 O 577.464 -2.16466 -0.731773 0
M  V30 6216 C 577.674 -2.03573 2.83477 0
M  V30 6217 C 579.022 -2.61264 3.34703 0
M  V30 6218 O 580.046 -2.13802 2.84898 0
M  V30 6219 O 578.905 -3.47779 4.21559 0
M  V30 6220 H 575.999 -0.553219 0.614718 0
M  V30 6221 H 578.545 -0.467003 1.63148 0
M  V30 6222 H 577.317 -1.39232 3.65691 0
M  V30 6223 H 576.94 -2.85716 2.76499 0
M  V30 6224 N 577.937 -1.40673 -0.710563 0
M  V30 6225 C 579.186 -1.38525 -1.46607 0
M  V30 6226 C 579.499 0.0077024 -1.95598 0
M  V30 6227 O 580.705 0.151792 -2.71075 0
M  V30 6228 C 579.161 -2.43489 -2.6503 0
M  V30 6229 C 578.769 -3.88619 -2.22888 0
M  V30 6230 C 580.513 -2.50456 -3.42742 0
M  V30 6231 C 578.42 -4.85168 -3.3818 0
M  V30 6232 H 577.35 -0.515092 -0.550632 0
M  V30 6233 H 580.001 -1.66431 -0.772846 0
M  V30 6234 H 578.383 -2.0869 -3.36548 0
M  V30 6235 H 579.557 -4.32588 -1.58758 0
M  V30 6236 H 577.872 -3.85174 -1.58208 0
M  V30 6237 H 580.469 -3.19776 -4.28541 0
M  V30 6238 H 580.812 -1.53665 -3.86902 0
M  V30 6239 H 581.345 -2.84271 -2.78271 0
M  V30 6240 H 578.084 -5.8331 -2.99047 0
M  V30 6241 H 577.604 -4.4586 -4.01209 0
M  V30 6242 H 579.283 -5.05225 -4.04174 0
M  V30 6243 N 579.415 0.9433 -1.26252 0
M  V30 6244 C 580.662 1.68925 -1.11672 0
M  V30 6245 C 580.99 1.91499 0.340329 0
M  V30 6246 O 580.245 1.49189 1.26653 0
M  V30 6247 C 580.544 3.07073 -1.82868 0
M  V30 6248 C 580.21 3.04262 -3.32769 0
M  V30 6249 C 578.872 3.03203 -3.7366 0
M  V30 6250 C 581.224 2.96729 -4.28487 0
M  V30 6251 C 578.552 2.92373 -5.0866 0
M  V30 6252 C 580.904 2.87442 -5.63525 0
M  V30 6253 C 579.568 2.84724 -6.03729 0
M  V30 6254 H 578.838 0.618141 -0.408635 0
M  V30 6255 H 581.485 1.10124 -1.56668 0
M  V30 6256 H 579.79 3.69486 -1.30335 0
M  V30 6257 H 581.487 3.63635 -1.69029 0
M  V30 6258 H 578.077 3.05865 -3.00241 0
M  V30 6259 H 582.261 2.96658 -3.97879 0
M  V30 6260 H 577.517 2.88645 -5.38975 0
M  V30 6261 H 581.691 2.80576 -6.37377 0
M  V30 6262 H 579.318 2.76089 -7.08293 0
M  V30 6263 N 580.893 1.08022 1.14757 0
M  V30 6264 C 582.121 0.828847 1.89572 0
M  V30 6265 C 582.536 -0.618621 1.78377 0
M  V30 6266 O 581.893 -1.42482 1.1404 0
M  V30 6267 C 581.944 1.23677 3.39685 0
M  V30 6268 O 581.665 2.62746 3.50566 0
M  V30 6269 C 583.166 1.01569 4.31507 0
M  V30 6270 H 580.386 0.299196 0.600602 0
M  V30 6271 H 582.93 1.43846 1.45357 0
M  V30 6272 H 581.085 0.671347 3.81539 0
M  V30 6273 H 581.499 2.79573 4.43778 0
M  V30 6274 H 582.973 1.35055 5.35223 0
M  V30 6275 H 583.45 -0.0475433 4.39174 0
M  V30 6276 H 584.056 1.56636 3.95405 0
M  V30 6277 N 582.371 -1.3172 0.865308 0
M  V30 6278 C 583.318 -2.2863 0.315736 0
M  V30 6279 C 584.288 -1.55524 -0.583213 0
M  V30 6280 O 585.473 -1.83694 -0.51585 0
M  V30 6281 C 582.613 -3.41735 -0.480773 0
M  V30 6282 C 581.726 -4.297 0.445167 0
M  V30 6283 C 580.861 -5.29944 -0.365012 0
M  V30 6284 C 579.9 -6.09554 0.557651 0
M  V30 6285 N 579.037 -7.01768 -0.215994 0
M  V30 6286 H 583.877 -2.75026 1.14736 0
M  V30 6287 H 581.414 -1.35302 0.577209 0
M  V30 6288 H 583.372 -4.06045 -0.958306 0
M  V30 6289 H 582.002 -2.96461 -1.27714 0
M  V30 6290 H 581.054 -3.65875 1.04113 0
M  V30 6291 H 582.366 -4.85295 1.15284 0
M  V30 6292 H 581.52 -5.99908 -0.905255 0
M  V30 6293 H 580.259 -4.74994 -1.106 0
M  V30 6294 H 579.264 -5.38485 1.10969 0
M  V30 6295 H 580.489 -6.66591 1.29742 0
M  V30 6296 H 578.435 -6.49232 -0.939878 0
M  V30 6297 H 578.352 -7.54762 0.432431 0
M  V30 6298 H 579.62 -7.76002 -0.737618 0
M  V30 6299 N 583.85 -0.624285 -1.44708 0
M  V30 6300 C 584.76 0.0861083 -2.34442 0
M  V30 6301 C 585.776 0.84291 -1.5222 0
M  V30 6302 O 586.952 0.796723 -1.84971 0
M  V30 6303 C 584.017 1.05999 -3.30099 0
M  V30 6304 C 583.077 0.303316 -4.28227 0
M  V30 6305 C 582.311 1.23081 -5.19314 0
M  V30 6306 O 582.534 2.46929 -5.14181 0
M  V30 6307 O 581.468 0.71883 -5.97592 0
M  V30 6308 H 585.293 -0.651756 -2.96624 0
M  V30 6309 H 582.879 -0.384493 -1.44368 0
M  V30 6310 H 584.76 1.62046 -3.88997 0
M  V30 6311 H 583.436 1.77859 -2.70459 0
M  V30 6312 H 582.343 -0.300033 -3.72895 0
M  V30 6313 H 583.676 -0.375123 -4.90768 0
M  V30 6314 N 585.328 1.53329 -0.364422 0
M  V30 6315 C 586.276 2.27212 0.497737 0
M  V30 6316 C 587.27 1.30146 1.08437 0
M  V30 6317 O 588.476 1.47778 1.0277 0
M  V30 6318 H 584.851 0.730329 0.179232 0
M  V30 6319 H 586.822 2.98037 -0.147182 0
M  V30 6320 C 585.571 3.07333 1.6261 0
M  V30 6321 H 584.894 3.81866 1.184 0
M  V30 6322 H 586.334 3.62209 2.20409 0
M  V30 6323 C 584.793 2.18102 2.56775 0
M  V30 6324 O 585.323 1.79104 3.59562 0
M  V30 6325 N 583.529 1.82759 2.25937 0
M  V30 6326 H 583.076 2.14671 1.42387 0
M  V30 6327 H 583.034 1.23342 2.89196 0
M  V30 6328 N 586.806 0.0935595 1.57322 0
M  V30 6329 C 587.736 -0.863062 2.16964 0
M  V30 6330 C 588.717 -1.29528 1.10256 0
M  V30 6331 O 589.902 -1.36245 1.38387 0
M  V30 6332 C 587.032 -2.12276 2.74875 0
M  V30 6333 C 585.986 -1.82921 3.86942 0
M  V30 6334 C 585.312 -3.15707 4.31548 0
M  V30 6335 C 586.612 -1.11737 5.10208 0
M  V30 6336 H 588.306 -0.366145 2.97153 0
M  V30 6337 H 585.852 -0.174673 1.42937 0
M  V30 6338 H 587.805 -2.79634 3.1525 0
M  V30 6339 H 586.529 -2.64248 1.91938 0
M  V30 6340 H 585.188 -1.17961 3.47103 0
M  V30 6341 H 584.836 -3.65563 3.45504 0
M  V30 6342 H 584.536 -2.96849 5.07104 0
M  V30 6343 H 586.06 -3.84226 4.74555 0
M  V30 6344 H 587.474 -1.69203 5.47762 0
M  V30 6345 H 585.871 -1.03064 5.91183 0
M  V30 6346 H 586.941 -0.0998818 4.84797 0
M  V30 6347 N 588.284 -1.56567 -0.180126 0
M  V30 6348 C 589.512 -1.85618 -0.913972 0
M  V30 6349 C 589.927 -0.677892 -1.7621 0
M  V30 6350 O 589.284 0.353171 -1.7905 0
M  V30 6351 C 589.335 -3.13619 -1.79793 0
M  V30 6352 O 589.056 -4.26906 -0.98402 0
M  V30 6353 C 590.557 -3.55954 -2.64219 0
M  V30 6354 H 587.777 -0.616043 -0.265954 0
M  V30 6355 H 590.321 -2.03681 -0.182872 0
M  V30 6356 H 588.476 -2.97409 -2.48247 0
M  V30 6357 H 588.89 -4.9989 -1.58776 0
M  V30 6358 H 590.364 -4.48444 -3.21873 0
M  V30 6359 H 590.841 -2.79653 -3.38661 0
M  V30 6360 H 591.447 -3.74746 -2.01111 0
M  V30 6361 N 589.762 0.448376 -1.51087 0
M  V30 6362 C 590.725 1.52588 -1.71025 0
M  V30 6363 C 591.725 1.49958 -0.580442 0
M  V30 6364 O 592.915 1.52176 -0.847833 0
M  V30 6365 C 590.047 2.92163 -1.75652 0
M  V30 6366 H 591.24 1.36218 -2.67179 0
M  V30 6367 H 588.793 0.676313 -1.4091 0
M  V30 6368 H 589.528 3.13951 -0.812724 0
M  V30 6369 H 589.313 2.95478 -2.57751 0
M  V30 6370 H 590.803 3.70349 -1.92953 0
M  V30 6371 N 591.24 1.41047 0.703093 0
M  V30 6372 C 592.651 1.35657 1.28274 0
M  V30 6373 C 593.002 0.0360309 1.96167 0
M  V30 6374 O 592.127 -0.865833 1.98324 0
M  V30 6375 C 592.722 2.45707 2.33267 0
M  V30 6376 C 591.281 2.43738 2.86825 0
M  V30 6377 C 590.428 2.25941 1.60767 0
M  V30 6378 H 593.379 1.50672 0.49836 0
M  V30 6379 H 593.4 2.14333 3.14391 0
M  V30 6380 H 592.912 3.41805 1.83824 0
M  V30 6381 H 591.013 1.51375 3.40465 0
M  V30 6382 H 591.126 3.39779 3.37768 0
M  V30 6383 H 589.49 1.73681 1.86298 0
M  V30 6384 H 590.273 3.24054 1.1333 0
M  V30 6385 N 592.718 -0.936591 1.26751 0
M  V30 6386 C 593.966 -1.67998 1.12343 0
M  V30 6387 C 594.287 -1.92137 -0.332938 0
M  V30 6388 O 593.557 -1.52132 -1.23421 0
M  V30 6389 H 592.137 -0.622609 0.412756 0
M  V30 6390 H 594.799 -1.12509 1.59147 0
M  V30 6391 H 593.895 -2.65185 1.64571 0
M  V30 6392 N 594.196 -1.08629 -1.14182 0
M  V30 6393 C 595.421 -0.83902 -1.89671 0
M  V30 6394 C 595.846 0.603332 -1.78161 0
M  V30 6395 O 595.204 1.42301 -1.12339 0
M  V30 6396 C 595.252 -1.26854 -3.37551 0
M  V30 6397 O 594.356 -0.42188 -4.10236 0
M  V30 6398 H 593.697 -0.304545 -0.590041 0
M  V30 6399 H 596.227 -1.4483 -1.44518 0
M  V30 6400 H 596.237 -1.25038 -3.88368 0
M  V30 6401 H 594.912 -2.31901 -3.45246 0
M  V30 6402 H 593.489 -0.503654 -3.69483 0
M  V30 6403 N 595.674 1.31259 -0.872281 0
M  V30 6404 C 596.951 1.91362 -0.404943 0
M  V30 6405 C 597.331 1.79362 1.11321 0
M  V30 6406 O 596.679 1.20277 1.94283 0
M  V30 6407 C 596.889 3.3749 -0.888893 0
M  V30 6408 C 598.237 4.14593 -0.916384 0
M  V30 6409 O 599.261 3.46282 -0.834701 0
M  V30 6410 O 598.12 5.3661 -1.03498 0
M  V30 6411 H 595.214 0.818016 -0.121569 0
M  V30 6412 H 597.76 1.39912 -0.960346 0
M  V30 6413 H 596.532 3.40249 -1.93251 0
M  V30 6414 H 596.155 3.96375 -0.311932 0
M  V30 6415 N 597.152 0.631951 1.44375 0
M  V30 6416 C 598.377 0.142146 2.06912 0
M  V30 6417 C 598.802 -1.17456 1.4692 0
M  V30 6418 O 598.16 -1.72074 0.570975 0
M  V30 6419 C 598.208 0.0417952 3.60576 0
M  V30 6420 O 597.312 -1.00194 4.00044 0
M  V30 6421 H 596.653 0.0851491 0.658518 0
M  V30 6422 H 599.183 0.868863 1.85235 0
M  V30 6423 H 599.193 -0.148517 4.0773 0
M  V30 6424 H 597.868 1.0031 4.03622 0
M  V30 6425 H 596.445 -0.786131 3.64519 0
M  V30 6426 N 598.631 -1.53133 0.372548 0
M  V30 6427 C 599.594 -2.24569 -0.458389 0
M  V30 6428 C 600.594 -1.25603 -1.00402 0
M  V30 6429 O 601.784 -1.49827 -0.888672 0
M  V30 6430 C 598.916 -2.98783 -1.6414 0
M  V30 6431 H 600.109 -2.99436 0.166799 0
M  V30 6432 H 597.662 -1.55805 0.124357 0
M  V30 6433 H 598.397 -2.28176 -2.30448 0
M  V30 6434 H 598.182 -3.71404 -1.25704 0
M  V30 6435 H 599.672 -3.53068 -2.23008 0
M  V30 6436 N 600.109 -0.101901 -1.5727 0
M  V30 6437 C 601.355 0.561027 -1.94885 0
M  V30 6438 C 601.688 1.6741 -0.984258 0
M  V30 6439 O 600.963 1.94491 -0.0184767 0
M  V30 6440 C 601.246 1.10982 -3.42571 0
M  V30 6441 C 601.099 0.00133418 -4.498 0
M  V30 6442 C 602.418 2.00608 -3.9172 0
M  V30 6443 H 599.537 0.202467 -0.708644 0
M  V30 6444 H 602.179 -0.173992 -1.89202 0
M  V30 6445 H 600.329 1.73621 -3.47546 0
M  V30 6446 H 602.001 -0.63322 -4.56933 0
M  V30 6447 H 600.244 -0.664143 -4.28686 0
M  V30 6448 H 600.915 0.426253 -5.50352 0
M  V30 6449 H 603.391 1.47864 -3.88941 0
M  V30 6450 H 602.267 2.3593 -4.95609 0
M  V30 6451 H 602.528 2.92608 -3.3141 0
M  V30 6452 N 601.587 1.56661 0.17182 0
M  V30 6453 C 602.834 1.81965 0.888529 0
M  V30 6454 C 603.162 0.6789 1.82267 0
M  V30 6455 O 602.417 -0.333875 1.92831 0
M  V30 6456 C 602.716 3.13435 1.71736 0
M  V30 6457 C 602.382 4.41159 0.932184 0
M  V30 6458 C 601.044 4.75851 0.715481 0
M  V30 6459 C 603.396 5.19803 0.381387 0
M  V30 6460 C 600.724 5.86666 -0.063126 0
M  V30 6461 C 603.076 6.31433 -0.384129 0
M  V30 6462 C 601.74 6.64692 -0.611637 0
M  V30 6463 H 601.01 0.665859 0.325136 0
M  V30 6464 H 603.657 1.90884 0.153495 0
M  V30 6465 H 601.962 2.99857 2.52177 0
M  V30 6466 H 603.659 3.30224 2.27493 0
M  V30 6467 H 600.249 4.13947 1.11112 0
M  V30 6468 H 604.433 4.93396 0.536148 0
M  V30 6469 H 599.689 6.10892 -0.249136 0
M  V30 6470 H 603.863 6.91577 -0.818185 0
M  V30 6471 H 601.49 7.50398 -1.21684 0
M  V30 6472 N 603.065 -0.440357 1.51323 0
M  V30 6473 C 604.312 -1.19004 1.63842 0
M  V30 6474 C 604.64 -1.91266 0.35321 0
M  V30 6475 O 603.895 -1.84143 -0.662565 0
M  V30 6476 C 604.194 -2.2339 2.78984 0
M  V30 6477 C 603.86 -1.68162 4.18369 0
M  V30 6478 C 602.522 -1.52823 4.56288 0
M  V30 6479 C 604.874 -1.27524 5.05358 0
M  V30 6480 C 602.202 -0.953157 5.78906 0
M  V30 6481 C 604.554 -0.714474 6.28552 0
M  V30 6482 C 603.218 -0.547961 6.65247 0
M  V30 6483 H 602.488 -0.435468 0.59954 0
M  V30 6484 H 605.135 -0.481538 1.85347 0
M  V30 6485 H 603.44 -3.00267 2.51688 0
M  V30 6486 H 605.137 -2.81211 2.85869 0
M  V30 6487 H 601.727 -1.81077 3.8847 0
M  V30 6488 H 605.911 -1.38197 4.76671 0
M  V30 6489 H 601.167 -0.811882 6.05986 0
M  V30 6490 H 605.341 -0.391059 6.95301 0
M  V30 6491 H 602.968 -0.100222 7.60134 0
M  V30 6492 N 604.543 -1.41418 -0.695603 0
M  V30 6493 C 605.453 -1.45622 -1.83933 0
M  V30 6494 C 606.469 -0.346825 -1.70508 0
M  V30 6495 O 607.645 -0.59454 -1.92424 0
M  V30 6496 C 604.71 -1.33627 -3.19914 0
M  V30 6497 C 603.771 -2.54882 -3.45447 0
M  V30 6498 C 603.004 -2.43449 -4.7494 0
M  V30 6499 O 603.227 -1.45905 -5.51424 0
M  V30 6500 O 602.161 -3.33206 -5.01256 0
M  V30 6501 H 605.987 -2.42114 -1.83342 0
M  V30 6502 H 603.572 -1.22956 -0.848658 0
M  V30 6503 H 605.454 -1.29221 -4.01098 0
M  V30 6504 H 604.129 -0.402508 -3.21188 0
M  V30 6505 H 603.036 -2.64865 -2.64192 0
M  V30 6506 H 604.369 -3.47087 -3.48987 0
M  V30 6507 N 606.021 0.929856 -1.27246 0
M  V30 6508 C 606.953 2.03434 -1.0558 0
M  V30 6509 C 607.966 1.62795 -0.0125762 0
M  V30 6510 O 609.155 1.76685 -0.2539 0
M  V30 6511 C 606.255 3.33915 -0.57912 0
M  V30 6512 C 605.428 4.03259 -1.69415 0
M  V30 6513 C 604.487 5.12014 -1.21357 0
M  V30 6514 O 603.513 5.36097 -1.91282 0
M  V30 6515 N 604.715 5.8046 -0.0680622 0
M  V30 6516 H 607.48 2.22583 -2.00691 0
M  V30 6517 H 605.041 1.1001 -1.18783 0
M  V30 6518 H 607.033 4.03978 -0.241563 0
M  V30 6519 H 605.603 3.11355 0.278703 0
M  V30 6520 H 604.823 3.26958 -2.20209 0
M  V30 6521 H 606.111 4.46337 -2.44255 0
M  V30 6522 H 605.509 5.63345 0.515626 0
M  V30 6523 H 604.066 6.51461 0.210332 0
M  V30 6524 N 607.499 1.09233 1.13605 0
M  V30 6525 C 608.747 0.825525 1.84471 0
M  V30 6526 C 609.068 -0.650702 1.83823 0
M  V30 6527 O 608.338 -1.47204 1.29259 0
M  V30 6528 H 606.918 0.3024 0.683054 0
M  V30 6529 H 609.58 1.38006 1.37624 0
M  V30 6530 H 608.676 1.17727 2.89045 0
M  V30 6531 N 608.977 -1.30795 0.87923 0
M  V30 6532 C 610.205 -2.00527 0.509548 0
M  V30 6533 C 610.62 -1.65944 -0.90045 0
M  V30 6534 O 609.977 -0.893525 -1.5913 0
M  V30 6535 C 610.028 -3.55276 0.667943 0
M  V30 6536 O 609.749 -3.88625 2.02242 0
M  V30 6537 C 611.25 -4.4228 0.300494 0
M  V30 6538 H 608.47 -0.641261 0.197549 0
M  V30 6539 H 611.014 -1.66813 1.18295 0
M  V30 6540 H 609.169 -3.87377 0.0419843 0
M  V30 6541 H 609.583 -4.83334 2.03688 0
M  V30 6542 H 611.057 -5.50061 0.462242 0
M  V30 6543 H 611.534 -4.32556 -0.76106 0
M  V30 6544 H 612.14 -4.15613 0.902536 0
M  V30 6545 N 610.455 -0.639598 -1.44038 0
M  V30 6546 C 611.683 -0.154811 -2.0632 0
M  V30 6547 C 612.098 1.17406 -1.47856 0
M  V30 6548 O 611.455 1.72193 -0.604638 0
M  V30 6549 C 611.506 -0.0429958 -3.61474 0
M  V30 6550 O 611.227 -1.31932 -4.17763 0
M  V30 6551 C 612.728 0.469486 -4.40807 0
M  V30 6552 H 609.948 -0.0835862 -0.665773 0
M  V30 6553 H 612.492 -0.876397 -1.84769 0
M  V30 6554 H 610.647 0.629075 -3.82258 0
M  V30 6555 H 611.061 -1.16965 -5.11292 0
M  V30 6556 H 612.535 0.496712 -5.49761 0
M  V30 6557 H 613.012 1.49819 -4.12857 0
M  V30 6558 H 613.618 -0.169624 -4.24962 0
M  V30 6559 N 611.933 1.52934 -0.380664 0
M  V30 6560 C 613.349 1.59571 -0.0302429 0
M  V30 6561 C 613.549 1.39509 1.45394 0
M  V30 6562 O 612.605 1.20777 2.21741 0
M  V30 6563 C 613.918 2.96519 -0.499691 0
M  V30 6564 C 615.466 3.09672 -0.455204 0
M  V30 6565 C 615.941 4.49056 -0.900703 0
M  V30 6566 N 617.432 4.55215 -0.856367 0
M  V30 6567 C 618.167 5.61282 -1.17259 0
M  V30 6568 N 617.663 6.75035 -1.55885 0
M  V30 6569 N 619.456 5.51343 -1.0944 0
M  V30 6570 H 611.607 1.64224 -1.347 0
M  V30 6571 H 613.87 0.771033 -0.551554 0
M  V30 6572 H 613.576 3.16388 -1.53595 0
M  V30 6573 H 613.45 3.77052 0.105789 0
M  V30 6574 H 615.837 2.89504 0.571949 0
M  V30 6575 H 615.918 2.31113 -1.09638 0
M  V30 6576 H 615.562 4.69964 -1.92604 0
M  V30 6577 H 615.492 5.26068 -0.236629 0
M  V30 6578 H 617.983 3.73546 -0.572013 0
M  V30 6579 H 618.296 7.51926 -1.784 0
M  V30 6580 H 616.641 6.76388 -1.59764 0
M  V30 6581 H 619.832 4.61356 -0.791713 0
M  V30 6582 H 620.005 6.33905 -1.34417 0
M  V30 6583 N 613.412 0.11024 1.57214 0
M  V30 6584 C 614.661 -0.549638 1.94067 0
M  V30 6585 C 614.974 -1.68388 0.995234 0
M  V30 6586 O 616.18 -2.40593 1.25807 0
M  V30 6587 C 614.636 -1.02912 3.44873 0
M  V30 6588 C 614.244 0.0761861 4.47935 0
M  V30 6589 C 615.988 -1.66087 3.9066 0
M  V30 6590 C 613.895 -0.419502 5.8991 0
M  V30 6591 H 612.825 -0.209092 0.724428 0
M  V30 6592 H 615.476 0.188683 1.82527 0
M  V30 6593 H 613.858 -1.82159 3.51616 0
M  V30 6594 H 615.032 0.852185 4.52851 0
M  V30 6595 H 613.347 0.614052 4.11847 0
M  V30 6596 H 615.944 -2.04272 4.94143 0
M  V30 6597 H 616.287 -2.53591 3.30148 0
M  V30 6598 H 616.82 -0.933959 3.86681 0
M  V30 6599 H 613.559 0.419277 6.54158 0
M  V30 6600 H 613.079 -1.16217 5.88433 0
M  V30 6601 H 614.758 -0.883577 6.40938 0
M  V30 6602 N 614.89 -1.56749 -0.16351 0
M  V30 6603 C 616.138 -1.82074 -0.87713 0
M  V30 6604 C 616.459 -0.688503 -1.82441 0
M  V30 6605 O 615.729 0.291085 -1.93725 0
M  V30 6606 H 614.309 -0.671677 -0.326893 0
M  V30 6607 H 616.971 -1.9423 -0.161459 0
M  V30 6608 H 616.067 -2.76407 -1.44934 0
M  V30 6609 N 616.368 0.432326 -1.51554 0
M  V30 6610 C 617.616 1.17901 -1.64146 0
M  V30 6611 C 617.937 1.91604 -0.362367 0
M  V30 6612 O 617.207 1.85764 0.621968 0
M  V30 6613 H 615.787 0.438206 -0.604966 0
M  V30 6614 H 618.449 0.495172 -1.88505 0
M  V30 6615 H 617.545 1.90584 -2.47152 0
M  V30 6616 N 617.846 1.41785 0.688094 0
M  V30 6617 C 619.071 1.45117 1.48175 0
M  V30 6618 C 619.496 0.060129 1.88004 0
M  V30 6619 O 618.854 -0.938385 1.55126 0
M  V30 6620 C 618.902 2.37224 2.71583 0
M  V30 6621 O 618.006 1.83443 3.69354 0
M  V30 6622 H 617.347 0.492208 0.445676 0
M  V30 6623 H 619.877 1.86329 0.845145 0
M  V30 6624 H 619.887 2.53353 3.19806 0
M  V30 6625 H 618.562 3.38293 2.41931 0
M  V30 6626 H 617.139 1.76802 3.28322 0
M  V30 6627 N 619.324 -0.923095 1.27737 0
M  V30 6628 C 620.554 -1.70277 1.17001 0
M  V30 6629 C 620.962 -1.87188 -0.275199 0
M  V30 6630 O 620.305 -1.39195 -1.19877 0
M  V30 6631 C 620.367 -3.11976 1.78637 0
M  V30 6632 C 620.031 -3.18386 3.27841 0
M  V30 6633 C 621.028 -3.00287 4.2441 0
M  V30 6634 C 618.713 -3.41198 3.68632 0
M  V30 6635 C 620.707 -3.04896 5.59747 0
M  V30 6636 C 618.394 -3.4544 5.04097 0
M  V30 6637 C 619.392 -3.27309 5.99465 0
M  V30 6638 O 619.08 -3.31295 7.32461 0
M  V30 6639 H 618.812 -0.539366 0.407505 0
M  V30 6640 H 621.366 -1.16446 1.69202 0
M  V30 6641 H 619.596 -3.67308 1.20919 0
M  V30 6642 H 621.285 -3.7193 1.6255 0
M  V30 6643 H 622.051 -2.825 3.94232 0
M  V30 6644 H 617.93 -3.54359 2.94873 0
M  V30 6645 H 621.474 -2.90662 6.34162 0
M  V30 6646 H 617.371 -3.62753 5.33929 0
M  V30 6647 H 618.139 -3.47719 7.40968 0
M  V30 6648 N 620.802 -1.09834 -1.13024 0
M  V30 6649 C 621.749 -0.741522 -2.18564 0
M  V30 6650 C 622.719 0.279236 -1.63736 0
M  V30 6651 O 623.904 0.159923 -1.90129 0
M  V30 6652 C 621.044 -0.17277 -3.44667 0
M  V30 6653 C 620.157 -1.24808 -4.13578 0
M  V30 6654 C 619.292 -0.641631 -5.27311 0
M  V30 6655 C 618.331 -1.69795 -5.88078 0
M  V30 6656 N 617.468 -1.11223 -6.93234 0
M  V30 6657 H 622.308 -1.64576 -2.48432 0
M  V30 6658 H 619.845 -0.822174 -1.21978 0
M  V30 6659 H 621.803 0.17482 -4.16834 0
M  V30 6660 H 620.433 0.694725 -3.15235 0
M  V30 6661 H 619.485 -1.71288 -3.39653 0
M  V30 6662 H 620.797 -2.04795 -4.54819 0
M  V30 6663 H 619.951 -0.243128 -6.06213 0
M  V30 6664 H 618.69 0.189742 -4.87331 0
M  V30 6665 H 617.695 -2.10595 -5.07868 0
M  V30 6666 H 618.92 -2.53206 -6.3013 0
M  V30 6667 H 616.866 -0.302208 -6.55304 0
M  V30 6668 H 616.783 -1.84901 -7.3304 0
M  V30 6669 H 618.051 -0.740068 -7.75979 0
M  V30 6670 N 622.28 1.30327 -0.886154 0
M  V30 6671 C 623.227 2.28099 -0.352069 0
M  V30 6672 C 624.197 1.56433 0.558397 0
M  V30 6673 O 625.382 1.84492 0.486561 0
M  V30 6674 C 622.522 3.42456 0.426346 0
M  V30 6675 C 621.635 4.28938 -0.513472 0
M  V30 6676 C 620.77 5.30458 0.280657 0
M  V30 6677 C 619.809 6.0859 -0.654556 0
M  V30 6678 N 618.946 7.02022 0.104322 0
M  V30 6679 H 623.786 2.73166 -1.19097 0
M  V30 6680 H 621.323 1.34367 -0.598662 0
M  V30 6681 H 623.281 4.07518 0.893587 0
M  V30 6682 H 621.911 2.98455 1.22981 0
M  V30 6683 H 620.963 3.64173 -1.09921 0
M  V30 6684 H 622.275 4.83399 -1.2299 0
M  V30 6685 H 621.429 6.01273 0.8097 0
M  V30 6686 H 620.168 4.76693 1.03029 0
M  V30 6687 H 619.173 5.36651 -1.19522 0
M  V30 6688 H 620.398 6.64443 -1.4033 0
M  V30 6689 H 618.344 6.50645 0.836472 0
M  V30 6690 H 618.261 7.53979 -0.552453 0
M  V30 6691 H 619.529 7.77077 0.614069 0
M  V30 6692 N 623.758 0.647228 1.43697 0
M  V30 6693 C 624.688 -0.0345631 2.33474 0
M  V30 6694 C 625.669 -0.818193 1.4913 0
M  V30 6695 O 626.854 -0.780867 1.77809 0
M  V30 6696 C 623.984 -1.00576 3.32418 0
M  V30 6697 C 622.938 -0.33266 4.26705 0
M  V30 6698 C 622.264 -1.41489 5.1564 0
M  V30 6699 C 623.564 0.771204 5.16575 0
M  V30 6700 H 625.258 0.715163 2.90733 0
M  V30 6701 H 622.804 0.345364 1.39797 0
M  V30 6702 H 624.757 -1.49159 3.94119 0
M  V30 6703 H 623.481 -1.78657 2.73403 0
M  V30 6704 H 622.14 0.13267 3.6636 0
M  V30 6705 H 621.788 -2.18698 4.52968 0
M  V30 6706 H 621.488 -0.969799 5.79542 0
M  V30 6707 H 623.012 -1.9022 5.80214 0
M  V30 6708 H 624.426 0.36779 5.72119 0
M  V30 6709 H 622.823 1.1404 5.89165 0
M  V30 6710 H 623.893 1.63169 4.56622 0
M  V30 6711 N 625.236 -1.5273 0.388769 0
M  V30 6712 C 626.482 -2.01871 -0.193877 0
M  V30 6713 C 626.815 -1.27475 -1.46505 0
M  V30 6714 O 626.09 -0.375063 -1.90849 0
M  V30 6715 C 626.373 -3.5712 -0.462336 0
M  V30 6716 C 626.226 -4.42186 0.824091 0
M  V30 6717 C 627.545 -4.21881 -1.25319 0
M  V30 6718 H 624.664 -0.733764 -0.0689899 0
M  V30 6719 H 627.306 -1.82796 0.518231 0
M  V30 6720 H 625.456 -3.73504 -1.06896 0
M  V30 6721 H 627.128 -4.37554 1.46096 0
M  V30 6722 H 625.371 -4.09219 1.43952 0
M  V30 6723 H 626.042 -5.48828 0.590905 0
M  V30 6724 H 628.518 -4.0947 -0.73981 0
M  V30 6725 H 627.394 -5.30487 -1.40977 0
M  V30 6726 H 627.655 -3.79478 -2.26824 0
M  V30 6727 N 626.714 -0.118576 -1.57153 0
M  V30 6728 C 627.944 0.546466 -1.99242 0
M  V30 6729 C 628.352 1.60791 -0.997148 0
M  V30 6730 O 627.695 1.83691 0.0181745 0
M  V30 6731 C 627.757 1.23167 -3.37743 0
M  V30 6732 C 627.421 0.318226 -4.55891 0
M  V30 6733 C 628.418 -0.442988 -5.18009 0
M  V30 6734 C 626.103 0.229421 -5.01776 0
M  V30 6735 C 628.097 -1.28074 -6.244 0
M  V30 6736 C 625.784 -0.611966 -6.08028 0
M  V30 6737 C 626.782 -1.36568 -6.69207 0
M  V30 6738 O 626.47 -2.1931 -7.73407 0
M  V30 6739 H 626.202 0.149297 -0.659307 0
M  V30 6740 H 628.756 -0.201603 -2.04408 0
M  V30 6741 H 626.986 2.0268 -3.29329 0
M  V30 6742 H 628.675 1.79358 -3.64123 0
M  V30 6743 H 629.441 -0.38425 -4.83475 0
M  V30 6744 H 625.32 0.805771 -4.53903 0
M  V30 6745 H 628.864 -1.86952 -6.72082 0
M  V30 6746 H 624.761 -0.6721 -6.41991 0
M  V30 6747 H 625.529 -2.12247 -7.90502 0
M  V30 6748 N 628.193 1.56834 0.155195 0
M  V30 6749 C 629.609 1.51315 0.50755 0
M  V30 6750 C 629.809 0.825614 1.83809 0
M  V30 6751 O 628.865 0.39271 2.49427 0
M  V30 6752 C 630.178 2.96074 0.52542 0
M  V30 6753 C 631.726 3.06968 0.611505 0
M  V30 6754 C 632.201 4.53218 0.660115 0
M  V30 6755 N 633.692 4.5753 0.722564 0
M  V30 6756 C 634.427 5.68056 0.781023 0
M  V30 6757 N 633.923 6.88173 0.799327 0
M  V30 6758 N 635.716 5.56068 0.821278 0
M  V30 6759 H 627.867 1.9993 -0.717063 0
M  V30 6760 H 630.13 0.911507 -0.260496 0
M  V30 6761 H 629.836 3.49599 -0.383875 0
M  V30 6762 H 629.71 3.51587 1.36624 0
M  V30 6763 H 632.097 2.53468 1.51122 0
M  V30 6764 H 632.178 2.54513 -0.256306 0
M  V30 6765 H 631.822 5.07354 -0.23541 0
M  V30 6766 H 631.752 5.03447 1.5443 0
M  V30 6767 H 634.243 3.71054 0.716049 0
M  V30 6768 H 634.556 7.6816 0.845553 0
M  V30 6769 H 632.901 6.90751 0.767337 0
M  V30 6770 H 636.092 4.61142 0.804091 0
M  V30 6771 H 636.265 6.42223 0.863372 0
M  V30 6772 N 629.671 -0.424282 1.51781 0
M  V30 6773 C 630.581 -1.54087 1.76902 0
M  V30 6774 C 631.597 -1.61249 0.653826 0
M  V30 6775 O 632.773 -1.78247 0.937552 0
M  V30 6776 C 629.838 -2.8996 1.90063 0
M  V30 6777 C 628.899 -2.92809 3.13945 0
M  V30 6778 C 628.132 -4.22201 3.26469 0
M  V30 6779 O 628.355 -5.15286 2.44616 0
M  V30 6780 O 627.289 -4.31599 4.1953 0
M  V30 6781 H 631.115 -1.358 2.71647 0
M  V30 6782 H 628.7 -0.608618 1.36441 0
M  V30 6783 H 630.582 -3.70575 2.0063 0
M  V30 6784 H 629.257 -3.08347 0.985067 0
M  V30 6785 H 628.164 -2.11102 3.08847 0
M  V30 6786 H 629.497 -2.79369 4.05233 0
M  V30 6787 N 631.149 -1.42148 -0.680565 0
M  V30 6788 C 632.379 -1.45485 -1.46689 0
M  V30 6789 C 632.787 -0.0629451 -1.89095 0
M  V30 6790 O 632.13 0.931397 -1.58337 0
M  V30 6791 C 632.192 -2.31397 -2.75129 0
M  V30 6792 C 631.856 -3.79353 -2.54834 0
M  V30 6793 C 632.853 -4.71148 -2.19808 0
M  V30 6794 C 630.538 -4.23557 -2.70008 0
M  V30 6795 C 632.532 -6.05139 -2.00215 0
M  V30 6796 C 630.219 -5.57609 -2.50031 0
M  V30 6797 C 631.217 -6.48216 -2.15187 0
M  V30 6798 O 630.905 -7.79792 -1.95397 0
M  V30 6799 H 630.637 -0.497139 -0.458071 0
M  V30 6800 H 633.191 -1.87252 -0.844139 0
M  V30 6801 H 631.421 -1.84468 -3.39865 0
M  V30 6802 H 633.11 -2.26257 -3.36991 0
M  V30 6803 H 633.876 -4.38282 -2.07686 0
M  V30 6804 H 629.755 -3.53327 -2.96109 0
M  V30 6805 H 633.299 -6.75823 -1.72941 0
M  V30 6806 H 629.196 -5.9005 -2.61748 0
M  V30 6807 H 629.964 -7.91091 -2.10042 0
M  V30 6808 N 632.627 0.916307 -1.28225 0
M  V30 6809 C 633.855 1.69901 -1.18073 0
M  V30 6810 C 634.27 1.86988 0.260968 0
M  V30 6811 O 633.627 1.39505 1.17663 0
M  V30 6812 C 633.678 3.09254 -1.87201 0
M  V30 6813 O 633.399 2.92959 -3.2574 0
M  V30 6814 C 634.9 4.0362 -1.83319 0
M  V30 6815 H 632.12 0.531181 -0.409985 0
M  V30 6816 H 634.664 1.14703 -1.69303 0
M  V30 6817 H 632.819 3.61277 -1.39848 0
M  V30 6818 H 633.233 3.81139 -3.60324 0
M  V30 6819 H 634.707 4.98873 -2.36282 0
M  V30 6820 H 635.184 4.3176 -0.805007 0
M  V30 6821 H 635.79 3.57524 -2.3034 0
M  V30 6822 N 634.105 1.10431 1.1244 0
M  V30 6823 C 635.382 0.758797 1.80282 0
M  V30 6824 C 635.762 -0.754727 1.97147 0
M  V30 6825 O 635.11 -1.68094 1.54779 0
M  V30 6826 C 635.32 1.50982 3.14651 0
M  V30 6827 C 636.668 1.68232 3.8985 0
M  V30 6828 O 637.692 1.47319 3.24308 0
M  V30 6829 O 636.551 2.02905 5.07437 0
M  V30 6830 H 633.645 0.273756 0.780376 0
M  V30 6831 H 636.191 1.20713 1.19275 0
M  V30 6832 H 634.963 2.53989 2.97666 0
M  V30 6833 H 634.586 1.05435 3.83366 0
M  V30 6834 N 635.583 -1.29855 0.893053 0
M  V30 6835 C 636.546 -2.26183 0.370687 0
M  V30 6836 C 637.546 -1.53108 -0.491385 0
M  V30 6837 O 638.736 -1.71643 -0.297386 0
M  V30 6838 C 635.868 -3.37633 -0.470827 0
M  V30 6839 H 637.061 -2.73903 1.22135 0
M  V30 6840 H 634.614 -1.41183 0.67061 0
M  V30 6841 H 635.349 -2.95241 -1.34175 0
M  V30 6842 H 635.134 -3.91825 0.146784 0
M  V30 6843 H 636.624 -4.09313 -0.827825 0
M  V30 6844 N 637.061 -0.65484 -1.43351 0
M  V30 6845 C 638.286 -0.175046 -2.0666 0
M  V30 6846 C 638.711 1.15104 -1.4877 0
M  V30 6847 O 638.069 1.71144 -0.598279 0
M  V30 6848 C 638.117 -0.0991544 -3.60464 0
M  V30 6849 O 637.221 0.938169 -4.01587 0
M  V30 6850 H 636.562 -0.0956148 -0.65708 0
M  V30 6851 H 639.092 -0.898222 -1.83829 0
M  V30 6852 H 639.102 0.083632 -4.07914 0
M  V30 6853 H 637.777 -1.06719 -4.01975 0
M  V30 6854 H 636.354 0.72804 -3.65724 0
M  V30 6855 N 638.539 1.52521 -0.396863 0
M  V30 6856 C 639.786 2.01672 0.182898 0
M  V30 6857 C 640.114 1.28302 1.46181 0
M  V30 6858 O 639.369 0.374118 1.92091 0
M  V30 6859 C 639.668 3.5403 0.489677 0
M  V30 6860 C 639.334 4.45456 -0.698581 0
M  V30 6861 C 637.996 4.70166 -1.02454 0
M  V30 6862 C 640.348 4.99354 -1.49316 0
M  V30 6863 C 637.676 5.46024 -2.1465 0
M  V30 6864 C 640.028 5.76439 -2.60579 0
M  V30 6865 C 638.692 5.99426 -2.93675 0
M  V30 6866 H 637.962 0.737971 0.066927 0
M  V30 6867 H 640.609 1.83853 -0.535764 0
M  V30 6868 H 638.914 3.69963 1.28976 0
M  V30 6869 H 640.611 3.8956 0.951018 0
M  V30 6870 H 637.201 4.26392 -0.434525 0
M  V30 6871 H 641.385 4.80182 -1.25457 0
M  V30 6872 H 636.641 5.62046 -2.40654 0
M  V30 6873 H 640.815 6.17202 -3.22544 0
M  V30 6874 H 638.442 6.57988 -3.80731 0
M  V30 6875 N 640.017 0.126909 1.57088 0
M  V30 6876 C 641.245 -0.53667 1.99819 0
M  V30 6877 C 641.66 -1.5972 1.00673 0
M  V30 6878 O 641.017 -1.825 0.000747365 0
M  V30 6879 C 641.068 -1.15563 3.42531 0
M  V30 6880 O 640.789 -0.137483 4.37884 0
M  V30 6881 C 642.29 -1.90176 4.00435 0
M  V30 6882 H 639.51 -0.141443 0.655923 0
M  V30 6883 H 642.054 0.215578 2.03361 0
M  V30 6884 H 640.209 -1.85861 3.39904 0
M  V30 6885 H 640.623 -0.588229 5.21191 0
M  V30 6886 H 642.097 -2.28801 5.02349 0
M  V30 6887 H 642.574 -2.78002 3.40017 0
M  V30 6888 H 643.18 -1.24623 4.06632 0
M  V30 6889 N 641.495 -1.56914 -0.146875 0
M  V30 6890 C 642.443 -1.99224 -1.20053 0
M  V30 6891 C 643.437 -0.884661 -1.44465 0
M  V30 6892 O 644.643 -1.06984 -1.44756 0
M  V30 6893 H 641.018 -0.634191 -0.404112 0
M  V30 6894 H 642.989 -2.86998 -0.816987 0
M  V30 6895 C 641.738 -2.38899 -2.52632 0
M  V30 6896 H 641.061 -3.23677 -2.34677 0
M  V30 6897 H 642.501 -2.72326 -3.24984 0
M  V30 6898 C 640.96 -1.2417 -3.13183 0
M  V30 6899 O 641.49 -0.542503 -3.9802 0
M  V30 6900 N 639.696 -1.00592 -2.72635 0
M  V30 6901 H 639.243 -1.57627 -2.03744 0
M  V30 6902 H 639.201 -0.240174 -3.13481 0
M  V30 6903 N 642.974 0.416227 -1.52004 0
M  V30 6904 C 644.39 0.754319 -1.40649 0
M  V30 6905 C 644.59 1.95059 -0.505392 0
M  V30 6906 O 643.646 2.5248 0.0315057 0
M  V30 6907 C 644.959 1.0149 -2.83055 0
M  V30 6908 C 646.507 1.11805 -2.9235 0
M  V30 6909 C 646.982 1.41144 -4.35709 0
M  V30 6910 N 648.473 1.48024 -4.38911 0
M  V30 6911 C 649.208 1.72338 -5.46889 0
M  V30 6912 N 648.704 1.94303 -6.64995 0
M  V30 6913 N 650.497 1.74294 -5.34395 0
M  V30 6914 H 642.648 -0.371324 -2.09129 0
M  V30 6915 H 644.911 -0.103811 -0.942299 0
M  V30 6916 H 644.617 0.208345 -3.51082 0
M  V30 6917 H 644.491 1.93697 -3.23668 0
M  V30 6918 H 646.878 1.91521 -2.24508 0
M  V30 6919 H 646.959 0.17451 -2.55204 0
M  V30 6920 H 646.603 0.619484 -5.04108 0
M  V30 6921 H 646.533 2.36739 -4.70385 0
M  V30 6922 H 649.024 1.32868 -3.53772 0
M  V30 6923 H 649.337 2.12286 -7.43071 0
M  V30 6924 H 647.682 1.91582 -6.68073 0
M  V30 6925 H 650.873 1.56667 -4.41104 0
M  V30 6926 H 651.046 1.92904 -6.18621 0
M  V30 6927 N 644.452 1.42507 0.673017 0
M  V30 6928 C 645.399 1.46124 1.78651 0
M  V30 6929 C 646.369 0.313007 1.63124 0
M  V30 6930 O 647.554 0.517337 1.83653 0
M  V30 6931 C 644.694 1.3711 3.16694 0
M  V30 6932 C 643.807 2.61983 3.43495 0
M  V30 6933 C 642.942 2.45098 4.71275 0
M  V30 6934 C 641.981 3.65336 4.91117 0
M  V30 6935 N 641.118 3.47383 6.10139 0
M  V30 6936 H 645.958 2.4128 1.74895 0
M  V30 6937 H 643.495 1.19788 0.853766 0
M  V30 6938 H 645.453 1.29881 3.96468 0
M  V30 6939 H 644.083 0.45549 3.1957 0
M  V30 6940 H 643.135 2.79571 2.57961 0
M  V30 6941 H 644.447 3.51355 3.5405 0
M  V30 6942 H 643.601 2.35466 5.59143 0
M  V30 6943 H 642.34 1.53219 4.63007 0
M  V30 6944 H 641.345 3.754 4.0169 0
M  V30 6945 H 642.57 4.58199 5.01229 0
M  V30 6946 H 640.516 2.58222 6.0304 0
M  V30 6947 H 640.433 4.30344 6.21563 0
M  V30 6948 H 641.701 3.41565 7.00681 0
M  V30 6949 N 645.93 -0.909495 1.28709 0
M  V30 6950 C 646.84 -2.04558 1.14861 0
M  V30 6951 C 647.856 -1.73842 0.0741621 0
M  V30 6952 O 649.032 -1.99383 0.2843 0
M  V30 6953 C 646.097 -3.36957 0.816148 0
M  V30 6954 C 645.158 -3.81255 1.97341 0
M  V30 6955 C 644.391 -5.07335 1.65671 0
M  V30 6956 O 644.614 -5.67514 0.573053 0
M  V30 6957 O 643.548 -5.47449 2.50167 0
M  V30 6958 H 647.374 -2.19161 2.10243 0
M  V30 6959 H 644.959 -1.03159 1.08068 0
M  V30 6960 H 646.841 -4.16436 0.644873 0
M  V30 6961 H 645.516 -3.2352 -0.107983 0
M  V30 6962 H 644.423 -3.02584 2.19986 0
M  V30 6963 H 645.756 -3.99261 2.87839 0
M  V30 6964 N 647.408 -1.11026 -1.11852 0
M  V30 6965 C 648.824 -0.843294 -1.35502 0
M  V30 6966 C 649.024 0.534179 -1.9429 0
M  V30 6967 O 648.08 1.28585 -2.17307 0
M  V30 6968 C 649.393 -1.94793 -2.29077 0
M  V30 6969 C 650.941 -1.97709 -2.42652 0
M  V30 6970 C 651.416 -3.07364 -3.39546 0
M  V30 6971 N 652.907 -3.0671 -3.47107 0
M  V30 6972 C 653.642 -3.88197 -4.22008 0
M  V30 6973 N 653.138 -4.79635 -4.99922 0
M  V30 6974 N 654.931 -3.76391 -4.17476 0
M  V30 6975 H 647.082 -1.99805 -0.720538 0
M  V30 6976 H 649.345 -0.868633 -0.379711 0
M  V30 6977 H 649.051 -2.93971 -1.93065 0
M  V30 6978 H 648.925 -1.84039 -3.29256 0
M  V30 6979 H 651.312 -0.991604 -2.77941 0
M  V30 6980 H 651.393 -2.1254 -1.4234 0
M  V30 6981 H 651.037 -4.06136 -3.04985 0
M  V30 6982 H 650.967 -2.89774 -4.39703 0
M  V30 6983 H 653.458 -2.40457 -2.91528 0
M  V30 6984 H 653.771 -5.38357 -5.54429 0
M  V30 6985 H 652.116 -4.8366 -4.99097 0
M  V30 6986 H 655.307 -3.04303 -3.55693 0
M  V30 6987 H 655.48 -4.40131 -4.75593 0
M  V30 6988 N 648.886 1.2938 -0.899927 0
M  V30 6989 C 650.134 1.95164 -0.524924 0
M  V30 6990 C 650.455 1.71292 0.931888 0
M  V30 6991 O 649.725 1.04481 1.65712 0
M  V30 6992 H 648.305 0.722133 -0.191135 0
M  V30 6993 H 650.967 1.57628 -1.14627 0
M  V30 6994 H 650.063 3.0397 -0.707711 0
M  V30 6995 N 650.364 0.662433 1.43002 0
M  V30 6996 C 651.775 0.258315 1.84904 0
M  V30 6997 C 652.126 -1.19703 1.55453 0
M  V30 6998 O 651.251 -1.91484 1.00811 0
M  V30 6999 C 651.846 0.462047 3.35635 0
M  V30 7000 C 650.405 0.112165 3.76233 0
M  V30 7001 C 649.552 0.760479 2.66668 0
M  V30 7002 H 652.503 0.865467 1.33024 0
M  V30 7003 H 652.524 -0.289646 3.79396 0
M  V30 7004 H 652.036 1.52135 3.57039 0
M  V30 7005 H 650.137 -0.944179 3.60439 0
M  V30 7006 H 650.25 0.544058 4.76001 0
M  V30 7007 H 648.614 0.192887 2.53969 0
M  V30 7008 H 649.397 1.82299 2.90898 0
M  V30 7009 N 651.842 -1.52309 0.404946 0
M  V30 7010 C 652.752 -2.30634 -0.429555 0
M  V30 7011 C 653.768 -1.38187 -1.05737 0
M  V30 7012 O 654.944 -1.71261 -1.05979 0
M  V30 7013 C 652.009 -3.10947 -1.53339 0
M  V30 7014 C 651.07 -4.19126 -0.929065 0
M  V30 7015 C 650.303 -4.95601 -1.9803 0
M  V30 7016 O 650.526 -4.72331 -3.1978 0
M  V30 7017 O 649.46 -5.80551 -1.58886 0
M  V30 7018 H 653.286 -3.0298 0.208963 0
M  V30 7019 H 650.871 -1.4845 0.168255 0
M  V30 7020 H 652.753 -3.60974 -2.1743 0
M  V30 7021 H 651.428 -2.41399 -2.15658 0
M  V30 7022 H 650.335 -3.73257 -0.250982 0
M  V30 7023 H 651.668 -4.90955 -0.349855 0
M  V30 7024 N 653.32 -0.135238 -1.57019 0
M  V30 7025 C 654.23 0.822226 -2.19719 0
M  V30 7026 C 655.246 1.28057 -1.17802 0
M  V30 7027 O 656.422 1.3402 -1.50335 0
M  V30 7028 C 653.487 2.0484 -2.79717 0
M  V30 7029 C 652.548 1.64042 -3.96723 0
M  V30 7030 C 651.781 2.80814 -4.53849 0
M  V30 7031 O 652.004 3.967 -4.0986 0
M  V30 7032 O 650.938 2.56963 -5.44292 0
M  V30 7033 H 654.764 0.318552 -3.02025 0
M  V30 7034 H 652.349 0.0912021 -1.49121 0
M  V30 7035 H 654.231 2.76622 -3.17897 0
M  V30 7036 H 652.906 2.54182 -2.00432 0
M  V30 7037 H 651.813 0.893182 -3.63281 0
M  V30 7038 H 653.146 1.19426 -4.77492 0
M  V30 7039 N 654.798 1.5699 0.138552 0
M  V30 7040 C 655.708 2.02174 1.19008 0
M  V30 7041 C 656.724 0.938622 1.46512 0
M  V30 7042 O 657.9 1.24872 1.58016 0
M  V30 7043 C 654.965 2.40045 2.50159 0
M  V30 7044 C 654.026 3.62346 2.30226 0
M  V30 7045 C 653.259 3.98401 3.55123 0
M  V30 7046 O 653.482 3.35019 4.61647 0
M  V30 7047 O 652.416 4.91606 3.47285 0
M  V30 7048 H 656.242 2.91954 0.836452 0
M  V30 7049 H 653.827 1.45293 0.347907 0
M  V30 7050 H 655.709 2.65225 3.27465 0
M  V30 7051 H 654.384 1.53417 2.85035 0
M  V30 7052 H 653.291 3.42341 1.50843 0
M  V30 7053 H 654.624 4.49617 2.00262 0
M  V30 7054 N 656.276 -0.40816 1.52223 0
M  V30 7055 C 657.226 -1.49648 1.72016 0
M  V30 7056 C 658.21 -1.50311 0.574069 0
M  V30 7057 O 659.402 -1.56271 0.831173 0
M  V30 7058 C 656.531 -2.87566 1.87512 0
M  V30 7059 C 655.617 -2.91547 3.07995 0
M  V30 7060 N 656.008 -2.65225 4.30685 0
M  V30 7061 C 654.306 -3.22715 3.07849 0
M  V30 7062 C 655.007 -2.75799 5.12162 0
M  V30 7063 N 653.983 -3.08719 4.4743 0
M  V30 7064 H 657.785 -1.28093 2.64517 0
M  V30 7065 H 655.299 -0.61588 1.50269 0
M  V30 7066 H 657.296 -3.65899 1.99809 0
M  V30 7067 H 655.956 -3.10118 0.962114 0
M  V30 7068 H 656.967 -2.39601 4.59142 0
M  V30 7069 H 653.644 -3.50856 2.26289 0
M  V30 7070 H 655.034 -2.59155 6.1991 0
M  V30 7071 N 657.755 -1.42862 -0.66545 0
M  V30 7072 C 658.685 -1.49867 -1.79059 0
M  V30 7073 C 659.666 -0.354394 -1.66367 0
M  V30 7074 O 660.851 -0.569969 -1.85647 0
M  V30 7075 C 657.981 -1.40943 -3.17415 0
M  V30 7076 C 656.935 -2.53495 -3.44854 0
M  V30 7077 C 656.261 -2.29626 -4.82883 0
M  V30 7078 C 657.561 -3.95781 -3.40815 0
M  V30 7079 H 659.255 -2.44037 -1.73453 0
M  V30 7080 H 656.801 -1.17456 -0.833071 0
M  V30 7081 H 658.754 -1.4445 -3.95869 0
M  V30 7082 H 657.478 -0.432716 -3.23721 0
M  V30 7083 H 656.137 -2.4932 -2.68766 0
M  V30 7084 H 655.785 -1.30226 -4.8585 0
M  V30 7085 H 655.485 -3.05065 -5.02204 0
M  V30 7086 H 657.009 -2.34897 -5.63609 0
M  V30 7087 H 658.423 -4.01508 -4.09224 0
M  V30 7088 H 656.82 -4.71148 -3.71672 0
M  V30 7089 H 657.89 -4.21786 -2.39216 0
M  V30 7090 N 659.233 0.902656 -1.29189 0
M  V30 7091 C 660.481 1.6496 -1.16758 0
M  V30 7092 C 660.802 1.92952 0.28188 0
M  V30 7093 O 660.072 1.55351 1.19344 0
M  V30 7094 H 658.652 0.611447 -0.429118 0
M  V30 7095 H 661.314 1.0825 -1.62074 0
M  V30 7096 H 660.41 2.60728 -1.71544 0
M  V30 7097 N 660.711 1.11618 1.11262 0
M  V30 7098 C 661.96 0.860934 1.82403 0
M  V30 7099 C 662.273 -0.615303 1.8567 0
M  V30 7100 O 663.479 -0.986861 2.52929 0
M  V30 7101 C 661.935 1.49048 3.27586 0
M  V30 7102 C 661.543 3.00089 3.32642 0
M  V30 7103 C 663.287 1.31515 4.03614 0
M  V30 7104 C 661.194 3.56019 4.72234 0
M  V30 7105 H 660.124 0.318423 0.683464 0
M  V30 7106 H 662.775 1.34165 1.25188 0
M  V30 7107 H 661.157 0.937434 3.84744 0
M  V30 7108 H 662.331 3.61813 2.85356 0
M  V30 7109 H 660.646 3.16919 2.70096 0
M  V30 7110 H 663.243 1.70732 5.0671 0
M  V30 7111 H 663.586 0.257917 4.155 0
M  V30 7112 H 664.119 1.83694 3.52848 0
M  V30 7113 H 660.858 4.61463 4.65545 0
M  V30 7114 H 660.378 2.99066 5.19923 0
M  V30 7115 H 662.057 3.54568 5.41193 0
M  V30 7116 N 662.189 -1.289 0.906776 0
M  V30 7117 C 663.119 -2.29932 0.406659 0
M  V30 7118 C 664.1 -1.6189 -0.522061 0
M  V30 7119 O 665.285 -1.8935 -0.431283 0
M  V30 7120 C 662.415 -3.45425 -0.360366 0
M  V30 7121 C 661.369 -4.25316 0.478574 0
M  V30 7122 C 660.695 -5.33076 -0.416373 0
M  V30 7123 C 661.995 -4.92739 1.7322 0
M  V30 7124 H 663.689 -2.72013 1.25097 0
M  V30 7125 H 661.235 -1.30768 0.602977 0
M  V30 7126 H 663.188 -4.15186 -0.721029 0
M  V30 7127 H 661.912 -3.02206 -1.23852 0
M  V30 7128 H 660.571 -3.57273 0.821662 0
M  V30 7129 H 660.219 -4.86101 -1.29287 0
M  V30 7130 H 659.919 -5.8743 0.141309 0
M  V30 7131 H 661.443 -6.05686 -0.773072 0
M  V30 7132 H 662.857 -5.54898 1.44086 0
M  V30 7133 H 661.254 -5.57057 2.23175 0
M  V30 7134 H 662.324 -4.17625 2.46408 0
M  V30 7135 N 663.667 -0.670007 -1.42649 0
M  V30 7136 C 664.915 -0.18991 -2.01206 0
M  V30 7137 C 665.236 1.20617 -1.53221 0
M  V30 7138 O 664.506 1.80898 -0.751856 0
M  V30 7139 H 663.086 -0.0672189 -0.743969 0
M  V30 7140 H 665.748 -0.865442 -1.74631 0
M  V30 7141 H 664.844 -0.187481 -3.11536 0
M  V30 7142 N 665.145 1.52092 -0.413018 0
M  V30 7143 C 666.556 1.86617 0.0556967 0
M  V30 7144 C 666.907 1.33156 1.44097 0
M  V30 7145 O 666.032 0.672417 2.05688 0
M  V30 7146 C 666.627 3.38628 0.107844 0
M  V30 7147 C 665.186 3.72778 0.520904 0
M  V30 7148 C 664.333 2.75649 -0.302109 0
M  V30 7149 H 667.284 1.45663 -0.629919 0
M  V30 7150 H 667.305 3.69152 0.922324 0
M  V30 7151 H 666.817 3.77508 -0.900506 0
M  V30 7152 H 664.918 3.39478 1.53575 0
M  V30 7153 H 665.031 4.7838 0.262591 0
M  V30 7154 H 663.395 2.53603 0.236115 0
M  V30 7155 H 664.178 3.17369 -1.30888 0
M  V30 7156 N 666.623 0.143563 1.56945 0
M  V30 7157 C 667.869 -0.50916 1.96304 0
M  V30 7158 C 668.202 -1.64741 1.0283 0
M  V30 7159 O 667.477 -1.94374 0.0700361 0
M  V30 7160 C 667.76 -1.0186 3.45393 0
M  V30 7161 C 667.613 0.117923 4.49645 0
M  V30 7162 C 668.932 -1.90151 3.96901 0
M  V30 7163 H 666.051 -0.183608 0.713763 0
M  V30 7164 H 668.693 0.224095 1.88674 0
M  V30 7165 H 666.843 -1.64345 3.52027 0
M  V30 7166 H 668.515 0.754145 4.55094 0
M  V30 7167 H 666.758 0.777568 4.26774 0
M  V30 7168 H 667.429 -0.280187 5.51288 0
M  V30 7169 H 669.905 -1.375 3.92725 0
M  V30 7170 H 668.781 -2.22707 5.0169 0
M  V30 7171 H 669.042 -2.83718 3.39052 0
M  V30 7172 N 668.101 -1.57061 -0.130224 0
M  V30 7173 C 669.35 -1.83446 -0.838488 0
M  V30 7174 C 669.663 -0.727468 -1.81569 0
M  V30 7175 O 670.869 -0.877394 -2.56932 0
M  V30 7176 C 669.325 -3.25201 -1.54182 0
M  V30 7177 C 668.933 -4.4388 -0.606178 0
M  V30 7178 C 670.677 -3.60844 -2.23588 0
M  V30 7179 C 668.584 -5.76661 -1.31209 0
M  V30 7180 H 667.514 -0.684185 -0.316871 0
M  V30 7181 H 670.165 -1.83273 -0.0912059 0
M  V30 7182 H 668.547 -3.1981 -2.33533 0
M  V30 7183 H 669.721 -4.60545 0.153308 0
M  V30 7184 H 668.036 -4.16395 -0.0196705 0
M  V30 7185 H 670.633 -4.57313 -2.77072 0
M  V30 7186 H 670.976 -2.87724 -3.00867 0
M  V30 7187 H 671.509 -3.67971 -1.51137 0
M  V30 7188 H 668.248 -6.52922 -0.580823 0
M  V30 7189 H 667.768 -5.63902 -2.04387 0
M  V30 7190 H 669.447 -6.20035 -1.8484 0
M  V30 7191 N 669.579 0.400081 -1.52437 0
M  V30 7192 C 670.825 1.14456 -1.68141 0
M  V30 7193 C 671.18 1.87965 -0.410722 0
M  V30 7194 O 670.473 1.82121 0.595195 0
M  V30 7195 C 670.667 2.15914 -2.84808 0
M  V30 7196 C 670.496 1.5237 -4.231 0
M  V30 7197 C 669.266 1.29252 -4.8849 0
M  V30 7198 C 671.464 0.979722 -5.04882 0
M  V30 7199 N 669.446 0.616955 -6.10792 0
M  V30 7200 C 670.817 0.43159 -6.18496 0
M  V30 7201 C 672.872 0.875059 -4.9015 0
M  V30 7202 C 671.575 -0.210958 -7.18991 0
M  V30 7203 C 673.601 0.246351 -5.90887 0
M  V30 7204 C 672.963 -0.291062 -7.03798 0
M  V30 7205 H 669.062 0.405181 -0.668844 0
M  V30 7206 H 671.646 0.435655 -1.89763 0
M  V30 7207 H 669.817 2.84154 -2.64785 0
M  V30 7208 H 671.549 2.8279 -2.89503 0
M  V30 7209 H 668.304 1.56451 -4.47012 0
M  V30 7210 H 668.728 0.295536 -6.76355 0
M  V30 7211 H 673.37 1.27636 -4.03074 0
M  V30 7212 H 671.088 -0.6243 -8.05685 0
M  V30 7213 H 674.674 0.166765 -5.81561 0
M  V30 7214 H 673.554 -0.76988 -7.80412 0
M  V30 7215 N 671.057 1.43213 0.657864 0
M  V30 7216 C 672.02 1.47687 1.75275 0
M  V30 7217 C 673.02 0.362179 1.56668 0
M  V30 7218 O 674.21 0.623734 1.62651 0
M  V30 7219 C 671.342 1.32497 3.14098 0
M  V30 7220 H 672.535 2.4519 1.7269 0
M  V30 7221 H 670.088 1.2991 0.869087 0
M  V30 7222 H 670.823 0.359831 3.22298 0
M  V30 7223 H 670.608 2.13299 3.29008 0
M  V30 7224 H 672.098 1.38549 3.93946 0
M  V30 7225 N 672.536 -0.895792 1.29666 0
M  V30 7226 C 673.446 -2.03329 1.17024 0
M  V30 7227 C 674.462 -1.73753 0.0925962 0
M  V30 7228 O 675.638 -1.99071 0.305431 0
M  V30 7229 C 672.703 -3.36072 0.851841 0
M  V30 7230 C 671.764 -3.7914 2.01373 0
M  V30 7231 C 670.997 -5.05549 1.71043 0
M  V30 7232 O 671.22 -5.66874 0.633213 0
M  V30 7233 O 670.154 -5.44764 2.5596 0
M  V30 7234 H 673.98 -2.16918 2.12556 0
M  V30 7235 H 671.565 -1.02007 1.09156 0
M  V30 7236 H 673.447 -4.15729 0.689006 0
M  V30 7237 H 672.122 -3.23616 -0.0736634 0
M  V30 7238 H 671.029 -3.00233 2.23183 0
M  V30 7239 H 672.362 -3.96186 2.92058 0
M  V30 7240 N 674.014 -1.12206 -1.10668 0
M  V30 7241 C 675.26 -0.877172 -1.82848 0
M  V30 7242 C 675.593 0.595571 -1.84842 0
M  V30 7243 O 674.868 1.44013 -1.30731 0
M  V30 7244 C 675.151 -1.44957 -3.29635 0
M  V30 7245 C 675.004 -2.99051 -3.35989 0
M  V30 7246 C 676.323 -1.10714 -4.25946 0
M  V30 7247 H 673.442 -0.320103 -0.663854 0
M  V30 7248 H 676.084 -1.38827 -1.2972 0
M  V30 7249 H 674.234 -1.01488 -3.7501 0
M  V30 7250 H 675.906 -3.51182 -2.99113 0
M  V30 7251 H 674.149 -3.34705 -2.75962 0
M  V30 7252 H 674.82 -3.34194 -4.39339 0
M  V30 7253 H 677.296 -1.48254 -3.88793 0
M  V30 7254 H 676.172 -1.5343 -5.2702 0
M  V30 7255 H 676.433 -0.019 -4.42096 0
M  V30 7256 N 675.492 1.28418 -0.913599 0
M  V30 7257 C 676.74 1.94596 -0.545594 0
M  V30 7258 C 677.061 1.7227 0.913668 0
M  V30 7259 O 676.331 1.06233 1.64595 0
M  V30 7260 H 674.911 0.720065 -0.198783 0
M  V30 7261 H 677.573 1.56404 -1.16292 0
M  V30 7262 H 676.669 3.03202 -0.739911 0
M  V30 7263 N 676.97 0.677563 1.42291 0
M  V30 7264 C 678.247 0.129803 1.95169 0
M  V30 7265 C 678.627 -1.35605 1.61786 0
M  V30 7266 O 677.975 -2.09361 0.915444 0
M  V30 7267 C 678.185 0.401889 3.46678 0
M  V30 7268 C 679.533 0.319889 4.23393 0
M  V30 7269 O 680.557 0.33579 3.54614 0
M  V30 7270 O 679.416 0.264459 5.4586 0
M  V30 7271 H 676.51 0.00447433 0.826988 0
M  V30 7272 H 679.056 0.752483 1.52105 0
M  V30 7273 H 677.828 1.43108 3.64192 0
M  V30 7274 H 677.451 -0.252662 3.96796 0
M  V30 7275 N 678.448 -1.51871 0.421078 0
M  V30 7276 C 679.676 -2.06356 -0.14994 0
M  V30 7277 C 680.091 -1.29006 -1.37851 0
M  V30 7278 O 679.448 -0.345139 -1.79207 0
M  V30 7279 C 679.499 -3.58185 -0.488454 0
M  V30 7280 O 679.22 -4.32611 0.691341 0
M  V30 7281 C 680.721 -4.29129 -1.11191 0
M  V30 7282 H 677.941 -0.67083 -0.0151186 0
M  V30 7283 H 680.485 -1.95638 0.595476 0
M  V30 7284 H 678.64 -3.68871 -1.18376 0
M  V30 7285 H 679.054 -5.22927 0.405906 0
M  V30 7286 H 680.528 -5.36501 -1.29889 0
M  V30 7287 H 681.005 -3.86371 -2.0884 0
M  V30 7288 H 681.611 -4.22843 -0.456458 0
M  V30 7289 N 679.926 -0.151884 -1.56866 0
M  V30 7290 C 681.175 0.497992 -1.95456 0
M  V30 7291 C 681.488 1.6569 -1.03953 0
M  V30 7292 O 682.694 2.37173 -1.32142 0
M  V30 7293 C 681.15 0.93732 -3.4748 0
M  V30 7294 C 680.758 -0.194921 -4.47576 0
M  V30 7295 C 682.502 1.55671 -3.94926 0
M  V30 7296 C 680.409 0.26295 -5.90815 0
M  V30 7297 H 679.339 0.189811 -0.729717 0
M  V30 7298 H 681.99 -0.237011 -1.81963 0
M  V30 7299 H 680.372 1.72773 -3.56322 0
M  V30 7300 H 681.546 -0.971951 -4.50433 0
M  V30 7301 H 679.861 -0.72303 -4.10075 0
M  V30 7302 H 682.458 1.91099 -4.99385 0
M  V30 7303 H 682.801 2.44748 -3.36755 0
M  V30 7304 H 683.334 0.831109 -3.89021 0
M  V30 7305 H 680.073 -0.592568 -6.52816 0
M  V30 7306 H 679.593 1.00575 -5.91308 0
M  V30 7307 H 681.272 0.713333 -6.43056 0
M  V30 7308 N 681.404 1.57128 0.121893 0
M  V30 7309 C 682.82 1.52357 0.47534 0
M  V30 7310 C 683.02 0.864417 1.82017 0
M  V30 7311 O 682.076 0.445529 2.48538 0
M  V30 7312 C 683.389 2.97122 0.4625 0
M  V30 7313 C 684.937 3.08196 0.546255 0
M  V30 7314 C 685.412 4.54516 0.563833 0
M  V30 7315 N 686.903 4.58959 0.625353 0
M  V30 7316 C 687.638 5.69585 0.660354 0
M  V30 7317 N 687.134 6.89714 0.653175 0
M  V30 7318 N 688.927 5.57685 0.703143 0
M  V30 7319 H 681.078 1.98364 -0.75931 0
M  V30 7320 H 683.341 0.905777 -0.279772 0
M  V30 7321 H 683.047 3.48706 -0.457943 0
M  V30 7322 H 682.921 3.54406 1.29136 0
M  V30 7323 H 685.308 2.56617 1.45712 0
M  V30 7324 H 685.389 2.53912 -0.310234 0
M  V30 7325 H 685.033 5.06741 -0.342974 0
M  V30 7326 H 684.963 5.06609 1.43716 0
M  V30 7327 H 687.454 3.72489 0.637182 0
M  V30 7328 H 687.767 7.69781 0.682425 0
M  V30 7329 H 686.112 6.92223 0.620646 0
M  V30 7330 H 689.303 4.62744 0.706095 0
M  V30 7331 H 689.476 6.43909 0.726952 0
M  V30 7332 N 682.882 -0.391992 1.52647 0
M  V30 7333 C 684.128 -1.139 1.67793 0
M  V30 7334 C 684.461 -1.89711 0.41514 0
M  V30 7335 O 683.736 -1.85431 -0.586979 0
M  V30 7336 C 684.019 -2.11966 2.91105 0
M  V30 7337 C 683.872 -1.39939 4.27478 0
M  V30 7338 C 685.191 -3.1243 3.09961 0
M  V30 7339 H 682.31 -0.412707 0.610608 0
M  V30 7340 H 684.952 -0.422725 1.85238 0
M  V30 7341 H 683.102 -2.73048 2.76364 0
M  V30 7342 H 684.774 -0.818439 4.53982 0
M  V30 7343 H 683.017 -0.701246 4.28095 0
M  V30 7344 H 683.688 -2.1158 5.09841 0
M  V30 7345 H 686.164 -2.61435 3.23714 0
M  V30 7346 H 685.04 -3.78294 3.97725 0
M  V30 7347 H 685.301 -3.81127 2.24042 0
M  V30 7348 N 684.36 -1.4356 -0.65026 0
M  V30 7349 C 685.588 -1.48779 -1.43779 0
M  V30 7350 C 686.003 -0.106593 -1.88499 0
M  V30 7351 O 685.36 0.883766 -1.59674 0
M  V30 7352 C 685.411 -2.43618 -2.67081 0
M  V30 7353 O 685.132 -3.76367 -2.24231 0
M  V30 7354 C 686.633 -2.5811 -3.60409 0
M  V30 7355 H 683.853 -0.50521 -0.441593 0
M  V30 7356 H 686.397 -1.88332 -0.796941 0
M  V30 7357 H 684.552 -2.07253 -3.273 0
M  V30 7358 H 684.966 -4.27394 -3.0403 0
M  V30 7359 H 686.44 -3.28539 -4.43583 0
M  V30 7360 H 686.917 -1.627 -4.07953 0
M  V30 7361 H 687.523 -2.95298 -3.0607 0
M  V30 7362 N 685.838 0.888903 -1.30139 0
M  V30 7363 C 687.085 1.64037 -1.18736 0
M  V30 7364 C 687.413 1.92771 0.258801 0
M  V30 7365 O 686.668 1.54427 1.20212 0
M  V30 7366 C 686.967 2.99041 -1.95728 0
M  V30 7367 C 686.633 2.89874 -3.45375 0
M  V30 7368 C 685.295 2.87082 -3.86183 0
M  V30 7369 C 687.647 2.78289 -4.40687 0
M  V30 7370 C 684.975 2.70536 -5.20603 0
M  V30 7371 C 687.327 2.63282 -5.75209 0
M  V30 7372 C 685.991 2.58861 -6.15262 0
M  V30 7373 H 685.261 0.600253 -0.434485 0
M  V30 7374 H 687.908 1.0338 -1.61198 0
M  V30 7375 H 686.213 3.63626 -1.45888 0
M  V30 7376 H 687.91 3.56139 -1.843 0
M  V30 7377 H 684.5 2.92856 -3.12943 0
M  V30 7378 H 688.684 2.79516 -4.10103 0
M  V30 7379 H 683.94 2.65526 -5.50732 0
M  V30 7380 H 688.114 2.5329 -6.48704 0
M  V30 7381 H 685.741 2.45799 -7.19366 0
M  V30 7382 N 687.317 1.12792 1.10072 0
M  V30 7383 C 688.267 0.768086 2.14673 0
M  V30 7384 C 689.251 -0.234716 1.59179 0
M  V30 7385 O 690.443 -0.039643 1.76956 0
M  V30 7386 C 687.572 0.228472 3.42539 0
M  V30 7387 C 686.658 1.25979 4.04957 0
M  V30 7388 N 687.049 2.4586 4.42025 0
M  V30 7389 C 685.347 1.10602 4.32069 0
M  V30 7390 C 686.048 3.11747 4.9111 0
M  V30 7391 N 685.024 2.39185 4.88151 0
M  V30 7392 H 688.826 1.68029 2.4113 0
M  V30 7393 H 686.34 1.00925 1.27232 0
M  V30 7394 H 688.337 -0.0475216 4.16873 0
M  V30 7395 H 686.997 -0.678136 3.1754 0
M  V30 7396 H 688.008 2.83215 4.33601 0
M  V30 7397 H 684.685 0.257021 4.16708 0
M  V30 7398 H 686.075 4.13862 5.29309 0
M  V30 7399 N 688.795 -1.27931 0.920396 0
M  V30 7400 C 689.743 -2.29061 0.404191 0
M  V30 7401 C 690.737 -1.61615 -0.507634 0
M  V30 7402 O 691.943 -1.75765 -0.388144 0
M  V30 7403 H 688.318 -0.743594 0.112123 0
M  V30 7404 H 690.289 -2.70021 1.27008 0
M  V30 7405 C 689.038 -3.46088 -0.334466 0
M  V30 7406 H 688.361 -3.98194 0.35797 0
M  V30 7407 H 689.801 -4.18829 -0.660196 0
M  V30 7408 C 688.26 -2.99396 -1.54479 0
M  V30 7409 O 688.79 -3.02439 -2.64374 0
M  V30 7410 N 686.996 -2.54978 -1.39408 0
M  V30 7411 H 686.543 -2.52701 -0.500009 0
M  V30 7412 H 686.501 -2.24098 -2.20516 0
M  V30 7413 N 690.273 -0.685099 -1.4193 0
M  V30 7414 C 691.22 -0.0131869 -2.30796 0
M  V30 7415 C 692.19 0.782129 -1.46533 0
M  V30 7416 O 693.375 0.75229 -1.75343 0
M  V30 7417 C 690.515 0.924768 -3.32479 0
M  V30 7418 C 689.628 0.122181 -4.31827 0
M  V30 7419 C 688.763 1.05682 -5.20581 0
M  V30 7420 C 687.802 0.246526 -6.11603 0
M  V30 7421 N 686.939 1.13442 -6.92875 0
M  V30 7422 H 691.779 -0.776789 -2.87698 0
M  V30 7423 H 689.316 -0.394791 -1.41703 0
M  V30 7424 H 691.274 1.48251 -3.89971 0
M  V30 7425 H 689.904 1.65488 -2.77152 0
M  V30 7426 H 688.956 -0.552335 -3.76369 0
M  V30 7427 H 690.268 -0.506473 -4.96222 0
M  V30 7428 H 689.422 1.68415 -5.82856 0
M  V30 7429 H 688.161 1.71935 -4.56388 0
M  V30 7430 H 687.166 -0.393944 -5.48387 0
M  V30 7431 H 688.391 -0.412053 -6.77849 0
M  V30 7432 H 686.337 1.78316 -6.313 0
M  V30 7433 H 686.254 0.561089 -7.53915 0
M  V30 7434 H 687.522 1.74889 -7.59628 0
M  V30 7435 N 691.751 1.51645 -0.429126 0
M  V30 7436 C 692.999 2.01616 0.139802 0
M  V30 7437 C 693.32 1.31568 1.43927 0
M  V30 7438 O 692.59 0.447688 1.90716 0
M  V30 7439 H 691.17 0.744998 0.054654 0
M  V30 7440 H 693.832 1.8638 -0.569952 0
M  V30 7441 H 692.928 3.10439 0.321609 0
M  V30 7442 N 693.229 0.160201 1.56784 0
M  V30 7443 C 694.192 -0.760405 2.16219 0
M  V30 7444 C 695.192 -1.16595 1.10735 0
M  V30 7445 O 696.382 -1.08472 1.36306 0
M  V30 7446 C 693.514 -2.03358 2.73603 0
M  V30 7447 H 694.707 -0.243173 2.98912 0
M  V30 7448 H 692.26 -0.0893139 1.56045 0
M  V30 7449 H 692.995 -2.59416 1.94612 0
M  V30 7450 H 692.78 -1.75186 3.50788 0
M  V30 7451 H 694.27 -2.69081 3.19351 0
M  V30 7452 N 694.707 -1.5719 -0.113559 0
M  V30 7453 C 695.937 -1.89053 -0.833212 0
M  V30 7454 C 696.345 -0.750139 -1.73694 0
M  V30 7455 O 695.688 0.287808 -1.81431 0
M  V30 7456 C 695.75 -3.15986 -1.71443 0
M  V30 7457 C 695.414 -4.46271 -0.984449 0
M  V30 7458 C 696.411 -5.18897 -0.322741 0
M  V30 7459 C 694.096 -4.92963 -0.964011 0
M  V30 7460 C 696.09 -6.3644 0.349646 0
M  V30 7461 C 693.777 -6.10422 -0.287828 0
M  V30 7462 C 694.775 -6.82009 0.36784 0
M  V30 7463 O 694.463 -7.97233 1.03322 0
M  V30 7464 H 694.195 -0.630225 -0.244526 0
M  V30 7465 H 696.749 -2.05152 -0.100847 0
M  V30 7466 H 694.979 -2.95984 -2.48858 0
M  V30 7467 H 696.668 -3.33826 -2.309 0
M  V30 7468 H 697.434 -4.83875 -0.330114 0
M  V30 7469 H 693.313 -4.37143 -1.46379 0
M  V30 7470 H 696.857 -6.92254 0.861996 0
M  V30 7471 H 692.754 -6.449 -0.278237 0
M  V30 7472 H 693.522 -8.13105 0.938247 0
M  V30 7473 N 696.185 0.383891 -1.52853 0
M  V30 7474 C 697.596 0.961591 -1.60032 0
M  V30 7475 C 697.947 1.90819 -0.456333 0
M  V30 7476 O 697.072 2.12288 0.419873 0
M  V30 7477 C 697.667 1.75078 -2.90057 0
M  V30 7478 C 696.226 2.2781 -2.99632 0
M  V30 7479 C 695.373 1.08512 -2.55187 0
M  V30 7480 H 698.324 0.163269 -1.57858 0
M  V30 7481 H 698.345 2.61046 -2.7683 0
M  V30 7482 H 697.857 1.06157 -3.73299 0
M  V30 7483 H 695.958 3.00028 -2.20939 0
M  V30 7484 H 696.071 2.56947 -4.0437 0
M  V30 7485 H 694.435 1.44667 -2.09627 0
M  V30 7486 H 695.218 0.41118 -3.40829 0
M  V30 7487 N 697.663 1.43903 0.642637 0
M  V30 7488 C 698.593 1.52697 1.76652 0
M  V30 7489 C 699.574 0.380816 1.65782 0
M  V30 7490 O 700.759 0.599432 1.84717 0
M  V30 7491 C 697.889 1.45975 3.15133 0
M  V30 7492 C 696.843 2.58949 3.40778 0
M  V30 7493 C 696.169 2.37279 4.79169 0
M  V30 7494 C 697.469 4.01153 3.34475 0
M  V30 7495 H 699.163 2.46766 1.69549 0
M  V30 7496 H 696.709 1.18767 0.814279 0
M  V30 7497 H 698.662 1.5073 3.93521 0
M  V30 7498 H 697.386 0.484162 3.22991 0
M  V30 7499 H 696.045 2.53564 2.64765 0
M  V30 7500 H 695.693 1.37939 4.83717 0
M  V30 7501 H 695.393 3.13016 4.97287 0
M  V30 7502 H 696.917 2.43834 5.59801 0
M  V30 7503 H 698.331 4.07968 4.02784 0
M  V30 7504 H 696.728 4.77001 3.64129 0
M  V30 7505 H 697.798 4.25539 2.32475 0
M  V30 7506 N 699.141 -0.881989 1.30609 0
M  V30 7507 C 700.366 -1.67236 1.22665 0
M  V30 7508 C 700.791 -1.8696 -0.206777 0
M  V30 7509 O 700.149 -1.4027 -1.14865 0
M  V30 7510 C 700.197 -3.02446 1.96363 0
M  V30 7511 O 699.301 -3.91614 1.29276 0
M  V30 7512 H 698.642 -0.510902 0.424117 0
M  V30 7513 H 701.172 -1.10055 1.72479 0
M  V30 7514 H 701.182 -3.52468 2.055 0
M  V30 7515 H 699.857 -2.8741 3.00613 0
M  V30 7516 H 698.434 -3.50055 1.28514 0
M  V30 7517 N 700.619 -1.13374 -1.09472 0
M  V30 7518 C 701.868 -0.889844 -1.8101 0
M  V30 7519 C 702.181 0.585686 -1.86625 0
M  V30 7520 O 703.387 0.946497 -2.54467 0
M  V30 7521 C 701.843 -1.54241 -3.25174 0
M  V30 7522 C 701.451 -3.05343 -3.27826 0
M  V30 7523 C 703.195 -1.37919 -4.0147 0
M  V30 7524 C 701.102 -3.63486 -4.6651 0
M  V30 7525 H 700.032 -0.329256 -0.678311 0
M  V30 7526 H 702.683 -1.36139 -1.23038 0
M  V30 7527 H 701.065 -0.998525 -3.83204 0
M  V30 7528 H 702.239 -3.66307 -2.79563 0
M  V30 7529 H 700.554 -3.21175 -2.65019 0
M  V30 7530 H 703.151 -1.78771 -5.03929 0
M  V30 7531 H 703.494 -0.323987 -4.15037 0
M  V30 7532 H 704.027 -1.89284 -3.49881 0
M  V30 7533 H 700.766 -4.68811 -4.58145 0
M  V30 7534 H 700.286 -3.073 -5.15099 0
M  V30 7535 H 701.965 -3.63134 -5.35484 0
M  V30 7536 N 702.098 1.27442 -0.927168 0
M  V30 7537 C 703.008 2.30599 -0.431448 0
M  V30 7538 C 704.024 1.67028 0.48761 0
M  V30 7539 O 705.2 1.97962 0.370546 0
M  V30 7540 C 702.265 3.45327 0.308292 0
M  V30 7541 C 701.326 4.24418 -0.645615 0
M  V30 7542 C 700.559 5.33667 0.0589164 0
M  V30 7543 O 700.782 5.5589 1.27838 0
M  V30 7544 O 699.716 5.98774 -0.612638 0
M  V30 7545 H 703.542 2.75036 -1.28797 0
M  V30 7546 H 701.127 1.32382 -0.692495 0
M  V30 7547 H 703.009 4.15107 0.725555 0
M  V30 7548 H 701.684 3.02945 1.14043 0
M  V30 7549 H 700.591 3.57174 -1.11255 0
M  V30 7550 H 701.924 4.70512 -1.44496 0
M  V30 7551 N 703.576 0.692616 1.41565 0
M  V30 7552 C 704.987 0.297478 1.84315 0
M  V30 7553 C 705.338 -1.16379 1.57957 0
M  V30 7554 O 704.463 -1.89303 1.0485 0
M  V30 7555 C 705.058 0.533136 3.34579 0
M  V30 7556 C 703.617 0.191944 3.7591 0
M  V30 7557 C 702.764 0.816873 2.64995 0
M  V30 7558 H 705.715 0.893488 1.31158 0
M  V30 7559 H 705.736 -0.209105 3.79925 0
M  V30 7560 H 705.248 1.59674 3.53731 0
M  V30 7561 H 703.349 -0.867512 3.6236 0
M  V30 7562 H 703.462 0.644902 4.7474 0
M  V30 7563 H 701.826 0.246715 2.53502 0
M  V30 7564 H 702.609 1.88429 2.86966 0
M  V30 7565 N 705.054 -1.51416 0.437162 0
M  V30 7566 C 706.303 -2.01275 -0.130865 0
M  V30 7567 C 706.616 -1.32593 -1.438 0
M  V30 7568 O 707.822 -1.7342 -2.08897 0
M  V30 7569 C 706.278 -3.5878 -0.283763 0
M  V30 7570 C 705.886 -4.36399 1.01293 0
M  V30 7571 C 707.63 -4.16786 -0.805569 0
M  V30 7572 C 705.537 -5.85608 0.825687 0
M  V30 7573 H 704.467 -0.752157 -0.0526818 0
M  V30 7574 H 707.118 -1.74524 0.566896 0
M  V30 7575 H 705.5 -3.81976 -1.04452 0
M  V30 7576 H 706.674 -4.24948 1.78201 0
M  V30 7577 H 704.989 -3.89843 1.46326 0
M  V30 7578 H 707.586 -5.25972 -0.962146 0
M  V30 7579 H 707.929 -3.75949 -1.78796 0
M  V30 7580 H 708.462 -3.97666 -0.103125 0
M  V30 7581 H 705.201 -6.30857 1.78045 0
M  V30 7582 H 704.721 -5.99723 0.0964029 0
M  V30 7583 H 706.4 -6.45226 0.478815 0
M  V30 7584 N 706.532 -0.168513 -1.56696 0
M  V30 7585 C 707.78 0.476216 -1.96409 0
M  V30 7586 C 708.101 1.63968 -1.05544 0
M  V30 7587 O 707.371 1.95525 -0.121235 0
M  V30 7588 H 705.951 0.178921 -0.725256 0
M  V30 7589 H 708.613 -0.249042 -1.93302 0
M  V30 7590 H 707.709 0.838094 -3.00637 0
M  V30 7591 N 708.01 1.57248 0.105221 0
M  V30 7592 C 709.256 1.85845 0.811753 0
M  V30 7593 C 709.589 0.756219 1.78871 0
M  V30 7594 O 708.864 -0.236736 1.93054 0
M  V30 7595 C 709.147 3.25059 1.54947 0
M  V30 7596 C 709 4.45898 0.591185 0
M  V30 7597 C 710.319 3.6203 2.50245 0
M  V30 7598 H 707.438 0.675973 0.293649 0
M  V30 7599 H 710.08 1.89849 0.0756269 0
M  V30 7600 H 708.23 3.21776 2.17698 0
M  V30 7601 H 709.902 4.61291 -0.0285352 0
M  V30 7602 H 708.145 4.33693 -0.0962343 0
M  V30 7603 H 708.816 5.40009 1.1443 0
M  V30 7604 H 711.292 3.66192 1.97593 0
M  V30 7605 H 710.168 4.60389 2.98886 0
M  V30 7606 H 710.429 2.90176 3.33542 0
M  V30 7607 N 709.488 -0.375779 1.53054 0
M  V30 7608 C 710.904 -0.716764 1.426 0
M  V30 7609 C 711.104 -1.93651 0.556931 0
M  V30 7610 O 710.16 -2.52475 0.0354461 0
M  V30 7611 C 711.473 -0.939499 2.85646 0
M  V30 7612 C 713.021 -1.04015 2.95212 0
M  V30 7613 C 713.496 -1.29543 4.39298 0
M  V30 7614 N 714.987 -1.36335 4.42682 0
M  V30 7615 C 715.722 -1.57778 5.51266 0
M  V30 7616 N 715.218 -1.76604 6.69913 0
M  V30 7617 N 717.011 -1.60065 5.38828 0
M  V30 7618 H 709.162 0.42664 2.08071 0
M  V30 7619 H 711.425 0.128758 0.939215 0
M  V30 7620 H 711.131 -0.115189 3.51511 0
M  V30 7621 H 711.005 -1.85048 3.2869 0
M  V30 7622 H 713.392 -1.85501 2.29507 0
M  V30 7623 H 713.473 -0.106785 2.55577 0
M  V30 7624 H 713.117 -0.485611 5.05573 0
M  V30 7625 H 713.047 -2.24184 4.76497 0
M  V30 7626 H 715.538 -1.23441 3.5717 0
M  V30 7627 H 715.851 -1.9251 7.48438 0
M  V30 7628 H 714.196 -1.73802 6.72917 0
M  V30 7629 H 717.387 -1.44917 4.45103 0
M  V30 7630 H 717.56 -1.76435 6.23518 0
M  V30 7631 N 710.966 -1.44241 -0.634997 0
M  V30 7632 C 712.213 -1.46821 -1.39463 0
M  V30 7633 C 712.541 -0.0993362 -1.94246 0
M  V30 7634 O 711.796 0.898325 -1.73864 0
M  V30 7635 C 712.095 -2.47279 -2.58046 0
M  V30 7636 C 711.761 -3.92703 -2.21574 0
M  V30 7637 C 710.423 -4.32306 -2.1134 0
M  V30 7638 C 712.775 -4.84271 -1.92695 0
M  V30 7639 C 710.103 -5.61407 -1.70409 0
M  V30 7640 C 712.455 -6.13755 -1.53258 0
M  V30 7641 C 711.119 -6.52316 -1.41562 0
M  V30 7642 H 710.389 -0.537256 -0.51033 0
M  V30 7643 H 713.036 -1.77431 -0.720441 0
M  V30 7644 H 711.341 -2.10138 -3.3068 0
M  V30 7645 H 713.038 -2.46523 -3.16271 0
M  V30 7646 H 709.628 -3.61369 -2.30456 0
M  V30 7647 H 713.812 -4.54432 -1.99513 0
M  V30 7648 H 709.068 -5.90105 -1.59955 0
M  V30 7649 H 713.242 -6.84168 -1.29949 0
M  V30 7650 H 710.869 -7.52255 -1.09619 0
M  V30 7651 N 712.444 0.87505 -1.31075 0
M  V30 7652 C 713.392 2.00317 -1.18219 0
M  V30 7653 C 714.386 1.69152 -0.0916872 0
M  V30 7654 O 715.592 1.7821 -0.253229 0
M  V30 7655 H 711.967 0.656981 -0.365895 0
M  V30 7656 H 713.938 2.08293 -2.13674 0
M  V30 7657 C 712.687 3.35821 -0.901095 0
M  V30 7658 H 712.01 3.6032 -1.73233 0
M  V30 7659 H 713.45 4.15366 -0.851295 0
M  V30 7660 C 711.909 3.34563 0.396114 0
M  V30 7661 O 712.439 3.75971 1.41452 0
M  V30 7662 N 710.645 2.87681 0.410832 0
M  V30 7663 H 710.192 2.54179 -0.418415 0
M  V30 7664 H 710.15 2.87223 1.27869 0
M  V30 7665 N 713.922 1.13953 1.08869 0
M  V30 7666 C 714.869 0.82213 2.15661 0
M  V30 7667 C 715.839 -0.218274 1.6466 0
M  V30 7668 O 717.024 -0.0892475 1.90591 0
M  V30 7669 C 714.164 0.300572 3.43789 0
M  V30 7670 C 713.277 1.40071 4.08661 0
M  V30 7671 C 712.412 0.836897 5.24566 0
M  V30 7672 C 711.451 1.91504 5.81371 0
M  V30 7673 N 710.588 1.36875 6.88629 0
M  V30 7674 H 715.428 1.73683 2.42153 0
M  V30 7675 H 712.965 0.866879 1.18843 0
M  V30 7676 H 714.923 -0.0199943 4.17195 0
M  V30 7677 H 713.553 -0.577248 3.17597 0
M  V30 7678 H 712.605 1.83776 3.33062 0
M  V30 7679 H 713.917 2.21534 4.46905 0
M  V30 7680 H 713.071 0.467953 6.04893 0
M  V30 7681 H 711.81 -0.00874207 4.87699 0
M  V30 7682 H 710.815 2.29299 4.99702 0
M  V30 7683 H 712.04 2.76419 6.20298 0
M  V30 7684 H 709.986 0.545211 6.5373 0
M  V30 7685 H 709.903 2.1198 7.25672 0
M  V30 7686 H 711.171 1.02756 7.72698 0
M  V30 7687 N 715.4 -1.26948 0.933913 0
M  V30 7688 C 716.348 -2.2862 0.428463 0
M  V30 7689 C 717.342 -1.62144 -0.490464 0
M  V30 7690 O 718.548 -1.76167 -0.36948 0
M  V30 7691 H 714.923 -0.742363 0.120003 0
M  V30 7692 H 716.894 -2.68659 1.29865 0
M  V30 7693 C 715.643 -3.46423 -0.29774 0
M  V30 7694 H 714.966 -3.97792 0.400183 0
M  V30 7695 H 716.406 -4.19505 -0.615736 0
M  V30 7696 C 714.865 -3.01017 -1.51295 0
M  V30 7697 O 715.395 -3.05226 -2.61151 0
M  V30 7698 N 713.601 -2.56442 -1.36696 0
M  V30 7699 H 713.148 -2.53217 -0.473178 0
M  V30 7700 H 713.106 -2.26424 -2.18127 0
M  V30 7701 N 716.879 -0.700114 -1.41195 0
M  V30 7702 C 717.827 -0.0263301 -2.32585 0
M  V30 7703 C 718.821 0.763683 -1.51209 0
M  V30 7704 O 720.027 0.668793 -1.67114 0
M  V30 7705 H 716.402 0.0102869 -0.75193 0
M  V30 7706 H 718.373 -0.814087 -2.8708 0
M  V30 7707 C 717.122 0.892793 -3.36042 0
M  V30 7708 H 716.445 0.294306 -3.98715 0
M  V30 7709 H 717.885 1.33247 -4.02518 0
M  V30 7710 C 716.344 2.01109 -2.7029 0
M  V30 7711 O 716.874 3.10035 -2.55423 0
M  V30 7712 N 715.08 1.79015 -2.28915 0
M  V30 7713 H 714.627 0.904275 -2.41207 0
M  V30 7714 H 714.585 2.54022 -1.85257 0
M  V30 7715 N 718.357 1.51182 -0.445186 0
M  V30 7716 C 719.267 2.31692 0.368255 0
M  V30 7717 C 720.283 1.40942 1.02036 0
M  V30 7718 O 721.459 1.74011 1.01401 0
M  V30 7719 C 718.524 3.14903 1.45041 0
M  V30 7720 C 717.585 4.21442 0.817615 0
M  V30 7721 C 716.818 5.00677 1.8482 0
M  V30 7722 O 717.041 4.80644 3.07145 0
M  V30 7723 O 715.975 5.84559 1.43438 0
M  V30 7724 H 719.801 3.0232 -0.289219 0
M  V30 7725 H 717.386 1.47951 -0.207555 0
M  V30 7726 H 719.268 3.66612 2.07783 0
M  V30 7727 H 717.943 2.47031 2.09182 0
M  V30 7728 H 716.85 3.73791 0.151931 0
M  V30 7729 H 718.183 4.9171 0.219564 0
M  V30 7730 N 719.835 0.176821 1.56605 0
M  V30 7731 C 721.083 -0.465793 1.96659 0
M  V30 7732 C 721.404 -1.63406 1.06412 0
M  V30 7733 O 720.674 -1.95457 0.131603 0
M  V30 7734 H 719.254 -0.175072 0.726195 0
M  V30 7735 H 721.916 0.25929 1.93168 0
M  V30 7736 H 721.012 -0.822138 3.01077 0
M  V30 7737 N 721.313 -1.57302 -0.09688 0
M  V30 7738 C 722.541 -1.90202 -0.814295 0
M  V30 7739 C 722.956 -0.770344 -1.72369 0
M  V30 7740 O 722.313 0.257764 -1.8067 0
M  V30 7741 C 722.364 -3.22708 -1.62916 0
M  V30 7742 O 722.085 -4.31522 -0.756343 0
M  V30 7743 C 723.586 -3.69459 -2.44979 0
M  V30 7744 H 720.806 -0.629275 -0.232925 0
M  V30 7745 H 723.35 -2.04364 -0.0746482 0
M  V30 7746 H 721.505 -3.1015 -2.32133 0
M  V30 7747 H 721.919 -5.07604 -1.32054 0
M  V30 7748 H 723.393 -4.64875 -2.9765 0
M  V30 7749 H 723.87 -2.97211 -3.23361 0
M  V30 7750 H 724.476 -3.84879 -1.80964 0
M  V30 7751 N 722.791 0.367657 -1.53252 0
M  V30 7752 C 724.021 1.12955 -1.72988 0
M  V30 7753 C 724.429 1.8358 -0.457708 0
M  V30 7754 O 723.772 1.74336 0.579006 0
M  V30 7755 C 723.834 2.20545 -2.83902 0
M  V30 7756 C 723.498 1.69704 -4.24323 0
M  V30 7757 C 724.495 1.16223 -5.06743 0
M  V30 7758 C 722.18 1.7528 -4.70725 0
M  V30 7759 C 724.174 0.689935 -6.33655 0
M  V30 7760 C 721.861 1.27662 -5.97617 0
M  V30 7761 C 722.859 0.746083 -6.78913 0
M  V30 7762 O 722.547 0.276925 -8.03423 0
M  V30 7763 H 722.279 0.343753 -0.582074 0
M  V30 7764 H 724.833 0.433106 -2.00782 0
M  V30 7765 H 723.063 2.93676 -2.51577 0
M  V30 7766 H 724.752 2.82111 -2.91836 0
M  V30 7767 H 725.518 1.11256 -4.72067 0
M  V30 7768 H 721.397 2.15515 -4.07522 0
M  V30 7769 H 724.941 0.275164 -6.97057 0
M  V30 7770 H 720.838 1.32322 -6.31792 0
M  V30 7771 H 721.606 0.396445 -8.17539 0
M  V30 7772 N 724.269 1.44576 0.627338 0
M  V30 7773 C 725.499 1.50829 1.41189 0
M  V30 7774 C 725.907 0.133083 1.88731 0
M  V30 7775 O 725.25 -0.87199 1.61685 0
M  V30 7776 C 725.312 2.41449 2.66351 0
M  V30 7777 C 724.976 3.88549 2.40579 0
M  V30 7778 C 725.973 4.78981 2.0217 0
M  V30 7779 C 723.658 4.33287 2.54102 0
M  V30 7780 C 725.652 6.12153 1.77618 0
M  V30 7781 C 723.339 5.66505 2.29163 0
M  V30 7782 C 724.337 6.55756 1.9098 0
M  V30 7783 O 724.025 7.86506 1.66321 0
M  V30 7784 H 723.757 0.513797 0.439304 0
M  V30 7785 H 726.311 1.90256 0.774059 0
M  V30 7786 H 724.541 1.96955 3.32784 0
M  V30 7787 H 726.23 2.38608 3.28361 0
M  V30 7788 H 726.996 4.45689 1.91277 0
M  V30 7789 H 722.875 3.64074 2.82792 0
M  V30 7790 H 726.419 6.81776 1.47739 0
M  V30 7791 H 722.316 5.99358 2.39668 0
M  V30 7792 H 723.084 7.98341 1.80536 0
M  V30 7793 N 725.747 -0.868086 1.31537 0
M  V30 7794 C 726.972 -1.65926 1.24432 0
M  V30 7795 C 727.397 -1.87169 -0.186936 0
M  V30 7796 O 726.755 -1.4148 -1.13371 0
M  V30 7797 C 726.803 -3.00347 1.9956 0
M  V30 7798 O 725.907 -3.90221 1.33422 0
M  V30 7799 H 725.248 -0.506375 0.429512 0
M  V30 7800 H 727.778 -1.0822 1.73637 0
M  V30 7801 H 727.788 -3.50269 2.09226 0
M  V30 7802 H 726.463 -2.84205 3.03645 0
M  V30 7803 H 725.04 -3.48672 1.32219 0
M  V30 7804 N 727.225 -1.14528 -1.08264 0
M  V30 7805 C 728.636 -0.925261 -1.6216 0
M  V30 7806 C 728.987 0.535587 -1.88748 0
M  V30 7807 O 728.112 1.4048 -1.64604 0
M  V30 7808 C 728.707 -1.67316 -2.94603 0
M  V30 7809 C 727.266 -1.49868 -3.45278 0
M  V30 7810 C 726.413 -1.69471 -2.19487 0
M  V30 7811 H 729.364 -1.29687 -0.914707 0
M  V30 7812 H 729.385 -1.13721 -3.63109 0
M  V30 7813 H 728.897 -2.73635 -2.75219 0
M  V30 7814 H 726.998 -0.459032 -3.69762 0
M  V30 7815 H 727.111 -2.2696 -4.21931 0
M  V30 7816 H 725.475 -1.12048 -2.2873 0
M  V30 7817 H 726.258 -2.77136 -2.0261 0
M  V30 7818 N 728.703 1.26451 -0.940633 0
M  V30 7819 C 729.651 2.28389 -0.440581 0
M  V30 7820 C 730.645 1.62402 0.481859 0
M  V30 7821 O 731.851 1.76361 0.360132 0
M  V30 7822 H 728.226 0.741716 -0.123938 0
M  V30 7823 H 730.197 2.67967 -1.31288 0
M  V30 7824 C 728.946 3.46576 0.279364 0
M  V30 7825 H 728.269 3.97574 -0.421274 0
M  V30 7826 H 729.709 4.19826 0.59348 0
M  V30 7827 C 728.168 3.01815 1.49697 0
M  V30 7828 O 728.698 3.06607 2.59529 0
M  V30 7829 N 726.904 2.57163 1.35334 0
M  V30 7830 H 726.451 2.53464 0.459743 0
M  V30 7831 H 726.409 2.27578 2.16923 0
M  V30 7832 N 730.181 0.707592 1.40822 0
M  V30 7833 C 731.411 0.252706 2.05049 0
M  V30 7834 C 731.819 -1.10758 1.53393 0
M  V30 7835 O 731.162 -1.70567 0.682097 0
M  V30 7836 C 731.224 0.146001 3.59203 0
M  V30 7837 C 730.888 1.44027 4.33711 0
M  V30 7838 C 731.885 2.38058 4.62195 0
M  V30 7839 C 729.57 1.69698 4.72766 0
M  V30 7840 C 731.564 3.56013 5.28709 0
M  V30 7841 C 729.251 2.87936 5.39014 0
M  V30 7842 C 730.249 3.80915 5.66915 0
M  V30 7843 O 729.937 4.9708 6.31796 0
M  V30 7844 H 729.669 0.112784 0.666525 0
M  V30 7845 H 732.223 0.96417 1.81364 0
M  V30 7846 H 730.453 -0.621338 3.81676 0
M  V30 7847 H 732.142 -0.273275 4.04979 0
M  V30 7848 H 732.908 2.19487 4.32493 0
M  V30 7849 H 728.787 0.981835 4.50423 0
M  V30 7850 H 732.331 4.28604 5.50404 0
M  V30 7851 H 728.228 3.06419 5.68135 0
M  V30 7852 H 728.996 4.97053 6.50293 0
M  V30 7853 N 731.66 -1.50943 0.453197 0
M  V30 7854 C 732.608 -2.29728 -0.364419 0
M  V30 7855 C 733.602 -1.36246 -1.00664 0
M  V30 7856 O 734.808 -1.53518 -0.939794 0
M  V30 7857 H 731.183 -0.739536 -0.136347 0
M  V30 7858 H 733.154 -2.96672 0.320696 0
M  V30 7859 C 731.903 -3.1629 -1.44415 0
M  V30 7860 H 731.226 -3.88119 -0.959343 0
M  V30 7861 H 732.666 -3.74444 -1.98917 0
M  V30 7862 C 731.125 -2.32702 -2.43622 0
M  V30 7863 O 731.655 -1.99763 -3.48508 0
M  V30 7864 N 729.861 -1.95621 -2.14897 0
M  V30 7865 H 729.408 -2.22607 -1.29629 0
M  V30 7866 H 729.366 -1.39993 -2.81513 0
M  V30 7867 N 733.138 -0.185124 -1.56509 0
M  V30 7868 C 734.549 0.329221 -1.83774 0
M  V30 7869 C 734.9 1.62093 -1.10545 0
M  V30 7870 O 734.025 2.13334 -0.36298 0
M  V30 7871 C 734.62 0.604099 -3.33371 0
M  V30 7872 C 733.179 1.06284 -3.61083 0
M  V30 7873 C 732.326 0.10608 -2.77097 0
M  V30 7874 H 735.277 -0.409116 -1.53336 0
M  V30 7875 H 735.298 1.45458 -3.51599 0
M  V30 7876 H 734.81 -0.336201 -3.86641 0
M  V30 7877 H 732.911 2.01777 -3.13236 0
M  V30 7878 H 733.024 0.962453 -4.69333 0
M  V30 7879 H 731.388 0.606082 -2.47384 0
M  V30 7880 H 732.171 -0.828486 -3.33153 0
M  V30 7881 N 734.616 1.57351 0.0885366 0
M  V30 7882 C 735.548 1.99221 1.13329 0
M  V30 7883 C 736.561 0.895705 1.35945 0
M  V30 7884 O 737.75 1.17376 1.34481 0
M  V30 7885 C 734.85 2.3016 2.48756 0
M  V30 7886 C 734.023 3.61444 2.46327 0
M  V30 7887 C 733.082 3.80244 3.63732 0
M  V30 7888 O 732.108 4.52024 3.45924 0
M  V30 7889 N 733.31 3.2132 4.8346 0
M  V30 7890 H 736.075 2.89456 0.776862 0
M  V30 7891 H 733.636 1.59505 0.277428 0
M  V30 7892 H 735.628 2.39925 3.25911 0
M  V30 7893 H 734.198 1.459 2.76464 0
M  V30 7894 H 733.418 3.62588 1.54673 0
M  V30 7895 H 734.706 4.47678 2.41789 0
M  V30 7896 H 734.104 2.63028 5.00832 0
M  V30 7897 H 732.661 3.3656 5.58185 0
M  V30 7898 N 736.094 -0.359525 1.53444 0
M  V30 7899 C 737.319 -1.12644 1.74144 0
M  V30 7900 C 737.744 -1.82082 0.472007 0
M  V30 7901 O 737.102 -1.71962 -0.57436 0
M  V30 7902 C 737.15 -2.12781 2.9113 0
M  V30 7903 O 736.254 -3.19984 2.60162 0
M  V30 7904 H 735.595 -0.326553 0.578152 0
M  V30 7905 H 738.125 -0.414798 2.00351 0
M  V30 7906 H 738.135 -2.56278 3.17467 0
M  V30 7907 H 736.81 -1.61634 3.83207 0
M  V30 7908 H 735.387 -2.81417 2.44661 0
M  V30 7909 N 737.572 -1.44907 -0.619662 0
M  V30 7910 C 738.988 -1.29046 -0.939107 0
M  V30 7911 C 739.188 -0.23462 -2.00129 0
M  V30 7912 O 738.244 0.37558 -2.49691 0
M  V30 7913 C 739.557 -2.66567 -1.39149 0
M  V30 7914 C 741.105 -2.74368 -1.50635 0
M  V30 7915 C 741.58 -4.12386 -1.99253 0
M  V30 7916 N 743.071 -4.1462 -2.06506 0
M  V30 7917 C 743.806 -5.18272 -2.4532 0
M  V30 7918 N 743.302 -6.32278 -2.83189 0
M  V30 7919 N 745.095 -5.05628 -2.45554 0
M  V30 7920 H 737.246 -2.12239 0.0826135 0
M  V30 7921 H 739.509 -0.947652 -0.0256829 0
M  V30 7922 H 739.215 -3.4496 -0.685254 0
M  V30 7923 H 739.089 -2.94224 -2.36034 0
M  V30 7924 H 741.476 -1.96287 -2.20353 0
M  V30 7925 H 741.557 -2.50439 -0.520963 0
M  V30 7926 H 741.201 -4.90947 -1.30127 0
M  V30 7927 H 741.131 -4.33699 -2.98684 0
M  V30 7928 H 743.622 -3.32343 -1.79878 0
M  V30 7929 H 743.935 -7.07172 -3.11652 0
M  V30 7930 H 742.28 -6.35699 -2.80913 0
M  V30 7931 H 745.471 -4.15613 -2.15367 0
M  V30 7932 H 745.644 -5.86529 -2.75478 0
M  V30 7933 N 739.05 0.861098 -1.31996 0
M  V30 7934 C 740.275 1.65264 -1.2531 0
M  V30 7935 C 740.7 1.87265 0.177007 0
M  V30 7936 O 740.058 1.4208 1.12619 0
M  V30 7937 C 740.106 2.99284 -2.0115 0
M  V30 7938 O 739.21 3.89508 -1.3549 0
M  V30 7939 H 738.551 0.50409 -0.432192 0
M  V30 7940 H 741.081 1.07297 -1.74208 0
M  V30 7941 H 741.091 3.49154 -2.11081 0
M  V30 7942 H 739.766 2.82591 -3.05148 0
M  V30 7943 H 738.343 3.47966 -1.34066 0
M  V30 7944 N 740.528 1.15101 1.07655 0
M  V30 7945 C 741.774 0.925343 1.80458 0
M  V30 7946 C 742.107 -0.546354 1.86356 0
M  V30 7947 O 741.382 -1.40496 1.34503 0
M  V30 7948 C 741.665 1.53646 3.25676 0
M  V30 7949 C 741.518 3.07854 3.27942 0
M  V30 7950 C 742.837 1.21968 4.22861 0
M  V30 7951 H 739.956 0.337592 0.655134 0
M  V30 7952 H 742.598 1.42217 1.25993 0
M  V30 7953 H 740.748 1.11395 3.72187 0
M  V30 7954 H 742.42 3.58989 2.89697 0
M  V30 7955 H 740.663 3.41904 2.66991 0
M  V30 7956 H 741.334 3.45725 4.30324 0
M  V30 7957 H 743.81 1.5851 3.84726 0
M  V30 7958 H 742.686 1.67349 5.22767 0
M  V30 7959 H 742.947 0.136207 4.4189 0
M  V30 7960 N 742.006 -1.2595 0.947325 0
M  V30 7961 C 743.417 -1.75389 0.639963 0
M  V30 7962 C 743.768 -1.77081 -0.844788 0
M  V30 7963 O 742.893 -1.3869 -1.66114 0
M  V30 7964 C 743.488 -3.18506 1.15496 0
M  V30 7965 C 742.047 -3.65534 0.897894 0
M  V30 7966 C 741.194 -2.44818 1.30228 0
M  V30 7967 H 744.145 -1.1194 1.12495 0
M  V30 7968 H 744.166 -3.77045 0.511627 0
M  V30 7969 H 743.678 -3.17243 2.23559 0
M  V30 7970 H 741.779 -3.72221 -0.168096 0
M  V30 7971 H 741.892 -4.54039 1.52922 0
M  V30 7972 H 740.256 -2.44291 0.720678 0
M  V30 7973 H 741.039 -2.46251 2.39198 0
M  V30 7974 N 743.484 -0.715051 -1.40445 0
M  V30 7975 C 744.895 -0.326763 -1.83818 0
M  V30 7976 C 745.246 1.13851 -1.59789 0
M  V30 7977 O 744.371 1.87611 -1.07848 0
M  V30 7978 C 744.966 -0.586297 -3.33688 0
M  V30 7979 C 743.525 -0.251724 -3.75557 0
M  V30 7980 C 742.672 -0.858928 -2.63662 0
M  V30 7981 H 745.623 -0.914241 -1.2972 0
M  V30 7982 H 745.644 0.148636 -3.8021 0
M  V30 7983 H 745.156 -1.65281 -3.51146 0
M  V30 7984 H 743.257 0.809754 -3.63695 0
M  V30 7985 H 743.37 -0.720348 -4.73654 0
M  V30 7986 H 741.734 -0.287013 -2.53078 0
M  V30 7987 H 742.517 -1.9297 -2.83932 0
M  V30 7988 N 744.962 1.50701 -0.461195 0
M  V30 7989 C 746.187 2.07171 0.0974773 0
M  V30 7990 C 746.612 1.32391 1.3362 0
M  V30 7991 O 745.97 0.368676 1.77512 0
M  V30 7992 C 746.018 3.58651 0.374409 0
M  V30 7993 O 745.122 3.85816 1.4567 0
M  V30 7994 H 744.463 0.663944 -0.00862047 0
M  V30 7995 H 746.993 1.94021 -0.649394 0
M  V30 7996 H 747.003 4.03295 0.617843 0
M  V30 7997 H 745.678 4.12498 -0.530829 0
M  V30 7998 H 744.255 3.53018 1.20136 0
M  V30 7999 N 746.441 0.193421 1.56409 0
M  V30 8000 C 747.404 -0.714371 2.17783 0
M  V30 8001 C 748.404 -1.1422 1.13183 0
M  V30 8002 O 749.594 -1.05557 1.38576 0
M  V30 8003 C 746.726 -1.97509 2.77855 0
M  V30 8004 H 747.919 -0.179714 2.99361 0
M  V30 8005 H 745.472 -0.0561944 1.56199 0
M  V30 8006 H 746.207 -2.5523 2.0007 0
M  V30 8007 H 745.992 -1.67706 3.54425 0
M  V30 8008 H 747.482 -2.62246 3.24987 0
M  V30 8009 N 747.919 -1.57396 -0.0801906 0
M  V30 8010 C 749.144 -1.91437 -0.797909 0
M  V30 8011 C 749.569 -0.789075 -1.70749 0
M  V30 8012 O 748.927 0.25857 -1.79447 0
M  V30 8013 C 748.975 -3.24402 -1.57467 0
M  V30 8014 O 748.079 -3.13043 -2.68473 0
M  V30 8015 H 747.42 -0.627109 -0.218243 0
M  V30 8016 H 749.95 -2.04537 -0.050949 0
M  V30 8017 H 749.96 -3.58072 -1.95571 0
M  V30 8018 H 748.635 -4.05884 -0.907229 0
M  V30 8019 H 747.212 -2.90915 -2.33287 0
M  V30 8020 N 749.397 0.351382 -1.53633 0
M  V30 8021 C 750.347 1.4316 -1.77452 0
M  V30 8022 C 751.331 1.48076 -0.62946 0
M  V30 8023 O 752.523 1.53078 -0.888599 0
M  V30 8024 C 749.652 2.80409 -1.98055 0
M  V30 8025 C 748.738 2.79915 -3.18604 0
M  V30 8026 N 749.129 2.49057 -4.40232 0
M  V30 8027 C 747.427 3.11067 -3.19614 0
M  V30 8028 C 748.128 2.566 -5.22045 0
M  V30 8029 N 747.104 2.919 -4.5858 0
M  V30 8030 H 750.906 1.18188 -2.69089 0
M  V30 8031 H 748.42 0.559684 -1.52451 0
M  V30 8032 H 750.417 3.58231 -2.13251 0
M  V30 8033 H 749.077 3.06334 -1.07655 0
M  V30 8034 H 750.088 2.22395 -4.67719 0
M  V30 8035 H 746.765 3.42215 -2.39154 0
M  V30 8036 H 748.155 2.35968 -6.29101 0
M  V30 8037 N 750.875 1.45233 0.611969 0
M  V30 8038 C 752.121 1.49242 1.37312 0
M  V30 8039 C 752.454 0.131963 1.93751 0
M  V30 8040 O 751.729 -0.852999 1.74798 0
M  V30 8041 C 752.012 2.56811 2.52428 0
M  V30 8042 C 751.865 4.02284 2.01215 0
M  V30 8043 C 753.184 2.60705 3.54572 0
M  V30 8044 H 750.303 0.54336 0.497925 0
M  V30 8045 H 752.945 1.77019 0.690242 0
M  V30 8046 H 751.095 2.33256 3.10683 0
M  V30 8047 H 752.767 4.37035 1.47643 0
M  V30 8048 H 751.01 4.1315 1.32248 0
M  V30 8049 H 751.681 4.7323 2.84178 0
M  V30 8050 H 754.157 2.81799 3.06151 0
M  V30 8051 H 753.033 3.37841 4.32614 0
M  V30 8052 H 753.294 1.65627 4.09903 0
M  V30 8053 N 752.353 -0.854086 1.3245 0
M  V30 8054 C 753.316 -1.94427 1.21371 0
M  V30 8055 C 754.316 -1.60219 0.136613 0
M  V30 8056 O 755.506 -1.69846 0.387057 0
M  V30 8057 C 752.638 -3.29698 0.866701 0
M  V30 8058 H 753.831 -2.05679 2.18257 0
M  V30 8059 H 751.384 -1.04434 1.1629 0
M  V30 8060 H 752.119 -3.24145 -0.100319 0
M  V30 8061 H 751.904 -3.55903 1.64545 0
M  V30 8062 H 753.394 -4.09599 0.813515 0
M  V30 8063 N 753.831 -1.1567 -1.07043 0
M  V30 8064 C 755.242 -0.942408 -1.61169 0
M  V30 8065 C 755.593 0.515537 -1.89306 0
M  V30 8066 O 754.718 1.38726 -1.66084 0
M  V30 8067 C 755.313 -1.70431 -2.92812 0
M  V30 8068 C 753.872 -1.53521 -3.43669 0
M  V30 8069 C 753.019 -1.7179 -2.17678 0
M  V30 8070 H 755.97 -1.3065 -0.9009 0
M  V30 8071 H 755.991 -1.17566 -3.61882 0
M  V30 8072 H 755.503 -2.76538 -2.72302 0
M  V30 8073 H 753.604 -0.498224 -3.69254 0
M  V30 8074 H 753.717 -2.31422 -4.19501 0
M  V30 8075 H 752.081 -1.14468 -2.27529 0
M  V30 8076 H 752.864 -2.79269 -1.99659 0
M  V30 8077 N 755.309 1.25446 -0.953992 0
M  V30 8078 C 756.537 1.97215 -0.625595 0
M  V30 8079 C 756.952 1.70911 0.802168 0
M  V30 8080 O 756.309 0.984782 1.5365 0
M  V30 8081 C 756.36 3.50777 -0.873943 0
M  V30 8082 O 756.081 3.76173 -2.24556 0
M  V30 8083 C 757.582 4.39776 -0.557845 0
M  V30 8084 H 754.802 0.628652 -0.2346 0
M  V30 8085 H 757.346 1.59632 -1.27819 0
M  V30 8086 H 755.501 3.86474 -0.267765 0
M  V30 8087 H 755.915 4.70636 -2.31522 0
M  V30 8088 H 757.389 5.46431 -0.782157 0
M  V30 8089 H 757.866 4.36257 0.507573 0
M  V30 8090 H 758.472 4.09644 -1.14332 0
M  V30 8091 N 756.787 0.722489 1.40064 0
M  V30 8092 C 757.697 0.0755984 2.34478 0
M  V30 8093 C 758.713 -0.736046 1.57665 0
M  V30 8094 O 759.889 -0.667407 1.9002 0
M  V30 8095 C 756.954 -0.830075 3.36616 0
M  V30 8096 C 756.015 -0.00759884 4.29299 0
M  V30 8097 C 755.248 -0.870139 5.26559 0
M  V30 8098 O 755.471 -2.10921 5.2997 0
M  V30 8099 O 754.405 -0.305454 6.01124 0
M  V30 8100 H 758.231 0.854545 2.9143 0
M  V30 8101 H 755.816 0.483032 1.41376 0
M  V30 8102 H 757.698 -1.34864 3.99236 0
M  V30 8103 H 756.373 -1.58805 2.82069 0
M  V30 8104 H 755.28 0.556199 3.69942 0
M  V30 8105 H 756.613 0.712312 4.87018 0
M  V30 8106 N 758.265 -1.50454 0.469181 0
M  V30 8107 C 759.493 -2.06729 -0.0842134 0
M  V30 8108 C 759.908 -1.33326 -1.33677 0
M  V30 8109 O 759.265 -0.401977 -1.78018 0
M  V30 8110 C 759.316 -3.59557 -0.374253 0
M  V30 8111 O 759.037 -4.30192 0.828622 0
M  V30 8112 C 760.538 -4.32449 -0.974824 0
M  V30 8113 H 757.758 -0.670971 0.006231 0
M  V30 8114 H 760.302 -1.93645 0.657415 0
M  V30 8115 H 758.457 -3.7245 -1.06581 0
M  V30 8116 H 758.871 -5.21371 0.572066 0
M  V30 8117 H 760.345 -5.40361 -1.12755 0
M  V30 8118 H 760.822 -3.92819 -1.96442 0
M  V30 8119 H 761.428 -4.24082 -0.321703 0
M  V30 8120 N 759.743 -0.201713 -1.56304 0
M  V30 8121 C 760.99 0.435307 -1.97766 0
M  V30 8122 C 761.318 1.61169 -1.0888 0
M  V30 8123 O 760.573 1.95272 -0.12934 0
M  V30 8124 C 760.872 0.931432 -3.45049 0
M  V30 8125 C 760.538 -0.132287 -4.50706 0
M  V30 8126 C 759.2 -0.424552 -4.79323 0
M  V30 8127 C 761.552 -0.852703 -5.14177 0
M  V30 8128 C 758.88 -1.4421 -5.68701 0
M  V30 8129 C 761.232 -1.85944 -6.04655 0
M  V30 8130 C 759.896 -2.15884 -6.31625 0
M  V30 8131 H 759.166 0.15929 -0.723676 0
M  V30 8132 H 761.813 -0.300069 -1.89134 0
M  V30 8133 H 760.118 1.7452 -3.50785 0
M  V30 8134 H 761.815 1.43383 -3.74489 0
M  V30 8135 H 758.405 0.105671 -4.2847 0
M  V30 8136 H 762.589 -0.640139 -4.92154 0
M  V30 8137 H 757.845 -1.6799 -5.87869 0
M  V30 8138 H 762.019 -2.42286 -6.52894 0
M  V30 8139 H 759.646 -2.94875 -7.0068 0
M  V30 8140 N 761.222 1.57436 0.0718424 0
M  V30 8141 C 762.45 1.91474 0.783932 0
M  V30 8142 C 762.865 0.797669 1.71122 0
M  V30 8143 O 762.222 -0.228989 1.81058 0
M  V30 8144 C 762.273 3.25259 1.57761 0
M  V30 8145 O 761.994 4.3267 0.687596 0
M  V30 8146 C 763.495 3.7331 2.3907 0
M  V30 8147 H 760.715 0.632901 0.222885 0
M  V30 8148 H 763.259 2.04457 0.0421262 0
M  V30 8149 H 761.414 3.13804 2.27169 0
M  V30 8150 H 761.828 5.09641 1.23962 0
M  V30 8151 H 763.302 4.69551 2.90216 0
M  V30 8152 H 763.779 3.02318 3.18591 0
M  V30 8153 H 764.385 3.8771 1.74818 0
M  V30 8154 N 762.7 -0.34323 1.53817 0
M  V30 8155 C 763.93 -1.10188 1.74763 0
M  V30 8156 C 764.338 -1.82829 0.486856 0
M  V30 8157 O 763.681 -1.75236 -0.551198 0
M  V30 8158 C 763.743 -2.16 2.87375 0
M  V30 8159 C 763.407 -1.62931 4.26969 0
M  V30 8160 C 764.404 -1.08147 5.08528 0
M  V30 8161 C 762.089 -1.67769 4.73454 0
M  V30 8162 C 764.083 -0.589039 6.34672 0
M  V30 8163 C 761.77 -1.18138 5.99572 0
M  V30 8164 C 762.768 -0.637979 6.80014 0
M  V30 8165 O 762.456 -0.149073 8.03762 0
M  V30 8166 H 762.188 -0.33445 0.587469 0
M  V30 8167 H 764.742 -0.401109 2.01445 0
M  V30 8168 H 762.972 -2.89637 2.56218 0
M  V30 8169 H 764.661 -2.77432 2.96287 0
M  V30 8170 H 765.427 -1.03732 4.73777 0
M  V30 8171 H 761.306 -2.09004 4.10899 0
M  V30 8172 H 764.85 -0.164233 6.97407 0
M  V30 8173 H 760.747 -1.22254 6.33817 0
M  V30 8174 H 761.515 -0.266332 8.18067 0
M  V30 8175 N 764.178 -1.45556 -0.604258 0
M  V30 8176 C 765.088 -1.57025 -1.74299 0
M  V30 8177 C 766.104 -0.45456 -1.67958 0
M  V30 8178 O 767.28 -0.715711 -1.88254 0
M  V30 8179 C 764.345 -1.53702 -3.10768 0
M  V30 8180 C 763.406 -2.76335 -3.28538 0
M  V30 8181 C 762.639 -2.73161 -4.58496 0
M  V30 8182 O 762.862 -1.80678 -5.41028 0
M  V30 8183 O 761.796 -3.64409 -4.79051 0
M  V30 8184 H 765.622 -2.53284 -1.67573 0
M  V30 8185 H 763.207 -1.28104 -0.768745 0
M  V30 8186 H 765.089 -1.54468 -3.92068 0
M  V30 8187 H 763.764 -0.605957 -3.17978 0
M  V30 8188 H 762.671 -2.8113 -2.46813 0
M  V30 8189 H 764.004 -3.68578 -3.26207 0
M  V30 8190 N 765.656 0.84705 -1.32902 0
M  V30 8191 C 766.902 1.60389 -1.25088 0
M  V30 8192 C 767.257 1.91521 0.183723 0
M  V30 8193 O 766.55 1.55197 1.12359 0
M  V30 8194 C 766.744 2.92663 -2.05142 0
M  V30 8195 C 766.573 2.74449 -3.56241 0
M  V30 8196 C 765.343 2.72434 -4.25567 0
M  V30 8197 C 767.541 2.47666 -4.5074 0
M  V30 8198 N 765.523 2.45512 -5.62669 0
M  V30 8199 C 766.894 2.30219 -5.75673 0
M  V30 8200 C 768.949 2.33196 -4.39914 0
M  V30 8201 C 767.652 1.99772 -6.91002 0
M  V30 8202 C 769.678 2.0414 -5.5505 0
M  V30 8203 C 769.04 1.875 -6.78987 0
M  V30 8204 H 765.139 0.590296 -0.512908 0
M  V30 8205 H 767.723 0.995058 -1.67352 0
M  V30 8206 H 765.894 3.51511 -1.65211 0
M  V30 8207 H 767.626 3.5777 -1.89163 0
M  V30 8208 H 764.381 2.85647 -3.7776 0
M  V30 8209 H 764.805 2.34958 -6.3492 0
M  V30 8210 H 769.447 2.44777 -3.44738 0
M  V30 8211 H 767.165 1.86928 -7.86183 0
M  V30 8212 H 770.751 1.93711 -5.48605 0
M  V30 8213 H 769.631 1.65339 -7.66572 0
M  V30 8214 N 767.134 1.16236 1.06428 0
M  V30 8215 C 768.362 0.967184 1.82902 0
M  V30 8216 C 768.777 -0.484601 1.82475 0
M  V30 8217 O 768.134 -1.33631 1.24294 0
M  V30 8218 C 768.185 1.48534 3.29576 0
M  V30 8219 O 767.906 2.88026 3.3011 0
M  V30 8220 C 769.407 1.33298 4.22784 0
M  V30 8221 H 766.627 0.342923 0.576754 0
M  V30 8222 H 769.171 1.54232 1.34286 0
M  V30 8223 H 767.326 0.952513 3.75508 0
M  V30 8224 H 767.74 3.11721 4.21818 0
M  V30 8225 H 769.214 1.74385 5.23731 0
M  V30 8226 H 769.691 0.278356 4.38317 0
M  V30 8227 H 770.297 1.85535 3.82697 0
M  V30 8228 N 768.612 -1.24939 0.960631 0
M  V30 8229 C 769.858 -1.93104 0.61958 0
M  V30 8230 C 770.191 -1.74991 -0.84212 0
M  V30 8231 O 769.466 -1.09867 -1.60498 0
M  V30 8232 C 769.749 -3.46326 0.986422 0
M  V30 8233 C 769.602 -3.73638 2.50429 0
M  V30 8234 C 770.921 -4.37067 0.515827 0
M  V30 8235 H 768.04 -0.701311 0.226566 0
M  V30 8236 H 770.682 -1.47442 1.19836 0
M  V30 8237 H 768.832 -3.85348 0.493907 0
M  V30 8238 H 770.504 -3.44217 3.07103 0
M  V30 8239 H 768.747 -3.19035 2.93937 0
M  V30 8240 H 769.418 -4.80815 2.71147 0
M  V30 8241 H 771.894 -4.05381 0.938389 0
M  V30 8242 H 770.77 -5.43022 0.80114 0
M  V30 8243 H 771.031 -4.38224 -0.584171 0
M  V30 8244 N 770.09 -0.729906 -1.39679 0
M  V30 8245 C 771.501 -0.346241 -1.83461 0
M  V30 8246 C 771.852 1.1215 -1.60987 0
M  V30 8247 O 770.977 1.86456 -1.09832 0
M  V30 8248 C 771.572 -0.621656 -3.33048 0
M  V30 8249 C 770.131 -0.291543 -3.75269 0
M  V30 8250 C 769.278 -0.886844 -2.62736 0
M  V30 8251 H 772.229 -0.927949 -1.28743 0
M  V30 8252 H 772.25 0.108301 -3.80346 0
M  V30 8253 H 771.762 -1.68996 -3.49373 0
M  V30 8254 H 769.863 0.771133 -3.64533 0
M  V30 8255 H 769.976 -0.770544 -4.72863 0
M  V30 8256 H 768.34 -0.313839 -2.52759 0
M  V30 8257 H 769.123 -1.95971 -2.81869 0
M  V30 8258 N 771.568 1.50203 -0.477153 0
M  V30 8259 C 772.515 2.28656 0.31386 0
M  V30 8260 C 773.485 1.33977 0.981802 0
M  V30 8261 O 774.67 1.62919 0.993072 0
M  V30 8262 C 771.81 3.16027 1.38639 0
M  V30 8263 C 770.923 4.25743 0.732615 0
M  V30 8264 C 770.058 5.00363 1.78355 0
M  V30 8265 C 769.097 6.01945 1.11035 0
M  V30 8266 N 768.234 6.6982 2.10441 0
M  V30 8267 H 773.074 2.958 -0.361445 0
M  V30 8268 H 770.611 1.45867 -0.190093 0
M  V30 8269 H 772.569 3.6504 2.01994 0
M  V30 8270 H 771.199 2.50917 2.03077 0
M  V30 8271 H 770.251 3.80398 -0.0136546 0
M  V30 8272 H 771.563 4.98393 0.201513 0
M  V30 8273 H 770.717 5.53124 2.49276 0
M  V30 8274 H 769.456 4.27432 2.34847 0
M  V30 8275 H 768.461 5.48438 0.386797 0
M  V30 8276 H 769.686 6.76851 0.552248 0
M  V30 8277 H 767.632 5.99677 2.65939 0
M  V30 8278 H 767.549 7.38366 1.62332 0
M  V30 8279 H 768.817 7.27196 2.80724 0
M  V30 8280 N 773.046 0.209999 1.56195 0
M  V30 8281 C 773.956 -0.716459 2.23392 0
M  V30 8282 C 774.972 -1.22291 1.23778 0
M  V30 8283 O 776.148 -1.26694 1.56558 0
M  V30 8284 C 773.213 -1.91261 2.89172 0
M  V30 8285 C 772.274 -1.44927 4.04097 0
M  V30 8286 C 771.507 -2.5884 4.66731 0
M  V30 8287 O 771.73 -3.76693 4.2832 0
M  V30 8288 O 770.664 -2.30701 5.55932 0
M  V30 8289 H 774.49 -0.174089 3.03201 0
M  V30 8290 H 772.075 -0.0199505 1.49387 0
M  V30 8291 H 773.957 -2.6114 3.30733 0
M  V30 8292 H 772.632 -2.4433 2.12331 0
M  V30 8293 H 771.539 -0.718839 3.67129 0
M  V30 8294 H 772.872 -0.965084 4.82646 0
M  V30 8295 N 774.524 -1.57472 -0.0634922 0
M  V30 8296 C 775.77 -1.87932 -0.762194 0
M  V30 8297 C 776.103 -0.803377 -1.76804 0
M  V30 8298 O 775.378 0.185468 -1.93614 0
M  V30 8299 C 775.661 -3.29053 -1.46275 0
M  V30 8300 C 775.514 -4.47309 -0.472755 0
M  V30 8301 C 776.833 -3.68537 -2.40558 0
M  V30 8302 H 773.952 -0.683521 -0.275624 0
M  V30 8303 H 776.594 -1.89983 -0.0252651 0
M  V30 8304 H 774.744 -3.27435 -2.0909 0
M  V30 8305 H 776.416 -4.61053 0.150828 0
M  V30 8306 H 774.659 -4.33286 0.211187 0
M  V30 8307 H 775.33 -5.42853 -1.00072 0
M  V30 8308 H 777.806 -3.71302 -1.87814 0
M  V30 8309 H 776.682 -4.68152 -2.86574 0
M  V30 8310 H 776.943 -2.98917 -3.25731 0
M  V30 8311 N 776.003 0.335068 -1.53997 0
M  V30 8312 C 777.251 1.07223 -1.71312 0
M  V30 8313 C 777.572 1.88911 -0.483486 0
M  V30 8314 O 776.842 1.89344 0.50257 0
M  V30 8315 H 775.422 0.398846 -0.63161 0
M  V30 8316 H 778.084 0.374288 -1.91272 0
M  V30 8317 H 777.18 1.7448 -2.58772 0
M  V30 8318 N 777.481 1.45874 0.596531 0
M  V30 8319 C 778.892 1.44798 1.17857 0
M  V30 8320 C 779.243 0.181443 1.95359 0
M  V30 8321 O 778.368 -0.716336 2.042 0
M  V30 8322 C 778.963 2.62333 2.14398 0
M  V30 8323 C 777.522 2.64342 2.67955 0
M  V30 8324 C 776.669 2.37244 1.43564 0
M  V30 8325 H 779.62 1.53954 0.385222 0
M  V30 8326 H 779.641 2.37063 2.97626 0
M  V30 8327 H 779.153 3.54499 1.57963 0
M  V30 8328 H 777.254 1.76213 3.28298 0
M  V30 8329 H 777.367 3.63897 3.11634 0
M  V30 8330 H 775.731 1.87022 1.72901 0
M  V30 8331 H 776.514 3.31568 0.889805 0
M  V30 8332 N 778.959 -0.83999 1.33349 0
M  V30 8333 C 780.187 -1.62728 1.27778 0
M  V30 8334 C 780.602 -1.88191 -0.151505 0
M  V30 8335 O 779.959 -1.46128 -1.09329 0
M  V30 8336 C 780.01 -2.97813 2.04913 0
M  V30 8337 O 779.731 -2.73469 3.42266 0
M  V30 8338 C 781.232 -3.92245 2.0654 0
M  V30 8339 H 778.452 -0.506374 0.440257 0
M  V30 8340 H 780.996 -1.04637 1.75703 0
M  V30 8341 H 779.151 -3.52509 1.60674 0
M  V30 8342 H 779.565 -3.59483 3.81932 0
M  V30 8343 H 781.039 -4.84249 2.64966 0
M  V30 8344 H 781.516 -4.26332 1.05537 0
M  V30 8345 H 782.122 -3.43487 2.50793 0
M  V30 8346 N 780.437 -1.16799 -1.0581 0
M  V30 8347 C 781.385 -0.875111 -2.1551 0
M  V30 8348 C 782.379 0.157781 -1.68664 0
M  V30 8349 O 783.585 0.011297 -1.79996 0
M  V30 8350 H 779.96 -0.26542 -0.703602 0
M  V30 8351 H 781.931 -1.8076 -2.37421 0
M  V30 8352 C 780.68 -0.39802 -3.45414 0
M  V30 8353 H 780.003 -1.18425 -3.81858 0
M  V30 8354 H 781.443 -0.231913 -4.23365 0
M  V30 8355 C 779.902 0.88327 -3.25115 0
M  V30 8356 O 780.432 1.95145 -3.51114 0
M  V30 8357 N 778.638 0.828961 -2.78526 0
M  V30 8358 H 778.185 -0.0405029 -2.57568 0
M  V30 8359 H 778.143 1.68673 -2.65324 0
M  V30 8360 N 781.915 1.24427 -0.967243 0
M  V30 8361 C 782.878 2.23637 -0.501927 0
M  V30 8362 C 783.878 1.55712 0.401283 0
M  V30 8363 O 785.068 1.73085 0.196808 0
M  V30 8364 C 782.2 3.39804 0.273176 0
M  V30 8365 H 783.393 2.66317 -1.37897 0
M  V30 8366 H 780.946 1.37033 -0.751783 0
M  V30 8367 H 781.681 3.02562 1.16733 0
M  V30 8368 H 781.466 3.90303 -0.37498 0
M  V30 8369 H 782.956 4.13443 0.587776 0
M  V30 8370 N 783.393 0.737304 1.3929 0
M  V30 8371 C 784.67 0.212464 1.94443 0
M  V30 8372 C 785.05 -1.28621 1.67391 0
M  V30 8373 O 784.398 -2.0529 1.00342 0
M  V30 8374 C 784.608 0.548565 3.44662 0
M  V30 8375 C 785.956 0.499177 4.21656 0
M  V30 8376 O 786.98 0.485892 3.5287 0
M  V30 8377 O 785.839 0.495739 5.44247 0
M  V30 8378 H 782.933 0.0395457 0.826054 0
M  V30 8379 H 785.479 0.816319 1.48776 0
M  V30 8380 H 784.251 1.58426 3.57795 0
M  V30 8381 H 783.874 -0.0841399 3.97511 0
M  V30 8382 N 784.871 -1.49948 0.485112 0
M  V30 8383 C 786.282 -1.8667 0.0334041 0
M  V30 8384 C 786.633 -1.3988 -1.37579 0
M  V30 8385 O 785.758 -0.769788 -2.02245 0
M  V30 8386 C 786.353 -3.38757 0.0538426 0
M  V30 8387 C 784.912 -3.74839 -0.342453 0
M  V30 8388 C 784.059 -2.73894 0.433281 0
M  V30 8389 H 787.01 -1.42492 0.698699 0
M  V30 8390 H 787.031 -3.73132 -0.745146 0
M  V30 8391 H 786.543 -3.72782 1.07959 0
M  V30 8392 H 784.644 -3.46419 -1.37203 0
M  V30 8393 H 784.757 -4.79088 -0.0340503 0
M  V30 8394 H 783.121 -2.54441 -0.114849 0
M  V30 8395 H 783.904 -3.10763 1.45881 0
M  V30 8396 N 786.349 -0.21828 -1.56081 0
M  V30 8397 C 787.595 0.414921 -1.9851 0
M  V30 8398 C 787.928 1.59648 -1.10573 0
M  V30 8399 O 787.203 1.93818 -0.162695 0
M  V30 8400 C 787.486 0.852647 -3.4986 0
M  V30 8401 C 787.339 -0.33232 -4.48571 0
M  V30 8402 C 788.658 1.70998 -4.05521 0
M  V30 8403 H 785.777 0.149344 -0.72171 0
M  V30 8404 H 788.419 -0.313858 -1.8739 0
M  V30 8405 H 786.569 1.47362 -3.59467 0
M  V30 8406 H 788.241 -0.970418 -4.50977 0
M  V30 8407 H 786.484 -0.980302 -4.22578 0
M  V30 8408 H 787.155 0.0168407 -5.51997 0
M  V30 8409 H 789.631 1.18606 -3.98838 0
M  V30 8410 H 788.507 1.98517 -5.11744 0
M  V30 8411 H 788.768 2.67219 -3.52202 0
M  V30 8412 N 787.827 1.57504 0.0551401 0
M  V30 8413 C 789.067 1.89895 0.756252 0
M  V30 8414 C 789.431 0.813983 1.73892 0
M  V30 8415 O 790.632 1.02145 2.48636 0
M  V30 8416 C 788.903 3.27494 1.43116 0
M  V30 8417 S 790.462 3.81669 2.16504 0
M  V30 8418 H 787.28 0.665173 0.251129 0
M  V30 8419 H 789.882 1.95496 0.0117193 0
M  V30 8420 H 788.586 4.04345 0.702391 0
M  V30 8421 H 788.117 3.25132 2.21479 0
M  V30 8422 H 790.132 3.58295 3.43277 0
M  V30 8423 N 789.305 -0.326896 1.54172 0
M  V30 8424 C 790.235 -1.40741 1.86317 0
M  V30 8425 C 791.216 -1.54125 0.719684 0
M  V30 8426 O 792.401 -1.6806 0.973117 0
M  V30 8427 C 789.531 -2.77557 2.08757 0
M  V30 8428 C 788.485 -2.78965 3.24596 0
M  V30 8429 C 787.811 -4.18824 3.32401 0
M  V30 8430 C 789.111 -2.4301 4.62324 0
M  V30 8431 H 790.805 -1.14088 2.76811 0
M  V30 8432 H 788.351 -0.547389 1.3319 0
M  V30 8433 H 790.304 -3.53209 2.29829 0
M  V30 8434 H 789.028 -3.0568 1.15009 0
M  V30 8435 H 787.687 -2.05767 3.03406 0
M  V30 8436 H 787.335 -4.44083 2.36218 0
M  V30 8437 H 787.035 -4.20673 4.10253 0
M  V30 8438 H 788.559 -4.96294 3.55703 0
M  V30 8439 H 789.973 -3.08375 4.83299 0
M  V30 8440 H 788.37 -2.56116 5.42701 0
M  V30 8441 H 789.44 -1.38165 4.64799 0
M  V30 8442 N 790.784 -1.46188 -0.588786 0
M  V30 8443 C 791.747 -1.55882 -1.68029 0
M  V30 8444 C 792.747 -0.436515 -1.54762 0
M  V30 8445 O 793.937 -0.700626 -1.59489 0
M  V30 8446 C 791.069 -1.47332 -3.07418 0
M  V30 8447 H 792.262 -2.5315 -1.60795 0
M  V30 8448 H 789.815 -1.33908 -0.806116 0
M  V30 8449 H 790.55 -0.513193 -3.20214 0
M  V30 8450 H 790.335 -2.28753 -3.18456 0
M  V30 8451 H 791.825 -1.57187 -3.86887 0
M  V30 8452 N 792.262 0.832906 -1.33792 0
M  V30 8453 C 793.209 1.94314 -1.24541 0
M  V30 8454 C 794.179 1.65646 -0.122753 0
M  V30 8455 O 795.364 1.88394 -0.30204 0
M  V30 8456 C 792.504 3.30395 -0.996641 0
M  V30 8457 C 791.617 3.71422 -2.20612 0
M  V30 8458 C 790.752 4.96401 -1.89101 0
M  V30 8459 C 789.791 5.2998 -3.06247 0
M  V30 8460 N 788.928 6.46137 -2.74685 0
M  V30 8461 H 793.768 2.01559 -2.19495 0
M  V30 8462 H 791.305 0.986243 -1.09141 0
M  V30 8463 H 793.263 4.08803 -0.832817 0
M  V30 8464 H 791.893 3.22691 -0.0838242 0
M  V30 8465 H 790.945 2.88488 -2.47949 0
M  V30 8466 H 792.257 3.92215 -3.0817 0
M  V30 8467 H 791.411 5.82572 -1.69396 0
M  V30 8468 H 790.15 4.7759 -0.987882 0
M  V30 8469 H 789.155 4.42312 -3.26559 0
M  V30 8470 H 790.38 5.50737 -3.97323 0
M  V30 8471 H 788.326 6.28801 -1.86938 0
M  V30 8472 H 788.243 6.67054 -3.55774 0
M  V30 8473 H 789.511 7.35403 -2.58461 0
M  V30 8474 N 793.74 1.17359 1.05189 0
M  V30 8475 C 794.673 0.833768 2.12423 0
M  V30 8476 C 795.651 -0.19945 1.61372 0
M  V30 8477 O 796.835 -0.080979 1.88326 0
M  V30 8478 C 793.962 0.243745 3.37822 0
M  V30 8479 C 793.008 1.25235 4.07699 0
M  V30 8480 S 793.841 2.80368 4.56239 0
M  V30 8481 C 794.997 2.22846 5.84885 0
M  V30 8482 H 795.23 1.74197 2.40921 0
M  V30 8483 H 792.763 0.998242 1.1779 0
M  V30 8484 H 794.721 -0.0901915 4.10401 0
M  V30 8485 H 793.382 -0.642396 3.07461 0
M  V30 8486 H 792.575 0.788168 4.97799 0
M  V30 8487 H 792.177 1.53194 3.41185 0
M  V30 8488 H 794.469 1.60403 6.58238 0
M  V30 8489 H 795.412 3.112 6.3605 0
M  V30 8490 H 795.82 1.66296 5.39449 0
M  V30 8491 N 795.218 -1.23913 0.973828 0
M  V30 8492 C 796.448 -1.95911 0.655938 0
M  V30 8493 C 796.856 -1.72375 -0.779967 0
M  V30 8494 O 796.199 -1.00807 -1.5357 0
M  V30 8495 C 796.261 -3.49103 0.858324 0
M  V30 8496 C 795.925 -3.96347 2.27504 0
M  V30 8497 C 796.922 -4.05537 3.25324 0
M  V30 8498 C 794.607 -4.29509 2.60437 0
M  V30 8499 C 796.601 -4.47233 4.5416 0
M  V30 8500 C 794.288 -4.70887 3.89498 0
M  V30 8501 C 795.286 -4.79714 4.86172 0
M  V30 8502 O 794.974 -5.20166 6.1293 0
M  V30 8503 H 794.706 -0.630721 0.243244 0
M  V30 8504 H 797.26 -1.58534 1.30599 0
M  V30 8505 H 795.49 -3.86405 0.151097 0
M  V30 8506 H 797.179 -4.02311 0.538592 0
M  V30 8507 H 797.945 -3.80128 3.0121 0
M  V30 8508 H 793.824 -4.21853 1.85906 0
M  V30 8509 H 797.368 -4.54038 5.29618 0
M  V30 8510 H 793.265 -4.95744 4.1341 0
M  V30 8511 H 794.033 -5.38298 6.16586 0
M  V30 8512 N 796.696 -0.74468 -1.38897 0
M  V30 8513 C 797.926 -0.306982 -2.04307 0
M  V30 8514 C 798.334 1.06652 -1.56275 0
M  V30 8515 O 797.677 1.68699 -0.72708 0
M  V30 8516 C 797.739 -0.241186 -3.5869 0
M  V30 8517 C 797.403 -1.55476 -4.2974 0
M  V30 8518 C 798.4 -2.50229 -4.55721 0
M  V30 8519 C 796.085 -1.82173 -4.68101 0
M  V30 8520 C 798.079 -3.69905 -5.19085 0
M  V30 8521 C 795.766 -3.02125 -5.31191 0
M  V30 8522 C 796.764 -3.95812 -5.56616 0
M  V30 8523 O 796.452 -5.13656 -6.18395 0
M  V30 8524 H 796.184 -0.130416 -0.663301 0
M  V30 8525 H 798.738 -1.01192 -1.78744 0
M  V30 8526 H 796.968 0.519925 -3.83189 0
M  V30 8527 H 798.657 0.165806 -4.05561 0
M  V30 8528 H 799.423 -2.30877 -4.26522 0
M  V30 8529 H 795.302 -1.10091 -4.47662 0
M  V30 8530 H 798.846 -4.43047 -5.38846 0
M  V30 8531 H 794.743 -3.21374 -5.59811 0
M  V30 8532 H 795.511 -5.14119 -6.36886 0
M  V30 8533 N 798.174 1.49689 -0.493057 0
M  V30 8534 C 799.399 2.07331 0.0535114 0
M  V30 8535 C 799.824 1.35196 1.30781 0
M  V30 8536 O 799.182 0.406246 1.7669 0
M  V30 8537 C 799.23 3.59364 0.29825 0
M  V30 8538 O 798.334 3.88819 1.37454 0
M  V30 8539 H 797.675 0.663612 -0.0227018 0
M  V30 8540 H 800.205 1.926 -0.690402 0
M  V30 8541 H 800.215 4.04515 0.532159 0
M  V30 8542 H 798.89 4.1128 -0.618207 0
M  V30 8543 H 797.467 3.55487 1.12621 0
M  V30 8544 N 799.652 0.226554 1.55963 0
M  V30 8545 C 800.615 -0.668015 2.19249 0
M  V30 8546 C 801.615 -1.11794 1.1558 0
M  V30 8547 O 802.805 -1.02593 1.40784 0
M  V30 8548 C 799.937 -1.91571 2.81981 0
M  V30 8549 H 801.13 -0.116175 2.99675 0
M  V30 8550 H 798.683 -0.0230497 1.56283 0
M  V30 8551 H 799.418 -2.50929 2.05439 0
M  V30 8552 H 799.203 -1.6015 3.57903 0
M  V30 8553 H 800.693 -2.55294 3.30477 0
M  V30 8554 N 801.13 -1.57531 -0.0467866 0
M  V30 8555 C 802.376 -1.8873 -0.742218 0
M  V30 8556 C 802.709 -0.822084 -1.75941 0
M  V30 8557 O 801.984 0.164922 -1.938 0
M  V30 8558 C 802.267 -3.30586 -1.42776 0
M  V30 8559 C 802.12 -4.47785 -0.425285 0
M  V30 8560 C 803.439 -3.71068 -2.36636 0
M  V30 8561 H 800.558 -0.686406 -0.268359 0
M  V30 8562 H 803.2 -1.89999 -0.00511341 0
M  V30 8563 H 801.35 -3.29634 -2.05605 0
M  V30 8564 H 803.022 -4.60867 0.199721 0
M  V30 8565 H 801.265 -4.33037 0.25713 0
M  V30 8566 H 801.936 -5.43884 -0.943086 0
M  V30 8567 H 804.412 -3.73273 -1.83866 0
M  V30 8568 H 803.288 -4.71165 -2.81593 0
M  V30 8569 H 803.549 -3.02355 -3.22542 0
M  V30 8570 N 802.608 0.318715 -1.54344 0
M  V30 8571 C 803.885 1.07461 -1.63437 0
M  V30 8572 C 804.265 2.05771 -0.47131 0
M  V30 8573 O 803.613 2.22175 0.53391 0
M  V30 8574 C 803.823 1.77224 -3.00654 0
M  V30 8575 C 805.171 2.30069 -3.56866 0
M  V30 8576 O 806.195 1.87284 -3.0299 0
M  V30 8577 O 805.054 3.08412 -4.51159 0
M  V30 8578 H 802.148 0.495627 -0.66203 0
M  V30 8579 H 804.694 0.318218 -1.6669 0
M  V30 8580 H 803.466 1.05742 -3.76742 0
M  V30 8581 H 803.089 2.59662 -3.01101 0
M  V30 8582 N 804.086 1.46499 0.581025 0
M  V30 8583 C 805.497 1.4604 1.16315 0
M  V30 8584 C 805.848 0.202154 1.95156 0
M  V30 8585 O 804.973 -0.694638 2.04948 0
M  V30 8586 C 805.568 2.64593 2.11604 0
M  V30 8587 C 804.127 2.6717 2.65136 0
M  V30 8588 C 803.274 2.38753 1.4104 0
M  V30 8589 H 806.225 1.54354 0.368871 0
M  V30 8590 H 806.246 2.40207 2.95095 0
M  V30 8591 H 805.758 3.56154 1.54194 0
M  V30 8592 H 803.859 1.79685 3.26411 0
M  V30 8593 H 803.972 3.67182 3.07757 0
M  V30 8594 H 802.336 1.88845 1.70908 0
M  V30 8595 H 803.119 3.32493 0.854588 0
M  V30 8596 N 805.565 -0.825799 1.34232 0
M  V30 8597 C 806.793 -1.61363 1.29497 0
M  V30 8598 C 807.208 -1.88341 -0.131536 0
M  V30 8599 O 806.565 -1.47279 -1.07773 0
M  V30 8600 C 806.616 -2.95623 2.08061 0
M  V30 8601 O 806.337 -2.69824 3.45147 0
M  V30 8602 C 807.838 -3.90032 2.10688 0
M  V30 8603 H 805.058 -0.501676 0.445603 0
M  V30 8604 H 807.602 -1.02767 1.76803 0
M  V30 8605 H 805.757 -3.50785 1.64404 0
M  V30 8606 H 806.171 -3.55412 3.85723 0
M  V30 8607 H 807.645 -4.81411 2.70087 0
M  V30 8608 H 808.122 -4.25188 1.10052 0
M  V30 8609 H 808.728 -3.40807 2.54422 0
M  V30 8610 N 807.043 -1.17915 -1.04565 0
M  V30 8611 C 807.99 -0.901605 -2.12461 0
M  V30 8612 C 808.96 0.157011 -1.65356 0
M  V30 8613 O 810.145 0.0184494 -1.90791 0
M  V30 8614 C 807.285 -0.42796 -3.42436 0
M  V30 8615 C 806.398 -1.55142 -4.03181 0
M  V30 8616 C 805.533 -1.03101 -5.21098 0
M  V30 8617 C 804.572 -2.1295 -5.73863 0
M  V30 8618 N 803.709 -1.62339 -6.83074 0
M  V30 8619 H 808.549 -1.82551 -2.3554 0
M  V30 8620 H 806.086 -0.910389 -1.15544 0
M  V30 8621 H 808.044 -0.134859 -4.16982 0
M  V30 8622 H 806.674 0.458977 -3.1952 0
M  V30 8623 H 805.726 -1.96011 -3.26012 0
M  V30 8624 H 807.038 -2.37968 -4.38375 0
M  V30 8625 H 806.192 -0.692132 -6.02739 0
M  V30 8626 H 804.931 -0.17227 -4.87396 0
M  V30 8627 H 803.936 -2.47687 -4.90847 0
M  V30 8628 H 805.161 -2.9925 -6.09611 0
M  V30 8629 H 803.107 -0.787464 -6.51256 0
M  V30 8630 H 803.024 -2.38767 -7.17305 0
M  V30 8631 H 804.292 -1.31363 -7.68351 0
M  V30 8632 N 808.521 1.23394 -0.980386 0
M  V30 8633 C 809.798 1.87242 -0.565667 0
M  V30 8634 C 810.178 1.88151 0.957197 0
M  V30 8635 O 809.526 1.36309 1.8339 0
M  V30 8636 C 809.736 3.28743 -1.17172 0
M  V30 8637 C 811.084 4.05335 -1.26446 0
M  V30 8638 O 812.108 3.37962 -1.12517 0
M  V30 8639 O 810.967 5.25908 -1.48604 0
M  V30 8640 H 808.061 0.80477 -0.190459 0
M  V30 8641 H 810.607 1.3127 -1.07547 0
M  V30 8642 H 809.379 3.22647 -2.21392 0
M  V30 8643 H 809.002 3.92305 -0.646739 0
M  V30 8644 N 809.999 0.752036 1.385 0
M  V30 8645 C 811.248 0.304294 1.99391 0
M  V30 8646 C 811.561 -1.11982 1.60373 0
M  V30 8647 O 812.767 -1.66795 2.14223 0
M  V30 8648 C 811.223 0.493101 3.56506 0
M  V30 8649 C 810.831 1.9262 4.04477 0
M  V30 8650 C 812.575 0.107994 4.24363 0
M  V30 8651 C 810.482 2.06365 5.54227 0
M  V30 8652 H 809.412 0.110024 0.745929 0
M  V30 8653 H 812.063 0.928355 1.58284 0
M  V30 8654 H 810.445 -0.20012 3.95494 0
M  V30 8655 H 811.619 2.65276 3.76783 0
M  V30 8656 H 809.934 2.26608 3.49339 0
M  V30 8657 H 812.531 0.189474 5.34364 0
M  V30 8658 H 812.874 -0.939165 4.05568 0
M  V30 8659 H 813.407 0.753011 3.90608 0
M  V30 8660 H 810.146 3.0933 5.77923 0
M  V30 8661 H 809.666 1.38167 5.83669 0
M  V30 8662 H 811.345 1.85286 6.19902 0
M  V30 8663 N 811.477 -1.49425 0.500989 0
M  V30 8664 C 812.724 -2.02453 -0.0435355 0
M  V30 8665 C 813.052 -1.38067 -1.36995 0
M  V30 8666 O 812.307 -0.505557 -1.89057 0
M  V30 8667 C 812.606 -3.56562 -0.24463 0
M  V30 8668 C 812.272 -4.39585 1.00379 0
M  V30 8669 C 810.934 -4.61992 1.346 0
M  V30 8670 C 813.286 -4.87881 1.83361 0
M  V30 8671 C 810.614 -5.2994 2.51755 0
M  V30 8672 C 812.966 -5.57119 2.99669 0
M  V30 8673 C 811.63 -5.77771 3.3427 0
M  V30 8674 H 810.9 -0.740829 -0.0159308 0
M  V30 8675 H 813.547 -1.79725 0.661143 0
M  V30 8676 H 811.852 -3.77969 -1.03183 0
M  V30 8677 H 813.549 -3.95185 -0.6804 0
M  V30 8678 H 810.139 -4.22385 0.727225 0
M  V30 8679 H 814.323 -4.70398 1.58237 0
M  V30 8680 H 809.579 -5.44133 2.788 0
M  V30 8681 H 813.753 -5.93516 3.64296 0
M  V30 8682 H 811.38 -6.30197 4.25154 0
M  V30 8683 N 812.955 -0.234822 -1.55841 0
M  V30 8684 C 814.183 0.397745 -2.03041 0
M  V30 8685 C 814.598 1.52405 -1.11437 0
M  V30 8686 O 813.955 1.82061 -0.126466 0
M  V30 8687 C 814.006 0.916919 -3.49678 0
M  V30 8688 O 813.727 -0.164493 -4.37791 0
M  V30 8689 C 815.228 1.62139 -4.12584 0
M  V30 8690 H 812.448 0.0959214 -0.664108 0
M  V30 8691 H 814.992 -0.355156 -2.01392 0
M  V30 8692 H 813.147 1.62004 -3.519 0
M  V30 8693 H 813.561 0.227794 -5.24005 0
M  V30 8694 H 815.035 1.93651 -5.16917 0
M  V30 8695 H 815.512 2.53918 -3.58361 0
M  V30 8696 H 816.118 0.963145 -4.14251 0
M  V30 8697 N 814.433 1.57553 0.0384317 0
M  V30 8698 C 815.681 1.88468 0.729672 0
M  V30 8699 C 816.002 0.831302 1.76393 0
M  V30 8700 O 815.272 -0.13622 1.95426 0
M  V30 8701 H 813.852 0.695529 0.272485 0
M  V30 8702 H 816.514 1.94899 0.0066032 0
M  V30 8703 H 815.61 2.8705 1.22511 0
M  V30 8704 N 815.911 -0.310526 1.54511 0
M  V30 8705 C 816.841 -1.38757 1.878 0
M  V30 8706 C 817.822 -1.53353 0.735991 0
M  V30 8707 O 819.007 -1.67018 0.990887 0
M  V30 8708 C 816.137 -2.75327 2.11689 0
M  V30 8709 C 815.091 -2.75506 3.27537 0
M  V30 8710 C 814.417 -4.15275 3.36824 0
M  V30 8711 C 815.717 -2.38093 4.64875 0
M  V30 8712 H 817.411 -1.11146 2.78005 0
M  V30 8713 H 814.957 -0.533232 1.33763 0
M  V30 8714 H 816.91 -3.50752 2.33562 0
M  V30 8715 H 815.634 -3.04443 1.18245 0
M  V30 8716 H 814.293 -2.02538 3.05572 0
M  V30 8717 H 813.941 -4.41553 2.40915 0
M  V30 8718 H 813.641 -4.16299 4.14692 0
M  V30 8719 H 815.165 -4.92493 3.60947 0
M  V30 8720 H 816.579 -3.03232 4.86542 0
M  V30 8721 H 814.976 -2.50345 5.45387 0
M  V30 8722 H 816.046 -1.33227 4.66239 0
M  V30 8723 N 817.389 -1.46805 -0.573248 0
M  V30 8724 C 818.638 -1.51868 -1.32736 0
M  V30 8725 C 818.951 -0.178765 -1.94781 0
M  V30 8726 O 820.157 -0.107272 -2.71288 0
M  V30 8727 C 818.613 -2.67641 -2.40616 0
M  V30 8728 C 818.221 -4.08094 -1.84832 0
M  V30 8729 C 819.965 -2.81984 -3.17309 0
M  V30 8730 C 817.872 -5.15193 -2.90397 0
M  V30 8731 H 816.802 -0.56523 -0.49903 0
M  V30 8732 H 819.453 -1.7304 -0.610695 0
M  V30 8733 H 817.835 -2.39818 -3.15124 0
M  V30 8734 H 819.009 -4.45751 -1.16803 0
M  V30 8735 H 817.324 -3.985 -1.20775 0
M  V30 8736 H 819.921 -3.59166 -3.96111 0
M  V30 8737 H 820.264 -1.89842 -3.70494 0
M  V30 8738 H 820.797 -3.095 -2.4991 0
M  V30 8739 H 817.536 -6.09158 -2.42088 0
M  V30 8740 H 817.056 -4.82071 -3.56886 0
M  V30 8741 H 818.735 -5.41448 -3.54179 0
M  V30 8742 N 818.867 0.818669 -1.34668 0
M  V30 8743 C 820.115 1.57201 -1.27013 0
M  V30 8744 C 820.436 1.94354 0.158599 0
M  V30 8745 O 819.706 1.62626 1.09223 0
M  V30 8746 H 818.286 0.582919 -0.467135 0
M  V30 8747 H 820.948 0.977234 -1.6863 0
M  V30 8748 H 820.044 2.49291 -1.87778 0
M  V30 8749 N 820.346 1.18468 1.03938 0
M  V30 8750 C 821.757 0.984808 1.58614 0
M  V30 8751 C 822.108 -0.465165 1.90606 0
M  V30 8752 O 821.233 -1.34274 1.69704 0
M  V30 8753 C 821.828 1.78135 2.8819 0
M  V30 8754 C 820.387 1.62579 3.39478 0
M  V30 8755 C 819.534 1.77501 2.13046 0
M  V30 8756 H 822.485 1.32993 0.865944 0
M  V30 8757 H 822.506 1.27119 3.58638 0
M  V30 8758 H 822.018 2.83661 2.64874 0
M  V30 8759 H 820.119 0.59595 3.67803 0
M  V30 8760 H 820.232 2.42463 4.13217 0
M  V30 8761 H 818.596 1.2046 2.24414 0
M  V30 8762 H 819.379 2.84464 1.92185 0
M  V30 8763 N 821.824 -1.22873 0.986916 0
M  V30 8764 C 822.757 -2.23154 0.477245 0
M  V30 8765 C 823.735 -1.55981 -0.459206 0
M  V30 8766 O 824.919 -1.84503 -0.386141 0
M  V30 8767 C 822.046 -3.37289 -0.308838 0
M  V30 8768 C 821.092 -4.22637 0.572717 0
M  V30 8769 S 821.925 -4.95758 2.02446 0
M  V30 8770 C 823.081 -6.13338 1.2477 0
M  V30 8771 H 823.314 -2.6604 1.32702 0
M  V30 8772 H 820.847 -1.32455 0.793415 0
M  V30 8773 H 822.805 -4.03472 -0.756351 0
M  V30 8774 H 821.466 -2.92922 -1.13381 0
M  V30 8775 H 820.659 -5.0399 -0.0318024 0
M  V30 8776 H 820.261 -3.61555 0.956746 0
M  V30 8777 H 822.553 -6.7556 0.51231 0
M  V30 8778 H 823.496 -6.78189 2.03629 0
M  V30 8779 H 823.904 -5.59311 0.763622 0
M  V30 8780 N 823.302 -0.75937 -1.38099 0
M  V30 8781 C 824.249 -0.135508 -2.30402 0
M  V30 8782 C 825.219 0.703356 -1.50473 0
M  V30 8783 O 826.404 0.658287 -1.79084 0
M  V30 8784 C 823.544 0.747228 -3.36913 0
M  V30 8785 C 822.657 -0.106893 -4.31868 0
M  V30 8786 C 821.792 0.779388 -5.25451 0
M  V30 8787 C 820.831 -0.0780179 -6.1205 0
M  V30 8788 N 819.968 0.765545 -6.97914 0
M  V30 8789 H 824.808 -0.9282 -2.83176 0
M  V30 8790 H 822.345 -0.46935 -1.39411 0
M  V30 8791 H 824.303 1.27371 -3.97281 0
M  V30 8792 H 822.933 1.50565 -2.85535 0
M  V30 8793 H 821.985 -0.751063 -3.72912 0
M  V30 8794 H 823.297 -0.768798 -4.9284 0
M  V30 8795 H 822.451 1.37282 -5.90964 0
M  V30 8796 H 821.19 1.47501 -4.6486 0
M  V30 8797 H 820.195 -0.684078 -5.45528 0
M  V30 8798 H 821.42 -0.770786 -6.74712 0
M  V30 8799 H 819.366 1.44601 -6.39864 0
M  V30 8800 H 819.283 0.160666 -7.55829 0
M  V30 8801 H 820.551 1.34377 -7.6783 0
M  V30 8802 N 824.78 1.49157 -0.508906 0
M  V30 8803 C 826.029 2.0167 0.0346854 0
M  V30 8804 C 826.342 1.39302 1.37311 0
M  V30 8805 O 827.548 1.83189 2.00385 0
M  V30 8806 C 826.004 3.59725 0.112261 0
M  V30 8807 C 825.612 4.31069 -1.21999 0
M  V30 8808 C 827.356 4.20155 0.605798 0
M  V30 8809 C 825.263 5.81001 -1.10415 0
M  V30 8810 H 824.193 0.753814 0.0167355 0
M  V30 8811 H 826.844 1.7162 -0.649518 0
M  V30 8812 H 825.226 3.86525 0.861087 0
M  V30 8813 H 826.4 4.15962 -1.98273 0
M  V30 8814 H 824.715 3.82418 -1.64759 0
M  V30 8815 H 827.312 5.29964 0.710102 0
M  V30 8816 H 827.655 3.84051 1.60656 0
M  V30 8817 H 828.188 3.97705 -0.0867239 0
M  V30 8818 H 824.927 6.21643 -2.07941 0
M  V30 8819 H 824.447 5.9858 -0.382428 0
M  V30 8820 H 826.126 6.42207 -0.786116 0
M  V30 8821 N 826.258 0.243083 1.55714 0
M  V30 8822 C 827.498 -0.384303 2.00755 0
M  V30 8823 C 827.862 -1.55406 1.12752 0
M  V30 8824 O 829.063 -2.24892 1.47231 0
M  V30 8825 C 827.334 -0.787419 3.48618 0
M  V30 8826 S 828.893 -1.40587 4.15669 0
M  V30 8827 H 825.711 -0.121088 0.700613 0
M  V30 8828 H 828.313 0.357423 1.92205 0
M  V30 8829 H 827.017 0.0732892 4.10335 0
M  V30 8830 H 826.548 -1.56142 3.61086 0
M  V30 8831 H 828.563 -2.69493 4.16639 0
M  V30 8832 N 827.736 -1.57571 -0.0300757 0
M  V30 8833 C 828.683 -2.06492 -1.03101 0
M  V30 8834 C 829.653 -0.953862 -1.3598 0
M  V30 8835 O 830.838 -1.22436 -1.46335 0
M  V30 8836 C 827.978 -2.54826 -2.32718 0
M  V30 8837 C 827.091 -3.79718 -2.06006 0
M  V30 8838 C 826.226 -4.16668 -3.29487 0
M  V30 8839 C 825.265 -5.3448 -2.98324 0
M  V30 8840 N 824.402 -5.66867 -4.14254 0
M  V30 8841 H 829.242 -2.91755 -0.606877 0
M  V30 8842 H 826.779 -1.44252 -0.288038 0
M  V30 8843 H 828.737 -2.80916 -3.08451 0
M  V30 8844 H 827.367 -1.72481 -2.72856 0
M  V30 8845 H 826.419 -3.60718 -1.20774 0
M  V30 8846 H 827.731 -4.65569 -1.79017 0
M  V30 8847 H 826.885 -4.43881 -4.13588 0
M  V30 8848 H 825.624 -3.29466 -3.59588 0
M  V30 8849 H 824.629 -5.07021 -2.12625 0
M  V30 8850 H 825.854 -6.23334 -2.69502 0
M  V30 8851 H 823.8 -4.82625 -4.44308 0
M  V30 8852 H 823.717 -6.47226 -3.90685 0
M  V30 8853 H 824.985 -5.98656 -4.99231 0
M  V30 8854 N 829.214 0.302327 -1.54673 0
M  V30 8855 C 830.161 1.37282 -1.85532 0
M  V30 8856 C 831.131 1.50437 -0.704129 0
M  V30 8857 O 832.316 1.65317 -0.952627 0
M  V30 8858 C 829.456 2.73309 -2.10704 0
M  V30 8859 C 828.569 2.68614 -3.38335 0
M  V30 8860 C 827.704 3.96626 -3.53357 0
M  V30 8861 C 826.743 3.86324 -4.74784 0
M  V30 8862 N 825.88 5.06109 -4.86619 0
M  V30 8863 H 830.72 1.10265 -2.76849 0
M  V30 8864 H 828.257 0.533346 -1.37091 0
M  V30 8865 H 830.215 3.52414 -2.23294 0
M  V30 8866 H 828.845 2.98589 -1.22656 0
M  V30 8867 H 827.897 1.81381 -3.34373 0
M  V30 8868 H 829.209 2.56891 -4.27561 0
M  V30 8869 H 828.363 4.84168 -3.65604 0
M  V30 8870 H 827.102 4.11182 -2.62261 0
M  V30 8871 H 826.107 2.97166 -4.62572 0
M  V30 8872 H 827.332 3.73315 -5.67286 0
M  V30 8873 H 825.278 5.2113 -3.98446 0
M  V30 8874 H 825.195 4.96804 -5.69844 0
M  V30 8875 H 826.463 5.95306 -5.03221 0
M  V30 8876 N 830.692 1.47107 0.565454 0
M  V30 8877 C 831.94 1.53005 1.32038 0
M  V30 8878 C 832.261 0.190453 1.94068 0
M  V30 8879 O 831.531 -0.784783 1.79494 0
M  V30 8880 H 830.111 0.563578 0.490294 0
M  V30 8881 H 832.773 1.83351 0.660928 0
M  V30 8882 H 831.869 2.29215 2.11818 0
M  V30 8883 N 832.17 -0.811516 1.35101 0
M  V30 8884 C 833.395 -1.60499 1.31358 0
M  V30 8885 C 833.82 -1.87793 -0.107383 0
M  V30 8886 O 833.178 -1.46161 -1.07268 0
M  V30 8887 C 833.226 -2.91612 2.12119 0
M  V30 8888 O 832.33 -3.84211 1.49853 0
M  V30 8889 H 831.671 -0.487702 0.450603 0
M  V30 8890 H 834.201 -1.00758 1.7807 0
M  V30 8891 H 834.211 -3.4108 2.23894 0
M  V30 8892 H 832.886 -2.71071 3.15426 0
M  V30 8893 H 831.463 -3.42751 1.46889 0
M  V30 8894 N 833.648 -1.19017 -1.03309 0
M  V30 8895 C 834.578 -0.94772 -2.13402 0
M  V30 8896 C 835.559 0.117383 -1.69694 0
M  V30 8897 O 836.744 -0.0367733 -1.94165 0
M  V30 8898 C 833.874 -0.480977 -3.43953 0
M  V30 8899 C 832.828 -1.48743 -4.01322 0
M  V30 8900 C 832.154 -0.877924 -5.27443 0
M  V30 8901 C 833.454 -2.86642 -4.36616 0
M  V30 8902 H 835.148 -1.86846 -2.33942 0
M  V30 8903 H 832.694 -0.899781 -1.12427 0
M  V30 8904 H 834.647 -0.298677 -4.2034 0
M  V30 8905 H 833.371 0.475348 -3.23122 0
M  V30 8906 H 832.03 -1.65681 -3.27025 0
M  V30 8907 H 831.678 0.0858232 -5.02927 0
M  V30 8908 H 831.378 -1.54996 -5.66789 0
M  V30 8909 H 832.902 -0.706326 -6.06501 0
M  V30 8910 H 834.316 -2.73312 -5.03958 0
M  V30 8911 H 832.713 -3.50599 -4.87032 0
M  V30 8912 H 833.783 -3.39617 -3.46105 0
M  V30 8913 N 835.127 1.22348 -0.993418 0
M  V30 8914 C 836.077 2.221 -0.515333 0
M  V30 8915 C 837.061 1.55409 0.416762 0
M  V30 8916 O 838.253 1.75317 0.243497 0
M  V30 8917 C 835.382 3.42888 0.168173 0
M  V30 8918 C 834.468 4.16786 -0.784257 0
M  V30 8919 N 834.859 4.67435 -1.93231 0
M  V30 8920 C 833.157 4.41942 -0.600243 0
M  V30 8921 C 833.858 5.23792 -2.53016 0
M  V30 8922 N 832.834 5.12483 -1.8128 0
M  V30 8923 H 836.636 2.58902 -1.39093 0
M  V30 8924 H 834.15 1.38024 -0.855747 0
M  V30 8925 H 836.147 4.13542 0.528069 0
M  V30 8926 H 834.807 3.07598 1.03989 0
M  V30 8927 H 835.818 4.63375 -2.31309 0
M  V30 8928 H 832.495 4.16891 0.225369 0
M  V30 8929 H 833.885 5.73515 -3.50043 0
M  V30 8930 N 836.605 0.766683 1.37694 0
M  V30 8931 C 837.568 0.155849 2.2867 0
M  V30 8932 C 838.568 -0.633509 1.47795 0
M  V30 8933 O 839.758 -0.457844 1.68076 0
M  V30 8934 C 836.89 -0.786965 3.31692 0
M  V30 8935 H 838.083 0.957748 2.84196 0
M  V30 8936 H 835.636 0.534554 1.46875 0
M  V30 8937 H 836.371 -1.61406 2.8128 0
M  V30 8938 H 836.156 -0.223182 3.91464 0
M  V30 8939 H 837.646 -1.20994 3.99688 0
M  V30 8940 N 838.083 -1.48885 0.516809 0
M  V30 8941 C 839.031 -2.31066 -0.266656 0
M  V30 8942 C 840.025 -1.40393 -0.94795 0
M  V30 8943 O 841.231 -1.57366 -0.873836 0
M  V30 8944 H 837.606 -0.744654 -0.104858 0
M  V30 8945 H 839.577 -2.95045 0.446236 0
M  V30 8946 C 838.326 -3.22131 -1.3087 0
M  V30 8947 H 837.649 -3.91839 -0.793865 0
M  V30 8948 H 839.089 -3.82544 -1.82856 0
M  V30 8949 C 837.548 -2.42825 -2.33533 0
M  V30 8950 O 838.078 -2.14364 -3.39722 0
M  V30 8951 N 836.284 -2.04559 -2.06407 0
M  V30 8952 H 835.831 -2.27905 -1.20071 0
M  V30 8953 H 835.789 -1.51807 -2.75322 0
M  V30 8954 N 839.561 -0.251338 -1.55583 0
M  V30 8955 C 840.809 0.371434 -1.98657 0
M  V30 8956 C 841.13 1.58143 -1.14087 0
M  V30 8957 O 840.4 1.94607 -0.224708 0
M  V30 8958 H 838.98 0.140225 -0.733721 0
M  V30 8959 H 841.642 -0.351157 -1.9171 0
M  V30 8960 H 840.738 0.677554 -3.04657 0
M  V30 8961 N 841.039 1.57585 0.0217189 0
M  V30 8962 C 842.455 1.55072 0.377484 0
M  V30 8963 C 842.655 0.978423 1.76151 0
M  V30 8964 O 841.711 0.602688 2.45202 0
M  V30 8965 C 843.024 2.99462 0.272605 0
M  V30 8966 C 844.572 3.11047 0.349148 0
M  V30 8967 C 845.047 4.57182 0.273636 0
M  V30 8968 N 846.538 4.62007 0.332206 0
M  V30 8969 C 847.273 5.72631 0.296782 0
M  V30 8970 N 846.769 6.92472 0.21322 0
M  V30 8971 N 848.562 5.61028 0.347053 0
M  V30 8972 H 840.713 1.93133 -0.883925 0
M  V30 8973 H 842.976 0.886151 -0.33681 0
M  V30 8974 H 842.682 3.45088 -0.67878 0
M  V30 8975 H 842.556 3.61901 1.06335 0
M  V30 8976 H 844.943 2.65364 1.29097 0
M  V30 8977 H 845.024 2.51425 -0.471085 0
M  V30 8978 H 844.668 5.03534 -0.664548 0
M  V30 8979 H 844.598 5.14724 1.11207 0
M  V30 8980 H 847.089 3.75788 0.399003 0
M  V30 8981 H 847.402 7.72563 0.191492 0
M  V30 8982 H 845.747 6.94769 0.179161 0
M  V30 8983 H 848.938 4.66298 0.410378 0
M  V30 8984 H 849.111 6.47229 0.315979 0
M  V30 8985 N 842.517 -0.29412 1.54831 0
M  V30 8986 C 843.449 -1.38476 1.82639 0
M  V30 8987 C 844.462 -1.46517 0.709694 0
M  V30 8988 O 845.651 -1.48712 0.987269 0
M  V30 8989 C 842.751 -2.76791 1.95551 0
M  V30 8990 C 841.924 -2.91599 3.26019 0
M  V30 8991 C 840.983 -4.10456 3.29261 0
M  V30 8992 O 840.009 -4.02214 4.02756 0
M  V30 8993 N 841.211 -5.21422 2.55145 0
M  V30 8994 H 843.976 -1.14974 2.76769 0
M  V30 8995 H 841.537 -0.484206 1.5449 0
M  V30 8996 H 843.529 -3.5456 1.95113 0
M  V30 8997 H 842.099 -2.93209 1.08384 0
M  V30 8998 H 841.319 -2.00886 3.39173 0
M  V30 8999 H 842.607 -2.98409 4.12104 0
M  V30 9000 H 842.005 -5.31 1.95078 0
M  V30 9001 H 840.562 -5.97501 2.60454 0
M  V30 9002 N 843.995 -1.47404 -0.557645 0
M  V30 9003 C 844.942 -1.59859 -1.66475 0
M  V30 9004 C 845.912 -0.441644 -1.60121 0
M  V30 9005 O 847.097 -0.661641 -1.78961 0
M  V30 9006 C 844.237 -1.61843 -3.04797 0
M  V30 9007 C 843.35 -2.8845 -3.2159 0
M  V30 9008 C 842.485 -2.81773 -4.50308 0
M  V30 9009 C 841.524 -4.03208 -4.60532 0
M  V30 9010 N 840.661 -3.94769 -5.80604 0
M  V30 9011 H 845.501 -2.54415 -1.55168 0
M  V30 9012 H 843.038 -1.26194 -0.755876 0
M  V30 9013 H 844.996 -1.60976 -3.84893 0
M  V30 9014 H 843.626 -0.707997 -3.1494 0
M  V30 9015 H 842.678 -2.99186 -2.34929 0
M  V30 9016 H 843.99 -3.78379 -3.25009 0
M  V30 9017 H 843.144 -2.79153 -5.38663 0
M  V30 9018 H 841.883 -1.89527 -4.49367 0
M  V30 9019 H 840.888 -4.06133 -3.70589 0
M  V30 9020 H 842.113 -4.9658 -4.63233 0
M  V30 9021 H 840.059 -3.05326 -5.80613 0
M  V30 9022 H 839.976 -4.78375 -5.854 0
M  V30 9023 H 841.244 -3.96165 -6.71322 0
M  V30 9024 N 845.473 0.80434 -1.35529 0
M  V30 9025 C 846.75 1.5486 -1.1949 0
M  V30 9026 C 847.13 2.09897 0.22506 0
M  V30 9027 O 846.478 1.92643 1.22886 0
M  V30 9028 C 846.688 2.65535 -2.26478 0
M  V30 9029 C 848.036 3.33814 -2.62399 0
M  V30 9030 O 849.06 2.75807 -2.25409 0
M  V30 9031 O 847.919 4.38612 -3.26009 0
M  V30 9032 H 845.013 0.68433 -0.464351 0
M  V30 9033 H 847.559 0.844107 -1.47217 0
M  V30 9034 H 846.331 2.22754 -3.21709 0
M  V30 9035 H 845.954 3.43617 -2.00033 0
M  V30 9036 N 846.951 1.19563 1.02676 0
M  V30 9037 C 848.197 1.00105 1.76371 0
M  V30 9038 C 848.53 -0.466823 1.88506 0
M  V30 9039 O 847.805 -1.34665 1.40341 0
M  V30 9040 C 848.088 1.67321 3.18866 0
M  V30 9041 C 847.941 3.21486 3.1459 0
M  V30 9042 C 849.26 1.39794 4.17308 0
M  V30 9043 H 846.379 0.365075 0.640226 0
M  V30 9044 H 849.021 1.47433 1.19848 0
M  V30 9045 H 847.171 1.27081 3.67128 0
M  V30 9046 H 848.843 3.70953 2.7421 0
M  V30 9047 H 847.086 3.5292 2.52249 0
M  V30 9048 H 847.757 3.63665 4.15273 0
M  V30 9049 H 850.233 1.74685 3.77657 0
M  V30 9050 H 849.109 1.89371 5.15199 0
M  V30 9051 H 849.37 0.323505 4.40915 0
M  V30 9052 N 848.429 -1.21819 0.999893 0
M  V30 9053 C 849.706 -1.86318 0.595384 0
M  V30 9054 C 850.086 -1.8965 -0.927143 0
M  V30 9055 O 849.434 -1.3921 -1.81199 0
M  V30 9056 C 849.644 -3.26837 1.22387 0
M  V30 9057 C 850.992 -4.03272 1.32878 0
M  V30 9058 O 852.016 -3.36129 1.1788 0
M  V30 9059 O 850.875 -5.23477 1.56952 0
M  V30 9060 H 847.969 -0.801638 0.203238 0
M  V30 9061 H 850.515 -1.29542 1.09622 0
M  V30 9062 H 849.287 -3.19084 2.26497 0
M  V30 9063 H 848.91 -3.91226 0.709069 0
M  V30 9064 N 849.908 -0.773975 -1.37286 0
M  V30 9065 C 850.855 -0.159938 -2.30245 0
M  V30 9066 C 851.825 0.687356 -1.51211 0
M  V30 9067 O 853.01 0.639255 -1.79773 0
M  V30 9068 C 850.15 0.711452 -3.37687 0
M  V30 9069 C 849.263 -0.152692 -4.3173 0
M  V30 9070 C 848.398 0.723613 -5.26248 0
M  V30 9071 C 847.437 -0.14293 -6.11933 0
M  V30 9072 N 846.574 0.691479 -6.98687 0
M  V30 9073 H 851.414 -0.958182 -2.82175 0
M  V30 9074 H 848.951 -0.48411 -1.38906 0
M  V30 9075 H 850.909 1.2315 -3.9861 0
M  V30 9076 H 849.539 1.47528 -2.87116 0
M  V30 9077 H 848.591 -0.790574 -3.72094 0
M  V30 9078 H 849.903 -0.821027 -4.91997 0
M  V30 9079 H 849.057 1.31006 -5.92387 0
M  V30 9080 H 847.796 1.42562 -4.66398 0
M  V30 9081 H 846.801 -0.7419 -5.44771 0
M  V30 9082 H 848.026 -0.842305 -6.73856 0
M  V30 9083 H 845.972 1.37806 -6.41362 0
M  V30 9084 H 845.889 0.0804911 -7.55957 0
M  V30 9085 H 847.157 1.26225 -7.69212 0
M  V30 9086 N 851.386 1.48609 -0.524698 0
M  V30 9087 C 852.296 2.33318 0.244923 0
M  V30 9088 C 853.312 1.46153 0.944214 0
M  V30 9089 O 854.488 1.79141 0.920347 0
M  V30 9090 C 851.553 3.22149 1.28144 0
M  V30 9091 C 850.614 4.25184 0.593068 0
M  V30 9092 C 849.847 5.0977 1.5802 0
M  V30 9093 O 850.07 4.96249 2.81235 0
M  V30 9094 O 849.004 5.9134 1.1225 0
M  V30 9095 H 852.83 3.00362 -0.449066 0
M  V30 9096 H 850.415 1.46643 -0.285689 0
M  V30 9097 H 852.297 3.77111 1.88057 0
M  V30 9098 H 850.972 2.57772 1.95793 0
M  V30 9099 H 849.879 3.74071 -0.0464214 0
M  V30 9100 H 851.212 4.92183 -0.0413893 0
M  V30 9101 N 852.864 0.259585 1.55447 0
M  V30 9102 C 854.111 -0.361607 1.99245 0
M  V30 9103 C 854.439 -1.57017 1.14787 0
M  V30 9104 O 853.694 -1.94658 0.201724 0
M  V30 9105 C 853.993 -0.802727 3.48269 0
M  V30 9106 C 853.659 0.299472 4.49904 0
M  V30 9107 C 852.321 0.602157 4.77418 0
M  V30 9108 C 854.673 1.04295 5.10658 0
M  V30 9109 C 852.001 1.65217 5.62957 0
M  V30 9110 C 854.353 2.08257 5.97337 0
M  V30 9111 C 853.017 2.39177 6.23178 0
M  V30 9112 H 852.287 -0.132322 0.72909 0
M  V30 9113 H 854.934 0.370059 1.8789 0
M  V30 9114 H 853.239 -1.61381 3.5702 0
M  V30 9115 H 854.936 -1.29385 3.79553 0
M  V30 9116 H 851.526 0.0534256 4.28567 0
M  V30 9117 H 855.71 0.822358 4.89439 0
M  V30 9118 H 850.966 1.89692 5.81229 0
M  V30 9119 H 855.14 2.6635 6.43452 0
M  V30 9120 H 852.767 3.20677 6.89253 0
M  V30 9121 N 854.342 -1.57594 -0.0133615 0
M  V30 9122 C 855.572 -1.93969 -0.711295 0
M  V30 9123 C 855.98 -0.859084 -1.68572 0
M  V30 9124 O 855.323 0.171842 -1.82894 0
M  V30 9125 C 855.385 -3.2625 -1.51001 0
M  V30 9126 C 855.049 -4.51628 -0.698645 0
M  V30 9127 C 856.046 -5.19899 0.00791185 0
M  V30 9128 C 853.731 -4.98095 -0.648553 0
M  V30 9129 C 855.725 -6.32928 0.753691 0
M  V30 9130 C 853.412 -6.11017 0.10096 0
M  V30 9131 C 854.41 -6.78289 0.800828 0
M  V30 9132 O 854.098 -7.89048 1.53814 0
M  V30 9133 H 853.83 -0.6445 -0.203951 0
M  V30 9134 H 856.384 -2.05378 0.0298267 0
M  V30 9135 H 854.614 -3.11211 -2.29531 0
M  V30 9136 H 856.303 -3.47835 -2.09202 0
M  V30 9137 H 857.069 -4.84995 -0.0217192 0
M  V30 9138 H 852.948 -4.45568 -1.18282 0
M  V30 9139 H 856.492 -6.85371 1.3005 0
M  V30 9140 H 852.389 -6.45364 0.132459 0
M  V30 9141 H 853.157 -8.05492 1.45345 0
M  V30 9142 N 855.82 0.285905 -1.54985 0
M  V30 9143 C 856.75 1.35752 -1.89983 0
M  V30 9144 C 857.731 1.52163 -0.760295 0
M  V30 9145 O 858.916 1.65421 -1.01733 0
M  V30 9146 C 856.046 2.71925 -2.16042 0
M  V30 9147 C 855 2.70261 -3.31878 0
M  V30 9148 C 854.326 4.09864 -3.43388 0
M  V30 9149 C 855.626 2.30667 -4.68604 0
M  V30 9150 H 857.32 1.06709 -2.79738 0
M  V30 9151 H 854.866 0.511884 -1.34595 0
M  V30 9152 H 856.819 3.46992 -2.39113 0
M  V30 9153 H 855.543 3.02523 -1.23074 0
M  V30 9154 H 854.202 1.97651 -3.08755 0
M  V30 9155 H 853.85 4.37664 -2.47909 0
M  V30 9156 H 853.55 4.09648 -4.21262 0
M  V30 9157 H 855.074 4.86689 -3.68736 0
M  V30 9158 H 856.488 2.95453 -4.91305 0
M  V30 9159 H 854.885 2.41637 -5.49301 0
M  V30 9160 H 855.955 1.25793 -4.68299 0
M  V30 9161 N 857.298 1.47698 0.54982 0
M  V30 9162 C 858.545 1.54702 1.30665 0
M  V30 9163 C 858.873 0.212418 1.93337 0
M  V30 9164 O 858.128 -0.79543 1.78805 0
M  V30 9165 C 858.427 2.61903 2.4319 0
M  V30 9166 C 858.093 4.04953 1.98302 0
M  V30 9167 C 856.755 4.43893 1.85776 0
M  V30 9168 C 859.107 4.94682 1.64133 0
M  V30 9169 C 856.435 5.70387 1.37388 0
M  V30 9170 C 858.787 6.21646 1.17214 0
M  V30 9171 C 857.451 6.5946 1.0329 0
M  V30 9172 H 856.721 0.566096 0.478139 0
M  V30 9173 H 859.368 1.8133 0.615767 0
M  V30 9174 H 857.673 2.2906 3.17866 0
M  V30 9175 H 859.37 2.64543 3.0136 0
M  V30 9176 H 855.96 3.74191 2.08995 0
M  V30 9177 H 860.144 4.65291 1.72679 0
M  V30 9178 H 855.4 5.98427 1.25278 0
M  V30 9179 H 859.574 6.90581 0.898391 0
M  V30 9180 H 857.201 7.57367 0.655735 0
M  V30 9181 N 858.776 -0.797141 1.35954 0
M  V30 9182 C 860.187 -1.37179 1.26644 0
M  V30 9183 C 860.538 -1.9596 -0.0971046 0
M  V30 9184 O 859.663 -1.91994 -0.998355 0
M  V30 9185 C 860.258 -2.49395 2.2932 0
M  V30 9186 C 858.817 -3.02697 2.23722 0
M  V30 9187 C 857.964 -1.75721 2.14517 0
M  V30 9188 H 860.915 -0.599407 1.46945 0
M  V30 9189 H 860.936 -3.28204 1.92515 0
M  V30 9190 H 860.448 -2.06584 3.2855 0
M  V30 9191 H 858.549 -3.49948 1.27934 0
M  V30 9192 H 858.662 -3.60036 3.16087 0
M  V30 9193 H 857.026 -1.97649 1.60646 0
M  V30 9194 H 857.809 -1.35049 3.15621 0
M  V30 9195 N 860.254 -1.20106 -1.0204 0
M  V30 9196 C 861.482 -1.0344 -1.79186 0
M  V30 9197 C 861.897 0.416542 -1.84148 0
M  V30 9198 O 861.254 1.28925 -1.29168 0
M  V30 9199 C 861.305 -1.60663 -3.23836 0
M  V30 9200 O 861.026 -3.00079 -3.19193 0
M  V30 9201 C 862.527 -1.48897 -4.17546 0
M  V30 9202 H 859.747 -0.364093 -0.563629 0
M  V30 9203 H 862.291 -1.5911 -1.28469 0
M  V30 9204 H 860.446 -1.09122 -3.71714 0
M  V30 9205 H 860.86 -3.27162 -4.09958 0
M  V30 9206 H 862.334 -1.93703 -5.16898 0
M  V30 9207 H 862.811 -0.440843 -4.36982 0
M  V30 9208 H 863.417 -1.9961 -3.75547 0
M  V30 9209 N 861.732 1.21287 -1.00634 0
M  V30 9210 C 862.978 1.90671 -0.690822 0
M  V30 9211 C 863.311 1.77996 0.776592 0
M  V30 9212 O 862.586 1.15748 1.5631 0
M  V30 9213 C 862.869 3.42426 -1.11428 0
M  V30 9214 C 862.722 3.64086 -2.64124 0
M  V30 9215 C 864.041 4.34851 -0.677686 0
M  V30 9216 H 861.16 0.692419 -0.252439 0
M  V30 9217 H 863.802 1.42893 -1.25226 0
M  V30 9218 H 861.952 3.83249 -0.636586 0
M  V30 9219 H 863.624 3.32582 -3.19667 0
M  V30 9220 H 861.867 3.07906 -3.05576 0
M  V30 9221 H 862.538 4.7042 -2.88806 0
M  V30 9222 H 865.014 4.01619 -1.0882 0
M  V30 9223 H 863.89 5.39675 -1.00213 0
M  V30 9224 H 864.151 4.4009 0.421125 0
M  V30 9225 N 863.21 0.781244 1.36873 0
M  V30 9226 C 864.457 0.349889 1.99454 0
M  V30 9227 C 864.785 -1.07621 1.62013 0
M  V30 9228 O 864.04 -1.75665 0.86258 0
M  V30 9229 C 864.339 0.45146 3.54537 0
M  V30 9230 C 864.005 1.83718 4.11775 0
M  V30 9231 C 862.667 2.21634 4.2712 0
M  V30 9232 C 865.019 2.7449 4.43063 0
M  V30 9233 C 862.347 3.49742 4.7106 0
M  V30 9234 C 864.699 4.02017 4.88431 0
M  V30 9235 C 863.363 4.39967 5.01982 0
M  V30 9236 H 862.633 0.128033 0.729855 0
M  V30 9237 H 865.28 0.997117 1.63493 0
M  V30 9238 H 863.585 -0.279288 3.90803 0
M  V30 9239 H 865.282 0.0988609 4.00878 0
M  V30 9240 H 861.872 1.53251 4.00265 0
M  V30 9241 H 866.056 2.46453 4.30783 0
M  V30 9242 H 861.312 3.79026 4.79738 0
M  V30 9243 H 865.486 4.72475 5.11605 0
M  V30 9244 H 863.113 5.39291 5.35788 0
M  V30 9245 N 864.689 -1.48329 0.532571 0
M  V30 9246 C 865.966 -1.95492 -0.0650985 0
M  V30 9247 C 866.346 -1.47485 -1.51034 0
M  V30 9248 O 865.694 -0.702516 -2.17433 0
M  V30 9249 C 865.904 -3.48957 0.0548341 0
M  V30 9250 C 867.252 -4.24475 -0.103115 0
M  V30 9251 O 868.276 -3.56195 -0.0188343 0
M  V30 9252 O 867.135 -5.45781 -0.280164 0
M  V30 9253 H 864.229 -0.823327 -0.0778603 0
M  V30 9254 H 866.775 -1.58839 0.597353 0
M  V30 9255 H 865.547 -3.76628 1.06148 0
M  V30 9256 H 865.17 -3.92311 -0.64635 0
M  V30 9257 N 866.167 -0.267825 -1.55308 0
M  V30 9258 C 867.077 0.633055 -2.25897 0
M  V30 9259 C 868.093 1.17613 -1.28231 0
M  V30 9260 O 869.269 1.20797 -1.61153 0
M  V30 9261 C 866.334 1.80397 -2.96071 0
M  V30 9262 C 865.395 1.29829 -4.09198 0
M  V30 9263 C 864.628 2.4134 -4.76016 0
M  V30 9264 O 864.851 3.60537 -4.42006 0
M  V30 9265 O 863.785 2.09909 -5.64111 0
M  V30 9266 H 867.611 0.0614381 -3.03638 0
M  V30 9267 H 865.196 -0.0355072 -1.49358 0
M  V30 9268 H 867.078 2.48685 -3.40197 0
M  V30 9269 H 865.753 2.36281 -2.21253 0
M  V30 9270 H 864.66 0.582086 -3.69544 0
M  V30 9271 H 865.993 0.785288 -4.85895 0
M  V30 9272 N 867.645 1.57599 0.00500368 0
M  V30 9273 C 868.593 2.09223 1.01628 0
M  V30 9274 C 869.587 1.01113 1.35913 0
M  V30 9275 O 870.793 1.19583 1.34536 0
M  V30 9276 H 867.168 0.667999 0.345372 0
M  V30 9277 H 869.139 2.93188 0.555274 0
M  V30 9278 C 867.888 2.60674 2.30097 0
M  V30 9279 H 867.211 3.43491 2.04582 0
M  V30 9280 H 868.651 3.00479 2.99146 0
M  V30 9281 C 867.11 1.51862 3.00731 0
M  V30 9282 O 867.64 0.898651 3.91519 0
M  V30 9283 N 865.846 1.24729 2.62471 0
M  V30 9284 H 865.393 1.7533 1.88725 0
M  V30 9285 H 865.351 0.521437 3.10046 0
M  V30 9286 N 869.123 -0.277682 1.55134 0
M  V30 9287 C 870.033 -1.36524 1.90783 0
M  V30 9288 C 871.049 -1.54283 0.804542 0
M  V30 9289 O 872.225 -1.68499 1.10318 0
M  V30 9290 C 869.29 -2.70524 2.16835 0
M  V30 9291 C 868.351 -2.61552 3.40424 0
M  V30 9292 C 867.584 -3.89162 3.65224 0
M  V30 9293 O 867.807 -4.89624 2.92616 0
M  V30 9294 O 866.741 -3.89647 4.58758 0
M  V30 9295 H 870.567 -1.0929 2.83354 0
M  V30 9296 H 868.152 -0.475799 1.41621 0
M  V30 9297 H 870.034 -3.49765 2.35038 0
M  V30 9298 H 868.709 -2.97555 1.27448 0
M  V30 9299 H 867.616 -1.80704 3.27562 0
M  V30 9300 H 868.949 -2.39472 4.30016 0
M  V30 9301 N 870.601 -1.47988 -0.541979 0
M  V30 9302 C 871.826 -1.59286 -1.32826 0
M  V30 9303 C 872.251 -0.24894 -1.86445 0
M  V30 9304 O 871.609 0.777581 -1.63778 0
M  V30 9305 C 871.657 -2.6334 -2.46343 0
M  V30 9306 O 870.761 -2.19667 -3.49028 0
M  V30 9307 H 870.102 -0.534543 -0.393903 0
M  V30 9308 H 872.632 -1.93885 -0.653427 0
M  V30 9309 H 872.642 -2.84238 -2.92699 0
M  V30 9310 H 871.317 -3.60913 -2.06675 0
M  V30 9311 H 869.894 -2.08932 -3.08872 0
M  V30 9312 N 872.079 0.78992 -1.36375 0
M  V30 9313 C 873.009 1.91683 -1.33341 0
M  V30 9314 C 873.99 1.68861 -0.204965 0
M  V30 9315 O 875.175 1.89982 -0.402531 0
M  V30 9316 C 872.305 3.28696 -1.12143 0
M  V30 9317 C 871.259 3.66041 -2.21806 0
M  V30 9318 C 870.585 5.01399 -1.85751 0
M  V30 9319 C 871.885 3.74677 -3.63888 0
M  V30 9320 H 873.579 1.94478 -2.27637 0
M  V30 9321 H 871.125 0.934271 -1.09578 0
M  V30 9322 H 873.078 4.07151 -1.08656 0
M  V30 9323 H 871.802 3.26287 -0.142974 0
M  V30 9324 H 870.461 2.89883 -2.24418 0
M  V30 9325 H 870.109 4.9551 -0.864817 0
M  V30 9326 H 869.809 5.27355 -2.59173 0
M  V30 9327 H 871.333 5.82274 -1.83819 0
M  V30 9328 H 872.747 4.43324 -3.63506 0
M  V30 9329 H 871.144 4.12118 -4.3621 0
M  V30 9330 H 872.214 2.75795 -3.9883 0
M  V30 9331 N 873.557 1.20646 1.01402 0
M  V30 9332 C 874.487 0.98155 2.11867 0
M  V30 9333 C 875.468 -0.0903712 1.6986 0
M  V30 9334 O 876.653 0.0676586 1.94082 0
M  V30 9335 C 873.783 0.535636 3.43145 0
M  V30 9336 C 872.737 1.55109 3.98905 0
M  V30 9337 C 872.063 0.961725 5.2598 0
M  V30 9338 C 873.363 2.93552 4.32001 0
M  V30 9339 H 875.057 1.90544 2.3094 0
M  V30 9340 H 872.603 0.917554 1.10982 0
M  V30 9341 H 874.556 0.365512 4.19812 0
M  V30 9342 H 873.28 -0.423882 3.23838 0
M  V30 9343 H 871.939 1.70862 3.24348 0
M  V30 9344 H 871.587 -0.00580108 5.03 0
M  V30 9345 H 871.287 1.63993 5.64252 0
M  V30 9346 H 872.811 0.802726 6.053 0
M  V30 9347 H 874.225 2.81295 4.99546 0
M  V30 9348 H 872.622 3.58303 4.81393 0
M  V30 9349 H 873.692 3.4508 3.40658 0
M  V30 9350 N 875.035 -1.20752 1.01276 0
M  V30 9351 C 875.965 -2.25658 0.600064 0
M  V30 9352 C 876.946 -1.65733 -0.38298 0
M  V30 9353 O 878.131 -1.92324 -0.269256 0
M  V30 9354 C 875.261 -3.47237 -0.0663197 0
M  V30 9355 C 874.215 -4.1973 0.83731 0
M  V30 9356 C 873.541 -5.34687 0.0369102 0
M  V30 9357 C 874.841 -4.76286 2.14357 0
M  V30 9358 H 876.535 -2.60432 1.477 0
M  V30 9359 H 874.081 -1.25187 0.711634 0
M  V30 9360 H 876.034 -4.19803 -0.366563 0
M  V30 9361 H 874.758 -3.11615 -0.977944 0
M  V30 9362 H 873.417 -3.49024 1.1215 0
M  V30 9363 H 873.065 -4.95309 -0.876244 0
M  V30 9364 H 872.765 -5.84119 0.63865 0
M  V30 9365 H 874.289 -6.10059 -0.256968 0
M  V30 9366 H 875.703 -5.40691 1.90595 0
M  V30 9367 H 874.1 -5.36139 2.69583 0
M  V30 9368 H 875.17 -3.9524 2.80916 0
M  V30 9369 N 876.513 -0.788492 -1.36457 0
M  V30 9370 C 877.423 -0.187385 -2.3385 0
M  V30 9371 C 878.439 0.659984 -1.60998 0
M  V30 9372 O 879.615 0.575986 -1.92988 0
M  V30 9373 C 876.68 0.668525 -3.40194 0
M  V30 9374 C 875.741 -0.197234 -4.28847 0
M  V30 9375 C 874.974 0.61792 -5.30111 0
M  V30 9376 O 875.197 1.85396 -5.3943 0
M  V30 9377 O 874.131 0.0183016 -6.01897 0
M  V30 9378 H 877.957 -0.992617 -2.87021 0
M  V30 9379 H 875.542 -0.549934 -1.3891 0
M  V30 9380 H 877.424 1.15663 -4.05216 0
M  V30 9381 H 876.099 1.45166 -2.89324 0
M  V30 9382 H 875.006 -0.73207 -3.66867 0
M  V30 9383 H 876.339 -0.943863 -4.83065 0
M  V30 9384 N 877.991 1.48044 -0.54043 0
M  V30 9385 C 879.268 1.95523 0.0547302 0
M  V30 9386 C 879.648 1.48284 1.5025 0
M  V30 9387 O 878.996 0.714037 2.17057 0
M  V30 9388 C 879.206 3.48923 -0.0733393 0
M  V30 9389 C 880.554 4.24523 0.0806026 0
M  V30 9390 O 881.578 3.562 -5.58687e-05 0
M  V30 9391 O 880.437 5.45922 0.251216 0
M  V30 9392 H 877.531 0.823728 0.073493 0
M  V30 9393 H 880.077 1.5852 -0.605768 0
M  V30 9394 H 878.849 3.76059 -1.08144 0
M  V30 9395 H 878.472 3.92648 0.625536 0
M  V30 9396 N 879.47 0.276058 1.55163 0
M  V30 9397 C 880.418 -0.626978 2.2399 0
M  V30 9398 C 881.412 -1.15708 1.23725 0
M  V30 9399 O 882.618 -1.1106 1.41653 0
M  V30 9400 H 878.993 -0.220742 0.718872 0
M  V30 9401 H 880.964 -0.0236569 2.98391 0
M  V30 9402 C 879.713 -1.79935 2.97521 0
M  V30 9403 H 879.036 -1.40064 3.74463 0
M  V30 9404 H 880.476 -2.40781 3.48999 0
M  V30 9405 C 878.935 -2.68838 2.03046 0
M  V30 9406 O 879.465 -3.69224 1.58229 0
M  V30 9407 N 877.671 -2.36028 1.69527 0
M  V30 9408 H 877.218 -1.54442 2.06169 0
M  V30 9409 H 877.176 -2.95782 1.06586 0
M  V30 9410 N 880.948 -1.576 0.00335426 0
M  V30 9411 C 882.197 -1.89892 -0.680001 0
M  V30 9412 C 882.51 -0.878731 -1.7475 0
M  V30 9413 O 883.716 -1.09199 -2.48572 0
M  V30 9414 C 882.172 -3.37098 -1.26066 0
M  V30 9415 C 881.78 -4.4742 -0.227807 0
M  V30 9416 C 883.524 -3.78495 -1.92202 0
M  V30 9417 C 881.431 -5.85706 -0.81865 0
M  V30 9418 H 880.361 -0.708578 -0.257746 0
M  V30 9419 H 883.012 -1.83387 0.0644472 0
M  V30 9420 H 881.394 -3.38451 -2.05589 0
M  V30 9421 H 882.568 -4.57589 0.54307 0
M  V30 9422 H 880.883 -4.15064 0.333297 0
M  V30 9423 H 883.48 -4.7915 -2.37318 0
M  V30 9424 H 883.823 -3.12187 -2.75399 0
M  V30 9425 H 884.356 -3.79456 -1.19408 0
M  V30 9426 H 881.095 -6.55495 -0.0253787 0
M  V30 9427 H 880.615 -5.79196 -1.55861 0
M  V30 9428 H 882.294 -6.33469 -1.31627 0
M  V30 9429 N 882.426 0.269451 -1.5528 0
M  V30 9430 C 883.842 0.616827 -1.47199 0
M  V30 9431 C 884.042 1.89354 -0.68901 0
M  V30 9432 O 883.098 2.51631 -0.209287 0
M  V30 9433 C 884.411 0.740492 -2.9144 0
M  V30 9434 C 885.959 0.834312 -3.01676 0
M  V30 9435 C 886.434 0.989725 -4.47178 0
M  V30 9436 N 887.925 1.05516 -4.51022 0
M  V30 9437 C 888.66 1.19427 -5.60825 0
M  V30 9438 N 888.156 1.30035 -6.80487 0
M  V30 9439 N 889.949 1.22566 -5.48575 0
M  V30 9440 H 882.1 -0.568962 -2.04638 0
M  V30 9441 H 884.363 -0.193153 -0.928114 0
M  V30 9442 H 884.069 -0.127234 -3.5147 0
M  V30 9443 H 883.943 1.61965 -3.40657 0
M  V30 9444 H 886.33 1.6925 -2.4174 0
M  V30 9445 H 886.411 -0.0695298 -2.55705 0
M  V30 9446 H 886.055 0.136179 -5.07717 0
M  V30 9447 H 885.985 1.90827 -4.90808 0
M  V30 9448 H 888.476 0.985434 -3.64825 0
M  V30 9449 H 888.789 1.40494 -7.59922 0
M  V30 9450 H 887.134 1.27033 -6.83292 0
M  V30 9451 H 890.325 1.13911 -4.54029 0
M  V30 9452 H 890.498 1.33063 -6.34191 0
M  V30 9453 N 883.904 1.48273 0.534124 0
M  V30 9454 C 884.837 1.57053 1.65559 0
M  V30 9455 C 885.815 0.421213 1.5705 0
M  V30 9456 O 886.999 0.632242 1.77581 0
M  V30 9457 C 884.126 1.49465 3.03937 0
M  V30 9458 C 883.172 2.69186 3.30819 0
M  V30 9459 S 884.005 4.31192 3.17543 0
M  V30 9460 C 885.161 4.26197 4.58375 0
M  V30 9461 H 885.394 2.51927 1.57861 0
M  V30 9462 H 882.927 1.36755 0.716763 0
M  V30 9463 H 884.885 1.45775 3.83745 0
M  V30 9464 H 883.546 0.559357 3.09079 0
M  V30 9465 H 882.739 2.60005 4.31756 0
M  V30 9466 H 882.341 2.70118 2.58674 0
M  V30 9467 H 884.633 3.95874 5.49809 0
M  V30 9468 H 885.576 5.27299 4.72611 0
M  V30 9469 H 885.984 3.56723 4.37503 0
M  V30 9470 N 885.382 -0.782676 1.36792 0
M  V30 9471 C 886.629 -1.54083 1.31395 0
M  V30 9472 C 886.957 -1.94217 -0.104797 0
M  V30 9473 O 886.212 -1.63491 -1.0756 0
M  V30 9474 C 886.511 -2.82542 2.18872 0
M  V30 9475 C 886.177 -2.61512 3.67317 0
M  V30 9476 C 884.839 -2.55486 4.07775 0
M  V30 9477 C 887.191 -2.42389 4.61407 0
M  V30 9478 C 884.519 -2.28311 5.40454 0
M  V30 9479 C 886.871 -2.1674 5.94312 0
M  V30 9480 C 885.535 -2.09151 6.33887 0
M  V30 9481 H 884.805 -0.563829 0.48081 0
M  V30 9482 H 887.452 -0.902436 1.68903 0
M  V30 9483 H 885.757 -3.50883 1.74323 0
M  V30 9484 H 887.454 -3.40367 2.12017 0
M  V30 9485 H 884.044 -2.67062 3.35225 0
M  V30 9486 H 888.228 -2.46043 4.31018 0
M  V30 9487 H 883.484 -2.20922 5.70091 0
M  V30 9488 H 887.658 -2.0094 6.6678 0
M  V30 9489 H 885.285 -1.87857 7.36623 0
M  V30 9490 N 886.86 -1.21182 -1.00761 0
M  V30 9491 C 888.088 -1.05335 -1.78079 0
M  V30 9492 C 888.503 0.396988 -1.84579 0
M  V30 9493 O 887.86 1.27548 -1.30529 0
M  V30 9494 C 887.911 -1.64089 -3.22113 0
M  V30 9495 O 887.632 -3.03448 -3.15992 0
M  V30 9496 C 889.133 -1.53318 -4.15943 0
M  V30 9497 H 886.353 -0.37005 -0.559736 0
M  V30 9498 H 888.897 -1.60463 -1.26775 0
M  V30 9499 H 887.052 -1.13059 -3.70535 0
M  V30 9500 H 887.466 -3.31492 -4.06465 0
M  V30 9501 H 888.94 -1.99174 -5.14814 0
M  V30 9502 H 889.417 -0.487166 -4.3649 0
M  V30 9503 H 890.023 -2.03582 -3.73409 0
M  V30 9504 N 888.338 1.20213 -1.01915 0
M  V30 9505 C 889.566 1.93622 -0.729255 0
M  V30 9506 C 889.981 1.74923 0.710444 0
M  V30 9507 O 889.338 1.06484 1.48214 0
M  V30 9508 C 889.389 3.45651 -1.05865 0
M  V30 9509 O 889.11 3.63741 -2.44181 0
M  V30 9510 C 890.611 4.36201 -0.790176 0
M  V30 9511 H 887.831 0.615333 -0.267594 0
M  V30 9512 H 890.375 1.52633 -1.36101 0
M  V30 9513 H 888.53 3.84511 -0.47225 0
M  V30 9514 H 888.944 4.57702 -2.56143 0
M  V30 9515 H 890.418 5.41516 -1.07071 0
M  V30 9516 H 890.895 4.38334 0.275609 0
M  V30 9517 H 891.501 4.03008 -1.35885 0
M  V30 9518 N 889.816 0.795718 1.36037 0
M  V30 9519 C 890.779 0.204318 2.28287 0
M  V30 9520 C 891.779 -0.602017 1.49105 0
M  V30 9521 O 892.969 -0.422089 1.69009 0
M  V30 9522 C 890.101 -0.716431 3.33287 0
M  V30 9523 H 891.294 1.01781 2.821 0
M  V30 9524 H 888.847 0.565588 1.45708 0
M  V30 9525 H 889.582 -1.55403 2.84641 0
M  V30 9526 H 889.367 -0.140096 3.9185 0
M  V30 9527 H 890.857 -1.12488 4.02164 0
M  V30 9528 N 891.294 -1.47756 0.548274 0
M  V30 9529 C 892.705 -1.8636 0.112547 0
M  V30 9530 C 893.056 -1.45589 -1.31523 0
M  V30 9531 O 892.181 -0.854874 -1.98799 0
M  V30 9532 C 892.776 -3.38224 0.197473 0
M  V30 9533 C 891.335 -3.75954 -0.183163 0
M  V30 9534 C 890.482 -2.7181 0.549059 0
M  V30 9535 H 893.433 -1.394 0.758506 0
M  V30 9536 H 893.454 -3.75957 -0.586217 0
M  V30 9537 H 892.966 -3.67868 1.23673 0
M  V30 9538 H 891.067 -3.51926 -1.22387 0
M  V30 9539 H 891.18 -4.78801 0.169178 0
M  V30 9540 H 889.544 -2.54699 -0.00682862 0
M  V30 9541 H 890.327 -3.04296 1.5893 0
M  V30 9542 N 892.772 -0.284283 -1.55015 0
M  V30 9543 C 894.049 0.382125 -1.91831 0
M  V30 9544 C 894.429 1.73007 -1.20962 0
M  V30 9545 O 893.777 2.25962 -0.339594 0
M  V30 9546 C 893.987 0.513341 -3.45204 0
M  V30 9547 C 895.335 0.791989 -4.17148 0
M  V30 9548 O 896.359 0.597799 -3.51148 0
M  V30 9549 O 895.218 1.16394 -5.33961 0
M  V30 9550 H 892.312 0.210707 -0.799707 0
M  V30 9551 H 894.858 -0.331111 -1.66438 0
M  V30 9552 H 893.63 -0.434911 -3.88876 0
M  V30 9553 H 893.253 1.27569 -3.76579 0
M  V30 9554 N 894.251 1.57596 -0.0117121 0
M  V30 9555 C 895.183 2.06025 1.0043 0
M  V30 9556 C 896.196 0.980348 1.29973 0
M  V30 9557 O 897.385 1.25691 1.26744 0
M  V30 9558 C 894.485 2.45514 2.33615 0
M  V30 9559 C 893.658 3.76378 2.22842 0
M  V30 9560 C 892.717 4.02606 3.38814 0
M  V30 9561 O 891.743 4.73108 3.16477 0
M  V30 9562 N 892.945 3.51416 4.62047 0
M  V30 9563 H 895.71 2.93811 0.591206 0
M  V30 9564 H 893.271 1.60947 0.175427 0
M  V30 9565 H 895.263 2.60166 3.09993 0
M  V30 9566 H 893.833 1.63186 2.66625 0
M  V30 9567 H 893.053 3.71691 1.313 0
M  V30 9568 H 894.341 4.62149 2.12829 0
M  V30 9569 H 893.739 2.94346 4.83091 0
M  V30 9570 H 892.296 3.71377 5.35651 0
M  V30 9571 N 895.729 -0.261212 1.5542 0
M  V30 9572 C 896.975 -0.992699 1.76843 0
M  V30 9573 C 897.308 -1.8551 0.574428 0
M  V30 9574 O 896.583 -1.89739 -0.427713 0
M  V30 9575 C 896.866 -1.86532 3.08022 0
M  V30 9576 C 896.719 -1.03206 4.378 0
M  V30 9577 C 898.038 -2.85036 3.35324 0
M  V30 9578 H 895.157 -0.359473 0.643388 0
M  V30 9579 H 897.799 -0.264214 1.88154 0
M  V30 9580 H 895.949 -2.48644 2.9851 0
M  V30 9581 H 897.621 -0.430743 4.59285 0
M  V30 9582 H 895.864 -0.335911 4.32497 0
M  V30 9583 H 896.535 -1.6761 5.25938 0
M  V30 9584 H 899.011 -2.3306 3.44706 0
M  V30 9585 H 897.887 -3.43226 4.28354 0
M  V30 9586 H 898.148 -3.60768 2.55537 0
M  V30 9587 N 897.207 -1.48554 -0.526253 0
M  V30 9588 C 898.484 -1.47252 -1.28748 0
M  V30 9589 C 898.864 -0.186245 -2.10277 0
M  V30 9590 O 898.212 0.831954 -2.12816 0
M  V30 9591 C 898.422 -2.73672 -2.16575 0
M  V30 9592 C 899.77 -3.22151 -2.76593 0
M  V30 9593 O 900.794 -2.74614 -2.2686 0
M  V30 9594 O 899.653 -4.04877 -3.67066 0
M  V30 9595 H 896.747 -0.588242 -0.581292 0
M  V30 9596 H 899.293 -1.60792 -0.5426 0
M  V30 9597 H 898.065 -3.58798 -1.56139 0
M  V30 9598 H 897.688 -2.6287 -2.98304 0
M  V30 9599 N 898.685 0.775411 -1.37205 0
M  V30 9600 C 899.632 1.88857 -1.32671 0
M  V30 9601 C 900.602 1.64976 -0.192899 0
M  V30 9602 O 901.787 1.86944 -0.381673 0
M  V30 9603 C 898.927 3.25871 -1.13588 0
M  V30 9604 C 898.04 3.61731 -2.36167 0
M  V30 9605 C 897.175 4.87934 -2.09985 0
M  V30 9606 C 896.214 5.16514 -3.2845 0
M  V30 9607 N 895.351 6.33905 -3.01842 0
M  V30 9608 H 900.191 1.92068 -2.27846 0
M  V30 9609 H 897.728 0.939066 -1.13225 0
M  V30 9610 H 899.686 4.04903 -1.00546 0
M  V30 9611 H 898.316 3.22045 -0.220613 0
M  V30 9612 H 897.368 2.77712 -2.59962 0
M  V30 9613 H 898.68 3.78792 -3.24528 0
M  V30 9614 H 897.834 5.74863 -1.93953 0
M  V30 9615 H 896.573 4.7297 -1.18956 0
M  V30 9616 H 895.578 4.28063 -3.45025 0
M  V30 9617 H 896.803 5.33389 -4.20325 0
M  V30 9618 H 894.749 6.20306 -2.13439 0
M  V30 9619 H 894.666 6.51364 -3.83746 0
M  V30 9620 H 895.934 7.23779 -2.8942 0
M  V30 9621 N 900.163 1.21714 1.00117 0
M  V30 9622 C 901.073 0.99597 2.12409 0
M  V30 9623 C 902.089 -0.0531431 1.73919 0
M  V30 9624 O 903.265 0.137757 2.00928 0
M  V30 9625 C 900.33 0.567593 3.42022 0
M  V30 9626 C 899.391 1.68936 3.94663 0
M  V30 9627 C 898.624 1.28133 5.1809 0
M  V30 9628 O 898.847 0.156574 5.70185 0
M  V30 9629 O 897.781 2.0947 5.64275 0
M  V30 9630 H 901.607 1.93657 2.33946 0
M  V30 9631 H 899.192 1.00236 1.10784 0
M  V30 9632 H 901.074 0.338664 4.20037 0
M  V30 9633 H 899.749 -0.34424 3.21864 0
M  V30 9634 H 898.656 1.97274 3.17858 0
M  V30 9635 H 899.989 2.57876 4.19238 0
M  V30 9636 N 901.641 -1.19671 1.02551 0
M  V30 9637 C 902.918 -1.85014 0.634771 0
M  V30 9638 C 903.298 -1.91574 -0.886706 0
M  V30 9639 O 902.646 -1.43022 -1.78205 0
M  V30 9640 C 902.856 -3.24167 1.29292 0
M  V30 9641 C 904.204 -4.00363 1.41402 0
M  V30 9642 O 905.228 -3.33553 1.24983 0
M  V30 9643 O 904.087 -5.2003 1.6802 0
M  V30 9644 H 901.181 -0.797147 0.220196 0
M  V30 9645 H 903.727 -1.27188 1.12345 0
M  V30 9646 H 902.499 -3.14208 2.33215 0
M  V30 9647 H 902.122 -3.89634 0.791895 0
M  V30 9648 N 903.119 -0.802921 -1.35613 0
M  V30 9649 C 904.029 -0.212177 -2.33639 0
M  V30 9650 C 905.045 0.642871 -1.61689 0
M  V30 9651 O 906.221 0.555485 -1.93588 0
M  V30 9652 C 903.286 0.632406 -3.40883 0
M  V30 9653 C 902.347 -0.242708 -4.28613 0
M  V30 9654 C 901.58 0.56166 -5.30736 0
M  V30 9655 O 901.803 1.79664 -5.41366 0
M  V30 9656 O 900.737 -0.0455387 -6.01883 0
M  V30 9657 H 904.563 -1.023 -2.85952 0
M  V30 9658 H 902.148 -0.564636 -1.38319 0
M  V30 9659 H 904.03 1.11358 -4.0642 0
M  V30 9660 H 902.705 1.42089 -2.90848 0
M  V30 9661 H 901.612 -0.77094 -3.6607 0
M  V30 9662 H 902.945 -0.995046 -4.82037 0
M  V30 9663 N 904.597 1.47463 -0.556102 0
M  V30 9664 C 905.874 1.9557 0.0339892 0
M  V30 9665 C 906.254 1.49869 1.48669 0
M  V30 9666 O 905.602 0.737019 2.16288 0
M  V30 9667 C 905.812 3.48826 -0.110343 0
M  V30 9668 C 907.16 4.24585 0.0355716 0
M  V30 9669 O 908.184 3.5618 -0.0378356 0
M  V30 9670 O 907.043 5.46158 0.193299 0
M  V30 9671 H 904.137 0.824461 0.0647521 0
M  V30 9672 H 906.683 1.57868 -0.622547 0
M  V30 9673 H 905.455 3.74891 -1.12126 0
M  V30 9674 H 905.078 3.9329 0.583855 0
M  V30 9675 N 906.075 0.2925 1.54862 0
M  V30 9676 C 907.322 -0.319263 1.99967 0
M  V30 9677 C 907.65 -1.54547 1.18092 0
M  V30 9678 O 906.905 -1.94186 0.242969 0
M  V30 9679 C 907.204 -0.728674 3.49893 0
M  V30 9680 C 906.87 0.394836 4.49168 0
M  V30 9681 C 905.532 0.703289 4.76033 0
M  V30 9682 C 907.884 1.15103 5.08331 0
M  V30 9683 C 905.212 1.77121 5.59325 0
M  V30 9684 C 907.564 2.20881 5.92785 0
M  V30 9685 C 906.228 2.52342 6.17964 0
M  V30 9686 H 905.498 -0.116827 0.731733 0
M  V30 9687 H 908.145 0.40983 1.87063 0
M  V30 9688 H 906.45 -1.53772 3.60363 0
M  V30 9689 H 908.147 -1.21305 3.82212 0
M  V30 9690 H 904.737 0.144319 4.28357 0
M  V30 9691 H 908.921 0.92599 4.87585 0
M  V30 9692 H 904.177 2.01978 5.77074 0
M  V30 9693 H 908.351 2.79939 6.37657 0
M  V30 9694 H 905.978 3.35225 6.82296 0
M  V30 9695 N 907.553 -1.57587 0.0200696 0
M  V30 9696 C 908.485 -2.06555 -0.993359 0
M  V30 9697 C 909.498 -0.987227 -1.29451 0
M  V30 9698 O 910.687 -1.26361 -1.26075 0
M  V30 9699 C 907.787 -2.4675 -2.3231 0
M  V30 9700 C 906.96 -3.77554 -2.20843 0
M  V30 9701 C 906.019 -4.04397 -3.36674 0
M  V30 9702 O 905.045 -4.7478 -3.13963 0
M  V30 9703 N 906.247 -3.53861 -4.60176 0
M  V30 9704 H 909.012 -2.9412 -0.575617 0
M  V30 9705 H 906.573 -1.61038 -0.166889 0
M  V30 9706 H 908.565 -2.61806 -3.08609 0
M  V30 9707 H 907.135 -1.64598 -2.65756 0
M  V30 9708 H 906.355 -3.72382 -1.29327 0
M  V30 9709 H 907.643 -4.63271 -2.10375 0
M  V30 9710 H 907.041 -2.96904 -4.81523 0
M  V30 9711 H 905.598 -3.74213 -5.33674 0
M  V30 9712 N 909.032 0.252966 -1.55557 0
M  V30 9713 C 909.942 1.33472 -1.92931 0
M  V30 9714 C 910.958 1.52983 -0.828985 0
M  V30 9715 O 912.134 1.66723 -1.12984 0
M  V30 9716 C 909.199 2.6704 -2.21112 0
M  V30 9717 C 908.26 2.56103 -3.44542 0
M  V30 9718 C 907.493 3.83302 -3.71369 0
M  V30 9719 O 907.716 4.84907 -3.00368 0
M  V30 9720 O 906.65 3.823 -4.64898 0
M  V30 9721 H 910.476 1.04768 -2.85057 0
M  V30 9722 H 908.061 0.453208 -1.4236 0
M  V30 9723 H 909.943 3.45981 -2.40572 0
M  V30 9724 H 908.618 2.95489 -1.32166 0
M  V30 9725 H 907.525 1.7547 -3.30396 0
M  V30 9726 H 908.858 2.32601 -4.33772 0
M  V30 9727 N 910.51 1.48831 0.518367 0
M  V30 9728 C 911.735 1.61379 1.30275 0
M  V30 9729 C 912.16 0.278571 1.86026 0
M  V30 9730 O 911.518 -0.751427 1.64995 0
M  V30 9731 C 911.566 2.67225 2.42122 0
M  V30 9732 O 910.67 2.25192 3.45489 0
M  V30 9733 H 910.011 0.540742 0.385349 0
M  V30 9734 H 912.541 1.949 0.622498 0
M  V30 9735 H 912.551 2.88859 2.8814 0
M  V30 9736 H 911.226 3.64155 2.00907 0
M  V30 9737 H 909.803 2.13819 3.05509 0
M  V30 9738 N 911.988 -0.768124 1.37614 0
M  V30 9739 C 912.936 -1.9029 1.33763 0
M  V30 9740 C 913.93 -1.67888 0.225814 0
M  V30 9741 O 915.136 -1.75634 0.394043 0
M  V30 9742 H 911.511 -0.625828 0.416945 0
M  V30 9743 H 913.482 -1.90654 2.29551 0
M  V30 9744 C 912.231 -3.27598 1.16511 0
M  V30 9745 H 911.554 -3.45414 2.01318 0
M  V30 9746 H 912.994 -4.07288 1.17867 0
M  V30 9747 C 911.453 -3.36653 -0.129001 0
M  V30 9748 O 911.983 -3.86023 -1.11128 0
M  V30 9749 N 910.189 -2.90036 -0.180926 0
M  V30 9750 H 909.736 -2.5005 0.619076 0
M  V30 9751 H 909.694 -2.96475 -1.04641 0
M  V30 9752 N 913.466 -1.22244 -0.994698 0
M  V30 9753 C 914.413 -0.990906 -2.08446 0
M  V30 9754 C 915.383 0.086737 -1.65873 0
M  V30 9755 O 916.568 -0.0624882 -1.90698 0
M  V30 9756 C 913.708 -0.572813 -3.40313 0
M  V30 9757 C 912.821 -1.72103 -3.96238 0
M  V30 9758 C 911.956 -1.2511 -5.16257 0
M  V30 9759 C 910.995 -2.37098 -5.64315 0
M  V30 9760 N 910.132 -1.91164 -6.75574 0
M  V30 9761 H 914.972 -1.92377 -2.27585 0
M  V30 9762 H 912.509 -0.958576 -1.11578 0
M  V30 9763 H 914.467 -0.311594 -4.16035 0
M  V30 9764 H 913.097 0.323044 -3.21179 0
M  V30 9765 H 912.149 -2.09662 -3.17405 0
M  V30 9766 H 913.461 -2.56347 -4.27888 0
M  V30 9767 H 912.615 -0.947152 -5.99261 0
M  V30 9768 H 911.354 -0.378836 -4.86226 0
M  V30 9769 H 910.359 -2.68283 -4.799 0
M  V30 9770 H 911.584 -3.24837 -5.96371 0
M  V30 9771 H 909.53 -1.06298 -6.47331 0
M  V30 9772 H 909.447 -2.68975 -7.06533 0
M  V30 9773 H 910.715 -1.63833 -7.62088 0
M  V30 9774 N 914.944 1.19125 -1.03184 0
M  V30 9775 C 915.877 2.21229 -0.559739 0
M  V30 9776 C 916.855 1.57578 0.400998 0
M  V30 9777 O 918.039 1.85809 0.317399 0
M  V30 9778 C 915.166 3.38203 0.183442 0
M  V30 9779 C 914.212 4.2022 -0.729182 0
M  V30 9780 S 915.045 4.87903 -2.20706 0
M  V30 9781 C 916.201 6.08284 -1.47448 0
M  V30 9782 H 916.434 2.60932 -1.42484 0
M  V30 9783 H 913.967 1.29419 -0.842028 0
M  V30 9784 H 915.925 4.06001 0.606084 0
M  V30 9785 H 914.586 2.96929 1.02432 0
M  V30 9786 H 913.779 5.03761 -0.155272 0
M  V30 9787 H 913.381 3.57755 -1.09028 0
M  V30 9788 H 915.673 6.73193 -0.762687 0
M  V30 9789 H 916.616 6.70165 -2.28659 0
M  V30 9790 H 917.024 5.56092 -0.97068 0
M  V30 9791 N 916.422 0.810101 1.35185 0
M  V30 9792 C 917.372 0.195541 2.2716 0
M  V30 9793 C 918.356 -0.632691 1.47939 0
M  V30 9794 O 919.548 -0.489372 1.701 0
M  V30 9795 C 916.677 -0.652164 3.37049 0
M  V30 9796 C 915.763 0.185989 4.23692 0
M  V30 9797 N 916.154 1.25073 4.90092 0
M  V30 9798 C 914.452 -0.0318033 4.45989 0
M  V30 9799 C 915.153 1.76272 5.54349 0
M  V30 9800 N 914.129 1.06861 5.32993 0
M  V30 9801 H 917.931 1.01018 2.75994 0
M  V30 9802 H 915.445 0.651612 1.48754 0
M  V30 9803 H 917.442 -1.10851 4.01893 0
M  V30 9804 H 916.102 -1.46511 2.89767 0
M  V30 9805 H 917.113 1.63341 4.91467 0
M  V30 9806 H 913.79 -0.813607 4.09496 0
M  V30 9807 H 915.18 2.65278 6.17315 0
M  V30 9808 N 917.9 -1.47166 0.563914 0
M  V30 9809 C 919.125 -2.0735 0.0454698 0
M  V30 9810 C 919.55 -1.41281 -1.24182 0
M  V30 9811 O 918.908 -0.490084 -1.7455 0
M  V30 9812 C 918.956 -3.60378 -0.126453 0
M  V30 9813 O 918.06 -3.94934 -1.18746 0
M  V30 9814 H 917.401 -0.661773 0.0543377 0
M  V30 9815 H 919.931 -1.89086 0.781508 0
M  V30 9816 H 919.941 -4.06593 -0.338554 0
M  V30 9817 H 918.616 -4.07862 0.81373 0
M  V30 9818 H 917.193 -3.60455 -0.955318 0
M  V30 9819 N 919.378 -0.300708 -1.54705 0
M  V30 9820 C 920.311 0.617513 -2.19686 0
M  V30 9821 C 921.289 1.1331 -1.16617 0
M  V30 9822 O 922.473 1.20135 -1.45258 0
M  V30 9823 C 919.6 1.84486 -2.84047 0
M  V30 9824 C 918.646 1.46253 -4.0064 0
M  V30 9825 S 919.479 0.518718 -5.32982 0
M  V30 9826 C 920.635 1.75387 -6.00825 0
M  V30 9827 H 920.868 0.0654548 -2.97228 0
M  V30 9828 H 918.401 -0.0848492 -1.54167 0
M  V30 9829 H 920.359 2.54921 -3.21754 0
M  V30 9830 H 919.02 2.36808 -2.06351 0
M  V30 9831 H 918.213 2.37648 -4.44454 0
M  V30 9832 H 917.815 0.838129 -3.64488 0
M  V30 9833 H 920.107 2.69448 -6.21614 0
M  V30 9834 H 921.05 1.35829 -6.9495 0
M  V30 9835 H 921.458 1.93045 -5.30466 0
M  V30 9836 N 920.856 1.57574 -0.0284266 0
M  V30 9837 C 921.804 2.11332 0.971675 0
M  V30 9838 C 922.798 1.03974 1.33738 0
M  V30 9839 O 924.004 1.22409 1.31969 0
M  V30 9840 H 920.379 0.675174 0.331125 0
M  V30 9841 H 922.35 2.943 0.49296 0
M  V30 9842 C 921.099 2.65496 2.24516 0
M  V30 9843 H 920.422 3.47753 1.9725 0
M  V30 9844 H 921.862 3.06757 2.92705 0
M  V30 9845 C 920.321 1.58207 2.97443 0
M  V30 9846 O 920.851 0.981496 3.89525 0
M  V30 9847 N 919.057 1.30269 2.59766 0
M  V30 9848 H 918.604 1.79294 1.84963 0
M  V30 9849 H 918.562 0.587085 3.0887 0
M  V30 9850 N 922.334 -0.244713 1.55689 0
M  V30 9851 C 923.582 -0.970525 1.77272 0
M  V30 9852 C 923.903 -1.85771 0.592804 0
M  V30 9853 O 923.173 -1.91952 -0.391323 0
M  V30 9854 H 921.753 -0.361342 0.653789 0
M  V30 9855 H 924.415 -0.262134 1.93129 0
M  V30 9856 H 923.511 -1.59096 2.68505 0
M  V30 9857 N 923.813 -1.49104 -0.510467 0
M  V30 9858 C 925.06 -1.58112 -1.26518 0
M  V30 9859 C 925.388 -0.263603 -1.92705 0
M  V30 9860 O 924.643 0.747743 -1.80852 0
M  V30 9861 C 924.942 -2.68259 -2.36161 0
M  V30 9862 C 924.608 -4.10069 -1.87495 0
M  V30 9863 C 923.27 -4.48662 -1.73942 0
M  V30 9864 C 925.622 -4.98859 -1.5096 0
M  V30 9865 C 922.95 -5.73829 -1.22217 0
M  V30 9866 C 925.302 -6.24535 -1.00691 0
M  V30 9867 C 923.966 -6.61967 -0.857691 0
M  V30 9868 H 923.236 -0.578574 -0.462962 0
M  V30 9869 H 925.883 -1.82899 -0.567475 0
M  V30 9870 H 924.188 -2.37407 -3.11681 0
M  V30 9871 H 925.885 -2.7244 -2.9424 0
M  V30 9872 H 922.475 -3.79601 -1.99001 0
M  V30 9873 H 926.659 -4.69706 -1.60282 0
M  V30 9874 H 921.915 -6.01539 -1.09368 0
M  V30 9875 H 926.089 -6.9272 -0.71498 0
M  V30 9876 H 923.716 -7.58839 -0.454702 0
M  V30 9877 N 925.291 0.760815 -1.38019 0
M  V30 9878 C 926.224 1.88212 -1.2904 0
M  V30 9879 C 927.202 1.61721 -0.168805 0
M  V30 9880 O 928.386 1.85318 -0.344893 0
M  V30 9881 C 925.513 3.23672 -0.997702 0
M  V30 9882 C 924.559 3.6906 -2.13769 0
M  V30 9883 S 925.392 3.81445 -3.75845 0
M  V30 9884 C 926.548 5.19736 -3.48748 0
M  V30 9885 H 926.781 1.95541 -2.23944 0
M  V30 9886 H 924.314 0.923051 -1.2377 0
M  V30 9887 H 926.272 4.01904 -0.835657 0
M  V30 9888 H 924.933 3.14031 -0.065967 0
M  V30 9889 H 924.126 4.67295 -1.88816 0
M  V30 9890 H 923.728 2.97961 -2.26043 0
M  V30 9891 H 926.02 6.05259 -3.04414 0
M  V30 9892 H 926.963 5.49706 -4.46351 0
M  V30 9893 H 927.371 4.88191 -2.83425 0
M  V30 9894 N 926.769 1.22769 0.988202 0
M  V30 9895 C 927.999 1.07998 1.76125 0
M  V30 9896 C 928.407 -0.372062 1.85506 0
M  V30 9897 O 927.75 -1.26946 1.3278 0
M  V30 9898 C 927.812 1.6219 3.20834 0
M  V30 9899 C 927.476 3.1086 3.34986 0
M  V30 9900 C 928.473 4.08239 3.21927 0
M  V30 9901 C 926.158 3.50411 3.59886 0
M  V30 9902 C 928.152 5.43154 3.33561 0
M  V30 9903 C 925.839 4.85473 3.71159 0
M  V30 9904 C 926.837 5.81653 3.58006 0
M  V30 9905 O 926.525 7.14263 3.68895 0
M  V30 9906 H 926.257 0.378937 0.559806 0
M  V30 9907 H 928.811 1.62925 1.25078 0
M  V30 9908 H 927.041 1.01676 3.73094 0
M  V30 9909 H 928.73 1.43011 3.79872 0
M  V30 9910 H 929.496 3.79025 3.02597 0
M  V30 9911 H 925.375 2.76068 3.69198 0
M  V30 9912 H 928.919 6.18207 3.23211 0
M  V30 9913 H 924.816 5.14365 3.89998 0
M  V30 9914 H 925.584 7.21906 3.85739 0
M  V30 9915 N 928.247 -1.18576 1.03814 0
M  V30 9916 C 929.495 -1.88121 0.738574 0
M  V30 9917 C 929.816 -1.80587 -0.735744 0
M  V30 9918 O 929.086 -1.22251 -1.53074 0
M  V30 9919 H 927.666 -0.696417 0.270208 0
M  V30 9920 H 930.328 -1.43912 1.31435 0
M  V30 9921 H 929.424 -2.94222 1.04115 0
M  V30 9922 N 929.725 -0.817259 -1.34754 0
M  V30 9923 C 930.673 -0.223352 -2.31525 0
M  V30 9924 C 931.667 0.632785 -1.57137 0
M  V30 9925 O 932.873 0.524757 -1.72181 0
M  V30 9926 H 929.248 -0.0534765 -0.750096 0
M  V30 9927 H 931.219 -1.05446 -2.79148 0
M  V30 9928 C 929.968 0.604784 -3.424 0
M  V30 9929 H 929.291 -0.0446664 -3.99775 0
M  V30 9930 H 930.731 0.986543 -4.12363 0
M  V30 9931 C 929.19 1.77478 -2.86362 0
M  V30 9932 O 929.72 2.87273 -2.8078 0
M  V30 9933 N 927.926 1.58971 -2.43263 0
M  V30 9934 H 927.473 0.696598 -2.48003 0
M  V30 9935 H 927.431 2.37408 -2.06119 0
M  V30 9936 N 931.203 1.46865 -0.571711 0
M  V30 9937 C 932.135 2.28277 0.205479 0
M  V30 9938 C 933.148 1.37866 0.865835 0
M  V30 9939 O 934.337 1.62564 0.737247 0
M  V30 9940 C 931.437 3.12572 1.30965 0
M  V30 9941 C 930.61 4.31038 0.743328 0
M  V30 9942 C 929.669 4.96815 1.73382 0
M  V30 9943 O 928.695 5.54755 1.2742 0
M  V30 9944 N 929.897 4.92825 3.06764 0
M  V30 9945 H 932.662 2.95618 -0.49294 0
M  V30 9946 H 930.223 1.56655 -0.408744 0
M  V30 9947 H 932.215 3.53442 1.97131 0
M  V30 9948 H 930.785 2.47378 1.91109 0
M  V30 9949 H 930.005 3.94084 -0.0955004 0
M  V30 9950 H 931.293 5.07632 0.344556 0
M  V30 9951 H 930.691 4.46978 3.46738 0
M  V30 9952 H 929.248 5.3767 3.68449 0
M  V30 9953 N 932.681 0.308908 1.54543 0
M  V30 9954 C 934.092 -0.182144 1.85809 0
M  V30 9955 C 934.443 -1.52796 1.23076 0
M  V30 9956 O 933.568 -2.09775 0.531358 0
M  V30 9957 C 934.163 -0.337275 3.37117 0
M  V30 9958 C 932.722 -0.772545 3.68387 0
M  V30 9959 C 931.869 0.114451 2.77064 0
M  V30 9960 H 934.82 0.529671 1.496 0
M  V30 9961 H 934.841 -1.17058 3.62046 0
M  V30 9962 H 934.353 0.642382 3.82747 0
M  V30 9963 H 932.454 -1.76247 3.2828 0
M  V30 9964 H 932.567 -0.586453 4.75497 0
M  V30 9965 H 930.931 -0.407581 2.51418 0
M  V30 9966 H 931.714 1.09061 3.25516 0
M  V30 9967 N 934.159 -1.57557 0.0367827 0
M  V30 9968 C 935.407 -1.91735 -0.63892 0
M  V30 9969 C 935.728 -0.914515 -1.72226 0
M  V30 9970 O 934.998 0.0428248 -1.95853 0
M  V30 9971 H 933.578 -0.707738 -0.23899 0
M  V30 9972 H 936.24 -1.94708 0.0863931 0
M  V30 9973 H 935.336 -2.92568 -1.08676 0
M  V30 9974 N 935.637 0.236453 -1.55816 0
M  V30 9975 C 936.567 1.29639 -1.94206 0
M  V30 9976 C 937.548 1.49667 -0.808319 0
M  V30 9977 O 938.733 1.621 -1.06945 0
M  V30 9978 C 935.863 2.64914 -2.24584 0
M  V30 9979 C 934.817 2.59565 -3.40308 0
M  V30 9980 C 934.143 3.98732 -3.56254 0
M  V30 9981 C 935.443 2.15642 -4.75706 0
M  V30 9982 H 937.137 0.977552 -2.82992 0
M  V30 9983 H 934.683 0.468804 -1.36155 0
M  V30 9984 H 936.636 3.39209 -2.50031 0
M  V30 9985 H 935.36 2.98455 -1.32636 0
M  V30 9986 H 934.019 1.87728 -3.14887 0
M  V30 9987 H 933.667 4.29556 -2.61707 0
M  V30 9988 H 933.367 3.96039 -4.34082 0
M  V30 9989 H 934.891 4.74711 -3.84033 0
M  V30 9990 H 936.305 2.79673 -5.00456 0
M  V30 9991 H 934.702 2.24039 -5.56711 0
M  V30 9992 H 935.772 1.10831 -4.72064 0
M  V30 9993 N 937.115 1.49373 0.502552 0
M  V30 9994 C 938.343 1.62488 1.28084 0
M  V30 9995 C 938.758 0.295667 1.86471 0
M  V30 9996 O 938.115 -0.718664 1.67754 0
M  V30 9997 C 938.166 2.69249 2.4122 0
M  V30 9998 O 937.887 3.97014 1.85234 0
M  V30 9999 C 939.388 2.93054 3.32617 0
M  V30 10000 H 936.608 0.547068 0.388533 0
M  V30 10001 H 939.152 1.95394 0.603452 0
M  V30 10002 H 937.307 2.39125 3.04792 0
M  V30 10003 H 937.721 4.55809 2.59496 0
M  V30 10004 H 939.195 3.71493 4.08285 0
M  V30 10005 H 939.672 2.02911 3.89517 0
M  V30 10006 H 940.278 3.24589 2.74813 0
M  V30 10007 N 938.594 -0.753485 1.38421 0
M  V30 10008 C 939.527 -1.87525 1.30037 0
M  V30 10009 C 940.505 -1.6163 0.177379 0
M  V30 10010 O 941.689 -1.85132 0.354716 0
M  V30 10011 C 938.816 -3.23138 1.01485 0
M  V30 10012 C 937.862 -3.67921 2.15723 0
M  V30 10013 S 938.695 -3.79447 3.77863 0
M  V30 10014 C 939.851 -5.17879 3.51499 0
M  V30 10015 H 940.084 -1.94351 2.24978 0
M  V30 10016 H 937.617 -0.916475 1.24258 0
M  V30 10017 H 939.575 -4.01455 0.856959 0
M  V30 10018 H 938.236 -3.13991 0.0826199 0
M  V30 10019 H 937.429 -4.66287 1.91292 0
M  V30 10020 H 937.031 -2.96758 2.2762 0
M  V30 10021 H 939.323 -6.03636 3.0762 0
M  V30 10022 H 940.266 -5.47331 4.49259 0
M  V30 10023 H 940.674 -4.86681 2.8601 0
M  V30 10024 N 940.072 -1.23292 -0.981677 0
M  V30 10025 C 941.312 -1.07597 -1.73788 0
M  V30 10026 C 941.676 0.380762 -1.88187 0
M  V30 10027 O 942.877 0.658866 -2.606 0
M  V30 10028 C 941.148 -1.78008 -3.09916 0
M  V30 10029 S 942.707 -1.77868 -4.01134 0
M  V30 10030 H 939.525 -0.385092 -0.597683 0
M  V30 10031 H 942.127 -1.56408 -1.17289 0
M  V30 10032 H 940.831 -2.83139 -2.97087 0
M  V30 10033 H 940.362 -1.29473 -3.71484 0
M  V30 10034 H 942.377 -0.836368 -4.89101 0
M  V30 10035 N 941.55 1.18024 -1.04442 0
M  V30 10036 C 942.497 2.21785 -0.638759 0
M  V30 10037 C 943.467 1.62255 0.355312 0
M  V30 10038 O 944.652 1.89176 0.24844 0
M  V30 10039 C 941.792 3.45098 -0.0118002 0
M  V30 10040 C 940.905 4.1895 -1.05379 0
M  V30 10041 C 940.04 5.2973 -0.394951 0
M  V30 10042 C 939.079 5.95359 -1.42178 0
M  V30 10043 N 938.216 6.97668 -0.787635 0
M  V30 10044 H 943.056 2.55839 -1.52808 0
M  V30 10045 H 940.593 1.25681 -0.764378 0
M  V30 10046 H 942.551 4.15564 0.369075 0
M  V30 10047 H 941.181 3.11652 0.84102 0
M  V30 10048 H 940.233 3.47274 -1.55258 0
M  V30 10049 H 941.545 4.63877 -1.83355 0
M  V30 10050 H 940.699 6.06687 0.0399244 0
M  V30 10051 H 939.438 4.85915 0.416867 0
M  V30 10052 H 938.443 5.17139 -1.86675 0
M  V30 10053 H 939.668 6.41255 -2.23536 0
M  V30 10054 H 937.614 6.56 0.00380893 0
M  V30 10055 H 937.531 7.40867 -1.50505 0
M  V30 10056 H 938.799 7.78586 -0.377282 0
M  V30 10057 N 943.028 0.824394 1.34319 0
M  V30 10058 C 944.276 0.41235 1.97849 0
M  V30 10059 C 944.597 -1.02841 1.65677 0
M  V30 10060 O 943.867 -1.71421 0.948245 0
M  V30 10061 H 942.447 0.149486 0.73189 0
M  V30 10062 H 945.109 1.05416 1.63931 0
M  V30 10063 H 944.205 0.532557 3.07523 0
M  V30 10064 N 944.506 -1.46559 0.579492 0
M  V30 10065 C 945.783 -1.956 -0.00287136 0
M  V30 10066 C 946.163 -1.52215 -1.46266 0
M  V30 10067 O 945.511 -0.771335 -2.15088 0
M  V30 10068 C 945.721 -3.48606 0.165824 0
M  V30 10069 C 947.069 -4.24588 0.0319807 0
M  V30 10070 O 948.093 -3.56075 0.094496 0
M  V30 10071 O 946.952 -5.46396 -0.106386 0
M  V30 10072 H 944.046 -0.825387 -0.0516274 0
M  V30 10073 H 946.592 -1.56858 0.647584 0
M  V30 10074 H 945.364 -3.7306 1.18076 0
M  V30 10075 H 944.987 -3.94169 -0.521212 0
M  V30 10076 N 945.984 -0.3171 -1.54377 0
M  V30 10077 C 947.209 0.292311 -2.0533 0
M  V30 10078 C 947.634 1.45503 -1.19207 0
M  V30 10079 O 946.992 1.80197 -0.199721 0
M  V30 10080 C 947.04 0.710787 -3.53525 0
M  V30 10081 O 946.144 1.81387 -3.70368 0
M  V30 10082 H 945.485 0.0539976 -0.661801 0
M  V30 10083 H 948.015 -0.463629 -1.99278 0
M  V30 10084 H 948.025 0.995216 -3.95676 0
M  V30 10085 H 946.7 -0.139668 -4.15665 0
M  V30 10086 H 945.277 1.52875 -3.40123 0
M  V30 10087 N 947.462 1.57535 -0.0451378 0
M  V30 10088 C 948.708 1.92736 0.630921 0
M  V30 10089 C 949.041 0.923265 1.70849 0
M  V30 10090 O 948.316 -0.0516512 1.94431 0
M  V30 10091 C 948.599 3.38348 1.23259 0
M  V30 10092 C 948.452 4.49503 0.16349 0
M  V30 10093 C 949.771 3.84233 2.14599 0
M  V30 10094 H 946.89 0.700884 0.227883 0
M  V30 10095 H 949.532 1.89706 -0.10567 0
M  V30 10096 H 947.682 3.41061 1.86037 0
M  V30 10097 H 949.354 4.58919 -0.46808 0
M  V30 10098 H 947.597 4.30802 -0.509166 0
M  V30 10099 H 948.268 5.48457 0.624382 0
M  V30 10100 H 950.744 3.83358 1.6179 0
M  V30 10101 H 949.62 4.86781 2.53644 0
M  V30 10102 H 949.881 3.20646 3.04366 0
M  V30 10103 N 948.94 -0.228186 1.55939 0
M  V30 10104 C 950.186 -0.954964 1.78909 0
M  V30 10105 C 950.519 -1.8425 0.613648 0
M  V30 10106 O 949.794 -1.90604 -0.38737 0
M  V30 10107 C 950.077 -1.79957 3.1191 0
M  V30 10108 C 949.93 -0.938968 4.3989 0
M  V30 10109 C 951.249 -2.77859 3.41295 0
M  V30 10110 H 948.368 -0.345745 0.650868 0
M  V30 10111 H 951.01 -0.224244 1.88672 0
M  V30 10112 H 949.16 -2.42256 3.03717 0
M  V30 10113 H 950.832 -0.333225 4.60095 0
M  V30 10114 H 949.075 -0.244096 4.33113 0
M  V30 10115 H 949.746 -1.56416 5.29375 0
M  V30 10116 H 952.222 -2.25695 3.49572 0
M  V30 10117 H 951.098 -3.34062 4.35538 0
M  V30 10118 H 951.359 -3.55266 2.63132 0
M  V30 10119 N 950.418 -1.49637 -0.494624 0
M  V30 10120 C 951.664 -1.60654 -1.24747 0
M  V30 10121 C 952.019 -0.292376 -1.90166 0
M  V30 10122 O 951.312 0.707918 -1.78042 0
M  V30 10123 C 951.506 -2.70749 -2.33302 0
M  V30 10124 C 951.335 -4.12744 -1.7853 0
M  V30 10125 C 950.105 -4.79451 -1.59546 0
M  V30 10126 C 952.303 -4.97767 -1.29353 0
M  V30 10127 N 950.285 -6.05738 -0.997702 0
M  V30 10128 C 951.656 -6.14587 -0.817517 0
M  V30 10129 C 953.711 -4.83719 -1.17986 0
M  V30 10130 C 952.414 -7.18903 -0.23907 0
M  V30 10131 C 954.44 -5.8819 -0.615375 0
M  V30 10132 C 953.802 -7.04241 -0.149622 0
M  V30 10133 H 949.901 -0.642198 -0.446213 0
M  V30 10134 H 952.485 -1.86668 -0.553469 0
M  V30 10135 H 950.656 -2.46497 -3.00156 0
M  V30 10136 H 952.388 -2.71253 -3.0034 0
M  V30 10137 H 949.143 -4.36354 -1.84098 0
M  V30 10138 H 949.567 -6.73183 -0.717911 0
M  V30 10139 H 954.209 -3.94304 -1.52592 0
M  V30 10140 H 951.927 -8.08012 0.11925 0
M  V30 10141 H 955.513 -5.7938 -0.530114 0
M  V30 10142 H 954.393 -7.83699 0.280349 0
M  V30 10143 N 951.896 0.746133 -1.38819 0
M  V30 10144 C 953.126 1.53316 -1.38484 0
M  V30 10145 C 953.534 1.89183 0.0253332 0
M  V30 10146 O 952.877 1.5382 1.00424 0
M  V30 10147 C 952.939 2.85623 -2.18311 0
M  V30 10148 C 952.603 2.72253 -3.67052 0
M  V30 10149 C 953.6 2.41547 -4.60381 0
M  V30 10150 C 951.285 2.89472 -4.10501 0
M  V30 10151 C 953.279 2.28226 -5.9514 0
M  V30 10152 C 950.966 2.7577 -5.45338 0
M  V30 10153 C 951.964 2.45191 -6.37472 0
M  V30 10154 O 951.652 2.31561 -7.69828 0
M  V30 10155 H 951.384 0.480763 -0.475229 0
M  V30 10156 H 953.938 0.93057 -1.83111 0
M  V30 10157 H 952.168 3.481 -1.68414 0
M  V30 10158 H 953.857 3.47178 -2.10291 0
M  V30 10159 H 954.623 2.27905 -4.28117 0
M  V30 10160 H 950.502 3.12269 -3.3913 0
M  V30 10161 H 954.046 2.04279 -6.6702 0
M  V30 10162 H 949.943 2.88987 -5.77197 0
M  V30 10163 H 950.711 2.46716 -7.80432 0
M  V30 10164 N 953.375 1.23811 0.975125 0
M  V30 10165 C 954.305 1.04846 2.08638 0
M  V30 10166 C 955.286 -0.0362859 1.70061 0
M  V30 10167 O 956.471 0.12937 1.93769 0
M  V30 10168 C 953.601 0.644534 3.41267 0
M  V30 10169 C 952.555 1.67722 3.93768 0
M  V30 10170 C 951.881 1.12857 5.22654 0
M  V30 10171 C 953.181 3.07147 4.22443 0
M  V30 10172 H 954.875 1.97795 2.24761 0
M  V30 10173 H 952.421 0.952397 1.08006 0
M  V30 10174 H 954.374 0.498887 4.18436 0
M  V30 10175 H 953.098 -0.320641 3.25022 0
M  V30 10176 H 951.757 1.81095 3.18748 0
M  V30 10177 H 951.405 0.154227 5.02764 0
M  V30 10178 H 951.105 1.81862 5.58749 0
M  V30 10179 H 952.629 0.994891 6.0244 0
M  V30 10180 H 954.043 2.97045 4.90344 0
M  V30 10181 H 952.44 3.73437 4.6975 0
M  V30 10182 H 953.51 3.55743 3.29507 0
M  V30 10183 N 954.853 -1.17469 1.05066 0
M  V30 10184 C 956.1 -1.87698 0.759987 0
M  V30 10185 C 956.428 -1.80964 -0.712902 0
M  V30 10186 O 955.683 -1.21146 -1.53695 0
M  V30 10187 C 955.982 -3.37211 1.18421 0
M  V30 10188 C 955.648 -3.64148 2.65909 0
M  V30 10189 C 954.31 -3.71209 3.06199 0
M  V30 10190 C 956.662 -3.75724 3.61222 0
M  V30 10191 C 953.99 -3.87334 4.40669 0
M  V30 10192 C 956.342 -3.93368 4.95424 0
M  V30 10193 C 955.006 -3.98667 5.3537 0
M  V30 10194 H 954.276 -0.686835 0.278099 0
M  V30 10195 H 956.923 -1.38975 1.31751 0
M  V30 10196 H 955.228 -3.87982 0.545654 0
M  V30 10197 H 956.925 -3.89911 0.936518 0
M  V30 10198 H 953.515 -3.59276 2.33707 0
M  V30 10199 H 957.699 -3.69591 3.31235 0
M  V30 10200 H 952.955 -3.89685 4.71122 0
M  V30 10201 H 957.129 -4.01267 5.69173 0
M  V30 10202 H 954.756 -4.10915 6.39572 0
M  V30 10203 N 956.331 -0.831506 -1.3388 0
M  V30 10204 C 957.556 -0.435954 -2.02766 0
M  V30 10205 C 957.981 0.952889 -1.62178 0
M  V30 10206 O 957.339 1.62166 -0.810681 0
M  V30 10207 C 957.387 -0.555907 -3.56289 0
M  V30 10208 O 956.491 0.420826 -4.10247 0
M  V30 10209 H 955.832 -0.178248 -0.639628 0
M  V30 10210 H 958.362 -1.1243 -1.70941 0
M  V30 10211 H 958.372 -0.434831 -4.05676 0
M  V30 10212 H 957.047 -1.56881 -3.85177 0
M  V30 10213 H 955.624 0.257919 -3.72007 0
M  V30 10214 N 957.809 1.4625 -0.587256 0
M  V30 10215 C 958.772 2.28812 0.133238 0
M  V30 10216 C 959.772 1.38645 0.814513 0
M  V30 10217 O 960.962 1.60975 0.665774 0
M  V30 10218 C 958.094 3.19147 1.19824 0
M  V30 10219 H 959.287 2.93991 -0.592386 0
M  V30 10220 H 956.84 1.52435 -0.345416 0
M  V30 10221 H 957.575 2.58725 1.95529 0
M  V30 10222 H 957.36 3.85541 0.71418 0
M  V30 10223 H 958.85 3.81278 1.70344 0
M  V30 10224 N 959.287 0.325282 1.54207 0
M  V30 10225 C 960.535 -0.276229 2.00203 0
M  V30 10226 C 960.856 -1.52519 1.21503 0
M  V30 10227 O 960.126 -1.93313 0.317302 0
M  V30 10228 H 958.706 -0.105059 0.739575 0
M  V30 10229 H 961.368 0.442225 1.89817 0
M  V30 10230 H 960.464 -0.531427 3.07542 0
M  V30 10231 N 960.765 -1.57509 0.0534917 0
M  V30 10232 C 961.713 -2.12851 -0.937931 0
M  V30 10233 C 962.707 -1.06088 -1.32067 0
M  V30 10234 O 963.913 -1.24494 -1.30005 0
M  V30 10235 H 960.288 -0.680357 -0.320342 0
M  V30 10236 H 962.259 -2.95047 -0.446077 0
M  V30 10237 C 961.008 -2.69034 -2.20264 0
M  V30 10238 H 960.331 -3.50848 -1.91693 0
M  V30 10239 H 961.771 -3.11375 -2.87788 0
M  V30 10240 C 960.23 -1.62919 -2.94888 0
M  V30 10241 O 960.76 -1.04334 -3.87914 0
M  V30 10242 N 958.966 -1.34385 -2.57661 0
M  V30 10243 H 958.513 -1.82214 -1.82088 0
M  V30 10244 H 958.471 -0.636149 -3.07897 0
M  V30 10245 N 962.243 0.219913 -1.56058 0
M  V30 10246 C 963.153 1.29349 -1.95719 0
M  V30 10247 C 964.169 1.5119 -0.861248 0
M  V30 10248 O 965.345 1.64289 -1.16495 0
M  V30 10249 C 962.41 2.6229 -2.26726 0
M  V30 10250 C 961.471 2.48738 -3.49897 0
M  V30 10251 C 960.704 3.75339 -3.79416 0
M  V30 10252 O 960.927 4.78427 -3.10586 0
M  V30 10253 O 959.861 3.72352 -4.72903 0
M  V30 10254 H 963.687 0.986979 -2.87215 0
M  V30 10255 H 961.272 0.42291 -1.43289 0
M  V30 10256 H 963.154 3.408 -2.47857 0
M  V30 10257 H 961.829 2.92619 -1.38404 0
M  V30 10258 H 960.736 1.68422 -3.34043 0
M  V30 10259 H 962.069 2.23347 -4.38608 0
M  V30 10260 N 963.721 1.49897 0.486681 0
M  V30 10261 C 964.684 1.67086 1.56891 0
M  V30 10262 C 965.684 0.54209 1.51387 0
M  V30 10263 O 966.874 0.80883 1.54284 0
M  V30 10264 C 964.006 1.68159 2.96539 0
M  V30 10265 H 965.199 2.63626 1.42974 0
M  V30 10266 H 962.752 1.39143 0.711954 0
M  V30 10267 H 963.487 0.732562 3.15918 0
M  V30 10268 H 963.272 2.50147 3.01942 0
M  V30 10269 H 964.762 1.83466 3.7514 0
M  V30 10270 N 965.199 -0.738761 1.39212 0
M  V30 10271 C 966.476 -1.48982 1.26742 0
M  V30 10272 C 966.856 -2.10732 -0.12466 0
M  V30 10273 O 966.204 -1.98287 -1.13554 0
M  V30 10274 C 966.414 -2.54427 2.38889 0
M  V30 10275 C 967.762 -3.20915 2.78027 0
M  V30 10276 O 968.786 -2.64738 2.38311 0
M  V30 10277 O 967.645 -4.22558 3.46565 0
M  V30 10278 H 964.739 -0.661395 0.496473 0
M  V30 10279 H 967.285 -0.772907 1.51077 0
M  V30 10280 H 966.057 -2.07151 3.3197 0
M  V30 10281 H 965.68 -3.33682 2.162 0
M  V30 10282 N 966.677 -1.24326 -0.968545 0
M  V30 10283 C 967.923 -1.08406 -1.71394 0
M  V30 10284 C 968.256 0.376353 -1.90518 0
M  V30 10285 O 967.531 1.27816 -1.46606 0
M  V30 10286 C 967.814 -1.82344 -3.1052 0
M  V30 10287 C 967.667 -3.3613 -2.98893 0
M  V30 10288 C 968.986 -1.59545 -4.10163 0
M  V30 10289 H 966.105 -0.395205 -0.622079 0
M  V30 10290 H 968.747 -1.52983 -1.12677 0
M  V30 10291 H 966.897 -1.44452 -3.60646 0
M  V30 10292 H 968.569 -3.83614 -2.56199 0
M  V30 10293 H 966.812 -3.64553 -2.35124 0
M  V30 10294 H 967.483 -3.83064 -3.97449 0
M  V30 10295 H 969.959 -1.92504 -3.68892 0
M  V30 10296 H 968.835 -2.13736 -5.05577 0
M  V30 10297 H 969.096 -0.533503 -4.38869 0
M  V30 10298 N 968.156 1.1691 -1.05688 0
M  V30 10299 C 969.106 2.19056 -0.632339 0
M  V30 10300 C 970.09 1.574 0.333797 0
M  V30 10301 O 971.282 1.76361 0.150223 0
M  V30 10302 C 968.411 3.43297 -0.0138209 0
M  V30 10303 C 967.497 4.12042 -1.00408 0
M  V30 10304 N 967.888 4.56535 -2.17737 0
M  V30 10305 C 966.186 4.38139 -0.833663 0
M  V30 10306 C 966.887 5.09644 -2.80425 0
M  V30 10307 N 965.863 5.02153 -2.08191 0
M  V30 10308 H 969.665 2.51165 -1.52621 0
M  V30 10309 H 967.179 1.33294 -0.927707 0
M  V30 10310 H 969.176 4.1576 0.308117 0
M  V30 10311 H 967.836 3.12677 0.87538 0
M  V30 10312 H 968.847 4.50463 -2.55546 0
M  V30 10313 H 965.524 4.175 0.00406684 0
M  V30 10314 H 966.914 5.54153 -3.79952 0
M  V30 10315 N 969.634 0.838594 1.33437 0
M  V30 10316 C 970.882 0.433312 1.974 0
M  V30 10317 C 971.203 -1.01078 1.66758 0
M  V30 10318 O 970.473 -1.70406 0.966373 0
M  V30 10319 H 969.053 0.15724 0.730263 0
M  V30 10320 H 971.715 1.07149 1.62804 0
M  V30 10321 H 970.811 0.565144 3.06941 0
M  V30 10322 N 971.112 -1.45937 0.595003 0
M  V30 10323 C 972.361 -2.01529 0.0829531 0
M  V30 10324 C 972.674 -1.47071 -1.28955 0
M  V30 10325 O 973.88 -1.94561 -1.89363 0
M  V30 10326 C 972.336 -3.59767 0.0976597 0
M  V30 10327 C 971.944 -4.23223 1.46924 0
M  V30 10328 C 973.688 -4.22972 -0.359805 0
M  V30 10329 C 971.595 -5.73576 1.44101 0
M  V30 10330 H 970.525 -0.753508 0.0272425 0
M  V30 10331 H 973.176 -1.67541 0.748473 0
M  V30 10332 H 971.558 -3.90888 -0.634268 0
M  V30 10333 H 972.732 -4.03695 2.22187 0
M  V30 10334 H 971.047 -3.72161 1.86775 0
M  V30 10335 H 973.644 -5.33202 -0.39991 0
M  V30 10336 H 973.987 -3.92765 -1.37991 0
M  V30 10337 H 974.52 -3.96523 0.31845 0
M  V30 10338 H 971.259 -6.08462 2.43831 0
M  V30 10339 H 970.779 -5.95332 0.730767 0
M  V30 10340 H 972.458 -6.36531 1.1592 0
M  V30 10341 N 972.59 -0.333456 -1.54032 0
M  V30 10342 C 973.82 0.267425 -2.04862 0
M  V30 10343 C 974.228 1.45559 -1.20869 0
M  V30 10344 O 973.571 1.82197 -0.234478 0
M  V30 10345 C 973.633 0.755759 -3.51466 0
M  V30 10346 C 973.297 -0.311409 -4.55938 0
M  V30 10347 C 974.294 -1.15078 -5.07004 0
M  V30 10348 C 971.979 -0.462439 -5.00167 0
M  V30 10349 C 973.973 -2.12682 -6.0087 0
M  V30 10350 C 971.66 -1.44188 -5.93846 0
M  V30 10351 C 972.658 -2.27253 -6.44085 0
M  V30 10352 O 972.346 -3.23532 -7.35923 0
M  V30 10353 H 972.078 0.0572596 -0.673571 0
M  V30 10354 H 974.632 -0.480646 -1.99697 0
M  V30 10355 H 972.862 1.55491 -3.54062 0
M  V30 10356 H 974.551 1.27607 -3.8532 0
M  V30 10357 H 975.317 -1.04513 -4.73605 0
M  V30 10358 H 971.196 0.17424 -4.60671 0
M  V30 10359 H 974.74 -2.77555 -6.40007 0
M  V30 10360 H 970.637 -1.54813 -6.2666 0
M  V30 10361 H 971.405 -3.18886 -7.53826 0
M  V30 10362 N 974.068 1.57479 -0.061844 0
M  V30 10363 C 975.315 1.93108 0.60954 0
M  V30 10364 C 975.643 0.941086 1.70217 0
M  V30 10365 O 974.898 -0.044914 1.95648 0
M  V30 10366 C 975.197 3.35394 1.23474 0
M  V30 10367 C 974.863 4.50095 0.269247 0
M  V30 10368 C 973.525 4.812 0.00360316 0
M  V30 10369 C 975.877 5.19725 -0.391839 0
M  V30 10370 C 973.205 5.79276 -0.930383 0
M  V30 10371 C 975.557 6.18801 -1.31408 0
M  V30 10372 C 974.221 6.48328 -1.58829 0
M  V30 10373 H 973.491 0.706634 0.223046 0
M  V30 10374 H 976.138 1.91054 -0.1306 0
M  V30 10375 H 974.443 3.33866 2.05039 0
M  V30 10376 H 976.14 3.60247 1.76134 0
M  V30 10377 H 972.73 4.2583 0.486477 0
M  V30 10378 H 976.914 4.95898 -0.199713 0
M  V30 10379 H 972.17 6.00484 -1.15019 0
M  V30 10380 H 976.344 6.71862 -1.83234 0
M  V30 10381 H 973.971 7.24137 -2.31363 0
M  V30 10382 N 975.546 -0.211634 1.56173 0
M  V30 10383 C 976.771 -0.955324 1.84088 0
M  V30 10384 C 977.196 -1.76754 0.643407 0
M  V30 10385 O 976.554 -1.76653 -0.407842 0
M  V30 10386 C 976.602 -1.84063 3.10085 0
M  V30 10387 O 975.706 -2.9373 2.89476 0
M  V30 10388 H 975.047 -0.26996 0.606645 0
M  V30 10389 H 977.577 -0.221947 2.03393 0
M  V30 10390 H 977.587 -2.24852 3.40449 0
M  V30 10391 H 976.262 -1.24373 3.96868 0
M  V30 10392 H 974.839 -2.56816 2.7037 0
M  V30 10393 N 977.024 -1.50153 -0.478725 0
M  V30 10394 C 978.272 -1.60443 -1.22892 0
M  V30 10395 C 978.593 -0.303276 -1.92627 0
M  V30 10396 O 977.863 0.678798 -1.83764 0
M  V30 10397 H 976.443 -0.591205 -0.456602 0
M  V30 10398 H 979.105 -1.86893 -0.552905 0
M  V30 10399 H 978.201 -2.41175 -1.98094 0
M  V30 10400 N 978.502 0.731368 -1.39602 0
M  V30 10401 C 979.45 1.86676 -1.38761 0
M  V30 10402 C 980.444 1.6723 -0.270247 0
M  V30 10403 O 981.65 1.74528 -0.440471 0
M  V30 10404 H 978.025 0.614553 -0.433391 0
M  V30 10405 H 979.996 1.84501 -2.34525 0
M  V30 10406 C 978.745 3.24394 -1.25155 0
M  V30 10407 H 978.068 3.39955 -2.10406 0
M  V30 10408 H 979.508 4.04019 -1.28625 0
M  V30 10409 C 977.967 3.36877 0.0396976 0
M  V30 10410 O 978.497 3.88833 1.00854 0
M  V30 10411 N 976.703 2.90414 0.103965 0
M  V30 10412 H 976.25 2.48321 -0.685155 0
M  V30 10413 H 976.208 2.99146 0.967435 0
M  V30 10414 N 979.98 1.24838 0.961938 0
M  V30 10415 C 981.208 1.11871 1.74047 0
M  V30 10416 C 981.623 -0.328209 1.85925 0
M  V30 10417 O 980.98 -1.22616 1.35173 0
M  V30 10418 C 981.031 1.75931 3.15801 0
M  V30 10419 O 980.752 3.14967 3.04512 0
M  V30 10420 C 982.253 1.68649 4.09966 0
M  V30 10421 H 979.473 0.390569 0.545616 0
M  V30 10422 H 982.017 1.65058 1.20732 0
M  V30 10423 H 980.172 1.26733 3.66084 0
M  V30 10424 H 980.586 3.46349 3.93882 0
M  V30 10425 H 982.06 2.18144 5.07067 0
M  V30 10426 H 982.537 0.648831 4.34381 0
M  V30 10427 H 983.143 2.17301 3.65596 0
M  V30 10428 N 981.458 -1.16348 1.06306 0
M  V30 10429 C 982.688 -1.90505 0.799453 0
M  V30 10430 C 983.096 -1.77686 -0.649955 0
M  V30 10431 O 982.439 -1.11921 -1.45669 0
M  V30 10432 C 982.501 -3.41775 1.11492 0
M  V30 10433 C 982.165 -3.7838 2.56277 0
M  V30 10434 C 983.162 -3.80288 3.54509 0
M  V30 10435 C 980.847 -4.09007 2.9158 0
M  V30 10436 C 982.841 -4.12312 4.86084 0
M  V30 10437 C 980.528 -4.40697 4.23354 0
M  V30 10438 C 981.526 -4.4233 5.20416 0
M  V30 10439 O 981.214 -4.73267 6.49826 0
M  V30 10440 H 980.946 -0.61094 0.289359 0
M  V30 10441 H 983.5 -1.48409 1.41999 0
M  V30 10442 H 981.73 -3.84219 0.437306 0
M  V30 10443 H 983.419 -3.97207 0.835533 0
M  V30 10444 H 984.185 -3.56738 3.28577 0
M  V30 10445 H 980.064 -4.06901 2.16686 0
M  V30 10446 H 983.608 -4.13501 5.61838 0
M  V30 10447 H 979.505 -4.63713 4.49044 0
M  V30 10448 H 980.273 -4.91078 6.54817 0
M  V30 10449 N 982.937 -0.845659 -1.3299 0
M  V30 10450 C 983.867 -0.298957 -2.31578 0
M  V30 10451 C 984.848 0.597012 -1.59279 0
M  V30 10452 O 986.033 0.519142 -1.87132 0
M  V30 10453 C 983.163 0.521109 -3.43368 0
M  V30 10454 C 982.117 -0.279651 -4.27085 0
M  V30 10455 C 981.443 0.664591 -5.30554 0
M  V30 10456 C 982.743 -1.50046 -5.00283 0
M  V30 10457 H 984.437 -1.12272 -2.77552 0
M  V30 10458 H 981.983 -0.54132 -1.33438 0
M  V30 10459 H 983.936 0.913921 -4.1137 0
M  V30 10460 H 982.66 1.37815 -2.96099 0
M  V30 10461 H 981.319 -0.654106 -3.60717 0
M  V30 10462 H 980.967 1.51822 -4.79541 0
M  V30 10463 H 980.667 0.132871 -5.8745 0
M  V30 10464 H 982.191 1.05477 -6.01421 0
M  V30 10465 H 983.605 -1.18044 -5.61016 0
M  V30 10466 H 982.002 -1.96946 -5.66862 0
M  V30 10467 H 983.072 -2.26659 -4.28665 0
M  V30 10468 N 984.415 1.45619 -0.602734 0
M  V30 10469 C 985.661 2.03131 -0.104587 0
M  V30 10470 C 986.016 1.4634 1.2491 0
M  V30 10471 O 985.309 0.626733 1.8106 0
M  V30 10472 C 985.503 3.574 -0.00157909 0
M  V30 10473 C 985.332 4.29155 -1.34373 0
M  V30 10474 C 984.102 4.67272 -1.92316 0
M  V30 10475 C 986.3 4.61422 -2.27143 0
M  V30 10476 N 984.282 5.23864 -3.20062 0
M  V30 10477 C 985.653 5.18796 -3.39485 0
M  V30 10478 C 987.708 4.4336 -2.26575 0
M  V30 10479 C 986.411 5.60012 -4.51419 0
M  V30 10480 C 988.437 4.85605 -3.37553 0
M  V30 10481 C 987.799 5.43068 -4.48617 0
M  V30 10482 H 983.898 0.777739 -0.0815251 0
M  V30 10483 H 986.482 1.77504 -0.800024 0
M  V30 10484 H 984.653 3.82698 0.663068 0
M  V30 10485 H 986.385 4.01565 0.502784 0
M  V30 10486 H 983.14 4.50671 -1.45577 0
M  V30 10487 H 983.564 5.56664 -3.85298 0
M  V30 10488 H 988.206 3.98251 -1.41971 0
M  V30 10489 H 985.924 6.04089 -5.36751 0
M  V30 10490 H 989.51 4.73365 -3.38255 0
M  V30 10491 H 988.39 5.75156 -5.33072 0
M  V30 10492 N 985.893 0.34162 1.53853 0
M  V30 10493 C 987.309 -0.0103769 1.59597 0
M  V30 10494 C 987.509 -1.48897 1.35764 0
M  V30 10495 O 986.565 -2.24743 1.15095 0
M  V30 10496 C 987.878 0.424067 2.97695 0
M  V30 10497 C 989.426 0.376247 3.1073 0
M  V30 10498 C 989.901 0.786129 4.51203 0
M  V30 10499 N 991.392 0.74024 4.57247 0
M  V30 10500 C 992.127 1.02937 5.64085 0
M  V30 10501 N 991.623 1.38655 6.78783 0
M  V30 10502 N 993.416 0.953734 5.5395 0
M  V30 10503 H 985.567 1.30477 1.67599 0
M  V30 10504 H 987.83 0.531753 0.78482 0
M  V30 10505 H 987.536 1.45493 3.20195 0
M  V30 10506 H 987.41 -0.201713 3.7666 0
M  V30 10507 H 989.797 -0.645441 2.87955 0
M  V30 10508 H 989.878 1.0372 2.33828 0
M  V30 10509 H 989.522 1.80582 4.74713 0
M  V30 10510 H 989.452 0.102671 5.265 0
M  V30 10511 H 991.943 0.476763 3.7488 0
M  V30 10512 H 992.256 1.59206 7.56223 0
M  V30 10513 H 990.601 1.42498 6.80235 0
M  V30 10514 H 993.792 0.674044 4.63222 0
M  V30 10515 H 993.965 1.18241 6.37121 0
M  V30 10516 N 987.371 -1.57444 0.0701946 0
M  V30 10517 C 988.619 -1.93047 -0.598106 0
M  V30 10518 C 988.94 -0.950841 -1.70247 0
M  V30 10519 O 988.21 0.00127177 -1.959 0
M  V30 10520 H 986.79 -0.712648 -0.223924 0
M  V30 10521 H 989.452 -1.94481 0.127674 0
M  V30 10522 H 988.548 -2.94807 -1.02445 0
M  V30 10523 N 988.849 0.203349 -1.56283 0
M  V30 10524 C 989.759 1.27266 -1.9708 0
M  V30 10525 C 990.775 1.50268 -0.877236 0
M  V30 10526 O 991.951 1.63044 -1.18231 0
M  V30 10527 C 989.016 2.59871 -2.29495 0
M  V30 10528 C 988.077 2.45012 -3.52516 0
M  V30 10529 C 987.31 3.71293 -3.83376 0
M  V30 10530 O 987.533 4.75106 -3.15643 0
M  V30 10531 O 986.467 3.67316 -4.76826 0
M  V30 10532 H 990.293 0.956461 -2.88246 0
M  V30 10533 H 987.878 0.407688 -1.4373 0
M  V30 10534 H 989.76 3.38152 -2.51458 0
M  V30 10535 H 988.435 2.91135 -1.415 0
M  V30 10536 H 987.342 1.6487 -3.35811 0
M  V30 10537 H 988.675 2.18683 -4.40952 0
M  V30 10538 N 990.327 1.50405 0.470755 0
M  V30 10539 C 991.743 1.37838 0.804534 0
M  V30 10540 C 991.943 0.434743 1.96754 0
M  V30 10541 O 990.999 -0.122507 2.52203 0
M  V30 10542 C 992.312 2.79212 1.11629 0
M  V30 10543 C 993.86 2.88129 1.22272 0
M  V30 10544 C 994.335 4.30337 1.5676 0
M  V30 10545 N 995.826 4.3329 1.63751 0
M  V30 10546 C 996.561 5.4032 1.91942 0
M  V30 10547 N 996.057 6.57558 2.18151 0
M  V30 10548 N 997.85 5.27764 1.93446 0
M  V30 10549 H 990.001 2.10332 -0.295689 0
M  V30 10550 H 992.264 0.945429 -0.0697733 0
M  V30 10551 H 991.97 3.50103 0.334778 0
M  V30 10552 H 991.844 3.16475 2.0524 0
M  V30 10553 H 994.231 2.17457 1.9949 0
M  V30 10554 H 994.312 2.54409 0.2664 0
M  V30 10555 H 993.956 5.01547 0.800817 0
M  V30 10556 H 993.886 4.61545 2.53543 0
M  V30 10557 H 996.377 3.48752 1.45535 0
M  V30 10558 H 996.69 7.34935 2.38936 0
M  V30 10559 H 995.035 6.60732 2.15542 0
M  V30 10560 H 998.226 4.35169 1.72468 0
M  V30 10561 H 998.399 6.11264 2.15081 0
M  V30 10562 N 991.805 -0.723954 1.39988 0
M  V30 10563 C 993.221 -1.03095 1.21834 0
M  V30 10564 C 993.421 -2.01309 0.0876647 0
M  V30 10565 O 992.477 -2.46277 -0.55714 0
M  V30 10566 C 993.79 -1.58267 2.5568 0
M  V30 10567 C 995.338 -1.70293 2.6262 0
M  V30 10568 C 995.813 -2.28872 3.96713 0
M  V30 10569 N 997.304 -2.36269 3.98411 0
M  V30 10570 C 998.039 -2.82557 4.98948 0
M  V30 10571 N 997.535 -3.28661 6.0988 0
M  V30 10572 N 999.328 -2.81866 4.86321 0
M  V30 10573 H 991.479 -0.0727891 2.12275 0
M  V30 10574 H 993.742 -0.0949029 0.943238 0
M  V30 10575 H 993.448 -0.935642 3.39026 0
M  V30 10576 H 993.322 -2.56914 2.76179 0
M  V30 10577 H 995.709 -2.34115 1.7965 0
M  V30 10578 H 995.79 -0.70268 2.45959 0
M  V30 10579 H 995.434 -1.65675 4.80119 0
M  V30 10580 H 995.364 -3.29595 4.107 0
M  V30 10581 H 997.855 -2.03697 3.18302 0
M  V30 10582 H 998.168 -3.62524 6.82493 0
M  V30 10583 H 996.513 -3.26641 6.13458 0
M  V30 10584 H 999.704 -2.45179 3.98754 0
M  V30 10585 H 999.877 -3.17626 5.64817 0
M  V30 10586 N 993.283 -1.25346 -0.955304 0
M  V30 10587 C 994.56 -1.00829 -1.67609 0
M  V30 10588 C 994.94 0.465675 -2.059 0
M  V30 10589 O 994.288 1.44287 -1.77182 0
M  V30 10590 C 994.498 -1.94337 -2.89886 0
M  V30 10591 C 995.846 -2.22142 -3.61854 0
M  V30 10592 O 996.87 -1.9209 -2.99967 0
M  V30 10593 O 995.729 -2.73239 -4.73289 0
M  V30 10594 H 992.823 -0.382314 -0.733325 0
M  V30 10595 H 995.369 -1.36498 -1.00829 0
M  V30 10596 H 994.141 -2.93867 -2.58376 0
M  V30 10597 H 993.764 -1.59062 -3.64397 0
M  V30 10598 N 994.761 1.15782 -1.06922 0
M  V30 10599 C 995.989 1.90355 -0.81072 0
M  V30 10600 C 996.404 1.77779 0.635614 0
M  V30 10601 O 995.761 1.12675 1.43564 0
M  V30 10602 C 995.812 3.4085 -1.2043 0
M  V30 10603 O 995.533 3.53057 -2.59388 0
M  V30 10604 C 997.034 4.32457 -0.974473 0
M  V30 10605 H 994.254 0.60343 -0.293451 0
M  V30 10606 H 996.798 1.46723 -1.42452 0
M  V30 10607 H 994.953 3.82162 -0.634909 0
M  V30 10608 H 995.367 4.46426 -2.75326 0
M  V30 10609 H 996.841 5.36488 -1.29942 0
M  V30 10610 H 997.318 4.39109 0.0894481 0
M  V30 10611 H 997.924 3.96882 -1.52856 0
M  V30 10612 N 996.239 0.8527 1.3254 0
M  V30 10613 C 997.202 0.300959 2.27215 0
M  V30 10614 C 998.202 -0.538235 1.51525 0
M  V30 10615 O 999.392 -0.350027 1.70647 0
M  V30 10616 C 996.524 -0.574428 3.36025 0
M  V30 10617 H 997.717 1.13655 2.77529 0
M  V30 10618 H 995.27 0.626878 1.43178 0
M  V30 10619 H 996.005 -1.43191 2.90976 0
M  V30 10620 H 995.79 0.0262265 3.92091 0
M  V30 10621 H 997.28 -0.9533 4.06573 0
M  V30 10622 N 997.718 -1.45297 0.610449 0
M  V30 10623 C 998.666 -2.32295 -0.119167 0
M  V30 10624 C 999.66 -1.46138 -0.856746 0
M  V30 10625 O 1000.87 -1.62605 -0.771988 0
M  V30 10626 H 997.241 -0.749815 -0.0572881 0
M  V30 10627 H 999.212 -2.91609 0.63297 0
M  V30 10628 C 997.961 -3.29802 -1.10119 0
M  V30 10629 H 997.284 -3.96095 -0.543063 0
M  V30 10630 H 998.724 -3.93398 -1.58158 0
M  V30 10631 C 997.183 -2.57185 -2.17617 0
M  V30 10632 O 997.713 -2.35535 -3.25401 0
M  V30 10633 N 995.919 -2.17272 -1.9298 0
M  V30 10634 H 995.466 -2.3508 -1.05334 0
M  V30 10635 H 995.424 -1.69009 -2.6511 0
M  V30 10636 N 999.196 -0.349774 -1.5367 0
M  V30 10637 C 1000.13 0.496338 -2.28164 0
M  V30 10638 C 1001.11 1.09737 -1.29968 0
M  V30 10639 O 1002.29 1.11759 -1.58819 0
M  V30 10640 C 999.422 1.64428 -3.0591 0
M  V30 10641 C 998.376 1.17127 -4.11661 0
M  V30 10642 C 997.702 2.40822 -4.77398 0
M  V30 10643 C 999.002 0.267293 -5.21616 0
M  V30 10644 H 1000.7 -0.125117 -2.99138 0
M  V30 10645 H 998.242 -0.0616152 -1.43868 0
M  V30 10646 H 1000.19 2.2427 -3.56765 0
M  V30 10647 H 998.919 2.29272 -2.32598 0
M  V30 10648 H 997.578 0.595634 -3.61729 0
M  V30 10649 H 997.226 3.04088 -4.00674 0
M  V30 10650 H 996.926 2.09852 -5.48849 0
M  V30 10651 H 998.45 3.01378 -5.3104 0
M  V30 10652 H 999.864 0.772734 -5.68068 0
M  V30 10653 H 998.261 0.0491991 -6.0008 0
M  V30 10654 H 999.331 -0.694892 -4.79895 0
M  V30 10655 N 1000.67 1.57404 -0.0785433 0
M  V30 10656 C 1001.92 1.93744 0.589024 0
M  V30 10657 C 1002.25 0.959087 1.69209 0
M  V30 10658 O 1001.5 -0.0241604 1.95685 0
M  V30 10659 C 1001.8 3.36684 1.1991 0
M  V30 10660 C 1001.47 4.50356 0.221493 0
M  V30 10661 C 1000.13 4.81177 -0.0474347 0
M  V30 10662 C 1002.48 5.1928 -0.446941 0
M  V30 10663 C 999.811 5.78257 -0.99177 0
M  V30 10664 C 1002.16 6.17372 -1.37964 0
M  V30 10665 C 1000.83 6.46607 -1.65697 0
M  V30 10666 H 1000.1 0.70896 0.215539 0
M  V30 10667 H 1002.74 1.90905 -0.150856 0
M  V30 10668 H 1001.05 3.36022 2.01486 0
M  V30 10669 H 1002.75 3.62095 1.72303 0
M  V30 10670 H 999.336 4.26322 0.441284 0
M  V30 10671 H 1003.52 4.95658 -0.252298 0
M  V30 10672 H 998.776 5.9923 -1.21381 0
M  V30 10673 H 1002.95 6.6988 -1.9035 0
M  V30 10674 H 1000.58 7.21643 -2.39031 0
M  V30 10675 N 1002.15 -0.195058 1.56388 0
M  V30 10676 C 1003.56 -0.75973 1.70543 0
M  V30 10677 C 1003.91 -1.83849 0.685118 0
M  V30 10678 O 1003.04 -2.15819 -0.158457 0
M  V30 10679 C 1003.63 -1.38485 3.09204 0
M  V30 10680 C 1002.19 -1.89661 3.25124 0
M  V30 10681 C 1001.34 -0.766563 2.66494 0
M  V30 10682 H 1004.29 0.0300148 1.58672 0
M  V30 10683 H 1004.31 -2.25424 3.06536 0
M  V30 10684 H 1003.82 -0.599479 3.83442 0
M  V30 10685 H 1001.92 -2.70917 2.55802 0
M  V30 10686 H 1002.04 -2.05837 4.32629 0
M  V30 10687 H 1000.4 -1.18086 2.25672 0
M  V30 10688 H 1001.18 0.00657102 3.43299 0
M  V30 10689 N 1003.63 -1.50653 -0.462772 0
M  V30 10690 C 1004.56 -1.66286 -1.5774 0
M  V30 10691 C 1005.57 -0.544094 -1.53439 0
M  V30 10692 O 1006.76 -0.817566 -1.58676 0
M  V30 10693 C 1003.86 -1.63893 -2.96635 0
M  V30 10694 C 1003.04 -2.91939 -3.25716 0
M  V30 10695 C 1002.1 -2.82076 -4.44206 0
M  V30 10696 O 1001.12 -3.56032 -4.44106 0
M  V30 10697 N 1002.32 -1.96196 -5.4634 0
M  V30 10698 H 1005.09 -2.6243 -1.44742 0
M  V30 10699 H 1002.65 -1.48221 -0.651326 0
M  V30 10700 H 1004.64 -1.54897 -3.73884 0
M  V30 10701 H 1003.21 -0.75449 -3.03358 0
M  V30 10702 H 1002.43 -3.14998 -2.37002 0
M  V30 10703 H 1003.72 -3.7675 -3.4196 0
M  V30 10704 H 1003.12 -1.35439 -5.49247 0
M  V30 10705 H 1001.67 -1.93097 -6.2254 0
M  V30 10706 N 1005.11 0.71652 -1.4037 0
M  V30 10707 C 1006.34 1.50563 -1.4191 0
M  V30 10708 C 1006.75 1.88791 -0.0185456 0
M  V30 10709 O 1006.11 1.55378 0.957289 0
M  V30 10710 C 1006.16 2.78155 -2.30894 0
M  V30 10711 O 1005.88 2.41543 -3.65497 0
M  V30 10712 C 1007.38 3.72057 -2.41016 0
M  V30 10713 H 1004.6 0.464679 -0.48406 0
M  V30 10714 H 1007.15 0.883927 -1.8441 0
M  V30 10715 H 1005.3 3.36611 -1.91759 0
M  V30 10716 H 1005.71 3.23636 -4.12747 0
M  V30 10717 H 1007.19 4.58426 -3.07489 0
M  V30 10718 H 1007.67 4.15098 -1.43492 0
M  V30 10719 H 1008.27 3.19512 -2.80699 0
M  V30 10720 N 1006.59 1.25851 0.948643 0
M  V30 10721 C 1007.81 1.13813 1.73382 0
M  V30 10722 C 1008.24 -0.303615 1.85633 0
M  V30 10723 O 1007.59 -1.21997 1.34114 0
M  V30 10724 C 1007.64 1.80388 3.12238 0
M  V30 10725 O 1006.75 1.08759 3.978 0
M  V30 10726 H 1006.09 0.397006 0.532243 0
M  V30 10727 H 1008.62 1.66529 1.18866 0
M  V30 10728 H 1008.63 1.86913 3.62667 0
M  V30 10729 H 1007.3 2.85278 3.02637 0
M  V30 10730 H 1005.88 1.10157 3.56258 0
M  V30 10731 N 1008.06 -1.15214 1.07534 0
M  V30 10732 C 1008.99 -2.2216 0.718837 0
M  V30 10733 C 1009.98 -1.6753 -0.29459 0
M  V30 10734 O 1011.16 -1.93481 -0.166931 0
M  V30 10735 C 1008.29 -3.471 0.117836 0
M  V30 10736 C 1007.24 -4.14701 1.05862 0
M  V30 10737 C 1006.57 -5.3374 0.320284 0
M  V30 10738 C 1007.87 -4.64254 2.39302 0
M  V30 10739 H 1009.56 -2.52237 1.61297 0
M  V30 10740 H 1007.11 -1.21239 0.776992 0
M  V30 10741 H 1009.06 -4.21156 -0.143519 0
M  V30 10742 H 1007.79 -3.16361 -0.811389 0
M  V30 10743 H 1006.45 -3.42589 1.30493 0
M  V30 10744 H 1006.09 -4.99257 -0.61246 0
M  V30 10745 H 1005.79 -5.79912 0.947381 0
M  V30 10746 H 1007.32 -6.10563 0.0667721 0
M  V30 10747 H 1008.73 -5.29827 2.18988 0
M  V30 10748 H 1007.13 -5.21095 2.97623 0
M  V30 10749 H 1008.2 -3.79793 3.01472 0
M  V30 10750 N 1009.54 -0.859717 -1.32086 0
M  V30 10751 C 1010.77 -0.479724 -2.01262 0
M  V30 10752 C 1011.19 0.924985 -1.64589 0
M  V30 10753 O 1010.54 1.60439 -0.869803 0
M  V30 10754 C 1010.59 -0.615128 -3.56228 0
M  V30 10755 O 1010.31 -1.96451 -3.91585 0
M  V30 10756 C 1011.82 -0.234804 -4.42678 0
M  V30 10757 H 1009.04 -0.188007 -0.644123 0
M  V30 10758 H 1011.58 -1.15805 -1.68551 0
M  V30 10759 H 1009.73 0.0155268 -3.87397 0
M  V30 10760 H 1010.15 -1.96491 -4.86304 0
M  V30 10761 H 1011.62 -0.380534 -5.50687 0
M  V30 10762 H 1012.1 0.825189 -4.31378 0
M  V30 10763 H 1012.71 -0.840739 -4.16907 0
M  V30 10764 N 1011.02 1.44971 -0.618145 0
M  V30 10765 C 1011.95 2.33357 0.0815955 0
M  V30 10766 C 1012.93 1.47451 0.848072 0
M  V30 10767 O 1014.12 1.762 0.816532 0
M  V30 10768 C 1011.25 3.30324 1.07253 0
M  V30 10769 C 1010.2 4.25948 0.418563 0
M  V30 10770 C 1009.53 5.12685 1.51849 0
M  V30 10771 C 1010.83 5.18024 -0.66697 0
M  V30 10772 H 1012.52 2.92115 -0.656442 0
M  V30 10773 H 1010.07 1.40465 -0.317129 0
M  V30 10774 H 1012.02 3.91033 1.57069 0
M  V30 10775 H 1010.74 2.69748 1.8413 0
M  V30 10776 H 1009.4 3.66553 -0.0588308 0
M  V30 10777 H 1009.05 4.4847 2.2778 0
M  V30 10778 H 1008.75 5.7747 1.08637 0
M  V30 10779 H 1010.27 5.76264 2.01871 0
M  V30 10780 H 1011.69 5.72744 -0.252448 0
M  V30 10781 H 1010.09 5.91343 -1.02146 0
M  V30 10782 H 1011.16 4.59817 -1.53936 0
M  V30 10783 N 1012.5 0.357919 1.53482 0
M  V30 10784 C 1013.45 -0.50845 2.22258 0
M  V30 10785 C 1014.43 -1.05476 1.21506 0
M  V30 10786 O 1015.62 -0.986075 1.46988 0
M  V30 10787 C 1012.75 -1.65157 3.00962 0
M  V30 10788 C 1011.84 -1.11851 4.09084 0
M  V30 10789 N 1012.23 -0.307818 5.04862 0
M  V30 10790 C 1010.53 -1.39405 4.23653 0
M  V30 10791 C 1011.23 -0.016842 5.81698 0
M  V30 10792 N 1010.21 -0.612396 5.40139 0
M  V30 10793 H 1014.01 0.117836 2.93664 0
M  V30 10794 H 1011.52 0.16553 1.61554 0
M  V30 10795 H 1013.52 -2.28435 3.48745 0
M  V30 10796 H 1012.18 -2.281 2.31086 0
M  V30 10797 H 1013.19 0.0523313 5.17874 0
M  V30 10798 H 1009.87 -2.02682 3.65002 0
M  V30 10799 H 1011.26 0.638046 6.68864 0
M  V30 10800 N 1013.98 -1.5736 0.0868897 0
M  V30 10801 C 1014.91 -2.09211 -0.911382 0
M  V30 10802 C 1015.89 -1.00072 -1.28157 0
M  V30 10803 O 1017.07 -1.27514 -1.38825 0
M  V30 10804 C 1014.2 -2.56229 -2.21504 0
M  V30 10805 C 1013.24 -3.76948 -1.99531 0
M  V30 10806 S 1014.08 -5.20926 -1.24083 0
M  V30 10807 C 1015.23 -5.71288 -2.55697 0
M  V30 10808 H 1015.47 -2.93557 -0.470245 0
M  V30 10809 H 1013 -1.53883 -0.126218 0
M  V30 10810 H 1014.96 -2.83978 -2.96424 0
M  V30 10811 H 1013.62 -1.72123 -2.6274 0
M  V30 10812 H 1012.81 -4.07887 -2.96048 0
M  V30 10813 H 1012.41 -3.4965 -1.32744 0
M  V30 10814 H 1014.71 -5.79054 -3.51714 0
M  V30 10815 H 1015.65 -6.6993 -2.29347 0
M  V30 10816 H 1016.06 -4.99178 -2.63594 0
M  V30 10817 N 1015.45 0.186762 -1.56489 0
M  V30 10818 C 1016.7 0.902594 -1.82277 0
M  V30 10819 C 1017.06 1.80536 -0.665179 0
M  V30 10820 O 1016.35 1.88573 0.339224 0
M  V30 10821 C 1016.54 1.74719 -3.11782 0
M  V30 10822 C 1016.37 0.92769 -4.40027 0
M  V30 10823 C 1015.14 0.608832 -5.01619 0
M  V30 10824 C 1017.34 0.276471 -5.13556 0
M  V30 10825 N 1015.32 -0.228425 -6.13475 0
M  V30 10826 C 1016.69 -0.42262 -6.18558 0
M  V30 10827 C 1018.75 0.19305 -4.97526 0
M  V30 10828 C 1017.45 -1.1972 -7.09267 0
M  V30 10829 C 1019.48 -0.568152 -5.88665 0
M  V30 10830 C 1018.84 -1.25566 -6.93118 0
M  V30 10831 H 1014.94 0.309403 -0.718188 0
M  V30 10832 H 1017.52 0.170693 -1.9395 0
M  V30 10833 H 1015.69 2.45063 -3.01328 0
M  V30 10834 H 1017.42 2.40314 -3.25625 0
M  V30 10835 H 1014.18 0.935247 -4.64274 0
M  V30 10836 H 1014.6 -0.636908 -6.73997 0
M  V30 10837 H 1019.25 0.71023 -4.16792 0
M  V30 10838 H 1016.96 -1.72578 -7.89457 0
M  V30 10839 H 1020.55 -0.634164 -5.78333 0
M  V30 10840 H 1019.43 -1.83524 -7.62423 0
M  V30 10841 N 1016.93 1.50896 0.454776 0
M  V30 10842 C 1018.34 1.55372 1.0352 0
M  V30 10843 C 1018.69 0.366822 1.9274 0
M  V30 10844 O 1017.82 -0.518444 2.10098 0
M  V30 10845 C 1018.41 2.81574 1.88418 0
M  V30 10846 C 1016.97 2.88679 2.4154 0
M  V30 10847 C 1016.12 2.49847 1.20298 0
M  V30 10848 H 1019.07 1.56924 0.236729 0
M  V30 10849 H 1019.09 2.64352 2.73676 0
M  V30 10850 H 1018.6 3.67941 1.23455 0
M  V30 10851 H 1016.71 2.06702 3.10008 0
M  V30 10852 H 1016.82 3.91944 2.7553 0
M  V30 10853 H 1015.18 2.02651 1.54288 0
M  V30 10854 H 1015.97 3.3854 0.569723 0
M  V30 10855 N 1018.41 -0.709066 1.40748 0
M  V30 10856 C 1019.69 -1.4626 1.29874 0
M  V30 10857 C 1020.07 -2.10949 -0.0799322 0
M  V30 10858 O 1019.42 -2.00651 -1.09323 0
M  V30 10859 C 1019.63 -2.49302 2.44232 0
M  V30 10860 C 1020.97 -3.14945 2.84771 0
M  V30 10861 O 1022 -2.59623 2.43873 0
M  V30 10862 O 1020.86 -4.15111 3.5545 0
M  V30 10863 H 1017.95 -0.650716 0.51039 0
M  V30 10864 H 1020.5 -0.740687 1.52682 0
M  V30 10865 H 1019.27 -2.00063 3.36289 0
M  V30 10866 H 1018.89 -3.29021 2.23229 0
M  V30 10867 N 1019.89 -1.26353 -0.941956 0
M  V30 10868 C 1021.12 -1.14626 -1.72245 0
M  V30 10869 C 1021.53 0.298588 -1.86424 0
M  V30 10870 O 1020.89 1.2045 -1.37106 0
M  V30 10871 C 1020.94 -1.80933 -3.12963 0
M  V30 10872 O 1020.66 -3.19771 -2.99463 0
M  V30 10873 C 1022.16 -1.7515 -4.07231 0
M  V30 10874 H 1019.38 -0.3992 -0.539333 0
M  V30 10875 H 1021.93 -1.66958 -1.1809 0
M  V30 10876 H 1020.08 -1.32541 -3.64021 0
M  V30 10877 H 1020.5 -3.52571 -3.88322 0
M  V30 10878 H 1021.97 -2.26183 -5.03533 0
M  V30 10879 H 1022.45 -0.717855 -4.33294 0
M  V30 10880 H 1023.05 -2.2309 -3.62093 0
M  V30 10881 N 1021.37 1.14642 -1.08144 0
M  V30 10882 C 1022.28 2.23257 -0.720668 0
M  V30 10883 C 1023.29 1.71866 0.271648 0
M  V30 10884 O 1024.47 2.01064 0.116266 0
M  V30 10885 C 1021.53 3.46447 -0.132542 0
M  V30 10886 C 1020.6 4.12789 -1.17913 0
M  V30 10887 C 1019.83 5.30099 -0.618971 0
M  V30 10888 O 1020.05 5.6762 0.562418 0
M  V30 10889 O 1018.99 5.86154 -1.36774 0
M  V30 10890 H 1022.81 2.56463 -1.62667 0
M  V30 10891 H 1020.4 1.22521 -0.854932 0
M  V30 10892 H 1022.28 4.20959 0.19277 0
M  V30 10893 H 1020.95 3.14971 0.746662 0
M  V30 10894 H 1019.86 3.40163 -1.55693 0
M  V30 10895 H 1021.19 4.48365 -2.03051 0
M  V30 10896 N 1022.85 0.866709 1.31628 0
M  V30 10897 C 1024.09 0.475086 1.96437 0
M  V30 10898 C 1024.41 -0.975179 1.68865 0
M  V30 10899 O 1023.68 -1.68317 1.0023 0
M  V30 10900 H 1022.26 0.172695 0.726764 0
M  V30 10901 H 1024.93 1.10578 1.60494 0
M  V30 10902 H 1024.02 0.630123 3.05673 0
M  V30 10903 N 1024.32 -1.44642 0.625825 0
M  V30 10904 C 1025.55 -2.06458 0.135116 0
M  V30 10905 C 1025.97 -1.46729 -1.18811 0
M  V30 10906 O 1025.32 -0.58818 -1.72762 0
M  V30 10907 C 1025.37 -3.61499 0.00850114 0
M  V30 10908 O 1025.1 -4.19002 1.2794 0
M  V30 10909 C 1026.6 -4.40339 -0.511527 0
M  V30 10910 H 1023.82 -0.666541 0.0772294 0
M  V30 10911 H 1026.36 -1.85597 0.858726 0
M  V30 10912 H 1024.52 -3.81641 -0.665522 0
M  V30 10913 H 1024.93 -5.12385 1.12081 0
M  V30 10914 H 1026.4 -5.49262 -0.549149 0
M  V30 10915 H 1026.88 -4.11409 -1.53752 0
M  V30 10916 H 1027.49 -4.25104 0.129066 0
M  V30 10917 N 1025.8 -0.366053 -1.5329 0
M  V30 10918 C 1027.05 0.223493 -2.01263 0
M  V30 10919 C 1027.38 1.48736 -1.25331 0
M  V30 10920 O 1026.63 1.92805 -0.335341 0
M  V30 10921 C 1026.93 0.560906 -3.52971 0
M  V30 10922 C 1026.6 -0.60869 -4.46773 0
M  V30 10923 C 1025.26 -0.929609 -4.72135 0
M  V30 10924 C 1027.61 -1.39225 -5.02261 0
M  V30 10925 C 1024.94 -2.03606 -5.50238 0
M  V30 10926 C 1027.29 -2.48912 -5.81572 0
M  V30 10927 C 1025.95 -2.81538 -6.05221 0
M  V30 10928 H 1025.22 0.0817818 -0.736473 0
M  V30 10929 H 1027.87 -0.498613 -1.84895 0
M  V30 10930 H 1026.18 1.36403 -3.67289 0
M  V30 10931 H 1027.87 1.02931 -3.87564 0
M  V30 10932 H 1024.46 -0.348529 -4.27181 0
M  V30 10933 H 1028.65 -1.15757 -4.82612 0
M  V30 10934 H 1023.9 -2.29281 -5.6678 0
M  V30 10935 H 1028.08 -3.10044 -6.23575 0
M  V30 10936 H 1025.7 -3.67396 -6.65525 0
M  V30 10937 N 1027.28 1.57312 -0.0952337 0
M  V30 10938 C 1028.23 2.15263 0.881167 0
M  V30 10939 C 1029.22 1.09552 1.29208 0
M  V30 10940 O 1030.43 1.27897 1.26659 0
M  V30 10941 H 1026.8 0.688611 0.302191 0
M  V30 10942 H 1028.77 2.96126 0.367694 0
M  V30 10943 C 1027.52 2.74779 2.13053 0
M  V30 10944 H 1026.85 3.55807 1.82323 0
M  V30 10945 H 1028.29 3.18895 2.79431 0
M  V30 10946 C 1026.74 1.7068 2.90465 0
M  V30 10947 O 1027.27 1.14582 3.85011 0
M  V30 10948 N 1025.48 1.41169 2.54007 0
M  V30 10949 H 1025.03 1.86977 1.77193 0
M  V30 10950 H 1024.99 0.717559 3.06102 0
M  V30 10951 N 1028.76 -0.17846 1.56586 0
M  V30 10952 C 1030 -0.897562 1.81856 0
M  V30 10953 C 1030.34 -1.82204 0.671955 0
M  V30 10954 O 1029.61 -1.91739 -0.326535 0
M  V30 10955 C 1029.89 -1.69942 3.17477 0
M  V30 10956 C 1029.75 -0.798545 4.42655 0
M  V30 10957 C 1031.07 -2.66861 3.49962 0
M  V30 10958 H 1028.19 -0.324863 0.661539 0
M  V30 10959 H 1030.83 -0.164106 1.8929 0
M  V30 10960 H 1028.98 -2.32471 3.11271 0
M  V30 10961 H 1030.65 -0.18668 4.60922 0
M  V30 10962 H 1028.89 -0.106181 4.3367 0
M  V30 10963 H 1029.56 -1.39496 5.34083 0
M  V30 10964 H 1032.04 -2.1446 3.56576 0
M  V30 10965 H 1030.92 -3.20037 4.45946 0
M  V30 10966 H 1031.18 -3.46715 2.74301 0
M  V30 10967 N 1030.24 -1.51135 -0.446768 0
M  V30 10968 C 1031.15 -1.74595 -1.56696 0
M  V30 10969 C 1032.16 -0.629816 -1.62201 0
M  V30 10970 O 1033.34 -0.910987 -1.79619 0
M  V30 10971 C 1030.4 -1.85738 -2.9275 0
M  V30 10972 C 1029.46 -3.09564 -2.97437 0
M  V30 10973 C 1028.7 -3.20165 -4.27001 0
M  V30 10974 O 1028.92 -2.36939 -5.1886 0
M  V30 10975 O 1027.85 -4.13077 -4.3778 0
M  V30 10976 H 1031.68 -2.69601 -1.39817 0
M  V30 10977 H 1029.26 -1.35523 -0.628805 0
M  V30 10978 H 1031.15 -1.95107 -3.73512 0
M  V30 10979 H 1029.82 -0.939184 -3.09776 0
M  V30 10980 H 1028.73 -3.05679 -2.15664 0
M  V30 10981 H 1030.06 -4.01041 -2.85353 0
M  V30 10982 N 1031.71 0.701592 -1.41122 0
M  V30 10983 C 1032.95 1.4739 -1.41618 0
M  V30 10984 C 1033.32 1.91987 -0.0219443 0
M  V30 10985 O 1034.52 2.6862 0.0982793 0
M  V30 10986 C 1032.79 2.65745 -2.38986 0
M  V30 10987 S 1034.35 3.54968 -2.5796 0
M  V30 10988 H 1031.17 0.503742 -0.501762 0
M  V30 10989 H 1033.77 0.819186 -1.77509 0
M  V30 10990 H 1032.47 2.31176 -3.39096 0
M  V30 10991 H 1032 3.36115 -2.04426 0
M  V30 10992 H 1034.02 4.60724 -1.84249 0
M  V30 10993 N 1033.19 1.2685 0.935242 0
M  V30 10994 C 1034.12 1.1143 2.05196 0
M  V30 10995 C 1035.1 0.0178362 1.70091 0
M  V30 10996 O 1036.29 0.190951 1.93259 0
M  V30 10997 C 1033.42 0.752779 3.39044 0
M  V30 10998 C 1032.37 1.80164 3.88233 0
M  V30 10999 C 1031.7 1.29428 5.18799 0
M  V30 11000 C 1033 3.20431 4.12457 0
M  V30 11001 H 1034.69 2.04845 2.18355 0
M  V30 11002 H 1032.24 0.986276 1.04922 0
M  V30 11003 H 1034.19 0.631757 4.16637 0
M  V30 11004 H 1032.91 -0.217075 3.25878 0
M  V30 11005 H 1031.57 1.91144 3.12825 0
M  V30 11006 H 1031.22 0.3141 5.02018 0
M  V30 11007 H 1030.92 1.99546 5.5268 0
M  V30 11008 H 1032.45 1.18605 5.9897 0
M  V30 11009 H 1033.86 3.12495 4.80645 0
M  V30 11010 H 1032.26 3.88193 4.57631 0
M  V30 11011 H 1033.33 3.66046 3.18023 0
M  V30 11012 N 1034.67 -1.14067 1.0875 0
M  V30 11013 C 1035.9 -1.89041 0.840902 0
M  V30 11014 C 1036.31 -1.78768 -0.60725 0
M  V30 11015 O 1035.67 -1.14945 -1.41753 0
M  V30 11016 C 1035.72 -3.38891 1.25838 0
M  V30 11017 O 1035.44 -3.48886 2.64972 0
M  V30 11018 C 1036.94 -4.30852 1.04315 0
M  V30 11019 H 1034.16 -0.598685 0.303014 0
M  V30 11020 H 1036.71 -1.44438 1.44769 0
M  V30 11021 H 1034.86 -3.81103 0.695627 0
M  V30 11022 H 1035.28 -4.41989 2.82393 0
M  V30 11023 H 1036.75 -5.34353 1.38461 0
M  V30 11024 H 1037.23 -4.39196 -0.0195784 0
M  V30 11025 H 1037.83 -3.944 1.59151 0
M  V30 11026 N 1036.15 -0.873678 -1.31166 0
M  V30 11027 C 1037.38 -0.501043 -2.00742 0
M  V30 11028 C 1037.79 0.907477 -1.65561 0
M  V30 11029 O 1037.15 1.59507 -0.886771 0
M  V30 11030 C 1037.2 -0.652877 -3.55556 0
M  V30 11031 O 1036.92 -2.00593 -3.89479 0
M  V30 11032 C 1038.42 -0.281742 -4.42404 0
M  V30 11033 H 1035.64 -0.194829 -0.642092 0
M  V30 11034 H 1038.19 -1.17587 -1.67313 0
M  V30 11035 H 1036.34 -0.0255627 -3.87392 0
M  V30 11036 H 1036.75 -2.01638 -4.84193 0
M  V30 11037 H 1038.23 -0.43892 -5.50252 0
M  V30 11038 H 1038.71 0.779389 -4.32229 0
M  V30 11039 H 1039.31 -0.88491 -4.15992 0
M  V30 11040 N 1037.63 1.44308 -0.633487 0
M  V30 11041 C 1038.9 1.95476 -0.0697262 0
M  V30 11042 C 1039.28 1.57539 1.40516 0
M  V30 11043 O 1038.63 0.850632 2.12077 0
M  V30 11044 C 1038.84 3.4775 -0.295093 0
M  V30 11045 C 1040.19 4.24177 -0.189542 0
M  V30 11046 O 1041.21 3.55479 -0.226586 0
M  V30 11047 O 1040.07 5.46415 -0.096479 0
M  V30 11048 H 1037.17 0.826734 0.0209582 0
M  V30 11049 H 1039.71 1.54347 -0.705354 0
M  V30 11050 H 1038.48 3.6842 -1.31841 0
M  V30 11051 H 1038.11 3.95832 0.37456 0
M  V30 11052 N 1039.1 0.374177 1.53094 0
M  V30 11053 C 1040.05 -0.484848 2.22785 0
M  V30 11054 C 1041.04 -1.04181 1.22617 0
M  V30 11055 O 1042.23 -0.97043 1.48026 0
M  V30 11056 C 1039.36 -1.61956 3.02696 0
M  V30 11057 C 1038.45 -1.07506 4.10248 0
M  V30 11058 N 1038.84 -0.254253 5.05161 0
M  V30 11059 C 1037.13 -1.34904 4.25108 0
M  V30 11060 C 1037.84 0.0448558 5.81683 0
M  V30 11061 N 1036.81 -0.555073 5.40759 0
M  V30 11062 H 1040.61 0.148976 2.93522 0
M  V30 11063 H 1038.13 0.182656 1.6137 0
M  V30 11064 H 1040.12 -2.24723 3.51148 0
M  V30 11065 H 1038.78 -2.25636 2.33492 0
M  V30 11066 H 1039.8 0.107256 5.17789 0
M  V30 11067 H 1036.47 -1.98799 3.67131 0
M  V30 11068 H 1037.86 0.708952 6.68149 0
M  V30 11069 N 1040.58 -1.57259 0.103575 0
M  V30 11070 C 1041.81 -1.98711 -0.565454 0
M  V30 11071 C 1042.22 -0.981759 -1.61735 0
M  V30 11072 O 1041.56 0.0357019 -1.83665 0
M  V30 11073 C 1041.63 -3.36552 -1.26384 0
M  V30 11074 C 1041.29 -4.55566 -0.361714 0
M  V30 11075 C 1042.29 -5.18408 0.393539 0
M  V30 11076 C 1039.97 -5.01534 -0.277292 0
M  V30 11077 C 1041.97 -6.25594 1.2211 0
M  V30 11078 C 1039.65 -6.08584 0.553919 0
M  V30 11079 C 1040.65 -6.7048 1.30176 0
M  V30 11080 O 1040.34 -7.75464 2.1192 0
M  V30 11081 H 1040.07 -0.657853 -0.155582 0
M  V30 11082 H 1042.62 -2.04591 0.182089 0
M  V30 11083 H 1040.85 -3.2738 -2.05813 0
M  V30 11084 H 1042.54 -3.62395 -1.82824 0
M  V30 11085 H 1043.31 -4.8382 0.338098 0
M  V30 11086 H 1039.19 -4.53114 -0.849047 0
M  V30 11087 H 1042.73 -6.73836 1.80531 0
M  V30 11088 H 1038.63 -6.42604 0.610809 0
M  V30 11089 H 1039.4 -7.92491 2.04694 0
M  V30 11090 N 1042.06 0.170153 -1.56679 0
M  V30 11091 C 1043.29 0.902134 -1.86197 0
M  V30 11092 C 1043.7 1.75775 -0.689098 0
M  V30 11093 O 1043.06 1.79271 0.341763 0
M  V30 11094 C 1043.11 1.77792 -3.14757 0
M  V30 11095 O 1042.83 0.956817 -4.27524 0
M  V30 11096 C 1044.33 2.61947 -3.57629 0
M  V30 11097 H 1041.55 0.262026 -0.617724 0
M  V30 11098 H 1044.1 0.169899 -2.03793 0
M  V30 11099 H 1042.25 2.46348 -2.98984 0
M  V30 11100 H 1042.67 1.5559 -5.00891 0
M  V30 11101 H 1044.14 3.19011 -4.50484 0
M  V30 11102 H 1044.62 3.36873 -2.81803 0
M  V30 11103 H 1045.22 1.98721 -3.76019 0
M  V30 11104 N 1043.54 1.5137 0.438746 0
M  V30 11105 C 1044.79 1.63645 1.18595 0
M  V30 11106 C 1045.11 0.354241 1.91755 0
M  V30 11107 O 1044.38 -0.629838 1.85499 0
M  V30 11108 H 1042.96 0.603103 0.440767 0
M  V30 11109 H 1045.62 1.88293 0.503159 0
M  V30 11110 H 1044.72 2.46342 1.9163 0
M  V30 11111 N 1045.02 -0.694098 1.41492 0
M  V30 11112 C 1046.26 -1.45127 1.4065 0
M  V30 11113 C 1046.59 -1.94993 0.0170289 0
M  V30 11114 O 1045.86 -1.71799 -0.941372 0
M  V30 11115 H 1044.44 -0.538493 0.51772 0
M  V30 11116 H 1047.1 -0.821441 1.76744 0
M  V30 11117 H 1046.19 -2.31372 2.0946 0
M  V30 11118 N 1046.49 -1.27344 -0.928501 0
M  V30 11119 C 1047.43 -1.04322 -2.02959 0
M  V30 11120 C 1048.41 0.0361118 -1.6256 0
M  V30 11121 O 1049.59 -0.108872 -1.88185 0
M  V30 11122 C 1046.72 -0.582329 -3.33656 0
M  V30 11123 C 1045.76 -1.65611 -3.93033 0
M  V30 11124 S 1046.6 -3.2484 -4.25722 0
M  V30 11125 C 1047.75 -2.8055 -5.59502 0
M  V30 11126 H 1047.98 -1.97548 -2.22176 0
M  V30 11127 H 1045.52 -1.11167 -1.07151 0
M  V30 11128 H 1047.48 -0.323095 -4.09227 0
M  V30 11129 H 1046.14 0.329858 -3.12363 0
M  V30 11130 H 1045.33 -1.28491 -4.87346 0
M  V30 11131 H 1044.93 -1.86738 -3.24045 0
M  V30 11132 H 1047.22 -2.25803 -6.38764 0
M  V30 11133 H 1048.17 -3.73603 -6.0152 0
M  V30 11134 H 1048.57 -2.19717 -5.19985 0
M  V30 11135 N 1047.97 1.13488 -1.09353 0
M  V30 11136 C 1048.92 2.18876 -0.732251 0
M  V30 11137 C 1049.89 1.63616 0.286175 0
M  V30 11138 O 1051.07 1.90059 0.167981 0
M  V30 11139 C 1048.21 3.44737 -0.158157 0
M  V30 11140 C 1047.33 4.14104 -1.23053 0
M  V30 11141 C 1046.46 5.27578 -0.619272 0
M  V30 11142 C 1045.5 5.88793 -1.67301 0
M  V30 11143 N 1044.64 6.937 -1.08283 0
M  V30 11144 H 1049.48 2.49128 -1.63522 0
M  V30 11145 H 1047.02 1.22326 -0.816995 0
M  V30 11146 H 1048.97 4.16756 0.192488 0
M  V30 11147 H 1047.6 3.14938 0.708082 0
M  V30 11148 H 1046.66 3.40376 -1.69847 0
M  V30 11149 H 1047.97 4.55683 -2.02865 0
M  V30 11150 H 1047.12 6.0631 -0.217428 0
M  V30 11151 H 1045.86 4.87246 0.210399 0
M  V30 11152 H 1044.87 5.08756 -2.0844 0
M  V30 11153 H 1046.09 6.31197 -2.50533 0
M  V30 11154 H 1044.04 6.55426 -0.274426 0
M  V30 11155 H 1043.95 7.33817 -1.81792 0
M  V30 11156 H 1045.22 7.76286 -0.707167 0
M  V30 11157 N 1049.45 0.880621 1.30701 0
M  V30 11158 C 1050.38 0.301443 2.27209 0
M  V30 11159 C 1051.4 -0.541533 1.53529 0
M  V30 11160 O 1052.59 -0.361791 1.74795 0
M  V30 11161 C 1049.69 -0.59038 3.33718 0
M  V30 11162 C 1048.86 0.222549 4.36833 0
M  V30 11163 C 1047.92 -0.599083 5.22779 0
M  V30 11164 O 1046.94 -0.0233267 5.69195 0
M  V30 11165 N 1048.15 -1.90904 5.48211 0
M  V30 11166 H 1050.91 1.13083 2.77547 0
M  V30 11167 H 1048.47 0.743168 1.43835 0
M  V30 11168 H 1050.46 -1.14599 3.88135 0
M  V30 11169 H 1049.03 -1.32044 2.83343 0
M  V30 11170 H 1048.25 0.959606 3.82342 0
M  V30 11171 H 1049.54 0.779965 5.02786 0
M  V30 11172 H 1048.94 -2.3998 5.12275 0
M  V30 11173 H 1047.5 -2.4122 6.05521 0
M  V30 11174 N 1050.93 -1.4397 0.641131 0
M  V30 11175 C 1051.88 -2.30728 -0.0577905 0
M  V30 11176 C 1052.85 -1.44059 -0.826819 0
M  V30 11177 O 1054.03 -1.72947 -0.805853 0
M  V30 11178 C 1051.17 -3.29478 -1.02657 0
M  V30 11179 C 1050.28 -4.31247 -0.254913 0
M  V30 11180 C 1049.42 -5.17085 -1.2164 0
M  V30 11181 C 1048.46 -6.10556 -0.434481 0
M  V30 11182 N 1047.6 -6.89059 -1.34694 0
M  V30 11183 H 1052.44 -2.8995 0.687953 0
M  V30 11184 H 1049.97 -1.4285 0.351029 0
M  V30 11185 H 1051.93 -3.85228 -1.60173 0
M  V30 11186 H 1050.56 -2.71932 -1.73933 0
M  V30 11187 H 1049.61 -3.77889 0.436338 0
M  V30 11188 H 1050.92 -4.97545 0.353642 0
M  V30 11189 H 1050.08 -5.77402 -1.86258 0
M  V30 11190 H 1048.82 -4.50885 -1.85888 0
M  V30 11191 H 1047.82 -5.49339 0.225125 0
M  V30 11192 H 1049.05 -6.78795 0.203415 0
M  V30 11193 H 1046.99 -6.25518 -1.97644 0
M  V30 11194 H 1046.91 -7.51833 -0.792657 0
M  V30 11195 H 1048.18 -7.5389 -1.98165 0
M  V30 11196 N 1052.41 -0.382291 -1.52893 0
M  V30 11197 C 1053.64 0.202114 -2.05609 0
M  V30 11198 C 1054.05 1.4164 -1.25438 0
M  V30 11199 O 1053.39 1.81359 -0.292324 0
M  V30 11200 C 1053.45 0.64356 -3.53693 0
M  V30 11201 C 1053.11 -0.456305 -4.54716 0
M  V30 11202 C 1054.11 -1.3115 -5.03086 0
M  V30 11203 C 1051.8 -0.621329 -4.98442 0
M  V30 11204 C 1053.79 -2.3169 -5.938 0
M  V30 11205 C 1051.48 -1.63008 -5.88958 0
M  V30 11206 C 1052.48 -2.47629 -6.36529 0
M  V30 11207 O 1052.16 -3.46781 -7.25257 0
M  V30 11208 H 1051.9 0.0358014 -0.675051 0
M  V30 11209 H 1054.45 -0.543935 -1.98067 0
M  V30 11210 H 1052.68 1.44148 -3.58829 0
M  V30 11211 H 1054.37 1.15284 -3.89184 0
M  V30 11212 H 1055.13 -1.19528 -4.70041 0
M  V30 11213 H 1051.01 0.027593 -4.60992 0
M  V30 11214 H 1054.56 -2.97776 -6.30853 0
M  V30 11215 H 1050.45 -1.74671 -6.21418 0
M  V30 11216 H 1051.22 -3.42707 -7.433 0
M  V30 11217 N 1053.89 1.57202 -0.111913 0
M  V30 11218 C 1055.11 1.99297 0.555713 0
M  V30 11219 C 1055.53 0.991444 1.60673 0
M  V30 11220 O 1054.89 -0.0166672 1.82492 0
M  V30 11221 C 1054.94 3.41413 1.18826 0
M  V30 11222 O 1054.66 4.37733 0.179261 0
M  V30 11223 C 1056.16 3.98602 1.93989 0
M  V30 11224 H 1053.38 0.654543 0.147695 0
M  V30 11225 H 1055.92 2.03557 -0.196163 0
M  V30 11226 H 1054.08 3.38115 1.89096 0
M  V30 11227 H 1054.49 5.20606 0.637935 0
M  V30 11228 H 1055.97 5.00143 2.33584 0
M  V30 11229 H 1056.44 3.37349 2.81233 0
M  V30 11230 H 1057.05 4.05424 1.28497 0
M  V30 11231 N 1055.36 -0.161842 1.56767 0
M  V30 11232 C 1056.61 -0.878224 1.82798 0
M  V30 11233 C 1056.94 -1.81481 0.691242 0
M  V30 11234 O 1056.22 -1.92075 -0.30618 0
M  V30 11235 C 1056.5 -1.66565 3.19262 0
M  V30 11236 C 1056.35 -0.751551 4.43477 0
M  V30 11237 C 1057.67 -2.63134 3.52773 0
M  V30 11238 H 1054.79 -0.317828 0.664947 0
M  V30 11239 H 1057.43 -0.14402 1.89453 0
M  V30 11240 H 1055.58 -2.29157 3.13719 0
M  V30 11241 H 1057.26 -0.137783 4.61094 0
M  V30 11242 H 1055.5 -0.0601785 4.33758 0
M  V30 11243 H 1056.17 -1.33823 5.35533 0
M  V30 11244 H 1058.65 -2.10666 3.5883 0
M  V30 11245 H 1057.52 -3.15289 4.49315 0
M  V30 11246 H 1057.78 -3.43786 2.77963 0
M  V30 11247 N 1056.84 -1.516 -0.430713 0
M  V30 11248 C 1057.79 -1.73975 -1.54387 0
M  V30 11249 C 1058.78 -0.606222 -1.58181 0
M  V30 11250 O 1059.99 -0.787764 -1.61846 0
M  V30 11251 H 1056.36 -0.549811 -0.513041 0
M  V30 11252 H 1058.34 -2.67274 -1.32692 0
M  V30 11253 C 1057.08 -1.88794 -2.9198 0
M  V30 11254 H 1056.41 -2.75425 -2.89795 0
M  V30 11255 H 1057.85 -2.08458 -3.69217 0
M  V30 11256 C 1056.31 -0.649427 -3.30581 0
M  V30 11257 O 1056.84 0.192823 -4.01237 0
M  V30 11258 N 1055.04 -0.491586 -2.86412 0
M  V30 11259 H 1054.59 -1.17806 -2.29084 0
M  V30 11260 H 1054.55 0.33583 -3.12601 0
M  V30 11261 N 1058.32 0.686584 -1.41858 0
M  V30 11262 C 1059.25 1.81202 -1.40352 0
M  V30 11263 C 1060.26 1.5993 -0.304322 0
M  V30 11264 O 1061.45 1.69267 -0.566643 0
M  V30 11265 C 1058.55 3.18116 -1.16856 0
M  V30 11266 C 1057.73 3.66339 -2.38987 0
M  V30 11267 C 1056.79 4.8195 -2.11212 0
M  V30 11268 O 1055.81 4.93102 -2.84323 0
M  V30 11269 N 1057.01 5.69829 -1.10793 0
M  V30 11270 H 1059.78 1.82983 -2.37355 0
M  V30 11271 H 1057.34 0.869244 -1.36586 0
M  V30 11272 H 1059.33 3.93097 -0.962125 0
M  V30 11273 H 1057.9 3.11306 -0.284186 0
M  V30 11274 H 1057.12 2.82166 -2.75274 0
M  V30 11275 H 1058.41 3.95297 -3.2034 0
M  V30 11276 H 1057.81 5.63459 -0.503012 0
M  V30 11277 H 1056.36 6.44671 -0.961379 0
M  V30 11278 N 1059.8 1.27835 0.921735 0
M  V30 11279 C 1061.04 1.15766 1.68457 0
M  V30 11280 C 1061.4 -0.290542 1.89789 0
M  V30 11281 O 1062.6 -0.53378 2.63447 0
M  V30 11282 C 1060.87 1.92591 3.0107 0
M  V30 11283 S 1062.43 1.96804 3.92191 0
M  V30 11284 H 1059.25 0.413169 0.578629 0
M  V30 11285 H 1061.85 1.61826 1.09693 0
M  V30 11286 H 1060.56 2.96991 2.8324 0
M  V30 11287 H 1060.09 1.47049 3.64884 0
M  V30 11288 H 1062.1 1.06877 4.84553 0
M  V30 11289 N 1061.28 -1.12907 1.09954 0
M  V30 11290 C 1062.69 -1.363 0.830326 0
M  V30 11291 C 1062.89 -1.93772 -0.552694 0
M  V30 11292 O 1061.95 -2.1607 -1.30652 0
M  V30 11293 C 1063.26 -2.30925 1.92598 0
M  V30 11294 C 1064.81 -2.44528 1.95385 0
M  V30 11295 C 1065.28 -3.42464 3.0411 0
M  V30 11296 N 1066.77 -3.50018 3.03384 0
M  V30 11297 C 1067.51 -4.25693 3.84152 0
M  V30 11298 N 1067.01 -5.04476 4.74843 0
M  V30 11299 N 1068.8 -4.21049 3.7239 0
M  V30 11300 H 1060.95 -0.739571 1.99108 0
M  V30 11301 H 1063.21 -0.387983 0.86497 0
M  V30 11302 H 1062.92 -1.95861 2.92115 0
M  V30 11303 H 1062.79 -3.30997 1.80889 0
M  V30 11304 H 1065.18 -2.78875 0.965037 0
M  V30 11305 H 1065.26 -1.44361 2.11172 0
M  V30 11306 H 1064.9 -3.08847 4.03207 0
M  V30 11307 H 1064.83 -4.42448 2.85565 0
M  V30 11308 H 1067.33 -2.93809 2.37665 0
M  V30 11309 H 1067.64 -5.59541 5.33042 0
M  V30 11310 H 1065.98 -5.0369 4.78875 0
M  V30 11311 H 1069.17 -3.5858 3.00895 0
M  V30 11312 H 1069.35 -4.79771 4.35572 0
M  V30 11313 N 1062.75 -0.88754 -1.30232 0
M  V30 11314 C 1064.17 -0.581904 -1.48614 0
M  V30 11315 C 1064.37 0.879711 -1.81282 0
M  V30 11316 O 1063.43 1.66076 -1.90198 0
M  V30 11317 C 1064.74 -1.49726 -2.60773 0
M  V30 11318 C 1066.29 -1.50117 -2.74653 0
M  V30 11319 C 1066.76 -2.40251 -3.89927 0
M  V30 11320 N 1068.25 -2.38229 -3.97242 0
M  V30 11321 C 1068.99 -3.04682 -4.85754 0
M  V30 11322 N 1068.48 -3.80369 -5.79043 0
M  V30 11323 N 1070.28 -2.93901 -4.79144 0
M  V30 11324 H 1062.43 -1.83304 -1.073 0
M  V30 11325 H 1064.69 -0.78477 -0.531826 0
M  V30 11326 H 1064.4 -2.5381 -2.43462 0
M  V30 11327 H 1064.27 -1.20874 -3.57308 0
M  V30 11328 H 1066.66 -0.467832 -2.91368 0
M  V30 11329 H 1066.74 -1.83001 -1.7873 0
M  V30 11330 H 1066.38 -3.43671 -3.73969 0
M  V30 11331 H 1066.31 -2.04682 -4.85194 0
M  V30 11332 H 1068.8 -1.83229 -3.30508 0
M  V30 11333 H 1069.12 -4.28159 -6.4335 0
M  V30 11334 H 1067.46 -3.84477 -5.78967 0
M  V30 11335 H 1070.65 -2.34296 -4.05245 0
M  V30 11336 H 1070.83 -3.45967 -5.47915 0
M  V30 11337 N 1064.23 1.43628 -0.648757 0
M  V30 11338 C 1065.16 2.29045 0.0841858 0
M  V30 11339 C 1066.18 1.42262 0.791537 0
M  V30 11340 O 1067.37 1.66243 0.650039 0
M  V30 11341 C 1064.47 3.19075 1.14212 0
M  V30 11342 C 1063.64 4.34372 0.513799 0
M  V30 11343 C 1062.7 5.05307 1.46803 0
M  V30 11344 O 1061.72 5.60729 0.978346 0
M  V30 11345 N 1062.93 5.08393 2.80209 0
M  V30 11346 H 1065.69 2.9259 -0.648948 0
M  V30 11347 H 1063.25 1.54268 -0.491209 0
M  V30 11348 H 1065.24 3.63395 1.78119 0
M  V30 11349 H 1063.81 2.57161 1.77728 0
M  V30 11350 H 1063.03 3.93024 -0.304262 0
M  V30 11351 H 1064.32 5.08745 0.0749871 0
M  V30 11352 H 1063.72 4.64729 3.22557 0
M  V30 11353 H 1062.28 5.56445 3.3943 0
M  V30 11354 N 1065.71 0.390394 1.52688 0
M  V30 11355 C 1066.94 -0.194013 2.06491 0
M  V30 11356 C 1067.36 -1.3965 1.26014 0
M  V30 11357 O 1066.72 -1.79038 0.285468 0
M  V30 11358 C 1066.77 -0.541306 3.56514 0
M  V30 11359 O 1065.87 -1.63509 3.78601 0
M  V30 11360 H 1065.21 -0.0223608 0.663623 0
M  V30 11361 H 1067.74 0.558179 1.96839 0
M  V30 11362 H 1067.75 -0.805301 3.99974 0
M  V30 11363 H 1066.43 0.337828 4.14526 0
M  V30 11364 H 1065 -1.36473 3.4703 0
M  V30 11365 N 1067.19 -1.57141 0.120249 0
M  V30 11366 C 1068.1 -2.18925 -0.843155 0
M  V30 11367 C 1069.11 -1.16575 -1.29175 0
M  V30 11368 O 1070.29 -1.4905 -1.35448 0
M  V30 11369 C 1067.36 -2.7775 -2.075 0
M  V30 11370 C 1066.42 -3.95139 -1.6782 0
M  V30 11371 C 1065.65 -4.51149 -2.85132 0
M  V30 11372 O 1065.87 -4.06056 -4.00593 0
M  V30 11373 O 1064.81 -5.41815 -2.62145 0
M  V30 11374 H 1068.63 -3.01707 -0.347357 0
M  V30 11375 H 1066.22 -1.49028 -0.105427 0
M  V30 11376 H 1068.1 -3.15243 -2.79643 0
M  V30 11377 H 1066.77 -1.97998 -2.56083 0
M  V30 11378 H 1065.68 -3.62412 -0.927807 0
M  V30 11379 H 1067.01 -4.7633 -1.23977 0
M  V30 11380 N 1068.67 0.153526 -1.5685 0
M  V30 11381 C 1069.94 0.895545 -1.73895 0
M  V30 11382 C 1070.32 1.99625 -0.686504 0
M  V30 11383 O 1069.67 2.26579 0.2957 0
M  V30 11384 C 1069.88 1.44399 -3.17726 0
M  V30 11385 C 1071.23 1.90996 -3.79217 0
M  V30 11386 O 1072.25 1.54155 -3.21115 0
M  V30 11387 O 1071.11 2.58917 -4.81274 0
M  V30 11388 H 1068.21 0.422755 -0.710779 0
M  V30 11389 H 1070.75 0.139961 -1.69122 0
M  V30 11390 H 1069.52 0.652635 -3.85819 0
M  V30 11391 H 1069.15 2.26326 -3.26898 0
M  V30 11392 N 1070.14 1.51827 0.422667 0
M  V30 11393 C 1071.37 1.69337 1.19748 0
M  V30 11394 C 1071.79 0.396312 1.83878 0
M  V30 11395 O 1071.15 -0.644976 1.6944 0
M  V30 11396 C 1071.2 2.82082 2.24637 0
M  V30 11397 O 1070.3 2.46708 3.30468 0
M  V30 11398 H 1069.65 0.564154 0.35018 0
M  V30 11399 H 1072.18 1.98465 0.497289 0
M  V30 11400 H 1072.19 3.06599 2.69186 0
M  V30 11401 H 1070.86 3.76195 1.77341 0
M  V30 11402 H 1069.44 2.32815 2.91293 0
M  V30 11403 N 1071.62 -0.679052 1.4222 0
M  V30 11404 C 1072.85 -1.46747 1.45852 0
M  V30 11405 C 1073.27 -1.88675 0.0685937 0
M  V30 11406 O 1072.62 -1.57861 -0.915757 0
M  V30 11407 C 1072.67 -2.71935 2.38188 0
M  V30 11408 O 1072.39 -2.31768 3.71773 0
M  V30 11409 C 1073.9 -3.65536 2.50796 0
M  V30 11410 H 1071.12 -0.451682 0.49621 0
M  V30 11411 H 1073.66 -0.834723 1.86689 0
M  V30 11412 H 1071.81 -3.31409 2.00616 0
M  V30 11413 H 1072.23 -3.12579 4.21182 0
M  V30 11414 H 1073.7 -4.50113 3.19535 0
M  V30 11415 H 1074.18 -4.11148 1.54447 0
M  V30 11416 H 1074.79 -3.11957 2.89072 0
M  V30 11417 N 1073.1 -1.28322 -0.914942 0
M  V30 11418 C 1074.35 -1.15407 -1.66396 0
M  V30 11419 C 1074.68 0.297587 -1.9221 0
M  V30 11420 O 1073.93 1.23299 -1.51973 0
M  V30 11421 C 1074.23 -1.89663 -3.02924 0
M  V30 11422 C 1073.9 -3.39464 -2.96774 0
M  V30 11423 C 1072.56 -3.80321 -2.94804 0
M  V30 11424 C 1074.91 -4.3499 -2.87111 0
M  V30 11425 C 1072.24 -5.15046 -2.8097 0
M  V30 11426 C 1074.59 -5.69788 -2.74818 0
M  V30 11427 C 1073.25 -6.09921 -2.71205 0
M  V30 11428 H 1072.52 -0.422303 -0.608885 0
M  V30 11429 H 1075.17 -1.59082 -1.06607 0
M  V30 11430 H 1073.48 -1.38533 -3.66491 0
M  V30 11431 H 1075.17 -1.77087 -3.59779 0
M  V30 11432 H 1071.76 -3.06979 -2.99101 0
M  V30 11433 H 1075.95 -4.04389 -2.87721 0
M  V30 11434 H 1071.2 -5.45271 -2.76568 0
M  V30 11435 H 1075.38 -6.43469 -2.66309 0
M  V30 11436 H 1073 -7.14267 -2.60243 0
M  V30 11437 N 1074.58 1.12322 -1.10551 0
M  V30 11438 C 1075.81 1.87407 -0.869607 0
M  V30 11439 C 1076.22 1.79976 0.58356 0
M  V30 11440 O 1075.56 1.1725 1.41415 0
M  V30 11441 C 1075.62 3.37401 -1.24099 0
M  V30 11442 C 1075.29 3.68607 -2.70144 0
M  V30 11443 C 1076.28 3.66869 -3.68379 0
M  V30 11444 C 1073.97 3.97903 -3.06559 0
M  V30 11445 C 1075.96 3.93987 -5.01052 0
M  V30 11446 C 1073.65 4.24681 -4.39419 0
M  V30 11447 C 1074.65 4.2271 -5.36475 0
M  V30 11448 O 1074.33 4.48823 -6.66943 0
M  V30 11449 H 1074.07 0.59978 -0.311834 0
M  V30 11450 H 1076.62 1.43037 -1.4741 0
M  V30 11451 H 1074.85 3.82332 -0.579606 0
M  V30 11452 H 1076.54 3.93833 -0.982378 0
M  V30 11453 H 1077.31 3.44297 -3.41591 0
M  V30 11454 H 1073.18 3.98578 -2.31638 0
M  V30 11455 H 1076.73 3.92364 -5.76798 0
M  V30 11456 H 1072.63 4.46727 -4.65945 0
M  V30 11457 H 1073.39 4.66436 -6.72592 0
M  V30 11458 N 1076.06 0.894434 1.2976 0
M  V30 11459 C 1076.99 0.3847 2.30309 0
M  V30 11460 C 1077.97 -0.537486 1.61385 0
M  V30 11461 O 1079.15 -0.449332 1.8893 0
M  V30 11462 C 1076.28 -0.393311 3.45066 0
M  V30 11463 C 1075.24 0.437968 4.25753 0
M  V30 11464 C 1074.56 -0.467221 5.32655 0
M  V30 11465 C 1075.86 1.6851 4.9437 0
M  V30 11466 H 1077.56 1.22496 2.73194 0
M  V30 11467 H 1075.1 0.590471 1.31337 0
M  V30 11468 H 1077.06 -0.760614 4.14479 0
M  V30 11469 H 1075.78 -1.2673 3.0101 0
M  V30 11470 H 1074.44 0.787533 3.58041 0
M  V30 11471 H 1074.09 -1.33919 4.84845 0
M  V30 11472 H 1073.79 0.0852482 5.87538 0
M  V30 11473 H 1075.31 -0.830833 6.04921 0
M  V30 11474 H 1076.72 1.38784 5.56248 0
M  V30 11475 H 1075.12 2.17849 5.59162 0
M  V30 11476 H 1076.19 2.42412 4.19958 0
M  V30 11477 N 1077.53 -1.43282 0.656365 0
M  V30 11478 C 1078.78 -2.01378 0.170702 0
M  V30 11479 C 1079.1 -1.52063 -1.22073 0
M  V30 11480 O 1078.37 -0.73456 -1.81607 0
M  V30 11481 H 1076.95 -0.744577 0.0601168 0
M  V30 11482 H 1079.62 -1.75449 0.848739 0
M  V30 11483 H 1078.71 -3.11701 0.157745 0
M  V30 11484 N 1079.01 -0.398486 -1.52479 0
M  V30 11485 C 1079.92 0.439328 -2.3045 0
M  V30 11486 C 1080.94 1.06322 -1.37738 0
M  V30 11487 O 1082.12 1.06704 -1.7081 0
M  V30 11488 C 1079.18 1.54655 -3.10294 0
M  V30 11489 C 1078.24 0.946824 -4.18729 0
M  V30 11490 C 1077.47 2.00129 -4.94757 0
M  V30 11491 O 1077.7 3.2178 -4.70971 0
M  V30 11492 O 1076.63 1.61345 -5.79872 0
M  V30 11493 H 1080.46 -0.196118 -3.03066 0
M  V30 11494 H 1078.04 -0.161961 -1.4852 0
M  V30 11495 H 1079.92 2.18958 -3.60049 0
M  V30 11496 H 1078.6 2.1668 -2.40482 0
M  V30 11497 H 1077.51 0.266802 -3.73147 0
M  V30 11498 H 1078.84 0.370664 -4.90802 0
M  V30 11499 N 1080.49 1.57075 -0.12858 0
M  V30 11500 C 1081.91 1.57964 0.227961 0
M  V30 11501 C 1082.11 1.14186 1.66023 0
M  V30 11502 O 1081.16 0.833655 2.38341 0
M  V30 11503 C 1082.48 3.00697 -0.0140648 0
M  V30 11504 C 1084.02 3.12958 0.0510876 0
M  V30 11505 C 1084.5 4.57709 -0.163368 0
M  V30 11506 N 1085.99 4.6307 -0.109663 0
M  V30 11507 C 1086.73 5.72853 -0.250366 0
M  V30 11508 N 1086.22 6.91351 -0.447772 0
M  V30 11509 N 1088.01 5.61781 -0.189265 0
M  V30 11510 H 1080.17 1.83829 -1.06398 0
M  V30 11511 H 1082.43 0.850014 -0.419739 0
M  V30 11512 H 1082.13 3.37047 -1.00461 0
M  V30 11513 H 1082.01 3.70389 0.713571 0
M  V30 11514 H 1084.4 2.7646 1.03216 0
M  V30 11515 H 1084.48 2.4579 -0.708583 0
M  V30 11516 H 1084.12 4.94907 -1.14146 0
M  V30 11517 H 1084.05 5.2298 0.616405 0
M  V30 11518 H 1086.54 3.7788 0.0390086 0
M  V30 11519 H 1086.85 7.70871 -0.54574 0
M  V30 11520 H 1085.2 6.93314 -0.483866 0
M  V30 11521 H 1088.39 4.68086 -0.0359374 0
M  V30 11522 H 1088.56 6.47294 -0.302359 0
M  V30 11523 N 1081.97 -0.145205 1.5693 0
M  V30 11524 C 1083.2 -0.872398 1.87608 0
M  V30 11525 C 1083.61 -1.74657 0.716975 0
M  V30 11526 O 1082.97 -1.79792 -0.3132 0
M  V30 11527 C 1083.02 -1.72762 3.17546 0
M  V30 11528 O 1082.74 -0.888681 4.28992 0
M  V30 11529 C 1084.24 -2.56224 3.61751 0
M  V30 11530 H 1081.46 -0.252166 0.621815 0
M  V30 11531 H 1084.01 -0.137456 2.04038 0
M  V30 11532 H 1082.16 -2.41561 3.02865 0
M  V30 11533 H 1082.58 -1.47601 5.03303 0
M  V30 11534 H 1084.05 -3.11804 4.55502 0
M  V30 11535 H 1084.53 -3.32347 2.87127 0
M  V30 11536 H 1085.13 -1.92714 3.79133 0
M  V30 11537 N 1083.45 -1.52049 -0.414609 0
M  V30 11538 C 1084.68 -1.69433 -1.18221 0
M  V30 11539 C 1085.09 -0.40104 -1.84901 0
M  V30 11540 O 1084.43 0.632342 -1.72474 0
M  V30 11541 C 1084.49 -2.76986 -2.2917 0
M  V30 11542 C 1084.15 -4.18903 -1.82671 0
M  V30 11543 C 1085.15 -5.02929 -1.31751 0
M  V30 11544 C 1082.84 -4.65113 -1.89672 0
M  V30 11545 C 1084.83 -6.31234 -0.884461 0
M  V30 11546 C 1082.52 -5.93408 -1.45978 0
M  V30 11547 C 1083.52 -6.76297 -0.9545 0
M  V30 11548 O 1083.2 -8.02191 -0.523852 0
M  V30 11549 H 1082.94 -0.571228 -0.36149 0
M  V30 11550 H 1085.49 -1.99355 -0.494643 0
M  V30 11551 H 1083.72 -2.42428 -3.01273 0
M  V30 11552 H 1085.41 -2.83023 -2.90951 0
M  V30 11553 H 1086.17 -4.68422 -1.2572 0
M  V30 11554 H 1082.05 -4.00702 -2.27945 0
M  V30 11555 H 1085.6 -6.95881 -0.489383 0
M  V30 11556 H 1081.49 -6.27424 -1.51687 0
M  V30 11557 H 1082.26 -8.15934 -0.647656 0
M  V30 11558 N 1084.93 0.6715 -1.42579 0
M  V30 11559 C 1086.16 1.4576 -1.46416 0
M  V30 11560 C 1086.56 1.89051 -0.0749843 0
M  V30 11561 O 1085.91 1.58927 0.921296 0
M  V30 11562 C 1085.97 2.7365 -2.33144 0
M  V30 11563 C 1085.63 2.52414 -3.80968 0
M  V30 11564 C 1086.63 2.16804 -4.72538 0
M  V30 11565 C 1084.31 2.67306 -4.25268 0
M  V30 11566 C 1086.31 1.96358 -6.06401 0
M  V30 11567 C 1084 2.46475 -5.5919 0
M  V30 11568 C 1084.99 2.11055 -6.49573 0
M  V30 11569 O 1084.68 1.90428 -7.8102 0
M  V30 11570 H 1084.41 0.454896 -0.500045 0
M  V30 11571 H 1086.97 0.832198 -1.87786 0
M  V30 11572 H 1085.2 3.38684 -1.86629 0
M  V30 11573 H 1086.89 3.35543 -2.28398 0
M  V30 11574 H 1087.65 2.04891 -4.39596 0
M  V30 11575 H 1083.53 2.93854 -3.55206 0
M  V30 11576 H 1087.08 1.68634 -6.76911 0
M  V30 11577 H 1082.97 2.57985 -5.91704 0
M  V30 11578 H 1083.74 2.05 -7.92412 0
M  V30 11579 N 1086.4 1.28806 0.908124 0
M  V30 11580 C 1087.65 1.15663 1.65242 0
M  V30 11581 C 1087.97 -0.292883 1.93395 0
M  V30 11582 O 1089.17 -0.545509 2.65963 0
M  V30 11583 C 1087.63 2.02233 2.97707 0
M  V30 11584 C 1087.24 3.51958 2.77181 0
M  V30 11585 C 1088.98 1.97792 3.75604 0
M  V30 11586 C 1086.89 4.3066 4.05322 0
M  V30 11587 H 1085.82 0.42928 0.619867 0
M  V30 11588 H 1088.47 1.5338 1.00731 0
M  V30 11589 H 1086.85 1.57377 3.63385 0
M  V30 11590 H 1088.02 4.0481 2.20149 0
M  V30 11591 H 1086.34 3.57983 2.12691 0
M  V30 11592 H 1088.94 2.53858 4.70596 0
M  V30 11593 H 1089.28 0.955956 4.05175 0
M  V30 11594 H 1089.81 2.40648 3.16755 0
M  V30 11595 H 1086.55 5.3346 3.8092 0
M  V30 11596 H 1086.07 3.8258 4.61944 0
M  V30 11597 H 1087.75 4.40878 4.73535 0
M  V30 11598 N 1087.88 -1.11734 1.11145 0
M  V30 11599 C 1088.84 -2.15868 0.770303 0
M  V30 11600 C 1089.84 -1.59438 -0.208842 0
M  V30 11601 O 1091.03 -1.74193 0.0152516 0
M  V30 11602 C 1088.17 -3.40603 0.142303 0
M  V30 11603 H 1089.36 -2.4756 1.69276 0
M  V30 11604 H 1086.91 -1.26867 0.912929 0
M  V30 11605 H 1087.65 -3.14517 -0.790526 0
M  V30 11606 H 1087.43 -3.8284 0.847087 0
M  V30 11607 H 1088.92 -4.17523 -0.0803608 0
M  V30 11608 N 1089.36 -0.901303 -1.29284 0
M  V30 11609 C 1090.32 -0.385081 -2.25942 0
M  V30 11610 C 1091.32 0.481626 -1.53418 0
M  V30 11611 O 1092.51 0.286451 -1.71829 0
M  V30 11612 C 1089.64 0.449319 -3.37926 0
M  V30 11613 H 1090.84 -1.23877 -2.7312 0
M  V30 11614 H 1088.39 -0.679586 -1.40753 0
M  V30 11615 H 1089.13 1.32292 -2.9609 0
M  V30 11616 H 1088.91 -0.171731 -3.91724 0
M  V30 11617 H 1090.4 0.801746 -4.09831 0
M  V30 11618 N 1090.84 1.42931 -0.663954 0
M  V30 11619 C 1092.08 2.01982 -0.182007 0
M  V30 11620 C 1092.42 1.52323 1.20463 0
M  V30 11621 O 1091.69 0.720834 1.80649 0
M  V30 11622 C 1091.97 3.59518 -0.204671 0
M  V30 11623 C 1091.83 4.19382 -1.62599 0
M  V30 11624 C 1093.15 4.37762 0.45308 0
M  V30 11625 H 1090.27 0.733892 -0.0676115 0
M  V30 11626 H 1092.91 1.70092 -0.84668 0
M  V30 11627 H 1091.06 3.86816 0.361295 0
M  V30 11628 H 1092.73 4.03076 -2.24337 0
M  V30 11629 H 1090.97 3.75623 -2.17001 0
M  V30 11630 H 1091.64 5.28496 -1.59362 0
M  V30 11631 H 1094.12 4.1609 -0.0285774 0
M  V30 11632 H 1093 5.47392 0.406538 0
M  V30 11633 H 1093.26 4.1482 1.52895 0
M  V30 11634 N 1092.32 0.406567 1.52266 0
M  V30 11635 C 1093.23 -0.4271 2.30679 0
M  V30 11636 C 1094.24 -1.0559 1.383 0
M  V30 11637 O 1095.42 -1.05797 1.71374 0
M  V30 11638 C 1092.48 -1.53008 3.1111 0
M  V30 11639 C 1091.54 -0.924604 4.19225 0
M  V30 11640 C 1090.78 -1.97502 4.95811 0
M  V30 11641 O 1091 -3.19277 4.72671 0
M  V30 11642 O 1089.93 -1.58268 5.80719 0
M  V30 11643 H 1093.76 0.212187 3.02958 0
M  V30 11644 H 1091.34 0.169835 1.48432 0
M  V30 11645 H 1093.23 -2.17046 3.61205 0
M  V30 11646 H 1091.9 -2.15401 2.41628 0
M  V30 11647 H 1090.81 -0.247009 3.73284 0
M  V30 11648 H 1092.14 -0.34463 4.90992 0
M  V30 11649 N 1093.79 -1.57004 0.136909 0
M  V30 11650 C 1095.04 -1.96087 -0.517477 0
M  V30 11651 C 1095.37 -1.0213 -1.65176 0
M  V30 11652 O 1094.65 -0.0617958 -1.94402 0
M  V30 11653 C 1094.93 -3.44958 -1.03323 0
M  V30 11654 C 1094.78 -4.49691 0.0988609 0
M  V30 11655 C 1096.1 -3.96091 -1.91832 0
M  V30 11656 H 1093.22 -0.712978 -0.186632 0
M  V30 11657 H 1095.86 -1.88767 0.216095 0
M  V30 11658 H 1094.01 -3.51327 -1.65836 0
M  V30 11659 H 1095.69 -4.55409 0.734847 0
M  V30 11660 H 1093.93 -4.271 0.75947 0
M  V30 11661 H 1094.6 -5.51165 -0.303554 0
M  V30 11662 H 1097.08 -3.92139 -1.39164 0
M  V30 11663 H 1095.95 -5.00742 -2.24831 0
M  V30 11664 H 1096.21 -3.37846 -2.85153 0
M  V30 11665 N 1095.27 0.136881 -1.57004 0
M  V30 11666 C 1096.18 1.18793 -2.023 0
M  V30 11667 C 1097.2 1.46412 -0.94018 0
M  V30 11668 O 1098.37 1.57883 -1.2504 0
M  V30 11669 C 1095.44 2.49903 -2.40311 0
M  V30 11670 C 1094.5 2.29841 -3.6259 0
M  V30 11671 C 1093.73 3.54699 -3.98779 0
M  V30 11672 O 1093.96 4.61291 -3.3551 0
M  V30 11673 O 1092.89 3.46761 -4.91976 0
M  V30 11674 H 1096.72 0.833345 -2.92043 0
M  V30 11675 H 1094.3 0.346361 -1.4533 0
M  V30 11676 H 1096.18 3.27183 -2.65574 0
M  V30 11677 H 1094.86 2.84872 -1.5372 0
M  V30 11678 H 1093.77 1.50478 -3.42501 0
M  V30 11679 H 1095.1 1.99784 -4.4983 0
M  V30 11680 N 1096.75 1.52266 0.40654 0
M  V30 11681 C 1098 1.67654 1.15168 0
M  V30 11682 C 1098.35 0.402751 1.88137 0
M  V30 11683 O 1097.64 -0.60291 1.81867 0
M  V30 11684 C 1097.84 2.8389 2.1712 0
M  V30 11685 C 1097.67 4.2245 1.54162 0
M  V30 11686 C 1096.44 4.87937 1.31322 0
M  V30 11687 C 1098.64 5.04462 1.00112 0
M  V30 11688 N 1096.62 6.10525 0.642842 0
M  V30 11689 C 1097.99 6.18307 0.457805 0
M  V30 11690 C 1100.04 4.89775 0.89583 0
M  V30 11691 C 1098.75 7.19074 -0.180477 0
M  V30 11692 C 1100.77 5.90777 0.271397 0
M  V30 11693 C 1100.13 7.03915 -0.261225 0
M  V30 11694 H 1096.23 0.667121 0.408012 0
M  V30 11695 H 1098.82 1.89577 0.443695 0
M  V30 11696 H 1096.99 2.63578 2.85274 0
M  V30 11697 H 1098.72 2.88302 2.84014 0
M  V30 11698 H 1095.48 4.46345 1.58344 0
M  V30 11699 H 1095.9 6.76223 0.324204 0
M  V30 11700 H 1100.54 4.0253 1.29344 0
M  V30 11701 H 1098.26 8.05942 -0.590141 0
M  V30 11702 H 1101.85 5.81485 0.191417 0
M  V30 11703 H 1100.73 7.80731 -0.736791 0
M  V30 11704 N 1098.23 -0.663929 1.42933 0
M  V30 11705 C 1099.51 -1.42054 1.34462 0
M  V30 11706 C 1099.89 -2.11096 -0.0127801 0
M  V30 11707 O 1099.23 -2.04027 -1.02884 0
M  V30 11708 C 1099.44 -2.41406 2.5204 0
M  V30 11709 C 1100.79 -3.05726 2.94647 0
M  V30 11710 O 1101.82 -2.51733 2.52009 0
M  V30 11711 O 1100.67 -4.03593 3.68477 0
M  V30 11712 H 1097.77 -0.634149 0.530834 0
M  V30 11713 H 1100.31 -0.691738 1.54962 0
M  V30 11714 H 1099.09 -1.89263 3.42484 0
M  V30 11715 H 1098.71 -3.21752 2.33584 0
M  V30 11716 N 1099.71 -1.29285 -0.901281 0
M  V30 11717 C 1100.94 -1.19874 -1.68267 0
M  V30 11718 C 1101.34 0.243387 -1.87628 0
M  V30 11719 O 1100.69 1.17497 -1.41209 0
M  V30 11720 C 1100.75 -1.83907 -3.08899 0
M  V30 11721 C 1100.41 -3.33198 -3.12775 0
M  V30 11722 C 1101.41 -4.29446 -2.9304 0
M  V30 11723 C 1099.1 -3.7437 -3.34892 0
M  V30 11724 C 1101.09 -5.64842 -2.95352 0
M  V30 11725 C 1098.78 -5.09888 -3.36834 0
M  V30 11726 C 1099.77 -6.04934 -3.17087 0
M  V30 11727 O 1099.46 -7.37979 -3.18815 0
M  V30 11728 H 1099.19 -0.416601 -0.532372 0
M  V30 11729 H 1101.75 -1.71154 -1.13558 0
M  V30 11730 H 1099.98 -1.27136 -3.65203 0
M  V30 11731 H 1101.67 -1.6884 -3.69118 0
M  V30 11732 H 1102.43 -3.9897 -2.75767 0
M  V30 11733 H 1098.31 -3.00846 -3.49303 0
M  V30 11734 H 1101.86 -6.39004 -2.79856 0
M  V30 11735 H 1097.75 -5.40009 -3.53638 0
M  V30 11736 H 1098.52 -7.46763 -3.35092 0
M  V30 11737 N 1101.18 1.11143 -1.11736 0
M  V30 11738 C 1102.41 1.87285 -0.891007 0
M  V30 11739 C 1102.83 1.79758 0.553971 0
M  V30 11740 O 1102.19 1.16221 1.39149 0
M  V30 11741 C 1102.24 3.33924 -1.36114 0
M  V30 11742 O 1101.34 4.08917 -0.534851 0
M  V30 11743 H 1100.69 0.581418 -0.320701 0
M  V30 11744 H 1103.22 1.40469 -1.4876 0
M  V30 11745 H 1103.23 3.84772 -1.35701 0
M  V30 11746 H 1101.9 3.38719 -2.41334 0
M  V30 11747 H 1100.48 3.67954 -0.605355 0
M  V30 11748 N 1102.66 0.908147 1.28804 0
M  V30 11749 C 1104.07 0.585727 1.77274 0
M  V30 11750 C 1104.42 -0.898842 1.744 0
M  V30 11751 O 1103.55 -1.70301 1.33516 0
M  V30 11752 C 1104.14 1.05647 3.21907 0
M  V30 11753 C 1102.7 0.785066 3.68122 0
M  V30 11754 C 1101.85 1.22638 2.48707 0
M  V30 11755 H 1104.8 1.09 1.15346 0
M  V30 11756 H 1104.82 0.395442 3.7844 0
M  V30 11757 H 1104.33 2.13698 3.23967 0
M  V30 11758 H 1102.44 -0.282477 3.71528 0
M  V30 11759 H 1102.55 1.38888 4.58527 0
M  V30 11760 H 1100.91 0.645217 2.46392 0
M  V30 11761 H 1101.7 2.31512 2.5349 0
M  V30 11762 N 1104.14 -1.42577 0.671525 0
M  V30 11763 C 1105.07 -2.2915 -0.0477361 0
M  V30 11764 C 1106.09 -1.43503 -0.768805 0
M  V30 11765 O 1107.27 -1.67256 -0.623509 0
M  V30 11766 C 1104.37 -3.20851 -1.09122 0
M  V30 11767 C 1103.55 -4.35134 -0.44463 0
M  V30 11768 C 1102.61 -5.07579 -1.38745 0
M  V30 11769 O 1101.63 -5.62215 -0.889015 0
M  V30 11770 N 1102.83 -5.12786 -2.72086 0
M  V30 11771 H 1105.6 -2.9152 0.695415 0
M  V30 11772 H 1103.16 -1.53467 0.515689 0
M  V30 11773 H 1105.15 -3.66183 -1.72315 0
M  V30 11774 H 1103.72 -2.59956 -1.73614 0
M  V30 11775 H 1102.94 -3.9249 0.36675 0
M  V30 11776 H 1104.23 -5.088 0.00595927 0
M  V30 11777 H 1103.63 -4.69802 -3.15123 0
M  V30 11778 H 1102.19 -5.61774 -3.30535 0
M  V30 11779 N 1105.62 -0.414636 -1.52048 0
M  V30 11780 C 1107.03 -0.0657806 -1.59464 0
M  V30 11781 C 1107.23 1.4225 -1.42713 0
M  V30 11782 O 1106.29 2.18996 -1.25687 0
M  V30 11783 C 1107.6 -0.565618 -2.95332 0
M  V30 11784 C 1109.15 -0.524072 -3.08581 0
M  V30 11785 C 1109.63 -1.00051 -4.46938 0
M  V30 11786 N 1111.12 -0.957555 -4.53194 0
M  V30 11787 C 1111.85 -1.29733 -5.58531 0
M  V30 11788 N 1111.35 -1.70883 -6.71395 0
M  V30 11789 N 1113.14 -1.21694 -5.48769 0
M  V30 11790 H 1105.29 -1.38325 -1.61183 0
M  V30 11791 H 1107.56 -0.568593 -0.758556 0
M  V30 11792 H 1107.26 -1.60604 -3.12888 0
M  V30 11793 H 1107.14 0.0217735 -3.77194 0
M  V30 11794 H 1109.52 0.507319 -2.90707 0
M  V30 11795 H 1109.6 -1.14759 -2.28613 0
M  V30 11796 H 1109.25 -2.03025 -4.65557 0
M  V30 11797 H 1109.18 -0.353754 -5.2541 0
M  V30 11798 H 1111.67 -0.65508 -3.72179 0
M  V30 11799 H 1111.98 -1.95105 -7.47766 0
M  V30 11800 H 1110.33 -1.74791 -6.72661 0
M  V30 11801 H 1113.52 -0.894286 -4.59478 0
M  V30 11802 H 1113.69 -1.48504 -6.30754 0
M  V30 11803 N 1107.1 1.56929 -0.145233 0
M  V30 11804 C 1108.01 2.20238 0.808219 0
M  V30 11805 C 1109.02 1.18615 1.27304 0
M  V30 11806 O 1110.2 1.51186 1.3306 0
M  V30 11807 C 1107.26 2.81016 2.03055 0
M  V30 11808 C 1106.32 3.97759 1.61512 0
M  V30 11809 C 1105.56 4.55628 2.77918 0
M  V30 11810 O 1105.78 4.12378 3.94082 0
M  V30 11811 O 1104.71 5.45917 2.53492 0
M  V30 11812 H 1108.54 3.02221 0.299314 0
M  V30 11813 H 1106.13 1.49176 0.0817051 0
M  V30 11814 H 1108.01 3.19652 2.74592 0
M  V30 11815 H 1106.68 2.02047 2.52901 0
M  V30 11816 H 1105.59 3.63842 0.870033 0
M  V30 11817 H 1106.92 4.78242 1.16383 0
M  V30 11818 N 1108.58 -0.128553 1.57075 0
M  V30 11819 C 1109.82 -0.834322 1.85501 0
M  V30 11820 C 1110.18 -1.77943 0.731725 0
M  V30 11821 O 1109.47 -1.89702 -0.269003 0
M  V30 11822 C 1109.66 -1.63027 3.18052 0
M  V30 11823 C 1109.49 -0.763737 4.43167 0
M  V30 11824 C 1108.26 -0.42224 5.03533 0
M  V30 11825 C 1110.46 -0.0856773 5.14229 0
M  V30 11826 N 1108.44 0.455954 6.12204 0
M  V30 11827 C 1109.81 0.651902 6.16563 0
M  V30 11828 C 1111.87 -0.00826404 4.97899 0
M  V30 11829 C 1110.57 1.45961 7.04335 0
M  V30 11830 C 1112.6 0.786239 5.8615 0
M  V30 11831 C 1111.96 1.51204 6.8798 0
M  V30 11832 H 1108.06 -0.282535 0.729176 0
M  V30 11833 H 1110.64 -0.0985924 1.9445 0
M  V30 11834 H 1108.81 -2.3371 3.10216 0
M  V30 11835 H 1110.55 -2.28063 3.34319 0
M  V30 11836 H 1107.3 -0.76229 4.67425 0
M  V30 11837 H 1107.72 0.886619 6.71169 0
M  V30 11838 H 1112.37 -0.555051 4.19141 0
M  V30 11839 H 1110.08 2.01759 7.82508 0
M  V30 11840 H 1113.67 0.848372 5.75581 0
M  V30 11841 H 1112.55 2.11694 7.55086 0
M  V30 11842 N 1110.05 -1.5248 -0.398459 0
M  V30 11843 C 1110.96 -1.79492 -1.51062 0
M  V30 11844 C 1111.98 -0.681101 -1.60116 0
M  V30 11845 O 1113.16 -0.967671 -1.7663 0
M  V30 11846 C 1110.22 -1.94958 -2.86692 0
M  V30 11847 C 1109.28 -3.1887 -2.87438 0
M  V30 11848 C 1108.51 -3.33588 -4.16599 0
M  V30 11849 O 1108.74 -2.53327 -5.11059 0
M  V30 11850 O 1107.67 -4.26795 -4.24416 0
M  V30 11851 H 1111.5 -2.73913 -1.31169 0
M  V30 11852 H 1109.08 -1.37455 -0.585372 0
M  V30 11853 H 1110.96 -2.06891 -3.67116 0
M  V30 11854 H 1109.64 -1.03726 -3.06631 0
M  V30 11855 H 1108.55 -3.12386 -2.0583 0
M  V30 11856 H 1109.88 -4.09917 -2.7245 0
M  V30 11857 N 1111.53 0.65634 -1.43283 0
M  V30 11858 C 1112.48 1.76934 -1.48199 0
M  V30 11859 C 1113.45 1.62748 -0.332023 0
M  V30 11860 O 1114.63 1.83036 -0.538735 0
M  V30 11861 C 1111.77 3.15072 -1.40797 0
M  V30 11862 C 1110.89 3.40414 -2.65974 0
M  V30 11863 C 1110.02 4.68383 -2.50582 0
M  V30 11864 C 1109.06 4.8682 -3.71043 0
M  V30 11865 N 1108.2 6.06043 -3.5448 0
M  V30 11866 H 1113.04 1.72067 -2.43304 0
M  V30 11867 H 1110.57 0.839728 -1.20777 0
M  V30 11868 H 1112.53 3.94925 -1.345 0
M  V30 11869 H 1111.16 3.19017 -0.492754 0
M  V30 11870 H 1110.21 2.54681 -2.82563 0
M  V30 11871 H 1111.53 3.49925 -3.55463 0
M  V30 11872 H 1110.68 5.56357 -2.41975 0
M  V30 11873 H 1109.42 4.61187 -1.58612 0
M  V30 11874 H 1108.42 3.97282 -3.80062 0
M  V30 11875 H 1109.65 4.95847 -4.64017 0
M  V30 11876 H 1107.6 5.99985 -2.65242 0
M  V30 11877 H 1107.51 6.16498 -4.37568 0
M  V30 11878 H 1108.78 6.96647 -3.49719 0
M  V30 11879 N 1113.01 1.29761 0.894412 0
M  V30 11880 C 1113.92 1.1724 2.03204 0
M  V30 11881 C 1114.94 0.0944452 1.73743 0
M  V30 11882 O 1116.11 0.307549 1.99038 0
M  V30 11883 C 1113.18 0.855416 3.35981 0
M  V30 11884 C 1112.24 2.01777 3.78926 0
M  V30 11885 C 1111.47 1.71581 5.05367 0
M  V30 11886 O 1111.69 0.639245 5.66807 0
M  V30 11887 O 1110.63 2.56539 5.44492 0
M  V30 11888 H 1114.45 2.12787 2.16692 0
M  V30 11889 H 1112.04 1.09264 1.0189 0
M  V30 11890 H 1113.92 0.693429 4.15656 0
M  V30 11891 H 1112.6 -0.0702195 3.23624 0
M  V30 11892 H 1111.5 2.23502 2.99996 0
M  V30 11893 H 1112.84 2.92479 3.95875 0
M  V30 11894 N 1114.49 -1.10549 1.12324 0
M  V30 11895 C 1115.42 -2.18911 0.812416 0
M  V30 11896 C 1116.4 -1.68628 -0.22327 0
M  V30 11897 O 1117.58 -1.94015 -0.0847184 0
M  V30 11898 C 1114.71 -3.46288 0.264947 0
M  V30 11899 C 1113.67 -4.09838 1.23356 0
M  V30 11900 C 1112.99 -5.31901 0.546374 0
M  V30 11901 C 1114.29 -4.53686 2.58778 0
M  V30 11902 H 1115.99 -2.45169 1.71851 0
M  V30 11903 H 1113.53 -1.17834 0.827715 0
M  V30 11904 H 1115.49 -4.21385 0.0352364 0
M  V30 11905 H 1114.21 -3.19517 -0.676479 0
M  V30 11906 H 1112.87 -3.36746 1.44906 0
M  V30 11907 H 1112.52 -5.01406 -0.400157 0
M  V30 11908 H 1112.22 -5.75372 1.19249 0
M  V30 11909 H 1113.74 -6.09731 0.325673 0
M  V30 11910 H 1115.16 -5.20063 2.41263 0
M  V30 11911 H 1113.55 -5.08003 3.19457 0
M  V30 11912 H 1114.62 -3.66665 3.17309 0
M  V30 11913 N 1115.97 -0.914965 -1.28321 0
M  V30 11914 C 1116.92 -0.375436 -2.24888 0
M  V30 11915 C 1117.9 0.51313 -1.52498 0
M  V30 11916 O 1119.09 0.352654 -1.73451 0
M  V30 11917 C 1116.22 0.382266 -3.41165 0
M  V30 11918 C 1115.31 -0.522089 -4.20874 0
M  V30 11919 N 1115.7 -1.63623 -4.78603 0
M  V30 11920 C 1114 -0.322703 -4.44831 0
M  V30 11921 C 1114.7 -2.19766 -5.38589 0
M  V30 11922 N 1113.67 -1.48878 -5.22816 0
M  V30 11923 H 1117.47 -1.2263 -2.67094 0
M  V30 11924 H 1114.99 -0.767759 -1.43106 0
M  V30 11925 H 1116.99 0.785641 -4.0943 0
M  V30 11926 H 1115.65 1.23021 -3.00493 0
M  V30 11927 H 1116.66 -2.01879 -4.76933 0
M  V30 11928 H 1113.33 0.485627 -4.14666 0
M  V30 11929 H 1114.72 -3.13494 -5.94282 0
M  V30 11930 N 1117.44 1.42219 -0.679077 0
M  V30 11931 C 1118.39 2.27992 0.0194379 0
M  V30 11932 C 1119.38 1.41317 0.769313 0
M  V30 11933 O 1120.57 1.64731 0.647521 0
M  V30 11934 C 1117.7 3.29401 0.966945 0
M  V30 11935 C 1116.78 4.23559 0.214187 0
M  V30 11936 N 1117.18 4.99699 -0.783226 0
M  V30 11937 C 1115.47 4.43703 0.452026 0
M  V30 11938 C 1116.17 5.68496 -1.23237 0
M  V30 11939 N 1115.15 5.40692 -0.561484 0
M  V30 11940 H 1118.95 2.84287 -0.745542 0
M  V30 11941 H 1116.47 1.54234 -0.508504 0
M  V30 11942 H 1118.46 3.89655 1.48238 0
M  V30 11943 H 1117.12 2.74667 1.7317 0
M  V30 11944 H 1118.13 5.04675 -1.16291 0
M  V30 11945 H 1114.81 4.00004 1.19595 0
M  V30 11946 H 1116.2 6.3957 -2.05912 0
M  V30 11947 N 1118.92 0.422693 1.51826 0
M  V30 11948 C 1119.85 -0.386913 2.30272 0
M  V30 11949 C 1120.83 -1.03411 1.35056 0
M  V30 11950 O 1122.02 -1.04055 1.6397 0
M  V30 11951 C 1119.15 -1.49645 3.13407 0
M  V30 11952 C 1118.1 -0.973532 4.16781 0
M  V30 11953 C 1117.43 -2.1777 4.88344 0
M  V30 11954 C 1118.73 -0.0181194 5.22297 0
M  V30 11955 H 1120.42 0.267697 2.98201 0
M  V30 11956 H 1117.97 0.130186 1.4341 0
M  V30 11957 H 1119.92 -2.06993 3.67059 0
M  V30 11958 H 1118.64 -2.17914 2.43272 0
M  V30 11959 H 1117.3 -0.42237 3.64159 0
M  V30 11960 H 1116.95 -2.84625 4.14726 0
M  V30 11961 H 1116.65 -1.83427 5.58237 0
M  V30 11962 H 1118.18 -2.75699 5.44814 0
M  V30 11963 H 1119.59 -0.500822 5.71108 0
M  V30 11964 H 1117.99 0.237163 5.99631 0
M  V30 11965 H 1119.06 0.923065 4.76033 0
M  V30 11966 N 1120.4 -1.5685 0.153553 0
M  V30 11967 C 1121.33 -2.14231 -0.814729 0
M  V30 11968 C 1122.34 -1.09339 -1.20619 0
M  V30 11969 O 1123.53 -1.36592 -1.14913 0
M  V30 11970 C 1120.63 -2.6555 -2.10562 0
M  V30 11971 C 1119.81 -3.94912 -1.8805 0
M  V30 11972 C 1118.87 -4.31476 -3.0119 0
M  V30 11973 O 1117.89 -4.9968 -2.72596 0
M  V30 11974 N 1119.09 -3.91588 -4.28531 0
M  V30 11975 H 1121.86 -2.9794 -0.324277 0
M  V30 11976 H 1119.42 -1.61873 -0.0298087 0
M  V30 11977 H 1121.41 -2.87019 -2.85311 0
M  V30 11978 H 1119.98 -1.86529 -2.5085 0
M  V30 11979 H 1119.2 -3.82002 -0.973024 0
M  V30 11980 H 1120.49 -4.79433 -1.70356 0
M  V30 11981 H 1119.89 -3.36645 -4.54628 0
M  V30 11982 H 1118.44 -4.18095 -5.00039 0
M  V30 11983 N 1121.88 0.120221 -1.57141 0
M  V30 11984 C 1122.79 1.16641 -2.03549 0
M  V30 11985 C 1123.8 1.45407 -0.955656 0
M  V30 11986 O 1124.98 1.56547 -1.26708 0
M  V30 11987 C 1122.04 2.4734 -2.42948 0
M  V30 11988 C 1121.11 2.25982 -3.65008 0
M  V30 11989 C 1120.34 3.50449 -4.02518 0
M  V30 11990 O 1120.56 4.57706 -3.40384 0
M  V30 11991 O 1119.5 3.41524 -4.95626 0
M  V30 11992 H 1123.32 0.802323 -2.9291 0
M  V30 11993 H 1120.91 0.330927 -1.45689 0
M  V30 11994 H 1122.79 3.24348 -2.69029 0
M  V30 11995 H 1121.46 2.83225 -1.56733 0
M  V30 11996 H 1120.37 1.46837 -3.44078 0
M  V30 11997 H 1121.7 1.95002 -4.51924 0
M  V30 11998 N 1123.36 1.52689 0.390367 0
M  V30 11999 C 1124.29 1.73622 1.49626 0
M  V30 12000 C 1125.3 0.616682 1.50668 0
M  V30 12001 O 1126.49 0.892341 1.54595 0
M  V30 12002 C 1123.59 1.77859 2.88477 0
M  V30 12003 C 1122.76 3.07146 3.11416 0
M  V30 12004 C 1121.82 3.02949 4.30242 0
M  V30 12005 O 1120.85 3.76816 4.26613 0
M  V30 12006 N 1122.05 2.22039 5.36357 0
M  V30 12007 H 1124.82 2.69037 1.32057 0
M  V30 12008 H 1122.38 1.51159 0.579867 0
M  V30 12009 H 1124.37 1.72559 3.66067 0
M  V30 12010 H 1122.94 0.898367 2.99413 0
M  V30 12011 H 1122.16 3.25947 2.21703 0
M  V30 12012 H 1123.45 3.92637 3.23595 0
M  V30 12013 H 1122.84 1.6149 5.4216 0
M  V30 12014 H 1121.4 2.2258 6.12619 0
M  V30 12015 N 1124.83 -0.648732 1.43629 0
M  V30 12016 C 1125.78 -1.78269 1.49409 0
M  V30 12017 C 1126.78 -1.6537 0.367288 0
M  V30 12018 O 1127.98 -1.71663 0.541476 0
M  V30 12019 H 1124.36 -0.58824 0.468484 0
M  V30 12020 H 1126.33 -1.70514 2.44883 0
M  V30 12021 C 1125.08 -3.16545 1.43856 0
M  V30 12022 H 1124.4 -3.2711 2.29868 0
M  V30 12023 H 1125.84 -3.95833 1.51961 0
M  V30 12024 C 1124.3 -3.36535 0.156779 0
M  V30 12025 O 1124.83 -3.94052 -0.780124 0
M  V30 12026 N 1123.04 -2.90526 0.0655319 0
M  V30 12027 H 1122.58 -2.43904 0.828768 0
M  V30 12028 H 1122.54 -3.04277 -0.791379 0
M  V30 12029 N 1126.31 -1.30234 -0.887518 0
M  V30 12030 C 1127.56 -1.19086 -1.64153 0
M  V30 12031 C 1127.89 0.254428 -1.92526 0
M  V30 12032 O 1127.17 1.18233 -1.54438 0
M  V30 12033 C 1127.45 -2.01723 -2.98295 0
M  V30 12034 C 1127.3 -3.54458 -2.76911 0
M  V30 12035 C 1128.62 -1.85307 -3.99186 0
M  V30 12036 H 1125.74 -0.433967 -0.595686 0
M  V30 12037 H 1128.38 -1.59839 -1.0272 0
M  V30 12038 H 1126.53 -1.67096 -3.5073 0
M  V30 12039 H 1128.2 -3.99131 -2.31284 0
M  V30 12040 H 1126.45 -3.78768 -2.11464 0
M  V30 12041 H 1127.12 -4.07565 -3.72283 0
M  V30 12042 H 1129.59 -2.15575 -3.55903 0
M  V30 12043 H 1128.47 -2.45456 -4.90961 0
M  V30 12044 H 1128.73 -0.811528 -4.34588 0
M  V30 12045 N 1127.79 1.09952 -1.12909 0
M  V30 12046 C 1129.02 1.8633 -0.910821 0
M  V30 12047 C 1129.44 1.80335 0.534874 0
M  V30 12048 O 1128.8 1.1769 1.37908 0
M  V30 12049 C 1128.85 3.32462 -1.39648 0
M  V30 12050 O 1127.95 4.08327 -0.578192 0
M  V30 12051 H 1127.29 0.577984 -0.32685 0
M  V30 12052 H 1129.82 1.38883 -1.50242 0
M  V30 12053 H 1129.83 3.83311 -1.39774 0
M  V30 12054 H 1128.51 3.36141 -2.44913 0
M  V30 12055 H 1127.08 3.67291 -0.644347 0
M  V30 12056 N 1129.27 0.921757 1.27833 0
M  V30 12057 C 1130.22 0.406628 2.29018 0
M  V30 12058 C 1131.21 -0.505914 1.61669 0
M  V30 12059 O 1132.42 -0.386273 1.75807 0
M  V30 12060 H 1128.79 0.112914 0.743475 0
M  V30 12061 H 1130.76 1.27295 2.69886 0
M  V30 12062 C 1129.51 -0.330783 3.46123 0
M  V30 12063 H 1128.83 0.362207 3.98156 0
M  V30 12064 H 1130.27 -0.655738 4.18899 0
M  V30 12065 C 1128.73 -1.54161 2.9956 0
M  V30 12066 O 1129.26 -2.64052 3.0272 0
M  V30 12067 N 1127.47 -1.39137 2.55126 0
M  V30 12068 H 1127.02 -0.497319 2.52754 0
M  V30 12069 H 1126.97 -2.20278 2.24333 0
M  V30 12070 N 1130.75 -1.41857 0.686609 0
M  V30 12071 C 1131.71 -2.29187 0.0247022 0
M  V30 12072 C 1132.71 -1.43926 -0.717069 0
M  V30 12073 O 1133.9 -1.65179 -0.5533 0
M  V30 12074 C 1131.03 -3.26644 -0.975537 0
M  V30 12075 H 1132.22 -2.89212 0.793503 0
M  V30 12076 H 1129.78 -1.49694 0.449605 0
M  V30 12077 H 1130.51 -2.7158 -1.77242 0
M  V30 12078 H 1130.3 -3.89545 -0.446892 0
M  V30 12079 H 1131.79 -3.92107 -1.43673 0
M  V30 12080 N 1132.22 -0.430739 -1.51599 0
M  V30 12081 C 1133.47 0.137929 -2.0203 0
M  V30 12082 C 1133.8 1.43287 -1.31526 0
M  V30 12083 O 1133.05 1.9121 -0.416814 0
M  V30 12084 C 1133.35 0.410694 -3.55032 0
M  V30 12085 C 1133.02 -0.797634 -4.43789 0
M  V30 12086 C 1131.68 -1.12902 -4.67768 0
M  V30 12087 C 1134.03 -1.60403 -4.95904 0
M  V30 12088 C 1131.36 -2.2676 -5.41107 0
M  V30 12089 C 1133.71 -2.73354 -5.70491 0
M  V30 12090 C 1132.38 -3.06955 -5.92735 0
M  V30 12091 H 1131.65 0.0504718 -0.739279 0
M  V30 12092 H 1134.29 -0.576585 -1.82614 0
M  V30 12093 H 1132.6 1.20703 -3.72744 0
M  V30 12094 H 1134.3 0.864006 -3.91581 0
M  V30 12095 H 1130.89 -0.529397 -4.25318 0
M  V30 12096 H 1135.07 -1.36122 -4.77268 0
M  V30 12097 H 1130.33 -2.53114 -5.56546 0
M  V30 12098 H 1134.5 -3.36213 -6.09864 0
M  V30 12099 H 1132.13 -3.95293 -6.49344 0
M  V30 12100 N 1133.7 1.56767 -0.161869 0
M  V30 12101 C 1134.63 2.20511 0.767918 0
M  V30 12102 C 1135.61 1.15783 1.24612 0
M  V30 12103 O 1136.8 1.44179 1.301 0
M  V30 12104 C 1133.93 2.83844 2.00125 0
M  V30 12105 C 1132.88 3.94528 1.65926 0
M  V30 12106 C 1132.21 4.44866 2.96646 0
M  V30 12107 C 1133.51 5.14583 0.894497 0
M  V30 12108 H 1135.2 2.98464 0.236607 0
M  V30 12109 H 1132.75 1.43561 0.112363 0
M  V30 12110 H 1134.7 3.27109 2.65664 0
M  V30 12111 H 1133.43 2.03246 2.55654 0
M  V30 12112 H 1132.08 3.51904 1.02759 0
M  V30 12113 H 1131.73 3.61071 3.50196 0
M  V30 12114 H 1131.43 5.19531 2.74521 0
M  V30 12115 H 1132.96 4.90812 3.6323 0
M  V30 12116 H 1134.37 5.54601 1.45228 0
M  V30 12117 H 1132.77 5.95105 0.772636 0
M  V30 12118 H 1133.84 4.84773 -0.110986 0
M  V30 12119 N 1135.18 -0.111886 1.57202 0
M  V30 12120 C 1136.46 -0.849125 1.76208 0
M  V30 12121 C 1136.84 -1.97735 0.73919 0
M  V30 12122 O 1136.19 -2.27283 -0.235523 0
M  V30 12123 C 1136.4 -1.35924 3.21443 0
M  V30 12124 C 1137.74 -1.80874 3.84148 0
M  V30 12125 O 1138.77 -1.45587 3.25089 0
M  V30 12126 O 1137.63 -2.46065 4.87969 0
M  V30 12127 H 1134.72 -0.403761 0.721738 0
M  V30 12128 H 1137.27 -0.0950726 1.69433 0
M  V30 12129 H 1136.04 -0.550113 3.87414 0
M  V30 12130 H 1135.66 -2.17579 3.32784 0
M  V30 12131 N 1136.66 -1.52894 -0.382264 0
M  V30 12132 C 1137.61 -1.78151 -1.46734 0
M  V30 12133 C 1138.58 -0.625034 -1.53891 0
M  V30 12134 O 1139.76 -0.865467 -1.70042 0
M  V30 12135 C 1136.9 -1.96223 -2.83885 0
M  V30 12136 C 1136.01 -3.23925 -2.85826 0
M  V30 12137 C 1135.15 -3.32277 -4.14446 0
M  V30 12138 C 1134.19 -4.54076 -4.10465 0
M  V30 12139 N 1133.32 -4.59672 -5.30703 0
M  V30 12140 H 1138.16 -2.70748 -1.24497 0
M  V30 12141 H 1135.7 -1.34135 -0.603838 0
M  V30 12142 H 1137.66 -2.04686 -3.63537 0
M  V30 12143 H 1136.29 -1.0698 -3.04557 0
M  V30 12144 H 1135.34 -3.245 -1.98505 0
M  V30 12145 H 1136.65 -4.1364 -2.78754 0
M  V30 12146 H 1135.81 -3.3996 -5.02506 0
M  V30 12147 H 1134.55 -2.40548 -4.2425 0
M  V30 12148 H 1133.55 -4.46511 -3.20793 0
M  V30 12149 H 1134.78 -5.47128 -4.02278 0
M  V30 12150 H 1132.72 -3.70838 -5.41124 0
M  V30 12151 H 1132.64 -5.43268 -5.25734 0
M  V30 12152 H 1133.91 -4.71618 -6.20642 0
M  V30 12153 N 1138.14 0.641106 -1.43971 0
M  V30 12154 C 1139.39 1.39807 -1.4594 0
M  V30 12155 C 1139.71 1.94795 -0.0893874 0
M  V30 12156 O 1138.98 1.75175 0.876962 0
M  V30 12157 H 1137.56 0.518908 -0.537349 0
M  V30 12158 H 1140.22 0.755278 -1.79671 0
M  V30 12159 H 1139.31 2.23439 -2.17903 0
M  V30 12160 N 1139.62 1.30703 0.880598 0
M  V30 12161 C 1140.53 1.19389 2.01949 0
M  V30 12162 C 1141.54 0.112868 1.73634 0
M  V30 12163 O 1142.72 0.328643 1.98701 0
M  V30 12164 C 1139.78 0.891004 3.35055 0
M  V30 12165 C 1138.84 2.05784 3.76764 0
M  V30 12166 C 1138.08 1.76931 5.03519 0
M  V30 12167 O 1138.3 0.699326 5.66097 0
M  V30 12168 O 1137.23 2.623 5.4174 0
M  V30 12169 H 1141.06 2.15073 2.14423 0
M  V30 12170 H 1138.64 1.10339 1.00726 0
M  V30 12171 H 1140.53 0.737476 4.14897 0
M  V30 12172 H 1139.2 -0.0358909 3.2368 0
M  V30 12173 H 1138.11 2.26672 2.97608 0
M  V30 12174 H 1139.44 2.96661 3.9275 0
M  V30 12175 N 1141.09 -1.09351 1.1349 0
M  V30 12176 C 1142.34 -1.81543 0.897123 0
M  V30 12177 C 1142.67 -1.85754 -0.576703 0
M  V30 12178 O 1141.92 -1.32213 -1.44285 0
M  V30 12179 C 1142.22 -3.27498 1.43108 0
M  V30 12180 C 1141.89 -3.4342 2.92188 0
M  V30 12181 C 1140.55 -3.47473 3.32891 0
M  V30 12182 C 1142.9 -3.47894 3.88097 0
M  V30 12183 C 1140.23 -3.5358 4.68186 0
M  V30 12184 C 1142.58 -3.55535 5.23238 0
M  V30 12185 C 1141.25 -3.57857 5.63467 0
M  V30 12186 H 1140.52 -0.664314 0.32828 0
M  V30 12187 H 1143.16 -1.28819 1.41697 0
M  V30 12188 H 1141.47 -3.82865 0.831946 0
M  V30 12189 H 1143.17 -3.8189 1.22316 0
M  V30 12190 H 1139.76 -3.4095 2.59713 0
M  V30 12191 H 1143.94 -3.44002 3.57737 0
M  V30 12192 H 1139.2 -3.53665 4.9873 0
M  V30 12193 H 1143.37 -3.57942 5.9737 0
M  V30 12194 H 1141 -3.62341 6.68291 0
M  V30 12195 N 1142.57 -0.928524 -1.27343 0
M  V30 12196 C 1143.8 -0.584884 -1.98148 0
M  V30 12197 C 1144.21 0.841603 -1.69451 0
M  V30 12198 O 1143.55 1.57104 -0.952053 0
M  V30 12199 C 1143.61 -0.731911 -3.51971 0
M  V30 12200 C 1143.28 -2.13067 -4.04291 0
M  V30 12201 C 1144.28 -3.10492 -4.17002 0
M  V30 12202 C 1141.96 -2.44784 -4.38619 0
M  V30 12203 C 1143.95 -4.37742 -4.63315 0
M  V30 12204 C 1141.64 -3.72269 -4.84622 0
M  V30 12205 C 1142.64 -4.68562 -4.9693 0
M  V30 12206 O 1142.33 -5.93779 -5.41924 0
M  V30 12207 H 1142.06 -0.220347 -0.63908 0
M  V30 12208 H 1144.61 -1.24799 -1.63139 0
M  V30 12209 H 1142.84 -0.0116966 -3.86698 0
M  V30 12210 H 1144.53 -0.393206 -4.03991 0
M  V30 12211 H 1145.3 -2.8731 -3.9074 0
M  V30 12212 H 1141.18 -1.70577 -4.28281 0
M  V30 12213 H 1144.72 -5.12905 -4.72836 0
M  V30 12214 H 1140.62 -3.95269 -5.10326 0
M  V30 12215 H 1141.39 -5.96779 -5.60176 0
M  V30 12216 N 1144.05 1.41491 -0.694123 0
M  V30 12217 C 1145.3 2.00479 -0.221585 0
M  V30 12218 C 1145.61 1.55605 1.18518 0
M  V30 12219 O 1146.82 2.07143 1.7551 0
M  V30 12220 C 1145.27 3.5824 -0.345264 0
M  V30 12221 C 1144.88 4.12096 -1.7573 0
M  V30 12222 C 1146.63 4.24446 0.0675731 0
M  V30 12223 C 1144.53 5.62286 -1.83271 0
M  V30 12224 H 1143.46 0.749841 -0.0790854 0
M  V30 12225 H 1146.11 1.61987 -0.86211 0
M  V30 12226 H 1144.5 3.94328 0.363487 0
M  V30 12227 H 1145.67 3.8743 -2.49469 0
M  V30 12228 H 1143.98 3.58411 -2.11969 0
M  V30 12229 H 1146.58 5.34691 0.0316485 0
M  V30 12230 H 1146.92 4.01338 1.10606 0
M  V30 12231 H 1147.46 3.93388 -0.59085 0
M  V30 12232 H 1144.2 5.9022 -2.85168 0
M  V30 12233 H 1143.72 5.88883 -1.13914 0
M  V30 12234 H 1145.4 6.27033 -1.59494 0
M  V30 12235 N 1145.53 0.438773 1.51369 0
M  V30 12236 C 1146.78 -0.126962 2.01701 0
M  V30 12237 C 1147.1 -1.43086 1.32481 0
M  V30 12238 O 1146.37 -1.90427 0.459823 0
M  V30 12239 H 1144.95 -0.0499092 0.745331 0
M  V30 12240 H 1147.61 0.581808 1.86013 0
M  V30 12241 H 1146.7 -0.301836 3.10637 0
M  V30 12242 N 1147.01 -1.56678 0.170181 0
M  V30 12243 C 1148.23 -2.0166 -0.484543 0
M  V30 12244 C 1148.66 -1.04962 -1.56091 0
M  V30 12245 O 1148.01 -0.0289887 -1.81277 0
M  V30 12246 C 1148.06 -3.45252 -1.04084 0
M  V30 12247 O 1147.17 -3.51623 -2.15488 0
M  V30 12248 H 1146.51 -0.653765 -0.116135 0
M  V30 12249 H 1149.04 -2.02761 0.273737 0
M  V30 12250 H 1149.05 -3.84534 -1.36373 0
M  V30 12251 H 1147.72 -4.15131 -0.252738 0
M  V30 12252 H 1146.3 -3.242 -1.84252 0
M  V30 12253 N 1148.48 0.103547 -1.57259 0
M  V30 12254 C 1149.43 1.12621 -2.01458 0
M  V30 12255 C 1150.4 1.40282 -0.889391 0
M  V30 12256 O 1151.59 1.51887 -1.15477 0
M  V30 12257 C 1148.73 2.44352 -2.43692 0
M  V30 12258 C 1147.84 2.23495 -3.69695 0
M  V30 12259 C 1146.97 3.48565 -4.00844 0
M  V30 12260 C 1146.01 3.22932 -5.19982 0
M  V30 12261 N 1145.15 4.40246 -5.46926 0
M  V30 12262 H 1149.99 0.742315 -2.88606 0
M  V30 12263 H 1147.53 0.355016 -1.42752 0
M  V30 12264 H 1149.48 3.2122 -2.66221 0
M  V30 12265 H 1148.11 2.80605 -1.59565 0
M  V30 12266 H 1147.17 1.3747 -3.54692 0
M  V30 12267 H 1148.48 2.0054 -4.56711 0
M  V30 12268 H 1147.63 4.33844 -4.24104 0
M  V30 12269 H 1146.37 3.74565 -3.12333 0
M  V30 12270 H 1145.38 2.36045 -4.96551 0
M  V30 12271 H 1146.6 2.98286 -6.10084 0
M  V30 12272 H 1144.55 4.66338 -4.61373 0
M  V30 12273 H 1144.46 4.20452 -6.28296 0
M  V30 12274 H 1145.73 5.26614 -5.74716 0
M  V30 12275 N 1149.96 1.53094 0.37415 0
M  V30 12276 C 1151.19 1.72508 1.13687 0
M  V30 12277 C 1151.6 0.449922 1.83773 0
M  V30 12278 O 1150.94 -0.586391 1.74089 0
M  V30 12279 C 1151 2.82965 2.21746 0
M  V30 12280 C 1150.67 4.23599 1.71501 0
M  V30 12281 C 1151.67 5.06245 1.1837 0
M  V30 12282 C 1149.35 4.69978 1.77273 0
M  V30 12283 C 1151.34 6.33357 0.71679 0
M  V30 12284 C 1149.03 5.9707 1.30194 0
M  V30 12285 C 1150.03 6.7859 0.774856 0
M  V30 12286 O 1149.72 8.03298 0.310981 0
M  V30 12287 H 1149.45 0.580611 0.346218 0
M  V30 12288 H 1152 2.00596 0.441614 0
M  V30 12289 H 1150.23 2.5033 2.9474 0
M  V30 12290 H 1151.92 2.90638 2.83345 0
M  V30 12291 H 1152.69 4.71591 1.13256 0
M  V30 12292 H 1148.57 4.06605 2.17241 0
M  V30 12293 H 1152.11 6.96934 0.30471 0
M  V30 12294 H 1148.01 6.31225 1.34999 0
M  V30 12295 H 1148.78 8.17364 0.431098 0
M  V30 12296 N 1151.44 -0.633461 1.44309 0
M  V30 12297 C 1152.39 -1.74554 1.50995 0
M  V30 12298 C 1153.36 -1.62199 0.357873 0
M  V30 12299 O 1154.54 -1.82156 0.567787 0
M  V30 12300 C 1151.68 -3.12792 1.45791 0
M  V30 12301 C 1150.79 -3.3614 2.71356 0
M  V30 12302 C 1149.93 -4.64337 2.58002 0
M  V30 12303 C 1148.97 -4.80855 3.78741 0
M  V30 12304 N 1148.11 -6.00327 3.64077 0
M  V30 12305 H 1152.95 -1.68174 2.46011 0
M  V30 12306 H 1150.48 -0.820407 1.22097 0
M  V30 12307 H 1152.44 -3.92735 1.40765 0
M  V30 12308 H 1151.07 -3.18193 0.543445 0
M  V30 12309 H 1150.12 -2.50154 2.86579 0
M  V30 12310 H 1151.43 -3.44226 3.60985 0
M  V30 12311 H 1150.59 -5.52437 2.50795 0
M  V30 12312 H 1149.33 -4.58605 1.65929 0
M  V30 12313 H 1148.33 -3.91185 3.86334 0
M  V30 12314 H 1149.56 -4.88403 4.71847 0
M  V30 12315 H 1147.5 -5.9569 2.74754 0
M  V30 12316 H 1147.42 -6.09459 4.47321 0
M  V30 12317 H 1148.69 -6.90995 3.60758 0
M  V30 12318 N 1152.92 -1.31168 -0.873655 0
M  V30 12319 C 1153.87 -1.18507 -1.98052 0
M  V30 12320 C 1154.84 -0.0717583 -1.65945 0
M  V30 12321 O 1156.02 -0.243965 -1.89234 0
M  V30 12322 C 1153.16 -0.894571 -3.33304 0
M  V30 12323 C 1152.27 -2.09086 -3.7803 0
M  V30 12324 C 1151.41 -1.73747 -5.01982 0
M  V30 12325 C 1150.45 -2.89805 -5.39147 0
M  V30 12326 N 1149.58 -2.54686 -6.54278 0
M  V30 12327 H 1154.42 -2.13193 -2.08213 0
M  V30 12328 H 1151.96 -1.06056 -1.01934 0
M  V30 12329 H 1153.92 -0.706714 -4.11171 0
M  V30 12330 H 1152.55 0.0154449 -3.22796 0
M  V30 12331 H 1151.6 -2.38961 -2.95976 0
M  V30 12332 H 1152.91 -2.95963 -4.01506 0
M  V30 12333 H 1152.07 -1.51402 -5.87505 0
M  V30 12334 H 1150.81 -0.840553 -4.80402 0
M  V30 12335 H 1149.81 -3.12803 -4.52144 0
M  V30 12336 H 1151.04 -3.802 -5.62694 0
M  V30 12337 H 1148.98 -1.67513 -6.34252 0
M  V30 12338 H 1148.9 -3.35093 -6.77679 0
M  V30 12339 H 1150.17 -2.35725 -7.43003 0
M  V30 12340 N 1154.4 1.08748 -1.14068 0
M  V30 12341 C 1155.64 1.81333 -0.908081 0
M  V30 12342 C 1155.98 1.85826 0.564112 0
M  V30 12343 O 1155.25 1.33157 1.41773 0
M  V30 12344 C 1155.53 3.27127 -1.50531 0
M  V30 12345 C 1155.39 3.30865 -3.04711 0
M  V30 12346 C 1156.71 4.24006 -1.17928 0
M  V30 12347 H 1153.82 0.658326 -0.331325 0
M  V30 12348 H 1156.47 1.27345 -1.41008 0
M  V30 12349 H 1154.62 3.73233 -1.07839 0
M  V30 12350 H 1156.29 2.93109 -3.56209 0
M  V30 12351 H 1154.53 2.70241 -3.39341 0
M  V30 12352 H 1155.2 4.33603 -3.41603 0
M  V30 12353 H 1157.68 3.86221 -1.54831 0
M  V30 12354 H 1156.55 5.2434 -1.62353 0
M  V30 12355 H 1156.82 4.42 -0.0940349 0
M  V30 12356 N 1155.87 0.935264 1.26849 0
M  V30 12357 C 1157.12 0.580548 1.94313 0
M  V30 12358 C 1157.45 -0.877205 1.73259 0
M  V30 12359 O 1156.73 -1.62679 1.06611 0
M  V30 12360 C 1157.01 0.916445 3.48243 0
M  V30 12361 C 1156.86 2.42851 3.78607 0
M  V30 12362 C 1158.18 0.427665 4.38017 0
M  V30 12363 H 1155.3 0.21239 0.705733 0
M  V30 12364 H 1157.94 1.16841 1.49827 0
M  V30 12365 H 1156.09 0.416169 3.86265 0
M  V30 12366 H 1157.77 3.00106 3.50335 0
M  V30 12367 H 1156.01 2.8745 3.24892 0
M  V30 12368 H 1156.68 2.61405 4.8618 0
M  V30 12369 H 1159.16 0.856525 4.07189 0
M  V30 12370 H 1158.03 0.691571 5.44526 0
M  V30 12371 H 1158.29 -0.672344 4.36958 0
M  V30 12372 N 1157.35 -1.41121 0.701616 0
M  V30 12373 C 1158.58 -2.05154 0.244011 0
M  V30 12374 C 1158.99 -1.52922 -1.11407 0
M  V30 12375 O 1158.33 -0.67486 -1.70855 0
M  V30 12376 C 1158.4 -3.59262 0.130773 0
M  V30 12377 C 1158.06 -4.34318 1.42187 0
M  V30 12378 C 1159.06 -4.632 2.36097 0
M  V30 12379 C 1156.74 -4.73481 1.67693 0
M  V30 12380 C 1158.74 -5.30214 3.53768 0
M  V30 12381 C 1156.42 -5.4023 2.85648 0
M  V30 12382 C 1157.42 -5.68524 3.78509 0
M  V30 12383 O 1157.11 -6.33898 4.94397 0
M  V30 12384 H 1156.84 -0.666997 0.109957 0
M  V30 12385 H 1159.39 -1.81771 0.956473 0
M  V30 12386 H 1157.62 -3.81409 -0.637512 0
M  V30 12387 H 1159.31 -4.0486 -0.29044 0
M  V30 12388 H 1160.08 -4.3342 2.17652 0
M  V30 12389 H 1155.96 -4.50835 0.962733 0
M  V30 12390 H 1159.5 -5.52215 4.26267 0
M  V30 12391 H 1155.4 -5.69429 3.04008 0
M  V30 12392 H 1156.17 -6.52394 4.94292 0
M  V30 12393 N 1158.83 -0.446794 -1.51134 0
M  V30 12394 C 1160.25 -0.0995905 -1.59289 0
M  V30 12395 C 1160.45 1.39191 -1.45699 0
M  V30 12396 O 1159.5 2.1628 -1.30303 0
M  V30 12397 C 1160.82 -0.628135 -2.94066 0
M  V30 12398 C 1162.36 -0.589409 -3.074 0
M  V30 12399 C 1162.84 -1.09509 -4.44715 0
M  V30 12400 N 1164.33 -1.05347 -4.51061 0
M  V30 12401 C 1165.06 -1.41551 -5.55654 0
M  V30 12402 N 1164.56 -1.85086 -6.67619 0
M  V30 12403 N 1166.35 -1.33307 -5.46064 0
M  V30 12404 H 1158.5 -1.41713 -1.58213 0
M  V30 12405 H 1160.77 -0.584555 -0.746324 0
M  V30 12406 H 1160.47 -1.67205 -3.09411 0
M  V30 12407 H 1160.35 -0.0582398 -3.77155 0
M  V30 12408 H 1162.73 0.445541 -2.91717 0
M  V30 12409 H 1162.82 -1.19582 -2.26128 0
M  V30 12410 H 1162.46 -2.12855 -4.61146 0
M  V30 12411 H 1162.39 -0.465122 -5.24542 0
M  V30 12412 H 1164.88 -0.733877 -3.70706 0
M  V30 12413 H 1165.19 -2.10923 -7.43459 0
M  V30 12414 H 1163.54 -1.8902 -6.68802 0
M  V30 12415 H 1166.73 -0.991547 -4.57478 0
M  V30 12416 H 1166.9 -1.6185 -6.27462 0
M  V30 12417 N 1160.31 1.56586 -0.178487 0
M  V30 12418 C 1161.24 2.155 0.780543 0
M  V30 12419 C 1162.25 1.11244 1.18864 0
M  V30 12420 O 1163.44 1.38403 1.12725 0
M  V30 12421 C 1160.54 2.68867 2.0631 0
M  V30 12422 C 1159.72 3.97854 1.81744 0
M  V30 12423 C 1158.77 4.36213 2.94287 0
M  V30 12424 O 1157.8 5.03954 2.64612 0
M  V30 12425 N 1159 3.98356 4.22247 0
M  V30 12426 H 1161.77 2.98419 0.276836 0
M  V30 12427 H 1159.33 1.61899 0.00405241 0
M  V30 12428 H 1161.32 2.91522 2.80708 0
M  V30 12429 H 1159.89 1.90496 2.47851 0
M  V30 12430 H 1159.11 3.83502 0.912127 0
M  V30 12431 H 1160.4 4.82083 1.62707 0
M  V30 12432 H 1159.8 3.43835 4.49215 0
M  V30 12433 H 1158.35 4.25998 4.93325 0
M  V30 12434 N 1161.79 -0.095206 1.57312 0
M  V30 12435 C 1163.02 -0.811092 1.90013 0
M  V30 12436 C 1163.42 -1.72807 0.770359 0
M  V30 12437 O 1162.77 -1.81755 -0.266615 0
M  V30 12438 C 1162.83 -1.67744 3.17966 0
M  V30 12439 C 1162.49 -0.932301 4.47389 0
M  V30 12440 C 1163.49 -0.262161 5.19239 0
M  V30 12441 C 1161.18 -0.906414 4.94054 0
M  V30 12442 C 1163.17 0.423898 6.35989 0
M  V30 12443 C 1160.86 -0.216569 6.10716 0
M  V30 12444 C 1161.85 0.447408 6.81533 0
M  V30 12445 O 1161.54 1.12619 7.95972 0
M  V30 12446 H 1161.27 -0.237154 0.633035 0
M  V30 12447 H 1163.83 -0.0768976 2.05256 0
M  V30 12448 H 1162.06 -2.45387 2.98868 0
M  V30 12449 H 1163.75 -2.26988 3.36498 0
M  V30 12450 H 1164.51 -0.273621 4.84228 0
M  V30 12451 H 1160.39 -1.41267 4.38822 0
M  V30 12452 H 1163.94 0.942727 6.91201 0
M  V30 12453 H 1159.83 -0.202955 6.45181 0
M  V30 12454 H 1160.6 1.03308 8.11954 0
M  V30 12455 N 1163.26 -1.53291 -0.366026 0
M  V30 12456 C 1164.49 -1.73359 -1.12934 0
M  V30 12457 C 1164.91 -0.462352 -1.83051 0
M  V30 12458 O 1164.26 0.564711 -1.73543 0
M  V30 12459 C 1164.32 -2.89873 -2.15999 0
M  V30 12460 O 1164.04 -4.12079 -1.48737 0
M  V30 12461 C 1165.54 -3.21811 -3.04881 0
M  V30 12462 H 1162.76 -0.579827 -0.337701 0
M  V30 12463 H 1165.3 -2.00033 -0.425081 0
M  V30 12464 H 1163.46 -2.65595 -2.82025 0
M  V30 12465 H 1163.87 -4.77322 -2.17404 0
M  V30 12466 H 1165.34 -4.06744 -3.7318 0
M  V30 12467 H 1165.82 -2.37156 -3.69667 0
M  V30 12468 H 1166.43 -3.48013 -2.44473 0
M  V30 12469 N 1164.74 0.6258 -1.44643 0
M  V30 12470 C 1166.02 1.38439 -1.38181 0
M  V30 12471 C 1166.4 2.11056 -0.0431928 0
M  V30 12472 O 1165.75 2.06683 0.974383 0
M  V30 12473 C 1165.96 2.34639 -2.58352 0
M  V30 12474 C 1167.31 2.97807 -3.02649 0
M  V30 12475 O 1168.33 2.44963 -2.58595 0
M  V30 12476 O 1167.19 3.93682 -3.79048 0
M  V30 12477 H 1164.28 0.619852 -0.54746 0
M  V30 12478 H 1166.83 0.650409 -1.56741 0
M  V30 12479 H 1165.6 1.80116 -3.47382 0
M  V30 12480 H 1165.22 3.15446 -2.42032 0
M  V30 12481 N 1166.22 1.31629 0.866686 0
M  V30 12482 C 1167.45 1.24609 1.65793 0
M  V30 12483 C 1167.87 -0.184944 1.87189 0
M  V30 12484 O 1167.23 -1.1322 1.41601 0
M  V30 12485 C 1167.28 1.9988 3.00134 0
M  V30 12486 O 1166.38 1.33838 3.90079 0
M  V30 12487 H 1165.72 0.430051 0.505917 0
M  V30 12488 H 1168.25 1.73752 1.08035 0
M  V30 12489 H 1168.26 2.09599 3.50046 0
M  V30 12490 H 1166.94 3.03947 2.83882 0
M  V30 12491 H 1165.51 1.3259 3.48532 0
M  V30 12492 N 1167.7 -1.08142 1.14644 0
M  V30 12493 C 1168.93 -1.84318 0.939926 0
M  V30 12494 C 1169.34 -1.81735 -0.511636 0
M  V30 12495 O 1168.7 -1.22297 -1.35461 0
M  V30 12496 C 1168.75 -3.31744 1.43625 0
M  V30 12497 O 1168.47 -3.3435 2.83094 0
M  V30 12498 C 1169.97 -4.24717 1.27007 0
M  V30 12499 H 1167.19 -0.581781 0.334323 0
M  V30 12500 H 1169.74 -1.36561 1.52221 0
M  V30 12501 H 1167.89 -3.7688 0.896664 0
M  V30 12502 H 1168.31 -4.26399 3.05425 0
M  V30 12503 H 1169.78 -5.26262 1.66591 0
M  V30 12504 H 1170.26 -4.38682 0.213257 0
M  V30 12505 H 1170.86 -3.85409 1.79833 0
M  V30 12506 N 1169.18 -0.941978 -1.26351 0
M  V30 12507 C 1170.42 -0.589971 -1.93715 0
M  V30 12508 C 1170.75 0.871085 -1.73903 0
M  V30 12509 O 1170.01 1.63864 -1.06991 0
M  V30 12510 C 1170.31 -0.879481 -3.4641 0
M  V30 12511 C 1169.97 -2.32454 -3.86362 0
M  V30 12512 C 1168.63 -2.71957 -3.9698 0
M  V30 12513 C 1170.99 -3.2636 -4.06373 0
M  V30 12514 C 1168.31 -4.04459 -4.25006 0
M  V30 12515 C 1170.67 -4.58459 -4.35887 0
M  V30 12516 C 1169.33 -4.97775 -4.4472 0
M  V30 12517 H 1168.6 -0.215886 -0.708854 0
M  V30 12518 H 1171.25 -1.18863 -1.50146 0
M  V30 12519 H 1169.55 -0.198289 -3.91298 0
M  V30 12520 H 1171.25 -0.585887 -3.96697 0
M  V30 12521 H 1167.84 -2.00814 -3.78645 0
M  V30 12522 H 1172.02 -2.97037 -3.97596 0
M  V30 12523 H 1167.28 -4.34582 -4.30057 0
M  V30 12524 H 1171.45 -5.31213 -4.50317 0
M  V30 12525 H 1169.08 -6.00475 -4.66191 0
M  V30 12526 N 1170.66 1.40747 -0.709091 0
M  V30 12527 C 1172.07 1.54961 -0.381989 0
M  V30 12528 C 1172.27 1.68181 1.10985 0
M  V30 12529 O 1171.33 1.66776 1.89584 0
M  V30 12530 C 1172.64 2.78156 -1.14236 0
M  V30 12531 C 1174.19 2.91967 -1.12803 0
M  V30 12532 C 1174.66 4.18066 -1.87042 0
M  V30 12533 N 1176.15 4.25052 -1.84078 0
M  V30 12534 C 1176.89 5.21514 -2.38349 0
M  V30 12535 N 1176.39 6.23924 -3.01149 0
M  V30 12536 N 1178.18 5.13548 -2.28528 0
M  V30 12537 H 1170.33 1.30412 -1.6765 0
M  V30 12538 H 1172.59 0.630147 -0.70825 0
M  V30 12539 H 1172.3 2.74643 -2.19691 0
M  V30 12540 H 1172.17 3.70074 -0.729731 0
M  V30 12541 H 1174.56 2.94987 -0.0816956 0
M  V30 12542 H 1174.64 2.01185 -1.57982 0
M  V30 12543 H 1174.28 4.15808 -2.91662 0
M  V30 12544 H 1174.21 5.07845 -1.39287 0
M  V30 12545 H 1176.71 3.51682 -1.38305 0
M  V30 12546 H 1177.02 6.93942 -3.40094 0
M  V30 12547 H 1175.36 6.24387 -3.05231 0
M  V30 12548 H 1178.55 4.3247 -1.79129 0
M  V30 12549 H 1178.73 5.88553 -2.71126 0
M  V30 12550 N 1172.13 0.454803 1.50895 0
M  V30 12551 C 1173.38 -0.105927 2.02523 0
M  V30 12552 C 1173.71 -1.40825 1.33724 0
M  V30 12553 O 1172.99 -1.89038 0.457683 0
M  V30 12554 C 1173.27 -0.306635 3.58792 0
M  V30 12555 C 1173.12 1.01556 4.38185 0
M  V30 12556 C 1174.44 -1.06858 4.2693 0
M  V30 12557 H 1171.56 -0.0370232 0.736069 0
M  V30 12558 H 1174.2 0.597215 1.8037 0
M  V30 12559 H 1172.35 -0.905563 3.77799 0
M  V30 12560 H 1174.03 1.64981 4.30789 0
M  V30 12561 H 1172.27 1.61608 4.02574 0
M  V30 12562 H 1172.94 0.828959 5.4574 0
M  V30 12563 H 1175.42 -0.561086 4.123 0
M  V30 12564 H 1174.29 -1.1778 5.36115 0
M  V30 12565 H 1174.55 -2.10111 3.8898 0
M  V30 12566 N 1173.61 -1.56489 0.186789 0
M  V30 12567 C 1175.02 -1.83809 -0.327265 0
M  V30 12568 C 1175.37 -1.10718 -1.61976 0
M  V30 12569 O 1174.5 -0.36525 -2.13295 0
M  V30 12570 C 1175.09 -3.33435 -0.600551 0
M  V30 12571 C 1173.65 -3.61195 -1.059 0
M  V30 12572 C 1172.8 -2.77108 -0.103131 0
M  V30 12573 H 1175.75 -1.53292 0.410747 0
M  V30 12574 H 1175.77 -3.51754 -1.45084 0
M  V30 12575 H 1175.28 -3.86605 0.340315 0
M  V30 12576 H 1173.38 -3.13451 -2.01443 0
M  V30 12577 H 1173.5 -4.69435 -0.957458 0
M  V30 12578 H 1171.86 -2.47448 -0.603449 0
M  V30 12579 H 1172.64 -3.33065 0.832031 0
M  V30 12580 N 1175.09 0.086862 -1.5736 0
M  V30 12581 C 1176.34 0.790008 -1.8678 0
M  V30 12582 C 1176.67 1.77977 -0.777042 0
M  V30 12583 O 1175.94 1.93317 0.21419 0
M  V30 12584 C 1176.23 1.51143 -3.26845 0
M  V30 12585 C 1176.08 0.539106 -4.46558 0
M  V30 12586 C 1177.4 2.46003 -3.64926 0
M  V30 12587 H 1174.52 0.285741 -0.679354 0
M  V30 12588 H 1177.16 0.0534655 -1.89925 0
M  V30 12589 H 1175.31 2.13928 -3.24295 0
M  V30 12590 H 1176.98 -0.0823679 -4.61226 0
M  V30 12591 H 1175.22 -0.146842 -4.33551 0
M  V30 12592 H 1175.9 1.0812 -5.41308 0
M  V30 12593 H 1178.37 1.93306 -3.68473 0
M  V30 12594 H 1177.25 2.93493 -4.63846 0
M  V30 12595 H 1177.51 3.30133 -2.94049 0
M  V30 12596 N 1176.57 1.53483 0.357892 0
M  V30 12597 C 1177.48 1.83434 1.4625 0
M  V30 12598 C 1178.49 0.723313 1.58254 0
M  V30 12599 O 1179.67 1.01416 1.74002 0
M  V30 12600 C 1176.73 2.0249 2.81423 0
M  V30 12601 C 1175.8 3.26378 2.78883 0
M  V30 12602 C 1175.03 3.44516 4.07608 0
M  V30 12603 O 1175.25 2.66787 5.04163 0
M  V30 12604 O 1174.19 4.37898 4.12952 0
M  V30 12605 H 1178.01 2.77294 1.23861 0
M  V30 12606 H 1175.6 1.38958 0.548722 0
M  V30 12607 H 1177.48 2.16552 3.61501 0
M  V30 12608 H 1176.15 1.11819 3.03773 0
M  V30 12609 H 1175.06 3.17733 1.97475 0
M  V30 12610 H 1176.39 4.16996 2.61486 0
M  V30 12611 N 1178.05 -0.61812 1.44973 0
M  V30 12612 C 1179.46 -0.937734 1.29146 0
M  V30 12613 C 1179.66 -2.00104 0.236749 0
M  V30 12614 O 1178.72 -2.49731 -0.372923 0
M  V30 12615 C 1180.03 -1.38865 2.66715 0
M  V30 12616 C 1181.58 -1.50343 2.74529 0
M  V30 12617 C 1182.05 -1.98814 4.12598 0
M  V30 12618 N 1183.54 -2.06064 4.14839 0
M  V30 12619 C 1184.28 -2.44768 5.18533 0
M  V30 12620 N 1183.78 -2.82516 6.32579 0
M  V30 12621 N 1185.57 -2.45016 5.05889 0
M  V30 12622 H 1177.72 0.084872 2.1223 0
M  V30 12623 H 1179.98 -0.0246744 0.947679 0
M  V30 12624 H 1179.69 -0.681583 3.45032 0
M  V30 12625 H 1179.56 -2.3572 2.94475 0
M  V30 12626 H 1181.95 -2.20144 1.96522 0
M  V30 12627 H 1182.03 -0.518297 2.50494 0
M  V30 12628 H 1181.67 -1.29604 4.91086 0
M  V30 12629 H 1181.6 -2.98223 4.34017 0
M  V30 12630 H 1184.1 -1.79525 3.32535 0
M  V30 12631 H 1184.41 -3.109 7.07504 0
M  V30 12632 H 1182.75 -2.80237 6.35997 0
M  V30 12633 H 1185.94 -2.14925 4.15842 0
M  V30 12634 H 1186.12 -2.74854 5.86821 0
M  V30 12635 N 1179.52 -1.32087 -0.859693 0
M  V30 12636 C 1180.47 -1.20601 -1.96784 0
M  V30 12637 C 1181.44 -0.089355 -1.65859 0
M  V30 12638 O 1182.63 -0.264022 -1.88964 0
M  V30 12639 C 1179.77 -0.929872 -3.32336 0
M  V30 12640 C 1178.88 -2.13084 -3.75791 0
M  V30 12641 C 1178.01 -1.79061 -5.00111 0
M  V30 12642 C 1177.05 -2.95507 -5.36043 0
M  V30 12643 N 1176.19 -2.61611 -6.5154 0
M  V30 12644 H 1181.03 -2.1539 -2.0594 0
M  V30 12645 H 1178.57 -1.07131 -1.00803 0
M  V30 12646 H 1180.52 -0.750285 -4.10398 0
M  V30 12647 H 1179.15 -0.0187929 -3.22795 0
M  V30 12648 H 1178.21 -2.42086 -2.93425 0
M  V30 12649 H 1179.52 -3.00205 -3.98344 0
M  V30 12650 H 1178.67 -1.57625 -5.85866 0
M  V30 12651 H 1177.41 -0.891459 -4.79483 0
M  V30 12652 H 1176.42 -3.17581 -4.48801 0
M  V30 12653 H 1177.64 -3.86147 -5.5863 0
M  V30 12654 H 1175.59 -1.74231 -6.32439 0
M  V30 12655 H 1175.5 -3.42262 -6.74087 0
M  V30 12656 H 1176.77 -2.43592 -7.40461 0
M  V30 12657 N 1181 1.07532 -1.15215 0
M  V30 12658 C 1181.96 2.1286 -0.84989 0
M  V30 12659 C 1182.96 1.60103 0.149524 0
M  V30 12660 O 1184.15 1.74017 -0.0798918 0
M  V30 12661 C 1181.29 3.3984 -0.268617 0
M  V30 12662 H 1182.48 2.41106 -1.78347 0
M  V30 12663 H 1180.03 1.23392 -0.959386 0
M  V30 12664 H 1180.77 3.17235 0.67325 0
M  V30 12665 H 1180.55 3.79433 -0.988592 0
M  V30 12666 H 1182.04 4.17533 -0.0746554 0
M  V30 12667 N 1182.48 0.948665 1.2585 0
M  V30 12668 C 1183.39 0.470525 2.29833 0
M  V30 12669 C 1184.41 -0.45919 1.67832 0
M  V30 12670 O 1185.58 -0.336893 1.98562 0
M  V30 12671 C 1182.65 -0.249635 3.458 0
M  V30 12672 C 1181.71 0.717559 4.23261 0
M  V30 12673 C 1180.94 0.0316724 5.33691 0
M  V30 12674 O 1181.16 -1.18384 5.5798 0
M  V30 12675 O 1180.1 0.71418 5.97648 0
M  V30 12676 H 1183.92 1.33447 2.72811 0
M  V30 12677 H 1181.51 0.714864 1.31187 0
M  V30 12678 H 1183.39 -0.654993 4.16279 0
M  V30 12679 H 1182.07 -1.08885 3.04837 0
M  V30 12680 H 1180.97 1.17301 3.55234 0
M  V30 12681 H 1182.31 1.52461 4.67992 0
M  V30 12682 N 1183.96 -1.40369 0.716545 0
M  V30 12683 C 1184.87 -2.34508 0.065658 0
M  V30 12684 C 1185.88 -1.57352 -0.742723 0
M  V30 12685 O 1187.06 -1.89735 -0.675456 0
M  V30 12686 C 1184.13 -3.36262 -0.844337 0
M  V30 12687 C 1183.19 -4.29292 -0.0257971 0
M  V30 12688 C 1182.42 -5.26185 -0.892452 0
M  V30 12689 O 1182.64 -5.29071 -2.13166 0
M  V30 12690 O 1181.58 -6.0099 -0.330933 0
M  V30 12691 H 1185.4 -2.91789 0.842184 0
M  V30 12692 H 1182.99 -1.41579 0.477034 0
M  V30 12693 H 1184.87 -3.98661 -1.36555 0
M  V30 12694 H 1183.54 -2.81393 -1.59999 0
M  V30 12695 H 1182.45 -3.70175 0.540512 0
M  V30 12696 H 1183.78 -4.87316 0.69166 0
M  V30 12697 N 1185.44 -0.462799 -1.50652 0
M  V30 12698 C 1186.35 0.341191 -2.32106 0
M  V30 12699 C 1187.36 1.00384 -1.42123 0
M  V30 12700 O 1188.54 0.993635 -1.75182 0
M  V30 12701 C 1185.6 1.41356 -3.16575 0
M  V30 12702 C 1184.66 0.768375 -4.22368 0
M  V30 12703 C 1183.9 1.78964 -5.028 0
M  V30 12704 O 1184.12 3.01515 -4.84195 0
M  V30 12705 O 1183.05 1.36606 -5.86193 0
M  V30 12706 H 1186.88 -0.324482 -3.01962 0
M  V30 12707 H 1184.47 -0.224807 -1.47699 0
M  V30 12708 H 1186.35 2.0349 -3.69012 0
M  V30 12709 H 1185.02 2.06285 -2.49456 0
M  V30 12710 H 1183.93 0.108297 -3.73943 0
M  V30 12711 H 1185.26 0.162164 -4.91933 0
M  V30 12712 N 1186.91 1.56388 -0.195085 0
M  V30 12713 C 1187.86 2.15705 0.738595 0
M  V30 12714 C 1188.85 1.09782 1.1763 0
M  V30 12715 O 1190.04 1.35844 1.1347 0
M  V30 12716 C 1187.17 2.81994 1.95791 0
M  V30 12717 C 1186.26 3.95108 1.54111 0
M  V30 12718 N 1186.65 4.98856 0.835261 0
M  V30 12719 C 1184.94 4.06709 1.8304 0
M  V30 12720 C 1185.65 5.78317 0.626417 0
M  V30 12721 N 1184.62 5.30746 1.17513 0
M  V30 12722 H 1188.42 2.93281 0.190597 0
M  V30 12723 H 1185.94 1.62399 0.00470391 0
M  V30 12724 H 1187.93 3.22883 2.63728 0
M  V30 12725 H 1186.59 2.05906 2.51063 0
M  V30 12726 H 1187.61 5.1557 0.490732 0
M  V30 12727 H 1184.28 3.41749 2.39821 0
M  V30 12728 H 1185.67 6.71867 0.0664935 0
M  V30 12729 N 1188.39 -0.0785156 1.57404 0
M  V30 12730 C 1189.32 -1.09446 2.06262 0
M  V30 12731 C 1190.3 -1.40777 0.954772 0
M  V30 12732 O 1191.49 -1.5052 1.22708 0
M  V30 12733 C 1188.62 -2.40979 2.50093 0
M  V30 12734 C 1187.57 -2.24017 3.64692 0
M  V30 12735 C 1186.9 -3.60873 3.94556 0
M  V30 12736 C 1188.2 -1.66696 4.94985 0
M  V30 12737 H 1189.89 -0.687928 2.9139 0
M  V30 12738 H 1187.44 -0.329466 1.4018 0
M  V30 12739 H 1189.39 -3.12337 2.82884 0
M  V30 12740 H 1188.12 -2.83599 1.61985 0
M  V30 12741 H 1186.77 -1.55101 3.32174 0
M  V30 12742 H 1186.42 -4.01051 3.0359 0
M  V30 12743 H 1186.12 -3.50365 4.71718 0
M  V30 12744 H 1187.65 -4.33673 4.29837 0
M  V30 12745 H 1189.06 -2.27913 5.2605 0
M  V30 12746 H 1187.46 -1.66902 5.76423 0
M  V30 12747 H 1188.53 -0.627827 4.80818 0
M  V30 12748 N 1189.87 -1.5367 -0.349747 0
M  V30 12749 C 1191.12 -1.70281 -1.08853 0
M  V30 12750 C 1191.44 -0.465438 -1.89364 0
M  V30 12751 O 1190.71 0.520615 -1.88856 0
M  V30 12752 H 1189.29 -0.627775 -0.404854 0
M  V30 12753 H 1191.95 -1.90906 -0.392523 0
M  V30 12754 H 1191.05 -2.57096 -1.76941 0
M  V30 12755 N 1191.35 0.610423 -1.45298 0
M  V30 12756 C 1192.6 1.36558 -1.48441 0
M  V30 12757 C 1192.91 1.95173 -0.129137 0
M  V30 12758 O 1194.12 2.71473 -0.0381956 0
M  V30 12759 C 1192.57 2.47349 -2.61431 0
M  V30 12760 C 1192.18 1.95158 -4.03258 0
M  V30 12761 C 1193.92 3.24383 -2.73817 0
M  V30 12762 C 1191.83 3.03414 -5.07635 0
M  V30 12763 H 1190.76 0.513253 -0.552347 0
M  V30 12764 H 1193.41 0.654535 -1.7143 0
M  V30 12765 H 1191.79 3.21125 -2.31721 0
M  V30 12766 H 1192.97 1.2811 -4.42634 0
M  V30 12767 H 1191.28 1.30878 -3.95297 0
M  V30 12768 H 1193.88 4.05123 -3.48969 0
M  V30 12769 H 1194.22 3.75205 -1.80352 0
M  V30 12770 H 1194.76 2.57705 -3.03039 0
M  V30 12771 H 1191.5 2.57512 -6.028 0
M  V30 12772 H 1191.02 3.69039 -4.72833 0
M  V30 12773 H 1192.69 3.67844 -5.32259 0
M  V30 12774 N 1192.83 1.32541 0.852676 0
M  V30 12775 C 1193.76 1.24254 1.97694 0
M  V30 12776 C 1194.74 0.125971 1.69633 0
M  V30 12777 O 1195.92 0.31347 1.91653 0
M  V30 12778 C 1193.05 0.966874 3.3357 0
M  V30 12779 C 1192.01 2.0449 3.75989 0
M  V30 12780 C 1191.33 1.6216 5.09518 0
M  V30 12781 C 1192.63 3.46013 3.91244 0
M  V30 12782 H 1194.33 2.18317 2.04886 0
M  V30 12783 H 1191.87 1.05101 0.984371 0
M  V30 12784 H 1193.83 0.895444 4.11776 0
M  V30 12785 H 1192.55 -0.0093893 3.26599 0
M  V30 12786 H 1191.21 2.10651 3.00036 0
M  V30 12787 H 1190.86 0.632729 4.99005 0
M  V30 12788 H 1190.56 2.3429 5.38871 0
M  V30 12789 H 1192.08 1.56457 5.90215 0
M  V30 12790 H 1193.49 3.4243 4.59799 0
M  V30 12791 H 1191.89 4.1651 4.32017 0
M  V30 12792 H 1192.96 3.8553 2.941 0
M  V30 12793 N 1194.3 -1.0692 1.15784 0
M  V30 12794 C 1195.55 -1.79245 0.933581 0
M  V30 12795 C 1195.87 -1.87362 -0.540427 0
M  V30 12796 O 1195.14 -1.37769 -1.39271 0
M  V30 12797 H 1193.72 -0.663898 0.342416 0
M  V30 12798 H 1196.39 -1.29189 1.45932 0
M  V30 12799 H 1195.48 -2.81546 1.34679 0
M  V30 12800 N 1195.78 -0.955326 -1.25345 0
M  V30 12801 C 1197.19 -0.651118 -1.74978 0
M  V30 12802 C 1197.54 0.833495 -1.77616 0
M  V30 12803 O 1196.67 1.65228 -1.39745 0
M  V30 12804 C 1197.26 -1.17521 -3.17764 0
M  V30 12805 C 1195.82 -0.921151 -3.64954 0
M  V30 12806 C 1194.97 -1.31784 -2.43984 0
M  V30 12807 H 1197.92 -1.13205 -1.11222 0
M  V30 12808 H 1197.94 -0.535625 -3.76711 0
M  V30 12809 H 1197.45 -2.25575 -3.15813 0
M  V30 12810 H 1195.56 0.144392 -3.7232 0
M  V30 12811 H 1195.67 -1.5581 -4.53056 0
M  V30 12812 H 1194.03 -0.736219 -2.43828 0
M  V30 12813 H 1194.82 -2.40761 -2.44723 0
M  V30 12814 N 1197.26 1.39987 -0.723979 0
M  V30 12815 C 1198.19 2.2917 -0.0373445 0
M  V30 12816 C 1199.21 1.46258 0.715015 0
M  V30 12817 O 1200.4 1.69455 0.561003 0
M  V30 12818 C 1197.5 3.2468 0.971384 0
M  V30 12819 C 1196.67 4.36485 0.282826 0
M  V30 12820 C 1195.73 5.12379 1.19811 0
M  V30 12821 O 1194.75 5.65127 0.67974 0
M  V30 12822 N 1195.96 5.22531 2.52866 0
M  V30 12823 H 1198.72 2.88738 -0.803131 0
M  V30 12824 H 1196.28 1.51448 -0.572292 0
M  V30 12825 H 1198.27 3.72326 1.58606 0
M  V30 12826 H 1196.84 2.6622 1.63846 0
M  V30 12827 H 1196.06 3.90859 -0.512167 0
M  V30 12828 H 1197.35 5.08427 -0.194793 0
M  V30 12829 H 1196.75 4.81174 2.97469 0
M  V30 12830 H 1195.31 5.73655 3.09457 0
M  V30 12831 N 1198.74 0.470782 1.50404 0
M  V30 12832 C 1199.67 -0.313458 2.31386 0
M  V30 12833 C 1200.65 -0.990623 1.38278 0
M  V30 12834 O 1201.84 -0.987854 1.67198 0
M  V30 12835 C 1198.97 -1.39599 3.18009 0
M  V30 12836 C 1197.92 -0.840443 4.19667 0
M  V30 12837 C 1197.25 -2.02124 4.95025 0
M  V30 12838 C 1198.55 0.148055 5.2209 0
M  V30 12839 H 1200.24 0.362432 2.97198 0
M  V30 12840 H 1197.79 0.175745 1.42924 0
M  V30 12841 H 1199.74 -1.9521 3.73458 0
M  V30 12842 H 1198.46 -2.10064 2.50081 0
M  V30 12843 H 1197.12 -0.306302 3.65318 0
M  V30 12844 H 1196.77 -2.71286 4.23571 0
M  V30 12845 H 1196.47 -1.65574 5.6379 0
M  V30 12846 H 1197.99 -2.58226 5.5331 0
M  V30 12847 H 1199.41 -0.318874 5.72413 0
M  V30 12848 H 1197.8 0.427811 5.98573 0
M  V30 12849 H 1198.87 1.07404 4.72855 0
M  V30 12850 N 1200.22 -1.56282 0.203376 0
M  V30 12851 C 1201.17 -2.16094 -0.727145 0
M  V30 12852 C 1202.15 -1.10404 -1.17046 0
M  V30 12853 O 1203.34 -1.36444 -1.12748 0
M  V30 12854 C 1200.47 -2.83029 -1.94293 0
M  V30 12855 C 1199.56 -3.9592 -1.52013 0
M  V30 12856 N 1199.95 -4.99292 -0.808794 0
M  V30 12857 C 1198.25 -4.07674 -1.80881 0
M  V30 12858 C 1198.95 -5.78641 -0.595738 0
M  V30 12859 N 1197.92 -5.31362 -1.14697 0
M  V30 12860 H 1201.73 -2.93378 -0.175041 0
M  V30 12861 H 1199.24 -1.624 0.00390859 0
M  V30 12862 H 1201.24 -3.24277 -2.62012 0
M  V30 12863 H 1199.9 -2.07235 -2.49968 0
M  V30 12864 H 1200.91 -5.15823 -0.463383 0
M  V30 12865 H 1197.59 -3.43016 -2.38005 0
M  V30 12866 H 1198.98 -6.71893 -0.0308618 0
M  V30 12867 N 1201.7 0.070167 -1.57444 0
M  V30 12868 C 1202.66 1.06761 -2.02817 0
M  V30 12869 C 1203.66 1.31498 -0.925462 0
M  V30 12870 O 1204.85 1.27192 -1.19029 0
M  V30 12871 C 1201.98 2.41086 -2.41019 0
M  V30 12872 H 1203.17 0.67651 -2.9217 0
M  V30 12873 H 1200.73 0.315936 -1.53074 0
M  V30 12874 H 1201.46 2.85025 -1.54697 0
M  V30 12875 H 1201.25 2.24472 -3.21488 0
M  V30 12876 H 1202.74 3.12778 -2.76694 0
M  V30 12877 N 1203.17 1.53854 0.341593 0
M  V30 12878 C 1204.45 1.61823 1.09875 0
M  V30 12879 C 1204.83 0.440711 2.06448 0
M  V30 12880 O 1204.18 -0.566833 2.21358 0
M  V30 12881 C 1204.39 2.9799 1.81668 0
M  V30 12882 C 1205.74 3.53411 2.35341 0
M  V30 12883 O 1206.76 3.00177 1.91761 0
M  V30 12884 O 1205.62 4.4653 3.15076 0
M  V30 12885 H 1202.71 0.654599 0.5054 0
M  V30 12886 H 1205.26 1.66199 0.342929 0
M  V30 12887 H 1204.03 3.7513 1.11323 0
M  V30 12888 H 1203.65 2.97213 2.64103 0
M  V30 12889 N 1204.65 -0.602709 1.4562 0
M  V30 12890 C 1205.9 -1.36359 1.50113 0
M  V30 12891 C 1206.23 -1.93663 0.144297 0
M  V30 12892 O 1205.51 -1.75337 -0.841851 0
M  V30 12893 C 1205.79 -2.50788 2.58413 0
M  V30 12894 C 1205.64 -1.98649 4.03557 0
M  V30 12895 C 1206.96 -3.52905 2.62957 0
M  V30 12896 H 1204.08 -0.494455 0.54652 0
M  V30 12897 H 1206.72 -0.678957 1.77455 0
M  V30 12898 H 1204.87 -3.09191 2.3523 0
M  V30 12899 H 1206.54 -1.44857 4.37966 0
M  V30 12900 H 1204.79 -1.29615 4.13984 0
M  V30 12901 H 1205.46 -2.81159 4.7503 0
M  V30 12902 H 1207.93 -3.0435 2.83743 0
M  V30 12903 H 1206.81 -4.30454 3.40589 0
M  V30 12904 H 1207.07 -4.0884 1.68233 0
M  V30 12905 N 1206.13 -1.32992 -0.845635 0
M  V30 12906 C 1207.38 -1.2382 -1.59728 0
M  V30 12907 C 1207.7 0.197724 -1.93995 0
M  V30 12908 O 1206.97 1.12477 -1.60392 0
M  V30 12909 H 1205.55 -0.455296 -0.592212 0
M  V30 12910 H 1208.21 -1.66627 -1.01101 0
M  V30 12911 H 1207.31 -1.82717 -2.53023 0
M  V30 12912 N 1207.61 1.06304 -1.1635 0
M  V30 12913 C 1208.88 1.75916 -0.855166 0
M  V30 12914 C 1209.26 2.0094 0.647024 0
M  V30 12915 O 1208.61 1.63642 1.59479 0
M  V30 12916 C 1208.82 3.06028 -1.67774 0
M  V30 12917 C 1210.17 3.80184 -1.89065 0
M  V30 12918 O 1211.19 3.15868 -1.64639 0
M  V30 12919 O 1210.05 4.95723 -2.30045 0
M  V30 12920 H 1207.15 0.764432 -0.315551 0
M  V30 12921 H 1209.69 1.12574 -1.26985 0
M  V30 12922 H 1208.47 2.83498 -2.69712 0
M  V30 12923 H 1208.09 3.77104 -1.26009 0
M  V30 12924 N 1209.09 0.96196 1.24836 0
M  V30 12925 C 1210.03 0.48686 2.25607 0
M  V30 12926 C 1211 -0.464546 1.59472 0
M  V30 12927 O 1212.19 -0.376179 1.87055 0
M  V30 12928 C 1209.33 -0.222294 3.44383 0
M  V30 12929 C 1208.44 0.767206 4.25133 0
M  V30 12930 C 1207.58 0.0347458 5.31189 0
M  V30 12931 C 1206.61 1.01469 6.03631 0
M  V30 12932 N 1205.75 0.312619 7.01404 0
M  V30 12933 H 1210.59 1.35104 2.65614 0
M  V30 12934 H 1208.13 0.677373 1.30576 0
M  V30 12935 H 1210.09 -0.650087 4.12104 0
M  V30 12936 H 1208.72 -1.05047 3.0523 0
M  V30 12937 H 1207.77 1.31346 3.57005 0
M  V30 12938 H 1209.08 1.5147 4.75245 0
M  V30 12939 H 1208.23 -0.451325 6.05019 0
M  V30 12940 H 1206.97 -0.745485 4.81969 0
M  V30 12941 H 1205.98 1.51169 5.28609 0
M  V30 12942 H 1207.2 1.79527 6.5494 0
M  V30 12943 H 1205.15 -0.44874 6.54463 0
M  V30 12944 H 1205.07 0.999079 7.49369 0
M  V30 12945 H 1206.33 -0.151673 7.79352 0
M  V30 12946 N 1210.56 -1.39601 0.731392 0
M  V30 12947 C 1211.81 -2.00883 0.278168 0
M  V30 12948 C 1212.14 -1.57897 -1.13059 0
M  V30 12949 O 1211.42 -0.806203 -1.77005 0
M  V30 12950 C 1211.7 -3.58132 0.375969 0
M  V30 12951 C 1211.55 -4.11147 1.82423 0
M  V30 12952 C 1212.87 -4.39425 -0.243702 0
M  V30 12953 H 1209.99 -0.729831 0.102549 0
M  V30 12954 H 1212.63 -1.65859 0.926869 0
M  V30 12955 H 1210.78 -3.881 -0.176329 0
M  V30 12956 H 1212.46 -3.91914 2.43313 0
M  V30 12957 H 1210.7 -3.64842 2.34675 0
M  V30 12958 H 1211.37 -5.20291 1.84396 0
M  V30 12959 H 1213.85 -4.1548 0.227067 0
M  V30 12960 H 1212.72 -5.48709 -0.144907 0
M  V30 12961 H 1212.98 -4.21642 -1.32929 0
M  V30 12962 N 1212.04 -0.478751 -1.50152 0
M  V30 12963 C 1212.99 0.311426 -2.28689 0
M  V30 12964 C 1213.96 0.980375 -1.34082 0
M  V30 12965 O 1215.14 0.991337 -1.63025 0
M  V30 12966 C 1212.28 1.38302 -3.16175 0
M  V30 12967 C 1211.4 0.728084 -4.2582 0
M  V30 12968 C 1210.53 1.77822 -5.00552 0
M  V30 12969 C 1209.57 1.10395 -6.02063 0
M  V30 12970 N 1208.71 2.09728 -6.70044 0
M  V30 12971 H 1213.55 -0.364592 -2.95761 0
M  V30 12972 H 1211.09 -0.191645 -1.45846 0
M  V30 12973 H 1213.04 2.01606 -3.65255 0
M  V30 12974 H 1211.67 2.0281 -2.51133 0
M  V30 12975 H 1210.73 -0.0177026 -3.80396 0
M  V30 12976 H 1212.04 0.196209 -4.98414 0
M  V30 12977 H 1211.19 2.48687 -5.53389 0
M  V30 12978 H 1209.93 2.34392 -4.27682 0
M  V30 12979 H 1208.94 0.38096 -5.48479 0
M  V30 12980 H 1210.16 0.545045 -6.76909 0
M  V30 12981 H 1208.11 2.65301 -5.9996 0
M  V30 12982 H 1208.02 1.61546 -7.38538 0
M  V30 12983 H 1209.29 2.7995 -7.27495 0
M  V30 12984 N 1213.52 1.56172 -0.211661 0
M  V30 12985 C 1214.77 1.97214 0.423008 0
M  V30 12986 C 1215.08 1.10203 1.616 0
M  V30 12987 O 1216.29 1.411 2.31955 0
M  V30 12988 C 1214.74 3.50805 0.803977 0
M  V30 12989 C 1214.35 4.46505 -0.365654 0
M  V30 12990 C 1216.1 4.00582 1.4048 0
M  V30 12991 C 1214 5.91388 0.0371986 0
M  V30 12992 H 1212.93 0.736432 0.161814 0
M  V30 12993 H 1215.58 1.80925 -0.306307 0
M  V30 12994 H 1213.97 3.62659 1.59043 0
M  V30 12995 H 1215.14 4.46394 -1.14321 0
M  V30 12996 H 1213.46 4.07015 -0.879061 0
M  V30 12997 H 1216.05 5.06317 1.71894 0
M  V30 12998 H 1216.4 3.45853 2.31713 0
M  V30 12999 H 1216.93 3.9191 0.681984 0
M  V30 13000 H 1213.67 6.50078 -0.841367 0
M  V30 13001 H 1213.19 5.94716 0.77927 0
M  V30 13002 H 1214.87 6.4531 0.467309 0
M  V30 13003 N 1215 -0.0618163 1.57479 0
M  V30 13004 C 1216.25 -0.75794 1.86918 0
M  V30 13005 C 1216.56 -1.78234 0.80572 0
M  V30 13006 O 1217.77 -2.52874 0.98827 0
M  V30 13007 C 1216.22 -1.39898 3.31597 0
M  V30 13008 C 1215.83 -0.412621 4.46096 0
M  V30 13009 C 1217.57 -2.07688 3.70224 0
M  V30 13010 C 1215.48 -1.06014 5.8182 0
M  V30 13011 H 1214.41 -0.286825 0.697314 0
M  V30 13012 H 1217.06 -0.0114386 1.83496 0
M  V30 13013 H 1215.44 -2.19408 3.29661 0
M  V30 13014 H 1216.62 0.353392 4.59443 0
M  V30 13015 H 1214.93 0.161383 4.16087 0
M  V30 13016 H 1217.53 -2.56928 4.68927 0
M  V30 13017 H 1217.87 -2.88073 3.00532 0
M  V30 13018 H 1218.41 -1.34996 3.74194 0
M  V30 13019 H 1215.15 -0.296405 6.5483 0
M  V30 13020 H 1214.67 -1.79677 5.72255 0
M  V30 13021 H 1216.34 -1.57708 6.27485 0
M  V30 13022 N 1216.48 -1.54033 -0.333429 0
M  V30 13023 C 1217.72 -1.71765 -1.07252 0
M  V30 13024 C 1218.05 -0.486135 -1.88327 0
M  V30 13025 O 1217.31 0.532135 -1.88326 0
M  V30 13026 C 1217.61 -2.93926 -2.03328 0
M  V30 13027 C 1217.27 -4.29107 -1.38486 0
M  V30 13028 C 1215.93 -4.6586 -1.20532 0
M  V30 13029 C 1218.29 -5.13041 -0.918624 0
M  V30 13030 C 1215.61 -5.84155 -0.545881 0
M  V30 13031 C 1217.97 -6.3201 -0.273055 0
M  V30 13032 C 1216.63 -6.67451 -0.0812815 0
M  V30 13033 H 1215.9 -0.628532 -0.392464 0
M  V30 13034 H 1218.55 -1.88261 -0.350709 0
M  V30 13035 H 1216.85 -2.72075 -2.81926 0
M  V30 13036 H 1218.55 -3.0484 -2.60526 0
M  V30 13037 H 1215.14 -4.00185 -1.5346 0
M  V30 13038 H 1219.32 -4.8517 -1.04515 0
M  V30 13039 H 1214.58 -6.1018 -0.386009 0
M  V30 13040 H 1218.75 -6.96333 0.0962582 0
M  V30 13041 H 1216.38 -7.58973 0.431734 0
M  V30 13042 N 1217.95 0.594978 -1.45938 0
M  V30 13043 C 1218.9 1.70489 -1.5557 0
M  V30 13044 C 1219.87 1.61193 -0.400751 0
M  V30 13045 O 1221.06 1.80587 -0.615882 0
M  V30 13046 C 1218.2 3.08817 -1.54033 0
M  V30 13047 C 1217.31 3.28827 -2.80173 0
M  V30 13048 C 1216.44 4.57333 -2.70222 0
M  V30 13049 C 1215.48 4.70644 -3.91357 0
M  V30 13050 N 1214.62 5.90463 -3.79865 0
M  V30 13051 H 1219.46 1.61593 -2.50383 0
M  V30 13052 H 1217 0.787747 -1.24229 0
M  V30 13053 H 1218.96 3.88865 -1.51129 0
M  V30 13054 H 1217.59 3.1664 -0.627617 0
M  V30 13055 H 1216.64 2.42467 -2.9311 0
M  V30 13056 H 1217.95 3.34534 -3.69985 0
M  V30 13057 H 1217.1 5.45593 -2.65354 0
M  V30 13058 H 1215.84 4.54045 -1.7803 0
M  V30 13059 H 1214.85 3.80805 -3.9657 0
M  V30 13060 H 1216.07 4.75721 -4.8463 0
M  V30 13061 H 1214.02 5.88196 -2.90451 0
M  V30 13062 H 1213.94 5.97385 -4.63322 0
M  V30 13063 H 1215.2 6.81187 -3.78952 0
M  V30 13064 N 1219.43 1.33438 0.838571 0
M  V30 13065 C 1220.38 1.23698 1.96981 0
M  V30 13066 C 1221.37 0.138299 1.68835 0
M  V30 13067 O 1222.58 0.302278 1.77444 0
M  V30 13068 H 1218.96 0.383874 0.646641 0
M  V30 13069 H 1220.93 2.19337 2.02321 0
M  V30 13070 C 1219.68 0.993362 3.33208 0
M  V30 13071 H 1219 1.83104 3.55405 0
M  V30 13072 H 1220.44 0.965517 4.1286 0
M  V30 13073 C 1218.9 -0.303701 3.35528 0
M  V30 13074 O 1219.43 -1.3103 3.79729 0
M  V30 13075 N 1217.63 -0.331342 2.88705 0
M  V30 13076 H 1217.18 0.488351 2.52929 0
M  V30 13077 H 1217.14 -1.199 2.9064 0
M  V30 13078 N 1220.91 -1.05686 1.16912 0
M  V30 13079 C 1221.84 -2.12775 0.824755 0
M  V30 13080 C 1222.82 -1.61286 -0.206289 0
M  V30 13081 O 1224.01 -1.8829 -0.0889616 0
M  V30 13082 C 1221.13 -3.37922 0.229422 0
M  V30 13083 C 1220.18 -4.08226 1.23506 0
M  V30 13084 S 1221.01 -4.57424 2.78431 0
M  V30 13085 C 1222.17 -5.85825 2.20364 0
M  V30 13086 H 1222.4 -2.41657 1.73174 0
M  V30 13087 H 1219.93 -1.18212 0.99324 0
M  V30 13088 H 1221.89 -4.10359 -0.107588 0
M  V30 13089 H 1220.55 -3.07186 -0.655424 0
M  V30 13090 H 1219.75 -4.98129 0.767059 0
M  V30 13091 H 1219.35 -3.41832 1.51747 0
M  V30 13092 H 1221.64 -6.58912 1.57611 0
M  V30 13093 H 1222.58 -6.37364 3.08501 0
M  V30 13094 H 1222.99 -5.4015 1.64008 0
M  V30 13095 N 1222.39 -0.968567 -1.24324 0
M  V30 13096 C 1223.35 -0.504307 -2.23583 0
M  V30 13097 C 1224.35 0.399626 -1.55755 0
M  V30 13098 O 1225.54 0.194966 -1.73106 0
M  V30 13099 C 1222.67 0.26956 -3.39833 0
M  V30 13100 H 1223.87 -1.3818 -2.6617 0
M  V30 13101 H 1221.42 -0.753241 -1.36952 0
M  V30 13102 H 1222.15 1.16411 -3.02686 0
M  V30 13103 H 1221.94 -0.379133 -3.90263 0
M  V30 13104 H 1223.43 0.583376 -4.13505 0
M  V30 13105 N 1223.87 1.39211 -0.738786 0
M  V30 13106 C 1225.09 2.04732 -0.298751 0
M  V30 13107 C 1225.51 1.55706 1.06776 0
M  V30 13108 O 1224.87 0.723605 1.67542 0
M  V30 13109 C 1224.92 3.60288 -0.29574 0
M  V30 13110 O 1224.64 4.07511 -1.60831 0
M  V30 13111 C 1226.14 4.43011 0.159994 0
M  V30 13112 H 1223.36 0.658296 -0.129952 0
M  V30 13113 H 1225.9 1.78186 -1.0035 0
M  V30 13114 H 1224.06 3.85722 0.360146 0
M  V30 13115 H 1224.47 5.01858 -1.52443 0
M  V30 13116 H 1225.95 5.51889 0.110941 0
M  V30 13117 H 1226.42 4.22325 1.20573 0
M  V30 13118 H 1227.03 4.22734 -0.466467 0
M  V30 13119 N 1225.34 0.486708 1.49896 0
M  V30 13120 C 1226.76 0.141788 1.58969 0
M  V30 13121 C 1226.96 -1.35279 1.49338 0
M  V30 13122 O 1226.02 -2.1275 1.35992 0
M  V30 13123 C 1227.33 0.70588 2.92297 0
M  V30 13124 C 1228.88 0.670704 3.0573 0
M  V30 13125 C 1229.35 1.21261 4.41656 0
M  V30 13126 N 1230.84 1.17269 4.4811 0
M  V30 13127 C 1231.58 1.56233 5.51705 0
M  V30 13128 N 1231.07 2.02721 6.62477 0
M  V30 13129 N 1232.87 1.47738 5.42337 0
M  V30 13130 H 1225.02 1.45858 1.544 0
M  V30 13131 H 1227.28 0.604137 0.730563 0
M  V30 13132 H 1226.99 1.7535 3.04869 0
M  V30 13133 H 1226.86 0.158215 3.76868 0
M  V30 13134 H 1229.25 -0.368041 2.92796 0
M  V30 13135 H 1229.33 1.25535 2.22878 0
M  V30 13136 H 1228.97 2.25006 4.5534 0
M  V30 13137 H 1228.9 0.604031 5.23124 0
M  V30 13138 H 1231.39 0.831905 3.6863 0
M  V30 13139 H 1231.71 2.3056 7.37606 0
M  V30 13140 H 1230.05 2.06686 6.63556 0
M  V30 13141 H 1233.24 1.11249 4.54688 0
M  V30 13142 H 1233.42 1.78429 6.2295 0
M  V30 13143 N 1226.82 -1.56058 0.219941 0
M  V30 13144 C 1228.23 -1.84462 -0.288203 0
M  V30 13145 C 1228.59 -1.14128 -1.59591 0
M  V30 13146 O 1227.71 -0.410411 -2.12473 0
M  V30 13147 C 1228.31 -3.34634 -0.529689 0
M  V30 13148 C 1226.86 -3.63361 -0.982145 0
M  V30 13149 C 1226.01 -2.77265 -0.0443292 0
M  V30 13150 H 1228.96 -1.52387 0.44317 0
M  V30 13151 H 1228.98 -3.54752 -1.3759 0
M  V30 13152 H 1228.5 -3.85796 0.422243 0
M  V30 13153 H 1226.6 -3.17653 -1.94749 0
M  V30 13154 H 1226.71 -4.71361 -0.857668 0
M  V30 13155 H 1225.07 -2.48672 -0.550825 0
M  V30 13156 H 1225.86 -3.31225 0.902491 0
M  V30 13157 N 1228.3 0.053464 -1.57509 0
M  V30 13158 C 1229.53 0.760429 -1.92096 0
M  V30 13159 C 1229.94 1.70703 -0.815905 0
M  V30 13160 O 1229.28 1.82398 0.218332 0
M  V30 13161 C 1229.34 1.59255 -3.22301 0
M  V30 13162 C 1229.01 0.813355 -4.49704 0
M  V30 13163 C 1230.01 0.124402 -5.19751 0
M  V30 13164 C 1227.69 0.775106 -4.96284 0
M  V30 13165 C 1229.68 -0.59237 -6.34641 0
M  V30 13166 C 1227.37 0.0545728 -6.11076 0
M  V30 13167 C 1228.37 -0.627948 -6.80107 0
M  V30 13168 O 1228.06 -1.33683 -7.92707 0
M  V30 13169 H 1227.79 0.220287 -0.639101 0
M  V30 13170 H 1230.34 0.0224505 -2.05388 0
M  V30 13171 H 1228.57 2.37376 -3.05269 0
M  V30 13172 H 1230.26 2.17987 -3.42398 0
M  V30 13173 H 1231.03 0.145141 -4.84783 0
M  V30 13174 H 1226.91 1.29583 -4.42413 0
M  V30 13175 H 1230.45 -1.12565 -6.88458 0
M  V30 13176 H 1226.35 0.0318254 -6.45492 0
M  V30 13177 H 1227.12 -1.24799 -8.0893 0
M  V30 13178 N 1229.78 1.54207 0.325255 0
M  V30 13179 C 1231 1.7661 1.08736 0
M  V30 13180 C 1231.43 0.512449 1.80985 0
M  V30 13181 O 1230.79 -0.535913 1.73198 0
M  V30 13182 C 1230.84 2.95797 2.06243 0
M  V30 13183 O 1229.94 2.67225 3.14109 0
M  V30 13184 H 1229.28 0.585282 0.313593 0
M  V30 13185 H 1231.81 2.01225 0.370066 0
M  V30 13186 H 1231.82 3.23097 2.49143 0
M  V30 13187 H 1230.5 3.86712 1.53058 0
M  V30 13188 H 1229.07 2.50869 2.75897 0
M  V30 13189 N 1231.26 -0.58723 1.46251 0
M  V30 13190 C 1232.51 -1.34179 1.50595 0
M  V30 13191 C 1232.82 -1.94943 0.160171 0
M  V30 13192 O 1234.03 -2.71378 0.0813797 0
M  V30 13193 C 1232.48 -2.43159 2.65333 0
M  V30 13194 C 1232.09 -1.88718 4.06312 0
M  V30 13195 C 1233.83 -3.19986 2.78943 0
M  V30 13196 C 1231.74 -2.953 5.12398 0
M  V30 13197 H 1230.67 -0.504401 0.560442 0
M  V30 13198 H 1233.32 -0.627179 1.72449 0
M  V30 13199 H 1231.7 -3.17398 2.368 0
M  V30 13200 H 1232.88 -1.21051 4.44616 0
M  V30 13201 H 1231.19 -1.24572 3.97329 0
M  V30 13202 H 1233.79 -3.9952 3.5537 0
M  V30 13203 H 1234.13 -3.72288 1.86298 0
M  V30 13204 H 1234.67 -2.52852 3.07101 0
M  V30 13205 H 1231.4 -2.4789 6.0682 0
M  V30 13206 H 1230.92 -3.61469 4.78644 0
M  V30 13207 H 1232.6 -3.5933 5.38044 0
M  V30 13208 N 1232.74 -1.33881 -0.831482 0
M  V30 13209 C 1233.69 -1.2131 -1.93049 0
M  V30 13210 C 1234.67 -0.114199 -1.60494 0
M  V30 13211 O 1235.86 -0.343027 -1.73644 0
M  V30 13212 C 1232.99 -0.962034 -3.29545 0
M  V30 13213 C 1232.08 -2.10372 -3.68245 0
M  V30 13214 N 1232.47 -3.35427 -3.78579 0
M  V30 13215 C 1230.77 -2.01206 -3.98036 0
M  V30 13216 C 1231.47 -4.10351 -4.12295 0
M  V30 13217 N 1230.44 -3.3886 -4.25059 0
M  V30 13218 H 1234.24 -2.1609 -1.99204 0
M  V30 13219 H 1231.76 -1.25995 -1.02464 0
M  V30 13220 H 1233.76 -0.852895 -4.08082 0
M  V30 13221 H 1232.42 -0.0228423 -3.24692 0
M  V30 13222 H 1233.43 -3.70085 -3.62295 0
M  V30 13223 H 1230.1 -1.14991 -4.01352 0
M  V30 13224 H 1231.49 -5.18302 -4.27566 0
M  V30 13225 N 1234.21 1.05064 -1.1747 0
M  V30 13226 C 1235.18 2.1101 -0.89485 0
M  V30 13227 C 1236.18 1.60384 0.11553 0
M  V30 13228 O 1237.37 1.73808 -0.116785 0
M  V30 13229 C 1234.5 3.39194 -0.340642 0
M  V30 13230 H 1235.69 2.37269 -1.83421 0
M  V30 13231 H 1233.24 1.21329 -0.985343 0
M  V30 13232 H 1233.98 3.18591 0.605808 0
M  V30 13233 H 1233.76 3.77251 -1.06885 0
M  V30 13234 H 1235.25 4.17281 -0.163204 0
M  V30 13235 N 1235.69 0.975146 1.23809 0
M  V30 13236 C 1236.64 0.482305 2.2284 0
M  V30 13237 C 1237.63 -0.439787 1.54773 0
M  V30 13238 O 1238.82 -0.269496 1.74936 0
M  V30 13239 C 1235.95 -0.219056 3.426 0
M  V30 13240 C 1235.03 0.722299 4.17904 0
M  V30 13241 N 1235.42 1.86271 4.70252 0
M  V30 13242 C 1233.72 0.53457 4.42785 0
M  V30 13243 C 1234.42 2.45212 5.2749 0
M  V30 13244 N 1233.4 1.73652 5.15117 0
M  V30 13245 H 1237.2 1.35234 2.60939 0
M  V30 13246 H 1234.71 0.835162 1.3928 0
M  V30 13247 H 1236.71 -0.589401 4.12713 0
M  V30 13248 H 1235.37 -1.08544 3.0602 0
M  V30 13249 H 1236.38 2.24404 4.66758 0
M  V30 13250 H 1233.06 -0.287232 4.16511 0
M  V30 13251 H 1234.45 3.41491 5.78648 0
M  V30 13252 N 1237.17 -1.38817 0.746158 0
M  V30 13253 C 1238.42 -1.99885 0.298425 0
M  V30 13254 C 1238.74 -1.59518 -1.12156 0
M  V30 13255 O 1238.01 -0.848568 -1.76568 0
M  V30 13256 H 1236.59 -0.739247 0.107347 0
M  V30 13257 H 1239.25 -1.69696 0.9586 0
M  V30 13258 H 1238.35 -3.10067 0.355656 0
M  V30 13259 N 1238.65 -0.49465 -1.49636 0
M  V30 13260 C 1239.89 0.0521945 -2.02733 0
M  V30 13261 C 1240.23 1.3723 -1.37411 0
M  V30 13262 O 1239.5 1.87758 -0.507642 0
M  V30 13263 C 1239.78 0.2114 -3.59479 0
M  V30 13264 C 1239.64 -1.13138 -4.35339 0
M  V30 13265 C 1240.96 0.955015 -4.29613 0
M  V30 13266 H 1238.08 0.0174946 -0.736792 0
M  V30 13267 H 1240.72 -0.644827 -1.78723 0
M  V30 13268 H 1238.87 0.805078 -3.80067 0
M  V30 13269 H 1240.54 -1.76345 -4.26263 0
M  V30 13270 H 1238.78 -1.72224 -3.98147 0
M  V30 13271 H 1239.45 -0.97336 -5.4335 0
M  V30 13272 H 1241.93 0.451575 -4.13642 0
M  V30 13273 H 1240.81 1.03524 -5.39049 0
M  V30 13274 H 1241.07 1.99724 -3.94414 0
M  V30 13275 N 1240.13 1.55939 -0.228214 0
M  V30 13276 C 1241.06 2.17874 0.711589 0
M  V30 13277 C 1242.07 1.14969 1.15265 0
M  V30 13278 O 1243.26 1.41919 1.08265 0
M  V30 13279 C 1240.36 2.75294 1.97652 0
M  V30 13280 C 1239.53 4.03435 1.68994 0
M  V30 13281 C 1238.59 4.45354 2.8026 0
M  V30 13282 O 1237.62 5.12117 2.48445 0
M  V30 13283 N 1238.82 4.11588 4.0936 0
M  V30 13284 H 1241.58 2.99148 0.181757 0
M  V30 13285 H 1239.15 1.6183 -0.0474567 0
M  V30 13286 H 1241.14 3.00305 2.71292 0
M  V30 13287 H 1239.71 1.98285 2.41665 0
M  V30 13288 H 1238.93 3.8621 0.789657 0
M  V30 13289 H 1240.22 4.87015 1.47287 0
M  V30 13290 H 1239.61 3.57953 4.38048 0
M  V30 13291 H 1238.17 4.41477 4.79522 0
M  V30 13292 N 1241.6 -0.0451101 1.57535 0
M  V30 13293 C 1242.83 -0.75132 1.92777 0
M  V30 13294 C 1243.25 -1.69743 0.826599 0
M  V30 13295 O 1242.6 -1.8142 -0.198224 0
M  V30 13296 C 1242.66 -1.52218 3.2789 0
M  V30 13297 O 1242.38 -0.614059 4.33775 0
M  V30 13298 C 1243.88 -2.32699 3.77314 0
M  V30 13299 H 1241.1 -0.21211 0.636593 0
M  V30 13300 H 1243.64 -0.0074174 2.04499 0
M  V30 13301 H 1241.8 -2.2181 3.17614 0
M  V30 13302 H 1242.21 -1.15294 5.11671 0
M  V30 13303 H 1243.68 -2.82205 4.7441 0
M  V30 13304 H 1244.16 -3.13414 3.07682 0
M  V30 13305 H 1244.77 -1.68212 3.90621 0
M  V30 13306 N 1243.08 -1.54377 -0.317073 0
M  V30 13307 C 1243.99 -1.87247 -1.41335 0
M  V30 13308 C 1245.01 -0.765017 -1.5628 0
M  V30 13309 O 1246.18 -1.05994 -1.71252 0
M  V30 13310 C 1243.25 -2.0988 -2.75955 0
M  V30 13311 C 1242.31 -3.33658 -2.70131 0
M  V30 13312 C 1241.54 -3.55202 -3.9833 0
M  V30 13313 O 1241.77 -2.80061 -4.96913 0
M  V30 13314 O 1240.7 -4.48693 -4.01196 0
M  V30 13315 H 1244.53 -2.80481 -1.16465 0
M  V30 13316 H 1242.11 -1.40364 -0.511687 0
M  V30 13317 H 1243.99 -2.2606 -3.55633 0
M  V30 13318 H 1242.67 -1.19834 -3.00702 0
M  V30 13319 H 1241.58 -3.22857 -1.88981 0
M  V30 13320 H 1242.91 -4.23782 -2.50338 0
M  V30 13321 N 1244.56 0.579466 -1.4656 0
M  V30 13322 C 1245.79 1.36837 -1.55854 0
M  V30 13323 C 1246.21 1.87019 -0.20141 0
M  V30 13324 O 1245.57 1.61746 0.81901 0
M  V30 13325 C 1245.62 2.52965 -2.56985 0
M  V30 13326 O 1244.72 3.54505 -2.10713 0
M  V30 13327 H 1244.06 0.407379 -0.524345 0
M  V30 13328 H 1246.59 0.702558 -1.9216 0
M  V30 13329 H 1246.6 2.99838 -2.76697 0
M  V30 13330 H 1245.28 2.15793 -3.55536 0
M  V30 13331 H 1243.85 3.14089 -2.01003 0
M  V30 13332 N 1246.04 1.3432 0.824371 0
M  V30 13333 C 1247.26 1.2982 1.61745 0
M  V30 13334 C 1247.69 -0.125298 1.87682 0
M  V30 13335 O 1247.05 -1.08658 1.45131 0
M  V30 13336 C 1247.09 2.09327 2.93623 0
M  V30 13337 O 1246.2 1.4618 3.85623 0
M  V30 13338 H 1245.54 0.445929 0.491979 0
M  V30 13339 H 1248.07 1.77101 1.02452 0
M  V30 13340 H 1248.08 2.20629 3.43201 0
M  V30 13341 H 1246.75 3.12825 2.74069 0
M  V30 13342 H 1245.33 1.43611 3.44137 0
M  V30 13343 N 1247.52 -1.0444 1.18026 0
M  V30 13344 C 1248.74 -1.81234 0.998089 0
M  V30 13345 C 1249.16 -1.83271 -0.453559 0
M  V30 13346 O 1248.52 -1.26545 -1.31502 0
M  V30 13347 C 1248.57 -3.27007 1.54106 0
M  V30 13348 O 1248.29 -3.25174 2.93587 0
M  V30 13349 C 1249.79 -4.20461 1.40455 0
M  V30 13350 H 1247.01 -0.57085 0.352663 0
M  V30 13351 H 1249.55 -1.31649 1.56489 0
M  V30 13352 H 1247.71 -3.73837 1.01611 0
M  V30 13353 H 1248.12 -4.16466 3.18836 0
M  V30 13354 H 1249.6 -5.20695 1.83249 0
M  V30 13355 H 1250.07 -4.37781 0.352713 0
M  V30 13356 H 1250.68 -3.79493 1.92004 0
M  V30 13357 N 1248.99 -0.981699 -1.2329 0
M  V30 13358 C 1250.24 -0.652266 -1.92024 0
M  V30 13359 C 1250.57 0.812297 -1.76396 0
M  V30 13360 O 1249.85 1.5861 -1.12575 0
M  V30 13361 C 1250.13 -1.04506 -3.44602 0
M  V30 13362 C 1249.98 -2.56735 -3.69333 0
M  V30 13363 C 1251.3 -0.589937 -4.36128 0
M  V30 13364 H 1248.42 -0.238437 -0.697364 0
M  V30 13365 H 1251.06 -1.22322 -1.45387 0
M  V30 13366 H 1249.21 -0.559242 -3.84454 0
M  V30 13367 H 1250.89 -3.12901 -3.38955 0
M  V30 13368 H 1249.13 -2.9931 -3.14 0
M  V30 13369 H 1249.8 -2.79269 -4.76144 0
M  V30 13370 H 1252.28 -1.00706 -4.0373 0
M  V30 13371 H 1251.15 -0.893192 -5.41584 0
M  V30 13372 H 1251.41 0.509707 -4.39152 0
M  V30 13373 N 1250.47 1.3842 -0.753509 0
M  V30 13374 C 1251.7 2.04403 -0.320449 0
M  V30 13375 C 1252.12 1.5683 1.05118 0
M  V30 13376 O 1251.47 0.741335 1.66765 0
M  V30 13377 C 1251.52 3.59954 -0.333937 0
M  V30 13378 O 1251.24 4.05782 -1.65144 0
M  V30 13379 C 1252.75 4.43156 0.112997 0
M  V30 13380 H 1249.97 0.656881 -0.136927 0
M  V30 13381 H 1252.51 1.77112 -1.02234 0
M  V30 13382 H 1250.66 3.86083 0.319215 0
M  V30 13383 H 1251.08 5.00213 -1.57757 0
M  V30 13384 H 1252.55 5.51975 0.0523995 0
M  V30 13385 H 1253.03 4.23581 1.16087 0
M  V30 13386 H 1253.64 4.22216 -0.511278 0
M  V30 13387 N 1251.95 0.502579 1.49372 0
M  V30 13388 C 1253.36 0.055187 1.86618 0
M  V30 13389 C 1253.71 -1.35938 1.41476 0
M  V30 13390 O 1252.84 -2.01333 0.793338 0
M  V30 13391 C 1253.43 0.0933734 3.38671 0
M  V30 13392 C 1251.99 -0.298685 3.75213 0
M  V30 13393 C 1251.14 0.465216 2.7337 0
M  V30 13394 H 1254.09 0.715281 1.41667 0
M  V30 13395 H 1254.11 -0.701549 3.73977 0
M  V30 13396 H 1253.62 1.12303 3.71497 0
M  V30 13397 H 1251.72 -1.33151 3.47996 0
M  V30 13398 H 1251.84 0.0218637 4.79095 0
M  V30 13399 H 1250.2 -0.0851469 2.54558 0
M  V30 13400 H 1250.98 1.49498 3.09039 0
M  V30 13401 N 1253.43 -1.55816 0.23648 0
M  V30 13402 C 1254.66 -2.03083 -0.395584 0
M  V30 13403 C 1255.07 -1.11599 -1.52286 0
M  V30 13404 O 1254.43 -0.128403 -1.82048 0
M  V30 13405 C 1254.48 -3.49776 -0.913197 0
M  V30 13406 O 1254.2 -4.37773 0.169151 0
M  V30 13407 C 1255.7 -4.12756 -1.617 0
M  V30 13408 H 1252.92 -0.66421 -0.0952146 0
M  V30 13409 H 1255.47 -2.01354 0.357299 0
M  V30 13410 H 1253.62 -3.52072 -1.6163 0
M  V30 13411 H 1254.03 -5.24029 -0.222217 0
M  V30 13412 H 1255.51 -5.17123 -1.93101 0
M  V30 13413 H 1255.99 -3.58631 -2.53537 0
M  V30 13414 H 1256.59 -4.14353 -0.958736 0
M  V30 13415 N 1254.91 0.036755 -1.57557 0
M  V30 13416 C 1255.84 1.03939 -2.09091 0
M  V30 13417 C 1256.82 1.38196 -0.991761 0
M  V30 13418 O 1258 1.47214 -1.26656 0
M  V30 13419 C 1255.13 2.34263 -2.56394 0
M  V30 13420 C 1254.09 2.14269 -3.70504 0
M  V30 13421 C 1253.41 3.50286 -4.03985 0
M  V30 13422 C 1254.71 1.53514 -4.9923 0
M  V30 13423 H 1256.41 0.610429 -2.93111 0
M  V30 13424 H 1253.95 0.292183 -1.41005 0
M  V30 13425 H 1255.91 3.04727 -2.91066 0
M  V30 13426 H 1254.63 2.79205 -1.69447 0
M  V30 13427 H 1253.29 1.46239 -3.36169 0
M  V30 13428 H 1252.94 3.92861 -3.14116 0
M  V30 13429 H 1252.64 3.37735 -4.80842 0
M  V30 13430 H 1254.16 4.22124 -4.41184 0
M  V30 13431 H 1255.57 2.13885 -5.31908 0
M  V30 13432 H 1253.97 1.51561 -5.80646 0
M  V30 13433 H 1255.04 0.500126 -4.82314 0
M  V30 13434 N 1256.39 1.54543 0.308881 0
M  V30 13435 C 1257.8 1.64532 0.882392 0
M  V30 13436 C 1258.15 0.54886 1.88367 0
M  V30 13437 O 1257.27 -0.315832 2.14083 0
M  V30 13438 C 1257.87 2.98251 1.60722 0
M  V30 13439 C 1256.43 3.10387 2.12925 0
M  V30 13440 C 1255.57 2.60176 0.959362 0
M  V30 13441 H 1258.52 1.58466 0.0860803 0
M  V30 13442 H 1258.55 2.89233 2.47233 0
M  V30 13443 H 1258.06 3.78033 0.878233 0
M  V30 13444 H 1256.16 2.35309 2.88895 0
M  V30 13445 H 1256.27 4.16421 2.36918 0
M  V30 13446 H 1254.64 2.16434 1.3427 0
M  V30 13447 H 1255.42 3.42429 0.244454 0
M  V30 13448 N 1257.86 -0.571685 1.46866 0
M  V30 13449 C 1259.11 -1.32685 1.52444 0
M  V30 13450 C 1259.43 -1.94147 0.182225 0
M  V30 13451 O 1258.7 -1.79159 -0.792385 0
M  V30 13452 H 1257.28 -0.492679 0.561495 0
M  V30 13453 H 1259.94 -0.668694 1.8307 0
M  V30 13454 H 1259.04 -2.12788 2.28315 0
M  V30 13455 N 1259.34 -1.34755 -0.817236 0
M  V30 13456 C 1260.25 -1.28888 -1.96023 0
M  V30 13457 C 1261.27 -0.195582 -1.72897 0
M  V30 13458 O 1262.44 -0.423071 -1.96906 0
M  V30 13459 C 1259.51 -1.04985 -3.30423 0
M  V30 13460 C 1258.57 -2.23526 -3.66517 0
M  V30 13461 C 1257.8 -2.00753 -4.94504 0
M  V30 13462 O 1258.03 -0.968622 -5.62116 0
M  V30 13463 O 1256.96 -2.87848 -5.28608 0
M  V30 13464 H 1260.79 -2.25059 -2.03917 0
M  V30 13465 H 1258.37 -1.15019 -0.953467 0
M  V30 13466 H 1260.25 -0.934589 -4.10906 0
M  V30 13467 H 1258.93 -0.118582 -3.23483 0
M  V30 13468 H 1257.83 -2.40613 -2.86455 0
M  V30 13469 H 1259.17 -3.15062 -3.78149 0
M  V30 13470 N 1260.82 1.03812 -1.18578 0
M  V30 13471 C 1262.05 1.80702 -1.00769 0
M  V30 13472 C 1262.46 1.83509 0.443833 0
M  V30 13473 O 1261.82 1.2724 1.30829 0
M  V30 13474 C 1261.87 3.26185 -1.55838 0
M  V30 13475 O 1261.59 3.23612 -2.95308 0
M  V30 13476 C 1263.09 4.1971 -1.42682 0
M  V30 13477 H 1260.31 0.568972 -0.355685 0
M  V30 13478 H 1262.86 1.30817 -1.57185 0
M  V30 13479 H 1261.01 3.73293 -1.03592 0
M  V30 13480 H 1261.43 4.14769 -3.2104 0
M  V30 13481 H 1262.9 5.19716 -1.86008 0
M  V30 13482 H 1263.38 4.37588 -0.375924 0
M  V30 13483 H 1263.98 3.78469 -1.94013 0
M  V30 13484 N 1262.3 0.988223 1.22768 0
M  V30 13485 C 1263.23 0.554478 2.26821 0
M  V30 13486 C 1264.21 -0.416293 1.64927 0
M  V30 13487 O 1265.39 -0.30795 1.91743 0
M  V30 13488 C 1262.52 -0.136266 3.47033 0
M  V30 13489 C 1261.48 0.752575 4.21332 0
M  V30 13490 C 1260.8 -0.0708236 5.34653 0
M  V30 13491 C 1262.1 2.04717 4.80508 0
M  V30 13492 H 1263.8 1.42423 2.63355 0
M  V30 13493 H 1261.34 0.686267 1.26595 0
M  V30 13494 H 1263.3 -0.451068 4.18979 0
M  V30 13495 H 1262.02 -1.04053 3.09581 0
M  V30 13496 H 1260.68 1.05095 3.51213 0
M  V30 13497 H 1260.33 -0.975859 4.93443 0
M  V30 13498 H 1260.03 0.520835 5.85287 0
M  V30 13499 H 1261.55 -0.379828 6.09417 0
M  V30 13500 H 1262.97 1.79663 5.44421 0
M  V30 13501 H 1261.36 2.58726 5.41462 0
M  V30 13502 H 1262.43 2.72896 4.00819 0
M  V30 13503 N 1263.78 -1.38018 0.760839 0
M  V30 13504 C 1265 -2.04231 0.331285 0
M  V30 13505 C 1265.42 -1.57385 -1.04285 0
M  V30 13506 O 1264.78 -0.750168 -1.66369 0
M  V30 13507 C 1264.83 -3.59772 0.353021 0
M  V30 13508 O 1264.55 -4.049 1.67294 0
M  V30 13509 C 1266.05 -4.4321 -0.0894942 0
M  V30 13510 H 1263.27 -0.656145 0.140408 0
M  V30 13511 H 1265.81 -1.76567 1.03172 0
M  V30 13512 H 1263.97 -3.86246 -0.298735 0
M  V30 13513 H 1264.38 -4.99369 1.60408 0
M  V30 13514 H 1265.86 -5.51995 -0.0231262 0
M  V30 13515 H 1266.33 -4.2419 -1.13839 0
M  V30 13516 H 1266.94 -4.21939 0.533661 0
M  V30 13517 N 1265.25 -0.510493 -1.49103 0
M  V30 13518 C 1266.48 0.0271324 -2.06582 0
M  V30 13519 C 1266.89 1.30499 -1.36991 0
M  V30 13520 O 1266.23 1.78229 -0.444976 0
M  V30 13521 C 1266.3 0.341488 -3.57874 0
M  V30 13522 C 1265.96 -0.840037 -4.49213 0
M  V30 13523 C 1266.96 -1.73315 -4.90161 0
M  V30 13524 C 1264.64 -1.04153 -4.91383 0
M  V30 13525 C 1266.64 -2.81182 -5.72028 0
M  V30 13526 C 1264.32 -2.12336 -5.73024 0
M  V30 13527 C 1265.32 -3.00684 -6.13252 0
M  V30 13528 O 1265.01 -4.06999 -6.93258 0
M  V30 13529 H 1264.74 -0.0215383 -0.675657 0
M  V30 13530 H 1267.3 -0.709841 -1.92744 0
M  V30 13531 H 1265.53 1.13218 -3.69755 0
M  V30 13532 H 1267.21 0.818859 -3.97554 0
M  V30 13533 H 1267.98 -1.58934 -4.58219 0
M  V30 13534 H 1263.86 -0.363199 -4.59567 0
M  V30 13535 H 1267.4 -3.50169 -6.03347 0
M  V30 13536 H 1263.3 -2.26708 -6.04379 0
M  V30 13537 H 1264.07 -4.04469 -7.11581 0
M  V30 13538 N 1266.73 1.55688 -0.24474 0
M  V30 13539 C 1267.98 1.99186 0.381167 0
M  V30 13540 C 1268.31 1.13266 1.57748 0
M  V30 13541 O 1267.59 0.195568 1.93514 0
M  V30 13542 C 1267.87 3.51257 0.793142 0
M  V30 13543 C 1267.72 4.47942 -0.408409 0
M  V30 13544 C 1269.04 4.08365 1.64091 0
M  V30 13545 H 1266.16 0.724141 0.137073 0
M  V30 13546 H 1268.8 1.8683 -0.345619 0
M  V30 13547 H 1266.95 3.61917 1.4124 0
M  V30 13548 H 1268.62 4.49265 -1.04682 0
M  V30 13549 H 1266.87 4.20854 -1.05189 0
M  V30 13550 H 1267.54 5.51946 -0.0768531 0
M  V30 13551 H 1270.01 4.00794 1.1182 0
M  V30 13552 H 1268.89 5.1504 1.89802 0
M  V30 13553 H 1269.15 3.56687 2.61202 0
M  V30 13554 N 1268.21 -0.0283989 1.57574 0
M  V30 13555 C 1269.46 -0.714661 1.90432 0
M  V30 13556 C 1269.81 -1.72929 0.843409 0
M  V30 13557 O 1269.1 -1.91029 -0.147815 0
M  V30 13558 C 1269.3 -1.4247 3.27776 0
M  V30 13559 C 1269.13 -0.480353 4.47127 0
M  V30 13560 C 1267.9 -0.101157 5.05199 0
M  V30 13561 C 1270.09 0.241526 5.13733 0
M  V30 13562 N 1268.08 0.844371 6.08065 0
M  V30 13563 C 1269.45 1.04269 6.11169 0
M  V30 13564 C 1271.5 0.308398 4.96944 0
M  V30 13565 C 1270.21 1.90459 6.93627 0
M  V30 13566 C 1272.23 1.15742 5.79964 0
M  V30 13567 C 1271.59 1.94651 6.76971 0
M  V30 13568 H 1267.69 -0.23559 0.745668 0
M  V30 13569 H 1270.28 0.0252703 1.94684 0
M  V30 13570 H 1268.45 -2.13509 3.24451 0
M  V30 13571 H 1270.18 -2.0634 3.48146 0
M  V30 13572 H 1266.93 -0.463482 4.71327 0
M  V30 13573 H 1267.36 1.31166 6.64172 0
M  V30 13574 H 1272 -0.287369 4.21822 0
M  V30 13575 H 1269.72 2.51115 7.68093 0
M  V30 13576 H 1273.3 1.2127 5.69021 0
M  V30 13577 H 1272.18 2.59286 7.40095 0
M  V30 13578 N 1269.69 -1.54705 -0.300681 0
M  V30 13579 C 1270.63 -1.85678 -1.37084 0
M  V30 13580 C 1271.6 -0.70573 -1.50362 0
M  V30 13581 O 1272.79 -0.954385 -1.65215 0
M  V30 13582 C 1269.93 -2.10995 -2.73084 0
M  V30 13583 C 1269.04 -3.38621 -2.68254 0
M  V30 13584 C 1268.18 -3.53779 -3.9625 0
M  V30 13585 C 1267.22 -4.75195 -3.85818 0
M  V30 13586 N 1266.35 -4.87157 -5.05591 0
M  V30 13587 H 1271.19 -2.76967 -1.09971 0
M  V30 13588 H 1268.73 -1.37147 -0.531887 0
M  V30 13589 H 1270.69 -2.23669 -3.52176 0
M  V30 13590 H 1269.32 -1.22973 -2.98458 0
M  V30 13591 H 1268.37 -3.34566 -1.81025 0
M  V30 13592 H 1269.68 -4.27834 -2.56436 0
M  V30 13593 H 1268.84 -3.66119 -4.83779 0
M  V30 13594 H 1267.58 -2.62699 -4.10902 0
M  V30 13595 H 1266.58 -4.62888 -2.96673 0
M  V30 13596 H 1267.81 -5.67683 -3.72711 0
M  V30 13597 H 1265.75 -3.99001 -5.20706 0
M  V30 13598 H 1265.67 -5.70372 -4.96197 0
M  V30 13599 H 1266.94 -5.03854 -5.9477 0
M  V30 13600 N 1271.17 0.563888 -1.47167 0
M  V30 13601 C 1272.42 1.31766 -1.5271 0
M  V30 13602 C 1272.73 1.94664 -0.191164 0
M  V30 13603 O 1273.93 2.71214 -0.124543 0
M  V30 13604 C 1272.39 2.38907 -2.69168 0
M  V30 13605 C 1272 1.8223 -4.09263 0
M  V30 13606 C 1273.74 3.15508 -2.83999 0
M  V30 13607 C 1271.65 2.87111 -5.17031 0
M  V30 13608 H 1270.58 0.495421 -0.568396 0
M  V30 13609 H 1273.23 0.599665 -1.73425 0
M  V30 13610 H 1271.61 3.13591 -2.4182 0
M  V30 13611 H 1272.79 1.13963 -4.46485 0
M  V30 13612 H 1271.1 1.18235 -3.99261 0
M  V30 13613 H 1273.7 3.93816 -3.61681 0
M  V30 13614 H 1274.04 3.69277 -1.92197 0
M  V30 13615 H 1274.57 2.47934 -3.11085 0
M  V30 13616 H 1271.31 2.38204 -6.10687 0
M  V30 13617 H 1270.83 3.53809 -4.84334 0
M  V30 13618 H 1272.51 3.50724 -5.43692 0
M  V30 13619 N 1272.64 1.35187 0.810078 0
M  V30 13620 C 1274.06 1.25329 1.38381 0
M  V30 13621 C 1274.41 -0.115799 1.95858 0
M  V30 13622 O 1273.53 -1.01663 1.91033 0
M  V30 13623 C 1274.13 2.2693 2.51572 0
M  V30 13624 C 1272.69 2.20824 3.04818 0
M  V30 13625 C 1271.83 2.1283 1.7776 0
M  V30 13626 H 1274.78 1.46366 0.613402 0
M  V30 13627 H 1274.8 1.89375 3.30026 0
M  V30 13628 H 1274.32 3.26563 2.09709 0
M  V30 13629 H 1272.42 1.24589 3.51153 0
M  V30 13630 H 1272.53 3.12637 3.63036 0
M  V30 13631 H 1270.89 1.58752 1.99173 0
M  V30 13632 H 1271.68 3.14318 1.38054 0
M  V30 13633 N 1274.12 -1.03182 1.19127 0
M  V30 13634 C 1275.03 -2.14875 0.94159 0
M  V30 13635 C 1276.05 -1.73727 -0.0973872 0
M  V30 13636 O 1277.22 -2.01214 0.0865775 0
M  V30 13637 C 1274.29 -3.43356 0.480366 0
M  V30 13638 C 1273.35 -3.98835 1.58838 0
M  V30 13639 C 1272.58 -5.21183 1.14907 0
M  V30 13640 O 1272.81 -5.70399 0.0114141 0
M  V30 13641 O 1271.74 -5.69423 1.95042 0
M  V30 13642 H 1275.57 -2.38799 1.8764 0
M  V30 13643 H 1273.15 -1.13299 0.973841 0
M  V30 13644 H 1275.03 -4.20763 0.231658 0
M  V30 13645 H 1273.71 -3.20884 -0.426041 0
M  V30 13646 H 1272.62 -3.22776 1.8912 0
M  V30 13647 H 1273.95 -4.25665 2.47123 0
M  V30 13648 N 1275.6 -0.99472 -1.22242 0
M  V30 13649 C 1277.02 -0.705762 -1.43147 0
M  V30 13650 C 1277.22 0.722908 -1.88086 0
M  V30 13651 O 1276.27 1.49359 -2.03588 0
M  V30 13652 C 1277.59 -1.71288 -2.47145 0
M  V30 13653 C 1279.13 -1.72853 -2.60942 0
M  V30 13654 C 1279.61 -2.72433 -3.68163 0
M  V30 13655 N 1281.1 -2.71039 -3.75623 0
M  V30 13656 C 1281.83 -3.44753 -4.58184 0
M  V30 13657 N 1281.33 -4.28075 -5.44724 0
M  V30 13658 N 1283.12 -3.33451 -4.52512 0
M  V30 13659 H 1275.27 -1.91738 -0.913792 0
M  V30 13660 H 1277.54 -0.82702 -0.463403 0
M  V30 13661 H 1277.24 -2.7353 -2.21075 0
M  V30 13662 H 1277.12 -1.50721 -3.45779 0
M  V30 13663 H 1279.5 -0.713085 -2.86355 0
M  V30 13664 H 1279.59 -1.9749 -1.62577 0
M  V30 13665 H 1279.23 -3.74129 -3.43497 0
M  V30 13666 H 1279.16 -2.45066 -4.66101 0
M  V30 13667 H 1281.65 -2.10581 -3.1379 0
M  V30 13668 H 1281.96 -4.81143 -6.04749 0
M  V30 13669 H 1280.31 -4.32161 -5.44299 0
M  V30 13670 H 1283.5 -2.67797 -3.8393 0
M  V30 13671 H 1283.67 -3.91158 -5.16623 0
M  V30 13672 N 1277.08 1.37613 -0.768148 0
M  V30 13673 C 1278.3 2.04579 -0.340892 0
M  V30 13674 C 1278.73 1.57556 1.02751 0
M  V30 13675 O 1278.09 0.734151 1.65771 0
M  V30 13676 C 1278.13 3.58495 -0.389099 0
M  V30 13677 O 1277.24 4.07838 0.611741 0
M  V30 13678 H 1276.58 0.647246 -0.148216 0
M  V30 13679 H 1279.11 1.75999 -1.04333 0
M  V30 13680 H 1279.12 4.07263 -0.245116 0
M  V30 13681 H 1277.79 3.92076 -1.38742 0
M  V30 13682 H 1276.37 3.70399 0.431173 0
M  V30 13683 N 1278.56 0.518393 1.4883 0
M  V30 13684 C 1279.8 -0.019866 2.0209 0
M  V30 13685 C 1280.13 -1.35863 1.3988 0
M  V30 13686 O 1279.4 -1.87722 0.560117 0
M  V30 13687 H 1277.98 -0.0103306 0.746929 0
M  V30 13688 H 1280.64 0.679591 1.82668 0
M  V30 13689 H 1279.73 -0.136749 3.118 0
M  V30 13690 N 1280.03 -1.55556 0.252993 0
M  V30 13691 C 1281 -2.20351 -0.630705 0
M  V30 13692 C 1282 -1.17461 -1.09816 0
M  V30 13693 O 1283.19 -1.42505 -1.00189 0
M  V30 13694 C 1280.32 -2.85192 -1.86757 0
M  V30 13695 H 1281.51 -2.99829 -0.0652939 0
M  V30 13696 H 1279.07 -1.563 0.00347982 0
M  V30 13697 H 1279.8 -2.09669 -2.47406 0
M  V30 13698 H 1279.59 -3.60569 -1.54053 0
M  V30 13699 H 1281.08 -3.34762 -2.49648 0
M  V30 13700 N 1281.51 0.0200419 -1.57587 0
M  V30 13701 C 1282.76 0.707627 -1.89307 0
M  V30 13702 C 1283.08 1.7541 -0.851831 0
M  V30 13703 O 1282.35 1.95571 0.113404 0
M  V30 13704 H 1280.93 0.264349 -0.698662 0
M  V30 13705 H 1283.59 -0.0161428 -1.94893 0
M  V30 13706 H 1282.69 1.19152 -2.8846 0
M  V30 13707 N 1282.99 1.54862 0.292472 0
M  V30 13708 C 1284.22 1.7855 1.04534 0
M  V30 13709 C 1284.63 0.549161 1.80637 0
M  V30 13710 O 1283.99 -0.481268 1.7604 0
M  V30 13711 C 1284.04 2.99849 2.01923 0
M  V30 13712 O 1283.76 4.18706 1.28907 0
M  V30 13713 C 1285.26 3.35991 2.8918 0
M  V30 13714 H 1282.48 0.595279 0.309652 0
M  V30 13715 H 1285.03 2.01834 0.329159 0
M  V30 13716 H 1283.18 2.78749 2.69032 0
M  V30 13717 H 1283.6 4.87151 1.94383 0
M  V30 13718 H 1285.07 4.24085 3.53349 0
M  V30 13719 H 1285.55 2.54524 3.57931 0
M  V30 13720 H 1286.15 3.59281 2.27591 0
M  V30 13721 N 1284.47 -0.556076 1.47464 0
M  V30 13722 C 1285.38 -1.69043 1.62671 0
M  V30 13723 C 1286.39 -1.66372 0.509535 0
M  V30 13724 O 1287.57 -1.85799 0.777218 0
M  V30 13725 C 1284.64 -3.05546 1.63836 0
M  V30 13726 C 1283.7 -3.19275 2.86988 0
M  V30 13727 C 1282.93 -4.49267 2.88088 0
M  V30 13728 O 1283.15 -5.34796 1.98368 0
M  V30 13729 O 1282.09 -4.66811 3.79962 0
M  V30 13730 H 1285.91 -1.59155 2.58657 0
M  V30 13731 H 1283.5 -0.726211 1.30562 0
M  V30 13732 H 1285.38 -3.86778 1.67275 0
M  V30 13733 H 1284.05 -3.15814 0.710173 0
M  V30 13734 H 1282.96 -2.37437 2.89093 0
M  V30 13735 H 1284.29 -3.13912 3.79104 0
M  V30 13736 N 1285.95 -1.35615 -0.802897 0
M  V30 13737 C 1287.22 -1.19655 -1.54732 0
M  V30 13738 C 1287.6 0.222827 -2.09921 0
M  V30 13739 O 1286.95 1.2268 -1.92774 0
M  V30 13740 C 1287.16 -2.26761 -2.65293 0
M  V30 13741 C 1288.51 -2.62754 -3.33535 0
M  V30 13742 O 1289.53 -2.25702 -2.75567 0
M  V30 13743 O 1288.39 -3.26476 -4.38264 0
M  V30 13744 H 1285.49 -0.465079 -0.683835 0
M  V30 13745 H 1288.03 -1.47307 -0.84254 0
M  V30 13746 H 1286.81 -3.21946 -2.22411 0
M  V30 13747 H 1286.43 -2.00399 -3.43404 0
M  V30 13748 N 1287.43 1.02549 -1.19673 0
M  V30 13749 C 1288.65 1.8016 -1.02748 0
M  V30 13750 C 1289.08 1.83372 0.419105 0
M  V30 13751 O 1288.43 1.26222 1.30144 0
M  V30 13752 C 1288.48 3.22907 -1.60509 0
M  V30 13753 O 1287.59 4.03823 -0.836702 0
M  V30 13754 H 1286.93 0.556027 -0.362946 0
M  V30 13755 H 1289.46 1.29047 -1.5877 0
M  V30 13756 H 1289.47 3.73646 -1.63868 0
M  V30 13757 H 1288.14 3.19885 -2.65794 0
M  V30 13758 H 1286.72 3.6245 -0.876626 0
M  V30 13759 N 1288.9 1.00119 1.21713 0
M  V30 13760 C 1289.87 0.563409 2.22167 0
M  V30 13761 C 1290.87 -0.35819 1.5676 0
M  V30 13762 O 1292.06 -0.149001 1.73562 0
M  V30 13763 C 1289.19 -0.179365 3.40428 0
M  V30 13764 H 1290.38 1.45189 2.62412 0
M  V30 13765 H 1287.93 0.789286 1.34907 0
M  V30 13766 H 1288.67 -1.08345 3.05666 0
M  V30 13767 H 1288.45 0.482471 3.8912 0
M  V30 13768 H 1289.94 -0.473537 4.14906 0
M  V30 13769 N 1290.38 -1.37203 0.775435 0
M  V30 13770 C 1291.62 -2.01439 0.346649 0
M  V30 13771 C 1291.99 -1.60223 -1.05795 0
M  V30 13772 O 1293.19 -2.16947 -1.58706 0
M  V30 13773 C 1291.46 -3.54031 0.489584 0
M  V30 13774 S 1293.02 -4.38555 0.146606 0
M  V30 13775 H 1289.83 -0.698417 0.133173 0
M  V30 13776 H 1292.44 -1.67338 1.01086 0
M  V30 13777 H 1291.14 -3.81516 1.51241 0
M  V30 13778 H 1290.67 -3.92936 -0.19105 0
M  V30 13779 H 1292.69 -4.8482 -1.05661 0
M  V30 13780 N 1291.86 -0.526279 -1.48553 0
M  V30 13781 C 1293.11 0.0111473 -2.01697 0
M  V30 13782 C 1293.42 1.35675 -1.40895 0
M  V30 13783 O 1294.63 1.98233 -1.85515 0
M  V30 13784 C 1293.08 0.0702721 -3.59831 0
M  V30 13785 C 1292.69 -1.27022 -4.29616 0
M  V30 13786 C 1294.44 0.556722 -4.20834 0
M  V30 13787 C 1292.34 -1.17188 -5.79673 0
M  V30 13788 H 1291.27 0.00793697 -0.753958 0
M  V30 13789 H 1293.92 -0.669503 -1.70851 0
M  V30 13790 H 1292.31 0.81592 -3.87503 0
M  V30 13791 H 1293.48 -2.03114 -4.1362 0
M  V30 13792 H 1291.79 -1.69211 -3.80469 0
M  V30 13793 H 1294.39 0.648205 -5.30756 0
M  V30 13794 H 1294.73 1.56163 -3.859 0
M  V30 13795 H 1295.27 -0.133132 -3.97577 0
M  V30 13796 H 1292.01 -2.15182 -6.19174 0
M  V30 13797 H 1291.53 -0.452259 -5.98093 0
M  V30 13798 H 1293.21 -0.861011 -6.41245 0
M  V30 13799 N 1293.34 1.5542 -0.261239 0
M  V30 13800 C 1294.75 1.85161 0.239195 0
M  V30 13801 C 1295.1 1.18319 1.56509 0
M  V30 13802 O 1294.22 0.4666 2.1131 0
M  V30 13803 C 1294.82 3.3592 0.440781 0
M  V30 13804 C 1293.38 3.65837 0.885461 0
M  V30 13805 C 1292.53 2.77285 -0.0291982 0
M  V30 13806 H 1295.48 1.51158 -0.483417 0
M  V30 13807 H 1295.5 3.58276 1.28136 0
M  V30 13808 H 1295.01 3.84541 -0.524382 0
M  V30 13809 H 1293.11 3.22705 1.86259 0
M  V30 13810 H 1293.22 4.73469 0.732394 0
M  V30 13811 H 1291.59 2.50045 0.484701 0
M  V30 13812 H 1292.37 3.28716 -0.989992 0
M  V30 13813 N 1294.82 -0.0116844 1.57596 0
M  V30 13814 C 1296.06 -0.694423 1.91179 0
M  V30 13815 C 1296.42 -1.72025 0.861703 0
M  V30 13816 O 1295.71 -1.91175 -0.127545 0
M  V30 13817 C 1295.9 -1.38985 3.29269 0
M  V30 13818 C 1295.73 -0.432902 4.47611 0
M  V30 13819 C 1294.5 -0.0475684 5.05278 0
M  V30 13820 C 1296.7 0.296001 5.13447 0
M  V30 13821 N 1294.68 0.908817 6.07136 0
M  V30 13822 C 1296.05 1.10746 6.10029 0
M  V30 13823 C 1298.11 0.361088 4.96589 0
M  V30 13824 C 1296.81 1.97805 6.91568 0
M  V30 13825 C 1298.84 1.21887 5.78703 0
M  V30 13826 C 1298.2 2.0182 6.74869 0
M  V30 13827 H 1294.3 -0.227668 0.748125 0
M  V30 13828 H 1296.88 0.0459176 1.94646 0
M  V30 13829 H 1295.05 -2.10055 3.26698 0
M  V30 13830 H 1296.79 -2.02636 3.50315 0
M  V30 13831 H 1293.54 -0.413466 4.71792 0
M  V30 13832 H 1293.96 1.38203 6.62743 0
M  V30 13833 H 1298.61 -0.242613 4.22103 0
M  V30 13834 H 1296.32 2.59248 7.65386 0
M  V30 13835 H 1299.91 1.27299 5.67703 0
M  V30 13836 H 1298.79 2.67121 7.37303 0
M  V30 13837 N 1296.29 -1.55015 -0.284256 0
M  V30 13838 C 1297.26 -1.8636 -1.33426 0
M  V30 13839 C 1298.26 -0.737457 -1.42892 0
M  V30 13840 O 1299.45 -1.00569 -1.42238 0
M  V30 13841 C 1296.58 -2.05884 -2.71707 0
M  V30 13842 H 1297.77 -2.80212 -1.06869 0
M  V30 13843 H 1295.32 -1.47334 -0.521767 0
M  V30 13844 H 1296.06 -1.14376 -3.03461 0
M  V30 13845 H 1295.84 -2.87867 -2.66224 0
M  V30 13846 H 1297.33 -2.31447 -3.47595 0
M  V30 13847 N 1297.77 0.548248 -1.47757 0
M  V30 13848 C 1299 1.32827 -1.58242 0
M  V30 13849 C 1299.41 1.87736 -0.234936 0
M  V30 13850 O 1298.75 1.66163 0.78329 0
M  V30 13851 C 1298.81 2.52906 -2.55497 0
M  V30 13852 C 1298.48 2.19218 -4.00989 0
M  V30 13853 C 1299.48 1.75976 -4.89212 0
M  V30 13854 C 1297.16 2.30302 -4.46392 0
M  V30 13855 C 1299.15 1.44258 -6.20861 0
M  V30 13856 C 1296.84 1.98197 -5.78067 0
M  V30 13857 C 1297.84 1.55244 -6.65123 0
M  V30 13858 O 1297.53 1.23551 -7.94349 0
M  V30 13859 H 1297.26 0.41088 -0.536799 0
M  V30 13860 H 1299.81 0.670055 -1.94163 0
M  V30 13861 H 1298.04 3.21648 -2.14661 0
M  V30 13862 H 1299.73 3.14979 -2.56014 0
M  V30 13863 H 1300.5 1.66898 -4.55379 0
M  V30 13864 H 1296.38 2.62693 -3.78832 0
M  V30 13865 H 1299.92 1.10659 -6.88767 0
M  V30 13866 H 1295.82 2.0691 -6.1144 0
M  V30 13867 H 1296.59 1.37105 -8.06935 0
M  V30 13868 N 1299.25 1.36039 0.795694 0
M  V30 13869 C 1300.48 1.32866 1.58209 0
M  V30 13870 C 1300.89 -0.0935189 1.88969 0
M  V30 13871 O 1300.23 -1.05905 1.501 0
M  V30 13872 C 1300.29 2.07872 2.93308 0
M  V30 13873 C 1299.96 3.56999 2.85309 0
M  V30 13874 C 1300.95 4.51374 2.57987 0
M  V30 13875 C 1298.64 3.99798 3.04083 0
M  V30 13876 C 1300.63 5.86526 2.49533 0
M  V30 13877 C 1298.32 5.35042 2.95251 0
M  V30 13878 C 1299.32 6.28218 2.68013 0
M  V30 13879 O 1299.01 7.60979 2.59163 0
M  V30 13880 H 1298.74 0.457589 0.497583 0
M  V30 13881 H 1301.29 1.79637 0.995978 0
M  V30 13882 H 1299.52 1.55755 3.53945 0
M  V30 13883 H 1301.21 1.97638 3.54534 0
M  V30 13884 H 1301.98 4.19623 2.43191 0
M  V30 13885 H 1297.86 3.27652 3.24292 0
M  V30 13886 H 1301.4 6.59222 2.28193 0
M  V30 13887 H 1297.3 5.66404 3.09608 0
M  V30 13888 H 1298.06 7.7103 2.74691 0
M  V30 13889 N 1300.73 -1.01913 1.20215 0
M  V30 13890 C 1301.95 -1.79613 1.03702 0
M  V30 13891 C 1302.38 -1.83591 -0.409374 0
M  V30 13892 O 1301.74 -1.26911 -1.29473 0
M  V30 13893 C 1301.78 -3.22052 1.62219 0
M  V30 13894 O 1300.89 -4.03374 0.858106 0
M  V30 13895 H 1300.23 -0.554095 0.365889 0
M  V30 13896 H 1302.76 -1.28203 1.59452 0
M  V30 13897 H 1302.77 -3.72772 1.65847 0
M  V30 13898 H 1301.44 -3.18471 2.67487 0
M  V30 13899 H 1300.02 -3.6198 0.895835 0
M  V30 13900 N 1302.21 -1.00763 -1.2118 0
M  V30 13901 C 1303.43 -0.710746 -1.94309 0
M  V30 13902 C 1303.85 0.727103 -1.74237 0
M  V30 13903 O 1303.21 1.49223 -1.05065 0
M  V30 13904 C 1303.26 -1.02562 -3.46646 0
M  V30 13905 O 1302.98 -2.40699 -3.66054 0
M  V30 13906 C 1304.48 -0.748517 -4.36935 0
M  V30 13907 H 1301.7 -0.26171 -0.617858 0
M  V30 13908 H 1304.24 -1.34639 -1.53924 0
M  V30 13909 H 1302.4 -0.435537 -3.84944 0
M  V30 13910 H 1302.81 -2.51764 -4.60125 0
M  V30 13911 H 1304.29 -1.01899 -5.42513 0
M  V30 13912 H 1304.76 0.317423 -4.38051 0
M  V30 13913 H 1305.37 -1.32033 -4.04286 0
M  V30 13914 N 1303.68 1.3679 -0.7827 0
M  V30 13915 C 1304.93 1.99712 -0.352533 0
M  V30 13916 C 1305.26 1.61984 1.0712 0
M  V30 13917 O 1304.54 0.871342 1.7389 0
M  V30 13918 C 1304.82 3.5649 -0.508628 0
M  V30 13919 C 1304.67 4.04093 -1.97557 0
M  V30 13920 C 1305.99 4.40026 0.0804447 0
M  V30 13921 H 1303.11 0.725522 -0.129566 0
M  V30 13922 H 1305.75 1.62305 -0.987788 0
M  V30 13923 H 1303.9 3.88487 0.0321664 0
M  V30 13924 H 1305.58 3.82613 -2.57691 0
M  V30 13925 H 1303.82 3.55881 -2.48055 0
M  V30 13926 H 1304.49 5.13088 -2.03579 0
M  V30 13927 H 1306.97 4.14351 -0.381113 0
M  V30 13928 H 1305.84 5.48868 -0.0588424 0
M  V30 13929 H 1306.1 4.26285 1.17189 0
M  V30 13930 N 1305.16 0.53415 1.48272 0
M  V30 13931 C 1306.44 -0.0630181 1.95498 0
M  V30 13932 C 1306.82 -1.50877 1.47646 0
M  V30 13933 O 1306.17 -2.17358 0.704829 0
M  V30 13934 C 1306.38 0.0585475 3.48951 0
M  V30 13935 C 1307.73 -0.0985978 4.24486 0
M  V30 13936 O 1308.75 -0.0150438 3.56197 0
M  V30 13937 O 1307.61 -0.274356 5.45811 0
M  V30 13938 H 1304.7 -0.0769841 0.823409 0
M  V30 13939 H 1307.25 0.599043 1.58775 0
M  V30 13940 H 1306.02 1.06549 3.76514 0
M  V30 13941 H 1305.64 -0.642175 3.9238 0
M  V30 13942 N 1306.64 -1.55279 0.269478 0
M  V30 13943 C 1307.57 -2.19684 -0.653573 0
M  V30 13944 C 1308.59 -1.17985 -1.12176 0
M  V30 13945 O 1309.77 -1.44739 -1.04464 0
M  V30 13946 C 1306.87 -2.80438 -1.90284 0
M  V30 13947 C 1306.05 -4.07774 -1.58239 0
M  V30 13948 C 1305.11 -4.52629 -2.68354 0
M  V30 13949 O 1304.13 -5.18524 -2.3478 0
M  V30 13950 N 1305.33 -4.22297 -3.98303 0
M  V30 13951 H 1308.1 -2.99525 -0.102379 0
M  V30 13952 H 1305.66 -1.61648 0.0903465 0
M  V30 13953 H 1307.65 -3.07392 -2.63234 0
M  V30 13954 H 1306.22 -2.04622 -2.36323 0
M  V30 13955 H 1305.44 -3.88168 -0.686983 0
M  V30 13956 H 1306.73 -4.90749 -1.34323 0
M  V30 13957 H 1306.13 -3.69441 -4.28404 0
M  V30 13958 H 1304.69 -4.54035 -4.67649 0
M  V30 13959 N 1308.12 0.00332656 -1.576 0
M  V30 13960 C 1309.36 0.68989 -1.90705 0
M  V30 13961 C 1309.7 1.73608 -0.870291 0
M  V30 13962 O 1308.97 1.94181 0.111416 0
M  V30 13963 C 1309.26 1.33605 -3.34397 0
M  V30 13964 C 1309.11 0.301638 -4.48787 0
M  V30 13965 C 1310.43 2.26313 -3.77453 0
M  V30 13966 H 1307.55 0.249328 -0.693545 0
M  V30 13967 H 1310.19 -0.0472847 -1.89941 0
M  V30 13968 H 1308.34 1.96437 -3.35179 0
M  V30 13969 H 1310.01 -0.326738 -4.60141 0
M  V30 13970 H 1308.25 -0.376451 -4.32163 0
M  V30 13971 H 1308.92 0.792741 -5.46278 0
M  V30 13972 H 1311.4 1.73502 -3.78201 0
M  V30 13973 H 1310.28 2.68492 -4.78752 0
M  V30 13974 H 1310.54 3.14082 -3.11135 0
M  V30 13975 N 1309.6 1.55164 0.276031 0
M  V30 13976 C 1310.54 1.87836 1.34113 0
M  V30 13977 C 1311.51 0.729562 1.4922 0
M  V30 13978 O 1312.7 0.980549 1.63676 0
M  V30 13979 C 1309.84 2.15313 2.69693 0
M  V30 13980 C 1308.95 3.42845 2.62833 0
M  V30 13981 C 1308.09 3.60038 3.90572 0
M  V30 13982 C 1307.13 4.81273 3.7821 0
M  V30 13983 N 1306.26 4.95139 4.97777 0
M  V30 13984 H 1311.1 2.78681 1.0555 0
M  V30 13985 H 1308.64 1.37976 0.510001 0
M  V30 13986 H 1310.6 2.29243 3.48573 0
M  V30 13987 H 1309.23 1.27706 2.96464 0
M  V30 13988 H 1308.28 3.37403 1.75679 0
M  V30 13989 H 1309.59 4.3186 2.49597 0
M  V30 13990 H 1308.75 3.73769 4.77893 0
M  V30 13991 H 1307.48 2.69203 4.06671 0
M  V30 13992 H 1306.49 4.67549 2.89271 0
M  V30 13993 H 1307.71 5.7354 3.63632 0
M  V30 13994 H 1305.66 4.07234 5.14292 0
M  V30 13995 H 1305.58 5.78194 4.8706 0
M  V30 13996 H 1306.85 5.13253 5.86679 0
M  V30 13997 N 1311.07 -0.540404 1.48045 0
M  V30 13998 C 1312.35 -1.30148 1.46017 0
M  V30 13999 C 1312.73 -2.10445 0.166171 0
M  V30 14000 O 1312.08 -2.12013 -0.852223 0
M  V30 14001 C 1312.29 -2.19177 2.71593 0
M  V30 14002 C 1313.64 -2.79655 3.19497 0
M  V30 14003 O 1314.66 -2.2947 2.72437 0
M  V30 14004 O 1313.52 -3.70912 4.01356 0
M  V30 14005 H 1310.61 -0.586879 0.582668 0
M  V30 14006 H 1313.16 -0.557918 1.60267 0
M  V30 14007 H 1311.93 -1.59556 3.57292 0
M  V30 14008 H 1311.56 -3.00798 2.60012 0
M  V30 14009 N 1312.55 -1.36459 -0.788468 0
M  V30 14010 C 1313.48 -1.33545 -1.91541 0
M  V30 14011 C 1314.46 -0.206762 -1.68839 0
M  V30 14012 O 1315.65 -0.404553 -1.89939 0
M  V30 14013 C 1312.78 -1.12492 -3.28577 0
M  V30 14014 C 1311.73 -2.22196 -3.65805 0
M  V30 14015 C 1311.06 -1.86285 -5.01201 0
M  V30 14016 C 1312.36 -3.64286 -3.7429 0
M  V30 14017 H 1314.05 -2.27844 -1.94236 0
M  V30 14018 H 1311.6 -1.09677 -0.933105 0
M  V30 14019 H 1313.55 -1.09089 -4.07035 0
M  V30 14020 H 1312.28 -0.146446 -3.26272 0
M  V30 14021 H 1310.93 -2.24727 -2.89644 0
M  V30 14022 H 1310.58 -0.87009 -4.95417 0
M  V30 14023 H 1310.28 -2.59734 -5.27079 0
M  V30 14024 H 1311.81 -1.84439 -5.82078 0
M  V30 14025 H 1313.22 -3.63977 -4.42937 0
M  V30 14026 H 1311.62 -4.36648 -4.11653 0
M  V30 14027 H 1312.69 -3.99123 -2.75371 0
M  V30 14028 N 1314.03 1.01274 -1.20754 0
M  V30 14029 C 1315.26 1.78265 -1.04427 0
M  V30 14030 C 1315.67 1.84718 0.409361 0
M  V30 14031 O 1315.01 1.30195 1.29595 0
M  V30 14032 C 1315.07 3.24037 -1.55693 0
M  V30 14033 C 1314.74 3.41181 -3.04047 0
M  V30 14034 C 1315.73 3.30087 -4.0167 0
M  V30 14035 C 1313.42 3.66872 -3.43089 0
M  V30 14036 C 1315.41 3.44436 -5.36323 0
M  V30 14037 C 1313.1 3.80865 -4.77896 0
M  V30 14038 C 1314.1 3.69652 -5.74322 0
M  V30 14039 O 1313.79 3.83211 -7.06686 0
M  V30 14040 H 1313.52 0.567327 -0.367582 0
M  V30 14041 H 1316.07 1.28336 -1.60372 0
M  V30 14042 H 1314.3 3.75067 -0.941382 0
M  V30 14043 H 1315.99 3.82676 -1.35328 0
M  V30 14044 H 1316.76 3.10172 -3.72852 0
M  V30 14045 H 1312.64 3.74685 -2.68574 0
M  V30 14046 H 1316.18 3.35601 -6.1157 0
M  V30 14047 H 1312.08 4.00282 -5.06403 0
M  V30 14048 H 1312.85 4.00205 -7.13987 0
M  V30 14049 N 1315.51 1.01404 1.20644 0
M  V30 14050 C 1316.73 0.720839 1.9447 0
M  V30 14051 C 1317.16 -0.711711 1.74116 0
M  V30 14052 O 1316.52 -1.48938 1.03379 0
M  V30 14053 C 1316.57 1.05864 3.4471 0
M  V30 14054 O 1315.67 0.168901 4.12054 0
M  V30 14055 H 1315.01 0.267698 0.607646 0
M  V30 14056 H 1317.54 1.35672 1.53147 0
M  V30 14057 H 1317.55 1.00928 3.9532 0
M  V30 14058 H 1316.23 2.1024 3.58848 0
M  V30 14059 H 1314.8 0.275572 3.7188 0
M  V30 14060 N 1316.99 -1.36373 0.789944 0
M  V30 14061 C 1318.24 -1.98834 0.361866 0
M  V30 14062 C 1318.56 -1.63006 -1.07024 0
M  V30 14063 O 1317.83 -0.904312 -1.73779 0
M  V30 14064 H 1316.41 -0.735457 0.130812 0
M  V30 14065 H 1319.07 -1.66561 1.0121 0
M  V30 14066 H 1318.16 -3.08778 0.454122 0
M  V30 14067 N 1318.47 -0.542005 -1.47987 0
M  V30 14068 C 1319.4 0.202703 -2.32618 0
M  V30 14069 C 1320.38 0.923521 -1.42846 0
M  V30 14070 O 1321.56 0.906957 -1.7172 0
M  V30 14071 C 1318.69 1.24267 -3.24307 0
M  V30 14072 C 1317.65 0.639257 -4.23199 0
M  V30 14073 C 1316.97 1.78275 -5.04105 0
M  V30 14074 C 1318.27 -0.396982 -5.20789 0
M  V30 14075 H 1319.97 -0.503817 -2.95131 0
M  V30 14076 H 1317.51 -0.243736 -1.41922 0
M  V30 14077 H 1319.46 1.7717 -3.82347 0
M  V30 14078 H 1318.19 1.97893 -2.59819 0
M  V30 14079 H 1316.85 0.131655 -3.66364 0
M  V30 14080 H 1316.5 2.50768 -4.36032 0
M  V30 14081 H 1316.2 1.38487 -5.71047 0
M  V30 14082 H 1317.72 2.31533 -5.65 0
M  V30 14083 H 1319.13 0.0454057 -5.73282 0
M  V30 14084 H 1317.53 -0.712911 -5.9585 0
M  V30 14085 H 1318.6 -1.29843 -4.67193 0
M  V30 14086 N 1319.94 1.55134 -0.277709 0
M  V30 14087 C 1321.19 1.98831 0.338982 0
M  V30 14088 C 1321.51 1.16958 1.56781 0
M  V30 14089 O 1322.71 1.50811 2.25762 0
M  V30 14090 C 1321.17 3.53899 0.654465 0
M  V30 14091 C 1320.78 4.44553 -0.554703 0
M  V30 14092 C 1322.52 4.06179 1.23364 0
M  V30 14093 C 1320.43 5.91014 -0.213663 0
M  V30 14094 H 1319.36 0.742632 0.130434 0
M  V30 14095 H 1322.01 1.79463 -0.382768 0
M  V30 14096 H 1320.39 3.69078 1.43519 0
M  V30 14097 H 1321.56 4.41143 -1.33151 0
M  V30 14098 H 1319.88 4.02921 -1.0509 0
M  V30 14099 H 1322.48 5.13152 1.50265 0
M  V30 14100 H 1322.82 3.5537 2.16836 0
M  V30 14101 H 1323.35 3.9445 0.515147 0
M  V30 14102 H 1320.09 6.45924 -1.11633 0
M  V30 14103 H 1319.61 5.97486 0.526329 0
M  V30 14104 H 1321.29 6.46712 0.19319 0
M  V30 14105 N 1321.42 0.00503138 1.57599 0
M  V30 14106 C 1322.67 -0.67742 1.90409 0
M  V30 14107 C 1322.99 -1.74033 0.87963 0
M  V30 14108 O 1322.26 -1.95727 -0.0822757 0
M  V30 14109 H 1320.84 -0.2532 0.702779 0
M  V30 14110 H 1323.5 0.0471466 1.94843 0
M  V30 14111 H 1322.6 -1.14548 2.90319 0
M  V30 14112 N 1322.9 -1.55308 -0.267798 0
M  V30 14113 C 1324.31 -1.66814 -0.838459 0
M  V30 14114 C 1324.66 -0.598609 -1.86845 0
M  V30 14115 O 1323.79 0.25896 -2.14845 0
M  V30 14116 C 1324.38 -3.02408 -1.52758 0
M  V30 14117 C 1322.94 -3.15923 -2.04621 0
M  V30 14118 C 1322.09 -2.62628 -0.890044 0
M  V30 14119 H 1325.04 -1.58639 -0.0440354 0
M  V30 14120 H 1325.06 -2.95687 -2.39478 0
M  V30 14121 H 1324.57 -3.80228 -0.777695 0
M  V30 14122 H 1322.67 -2.42886 -2.82555 0
M  V30 14123 H 1322.79 -4.22556 -2.25794 0
M  V30 14124 H 1321.15 -2.19918 -1.28485 0
M  V30 14125 H 1321.93 -3.42956 -0.153579 0
M  V30 14126 N 1324.38 0.532545 -1.4833 0
M  V30 14127 C 1325.31 1.64662 -1.65555 0
M  V30 14128 C 1326.29 1.62447 -0.50447 0
M  V30 14129 O 1327.47 1.79684 -0.736712 0
M  V30 14130 C 1324.6 3.03256 -1.69272 0
M  V30 14131 C 1323.56 3.20329 -2.83854 0
M  V30 14132 C 1322.88 4.59958 -2.72659 0
M  V30 14133 C 1324.18 3.03345 -4.25181 0
M  V30 14134 H 1325.88 1.50502 -2.58823 0
M  V30 14135 H 1323.42 0.722612 -1.24556 0
M  V30 14136 H 1325.38 3.81064 -1.79911 0
M  V30 14137 H 1324.1 3.18433 -0.725805 0
M  V30 14138 H 1322.76 2.44937 -2.72766 0
M  V30 14139 H 1322.41 4.71967 -1.73942 0
M  V30 14140 H 1322.11 4.72327 -3.49544 0
M  V30 14141 H 1323.63 5.39869 -2.85262 0
M  V30 14142 H 1325.05 3.70948 -4.37116 0
M  V30 14143 H 1323.44 3.27208 -5.03045 0
M  V30 14144 H 1324.51 1.998 -4.41824 0
M  V30 14145 N 1325.86 1.36875 0.78122 0
M  V30 14146 C 1327.1 1.30886 1.53466 0
M  V30 14147 C 1327.42 -0.107218 1.95306 0
M  V30 14148 O 1328.62 -0.289525 2.69952 0
M  V30 14149 C 1327.08 2.29688 2.77076 0
M  V30 14150 C 1326.69 3.76775 2.42373 0
M  V30 14151 C 1328.43 2.32692 3.55042 0
M  V30 14152 C 1326.34 4.67332 3.62428 0
M  V30 14153 H 1325.27 0.486408 0.576128 0
M  V30 14154 H 1327.92 1.62283 0.856529 0
M  V30 14155 H 1326.3 1.91296 3.4673 0
M  V30 14156 H 1327.48 4.2395 1.80563 0
M  V30 14157 H 1325.79 3.76625 1.77602 0
M  V30 14158 H 1328.39 2.97556 4.44257 0
M  V30 14159 H 1328.73 1.33779 3.94219 0
M  V30 14160 H 1329.26 2.69743 2.92375 0
M  V30 14161 H 1326 5.67339 3.2834 0
M  V30 14162 H 1325.52 4.24868 4.23376 0
M  V30 14163 H 1327.2 4.84005 4.29358 0
M  V30 14164 N 1327.33 -1.00632 1.21289 0
M  V30 14165 C 1328.58 -1.74647 1.03084 0
M  V30 14166 C 1328.91 -1.89271 -0.43476 0
M  V30 14167 O 1328.19 -1.42607 -1.32263 0
M  V30 14168 C 1328.47 -3.15981 1.72709 0
M  V30 14169 C 1328.32 -3.09088 3.2678 0
M  V30 14170 C 1329.64 -4.14875 1.46857 0
M  V30 14171 H 1326.76 -0.633938 0.375889 0
M  V30 14172 H 1329.4 -1.17328 1.49446 0
M  V30 14173 H 1327.55 -3.64918 1.33294 0
M  V30 14174 H 1329.23 -2.67875 3.75554 0
M  V30 14175 H 1327.47 -2.46223 3.57151 0
M  V30 14176 H 1328.14 -4.09041 3.70661 0
M  V30 14177 H 1330.62 -3.74637 1.81069 0
M  V30 14178 H 1329.49 -5.1191 1.98088 0
M  V30 14179 H 1329.75 -4.40302 0.398296 0
M  V30 14180 N 1328.81 -1.02043 -1.20104 0
M  V30 14181 C 1330.05 -0.720566 -1.91278 0
M  V30 14182 C 1330.42 0.73658 -1.77309 0
M  V30 14183 O 1331.62 1.14913 -2.42999 0
M  V30 14184 C 1329.89 -1.1489 -3.3843 0
M  V30 14185 S 1331.45 -0.971591 -4.27908 0
M  V30 14186 H 1328.26 -0.262582 -0.660736 0
M  V30 14187 H 1330.87 -1.30849 -1.45254 0
M  V30 14188 H 1329.57 -2.20521 -3.46119 0
M  V30 14189 H 1329.1 -0.553911 -3.89481 0
M  V30 14190 H 1331.12 0.122695 -4.96048 0
M  V30 14191 N 1330.29 1.35952 -0.797165 0
M  V30 14192 C 1331.71 1.52218 -0.479765 0
M  V30 14193 C 1331.91 1.74898 1.00064 0
M  V30 14194 O 1330.96 1.78495 1.78594 0
M  V30 14195 C 1332.28 2.70328 -1.31694 0
M  V30 14196 C 1333.82 2.84202 -1.31142 0
M  V30 14197 C 1334.3 4.05325 -2.13251 0
M  V30 14198 N 1335.79 4.12485 -2.10737 0
M  V30 14199 C 1336.52 5.053 -2.71033 0
M  V30 14200 N 1336.02 6.03509 -3.40219 0
M  V30 14201 N 1337.81 4.97975 -2.60725 0
M  V30 14202 H 1329.96 1.19486 -1.75604 0
M  V30 14203 H 1332.23 0.58383 -0.746892 0
M  V30 14204 H 1331.93 2.60116 -2.36712 0
M  V30 14205 H 1331.81 3.64684 -0.963607 0
M  V30 14206 H 1334.19 2.9387 -0.269131 0
M  V30 14207 H 1334.28 1.9073 -1.70457 0
M  V30 14208 H 1333.92 3.96417 -3.17515 0
M  V30 14209 H 1333.85 4.97959 -1.71302 0
M  V30 14210 H 1336.34 3.42174 -1.6039 0
M  V30 14211 H 1336.65 6.70909 -3.83537 0
M  V30 14212 H 1335 6.03711 -3.44322 0
M  V30 14213 H 1338.19 4.20203 -2.0627 0
M  V30 14214 H 1338.36 5.70119 -3.08007 0
M  V30 14215 N 1331.77 0.549846 1.47697 0
M  V30 14216 C 1333.18 0.209085 1.58225 0
M  V30 14217 C 1333.38 -1.28823 1.54941 0
M  V30 14218 O 1332.44 -2.0679 1.44893 0
M  V30 14219 C 1333.75 0.829219 2.89041 0
M  V30 14220 C 1335.3 0.79977 3.0261 0
M  V30 14221 C 1335.78 1.39884 4.36115 0
M  V30 14222 N 1337.27 1.36169 4.42733 0
M  V30 14223 C 1338 1.79492 5.44583 0
M  V30 14224 N 1337.5 2.30637 6.53283 0
M  V30 14225 N 1339.29 1.70608 5.35583 0
M  V30 14226 H 1331.44 1.52275 1.48074 0
M  V30 14227 H 1333.71 0.634579 0.704283 0
M  V30 14228 H 1333.41 1.88122 2.97158 0
M  V30 14229 H 1333.29 0.317916 3.75858 0
M  V30 14230 H 1335.67 -0.243525 2.94093 0
M  V30 14231 H 1335.75 1.34875 2.17353 0
M  V30 14232 H 1335.4 2.44116 4.45387 0
M  V30 14233 H 1335.33 0.825362 5.20092 0
M  V30 14234 H 1337.82 0.987505 3.64769 0
M  V30 14235 H 1338.13 2.61637 7.27163 0
M  V30 14236 H 1336.48 2.34643 6.54192 0
M  V30 14237 H 1339.67 1.30434 4.4956 0
M  V30 14238 H 1339.84 2.0469 6.14822 0
M  V30 14239 N 1333.25 -1.54984 0.285932 0
M  V30 14240 C 1334.66 -1.85519 -0.209707 0
M  V30 14241 C 1335.01 -1.20794 -1.54606 0
M  V30 14242 O 1334.13 -0.500159 -2.10541 0
M  V30 14243 C 1334.73 -3.36579 -0.387283 0
M  V30 14244 C 1333.29 -3.67199 -0.827148 0
M  V30 14245 C 1332.43 -2.77203 0.073308 0
M  V30 14246 H 1335.39 -1.5037 0.507404 0
M  V30 14247 H 1335.41 -3.60269 -1.2242 0
M  V30 14248 H 1334.92 -3.83658 0.585493 0
M  V30 14249 H 1333.02 -3.25627 -1.81101 0
M  V30 14250 H 1333.13 -4.74574 -0.656976 0
M  V30 14251 H 1331.5 -2.50785 -0.444859 0
M  V30 14252 H 1332.28 -3.27099 1.04216 0
M  V30 14253 N 1334.72 -0.0133892 -1.57594 0
M  V30 14254 C 1335.95 0.67827 -1.95149 0
M  V30 14255 C 1336.36 1.67089 -0.887572 0
M  V30 14256 O 1335.71 1.8316 0.140774 0
M  V30 14257 C 1335.77 1.45441 -3.28766 0
M  V30 14258 C 1335.43 0.621889 -4.52749 0
M  V30 14259 C 1336.43 -0.0961541 -5.19811 0
M  V30 14260 C 1334.11 0.563917 -4.99124 0
M  V30 14261 C 1336.11 -0.86101 -6.31558 0
M  V30 14262 C 1333.79 -0.204654 -6.10757 0
M  V30 14263 C 1334.79 -0.915839 -6.76832 0
M  V30 14264 O 1334.48 -1.67184 -7.86323 0
M  V30 14265 H 1334.21 0.192983 -0.647869 0
M  V30 14266 H 1336.77 -0.0646816 -2.05298 0
M  V30 14267 H 1335 2.24215 -3.15063 0
M  V30 14268 H 1336.69 2.03268 -3.51336 0
M  V30 14269 H 1337.45 -0.0606029 -4.84962 0
M  V30 14270 H 1333.33 1.10702 -4.47511 0
M  V30 14271 H 1336.87 -1.41664 -6.83064 0
M  V30 14272 H 1332.77 -0.241979 -6.45046 0
M  V30 14273 H 1333.54 -1.58996 -8.02909 0
M  V30 14274 N 1336.2 1.55448 0.259558 0
M  V30 14275 C 1337.13 1.9226 1.32508 0
M  V30 14276 C 1338.11 0.786012 1.5085 0
M  V30 14277 O 1339.3 1.04526 1.6367 0
M  V30 14278 C 1336.43 2.20627 2.68218 0
M  V30 14279 C 1335.38 3.36418 2.64589 0
M  V30 14280 C 1334.71 3.50295 4.03977 0
M  V30 14281 C 1336.01 4.72452 2.2268 0
M  V30 14282 H 1337.7 2.81509 1.01945 0
M  V30 14283 H 1335.25 1.35444 0.488965 0
M  V30 14284 H 1337.2 2.44968 3.42883 0
M  V30 14285 H 1335.93 1.28191 3.00391 0
M  V30 14286 H 1334.58 3.12065 1.92382 0
M  V30 14287 H 1334.23 2.55302 4.33394 0
M  V30 14288 H 1333.93 4.28155 4.02439 0
M  V30 14289 H 1335.46 3.76944 4.8036 0
M  V30 14290 H 1336.87 4.96249 2.87071 0
M  V30 14291 H 1335.27 5.53323 2.32279 0
M  V30 14292 H 1336.34 4.70367 1.17826 0
M  V30 14293 N 1337.68 -0.524672 1.4861 0
M  V30 14294 C 1338.63 -1.62872 1.63527 0
M  V30 14295 C 1339.6 -1.59097 0.477202 0
M  V30 14296 O 1340.78 -1.77443 0.701341 0
M  V30 14297 C 1337.92 -3.01116 1.68592 0
M  V30 14298 C 1337.04 -3.15085 2.95542 0
M  V30 14299 C 1336.17 -4.4392 2.91734 0
M  V30 14300 C 1335.21 -4.51436 4.13366 0
M  V30 14301 N 1334.35 -5.71667 4.07605 0
M  V30 14302 H 1339.19 -1.49462 2.57808 0
M  V30 14303 H 1336.72 -0.727578 1.27846 0
M  V30 14304 H 1338.68 -3.81212 1.6951 0
M  V30 14305 H 1337.31 -3.13285 0.777975 0
M  V30 14306 H 1336.36 -2.28207 3.04345 0
M  V30 14307 H 1337.68 -3.165 3.85524 0
M  V30 14308 H 1336.83 -5.32312 2.91083 0
M  V30 14309 H 1335.57 -4.45034 1.9949 0
M  V30 14310 H 1334.57 -3.6145 4.14287 0
M  V30 14311 H 1335.8 -4.52057 5.06776 0
M  V30 14312 H 1333.74 -5.73668 3.18184 0
M  V30 14313 H 1333.66 -5.74599 4.91297 0
M  V30 14314 H 1334.93 -6.62331 4.1102 0
M  V30 14315 N 1339.16 -1.37287 -0.77395 0
M  V30 14316 C 1340.4 -1.3257 -1.5347 0
M  V30 14317 C 1340.74 0.090346 -1.9399 0
M  V30 14318 O 1340.01 1.04719 -1.63903 0
M  V30 14319 C 1340.3 -2.26277 -2.80126 0
M  V30 14320 C 1340.15 -3.76651 -2.45874 0
M  V30 14321 C 1341.47 -2.18471 -3.82045 0
M  V30 14322 H 1338.59 -0.48289 -0.556764 0
M  V30 14323 H 1341.23 -1.6797 -0.888039 0
M  V30 14324 H 1339.38 -1.96219 -3.35306 0
M  V30 14325 H 1341.05 -4.17296 -1.96626 0
M  V30 14326 H 1339.29 -3.95327 -1.78602 0
M  V30 14327 H 1339.96 -4.3765 -3.36403 0
M  V30 14328 H 1342.44 -2.44962 -3.36352 0
M  V30 14329 H 1341.32 -2.86183 -4.68392 0
M  V30 14330 H 1341.58 -1.17692 -4.26147 0
M  V30 14331 N 1340.64 0.999871 -1.21821 0
M  V30 14332 C 1341.88 1.7384 -1.03855 0
M  V30 14333 C 1342.21 1.89749 0.42727 0
M  V30 14334 O 1341.47 1.43261 1.33323 0
M  V30 14335 C 1341.77 3.1509 -1.6868 0
M  V30 14336 C 1341.43 3.19115 -3.18554 0
M  V30 14337 C 1340.09 3.19921 -3.5945 0
M  V30 14338 C 1342.45 3.15954 -4.14515 0
M  V30 14339 C 1339.77 3.15257 -4.94803 0
M  V30 14340 C 1342.13 3.12831 -5.49836 0
M  V30 14341 C 1340.79 3.11949 -5.90122 0
M  V30 14342 H 1340.06 0.636126 -0.380032 0
M  V30 14343 H 1342.71 1.17151 -1.51485 0
M  V30 14344 H 1341.01 3.75044 -1.13356 0
M  V30 14345 H 1342.71 3.70962 -1.52277 0
M  V30 14346 H 1339.3 3.19234 -2.85986 0
M  V30 14347 H 1343.48 3.14487 -3.83942 0
M  V30 14348 H 1338.74 3.12915 -5.25256 0
M  V30 14349 H 1342.91 3.09339 -6.23925 0
M  V30 14350 H 1340.54 3.0809 -6.94971 0
M  V30 14351 N 1342.11 1.02678 1.19562 0
M  V30 14352 C 1343.06 0.599259 2.24748 0
M  V30 14353 C 1344.06 -0.367079 1.65375 0
M  V30 14354 O 1345.26 -0.235887 1.78448 0
M  V30 14355 H 1341.64 0.175517 0.73123 0
M  V30 14356 H 1343.61 1.4971 2.58127 0
M  V30 14357 C 1342.36 -0.0362515 3.47681 0
M  V30 14358 H 1341.68 0.698343 3.93654 0
M  V30 14359 H 1343.12 -0.298361 4.22949 0
M  V30 14360 C 1341.58 -1.28218 3.11547 0
M  V30 14361 O 1342.11 -2.37446 3.24009 0
M  V30 14362 N 1340.32 -1.17014 2.66 0
M  V30 14363 H 1339.86 -0.28132 2.56059 0
M  V30 14364 H 1339.82 -2.00473 2.42194 0
M  V30 14365 N 1343.59 -1.35528 0.804364 0
M  V30 14366 C 1345 -1.81321 0.444933 0
M  V30 14367 C 1345.35 -1.66816 -1.03281 0
M  V30 14368 O 1344.48 -1.19753 -1.80245 0
M  V30 14369 C 1345.07 -3.29199 0.800827 0
M  V30 14370 C 1343.63 -3.73144 0.494026 0
M  V30 14371 C 1342.78 -2.57557 1.02761 0
M  V30 14372 H 1345.73 -1.23537 0.996203 0
M  V30 14373 H 1345.75 -3.80375 0.0975117 0
M  V30 14374 H 1345.26 -3.39725 1.8764 0
M  V30 14375 H 1343.37 -3.68169 -0.572901 0
M  V30 14376 H 1343.48 -4.68005 1.0251 0
M  V30 14377 H 1341.84 -2.50692 0.450048 0
M  V30 14378 H 1342.63 -2.70861 2.10925 0
M  V30 14379 N 1345.07 -0.557671 -1.47404 0
M  V30 14380 C 1346.49 -0.217473 -1.58111 0
M  V30 14381 C 1346.69 1.28 -1.55622 0
M  V30 14382 O 1345.74 2.06019 -1.45988 0
M  V30 14383 C 1347.06 -0.844535 -2.88597 0
M  V30 14384 C 1348.6 -0.815807 -3.02181 0
M  V30 14385 C 1349.08 -1.42195 -4.35367 0
M  V30 14386 N 1350.57 -1.38515 -4.42004 0
M  V30 14387 C 1351.31 -1.82378 -5.43623 0
M  V30 14388 N 1350.8 -2.34098 -6.52051 0
M  V30 14389 N 1352.59 -1.73446 -5.34671 0
M  V30 14390 H 1344.75 -1.53058 -1.47265 0
M  V30 14391 H 1347.01 -0.638305 -0.700907 0
M  V30 14392 H 1346.71 -1.89696 -2.96156 0
M  V30 14393 H 1346.59 -0.337844 -3.75684 0
M  V30 14394 H 1348.98 0.227925 -2.94218 0
M  V30 14395 H 1349.06 -1.36026 -2.16635 0
M  V30 14396 H 1348.7 -2.46475 -4.44086 0
M  V30 14397 H 1348.63 -0.852932 -5.19647 0
M  V30 14398 H 1351.12 -1.00684 -3.64241 0
M  V30 14399 H 1351.43 -2.6549 -7.25765 0
M  V30 14400 H 1349.78 -2.38109 -6.52939 0
M  V30 14401 H 1352.97 -1.32816 -4.48862 0
M  V30 14402 H 1353.14 -2.07947 -6.13728 0
M  V30 14403 N 1346.55 1.54831 -0.294147 0
M  V30 14404 C 1347.97 1.59489 0.0594489 0
M  V30 14405 C 1348.17 1.31121 1.53002 0
M  V30 14406 O 1347.22 1.08129 2.28176 0
M  V30 14407 C 1348.53 2.98858 -0.332323 0
M  V30 14408 C 1350.08 3.1174 -0.280518 0
M  V30 14409 C 1350.56 4.53407 -0.64701 0
M  V30 14410 N 1352.05 4.59307 -0.599284 0
M  V30 14411 C 1352.78 5.66983 -0.85542 0
M  V30 14412 N 1352.28 6.82726 -1.17717 0
M  V30 14413 N 1354.07 5.56621 -0.78294 0
M  V30 14414 H 1346.22 1.71532 -1.25262 0
M  V30 14415 H 1348.49 0.800801 -0.507368 0
M  V30 14416 H 1348.19 3.24517 -1.35578 0
M  V30 14417 H 1348.07 3.75862 0.317443 0
M  V30 14418 H 1350.45 2.85834 0.733683 0
M  V30 14419 H 1350.53 2.36907 -0.96481 0
M  V30 14420 H 1350.18 4.80042 -1.65899 0
M  V30 14421 H 1350.11 5.26567 0.0592796 0
M  V30 14422 H 1352.6 3.76169 -0.361259 0
M  V30 14423 H 1352.91 7.60761 -1.35877 0
M  V30 14424 H 1351.26 6.84295 -1.21513 0
M  V30 14425 H 1354.45 4.65075 -0.531282 0
M  V30 14426 H 1354.62 6.40456 -0.985929 0
M  V30 14427 N 1348.03 0.0217466 1.57585 0
M  V30 14428 C 1348.97 -0.962559 2.0977 0
M  V30 14429 C 1349.94 -1.32771 0.998053 0
M  V30 14430 O 1351.13 -1.42231 1.27181 0
M  V30 14431 C 1348.27 -2.24214 2.62339 0
M  V30 14432 C 1347.38 -1.9341 3.86286 0
M  V30 14433 C 1346.52 -3.15609 4.27275 0
M  V30 14434 C 1345.56 -2.8059 5.43999 0
M  V30 14435 N 1344.69 -3.95392 5.8018 0
M  V30 14436 H 1349.53 -0.510626 2.93593 0
M  V30 14437 H 1347.07 -0.240456 1.45121 0
M  V30 14438 H 1349.03 -2.99049 2.90905 0
M  V30 14439 H 1347.66 -2.67037 1.81358 0
M  V30 14440 H 1346.71 -1.08849 3.64494 0
M  V30 14441 H 1348.02 -1.63614 4.71203 0
M  V30 14442 H 1347.18 -3.9877 4.57239 0
M  V30 14443 H 1345.92 -3.48561 3.41111 0
M  V30 14444 H 1344.92 -1.9584 5.13738 0
M  V30 14445 H 1346.15 -2.48863 6.31858 0
M  V30 14446 H 1344.09 -4.282 4.96971 0
M  V30 14447 H 1344.01 -3.69195 6.59721 0
M  V30 14448 H 1345.28 -4.79279 6.14746 0
M  V30 14449 N 1349.51 -1.55583 -0.251311 0
M  V30 14450 C 1350.44 -1.9296 -1.31486 0
M  V30 14451 C 1351.42 -0.794001 -1.50431 0
M  V30 14452 O 1352.6 -1.05393 -1.63113 0
M  V30 14453 C 1349.73 -2.22046 -2.67045 0
M  V30 14454 C 1348.69 -3.37816 -2.62801 0
M  V30 14455 C 1348.01 -3.52433 -4.02113 0
M  V30 14456 C 1349.31 -4.73626 -2.20171 0
M  V30 14457 H 1351.01 -2.82046 -1.00451 0
M  V30 14458 H 1348.55 -1.35702 -0.481775 0
M  V30 14459 H 1350.5 -2.46783 -3.41579 0
M  V30 14460 H 1349.23 -1.29782 -2.99707 0
M  V30 14461 H 1347.89 -3.13081 -1.90724 0
M  V30 14462 H 1347.54 -2.57597 -4.32034 0
M  V30 14463 H 1347.24 -4.30283 -4.00163 0
M  V30 14464 H 1348.76 -3.79486 -4.78354 0
M  V30 14465 H 1350.17 -4.97764 -2.84436 0
M  V30 14466 H 1348.57 -5.54547 -2.29341 0
M  V30 14467 H 1349.64 -4.70985 -1.1533 0
M  V30 14468 N 1350.98 0.516783 -1.48886 0
M  V30 14469 C 1351.89 1.6467 -1.67095 0
M  V30 14470 C 1352.91 1.64963 -0.553466 0
M  V30 14471 O 1354.09 1.83673 -0.826206 0
M  V30 14472 C 1351.15 3.01095 -1.71879 0
M  V30 14473 C 1350.21 3.11554 -2.95352 0
M  V30 14474 C 1349.44 4.41471 -2.99898 0
M  V30 14475 O 1349.67 5.29348 -2.12477 0
M  V30 14476 O 1348.6 4.56573 -3.92205 0
M  V30 14477 H 1352.43 1.52242 -2.62785 0
M  V30 14478 H 1350.01 0.69134 -1.32442 0
M  V30 14479 H 1351.89 3.82207 -1.77471 0
M  V30 14480 H 1350.57 3.1382 -0.793656 0
M  V30 14481 H 1349.48 2.29689 -2.95286 0
M  V30 14482 H 1350.81 3.03751 -3.87294 0
M  V30 14483 N 1352.46 1.37696 0.766659 0
M  V30 14484 C 1353.71 1.33185 1.52539 0
M  V30 14485 C 1354.04 -0.0821239 1.94327 0
M  V30 14486 O 1353.29 -1.05645 1.64735 0
M  V30 14487 C 1353.59 2.22154 2.79968 0
M  V30 14488 C 1353.26 3.70344 2.57208 0
M  V30 14489 C 1351.92 4.10729 2.50709 0
M  V30 14490 C 1354.27 4.64205 2.36988 0
M  V30 14491 C 1351.6 5.43082 2.21988 0
M  V30 14492 C 1353.95 5.96801 2.0979 0
M  V30 14493 C 1352.61 6.36284 2.01739 0
M  V30 14494 H 1351.88 0.487357 0.558179 0
M  V30 14495 H 1354.53 1.69945 0.882662 0
M  V30 14496 H 1352.84 1.78406 3.48825 0
M  V30 14497 H 1354.53 2.15975 3.37869 0
M  V30 14498 H 1351.12 3.38319 2.63131 0
M  V30 14499 H 1355.31 4.3386 2.40996 0
M  V30 14500 H 1350.56 5.7263 2.14254 0
M  V30 14501 H 1354.74 6.6908 1.93145 0
M  V30 14502 H 1352.36 7.38765 1.79248 0
M  V30 14503 N 1353.94 -0.993397 1.22349 0
M  V30 14504 C 1354.9 -2.065 0.994506 0
M  V30 14505 C 1355.9 -1.60753 -0.0388766 0
M  V30 14506 O 1357.09 -1.73053 0.199578 0
M  V30 14507 C 1354.22 -3.37182 0.502088 0
M  V30 14508 H 1355.42 -2.28248 1.94533 0
M  V30 14509 H 1352.97 -1.16489 1.04211 0
M  V30 14510 H 1353.71 -3.21119 -0.453114 0
M  V30 14511 H 1353.49 -3.71721 1.24763 0
M  V30 14512 H 1354.98 -4.16027 0.362108 0
M  V30 14513 N 1355.42 -1.03311 -1.19015 0
M  V30 14514 C 1356.35 -0.638279 -2.24607 0
M  V30 14515 C 1357.33 0.354795 -1.66359 0
M  V30 14516 O 1358.51 0.236574 -1.92754 0
M  V30 14517 C 1355.64 0.00737316 -3.47299 0
M  V30 14518 C 1354.6 -0.908431 -4.18248 0
M  V30 14519 C 1353.92 -0.127658 -5.34548 0
M  V30 14520 C 1355.22 -2.2241 -4.72579 0
M  V30 14521 H 1356.92 -1.52099 -2.57888 0
M  V30 14522 H 1354.46 -0.732779 -1.23961 0
M  V30 14523 H 1356.42 0.295256 -4.20364 0
M  V30 14524 H 1355.14 0.924912 -3.1323 0
M  V30 14525 H 1353.8 -1.18058 -3.47071 0
M  V30 14526 H 1353.45 0.792048 -4.96725 0
M  V30 14527 H 1353.15 -0.737702 -5.82951 0
M  V30 14528 H 1354.67 0.153385 -6.10407 0
M  V30 14529 H 1356.09 -1.99745 -5.37378 0
M  V30 14530 H 1354.48 -2.78644 -5.31486 0
M  V30 14531 H 1355.55 -2.87584 -3.90415 0
M  V30 14532 N 1356.9 1.35099 -0.81154 0
M  V30 14533 C 1357.83 2.32264 -0.239925 0
M  V30 14534 C 1358.81 1.57708 0.637354 0
M  V30 14535 O 1359.99 1.85751 0.566598 0
M  V30 14536 C 1357.12 3.41931 0.608325 0
M  V30 14537 C 1356.08 4.27659 -0.170869 0
M  V30 14538 C 1355.4 5.28691 0.799398 0
M  V30 14539 C 1356.7 5.0394 -1.37266 0
M  V30 14540 H 1358.4 2.8032 -1.05172 0
M  V30 14541 H 1355.94 1.34773 -0.507185 0
M  V30 14542 H 1357.89 4.08911 1.01832 0
M  V30 14543 H 1356.62 2.92496 1.45306 0
M  V30 14544 H 1355.28 3.62265 -0.562094 0
M  V30 14545 H 1354.93 4.75521 1.63977 0
M  V30 14546 H 1354.63 5.86921 0.282331 0
M  V30 14547 H 1356.15 5.98542 1.20749 0
M  V30 14548 H 1357.56 5.63838 -1.03728 0
M  V30 14549 H 1355.96 5.7169 -1.82456 0
M  V30 14550 H 1357.03 4.34295 -2.15676 0
M  V30 14551 N 1358.37 0.56548 1.47106 0
M  V30 14552 C 1359.62 0.0445255 2.02451 0
M  V30 14553 C 1359.95 -1.30863 1.43893 0
M  V30 14554 O 1359.2 -1.8668 0.587274 0
M  V30 14555 C 1359.5 -0.0893776 3.57288 0
M  V30 14556 C 1359.17 1.19395 4.34805 0
M  V30 14557 C 1357.83 1.54558 4.55703 0
M  V30 14558 C 1360.18 2.04399 4.79448 0
M  V30 14559 C 1357.51 2.74557 5.18494 0
M  V30 14560 C 1359.86 3.23608 5.43563 0
M  V30 14561 C 1358.53 3.59074 5.62692 0
M  V30 14562 H 1357.8 0.016293 0.740821 0
M  V30 14563 H 1360.44 0.738657 1.76681 0
M  V30 14564 H 1358.75 -0.86653 3.82097 0
M  V30 14565 H 1360.45 -0.507943 3.9777 0
M  V30 14566 H 1357.04 0.910176 4.18824 0
M  V30 14567 H 1361.22 1.78539 4.63074 0
M  V30 14568 H 1356.48 3.02194 5.31497 0
M  V30 14569 H 1360.65 3.89755 5.77117 0
M  V30 14570 H 1358.28 4.5215 6.11117 0
M  V30 14571 N 1359.85 -1.54672 0.302354 0
M  V30 14572 C 1360.78 -2.2653 -0.566265 0
M  V30 14573 C 1361.76 -1.26532 -1.13682 0
M  V30 14574 O 1362.95 -1.55307 -1.1659 0
M  V30 14575 C 1360.08 -3.00709 -1.73757 0
M  V30 14576 C 1359.03 -4.07865 -1.29731 0
M  V30 14577 C 1358.36 -4.69767 -2.55388 0
M  V30 14578 C 1359.66 -5.20547 -0.427567 0
M  V30 14579 H 1361.35 -2.99382 0.033071 0
M  V30 14580 H 1358.9 -1.4399 0.0173458 0
M  V30 14581 H 1360.85 -3.497 -2.35134 0
M  V30 14582 H 1359.58 -2.25437 -2.36317 0
M  V30 14583 H 1358.23 -3.59726 -0.706586 0
M  V30 14584 H 1357.88 -3.91134 -3.16265 0
M  V30 14585 H 1357.58 -5.42137 -2.26631 0
M  V30 14586 H 1359.11 -5.21521 -3.17566 0
M  V30 14587 H 1360.52 -5.65424 -0.947053 0
M  V30 14588 H 1358.92 -5.99645 -0.233704 0
M  V30 14589 H 1359.99 -4.81805 0.546993 0
M  V30 14590 N 1361.33 -0.0301034 -1.57571 0
M  V30 14591 C 1362.58 0.649283 -1.92125 0
M  V30 14592 C 1362.91 1.71722 -0.90692 0
M  V30 14593 O 1362.18 1.94373 0.0702019 0
M  V30 14594 C 1362.47 1.26482 -3.37156 0
M  V30 14595 C 1362.32 0.206375 -4.49326 0
M  V30 14596 C 1363.64 2.18256 -3.82168 0
M  V30 14597 H 1360.76 0.234561 -0.698678 0
M  V30 14598 H 1363.4 -0.0875634 -1.89798 0
M  V30 14599 H 1361.55 1.89283 -3.3927 0
M  V30 14600 H 1363.22 -0.424268 -4.59345 0
M  V30 14601 H 1361.47 -0.468035 -4.31268 0
M  V30 14602 H 1362.14 0.676689 -5.47837 0
M  V30 14603 H 1364.61 1.65441 -3.81797 0
M  V30 14604 H 1363.49 2.58277 -4.84339 0
M  V30 14605 H 1363.75 3.07411 -3.17727 0
M  V30 14606 N 1362.81 1.55714 0.243056 0
M  V30 14607 C 1364.06 1.77726 0.970555 0
M  V30 14608 C 1364.38 0.595108 1.85172 0
M  V30 14609 O 1363.64 -0.42143 1.91108 0
M  V30 14610 C 1363.94 3.05281 1.85845 0
M  V30 14611 C 1363.6 4.36451 1.13232 0
M  V30 14612 C 1362.27 4.72095 0.931656 0
M  V30 14613 C 1364.62 5.17524 0.617944 0
M  V30 14614 C 1361.95 5.86344 0.204373 0
M  V30 14615 C 1364.3 6.32527 -0.0958899 0
M  V30 14616 C 1362.96 6.66789 -0.308 0
M  V30 14617 H 1362.23 0.650345 0.355151 0
M  V30 14618 H 1364.88 1.89986 0.240351 0
M  V30 14619 H 1363.18 2.8805 2.65584 0
M  V30 14620 H 1364.88 3.19511 2.4231 0
M  V30 14621 H 1361.47 4.08451 1.29867 0
M  V30 14622 H 1365.65 4.90439 0.760507 0
M  V30 14623 H 1360.91 6.11393 0.0296 0
M  V30 14624 H 1365.08 6.94588 -0.502077 0
M  V30 14625 H 1362.71 7.55165 -0.873502 0
M  V30 14626 N 1364.29 -0.50888 1.49158 0
M  V30 14627 C 1365.56 -1.27021 1.48745 0
M  V30 14628 C 1365.94 -2.10045 0.210772 0
M  V30 14629 O 1365.29 -2.13773 -0.807061 0
M  V30 14630 C 1365.5 -2.13367 2.76181 0
M  V30 14631 C 1366.85 -2.72815 3.25357 0
M  V30 14632 O 1367.87 -2.23639 2.77243 0
M  V30 14633 O 1366.73 -3.62316 4.09133 0
M  V30 14634 H 1363.83 -0.574387 0.594986 0
M  V30 14635 H 1366.37 -0.523798 1.61414 0
M  V30 14636 H 1365.14 -1.51941 3.60596 0
M  V30 14637 H 1364.77 -2.95215 2.66334 0
M  V30 14638 N 1365.76 -1.381 -0.759346 0
M  V30 14639 C 1366.67 -1.37086 -1.9038 0
M  V30 14640 C 1367.69 -0.268738 -1.71912 0
M  V30 14641 O 1368.87 -0.506205 -1.94935 0
M  V30 14642 C 1365.93 -1.18905 -3.25672 0
M  V30 14643 C 1364.99 -2.3887 -3.56707 0
M  V30 14644 C 1364.23 -2.21546 -4.85544 0
M  V30 14645 O 1364.45 -1.20616 -5.57501 0
M  V30 14646 O 1363.38 -3.10009 -5.15924 0
M  V30 14647 H 1367.21 -2.33505 -1.94188 0
M  V30 14648 H 1364.79 -1.18959 -0.903826 0
M  V30 14649 H 1366.68 -1.10803 -4.06572 0
M  V30 14650 H 1365.35 -0.255675 -3.22689 0
M  V30 14651 H 1364.26 -2.52546 -2.75992 0
M  V30 14652 H 1365.59 -3.30817 -3.64446 0
M  V30 14653 N 1367.24 0.986894 -1.22875 0
M  V30 14654 C 1368.19 2.09935 -1.00151 0
M  V30 14655 C 1369.18 1.69303 0.0573751 0
M  V30 14656 O 1370.39 1.79746 -0.0955781 0
M  V30 14657 H 1366.77 0.686605 -0.306721 0
M  V30 14658 H 1368.74 2.26271 -1.94535 0
M  V30 14659 C 1367.49 3.42442 -0.602374 0
M  V30 14660 H 1366.81 3.74154 -1.40886 0
M  V30 14661 H 1368.25 4.21242 -0.482836 0
M  V30 14662 C 1366.71 3.29785 0.688707 0
M  V30 14663 O 1367.24 3.6208 1.73957 0
M  V30 14664 N 1365.44 2.82956 0.662152 0
M  V30 14665 H 1364.99 2.56873 -0.193337 0
M  V30 14666 H 1364.95 2.74869 1.52625 0
M  V30 14667 N 1368.72 1.0394 1.18466 0
M  V30 14668 C 1369.63 0.639714 2.2571 0
M  V30 14669 C 1370.65 -0.333431 1.70775 0
M  V30 14670 O 1371.82 -0.188676 2.00514 0
M  V30 14671 C 1368.89 0.007559 3.46699 0
M  V30 14672 C 1367.95 1.02955 4.16772 0
M  V30 14673 C 1367.18 0.427464 5.31985 0
M  V30 14674 O 1367.4 -0.766684 5.65224 0
M  V30 14675 O 1366.34 1.15553 5.90704 0
M  V30 14676 H 1370.16 1.53316 2.6216 0
M  V30 14677 H 1367.75 0.810206 1.25523 0
M  V30 14678 H 1369.63 -0.344404 4.1999 0
M  V30 14679 H 1368.31 -0.859727 3.12074 0
M  V30 14680 H 1367.21 1.43328 3.45554 0
M  V30 14681 H 1368.55 1.86756 4.55393 0
M  V30 14682 N 1370.2 -1.34667 0.818693 0
M  V30 14683 C 1371.42 -2.03173 0.416585 0
M  V30 14684 C 1371.85 -1.61261 -0.968321 0
M  V30 14685 O 1371.21 -0.79517 -1.62932 0
M  V30 14686 C 1371.25 -3.56803 0.521884 0
M  V30 14687 O 1370.36 -4.09827 -0.459953 0
M  V30 14688 H 1369.7 -0.6413 0.172136 0
M  V30 14689 H 1372.23 -1.72006 1.10794 0
M  V30 14690 H 1372.24 -4.06073 0.3961 0
M  V30 14691 H 1370.91 -3.86656 1.53198 0
M  V30 14692 H 1369.49 -3.71744 -0.293405 0
M  V30 14693 N 1371.68 -0.573274 -1.46804 0
M  V30 14694 C 1372.92 -0.0636394 -2.033 0
M  V30 14695 C 1373.28 1.27833 -1.43793 0
M  V30 14696 O 1372.57 1.82286 -0.590126 0
M  V30 14697 C 1372.76 0.0704285 -3.57331 0
M  V30 14698 C 1372.59 -1.257 -4.31775 0
M  V30 14699 C 1371.36 -1.82862 -4.71051 0
M  V30 14700 C 1373.56 -2.178 -4.65905 0
M  V30 14701 N 1371.54 -3.09442 -5.30206 0
M  V30 14702 C 1372.91 -3.28964 -5.25531 0
M  V30 14703 C 1374.97 -2.17597 -4.47835 0
M  V30 14704 C 1373.67 -4.40044 -5.68993 0
M  V30 14705 C 1375.7 -3.277 -4.92307 0
M  V30 14706 C 1375.06 -4.37584 -5.51996 0
M  V30 14707 H 1371.16 -0.065839 -0.779223 0
M  V30 14708 H 1373.74 -0.764099 -1.7908 0
M  V30 14709 H 1371.91 0.740038 -3.81285 0
M  V30 14710 H 1373.65 0.583588 -4.0047 0
M  V30 14711 H 1370.4 -1.36467 -4.53513 0
M  V30 14712 H 1370.83 -3.74004 -5.64314 0
M  V30 14713 H 1375.47 -1.33919 -4.01031 0
M  V30 14714 H 1373.19 -5.24471 -6.14781 0
M  V30 14715 H 1376.77 -3.2865 -4.80084 0
M  V30 14716 H 1375.65 -5.21375 -5.85779 0
M  V30 14717 N 1373.15 1.5451 -0.310553 0
M  V30 14718 C 1374.38 2.04442 0.297807 0
M  V30 14719 C 1374.79 1.18695 1.47337 0
M  V30 14720 O 1374.14 0.207405 1.82525 0
M  V30 14721 C 1374.2 3.50306 0.807851 0
M  V30 14722 C 1373.86 4.5635 -0.24369 0
M  V30 14723 C 1374.86 5.08656 -1.07539 0
M  V30 14724 C 1372.54 5.00798 -0.388138 0
M  V30 14725 C 1374.54 6.03961 -2.03738 0
M  V30 14726 C 1372.22 5.95921 -1.35357 0
M  V30 14727 C 1373.22 6.47387 -2.17667 0
M  V30 14728 O 1372.91 7.40644 -3.12571 0
M  V30 14729 H 1372.64 0.672646 0.0672525 0
M  V30 14730 H 1375.2 2.00389 -0.450948 0
M  V30 14731 H 1373.43 3.51714 1.6073 0
M  V30 14732 H 1375.12 3.83383 1.33314 0
M  V30 14733 H 1375.88 4.75105 -0.97471 0
M  V30 14734 H 1371.76 4.60361 0.242608 0
M  V30 14735 H 1375.3 6.44057 -2.68023 0
M  V30 14736 H 1371.2 6.2889 -1.45493 0
M  V30 14737 H 1371.97 7.58477 -3.0766 0
M  V30 14738 N 1374.63 0.0384594 1.57553 0
M  V30 14739 C 1375.56 -0.938444 2.13812 0
M  V30 14740 C 1376.54 -1.33307 1.05657 0
M  V30 14741 O 1377.73 -1.41003 1.33535 0
M  V30 14742 C 1374.86 -2.21764 2.67279 0
M  V30 14743 C 1373.81 -1.96347 3.80305 0
M  V30 14744 C 1373.14 -3.30612 4.20238 0
M  V30 14745 C 1374.44 -1.2952 5.05986 0
M  V30 14746 H 1376.13 -0.469887 2.9569 0
M  V30 14747 H 1373.68 -0.224576 1.42238 0
M  V30 14748 H 1375.63 -2.90493 3.05273 0
M  V30 14749 H 1374.36 -2.70802 1.82576 0
M  V30 14750 H 1373.02 -1.30033 3.42764 0
M  V30 14751 H 1372.66 -3.77427 3.32502 0
M  V30 14752 H 1372.36 -3.14409 4.96408 0
M  V30 14753 H 1373.89 -4.00594 4.60822 0
M  V30 14754 H 1375.3 -1.88264 5.41507 0
M  V30 14755 H 1373.7 -1.23685 5.87216 0
M  V30 14756 H 1374.77 -0.269439 4.84151 0
M  V30 14757 N 1376.11 -1.55841 -0.234795 0
M  V30 14758 C 1377.39 -1.69008 -0.984665 0
M  V30 14759 C 1377.77 -0.581882 -2.02922 0
M  V30 14760 O 1377.12 0.412998 -2.24737 0
M  V30 14761 C 1377.33 -3.09796 -1.60708 0
M  V30 14762 C 1378.67 -3.68784 -2.10436 0
M  V30 14763 O 1379.7 -3.12674 -1.70627 0
M  V30 14764 O 1378.56 -4.67175 -2.83567 0
M  V30 14765 H 1375.65 -0.68786 -0.459105 0
M  V30 14766 H 1378.2 -1.68166 -0.227623 0
M  V30 14767 H 1376.97 -3.81908 -0.852169 0
M  V30 14768 H 1376.59 -3.147 -2.43001 0
M  V30 14769 N 1377.59 0.500963 -1.49426 0
M  V30 14770 C 1378.87 1.26231 -1.49416 0
M  V30 14771 C 1379.25 2.0993 -0.221908 0
M  V30 14772 O 1378.59 2.14198 0.795712 0
M  V30 14773 C 1378.8 2.11899 -2.77308 0
M  V30 14774 C 1380.15 2.71086 -3.26799 0
M  V30 14775 O 1381.18 2.22166 -2.78425 0
M  V30 14776 O 1380.04 3.60141 -4.11049 0
M  V30 14777 H 1377.13 0.571224 -0.598024 0
M  V30 14778 H 1379.68 0.51523 -1.61689 0
M  V30 14779 H 1378.45 1.50027 -3.61397 0
M  V30 14780 H 1378.07 2.93799 -2.67896 0
M  V30 14781 N 1379.07 1.38501 0.752011 0
M  V30 14782 C 1380.02 1.35975 1.88716 0
M  V30 14783 C 1381.01 0.245392 1.67613 0
M  V30 14784 O 1382.22 0.414514 1.75162 0
M  V30 14785 H 1378.59 0.424221 0.620919 0
M  V30 14786 H 1380.56 2.3176 1.87962 0
M  V30 14787 C 1379.31 1.20326 3.26216 0
M  V30 14788 H 1378.63 2.05336 3.43041 0
M  V30 14789 H 1380.07 1.22613 4.05884 0
M  V30 14790 C 1378.53 -0.0897029 3.36781 0
M  V30 14791 O 1379.06 -1.06615 3.87293 0
M  V30 14792 N 1377.27 -0.147065 2.90228 0
M  V30 14793 H 1376.82 0.648216 2.49311 0
M  V30 14794 H 1376.77 -1.01174 2.97676 0
M  V30 14795 N 1380.55 -0.980364 1.23396 0
M  V30 14796 C 1381.79 -1.71592 1.06015 0
M  V30 14797 C 1382.11 -1.91401 -0.403103 0
M  V30 14798 O 1383.31 -2.62405 -0.696853 0
M  V30 14799 C 1381.77 -3.08795 1.84861 0
M  V30 14800 C 1381.38 -2.96873 3.35515 0
M  V30 14801 C 1383.12 -3.8631 1.75968 0
M  V30 14802 C 1381.03 -4.29308 4.06753 0
M  V30 14803 H 1379.96 -0.643423 0.393095 0
M  V30 14804 H 1382.61 -1.09345 1.47363 0
M  V30 14805 H 1380.99 -3.71797 1.36318 0
M  V30 14806 H 1382.17 -2.4296 3.91544 0
M  V30 14807 H 1380.48 -2.32833 3.45221 0
M  V30 14808 H 1383.08 -4.84355 2.26504 0
M  V30 14809 H 1383.42 -4.09983 0.722464 0
M  V30 14810 H 1383.95 -3.3001 2.22122 0
M  V30 14811 H 1380.69 -4.10831 5.10782 0
M  V30 14812 H 1380.21 -4.83086 3.55511 0
M  V30 14813 H 1381.89 -4.97995 4.1305 0
M  V30 14814 N 1382.02 -1.04567 -1.17913 0
M  V30 14815 C 1382.97 -0.641119 -2.21717 0
M  V30 14816 C 1383.94 0.353585 -1.62293 0
M  V30 14817 O 1385.13 0.246427 -1.89202 0
M  V30 14818 C 1382.27 -0.0154726 -3.45097 0
M  V30 14819 C 1381.38 -1.05825 -4.18838 0
M  V30 14820 C 1380.51 -0.400588 -5.29687 0
M  V30 14821 C 1379.55 -1.42811 -5.95207 0
M  V30 14822 N 1378.69 -0.795059 -6.97584 0
M  V30 14823 H 1383.53 -1.5308 -2.55676 0
M  V30 14824 H 1381.07 -0.765715 -1.25599 0
M  V30 14825 H 1383.02 0.364653 -4.15603 0
M  V30 14826 H 1381.65 0.837704 -3.11741 0
M  V30 14827 H 1380.71 -1.55627 -3.47109 0
M  V30 14828 H 1382.02 -1.83849 -4.63682 0
M  V30 14829 H 1381.17 0.0334682 -6.06691 0
M  V30 14830 H 1379.91 0.411696 -4.85959 0
M  V30 14831 H 1378.92 -1.87225 -5.1694 0
M  V30 14832 H 1380.14 -2.24218 -6.41017 0
M  V30 14833 H 1378.09 -0.00317202 -6.56 0
M  V30 14834 H 1378 -1.51293 -7.40707 0
M  V30 14835 H 1379.27 -0.385567 -7.78546 0
M  V30 14836 N 1383.5 1.34231 -0.825823 0
M  V30 14837 C 1384.73 2.02417 -0.428348 0
M  V30 14838 C 1385.14 1.62181 0.966573 0
M  V30 14839 O 1384.5 0.828691 1.62601 0
M  V30 14840 C 1384.55 3.57678 -0.524271 0
M  V30 14841 O 1384.27 3.96458 -1.86422 0
M  V30 14842 C 1385.77 4.43132 -0.122069 0
M  V30 14843 H 1382.99 0.648699 -0.171554 0
M  V30 14844 H 1385.54 1.71443 -1.11478 0
M  V30 14845 H 1383.69 3.87232 0.114112 0
M  V30 14846 H 1384.11 4.91147 -1.84051 0
M  V30 14847 H 1385.58 5.51477 -0.240264 0
M  V30 14848 H 1386.06 4.29139 0.934705 0
M  V30 14849 H 1386.66 4.18912 -0.734366 0
M  V30 14850 N 1384.98 0.581051 1.46498 0
M  V30 14851 C 1386.21 0.0714615 2.06476 0
M  V30 14852 C 1386.62 -1.23815 1.43061 0
M  V30 14853 O 1385.96 -1.75903 0.529504 0
M  V30 14854 C 1386.02 -0.170353 3.59096 0
M  V30 14855 C 1385.69 1.05341 4.44694 0
M  V30 14856 C 1386.68 1.96503 4.81334 0
M  V30 14857 C 1384.37 1.27479 4.85854 0
M  V30 14858 C 1386.36 3.08154 5.57961 0
M  V30 14859 C 1384.05 2.39434 5.62241 0
M  V30 14860 C 1385.05 3.29601 5.98207 0
M  V30 14861 O 1384.74 4.39612 6.7305 0
M  V30 14862 H 1384.47 0.0537502 0.67386 0
M  V30 14863 H 1387.02 0.800993 1.89138 0
M  V30 14864 H 1385.25 -0.954477 3.74735 0
M  V30 14865 H 1386.94 -0.628248 4.01009 0
M  V30 14866 H 1387.71 1.80615 4.50115 0
M  V30 14867 H 1383.59 0.582051 4.57311 0
M  V30 14868 H 1387.13 3.78557 5.85953 0
M  V30 14869 H 1383.03 2.55286 5.92874 0
M  V30 14870 H 1383.79 4.37959 6.91473 0
M  V30 14871 N 1386.46 -1.54343 0.318742 0
M  V30 14872 C 1387.68 -2.05361 -0.290126 0
M  V30 14873 C 1388.11 -1.19362 -1.45376 0
M  V30 14874 O 1387.47 -0.201639 -1.80175 0
M  V30 14875 C 1387.51 -3.53601 -0.707025 0
M  V30 14876 O 1386.62 -3.70561 -1.80992 0
M  V30 14877 H 1385.96 -0.661858 -0.0532933 0
M  V30 14878 H 1388.49 -1.99228 0.46575 0
M  V30 14879 H 1388.5 -3.95782 -0.991005 0
M  V30 14880 H 1387.17 -4.1565 0.144091 0
M  V30 14881 H 1385.75 -3.40286 -1.52513 0
M  V30 14882 N 1387.94 -0.0468143 -1.5753 0
M  V30 14883 C 1389.21 0.667567 -1.83856 0
M  V30 14884 C 1389.59 1.89297 -0.934346 0
M  V30 14885 O 1388.94 2.28499 0.00570067 0
M  V30 14886 C 1389.15 1.029 -3.33485 0
M  V30 14887 C 1390.5 1.41315 -4.00394 0
M  V30 14888 O 1391.52 1.12147 -3.38085 0
M  V30 14889 O 1390.38 1.95732 -5.10246 0
M  V30 14890 H 1387.48 0.329112 -0.758692 0
M  V30 14891 H 1390.02 -0.0758456 -1.6953 0
M  V30 14892 H 1388.79 0.157617 -3.90982 0
M  V30 14893 H 1388.42 1.83 -3.52982 0
M  V30 14894 N 1389.41 1.55964 0.226527 0
M  V30 14895 C 1390.36 1.88403 1.28406 0
M  V30 14896 C 1391.35 0.746656 1.42527 0
M  V30 14897 O 1392.54 1.00898 1.45425 0
M  V30 14898 C 1389.67 2.19992 2.63549 0
M  V30 14899 C 1388.76 3.40109 2.5335 0
M  V30 14900 N 1389.15 4.58858 2.12798 0
M  V30 14901 C 1387.44 3.43625 2.8432 0
M  V30 14902 C 1388.15 5.41013 2.13729 0
M  V30 14903 N 1387.12 4.80596 2.54025 0
M  V30 14904 H 1390.92 2.77732 0.961352 0
M  V30 14905 H 1388.44 1.56463 0.435104 0
M  V30 14906 H 1390.43 2.41405 3.39896 0
M  V30 14907 H 1389.09 1.31973 2.9667 0
M  V30 14908 H 1390.11 4.84108 1.8401 0
M  V30 14909 H 1386.78 2.65935 3.21846 0
M  V30 14910 H 1388.17 6.4606 1.84543 0
M  V30 14911 N 1390.89 -0.493031 1.4969 0
M  V30 14912 C 1392.3 -1.0744 1.52688 0
M  V30 14913 C 1392.65 -1.93612 0.317652 0
M  V30 14914 O 1391.78 -2.0871 -0.571745 0
M  V30 14915 C 1392.37 -1.95523 2.76688 0
M  V30 14916 C 1390.93 -2.48808 2.82438 0
M  V30 14917 C 1390.08 -1.26617 2.46705 0
M  V30 14918 H 1393.03 -0.276589 1.56271 0
M  V30 14919 H 1393.05 -2.80315 2.57301 0
M  V30 14920 H 1392.56 -1.32779 3.6468 0
M  V30 14921 H 1390.67 -3.15168 1.98746 0
M  V30 14922 H 1390.78 -2.85416 3.84805 0
M  V30 14923 H 1389.14 -1.59396 1.98658 0
M  V30 14924 H 1389.93 -0.655695 3.3698 0
M  V30 14925 N 1392.37 -1.38898 -0.744656 0
M  V30 14926 C 1393.28 -1.39098 -1.88915 0
M  V30 14927 C 1394.3 -0.286956 -1.71617 0
M  V30 14928 O 1395.47 -0.526852 -1.94387 0
M  V30 14929 C 1392.54 -1.22352 -3.24393 0
M  V30 14930 C 1391.6 -2.4264 -3.54153 0
M  V30 14931 C 1390.83 -2.26683 -4.83167 0
M  V30 14932 O 1391.05 -1.26523 -5.56191 0
M  V30 14933 O 1389.99 -3.15464 -5.12607 0
M  V30 14934 H 1393.81 -2.35551 -1.91701 0
M  V30 14935 H 1391.4 -1.19911 -0.891158 0
M  V30 14936 H 1393.28 -1.15109 -4.05374 0
M  V30 14937 H 1391.96 -0.289886 -3.22399 0
M  V30 14938 H 1390.86 -2.55459 -2.73298 0
M  V30 14939 H 1392.2 -3.34664 -3.60917 0
M  V30 14940 N 1393.85 0.973806 -1.23914 0
M  V30 14941 C 1394.8 2.06734 -1.02614 0
M  V30 14942 C 1395.77 1.65997 0.0585705 0
M  V30 14943 O 1396.95 1.90564 -0.0948467 0
M  V30 14944 C 1394.09 3.39292 -0.630493 0
M  V30 14945 C 1393.2 3.9326 -1.78803 0
M  V30 14946 C 1392.34 5.14059 -1.33854 0
M  V30 14947 C 1391.38 5.60209 -2.46642 0
M  V30 14948 N 1390.51 6.72232 -2.02603 0
M  V30 14949 H 1395.35 2.24287 -1.96212 0
M  V30 14950 H 1392.89 1.09935 -0.977376 0
M  V30 14951 H 1394.85 4.15446 -0.382163 0
M  V30 14952 H 1393.48 3.21682 0.268483 0
M  V30 14953 H 1392.53 3.13801 -2.15019 0
M  V30 14954 H 1393.84 4.23475 -2.63573 0
M  V30 14955 H 1393 5.97567 -1.04873 0
M  V30 14956 H 1391.74 4.85513 -0.46131 0
M  V30 14957 H 1390.74 4.75278 -2.7639 0
M  V30 14958 H 1391.97 5.90771 -3.34912 0
M  V30 14959 H 1389.91 6.45433 -1.17269 0
M  V30 14960 H 1389.83 7.01865 -2.80929 0
M  V30 14961 H 1391.1 7.59198 -1.76745 0
M  V30 14962 N 1395.33 1.05191 1.17357 0
M  V30 14963 C 1396.57 0.763113 1.87895 0
M  V30 14964 C 1396.91 -0.708071 1.80831 0
M  V30 14965 O 1396.18 -1.51777 1.21631 0
M  V30 14966 C 1396.46 1.2442 3.37923 0
M  V30 14967 C 1396.32 2.77832 3.53737 0
M  V30 14968 C 1397.64 0.843209 4.31947 0
M  V30 14969 H 1394.75 0.27869 0.682276 0
M  V30 14970 H 1397.4 1.3059 1.38008 0
M  V30 14971 H 1395.55 0.782438 3.80539 0
M  V30 14972 H 1397.22 3.32131 3.20135 0
M  V30 14973 H 1395.46 3.17108 2.96015 0
M  V30 14974 H 1396.13 3.06555 4.59052 0
M  V30 14975 H 1398.61 1.24073 3.97171 0
M  V30 14976 H 1397.48 1.20743 5.35455 0
M  V30 14977 H 1397.75 -0.252802 4.41377 0
M  V30 14978 N 1396.8 -1.33791 0.83293 0
M  V30 14979 C 1397.75 -2.31249 0.250357 0
M  V30 14980 C 1398.75 -1.57865 -0.614403 0
M  V30 14981 O 1399.95 -1.72782 -0.504627 0
M  V30 14982 H 1396.33 -0.749421 0.0622268 0
M  V30 14983 H 1398.3 -2.77899 1.08697 0
M  V30 14984 C 1397.05 -3.43082 -0.564783 0
M  V30 14985 H 1396.37 -3.99696 0.0913189 0
M  V30 14986 H 1397.81 -4.13486 -0.938351 0
M  V30 14987 C 1396.27 -2.88414 -1.74124 0
M  V30 14988 O 1396.8 -2.84113 -2.83976 0
M  V30 14989 N 1395.01 -2.45101 -1.56121 0
M  V30 14990 H 1394.55 -2.48799 -0.667607 0
M  V30 14991 H 1394.51 -2.08875 -2.34986 0
M  V30 14992 N 1398.28 -0.588812 -1.46187 0
M  V30 14993 C 1399.23 0.140932 -2.30369 0
M  V30 14994 C 1400.2 0.878216 -1.40984 0
M  V30 14995 O 1401.38 0.867678 -1.69929 0
M  V30 14996 C 1398.52 1.14468 -3.25563 0
M  V30 14997 C 1397.64 0.410215 -4.30048 0
M  V30 14998 C 1396.77 1.40203 -5.12364 0
M  V30 14999 C 1395.81 0.65431 -6.08593 0
M  V30 15000 N 1394.95 1.59448 -6.83755 0
M  V30 15001 H 1399.79 -0.582976 -2.92242 0
M  V30 15002 H 1397.33 -0.299302 -1.44023 0
M  V30 15003 H 1399.28 1.73957 -3.79203 0
M  V30 15004 H 1397.91 1.83623 -2.65485 0
M  V30 15005 H 1396.97 -0.299822 -3.79217 0
M  V30 15006 H 1398.28 -0.174043 -4.98496 0
M  V30 15007 H 1397.43 2.06953 -5.70312 0
M  V30 15008 H 1396.17 2.02022 -4.4389 0
M  V30 15009 H 1395.18 -0.0269371 -5.49793 0
M  V30 15010 H 1396.4 0.0414285 -6.79087 0
M  V30 15011 H 1394.35 2.20066 -6.17986 0
M  V30 15012 H 1394.26 1.06318 -7.48487 0
M  V30 15013 H 1395.53 2.25215 -7.46256 0
M  V30 15014 N 1399.76 1.54172 -0.326923 0
M  V30 15015 C 1401.04 1.92812 0.329078 0
M  V30 15016 C 1401.42 1.25687 1.69605 0
M  V30 15017 O 1400.77 0.401779 2.2494 0
M  V30 15018 C 1400.98 3.46488 0.417949 0
M  V30 15019 C 1402.32 4.19174 0.67665 0
M  V30 15020 O 1403.35 3.52663 0.500735 0
M  V30 15021 O 1402.21 5.36968 1.01625 0
M  V30 15022 H 1399.3 0.805214 0.188573 0
M  V30 15023 H 1401.85 1.65462 -0.376884 0
M  V30 15024 H 1400.62 3.87528 -0.541986 0
M  V30 15025 H 1400.24 3.79954 1.17136 0
M  V30 15026 N 1401.24 0.0551678 1.57503 0
M  V30 15027 C 1402.52 -0.657808 1.84207 0
M  V30 15028 C 1402.9 -1.88798 0.944372 0
M  V30 15029 O 1402.24 -2.28499 0.00641728 0
M  V30 15030 C 1402.45 -1.0113 3.34026 0
M  V30 15031 C 1403.8 -1.39189 4.01138 0
M  V30 15032 O 1404.83 -1.10353 3.38675 0
M  V30 15033 O 1403.68 -1.93023 5.11277 0
M  V30 15034 H 1400.78 -0.325084 0.760427 0
M  V30 15035 H 1403.32 0.0848352 1.69488 0
M  V30 15036 H 1402.1 -0.13688 3.91061 0
M  V30 15037 H 1401.72 -1.81126 3.53948 0
M  V30 15038 N 1402.72 -1.56081 -0.218252 0
M  V30 15039 C 1403.63 -1.95856 -1.29141 0
M  V30 15040 C 1404.64 -0.862857 -1.51099 0
M  V30 15041 O 1405.82 -1.1667 -1.64165 0
M  V30 15042 C 1402.88 -2.27005 -2.62049 0
M  V30 15043 C 1401.94 -3.50162 -2.48365 0
M  V30 15044 C 1401.18 -3.79815 -3.74935 0
M  V30 15045 O 1401.4 -3.11095 -4.78096 0
M  V30 15046 O 1400.33 -4.73299 -3.71849 0
M  V30 15047 H 1404.16 -2.8732 -0.983922 0
M  V30 15048 H 1401.75 -1.43334 -0.421385 0
M  V30 15049 H 1403.63 -2.4822 -3.40536 0
M  V30 15050 H 1402.3 -1.38715 -2.92472 0
M  V30 15051 H 1401.21 -3.34222 -1.68066 0
M  V30 15052 H 1402.54 -4.38845 -2.22881 0
M  V30 15053 N 1404.2 0.485086 -1.49949 0
M  V30 15054 C 1405.11 1.61089 -1.70551 0
M  V30 15055 C 1406.12 1.63752 -0.588333 0
M  V30 15056 O 1407.3 1.81879 -0.86498 0
M  V30 15057 C 1404.36 2.97382 -1.78227 0
M  V30 15058 C 1403.42 3.05219 -3.01894 0
M  V30 15059 C 1402.66 4.35011 -3.09195 0
M  V30 15060 O 1402.88 5.24722 -2.23658 0
M  V30 15061 O 1401.81 4.48151 -4.01802 0
M  V30 15062 H 1405.64 1.46633 -2.65956 0
M  V30 15063 H 1403.22 0.663091 -1.33879 0
M  V30 15064 H 1405.11 3.78356 -1.85538 0
M  V30 15065 H 1403.78 3.12066 -0.860043 0
M  V30 15066 H 1402.69 2.23373 -3.00092 0
M  V30 15067 H 1404.02 2.95467 -3.93649 0
M  V30 15068 N 1405.67 1.39291 0.737279 0
M  V30 15069 C 1406.92 1.3639 1.49679 0
M  V30 15070 C 1407.25 -0.0408859 1.94457 0
M  V30 15071 O 1406.5 -1.02127 1.66939 0
M  V30 15072 C 1406.8 2.28043 2.75193 0
M  V30 15073 C 1406.47 3.75717 2.49294 0
M  V30 15074 C 1405.13 4.15955 2.41941 0
M  V30 15075 C 1407.48 4.69127 2.27088 0
M  V30 15076 C 1404.81 5.47669 2.10419 0
M  V30 15077 C 1407.16 6.01116 1.97084 0
M  V30 15078 C 1405.83 6.4042 1.88197 0
M  V30 15079 H 1405.1 0.499088 0.547716 0
M  V30 15080 H 1407.74 1.71779 0.846416 0
M  V30 15081 H 1406.05 1.85765 3.44962 0
M  V30 15082 H 1407.75 2.23093 3.33212 0
M  V30 15083 H 1404.34 3.43825 2.55896 0
M  V30 15084 H 1408.52 4.38875 2.31739 0
M  V30 15085 H 1403.78 5.77046 2.02059 0
M  V30 15086 H 1407.95 6.73026 1.78909 0
M  V30 15087 H 1405.58 7.42401 1.63537 0
M  V30 15088 N 1407.15 -0.967221 1.24429 0
M  V30 15089 C 1408.4 -1.70458 1.07829 0
M  V30 15090 C 1408.71 -1.91818 -0.38278 0
M  V30 15091 O 1409.92 -2.63129 -0.668982 0
M  V30 15092 C 1408.38 -3.06817 1.88125 0
M  V30 15093 C 1407.98 -2.93298 3.38645 0
M  V30 15094 C 1409.73 -3.84422 1.80056 0
M  V30 15095 C 1407.63 -4.2497 4.11284 0
M  V30 15096 H 1406.56 -0.639217 0.399897 0
M  V30 15097 H 1409.22 -1.07776 1.48515 0
M  V30 15098 H 1407.6 -3.70331 1.40254 0
M  V30 15099 H 1408.77 -2.38793 3.94099 0
M  V30 15100 H 1407.09 -2.29159 3.47671 0
M  V30 15101 H 1409.68 -4.81925 2.31629 0
M  V30 15102 H 1410.03 -4.09194 0.765908 0
M  V30 15103 H 1410.56 -3.27636 2.2561 0
M  V30 15104 H 1407.3 -4.05391 5.1511 0
M  V30 15105 H 1406.82 -4.79288 3.60615 0
M  V30 15106 H 1408.5 -4.93586 4.18308 0
M  V30 15107 N 1408.63 -1.05812 -1.16797 0
M  V30 15108 C 1409.54 -0.675541 -2.24663 0
M  V30 15109 C 1410.56 0.30622 -1.71284 0
M  V30 15110 O 1411.73 0.156752 -2.00789 0
M  V30 15111 C 1408.8 -0.0627149 -3.46643 0
M  V30 15112 C 1407.86 -1.09572 -4.15081 0
M  V30 15113 C 1407.09 -0.512044 -5.31238 0
M  V30 15114 O 1407.31 0.676665 -5.66372 0
M  V30 15115 O 1406.25 -1.24936 -5.88791 0
M  V30 15116 H 1410.07 -1.57467 -2.59688 0
M  V30 15117 H 1407.66 -0.830073 -1.24218 0
M  V30 15118 H 1409.54 0.277543 -4.20485 0
M  V30 15119 H 1408.22 0.80997 -3.13403 0
M  V30 15120 H 1407.12 -1.48807 -3.4323 0
M  V30 15121 H 1408.46 -1.93977 -4.52365 0
M  V30 15122 N 1410.11 1.33347 -0.840014 0
M  V30 15123 C 1411.33 2.02485 -0.448856 0
M  V30 15124 C 1411.76 1.62781 0.942543 0
M  V30 15125 O 1411.12 0.82099 1.61646 0
M  V30 15126 C 1411.16 3.55928 -0.578582 0
M  V30 15127 O 1410.27 4.10507 0.394695 0
M  V30 15128 H 1409.61 0.63848 -0.182317 0
M  V30 15129 H 1412.14 1.70221 -1.13516 0
M  V30 15130 H 1412.15 4.05391 -0.460653 0
M  V30 15131 H 1410.82 3.8417 -1.5933 0
M  V30 15132 H 1409.4 3.72164 0.234227 0
M  V30 15133 N 1411.59 0.596556 1.45873 0
M  V30 15134 C 1412.53 -0.141327 2.3217 0
M  V30 15135 C 1413.53 -0.870652 1.45314 0
M  V30 15136 O 1414.73 -0.787469 1.61861 0
M  V30 15137 H 1411.11 -0.0644404 0.749234 0
M  V30 15138 H 1413.08 0.605115 2.922 0
M  V30 15139 C 1411.83 -1.13261 3.28736 0
M  V30 15140 H 1411.15 -0.580835 3.95558 0
M  V30 15141 H 1412.59 -1.61904 3.91871 0
M  V30 15142 C 1411.05 -2.20062 2.55097 0
M  V30 15143 O 1411.58 -3.27634 2.3242 0
M  V30 15144 N 1409.79 -1.95044 2.15421 0
M  V30 15145 H 1409.33 -1.07573 2.34064 0
M  V30 15146 H 1409.29 -2.66711 1.66472 0
M  V30 15147 N 1413.06 -1.53996 0.335095 0
M  V30 15148 C 1414.01 -2.24736 -0.52559 0
M  V30 15149 C 1414.98 -1.24244 -1.10239 0
M  V30 15150 O 1416.17 -1.52955 -1.14058 0
M  V30 15151 C 1413.31 -3.01732 -1.67487 0
M  V30 15152 C 1412.42 -4.17062 -1.1262 0
M  V30 15153 C 1411.55 -4.81563 -2.2421 0
M  V30 15154 C 1410.59 -5.88977 -1.6665 0
M  V30 15155 N 1409.73 -6.47293 -2.71949 0
M  V30 15156 H 1414.57 -2.97881 0.0842008 0
M  V30 15157 H 1412.11 -1.47003 0.0533254 0
M  V30 15158 H 1414.06 -3.44626 -2.35135 0
M  V30 15159 H 1412.69 -2.30899 -2.25578 0
M  V30 15160 H 1411.75 -3.78869 -0.340917 0
M  V30 15161 H 1413.06 -4.94346 -0.665113 0
M  V30 15162 H 1412.21 -5.27486 -2.9974 0
M  V30 15163 H 1410.95 -4.03685 -2.73659 0
M  V30 15164 H 1409.96 -5.42446 -0.89623 0
M  V30 15165 H 1411.18 -6.68758 -1.18064 0
M  V30 15166 H 1409.13 -5.72283 -3.20668 0
M  V30 15167 H 1409.04 -7.20024 -2.30438 0
M  V30 15168 H 1410.31 -6.97869 -3.47273 0
M  V30 15169 N 1414.54 -0.0635198 -1.57472 0
M  V30 15170 C 1415.47 0.942339 -2.07835 0
M  V30 15171 C 1416.45 1.29629 -0.981587 0
M  V30 15172 O 1417.64 1.40702 -1.25439 0
M  V30 15173 C 1414.76 2.25284 -2.52913 0
M  V30 15174 C 1413.81 2.05105 -3.73944 0
M  V30 15175 S 1414.64 1.31802 -5.19026 0
M  V30 15176 C 1415.8 2.64149 -5.67429 0
M  V30 15177 H 1416.03 0.513772 -2.92827 0
M  V30 15178 H 1413.56 0.149049 -1.53679 0
M  V30 15179 H 1415.52 3.00607 -2.79546 0
M  V30 15180 H 1414.18 2.65266 -1.68204 0
M  V30 15181 H 1413.38 3.02071 -4.03447 0
M  V30 15182 H 1412.98 1.3792 -3.47641 0
M  V30 15183 H 1415.27 3.60272 -5.73769 0
M  V30 15184 H 1416.21 2.39267 -6.66451 0
M  V30 15185 H 1416.62 2.70975 -4.9521 0
M  V30 15186 N 1416.02 1.56195 0.209972 0
M  V30 15187 C 1416.97 1.89755 1.26401 0
M  V30 15188 C 1417.95 0.761731 1.41727 0
M  V30 15189 O 1419.15 1.02435 1.44347 0
M  V30 15190 C 1416.27 2.22775 2.61201 0
M  V30 15191 C 1415.36 3.42777 2.49729 0
M  V30 15192 N 1415.75 4.61089 2.0792 0
M  V30 15193 C 1414.05 3.46621 2.8066 0
M  V30 15194 C 1414.75 5.43249 2.07979 0
M  V30 15195 N 1413.73 4.83263 2.48913 0
M  V30 15196 H 1417.53 2.78736 0.93184 0
M  V30 15197 H 1415.04 1.56915 0.418485 0
M  V30 15198 H 1417.04 2.44997 3.37316 0
M  V30 15199 H 1415.7 1.35112 2.95254 0
M  V30 15200 H 1416.71 4.86033 1.78865 0
M  V30 15201 H 1413.39 2.69334 3.19007 0
M  V30 15202 H 1414.78 6.47981 1.77681 0
M  V30 15203 N 1417.5 -0.477127 1.50204 0
M  V30 15204 C 1418.46 -1.55824 1.68082 0
M  V30 15205 C 1419.46 -1.51039 0.551719 0
M  V30 15206 O 1420.65 -1.53766 0.818638 0
M  V30 15207 C 1417.78 -2.95462 1.70044 0
M  V30 15208 H 1418.98 -1.41292 2.64531 0
M  V30 15209 H 1416.53 -0.70308 1.39594 0
M  V30 15210 H 1417.26 -3.15445 0.752663 0
M  V30 15211 H 1417.05 -3.00343 2.52065 0
M  V30 15212 H 1418.54 -3.73964 1.85851 0
M  V30 15213 N 1418.98 -1.3968 -0.729882 0
M  V30 15214 C 1420.23 -1.36492 -1.48502 0
M  V30 15215 C 1420.54 0.0346572 -1.95569 0
M  V30 15216 O 1421.74 0.189135 -2.7084 0
M  V30 15217 C 1420.2 -2.39813 -2.68361 0
M  V30 15218 C 1419.81 -3.85511 -2.28222 0
M  V30 15219 C 1421.55 -2.45709 -3.46161 0
M  V30 15220 C 1419.46 -4.80462 -3.44834 0
M  V30 15221 H 1418.39 -0.507455 -0.557679 0
M  V30 15222 H 1421.04 -1.6535 -0.795708 0
M  V30 15223 H 1419.42 -2.04033 -3.39392 0
M  V30 15224 H 1420.6 -4.30359 -1.64704 0
M  V30 15225 H 1418.91 -3.82957 -1.63501 0
M  V30 15226 H 1421.51 -3.1384 -4.32907 0
M  V30 15227 H 1421.85 -1.48318 -3.88983 0
M  V30 15228 H 1422.38 -2.80409 -2.82163 0
M  V30 15229 H 1419.12 -5.79134 -3.07057 0
M  V30 15230 H 1418.64 -4.40289 -4.07315 0
M  V30 15231 H 1420.32 -4.99607 -4.11098 0
M  V30 15232 N 1420.45 0.960609 -1.2494 0
M  V30 15233 C 1421.4 2.07763 -1.04581 0
M  V30 15234 C 1422.4 1.69386 0.0214505 0
M  V30 15235 O 1423.6 1.79503 -0.133683 0
M  V30 15236 H 1419.98 0.679944 -0.321216 0
M  V30 15237 H 1421.95 2.22094 -1.99291 0
M  V30 15238 C 1420.7 3.41088 -0.674876 0
M  V30 15239 H 1420.02 3.71082 -1.4879 0
M  V30 15240 H 1421.46 4.20123 -0.572079 0
M  V30 15241 C 1419.92 3.31172 0.6186 0
M  V30 15242 O 1420.45 3.65688 1.66238 0
M  V30 15243 N 1418.66 2.84297 0.601984 0
M  V30 15244 H 1418.2 2.56406 -0.24778 0
M  V30 15245 H 1418.16 2.78045 1.4676 0
M  V30 15246 N 1421.93 1.0643 1.16234 0
M  V30 15247 C 1423.18 0.780296 1.86429 0
M  V30 15248 C 1423.5 -0.695335 1.82181 0
M  V30 15249 O 1422.77 -1.50312 1.2563 0
M  V30 15250 H 1421.35 0.285654 0.690225 0
M  V30 15251 H 1424.01 1.34609 1.40949 0
M  V30 15252 H 1423.11 1.10644 2.91829 0
M  V30 15253 N 1423.41 -1.329 0.847073 0
M  V30 15254 C 1424.83 -1.50333 0.53593 0
M  V30 15255 C 1425.03 -1.78492 -0.93504 0
M  V30 15256 O 1424.08 -1.85001 -1.71846 0
M  V30 15257 C 1425.4 -2.65254 1.41636 0
M  V30 15258 C 1426.94 -2.79139 1.416 0
M  V30 15259 C 1427.42 -3.97131 2.28147 0
M  V30 15260 N 1428.91 -4.0438 2.25901 0
M  V30 15261 C 1429.64 -4.94893 2.89601 0
M  V30 15262 N 1429.14 -5.90466 3.62383 0
M  V30 15263 N 1430.93 -4.87955 2.79028 0
M  V30 15264 H 1423.08 -1.12886 1.79918 0
M  V30 15265 H 1425.35 -0.555707 0.768045 0
M  V30 15266 H 1425.05 -2.51151 2.46203 0
M  V30 15267 H 1424.93 -3.60856 1.09829 0
M  V30 15268 H 1427.31 -2.92669 0.378013 0
M  V30 15269 H 1427.4 -1.84273 1.77418 0
M  V30 15270 H 1427.04 -3.8436 3.32009 0
M  V30 15271 H 1426.97 -4.91258 1.89665 0
M  V30 15272 H 1429.46 -3.35986 1.72979 0
M  V30 15273 H 1429.77 -6.56212 4.08174 0
M  V30 15274 H 1428.12 -5.90516 3.66491 0
M  V30 15275 H 1431.31 -4.12258 2.21723 0
M  V30 15276 H 1431.48 -5.58295 3.28954 0
M  V30 15277 N 1424.89 -0.604284 -1.45555 0
M  V30 15278 C 1425.82 0.165286 -2.27601 0
M  V30 15279 C 1426.8 0.876749 -1.36937 0
M  V30 15280 O 1427.98 0.886288 -1.66365 0
M  V30 15281 C 1425.11 1.23897 -3.15226 0
M  V30 15282 C 1424.16 0.631002 -4.21806 0
M  V30 15283 S 1424.99 -0.558612 -5.32578 0
M  V30 15284 C 1426.15 0.515745 -6.23772 0
M  V30 15285 H 1426.38 -0.53081 -2.92523 0
M  V30 15286 H 1423.91 -0.391717 -1.49348 0
M  V30 15287 H 1425.87 1.85358 -3.66268 0
M  V30 15288 H 1424.53 1.90712 -2.49575 0
M  V30 15289 H 1423.72 1.43876 -4.83028 0
M  V30 15290 H 1423.33 0.0915984 -3.73888 0
M  V30 15291 H 1425.62 1.39571 -6.62968 0
M  V30 15292 H 1426.56 -0.0602302 -7.08074 0
M  V30 15293 H 1426.97 0.829588 -5.58371 0
M  V30 15294 N 1426.37 1.53816 -0.343257 0
M  V30 15295 C 1427.61 2.00909 0.253346 0
M  V30 15296 C 1427.94 1.23109 1.5058 0
M  V30 15297 O 1427.2 0.306682 1.93282 0
M  V30 15298 C 1427.5 3.521 0.613243 0
M  V30 15299 C 1427.16 4.47627 -0.5423 0
M  V30 15300 C 1425.82 4.73463 -0.859418 0
M  V30 15301 C 1428.18 5.04272 -1.31754 0
M  V30 15302 C 1425.5 5.532 -1.95415 0
M  V30 15303 C 1427.86 5.85203 -2.40251 0
M  V30 15304 C 1426.52 6.09334 -2.72523 0
M  V30 15305 H 1425.79 0.735178 0.0927058 0
M  V30 15306 H 1428.44 1.85615 -0.471111 0
M  V30 15307 H 1426.74 3.65224 1.41841 0
M  V30 15308 H 1428.44 3.85994 1.08673 0
M  V30 15309 H 1425.03 4.27651 -0.285076 0
M  V30 15310 H 1429.21 4.84277 -1.0858 0
M  V30 15311 H 1424.47 5.70122 -2.20842 0
M  V30 15312 H 1428.64 6.28109 -3.00753 0
M  V30 15313 H 1426.27 6.70906 -3.57476 0
M  V30 15314 N 1427.84 0.0718701 1.57436 0
M  V30 15315 C 1429.09 -0.596052 1.9311 0
M  V30 15316 C 1429.41 -1.70146 0.952652 0
M  V30 15317 O 1428.68 -1.959 0.000812941 0
M  V30 15318 H 1427.26 -0.223165 0.712886 0
M  V30 15319 H 1429.93 0.129744 1.94468 0
M  V30 15320 H 1429.02 -1.02132 2.94916 0
M  V30 15321 N 1429.32 -1.56304 -0.201686 0
M  V30 15322 C 1430.27 -1.94901 -1.26949 0
M  V30 15323 C 1431.26 -0.833574 -1.47472 0
M  V30 15324 O 1432.47 -1.01854 -1.48411 0
M  V30 15325 H 1428.85 -0.619663 -0.426053 0
M  V30 15326 H 1430.82 -2.83964 -0.9169 0
M  V30 15327 C 1429.57 -2.29913 -2.60835 0
M  V30 15328 H 1428.89 -3.15268 -2.45858 0
M  V30 15329 H 1430.33 -2.60789 -3.34313 0
M  V30 15330 C 1428.79 -1.13136 -3.17335 0
M  V30 15331 O 1429.32 -0.402915 -3.99674 0
M  V30 15332 N 1427.52 -0.909912 -2.75987 0
M  V30 15333 H 1427.07 -1.50402 -2.09134 0
M  V30 15334 H 1427.03 -0.130348 -3.1413 0
M  V30 15335 N 1430.8 0.469154 -1.50455 0
M  V30 15336 C 1431.73 1.57493 -1.7239 0
M  V30 15337 C 1432.71 1.60161 -0.572915 0
M  V30 15338 O 1433.9 1.76397 -0.812259 0
M  V30 15339 C 1431.03 2.95804 -1.81981 0
M  V30 15340 C 1429.98 3.08001 -2.97185 0
M  V30 15341 C 1429.31 4.4798 -2.91922 0
M  V30 15342 C 1430.61 2.85039 -4.37665 0
M  V30 15343 H 1432.3 1.39389 -2.64974 0
M  V30 15344 H 1429.85 0.669133 -1.27509 0
M  V30 15345 H 1431.8 3.73091 -1.95911 0
M  V30 15346 H 1430.52 3.15068 -0.86021 0
M  V30 15347 H 1429.18 2.33148 -2.82909 0
M  V30 15348 H 1428.83 4.64165 -1.93803 0
M  V30 15349 H 1428.53 4.57076 -3.69263 0
M  V30 15350 H 1430.05 5.27284 -3.07903 0
M  V30 15351 H 1431.47 3.52074 -4.52456 0
M  V30 15352 H 1429.87 3.05578 -5.16471 0
M  V30 15353 H 1430.94 1.8088 -4.499 0
M  V30 15354 N 1432.28 1.40065 0.722464 0
M  V30 15355 C 1433.21 1.35695 1.84715 0
M  V30 15356 C 1434.22 0.263522 1.60653 0
M  V30 15357 O 1435.41 0.523382 1.70655 0
M  V30 15358 C 1432.51 1.08722 3.20987 0
M  V30 15359 C 1431.69 2.29586 3.72302 0
M  V30 15360 C 1430.74 1.98879 4.87169 0
M  V30 15361 O 1429.77 2.71681 5.00178 0
M  V30 15362 N 1430.97 0.962554 5.72464 0
M  V30 15363 H 1433.74 2.32621 1.88964 0
M  V30 15364 H 1431.3 1.3433 0.903723 0
M  V30 15365 H 1433.29 0.861772 3.95418 0
M  V30 15366 H 1431.86 0.204869 3.11928 0
M  V30 15367 H 1431.08 2.68004 2.8908 0
M  V30 15368 H 1432.37 3.10176 4.03322 0
M  V30 15369 H 1431.77 0.359452 5.64557 0
M  V30 15370 H 1430.32 0.797003 6.46909 0
M  V30 15371 N 1433.76 -0.95397 1.25448 0
M  V30 15372 C 1435.01 -1.6953 1.10018 0
M  V30 15373 C 1435.33 -1.9166 -0.359385 0
M  V30 15374 O 1434.6 -1.50417 -1.25506 0
M  V30 15375 H 1433.18 -0.628238 0.404136 0
M  V30 15376 H 1435.84 -1.14691 1.57581 0
M  V30 15377 H 1434.93 -2.67427 1.60901 0
M  V30 15378 N 1435.24 -1.07045 -1.15668 0
M  V30 15379 C 1436.17 -0.709413 -2.22463 0
M  V30 15380 C 1437.15 0.30169 -1.67403 0
M  V30 15381 O 1438.33 0.175131 -1.93409 0
M  V30 15382 C 1435.46 -0.103121 -3.47147 0
M  V30 15383 C 1434.42 -1.04103 -4.15146 0
M  V30 15384 C 1433.74 -0.297656 -5.33871 0
M  V30 15385 C 1435.04 -2.37332 -4.65264 0
M  V30 15386 H 1436.74 -1.60227 -2.52918 0
M  V30 15387 H 1434.28 -0.771846 -1.21567 0
M  V30 15388 H 1436.23 0.161371 -4.21091 0
M  V30 15389 H 1434.96 0.824792 -3.16014 0
M  V30 15390 H 1433.62 -1.2904 -3.43139 0
M  V30 15391 H 1433.27 0.633618 -4.98993 0
M  V30 15392 H 1432.97 -0.922789 -5.80309 0
M  V30 15393 H 1434.49 -0.0408892 -6.10586 0
M  V30 15394 H 1435.9 -2.1674 -5.30751 0
M  V30 15395 H 1434.3 -2.95412 -5.22352 0
M  V30 15396 H 1435.37 -2.99859 -3.81068 0
M  V30 15397 N 1436.71 1.32449 -0.85411 0
M  V30 15398 C 1437.94 2.01463 -0.471188 0
M  V30 15399 C 1438.36 1.64195 0.931954 0
M  V30 15400 O 1437.71 0.862994 1.60806 0
M  V30 15401 C 1437.76 3.56486 -0.600022 0
M  V30 15402 O 1437.49 3.92414 -1.94789 0
M  V30 15403 C 1438.99 4.42773 -0.216036 0
M  V30 15404 H 1436.21 0.644914 -0.185275 0
M  V30 15405 H 1438.75 1.6904 -1.1509 0
M  V30 15406 H 1436.91 3.87387 0.0319488 0
M  V30 15407 H 1437.32 4.87133 -1.94427 0
M  V30 15408 H 1438.79 5.50843 -0.357186 0
M  V30 15409 H 1439.27 4.31025 0.843468 0
M  V30 15410 H 1439.88 4.1726 -0.823058 0
M  V30 15411 N 1438.19 0.611994 1.45232 0
M  V30 15412 C 1439.12 -0.153214 2.27685 0
M  V30 15413 C 1440.1 -0.869474 1.37401 0
M  V30 15414 O 1441.29 -0.877453 1.66832 0
M  V30 15415 C 1438.41 -1.22224 3.15878 0
M  V30 15416 C 1437.46 -0.608624 4.22135 0
M  V30 15417 S 1438.29 0.586848 5.32275 0
M  V30 15418 C 1439.45 -0.482657 6.24036 0
M  V30 15419 H 1439.68 0.546316 2.92237 0
M  V30 15420 H 1437.21 0.399631 1.49139 0
M  V30 15421 H 1439.17 -1.83413 3.67246 0
M  V30 15422 H 1437.83 -1.89386 2.50583 0
M  V30 15423 H 1437.03 -1.41312 4.83784 0
M  V30 15424 H 1436.63 -0.0717689 3.73931 0
M  V30 15425 H 1438.92 -1.36053 6.63699 0
M  V30 15426 H 1439.86 0.0977803 7.08032 0
M  V30 15427 H 1440.27 -0.799965 5.58803 0
M  V30 15428 N 1439.67 -1.53632 0.351409 0
M  V30 15429 C 1440.62 -2.22041 -0.517867 0
M  V30 15430 C 1441.6 -1.21057 -1.0599 0
M  V30 15431 O 1442.8 -1.46569 -0.992298 0
M  V30 15432 C 1439.92 -3.00259 -1.66432 0
M  V30 15433 C 1439.01 -4.08607 -1.13584 0
M  V30 15434 N 1439.4 -5.04727 -0.329217 0
M  V30 15435 C 1437.7 -4.23059 -1.412 0
M  V30 15436 C 1438.4 -5.81685 -0.0415005 0
M  V30 15437 N 1437.38 -5.39875 -0.635288 0
M  V30 15438 H 1441.18 -2.93711 0.105386 0
M  V30 15439 H 1438.69 -1.61623 0.15868 0
M  V30 15440 H 1440.69 -3.47774 -2.29911 0
M  V30 15441 H 1439.35 -2.30117 -2.29077 0
M  V30 15442 H 1440.36 -5.17891 0.0303777 0
M  V30 15443 H 1437.04 -3.64139 -2.04227 0
M  V30 15444 H 1438.43 -6.69128 0.609686 0
M  V30 15445 N 1441.15 -0.0802183 -1.57396 0
M  V30 15446 C 1442.39 0.587831 -1.94094 0
M  V30 15447 C 1442.73 1.6875 -0.961093 0
M  V30 15448 O 1442 1.94498 0.00832799 0
M  V30 15449 C 1442.28 1.15692 -3.41009 0
M  V30 15450 C 1442.14 0.0633211 -4.49755 0
M  V30 15451 C 1443.46 2.05987 -3.88918 0
M  V30 15452 H 1440.58 0.212214 -0.705786 0
M  V30 15453 H 1443.22 -0.147902 -1.89423 0
M  V30 15454 H 1441.37 1.78394 -3.4512 0
M  V30 15455 H 1443.04 -0.57019 -4.57763 0
M  V30 15456 H 1441.28 -0.605003 -4.2956 0
M  V30 15457 H 1441.95 0.502056 -5.49712 0
M  V30 15458 H 1444.43 1.5321 -3.86867 0
M  V30 15459 H 1443.31 2.42737 -4.92311 0
M  V30 15460 H 1443.57 2.97147 -3.27347 0
M  V30 15461 N 1442.63 1.56409 0.193394 0
M  V30 15462 C 1443.87 1.80367 0.911717 0
M  V30 15463 C 1444.19 0.653561 1.83721 0
M  V30 15464 O 1443.46 -0.328001 1.93135 0
M  V30 15465 H 1442.04 0.665316 0.339652 0
M  V30 15466 H 1444.71 1.93887 0.198496 0
M  V30 15467 H 1443.8 2.7359 1.50182 0
M  V30 15468 N 1444.1 -0.461169 1.50702 0
M  V30 15469 C 1445.38 -1.22225 1.52711 0
M  V30 15470 C 1445.76 -2.09268 0.27749 0
M  V30 15471 O 1445.11 -2.16232 -0.738642 0
M  V30 15472 C 1445.32 -2.04472 2.82829 0
M  V30 15473 C 1446.67 -2.62326 3.33872 0
M  V30 15474 O 1447.69 -2.14706 2.84218 0
M  V30 15475 O 1446.55 -3.49116 4.20453 0
M  V30 15476 H 1443.64 -0.555168 0.612958 0
M  V30 15477 H 1446.19 -0.47218 1.62999 0
M  V30 15478 H 1444.96 -1.40392 3.65247 0
M  V30 15479 H 1444.58 -2.86593 2.75591 0
M  V30 15480 N 1445.58 -1.40446 -0.715026 0
M  V30 15481 C 1446.49 -1.43074 -1.85922 0
M  V30 15482 C 1447.51 -0.323294 -1.7097 0
M  V30 15483 O 1448.68 -0.567966 -1.93226 0
M  V30 15484 C 1445.75 -1.29206 -3.21725 0
M  V30 15485 C 1444.81 -2.50097 -3.48927 0
M  V30 15486 C 1444.04 -2.36881 -4.7825 0
M  V30 15487 O 1444.27 -1.38292 -5.53382 0
M  V30 15488 O 1443.2 -3.26266 -5.058 0
M  V30 15489 H 1447.03 -2.39565 -1.86661 0
M  V30 15490 H 1444.61 -1.21775 -0.865522 0
M  V30 15491 H 1446.49 -1.23681 -4.02841 0
M  V30 15492 H 1445.17 -0.358207 -3.21712 0
M  V30 15493 H 1444.07 -2.61199 -2.67817 0
M  V30 15494 H 1445.41 -3.42244 -3.53737 0
M  V30 15495 N 1447.06 0.947303 -1.25952 0
M  V30 15496 C 1448.31 1.6953 -1.11299 0
M  V30 15497 C 1448.64 1.9113 0.343961 0
M  V30 15498 O 1447.91 1.48755 1.25309 0
M  V30 15499 C 1448.2 3.0738 -1.87588 0
M  V30 15500 C 1448.05 2.93145 -3.41154 0
M  V30 15501 C 1449.37 4.07396 -1.66483 0
M  V30 15502 H 1446.49 0.615281 -0.405707 0
M  V30 15503 H 1449.13 1.10064 -1.54874 0
M  V30 15504 H 1447.28 3.58143 -1.50553 0
M  V30 15505 H 1448.95 2.49651 -3.87907 0
M  V30 15506 H 1447.19 2.28902 -3.68492 0
M  V30 15507 H 1447.87 3.9089 -3.89755 0
M  V30 15508 H 1450.34 3.65572 -1.98738 0
M  V30 15509 H 1449.22 5.01876 -2.22287 0
M  V30 15510 H 1449.48 4.379 -0.607916 0
M  V30 15511 N 1448.54 1.07657 1.15099 0
M  V30 15512 C 1449.49 0.694043 2.22004 0
M  V30 15513 C 1450.48 -0.296607 1.66783 0
M  V30 15514 O 1451.69 -0.159989 1.79288 0
M  V30 15515 H 1448.06 0.206374 0.723128 0
M  V30 15516 H 1450.03 1.60523 2.51545 0
M  V30 15517 C 1448.78 0.111245 3.47522 0
M  V30 15518 H 1448.1 0.864677 3.90338 0
M  V30 15519 H 1449.54 -0.118705 4.23834 0
M  V30 15520 C 1448 -1.14889 3.16705 0
M  V30 15521 O 1448.53 -2.2349 3.33789 0
M  V30 15522 N 1446.74 -1.05627 2.70724 0
M  V30 15523 H 1446.29 -0.172463 2.57022 0
M  V30 15524 H 1446.24 -1.9002 2.50479 0
M  V30 15525 N 1450.02 -1.31994 0.861122 0
M  V30 15526 C 1451.26 -1.97712 0.477669 0
M  V30 15527 C 1451.62 -1.66878 -0.957573 0
M  V30 15528 O 1450.91 -0.950114 -1.66383 0
M  V30 15529 C 1451.1 -3.51232 0.661135 0
M  V30 15530 C 1450.93 -3.96985 2.11266 0
M  V30 15531 C 1449.7 -4.23753 2.75247 0
M  V30 15532 C 1451.9 -4.11577 3.08397 0
M  V30 15533 N 1449.88 -4.55798 4.11243 0
M  V30 15534 C 1451.25 -4.47233 4.29398 0
M  V30 15535 C 1453.31 -3.9393 3.04506 0
M  V30 15536 C 1452.01 -4.67083 5.47015 0
M  V30 15537 C 1454.04 -4.14968 4.21373 0
M  V30 15538 C 1453.4 -4.50947 5.41134 0
M  V30 15539 H 1449.5 -0.749334 0.223657 0
M  V30 15540 H 1452.08 -1.59691 1.11387 0
M  V30 15541 H 1450.25 -3.88362 0.0545925 0
M  V30 15542 H 1451.99 -4.03946 0.246941 0
M  V30 15543 H 1448.74 -4.16064 2.26248 0
M  V30 15544 H 1449.17 -4.75995 4.81412 0
M  V30 15545 H 1453.81 -3.6521 2.1303 0
M  V30 15546 H 1451.53 -4.94655 6.39016 0
M  V30 15547 H 1455.11 -4.02809 4.19805 0
M  V30 15548 H 1453.99 -4.66898 6.3006 0
M  V30 15549 N 1451.49 -0.619688 -1.44906 0
M  V30 15550 C 1452.72 -0.12618 -2.06214 0
M  V30 15551 C 1453.13 1.19978 -1.46294 0
M  V30 15552 O 1452.48 1.74437 -0.575956 0
M  V30 15553 C 1452.54 0.075085 -3.59422 0
M  V30 15554 C 1452.2 -1.17094 -4.41744 0
M  V30 15555 C 1453.2 -2.09196 -4.75955 0
M  V30 15556 C 1450.88 -1.40315 -4.82304 0
M  V30 15557 C 1452.88 -3.22839 -5.49594 0
M  V30 15558 C 1450.56 -2.54257 -5.55695 0
M  V30 15559 C 1451.56 -3.45346 -5.89258 0
M  V30 15560 O 1451.25 -4.57302 -6.61158 0
M  V30 15561 H 1450.98 -0.0715975 -0.672198 0
M  V30 15562 H 1453.54 -0.850858 -1.86948 0
M  V30 15563 H 1451.77 0.854787 -3.77134 0
M  V30 15564 H 1453.46 0.521707 -4.02533 0
M  V30 15565 H 1454.22 -1.92486 -4.45168 0
M  V30 15566 H 1450.1 -0.703094 -4.55607 0
M  V30 15567 H 1453.64 -3.93959 -5.7571 0
M  V30 15568 H 1449.54 -2.70915 -5.85897 0
M  V30 15569 H 1450.31 -4.56138 -6.79618 0
M  V30 15570 N 1452.97 1.53444 -0.359552 0
M  V30 15571 C 1453.9 2.28475 0.4818 0
M  V30 15572 C 1454.88 1.30664 1.08908 0
M  V30 15573 O 1456.07 1.59527 1.10746 0
M  V30 15574 C 1453.2 3.06951 1.62477 0
M  V30 15575 C 1452.15 4.12399 1.14504 0
M  V30 15576 C 1451.48 4.78922 2.37777 0
M  V30 15577 C 1452.78 5.21775 0.234075 0
M  V30 15578 H 1454.47 2.99053 -0.144162 0
M  V30 15579 H 1452.02 1.43826 -0.0707746 0
M  V30 15580 H 1453.97 3.58186 2.21993 0
M  V30 15581 H 1452.7 2.34053 2.27787 0
M  V30 15582 H 1451.35 3.62101 0.572589 0
M  V30 15583 H 1451 4.02602 3.0153 0
M  V30 15584 H 1450.7 5.50175 2.06353 0
M  V30 15585 H 1452.23 5.32948 2.97991 0
M  V30 15586 H 1453.64 5.68549 0.736548 0
M  V30 15587 H 1452.04 6.00099 0.0109887 0
M  V30 15588 H 1453.11 4.79443 -0.725435 0
M  V30 15589 N 1454.45 0.0885642 1.57351 0
M  V30 15590 C 1455.38 -0.909155 2.09307 0
M  V30 15591 C 1456.36 -1.28051 1.00209 0
M  V30 15592 O 1457.55 -1.38689 1.27662 0
M  V30 15593 C 1454.67 -2.21232 2.56465 0
M  V30 15594 C 1453.72 -1.9913 3.7716 0
M  V30 15595 S 1454.55 -1.23528 5.21058 0
M  V30 15596 C 1455.71 -2.55089 5.7156 0
M  V30 15597 H 1455.94 -0.467121 2.93607 0
M  V30 15598 H 1453.47 -0.124581 1.53897 0
M  V30 15599 H 1455.43 -2.96121 2.84293 0
M  V30 15600 H 1454.09 -2.62557 1.72403 0
M  V30 15601 H 1453.29 -2.95614 4.08201 0
M  V30 15602 H 1452.89 -1.32372 3.49791 0
M  V30 15603 H 1455.18 -3.51098 5.79428 0
M  V30 15604 H 1456.12 -2.28634 6.70173 0
M  V30 15605 H 1456.53 -2.63062 4.99458 0
M  V30 15606 N 1455.93 -1.56509 -0.185096 0
M  V30 15607 C 1457.18 -1.80848 -0.902139 0
M  V30 15608 C 1457.5 -0.663295 -1.83372 0
M  V30 15609 O 1456.77 0.317754 -1.93306 0
M  V30 15610 H 1455.35 -0.667108 -0.336119 0
M  V30 15611 H 1458.01 -1.93989 -0.188211 0
M  V30 15612 H 1457.11 -2.74383 -1.48729 0
M  V30 15613 N 1457.41 0.45317 -1.50944 0
M  V30 15614 C 1458.34 1.56825 -1.65775 0
M  V30 15615 C 1459.32 1.54542 -0.505515 0
M  V30 15616 O 1460.5 1.73902 -0.727336 0
M  V30 15617 C 1457.63 2.95411 -1.65681 0
M  V30 15618 C 1456.67 3.1578 -2.8668 0
M  V30 15619 S 1457.51 2.93763 -4.47731 0
M  V30 15620 C 1458.66 4.34659 -4.50358 0
M  V30 15621 H 1458.9 1.44008 -2.60094 0
M  V30 15622 H 1456.43 0.64177 -1.4043 0
M  V30 15623 H 1458.39 3.75301 -1.66311 0
M  V30 15624 H 1457.05 3.05603 -0.725659 0
M  V30 15625 H 1456.24 4.17066 -2.8297 0
M  V30 15626 H 1455.84 2.4369 -2.8371 0
M  V30 15627 H 1458.14 5.27599 -4.25024 0
M  V30 15628 H 1459.08 4.43408 -5.52082 0
M  V30 15629 H 1459.49 4.17575 -3.79857 0
M  V30 15630 N 1458.88 1.40823 0.707568 0
M  V30 15631 C 1460.13 1.39259 1.46463 0
M  V30 15632 C 1460.45 -0.00157854 1.95 0
M  V30 15633 O 1459.72 -0.957723 1.70893 0
M  V30 15634 H 1458.3 0.512558 0.543409 0
M  V30 15635 H 1460.97 1.75952 0.838269 0
M  V30 15636 H 1460.06 2.07243 2.3336 0
M  V30 15637 N 1460.36 -0.94061 1.26453 0
M  V30 15638 C 1461.31 -2.06073 1.07873 0
M  V30 15639 C 1462.3 -1.69399 0.0055001 0
M  V30 15640 O 1463.51 -1.79267 0.162224 0
M  V30 15641 H 1459.89 -0.674748 0.331993 0
M  V30 15642 H 1461.86 -2.18895 2.02799 0
M  V30 15643 C 1460.61 -3.39971 0.729054 0
M  V30 15644 H 1459.93 -3.68667 1.54675 0
M  V30 15645 H 1461.37 -4.1916 0.638844 0
M  V30 15646 C 1459.83 -3.32114 -0.565835 0
M  V30 15647 O 1460.36 -3.68287 -1.60399 0
M  V30 15648 N 1458.56 -2.85218 -0.556679 0
M  V30 15649 H 1458.11 -2.55979 0.288541 0
M  V30 15650 H 1458.07 -2.80344 -1.42318 0
M  V30 15651 N 1461.84 -1.08266 -1.14527 0
M  V30 15652 C 1462.75 -0.723043 -2.2318 0
M  V30 15653 C 1463.77 0.269819 -1.71895 0
M  V30 15654 O 1464.94 0.114126 -2.01076 0
M  V30 15655 C 1462.01 -0.136229 -3.46432 0
M  V30 15656 C 1461.07 -1.18352 -4.12664 0
M  V30 15657 C 1460.3 -0.624612 -5.30032 0
M  V30 15658 O 1460.52 0.556377 -5.6768 0
M  V30 15659 O 1459.46 -1.37397 -5.86008 0
M  V30 15660 H 1463.28 -1.6294 -2.56289 0
M  V30 15661 H 1460.87 -0.856235 -1.22429 0
M  V30 15662 H 1462.75 0.18829 -4.20979 0
M  V30 15663 H 1461.43 0.74331 -3.1505 0
M  V30 15664 H 1460.33 -1.56054 -3.39997 0
M  V30 15665 H 1461.67 -2.03528 -4.48148 0
M  V30 15666 N 1463.32 1.31536 -0.86811 0
M  V30 15667 C 1464.57 1.96045 -0.474271 0
M  V30 15668 C 1464.88 1.6939 0.978071 0
M  V30 15669 O 1466.09 2.27746 1.47797 0
M  V30 15670 C 1464.54 3.5096 -0.797203 0
M  V30 15671 C 1464.15 3.86456 -2.26618 0
M  V30 15672 C 1465.9 4.21871 -0.471745 0
M  V30 15673 C 1463.8 5.34474 -2.53162 0
M  V30 15674 H 1462.73 0.733737 -0.173627 0
M  V30 15675 H 1465.38 1.49734 -1.06076 0
M  V30 15676 H 1463.77 3.95752 -0.139994 0
M  V30 15677 H 1464.94 3.52629 -2.9663 0
M  V30 15678 H 1463.25 3.28605 -2.55749 0
M  V30 15679 H 1465.85 5.30767 -0.647317 0
M  V30 15680 H 1466.19 4.12131 0.58768 0
M  V30 15681 H 1466.73 3.82706 -1.08542 0
M  V30 15682 H 1463.47 5.49248 -3.57781 0
M  V30 15683 H 1462.99 5.6966 -1.87743 0
M  V30 15684 H 1464.67 6.01716 -2.37797 0
M  V30 15685 N 1464.8 0.627364 1.44575 0
M  V30 15686 C 1466.07 0.0614392 1.95503 0
M  V30 15687 C 1466.45 -1.41182 1.56942 0
M  V30 15688 O 1465.8 -2.12435 0.841634 0
M  V30 15689 C 1466.01 0.280349 3.47872 0
M  V30 15690 C 1467.36 0.171559 4.24253 0
M  V30 15691 O 1468.38 0.211515 3.55571 0
M  V30 15692 O 1467.24 0.0733152 5.46451 0
M  V30 15693 H 1464.34 -0.0244626 0.826638 0
M  V30 15694 H 1466.88 0.698805 1.54644 0
M  V30 15695 H 1465.66 1.30278 3.68976 0
M  V30 15696 H 1465.28 -0.391336 3.95669 0
M  V30 15697 N 1466.28 -1.53251 0.367684 0
M  V30 15698 C 1467.21 -2.28728 -0.469676 0
M  V30 15699 C 1468.19 -1.3124 -1.08213 0
M  V30 15700 O 1469.37 -1.60112 -1.09898 0
M  V30 15701 C 1466.5 -3.07808 -1.60846 0
M  V30 15702 C 1465.46 -4.13 -1.12315 0
M  V30 15703 C 1464.78 -4.80176 -2.35234 0
M  V30 15704 C 1466.08 -5.21892 -0.2064 0
M  V30 15705 H 1467.78 -2.98972 0.160019 0
M  V30 15706 H 1465.32 -1.43786 0.0784011 0
M  V30 15707 H 1467.27 -3.59358 -2.20091 0
M  V30 15708 H 1466 -2.35258 -2.26542 0
M  V30 15709 H 1464.66 -3.62399 -0.553378 0
M  V30 15710 H 1464.31 -4.04196 -2.99391 0
M  V30 15711 H 1464.01 -5.51261 -2.03433 0
M  V30 15712 H 1465.53 -5.34521 -2.9516 0
M  V30 15713 H 1466.94 -5.68932 -0.706386 0
M  V30 15714 H 1465.34 -6.00096 0.0208362 0
M  V30 15715 H 1466.41 -4.79051 0.750851 0
M  V30 15716 N 1467.75 -0.0969077 -1.57302 0
M  V30 15717 C 1468.7 0.872039 -2.10664 0
M  V30 15718 C 1469.69 1.24265 -1.02211 0
M  V30 15719 O 1470.88 1.21743 -1.28482 0
M  V30 15720 C 1468.01 2.13042 -2.69199 0
M  V30 15721 C 1467.09 1.78517 -3.84698 0
M  V30 15722 N 1467.49 1.14558 -4.92656 0
M  V30 15723 C 1465.78 2.08115 -3.94467 0
M  V30 15724 C 1466.48 0.986837 -5.73268 0
M  V30 15725 N 1465.46 1.50473 -5.22359 0
M  V30 15726 H 1469.26 0.373625 -2.91515 0
M  V30 15727 H 1466.78 0.10625 -1.62052 0
M  V30 15728 H 1468.77 2.83403 -3.05759 0
M  V30 15729 H 1467.43 2.63448 -1.89803 0
M  V30 15730 H 1468.44 0.812179 -5.11492 0
M  V30 15731 H 1465.12 2.60722 -3.26083 0
M  V30 15732 H 1466.51 0.48651 -6.70136 0
M  V30 15733 N 1469.23 1.56605 0.176793 0
M  V30 15734 C 1470.46 1.85812 0.910019 0
M  V30 15735 C 1470.87 0.68164 1.76066 0
M  V30 15736 O 1470.23 -0.34936 1.79125 0
M  V30 15737 C 1470.28 3.14001 1.79125 0
M  V30 15738 O 1470 4.27114 0.974931 0
M  V30 15739 C 1471.5 3.56516 2.6346 0
M  V30 15740 H 1468.72 0.616608 0.264643 0
M  V30 15741 H 1471.27 2.03719 0.178537 0
M  V30 15742 H 1469.42 2.97937 2.47613 0
M  V30 15743 H 1469.84 5.00227 1.57711 0
M  V30 15744 H 1471.31 4.49128 3.20918 0
M  V30 15745 H 1471.79 2.80373 3.38065 0
M  V30 15746 H 1472.39 3.75173 2.00313 0
M  V30 15747 N 1470.71 -0.445159 1.51182 0
M  V30 15748 C 1471.96 -1.19701 1.63705 0
M  V30 15749 C 1472.29 -1.91047 0.348511 0
M  V30 15750 O 1471.56 -1.83264 -0.651497 0
M  V30 15751 C 1471.85 -2.22021 2.83511 0
M  V30 15752 C 1471.7 -1.54809 4.2232 0
M  V30 15753 C 1473.02 -3.23083 2.9884 0
M  V30 15754 H 1470.14 -0.433818 0.595795 0
M  V30 15755 H 1472.78 -0.487276 1.83645 0
M  V30 15756 H 1470.93 -2.82551 2.66641 0
M  V30 15757 H 1472.6 -0.976774 4.5084 0
M  V30 15758 H 1470.84 -0.850596 4.25379 0
M  V30 15759 H 1471.52 -2.29289 5.02126 0
M  V30 15760 H 1473.99 -2.72601 3.14369 0
M  V30 15761 H 1472.87 -3.91978 3.84246 0
M  V30 15762 H 1473.13 -3.88732 2.1057 0
M  V30 15763 N 1472.19 -1.41197 -0.700089 0
M  V30 15764 C 1473.14 -1.39158 -1.80607 0
M  V30 15765 C 1474.12 -0.266653 -1.58675 0
M  V30 15766 O 1475.31 -0.506973 -1.69584 0
M  V30 15767 C 1472.44 -1.27176 -3.18875 0
M  V30 15768 C 1471.53 -2.44513 -3.46517 0
M  V30 15769 N 1471.92 -3.69984 -3.44885 0
M  V30 15770 C 1470.22 -2.38228 -3.77046 0
M  V30 15771 C 1470.92 -4.4778 -3.71306 0
M  V30 15772 N 1469.89 -3.77831 -3.90826 0
M  V30 15773 H 1473.7 -2.34093 -1.77701 0
M  V30 15774 H 1471.21 -1.35188 -0.899887 0
M  V30 15775 H 1473.21 -1.23797 -3.98095 0
M  V30 15776 H 1471.87 -0.332215 -3.22996 0
M  V30 15777 H 1472.88 -4.02932 -3.25371 0
M  V30 15778 H 1469.56 -1.52722 -3.88564 0
M  V30 15779 H 1470.95 -5.56695 -3.76218 0
M  V30 15780 N 1473.67 0.933891 -1.2695 0
M  V30 15781 C 1474.91 1.68091 -1.12924 0
M  V30 15782 C 1475.24 1.91747 0.326088 0
M  V30 15783 O 1474.5 1.50126 1.25541 0
M  V30 15784 C 1474.79 3.05706 -1.85145 0
M  V30 15785 C 1474.46 3.01781 -3.35021 0
M  V30 15786 C 1473.12 3.00417 -3.75903 0
M  V30 15787 C 1475.47 2.93537 -4.3068 0
M  V30 15788 C 1472.8 2.88585 -5.10818 0
M  V30 15789 C 1475.15 2.83246 -5.65645 0
M  V30 15790 C 1473.82 2.80229 -6.05828 0
M  V30 15791 H 1473.09 0.615087 -0.413217 0
M  V30 15792 H 1475.74 1.08957 -1.57482 0
M  V30 15793 H 1474.04 3.68508 -1.33077 0
M  V30 15794 H 1475.74 3.62369 -1.71726 0
M  V30 15795 H 1472.33 3.03626 -3.02505 0
M  V30 15796 H 1476.51 2.93693 -4.00073 0
M  V30 15797 H 1471.77 2.84632 -5.41105 0
M  V30 15798 H 1475.94 2.75832 -6.39445 0
M  V30 15799 H 1473.57 2.70818 -7.10325 0
M  V30 15800 N 1475.14 1.08871 1.13951 0
M  V30 15801 C 1476.09 0.692507 2.17229 0
M  V30 15802 C 1477.08 -0.290264 1.5826 0
M  V30 15803 O 1478.27 -0.101531 1.76709 0
M  V30 15804 C 1475.4 0.108487 3.43129 0
M  V30 15805 C 1474.48 1.11733 4.09117 0
M  V30 15806 N 1474.88 2.30244 4.50357 0
M  V30 15807 C 1473.17 0.954172 4.35674 0
M  V30 15808 C 1473.87 2.94373 5.01716 0
M  V30 15809 N 1472.85 2.2196 4.96221 0
M  V30 15810 H 1476.65 1.59489 2.46861 0
M  V30 15811 H 1474.17 0.964113 1.30685 0
M  V30 15812 H 1476.16 -0.193345 4.16451 0
M  V30 15813 H 1474.82 -0.78882 3.14973 0
M  V30 15814 H 1475.83 2.67871 4.43244 0
M  V30 15815 H 1472.51 0.111069 4.17352 0
M  V30 15816 H 1473.9 3.95089 5.43465 0
M  V30 15817 N 1476.62 -1.31073 0.875073 0
M  V30 15818 C 1477.87 -1.9613 0.487584 0
M  V30 15819 C 1478.19 -1.69482 -0.964407 0
M  V30 15820 O 1477.46 -1.013 -1.67676 0
M  V30 15821 H 1476.04 -0.725649 0.177319 0
M  V30 15822 H 1478.7 -1.59787 1.11598 0
M  V30 15823 H 1477.8 -3.05265 0.649574 0
M  V30 15824 N 1478.1 -0.635022 -1.4424 0
M  V30 15825 C 1479.05 0.0895375 -2.27824 0
M  V30 15826 C 1480.03 0.812405 -1.38884 0
M  V30 15827 O 1481.23 0.69787 -1.62662 0
M  V30 15828 C 1478.36 1.06778 -3.26272 0
M  V30 15829 C 1477.44 0.344333 -4.227 0
M  V30 15830 N 1477.83 -0.629195 -5.01871 0
M  V30 15831 C 1476.13 0.588254 -4.42104 0
M  V30 15832 C 1476.83 -1.05697 -5.72017 0
M  V30 15833 N 1475.81 -0.394953 -5.42163 0
M  V30 15834 H 1479.61 -0.65777 -2.86445 0
M  V30 15835 H 1477.12 -0.460836 -1.55724 0
M  V30 15836 H 1479.12 1.6015 -3.84913 0
M  V30 15837 H 1477.78 1.81535 -2.69212 0
M  V30 15838 H 1478.79 -1.00717 -5.08012 0
M  V30 15839 H 1475.47 1.31839 -3.96137 0
M  V30 15840 H 1476.86 -1.86148 -6.45599 0
M  V30 15841 N 1479.58 1.53054 -0.375806 0
M  V30 15842 C 1480.8 2.06296 0.213708 0
M  V30 15843 C 1481.23 1.24675 1.40846 0
M  V30 15844 O 1480.59 0.268371 1.79303 0
M  V30 15845 C 1480.63 3.55981 0.575301 0
M  V30 15846 O 1479.74 3.77023 1.67115 0
M  V30 15847 H 1479.08 0.66338 0.0286922 0
M  V30 15848 H 1481.61 1.97362 -0.539371 0
M  V30 15849 H 1481.62 3.99187 0.843431 0
M  V30 15850 H 1480.29 4.14829 -0.298258 0
M  V30 15851 H 1478.87 3.45712 1.39778 0
M  V30 15852 N 1481.06 0.105248 1.57248 0
M  V30 15853 C 1482.3 -0.556054 1.94716 0
M  V30 15854 C 1482.63 -1.67557 0.987669 0
M  V30 15855 O 1481.89 -1.95698 0.00905706 0
M  V30 15856 C 1482.19 -1.14178 3.38671 0
M  V30 15857 C 1481.85 -0.145022 4.50667 0
M  V30 15858 C 1480.51 0.129099 4.81027 0
M  V30 15859 C 1482.87 0.535015 5.18447 0
M  V30 15860 C 1480.19 1.08978 5.7649 0
M  V30 15861 C 1482.55 1.48423 6.14942 0
M  V30 15862 C 1481.21 1.76648 6.43702 0
M  V30 15863 H 1480.48 -0.203475 0.712516 0
M  V30 15864 H 1483.13 0.183237 1.90621 0
M  V30 15865 H 1481.43 -1.95754 3.39393 0
M  V30 15866 H 1483.13 -1.66132 3.64967 0
M  V30 15867 H 1479.72 -0.36886 4.2701 0
M  V30 15868 H 1483.9 0.336391 4.95159 0
M  V30 15869 H 1479.16 1.31535 5.97083 0
M  V30 15870 H 1483.33 2.01693 6.66553 0
M  V30 15871 H 1480.96 2.51245 7.17482 0
M  V30 15872 N 1482.53 -1.56697 -0.168486 0
M  V30 15873 C 1483.47 -1.93197 -1.23319 0
M  V30 15874 C 1484.48 -0.825373 -1.40326 0
M  V30 15875 O 1485.67 -1.10381 -1.40279 0
M  V30 15876 C 1482.77 -2.17205 -2.60145 0
M  V30 15877 C 1481.94 -3.48442 -2.64399 0
M  V30 15878 C 1481 -3.61244 -3.82609 0
M  V30 15879 O 1480.03 -4.33837 -3.68476 0
M  V30 15880 N 1481.23 -2.96304 -4.99183 0
M  V30 15881 H 1483.99 -2.85128 -0.923138 0
M  V30 15882 H 1481.55 -1.57887 -0.358229 0
M  V30 15883 H 1483.55 -2.23031 -3.37697 0
M  V30 15884 H 1482.12 -1.31643 -2.83529 0
M  V30 15885 H 1481.34 -3.54248 -1.72922 0
M  V30 15886 H 1482.62 -4.34795 -2.64255 0
M  V30 15887 H 1482.02 -2.37203 -5.13567 0
M  V30 15888 H 1480.58 -3.07722 -5.74587 0
M  V30 15889 N 1484.01 0.437135 -1.51416 0
M  V30 15890 C 1485.24 1.20723 -1.67659 0
M  V30 15891 C 1485.65 1.85476 -0.373547 0
M  V30 15892 O 1484.99 1.71516 0.657876 0
M  V30 15893 C 1485.06 2.33257 -2.73553 0
M  V30 15894 C 1484.72 1.8887 -4.16146 0
M  V30 15895 C 1485.72 1.39203 -5.00918 0
M  V30 15896 C 1483.4 1.96555 -4.62246 0
M  V30 15897 C 1485.4 0.978071 -6.29851 0
M  V30 15898 C 1483.08 1.54771 -5.91176 0
M  V30 15899 C 1484.08 1.05479 -6.74806 0
M  V30 15900 O 1483.77 0.64288 -8.01325 0
M  V30 15901 H 1483.5 0.36993 -0.565798 0
M  V30 15902 H 1486.05 0.524183 -1.98599 0
M  V30 15903 H 1484.28 3.04839 -2.37929 0
M  V30 15904 H 1485.97 2.95121 -2.78673 0
M  V30 15905 H 1486.74 1.3266 -4.66505 0
M  V30 15906 H 1482.62 2.33868 -3.97274 0
M  V30 15907 H 1486.16 0.592633 -6.95078 0
M  V30 15908 H 1482.06 1.60985 -6.25103 0
M  V30 15909 H 1482.83 0.768711 -8.14882 0
M  V30 15910 N 1485.49 1.41566 0.692592 0
M  V30 15911 C 1486.44 1.43648 1.80648 0
M  V30 15912 C 1487.41 0.290497 1.6354 0
M  V30 15913 O 1488.59 0.491979 1.84348 0
M  V30 15914 C 1485.73 1.32733 3.18553 0
M  V30 15915 C 1484.85 2.57224 3.47073 0
M  V30 15916 C 1483.98 2.38581 4.74608 0
M  V30 15917 C 1483.02 3.58534 4.96105 0
M  V30 15918 N 1482.16 3.38942 6.14868 0
M  V30 15919 H 1487 2.38847 1.78203 0
M  V30 15920 H 1484.53 1.186 0.870193 0
M  V30 15921 H 1486.49 1.24405 3.9822 0
M  V30 15922 H 1485.12 0.411407 3.20168 0
M  V30 15923 H 1484.17 2.7599 2.6179 0
M  V30 15924 H 1485.49 3.46443 3.58858 0
M  V30 15925 H 1484.64 2.27738 5.62335 0
M  V30 15926 H 1483.38 1.46824 4.65074 0
M  V30 15927 H 1482.38 3.69828 4.06826 0
M  V30 15928 H 1483.61 4.51248 5.07496 0
M  V30 15929 H 1481.55 2.49887 6.06541 0
M  V30 15930 H 1481.47 4.21737 6.27434 0
M  V30 15931 H 1482.74 3.31877 7.05321 0
M  V30 15932 N 1486.97 -0.927146 1.27443 0
M  V30 15933 C 1487.92 -2.01402 1.06871 0
M  V30 15934 C 1488.9 -1.609 -0.00345395 0
M  V30 15935 O 1490.09 -1.75688 0.215147 0
M  V30 15936 C 1487.22 -3.35697 0.718508 0
M  V30 15937 C 1486.31 -3.82641 1.82884 0
M  V30 15938 N 1486.7 -4.02091 3.06849 0
M  V30 15939 C 1485 -4.11682 1.71564 0
M  V30 15940 C 1485.7 -4.41195 3.79107 0
M  V30 15941 N 1484.68 -4.48697 3.06874 0
M  V30 15942 H 1488.48 -2.14471 2.00946 0
M  V30 15943 H 1485.99 -1.11402 1.18166 0
M  V30 15944 H 1487.99 -4.13226 0.552238 0
M  V30 15945 H 1486.65 -3.2399 -0.214622 0
M  V30 15946 H 1487.66 -3.88384 3.42605 0
M  V30 15947 H 1484.34 -4.08685 0.853381 0
M  V30 15948 H 1485.73 -4.64318 4.85653 0
M  V30 15949 N 1488.45 -1.09474 -1.13372 0
M  V30 15950 C 1489.86 -0.824541 -1.36651 0
M  V30 15951 C 1490.06 0.560903 -1.93536 0
M  V30 15952 O 1489.12 1.31567 -2.15514 0
M  V30 15953 C 1490.43 -1.91618 -2.31739 0
M  V30 15954 C 1491.98 -1.94346 -2.45354 0
M  V30 15955 C 1492.45 -3.02655 -3.4375 0
M  V30 15956 N 1493.95 -3.01898 -3.513 0
M  V30 15957 C 1494.68 -3.82344 -4.27318 0
M  V30 15958 N 1494.18 -4.727 -5.06484 0
M  V30 15959 N 1495.97 -3.70602 -4.22623 0
M  V30 15960 H 1488.12 -1.98793 -0.748005 0
M  V30 15961 H 1490.38 -0.863318 -0.391646 0
M  V30 15962 H 1490.09 -2.91282 -1.97098 0
M  V30 15963 H 1489.96 -1.79484 -3.31761 0
M  V30 15964 H 1492.35 -0.953206 -2.79281 0
M  V30 15965 H 1492.43 -2.10558 -1.45255 0
M  V30 15966 H 1492.08 -4.01894 -3.10553 0
M  V30 15967 H 1492.01 -2.83687 -4.43655 0
M  V30 15968 H 1494.5 -2.36417 -2.94814 0
M  V30 15969 H 1494.81 -5.30665 -5.61796 0
M  V30 15970 H 1493.15 -4.76736 -5.05715 0
M  V30 15971 H 1496.35 -2.99372 -3.59853 0
M  V30 15972 H 1496.52 -4.33535 -4.81614 0
M  V30 15973 N 1489.92 1.30607 -0.882012 0
M  V30 15974 C 1491.17 1.95869 -0.497978 0
M  V30 15975 C 1491.49 1.69991 0.955405 0
M  V30 15976 O 1490.76 1.02188 1.67136 0
M  V30 15977 H 1489.34 0.724699 -0.181165 0
M  V30 15978 H 1492.01 1.59193 -1.12444 0
M  V30 15979 H 1491.1 3.04917 -0.665754 0
M  V30 15980 N 1491.4 0.642663 1.43901 0
M  V30 15981 C 1492.65 0.152003 2.0223 0
M  V30 15982 C 1492.98 -1.22711 1.50518 0
M  V30 15983 O 1492.26 -1.817 0.693937 0
M  V30 15984 C 1492.54 0.151278 3.59782 0
M  V30 15985 C 1492.39 1.56356 4.2175 0
M  V30 15986 C 1493.71 -0.518016 4.37041 0
M  V30 15987 H 1490.83 0.0567094 0.734815 0
M  V30 15988 H 1493.47 0.821337 1.7133 0
M  V30 15989 H 1491.62 -0.418679 3.86237 0
M  V30 15990 H 1493.29 2.18329 4.06362 0
M  V30 15991 H 1491.54 2.11401 3.78803 0
M  V30 15992 H 1492.21 1.51499 5.30803 0
M  V30 15993 H 1494.68 -0.0331947 4.16087 0
M  V30 15994 H 1493.56 -0.487754 5.46729 0
M  V30 15995 H 1493.82 -1.59036 4.12504 0
M  V30 15996 N 1492.88 -1.52852 0.383918 0
M  V30 15997 C 1494.11 -2.0563 -0.199926 0
M  V30 15998 C 1494.52 -1.25589 -1.41506 0
M  V30 15999 O 1493.86 -0.294254 -1.81328 0
M  V30 16000 C 1493.92 -3.53761 -0.639796 0
M  V30 16001 C 1493.59 -4.54667 0.461143 0
M  V30 16002 C 1494.59 -5.02946 1.31685 0
M  V30 16003 C 1492.27 -4.98376 0.626633 0
M  V30 16004 C 1494.26 -5.93553 2.32322 0
M  V30 16005 C 1491.95 -5.88784 1.63635 0
M  V30 16006 C 1492.95 -6.36265 2.48306 0
M  V30 16007 O 1492.64 -7.24888 3.47553 0
M  V30 16008 H 1492.37 -0.675089 -0.0350831 0
M  V30 16009 H 1494.92 -1.98009 0.546042 0
M  V30 16010 H 1493.15 -3.58982 -1.43766 0
M  V30 16011 H 1494.84 -3.89307 -1.1487 0
M  V30 16012 H 1495.61 -4.69913 1.20028 0
M  V30 16013 H 1491.49 -4.60994 -0.0226873 0
M  V30 16014 H 1495.03 -6.30536 2.98447 0
M  V30 16015 H 1490.93 -6.21232 1.75332 0
M  V30 16016 H 1491.7 -7.42934 3.43498 0
M  V30 16017 N 1494.36 -0.113586 -1.5719 0
M  V30 16018 C 1495.58 0.556928 -1.99783 0
M  V30 16019 C 1496.01 1.59774 -0.992669 0
M  V30 16020 O 1495.37 1.81263 0.0363821 0
M  V30 16021 C 1495.42 1.16463 -3.41275 0
M  V30 16022 O 1494.52 2.28024 -3.43626 0
M  V30 16023 H 1493.86 0.139628 -0.649153 0
M  V30 16024 H 1496.39 -0.200462 -2.03616 0
M  V30 16025 H 1496.4 1.50147 -3.79368 0
M  V30 16026 H 1495.08 0.402232 -4.1395 0
M  V30 16027 H 1493.65 1.9582 -3.17347 0
M  V30 16028 N 1495.84 1.56784 0.160173 0
M  V30 16029 C 1497.06 1.87129 0.894283 0
M  V30 16030 C 1497.49 0.701172 1.74543 0
M  V30 16031 O 1496.85 -0.349542 1.77899 0
M  V30 16032 C 1496.89 3.15969 1.73769 0
M  V30 16033 O 1496 2.98977 2.84054 0
M  V30 16034 H 1495.34 0.615192 0.249869 0
M  V30 16035 H 1497.87 2.04012 0.154956 0
M  V30 16036 H 1497.88 3.47657 2.13538 0
M  V30 16037 H 1496.55 4.00742 1.11258 0
M  V30 16038 H 1495.13 2.78668 2.47788 0
M  V30 16039 N 1497.32 -0.429099 1.51646 0
M  V30 16040 C 1498.59 -1.18958 1.55269 0
M  V30 16041 C 1498.97 -2.08633 0.321816 0
M  V30 16042 O 1498.32 -2.1775 -0.69261 0
M  V30 16043 C 1498.53 -1.98427 2.87102 0
M  V30 16044 C 1499.88 -2.55185 3.39361 0
M  V30 16045 O 1500.9 -2.08629 2.88708 0
M  V30 16046 O 1499.76 -3.40119 4.27763 0
M  V30 16047 H 1496.86 -0.542041 0.624596 0
M  V30 16048 H 1499.4 -0.437499 1.63964 0
M  V30 16049 H 1498.17 -1.32613 3.68143 0
M  V30 16050 H 1497.8 -2.80683 2.81608 0
M  V30 16051 N 1498.79 -1.41931 -0.685074 0
M  V30 16052 C 1500.04 -1.42062 -1.44728 0
M  V30 16053 C 1500.37 -0.0332072 -1.94172 0
M  V30 16054 O 1499.65 0.940835 -1.70231 0
M  V30 16055 C 1499.93 -2.43634 -2.65168 0
M  V30 16056 C 1499.78 -3.91525 -2.21423 0
M  V30 16057 C 1501.1 -2.42325 -3.67378 0
M  V30 16058 H 1498.22 -0.517321 -0.524927 0
M  V30 16059 H 1500.86 -1.73277 -0.779419 0
M  V30 16060 H 1499.01 -2.17146 -3.22149 0
M  V30 16061 H 1500.69 -4.28956 -1.69689 0
M  V30 16062 H 1498.93 -4.05886 -1.53099 0
M  V30 16063 H 1499.6 -4.58158 -3.07889 0
M  V30 16064 H 1502.08 -2.65857 -3.20093 0
M  V30 16065 H 1500.95 -3.15391 -4.49243 0
M  V30 16066 H 1501.21 -1.44555 -4.17799 0
M  V30 16067 N 1500.27 0.920374 -1.27933 0
M  V30 16068 C 1501.52 1.66883 -1.147 0
M  V30 16069 C 1501.85 1.92082 0.305732 0
M  V30 16070 O 1501.1 1.51449 1.23942 0
M  V30 16071 C 1501.4 3.03725 -1.88377 0
M  V30 16072 C 1501.07 2.9821 -3.38203 0
M  V30 16073 C 1499.73 2.96413 -3.79068 0
M  V30 16074 C 1502.08 2.88952 -4.3377 0
M  V30 16075 C 1499.41 2.83151 -5.13851 0
M  V30 16076 C 1501.76 2.77231 -5.68618 0
M  V30 16077 C 1500.42 2.73788 -6.08766 0
M  V30 16078 H 1499.69 0.61067 -0.419718 0
M  V30 16079 H 1502.34 1.0728 -1.58629 0
M  V30 16080 H 1500.65 3.67075 -1.36978 0
M  V30 16081 H 1502.34 3.60527 -1.7556 0
M  V30 16082 H 1498.93 3.004 -3.05709 0
M  V30 16083 H 1503.12 2.89433 -4.03165 0
M  V30 16084 H 1498.37 2.78877 -5.44093 0
M  V30 16085 H 1502.55 2.69034 -6.42335 0
M  V30 16086 H 1500.17 2.63268 -7.13158 0
M  V30 16087 N 1501.75 1.10074 1.1279 0
M  V30 16088 C 1503.03 0.753069 1.80522 0
M  V30 16089 C 1503.41 -0.760982 1.96907 0
M  V30 16090 O 1502.75 -1.68584 1.54245 0
M  V30 16091 C 1502.96 1.49982 3.15129 0
M  V30 16092 C 1504.31 1.66993 3.90382 0
M  V30 16093 O 1505.34 1.46289 3.24774 0
M  V30 16094 O 1504.2 2.01293 5.08078 0
M  V30 16095 H 1501.29 0.271277 0.781241 0
M  V30 16096 H 1503.84 1.20333 1.19658 0
M  V30 16097 H 1502.61 2.53043 2.98471 0
M  V30 16098 H 1502.23 1.04217 3.83699 0
M  V30 16099 N 1503.23 -1.30138 0.888926 0
M  V30 16100 C 1504.48 -1.95265 0.5054 0
M  V30 16101 C 1504.79 -1.70925 -0.950998 0
M  V30 16102 O 1506 -2.30069 -1.44155 0
M  V30 16103 C 1504.45 -3.49647 0.852937 0
M  V30 16104 C 1504.06 -3.82802 2.32737 0
M  V30 16105 C 1505.8 -4.21067 0.538801 0
M  V30 16106 C 1503.71 -5.30379 2.61633 0
M  V30 16107 H 1502.64 -0.730882 0.185278 0
M  V30 16108 H 1505.29 -1.48027 1.08444 0
M  V30 16109 H 1503.67 -3.9548 0.202937 0
M  V30 16110 H 1504.85 -3.47866 3.02202 0
M  V30 16111 H 1503.16 -3.24495 2.60944 0
M  V30 16112 H 1505.76 -5.2967 0.731676 0
M  V30 16113 H 1506.1 -4.13014 -0.522039 0
M  V30 16114 H 1506.64 -3.8093 1.14617 0
M  V30 16115 H 1503.37 -5.43486 3.66473 0
M  V30 16116 H 1502.89 -5.66601 1.96782 0
M  V30 16117 H 1504.57 -5.97856 2.47339 0
M  V30 16118 N 1504.71 -0.650285 -1.43559 0
M  V30 16119 C 1505.95 -0.162484 -2.01847 0
M  V30 16120 C 1506.28 1.22251 -1.51278 0
M  V30 16121 O 1505.54 1.82939 -0.695115 0
M  V30 16122 C 1505.83 -0.119084 -3.57202 0
M  V30 16123 C 1505.5 -1.44543 -4.27104 0
M  V30 16124 C 1504.16 -1.80864 -4.45917 0
M  V30 16125 C 1506.51 -2.32005 -4.66715 0
M  V30 16126 C 1503.84 -3.04319 -5.01604 0
M  V30 16127 C 1506.19 -3.54748 -5.23771 0
M  V30 16128 C 1504.86 -3.9127 -5.408 0
M  V30 16129 H 1504.13 -0.0594573 -0.738611 0
M  V30 16130 H 1506.78 -0.84041 -1.72074 0
M  V30 16131 H 1505.08 0.642282 -3.865 0
M  V30 16132 H 1506.78 0.275168 -4.00055 0
M  V30 16133 H 1503.37 -1.15281 -4.12805 0
M  V30 16134 H 1507.55 -2.05234 -4.51877 0
M  V30 16135 H 1502.81 -3.32668 -5.12974 0
M  V30 16136 H 1506.98 -4.2274 -5.53411 0
M  V30 16137 H 1504.61 -4.87011 -5.83716 0
M  V30 16138 N 1506.18 1.52647 -0.392018 0
M  V30 16139 C 1507.59 1.86522 0.0814091 0
M  V30 16140 C 1507.95 1.31158 1.45918 0
M  V30 16141 O 1507.07 0.644007 2.06595 0
M  V30 16142 C 1507.67 3.38448 0.1545 0
M  V30 16143 C 1506.22 3.72025 0.572227 0
M  V30 16144 C 1505.37 2.7604 -0.264093 0
M  V30 16145 H 1508.32 1.46517 -0.609785 0
M  V30 16146 H 1508.34 3.67846 0.973109 0
M  V30 16147 H 1507.86 3.78713 -0.848396 0
M  V30 16148 H 1505.96 3.37329 1.58239 0
M  V30 16149 H 1506.07 4.77973 0.328491 0
M  V30 16150 H 1504.43 2.53254 0.271042 0
M  V30 16151 H 1505.22 3.19143 -1.26502 0
M  V30 16152 N 1507.66 0.121921 1.57128 0
M  V30 16153 C 1508.91 -0.534313 1.94909 0
M  V30 16154 C 1509.23 -1.67029 1.0063 0
M  V30 16155 O 1508.5 -1.95798 0.0631366 0
M  V30 16156 H 1507.08 -0.200372 0.719625 0
M  V30 16157 H 1509.74 0.191546 1.93956 0
M  V30 16158 H 1508.84 -0.926974 2.98016 0
M  V30 16159 N 1509.14 -1.56867 -0.151857 0
M  V30 16160 C 1510.37 -1.87237 -0.880343 0
M  V30 16161 C 1510.78 -0.709565 -1.74959 0
M  V30 16162 O 1510.14 0.320818 -1.79658 0
M  V30 16163 C 1510.19 -3.16811 -1.74107 0
M  V30 16164 O 1509.91 -4.28611 -0.906858 0
M  V30 16165 C 1511.41 -3.60662 -2.57755 0
M  V30 16166 H 1508.63 -0.62074 -0.254799 0
M  V30 16167 H 1511.18 -2.03977 -0.146104 0
M  V30 16168 H 1509.33 -3.01838 -2.42842 0
M  V30 16169 H 1509.75 -5.02673 -1.49733 0
M  V30 16170 H 1511.22 -4.54176 -3.13732 0
M  V30 16171 H 1511.7 -2.85716 -3.33561 0
M  V30 16172 H 1512.3 -3.78312 -1.94319 0
M  V30 16173 N 1510.62 0.421051 -1.51871 0
M  V30 16174 C 1511.85 1.18938 -1.6893 0
M  V30 16175 C 1512.26 1.85069 -0.393198 0
M  V30 16176 O 1511.6 1.72204 0.639648 0
M  V30 16177 C 1511.66 2.30343 -2.76012 0
M  V30 16178 C 1511.33 1.84446 -4.18125 0
M  V30 16179 C 1512.32 1.33882 -5.02366 0
M  V30 16180 C 1510.01 1.91642 -4.64305 0
M  V30 16181 C 1512 0.911212 -6.30853 0
M  V30 16182 C 1509.69 1.48492 -5.92784 0
M  V30 16183 C 1510.69 0.98316 -6.75887 0
M  V30 16184 O 1510.37 0.557853 -8.01962 0
M  V30 16185 H 1510.11 0.363908 -0.56969 0
M  V30 16186 H 1512.66 0.503089 -1.99144 0
M  V30 16187 H 1510.89 3.02298 -2.41148 0
M  V30 16188 H 1512.58 2.92148 -2.81787 0
M  V30 16189 H 1513.35 1.27704 -4.67885 0
M  V30 16190 H 1509.22 2.29641 -3.99732 0
M  V30 16191 H 1512.77 0.518877 -6.95668 0
M  V30 16192 H 1508.67 1.54345 -6.26776 0
M  V30 16193 H 1509.43 0.682238 -8.15652 0
M  V30 16194 N 1512.1 1.42293 0.677538 0
M  V30 16195 C 1513.03 1.41503 1.80304 0
M  V30 16196 C 1514.04 0.314499 1.59733 0
M  V30 16197 O 1515.23 0.57741 1.68903 0
M  V30 16198 C 1512.33 1.18879 3.17366 0
M  V30 16199 C 1511.5 2.41314 3.6481 0
M  V30 16200 C 1510.56 2.14277 4.80595 0
M  V30 16201 O 1509.59 2.87457 4.91281 0
M  V30 16202 N 1510.79 1.14419 5.69112 0
M  V30 16203 H 1513.56 2.38515 1.81468 0
M  V30 16204 H 1511.12 1.37137 0.860529 0
M  V30 16205 H 1513.11 0.987135 3.92476 0
M  V30 16206 H 1511.68 0.304002 3.11118 0
M  V30 16207 H 1510.9 2.77066 2.80407 0
M  V30 16208 H 1512.19 3.2285 3.9325 0
M  V30 16209 H 1511.58 0.53888 5.63127 0
M  V30 16210 H 1510.14 1.00241 6.44046 0
M  V30 16211 N 1513.57 -0.913576 1.28419 0
M  V30 16212 C 1514.8 -1.69649 1.18435 0
M  V30 16213 C 1515.22 -1.87043 -0.256987 0
M  V30 16214 O 1514.57 -1.39755 -1.17366 0
M  V30 16215 C 1514.63 -3.08855 1.87859 0
M  V30 16216 O 1514.35 -2.92265 3.26363 0
M  V30 16217 C 1515.85 -4.03229 1.84178 0
M  V30 16218 H 1513.07 -0.530307 0.411115 0
M  V30 16219 H 1515.61 -1.14342 1.69547 0
M  V30 16220 H 1513.77 -3.60979 1.40617 0
M  V30 16221 H 1514.18 -3.80372 3.61134 0
M  V30 16222 H 1515.65 -4.98369 2.37344 0
M  V30 16223 H 1516.13 -4.31587 0.814195 0
M  V30 16224 H 1516.74 -3.57033 2.311 0
M  V30 16225 N 1515.05 -1.1067 -1.12204 0
M  V30 16226 C 1515.98 -0.779829 -2.20093 0
M  V30 16227 C 1516.96 0.248279 -1.68278 0
M  V30 16228 O 1518.15 0.113511 -1.93868 0
M  V30 16229 C 1515.28 -0.213511 -3.46643 0
M  V30 16230 C 1514.23 -1.17258 -4.11624 0
M  V30 16231 C 1513.56 -0.467352 -5.32654 0
M  V30 16232 C 1514.86 -2.52014 -4.57478 0
M  V30 16233 H 1516.55 -1.68192 -2.47693 0
M  V30 16234 H 1514.1 -0.810131 -1.1905 0
M  V30 16235 H 1516.05 0.0273225 -4.21391 0
M  V30 16236 H 1514.78 0.723837 -3.18478 0
M  V30 16237 H 1513.43 -1.39891 -3.3886 0
M  V30 16238 H 1513.08 0.474547 -5.00756 0
M  V30 16239 H 1512.78 -1.10694 -5.77079 0
M  V30 16240 H 1514.31 -0.235122 -6.10147 0
M  V30 16241 H 1515.72 -2.33516 -5.23587 0
M  V30 16242 H 1514.12 -3.1188 -5.1269 0
M  V30 16243 H 1515.19 -3.11831 -3.71335 0
M  V30 16244 N 1516.53 1.29665 -0.895815 0
M  V30 16245 C 1517.44 2.31582 -0.375086 0
M  V30 16246 C 1518.46 1.65789 0.528196 0
M  V30 16247 O 1519.63 1.96999 0.41871 0
M  V30 16248 C 1516.7 3.44472 0.39241 0
M  V30 16249 C 1515.76 4.25866 -0.541926 0
M  V30 16250 C 1514.99 5.33365 0.189037 0
M  V30 16251 O 1515.21 5.52607 1.41355 0
M  V30 16252 O 1514.15 6.0009 -0.466441 0
M  V30 16253 H 1517.97 2.78095 -1.22052 0
M  V30 16254 H 1515.56 1.34031 -0.660007 0
M  V30 16255 H 1517.44 4.13214 0.826565 0
M  V30 16256 H 1516.12 3.00074 1.21397 0
M  V30 16257 H 1515.02 3.59781 -1.02512 0
M  V30 16258 H 1516.36 4.73896 -1.32979 0
M  V30 16259 N 1518.01 0.657889 1.43212 0
M  V30 16260 C 1518.94 -0.0807001 2.28057 0
M  V30 16261 C 1519.92 -0.825321 1.40097 0
M  V30 16262 O 1521.1 -0.823932 1.69539 0
M  V30 16263 C 1518.23 -1.12112 3.19607 0
M  V30 16264 C 1517.28 -0.474017 4.23858 0
M  V30 16265 S 1518.11 0.75589 5.30138 0
M  V30 16266 C 1519.27 -0.28388 6.25256 0
M  V30 16267 H 1519.5 0.639012 2.90351 0
M  V30 16268 H 1517.03 0.446876 1.47792 0
M  V30 16269 H 1518.99 -1.71637 3.72895 0
M  V30 16270 H 1517.65 -1.81318 2.56481 0
M  V30 16271 H 1516.84 -1.25849 4.88035 0
M  V30 16272 H 1516.45 0.0472307 3.7397 0
M  V30 16273 H 1518.74 -1.14869 6.67691 0
M  V30 16274 H 1519.68 0.322986 7.07363 0
M  V30 16275 H 1520.09 -0.621781 5.61065 0
M  V30 16276 N 1519.49 -1.52437 0.400108 0
M  V30 16277 C 1520.73 -2.01711 -0.178605 0
M  V30 16278 C 1521.06 -1.28613 -1.45908 0
M  V30 16279 O 1520.32 -0.378206 -1.92011 0
M  V30 16280 C 1520.62 -3.54133 -0.482141 0
M  V30 16281 C 1520.28 -4.45306 0.70806 0
M  V30 16282 C 1518.94 -4.69947 1.03455 0
M  V30 16283 C 1521.3 -4.99035 1.50379 0
M  V30 16284 C 1518.62 -5.45566 2.15812 0
M  V30 16285 C 1520.98 -5.75883 2.61805 0
M  V30 16286 C 1519.64 -5.98799 2.9495 0
M  V30 16287 H 1518.91 -0.738112 -0.0653562 0
M  V30 16288 H 1521.56 -1.83738 0.539676 0
M  V30 16289 H 1519.86 -3.70237 -1.28188 0
M  V30 16290 H 1521.56 -3.89761 -0.942725 0
M  V30 16291 H 1518.15 -4.26298 0.443599 0
M  V30 16292 H 1522.33 -4.79913 1.26479 0
M  V30 16293 H 1517.59 -5.61532 2.4185 0
M  V30 16294 H 1521.76 -6.16514 3.23857 0
M  V30 16295 H 1519.39 -6.57176 3.8213 0
M  V30 16296 N 1520.96 -0.130252 -1.57061 0
M  V30 16297 C 1522.38 0.393318 -1.8251 0
M  V30 16298 C 1522.73 1.65862 -1.04806 0
M  V30 16299 O 1521.85 2.14473 -0.288118 0
M  V30 16300 C 1522.45 0.720366 -3.31053 0
M  V30 16301 C 1521.01 1.18852 -3.57143 0
M  V30 16302 C 1520.15 0.202964 -2.76556 0
M  V30 16303 H 1523.1 -0.355217 -1.54674 0
M  V30 16304 H 1523.12 1.57671 -3.46295 0
M  V30 16305 H 1522.64 -0.200719 -3.87581 0
M  V30 16306 H 1520.74 2.12612 -3.05985 0
M  V30 16307 H 1520.85 1.12607 -4.65678 0
M  V30 16308 H 1519.21 0.692264 -2.45112 0
M  V30 16309 H 1520 -0.711417 -3.35848 0
M  V30 16310 N 1522.44 1.56945 0.143535 0
M  V30 16311 C 1523.86 1.51688 0.496291 0
M  V30 16312 C 1524.06 0.839251 1.83191 0
M  V30 16313 O 1523.12 0.411235 2.49129 0
M  V30 16314 C 1524.43 2.96456 0.503402 0
M  V30 16315 C 1525.98 3.07414 0.588676 0
M  V30 16316 C 1526.45 4.53696 0.626416 0
M  V30 16317 N 1527.94 4.58054 0.688543 0
M  V30 16318 C 1528.68 5.68621 0.738786 0
M  V30 16319 N 1528.17 6.88748 0.748163 0
M  V30 16320 N 1529.97 5.56663 0.779931 0
M  V30 16321 H 1522.12 1.99392 -0.731901 0
M  V30 16322 H 1524.38 0.909546 -0.267263 0
M  V30 16323 H 1524.09 3.49304 -0.409845 0
M  V30 16324 H 1523.96 3.52593 1.34008 0
M  V30 16325 H 1526.35 2.54584 1.49234 0
M  V30 16326 H 1526.43 2.54315 -0.275213 0
M  V30 16327 H 1526.07 5.07165 -0.273108 0
M  V30 16328 H 1526 5.04581 1.50684 0
M  V30 16329 H 1528.49 3.71576 0.688455 0
M  V30 16330 H 1528.81 7.68767 0.788444 0
M  V30 16331 H 1527.15 6.91302 0.715982 0
M  V30 16332 H 1530.34 4.61727 0.769799 0
M  V30 16333 H 1530.52 6.42847 0.815621 0
M  V30 16334 N 1523.92 -0.412991 1.52093 0
M  V30 16335 C 1525.15 -1.18212 1.69805 0
M  V30 16336 C 1525.56 -1.84386 0.405844 0
M  V30 16337 O 1524.92 -1.71725 -0.617809 0
M  V30 16338 C 1524.97 -2.24811 2.83094 0
M  V30 16339 O 1524.69 -1.61338 4.0731 0
M  V30 16340 C 1526.19 -3.14633 3.12283 0
M  V30 16341 H 1523.41 -0.355371 0.569168 0
M  V30 16342 H 1525.96 -0.486392 1.98632 0
M  V30 16343 H 1524.11 -2.90058 2.56797 0
M  V30 16344 H 1524.53 -2.31979 4.7041 0
M  V30 16345 H 1526 -3.85511 3.95076 0
M  V30 16346 H 1526.48 -3.76785 2.25677 0
M  V30 16347 H 1527.08 -2.55059 3.40331 0
M  V30 16348 N 1525.4 -1.4265 -0.669982 0
M  V30 16349 C 1526.81 -1.38614 -1.25072 0
M  V30 16350 C 1527.16 -0.0818051 -1.96029 0
M  V30 16351 O 1526.29 0.81931 -2.0029 0
M  V30 16352 C 1526.88 -2.51085 -2.27469 0
M  V30 16353 C 1525.44 -2.50366 -2.81059 0
M  V30 16354 C 1524.59 -2.29632 -1.5545 0
M  V30 16355 H 1527.54 -1.51794 -0.463058 0
M  V30 16356 H 1527.56 -2.21612 -3.09303 0
M  V30 16357 H 1527.07 -3.46002 -1.75796 0
M  V30 16358 H 1525.17 -1.5928 -3.36839 0
M  V30 16359 H 1525.29 -3.47569 -3.29746 0
M  V30 16360 H 1523.65 -1.77982 -1.82193 0
M  V30 16361 H 1524.43 -3.26611 -1.05736 0
M  V30 16362 N 1526.88 0.906753 -1.28902 0
M  V30 16363 C 1528.13 1.6533 -1.16234 0
M  V30 16364 C 1528.45 1.92861 0.288004 0
M  V30 16365 O 1527.72 1.54971 1.19837 0
M  V30 16366 H 1526.3 0.612806 -0.427174 0
M  V30 16367 H 1528.96 1.08764 -1.6173 0
M  V30 16368 H 1528.05 2.61271 -1.70715 0
M  V30 16369 N 1528.36 1.11264 1.11616 0
M  V30 16370 C 1529.6 0.855139 1.82675 0
M  V30 16371 C 1529.92 -0.621194 1.85474 0
M  V30 16372 O 1531.12 -0.994886 2.52615 0
M  V30 16373 C 1529.58 1.48007 3.28058 0
M  V30 16374 C 1529.19 2.99031 3.33593 0
M  V30 16375 C 1530.93 1.30233 4.04029 0
M  V30 16376 C 1528.84 3.54517 4.73362 0
M  V30 16377 H 1527.77 0.316252 0.684471 0
M  V30 16378 H 1530.42 1.33766 1.25614 0
M  V30 16379 H 1528.8 0.925214 3.8504 0
M  V30 16380 H 1529.98 3.60905 2.86503 0
M  V30 16381 H 1528.29 3.16059 2.711 0
M  V30 16382 H 1530.89 1.69122 5.07249 0
M  V30 16383 H 1531.23 0.244724 4.1558 0
M  V30 16384 H 1531.76 1.82573 3.53429 0
M  V30 16385 H 1528.5 4.59982 4.67008 0
M  V30 16386 H 1528.02 2.97414 5.20869 0
M  V30 16387 H 1529.7 3.52848 5.42316 0
M  V30 16388 N 1529.83 -1.29188 0.902679 0
M  V30 16389 C 1531.08 -1.96092 0.540328 0
M  V30 16390 C 1531.43 -1.6984 -0.903997 0
M  V30 16391 O 1530.73 -1.00257 -1.63276 0
M  V30 16392 C 1530.92 -3.48951 0.772542 0
M  V30 16393 C 1530.75 -3.90062 2.23789 0
M  V30 16394 C 1529.52 -4.14782 2.8859 0
M  V30 16395 C 1531.72 -4.01557 3.21335 0
M  V30 16396 N 1529.7 -4.42484 4.25536 0
M  V30 16397 C 1531.07 -4.33346 4.43409 0
M  V30 16398 C 1533.13 -3.84043 3.16884 0
M  V30 16399 C 1531.83 -4.49444 5.61598 0
M  V30 16400 C 1533.86 -4.01353 4.34362 0
M  V30 16401 C 1533.22 -4.33503 5.55207 0
M  V30 16402 H 1529.32 -0.741839 0.247383 0
M  V30 16403 H 1531.9 -1.56066 1.16411 0
M  V30 16404 H 1530.07 -3.87991 0.178119 0
M  V30 16405 H 1531.8 -4.02956 0.375328 0
M  V30 16406 H 1528.56 -4.08655 2.3937 0
M  V30 16407 H 1528.98 -4.60438 4.96312 0
M  V30 16408 H 1533.62 -3.58247 2.24541 0
M  V30 16409 H 1531.34 -4.74075 6.5443 0
M  V30 16410 H 1534.93 -3.89249 4.32408 0
M  V30 16411 H 1533.81 -4.46617 6.44595 0
M  V30 16412 N 1531.31 -0.665475 -1.42861 0
M  V30 16413 C 1532.24 0.00482845 -2.335 0
M  V30 16414 C 1533.22 0.799135 -1.50159 0
M  V30 16415 O 1534.41 0.75816 -1.78789 0
M  V30 16416 C 1531.54 0.963347 -3.33672 0
M  V30 16417 C 1530.49 0.278294 -4.27094 0
M  V30 16418 C 1529.82 1.34911 -5.174 0
M  V30 16419 C 1531.12 -0.836925 -5.15551 0
M  V30 16420 H 1532.81 -0.752129 -2.89799 0
M  V30 16421 H 1530.36 -0.363139 -1.39346 0
M  V30 16422 H 1532.31 1.44128 -3.95986 0
M  V30 16423 H 1531.03 1.75161 -2.75656 0
M  V30 16424 H 1529.69 -0.179314 -3.66161 0
M  V30 16425 H 1529.34 2.12912 -4.55716 0
M  V30 16426 H 1529.04 0.895919 -5.8073 0
M  V30 16427 H 1530.57 1.82816 -5.8259 0
M  V30 16428 H 1531.98 -0.440617 -5.71604 0
M  V30 16429 H 1530.38 -1.21533 -5.87665 0
M  V30 16430 H 1531.45 -1.6897 -4.54507 0
M  V30 16431 N 1532.79 1.52222 -0.408187 0
M  V30 16432 C 1533.72 2.29892 0.408868 0
M  V30 16433 C 1534.7 1.34063 1.04695 0
M  V30 16434 O 1535.89 1.6297 1.05615 0
M  V30 16435 C 1533.02 3.11964 1.52629 0
M  V30 16436 C 1531.97 4.15833 1.01326 0
M  V30 16437 C 1531.3 4.86244 2.2242 0
M  V30 16438 C 1532.6 5.22256 0.0679573 0
M  V30 16439 H 1534.29 2.98443 -0.23923 0
M  V30 16440 H 1531.84 1.43528 -0.116496 0
M  V30 16441 H 1533.79 3.65067 2.10486 0
M  V30 16442 H 1532.51 2.41181 2.20225 0
M  V30 16443 H 1531.17 3.63739 0.4571 0
M  V30 16444 H 1530.82 4.11991 2.88569 0
M  V30 16445 H 1530.52 5.56461 1.88746 0
M  V30 16446 H 1532.04 5.42159 2.80885 0
M  V30 16447 H 1533.46 5.70604 0.555295 0
M  V30 16448 H 1531.85 5.9983 -0.179934 0
M  V30 16449 H 1532.92 4.76892 -0.877599 0
M  V30 16450 N 1534.27 0.138579 1.5699 0
M  V30 16451 C 1535.22 -0.815878 2.12902 0
M  V30 16452 C 1536.2 -1.21511 1.0547 0
M  V30 16453 O 1537.39 -1.18294 1.31665 0
M  V30 16454 C 1534.52 -2.0583 2.74752 0
M  V30 16455 C 1533.61 -1.68255 3.89296 0
M  V30 16456 N 1534 -1.01456 4.9552 0
M  V30 16457 C 1532.3 -1.97583 3.99846 0
M  V30 16458 C 1533 -0.834498 5.75683 0
M  V30 16459 N 1531.97 -1.36571 5.26165 0
M  V30 16460 H 1535.78 -0.296204 2.92404 0
M  V30 16461 H 1533.29 -0.0632473 1.62277 0
M  V30 16462 H 1535.29 -2.75197 3.13165 0
M  V30 16463 H 1533.95 -2.58323 1.96721 0
M  V30 16464 H 1534.96 -0.67628 5.13466 0
M  V30 16465 H 1531.64 -2.51985 3.32881 0
M  V30 16466 H 1533.03 -0.308664 6.71191 0
M  V30 16467 N 1535.75 -1.57019 -0.13521 0
M  V30 16468 C 1536.99 -1.85801 -0.851896 0
M  V30 16469 C 1537.35 -0.724449 -1.77808 0
M  V30 16470 O 1538.55 -0.893619 -2.53511 0
M  V30 16471 C 1536.82 -3.19788 -1.59595 0
M  V30 16472 S 1538.38 -3.70159 -2.35644 0
M  V30 16473 H 1535.2 -0.651534 -0.284649 0
M  V30 16474 H 1537.8 -1.95184 -0.111177 0
M  V30 16475 H 1536.5 -4.00247 -0.907221 0
M  V30 16476 H 1536.04 -3.13441 -2.37735 0
M  V30 16477 H 1538.05 -3.40364 -3.61063 0
M  V30 16478 N 1537.22 0.404919 -1.52309 0
M  V30 16479 C 1538.17 1.49281 -1.72334 0
M  V30 16480 C 1539.16 1.50188 -0.577267 0
M  V30 16481 O 1540.35 1.56093 -0.834497 0
M  V30 16482 C 1537.48 2.87166 -1.88123 0
M  V30 16483 C 1536.57 2.90891 -3.08615 0
M  V30 16484 N 1536.96 2.64307 -4.31249 0
M  V30 16485 C 1535.25 3.2206 -3.08535 0
M  V30 16486 C 1535.96 2.74708 -5.12748 0
M  V30 16487 N 1534.93 3.07766 -4.48086 0
M  V30 16488 H 1538.73 1.2753 -2.64789 0
M  V30 16489 H 1536.25 0.61268 -1.50399 0
M  V30 16490 H 1538.24 3.65473 -2.00587 0
M  V30 16491 H 1536.9 3.09913 -0.968712 0
M  V30 16492 H 1537.92 2.38624 -4.59651 0
M  V30 16493 H 1534.59 3.50373 -2.27035 0
M  V30 16494 H 1535.98 2.57835 -6.2046 0
M  V30 16495 N 1538.7 1.43003 0.662408 0
M  V30 16496 C 1539.95 1.44346 1.4245 0
M  V30 16497 C 1540.28 0.064094 1.94094 0
M  V30 16498 O 1539.56 -0.913633 1.71706 0
M  V30 16499 C 1539.84 2.47822 2.61259 0
M  V30 16500 C 1539.69 3.94998 2.15166 0
M  V30 16501 C 1541.01 2.48139 3.63476 0
M  V30 16502 H 1538.13 0.525606 0.51663 0
M  V30 16503 H 1540.77 1.74495 0.751754 0
M  V30 16504 H 1538.92 2.22244 3.18653 0
M  V30 16505 H 1540.59 4.31601 1.62843 0
M  V30 16506 H 1538.84 4.0827 1.46622 0
M  V30 16507 H 1539.51 4.62998 3.00561 0
M  V30 16508 H 1541.98 2.70916 3.15823 0
M  V30 16509 H 1540.86 3.22498 4.44169 0
M  V30 16510 H 1541.12 1.51184 4.15447 0
M  V30 16511 N 1540.18 -0.899904 1.29381 0
M  V30 16512 C 1541.41 -1.68383 1.20227 0
M  V30 16513 C 1541.82 -1.87305 -0.237135 0
M  V30 16514 O 1541.18 -1.40992 -1.15877 0
M  V30 16515 C 1541.23 -3.06845 1.91124 0
M  V30 16516 O 1540.95 -2.88787 3.29444 0
M  V30 16517 C 1542.45 -4.01253 1.88444 0
M  V30 16518 H 1539.67 -0.525917 0.416717 0
M  V30 16519 H 1542.22 -1.12537 1.7075 0
M  V30 16520 H 1540.37 -3.59467 1.44438 0
M  V30 16521 H 1540.79 -3.7652 3.65148 0
M  V30 16522 H 1542.26 -4.95824 2.42616 0
M  V30 16523 H 1542.74 -4.30699 0.859925 0
M  V30 16524 H 1543.34 -3.54562 2.34874 0
M  V30 16525 N 1541.66 -1.11854 -1.11024 0
M  V30 16526 C 1542.94 -0.781693 -1.79301 0
M  V30 16527 C 1543.32 0.72956 -1.98092 0
M  V30 16528 O 1542.66 1.66109 -1.56908 0
M  V30 16529 C 1542.87 -1.54976 -3.12703 0
M  V30 16530 C 1544.22 -1.73183 -3.87676 0
M  V30 16531 O 1545.25 -1.51437 -3.22406 0
M  V30 16532 O 1544.1 -2.0935 -5.04812 0
M  V30 16533 H 1541.2 -0.283672 -0.776826 0
M  V30 16534 H 1543.74 -1.22222 -1.17728 0
M  V30 16535 H 1542.52 -2.57759 -2.94408 0
M  V30 16536 H 1542.14 -1.10308 -3.81992 0
M  V30 16537 N 1543.14 1.28707 -0.909517 0
M  V30 16538 C 1544.09 2.25045 -0.365899 0
M  V30 16539 C 1545.07 1.5228 0.51959 0
M  V30 16540 O 1546.26 1.733 0.360004 0
M  V30 16541 C 1543.39 3.41 0.396725 0
M  V30 16542 C 1542.48 4.21092 -0.504243 0
M  V30 16543 N 1542.87 4.79293 -1.61592 0
M  V30 16544 C 1541.17 4.44964 -0.303843 0
M  V30 16545 C 1541.87 5.39516 -2.17481 0
M  V30 16546 N 1540.84 5.23442 -1.4666 0
M  V30 16547 H 1544.65 2.67611 -1.21497 0
M  V30 16548 H 1542.16 1.4343 -0.761686 0
M  V30 16549 H 1544.16 4.09094 0.80299 0
M  V30 16550 H 1542.82 2.99969 1.24294 0
M  V30 16551 H 1543.83 4.77785 -1.99856 0
M  V30 16552 H 1540.5 4.14456 0.503201 0
M  V30 16553 H 1541.89 5.95606 -3.10972 0
M  V30 16554 N 1544.61 0.673042 1.42506 0
M  V30 16555 C 1545.86 0.1918 2.00786 0
M  V30 16556 C 1546.18 -1.20814 1.53829 0
M  V30 16557 O 1547.38 -1.78566 2.04515 0
M  V30 16558 C 1545.84 0.292045 3.58713 0
M  V30 16559 C 1545.45 1.69593 4.14659 0
M  V30 16560 C 1547.19 -0.130575 4.24299 0
M  V30 16561 C 1545.1 1.74904 5.64945 0
M  V30 16562 H 1544.03 0.0679452 0.750932 0
M  V30 16563 H 1546.68 0.837968 1.63249 0
M  V30 16564 H 1545.06 -0.421985 3.93745 0
M  V30 16565 H 1546.23 2.4369 3.9109 0
M  V30 16566 H 1544.55 2.06625 3.61518 0
M  V30 16567 H 1547.15 -0.11102 5.34585 0
M  V30 16568 H 1547.49 -1.16552 3.99651 0
M  V30 16569 H 1548.02 0.532386 3.94221 0
M  V30 16570 H 1544.76 2.76374 5.94388 0
M  V30 16571 H 1544.28 1.0516 5.9051 0
M  V30 16572 H 1545.96 1.50168 6.29332 0
M  V30 16573 N 1546.09 -1.52004 0.416254 0
M  V30 16574 C 1547.04 -2.24037 -0.423226 0
M  V30 16575 C 1548.03 -1.25444 -1.0076 0
M  V30 16576 O 1549.22 -1.50646 -0.92924 0
M  V30 16577 C 1546.35 -3.07048 -1.53547 0
M  V30 16578 C 1545.43 -4.13056 -0.961518 0
M  V30 16579 N 1545.82 -5.0567 -0.114849 0
M  V30 16580 C 1544.12 -4.28667 -1.2313 0
M  V30 16581 C 1544.82 -5.81338 0.205249 0
M  V30 16582 N 1543.8 -5.42084 -0.405736 0
M  V30 16583 H 1547.6 -2.93 0.229864 0
M  V30 16584 H 1545.12 -1.60804 0.227087 0
M  V30 16585 H 1547.11 -3.57212 -2.14954 0
M  V30 16586 H 1545.77 -2.39626 -2.19111 0
M  V30 16587 H 1546.78 -5.17296 0.250006 0
M  V30 16588 H 1543.46 -3.72474 -1.88599 0
M  V30 16589 H 1544.85 -6.6594 0.892938 0
M  V30 16590 N 1547.57 -0.146903 -1.56914 0
M  V30 16591 C 1548.53 0.778709 -2.15566 0
M  V30 16592 C 1549.53 1.1753 -1.09742 0
M  V30 16593 O 1550.72 1.09624 -1.35382 0
M  V30 16594 C 1547.86 2.0567 -2.71869 0
M  V30 16595 H 1549.05 0.268506 -2.98696 0
M  V30 16596 H 1546.6 0.10254 -1.55963 0
M  V30 16597 H 1547.34 2.61057 -1.92405 0
M  V30 16598 H 1547.12 1.78154 -3.4929 0
M  V30 16599 H 1548.61 2.71779 -3.17059 0
M  V30 16600 N 1549.05 1.57088 0.126881 0
M  V30 16601 C 1550.3 1.84071 0.834397 0
M  V30 16602 C 1550.62 0.730896 1.80784 0
M  V30 16603 O 1549.89 -0.245791 1.94352 0
M  V30 16604 H 1548.47 0.679123 0.311128 0
M  V30 16605 H 1551.13 1.94554 0.116083 0
M  V30 16606 H 1550.23 2.79714 1.38443 0
M  V30 16607 N 1550.53 -0.396836 1.52522 0
M  V30 16608 C 1551.46 -1.50564 1.71481 0
M  V30 16609 C 1552.44 -1.5256 0.562524 0
M  V30 16610 O 1553.62 -1.71083 0.791378 0
M  V30 16611 C 1550.75 -2.89058 1.76531 0
M  V30 16612 C 1549.79 -3.04922 2.98202 0
M  V30 16613 S 1550.63 -2.76944 4.58326 0
M  V30 16614 C 1551.78 -4.17645 4.66179 0
M  V30 16615 H 1552.02 -1.34256 2.6526 0
M  V30 16616 H 1549.55 -0.589208 1.42715 0
M  V30 16617 H 1551.51 -3.6887 1.80125 0
M  V30 16618 H 1550.17 -3.02699 0.838582 0
M  V30 16619 H 1549.36 -4.06277 2.98254 0
M  V30 16620 H 1548.96 -2.32992 2.92559 0
M  V30 16621 H 1551.26 -5.11461 4.44312 0
M  V30 16622 H 1552.2 -4.22612 5.68159 0
M  V30 16623 H 1552.61 -4.03189 3.95093 0
M  V30 16624 N 1552.01 -1.43353 -0.654814 0
M  V30 16625 C 1552.92 -1.50831 -1.79687 0
M  V30 16626 C 1553.93 -0.395518 -1.69445 0
M  V30 16627 O 1555.11 -0.649408 -1.90643 0
M  V30 16628 C 1552.17 -1.42735 -3.15955 0
M  V30 16629 C 1551.23 -2.64671 -3.38005 0
M  V30 16630 C 1550.47 -2.56952 -4.67773 0
M  V30 16631 O 1550.69 -1.61638 -5.47019 0
M  V30 16632 O 1549.62 -3.47425 -4.91507 0
M  V30 16633 H 1553.45 -2.47266 -1.76333 0
M  V30 16634 H 1551.03 -1.25336 -0.813095 0
M  V30 16635 H 1552.92 -1.40656 -3.97233 0
M  V30 16636 H 1551.59 -0.494334 -3.19903 0
M  V30 16637 H 1550.5 -2.72323 -2.56498 0
M  V30 16638 H 1551.83 -3.5694 -3.38903 0
M  V30 16639 N 1553.48 0.89303 -1.29857 0
M  V30 16640 C 1554.71 1.67744 -1.21119 0
M  V30 16641 C 1555.13 1.87428 0.227198 0
M  V30 16642 O 1554.48 1.41605 1.15128 0
M  V30 16643 C 1554.53 3.05827 -1.92749 0
M  V30 16644 O 1554.26 2.87036 -3.30971 0
M  V30 16645 C 1555.76 4.00248 -1.9057 0
M  V30 16646 H 1552.98 0.523699 -0.4195 0
M  V30 16647 H 1555.52 1.1163 -1.71344 0
M  V30 16648 H 1553.68 3.58696 -1.46342 0
M  V30 16649 H 1554.09 3.74578 -3.6714 0
M  V30 16650 H 1555.56 4.9453 -2.45242 0
M  V30 16651 H 1556.04 4.30237 -0.882753 0
M  V30 16652 H 1556.65 3.53312 -2.36751 0
M  V30 16653 N 1554.96 1.12442 1.10429 0
M  V30 16654 C 1556.19 0.902599 1.86174 0
M  V30 16655 C 1556.6 -0.548147 1.80668 0
M  V30 16656 O 1555.96 -1.37898 1.19543 0
M  V30 16657 C 1556.01 1.36912 3.34571 0
M  V30 16658 O 1555.73 2.763 3.39985 0
M  V30 16659 C 1557.23 1.18424 4.27189 0
M  V30 16660 H 1554.45 0.322534 0.588399 0
M  V30 16661 H 1557 1.49439 1.396 0
M  V30 16662 H 1555.15 0.82055 3.7861 0
M  V30 16663 H 1555.57 2.96772 4.32466 0
M  V30 16664 H 1557.04 1.55954 5.29511 0
M  V30 16665 H 1557.52 0.12483 4.39023 0
M  V30 16666 H 1558.12 1.72032 3.88954 0
M  V30 16667 N 1556.44 -1.28223 0.91633 0
M  V30 16668 C 1557.67 -1.98697 0.56595 0
M  V30 16669 C 1558.08 -1.6864 -0.857734 0
M  V30 16670 O 1557.42 -0.937018 -1.58005 0
M  V30 16671 C 1557.48 -3.52653 0.698292 0
M  V30 16672 C 1557.15 -4.06306 2.092 0
M  V30 16673 C 1558.14 -4.19946 3.06499 0
M  V30 16674 C 1555.83 -4.40934 2.40587 0
M  V30 16675 C 1557.82 -4.67471 4.33301 0
M  V30 16676 C 1555.51 -4.88153 3.67628 0
M  V30 16677 C 1556.51 -5.01378 4.63798 0
M  V30 16678 O 1556.2 -5.47566 5.8858 0
M  V30 16679 H 1555.93 -0.641153 0.214239 0
M  V30 16680 H 1558.48 -1.64322 1.23237 0
M  V30 16681 H 1556.71 -3.86692 -0.0252036 0
M  V30 16682 H 1558.4 -4.04348 0.354638 0
M  V30 16683 H 1559.17 -3.93464 2.83569 0
M  V30 16684 H 1555.05 -4.29889 1.66482 0
M  V30 16685 H 1558.59 -4.77709 5.0837 0
M  V30 16686 H 1554.49 -5.14074 3.90382 0
M  V30 16687 H 1555.25 -5.65845 5.91406 0
M  V30 16688 N 1557.92 -0.68059 -1.42147 0
M  V30 16689 C 1559.15 -0.213839 -2.05792 0
M  V30 16690 C 1559.56 1.13123 -1.51158 0
M  V30 16691 O 1558.92 1.7039 -0.653708 0
M  V30 16692 C 1558.97 -0.146507 -3.61203 0
M  V30 16693 O 1558.69 -1.43843 -4.13813 0
M  V30 16694 C 1560.19 0.343043 -4.41971 0
M  V30 16695 H 1557.41 -0.10262 -0.663106 0
M  V30 16696 H 1559.95 -0.928957 -1.82183 0
M  V30 16697 H 1558.11 0.519335 -3.83903 0
M  V30 16698 H 1558.52 -1.31561 -5.07732 0
M  V30 16699 H 1560 0.339053 -5.50958 0
M  V30 16700 H 1560.47 1.37933 -4.16979 0
M  V30 16701 H 1561.08 -0.291267 -4.24301 0
M  V30 16702 N 1559.4 1.51781 -0.424309 0
M  V30 16703 C 1560.64 2.02269 0.146709 0
M  V30 16704 C 1560.97 1.30859 1.4349 0
M  V30 16705 O 1560.25 0.419504 1.89922 0
M  V30 16706 C 1560.53 3.58101 0.378861 0
M  V30 16707 C 1560.39 4.40143 -0.92707 0
M  V30 16708 C 1561.7 4.2469 1.15438 0
M  V30 16709 H 1558.82 0.735174 0.0518456 0
M  V30 16710 H 1561.47 1.81537 -0.560753 0
M  V30 16711 H 1559.62 3.75897 0.981496 0
M  V30 16712 H 1561.29 4.34025 -1.56268 0
M  V30 16713 H 1559.53 4.05748 -1.53464 0
M  V30 16714 H 1560.2 5.47299 -0.718837 0
M  V30 16715 H 1562.68 4.11086 0.644041 0
M  V30 16716 H 1561.55 5.33633 1.28557 0
M  V30 16717 H 1561.81 3.84668 2.17905 0
M  V30 16718 N 1560.87 0.155222 1.56834 0
M  V30 16719 C 1561.8 -0.777258 2.20184 0
M  V30 16720 C 1562.78 -1.25102 1.15254 0
M  V30 16721 O 1563.97 -1.3071 1.43627 0
M  V30 16722 C 1561.1 -2.01326 2.82993 0
M  V30 16723 C 1560.05 -1.67596 3.93822 0
M  V30 16724 C 1559.38 -2.98529 4.43604 0
M  V30 16725 C 1560.68 -0.916302 5.142 0
M  V30 16726 H 1562.37 -0.249257 2.98361 0
M  V30 16727 H 1559.92 -0.118448 1.43512 0
M  V30 16728 H 1561.87 -2.67048 3.2598 0
M  V30 16729 H 1560.6 -2.56513 2.0216 0
M  V30 16730 H 1559.26 -1.0425 3.51465 0
M  V30 16731 H 1558.9 -3.51723 3.59583 0
M  V30 16732 H 1558.6 -2.76721 5.18362 0
M  V30 16733 H 1560.13 -3.65308 4.89267 0
M  V30 16734 H 1561.54 -1.47577 5.5398 0
M  V30 16735 H 1559.94 -0.797856 5.94772 0
M  V30 16736 H 1561.01 0.0904351 4.84816 0
M  V30 16737 N 1562.35 -1.57153 -0.118549 0
M  V30 16738 C 1563.28 -1.97022 -1.1711 0
M  V30 16739 C 1564.3 -0.869599 -1.37629 0
M  V30 16740 O 1565.49 -1.14788 -1.36696 0
M  V30 16741 C 1562.59 -2.25371 -2.53103 0
M  V30 16742 C 1561.76 -3.56677 -2.5318 0
M  V30 16743 C 1560.82 -3.73233 -3.70922 0
M  V30 16744 O 1559.84 -4.4534 -3.54487 0
M  V30 16745 N 1561.05 -3.12036 -4.89504 0
M  V30 16746 H 1563.81 -2.87921 -0.831959 0
M  V30 16747 H 1561.37 -1.58947 -0.307817 0
M  V30 16748 H 1563.36 -2.33662 -3.3043 0
M  V30 16749 H 1561.93 -1.40597 -2.79197 0
M  V30 16750 H 1561.15 -3.5957 -1.61564 0
M  V30 16751 H 1562.44 -4.42982 -2.50288 0
M  V30 16752 H 1561.84 -2.53422 -5.05761 0
M  V30 16753 H 1560.4 -3.25846 -5.64506 0
M  V30 16754 N 1563.83 0.388742 -1.5273 0
M  V30 16755 C 1564.78 1.49531 -1.78166 0
M  V30 16756 C 1565.77 1.56449 -0.649613 0
M  V30 16757 O 1566.98 1.59612 -0.832097 0
M  V30 16758 H 1563.35 0.497684 -0.56375 0
M  V30 16759 H 1565.32 1.25271 -2.70831 0
M  V30 16760 C 1564.07 2.86663 -1.96774 0
M  V30 16761 H 1563.4 2.82089 -2.83312 0
M  V30 16762 H 1564.84 3.63328 -2.18561 0
M  V30 16763 C 1563.29 3.28665 -0.740345 0
M  V30 16764 O 1563.82 4.01616 0.0821005 0
M  V30 16765 N 1562.03 2.84947 -0.570383 0
M  V30 16766 H 1561.58 2.25748 -1.24078 0
M  V30 16767 H 1561.54 3.13408 0.249496 0
M  V30 16768 N 1565.31 1.43698 0.647203 0
M  V30 16769 C 1566.22 1.51781 1.78884 0
M  V30 16770 C 1567.23 0.404498 1.69233 0
M  V30 16771 O 1568.41 0.659509 1.90296 0
M  V30 16772 C 1565.47 1.44408 3.15194 0
M  V30 16773 C 1564.54 2.6646 3.36597 0
M  V30 16774 C 1563.77 2.59429 4.66403 0
M  V30 16775 O 1563.99 1.64537 5.46154 0
M  V30 16776 O 1562.93 3.50027 4.89658 0
M  V30 16777 H 1566.75 2.48198 1.75019 0
M  V30 16778 H 1564.34 1.25766 0.806436 0
M  V30 16779 H 1566.22 1.42761 3.96481 0
M  V30 16780 H 1564.89 0.511292 3.19637 0
M  V30 16781 H 1563.8 2.73679 2.5505 0
M  V30 16782 H 1565.13 3.58732 3.37005 0
M  V30 16783 N 1566.79 -0.886131 1.30328 0
M  V30 16784 C 1568.06 -1.61912 1.09744 0
M  V30 16785 C 1568.44 -2.08116 -0.353663 0
M  V30 16786 O 1567.79 -1.84725 -1.34495 0
M  V30 16787 C 1568 -2.78954 2.09727 0
M  V30 16788 C 1569.35 -3.49313 2.41382 0
M  V30 16789 O 1570.37 -2.89141 2.08028 0
M  V30 16790 O 1569.23 -4.57823 2.98431 0
M  V30 16791 H 1566.33 -0.71158 0.421406 0
M  V30 16792 H 1568.87 -0.933009 1.4175 0
M  V30 16793 H 1567.64 -2.42109 3.07407 0
M  V30 16794 H 1567.27 -3.55263 1.78532 0
M  V30 16795 N 1568.26 -1.13026 -1.09832 0
M  V30 16796 C 1569.49 -0.91246 -1.85693 0
M  V30 16797 C 1569.91 0.538558 -1.80956 0
M  V30 16798 O 1569.26 1.37262 -1.20273 0
M  V30 16799 C 1569.32 -1.38684 -3.3384 0
M  V30 16800 O 1569.04 -2.78099 -3.38515 0
M  V30 16801 C 1570.54 -1.20688 -4.26555 0
M  V30 16802 H 1567.76 -0.32565 -0.58668 0
M  V30 16803 H 1570.3 -1.50177 -1.38806 0
M  V30 16804 H 1568.46 -0.840617 -3.7817 0
M  V30 16805 H 1568.87 -2.99061 -4.30886 0
M  V30 16806 H 1570.34 -1.5876 -5.28677 0
M  V30 16807 H 1570.82 -0.148111 -4.3895 0
M  V30 16808 H 1571.43 -1.74092 -3.88036 0
M  V30 16809 N 1569.74 1.27735 -0.923117 0
M  V30 16810 C 1570.69 2.26997 -0.417254 0
M  V30 16811 C 1571.66 1.57968 0.513364 0
M  V30 16812 O 1572.84 1.8581 0.433521 0
M  V30 16813 C 1569.98 3.43537 0.328089 0
M  V30 16814 C 1569.1 4.27291 -0.636112 0
M  V30 16815 C 1568.23 5.31044 0.128614 0
M  V30 16816 C 1567.27 6.06466 -0.828592 0
M  V30 16817 N 1566.41 7.02033 -0.0967858 0
M  V30 16818 H 1571.25 2.69643 -1.26872 0
M  V30 16819 H 1568.79 1.32597 -0.6369 0
M  V30 16820 H 1570.74 4.0991 0.776504 0
M  V30 16821 H 1569.37 3.01855 1.14383 0
M  V30 16822 H 1568.43 3.60875 -1.20306 0
M  V30 16823 H 1569.74 4.79679 -1.36784 0
M  V30 16824 H 1568.89 6.03345 0.637159 0
M  V30 16825 H 1567.63 4.79448 0.893341 0
M  V30 16826 H 1566.64 5.33008 -1.34843 0
M  V30 16827 H 1567.86 6.60151 -1.59303 0
M  V30 16828 H 1565.81 6.52774 0.649779 0
M  V30 16829 H 1565.72 7.52087 -0.768171 0
M  V30 16830 H 1566.99 7.78517 0.391257 0
M  V30 16831 N 1571.22 0.688118 1.41784 0
M  V30 16832 C 1572.45 0.223231 2.06195 0
M  V30 16833 C 1572.87 -1.11601 1.51416 0
M  V30 16834 O 1572.23 -1.69701 0.638059 0
M  V30 16835 C 1572.28 0.183257 3.60134 0
M  V30 16836 O 1571.38 -0.844186 4.03667 0
M  V30 16837 H 1570.72 0.110925 0.654669 0
M  V30 16838 H 1573.25 0.940882 1.81683 0
M  V30 16839 H 1573.26 0.0115951 4.07998 0
M  V30 16840 H 1571.94 1.16072 3.99375 0
M  V30 16841 H 1570.51 -0.642484 3.67323 0
M  V30 16842 N 1572.7 -1.51554 0.432352 0
M  V30 16843 C 1573.95 -2.01645 -0.135511 0
M  V30 16844 C 1574.27 -1.31874 -1.43647 0
M  V30 16845 O 1573.54 -0.451746 -1.9062 0
M  V30 16846 H 1572.12 -0.745113 -0.0530683 0
M  V30 16847 H 1574.78 -1.86258 0.573917 0
M  V30 16848 H 1573.88 -3.10506 -0.315001 0
M  V30 16849 O 1574.22 -0.304523 -1.58603 0
M  V30 16850 H 1574.91 0.259368 -1.91956 0
M  V30 END ATOM
M  V30 BEGIN BOND
M  V30 END BOND
M  V30 END CTAB
M  END
$$$$
