drugbank_target|P00436 Protocatechuate 3,4-dioxygenase alpha chain (DB01702)
 OpenBabel12092120453D

  0  0  0     0  0            999 V3000
M  V30 BEGIN CTAB
M  V30 COUNTS 3102 3142 0 0 0
M  V30 BEGIN ATOM
M  V30 1 H -0.908 1.98254 -0.117106 0
M  V30 2 N 0 1.576 0 0
M  V30 3 C 0.933 2.03868 1.02534 0
M  V30 4 C 1.911 0.928543 1.3348 0
M  V30 5 O 3.095 1.19667 1.45644 0
M  V30 6 C 0.222 2.43627 2.35294 0
M  V30 7 C -0.732 3.65373 2.2001 0
M  V30 8 S 0.101 5.13292 1.52614 0
M  V30 9 C 1.257 5.56322 2.86805 0
M  V30 10 H 1.49 2.90518 0.631377 0
M  V30 11 H -0.977 1.52953 0.210867 0
M  V30 12 H 0.981 2.67203 3.11629 0
M  V30 13 H -0.358 1.57376 2.7183 0
M  V30 14 H -1.165 3.90944 3.18086 0
M  V30 15 H -1.563 3.418 1.51819 0
M  V30 16 H 0.729 5.58782 3.83104 0
M  V30 17 H 1.672 6.56266 2.65933 0
M  V30 18 H 2.08 4.83886 2.90714 0
M  V30 19 N 1.4781 -0.272755 1.55222 0
M  V30 20 C 2.8891 -0.84378 1.66545 0
M  V30 21 C 3.2401 -1.87035 0.592641 0
M  V30 22 O 2.3651 -2.14761 -0.265818 0
M  V30 23 C 2.9601 -1.53723 3.01918 0
M  V30 24 C 1.5191 -2.05628 3.15268 0
M  V30 25 C 0.6661 -0.898424 2.62343 0
M  V30 26 H 3.6171 -0.0490998 1.58624 0
M  V30 27 H 3.6381 -2.40421 2.94921 0
M  V30 28 H 3.1501 -0.78983 3.79978 0
M  V30 29 H 1.2511 -2.83329 2.41983 0
M  V30 30 H 1.3641 -2.27142 4.21833 0
M  V30 31 H -0.2719 -1.29186 2.19506 0
M  V30 32 H 0.5111 -0.164528 3.42906 0
M  V30 33 N 2.9562 -1.48159 -0.537278 0
M  V30 34 C 4.2052 -1.5506 -1.28993 0
M  V30 35 C 4.5182 -0.226211 -1.94288 0
M  V30 36 O 5.7242 -0.173395 -2.70946 0
M  V30 37 C 4.1802 -2.73429 -2.34018 0
M  V30 38 C 3.7882 -4.1248 -1.74825 0
M  V30 39 C 5.5322 -2.89638 -3.10339 0
M  V30 40 C 3.4392 -5.22121 -2.77747 0
M  V30 41 H 2.3692 -0.577231 -0.485098 0
M  V30 42 H 5.0202 -1.74478 -0.568317 0
M  V30 43 H 3.4022 -2.47431 -3.09182 0
M  V30 44 H 4.5762 -4.48466 -1.05899 0
M  V30 45 H 2.8912 -4.01327 -1.11022 0
M  V30 46 H 5.4882 -3.68718 -3.87235 0
M  V30 47 H 5.8312 -1.9882 -3.65754 0
M  V30 48 H 6.3642 -3.15502 -2.42288 0
M  V30 49 H 3.1032 -6.1488 -2.27161 0
M  V30 50 H 2.6232 -4.90631 -3.45024 0
M  V30 51 H 4.3022 -5.49924 -3.4087 0
M  V30 52 N 4.4343 0.785586 -1.36625 0
M  V30 53 C 5.3443 1.92964 -1.33425 0
M  V30 54 C 6.3603 1.72394 -0.235851 0
M  V30 55 O 7.5363 1.95866 -0.468878 0
M  V30 56 C 4.6013 3.27884 -1.12662 0
M  V30 57 C 3.6623 3.61204 -2.32013 0
M  V30 58 C 2.8953 4.89687 -2.12231 0
M  V30 59 O 3.1183 5.59704 -1.09945 0
M  V30 60 O 2.0523 5.21752 -3.00098 0
M  V30 61 H 5.8783 1.98613 -2.29753 0
M  V30 62 H 3.4633 0.926384 -1.17211 0
M  V30 63 H 5.3453 4.08614 -1.03016 0
M  V30 64 H 4.0203 3.23118 -0.193991 0
M  V30 65 H 2.9273 2.80765 -2.47228 0
M  V30 66 H 4.2603 3.70698 -3.23796 0
M  V30 67 N 5.9124 1.20967 1.01018 0
M  V30 68 C 6.8424 0.988272 2.11555 0
M  V30 69 C 7.8234 -0.0849778 1.69888 0
M  V30 70 O 9.0084 0.0738202 1.9406 0
M  V30 71 C 6.1384 0.546528 3.42973 0
M  V30 72 C 5.0924 1.56375 3.9841 0
M  V30 73 C 4.4184 0.97842 5.25672 0
M  V30 74 C 5.7184 2.94922 4.31066 0
M  V30 75 H 7.4124 1.91276 2.30334 0
M  V30 76 H 4.9584 0.921073 1.1069 0
M  V30 77 H 6.9114 0.378839 4.19694 0
M  V30 78 H 5.6354 -0.413598 3.23971 0
M  V30 79 H 4.2944 1.71891 3.23804 0
M  V30 80 H 3.9424 0.0101688 5.02999 0
M  V30 81 H 3.6424 1.65784 5.63728 0
M  V30 82 H 5.1664 0.821939 6.05043 0
M  V30 83 H 6.5804 2.8288 4.9865 0
M  V30 84 H 4.9774 3.5983 4.80253 0
M  V30 85 H 6.0474 3.4616 3.39561 0
M  V30 86 N 7.3905 -1.2043 1.01659 0
M  V30 87 C 8.3205 -2.25466 0.607226 0
M  V30 88 C 9.3015 -1.65853 -0.377716 0
M  V30 89 O 10.4865 -1.92409 -0.263149 0
M  V30 90 C 7.6165 -3.47256 -0.0552949 0
M  V30 91 C 6.5705 -4.19462 0.850632 0
M  V30 92 C 5.8965 -5.34673 0.0538859 0
M  V30 93 C 7.1965 -4.75603 2.15868 0
M  V30 94 H 8.8905 -2.59962 1.48526 0
M  V30 95 H 6.4365 -1.2496 0.715605 0
M  V30 96 H 8.3895 -4.19917 -0.353233 0
M  V30 97 H 7.1135 -3.11924 -0.968045 0
M  V30 98 H 5.7725 -3.48667 1.13257 0
M  V30 99 H 5.4205 -4.95585 -0.860514 0
M  V30 100 H 5.1205 -5.83913 0.657192 0
M  V30 101 H 6.6445 -6.10138 -0.237598 0
M  V30 102 H 8.0585 -5.40083 1.92311 0
M  V30 103 H 6.4555 -5.3528 2.71284 0
M  V30 104 H 7.5255 -3.94346 2.82169 0
M  V30 105 N 8.8686 -0.792821 -1.36206 0
M  V30 106 C 10.2796 -0.429513 -1.81692 0
M  V30 107 C 10.6306 1.04695 -1.65932 0
M  V30 108 O 9.7556 1.81256 -1.18218 0
M  V30 109 C 10.3506 -0.772831 -3.29868 0
M  V30 110 C 8.9096 -0.462307 -3.7355 0
M  V30 111 C 8.0566 -1.00569 -2.5842 0
M  V30 112 H 11.0076 -0.985672 -1.24379 0
M  V30 113 H 11.0286 -0.0651928 -3.80444 0
M  V30 114 H 10.5406 -1.84747 -3.41307 0
M  V30 115 H 8.6416 0.604158 -3.67669 0
M  V30 116 H 8.7546 -0.985299 -4.68859 0
M  V30 117 H 7.1186 -0.428734 -2.51066 0
M  V30 118 H 7.9016 -2.08616 -2.72643 0
M  V30 119 N 10.3467 1.47872 -0.545128 0
M  V30 120 C 11.2567 2.33633 0.212746 0
M  V30 121 C 12.2727 1.4744 0.923983 0
M  V30 122 O 13.4487 1.80393 0.895572 0
M  V30 123 C 10.5137 3.23884 1.23693 0
M  V30 124 C 9.5747 4.25961 0.534417 0
M  V30 125 C 8.8077 5.11899 1.5098 0
M  V30 126 O 9.0307 5.00077 2.7437 0
M  V30 127 O 7.9647 5.92831 1.0409 0
M  V30 128 H 11.7907 2.99714 -0.490416 0
M  V30 129 H 9.3757 1.46235 -0.305871 0
M  V30 130 H 11.2577 3.79666 1.82843 0
M  V30 131 H 9.9327 2.60446 1.92222 0
M  V30 132 H 8.8397 3.73972 -0.0979679 0
M  V30 133 H 10.1727 4.92079 -0.109213 0
M  V30 134 N 11.8248 0.280983 1.55075 0
M  V30 135 C 13.0528 -0.337293 2.04132 0
M  V30 136 C 13.4678 -1.4903 1.15912 0
M  V30 137 O 12.8248 -1.81606 0.180459 0
M  V30 138 C 12.8758 -0.812706 3.52246 0
M  V30 139 O 12.5968 0.294387 4.3711 0
M  V30 140 C 14.0978 -1.4982 4.17216 0
M  V30 141 H 11.3178 -0.0761638 0.666663 0
M  V30 142 H 13.8618 0.414787 2.00249 0
M  V30 143 H 12.0168 -1.51486 3.56554 0
M  V30 144 H 12.4308 -0.0721325 5.2445 0
M  V30 145 H 13.9048 -1.7822 5.22438 0
M  V30 146 H 14.3818 -2.43168 3.65741 0
M  V30 147 H 14.9878 -0.839742 4.16927 0
M  V30 148 N 13.3029 -1.57598 0.00835791 0
M  V30 149 C 14.7139 -1.7892 -0.53333 0
M  V30 150 C 15.0649 -0.916609 -1.73473 0
M  V30 151 O 14.1899 -0.121336 -2.1606 0
M  V30 152 C 14.7849 -3.24488 -0.974313 0
M  V30 153 C 13.3439 -3.46878 -1.46125 0
M  V30 154 C 12.4909 -2.74157 -0.416302 0
M  V30 155 H 15.4419 -1.56958 0.234495 0
M  V30 156 H 15.4629 -3.3306 -1.83988 0
M  V30 157 H 14.9749 -3.87972 -0.099718 0
M  V30 158 H 13.0759 -2.8862 -2.35646 0
M  V30 159 H 13.1889 -4.55572 -1.48295 0
M  V30 160 H 11.5529 -2.39022 -0.87981 0
M  V30 161 H 12.3359 -3.40345 0.44947 0
M  V30 162 N 14.781 0.264519 -1.55364 0
M  V30 163 C 16.006 1.01726 -1.80739 0
M  V30 164 C 16.431 1.78836 -0.583044 0
M  V30 165 O 15.789 1.75167 0.467566 0
M  V30 166 C 15.837 1.94482 -3.03659 0
M  V30 167 O 14.941 3.03386 -2.7934 0
M  V30 168 H 14.282 0.290395 -0.597132 0
M  V30 169 H 16.812 0.290854 -2.02522 0
M  V30 170 H 16.822 2.36278 -3.32621 0
M  V30 171 H 15.497 1.37772 -3.92418 0
M  V30 172 H 14.074 2.65844 -2.61498 0
M  V30 173 N 16.2591 1.48442 0.529413 0
M  V30 174 C 17.1911 1.59095 1.64989 0
M  V30 175 C 18.2041 0.475212 1.5571 0
M  V30 176 O 19.3931 0.746081 1.6216 0
M  V30 177 C 16.4931 1.50518 3.0364 0
M  V30 178 C 15.6661 2.77142 3.38395 0
M  V30 179 C 14.7251 2.62012 4.56329 0
M  V30 180 O 13.7511 3.35898 4.59522 0
M  V30 181 N 14.9531 1.71667 5.54536 0
M  V30 182 H 17.7181 2.55723 1.56287 0
M  V30 183 H 15.2791 1.45173 0.716697 0
M  V30 184 H 17.2711 1.38091 3.80412 0
M  V30 185 H 15.8411 0.618627 3.06418 0
M  V30 186 H 15.0611 3.0413 2.50796 0
M  V30 187 H 16.3491 3.61146 3.58401 0
M  V30 188 H 15.7471 1.10841 5.54735 0
M  V30 189 H 14.3041 1.65178 6.30523 0
M  V30 190 N 17.7372 -0.778329 1.37039 0
M  V30 191 C 18.9652 -1.56734 1.35063 0
M  V30 192 C 19.3802 -1.88686 -0.0655597 0
M  V30 193 O 18.7372 -1.5096 -1.02554 0
M  V30 194 C 18.7882 -2.88163 2.18276 0
M  V30 195 O 18.5092 -2.57583 3.54376 0
M  V30 196 C 20.0102 -3.82422 2.24206 0
M  V30 197 H 17.2302 -0.485778 0.462883 0
M  V30 198 H 19.7742 -0.965185 1.8029 0
M  V30 199 H 17.9292 -3.44818 1.76576 0
M  V30 200 H 18.3432 -3.41699 3.97922 0
M  V30 201 H 19.8172 -4.71667 2.86765 0
M  V30 202 H 20.2942 -4.21078 1.24861 0
M  V30 203 H 20.9002 -3.31697 2.6619 0
M  V30 204 N 19.2153 -1.21501 -1.00376 0
M  V30 205 C 20.1783 -0.976927 -2.07337 0
M  V30 206 C 21.1783 0.0525322 -1.60714 0
M  V30 207 O 22.3683 -0.184869 -1.73216 0
M  V30 208 C 19.5003 -0.473423 -3.37597 0
M  V30 209 H 20.6933 -1.92587 -2.29892 0
M  V30 210 H 18.2463 -1.03217 -1.17371 0
M  V30 211 H 18.9813 0.480379 -3.20722 0
M  V30 212 H 18.7663 -1.216 -3.72768 0
M  V30 213 H 20.2563 -0.32675 -4.1632 0
M  V30 214 N 20.6934 1.19889 -1.02296 0
M  V30 215 C 21.9414 1.89046 -0.714558 0
M  V30 216 C 22.2624 1.79636 0.758681 0
M  V30 217 O 21.5324 1.20292 1.54618 0
M  V30 218 H 20.1124 0.699802 -0.261317 0
M  V30 219 H 22.7744 1.45574 -1.29592 0
M  V30 220 H 21.8704 2.95524 -1.0036 0
M  V30 221 N 22.1715 0.800033 1.35784 0
M  V30 222 C 23.5825 0.439142 1.81462 0
M  V30 223 C 23.9335 -1.03813 1.66485 0
M  V30 224 O 23.0585 -1.80626 1.19177 0
M  V30 225 C 23.6535 0.790314 3.29453 0
M  V30 226 C 22.2125 0.482111 3.733 0
M  V30 227 C 21.3595 1.01938 2.57883 0
M  V30 228 H 24.3105 0.992254 1.23855 0
M  V30 229 H 24.3315 0.0853677 3.80404 0
M  V30 230 H 23.8435 1.86554 3.40322 0
M  V30 231 H 21.9445 -0.584652 3.67984 0
M  V30 232 H 22.0575 1.01015 4.6833 0
M  V30 233 H 20.4215 0.442043 2.50835 0
M  V30 234 H 21.2045 2.10059 2.71533 0
M  V30 235 N 23.6496 -1.47581 0.552962 0
M  V30 236 C 24.8796 -2.06575 0.0320091 0
M  V30 237 C 25.2876 -1.4067 -1.26525 0
M  V30 238 O 24.6306 -0.495808 -1.76883 0
M  V30 239 C 24.6926 -3.58705 -0.238913 0
M  V30 240 C 24.3566 -4.46625 0.968272 0
M  V30 241 C 25.3536 -4.85 1.87274 0
M  V30 242 C 23.0386 -4.88201 1.18175 0
M  V30 243 C 25.0326 -5.63745 2.9744 0
M  V30 244 C 22.7196 -5.66712 2.28651 0
M  V30 245 C 23.7176 -6.04394 3.18114 0
M  V30 246 O 23.4056 -6.81324 4.26676 0
M  V30 247 H 23.1376 -0.674763 0.0408689 0
M  V30 248 H 25.6916 -1.90634 0.764719 0
M  V30 249 H 23.9216 -3.72844 -1.02588 0
M  V30 250 H 25.6106 -3.99735 -0.704731 0
M  V30 251 H 26.3766 -4.53482 1.71984 0
M  V30 252 H 22.2556 -4.58339 0.494593 0
M  V30 253 H 25.7996 -5.93077 3.67296 0
M  V30 254 H 21.6966 -5.97642 2.43915 0
M  V30 255 H 22.4646 -6.99712 4.24671 0
M  V30 256 N 25.1277 -0.289203 -1.54924 0
M  V30 257 C 26.3737 0.323998 -2.00195 0
M  V30 258 C 26.7067 1.54441 -1.17735 0
M  V30 259 O 25.9817 1.92875 -0.250878 0
M  V30 260 C 26.2647 0.692276 -3.53383 0
M  V30 261 C 26.1177 -0.536457 -4.46589 0
M  V30 262 C 27.4367 1.52335 -4.12895 0
M  V30 263 H 24.5557 0.116289 -0.727768 0
M  V30 264 H 27.1977 -0.398954 -1.85764 0
M  V30 265 H 25.3477 1.30822 -3.65811 0
M  V30 266 H 27.0197 -1.17499 -4.46085 0
M  V30 267 H 25.2627 -1.17192 -4.1767 0
M  V30 268 H 25.9337 -0.234806 -5.515 0
M  V30 269 H 28.4097 1.00302 -4.0383 0
M  V30 270 H 27.2857 1.74982 -5.20262 0
M  V30 271 H 27.5467 2.50886 -3.64018 0
M  V30 272 N 26.6058 1.57591 -0.0167156 0
M  V30 273 C 27.5558 2.05953 0.978137 0
M  V30 274 C 28.5398 0.957532 1.29306 0
M  V30 275 O 29.7318 1.22119 1.28125 0
M  V30 276 C 26.8608 2.58006 2.26468 0
M  V30 277 C 25.9468 3.75113 1.97867 0
M  V30 278 N 26.3378 4.86187 1.39486 0
M  V30 279 C 24.6358 3.83363 2.27924 0
M  V30 280 C 25.3368 5.67502 1.27735 0
M  V30 281 N 24.3128 5.14023 1.76866 0
M  V30 282 H 28.1148 2.89236 0.521522 0
M  V30 283 H 25.6288 1.61301 0.188596 0
M  V30 284 H 27.6258 2.90937 2.98599 0
M  V30 285 H 26.2858 1.76148 2.72767 0
M  V30 286 H 27.2968 5.06695 1.07147 0
M  V30 287 H 23.9738 3.1239 2.76982 0
M  V30 288 H 25.3638 6.66791 0.826978 0
M  V30 289 N 28.0839 -0.256276 1.55502 0
M  V30 290 C 29.3329 -0.983486 1.76098 0
M  V30 291 C 29.6459 -1.86837 0.578896 0
M  V30 292 O 30.8519 -2.63163 0.667648 0
M  V30 293 C 29.3079 -1.79868 3.1173 0
M  V30 294 C 28.9159 -0.961648 4.37557 0
M  V30 295 C 30.6599 -2.51919 3.41668 0
M  V30 296 C 28.5669 -1.77219 5.64223 0
M  V30 297 H 27.4969 -0.370936 0.656447 0
M  V30 298 H 30.1479 -0.238492 1.81944 0
M  V30 299 H 28.5299 -2.58527 2.99966 0
M  V30 300 H 29.7039 -0.218048 4.60284 0
M  V30 301 H 28.0189 -0.354913 4.14885 0
M  V30 302 H 30.6159 -3.12998 4.33516 0
M  V30 303 H 30.9589 -3.23059 2.62562 0
M  V30 304 H 31.4919 -1.80278 3.54605 0
M  V30 305 H 28.2309 -1.10471 6.46124 0
M  V30 306 H 27.7509 -2.49132 5.45613 0
M  V30 307 H 29.4299 -2.34169 6.03137 0
M  V30 308 N 29.562 -1.4872 -0.521534 0
M  V30 309 C 30.81 -1.56857 -1.27437 0
M  V30 310 C 31.131 -0.247982 -1.93417 0
M  V30 311 O 30.401 0.731151 -1.81744 0
M  V30 312 H 28.981 -0.577885 -0.473347 0
M  V30 313 H 31.643 -1.85233 -0.606205 0
M  V30 314 H 30.739 -2.35402 -2.0492 0
M  V30 315 N 31.0401 0.771051 -1.3745 0
M  V30 316 C 31.9701 1.89827 -1.3597 0
M  V30 317 C 32.9511 1.68562 -0.228216 0
M  V30 318 O 34.1361 1.8941 -0.428675 0
M  V30 319 C 31.2661 3.2712 -1.16662 0
M  V30 320 C 30.2201 3.6295 -2.2683 0
M  V30 321 C 29.5461 4.98791 -1.92644 0
M  V30 322 C 30.8461 3.69627 -3.69017 0
M  V30 323 H 32.5401 1.91323 -2.30295 0
M  V30 324 H 30.0861 0.919082 -1.10855 0
M  V30 325 H 32.0391 4.05615 -1.14256 0
M  V30 326 H 30.7631 3.26059 -0.187926 0
M  V30 327 H 29.4221 2.86763 -2.28392 0
M  V30 328 H 29.0701 4.94271 -0.933021 0
M  V30 329 H 28.7701 5.23733 -2.66416 0
M  V30 330 H 30.2941 5.79685 -1.91826 0
M  V30 331 H 31.7081 4.38273 -3.69581 0
M  V30 332 H 30.1051 4.06067 -4.41848 0
M  V30 333 H 31.1751 2.70273 -4.02592 0
M  V30 334 N 32.5182 1.22032 0.997298 0
M  V30 335 C 33.4812 0.987909 2.06816 0
M  V30 336 C 34.4812 -0.0440084 1.6074 0
M  V30 337 O 35.6712 0.194053 1.73116 0
M  V30 338 C 32.8032 0.49132 3.37341 0
M  V30 339 H 33.9962 1.93803 2.28868 0
M  V30 340 H 31.5492 1.03838 1.16822 0
M  V30 341 H 32.2842 -0.463364 3.20973 0
M  V30 342 H 32.0692 1.23575 3.72118 0
M  V30 343 H 33.5592 0.348824 4.16141 0
M  V30 344 N 33.9963 -1.19345 1.0293 0
M  V30 345 C 34.9263 -2.2481 0.631105 0
M  V30 346 C 35.9073 -1.66245 -0.360104 0
M  V30 347 O 37.0923 -1.92677 -0.242726 0
M  V30 348 C 34.2223 -3.47295 -0.0184607 0
M  V30 349 C 33.1763 -4.18536 0.895073 0
M  V30 350 C 32.5023 -5.34586 0.110592 0
M  V30 351 C 33.8023 -4.73287 2.209 0
M  V30 352 H 35.4963 -2.58372 1.51275 0
M  V30 353 H 33.0423 -1.24194 0.728818 0
M  V30 354 H 34.9953 -4.20268 -0.308675 0
M  V30 355 H 33.7193 -3.12933 -0.934907 0
M  V30 356 H 32.3783 -3.47446 1.16949 0
M  V30 357 H 32.0263 -4.96469 -0.807902 0
M  V30 358 H 31.7263 -5.83183 0.719087 0
M  V30 359 H 33.2503 -6.10355 -0.172871 0
M  V30 360 H 34.6643 -5.38013 1.98028 0
M  V30 361 H 33.0613 -5.32373 2.76946 0
M  V30 362 H 34.1313 -3.91331 2.86336 0
M  V30 363 N 35.4744 -0.807222 -1.35358 0
M  V30 364 C 36.3844 -0.219594 -2.3357 0
M  V30 365 C 37.4004 0.637734 -1.61892 0
M  V30 366 O 38.5764 0.549336 -1.93763 0
M  V30 367 C 35.6414 0.62158 -3.41083 0
M  V30 368 C 34.7024 -0.256315 -4.28534 0
M  V30 369 C 33.9354 0.544807 -5.30912 0
M  V30 370 O 34.1584 1.77944 -5.41934 0
M  V30 371 O 33.0924 -0.0646478 -6.01865 0
M  V30 372 H 36.9184 -1.03208 -2.85625 0
M  V30 373 H 34.5034 -0.569025 -1.38139 0
M  V30 374 H 36.3854 1.10067 -4.06772 0
M  V30 375 H 35.0604 1.41165 -2.91297 0
M  V30 376 H 33.9674 -0.782559 -3.65823 0
M  V30 377 H 35.3004 -1.01034 -4.81719 0
M  V30 378 N 36.9525 1.47285 -0.560781 0
M  V30 379 C 37.9155 2.28535 0.174488 0
M  V30 380 C 38.9155 1.37153 0.839388 0
M  V30 381 O 40.1055 1.59748 0.694702 0
M  V30 382 C 37.2375 3.16934 1.25561 0
M  V30 383 H 38.4305 2.95012 -0.539262 0
M  V30 384 H 35.9835 1.53034 -0.317865 0
M  V30 385 H 36.7185 2.55157 2.00164 0
M  V30 386 H 36.5035 3.8419 0.783604 0
M  V30 387 H 37.9935 3.78143 1.77193 0
M  V30 388 N 38.4306 0.297415 1.54768 0
M  V30 389 C 39.3936 -0.567375 2.22066 0
M  V30 390 C 40.3936 -1.06409 1.20556 0
M  V30 391 O 41.5836 -0.960691 1.45315 0
M  V30 392 C 38.7156 -1.78517 2.90421 0
M  V30 393 H 39.9086 0.0205534 2.99893 0
M  V30 394 H 37.4616 0.0482163 1.56226 0
M  V30 395 H 38.1966 -2.41303 2.16664 0
M  V30 396 H 37.9816 -1.43669 3.64831 0
M  V30 397 H 39.4716 -2.39964 3.41771 0
M  V30 398 N 39.9087 -1.5758 0.0250728 0
M  V30 399 C 41.1567 -1.91255 -0.653151 0
M  V30 400 C 41.4777 -0.901691 -1.729 0
M  V30 401 O 40.7477 0.0573785 -1.95816 0
M  V30 402 H 39.3277 -0.705942 -0.244243 0
M  V30 403 H 41.9897 -1.94767 0.0719209 0
M  V30 404 H 41.0857 -2.91752 -1.10847 0
M  V30 405 N 41.3868 0.248026 -1.55636 0
M  V30 406 C 42.3348 1.32683 -1.91045 0
M  V30 407 C 43.3288 1.49883 -0.789401 0
M  V30 408 O 44.5348 1.51371 -0.974007 0
M  V30 409 H 40.9098 0.444272 -0.606734 0
M  V30 410 H 42.8808 1.00085 -2.81115 0
M  V30 411 C 41.6298 2.6755 -2.22064 0
M  V30 412 H 40.9528 2.55114 -3.07826 0
M  V30 413 H 42.3928 3.41912 -2.50743 0
M  V30 414 C 40.8518 3.20556 -1.0366 0
M  V30 415 O 41.3818 4.00695 -0.284016 0
M  V30 416 N 39.5878 2.78568 -0.82753 0
M  V30 417 H 39.1348 2.1351 -1.44123 0
M  V30 418 H 39.0928 3.14378 -0.0369803 0
M  V30 419 N 42.8649 1.48995 0.513639 0
M  V30 420 C 44.2759 1.5119 1.09537 0
M  V30 421 C 44.6269 0.290906 1.94031 0
M  V30 422 O 43.7519 -0.60049 2.07902 0
M  V30 423 C 44.3469 2.73964 1.99322 0
M  V30 424 C 42.9059 2.78978 2.52682 0
M  V30 425 C 42.0529 2.44934 1.30009 0
M  V30 426 H 45.0039 1.55875 0.298125 0
M  V30 427 H 45.0249 2.53409 2.83838 0
M  V30 428 H 44.5369 3.62813 1.37799 0
M  V30 429 H 42.6379 1.94378 3.1788 0
M  V30 430 H 42.7509 3.8083 2.90698 0
M  V30 431 H 41.1149 1.9644 1.62122 0
M  V30 432 H 41.8979 3.36043 0.702131 0
M  V30 433 N 44.343 -0.763751 1.37857 0
M  V30 434 C 45.571 -1.55293 1.36718 0
M  V30 435 C 45.986 -1.88745 -0.0455434 0
M  V30 436 O 45.343 -1.52039 -1.00947 0
M  V30 437 C 45.394 -2.85831 2.2132 0
M  V30 438 O 45.115 -2.5381 3.57089 0
M  V30 439 C 46.616 -3.80023 2.28249 0
M  V30 440 H 43.836 -0.480841 0.468009 0
M  V30 441 H 46.38 -0.946009 1.81303 0
M  V30 442 H 44.535 -3.42926 1.80223 0
M  V30 443 H 44.949 -3.37459 4.01524 0
M  V30 444 H 46.423 -4.68599 2.91752 0
M  V30 445 H 46.9 -4.1973 1.2932 0
M  V30 446 H 47.506 -3.28855 2.69693 0
M  V30 447 N 45.8211 -1.22559 -0.990812 0
M  V30 448 C 47.2371 -0.985996 -1.255 0
M  V30 449 C 47.4371 0.319173 -1.98956 0
M  V30 450 O 46.4931 1.04127 -2.3003 0
M  V30 451 C 47.8061 -2.18607 -2.06474 0
M  V30 452 C 49.3541 -2.22985 -2.19651 0
M  V30 453 C 49.8291 -3.4255 -3.04012 0
M  V30 454 N 51.3201 -3.42725 -3.11599 0
M  V30 455 C 52.0551 -4.31892 -3.7717 0
M  V30 456 N 51.5511 -5.31279 -4.44651 0
M  V30 457 N 53.3441 -4.19662 -3.73952 0
M  V30 458 H 45.4951 -2.06469 -0.49841 0
M  V30 459 H 47.7581 -0.904853 -0.282747 0
M  V30 460 H 47.4641 -3.13267 -1.59865 0
M  V30 461 H 47.3381 -2.18838 -3.07229 0
M  V30 462 H 49.7251 -1.28871 -2.65474 0
M  V30 463 H 49.8061 -2.26791 -1.18319 0
M  V30 464 H 49.4501 -4.36965 -2.58889 0
M  V30 465 H 49.3801 -3.35984 -4.0549 0
M  V30 466 H 51.8711 -2.70807 -2.63575 0
M  V30 467 H 52.1841 -5.95593 -4.92431 0
M  V30 468 H 50.5291 -5.3519 -4.43392 0
M  V30 469 H 53.7201 -3.41268 -3.20396 0
M  V30 470 H 53.8931 -4.89358 -4.24774 0
M  V30 471 N 47.2992 1.18797 -1.03562 0
M  V30 472 C 48.5762 1.84469 -0.650434 0
M  V30 473 C 48.9562 1.92319 0.870433 0
M  V30 474 O 48.3042 1.44528 1.76986 0
M  V30 475 C 48.5142 3.2306 -1.32036 0
M  V30 476 C 49.8622 3.9915 -1.44792 0
M  V30 477 O 50.8862 3.32481 -1.27806 0
M  V30 478 O 49.7452 5.18587 -1.72423 0
M  V30 479 H 46.8392 0.795251 -0.226946 0
M  V30 480 H 49.3852 1.26231 -1.13419 0
M  V30 481 H 48.1572 3.1222 -2.3587 0
M  V30 482 H 47.7802 3.88949 -0.8249 0
M  V30 483 N 48.7773 0.814389 1.34928 0
M  V30 484 C 49.7093 0.187834 2.28429 0
M  V30 485 C 50.7223 -0.617374 1.5064 0
M  V30 486 O 51.9113 -0.448454 1.72775 0
M  V30 487 C 49.0113 -0.755962 3.30361 0
M  V30 488 C 48.1843 0.00456686 4.374 0
M  V30 489 C 47.2433 -0.858876 5.19143 0
M  V30 490 O 46.2693 -0.306968 5.68372 0
M  V30 491 N 47.4713 -2.17988 5.38016 0
M  V30 492 H 50.2363 0.991105 2.82838 0
M  V30 493 H 47.7973 0.670561 1.4736 0
M  V30 494 H 49.7893 -1.338 3.81942 0
M  V30 495 H 48.3593 -1.46001 2.7641 0
M  V30 496 H 47.5793 0.767865 3.86649 0
M  V30 497 H 48.8673 0.528422 5.06049 0
M  V30 498 H 48.2653 -2.65212 4.99679 0
M  V30 499 H 46.8223 -2.71098 5.92747 0
M  V30 500 N 50.2554 -1.46986 0.568584 0
M  V30 501 C 51.1654 -2.33942 -0.17555 0
M  V30 502 C 52.1814 -1.48891 -0.90041 0
M  V30 503 O 53.3574 -1.81794 -0.86676 0
M  V30 504 C 50.4224 -3.25811 -1.18524 0
M  V30 505 C 49.4834 -4.26757 -0.466582 0
M  V30 506 C 48.7164 -5.14236 -1.42817 0
M  V30 507 O 48.9394 -5.04379 -2.66379 0
M  V30 508 O 47.8734 -5.94412 -0.946453 0
M  V30 509 H 51.6994 -2.98896 0.538036 0
M  V30 510 H 49.2844 -1.4573 0.329097 0
M  V30 511 H 51.1664 -3.82527 -1.76779 0
M  V30 512 H 49.8414 -2.63471 -1.88055 0
M  V30 513 H 48.7484 -3.73769 0.157451 0
M  V30 514 H 50.0814 -4.91843 0.187485 0
M  V30 515 N 51.7335 -0.305618 -1.54608 0
M  V30 516 C 52.9825 0.303098 -1.9941 0
M  V30 517 C 53.2955 1.54648 -1.19764 0
M  V30 518 O 54.5015 2.23007 -1.54855 0
M  V30 519 C 52.9575 0.590588 -3.55021 0
M  V30 520 C 52.5655 -0.634719 -4.43481 0
M  V30 521 C 54.3095 1.16025 -4.08336 0
M  V30 522 C 52.2165 -0.320126 -5.90533 0
M  V30 523 H 51.1465 0.117031 -0.744862 0
M  V30 524 H 53.7975 -0.415045 -1.78745 0
M  V30 525 H 52.1795 1.36845 -3.71604 0
M  V30 526 H 53.3535 -1.41079 -4.38672 0
M  V30 527 H 51.6685 -1.12333 -4.00962 0
M  V30 528 H 54.2655 1.40994 -5.15776 0
M  V30 529 H 54.6085 2.10397 -3.5922 0
M  V30 530 H 55.1415 0.443985 -3.95315 0
M  V30 531 H 51.8805 -1.23254 -6.43808 0
M  V30 532 H 51.4005 0.418579 -5.98338 0
M  V30 533 H 53.0795 0.0766241 -6.46955 0
M  V30 534 N 53.2116 1.57565 -0.0334293 0
M  V30 535 C 54.4576 1.93088 0.639417 0
M  V30 536 C 54.8126 0.910589 1.69488 0
M  V30 537 O 54.1056 -0.0727725 1.91462 0
M  V30 538 C 54.2996 3.33112 1.29504 0
M  V30 539 C 54.1286 4.48667 0.304604 0
M  V30 540 C 52.8986 5.05207 -0.0970777 0
M  V30 541 C 55.0966 5.1239 -0.442845 0
M  V30 542 N 53.0786 6.04286 -1.08223 0
M  V30 543 C 54.4496 6.06609 -1.28161 0
M  V30 544 C 56.5046 4.95352 -0.50308 0
M  V30 545 C 55.2076 6.85622 -2.17519 0
M  V30 546 C 57.2336 5.74978 -1.38401 0
M  V30 547 C 56.5956 6.68816 -2.21054 0
M  V30 548 H 52.6946 0.754335 0.206161 0
M  V30 549 H 55.2786 1.94435 -0.101613 0
M  V30 550 H 53.4496 3.32576 2.00618 0
M  V30 551 H 55.1816 3.55972 1.92525 0
M  V30 552 H 51.9366 4.72782 0.278255 0
M  V30 553 H 52.3606 6.58516 -1.57117 0
M  V30 554 H 57.0026 4.22625 0.121694 0
M  V30 555 H 54.7206 7.57652 -2.81049 0
M  V30 556 H 58.3066 5.63826 -1.43496 0
M  V30 557 H 57.1866 7.29355 -2.88116 0
M  V30 558 N 54.6897 -0.239769 1.55765 0
M  V30 559 C 55.6377 -1.31668 1.91745 0
M  V30 560 C 56.6317 -1.49462 0.797338 0
M  V30 561 O 57.8377 -1.50852 0.982021 0
M  V30 562 H 54.2127 -0.441048 0.609082 0
M  V30 563 H 56.1837 -0.985923 2.81642 0
M  V30 564 C 54.9327 -2.66368 2.2348 0
M  V30 565 H 54.2557 -2.53478 3.09175 0
M  V30 566 H 55.6957 -3.40578 2.52553 0
M  V30 567 C 54.1547 -3.20002 1.05359 0
M  V30 568 O 54.6847 -4.00538 0.305261 0
M  V30 569 N 52.8907 -2.78126 0.842292 0
M  V30 570 H 52.4377 -2.12742 1.45253 0
M  V30 571 H 52.3957 -3.14354 0.053652 0
M  V30 572 N 56.1678 -1.49265 -0.50573 0
M  V30 573 C 57.5838 -1.35923 -0.836486 0
M  V30 574 C 57.7838 -0.388704 -1.97715 0
M  V30 575 O 56.8398 0.181336 -2.51848 0
M  V30 576 C 58.1528 -2.76531 -1.18115 0
M  V30 577 C 59.7008 -2.85197 -1.28964 0
M  V30 578 C 60.1758 -4.26561 -1.66761 0
M  V30 579 N 61.6668 -4.2935 -1.73819 0
M  V30 580 C 62.4018 -5.35693 -2.045 0
M  V30 581 N 61.8978 -6.52287 -2.33438 0
M  V30 582 N 63.6908 -5.23105 -2.05711 0
M  V30 583 H 55.8418 -2.10965 0.246519 0
M  V30 584 H 58.1048 -0.9468 0.0476887 0
M  V30 585 H 57.8108 -3.49226 -0.416398 0
M  V30 586 H 57.6848 -3.11599 -2.1257 0
M  V30 587 H 60.0718 -2.12742 -2.04511 0
M  V30 588 H 60.1528 -2.53718 -0.325704 0
M  V30 589 H 59.7968 -4.99541 -0.917656 0
M  V30 590 H 59.7268 -4.55502 -2.64246 0
M  V30 591 H 62.2178 -3.4526 -1.53635 0
M  V30 592 H 62.5308 -7.29158 -2.56024 0
M  V30 593 H 60.8758 -6.55521 -2.30905 0
M  V30 594 H 64.0668 -4.31026 -1.82577 0
M  V30 595 H 64.2398 -6.06078 -2.29289 0
M  V30 596 N 57.6459 0.756429 -1.3826 0
M  V30 597 C 58.5759 1.88374 -1.37976 0
M  V30 598 C 59.5569 1.68311 -0.246082 0
M  V30 599 O 60.7419 1.88944 -0.44874 0
M  V30 600 C 57.8719 3.25864 -1.20125 0
M  V30 601 C 56.8259 3.60523 -2.30666 0
M  V30 602 C 56.1519 4.9672 -1.97923 0
M  V30 603 C 57.4519 3.65692 -3.72916 0
M  V30 604 H 59.1459 1.88869 -2.32312 0
M  V30 605 H 56.6919 0.907272 -1.11824 0
M  V30 606 H 58.6449 4.0438 -1.18552 0
M  V30 607 H 57.3689 3.25841 -0.222498 0
M  V30 608 H 56.0279 2.84324 -2.3142 0
M  V30 609 H 55.6759 4.93253 -0.985393 0
M  V30 610 H 55.3759 5.20878 -2.71955 0
M  V30 611 H 56.8999 5.77618 -1.97964 0
M  V30 612 H 58.3139 4.34328 -3.74208 0
M  V30 613 H 56.7109 4.01358 -4.4613 0
M  V30 614 H 57.7809 2.65987 -4.05436 0
M  V30 615 N 59.124 1.23083 0.984299 0
M  V30 616 C 60.087 1.00979 2.05757 0
M  V30 617 C 61.087 -0.0269573 1.60777 0
M  V30 618 O 62.277 0.212403 1.729 0
M  V30 619 C 59.409 0.527072 3.36801 0
M  V30 620 H 60.602 1.9622 2.26799 0
M  V30 621 H 58.155 1.05072 1.15714 0
M  V30 622 H 58.89 -0.429294 3.21446 0
M  V30 623 H 58.675 1.27515 3.70786 0
M  V30 624 H 60.165 0.392942 4.15747 0
M  V30 625 N 60.6021 -1.18246 1.0419 0
M  V30 626 C 61.5491 -2.2192 0.634037 0
M  V30 627 C 62.5191 -1.62179 -0.358765 0
M  V30 628 O 63.7041 -1.89122 -0.252466 0
M  V30 629 C 60.8441 -3.451 0.00445535 0
M  V30 630 C 59.9571 -4.19174 1.04487 0
M  V30 631 C 59.0921 -5.29813 0.383676 0
M  V30 632 C 58.1311 -5.9566 1.4091 0
M  V30 633 N 57.2681 -6.97834 0.772784 0
M  V30 634 H 62.1081 -2.56164 1.52263 0
M  V30 635 H 59.6451 -1.25843 0.761701 0
M  V30 636 H 61.6031 -4.15485 -0.377919 0
M  V30 637 H 60.2331 -3.11472 -0.847652 0
M  V30 638 H 59.2851 -3.47604 1.54518 0
M  V30 639 H 60.5971 -4.64267 1.82368 0
M  V30 640 H 59.7511 -6.06677 -0.0528366 0
M  V30 641 H 58.4901 -4.85825 -0.427208 0
M  V30 642 H 57.4951 -5.17535 1.85574 0
M  V30 643 H 58.7201 -6.4173 2.22171 0
M  V30 644 H 56.6661 -6.55998 -0.0177708 0
M  V30 645 H 56.5831 -7.41186 1.48928 0
M  V30 646 H 57.8511 -7.78665 0.36071 0
M  V30 647 N 62.0802 -0.821533 -1.34494 0
M  V30 648 C 63.4912 -0.467956 -1.8074 0
M  V30 649 C 63.8422 1.01151 -1.68116 0
M  V30 650 O 62.9672 1.78707 -1.22036 0
M  V30 651 C 63.5622 -0.842627 -3.28154 0
M  V30 652 C 62.1212 -0.541439 -3.72485 0
M  V30 653 C 61.2682 -1.06028 -2.56229 0
M  V30 654 H 64.2192 -1.01183 -1.22261 0
M  V30 655 H 64.2402 -0.145876 -3.8022 0
M  V30 656 H 63.7522 -1.91945 -3.37311 0
M  V30 657 H 61.8532 0.526034 -3.68868 0
M  V30 658 H 61.9662 -1.08453 -4.66663 0
M  V30 659 H 60.3302 -0.481892 -2.501 0
M  V30 660 H 61.1132 -2.14352 -2.68157 0
M  V30 661 N 63.5583 1.46682 -0.576371 0
M  V30 662 C 64.8353 1.95599 0.00703437 0
M  V30 663 C 65.2153 1.51904 1.46589 0
M  V30 664 O 64.5633 0.766755 2.15251 0
M  V30 665 C 64.7733 3.4864 -0.158404 0
M  V30 666 C 66.1213 4.24594 -0.0229439 0
M  V30 667 O 67.1453 3.56094 -0.0869173 0
M  V30 668 O 66.0043 5.46373 0.118015 0
M  V30 669 H 63.0983 0.825275 0.053384 0
M  V30 670 H 65.6443 1.56996 -0.644244 0
M  V30 671 H 64.4163 3.7331 -1.17282 0
M  V30 672 H 64.0393 3.94057 0.5296 0
M  V30 673 N 65.0364 0.313813 1.54444 0
M  V30 674 C 65.9994 -0.54379 2.22656 0
M  V30 675 C 66.9994 -1.05124 1.21678 0
M  V30 676 O 68.1894 -0.945225 1.46325 0
M  V30 677 C 65.3214 -1.75427 2.92298 0
M  V30 678 H 66.5144 0.0523599 2.99854 0
M  V30 679 H 64.0674 0.0647834 1.56166 0
M  V30 680 H 64.8024 -2.38991 2.19211 0
M  V30 681 H 64.5874 -1.39791 3.66334 0
M  V30 682 H 66.0774 -2.36325 3.44297 0
M  V30 683 N 66.5145 -1.57545 0.0417849 0
M  V30 684 C 67.9255 -1.80011 -0.495259 0
M  V30 685 C 68.2765 -0.953199 -1.71489 0
M  V30 686 O 67.4015 -0.167138 -2.15754 0
M  V30 687 C 67.9965 -3.26482 -0.905265 0
M  V30 688 C 66.5555 -3.499 -1.38734 0
M  V30 689 C 65.7025 -2.74979 -0.358056 0
M  V30 690 H 68.6535 -1.56425 0.267736 0
M  V30 691 H 68.6745 -3.36887 -1.76882 0
M  V30 692 H 68.1865 -3.88096 -0.017401 0
M  V30 693 H 66.2875 -2.93553 -2.29471 0
M  V30 694 H 66.4005 -4.58615 -1.38598 0
M  V30 695 H 64.7645 -2.40834 -0.828912 0
M  V30 696 H 65.5475 -3.39315 0.521561 0
M  V30 697 N 67.9926 0.231505 -1.5589 0
M  V30 698 C 69.2406 0.955461 -1.78088 0
M  V30 699 C 69.5616 1.85262 -0.608533 0
M  V30 700 O 68.8316 1.92277 0.375035 0
M  V30 701 H 67.4116 0.355787 -0.656829 0
M  V30 702 H 70.0736 0.245751 -1.93344 0
M  V30 703 H 69.1696 1.56814 -2.69844 0
M  V30 704 N 69.4707 1.49531 0.497807 0
M  V30 705 C 70.3807 1.69176 1.62532 0
M  V30 706 C 71.3967 0.5744 1.64246 0
M  V30 707 O 72.5727 0.849497 1.82608 0
M  V30 708 C 69.6377 1.75695 2.98885 0
M  V30 709 C 68.6987 2.9929 3.07773 0
M  V30 710 C 67.9317 3.05488 4.37622 0
M  V30 711 O 68.1547 2.19192 5.26603 0
M  V30 712 O 67.0887 3.9798 4.51548 0
M  V30 713 H 70.9147 2.647 1.48887 0
M  V30 714 H 68.4997 1.3331 0.674441 0
M  V30 715 H 70.3817 1.82317 3.79919 0
M  V30 716 H 69.0567 0.8335 3.12785 0
M  V30 717 H 67.9637 2.98183 2.25915 0
M  V30 718 H 69.2967 3.91125 2.98801 0
M  V30 719 N 70.9488 -0.749086 1.3866 0
M  V30 720 C 71.8988 -1.85368 1.32751 0
M  V30 721 C 72.8828 -1.59511 0.210945 0
M  V30 722 O 74.0748 -1.71255 0.447299 0
M  V30 723 C 71.2038 -3.23131 1.15935 0
M  V30 724 C 70.2898 -3.54864 2.32233 0
M  V30 725 N 70.6808 -3.57625 3.57684 0
M  V30 726 C 68.9788 -3.85154 2.24883 0
M  V30 727 C 69.6798 -3.86753 4.34508 0
M  V30 728 N 68.6558 -4.03812 3.63918 0
M  V30 729 H 72.4578 -1.85787 2.27729 0
M  V30 730 H 69.9718 -0.946658 1.31955 0
M  V30 731 H 71.9688 -4.02185 1.09786 0
M  V30 732 H 70.6288 -3.23961 0.218947 0
M  V30 733 H 71.6398 -3.39276 3.91295 0
M  V30 734 H 68.3168 -3.93672 1.39027 0
M  V30 735 H 69.7068 -3.95474 5.43185 0
M  V30 736 N 72.4269 -1.23603 -0.977757 0
M  V30 737 C 73.6759 -1.06377 -1.71368 0
M  V30 738 C 73.9889 0.399062 -1.91486 0
M  V30 739 O 75.1949 0.691312 -2.62551 0
M  V30 740 C 73.6509 -1.85512 -3.08404 0
M  V30 741 C 73.2589 -3.36141 -2.96164 0
M  V30 742 C 75.0029 -1.76783 -3.85938 0
M  V30 743 C 72.9099 -4.07659 -4.28449 0
M  V30 744 H 71.8399 -0.394452 -0.642591 0
M  V30 745 H 74.4909 -1.47594 -1.09034 0
M  V30 746 H 72.8729 -1.37103 -3.71509 0
M  V30 747 H 74.0469 -3.92056 -2.42133 0
M  V30 748 H 72.3619 -3.45712 -2.32104 0
M  V30 749 H 74.9589 -2.27526 -4.83876 0
M  V30 750 H 75.3019 -0.731116 -4.0983 0
M  V30 751 H 75.8349 -2.22818 -3.2954 0
M  V30 752 H 72.5739 -5.11648 -4.09752 0
M  V30 753 H 72.0939 -3.5653 -4.82334 0
M  V30 754 H 73.7729 -4.141 -4.97122 0
M  V30 755 N 73.905 1.17692 -1.04816 0
M  V30 756 C 74.835 2.23777 -0.666791 0
M  V30 757 C 75.816 1.66796 0.33361 0
M  V30 758 O 77.001 1.93039 0.212042 0
M  V30 759 C 74.131 3.47281 -0.0367933 0
M  V30 760 C 73.085 4.17059 -0.961546 0
M  V30 761 C 72.411 5.34342 -0.195626 0
M  V30 762 C 73.711 4.69713 -2.28402 0
M  V30 763 H 75.405 2.55933 -1.55367 0
M  V30 764 H 72.951 1.23019 -0.748484 0
M  V30 765 H 74.904 4.20706 0.241775 0
M  V30 766 H 73.628 3.14381 0.885004 0
M  V30 767 H 72.287 3.45541 -1.22462 0
M  V30 768 H 71.935 4.97692 0.728816 0
M  V30 769 H 71.635 5.81966 -0.811775 0
M  V30 770 H 73.159 6.10553 0.0757473 0
M  V30 771 H 74.573 5.34794 -2.06563 0
M  V30 772 H 72.97 5.279 -2.8538 0
M  V30 773 H 74.04 3.86726 -2.92525 0
M  V30 774 N 75.3831 0.828654 1.34056 0
M  V30 775 C 76.3131 0.269443 2.3194 0
M  V30 776 C 77.2941 -0.617247 1.58506 0
M  V30 777 O 78.4791 -0.542931 1.86456 0
M  V30 778 C 75.6091 -0.564793 3.42677 0
M  V30 779 C 74.5631 0.225241 4.27407 0
M  V30 780 C 73.8891 -0.7321 5.29664 0
M  V30 781 C 75.1891 1.43663 5.02154 0
M  V30 782 H 76.8831 1.08728 2.7896 0
M  V30 783 H 74.4291 0.524283 1.34117 0
M  V30 784 H 76.3821 -0.966233 4.10173 0
M  V30 785 H 75.1061 -1.41574 2.9432 0
M  V30 786 H 73.7651 0.608117 3.61521 0
M  V30 787 H 73.4131 -1.57916 4.77568 0
M  V30 788 H 73.1131 -0.20767 5.87233 0
M  V30 789 H 74.6371 -1.13128 6.00029 0
M  V30 790 H 76.0511 1.1089 5.62473 0
M  V30 791 H 74.4481 1.89711 5.69324 0
M  V30 792 H 75.5181 2.21181 4.31517 0
M  V30 793 N 76.8612 -1.46375 0.584142 0
M  V30 794 C 77.7912 -2.33103 -0.136037 0
M  V30 795 C 78.7722 -1.45431 -0.882255 0
M  V30 796 O 79.9572 -1.74246 -0.857434 0
M  V30 797 C 77.0872 -3.27731 -1.14933 0
M  V30 798 C 76.0412 -4.24855 -0.517862 0
M  V30 799 C 75.3672 -5.09001 -1.63773 0
M  V30 800 C 76.6672 -5.19439 0.545886 0
M  V30 801 H 78.3612 -2.93568 0.588086 0
M  V30 802 H 75.9072 -1.41166 0.284259 0
M  V30 803 H 77.8602 -3.87261 -1.66153 0
M  V30 804 H 76.5842 -2.65377 -1.90375 0
M  V30 805 H 75.2432 -3.6659 -0.0267361 0
M  V30 806 H 74.8912 -4.43031 -2.38185 0
M  V30 807 H 74.5912 -5.74777 -1.22085 0
M  V30 808 H 76.1152 -5.71396 -2.15266 0
M  V30 809 H 77.5292 -5.73177 0.118704 0
M  V30 810 H 75.9262 -5.93566 0.88317 0
M  V30 811 H 76.9962 -4.63285 1.43162 0
M  V30 812 N 78.3393 -0.321999 -1.54275 0
M  V30 813 C 79.5873 0.280489 -2.00144 0
M  V30 814 C 79.9083 1.52777 -1.21178 0
M  V30 815 O 79.1783 1.9338 -0.313187 0
M  V30 816 H 77.7583 0.106632 -0.73935 0
M  V30 817 H 80.4203 -0.438184 -1.8991 0
M  V30 818 H 79.5163 0.537972 -3.07428 0
M  V30 819 N 79.8174 1.5752 -0.0501392 0
M  V30 820 C 80.7494 2.08413 0.95376 0
M  V30 821 C 81.7624 1.01175 1.27544 0
M  V30 822 O 82.9514 1.28744 1.23641 0
M  V30 823 C 80.0514 2.51138 2.27559 0
M  V30 824 C 79.2244 3.817 2.13598 0
M  V30 825 C 78.2834 4.10749 3.28895 0
M  V30 826 O 77.3094 4.80685 3.04845 0
M  V30 827 N 78.5114 3.62579 4.5334 0
M  V30 828 H 81.2764 2.95165 0.519383 0
M  V30 829 H 78.8374 1.61327 0.136127 0
M  V30 830 H 80.8294 2.67648 3.03557 0
M  V30 831 H 79.3994 1.6964 2.62567 0
M  V30 832 H 78.6194 3.74782 1.22197 0
M  V30 833 H 79.9074 4.67201 2.01496 0
M  V30 834 H 79.3054 3.06039 4.75769 0
M  V30 835 H 77.8624 3.84329 5.26436 0
M  V30 836 N 81.2955 -0.223234 1.56011 0
M  V30 837 C 82.5415 -0.949279 1.79211 0
M  V30 838 C 82.8745 -1.84054 0.619494 0
M  V30 839 O 82.1495 -1.90726 -0.381317 0
M  V30 840 C 82.4325 -1.78965 3.12479 0
M  V30 841 C 82.2855 -0.924997 4.40186 0
M  V30 842 C 83.6045 -2.76774 3.42175 0
M  V30 843 H 80.7235 -0.343676 0.651963 0
M  V30 844 H 83.3655 -0.218253 1.88742 0
M  V30 845 H 81.5155 -2.41291 3.04485 0
M  V30 846 H 83.1875 -0.318615 4.60198 0
M  V30 847 H 81.4305 -0.230344 4.33188 0
M  V30 848 H 82.1015 -1.54735 5.29869 0
M  V30 849 H 84.5775 -2.24584 3.50287 0
M  V30 850 H 83.4535 -3.32678 4.36597 0
M  V30 851 H 83.7145 -3.54429 2.64258 0
M  V30 852 N 82.7736 -1.49793 -0.48987 0
M  V30 853 C 84.0036 -1.6333 -1.26518 0
M  V30 854 C 84.4116 -0.308392 -1.8667 0
M  V30 855 O 83.7546 0.717512 -1.69108 0
M  V30 856 C 83.8166 -2.6522 -2.4269 0
M  V30 857 C 83.4806 -4.09279 -2.03321 0
M  V30 858 C 84.4776 -4.95738 -1.56652 0
M  V30 859 C 82.1626 -4.55082 -2.12616 0
M  V30 860 C 84.1566 -6.26041 -1.19795 0
M  V30 861 C 81.8436 -5.85396 -1.75371 0
M  V30 862 C 82.8416 -6.707 -1.29036 0
M  V30 863 O 82.5296 -7.98584 -0.92299 0
M  V30 864 H 82.2616 -0.552502 -0.389509 0
M  V30 865 H 84.8156 -1.96642 -0.593381 0
M  V30 866 H 83.0456 -2.27112 -3.12981 0
M  V30 867 H 84.7346 -2.68171 -3.04695 0
M  V30 868 H 85.5006 -4.61575 -1.48908 0
M  V30 869 H 81.3796 -3.88844 -2.47631 0
M  V30 870 H 84.9236 -6.92578 -0.835582 0
M  V30 871 H 80.8206 -6.19085 -1.82768 0
M  V30 872 H 81.5886 -8.11692 -1.05349 0
M  V30 873 N 84.2517 0.741722 -1.39055 0
M  V30 874 C 85.5287 1.49252 -1.26425 0
M  V30 875 C 85.9087 2.10705 0.129144 0
M  V30 876 O 85.2567 1.98045 1.13976 0
M  V30 877 C 85.4667 2.54934 -2.38347 0
M  V30 878 C 86.8147 3.21506 -2.77343 0
M  V30 879 O 87.8387 2.65245 -2.37747 0
M  V30 880 O 86.6977 4.23294 -3.45665 0
M  V30 881 H 83.7917 0.662451 -0.495064 0
M  V30 882 H 86.3377 0.776121 -1.50912 0
M  V30 883 H 85.1097 2.07857 -3.31529 0
M  V30 884 H 84.7327 3.34141 -2.15489 0
M  V30 885 N 85.7298 1.2412 0.971189 0
M  V30 886 C 86.9778 1.07668 1.71032 0
M  V30 887 C 87.2988 -0.385797 1.91146 0
M  V30 888 O 86.5688 -1.27569 1.4867 0
M  V30 889 H 85.1488 0.395429 0.633755 0
M  V30 890 H 87.8108 1.55984 1.16855 0
M  V30 891 H 86.9068 1.57195 2.69622 0
M  V30 892 N 87.2079 -1.17134 1.05439 0
M  V30 893 C 88.1559 -2.23289 0.651511 0
M  V30 894 C 89.1499 -1.66186 -0.328411 0
M  V30 895 O 90.3559 -1.78949 -0.194206 0
M  V30 896 H 86.7309 -0.726938 0.192523 0
M  V30 897 H 88.7019 -2.54565 1.55689 0
M  V30 898 C 87.4509 -3.47671 0.0448436 0
M  V30 899 H 86.7739 -3.91918 0.78996 0
M  V30 900 H 88.2139 -4.2353 -0.19964 0
M  V30 901 C 86.6729 -3.14453 -1.20918 0
M  V30 902 O 87.2029 -3.29459 -2.29825 0
M  V30 903 N 85.4089 -2.68657 -1.10779 0
M  V30 904 H 84.9559 -2.56646 -0.221526 0
M  V30 905 H 84.9139 -2.46804 -1.9477 0
M  V30 906 N 88.686 -0.835752 -1.33615 0
M  V30 907 C 89.934 -0.429109 -1.97492 0
M  V30 908 C 90.255 1.01433 -1.66543 0
M  V30 909 O 89.525 1.70611 -0.962744 0
M  V30 910 H 88.105 -0.155686 -0.730596 0
M  V30 911 H 90.767 -1.06802 -1.63031 0
M  V30 912 H 89.863 -0.55861 -3.0706 0
M  V30 913 N 90.1641 1.46063 -0.591896 0
M  V30 914 C 91.1141 2.27458 0.157172 0
M  V30 915 C 92.0981 1.3641 0.853301 0
M  V30 916 O 93.2901 1.60517 0.74588 0
M  V30 917 C 90.4191 3.22956 1.16423 0
M  V30 918 C 89.5051 4.2149 0.469742 0
M  V30 919 N 89.8961 5.03519 -0.479839 0
M  V30 920 C 88.1941 4.40161 0.719319 0
M  V30 921 C 88.8951 5.74904 -0.886591 0
M  V30 922 N 87.8711 5.43097 -0.233731 0
M  V30 923 H 91.6731 2.88272 -0.572392 0
M  V30 924 H 89.1871 1.57024 -0.414375 0
M  V30 925 H 91.1841 3.79986 1.71513 0
M  V30 926 H 89.8441 2.63701 1.89451 0
M  V30 927 H 90.8551 5.1078 -0.855823 0
M  V30 928 H 87.5321 3.92046 1.43548 0
M  V30 929 H 88.9221 6.50844 -1.66888 0
M  V30 930 N 91.6422 0.330177 1.54103 0
M  V30 931 C 92.5722 -0.525353 2.27513 0
M  V30 932 C 93.5532 -1.11383 1.2856 0
M  V30 933 O 94.7382 -1.13773 1.57383 0
M  V30 934 C 91.8682 -1.6831 3.03791 0
M  V30 935 C 90.8222 -1.2236 4.10137 0
M  V30 936 C 90.1482 -2.46882 4.74293 0
M  V30 937 C 91.4482 -0.333697 5.21233 0
M  V30 938 H 93.1422 0.087013 2.99274 0
M  V30 939 H 90.6882 0.0432893 1.43935 0
M  V30 940 H 92.6412 -2.28795 3.5388 0
M  V30 941 H 91.3652 -2.32216 2.29659 0
M  V30 942 H 90.0242 -0.64165 3.60941 0
M  V30 943 H 89.6722 -3.09165 3.96769 0
M  V30 944 H 89.3722 -2.16825 5.46133 0
M  V30 945 H 90.8962 -3.08117 5.27159 0
M  V30 946 H 92.3102 -0.845013 5.67038 0
M  V30 947 H 90.7072 -0.125612 5.99969 0
M  V30 948 H 91.7772 0.633724 4.80741 0
M  V30 949 N 93.1203 -1.57491 0.0584922 0
M  V30 950 C 94.3663 -1.93264 -0.614558 0
M  V30 951 C 94.6993 -0.937717 -1.7006 0
M  V30 952 O 93.9743 0.0351652 -1.94468 0
M  V30 953 C 94.2573 -3.3938 -1.20386 0
M  V30 954 C 94.1103 -4.49625 -0.125375 0
M  V30 955 C 95.4293 -3.86039 -2.11334 0
M  V30 956 H 92.5483 -0.702791 -0.221933 0
M  V30 957 H 95.1903 -1.8961 0.12175 0
M  V30 958 H 93.3403 -3.42626 -1.83139 0
M  V30 959 H 95.0123 -4.58506 0.506971 0
M  V30 960 H 93.2553 -4.30354 0.545672 0
M  V30 961 H 93.9263 -5.48967 -0.577861 0
M  V30 962 H 96.4023 -3.84716 -1.58534 0
M  V30 963 H 95.2783 -4.88914 -2.49507 0
M  V30 964 H 95.5393 -3.23215 -3.01636 0
M  V30 965 N 94.5984 0.214957 -1.56127 0
M  V30 966 C 96.0144 0.564948 -1.49267 0
M  V30 967 C 96.2144 1.86827 -0.754838 0
M  V30 968 O 95.2704 2.50745 -0.297198 0
M  V30 969 C 96.5834 0.638071 -2.93852 0
M  V30 970 C 98.1314 0.728253 -3.0441 0
M  V30 971 C 98.6064 0.832663 -4.50367 0
M  V30 972 N 100.097 0.896712 -4.54437 0
M  V30 973 C 100.832 0.997324 -5.6466 0
M  V30 974 N 100.328 1.06147 -6.8462 0
M  V30 975 N 102.121 1.03297 -5.52527 0
M  V30 976 H 94.2724 -0.640211 -2.02522 0
M  V30 977 H 96.5354 -0.225507 -0.920788 0
M  V30 978 H 96.2414 -0.250126 -3.50809 0
M  V30 979 H 96.1154 1.49947 -3.46115 0
M  V30 980 H 98.5024 1.60689 -2.47514 0
M  V30 981 H 98.5834 -0.158952 -2.55306 0
M  V30 982 H 98.2274 -0.0415417 -5.07883 0
M  V30 983 H 98.1574 1.73538 -4.97184 0
M  V30 984 H 100.648 0.857188 -3.6805 0
M  V30 985 H 100.961 1.1382 -7.64372 0
M  V30 986 H 99.3064 1.03049 -6.87318 0
M  V30 987 H 102.497 0.979558 -4.57736 0
M  V30 988 H 102.67 1.10793 -6.38458 0
M  V30 989 N 96.0765 1.50051 0.48192 0
M  V30 990 C 97.3535 1.51009 1.2432 0
M  V30 991 C 97.7335 0.248587 2.09631 0
M  V30 992 O 97.0815 -0.768409 2.15192 0
M  V30 993 C 97.2915 2.79981 2.08355 0
M  V30 994 C 98.6395 3.3022 2.66908 0
M  V30 995 O 99.6635 2.81228 2.18607 0
M  V30 996 O 98.5225 4.15595 3.54884 0
M  V30 997 H 95.6165 0.605239 0.563573 0
M  V30 998 H 98.1625 1.62332 0.494627 0
M  V30 999 H 96.9345 3.63275 1.45419 0
M  V30 1000 H 96.5575 2.7161 2.90368 0
M  V30 1001 N 97.5546 -0.734337 1.39446 0
M  V30 1002 C 98.7796 -1.52866 1.40167 0
M  V30 1003 C 99.2046 -1.881 -0.00171513 0
M  V30 1004 O 98.5626 -1.51957 -0.988879 0
M  V30 1005 C 98.6106 -2.79235 2.28167 0
M  V30 1006 O 97.7146 -3.75185 1.71201 0
M  V30 1007 H 97.0556 -0.461618 0.477289 0
M  V30 1008 H 99.5856 -0.905949 1.8345 0
M  V30 1009 H 99.5956 -3.27963 2.42702 0
M  V30 1010 H 98.2706 -2.52923 3.30156 0
M  V30 1011 H 96.8476 -3.33958 1.65912 0
M  V30 1012 N 99.0327 -1.24633 -0.964593 0
M  V30 1013 C 100.28 -1.08788 -1.70796 0
M  V30 1014 C 100.608 0.372783 -1.90894 0
M  V30 1015 O 99.8627 1.29167 -1.47018 0
M  V30 1016 C 100.162 -1.7763 -3.10133 0
M  V30 1017 C 99.8277 -3.27557 -3.09866 0
M  V30 1018 C 98.4897 -3.6846 -3.09501 0
M  V30 1019 C 100.842 -4.23389 -3.03959 0
M  V30 1020 C 98.1697 -5.03624 -3.00965 0
M  V30 1021 C 100.522 -5.58565 -2.96965 0
M  V30 1022 C 99.1857 -5.98809 -2.9493 0
M  V30 1023 H 98.4557 -0.398084 -0.624988 0
M  V30 1024 H 101.103 -1.54777 -1.12767 0
M  V30 1025 H 99.4077 -1.24044 -3.71645 0
M  V30 1026 H 101.105 -1.62832 -3.66451 0
M  V30 1027 H 97.6947 -2.95006 -3.10917 0
M  V30 1028 H 101.879 -3.92787 -3.03368 0
M  V30 1029 H 97.1347 -5.33998 -2.97752 0
M  V30 1030 H 101.309 -6.32523 -2.91354 0
M  V30 1031 H 98.9357 -7.03505 -2.88071 0
M  V30 1032 N 100.511 1.16574 -1.06058 0
M  V30 1033 C 101.441 2.23057 -0.690488 0
M  V30 1034 C 102.422 1.67141 0.315901 0
M  V30 1035 O 103.607 1.93253 0.191556 0
M  V30 1036 C 100.737 3.47222 -0.073625 0
M  V30 1037 C 99.6908 4.16016 -1.00573 0
M  V30 1038 C 99.0168 5.34104 -0.252289 0
M  V30 1039 C 100.317 4.67264 -2.33371 0
M  V30 1040 H 102.011 2.54271 -1.58072 0
M  V30 1041 H 99.5568 1.22218 -0.76149 0
M  V30 1042 H 101.51 4.20939 0.19714 0
M  V30 1043 H 100.234 3.15302 0.85161 0
M  V30 1044 H 98.8928 3.44223 -1.2612 0
M  V30 1045 H 98.5408 4.98437 0.675988 0
M  V30 1046 H 98.2408 5.81072 -0.873455 0
M  V30 1047 H 99.7648 6.10599 0.0109857 0
M  V30 1048 H 101.179 5.32573 -2.12223 0
M  V30 1049 H 99.5758 5.24843 -2.90963 0
M  V30 1050 H 100.646 3.83602 -2.96611 0
M  V30 1051 N 101.989 0.842826 1.3317 0
M  V30 1052 C 102.899 0.281444 2.32906 0
M  V30 1053 C 103.915 -0.594587 1.63526 0
M  V30 1054 O 105.091 -0.49777 1.95152 0
M  V30 1055 C 102.156 -0.530929 3.42611 0
M  V30 1056 C 101.217 0.369843 4.27704 0
M  V30 1057 C 100.45 -0.403853 5.3217 0
M  V30 1058 O 100.673 -1.63513 5.46461 0
M  V30 1059 O 99.6069 0.224199 6.01482 0
M  V30 1060 H 103.433 1.10744 2.82789 0
M  V30 1061 H 101.018 0.60545 1.36582 0
M  V30 1062 H 102.9 -0.992437 4.09547 0
M  V30 1063 H 101.575 -1.33392 2.94938 0
M  V30 1064 H 100.482 0.879275 3.6362 0
M  V30 1065 H 101.815 1.13771 4.78871 0
M  V30 1066 N 103.467 -1.45747 0.599634 0
M  V30 1067 C 104.713 -2.02592 0.0918643 0
M  V30 1068 C 105.046 -1.46806 -1.27128 0
M  V30 1069 O 104.321 -0.639658 -1.83681 0
M  V30 1070 C 104.604 -3.60073 0.0443398 0
M  V30 1071 C 104.457 -4.26208 1.43759 0
M  V30 1072 C 105.776 -4.35309 -0.647608 0
M  V30 1073 H 102.895 -0.736175 0.034857 0
M  V30 1074 H 105.537 -1.73694 0.770081 0
M  V30 1075 H 103.687 -3.84823 -0.533224 0
M  V30 1076 H 105.359 -4.12668 2.06162 0
M  V30 1077 H 103.602 -3.84916 2.00056 0
M  V30 1078 H 104.273 -5.35069 1.35665 0
M  V30 1079 H 106.749 -4.15805 -0.156776 0
M  V30 1080 H 105.625 -5.45038 -0.649942 0
M  V30 1081 H 105.886 -4.07598 -1.71219 0
M  V30 1082 N 104.945 -0.338344 -1.53925 0
M  V30 1083 C 106.191 0.252842 -2.01822 0
M  V30 1084 C 106.546 1.48612 -1.22197 0
M  V30 1085 O 105.839 1.89238 -0.299892 0
M  V30 1086 C 106.033 0.62448 -3.51902 0
M  V30 1087 C 105.862 -0.571235 -4.46057 0
M  V30 1088 C 104.632 -1.07493 -4.93734 0
M  V30 1089 C 106.83 -1.42807 -4.94076 0
M  V30 1090 N 104.812 -2.23351 -5.71828 0
M  V30 1091 C 106.183 -2.43362 -5.70241 0
M  V30 1092 C 108.238 -1.45412 -4.76193 0
M  V30 1093 C 106.941 -3.46346 -6.30426 0
M  V30 1094 C 108.967 -2.47274 -5.37224 0
M  V30 1095 C 108.329 -3.46555 -6.13253 0
M  V30 1096 H 104.428 0.0559669 -0.779995 0
M  V30 1097 H 107.012 -0.476732 -1.88773 0
M  V30 1098 H 105.183 1.32317 -3.65167 0
M  V30 1099 H 106.915 1.19841 -3.86549 0
M  V30 1100 H 103.67 -0.643848 -4.69203 0
M  V30 1101 H 104.094 -2.81834 -6.15548 0
M  V30 1102 H 108.736 -0.700171 -4.16962 0
M  V30 1103 H 106.454 -4.22638 -6.88769 0
M  V30 1104 H 110.04 -2.50109 -5.25297 0
M  V30 1105 H 108.92 -4.24083 -6.59638 0
M  V30 1106 N 106.423 1.57458 -0.0668435 0
M  V30 1107 C 107.355 2.09413 0.931601 0
M  V30 1108 C 108.368 1.02522 1.26464 0
M  V30 1109 O 109.557 1.30049 1.22269 0
M  V30 1110 C 106.657 2.53537 2.24882 0
M  V30 1111 C 105.83 3.83944 2.09537 0
M  V30 1112 C 104.889 4.14214 3.2452 0
M  V30 1113 O 103.915 4.83891 2.9973 0
M  V30 1114 N 105.117 3.67367 4.49469 0
M  V30 1115 H 107.882 2.95699 0.488048 0
M  V30 1116 H 105.443 1.61462 0.119009 0
M  V30 1117 H 107.435 2.70853 3.00701 0
M  V30 1118 H 106.005 1.72415 2.60753 0
M  V30 1119 H 105.225 3.76057 1.18215 0
M  V30 1120 H 106.513 4.69312 1.96529 0
M  V30 1121 H 105.911 3.11068 4.72497 0
M  V30 1122 H 104.468 3.89891 5.2233 0
M  V30 1123 N 107.901 -0.206675 1.56239 0
M  V30 1124 C 108.864 -1.23976 1.92776 0
M  V30 1125 C 109.864 -1.39041 0.807729 0
M  V30 1126 O 111.054 -1.37051 1.0753 0
M  V30 1127 C 108.186 -2.61112 2.19165 0
M  V30 1128 H 109.379 -0.927764 2.85189 0
M  V30 1129 H 106.932 -0.447718 1.4975 0
M  V30 1130 H 107.667 -2.97386 1.29352 0
M  V30 1131 H 107.452 -2.51552 3.00772 0
M  V30 1132 H 108.942 -3.35633 2.48476 0
M  V30 1133 N 109.379 -1.50304 -0.473955 0
M  V30 1134 C 110.656 -1.51667 -1.23518 0
M  V30 1135 C 111.036 -0.259701 -2.09496 0
M  V30 1136 O 110.384 0.756986 -2.15597 0
M  V30 1137 C 110.594 -2.81082 -2.06868 0
M  V30 1138 C 111.942 -3.31631 -2.65153 0
M  V30 1139 O 112.966 -2.82384 -2.17113 0
M  V30 1140 O 111.825 -4.17471 -3.52675 0
M  V30 1141 H 108.919 -0.60822 -0.560355 0
M  V30 1142 H 111.465 -1.62592 -0.486011 0
M  V30 1143 H 110.237 -3.64041 -1.4349 0
M  V30 1144 H 109.86 -2.73146 -2.88924 0
M  V30 1145 N 110.857 0.726932 -1.39834 0
M  V30 1146 C 111.82 1.82269 -1.38962 0
M  V30 1147 C 112.82 1.58248 -0.285334 0
M  V30 1148 O 114.01 1.65499 -0.54366 0
M  V30 1149 C 111.142 3.20186 -1.17019 0
M  V30 1150 H 112.335 1.84443 -2.36476 0
M  V30 1151 H 109.888 0.931416 -1.25516 0
M  V30 1152 H 110.623 3.23669 -0.202204 0
M  V30 1153 H 110.408 3.3902 -1.96998 0
M  V30 1154 H 111.898 4.00235 -1.1917 0
M  V30 1155 N 112.336 1.25143 0.95797 0
M  V30 1156 C 113.284 1.05019 2.07542 0
M  V30 1157 C 114.278 -0.0178751 1.69391 0
M  V30 1158 O 115.484 0.137472 1.79474 0
M  V30 1159 H 111.859 0.32265 0.679265 0
M  V30 1160 H 113.83 1.99759 2.21673 0
M  V30 1161 C 112.579 0.682074 3.40944 0
M  V30 1162 H 111.902 1.49573 3.70767 0
M  V30 1163 H 113.342 0.580945 4.20001 0
M  V30 1164 C 111.801 -0.611608 3.31302 0
M  V30 1165 O 112.331 -1.65465 3.66038 0
M  V30 1166 N 110.537 -0.595982 2.84423 0
M  V30 1167 H 110.084 0.253192 2.56353 0
M  V30 1168 H 110.042 -1.46173 2.78354 0
M  V30 1169 N 113.814 -1.1601 1.06675 0
M  V30 1170 C 115.062 -1.86264 0.784229 0
M  V30 1171 C 115.383 -1.82328 -0.691488 0
M  V30 1172 O 114.653 -1.25947 -1.50047 0
M  V30 1173 H 113.233 -0.689621 0.28711 0
M  V30 1174 H 115.895 -1.40664 1.34906 0
M  V30 1175 H 114.991 -2.91595 1.11259 0
M  V30 1176 N 115.292 -0.849877 -1.32721 0
M  V30 1177 C 116.202 -0.293791 -2.32753 0
M  V30 1178 C 117.218 0.585906 -1.63839 0
M  V30 1179 O 118.394 0.487413 -1.95413 0
M  V30 1180 C 115.459 0.512752 -3.42887 0
M  V30 1181 C 114.52 -0.39252 -4.27502 0
M  V30 1182 C 113.753 0.375625 -5.32377 0
M  V30 1183 O 113.976 1.60613 -5.4732 0
M  V30 1184 O 112.91 -0.256094 -6.01355 0
M  V30 1185 H 116.736 -1.12242 -2.82197 0
M  V30 1186 H 114.321 -0.612685 -1.36259 0
M  V30 1187 H 116.203 0.970704 -4.10067 0
M  V30 1188 H 114.878 1.31826 -2.95641 0
M  V30 1189 H 113.785 -0.898547 -3.63149 0
M  V30 1190 H 115.118 -1.16309 -4.7826 0
M  V30 1191 N 116.77 1.45427 -0.607355 0
M  V30 1192 C 118 2.06314 -0.108656 0
M  V30 1193 C 118.408 1.45269 1.21217 0
M  V30 1194 O 117.751 0.561115 1.74921 0
M  V30 1195 C 117.813 3.59345 0.105618 0
M  V30 1196 C 117.477 4.42723 -1.13337 0
M  V30 1197 C 118.474 4.77715 -2.05145 0
M  V30 1198 C 116.159 4.83478 -1.36213 0
M  V30 1199 C 118.153 5.52317 -3.18158 0
M  V30 1200 C 115.84 5.57835 -2.49527 0
M  V30 1201 C 116.838 5.92171 -3.40327 0
M  V30 1202 O 116.526 6.65019 -4.51669 0
M  V30 1203 H 116.258 0.672782 -0.0658842 0
M  V30 1204 H 118.812 1.87664 -0.834945 0
M  V30 1205 H 117.042 3.76394 0.886796 0
M  V30 1206 H 118.731 4.02076 0.555886 0
M  V30 1207 H 119.497 4.46787 -1.88697 0
M  V30 1208 H 115.376 4.56188 -0.664362 0
M  V30 1209 H 118.92 5.79036 -3.89054 0
M  V30 1210 H 114.817 5.88177 -2.65928 0
M  V30 1211 H 115.585 6.83469 -4.50348 0
M  V30 1212 N 118.248 0.346503 1.53744 0
M  V30 1213 C 119.18 -0.543316 2.22667 0
M  V30 1214 C 120.193 -1.06159 1.23427 0
M  V30 1215 O 121.382 -0.971235 1.49764 0
M  V30 1216 C 118.482 -1.76076 2.89569 0
M  V30 1217 C 117.655 -1.37727 4.15151 0
M  V30 1218 C 116.714 -2.45471 4.65436 0
M  V30 1219 O 115.74 -2.08655 5.29577 0
M  V30 1220 N 116.942 -3.7677 4.41616 0
M  V30 1221 H 119.707 0.0469703 2.99663 0
M  V30 1222 H 117.268 0.170766 1.60997 0
M  V30 1223 H 119.26 -2.47593 3.20125 0
M  V30 1224 H 117.83 -2.25835 2.16142 0
M  V30 1225 H 117.05 -0.492746 3.91108 0
M  V30 1226 H 118.338 -1.09708 4.96832 0
M  V30 1227 H 117.736 -4.09467 3.90325 0
M  V30 1228 H 116.293 -4.44448 4.7677 0
M  V30 1229 N 119.726 -1.57421 0.075193 0
M  V30 1230 C 121.003 -1.85029 -0.634329 0
M  V30 1231 C 121.383 -0.968305 -1.87582 0
M  V30 1232 O 120.731 -0.0354749 -2.28472 0
M  V30 1233 C 120.941 -3.35286 -0.968742 0
M  V30 1234 C 122.289 -4.02875 -1.34077 0
M  V30 1235 O 123.313 -3.40051 -1.06037 0
M  V30 1236 O 122.172 -5.13691 -1.86506 0
M  V30 1237 H 119.266 -0.7645 -0.315387 0
M  V30 1238 H 121.812 -1.69366 0.106382 0
M  V30 1239 H 120.584 -3.91203 -0.0871376 0
M  V30 1240 H 120.207 -3.56223 -1.7661 0
M  V30 1241 N 121.204 0.198386 -1.56346 0
M  V30 1242 C 122.167 1.22952 -1.93431 0
M  V30 1243 C 123.167 1.38611 -0.815092 0
M  V30 1244 O 124.357 1.36479 -1.08255 0
M  V30 1245 C 121.489 2.59946 -2.20546 0
M  V30 1246 H 122.682 0.912626 -2.85677 0
M  V30 1247 H 120.235 0.43977 -1.49986 0
M  V30 1248 H 120.97 2.96696 -1.30927 0
M  V30 1249 H 120.755 2.49953 -3.02102 0
M  V30 1250 H 122.245 3.3431 -2.50253 0
M  V30 1251 N 122.682 1.50554 0.465978 0
M  V30 1252 C 123.912 1.65323 1.23903 0
M  V30 1253 C 124.32 0.338051 1.86155 0
M  V30 1254 O 123.663 -0.690518 1.70228 0
M  V30 1255 C 123.725 2.69048 2.3844 0
M  V30 1256 C 123.389 4.12462 1.96784 0
M  V30 1257 C 124.386 4.98168 1.48745 0
M  V30 1258 C 122.071 4.58407 2.05349 0
M  V30 1259 C 124.065 6.27868 1.0982 0
M  V30 1260 C 121.752 5.88112 1.66035 0
M  V30 1261 C 122.75 6.72668 1.18349 0
M  V30 1262 O 122.438 7.99951 0.795825 0
M  V30 1263 H 122.17 0.558629 0.38067 0
M  V30 1264 H 124.724 1.97561 0.562022 0
M  V30 1265 H 122.954 2.32062 3.09328 0
M  V30 1266 H 124.643 2.72985 3.0039 0
M  V30 1267 H 125.409 4.63885 1.41546 0
M  V30 1268 H 121.288 3.92735 2.41414 0
M  V30 1269 H 124.832 6.93819 0.725293 0
M  V30 1270 H 120.729 6.21914 1.72895 0
M  V30 1271 H 121.497 8.13265 0.924222 0
M  V30 1272 N 124.16 -0.719506 1.40217 0
M  V30 1273 C 125.108 -1.85493 1.40339 0
M  V30 1274 C 126.102 -1.66995 0.284415 0
M  V30 1275 O 127.308 -1.74148 0.455252 0
M  V30 1276 H 123.683 -0.610857 0.438586 0
M  V30 1277 H 125.654 -1.82506 2.36081 0
M  V30 1278 C 124.403 -3.23321 1.27901 0
M  V30 1279 H 123.726 -3.38159 2.1328 0
M  V30 1280 H 125.166 -4.02914 1.32045 0
M  V30 1281 C 123.625 -3.36898 -0.0111355 0
M  V30 1282 O 124.155 -3.89674 -0.975538 0
M  V30 1283 N 122.361 -2.90492 -0.0793393 0
M  V30 1284 H 121.908 -2.47731 0.706183 0
M  V30 1285 H 121.866 -2.99955 -0.942038 0
M  V30 1286 N 125.638 -1.25649 -0.95132 0
M  V30 1287 C 126.568 -1.08808 -2.06599 0
M  V30 1288 C 127.549 0.00382547 -1.701 0
M  V30 1289 O 128.734 -0.166325 -1.93486 0
M  V30 1290 C 125.864 -0.709542 -3.39975 0
M  V30 1291 C 124.818 -1.75206 -3.90496 0
M  V30 1292 C 124.144 -1.22811 -5.20405 0
M  V30 1293 C 125.444 -3.15153 -4.16504 0
M  V30 1294 H 127.138 -2.02048 -2.20946 0
M  V30 1295 H 124.684 -0.972835 -1.06169 0
M  V30 1296 H 126.637 -0.578649 -4.17408 0
M  V30 1297 H 125.361 0.258556 -3.25575 0
M  V30 1298 H 124.02 -1.87145 -3.15234 0
M  V30 1299 H 123.668 -0.250145 -5.02378 0
M  V30 1300 H 123.368 -1.92492 -5.55176 0
M  V30 1301 H 124.892 -1.10968 -6.00432 0
M  V30 1302 H 126.306 -3.06349 -4.84586 0
M  V30 1303 H 124.703 -3.82333 -4.62538 0
M  V30 1304 H 125.773 -3.61966 -3.22658 0
M  V30 1305 N 127.117 1.15442 -1.07289 0
M  V30 1306 C 128.027 2.23786 -0.704057 0
M  V30 1307 C 129.043 1.7166 0.284413 0
M  V30 1308 O 130.219 2.00972 0.131205 0
M  V30 1309 C 127.284 3.46535 -0.106792 0
M  V30 1310 C 126.345 4.13654 -1.14842 0
M  V30 1311 C 125.578 5.30544 -0.57956 0
M  V30 1312 O 125.801 5.67187 0.604585 0
M  V30 1313 O 124.735 5.87154 -1.32414 0
M  V30 1314 H 128.561 2.57664 -1.60757 0
M  V30 1315 H 126.146 1.23152 -0.845803 0
M  V30 1316 H 128.028 4.20804 0.224048 0
M  V30 1317 H 126.703 3.14407 0.770049 0
M  V30 1318 H 125.61 3.4131 -1.5316 0
M  V30 1319 H 126.943 4.49861 -1.99714 0
M  V30 1320 N 128.595 0.856903 1.32268 0
M  V30 1321 C 129.543 0.291987 2.3076 0
M  V30 1322 C 130.537 -0.585857 1.58947 0
M  V30 1323 O 131.743 -0.47341 1.73663 0
M  V30 1324 H 128.118 0.075721 0.748178 0
M  V30 1325 H 130.089 1.13687 2.75895 0
M  V30 1326 C 128.838 -0.502869 3.44044 0
M  V30 1327 H 128.161 0.163328 3.99466 0
M  V30 1328 H 129.601 -0.863691 4.1511 0
M  V30 1329 C 128.06 -1.68898 2.91505 0
M  V30 1330 O 128.59 -2.78811 2.89184 0
M  V30 1331 N 126.796 -1.51679 2.47875 0
M  V30 1332 H 126.343 -0.622666 2.49961 0
M  V30 1333 H 126.301 -2.31184 2.13076 0
M  V30 1334 N 130.073 -1.45103 0.615059 0
M  V30 1335 C 131.036 -2.29025 -0.0895485 0
M  V30 1336 C 132.036 -1.40174 -0.787906 0
M  V30 1337 O 133.226 -1.62217 -0.634933 0
M  V30 1338 C 130.358 -3.21376 -1.13711 0
M  V30 1339 H 131.551 -2.92807 0.648382 0
M  V30 1340 H 129.104 -1.51749 0.374444 0
M  V30 1341 H 129.839 -2.6241 -1.90556 0
M  V30 1342 H 129.624 -3.86834 -0.640475 0
M  V30 1343 H 131.114 -3.84459 -1.63036 0
M  V30 1344 N 131.551 -0.354651 -1.53558 0
M  V30 1345 C 132.798 0.238443 -2.01091 0
M  V30 1346 C 133.126 1.49663 -1.24222 0
M  V30 1347 O 132.381 1.93049 -0.321003 0
M  V30 1348 C 132.68 0.587121 -3.52545 0
M  V30 1349 C 132.346 -0.575472 -4.47213 0
M  V30 1350 C 131.008 -0.894497 -4.72813 0
M  V30 1351 C 133.36 -1.35489 -5.03281 0
M  V30 1352 C 130.688 -1.99511 -5.51736 0
M  V30 1353 C 133.04 -2.44583 -5.83405 0
M  V30 1354 C 131.704 -2.77033 -6.07296 0
M  V30 1355 H 130.974 0.0872526 -0.735845 0
M  V30 1356 H 133.621 -0.484859 -1.8526 0
M  V30 1357 H 131.926 1.39129 -3.66265 0
M  V30 1358 H 133.623 1.05809 -3.86789 0
M  V30 1359 H 130.213 -0.316774 -4.27428 0
M  V30 1360 H 134.397 -1.12167 -4.83459 0
M  V30 1361 H 129.653 -2.25063 -5.68469 0
M  V30 1362 H 133.827 -3.05401 -6.25862 0
M  V30 1363 H 131.454 -3.6244 -6.68237 0
M  V30 1364 N 133.029 1.57378 -0.0835403 0
M  V30 1365 C 133.977 2.14602 0.89714 0
M  V30 1366 C 134.971 1.08589 1.30018 0
M  V30 1367 O 136.177 1.26952 1.27606 0
M  V30 1368 H 132.552 0.686346 0.3073 0
M  V30 1369 H 134.523 2.95845 0.38969 0
M  V30 1370 C 133.272 2.73188 2.15089 0
M  V30 1371 H 132.595 3.54442 1.84962 0
M  V30 1372 H 134.035 3.1681 2.81793 0
M  V30 1373 C 132.494 1.68517 2.91725 0
M  V30 1374 O 133.024 1.11718 3.85852 0
M  V30 1375 N 131.23 1.39277 2.55049 0
M  V30 1376 H 130.777 1.85655 1.78577 0
M  V30 1377 H 130.735 0.694791 3.06627 0
M  V30 1378 N 134.507 -0.190092 1.56449 0
M  V30 1379 C 135.732 -0.929864 1.85387 0
M  V30 1380 C 136.157 -1.7585 0.667704 0
M  V30 1381 O 135.515 -1.77198 -0.383459 0
M  V30 1382 C 135.563 -1.79773 3.12593 0
M  V30 1383 O 134.667 -2.89713 2.93496 0
M  V30 1384 H 134.008 -0.261574 0.610307 0
M  V30 1385 H 136.538 -0.193896 2.03679 0
M  V30 1386 H 136.548 -2.20139 3.43515 0
M  V30 1387 H 135.223 -1.18892 3.98544 0
M  V30 1388 H 133.8 -2.53065 2.73884 0
M  V30 1389 N 135.985 -1.50799 -0.457987 0
M  V30 1390 C 137.232 -1.62442 -1.20908 0
M  V30 1391 C 137.56 -0.330865 -1.91665 0
M  V30 1392 O 136.815 0.68401 -1.83357 0
M  V30 1393 C 137.114 -2.76358 -2.2663 0
M  V30 1394 C 136.78 -4.16378 -1.73033 0
M  V30 1395 C 135.442 -4.54473 -1.58138 0
M  V30 1396 C 137.794 -5.03836 -1.33413 0
M  V30 1397 C 135.122 -5.77754 -1.02065 0
M  V30 1398 C 137.474 -6.27676 -0.78778 0
M  V30 1399 C 136.138 -6.64562 -0.625561 0
M  V30 1400 H 135.408 -0.594417 -0.442435 0
M  V30 1401 H 138.055 -1.84772 -0.503136 0
M  V30 1402 H 136.36 -2.48167 -3.03184 0
M  V30 1403 H 138.057 -2.82568 -2.84528 0
M  V30 1404 H 134.647 -3.86331 -1.85598 0
M  V30 1405 H 138.831 -4.75026 -1.4375 0
M  V30 1406 H 134.087 -6.04997 -0.882547 0
M  V30 1407 H 138.261 -6.94797 -0.472177 0
M  V30 1408 H 135.888 -7.59965 -0.188926 0
M  V30 1409 N 137.463 0.71206 -1.40597 0
M  V30 1410 C 138.711 1.46907 -1.38791 0
M  V30 1411 C 139.032 1.94998 0.00780391 0
M  V30 1412 O 138.302 1.70587 0.963174 0
M  V30 1413 H 136.882 0.545043 -0.51082 0
M  V30 1414 H 139.544 0.843882 -1.75683 0
M  V30 1415 H 138.64 2.34021 -2.06496 0
M  V30 1416 N 138.941 1.26152 0.944643 0
M  V30 1417 C 140.357 1.03189 1.21754 0
M  V30 1418 C 140.557 -0.245112 2.00004 0
M  V30 1419 O 139.613 -0.955176 2.33736 0
M  V30 1420 C 140.926 2.26119 1.98219 0
M  V30 1421 C 142.474 2.30984 2.11224 0
M  V30 1422 C 142.949 3.53597 2.91089 0
M  V30 1423 N 144.44 3.54053 2.98664 0
M  V30 1424 C 145.175 4.45593 3.60881 0
M  V30 1425 N 144.671 5.47416 4.24626 0
M  V30 1426 N 146.464 4.33252 3.58119 0
M  V30 1427 H 138.615 2.08177 0.421437 0
M  V30 1428 H 140.878 0.914723 0.248969 0
M  V30 1429 H 140.584 3.18984 1.48128 0
M  V30 1430 H 140.458 2.3009 2.98895 0
M  V30 1431 H 142.845 1.38635 2.60508 0
M  V30 1432 H 142.926 2.31026 1.09821 0
M  V30 1433 H 142.57 4.46273 2.42493 0
M  V30 1434 H 142.5 3.50802 3.92741 0
M  V30 1435 H 144.991 2.80403 2.53343 0
M  V30 1436 H 145.304 6.13459 4.69987 0
M  V30 1437 H 143.649 5.51278 4.23223 0
M  V30 1438 H 146.84 3.52924 3.0751 0
M  V30 1439 H 147.013 5.04786 4.06319 0
M  V30 1440 N 140.419 -1.14872 1.07899 0
M  V30 1441 C 141.647 -1.89661 0.82683 0
M  V30 1442 C 142.062 -1.78312 -0.620519 0
M  V30 1443 O 141.419 -1.13888 -1.42604 0
M  V30 1444 C 141.47 -3.39817 1.23316 0
M  V30 1445 O 141.191 -3.50845 2.62372 0
M  V30 1446 C 142.692 -4.31615 1.0111 0
M  V30 1447 H 139.912 -0.60092 0.298557 0
M  V30 1448 H 142.456 -1.4551 1.43691 0
M  V30 1449 H 140.611 -3.8161 0.667286 0
M  V30 1450 H 141.025 -4.44076 2.79101 0
M  V30 1451 H 142.499 -5.35367 1.34486 0
M  V30 1452 H 142.976 -4.39169 -0.0522168 0
M  V30 1453 H 143.582 -3.95572 1.56215 0
M  V30 1454 N 141.898 -0.863906 -1.31812 0
M  V30 1455 C 142.861 -0.320212 -2.26952 0
M  V30 1456 C 143.861 0.525369 -1.51975 0
M  V30 1457 O 145.051 0.335547 -1.70938 0
M  V30 1458 C 142.183 0.545919 -3.365 0
M  V30 1459 H 143.376 -1.16004 -2.76556 0
M  V30 1460 H 140.929 -0.638995 -1.42641 0
M  V30 1461 H 141.664 1.40718 -2.92179 0
M  V30 1462 H 141.449 -0.0594674 -3.92055 0
M  V30 1463 H 142.939 0.918796 -4.07367 0
M  V30 1464 N 143.376 1.44774 -0.622745 0
M  V30 1465 C 144.604 2.06487 -0.130722 0
M  V30 1466 C 145.019 1.46476 1.19123 0
M  V30 1467 O 144.376 0.584502 1.72887 0
M  V30 1468 C 144.427 3.615 -0.000807207 0
M  V30 1469 O 144.148 4.19274 -1.27048 0
M  V30 1470 C 145.649 4.40229 0.520898 0
M  V30 1471 H 142.869 0.666704 -0.0758106 0
M  V30 1472 H 145.413 1.85779 -0.854774 0
M  V30 1473 H 143.568 3.81498 0.673643 0
M  V30 1474 H 143.982 5.12622 -1.1099 0
M  V30 1475 H 145.456 5.49144 0.560838 0
M  V30 1476 H 145.933 4.1108 1.54627 0
M  V30 1477 H 146.539 4.25131 -0.120018 0
M  V30 1478 N 144.854 0.36279 1.53368 0
M  V30 1479 C 146.082 -0.228613 2.05633 0
M  V30 1480 C 146.497 -1.42676 1.23649 0
M  V30 1481 O 145.854 -1.80394 0.27647 0
M  V30 1482 C 145.905 -0.624845 3.56059 0
M  V30 1483 O 145.626 0.525675 4.34935 0
M  V30 1484 C 147.127 -1.27493 4.24571 0
M  V30 1485 H 144.347 -0.0407183 0.669763 0
M  V30 1486 H 146.891 0.520352 1.97769 0
M  V30 1487 H 145.046 -1.32373 3.64083 0
M  V30 1488 H 145.46 0.205969 5.24095 0
M  V30 1489 H 146.934 -1.50277 5.31151 0
M  V30 1490 H 147.411 -2.23439 3.78116 0
M  V30 1491 H 148.017 -0.617558 4.20792 0
M  V30 1492 N 146.332 -1.57332 0.0918853 0
M  V30 1493 C 147.579 -1.94236 -0.572577 0
M  V30 1494 C 147.907 -0.973398 -1.6839 0
M  V30 1495 O 147.162 0.00756912 -1.95699 0
M  V30 1496 C 147.461 -3.37689 -1.17051 0
M  V30 1497 C 147.127 -4.50527 -0.183304 0
M  V30 1498 C 145.789 -4.81119 0.0882276 0
M  V30 1499 C 148.141 -5.18883 0.49095 0
M  V30 1500 C 145.469 -5.77395 1.04076 0
M  V30 1501 C 147.821 -6.1618 1.43193 0
M  V30 1502 C 146.485 -6.45179 1.71173 0
M  V30 1503 H 145.755 -0.710762 -0.209521 0
M  V30 1504 H 148.402 -1.9077 0.167036 0
M  V30 1505 H 146.707 -3.37718 -1.9863 0
M  V30 1506 H 148.404 -3.63543 -1.69227 0
M  V30 1507 H 144.994 -4.26681 -0.405124 0
M  V30 1508 H 149.178 -4.95427 0.294312 0
M  V30 1509 H 144.434 -5.98179 1.26457 0
M  V30 1510 H 148.608 -6.68243 1.96023 0
M  V30 1511 H 146.235 -7.1959 2.4514 0
M  V30 1512 N 147.81 0.181792 -1.56548 0
M  V30 1513 C 149.087 0.926765 -1.72251 0
M  V30 1514 C 149.467 2.00831 -0.650386 0
M  V30 1515 O 148.815 2.26008 0.336521 0
M  V30 1516 C 149.025 1.50106 -3.1507 0
M  V30 1517 C 150.373 1.97805 -3.75711 0
M  V30 1518 O 151.397 1.59922 -3.18282 0
M  V30 1519 O 150.256 2.67555 -4.76525 0
M  V30 1520 H 147.35 0.435506 -0.703039 0
M  V30 1521 H 149.896 0.170443 -1.68842 0
M  V30 1522 H 148.668 0.72212 -3.84579 0
M  V30 1523 H 148.291 2.32186 -3.22763 0
M  V30 1524 N 149.288 1.51039 0.449983 0
M  V30 1525 C 150.251 1.70863 1.5277 0
M  V30 1526 C 151.251 0.578846 1.5002 0
M  V30 1527 O 152.441 0.846213 1.52266 0
M  V30 1528 C 149.573 1.75341 2.9235 0
M  V30 1529 H 150.766 2.67034 1.36502 0
M  V30 1530 H 148.319 1.40838 0.677812 0
M  V30 1531 H 149.054 0.809383 3.14037 0
M  V30 1532 H 148.839 2.57436 2.95752 0
M  V30 1533 H 150.329 1.92559 3.70555 0
M  V30 1534 N 150.766 -0.704594 1.40972 0
M  V30 1535 C 152.014 -1.46169 1.39568 0
M  V30 1536 C 152.335 -1.95 0.00253745 0
M  V30 1537 O 151.605 -1.71095 -0.954114 0
M  V30 1538 H 150.185 -0.542326 0.513704 0
M  V30 1539 H 152.847 -0.834553 1.76128 0
M  V30 1540 H 151.943 -2.32922 2.07735 0
M  V30 1541 N 152.244 -1.26651 -0.937939 0
M  V30 1542 C 153.154 -1.10276 -2.07066 0
M  V30 1543 C 154.17 -0.0354197 -1.73964 0
M  V30 1544 O 155.346 -0.239816 -1.99967 0
M  V30 1545 C 152.411 -0.740887 -3.38691 0
M  V30 1546 C 151.472 -1.88799 -3.85556 0
M  V30 1547 C 150.705 -1.54329 -5.10899 0
M  V30 1548 O 150.928 -0.446494 -5.6865 0
M  V30 1549 O 149.862 -2.37911 -5.52885 0
M  V30 1550 H 153.688 -2.05309 -2.23789 0
M  V30 1551 H 151.273 -1.05743 -1.0554 0
M  V30 1552 H 153.155 -0.55195 -4.1777 0
M  V30 1553 H 151.83 0.180022 -3.23199 0
M  V30 1554 H 150.737 -2.13191 -3.07409 0
M  V30 1555 H 152.07 -2.78874 -4.05574 0
M  V30 1556 N 153.722 1.14298 -1.08507 0
M  V30 1557 C 154.968 1.85854 -0.826438 0
M  V30 1558 C 155.323 1.81413 0.640878 0
M  V30 1559 O 154.616 1.23463 1.46518 0
M  V30 1560 C 154.81 3.33547 -1.28379 0
M  V30 1561 C 154.639 3.52369 -2.79403 0
M  V30 1562 C 153.409 3.67159 -3.47164 0
M  V30 1563 C 155.607 3.49203 -3.77573 0
M  V30 1564 N 153.589 3.74149 -4.86709 0
M  V30 1565 C 154.96 3.6245 -5.03021 0
M  V30 1566 C 157.015 3.32547 -3.70563 0
M  V30 1567 C 155.718 3.60761 -6.2229 0
M  V30 1568 C 157.744 3.32162 -4.89308 0
M  V30 1569 C 157.106 3.45949 -6.13595 0
M  V30 1570 H 153.205 0.696705 -0.355143 0
M  V30 1571 H 155.789 1.36981 -1.38362 0
M  V30 1572 H 153.96 3.81008 -0.754166 0
M  V30 1573 H 155.692 3.92867 -0.971469 0
M  V30 1574 H 152.447 3.68433 -2.9758 0
M  V30 1575 H 152.871 3.81359 -5.5937 0
M  V30 1576 H 157.513 3.20797 -2.75407 0
M  V30 1577 H 155.231 3.71286 -7.17755 0
M  V30 1578 H 158.817 3.20485 -4.85573 0
M  V30 1579 H 157.697 3.456 -7.03939 0
M  V30 1580 N 155.201 0.870884 1.31352 0
M  V30 1581 C 156.429 0.49677 2.00848 0
M  V30 1582 C 156.844 -0.910998 1.65367 0
M  V30 1583 O 156.201 -1.59696 0.883374 0
M  V30 1584 C 156.252 0.645308 3.55694 0
M  V30 1585 O 155.973 1.99764 3.89905 0
M  V30 1586 C 157.474 0.272326 4.42463 0
M  V30 1587 H 154.694 0.193462 0.642506 0
M  V30 1588 H 157.238 1.1723 1.67563 0
M  V30 1589 H 155.393 0.0173176 3.87396 0
M  V30 1590 H 155.807 2.00607 4.84621 0
M  V30 1591 H 157.281 0.427208 5.50344 0
M  V30 1592 H 157.758 -0.788587 4.32062 0
M  V30 1593 H 158.364 0.876054 4.1618 0
M  V30 1594 N 156.679 -1.44442 0.630414 0
M  V30 1595 C 157.609 -2.33418 -0.0618083 0
M  V30 1596 C 158.59 -1.48165 -0.835541 0
M  V30 1597 O 159.775 -1.76886 -0.801564 0
M  V30 1598 C 156.905 -3.31222 -1.04449 0
M  V30 1599 C 155.859 -4.26288 -0.382436 0
M  V30 1600 C 155.185 -5.13954 -1.47497 0
M  V30 1601 C 156.485 -5.1744 0.710865 0
M  V30 1602 H 158.179 -2.91548 0.681184 0
M  V30 1603 H 155.725 -1.40191 0.329026 0
M  V30 1604 H 157.678 -3.92351 -1.53748 0
M  V30 1605 H 156.402 -2.71299 -1.81836 0
M  V30 1606 H 155.061 -3.6649 0.0899054 0
M  V30 1607 H 154.709 -4.50385 -2.2397 0
M  V30 1608 H 154.409 -5.7837 -1.03737 0
M  V30 1609 H 155.933 -5.77955 -1.96979 0
M  V30 1610 H 157.347 -5.72509 0.300996 0
M  V30 1611 H 155.744 -5.90455 1.07156 0
M  V30 1612 H 156.814 -4.58496 1.57829 0
M  V30 1613 N 158.157 -0.370918 -1.53173 0
M  V30 1614 C 159.107 0.489588 -2.22681 0
M  V30 1615 C 160.091 1.04442 -1.22395 0
M  V30 1616 O 161.283 0.973578 -1.47819 0
M  V30 1617 C 158.412 1.626 -3.02351 0
M  V30 1618 C 157.498 1.08379 -4.10018 0
M  V30 1619 N 157.889 0.265004 -5.05105 0
M  V30 1620 C 156.187 1.35809 -4.2482 0
M  V30 1621 C 156.888 -0.0324755 -5.81691 0
M  V30 1622 N 155.864 0.566581 -5.40639 0
M  V30 1623 H 159.666 -0.142729 -2.93553 0
M  V30 1624 H 157.18 -0.179221 -1.61408 0
M  V30 1625 H 159.177 2.2547 -3.50669 0
M  V30 1626 H 157.837 2.26132 -2.33011 0
M  V30 1627 H 158.848 -0.0962352 -5.17811 0
M  V30 1628 H 155.525 1.9958 -3.66707 0
M  V30 1629 H 156.915 -0.69473 -6.68299 0
M  V30 1630 N 159.635 1.57281 -0.100228 0
M  V30 1631 C 160.863 1.98879 0.570509 0
M  V30 1632 C 161.278 0.979476 1.61405 0
M  V30 1633 O 160.635 -0.0302288 1.82475 0
M  V30 1634 C 160.686 3.4052 1.2136 0
M  V30 1635 O 160.407 4.37588 0.211786 0
M  V30 1636 C 161.908 3.97149 1.96945 0
M  V30 1637 H 159.128 0.653428 0.152555 0
M  V30 1638 H 161.672 2.03697 -0.18103 0
M  V30 1639 H 159.827 3.367 1.91603 0
M  V30 1640 H 160.241 5.20118 0.676607 0
M  V30 1641 H 161.715 4.98393 2.37294 0
M  V30 1642 H 162.192 3.3525 2.83733 0
M  V30 1643 H 162.798 4.04458 1.31506 0
M  V30 1644 N 161.113 -0.173488 1.56642 0
M  V30 1645 C 162.359 -0.891784 1.8214 0
M  V30 1646 C 162.692 -1.8199 0.677736 0
M  V30 1647 O 161.967 -1.91842 -0.320446 0
M  V30 1648 C 162.25 -1.68933 3.18015 0
M  V30 1649 C 162.103 -0.784487 4.42906 0
M  V30 1650 C 163.422 -2.65748 3.50808 0
M  V30 1651 H 160.541 -0.322761 0.662567 0
M  V30 1652 H 163.183 -0.158095 1.89341 0
M  V30 1653 H 161.333 -2.31482 3.12007 0
M  V30 1654 H 163.005 -0.172046 4.60979 0
M  V30 1655 H 161.248 -0.0924117 4.33702 0
M  V30 1656 H 161.919 -1.37799 5.34524 0
M  V30 1657 H 164.395 -2.13327 3.57255 0
M  V30 1658 H 163.271 -3.18619 4.4696 0
M  V30 1659 H 163.532 -3.45842 2.75401 0
M  V30 1660 N 162.591 -1.51276 -0.441967 0
M  V30 1661 C 163.538 -1.72256 -1.53612 0
M  V30 1662 C 164.508 -0.564164 -1.56225 0
M  V30 1663 O 165.693 -0.798074 -1.73307 0
M  V30 1664 C 162.833 -1.84932 -2.91366 0
M  V30 1665 C 161.946 -3.12459 -2.98317 0
M  V30 1666 C 161.081 -3.15758 -4.27166 0
M  V30 1667 C 160.12 -4.37619 -4.27967 0
M  V30 1668 N 159.257 -4.38493 -5.48333 0
M  V30 1669 H 164.097 -2.65654 -1.35026 0
M  V30 1670 H 161.634 -1.31662 -0.656009 0
M  V30 1671 H 163.592 -1.90263 -3.7129 0
M  V30 1672 H 162.222 -0.949461 -3.08521 0
M  V30 1673 H 161.274 -3.1646 -2.11086 0
M  V30 1674 H 162.586 -4.02382 -2.94771 0
M  V30 1675 H 161.74 -3.19979 -5.15459 0
M  V30 1676 H 160.479 -2.23715 -4.33362 0
M  V30 1677 H 159.484 -4.33579 -3.38067 0
M  V30 1678 H 160.709 -5.30921 -4.23438 0
M  V30 1679 H 158.655 -3.49318 -5.55259 0
M  V30 1680 H 158.572 -5.22219 -5.46647 0
M  V30 1681 H 159.84 -4.469 -6.38671 0
M  V30 1682 N 164.069 0.697108 -1.41344 0
M  V30 1683 C 165.48 1.27697 -1.36199 0
M  V30 1684 C 165.831 1.9615 -0.0443463 0
M  V30 1685 O 164.956 1.98689 0.857419 0
M  V30 1686 C 165.551 2.32223 -2.46694 0
M  V30 1687 C 164.11 2.8579 -2.44952 0
M  V30 1688 C 163.257 1.59807 -2.26621 0
M  V30 1689 H 166.208 0.491968 -1.50882 0
M  V30 1690 H 166.229 3.1348 -2.15664 0
M  V30 1691 H 165.741 1.82373 -3.42581 0
M  V30 1692 H 163.842 3.3982 -1.52817 0
M  V30 1693 H 163.955 3.36325 -3.41207 0
M  V30 1694 H 162.319 1.8556 -1.7447 0
M  V30 1695 H 163.102 1.11956 -3.24532 0
M  V30 1696 N 165.547 1.27147 0.931209 0
M  V30 1697 C 166.795 1.13055 1.6752 0
M  V30 1698 C 167.116 -0.324791 1.92276 0
M  V30 1699 O 166.386 -1.22775 1.52654 0
M  V30 1700 H 164.966 0.415391 0.620854 0
M  V30 1701 H 167.628 1.59623 1.11833 0
M  V30 1702 H 166.724 1.65694 2.64485 0
M  V30 1703 N 167.025 -1.13721 1.09112 0
M  V30 1704 C 168.271 -1.85198 0.826414 0
M  V30 1705 C 168.604 -1.83129 -0.646319 0
M  V30 1706 O 167.879 -1.2671 -1.47563 0
M  V30 1707 C 168.162 -3.33507 1.35812 0
M  V30 1708 C 168.015 -3.44108 2.89672 0
M  V30 1709 C 169.334 -4.28838 0.989256 0
M  V30 1710 H 166.453 -0.67243 0.301675 0
M  V30 1711 H 169.095 -1.33499 1.35197 0
M  V30 1712 H 167.245 -3.77666 0.911082 0
M  V30 1713 H 168.917 -3.08684 3.428 0
M  V30 1714 H 167.16 -2.85087 3.26967 0
M  V30 1715 H 167.831 -4.48388 3.21951 0
M  V30 1716 H 170.307 -3.92734 1.37475 0
M  V30 1717 H 169.183 -5.31051 1.38838 0
M  V30 1718 H 169.444 -4.4198 -0.102924 0
M  V30 1719 N 168.503 -0.877838 -1.30888 0
M  V30 1720 C 169.749 -0.493426 -1.96706 0
M  V30 1721 C 170.082 0.953504 -1.6918 0
M  V30 1722 O 169.357 1.67266 -0.992594 0
M  V30 1723 C 169.64 -0.760429 -3.51979 0
M  V30 1724 C 169.493 -2.25747 -3.89048 0
M  V30 1725 C 170.812 -0.232148 -4.39487 0
M  V30 1726 H 167.931 -0.180746 -0.714493 0
M  V30 1727 H 170.573 -1.10052 -1.54882 0
M  V30 1728 H 168.723 -0.243715 -3.87735 0
M  V30 1729 H 170.395 -2.84204 -3.63354 0
M  V30 1730 H 168.638 -2.72694 -3.37373 0
M  V30 1731 H 169.309 -2.39491 -4.97341 0
M  V30 1732 H 171.785 -0.674314 -4.106 0
M  V30 1733 H 170.661 -0.448355 -5.47066 0
M  V30 1734 H 170.922 0.866297 -4.33529 0
M  V30 1735 N 169.982 1.44106 -0.638065 0
M  V30 1736 C 170.93 2.3248 0.0748149 0
M  V30 1737 C 171.924 1.47746 0.828702 0
M  V30 1738 O 173.13 1.64049 0.740816 0
M  V30 1739 H 169.505 0.750771 0.0429686 0
M  V30 1740 H 171.476 2.90348 -0.688504 0
M  V30 1741 C 170.225 3.31843 1.03805 0
M  V30 1742 H 169.548 3.97059 0.467375 0
M  V30 1743 H 170.988 3.96345 1.50622 0
M  V30 1744 C 169.447 2.61291 2.1267 0
M  V30 1745 O 169.977 2.41702 3.20847 0
M  V30 1746 N 168.183 2.20915 1.88798 0
M  V30 1747 H 167.73 2.37047 1.00829 0
M  V30 1748 H 167.688 1.74038 2.61836 0
M  V30 1749 N 171.46 0.379036 1.52974 0
M  V30 1750 C 172.408 -0.476033 2.27677 0
M  V30 1751 C 173.402 -1.0719 1.31174 0
M  V30 1752 O 174.608 -1.01355 1.48752 0
M  V30 1753 H 170.983 -0.172255 0.732006 0
M  V30 1754 H 172.954 0.175615 2.97883 0
M  V30 1755 C 171.703 -1.5967 3.0887 0
M  V30 1756 H 171.026 -1.1475 3.82978 0
M  V30 1757 H 172.466 -2.16943 3.64296 0
M  V30 1758 C 170.925 -2.54682 2.20542 0
M  V30 1759 O 171.455 -3.57836 1.82527 0
M  V30 1760 N 169.661 -2.24183 1.84907 0
M  V30 1761 H 169.208 -1.40333 2.1602 0
M  V30 1762 H 169.166 -2.88006 1.26096 0
M  V30 1763 N 172.938 -1.57226 0.108567 0
M  V30 1764 C 173.901 -2.13602 -0.831082 0
M  V30 1765 C 174.901 -1.06841 -1.20173 0
M  V30 1766 O 176.091 -1.32666 -1.12895 0
M  V30 1767 C 173.223 -2.66769 -2.12243 0
M  V30 1768 H 174.416 -2.97951 -0.341317 0
M  V30 1769 H 171.969 -1.55667 -0.14057 0
M  V30 1770 H 172.704 -1.85977 -2.65675 0
M  V30 1771 H 172.489 -3.44839 -1.86625 0
M  V30 1772 H 173.979 -3.10332 -2.79435 0
M  V30 1773 N 174.416 0.165178 -1.56732 0
M  V30 1774 C 175.379 1.18822 -1.95995 0
M  V30 1775 C 176.379 1.3685 -0.84431 0
M  V30 1776 O 177.569 1.34152 -1.11126 0
M  V30 1777 C 174.701 2.5521 -2.26011 0
M  V30 1778 H 175.894 0.851825 -2.87548 0
M  V30 1779 H 173.447 0.407857 -1.50885 0
M  V30 1780 H 174.182 2.93852 -1.37191 0
M  V30 1781 H 173.967 2.43489 -3.07336 0
M  V30 1782 H 175.457 3.28927 -2.57288 0
M  V30 1783 N 175.894 1.51508 0.433938 0
M  V30 1784 C 177.142 1.6402 1.18075 0
M  V30 1785 C 177.463 0.360328 1.91642 0
M  V30 1786 O 176.733 -0.623945 1.85698 0
M  V30 1787 H 175.313 0.6045 0.43885 0
M  V30 1788 H 177.975 1.88452 0.497178 0
M  V30 1789 H 177.071 2.46949 1.90847 0
M  V30 1790 N 177.372 -0.689602 1.41712 0
M  V30 1791 C 178.618 -1.45181 1.41599 0
M  V30 1792 C 178.951 -1.94181 0.0270081 0
M  V30 1793 O 178.226 -1.6993 -0.946265 0
M  V30 1794 C 178.509 -2.65945 2.42787 0
M  V30 1795 C 178.362 -2.22672 3.90816 0
M  V30 1796 C 179.681 -3.68149 2.41151 0
M  V30 1797 H 176.8 -0.526576 0.515642 0
M  V30 1798 H 179.442 -0.784947 1.73028 0
M  V30 1799 H 177.592 -3.2284 2.16116 0
M  V30 1800 H 179.264 -1.71058 4.28412 0
M  V30 1801 H 177.507 -1.54394 4.05395 0
M  V30 1802 H 178.178 -3.0935 4.57172 0
M  V30 1803 H 180.654 -3.2094 2.64834 0
M  V30 1804 H 179.53 -4.50248 3.13955 0
M  V30 1805 H 179.791 -4.18259 1.43221 0
M  V30 1806 N 178.85 -1.27639 -0.924453 0
M  V30 1807 C 180.261 -1.12834 -1.48746 0
M  V30 1808 C 180.612 0.285505 -1.94112 0
M  V30 1809 O 179.737 1.17874 -1.81479 0
M  V30 1810 C 180.332 -2.04217 -2.70334 0
M  V30 1811 C 178.891 -1.93509 -3.22848 0
M  V30 1812 C 178.038 -1.96583 -1.95577 0
M  V30 1813 H 180.989 -1.40484 -0.738233 0
M  V30 1814 H 181.01 -1.59989 -3.4523 0
M  V30 1815 H 180.522 -3.07111 -2.37285 0
M  V30 1816 H 178.623 -0.936131 -3.60649 0
M  V30 1817 H 178.736 -2.79917 -3.88823 0
M  V30 1818 H 177.1 -1.4085 -2.12211 0
M  V30 1819 H 177.883 -3.01137 -1.64837 0
M  V30 1820 N 180.328 1.1314 -1.09713 0
M  V30 1821 C 181.261 2.17735 -0.683137 0
M  V30 1822 C 182.239 1.59582 0.311841 0
M  V30 1823 O 183.423 1.87298 0.212514 0
M  V30 1824 C 180.55 3.38699 -0.00684324 0
M  V30 1825 C 179.596 4.1546 -0.964102 0
M  V30 1826 S 180.429 4.74733 -2.47767 0
M  V30 1827 C 181.585 5.9904 -1.81387 0
M  V30 1828 H 181.818 2.52515 -1.56918 0
M  V30 1829 H 179.351 1.24484 -0.913404 0
M  V30 1830 H 181.309 4.08765 0.377044 0
M  V30 1831 H 179.97 3.02214 0.85589 0
M  V30 1832 H 179.163 5.02093 -0.43803 0
M  V30 1833 H 178.765 3.51066 -1.28953 0
M  V30 1834 H 181.057 6.67846 -1.13967 0
M  V30 1835 H 182 6.56261 -2.65947 0
M  V30 1836 H 182.408 5.4976 -1.28155 0
M  V30 1837 N 181.806 0.884767 1.30421 0
M  V30 1838 C 182.769 0.356277 2.26414 0
M  V30 1839 C 183.769 -0.501124 1.52792 0
M  V30 1840 O 184.959 -0.30831 1.7145 0
M  V30 1841 C 182.091 -0.492316 3.37326 0
M  V30 1842 H 183.284 1.20389 2.74675 0
M  V30 1843 H 180.837 0.661607 1.41607 0
M  V30 1844 H 181.572 -1.36052 2.94381 0
M  V30 1845 H 181.357 0.121832 3.91911 0
M  V30 1846 H 182.847 -0.853871 4.08777 0
M  V30 1847 N 183.284 -1.43765 0.645699 0
M  V30 1848 C 184.695 -1.85193 0.236719 0
M  V30 1849 C 185.046 -1.54045 -1.21509 0
M  V30 1850 O 184.171 -0.985694 -1.92647 0
M  V30 1851 C 184.766 -3.36151 0.422845 0
M  V30 1852 C 183.325 -3.76338 0.0682492 0
M  V30 1853 C 182.472 -2.67538 0.729306 0
M  V30 1854 H 185.423 -1.34025 0.849883 0
M  V30 1855 H 185.444 -3.79032 -0.333904 0
M  V30 1856 H 184.956 -3.5879 1.47958 0
M  V30 1857 H 183.057 -3.59312 -0.986179 0
M  V30 1858 H 183.17 -4.76603 0.488469 0
M  V30 1859 H 181.534 -2.54176 0.163235 0
M  V30 1860 H 182.317 -2.93006 1.78892 0
M  V30 1861 N 184.763 -0.387143 -1.52771 0
M  V30 1862 C 185.713 0.465942 -2.23188 0
M  V30 1863 C 186.697 1.03138 -1.23496 0
M  V30 1864 O 187.889 0.957845 -1.48843 0
M  V30 1865 C 185.018 1.59384 -3.04059 0
M  V30 1866 C 184.104 1.04024 -4.11144 0
M  V30 1867 N 184.495 0.211416 -5.05358 0
M  V30 1868 C 182.793 1.31295 -4.26237 0
M  V30 1869 C 183.494 -0.0941698 -5.81624 0
M  V30 1870 N 182.47 0.509207 -5.4121 0
M  V30 1871 H 186.272 -0.173856 -2.93385 0
M  V30 1872 H 183.786 -0.19633 -1.61209 0
M  V30 1873 H 185.783 2.21738 -3.53041 0
M  V30 1874 H 184.443 2.23648 -2.35397 0
M  V30 1875 H 185.454 -0.151151 -5.17679 0
M  V30 1876 H 182.131 1.95679 -3.68803 0
M  V30 1877 H 183.521 -0.765572 -6.67524 0
M  V30 1878 N 186.241 1.57166 -0.116904 0
M  V30 1879 C 187.49 1.94298 0.541407 0
M  V30 1880 C 187.803 1.00236 1.67964 0
M  V30 1881 O 189.009 1.26826 2.40057 0
M  V30 1882 C 187.465 3.45306 1.01449 0
M  V30 1883 C 187.073 4.47899 -0.0951738 0
M  V30 1884 C 188.817 3.91361 1.6443 0
M  V30 1885 C 186.724 5.90083 0.394491 0
M  V30 1886 H 185.654 0.725308 0.206019 0
M  V30 1887 H 188.305 1.82446 -0.196419 0
M  V30 1888 H 186.687 3.52385 1.80667 0
M  V30 1889 H 187.861 4.52486 -0.871374 0
M  V30 1890 H 186.176 4.11583 -0.631505 0
M  V30 1891 H 188.773 4.95004 2.02176 0
M  V30 1892 H 189.116 3.3122 2.52189 0
M  V30 1893 H 189.649 3.87073 0.917559 0
M  V30 1894 H 186.388 6.53974 -0.447004 0
M  V30 1895 H 185.908 5.88921 1.13722 0
M  V30 1896 H 187.587 6.41307 0.856399 0
M  V30 1897 N 187.719 -0.156864 1.56817 0
M  V30 1898 C 188.667 -1.21319 1.98455 0
M  V30 1899 C 189.661 -1.45025 0.875444 0
M  V30 1900 O 190.867 -1.45435 1.0606 0
M  V30 1901 H 187.242 -0.408142 0.631605 0
M  V30 1902 H 189.213 -0.835244 2.86472 0
M  V30 1903 C 187.962 -2.54148 2.37285 0
M  V30 1904 H 187.285 -2.36733 3.22176 0
M  V30 1905 H 188.725 -3.26712 2.70251 0
M  V30 1906 C 187.184 -3.13967 1.22173 0
M  V30 1907 O 187.714 -3.98357 0.517149 0
M  V30 1908 N 185.92 -2.7327 0.988536 0
M  V30 1909 H 185.467 -2.04744 1.56326 0
M  V30 1910 H 185.425 -3.13628 0.220209 0
M  V30 1911 N 189.197 -1.51736 -0.425897 0
M  V30 1912 C 190.446 -1.64201 -1.17136 0
M  V30 1913 C 190.759 -0.369705 -1.92074 0
M  V30 1914 O 191.965 -0.373898 -2.68913 0
M  V30 1915 C 190.421 -2.90035 -2.13091 0
M  V30 1916 C 190.029 -4.24312 -1.43747 0
M  V30 1917 C 191.773 -3.1186 -2.87999 0
M  V30 1918 C 189.68 -5.41285 -2.38253 0
M  V30 1919 H 188.61 -0.611624 -0.440944 0
M  V30 1920 H 191.261 -1.78212 -0.437328 0
M  V30 1921 H 189.643 -2.69684 -2.89977 0
M  V30 1922 H 190.817 -4.55086 -0.723408 0
M  V30 1923 H 189.132 -4.08456 -0.809465 0
M  V30 1924 H 191.729 -3.96427 -3.58817 0
M  V30 1925 H 192.072 -2.25403 -3.49999 0
M  V30 1926 H 192.605 -3.32605 -2.18217 0
M  V30 1927 H 189.344 -6.30037 -1.80925 0
M  V30 1928 H 188.864 -5.14872 -3.0768 0
M  V30 1929 H 190.543 -5.73694 -2.99139 0
M  V30 1930 N 190.675 0.682077 -1.42076 0
M  V30 1931 C 191.9 1.47558 -1.45744 0
M  V30 1932 C 192.325 1.87977 -0.0680981 0
M  V30 1933 O 191.683 1.55522 0.9318 0
M  V30 1934 C 191.731 2.70575 -2.38373 0
M  V30 1935 O 190.835 3.68573 -1.85007 0
M  V30 1936 H 190.176 0.443585 -0.494093 0
M  V30 1937 H 192.706 0.837238 -1.86686 0
M  V30 1938 H 192.716 3.18729 -2.54707 0
M  V30 1939 H 191.391 2.40495 -3.39315 0
M  V30 1940 H 189.968 3.2757 -1.78192 0
M  V30 1941 N 192.153 1.28127 0.917671 0
M  V30 1942 C 193.083 1.14248 2.03641 0
M  V30 1943 C 194.064 0.0412748 1.7005 0
M  V30 1944 O 195.249 0.217566 1.92977 0
M  V30 1945 C 192.379 0.799431 3.37974 0
M  V30 1946 C 191.333 1.85497 3.85713 0
M  V30 1947 C 190.659 1.36565 5.16966 0
M  V30 1948 C 191.959 3.26085 4.08002 0
M  V30 1949 H 193.653 2.07835 2.15511 0
M  V30 1950 H 191.199 1.00064 1.03553 0
M  V30 1951 H 193.152 0.689114 4.15727 0
M  V30 1952 H 191.876 -0.172145 3.26146 0
M  V30 1953 H 190.535 1.95437 3.10161 0
M  V30 1954 H 190.183 0.383253 5.01538 0
M  V30 1955 H 189.883 2.07143 5.49878 0
M  V30 1956 H 191.407 1.26848 5.97279 0
M  V30 1957 H 192.821 3.19089 4.76293 0
M  V30 1958 H 191.218 3.94462 4.52238 0
M  V30 1959 H 192.288 3.70394 3.12948 0
M  V30 1960 N 193.631 -1.12557 1.10312 0
M  V30 1961 C 194.878 -1.84038 0.844759 0
M  V30 1962 C 195.206 -1.84026 -0.629668 0
M  V30 1963 O 194.461 -1.28026 -1.48013 0
M  V30 1964 C 194.76 -3.31462 1.33669 0
M  V30 1965 C 194.426 -3.51647 2.82232 0
M  V30 1966 C 193.088 -3.56864 3.22802 0
M  V30 1967 C 195.44 -3.58867 3.77974 0
M  V30 1968 C 192.768 -3.66844 4.57867 0
M  V30 1969 C 195.12 -3.70375 5.1284 0
M  V30 1970 C 193.784 -3.73848 5.52986 0
M  V30 1971 H 193.054 -0.673444 0.309119 0
M  V30 1972 H 195.701 -1.32824 1.37949 0
M  V30 1973 H 194.006 -3.85091 0.721949 0
M  V30 1974 H 195.703 -3.85236 1.11329 0
M  V30 1975 H 192.293 -3.48249 2.49842 0
M  V30 1976 H 196.477 -3.54107 3.47738 0
M  V30 1977 H 191.733 -3.67804 4.88396 0
M  V30 1978 H 195.907 -3.74904 5.86873 0
M  V30 1979 H 193.534 -3.81333 6.57639 0
M  V30 1980 N 195.109 -0.891671 -1.2995 0
M  V30 1981 C 196.072 -0.36828 -2.26222 0
M  V30 1982 C 197.072 0.493014 -1.53056 0
M  V30 1983 O 198.262 0.299213 -1.71611 0
M  V30 1984 C 195.394 0.47442 -3.37583 0
M  V30 1985 H 196.587 -1.21844 -2.74033 0
M  V30 1986 H 194.14 -0.669107 -1.41254 0
M  V30 1987 H 194.875 1.34489 -2.95099 0
M  V30 1988 H 194.66 -0.142615 -3.91841 0
M  V30 1989 H 196.15 0.83218 -4.09224 0
M  V30 1990 N 196.587 1.43421 -0.653314 0
M  V30 1991 C 198.003 1.56341 -0.320886 0
M  V30 1992 C 198.203 1.63696 1.17499 0
M  V30 1993 O 197.259 1.59208 1.95982 0
M  V30 1994 C 198.572 2.82424 -1.03233 0
M  V30 1995 C 200.12 2.96168 -1.01259 0
M  V30 1996 C 200.595 4.25084 -1.70492 0
M  V30 1997 N 202.086 4.31948 -1.67257 0
M  V30 1998 C 202.821 5.30466 -2.17701 0
M  V30 1999 N 202.317 6.35261 -2.76434 0
M  V30 2000 N 204.11 5.2212 -2.082 0
M  V30 2001 H 196.261 1.3689 -1.62403 0
M  V30 2002 H 198.524 0.657455 -0.682977 0
M  V30 2003 H 198.23 2.83053 -2.08744 0
M  V30 2004 H 198.104 3.72653 -0.583948 0
M  V30 2005 H 200.491 2.9508 0.0341235 0
M  V30 2006 H 200.572 2.07229 -1.49966 0
M  V30 2007 H 200.216 4.26932 -2.7512 0
M  V30 2008 H 200.146 5.1292 -1.19251 0
M  V30 2009 H 202.637 3.56838 -1.24398 0
M  V30 2010 H 202.95 7.06754 -3.12601 0
M  V30 2011 H 201.295 6.35884 -2.80495 0
M  V30 2012 H 204.486 4.39166 -1.62021 0
M  V30 2013 H 204.659 5.98739 -2.47822 0
M  V30 2014 N 198.065 0.39524 1.52563 0
M  V30 2015 C 199.313 -0.184678 2.01254 0
M  V30 2016 C 199.634 -1.46822 1.28329 0
M  V30 2017 O 198.904 -1.91666 0.405094 0
M  V30 2018 H 197.484 -0.0712355 0.743596 0
M  V30 2019 H 200.146 0.528293 1.87603 0
M  V30 2020 H 199.242 -0.390681 3.09645 0
M  V30 2021 N 199.544 -1.57102 0.125237 0
M  V30 2022 C 200.793 -1.94582 -0.531095 0
M  V30 2023 C 201.106 -1.01126 -1.6743 0
M  V30 2024 O 202.312 -1.28097 -2.39381 0
M  V30 2025 C 200.768 -3.45839 -0.996164 0
M  V30 2026 C 200.376 -4.47842 0.118926 0
M  V30 2027 C 202.12 -3.92227 -1.62352 0
M  V30 2028 C 200.027 -5.90284 -0.363192 0
M  V30 2029 H 198.957 -0.726391 -0.20217 0
M  V30 2030 H 201.608 -1.82339 0.206092 0
M  V30 2031 H 199.99 -3.53338 -1.78796 0
M  V30 2032 H 201.164 -4.52018 0.895358 0
M  V30 2033 H 199.479 -4.11243 0.653324 0
M  V30 2034 H 202.076 -4.96069 -1.99548 0
M  V30 2035 H 202.419 -3.32552 -2.50429 0
M  V30 2036 H 202.952 -3.87554 -0.897019 0
M  V30 2037 H 199.691 -6.53728 0.481679 0
M  V30 2038 H 199.211 -5.89515 -1.10597 0
M  V30 2039 H 200.89 -6.41752 -0.822377 0
M  V30 2040 N 201.022 0.148545 -1.56898 0
M  V30 2041 C 201.97 1.20265 -1.99096 0
M  V30 2042 C 202.964 1.44559 -0.883123 0
M  V30 2043 O 204.17 1.4487 -1.0683 0
M  V30 2044 H 200.545 0.404786 -0.63376 0
M  V30 2045 H 202.516 0.82004 -2.86911 0
M  V30 2046 C 201.265 2.52886 -2.3863 0
M  V30 2047 H 200.588 2.35021 -3.23427 0
M  V30 2048 H 202.028 3.25274 -2.7198 0
M  V30 2049 C 200.487 3.13315 -1.23837 0
M  V30 2050 O 201.017 3.98077 -0.538268 0
M  V30 2051 N 199.223 2.72742 -1.00301 0
M  V30 2052 H 198.77 2.03912 -1.5741 0
M  V30 2053 H 198.728 3.13507 -0.236838 0
M  V30 2054 N 202.5 1.5196 0.417844 0
M  V30 2055 C 203.749 1.6482 1.16264 0
M  V30 2056 C 204.062 0.379886 1.91876 0
M  V30 2057 O 205.268 0.388154 2.68711 0
M  V30 2058 C 203.724 2.91161 2.1155 0
M  V30 2059 C 203.332 4.25068 1.41495 0
M  V30 2060 C 205.076 3.13383 2.86341 0
M  V30 2061 C 202.983 5.42541 2.35379 0
M  V30 2062 H 201.913 0.613954 0.437694 0
M  V30 2063 H 204.564 1.78442 0.427871 0
M  V30 2064 H 202.946 2.71218 2.88543 0
M  V30 2065 H 204.12 4.55463 0.699263 0
M  V30 2066 H 202.435 4.0888 0.787792 0
M  V30 2067 H 205.032 3.98324 3.5671 0
M  V30 2068 H 205.375 2.27256 3.48798 0
M  V30 2069 H 205.908 3.33757 2.1645 0
M  V30 2070 H 202.647 6.30987 1.77582 0
M  V30 2071 H 202.167 5.16497 3.04945 0
M  V30 2072 H 203.846 5.75272 2.96093 0
M  V30 2073 N 203.978 -0.674533 1.42435 0
M  V30 2074 C 204.928 -1.7807 1.4239 0
M  V30 2075 C 205.912 -1.58169 0.295202 0
M  V30 2076 O 207.104 -1.68643 0.537449 0
M  V30 2077 C 204.233 -3.16532 1.32901 0
M  V30 2078 C 203.319 -3.42055 2.50717 0
M  V30 2079 N 203.71 -3.38162 3.76139 0
M  V30 2080 C 202.008 -3.72692 2.44983 0
M  V30 2081 C 202.709 -3.63177 4.54398 0
M  V30 2082 N 201.685 -3.83954 3.84812 0
M  V30 2083 H 205.487 -1.73454 2.37257 0
M  V30 2084 H 203.001 -0.875381 1.36788 0
M  V30 2085 H 204.998 -3.958 1.30951 0
M  V30 2086 H 203.658 -3.22345 0.390363 0
M  V30 2087 H 204.669 -3.18057 4.0873 0
M  V30 2088 H 201.346 -3.85749 1.59699 0
M  V30 2089 H 202.736 -3.66125 5.63384 0
M  V30 2090 N 205.456 -1.28612 -0.910864 0
M  V30 2091 C 206.386 -1.15326 -2.03032 0
M  V30 2092 C 207.367 -0.0502924 -1.70026 0
M  V30 2093 O 208.552 -0.227797 -1.92859 0
M  V30 2094 C 205.682 -0.817343 -3.37545 0
M  V30 2095 C 204.636 -1.8754 -3.84724 0
M  V30 2096 C 203.962 -1.39305 -5.16235 0
M  V30 2097 C 205.262 -3.28244 -4.06267 0
M  V30 2098 H 206.956 -2.08975 -2.14406 0
M  V30 2099 H 204.502 -1.00612 -1.03021 0
M  V30 2100 H 206.455 -0.711151 -4.15356 0
M  V30 2101 H 205.179 0.154846 -3.26233 0
M  V30 2102 H 203.838 -1.97079 -3.09121 0
M  V30 2103 H 203.486 -0.409846 -5.01328 0
M  V30 2104 H 203.186 -2.10057 -5.48771 0
M  V30 2105 H 204.71 -1.30014 -5.96598 0
M  V30 2106 H 206.124 -3.21611 -4.74594 0
M  V30 2107 H 204.521 -3.96855 -4.5014 0
M  V30 2108 H 205.591 -3.72048 -3.10979 0
M  V30 2109 N 206.934 1.1197 -1.10907 0
M  V30 2110 C 207.884 2.15946 -0.731538 0
M  V30 2111 C 208.868 1.58758 0.261699 0
M  V30 2112 O 210.06 1.76863 0.0696722 0
M  V30 2113 C 207.189 3.42877 -0.170299 0
M  V30 2114 C 206.275 4.07037 -1.19087 0
M  V30 2115 N 206.666 4.46135 -2.38322 0
M  V30 2116 C 204.964 4.33884 -1.03252 0
M  V30 2117 C 205.665 4.96331 -3.03366 0
M  V30 2118 N 204.641 4.9214 -2.30865 0
M  V30 2119 H 208.443 2.43947 -1.63912 0
M  V30 2120 H 205.957 1.28927 -0.987505 0
M  V30 2121 H 207.954 4.16732 0.118271 0
M  V30 2122 H 206.614 3.16343 0.731935 0
M  V30 2123 H 207.625 4.38345 -2.75815 0
M  V30 2124 H 204.302 4.17084 -0.186256 0
M  V30 2125 H 205.692 5.36257 -4.04818 0
M  V30 2126 N 208.412 0.89855 1.29475 0
M  V30 2127 C 209.64 0.539261 1.99749 0
M  V30 2128 C 210.055 -0.875716 1.67262 0
M  V30 2129 O 209.412 -1.57786 0.917049 0
M  V30 2130 C 209.463 0.72061 3.54245 0
M  V30 2131 O 209.184 2.07989 3.8558 0
M  V30 2132 C 210.685 0.366118 4.41786 0
M  V30 2133 H 207.905 0.207047 0.638258 0
M  V30 2134 H 210.449 1.20758 1.65039 0
M  V30 2135 H 208.604 0.0994862 3.87272 0
M  V30 2136 H 209.018 2.10841 4.80257 0
M  V30 2137 H 210.492 0.543848 5.49314 0
M  V30 2138 H 210.969 -0.696763 4.33638 0
M  V30 2139 H 211.575 0.964135 4.14228 0
M  V30 2140 N 209.89 -1.43072 0.660911 0
M  V30 2141 C 211.306 -1.56169 0.329173 0
M  V30 2142 C 211.506 -1.64317 -1.16629 0
M  V30 2143 O 210.562 -1.60245 -1.95135 0
M  V30 2144 C 211.875 -2.81873 1.04729 0
M  V30 2145 C 213.423 -2.95627 1.02828 0
M  V30 2146 C 213.898 -4.24174 1.72744 0
M  V30 2147 N 215.389 -4.31055 1.69545 0
M  V30 2148 C 216.124 -5.29304 2.20511 0
M  V30 2149 N 215.62 -6.33786 2.79799 0
M  V30 2150 N 217.413 -5.21008 2.10966 0
M  V30 2151 H 209.564 -1.36027 1.63127 0
M  V30 2152 H 211.827 -0.653823 0.686454 0
M  V30 2153 H 211.533 -2.81942 2.10242 0
M  V30 2154 H 211.407 -3.72338 0.603702 0
M  V30 2155 H 213.794 -2.95094 -0.0184742 0
M  V30 2156 H 213.875 -2.06431 1.51063 0
M  V30 2157 H 213.519 -4.25467 2.7738 0
M  V30 2158 H 213.449 -5.1228 1.2197 0
M  V30 2159 H 215.94 -3.56174 1.26288 0
M  V30 2160 H 216.253 -7.05086 3.16344 0
M  V30 2161 H 214.598 -6.34387 2.83863 0
M  V30 2162 H 217.789 -4.38301 1.64347 0
M  V30 2163 H 217.962 -5.97416 2.50993 0
M  V30 2164 N 211.368 -0.403325 -1.52352 0
M  V30 2165 C 212.298 0.416205 -2.29761 0
M  V30 2166 C 213.279 1.05123 -1.33728 0
M  V30 2167 O 214.464 1.06134 -1.62632 0
M  V30 2168 C 211.594 1.53624 -3.11475 0
M  V30 2169 C 210.548 1.02653 -4.15507 0
M  V30 2170 C 209.874 2.23971 -4.85532 0
M  V30 2171 C 211.174 0.08463 -5.22231 0
M  V30 2172 H 212.868 -0.229701 -2.98518 0
M  V30 2173 H 210.414 -0.111913 -1.43564 0
M  V30 2174 H 212.367 2.1165 -3.64393 0
M  V30 2175 H 211.091 2.20994 -2.40477 0
M  V30 2176 H 209.75 0.46871 -3.63591 0
M  V30 2177 H 209.398 2.89883 -4.11068 0
M  V30 2178 H 209.098 1.90521 -5.55856 0
M  V30 2179 H 210.622 2.82614 -5.41259 0
M  V30 2180 H 212.036 0.573509 -5.70424 0
M  V30 2181 H 210.433 -0.160783 -5.99885 0
M  V30 2182 H 211.503 -0.86237 -4.7717 0
M  V30 2183 N 212.846 1.57033 -0.133567 0
M  V30 2184 C 214.076 1.99754 0.527429 0
M  V30 2185 C 214.484 1.01245 1.59832 0
M  V30 2186 O 213.827 -0.000645496 1.837 0
M  V30 2187 C 213.889 3.38903 1.19939 0
M  V30 2188 C 213.553 4.56174 0.274709 0
M  V30 2189 C 214.55 5.17563 -0.492398 0
M  V30 2190 C 212.235 5.01972 0.18153 0
M  V30 2191 C 214.229 6.2315 -1.34027 0
M  V30 2192 C 211.916 6.07416 -0.669958 0
M  V30 2193 C 212.914 6.67874 -1.42947 0
M  V30 2194 O 212.602 7.71279 -2.2668 0
M  V30 2195 H 212.334 0.660702 0.142999 0
M  V30 2196 H 214.888 2.04207 -0.221099 0
M  V30 2197 H 213.118 3.31248 1.99528 0
M  V30 2198 H 214.807 3.65818 1.75875 0
M  V30 2199 H 215.573 4.83087 -0.430367 0
M  V30 2200 H 211.452 4.54652 0.762422 0
M  V30 2201 H 214.996 6.70268 -1.93357 0
M  V30 2202 H 210.893 6.41321 -0.73333 0
M  V30 2203 H 211.661 7.88441 -2.1978 0
M  V30 2204 N 214.325 -0.140222 1.56975 0
M  V30 2205 C 215.572 -0.851687 1.83719 0
M  V30 2206 C 215.9 -1.80862 0.715485 0
M  V30 2207 O 215.155 -1.93464 -0.294956 0
M  V30 2208 C 215.454 -1.65386 3.16832 0
M  V30 2209 C 215.12 -0.843112 4.42947 0
M  V30 2210 C 213.782 -0.619464 4.77196 0
M  V30 2211 C 216.134 -0.276582 5.20466 0
M  V30 2212 C 213.462 0.181312 5.8642 0
M  V30 2213 C 215.814 0.51127 6.30531 0
M  V30 2214 C 214.478 0.745432 6.63325 0
M  V30 2215 H 213.748 -0.311654 0.672274 0
M  V30 2216 H 216.395 -0.115006 1.91154 0
M  V30 2217 H 214.7 -2.46084 3.04877 0
M  V30 2218 H 216.397 -2.20793 3.34741 0
M  V30 2219 H 212.987 -1.0275 4.16101 0
M  V30 2220 H 217.171 -0.436632 4.94376 0
M  V30 2221 H 212.427 0.372165 6.10266 0
M  V30 2222 H 216.601 0.957354 6.89788 0
M  V30 2223 H 214.228 1.36778 7.47794 0
M  V30 2224 N 215.803 -1.52179 -0.40978 0
M  V30 2225 C 217.08 -1.56769 -1.16974 0
M  V30 2226 C 217.46 -0.348322 -2.08206 0
M  V30 2227 O 216.808 0.664862 -2.18613 0
M  V30 2228 C 217.018 -2.89603 -1.9476 0
M  V30 2229 C 218.366 -3.42579 -2.50849 0
M  V30 2230 O 219.39 -2.91338 -2.04941 0
M  V30 2231 O 218.249 -4.32054 -3.34652 0
M  V30 2232 H 215.343 -0.631439 -0.534054 0
M  V30 2233 H 217.889 -1.64507 -0.416613 0
M  V30 2234 H 216.661 -3.698 -1.27921 0
M  V30 2235 H 216.284 -2.85155 -2.77079 0
M  V30 2236 N 217.281 0.66697 -1.42791 0
M  V30 2237 C 218.558 1.4234 -1.34159 0
M  V30 2238 C 218.938 2.11093 0.0172729 0
M  V30 2239 O 218.286 2.03808 1.03318 0
M  V30 2240 C 218.496 2.41942 -2.51526 0
M  V30 2241 C 219.844 3.06353 -2.93995 0
M  V30 2242 O 220.868 2.52269 -2.51473 0
M  V30 2243 O 219.727 4.04376 -3.67617 0
M  V30 2244 H 216.821 0.635277 -0.529483 0
M  V30 2245 H 219.367 0.695034 -1.54814 0
M  V30 2246 H 218.139 1.89991 -3.42081 0
M  V30 2247 H 217.762 3.22249 -2.32898 0
M  V30 2248 N 218.759 1.29093 0.90403 0
M  V30 2249 C 219.669 1.15727 2.0407 0
M  V30 2250 C 220.685 0.0815308 1.73809 0
M  V30 2251 O 221.861 0.292749 1.99261 0
M  V30 2252 C 218.926 0.830424 3.36608 0
M  V30 2253 C 217.987 1.98955 3.80415 0
M  V30 2254 C 217.22 1.6782 5.06628 0
M  V30 2255 O 217.443 0.597105 5.67266 0
M  V30 2256 O 216.377 2.52486 5.46383 0
M  V30 2257 H 220.203 2.11171 2.18267 0
M  V30 2258 H 217.788 1.08504 1.027 0
M  V30 2259 H 219.67 0.662521 4.16159 0
M  V30 2260 H 218.345 -0.0942678 3.23563 0
M  V30 2261 H 217.252 2.21267 3.01648 0
M  V30 2262 H 218.585 2.89529 3.98037 0
M  V30 2263 N 220.237 -1.11381 1.11499 0
M  V30 2264 C 221.2 -2.15622 0.777153 0
M  V30 2265 C 222.2 -1.59504 -0.203779 0
M  V30 2266 O 223.39 -1.74188 0.020782 0
M  V30 2267 C 220.522 -3.40556 0.153116 0
M  V30 2268 H 221.715 -2.47021 1.70061 0
M  V30 2269 H 219.268 -1.26577 0.916952 0
M  V30 2270 H 220.003 -3.14767 -0.780536 0
M  V30 2271 H 219.788 -3.8257 0.859238 0
M  V30 2272 H 221.278 -4.17546 -0.0671044 0
M  V30 2273 N 221.715 -0.905404 -1.28997 0
M  V30 2274 C 222.647 -0.344748 -2.26592 0
M  V30 2275 C 223.66 0.512135 -1.54535 0
M  V30 2276 O 224.849 0.328368 -1.75454 0
M  V30 2277 C 221.949 0.526587 -3.34784 0
M  V30 2278 C 221.122 -0.305871 -4.36329 0
M  V30 2279 C 220.181 0.499209 -5.23827 0
M  V30 2280 O 219.207 -0.0853004 -5.69136 0
M  V30 2281 N 220.409 1.80408 -5.51755 0
M  V30 2282 H 223.174 -1.18359 -2.75338 0
M  V30 2283 H 220.735 -0.770481 -1.42391 0
M  V30 2284 H 222.727 1.07171 -3.90252 0
M  V30 2285 H 221.297 1.26613 -2.85811 0
M  V30 2286 H 220.517 -1.0324 -3.80441 0
M  V30 2287 H 221.805 -0.875773 -5.01206 0
M  V30 2288 H 221.203 2.3016 -5.16762 0
M  V30 2289 H 219.76 2.29621 -6.10014 0
M  V30 2290 N 223.193 1.4272 -0.668489 0
M  V30 2291 C 224.156 2.292 0.00448567 0
M  V30 2292 C 225.156 1.43001 0.735339 0
M  V30 2293 O 226.346 1.64461 0.57429 0
M  V30 2294 C 223.478 3.25375 1.01705 0
M  V30 2295 H 224.671 2.90199 -0.756608 0
M  V30 2296 H 222.224 1.50254 -0.430506 0
M  V30 2297 H 222.959 2.69301 1.80686 0
M  V30 2298 H 222.744 3.88944 0.496463 0
M  V30 2299 H 224.234 3.90245 1.48655 0
M  V30 2300 N 224.671 0.411399 1.52136 0
M  V30 2301 C 225.619 -0.427633 2.28635 0
M  V30 2302 C 226.613 -1.04383 1.33419 0
M  V30 2303 O 227.819 -0.981772 1.50868 0
M  V30 2304 H 224.194 -0.156689 0.735495 0
M  V30 2305 H 226.165 0.238761 2.97443 0
M  V30 2306 C 224.914 -1.53082 3.12188 0
M  V30 2307 H 224.237 -1.06601 3.85326 0
M  V30 2308 H 225.677 -2.09167 3.68816 0
M  V30 2309 C 224.136 -2.49946 2.25895 0
M  V30 2310 O 224.666 -3.53884 1.90076 0
M  V30 2311 N 222.872 -2.2021 1.8962 0
M  V30 2312 H 222.419 -1.35719 2.18948 0
M  V30 2313 H 222.377 -2.85266 1.32176 0
M  V30 2314 N 226.149 -1.5696 0.141893 0
M  V30 2315 C 227.112 -2.15316 -0.785587 0
M  V30 2316 C 228.112 -1.09366 -1.1788 0
M  V30 2317 O 229.302 -1.35031 -1.10056 0
M  V30 2318 C 226.434 -2.71211 -2.06537 0
M  V30 2319 H 227.627 -2.98608 -0.278041 0
M  V30 2320 H 225.18 -1.5593 -0.107519 0
M  V30 2321 H 225.915 -1.91571 -2.6167 0
M  V30 2322 H 225.7 -3.4872 -1.79268 0
M  V30 2323 H 227.19 -3.16189 -2.72789 0
M  V30 2324 N 227.627 0.131896 -1.57047 0
M  V30 2325 C 228.574 1.16236 -1.99393 0
M  V30 2326 C 229.544 1.41863 -0.863943 0
M  V30 2327 O 230.729 1.53946 -1.12718 0
M  V30 2328 C 227.869 2.48708 -2.39245 0
M  V30 2329 C 226.982 2.30127 -3.65603 0
M  V30 2330 C 226.117 3.55738 -3.94492 0
M  V30 2331 C 225.156 3.32259 -5.14073 0
M  V30 2332 N 224.293 4.50039 -5.38896 0
M  V30 2333 H 229.133 0.794251 -2.87221 0
M  V30 2334 H 226.67 0.380707 -1.42088 0
M  V30 2335 H 228.628 3.25969 -2.60384 0
M  V30 2336 H 227.258 2.83437 -1.54478 0
M  V30 2337 H 226.31 1.43845 -3.52154 0
M  V30 2338 H 227.622 2.08746 -4.5302 0
M  V30 2339 H 226.776 4.41423 -4.1621 0
M  V30 2340 H 225.515 3.80138 -3.05526 0
M  V30 2341 H 224.52 2.44963 -4.92212 0
M  V30 2342 H 225.745 3.09242 -6.04604 0
M  V30 2343 H 223.691 4.74584 -4.52886 0
M  V30 2344 H 223.608 4.31716 -6.2061 0
M  V30 2345 H 224.876 5.36895 -5.65123 0
M  V30 2346 N 229.106 1.52395 0.401703 0
M  V30 2347 C 230.346 1.68498 1.15705 0
M  V30 2348 C 230.71 0.409748 1.87577 0
M  V30 2349 O 231.911 0.446983 2.65058 0
M  V30 2350 C 230.182 2.87789 2.11924 0
M  V30 2351 S 231.741 3.24415 2.95466 0
M  V30 2352 H 228.559 0.593267 0.391862 0
M  V30 2353 H 231.161 1.90408 0.443282 0
M  V30 2354 H 229.865 3.7884 1.57824 0
M  V30 2355 H 229.396 2.68175 2.87829 0
M  V30 2356 H 231.411 2.73614 4.13944 0
M  V30 2357 N 230.584 -0.659388 1.43143 0
M  V30 2358 C 231.995 -1.24041 1.39537 0
M  V30 2359 C 232.346 -1.95963 0.0963364 0
M  V30 2360 O 231.471 -2.00892 -0.804438 0
M  V30 2361 C 232.066 -2.25601 2.52764 0
M  V30 2362 C 230.625 -2.79195 2.52443 0
M  V30 2363 C 229.772 -1.53743 2.30778 0
M  V30 2364 H 232.723 -0.451792 1.52133 0
M  V30 2365 H 232.744 -3.07651 2.23899 0
M  V30 2366 H 232.256 -1.73226 3.47296 0
M  V30 2367 H 230.357 -3.35649 1.61773 0
M  V30 2368 H 230.47 -3.2716 3.50004 0
M  V30 2369 H 228.834 -1.80869 1.79328 0
M  V30 2370 H 229.617 -1.03312 3.27386 0
M  V30 2371 N 232.062 -1.29571 -0.897171 0
M  V30 2372 C 233.308 -1.17863 -1.65034 0
M  V30 2373 C 233.641 0.268729 -1.92332 0
M  V30 2374 O 232.916 1.19378 -1.53555 0
M  V30 2375 C 233.199 -1.995 -2.99786 0
M  V30 2376 C 233.052 -3.5239 -2.79538 0
M  V30 2377 C 234.371 -1.82335 -4.00552 0
M  V30 2378 H 231.49 -0.429528 -0.598895 0
M  V30 2379 H 234.132 -1.59072 -1.03905 0
M  V30 2380 H 232.282 -1.64485 -3.51962 0
M  V30 2381 H 233.954 -3.97401 -2.34244 0
M  V30 2382 H 232.197 -3.77187 -2.14273 0
M  V30 2383 H 232.868 -4.04787 -3.75302 0
M  V30 2384 H 235.344 -2.12924 -3.57495 0
M  V30 2385 H 234.22 -2.41801 -4.92771 0
M  V30 2386 H 234.481 -0.779209 -4.35179 0
M  V30 2387 N 233.54 1.10788 -1.12088 0
M  V30 2388 C 234.47 2.19083 -0.807755 0
M  V30 2389 C 235.451 1.6858 0.226859 0
M  V30 2390 O 236.636 1.93997 0.0888475 0
M  V30 2391 C 233.766 3.46344 -0.257576 0
M  V30 2392 C 232.72 4.101 -1.22483 0
M  V30 2393 C 232.046 5.32016 -0.535052 0
M  V30 2394 C 233.346 4.54236 -2.57811 0
M  V30 2395 H 235.04 2.45534 -1.71328 0
M  V30 2396 H 232.586 1.1801 -0.825205 0
M  V30 2397 H 234.539 4.21392 -0.0262679 0
M  V30 2398 H 233.263 3.19373 0.683278 0
M  V30 2399 H 231.922 3.37054 -1.44189 0
M  V30 2400 H 231.57 5.01319 0.410827 0
M  V30 2401 H 231.27 5.75625 -1.18024 0
M  V30 2402 H 232.794 6.09799 -0.312695 0
M  V30 2403 H 234.208 5.20575 -2.40155 0
M  V30 2404 H 232.605 5.08682 -3.18375 0
M  V30 2405 H 233.675 3.6734 -3.16528 0
M  V30 2406 N 235.018 0.912232 1.28515 0
M  V30 2407 C 235.966 0.389597 2.29314 0
M  V30 2408 C 236.96 -0.517915 1.61289 0
M  V30 2409 O 238.166 -0.399328 1.75515 0
M  V30 2410 H 234.541 0.107386 0.744293 0
M  V30 2411 H 236.512 1.25286 2.70825 0
M  V30 2412 C 235.261 -0.356496 3.45868 0
M  V30 2413 H 234.584 0.332608 3.98414 0
M  V30 2414 H 236.024 -0.686851 4.184 0
M  V30 2415 C 234.483 -1.56383 2.98406 0
M  V30 2416 O 235.013 -2.66294 3.00749 0
M  V30 2417 N 233.219 -1.41029 2.54085 0
M  V30 2418 H 232.766 -0.516089 2.52377 0
M  V30 2419 H 232.724 -2.21939 2.22689 0
M  V30 2420 N 236.496 -1.42363 0.676048 0
M  V30 2421 C 237.426 -2.33497 0.0124832 0
M  V30 2422 C 238.407 -1.50748 -0.787981 0
M  V30 2423 O 239.592 -1.79346 -0.744884 0
M  V30 2424 C 236.722 -3.34377 -0.938582 0
M  V30 2425 C 235.676 -4.27289 -0.246622 0
M  V30 2426 C 235.002 -5.18386 -1.31071 0
M  V30 2427 C 236.302 -5.14916 0.875125 0
M  V30 2428 H 237.996 -2.89233 0.773593 0
M  V30 2429 H 235.542 -1.39073 0.37346 0
M  V30 2430 H 237.495 -3.97044 -1.41188 0
M  V30 2431 H 236.219 -2.76947 -1.73113 0
M  V30 2432 H 234.878 -3.66018 0.206456 0
M  V30 2433 H 234.526 -4.57282 -2.09528 0
M  V30 2434 H 234.226 -5.81378 -0.852839 0
M  V30 2435 H 235.75 -5.83929 -1.78492 0
M  V30 2436 H 237.164 -5.71262 0.482983 0
M  V30 2437 H 235.561 -5.86747 1.25887 0
M  V30 2438 H 236.631 -4.53242 1.72335 0
M  V30 2439 N 237.974 -0.419461 -1.51915 0
M  V30 2440 C 239.223 0.154346 -2.01109 0
M  V30 2441 C 239.536 1.45338 -1.30905 0
M  V30 2442 O 240.742 2.10906 -1.7097 0
M  V30 2443 C 239.198 0.325615 -3.58424 0
M  V30 2444 C 238.806 -0.961934 -4.37551 0
M  V30 2445 C 240.55 0.854155 -4.15818 0
M  V30 2446 C 238.457 -0.757287 -5.86531 0
M  V30 2447 H 237.387 0.0614563 -0.751491 0
M  V30 2448 H 240.038 -0.54649 -1.75173 0
M  V30 2449 H 238.42 1.08903 -3.80731 0
M  V30 2450 H 239.594 -1.7323 -4.26999 0
M  V30 2451 H 237.909 -1.41766 -3.91524 0
M  V30 2452 H 240.506 1.02346 -5.24814 0
M  V30 2453 H 240.849 1.83172 -3.73837 0
M  V30 2454 H 241.382 0.149528 -3.97519 0
M  V30 2455 H 238.121 -1.70671 -6.32892 0
M  V30 2456 H 237.641 -0.0264061 -5.99794 0
M  V30 2457 H 239.32 -0.403482 -6.45741 0
M  V30 2458 N 239.452 1.56882 -0.150215 0
M  V30 2459 C 240.362 2.20494 0.801222 0
M  V30 2460 C 241.378 1.19019 1.26927 0
M  V30 2461 O 242.554 1.51607 1.32579 0
M  V30 2462 C 239.619 2.81659 2.02161 0
M  V30 2463 C 238.68 3.9827 1.60249 0
M  V30 2464 C 237.913 4.56508 2.7647 0
M  V30 2465 O 238.136 4.13627 3.92771 0
M  V30 2466 O 237.07 5.46719 2.51757 0
M  V30 2467 H 240.896 3.02315 0.289717 0
M  V30 2468 H 238.481 1.49202 0.0769684 0
M  V30 2469 H 240.363 3.20522 2.73576 0
M  V30 2470 H 239.038 2.02849 2.52258 0
M  V30 2471 H 237.945 3.64117 0.858477 0
M  V30 2472 H 239.278 4.78609 1.14864 0
M  V30 2473 N 240.93 -0.123565 1.57115 0
M  V30 2474 C 241.862 -1.17739 1.96648 0
M  V30 2475 C 242.875 -1.37906 0.865201 0
M  V30 2476 O 244.064 -1.37062 1.14351 0
M  V30 2477 C 241.164 -2.53821 2.24562 0
M  V30 2478 C 240.337 -2.54317 3.55867 0
M  V30 2479 C 239.396 -3.72112 3.72047 0
M  V30 2480 O 238.422 -3.55907 4.44206 0
M  V30 2481 N 239.624 -4.90498 3.10471 0
M  V30 2482 H 242.389 -0.841147 2.87654 0
M  V30 2483 H 239.95 -0.31289 1.58848 0
M  V30 2484 H 241.942 -3.31175 2.32606 0
M  V30 2485 H 240.512 -2.79645 1.39705 0
M  V30 2486 H 239.732 -1.62711 3.59053 0
M  V30 2487 H 241.02 -2.51701 4.42181 0
M  V30 2488 H 240.418 -5.06567 2.51806 0
M  V30 2489 H 238.975 -5.65544 3.24043 0
M  V30 2490 N 242.408 -1.52605 -0.393616 0
M  V30 2491 C 243.819 -1.59417 -0.971761 0
M  V30 2492 C 244.17 -0.444173 -1.91106 0
M  V30 2493 O 243.295 0.433382 -2.12016 0
M  V30 2494 C 243.89 -2.88936 -1.76921 0
M  V30 2495 C 242.449 -2.98175 -2.29714 0
M  V30 2496 C 241.596 -2.54491 -1.10135 0
M  V30 2497 H 244.547 -1.57751 -0.173317 0
M  V30 2498 H 244.568 -2.75163 -2.62804 0
M  V30 2499 H 244.08 -3.72616 -1.08532 0
M  V30 2500 H 242.181 -2.19024 -3.01429 0
M  V30 2501 H 242.294 -4.02726 -2.59517 0
M  V30 2502 H 240.658 -2.08702 -1.45999 0
M  V30 2503 H 241.441 -3.4056 -0.432874 0
M  V30 2504 N 243.887 0.651787 -1.4349 0
M  V30 2505 C 244.819 1.77725 -1.44729 0
M  V30 2506 C 245.832 1.59141 -0.343231 0
M  V30 2507 O 247.021 1.67835 -0.607751 0
M  V30 2508 C 244.121 3.15172 -1.24579 0
M  V30 2509 C 243.294 3.60402 -2.47849 0
M  V30 2510 C 242.353 4.76656 -2.22902 0
M  V30 2511 O 241.379 4.86022 -2.96263 0
M  V30 2512 N 242.581 5.66958 -1.24656 0
M  V30 2513 H 245.346 1.77141 -2.41746 0
M  V30 2514 H 242.907 0.835678 -1.38665 0
M  V30 2515 H 244.899 3.90634 -1.0577 0
M  V30 2516 H 243.469 3.1052 -0.360015 0
M  V30 2517 H 242.689 2.75369 -2.82073 0
M  V30 2518 H 243.977 3.87368 -3.29884 0
M  V30 2519 H 243.375 5.62065 -0.640265 0
M  V30 2520 H 241.932 6.42135 -1.1183 0
M  V30 2521 N 245.365 1.30045 0.890287 0
M  V30 2522 C 246.781 1.08261 1.17268 0
M  V30 2523 C 246.981 -0.160063 2.00863 0
M  V30 2524 O 246.037 -0.855181 2.37577 0
M  V30 2525 C 247.35 2.34323 1.8845 0
M  V30 2526 C 248.898 2.39735 2.01237 0
M  V30 2527 C 249.373 3.65625 2.7583 0
M  V30 2528 N 250.864 3.66402 2.83379 0
M  V30 2529 C 251.599 4.60498 3.41657 0
M  V30 2530 N 251.095 5.64933 4.01026 0
M  V30 2531 N 252.888 4.48051 3.39421 0
M  V30 2532 H 245.039 2.09777 0.332762 0
M  V30 2533 H 247.302 0.92446 0.209948 0
M  V30 2534 H 247.008 3.2498 1.34465 0
M  V30 2535 H 246.882 2.4256 2.88867 0
M  V30 2536 H 249.269 1.4956 2.54393 0
M  V30 2537 H 249.35 2.35476 0.999232 0
M  V30 2538 H 248.994 4.56156 2.23347 0
M  V30 2539 H 248.924 3.67144 3.77509 0
M  V30 2540 H 251.415 2.90896 2.41222 0
M  V30 2541 H 251.728 6.32841 4.43545 0
M  V30 2542 H 250.073 5.68732 3.99461 0
M  V30 2543 H 253.264 3.65649 2.92264 0
M  V30 2544 H 253.437 5.21565 3.84544 0
M  V30 2545 N 246.843 -1.10192 1.12674 0
M  V30 2546 C 248.259 -1.34235 0.863317 0
M  V30 2547 C 248.459 -1.95062 -0.505277 0
M  V30 2548 O 247.515 -2.19192 -1.25345 0
M  V30 2549 C 248.828 -2.2616 1.98172 0
M  V30 2550 C 250.376 -2.3969 2.0129 0
M  V30 2551 C 250.851 -3.34946 3.1237 0
M  V30 2552 N 252.342 -3.42515 3.11829 0
M  V30 2553 C 253.077 -4.16199 3.94419 0
M  V30 2554 N 252.573 -4.92747 4.87004 0
M  V30 2555 N 254.366 -4.11843 3.82547 0
M  V30 2556 H 246.517 -0.690798 2.00853 0
M  V30 2557 H 248.78 -0.366774 0.874174 0
M  V30 2558 H 248.486 -1.8868 2.96804 0
M  V30 2559 H 248.36 -3.26488 1.88906 0
M  V30 2560 H 250.747 -2.76438 1.03276 0
M  V30 2561 H 250.828 -1.39169 2.14629 0
M  V30 2562 H 250.472 -2.98923 4.10619 0
M  V30 2563 H 250.402 -4.35353 2.96269 0
M  V30 2564 H 252.893 -2.87926 2.44759 0
M  V30 2565 H 253.206 -5.46376 5.46528 0
M  V30 2566 H 251.551 -4.91862 4.91016 0
M  V30 2567 H 254.742 -3.51136 3.0955 0
M  V30 2568 H 254.915 -4.69007 4.47142 0
M  V30 2569 N 248.321 -0.919034 -1.28029 0
M  V30 2570 C 249.231 -0.416756 -2.30869 0
M  V30 2571 C 250.247 0.498235 -1.66714 0
M  V30 2572 O 251.423 0.383144 -1.97722 0
M  V30 2573 C 248.488 0.330274 -3.45123 0
M  V30 2574 C 247.549 -0.618578 -4.2482 0
M  V30 2575 C 246.782 0.0928959 -5.33619 0
M  V30 2576 O 247.005 1.31375 -5.55065 0
M  V30 2577 O 245.939 -0.574499 -5.99152 0
M  V30 2578 H 249.765 -1.27043 -2.75851 0
M  V30 2579 H 247.35 -0.684052 -1.3282 0
M  V30 2580 H 249.232 0.751972 -4.14636 0
M  V30 2581 H 247.907 1.1597 -3.02213 0
M  V30 2582 H 246.814 -1.08978 -3.57875 0
M  V30 2583 H 248.147 -1.41497 -4.71423 0
M  V30 2584 N 249.799 1.42003 -0.683588 0
M  V30 2585 C 251.027 2.05746 -0.218182 0
M  V30 2586 C 251.442 1.51396 1.12804 0
M  V30 2587 O 250.799 0.657303 1.70252 0
M  V30 2588 C 250.85 3.61171 -0.154131 0
M  V30 2589 O 250.571 4.13508 -1.44716 0
M  V30 2590 C 252.072 4.42042 0.333713 0
M  V30 2591 H 249.292 0.662888 -0.10402 0
M  V30 2592 H 251.836 1.81987 -0.9328 0
M  V30 2593 H 249.991 3.84012 0.511231 0
M  V30 2594 H 250.405 5.07453 -1.32632 0
M  V30 2595 H 251.879 5.51028 0.327423 0
M  V30 2596 H 252.356 4.17269 1.37053 0
M  V30 2597 H 252.962 4.24239 -0.300222 0
M  V30 2598 N 251.277 0.427512 1.51691 0
M  V30 2599 C 252.207 -0.3796 2.30394 0
M  V30 2600 C 253.188 -1.02982 1.35384 0
M  V30 2601 O 254.373 -1.03534 1.643 0
M  V30 2602 C 251.503 -1.48649 3.1388 0
M  V30 2603 C 250.457 -0.960294 4.17088 0
M  V30 2604 C 249.783 -2.16219 4.89033 0
M  V30 2605 C 251.083 -0.00153679 5.223 0
M  V30 2606 H 252.777 0.277164 2.98114 0
M  V30 2607 H 250.323 0.134739 1.43368 0
M  V30 2608 H 252.276 -2.05826 3.67714 0
M  V30 2609 H 251 -2.1714 2.43962 0
M  V30 2610 H 249.659 -0.410806 3.64291 0
M  V30 2611 H 249.307 -2.83307 4.15628 0
M  V30 2612 H 249.007 -1.81654 5.58816 0
M  V30 2613 H 250.531 -2.73968 5.45687 0
M  V30 2614 H 251.945 -0.482687 5.71264 0
M  V30 2615 H 250.342 0.256199 5.99553 0
M  V30 2616 H 251.412 0.938174 4.75738 0
M  V30 2617 N 252.755 -1.56801 0.158532 0
M  V30 2618 C 254.004 -1.95665 -0.489702 0
M  V30 2619 C 254.317 -1.04654 -1.65248 0
M  V30 2620 O 255.523 -1.33146 -2.3661 0
M  V30 2621 C 253.979 -3.47874 -0.922582 0
M  V30 2622 C 253.587 -4.47489 0.213893 0
M  V30 2623 C 255.331 -3.95583 -1.53996 0
M  V30 2624 C 253.238 -5.90921 -0.237903 0
M  V30 2625 H 252.168 -0.730516 -0.186716 0
M  V30 2626 H 254.819 -1.81861 0.244722 0
M  V30 2627 H 253.201 -3.57051 -1.71261 0
M  V30 2628 H 254.375 -4.50017 0.991036 0
M  V30 2629 H 252.69 -4.09764 0.740407 0
M  V30 2630 H 255.287 -5.0019 -1.8898 0
M  V30 2631 H 255.63 -3.37789 -2.43319 0
M  V30 2632 H 256.163 -3.8937 -0.814611 0
M  V30 2633 H 252.902 -6.52559 0.620236 0
M  V30 2634 H 252.422 -5.91729 -0.980676 0
M  V30 2635 H 254.101 -6.43352 -0.686067 0
M  V30 2636 N 254.233 0.115231 -1.57178 0
M  V30 2637 C 255.196 1.12526 -1.99676 0
M  V30 2638 C 256.196 1.34095 -0.88742 0
M  V30 2639 O 257.386 1.30548 -1.15337 0
M  V30 2640 C 254.518 2.4789 -2.34015 0
M  V30 2641 H 255.711 0.759912 -2.90113 0
M  V30 2642 H 253.264 0.359648 -1.52106 0
M  V30 2643 H 253.999 2.89339 -1.4647 0
M  V30 2644 H 253.784 2.33588 -3.14927 0
M  V30 2645 H 255.274 3.20575 -2.67622 0
M  V30 2646 N 255.711 1.52812 0.385517 0
M  V30 2647 C 256.658 1.77838 1.47113 0
M  V30 2648 C 257.628 0.621757 1.54024 0
M  V30 2649 O 258.813 0.861846 1.70226 0
M  V30 2650 C 255.953 1.95618 2.84302 0
M  V30 2651 C 255.066 3.23316 2.86515 0
M  V30 2652 C 254.201 3.31394 4.15152 0
M  V30 2653 C 253.24 4.53201 4.1143 0
M  V30 2654 N 252.377 4.58542 5.3168 0
M  V30 2655 H 257.217 2.70482 1.25073 0
M  V30 2656 H 254.754 1.34006 0.606692 0
M  V30 2657 H 256.712 2.03912 3.63972 0
M  V30 2658 H 255.342 1.06331 3.04784 0
M  V30 2659 H 254.394 3.24076 1.99195 0
M  V30 2660 H 255.706 4.13045 2.79634 0
M  V30 2661 H 254.86 3.3889 5.03228 0
M  V30 2662 H 253.599 2.39645 4.24761 0
M  V30 2663 H 252.604 4.45827 3.21742 0
M  V30 2664 H 253.829 5.46271 4.03442 0
M  V30 2665 H 251.775 3.69686 5.41912 0
M  V30 2666 H 251.692 5.42148 5.26889 0
M  V30 2667 H 252.96 4.70296 6.21644 0
M  V30 2668 N 257.189 -0.644168 1.43834 0
M  V30 2669 C 258.605 -0.960875 1.27434 0
M  V30 2670 C 258.805 -2.00499 0.200618 0
M  V30 2671 O 257.861 -2.49018 -0.417906 0
M  V30 2672 C 259.174 -1.43653 2.64167 0
M  V30 2673 C 260.722 -1.55271 2.71772 0
M  V30 2674 C 261.197 -2.06224 4.08944 0
M  V30 2675 N 262.688 -2.13513 4.11055 0
M  V30 2676 C 263.423 -2.54081 5.14033 0
M  V30 2677 N 262.919 -2.9388 6.27381 0
M  V30 2678 N 264.712 -2.54101 5.01387 0
M  V30 2679 H 256.863 0.0465779 2.12349 0
M  V30 2680 H 259.126 -0.0417638 0.94708 0
M  V30 2681 H 258.832 -0.743706 3.43747 0
M  V30 2682 H 258.706 -2.40993 2.90176 0
M  V30 2683 H 261.093 -2.23653 1.92519 0
M  V30 2684 H 261.174 -0.563395 2.49519 0
M  V30 2685 H 260.818 -1.38441 4.88668 0
M  V30 2686 H 260.748 -3.06003 4.28567 0
M  V30 2687 H 263.239 -1.85493 3.29242 0
M  V30 2688 H 263.552 -3.2361 7.01781 0
M  V30 2689 H 261.897 -2.91663 6.30839 0
M  V30 2690 H 265.088 -2.22391 4.11898 0
M  V30 2691 H 265.261 -2.85394 5.81768 0
M  V30 2692 N 258.668 -1.30515 -0.883378 0
M  V30 2693 C 259.908 -1.20716 -1.64946 0
M  V30 2694 C 260.272 0.234072 -1.90568 0
M  V30 2695 O 261.473 0.455335 -2.64915 0
M  V30 2696 C 259.744 -2.01444 -2.9522 0
M  V30 2697 S 261.303 -2.0836 -3.86175 0
M  V30 2698 H 258.121 -0.430165 -0.566109 0
M  V30 2699 H 260.723 -1.65011 -1.04841 0
M  V30 2700 H 259.427 -3.05268 -2.74298 0
M  V30 2701 H 258.958 -1.57817 -3.60357 0
M  V30 2702 H 260.973 -1.21215 -4.81167 0
M  V30 2703 N 260.146 1.09593 -1.13257 0
M  V30 2704 C 261.056 2.19739 -0.821691 0
M  V30 2705 C 262.072 1.72926 0.19302 0
M  V30 2706 O 263.248 2.01385 0.0244895 0
M  V30 2707 C 260.313 3.45482 -0.290333 0
M  V30 2708 C 259.374 4.06985 -1.36607 0
M  V30 2709 C 258.607 5.26726 -0.859975 0
M  V30 2710 O 258.83 5.69594 0.303082 0
M  V30 2711 O 257.764 5.7931 -1.63351 0
M  V30 2712 H 261.59 2.48781 -1.74189 0
M  V30 2713 H 259.175 1.18496 -0.909894 0
M  V30 2714 H 261.057 4.214 0.000674022 0
M  V30 2715 H 259.732 3.18047 0.602306 0
M  V30 2716 H 258.639 3.32712 -1.71037 0
M  V30 2717 H 259.972 4.38643 -2.23279 0
M  V30 2718 N 261.624 0.925811 1.2754 0
M  V30 2719 C 262.87 0.566092 1.94739 0
M  V30 2720 C 263.203 -0.890057 1.72603 0
M  V30 2721 O 262.478 -1.63467 1.05399 0
M  V30 2722 C 262.761 0.89054 3.48915 0
M  V30 2723 C 262.614 2.4003 3.80402 0
M  V30 2724 C 263.933 0.395101 4.38323 0
M  V30 2725 H 261.052 0.20714 0.707292 0
M  V30 2726 H 263.694 1.15725 1.50691 0
M  V30 2727 H 261.844 0.387452 3.86563 0
M  V30 2728 H 263.516 2.97494 3.52555 0
M  V30 2729 H 261.759 2.85028 3.2702 0
M  V30 2730 H 262.43 2.57785 4.8811 0
M  V30 2731 H 264.906 0.826241 4.07814 0
M  V30 2732 H 263.782 0.651086 5.45025 0
M  V30 2733 H 264.043 -0.704798 4.36446 0
M  V30 2734 N 263.102 -1.41638 0.69111 0
M  V30 2735 C 264.379 -1.95036 0.148421 0
M  V30 2736 C 264.759 -1.63072 -1.34055 0
M  V30 2737 O 264.107 -0.93538 -2.08478 0
M  V30 2738 C 264.317 -3.46279 0.434951 0
M  V30 2739 C 265.665 -4.23069 0.360275 0
M  V30 2740 O 266.689 -3.54277 0.369613 0
M  V30 2741 O 265.548 -5.45583 0.316534 0
M  V30 2742 H 262.642 -0.826908 0.0123654 0
M  V30 2743 H 265.188 -1.5138 0.766963 0
M  V30 2744 H 263.96 -3.6281 1.46576 0
M  V30 2745 H 263.583 -3.97019 -0.214787 0
M  V30 2746 N 264.58 -0.43555 -1.51462 0
M  V30 2747 C 265.828 0.131254 -2.01673 0
M  V30 2748 C 266.149 1.43368 -1.32177 0
M  V30 2749 O 265.419 1.90524 -0.455769 0
M  V30 2750 H 263.999 0.0514954 -0.745223 0
M  V30 2751 H 266.661 -0.577847 -1.86137 0
M  V30 2752 H 265.757 0.308446 -3.10572 0
M  V30 2753 N 266.058 1.56714 -0.166846 0
M  V30 2754 C 267.005 2.17746 0.765193 0
M  V30 2755 C 267.975 1.11614 1.23011 0
M  V30 2756 O 269.16 1.39745 1.29908 0
M  V30 2757 C 266.3 2.81882 1.9909 0
M  V30 2758 C 265.413 4.02462 1.56997 0
M  V30 2759 C 264.548 4.54537 2.749 0
M  V30 2760 C 263.587 5.67538 2.29275 0
M  V30 2761 N 262.724 6.14142 3.40255 0
M  V30 2762 H 267.564 2.97048 0.237952 0
M  V30 2763 H 265.101 1.4672 0.105725 0
M  V30 2764 H 267.059 3.17221 2.70974 0
M  V30 2765 H 265.689 2.05191 2.49192 0
M  V30 2766 H 264.741 3.72973 0.748037 0
M  V30 2767 H 266.053 4.84273 1.19503 0
M  V30 2768 H 265.207 4.92035 3.54946 0
M  V30 2769 H 263.946 3.71774 3.1565 0
M  V30 2770 H 262.951 5.29597 1.47674 0
M  V30 2771 H 264.176 6.52099 1.89588 0
M  V30 2772 H 262.122 5.3431 3.8059 0
M  V30 2773 H 262.039 6.9093 3.06841 0
M  V30 2774 H 263.307 6.56289 4.206 0
M  V30 2775 N 267.536 -0.106894 1.57237 0
M  V30 2776 C 268.764 -0.826389 1.8968 0
M  V30 2777 C 269.179 -1.72856 0.759353 0
M  V30 2778 O 268.536 -1.80503 -0.269263 0
M  V30 2779 C 268.587 -1.64967 3.21665 0
M  V30 2780 O 268.308 -0.783804 4.31031 0
M  V30 2781 C 269.809 -2.47326 3.67892 0
M  V30 2782 H 267.029 -0.236927 0.627779 0
M  V30 2783 H 269.573 -0.0876593 2.04312 0
M  V30 2784 H 267.728 -2.34103 3.08666 0
M  V30 2785 H 268.142 -1.35284 5.06753 0
M  V30 2786 H 269.616 -3.00604 4.6297 0
M  V30 2787 H 270.093 -3.25247 2.95146 0
M  V30 2788 H 270.699 -1.83411 3.83719 0
M  V30 2789 N 269.014 -1.53014 -0.377408 0
M  V30 2790 C 269.977 -1.77957 -1.44444 0
M  V30 2791 C 270.977 -0.649763 -1.47087 0
M  V30 2792 O 272.167 -0.917897 -1.48055 0
M  V30 2793 C 269.299 -1.89089 -2.83651 0
M  V30 2794 H 270.492 -2.73243 -1.23606 0
M  V30 2795 H 268.045 -1.43912 -0.609844 0
M  V30 2796 H 268.78 -0.958293 -3.09818 0
M  V30 2797 H 268.565 -2.71254 -2.83132 0
M  V30 2798 H 270.055 -2.1002 -3.60945 0
M  V30 2799 N 270.492 0.636531 -1.44174 0
M  V30 2800 C 271.722 1.42146 -1.49927 0
M  V30 2801 C 272.13 1.88812 -0.121063 0
M  V30 2802 O 271.473 1.61126 0.882267 0
M  V30 2803 C 271.535 2.67883 -2.39748 0
M  V30 2804 C 271.199 2.43048 -3.8701 0
M  V30 2805 C 272.196 2.05216 -4.77684 0
M  V30 2806 C 269.881 2.56856 -4.3166 0
M  V30 2807 C 271.875 1.81512 -6.11009 0
M  V30 2808 C 269.562 2.32766 -5.65034 0
M  V30 2809 C 270.56 1.95152 -6.54526 0
M  V30 2810 O 270.248 1.71326 -7.85431 0
M  V30 2811 H 269.98 0.442567 -0.51099 0
M  V30 2812 H 272.534 0.786158 -1.8976 0
M  V30 2813 H 270.764 3.34032 -1.94832 0
M  V30 2814 H 272.453 3.29874 -2.36513 0
M  V30 2815 H 273.219 1.94111 -4.44462 0
M  V30 2816 H 269.098 2.85104 -3.62266 0
M  V30 2817 H 272.642 1.52077 -6.80822 0
M  V30 2818 H 268.539 2.43479 -5.97819 0
M  V30 2819 H 269.307 1.85616 -7.97176 0
M  V30 2820 N 271.97 1.30982 0.876444 0
M  V30 2821 C 273.386 1.09498 1.16113 0
M  V30 2822 C 273.586 -0.13875 2.01022 0
M  V30 2823 O 272.642 -0.829935 2.38471 0
M  V30 2824 C 273.955 2.36308 1.85954 0
M  V30 2825 C 275.503 2.41856 1.98683 0
M  V30 2826 C 275.978 3.6853 2.71937 0
M  V30 2827 N 277.469 3.69387 2.79477 0
M  V30 2828 C 278.204 4.64096 3.36753 0
M  V30 2829 N 277.7 5.69155 3.95012 0
M  V30 2830 N 279.493 4.51626 3.3465 0
M  V30 2831 H 271.644 2.10118 0.310494 0
M  V30 2832 H 273.907 0.926634 0.200131 0
M  V30 2833 H 273.613 3.26388 1.31011 0
M  V30 2834 H 273.487 2.4561 2.86278 0
M  V30 2835 H 275.874 1.52249 2.52793 0
M  V30 2836 H 275.955 2.36523 0.9742 0
M  V30 2837 H 275.599 4.58499 2.18496 0
M  V30 2838 H 275.529 3.71127 3.73593 0
M  V30 2839 H 278.02 2.93438 2.38123 0
M  V30 2840 H 278.333 6.3751 4.36808 0
M  V30 2841 H 276.678 5.72937 3.93406 0
M  V30 2842 H 279.869 3.68728 2.8837 0
M  V30 2843 H 280.042 5.25614 3.7899 0
M  V30 2844 N 273.449 -1.08991 1.13837 0
M  V30 2845 C 274.696 -1.81258 0.902882 0
M  V30 2846 C 275.024 -1.85936 -0.570803 0
M  V30 2847 O 274.279 -1.3267 -1.43865 0
M  V30 2848 C 274.578 -3.27042 1.44147 0
M  V30 2849 C 274.244 -3.4249 2.93276 0
M  V30 2850 C 272.906 -3.46414 3.33992 0
M  V30 2851 C 275.258 -3.4666 3.892 0
M  V30 2852 C 272.586 -3.52091 4.69307 0
M  V30 2853 C 274.938 -3.53872 5.24364 0
M  V30 2854 C 273.602 -3.56066 5.646 0
M  V30 2855 H 272.872 -0.663268 0.330388 0
M  V30 2856 H 275.519 -1.28368 1.42105 0
M  V30 2857 H 273.824 -3.82599 0.844097 0
M  V30 2858 H 275.521 -3.81499 1.23528 0
M  V30 2859 H 272.111 -3.40124 2.60794 0
M  V30 2860 H 276.295 -3.42865 3.58828 0
M  V30 2861 H 271.551 -3.52079 4.9985 0
M  V30 2862 H 275.725 -3.56043 5.98503 0
M  V30 2863 H 273.352 -3.60218 6.69438 0
M  V30 2864 N 274.927 -0.932562 -1.27047 0
M  V30 2865 C 276.204 -0.49377 -1.89265 0
M  V30 2866 C 276.584 1.02833 -1.8436 0
M  V30 2867 O 275.932 1.88461 -1.29209 0
M  V30 2868 C 276.142 -1.04536 -3.32976 0
M  V30 2869 C 277.49 -1.10879 -4.09867 0
M  V30 2870 O 278.514 -0.995327 -3.42011 0
M  V30 2871 O 277.373 -1.28417 -5.31198 0
M  V30 2872 H 274.467 -0.159596 -0.811454 0
M  V30 2873 H 277.013 -1.02457 -1.3528 0
M  V30 2874 H 275.785 -2.08913 -3.30864 0
M  V30 2875 H 275.408 -0.496494 -3.94488 0
M  V30 2876 N 276.405 1.4127 -0.698611 0
M  V30 2877 C 277.654 2.00408 -0.227949 0
M  V30 2878 C 277.967 1.55981 1.18023 0
M  V30 2879 O 279.173 2.07699 1.74852 0
M  V30 2880 C 277.629 3.58129 -0.356636 0
M  V30 2881 C 277.237 4.11536 -1.77037 0
M  V30 2882 C 278.981 4.24466 0.0540969 0
M  V30 2883 C 276.888 5.61701 -1.85055 0
M  V30 2884 H 275.818 0.749586 -0.0814657 0
M  V30 2885 H 278.469 1.61713 -0.867249 0
M  V30 2886 H 276.851 3.94442 0.350965 0
M  V30 2887 H 278.025 3.86636 -2.50698 0
M  V30 2888 H 276.34 3.57736 -2.13105 0
M  V30 2889 H 278.937 5.34698 0.0146723 0
M  V30 2890 H 279.28 4.01687 1.09332 0
M  V30 2891 H 279.813 3.93198 -0.603337 0
M  V30 2892 H 276.552 5.89312 -2.8704 0
M  V30 2893 H 276.072 5.88519 -1.15783 0
M  V30 2894 H 277.751 6.26524 -1.61484 0
M  V30 2895 N 277.883 0.443576 1.51229 0
M  V30 2896 C 279.299 0.0962001 1.5931 0
M  V30 2897 C 279.499 -1.39501 1.45402 0
M  V30 2898 O 278.555 -2.16557 1.29843 0
M  V30 2899 C 279.868 0.621875 2.94199 0
M  V30 2900 C 281.416 0.582865 3.07525 0
M  V30 2901 C 281.891 1.08562 4.44948 0
M  V30 2902 N 283.382 1.04387 4.51284 0
M  V30 2903 C 284.117 1.40368 5.55954 0
M  V30 2904 N 283.613 1.83664 6.68011 0
M  V30 2905 N 285.406 1.32145 5.46346 0
M  V30 2906 H 277.557 1.41376 1.58514 0
M  V30 2907 H 279.82 0.582965 0.747567 0
M  V30 2908 H 279.526 1.66546 3.09767 0
M  V30 2909 H 279.4 0.0502125 3.77167 0
M  V30 2910 H 281.787 -0.451749 2.91622 0
M  V30 2911 H 281.868 1.191 2.26382 0
M  V30 2912 H 281.512 2.11873 4.61598 0
M  V30 2913 H 281.442 0.453956 5.2464 0
M  V30 2914 H 283.933 0.725986 3.70861 0
M  V30 2915 H 284.246 2.0934 7.43906 0
M  V30 2916 H 282.591 1.87596 6.69203 0
M  V30 2917 H 285.782 0.981808 4.57688 0
M  V30 2918 H 285.955 1.60514 6.27805 0
M  V30 2919 N 279.361 -1.56624 0.175154 0
M  V30 2920 C 280.61 -1.96173 -0.468921 0
M  V30 2921 C 280.923 -1.06401 -1.64128 0
M  V30 2922 O 282.129 -1.35648 -2.35185 0
M  V30 2923 C 280.585 -3.48833 -0.885633 0
M  V30 2924 C 280.193 -4.47237 0.261343 0
M  V30 2925 C 281.937 -3.97194 -1.49791 0
M  V30 2926 C 279.844 -5.9114 -0.175214 0
M  V30 2927 H 278.774 -0.732455 -0.178958 0
M  V30 2928 H 281.425 -1.81591 0.263997 0
M  V30 2929 H 279.807 -3.58848 -1.67464 0
M  V30 2930 H 280.981 -4.4894 1.03871 0
M  V30 2931 H 279.296 -4.08956 0.783827 0
M  V30 2932 H 281.893 -5.02167 -1.83665 0
M  V30 2933 H 282.236 -3.40351 -2.39722 0
M  V30 2934 H 282.769 -3.90212 -0.773267 0
M  V30 2935 H 279.508 -6.51865 0.689414 0
M  V30 2936 H 279.028 -5.92735 -0.91786 0
M  V30 2937 H 280.707 -6.44044 -0.617792 0
M  V30 2938 N 280.839 0.0985539 -1.57292 0
M  V30 2939 C 281.771 1.14595 -1.98496 0
M  V30 2940 C 282.784 1.36512 -0.887031 0
M  V30 2941 O 283.973 1.35225 -1.16518 0
M  V30 2942 C 281.073 2.50216 -2.28572 0
M  V30 2943 C 280.246 2.48624 -3.59868 0
M  V30 2944 C 279.305 3.66146 -3.7792 0
M  V30 2945 O 278.331 3.48795 -4.49812 0
M  V30 2946 N 279.533 4.85496 -3.18235 0
M  V30 2947 H 282.298 0.795277 -2.88956 0
M  V30 2948 H 279.859 0.287579 -1.59325 0
M  V30 2949 H 281.851 3.27432 -2.37845 0
M  V30 2950 H 280.421 2.77387 -1.44136 0
M  V30 2951 H 279.641 1.56978 -3.61596 0
M  V30 2952 H 280.929 2.44635 -4.46129 0
M  V30 2953 H 280.327 5.02497 -2.59833 0
M  V30 2954 H 278.884 5.60317 -3.32999 0
M  V30 2955 N 282.317 1.53212 0.369288 0
M  V30 2956 C 283.565 1.68881 1.11012 0
M  V30 2957 C 283.886 0.441285 1.89941 0
M  V30 2958 O 283.156 -0.544623 1.88177 0
M  V30 2959 H 281.736 0.622569 0.412816 0
M  V30 2960 H 284.398 1.90391 0.416802 0
M  V30 2961 H 283.494 2.54822 1.80201 0
M  V30 2962 N 283.795 -0.628877 1.44509 0
M  V30 2963 C 284.705 -1.7694 1.54044 0
M  V30 2964 C 285.721 -1.68705 0.425987 0
M  V30 2965 O 286.897 -1.89442 0.683656 0
M  V30 2966 C 283.962 -3.13332 1.48405 0
M  V30 2967 C 283.023 -3.33181 2.70719 0
M  V30 2968 C 282.256 -4.63067 2.6534 0
M  V30 2969 O 282.479 -5.44017 1.71469 0
M  V30 2970 O 281.413 -4.85167 3.56226 0
M  V30 2971 H 285.239 -1.71848 2.50403 0
M  V30 2972 H 282.824 -0.790378 1.26781 0
M  V30 2973 H 284.706 -3.94634 1.47791 0
M  V30 2974 H 283.381 -3.1896 0.551898 0
M  V30 2975 H 282.288 -2.51549 2.769 0
M  V30 2976 H 283.621 -3.32416 3.62988 0
M  V30 2977 N 285.273 -1.31445 -0.869486 0
M  V30 2978 C 286.521 -1.20918 -1.61936 0
M  V30 2979 C 286.842 0.232683 -1.93607 0
M  V30 2980 O 286.112 1.15352 -1.58338 0
M  V30 2981 H 284.692 -0.44454 -0.600328 0
M  V30 2982 H 287.354 -1.64776 -1.0409 0
M  V30 2983 H 286.45 -1.78124 -2.56278 0
M  V30 2984 N 286.751 1.08385 -1.14413 0
M  V30 2985 C 287.661 2.18856 -0.844951 0
M  V30 2986 C 288.677 1.73121 0.174668 0
M  V30 2987 O 289.853 2.014 0.00312857 0
M  V30 2988 C 286.918 3.45155 -0.32696 0
M  V30 2989 C 285.979 4.05513 -1.40916 0
M  V30 2990 C 285.212 5.25784 -0.915793 0
M  V30 2991 O 285.435 5.69884 0.242651 0
M  V30 2992 O 284.369 5.77545 -1.69487 0
M  V30 2993 H 288.195 2.46919 -1.76818 0
M  V30 2994 H 285.78 1.17524 -0.922411 0
M  V30 2995 H 287.662 4.21377 -0.0440211 0
M  V30 2996 H 286.337 3.18668 0.568539 0
M  V30 2997 H 285.244 3.30879 -1.74556 0
M  V30 2998 H 286.577 4.3625 -2.27919 0
M  V30 2999 N 288.23 0.939286 1.26551 0
M  V30 3000 C 289.458 0.602536 1.97932 0
M  V30 3001 C 289.873 -0.82206 1.69964 0
M  V30 3002 O 289.23 -1.54789 0.966784 0
M  V30 3003 C 289.281 0.832946 3.51773 0
M  V30 3004 O 289.002 2.20151 3.78768 0
M  V30 3005 C 290.503 0.506483 4.40397 0
M  V30 3006 H 287.723 0.227248 0.631347 0
M  V30 3007 H 290.267 1.25948 1.61113 0
M  V30 3008 H 288.422 0.222644 3.8676 0
M  V30 3009 H 288.836 2.26013 4.73306 0
M  V30 3010 H 290.31 0.718333 5.47306 0
M  V30 3011 H 290.787 -0.558451 4.35635 0
M  V30 3012 H 291.393 1.09543 4.10951 0
M  V30 3013 N 289.708 -1.40897 0.706093 0
M  V30 3014 C 290.954 -2.01352 0.241889 0
M  V30 3015 C 291.287 -1.55832 -1.15888 0
M  V30 3016 O 290.562 -0.774145 -1.7843 0
M  V30 3017 C 290.845 -3.58752 0.311311 0
M  V30 3018 C 290.698 -4.1437 1.74978 0
M  V30 3019 C 292.017 -4.38914 -0.322922 0
M  V30 3020 H 289.136 -0.731562 0.0893687 0
M  V30 3021 H 291.778 -1.67504 0.896802 0
M  V30 3022 H 289.928 -3.87718 -0.246302 0
M  V30 3023 H 291.6 -3.96239 2.36205 0
M  V30 3024 H 289.843 -3.69016 2.28057 0
M  V30 3025 H 290.514 -5.23532 1.74981 0
M  V30 3026 H 292.99 -4.15822 0.152089 0
M  V30 3027 H 291.866 -5.48358 -0.243855 0
M  V30 3028 H 292.127 -4.19176 -1.40513 0
M  V30 3029 N 291.186 -0.45159 -1.50991 0
M  V30 3030 C 292.433 0.110074 -2.02201 0
M  V30 3031 C 292.761 1.4146 -1.33489 0
M  V30 3032 O 292.016 1.90617 -0.443125 0
M  V30 3033 C 292.315 0.361728 -3.55565 0
M  V30 3034 C 291.981 -0.858717 -4.42648 0
M  V30 3035 C 290.643 -1.19338 -4.66167 0
M  V30 3036 C 292.995 -1.67221 -4.93646 0
M  V30 3037 C 290.323 -2.34195 -5.37931 0
M  V30 3038 C 292.675 -2.8119 -5.6667 0
M  V30 3039 C 291.339 -3.15094 -5.88449 0
M  V30 3040 H 290.609 0.040279 -0.739904 0
M  V30 3041 H 293.256 -0.601696 -1.81802 0
M  V30 3042 H 291.561 1.15554 -3.74372 0
M  V30 3043 H 293.258 0.80996 -3.92735 0
M  V30 3044 H 289.848 -0.58796 -4.24548 0
M  V30 3045 H 294.032 -1.42686 -4.75347 0
M  V30 3046 H 289.288 -2.6076 -5.53005 0
M  V30 3047 H 293.462 -3.44585 -6.05173 0
M  V30 3048 H 291.089 -4.04204 -6.43835 0
M  V30 3049 N 292.664 1.56529 -0.183458 0
M  V30 3050 C 293.911 1.97244 0.458357 0
M  V30 3051 C 294.239 1.06992 1.62428 0
M  V30 3052 O 293.494 0.106542 1.9541 0
M  V30 3053 C 293.793 3.43939 0.971637 0
M  V30 3054 C 293.459 4.5083 -0.0796784 0
M  V30 3055 C 292.121 4.79786 -0.368584 0
M  V30 3056 C 294.473 5.15138 -0.792638 0
M  V30 3057 C 291.801 5.70345 -1.37563 0
M  V30 3058 C 294.153 6.06784 -1.78875 0
M  V30 3059 C 292.817 6.34102 -2.08497 0
M  V30 3060 H 292.087 0.721768 0.167725 0
M  V30 3061 H 294.734 1.89472 -0.277976 0
M  V30 3062 H 293.039 3.48724 1.78602 0
M  V30 3063 H 294.736 3.72791 1.47744 0
M  V30 3064 H 291.326 4.28317 0.155668 0
M  V30 3065 H 295.51 4.92868 -0.582659 0
M  V30 3066 H 290.766 5.89789 -1.61118 0
M  V30 3067 H 294.94 6.55677 -2.3465 0
M  V30 3068 H 292.567 7.04074 -2.86678 0
M  V30 3069 N 294.142 -0.090211 1.57342 0
M  V30 3070 C 295.419 -0.824761 1.77361 0
M  V30 3071 C 295.799 -1.96698 0.76637 0
M  V30 3072 O 295.147 -2.27586 -0.204179 0
M  V30 3073 C 295.357 -1.31481 3.23286 0
M  V30 3074 C 296.705 -1.75563 3.86604 0
M  V30 3075 O 297.729 -1.41093 3.27065 0
M  V30 3076 O 296.588 -2.39317 4.91314 0
M  V30 3077 H 293.682 -0.393776 0.727234 0
M  V30 3078 H 296.228 -0.0717138 1.69548 0
M  V30 3079 H 295 -0.496671 3.88135 0
M  V30 3080 H 294.623 -2.12973 3.35751 0
M  V30 3081 N 295.62 -1.53406 -0.361157 0
M  V30 3082 C 296.867 -1.69802 -1.10333 0
M  V30 3083 C 297.195 -0.452087 -1.89173 0
M  V30 3084 O 296.45 0.566017 -1.87336 0
M  V30 3085 C 296.749 -2.90211 -2.08596 0
M  V30 3086 C 296.415 -4.26539 -1.46203 0
M  V30 3087 C 295.077 -4.6361 -1.28915 0
M  V30 3088 C 297.429 -5.113 -1.01101 0
M  V30 3089 C 294.757 -5.83075 -0.651157 0
M  V30 3090 C 297.109 -6.31415 -0.387007 0
M  V30 3091 C 295.773 -6.67195 -0.201657 0
M  V30 3092 H 295.043 -0.621351 -0.403737 0
M  V30 3093 H 297.69 -1.87598 -0.384609 0
M  V30 3094 H 295.995 -2.66946 -2.86788 0
M  V30 3095 H 297.692 -3.00091 -2.65982 0
M  V30 3096 H 294.282 -3.97352 -1.60653 0
M  V30 3097 H 298.466 -4.83206 -1.13249 0
M  V30 3098 H 293.722 -6.09385 -0.496006 0
M  V30 3099 H 297.896 -6.96394 -0.0293563 0
M  V30 3100 H 295.523 -7.59628 0.294766 0
M  V30 3101 O 297.137 0.507134 -1.53331 0
M  V30 3102 H 297.828 1.16207 -1.5497 0
M  V30 END ATOM
M  V30 BEGIN BOND
M  V30 END BOND
M  V30 END CTAB
M  END
$$$$
