drugbank_target|P00414 Cytochrome c oxidase subunit 3 (DB02659; DB04464)
 OpenBabel12092120443D

  0  0  0     0  0            999 V3000
M  V30 BEGIN CTAB
M  V30 COUNTS 4185 4272 0 0 0
M  V30 BEGIN ATOM
M  V30 1 H -0.908 1.98254 -0.117106 0
M  V30 2 N 0 1.576 0 0
M  V30 3 C 0.933 2.03868 1.02534 0
M  V30 4 C 1.911 0.928543 1.3348 0
M  V30 5 O 3.095 1.19667 1.45644 0
M  V30 6 C 0.222 2.43627 2.35294 0
M  V30 7 C -0.732 3.65373 2.2001 0
M  V30 8 S 0.101 5.13292 1.52614 0
M  V30 9 C 1.257 5.56322 2.86805 0
M  V30 10 H 1.49 2.90518 0.631377 0
M  V30 11 H -0.977 1.52953 0.210867 0
M  V30 12 H 0.981 2.67203 3.11629 0
M  V30 13 H -0.358 1.57376 2.7183 0
M  V30 14 H -1.165 3.90944 3.18086 0
M  V30 15 H -1.563 3.418 1.51819 0
M  V30 16 H 0.729 5.58782 3.83104 0
M  V30 17 H 1.672 6.56266 2.65933 0
M  V30 18 H 2.08 4.83886 2.90714 0
M  V30 19 N 1.4781 -0.272755 1.55222 0
M  V30 20 C 2.7061 -1.02255 1.79865 0
M  V30 21 C 3.1211 -1.79924 0.572088 0
M  V30 22 O 2.4781 -1.76638 -0.458842 0
M  V30 23 C 2.5291 -1.98094 3.02392 0
M  V30 24 O 2.2501 -1.23572 4.20311 0
M  V30 25 C 3.7511 -2.84884 3.39641 0
M  V30 26 H 0.9711 -0.302057 0.599168 0
M  V30 27 H 3.5151 -0.303465 2.02236 0
M  V30 28 H 1.6701 -2.65465 2.82147 0
M  V30 29 H 2.0841 -1.88172 4.89583 0
M  V30 30 H 3.5581 -3.47927 4.28545 0
M  V30 31 H 4.0351 -3.54665 2.59055 0
M  V30 32 H 4.6411 -2.23003 3.62146 0
M  V30 33 N 2.9562 -1.48159 -0.537278 0
M  V30 34 C 3.9062 -1.5854 -1.63857 0
M  V30 35 C 4.8902 -0.442969 -1.54682 0
M  V30 36 O 6.0822 -0.69401 -1.62827 0
M  V30 37 C 3.2112 -1.62144 -3.02596 0
M  V30 38 C 2.2972 -2.81841 -3.16901 0
M  V30 39 N 2.6882 -4.06337 -3.01204 0
M  V30 40 C 0.9862 -2.79021 -3.47942 0
M  V30 41 C 1.6872 -4.86606 -3.18731 0
M  V30 42 N 0.6632 -4.19288 -3.45974 0
M  V30 43 H 4.4652 -2.5255 -1.50319 0
M  V30 44 H 1.9792 -1.4443 -0.742555 0
M  V30 45 H 3.9762 -1.67674 -3.81695 0
M  V30 46 H 2.6362 -0.69245 -3.17231 0
M  V30 47 H 3.6472 -4.36888 -2.78117 0
M  V30 48 H 0.3242 -1.95347 -3.6898 0
M  V30 49 H 1.7142 -5.95385 -3.11394 0
M  V30 50 N 4.4343 0.785586 -1.36625 0
M  V30 51 C 5.3663 1.90711 -1.2713 0
M  V30 52 C 6.3793 1.61688 -0.189986 0
M  V30 53 O 7.5683 1.72864 -0.445014 0
M  V30 54 C 4.6683 3.25611 -0.939713 0
M  V30 55 C 3.8413 3.82385 -2.12369 0
M  V30 56 C 2.9003 4.95732 -1.76456 0
M  V30 57 O 1.9263 5.12047 -2.48589 0
M  V30 58 N 3.1283 5.76258 -0.700492 0
M  V30 59 H 5.8933 1.99376 -2.23762 0
M  V30 60 H 3.4543 0.964041 -1.30069 0
M  V30 61 H 5.4463 3.98937 -0.680554 0
M  V30 62 H 4.0163 3.12538 -0.0624074 0
M  V30 63 H 3.2363 3.01001 -2.54543 0
M  V30 64 H 4.5243 4.17047 -2.9146 0
M  V30 65 H 3.9223 5.65609 -0.101624 0
M  V30 66 H 2.4793 6.4987 -0.501165 0
M  V30 67 N 5.9124 1.20967 1.01018 0
M  V30 68 C 7.1374 1.0503 1.78839 0
M  V30 69 C 7.5624 -0.395752 1.8389 0
M  V30 70 O 6.9204 -1.28529 1.27867 0
M  V30 71 C 6.9684 1.64602 3.2084 0
M  V30 72 O 6.0724 0.887988 4.02726 0
M  V30 73 H 5.4134 0.369987 0.551367 0
M  V30 74 H 7.9434 1.60399 1.27018 0
M  V30 75 H 7.9534 1.68607 3.71532 0
M  V30 76 H 6.6284 2.69841 3.16479 0
M  V30 77 H 5.2054 0.922648 3.61305 0
M  V30 78 N 7.3905 -1.2043 1.01659 0
M  V30 79 C 8.3405 -2.21076 0.557623 0
M  V30 80 C 9.3245 -1.56176 -0.387029 0
M  V30 81 O 10.5165 -1.7575 -0.209996 0
M  V30 82 C 7.6455 -3.43146 -0.102707 0
M  V30 83 C 6.7315 -4.15213 0.863652 0
M  V30 84 N 7.1225 -4.63662 2.02117 0
M  V30 85 C 5.4205 -4.40716 0.684472 0
M  V30 86 C 6.1215 -5.18868 2.62966 0
M  V30 87 N 5.0975 -5.0893 1.91027 0
M  V30 88 H 8.8995 -2.56201 1.44008 0
M  V30 89 H 6.4135 -1.36366 0.881931 0
M  V30 90 H 8.4105 -4.14475 -0.449054 0
M  V30 91 H 7.0705 -3.09526 -0.981003 0
M  V30 92 H 8.0815 -4.58877 2.40109 0
M  V30 93 H 4.7585 -4.17245 -0.14577 0
M  V30 94 H 6.1485 -5.6673 3.60924 0
M  V30 95 N 8.8686 -0.792821 -1.36206 0
M  V30 96 C 9.8316 -0.199459 -2.2833 0
M  V30 97 C 10.8316 0.605189 -1.48977 0
M  V30 98 O 12.0216 0.425685 -1.68919 0
M  V30 99 C 9.1536 0.723523 -3.33134 0
M  V30 100 H 10.3466 -1.01181 -2.82316 0
M  V30 101 H 7.8996 -0.562485 -1.45828 0
M  V30 102 H 8.6346 1.56008 -2.84309 0
M  V30 103 H 8.4196 0.148436 -3.91819 0
M  V30 104 H 9.9096 1.13344 -4.01924 0
M  V30 105 N 10.3467 1.47872 -0.545128 0
M  V30 106 C 11.5767 2.06589 -0.0210534 0
M  V30 107 C 11.9847 1.39997 1.27269 0
M  V30 108 O 11.3277 0.486421 1.77143 0
M  V30 109 C 11.3897 3.58574 0.257933 0
M  V30 110 C 11.0537 4.47132 -0.944573 0
M  V30 111 C 12.0507 4.85986 -1.84699 0
M  V30 112 C 9.7357 4.88821 -1.15584 0
M  V30 113 C 11.7297 5.65314 -2.94446 0
M  V30 114 C 9.4167 5.67916 -2.25642 0
M  V30 115 C 10.4147 6.06073 -3.14905 0
M  V30 116 O 10.1027 6.83578 -4.23057 0
M  V30 117 H 9.8347 0.674971 -0.0372899 0
M  V30 118 H 12.3887 1.91037 -0.754599 0
M  V30 119 H 10.6187 3.72295 1.04564 0
M  V30 120 H 12.3077 3.99356 0.72592 0
M  V30 121 H 13.0737 4.54388 -1.69577 0
M  V30 122 H 8.9527 4.58595 -0.470279 0
M  V30 123 H 12.4967 5.95016 -3.64145 0
M  V30 124 H 8.3937 5.98927 -2.40742 0
M  V30 125 H 9.1617 7.01954 -4.20954 0
M  V30 126 N 11.8248 0.280983 1.55075 0
M  V30 127 C 12.7748 -0.618585 2.19448 0
M  V30 128 C 13.7588 -1.11401 1.16098 0
M  V30 129 O 14.9508 -1.0581 1.41891 0
M  V30 130 C 12.0798 -1.79951 2.92357 0
M  V30 131 C 11.1658 -1.321 4.03002 0
M  V30 132 N 11.5568 -0.559044 5.02701 0
M  V30 133 C 9.8548 -1.60346 4.16179 0
M  V30 134 C 10.5558 -0.306722 5.80891 0
M  V30 135 N 9.5318 -0.880825 5.36416 0
M  V30 136 H 13.3338 -0.0286638 2.93886 0
M  V30 137 H 10.8478 0.0848104 1.62178 0
M  V30 138 H 12.8448 -2.45531 3.36927 0
M  V30 139 H 11.5048 -2.39333 2.19431 0
M  V30 140 H 12.5158 -0.205827 5.17491 0
M  V30 141 H 9.1928 -2.20621 3.54447 0
M  V30 142 H 10.5828 0.30391 6.71212 0
M  V30 143 N 13.3029 -1.57598 0.00835791 0
M  V30 144 C 14.2359 -2.04409 -1.01451 0
M  V30 145 C 15.2139 -0.935609 -1.32985 0
M  V30 146 O 16.3979 -1.20437 -1.45007 0
M  V30 147 C 13.5249 -2.44872 -2.33999 0
M  V30 148 C 12.5709 -3.66535 -2.18069 0
M  V30 149 S 13.4039 -5.14095 -1.4989 0
M  V30 150 C 14.5599 -5.57835 -2.8385 0
M  V30 151 H 14.7929 -2.90849 -0.615961 0
M  V30 152 H 12.3259 -1.53063 -0.202752 0
M  V30 153 H 14.2839 -2.68852 -3.10208 0
M  V30 154 H 12.9449 -1.58815 -2.70992 0
M  V30 155 H 12.1379 -3.92626 -3.16008 0
M  V30 156 H 11.7399 -3.426 -1.50004 0
M  V30 157 H 14.0319 -5.60806 -3.80136 0
M  V30 158 H 14.9749 -6.57667 -2.62449 0
M  V30 159 H 15.3829 -4.85421 -2.88144 0
M  V30 160 N 14.781 0.264519 -1.55364 0
M  V30 161 C 16.027 0.99646 -1.76631 0
M  V30 162 C 16.36 1.85632 -0.570478 0
M  V30 163 O 15.635 1.89647 0.43175 0
M  V30 164 C 15.918 1.87187 -3.07625 0
M  V30 165 C 15.771 1.04138 -4.37579 0
M  V30 166 C 17.09 2.85749 -3.34717 0
M  V30 167 H 14.209 0.360841 -0.642622 0
M  V30 168 H 16.851 0.268218 -1.88097 0
M  V30 169 H 15.001 2.49279 -2.9798 0
M  V30 170 H 16.673 0.440517 -4.59192 0
M  V30 171 H 14.916 0.345115 -4.32425 0
M  V30 172 H 15.587 1.68729 -5.2558 0
M  V30 173 H 18.063 2.33793 -3.4421 0
M  V30 174 H 16.939 3.44136 -4.27623 0
M  V30 175 H 17.2 3.61311 -2.54768 0
M  V30 176 N 16.2591 1.48442 0.529413 0
M  V30 177 C 17.2061 1.63007 1.63394 0
M  V30 178 C 18.1761 0.47212 1.59249 0
M  V30 179 O 19.3611 0.695673 1.77666 0
M  V30 180 C 16.5011 1.6763 3.01653 0
M  V30 181 C 15.6141 2.94535 3.16027 0
M  V30 182 C 14.7491 2.90316 4.44849 0
M  V30 183 C 13.7881 4.11923 4.52754 0
M  V30 184 N 12.9251 4.05777 5.72965 0
M  V30 185 H 17.7651 2.5733 1.50285 0
M  V30 186 H 15.3021 1.27613 0.731656 0
M  V30 187 H 17.2601 1.68292 3.81751 0
M  V30 188 H 15.8901 0.76797 3.13532 0
M  V30 189 H 14.9421 3.03615 2.29177 0
M  V30 190 H 16.2541 3.84512 3.17729 0
M  V30 191 H 15.4081 2.89382 5.33238 0
M  V30 192 H 14.1471 1.98068 4.45668 0
M  V30 193 H 13.1521 4.13131 3.62771 0
M  V30 194 H 14.3771 5.0533 4.53672 0
M  V30 195 H 12.3231 3.16351 5.74681 0
M  V30 196 H 12.2401 4.8946 5.76164 0
M  V30 197 H 13.5081 4.08904 6.6364 0
M  V30 198 N 17.7372 -0.778329 1.37039 0
M  V30 199 C 19.1482 -1.35421 1.28523 0
M  V30 200 C 19.4992 -1.96075 -0.0700901 0
M  V30 201 O 18.6242 -1.93352 -0.971801 0
M  V30 202 C 19.2192 -2.46211 2.32735 0
M  V30 203 C 17.7782 -2.99585 2.27873 0
M  V30 204 C 16.9252 -1.72748 2.16918 0
M  V30 205 H 19.8762 -0.5791 1.47757 0
M  V30 206 H 19.8972 -3.2552 1.9702 0
M  V30 207 H 19.4092 -2.02036 3.31365 0
M  V30 208 H 17.5102 -3.48152 1.32745 0
M  V30 209 H 17.6232 -3.55646 3.21018 0
M  V30 210 H 15.9872 -1.95416 1.63354 0
M  V30 211 H 16.7702 -1.30686 3.17452 0
M  V30 212 N 19.2153 -1.21501 -1.00376 0
M  V30 213 C 20.4403 -1.05977 -1.78279 0
M  V30 214 C 20.8653 0.385994 -1.84097 0
M  V30 215 O 20.2233 1.27849 -1.28547 0
M  V30 216 C 20.2713 -1.66302 -3.19963 0
M  V30 217 O 19.3753 -0.909333 -4.0225 0
M  V30 218 H 18.7163 -0.372906 -0.549397 0
M  V30 219 H 21.2463 -1.6107 -1.26165 0
M  V30 220 H 21.2563 -1.70574 -3.70632 0
M  V30 221 H 19.9313 -2.71515 -3.15043 0
M  V30 222 H 18.5083 -0.941795 -3.60811 0
M  V30 223 N 20.6934 1.19889 -1.02296 0
M  V30 224 C 22.1044 1.71124 -0.746568 0
M  V30 225 C 22.4554 1.81939 0.734335 0
M  V30 226 O 21.5804 1.48639 1.57275 0
M  V30 227 C 22.1754 3.10804 -1.34857 0
M  V30 228 C 20.7344 3.59323 -1.1209 0
M  V30 229 C 19.8814 2.3635 -1.45031 0
M  V30 230 H 22.8324 1.04813 -1.19163 0
M  V30 231 H 22.8534 3.73186 -0.742437 0
M  V30 232 H 22.3654 3.029 -2.42638 0
M  V30 233 H 20.4664 3.7255 -0.0610337 0
M  V30 234 H 20.5794 4.4378 -1.80544 0
M  V30 235 H 18.9434 2.39399 -0.869487 0
M  V30 236 H 19.7264 2.31081 -2.53883 0
M  V30 237 N 22.1715 0.800033 1.35784 0
M  V30 238 C 23.4175 0.38701 1.99684 0
M  V30 239 C 23.7725 -1.03268 1.62338 0
M  V30 240 O 23.0655 -1.70543 0.87325 0
M  V30 241 C 23.2595 0.500276 3.53881 0
M  V30 242 C 23.0885 1.92942 4.06206 0
M  V30 243 C 21.8585 2.55637 4.35865 0
M  V30 244 C 24.0565 2.89307 4.25213 0
M  V30 245 N 22.0385 3.9003 4.74078 0
M  V30 246 C 23.4095 4.08556 4.66349 0
M  V30 247 C 25.4645 2.86225 4.07406 0
M  V30 248 C 24.1675 5.25146 4.91543 0
M  V30 249 C 26.1935 4.02011 4.33752 0
M  V30 250 C 25.5555 5.20007 4.75155 0
M  V30 251 H 21.6545 0.189252 0.758754 0
M  V30 252 H 24.2385 1.03988 1.64604 0
M  V30 253 H 22.4095 -0.122568 3.88207 0
M  V30 254 H 24.1415 0.0624733 4.04652 0
M  V30 255 H 20.8965 2.07039 4.25948 0
M  V30 256 H 21.3205 4.59205 4.97454 0
M  V30 257 H 25.9625 1.96154 3.74544 0
M  V30 258 H 23.6805 6.15794 5.23281 0
M  V30 259 H 27.2665 4.00999 4.21534 0
M  V30 260 H 26.1465 6.08113 4.95145 0
M  V30 261 N 23.6496 -1.47581 0.552962 0
M  V30 262 C 25.0606 -1.86324 0.118463 0
M  V30 263 C 25.4116 -1.46006 -1.3106 0
M  V30 264 O 24.5366 -0.861182 -1.98526 0
M  V30 265 C 25.1316 -3.3816 0.20821 0
M  V30 266 C 23.6906 -3.7601 -0.171226 0
M  V30 267 C 22.8376 -2.71634 0.557686 0
M  V30 268 H 25.7886 -1.39159 0.762928 0
M  V30 269 H 25.8096 -3.76141 -0.574278 0
M  V30 270 H 25.3216 -3.67473 1.24841 0
M  V30 271 H 23.4226 -3.52313 -1.21269 0
M  V30 272 H 23.5356 -4.78745 0.184379 0
M  V30 273 H 21.8996 -2.547 0.00125792 0
M  V30 274 H 22.6826 -3.0379 1.59896 0
M  V30 275 N 25.1277 -0.289203 -1.54924 0
M  V30 276 C 26.0577 0.58549 -2.2604 0
M  V30 277 C 27.0387 1.14753 -1.25562 0
M  V30 278 O 28.2237 1.17906 -1.54311 0
M  V30 279 C 25.3537 1.76305 -2.99222 0
M  V30 280 C 24.3077 1.33191 -4.06748 0
M  V30 281 C 23.6337 2.5937 -4.6758 0
M  V30 282 C 24.9337 0.471775 -5.20165 0
M  V30 283 H 26.6277 -0.00763532 -2.99399 0
M  V30 284 H 24.1737 -0.00511229 -1.43999 0
M  V30 285 H 26.1267 2.38097 -3.47689 0
M  V30 286 H 24.8507 2.38223 -2.23422 0
M  V30 287 H 23.5097 0.737121 -3.59113 0
M  V30 288 H 23.1577 3.19576 -3.88433 0
M  V30 289 H 22.8577 2.31228 -5.40192 0
M  V30 290 H 24.3817 3.21985 -5.18804 0
M  V30 291 H 25.7957 0.995056 -5.64599 0
M  V30 292 H 24.1927 0.284639 -5.99425 0
M  V30 293 H 25.2627 -0.506041 -4.82252 0
M  V30 294 N 26.6058 1.57591 -0.0167156 0
M  V30 295 C 27.8338 1.95575 0.675128 0
M  V30 296 C 28.2488 0.892542 1.6637 0
M  V30 297 O 27.6058 -0.126912 1.82058 0
M  V30 298 C 27.6568 3.33608 1.39239 0
M  V30 299 O 27.3778 4.3585 0.443444 0
M  V30 300 C 28.8788 3.86151 2.17721 0
M  V30 301 H 26.0988 0.644423 0.186978 0
M  V30 302 H 28.6428 2.0437 -0.0728 0
M  V30 303 H 26.7978 3.2607 2.09182 0
M  V30 304 H 27.2118 5.158 0.951358 0
M  V30 305 H 28.6858 4.85114 2.63379 0
M  V30 306 H 29.1628 3.19738 3.01105 0
M  V30 307 H 29.7688 3.96918 1.52761 0
M  V30 308 N 28.0839 -0.256276 1.55502 0
M  V30 309 C 29.3319 -0.983672 1.76545 0
M  V30 310 C 29.6529 -1.86206 0.578982 0
M  V30 311 O 28.9229 -1.91656 -0.405577 0
M  V30 312 H 27.5029 -0.366191 0.651086 0
M  V30 313 H 30.1649 -0.276479 1.92929 0
M  V30 314 H 29.2609 -1.61087 2.67315 0
M  V30 315 N 29.562 -1.4872 -0.521534 0
M  V30 316 C 30.525 -1.63379 -1.60748 0
M  V30 317 C 31.525 -0.50661 -1.52611 0
M  V30 318 O 32.715 -0.772601 -1.5613 0
M  V30 319 C 29.847 -1.61192 -3.00383 0
M  V30 320 H 31.04 -2.60217 -1.49087 0
M  V30 321 H 28.593 -1.37444 -0.744235 0
M  V30 322 H 29.328 -0.65863 -3.17541 0
M  V30 323 H 29.113 -2.43032 -3.07698 0
M  V30 324 H 30.603 -1.7466 -3.7932 0
M  V30 325 N 31.0401 0.771051 -1.3745 0
M  V30 326 C 31.9701 1.89827 -1.3597 0
M  V30 327 C 32.9511 1.68562 -0.228216 0
M  V30 328 O 34.1361 1.8941 -0.428675 0
M  V30 329 C 31.2661 3.2712 -1.16662 0
M  V30 330 C 30.2201 3.6295 -2.2683 0
M  V30 331 C 29.5461 4.98791 -1.92644 0
M  V30 332 C 30.8461 3.69627 -3.69017 0
M  V30 333 H 32.5401 1.91323 -2.30295 0
M  V30 334 H 30.0861 0.919082 -1.10855 0
M  V30 335 H 32.0391 4.05615 -1.14256 0
M  V30 336 H 30.7631 3.26059 -0.187926 0
M  V30 337 H 29.4221 2.86763 -2.28392 0
M  V30 338 H 29.0701 4.94271 -0.933021 0
M  V30 339 H 28.7701 5.23733 -2.66416 0
M  V30 340 H 30.2941 5.79685 -1.91826 0
M  V30 341 H 31.7081 4.38273 -3.69581 0
M  V30 342 H 30.1051 4.06067 -4.41848 0
M  V30 343 H 31.1751 2.70273 -4.02592 0
M  V30 344 N 32.5182 1.22032 0.997298 0
M  V30 345 C 33.7432 1.06921 1.77715 0
M  V30 346 C 34.1682 -0.376226 1.84299 0
M  V30 347 O 33.5262 -1.27165 1.29223 0
M  V30 348 C 33.5742 1.67996 3.19076 0
M  V30 349 O 32.6782 0.930653 4.01762 0
M  V30 350 H 32.0192 0.375814 0.547412 0
M  V30 351 H 34.5492 1.61737 1.25309 0
M  V30 352 H 34.5592 1.72538 3.69723 0
M  V30 353 H 33.2342 2.73182 3.13599 0
M  V30 354 H 31.8112 0.960917 3.60307 0
M  V30 355 N 33.9963 -1.19345 1.0293 0
M  V30 356 C 34.9593 -2.20793 0.615069 0
M  V30 357 C 35.9593 -1.57553 -0.321533 0
M  V30 358 O 37.1493 -1.73862 -0.108483 0
M  V30 359 C 34.2813 -3.40754 -0.0999222 0
M  V30 360 H 35.4743 -2.58955 1.51269 0
M  V30 361 H 33.0273 -1.3303 0.820534 0
M  V30 362 H 33.7623 -3.0811 -1.01187 0
M  V30 363 H 33.5473 -3.87889 0.57309 0
M  V30 364 H 35.0373 -4.15898 -0.376645 0
M  V30 365 N 35.4744 -0.807222 -1.35358 0
M  V30 366 C 36.4044 -0.232509 -2.3234 0
M  V30 367 C 37.3854 0.642386 -1.57504 0
M  V30 368 O 38.5704 0.572526 -1.85569 0
M  V30 369 C 35.7004 0.619238 -3.41735 0
M  V30 370 C 34.6544 -0.157215 -4.27711 0
M  V30 371 C 33.9804 0.816273 -5.28433 0
M  V30 372 C 35.2804 -1.35656 -5.04376 0
M  V30 373 H 36.9744 -1.04276 -2.80654 0
M  V30 374 H 34.5204 -0.50288 -1.34934 0
M  V30 375 H 36.4734 1.03137 -4.08584 0
M  V30 376 H 35.1974 1.46239 -2.92031 0
M  V30 377 H 33.8564 -0.550525 -3.62443 0
M  V30 378 H 33.5044 1.65494 -4.74996 0
M  V30 379 H 33.2044 0.301067 -5.86828 0
M  V30 380 H 34.7284 1.22659 -5.98153 0
M  V30 381 H 36.1424 -1.01927 -5.64166 0
M  V30 382 H 34.5394 -1.8063 -5.7227 0
M  V30 383 H 35.6094 -2.14288 -4.34981 0
M  V30 384 N 36.9525 1.47285 -0.560781 0
M  V30 385 C 37.8825 2.32857 0.173105 0
M  V30 386 C 38.8635 1.44009 0.905281 0
M  V30 387 O 40.0485 1.7286 0.885046 0
M  V30 388 C 37.1785 3.25861 1.20133 0
M  V30 389 C 36.1325 4.23978 0.585388 0
M  V30 390 C 35.4585 5.06332 1.7185 0
M  V30 391 C 36.7585 5.20242 -0.463178 0
M  V30 392 H 38.4525 2.94466 -0.541307 0
M  V30 393 H 35.9985 1.41601 -0.261764 0
M  V30 394 H 37.9515 3.84569 1.72293 0
M  V30 395 H 36.6755 2.62315 1.94573 0
M  V30 396 H 35.3345 3.66501 0.085054 0
M  V30 397 H 34.9825 4.39186 2.45203 0
M  V30 398 H 34.6825 5.72762 1.31213 0
M  V30 399 H 36.2065 5.67899 2.24329 0
M  V30 400 H 37.6205 5.73293 -0.027502 0
M  V30 401 H 36.0175 5.94896 -0.788627 0
M  V30 402 H 37.0875 4.65504 -1.35773 0
M  V30 403 N 38.4306 0.297415 1.54768 0
M  V30 404 C 39.3636 -0.622188 2.19554 0
M  V30 405 C 40.3416 -1.13558 1.16376 0
M  V30 406 O 41.5256 -1.20444 1.45002 0
M  V30 407 C 38.6526 -1.8509 2.83653 0
M  V30 408 C 37.6986 -1.47106 4.00328 0
M  V30 409 S 38.5316 -0.53006 5.3287 0
M  V30 410 C 39.6876 -1.76665 6.0045 0
M  V30 411 H 39.9206 -0.0717806 2.97213 0
M  V30 412 H 37.4536 0.0815678 1.54184 0
M  V30 413 H 39.4116 -2.55605 3.21211 0
M  V30 414 H 38.0726 -2.37247 2.05846 0
M  V30 415 H 37.2656 -2.38594 4.43947 0
M  V30 416 H 36.8676 -0.845885 3.64309 0
M  V30 417 H 39.1596 -2.7077 6.21039 0
M  V30 418 H 40.1026 -1.37308 6.9466 0
M  V30 419 H 40.5106 -1.94174 5.30054 0
M  V30 420 N 39.9087 -1.5758 0.0250728 0
M  V30 421 C 41.1367 -1.9593 -0.664747 0
M  V30 422 C 41.5517 -0.901352 -1.65895 0
M  V30 423 O 40.9087 0.117255 -1.82123 0
M  V30 424 C 40.9597 -3.34342 -1.37468 0
M  V30 425 O 40.6807 -4.36079 -0.420324 0
M  V30 426 C 42.1817 -3.873 -2.1567 0
M  V30 427 H 39.4017 -0.645405 -0.183557 0
M  V30 428 H 41.9457 -2.04329 0.0836372 0
M  V30 429 H 40.1007 -3.27175 -2.0745 0
M  V30 430 H 40.5147 -5.16297 -0.923991 0
M  V30 431 H 41.9887 -4.86504 -2.60803 0
M  V30 432 H 42.4657 -3.21331 -2.99405 0
M  V30 433 H 43.0717 -3.97723 -1.50654 0
M  V30 434 N 41.3868 0.248026 -1.55636 0
M  V30 435 C 42.6118 0.998028 -1.81808 0
M  V30 436 C 43.0368 1.78207 -0.601979 0
M  V30 437 O 42.3948 1.75653 0.448961 0
M  V30 438 C 42.4428 1.9125 -3.05705 0
M  V30 439 O 41.5468 3.00406 -2.82542 0
M  V30 440 H 40.8878 0.284045 -0.600179 0
M  V30 441 H 43.4178 0.269357 -2.02819 0
M  V30 442 H 43.4278 2.32737 -3.35108 0
M  V30 443 H 42.1028 1.33602 -3.93857 0
M  V30 444 H 40.6798 2.63056 -2.64303 0
M  V30 445 N 42.8649 1.48995 0.513639 0
M  V30 446 C 44.1129 1.57531 1.26604 0
M  V30 447 C 44.4339 0.258236 1.93283 0
M  V30 448 O 43.7039 -0.721502 1.8213 0
M  V30 449 H 42.2839 0.580387 0.470276 0
M  V30 450 H 44.9459 1.85552 0.596373 0
M  V30 451 H 44.0419 2.36486 2.03669 0
M  V30 452 N 44.343 -0.763751 1.37857 0
M  V30 453 C 45.273 -1.89103 1.36975 0
M  V30 454 C 46.254 -1.68439 0.237152 0
M  V30 455 O 47.439 -1.8918 0.438713 0
M  V30 456 C 44.569 -3.26496 1.18395 0
M  V30 457 C 43.523 -3.61741 2.28751 0
M  V30 458 C 42.849 -4.97762 1.95286 0
M  V30 459 C 44.149 -3.67665 3.70972 0
M  V30 460 H 45.843 -1.90099 2.31307 0
M  V30 461 H 43.389 -0.91319 1.11341 0
M  V30 462 H 45.342 -4.05003 1.16406 0
M  V30 463 H 44.066 -3.25955 0.205215 0
M  V30 464 H 42.725 -2.85547 2.29909 0
M  V30 465 H 42.373 -4.93769 0.959221 0
M  V30 466 H 42.073 -5.22313 2.69189 0
M  V30 467 H 43.597 -5.7866 1.94898 0
M  V30 468 H 45.011 -4.36307 3.719 0
M  V30 469 H 43.408 -4.03718 4.43995 0
M  V30 470 H 44.478 -2.68134 4.0402 0
M  V30 471 N 45.8211 -1.22559 -0.990812 0
M  V30 472 C 46.7841 -0.998863 -2.0629 0
M  V30 473 C 47.7841 0.0354834 -1.60761 0
M  V30 474 O 48.9741 -0.203231 -1.7301 0
M  V30 475 C 46.1061 -0.509203 -3.37076 0
M  V30 476 H 47.2991 -1.95014 -2.27837 0
M  V30 477 H 44.8521 -1.04456 -1.16269 0
M  V30 478 H 45.5871 0.446335 -3.21214 0
M  V30 479 H 45.3721 -1.25547 -3.71457 0
M  V30 480 H 46.8621 -0.370888 -4.1595 0
M  V30 481 N 47.2992 1.18797 -1.03562 0
M  V30 482 C 48.2322 2.2105 -0.56676 0
M  V30 483 C 49.2102 1.57704 0.395993 0
M  V30 484 O 50.3942 1.85908 0.311498 0
M  V30 485 C 47.5212 3.38259 0.172704 0
M  V30 486 C 46.5672 4.19987 -0.74252 0
M  V30 487 S 47.4002 4.87199 -2.22254 0
M  V30 488 C 48.5562 6.07813 -1.49379 0
M  V30 489 H 48.7892 2.60478 -1.43312 0
M  V30 490 H 46.3222 1.29151 -0.846133 0
M  V30 491 H 48.2802 4.06191 0.593191 0
M  V30 492 H 46.9412 2.97252 1.01488 0
M  V30 493 H 46.1342 5.03709 -0.171265 0
M  V30 494 H 45.7362 3.57408 -1.10163 0
M  V30 495 H 48.0282 6.72948 -0.784056 0
M  V30 496 H 48.9712 6.69435 -2.30786 0
M  V30 497 H 49.3792 5.55781 -0.988331 0
M  V30 498 N 48.7773 0.814389 1.34928 0
M  V30 499 C 50.0233 0.408167 1.99263 0
M  V30 500 C 50.3783 -1.0154 1.63424 0
M  V30 501 O 49.6713 -1.69607 0.891289 0
M  V30 502 C 49.8653 0.537781 3.53331 0
M  V30 503 C 49.6943 1.9724 4.04137 0
M  V30 504 C 48.4643 2.60245 4.33129 0
M  V30 505 C 50.6623 2.93801 4.2212 0
M  V30 506 N 48.6443 3.95036 4.69914 0
M  V30 507 C 50.0153 4.1348 4.6199 0
M  V30 508 C 52.0703 2.9053 4.04348 0
M  V30 509 C 50.7733 5.3033 4.85945 0
M  V30 510 C 52.7993 4.06589 4.29464 0
M  V30 511 C 52.1613 5.25017 4.69613 0
M  V30 512 H 48.2603 0.197289 0.756704 0
M  V30 513 H 50.8443 1.05728 1.63492 0
M  V30 514 H 49.0153 -0.0813868 3.88315 0
M  V30 515 H 50.7473 0.105389 4.04563 0
M  V30 516 H 47.5023 2.11545 4.23728 0
M  V30 517 H 47.9263 4.64455 4.92555 0
M  V30 518 H 52.5683 2.00115 3.72443 0
M  V30 519 H 50.2863 6.21309 5.16721 0
M  V30 520 H 53.8723 4.05447 4.17257 0
M  V30 521 H 52.7523 6.1333 4.88667 0
M  V30 522 N 50.2554 -1.46986 0.568584 0
M  V30 523 C 51.5024 -2.02441 0.0487986 0
M  V30 524 C 51.8304 -1.44169 -1.30559 0
M  V30 525 O 51.0854 -0.591213 -1.86556 0
M  V30 526 C 51.3844 -3.57306 -0.081836 0
M  V30 527 C 51.0504 -4.34552 1.20313 0
M  V30 528 C 49.7124 -4.55376 1.5552 0
M  V30 529 C 52.0644 -4.79016 2.05411 0
M  V30 530 C 49.3924 -5.17913 2.7565 0
M  V30 531 C 51.7444 -5.42879 3.24754 0
M  V30 532 C 50.4084 -5.61933 3.60261 0
M  V30 533 H 49.6784 -0.740785 0.0178567 0
M  V30 534 H 52.3254 -1.76525 0.742384 0
M  V30 535 H 50.6304 -3.8228 -0.858463 0
M  V30 536 H 52.3274 -3.97876 -0.499546 0
M  V30 537 H 48.9174 -4.18631 0.919014 0
M  V30 538 H 53.1014 -4.62696 1.79516 0
M  V30 539 H 48.3574 -5.30858 3.03315 0
M  V30 540 H 52.5314 -5.76293 3.90973 0
M  V30 541 H 50.1584 -6.10161 4.53439 0
M  V30 542 N 51.7335 -0.305618 -1.54608 0
M  V30 543 C 52.6835 0.583595 -2.20405 0
M  V30 544 C 53.6675 1.09539 -1.17856 0
M  V30 545 O 54.8595 1.0354 -1.43557 0
M  V30 546 C 51.9885 1.75277 -2.95183 0
M  V30 547 C 51.0745 1.25672 -4.05052 0
M  V30 548 N 51.4655 0.478998 -5.03527 0
M  V30 549 C 49.7635 1.53704 -4.18678 0
M  V30 550 C 50.4645 0.214269 -5.81305 0
M  V30 551 N 49.4405 0.795374 -5.3775 0
M  V30 552 H 53.2425 -0.0180946 -2.93894 0
M  V30 553 H 50.7565 -0.110601 -1.62023 0
M  V30 554 H 52.7535 2.4014 -3.40791 0
M  V30 555 H 51.4135 2.35812 -2.23211 0
M  V30 556 H 52.4245 0.123473 -5.17753 0
M  V30 557 H 49.1015 2.14954 -3.57912 0
M  V30 558 H 50.4915 -0.410656 -6.70644 0
M  V30 559 N 53.2116 1.57565 -0.0334293 0
M  V30 560 C 54.4586 1.91978 0.644272 0
M  V30 561 C 54.7866 0.910231 1.71887 0
M  V30 562 O 54.0416 -0.0801961 1.95536 0
M  V30 563 C 54.3406 3.33112 1.29504 0
M  V30 564 C 54.0066 4.49537 0.350388 0
M  V30 565 C 52.6686 4.81115 0.0903974 0
M  V30 566 C 55.0206 5.20347 -0.298032 0
M  V30 567 C 52.3486 5.8086 -0.825746 0
M  V30 568 C 54.7006 6.2107 -1.20226 0
M  V30 569 C 53.3646 6.51088 -1.4711 0
M  V30 570 H 52.6346 0.702496 0.235756 0
M  V30 571 H 55.2816 1.91259 -0.0961176 0
M  V30 572 H 53.5866 3.30113 2.11028 0
M  V30 573 H 55.2836 3.57011 1.82603 0
M  V30 574 H 51.8736 4.24883 0.563205 0
M  V30 575 H 56.0576 4.96178 -0.110234 0
M  V30 576 H 51.3136 6.02461 -1.04169 0
M  V30 577 H 55.4876 6.75057 -1.71086 0
M  V30 578 H 53.1146 7.28193 -2.18264 0
M  V30 579 N 54.6897 -0.239769 1.55765 0
M  V30 580 C 55.6397 -1.30002 1.87306 0
M  V30 581 C 56.6237 -1.43156 0.73452 0
M  V30 582 O 57.8157 -1.46277 0.99659 0
M  V30 583 C 54.9447 -2.65409 2.17745 0
M  V30 584 C 54.0307 -2.56231 3.37945 0
M  V30 585 N 54.4217 -2.16689 4.57033 0
M  V30 586 C 52.7197 -2.87229 3.41197 0
M  V30 587 C 53.4207 -2.18318 5.39177 0
M  V30 588 N 52.3967 -2.58098 4.78421 0
M  V30 589 H 56.1987 -0.984912 2.76906 0
M  V30 590 H 53.7127 -0.448381 1.56087 0
M  V30 591 H 55.7097 -3.41934 2.38509 0
M  V30 592 H 54.3697 -2.97781 1.29448 0
M  V30 593 H 55.3807 -1.88116 4.82528 0
M  V30 594 H 52.0577 -3.24094 2.63191 0
M  V30 595 H 53.4477 -1.90025 6.44469 0
M  V30 596 N 56.1678 -1.49265 -0.50573 0
M  V30 597 C 57.3928 -1.62478 -1.28902 0
M  V30 598 C 57.8178 -0.294332 -1.85783 0
M  V30 599 O 57.1758 0.737412 -1.65626 0
M  V30 600 C 57.2238 -2.69268 -2.39848 0
M  V30 601 O 56.3278 -2.28113 -3.43567 0
M  V30 602 H 55.6688 -0.54399 -0.380751 0
M  V30 603 H 58.1988 -1.95421 -0.605952 0
M  V30 604 H 58.2088 -2.91291 -2.85681 0
M  V30 605 H 56.8838 -3.65846 -1.97812 0
M  V30 606 H 55.4608 -2.16401 -3.03685 0
M  V30 607 N 57.6459 0.756429 -1.3826 0
M  V30 608 C 58.5789 1.87802 -1.29637 0
M  V30 609 C 59.5569 1.61667 -0.173939 0
M  V30 610 O 60.7409 1.85208 -0.350775 0
M  V30 611 C 57.8679 3.23354 -1.00797 0
M  V30 612 C 56.9139 3.68379 -2.14939 0
M  V30 613 S 57.7469 3.8025 -3.77054 0
M  V30 614 C 58.9029 5.18626 -3.50396 0
M  V30 615 H 59.1359 1.94829 -2.24564 0
M  V30 616 H 56.6689 0.919117 -1.24063 0
M  V30 617 H 58.6269 4.01637 -0.848413 0
M  V30 618 H 57.2879 3.14008 -0.0759369 0
M  V30 619 H 56.4809 4.66693 -1.90299 0
M  V30 620 H 56.0829 2.97242 -2.26988 0
M  V30 621 H 58.3749 6.04289 -3.06334 0
M  V30 622 H 59.3179 5.48286 -4.48094 0
M  V30 623 H 59.7259 4.87289 -2.84973 0
M  V30 624 N 59.124 1.23083 0.984299 0
M  V30 625 C 60.352 1.08714 1.76037 0
M  V30 626 C 60.767 -0.361691 1.85303 0
M  V30 627 O 60.124 -1.25034 1.32939 0
M  V30 628 C 60.175 1.70206 3.18923 0
M  V30 629 O 59.896 3.09423 3.10144 0
M  V30 630 C 61.397 1.61227 4.12941 0
M  V30 631 H 58.617 0.380664 0.552572 0
M  V30 632 H 61.161 1.62853 1.23689 0
M  V30 633 H 59.316 1.20109 3.6831 0
M  V30 634 H 59.73 3.39188 4.00065 0
M  V30 635 H 61.204 2.08962 5.10919 0
M  V30 636 H 61.681 0.570375 4.35481 0
M  V30 637 H 62.287 2.10671 3.69456 0
M  V30 638 N 60.6021 -1.18246 1.0419 0
M  V30 639 C 61.5321 -2.24127 0.654914 0
M  V30 640 C 62.5131 -1.66617 -0.342451 0
M  V30 641 O 63.6981 -1.92924 -0.222277 0
M  V30 642 C 60.8281 -3.47295 0.0183757 0
M  V30 643 C 59.7821 -4.17563 0.939414 0
M  V30 644 C 59.1081 -5.34438 0.167286 0
M  V30 645 C 60.4081 -4.70917 2.25908 0
M  V30 646 H 62.1021 -2.56753 1.54007 0
M  V30 647 H 59.6481 -1.23414 0.74195 0
M  V30 648 H 61.6011 -4.20572 -0.264082 0
M  V30 649 H 60.3251 -3.13907 -0.901664 0
M  V30 650 H 58.9841 -3.46186 1.20628 0
M  V30 651 H 58.6321 -4.97298 -0.7552 0
M  V30 652 H 58.3321 -5.82388 0.780901 0
M  V30 653 H 59.8561 -6.10504 -0.108125 0
M  V30 654 H 61.2701 -5.35882 2.03724 0
M  V30 655 H 59.6671 -5.29406 2.82577 0
M  V30 656 H 60.7371 -3.88272 2.9047 0
M  V30 657 N 62.0802 -0.821533 -1.34494 0
M  V30 658 C 63.0102 -0.257138 -2.3208 0
M  V30 659 C 63.9912 0.625645 -1.58176 0
M  V30 660 O 65.1762 0.552811 -1.86166 0
M  V30 661 C 62.3062 0.582958 -3.42372 0
M  V30 662 C 61.2602 -0.202571 -4.2752 0
M  V30 663 C 60.5862 0.760179 -5.29269 0
M  V30 664 C 61.8862 -1.40998 -5.02908 0
M  V30 665 H 63.5802 -1.07247 -2.79532 0
M  V30 666 H 61.1262 -0.517163 -1.34393 0
M  V30 667 H 63.0792 0.987972 -4.09655 0
M  V30 668 H 61.8032 1.43133 -2.93565 0
M  V30 669 H 60.4622 -0.588936 -3.61838 0
M  V30 670 H 60.1102 1.60447 -4.76724 0
M  V30 671 H 59.8102 0.238809 -5.87115 0
M  V30 672 H 61.3342 1.16308 -5.9942 0
M  V30 673 H 62.7482 -1.07905 -5.63054 0
M  V30 674 H 61.1452 -1.86689 -5.70322 0
M  V30 675 H 62.2152 -2.1889 -4.32684 0
M  V30 676 N 63.5583 1.46682 -0.576371 0
M  V30 677 C 64.4913 2.27243 0.208731 0
M  V30 678 C 65.4693 1.35238 0.902746 0
M  V30 679 O 66.6533 1.64641 0.917904 0
M  V30 680 C 63.7803 3.12802 1.29896 0
M  V30 681 C 62.8263 4.20524 0.711457 0
M  V30 682 S 63.6593 5.33548 -0.456781 0
M  V30 683 C 64.8153 6.22673 0.634798 0
M  V30 684 H 65.0483 2.93484 -0.474838 0
M  V30 685 H 62.5813 1.50069 -0.363118 0
M  V30 686 H 64.5393 3.62661 1.92321 0
M  V30 687 H 63.2003 2.45887 1.95444 0
M  V30 688 H 62.3933 4.80191 1.53076 0
M  V30 689 H 61.9953 3.73645 0.162999 0
M  V30 690 H 64.2873 6.60181 1.52209 0
M  V30 691 H 65.2303 7.0806 0.0750311 0
M  V30 692 H 65.6383 5.56684 0.936092 0
M  V30 693 N 65.0364 0.313813 1.54444 0
M  V30 694 C 65.9664 -0.549454 2.26943 0
M  V30 695 C 66.9474 -1.12741 1.27372 0
M  V30 696 O 68.1324 -1.15436 1.56167 0
M  V30 697 C 65.2624 -1.71523 3.01989 0
M  V30 698 C 64.2164 -1.26703 4.08816 0
M  V30 699 C 63.5424 -2.51898 4.71647 0
M  V30 700 C 64.8424 -0.388962 5.2085 0
M  V30 701 H 66.5364 0.0552661 2.99349 0
M  V30 702 H 64.0824 0.0280207 1.43973 0
M  V30 703 H 66.0354 -2.32535 3.51433 0
M  V30 704 H 64.7594 -2.34639 2.27183 0
M  V30 705 H 63.4184 -0.679896 3.6024 0
M  V30 706 H 63.0664 -3.13356 3.93468 0
M  V30 707 H 62.7664 -2.22605 5.43802 0
M  V30 708 H 64.2904 -3.1369 5.23861 0
M  V30 709 H 65.7044 -0.905107 5.6611 0
M  V30 710 H 64.1014 -0.18924 5.99802 0
M  V30 711 H 65.1714 0.582699 4.81386 0
M  V30 712 N 66.5145 -1.57545 0.0417849 0
M  V30 713 C 67.7625 -1.91937 -0.632829 0
M  V30 714 C 68.0835 -0.919978 -1.71934 0
M  V30 715 O 67.3535 0.0366064 -1.95866 0
M  V30 716 H 65.9335 -0.708493 -0.236742 0
M  V30 717 H 68.5955 -1.9468 0.0925745 0
M  V30 718 H 67.6915 -2.92912 -1.07746 0
M  V30 719 N 67.9926 0.231505 -1.5589 0
M  V30 720 C 68.9226 1.29022 -1.94617 0
M  V30 721 C 69.9036 1.4941 -0.813067 0
M  V30 722 O 71.0886 1.6176 -1.07459 0
M  V30 723 C 68.2186 2.64199 -2.25424 0
M  V30 724 C 67.1726 2.58484 -3.41131 0
M  V30 725 C 66.4986 3.97599 -3.57518 0
M  V30 726 C 67.7986 2.1413 -4.76388 0
M  V30 727 H 69.4926 0.968563 -2.83301 0
M  V30 728 H 67.0386 0.464479 -1.36303 0
M  V30 729 H 68.9916 3.38413 -2.51107 0
M  V30 730 H 67.7156 2.98032 -1.33583 0
M  V30 731 H 66.3746 1.86727 -3.15481 0
M  V30 732 H 66.0226 4.28723 -2.6307 0
M  V30 733 H 65.7226 3.94659 -4.35337 0
M  V30 734 H 67.2466 4.7349 -3.85538 0
M  V30 735 H 68.6606 2.78083 -5.01341 0
M  V30 736 H 67.0576 2.2227 -5.57419 0
M  V30 737 H 68.1276 1.09331 -4.72414 0
M  V30 738 N 69.4707 1.49531 0.497807 0
M  V30 739 C 70.4007 1.6935 1.60757 0
M  V30 740 C 71.3817 0.542218 1.61227 0
M  V30 741 O 72.5667 0.778417 1.77917 0
M  V30 742 C 69.6967 1.76298 2.99226 0
M  V30 743 C 68.6507 2.91248 3.13622 0
M  V30 744 C 67.9767 2.83312 4.53474 0
M  V30 745 C 69.2767 4.3214 2.93346 0
M  V30 746 H 70.9707 2.62263 1.44425 0
M  V30 747 H 68.5167 1.26208 0.693367 0
M  V30 748 H 70.4697 1.88749 3.76765 0
M  V30 749 H 69.1937 0.799871 3.16654 0
M  V30 750 H 67.8527 2.78404 2.38509 0
M  V30 751 H 67.5007 1.84902 4.67782 0
M  V30 752 H 67.2007 3.60465 4.64046 0
M  V30 753 H 68.7247 2.97775 5.33069 0
M  V30 754 H 70.1387 4.45649 3.60652 0
M  V30 755 H 68.5357 5.1054 3.15387 0
M  V30 756 H 69.6057 4.46363 1.89441 0
M  V30 757 N 70.9488 -0.749086 1.3866 0
M  V30 758 C 72.1768 -1.53834 1.38358 0
M  V30 759 C 72.5918 -1.88783 -0.0255219 0
M  V30 760 O 71.9488 -1.53101 -0.993292 0
M  V30 761 C 71.9998 -2.83468 2.2434 0
M  V30 762 O 71.7208 -2.50008 3.5976 0
M  V30 763 C 73.2218 -3.7758 2.32267 0
M  V30 764 H 70.4418 -0.47585 0.473083 0
M  V30 765 H 72.9858 -0.926726 1.82297 0
M  V30 766 H 71.1408 -3.40995 1.83851 0
M  V30 767 H 71.5548 -3.33182 4.05081 0
M  V30 768 H 73.0288 -4.65478 2.96706 0
M  V30 769 H 73.5058 -4.18334 1.33765 0
M  V30 770 H 74.1118 -3.25976 2.73166 0
M  V30 771 N 72.4269 -1.23603 -0.977757 0
M  V30 772 C 73.3749 -1.01704 -2.09187 0
M  V30 773 C 74.3689 0.0448214 -1.69341 0
M  V30 774 O 75.5749 -0.108902 -1.7967 0
M  V30 775 H 71.9499 -0.311803 -0.684312 0
M  V30 776 H 73.9209 -1.96207 -2.24823 0
M  V30 777 C 72.6699 -0.627746 -3.41986 0
M  V30 778 H 71.9929 -1.43656 -3.73099 0
M  V30 779 H 73.4329 -0.514053 -4.20872 0
M  V30 780 C 71.8919 0.664238 -3.30287 0
M  V30 781 O 72.4219 1.71268 -3.6336 0
M  V30 782 N 70.6279 0.641156 -2.83439 0
M  V30 783 H 70.1749 -0.212376 -2.56723 0
M  V30 784 H 70.1329 1.50583 -2.75993 0
M  V30 785 N 73.905 1.17692 -1.04816 0
M  V30 786 C 75.133 1.91786 -0.776254 0
M  V30 787 C 75.548 1.76604 0.667577 0
M  V30 788 O 74.905 1.10067 1.45573 0
M  V30 789 C 74.956 3.42967 -1.14263 0
M  V30 790 O 74.677 3.57678 -2.52978 0
M  V30 791 C 76.178 4.34144 -0.896311 0
M  V30 792 H 73.398 0.608624 -0.282519 0
M  V30 793 H 75.942 1.49268 -1.39783 0
M  V30 794 H 74.097 3.83245 -0.565874 0
M  V30 795 H 74.511 4.51319 -2.67229 0
M  V30 796 H 75.985 5.38744 -1.20244 0
M  V30 797 H 76.462 4.38876 0.168636 0
M  V30 798 H 77.068 3.99574 -1.45672 0
M  V30 799 N 75.3831 0.828654 1.34056 0
M  V30 800 C 76.3131 0.269443 2.3194 0
M  V30 801 C 77.2941 -0.617247 1.58506 0
M  V30 802 O 78.4791 -0.542931 1.86456 0
M  V30 803 C 75.6091 -0.564793 3.42677 0
M  V30 804 C 74.5631 0.225241 4.27407 0
M  V30 805 C 73.8891 -0.7321 5.29664 0
M  V30 806 C 75.1891 1.43663 5.02154 0
M  V30 807 H 76.8831 1.08728 2.7896 0
M  V30 808 H 74.4291 0.524283 1.34117 0
M  V30 809 H 76.3821 -0.966233 4.10173 0
M  V30 810 H 75.1061 -1.41574 2.9432 0
M  V30 811 H 73.7651 0.608117 3.61521 0
M  V30 812 H 73.4131 -1.57916 4.77568 0
M  V30 813 H 73.1131 -0.20767 5.87233 0
M  V30 814 H 74.6371 -1.13128 6.00029 0
M  V30 815 H 76.0511 1.1089 5.62473 0
M  V30 816 H 74.4481 1.89711 5.69324 0
M  V30 817 H 75.5181 2.21181 4.31517 0
M  V30 818 N 76.8612 -1.46375 0.584142 0
M  V30 819 C 78.0892 -2.06761 0.0759296 0
M  V30 820 C 78.5042 -1.43266 -1.22965 0
M  V30 821 O 77.8612 -0.538458 -1.74376 0
M  V30 822 C 77.9122 -3.61375 -0.0950384 0
M  V30 823 O 77.6332 -4.22495 1.15887 0
M  V30 824 C 79.1342 -4.38693 -0.637434 0
M  V30 825 H 76.3542 -0.668479 0.0581075 0
M  V30 826 H 78.8982 -1.8798 0.805218 0
M  V30 827 H 77.0532 -3.79578 -0.774554 0
M  V30 828 H 77.4672 -5.15385 0.973598 0
M  V30 829 H 78.9412 -5.47464 -0.706237 0
M  V30 830 H 79.4182 -4.06836 -1.65472 0
M  V30 831 H 80.0242 -4.25299 0.00725967 0
M  V30 832 N 78.3393 -0.321999 -1.54275 0
M  V30 833 C 79.2723 0.58718 -2.20516 0
M  V30 834 C 80.2503 1.11693 -1.18167 0
M  V30 835 O 81.4343 1.18122 -1.46899 0
M  V30 836 C 78.5613 1.80554 -2.86562 0
M  V30 837 C 77.6073 1.40718 -4.02617 0
M  V30 838 S 78.4403 0.445218 -5.33646 0
M  V30 839 C 79.5963 1.6709 -6.03185 0
M  V30 840 H 79.8293 0.0244875 -2.9729 0
M  V30 841 H 77.3623 -0.106087 -1.54035 0
M  V30 842 H 79.3203 2.50462 -3.25237 0
M  V30 843 H 77.9813 2.33942 -2.09595 0
M  V30 844 H 77.1743 2.31501 -4.47687 0
M  V30 845 H 76.7763 0.78782 -3.65608 0
M  V30 846 H 79.0683 2.60856 -6.25268 0
M  V30 847 H 80.0113 1.26239 -6.96756 0
M  V30 848 H 80.4193 1.85716 -5.33076 0
M  V30 849 N 79.8174 1.5752 -0.0501392 0
M  V30 850 C 81.0474 1.96678 0.632573 0
M  V30 851 C 81.4554 0.926298 1.64974 0
M  V30 852 O 80.7984 -0.09802 1.83438 0
M  V30 853 C 80.8604 3.32068 1.37735 0
M  V30 854 C 80.5244 4.54076 0.516131 0
M  V30 855 C 81.5214 5.19445 -0.217357 0
M  V30 856 C 79.2064 5.00304 0.44736 0
M  V30 857 C 81.2004 6.29378 -1.00807 0
M  V30 858 C 78.8874 6.10114 -0.347038 0
M  V30 859 C 79.8854 6.74512 -1.07344 0
M  V30 860 O 79.5734 7.82211 -1.85477 0
M  V30 861 H 79.3054 0.652193 0.177821 0
M  V30 862 H 81.8594 2.05091 -0.112543 0
M  V30 863 H 80.0894 3.20206 2.16807 0
M  V30 864 H 81.7784 3.55981 1.95019 0
M  V30 865 H 82.5444 4.84689 -0.173688 0
M  V30 866 H 78.4234 4.49971 1.00235 0
M  V30 867 H 81.9674 6.79575 -1.57556 0
M  V30 868 H 77.8644 6.44307 -0.392349 0
M  V30 869 H 78.6324 7.98982 -1.77678 0
M  V30 870 N 81.2955 -0.223234 1.56011 0
M  V30 871 C 82.2275 -1.30006 1.88762 0
M  V30 872 C 83.2405 -1.43129 0.775746 0
M  V30 873 O 84.4295 -1.44057 1.05403 0
M  V30 874 C 81.5295 -2.67589 2.07965 0
M  V30 875 C 80.7025 -2.76434 3.38973 0
M  V30 876 C 79.7615 -3.95019 3.47629 0
M  V30 877 O 78.7875 -3.83436 4.20672 0
M  V30 878 N 79.9895 -5.09249 2.78649 0
M  V30 879 H 82.7545 -1.02238 2.81722 0
M  V30 880 H 80.3155 -0.413278 1.56536 0
M  V30 881 H 82.3075 -3.45297 2.11073 0
M  V30 882 H 80.8775 -2.87964 1.21638 0
M  V30 883 H 80.0975 -1.85216 3.47978 0
M  V30 884 H 81.3855 -2.79313 4.25278 0
M  V30 885 H 80.7835 -5.21556 2.19081 0
M  V30 886 H 79.3405 -5.85007 2.8742 0
M  V30 887 N 82.7736 -1.49793 -0.48987 0
M  V30 888 C 84.0196 -1.61049 -1.24236 0
M  V30 889 C 84.3746 -0.298412 -1.90072 0
M  V30 890 O 83.6676 0.702262 -1.78266 0
M  V30 891 C 83.8616 -2.71488 -2.32441 0
M  V30 892 C 83.6906 -4.13308 -1.77218 0
M  V30 893 C 82.4606 -4.79955 -1.58023 0
M  V30 894 C 84.6586 -4.98176 -1.27772 0
M  V30 895 N 82.6406 -6.06052 -0.978465 0
M  V30 896 C 84.0116 -6.14843 -0.798 0
M  V30 897 C 86.0666 -4.84091 -1.16449 0
M  V30 898 C 84.7696 -7.18975 -0.216245 0
M  V30 899 C 86.7956 -5.88382 -0.596698 0
M  V30 900 C 86.1576 -7.04285 -0.127262 0
M  V30 901 H 82.2566 -0.643611 -0.444172 0
M  V30 902 H 84.8406 -1.86842 -0.54754 0
M  V30 903 H 83.0116 -2.47449 -2.99372 0
M  V30 904 H 84.7436 -2.72205 -2.99477 0
M  V30 905 H 81.4986 -4.36936 -1.82712 0
M  V30 906 H 81.9226 -6.73407 -0.696534 0
M  V30 907 H 86.5646 -3.94786 -1.5134 0
M  V30 908 H 84.2826 -8.0797 0.144903 0
M  V30 909 H 87.8686 -5.79545 -0.511716 0
M  V30 910 H 86.7486 -7.83606 0.30523 0
M  V30 911 N 84.2517 0.741722 -1.39055 0
M  V30 912 C 85.4977 1.50234 -1.37118 0
M  V30 913 C 85.8527 1.92368 0.0350439 0
M  V30 914 O 85.1457 1.63422 1.00019 0
M  V30 915 C 85.3397 2.7592 -2.27163 0
M  V30 916 C 85.1687 2.46074 -3.76401 0
M  V30 917 C 83.9387 2.38704 -4.45364 0
M  V30 918 C 86.1367 2.12062 -4.68545 0
M  V30 919 N 84.1187 2.01258 -5.79973 0
M  V30 920 C 85.4897 1.85005 -5.91754 0
M  V30 921 C 87.5447 1.98473 -4.56632 0
M  V30 922 C 86.2477 1.4573 -7.04383 0
M  V30 923 C 88.2737 1.60599 -5.69176 0
M  V30 924 C 87.6357 1.34423 -6.91455 0
M  V30 925 H 83.7347 0.548858 -0.557027 0
M  V30 926 H 86.3187 0.862642 -1.74547 0
M  V30 927 H 84.4897 3.3768 -1.91904 0
M  V30 928 H 86.2217 3.42068 -2.16267 0
M  V30 929 H 82.9767 2.55574 -3.98721 0
M  V30 930 H 83.4007 1.85147 -6.51191 0
M  V30 931 H 88.0427 2.17381 -3.62637 0
M  V30 932 H 85.7607 1.25562 -7.98286 0
M  V30 933 H 89.3467 1.507 -5.61944 0
M  V30 934 H 88.2267 1.05555 -7.77064 0
M  V30 935 N 85.7298 1.2412 0.971189 0
M  V30 936 C 87.1458 1.00584 1.23916 0
M  V30 937 C 87.3458 -0.287481 1.99439 0
M  V30 938 O 86.4018 -1.00454 2.31658 0
M  V30 939 C 87.7148 2.21864 2.0297 0
M  V30 940 C 89.2628 2.26452 2.16076 0
M  V30 941 C 89.7378 3.47343 2.98524 0
M  V30 942 N 91.2288 3.47639 3.06107 0
M  V30 943 C 91.9638 4.37837 3.70251 0
M  V30 944 N 91.4598 5.38286 4.36142 0
M  V30 945 N 93.2528 4.25558 3.67228 0
M  V30 946 H 85.4038 2.07236 0.465499 0
M  V30 947 H 87.6668 0.909236 0.268315 0
M  V30 948 H 87.3728 3.15771 1.54861 0
M  V30 949 H 87.2468 2.23698 3.03709 0
M  V30 950 H 89.6338 1.33078 2.6339 0
M  V30 951 H 89.7148 2.28645 1.14696 0
M  V30 952 H 89.3588 4.41029 2.51905 0
M  V30 953 H 89.2888 3.42393 4.00093 0
M  V30 954 H 91.7798 2.74966 2.59233 0
M  V30 955 H 92.0928 6.03352 4.82894 0
M  V30 956 H 90.4378 5.42176 4.34822 0
M  V30 957 H 93.6288 3.46322 3.14927 0
M  V30 958 H 93.8018 4.96054 4.16935 0
M  V30 959 N 87.2079 -1.17134 1.05439 0
M  V30 960 C 88.4849 -1.83411 0.679699 0
M  V30 961 C 88.8649 -1.9368 -0.839726 0
M  V30 962 O 88.2129 -1.47325 -1.74664 0
M  V30 963 C 88.4229 -3.20918 1.37159 0
M  V30 964 C 89.7709 -3.96796 1.51123 0
M  V30 965 O 90.7949 -3.30406 1.3308 0
M  V30 966 O 89.6539 -5.15778 1.80651 0
M  V30 967 H 86.7479 -0.79154 0.239569 0
M  V30 968 H 89.2939 -1.24411 1.15413 0
M  V30 969 H 88.0659 -3.08428 2.40807 0
M  V30 970 H 87.6889 -3.87587 0.886674 0
M  V30 971 N 88.686 -0.835752 -1.33615 0
M  V30 972 C 89.932 -0.430596 -1.98176 0
M  V30 973 C 90.265 1.00684 -1.66061 0
M  V30 974 O 89.54 1.70339 -0.938877 0
M  V30 975 C 89.823 -0.648065 -3.5422 0
M  V30 976 C 89.676 -2.13255 -3.96033 0
M  V30 977 C 90.995 -0.0922113 -4.40003 0
M  V30 978 H 88.114 -0.157924 -0.719881 0
M  V30 979 H 90.756 -1.05069 -1.58305 0
M  V30 980 H 88.906 -0.120237 -3.88314 0
M  V30 981 H 90.578 -2.725 -3.72211 0
M  V30 982 H 88.821 -2.61823 -3.45878 0
M  V30 983 H 89.492 -2.23547 -5.04708 0
M  V30 984 H 91.968 -0.543343 -4.12537 0
M  V30 985 H 90.844 -0.274083 -5.48215 0
M  V30 986 H 91.105 1.00378 -4.30554 0
M  V30 987 N 90.1641 1.46063 -0.591896 0
M  V30 988 C 91.3921 2.06717 -0.0868936 0
M  V30 989 C 91.8071 1.43916 1.22203 0
M  V30 990 O 91.1641 0.547698 1.74088 0
M  V30 991 C 91.2151 3.6142 0.0758725 0
M  V30 992 O 90.9361 4.21874 -1.18126 0
M  V30 993 C 92.4371 4.39025 0.61416 0
M  V30 994 H 89.6571 0.668162 -0.0616518 0
M  V30 995 H 92.2011 1.8755 -0.815175 0
M  V30 996 H 90.3561 3.79983 0.754413 0
M  V30 997 H 90.7701 5.14861 -1.00092 0
M  V30 998 H 92.2441 5.4783 0.677193 0
M  V30 999 H 92.7211 4.07708 1.63312 0
M  V30 1000 H 93.3271 4.2529 -0.0298142 0
M  V30 1001 N 91.6422 0.330177 1.54103 0
M  V30 1002 C 93.0582 -0.0222371 1.59585 0
M  V30 1003 C 93.2582 -1.49902 1.34654 0
M  V30 1004 O 92.3142 -2.25592 1.13421 0
M  V30 1005 C 93.6272 0.401932 2.98002 0
M  V30 1006 C 95.1752 0.353145 3.11001 0
M  V30 1007 C 95.6502 0.752576 4.51775 0
M  V30 1008 N 97.1412 0.706239 4.57784 0
M  V30 1009 C 97.8762 0.987417 5.64834 0
M  V30 1010 N 97.3722 1.33607 6.79795 0
M  V30 1011 N 99.1652 0.91254 5.54643 0
M  V30 1012 H 91.3162 1.29228 1.68564 0
M  V30 1013 H 93.5792 0.525906 0.78875 0
M  V30 1014 H 93.2852 1.4311 3.21267 0
M  V30 1015 H 93.1592 -0.229699 3.765 0
M  V30 1016 H 95.5462 -0.666822 2.87467 0
M  V30 1017 H 95.6272 1.0198 2.34593 0
M  V30 1018 H 95.2712 1.77049 4.76042 0
M  V30 1019 H 95.2012 0.0635409 5.26562 0
M  V30 1020 H 97.6922 0.44889 3.75224 0
M  V30 1021 H 98.0052 1.53582 7.57385 0
M  V30 1022 H 96.3502 1.37439 6.81275 0
M  V30 1023 H 99.5412 0.639601 4.6371 0
M  V30 1024 H 99.7142 1.13503 6.37982 0
M  V30 1025 N 93.1203 -1.57491 0.0584922 0
M  V30 1026 C 94.0303 -2.15448 -0.928414 0
M  V30 1027 C 95.0463 -1.11416 -1.3365 0
M  V30 1028 O 96.2223 -1.4362 -1.41193 0
M  V30 1029 C 93.2873 -2.69393 -2.18239 0
M  V30 1030 C 92.3483 -3.88249 -1.83196 0
M  V30 1031 C 91.5813 -4.39613 -3.02616 0
M  V30 1032 O 91.8043 -3.90023 -4.16219 0
M  V30 1033 O 90.7383 -5.31111 -2.83204 0
M  V30 1034 H 94.5643 -3.00112 -0.465483 0
M  V30 1035 H 92.1493 -1.48499 -0.163826 0
M  V30 1036 H 94.0313 -3.04026 -2.91798 0
M  V30 1037 H 92.7063 -1.87796 -2.63656 0
M  V30 1038 H 91.6133 -3.58492 -1.06931 0
M  V30 1039 H 92.9463 -4.71098 -1.42573 0
M  V30 1040 N 94.5984 0.214957 -1.56127 0
M  V30 1041 C 95.8234 0.95924 -1.83884 0
M  V30 1042 C 96.2484 1.7689 -0.639644 0
M  V30 1043 O 95.6064 1.76566 0.411601 0
M  V30 1044 C 95.6544 1.84723 -3.09693 0
M  V30 1045 O 94.7584 2.94346 -2.8885 0
M  V30 1046 H 94.0994 0.27125 -0.606069 0
M  V30 1047 H 96.6294 0.226276 -2.03345 0
M  V30 1048 H 96.6394 2.25576 -3.39969 0
M  V30 1049 H 95.3144 1.25218 -3.96602 0
M  V30 1050 H 93.8914 2.57391 -2.69823 0
M  V30 1051 N 96.0765 1.50051 0.48192 0
M  V30 1052 C 97.3045 1.64237 1.25832 0
M  V30 1053 C 97.7195 0.321336 1.86045 0
M  V30 1054 O 97.0765 -0.695478 1.68729 0
M  V30 1055 C 97.1275 2.72548 2.37487 0
M  V30 1056 O 96.8485 3.99529 1.79745 0
M  V30 1057 C 98.3495 2.9761 3.28547 0
M  V30 1058 H 95.5695 0.55237 0.380957 0
M  V30 1059 H 98.1135 1.96207 0.576467 0
M  V30 1060 H 96.2685 2.43303 3.01467 0
M  V30 1061 H 96.6825 4.59342 2.5319 0
M  V30 1062 H 98.1565 3.77084 4.03127 0
M  V30 1063 H 98.6335 2.0826 3.86684 0
M  V30 1064 H 99.2395 3.28345 2.70314 0
M  V30 1065 N 97.5546 -0.734337 1.39446 0
M  V30 1066 C 98.7846 -1.52137 1.39778 0
M  V30 1067 C 99.1926 -1.89198 -0.00929312 0
M  V30 1068 O 98.5356 -1.54666 -0.991168 0
M  V30 1069 C 98.5976 -2.83762 2.20724 0
M  V30 1070 C 98.2616 -2.69131 3.69347 0
M  V30 1071 C 99.2586 -2.37635 4.62413 0
M  V30 1072 C 96.9436 -2.85982 4.1294 0
M  V30 1073 C 98.9376 -2.23172 5.97054 0
M  V30 1074 C 96.6246 -2.71137 5.47657 0
M  V30 1075 C 97.6226 -2.39777 6.39528 0
M  V30 1076 O 97.3106 -2.25026 7.71763 0
M  V30 1077 H 97.0426 -0.476717 0.479288 0
M  V30 1078 H 99.5966 -0.915012 1.83893 0
M  V30 1079 H 97.8266 -3.4666 1.71359 0
M  V30 1080 H 99.5156 -3.45383 2.13226 0
M  V30 1081 H 100.282 -2.24267 4.30034 0
M  V30 1082 H 96.1606 -3.09383 3.41765 0
M  V30 1083 H 99.7046 -1.98617 6.68728 0
M  V30 1084 H 95.6016 -2.84083 5.79626 0
M  V30 1085 H 96.3696 -2.40091 7.82495 0
M  V30 1086 N 99.0327 -1.24633 -0.964593 0
M  V30 1087 C 99.9647 -0.999302 -2.06268 0
M  V30 1088 C 100.978 0.0323226 -1.62768 0
M  V30 1089 O 102.167 -0.205079 -1.77318 0
M  V30 1090 C 99.2667 -0.486816 -3.35385 0
M  V30 1091 C 98.4397 -1.5823 -4.07777 0
M  V30 1092 C 97.4987 -1.07191 -5.15166 0
M  V30 1093 O 96.5247 -1.76426 -5.41168 0
M  V30 1094 N 97.7267 0.0920373 -5.80427 0
M  V30 1095 H 100.492 -1.94477 -2.28033 0
M  V30 1096 H 98.0527 -1.15704 -1.13244 0
M  V30 1097 H 100.045 -0.130066 -4.04491 0
M  V30 1098 H 98.6147 0.364459 -3.10468 0
M  V30 1099 H 97.8347 -2.11109 -3.32906 0
M  V30 1100 H 99.1227 -2.31854 -4.52903 0
M  V30 1101 H 98.5207 0.670784 -5.61709 0
M  V30 1102 H 97.0777 0.389905 -6.50633 0
M  V30 1103 N 100.511 1.16574 -1.06058 0
M  V30 1104 C 101.759 1.86677 -0.77434 0
M  V30 1105 C 102.08 1.81959 0.701147 0
M  V30 1106 O 101.35 1.2515 1.50713 0
M  V30 1107 H 99.9298 0.691134 -0.283449 0
M  V30 1108 H 102.592 1.41378 -1.34158 0
M  V30 1109 H 101.688 2.92181 -1.09711 0
M  V30 1110 N 101.989 0.842826 1.3317 0
M  V30 1111 C 102.939 0.250877 2.26616 0
M  V30 1112 C 103.923 -0.596427 1.49437 0
M  V30 1113 O 105.115 -0.447747 1.71243 0
M  V30 1114 C 102.244 -0.569779 3.38539 0
M  V30 1115 C 101.33 0.289254 4.23112 0
M  V30 1116 N 101.721 1.36987 4.86897 0
M  V30 1117 C 100.019 0.0769631 4.45934 0
M  V30 1118 C 100.72 1.89737 5.49886 0
M  V30 1119 N 99.6959 1.19827 5.30229 0
M  V30 1120 H 103.498 1.07718 2.73448 0
M  V30 1121 H 101.012 0.687693 1.47121 0
M  V30 1122 H 103.009 -1.01018 4.04476 0
M  V30 1123 H 101.669 -1.39401 2.93253 0
M  V30 1124 H 102.68 1.75277 4.87338 0
M  V30 1125 H 99.3569 -0.713507 4.11358 0
M  V30 1126 H 100.747 2.80253 6.10662 0
M  V30 1127 N 103.467 -1.45747 0.599634 0
M  V30 1128 C 104.417 -2.27538 -0.145107 0
M  V30 1129 C 105.401 -1.3686 -0.846055 0
M  V30 1130 O 106.593 -1.6091 -0.737357 0
M  V30 1131 C 103.722 -3.23569 -1.14708 0
M  V30 1132 C 102.808 -4.21734 -0.447383 0
M  V30 1133 N 103.199 -5.03257 0.506535 0
M  V30 1134 C 101.497 -4.40536 -0.695966 0
M  V30 1135 C 102.198 -5.74426 0.917068 0
M  V30 1136 N 101.174 -5.42966 0.26253 0
M  V30 1137 H 104.976 -2.87965 0.587672 0
M  V30 1138 H 102.49 -1.56803 0.422697 0
M  V30 1139 H 104.487 -3.8089 -1.69495 0
M  V30 1140 H 103.147 -2.64702 -1.8805 0
M  V30 1141 H 104.158 -5.10319 0.882899 0
M  V30 1142 H 100.835 -3.92802 -1.41467 0
M  V30 1143 H 102.225 -6.4995 1.70338 0
M  V30 1144 N 104.945 -0.338344 -1.53925 0
M  V30 1145 C 106.173 0.261298 -2.05243 0
M  V30 1146 C 106.588 1.44625 -1.21363 0
M  V30 1147 O 105.945 1.80811 -0.247736 0
M  V30 1148 C 105.996 0.681412 -3.5502 0
M  V30 1149 O 105.717 -0.456414 -4.35716 0
M  V30 1150 C 107.218 1.34232 -4.22489 0
M  V30 1151 H 104.438 0.0513685 -0.669031 0
M  V30 1152 H 106.982 -0.488822 -1.98572 0
M  V30 1153 H 105.137 1.38148 -3.61931 0
M  V30 1154 H 105.551 -0.122564 -5.24357 0
M  V30 1155 H 107.025 1.58708 -5.28693 0
M  V30 1156 H 107.502 2.29426 -3.74514 0
M  V30 1157 H 108.108 0.684424 -4.19757 0
M  V30 1158 N 106.423 1.57458 -0.0668435 0
M  V30 1159 C 107.834 1.80776 0.466558 0
M  V30 1160 C 108.185 0.980361 1.69951 0
M  V30 1161 O 107.31 0.201441 2.1546 0
M  V30 1162 C 107.905 3.27881 0.85321 0
M  V30 1163 C 106.464 3.52062 1.3315 0
M  V30 1164 C 105.611 2.75513 0.314264 0
M  V30 1165 H 108.562 1.5598 -0.292588 0
M  V30 1166 H 108.583 3.39659 1.715 0
M  V30 1167 H 108.095 3.88075 -0.0443439 0
M  V30 1168 H 106.196 2.97167 2.24772 0
M  V30 1169 H 106.309 4.60762 1.31285 0
M  V30 1170 H 104.673 2.42123 0.790492 0
M  V30 1171 H 105.456 3.38442 -0.575477 0
M  V30 1172 N 107.901 -0.206675 1.56239 0
M  V30 1173 C 109.312 -0.772383 1.69974 0
M  V30 1174 C 109.663 -1.84353 0.671436 0
M  V30 1175 O 108.788 -2.15695 -0.174491 0
M  V30 1176 C 109.383 -1.40779 3.08167 0
M  V30 1177 C 107.942 -1.92072 3.23706 0
M  V30 1178 C 107.089 -0.786347 2.65917 0
M  V30 1179 H 110.04 0.0182223 1.5869 0
M  V30 1180 H 110.061 -2.27696 3.04852 0
M  V30 1181 H 109.573 -0.627958 3.82986 0
M  V30 1182 H 107.674 -2.7281 2.53782 0
M  V30 1183 H 107.787 -2.09046 4.31087 0
M  V30 1184 H 106.151 -1.1976 2.24788 0
M  V30 1185 H 106.934 -0.0189416 3.43295 0
M  V30 1186 N 109.379 -1.50304 -0.473955 0
M  V30 1187 C 110.625 -1.61389 -1.22806 0
M  V30 1188 C 110.958 -0.311955 -1.91678 0
M  V30 1189 O 110.233 0.686384 -1.81986 0
M  V30 1190 C 110.516 -2.79219 -2.27396 0
M  V30 1191 C 110.369 -4.19286 -1.62848 0
M  V30 1192 C 111.688 -2.92614 -3.28732 0
M  V30 1193 H 108.807 -0.587399 -0.445119 0
M  V30 1194 H 111.449 -1.82681 -0.522265 0
M  V30 1195 H 109.599 -2.61195 -2.87592 0
M  V30 1196 H 111.271 -4.48892 -1.06271 0
M  V30 1197 H 109.514 -4.23677 -0.931693 0
M  V30 1198 H 110.185 -4.97655 -2.38838 0
M  V30 1199 H 112.661 -3.09105 -2.78556 0
M  V30 1200 H 111.537 -3.76688 -3.99246 0
M  V30 1201 H 111.798 -2.03107 -3.92683 0
M  V30 1202 N 110.857 0.726932 -1.39834 0
M  V30 1203 C 111.789 1.85147 -1.35104 0
M  V30 1204 C 112.802 1.60736 -0.258392 0
M  V30 1205 O 113.991 1.70821 -0.517931 0
M  V30 1206 C 111.091 3.21332 -1.07697 0
M  V30 1207 C 110.264 3.73033 -2.28396 0
M  V30 1208 C 109.323 4.87802 -1.97322 0
M  V30 1209 O 108.349 5.01043 -2.70083 0
M  V30 1210 N 109.551 5.72768 -0.944273 0
M  V30 1211 H 112.316 1.89706 -2.32017 0
M  V30 1212 H 109.877 0.908006 -1.3404 0
M  V30 1213 H 111.869 3.95691 -0.849144 0
M  V30 1214 H 110.439 3.11992 -0.194909 0
M  V30 1215 H 109.659 2.89934 -2.6708 0
M  V30 1216 H 110.947 4.0431 -3.08887 0
M  V30 1217 H 110.345 5.64669 -0.341427 0
M  V30 1218 H 108.902 6.4716 -0.776346 0
M  V30 1219 N 112.336 1.25143 0.95797 0
M  V30 1220 C 113.283 1.05235 2.05412 0
M  V30 1221 C 114.253 -0.0374561 1.66058 0
M  V30 1222 O 115.438 0.119073 1.90428 0
M  V30 1223 C 112.578 0.673589 3.38462 0
M  V30 1224 C 111.691 1.8379 3.90954 0
M  V30 1225 C 110.826 1.40381 5.12315 0
M  V30 1226 C 109.865 2.53746 5.57027 0
M  V30 1227 N 109.002 2.11136 6.69601 0
M  V30 1228 H 113.842 1.99048 2.21774 0
M  V30 1229 H 111.379 0.991277 1.08683 0
M  V30 1230 H 113.337 0.434964 4.14926 0
M  V30 1231 H 111.967 -0.227554 3.21997 0
M  V30 1232 H 111.019 2.18992 3.11041 0
M  V30 1233 H 112.331 2.68937 4.20089 0
M  V30 1234 H 111.485 1.12464 5.96185 0
M  V30 1235 H 110.224 0.523015 4.84887 0
M  V30 1236 H 109.229 2.82412 4.71724 0
M  V30 1237 H 110.454 3.42398 5.86464 0
M  V30 1238 H 108.4 1.25468 6.4389 0
M  V30 1239 H 108.317 2.89832 6.98236 0
M  V30 1240 H 109.585 1.86385 7.56889 0
M  V30 1241 N 113.814 -1.1601 1.06675 0
M  V30 1242 C 115.062 -1.86264 0.784229 0
M  V30 1243 C 115.383 -1.82328 -0.691488 0
M  V30 1244 O 114.653 -1.25947 -1.50047 0
M  V30 1245 H 113.233 -0.689621 0.28711 0
M  V30 1246 H 115.895 -1.40664 1.34906 0
M  V30 1247 H 114.991 -2.91595 1.11259 0
M  V30 1248 N 115.292 -0.849877 -1.32721 0
M  V30 1249 C 116.222 -0.306308 -2.31482 0
M  V30 1250 C 117.203 0.591952 -1.59468 0
M  V30 1251 O 118.388 0.513199 -1.87296 0
M  V30 1252 C 115.518 0.510204 -3.43532 0
M  V30 1253 C 114.472 -0.293209 -4.26994 0
M  V30 1254 C 113.798 0.647743 -5.30762 0
M  V30 1255 C 115.098 -1.51634 -4.99804 0
M  V30 1256 H 116.792 -1.13153 -2.77195 0
M  V30 1257 H 114.338 -0.545553 -1.33266 0
M  V30 1258 H 116.291 0.900856 -4.11658 0
M  V30 1259 H 115.015 1.36874 -2.96535 0
M  V30 1260 H 113.674 -0.665555 -3.60508 0
M  V30 1261 H 113.322 1.50299 -4.8002 0
M  V30 1262 H 113.022 0.11422 -5.87489 0
M  V30 1263 H 114.546 1.03567 -6.01753 0
M  V30 1264 H 115.96 -1.19824 -5.60638 0
M  V30 1265 H 114.357 -1.98745 -5.66234 0
M  V30 1266 H 115.427 -2.28018 -4.27943 0
M  V30 1267 N 116.77 1.45427 -0.607355 0
M  V30 1268 C 118.186 1.57283 -0.270985 0
M  V30 1269 C 118.386 1.59875 1.22647 0
M  V30 1270 O 117.442 1.52893 2.00948 0
M  V30 1271 C 118.755 2.85566 -0.941952 0
M  V30 1272 C 120.303 2.9924 -0.917849 0
M  V30 1273 C 120.778 4.30293 -1.56882 0
M  V30 1274 N 122.269 4.37051 -1.5343 0
M  V30 1275 C 123.004 5.37123 -2.00715 0
M  V30 1276 N 122.5 6.43734 -2.56084 0
M  V30 1277 N 124.293 5.28479 -1.91484 0
M  V30 1278 H 116.444 1.41988 -1.57966 0
M  V30 1279 H 118.707 0.67885 -0.661715 0
M  V30 1280 H 118.413 2.8955 -1.99633 0
M  V30 1281 H 118.287 3.74322 -0.465096 0
M  V30 1282 H 120.674 2.94822 0.127984 0
M  V30 1283 H 120.755 2.11895 -1.43297 0
M  V30 1284 H 120.399 4.35469 -2.61398 0
M  V30 1285 H 120.329 5.16454 -1.02873 0
M  V30 1286 H 122.82 3.60615 -1.12982 0
M  V30 1287 H 123.133 7.16341 -2.89958 0
M  V30 1288 H 121.478 6.44485 -2.60122 0
M  V30 1289 H 124.669 4.44098 -1.47967 0
M  V30 1290 H 124.842 6.0632 -2.28648 0
M  V30 1291 N 118.248 0.346503 1.53744 0
M  V30 1292 C 119.478 -0.250047 2.05081 0
M  V30 1293 C 119.886 -1.44529 1.22098 0
M  V30 1294 O 119.229 -1.81992 0.249917 0
M  V30 1295 C 119.291 -0.725934 3.52094 0
M  V30 1296 C 118.955 0.350053 4.55657 0
M  V30 1297 C 119.952 1.19372 5.0601 0
M  V30 1298 C 117.637 0.504827 4.99757 0
M  V30 1299 C 119.631 2.17768 5.99046 0
M  V30 1300 C 117.318 1.49218 5.92602 0
M  V30 1301 C 118.316 2.32706 6.42135 0
M  V30 1302 O 118.004 3.2976 7.33153 0
M  V30 1303 H 117.736 -0.0515469 0.674032 0
M  V30 1304 H 120.29 0.497559 1.99282 0
M  V30 1305 H 118.52 -1.52483 3.55367 0
M  V30 1306 H 120.209 -1.24336 3.86388 0
M  V30 1307 H 120.975 1.08525 4.72702 0
M  V30 1308 H 116.854 -0.135178 4.60802 0
M  V30 1309 H 120.398 2.82971 6.37631 0
M  V30 1310 H 116.295 1.6012 6.25325 0
M  V30 1311 H 117.063 3.25265 7.51096 0
M  V30 1312 N 119.726 -1.57421 0.075193 0
M  V30 1313 C 120.974 -1.93236 -0.591974 0
M  V30 1314 C 121.295 -0.956241 -1.69944 0
M  V30 1315 O 120.565 -0.00494792 -1.95899 0
M  V30 1316 H 119.145 -0.713355 -0.22166 0
M  V30 1317 H 121.807 -1.9444 0.133848 0
M  V30 1318 H 120.903 -2.95131 -1.01509 0
M  V30 1319 N 121.204 0.198386 -1.56346 0
M  V30 1320 C 122.137 1.27381 -1.89339 0
M  V30 1321 C 123.115 1.44106 -0.753134 0
M  V30 1322 O 124.299 1.59549 -1.00381 0
M  V30 1323 C 121.426 2.6409 -2.12071 0
M  V30 1324 C 120.472 2.64253 -3.34772 0
M  V30 1325 S 121.305 2.16013 -4.89999 0
M  V30 1326 C 122.461 3.54553 -5.15794 0
M  V30 1327 H 122.694 0.992058 -2.8026 0
M  V30 1328 H 120.227 0.401726 -1.49082 0
M  V30 1329 H 122.185 3.42786 -2.2585 0
M  V30 1330 H 120.846 2.89478 -1.21906 0
M  V30 1331 H 120.039 3.64768 -3.47794 0
M  V30 1332 H 119.641 1.93637 -3.1997 0
M  V30 1333 H 121.933 4.50396 -5.06112 0
M  V30 1334 H 122.876 3.46428 -6.1757 0
M  V30 1335 H 123.284 3.49313 -4.43442 0
M  V30 1336 N 122.682 1.50554 0.465978 0
M  V30 1337 C 123.931 1.61038 1.21448 0
M  V30 1338 C 124.244 0.31865 1.92987 0
M  V30 1339 O 125.45 0.302469 2.6981 0
M  V30 1340 C 123.906 2.84283 2.20706 0
M  V30 1341 C 123.514 4.20352 1.54946 0
M  V30 1342 C 125.258 3.04115 2.96166 0
M  V30 1343 C 123.165 5.34778 2.5252 0
M  V30 1344 H 122.095 0.599718 0.457005 0
M  V30 1345 H 124.746 1.7699 0.484424 0
M  V30 1346 H 123.128 2.61901 2.97025 0
M  V30 1347 H 124.302 4.53008 0.843811 0
M  V30 1348 H 122.617 4.06167 0.917475 0
M  V30 1349 H 125.214 3.86774 3.69202 0
M  V30 1350 H 125.557 2.16045 3.55852 0
M  V30 1351 H 126.09 3.26702 2.26959 0
M  V30 1352 H 122.829 6.25018 1.97566 0
M  V30 1353 H 122.349 5.06534 3.21222 0
M  V30 1354 H 124.028 5.65561 3.14245 0
M  V30 1355 N 124.16 -0.719506 1.40217 0
M  V30 1356 C 125.09 -1.8465 1.42922 0
M  V30 1357 C 126.071 -1.67599 0.29062 0
M  V30 1358 O 127.256 -1.87688 0.498677 0
M  V30 1359 C 124.386 -3.22565 1.28722 0
M  V30 1360 C 123.34 -3.54281 2.40144 0
M  V30 1361 C 122.666 -4.91298 2.11023 0
M  V30 1362 C 123.966 -3.55676 3.82481 0
M  V30 1363 H 125.66 -1.82644 2.37237 0
M  V30 1364 H 123.206 -0.877305 1.1419 0
M  V30 1365 H 125.159 -4.01095 1.29232 0
M  V30 1366 H 123.883 -3.25137 0.308811 0
M  V30 1367 H 122.542 -2.78088 2.38877 0
M  V30 1368 H 122.19 -4.90468 1.11582 0
M  V30 1369 H 121.89 -5.13485 2.8567 0
M  V30 1370 H 123.414 -5.72166 2.13209 0
M  V30 1371 H 124.828 -4.24254 3.85592 0
M  V30 1372 H 123.225 -3.89388 4.56614 0
M  V30 1373 H 124.295 -2.55144 4.12346 0
M  V30 1374 N 125.638 -1.25649 -0.95132 0
M  V30 1375 C 126.885 -1.10594 -1.69633 0
M  V30 1376 C 127.213 0.352515 -1.91279 0
M  V30 1377 O 126.468 1.27601 -1.4838 0
M  V30 1378 C 126.767 -1.80909 -3.08231 0
M  V30 1379 C 126.433 -3.30825 -3.06375 0
M  V30 1380 C 125.095 -3.71722 -3.05576 0
M  V30 1381 C 127.447 -4.26589 -2.99452 0
M  V30 1382 C 124.775 -5.06788 -2.95606 0
M  V30 1383 C 127.127 -5.61683 -2.91024 0
M  V30 1384 C 125.791 -6.01904 -2.88562 0
M  V30 1385 H 125.061 -0.404691 -0.620731 0
M  V30 1386 H 127.708 -1.55964 -1.11119 0
M  V30 1387 H 126.013 -1.27979 -3.70309 0
M  V30 1388 H 127.71 -1.6671 -3.64704 0
M  V30 1389 H 124.3 -2.98287 -3.07771 0
M  V30 1390 H 128.484 -3.95982 -2.99185 0
M  V30 1391 H 123.74 -5.37126 -2.92071 0
M  V30 1392 H 127.914 -6.35578 -2.84629 0
M  V30 1393 H 125.541 -7.06521 -2.80593 0
M  V30 1394 N 127.117 1.15442 -1.07289 0
M  V30 1395 C 128.366 1.85557 -0.790669 0
M  V30 1396 C 128.679 1.83186 0.685739 0
M  V30 1397 O 129.885 2.48977 1.0827 0
M  V30 1398 C 128.341 3.33038 -1.36433 0
M  V30 1399 C 127.949 3.43856 -2.8717 0
M  V30 1400 C 129.693 4.0834 -1.1601 0
M  V30 1401 C 127.6 4.85482 -3.3773 0
M  V30 1402 H 126.53 0.695122 -0.292098 0
M  V30 1403 H 129.181 1.30219 -1.29287 0
M  V30 1404 H 127.563 3.88043 -0.789864 0
M  V30 1405 H 128.737 2.98961 -3.50655 0
M  V30 1406 H 127.052 2.81998 -3.06376 0
M  V30 1407 H 129.649 5.12859 -1.51262 0
M  V30 1408 H 129.992 4.16182 -0.0991007 0
M  V30 1409 H 130.525 3.59603 -1.70089 0
M  V30 1410 H 127.264 4.82823 -4.43353 0
M  V30 1411 H 126.784 5.30961 -2.78999 0
M  V30 1412 H 128.463 5.54335 -3.33648 0
M  V30 1413 N 128.595 0.856903 1.32268 0
M  V30 1414 C 129.823 0.475439 2.01363 0
M  V30 1415 C 130.238 -0.928486 1.64392 0
M  V30 1416 O 129.595 -1.60624 0.866387 0
M  V30 1417 C 129.646 0.607545 3.56358 0
M  V30 1418 O 129.367 1.95617 3.92002 0
M  V30 1419 C 130.868 0.225382 4.42727 0
M  V30 1420 H 128.088 0.186636 0.644521 0
M  V30 1421 H 130.632 1.15446 1.68797 0
M  V30 1422 H 128.787 -0.0237719 3.87393 0
M  V30 1423 H 129.201 1.95455 4.86721 0
M  V30 1424 H 130.675 0.368813 5.50767 0
M  V30 1425 H 131.152 -0.834369 4.31202 0
M  V30 1426 H 131.758 0.831864 4.17085 0
M  V30 1427 N 130.073 -1.45103 0.615059 0
M  V30 1428 C 131.298 -2.07064 0.117988 0
M  V30 1429 C 131.723 -1.4554 -1.19163 0
M  V30 1430 O 131.081 -0.550855 -1.72729 0
M  V30 1431 C 131.129 -3.606 -0.000288387 0
M  V30 1432 O 130.233 -3.98847 -1.04856 0
M  V30 1433 H 129.574 -0.659467 0.0774581 0
M  V30 1434 H 132.104 -1.86236 0.847186 0
M  V30 1435 H 132.114 -4.07529 -0.196091 0
M  V30 1436 H 130.789 -4.04765 0.955932 0
M  V30 1437 H 129.366 -3.63577 -0.828619 0
M  V30 1438 N 131.551 -0.354651 -1.53558 0
M  V30 1439 C 132.461 0.50515 -2.29097 0
M  V30 1440 C 133.477 1.10223 -1.34636 0
M  V30 1441 O 134.653 1.11553 -1.67684 0
M  V30 1442 C 131.718 1.63479 -3.05738 0
M  V30 1443 C 130.779 1.06636 -4.15845 0
M  V30 1444 C 130.012 2.14217 -4.88822 0
M  V30 1445 O 130.235 3.35137 -4.61562 0
M  V30 1446 O 129.169 1.77887 -5.75013 0
M  V30 1447 H 132.995 -0.109237 -3.03503 0
M  V30 1448 H 130.58 -0.119357 -1.48922 0
M  V30 1449 H 132.462 2.2918 -3.5363 0
M  V30 1450 H 131.137 2.23478 -2.34178 0
M  V30 1451 H 130.044 0.373565 -3.7223 0
M  V30 1452 H 131.377 0.511081 -4.89539 0
M  V30 1453 N 133.029 1.57378 -0.0835403 0
M  V30 1454 C 134.275 1.94217 0.583733 0
M  V30 1455 C 134.608 0.964653 1.68547 0
M  V30 1456 O 133.883 -0.00422258 1.945 0
M  V30 1457 C 134.166 3.41253 1.14972 0
M  V30 1458 C 134.019 4.49768 0.0538277 0
M  V30 1459 C 135.338 3.89352 2.05166 0
M  V30 1460 H 132.457 0.706233 0.210724 0
M  V30 1461 H 135.099 1.89392 -0.1519 0
M  V30 1462 H 133.249 3.45496 1.77665 0
M  V30 1463 H 134.921 4.57641 -0.579851 0
M  V30 1464 H 133.164 4.29432 -0.614068 0
M  V30 1465 H 133.835 5.49817 0.490452 0
M  V30 1466 H 136.311 3.87189 1.52393 0
M  V30 1467 H 135.187 4.92822 2.41698 0
M  V30 1468 H 135.448 3.27973 2.96456 0
M  V30 1469 N 134.507 -0.190092 1.56449 0
M  V30 1470 C 135.754 -0.909705 1.80916 0
M  V30 1471 C 136.082 -1.83047 0.657583 0
M  V30 1472 O 135.337 -1.92428 -0.356356 0
M  V30 1473 C 135.636 -1.75382 3.1141 0
M  V30 1474 C 135.302 -0.983606 4.40041 0
M  V30 1475 C 133.964 -0.770967 4.74984 0
M  V30 1476 C 136.316 -0.442024 5.19322 0
M  V30 1477 C 133.644 -0.0053448 5.867 0
M  V30 1478 C 135.996 0.310412 6.31838 0
M  V30 1479 C 134.66 0.534023 6.6536 0
M  V30 1480 H 133.93 -0.332885 0.662019 0
M  V30 1481 H 136.577 -0.175762 1.90692 0
M  V30 1482 H 134.882 -2.55659 2.96893 0
M  V30 1483 H 136.579 -2.31331 3.27547 0
M  V30 1484 H 133.169 -1.15936 4.12622 0
M  V30 1485 H 137.353 -0.593693 4.92736 0
M  V30 1486 H 132.609 0.177825 6.11141 0
M  V30 1487 H 136.783 0.737419 6.92485 0
M  V30 1488 H 134.41 1.12918 7.51767 0
M  V30 1489 N 135.985 -1.50799 -0.457987 0
M  V30 1490 C 137.232 -1.62442 -1.20908 0
M  V30 1491 C 137.56 -0.330865 -1.91665 0
M  V30 1492 O 136.815 0.68401 -1.83357 0
M  V30 1493 C 137.114 -2.76358 -2.2663 0
M  V30 1494 C 136.78 -4.16378 -1.73033 0
M  V30 1495 C 135.442 -4.54473 -1.58138 0
M  V30 1496 C 137.794 -5.03836 -1.33413 0
M  V30 1497 C 135.122 -5.77754 -1.02065 0
M  V30 1498 C 137.474 -6.27676 -0.78778 0
M  V30 1499 C 136.138 -6.64562 -0.625561 0
M  V30 1500 H 135.408 -0.594417 -0.442435 0
M  V30 1501 H 138.055 -1.84772 -0.503136 0
M  V30 1502 H 136.36 -2.48167 -3.03184 0
M  V30 1503 H 138.057 -2.82568 -2.84528 0
M  V30 1504 H 134.647 -3.86331 -1.85598 0
M  V30 1505 H 138.831 -4.75026 -1.4375 0
M  V30 1506 H 134.087 -6.04997 -0.882547 0
M  V30 1507 H 138.261 -6.94797 -0.472177 0
M  V30 1508 H 135.888 -7.59965 -0.188926 0
M  V30 1509 N 137.463 0.71206 -1.40597 0
M  V30 1510 C 138.71 1.47197 -1.39065 0
M  V30 1511 C 139.038 1.94499 0.00583891 0
M  V30 1512 O 138.293 1.68752 0.99102 0
M  V30 1513 C 138.592 2.71039 -2.32965 0
M  V30 1514 C 138.258 2.42484 -3.80148 0
M  V30 1515 C 136.92 2.34406 -4.20247 0
M  V30 1516 C 139.272 2.18598 -4.73143 0
M  V30 1517 C 136.6 2.00516 -5.51371 0
M  V30 1518 C 138.952 1.8622 -6.0457 0
M  V30 1519 C 137.616 1.76626 -6.43708 0
M  V30 1520 H 136.886 0.538634 -0.508876 0
M  V30 1521 H 139.533 0.815325 -1.73276 0
M  V30 1522 H 137.838 3.41558 -1.91951 0
M  V30 1523 H 139.535 3.29138 -2.29061 0
M  V30 1524 H 136.125 2.49659 -3.4838 0
M  V30 1525 H 140.309 2.23793 -4.42979 0
M  V30 1526 H 135.565 1.91628 -5.80593 0
M  V30 1527 H 139.739 1.66752 -6.76141 0
M  V30 1528 H 137.366 1.50133 -7.45228 0
M  V30 1529 N 138.941 1.26152 0.944643 0
M  V30 1530 C 139.904 1.07474 2.0244 0
M  V30 1531 C 140.904 0.0242064 1.60782 0
M  V30 1532 O 142.094 0.267302 1.72137 0
M  V30 1533 C 139.226 0.633956 3.34953 0
M  V30 1534 H 140.419 2.03336 2.20442 0
M  V30 1535 H 137.972 1.087 1.12312 0
M  V30 1536 H 138.707 -0.326811 3.22649 0
M  V30 1537 H 138.492 1.39247 3.66542 0
M  V30 1538 H 139.982 0.52501 4.14287 0
M  V30 1539 N 140.419 -1.14872 1.07899 0
M  V30 1540 C 141.667 -1.85422 0.803941 0
M  V30 1541 C 141.988 -1.83051 -0.67211 0
M  V30 1542 O 141.258 -1.27532 -1.48703 0
M  V30 1543 H 139.838 -0.686537 0.294408 0
M  V30 1544 H 142.5 -1.39226 1.3639 0
M  V30 1545 H 141.596 -2.90399 1.14346 0
M  V30 1546 N 141.898 -0.863906 -1.31812 0
M  V30 1547 C 143.145 -0.471836 -1.96926 0
M  V30 1548 C 143.473 0.974578 -1.68322 0
M  V30 1549 O 142.728 1.7003 -0.968933 0
M  V30 1550 C 143.027 -0.668547 -3.51091 0
M  V30 1551 C 142.693 -2.08683 -3.99703 0
M  V30 1552 C 141.355 -2.47471 -4.12688 0
M  V30 1553 C 143.707 -3.01207 -4.25351 0
M  V30 1554 C 141.035 -3.78037 -4.4867 0
M  V30 1555 C 143.387 -4.31282 -4.62794 0
M  V30 1556 C 142.051 -4.69992 -4.73987 0
M  V30 1557 H 141.321 -0.172657 -0.720604 0
M  V30 1558 H 143.968 -1.09573 -1.57054 0
M  V30 1559 H 142.273 0.0385252 -3.91781 0
M  V30 1560 H 143.97 -0.345102 -3.99512 0
M  V30 1561 H 140.56 -1.77566 -3.90087 0
M  V30 1562 H 144.744 -2.72469 -4.14819 0
M  V30 1563 H 140 -4.078 -4.55532 0
M  V30 1564 H 144.174 -5.03031 -4.81594 0
M  V30 1565 H 141.801 -5.71207 -5.01624 0
M  V30 1566 N 143.376 1.44774 -0.622745 0
M  V30 1567 C 144.623 2.02121 -0.1239 0
M  V30 1568 C 144.951 1.48915 1.25118 0
M  V30 1569 O 144.206 0.660045 1.84233 0
M  V30 1570 C 144.505 3.57364 -0.0508323 0
M  V30 1571 C 144.171 4.29787 -1.36358 0
M  V30 1572 C 142.833 4.4929 -1.72314 0
M  V30 1573 C 145.185 4.71062 -2.23048 0
M  V30 1574 C 142.513 5.07325 -2.94682 0
M  V30 1575 C 144.865 5.30452 -3.44679 0
M  V30 1576 C 143.529 5.48175 -3.80868 0
M  V30 1577 H 142.799 0.739612 -0.0453381 0
M  V30 1578 H 145.446 1.73648 -0.807389 0
M  V30 1579 H 143.751 3.85202 0.715991 0
M  V30 1580 H 145.448 3.99456 0.351533 0
M  V30 1581 H 142.038 4.14932 -1.07375 0
M  V30 1582 H 146.222 4.55715 -1.96565 0
M  V30 1583 H 141.478 5.19235 -3.22809 0
M  V30 1584 H 145.652 5.61385 -4.12092 0
M  V30 1585 H 143.279 5.92912 -4.75773 0
M  V30 1586 N 144.854 0.36279 1.53368 0
M  V30 1587 C 146.1 -0.220702 2.02199 0
M  V30 1588 C 146.455 -1.46649 1.24546 0
M  V30 1589 O 145.748 -1.88737 0.32996 0
M  V30 1590 C 145.942 -0.568417 3.52851 0
M  V30 1591 C 145.771 0.642126 4.45092 0
M  V30 1592 C 144.541 1.15335 4.91961 0
M  V30 1593 C 146.739 1.50649 4.91741 0
M  V30 1594 N 144.721 2.3242 5.68202 0
M  V30 1595 C 146.092 2.52404 5.66297 0
M  V30 1596 C 148.147 1.52969 4.73819 0
M  V30 1597 C 146.85 3.56331 6.24836 0
M  V30 1598 C 148.876 2.55789 5.33222 0
M  V30 1599 C 148.238 3.56268 6.07662 0
M  V30 1600 H 144.337 -0.0435508 0.780786 0
M  V30 1601 H 146.921 0.506704 1.87991 0
M  V30 1602 H 145.092 -1.2649 3.67226 0
M  V30 1603 H 146.824 -1.13676 3.88407 0
M  V30 1604 H 143.579 0.718412 4.68119 0
M  V30 1605 H 144.003 2.91591 6.10986 0
M  V30 1606 H 148.645 0.766418 4.15795 0
M  V30 1607 H 146.363 4.33543 6.81958 0
M  V30 1608 H 149.949 2.58435 5.21251 0
M  V30 1609 H 148.829 4.34524 6.52808 0
M  V30 1610 N 146.332 -1.57332 0.0918853 0
M  V30 1611 C 147.295 -2.12708 -0.85369 0
M  V30 1612 C 148.295 -1.05561 -1.213 0
M  V30 1613 O 149.485 -1.31461 -1.14296 0
M  V30 1614 C 146.617 -2.64503 -2.15061 0
M  V30 1615 H 147.81 -2.97573 -0.3729 0
M  V30 1616 H 145.363 -1.55509 -0.157072 0
M  V30 1617 H 146.098 -1.83149 -2.67632 0
M  V30 1618 H 145.883 -3.4284 -1.90272 0
M  V30 1619 H 147.373 -3.07351 -2.82711 0
M  V30 1620 N 147.81 0.181792 -1.56548 0
M  V30 1621 C 149.057 0.900097 -1.81396 0
M  V30 1622 C 149.385 1.82695 -0.667281 0
M  V30 1623 O 148.64 1.92614 0.346146 0
M  V30 1624 C 148.939 1.73728 -3.12335 0
M  V30 1625 C 148.605 0.960255 -4.40556 0
M  V30 1626 C 147.267 0.745766 -4.75386 0
M  V30 1627 C 149.619 0.414477 -5.19549 0
M  V30 1628 C 146.947 -0.0257694 -5.86694 0
M  V30 1629 C 149.299 -0.343916 -6.31664 0
M  V30 1630 C 147.963 -0.569301 -6.65068 0
M  V30 1631 H 147.233 0.329369 -0.663775 0
M  V30 1632 H 149.88 0.165647 -1.90782 0
M  V30 1633 H 148.185 2.54081 -2.98245 0
M  V30 1634 H 149.882 2.29591 -3.28769 0
M  V30 1635 H 146.472 1.13746 -4.13231 0
M  V30 1636 H 150.656 0.567554 -4.93044 0
M  V30 1637 H 145.912 -0.210233 -6.11038 0
M  V30 1638 H 150.086 -0.774133 -6.92084 0
M  V30 1639 H 147.713 -1.16903 -7.51158 0
M  V30 1640 N 149.288 1.51039 0.449983 0
M  V30 1641 C 150.518 1.66627 1.22143 0
M  V30 1642 C 150.926 0.357776 1.85786 0
M  V30 1643 O 150.269 -0.672424 1.70951 0
M  V30 1644 C 150.331 2.71562 2.35573 0
M  V30 1645 C 149.995 4.14526 1.92399 0
M  V30 1646 C 150.992 4.99717 1.43453 0
M  V30 1647 C 148.677 4.60559 2.00475 0
M  V30 1648 C 150.671 6.28998 1.03155 0
M  V30 1649 C 148.358 5.8984 1.59788 0
M  V30 1650 C 149.356 6.73886 1.11208 0
M  V30 1651 O 149.044 8.0075 0.710935 0
M  V30 1652 H 148.776 0.562635 0.374724 0
M  V30 1653 H 151.33 1.98146 0.541036 0
M  V30 1654 H 149.56 2.3533 3.06849 0
M  V30 1655 H 151.249 2.76156 2.97478 0
M  V30 1656 H 152.015 4.65361 1.36618 0
M  V30 1657 H 147.894 3.95273 2.37235 0
M  V30 1658 H 151.438 6.9455 0.651663 0
M  V30 1659 H 147.335 6.23713 1.66289 0
M  V30 1660 H 148.103 8.142 0.837913 0
M  V30 1661 N 150.766 -0.704594 1.40972 0
M  V30 1662 C 151.716 -1.81051 1.38581 0
M  V30 1663 C 152.7 -1.58759 0.261585 0
M  V30 1664 O 153.892 -1.69745 0.501556 0
M  V30 1665 C 151.021 -3.19279 1.26157 0
M  V30 1666 C 150.107 -3.47296 2.43405 0
M  V30 1667 N 150.498 -3.46064 3.68881 0
M  V30 1668 C 148.796 -3.77804 2.37023 0
M  V30 1669 C 149.497 -3.72733 4.46592 0
M  V30 1670 N 148.473 -3.9203 3.76581 0
M  V30 1671 H 152.275 -1.78448 2.33525 0
M  V30 1672 H 149.789 -0.904198 1.349 0
M  V30 1673 H 151.786 -3.98488 1.22526 0
M  V30 1674 H 150.446 -3.231 0.321902 0
M  V30 1675 H 151.457 -3.26656 4.01891 0
M  V30 1676 H 148.134 -3.8905 1.51481 0
M  V30 1677 H 149.524 -3.77993 5.55492 0
M  V30 1678 N 152.244 -1.26651 -0.937939 0
M  V30 1679 C 153.469 -1.15279 -1.72411 0
M  V30 1680 C 153.894 0.287866 -1.85884 0
M  V30 1681 O 153.252 1.20855 -1.35143 0
M  V30 1682 C 153.3 -1.83028 -3.10698 0
M  V30 1683 O 152.404 -1.12128 -3.96864 0
M  V30 1684 H 151.745 -0.401504 -0.528858 0
M  V30 1685 H 154.275 -1.67531 -1.1745 0
M  V30 1686 H 154.285 -1.89981 -3.6107 0
M  V30 1687 H 152.96 -2.87833 -3.00208 0
M  V30 1688 H 151.537 -1.13173 -3.55312 0
M  V30 1689 N 153.722 1.14298 -1.08507 0
M  V30 1690 C 154.947 1.8976 -0.837001 0
M  V30 1691 C 155.372 1.78097 0.605228 0
M  V30 1692 O 154.73 1.12188 1.4242 0
M  V30 1693 C 154.778 3.37685 -1.26495 0
M  V30 1694 O 153.882 4.10281 -0.417514 0
M  V30 1695 H 153.223 0.590365 -0.303917 0
M  V30 1696 H 155.753 1.44672 -1.44676 0
M  V30 1697 H 155.763 3.88501 -1.24625 0
M  V30 1698 H 154.438 3.45492 -2.31534 0
M  V30 1699 H 153.015 3.69536 -0.499722 0
M  V30 1700 N 155.201 0.870884 1.31352 0
M  V30 1701 C 156.131 0.343096 2.30966 0
M  V30 1702 C 157.112 -0.566507 1.60389 0
M  V30 1703 O 158.297 -0.483336 1.88089 0
M  V30 1704 C 155.427 -0.455487 3.443 0
M  V30 1705 C 154.381 0.361103 4.26474 0
M  V30 1706 C 153.707 -0.563221 5.31725 0
M  V30 1707 C 155.007 1.59566 4.97329 0
M  V30 1708 H 156.701 1.17548 2.75359 0
M  V30 1709 H 154.247 0.566686 1.32381 0
M  V30 1710 H 156.2 -0.83525 4.13039 0
M  V30 1711 H 154.924 -1.32139 2.98675 0
M  V30 1712 H 153.583 0.722825 3.59403 0
M  V30 1713 H 153.231 -1.42643 4.82351 0
M  V30 1714 H 152.931 -0.0207409 5.87596 0
M  V30 1715 H 154.455 -0.939808 6.03324 0
M  V30 1716 H 155.869 1.28728 5.58661 0
M  V30 1717 H 154.266 2.07728 5.63 0
M  V30 1718 H 155.336 2.34798 4.24262 0
M  V30 1719 N 156.679 -1.44442 0.630414 0
M  V30 1720 C 157.642 -2.29107 -0.0652523 0
M  V30 1721 C 158.642 -1.41002 -0.772995 0
M  V30 1722 O 159.832 -1.62881 -0.617692 0
M  V30 1723 C 156.964 -3.22564 -1.10296 0
M  V30 1724 H 158.157 -2.92103 0.679401 0
M  V30 1725 H 155.71 -1.51343 0.390517 0
M  V30 1726 H 156.445 -2.64416 -1.87762 0
M  V30 1727 H 156.23 -3.87491 -0.59941 0
M  V30 1728 H 157.72 -3.86167 -1.5895 0
M  V30 1729 N 158.157 -0.370918 -1.53173 0
M  V30 1730 C 159.568 0.107139 -1.86392 0
M  V30 1731 C 159.919 1.47714 -1.29132 0
M  V30 1732 O 159.044 2.07464 -0.615439 0
M  V30 1733 C 159.639 0.201187 -3.38202 0
M  V30 1734 C 158.198 0.623507 -3.712 0
M  V30 1735 C 157.345 -0.225978 -2.76378 0
M  V30 1736 H 160.296 -0.58951 -1.47345 0
M  V30 1737 H 160.317 1.02377 -3.66468 0
M  V30 1738 H 159.829 -0.796058 -3.79848 0
M  V30 1739 H 157.93 1.62879 -3.35114 0
M  V30 1740 H 158.043 0.394414 -4.77474 0
M  V30 1741 H 156.407 0.305962 -2.52856 0
M  V30 1742 H 157.19 -1.22086 -3.20858 0
M  V30 1743 N 159.635 1.57281 -0.100228 0
M  V30 1744 C 160.863 1.98879 0.570509 0
M  V30 1745 C 161.278 0.979476 1.61405 0
M  V30 1746 O 160.635 -0.0302288 1.82475 0
M  V30 1747 C 160.686 3.4052 1.2136 0
M  V30 1748 O 160.407 4.37588 0.211786 0
M  V30 1749 C 161.908 3.97149 1.96945 0
M  V30 1750 H 159.128 0.653428 0.152555 0
M  V30 1751 H 161.672 2.03697 -0.18103 0
M  V30 1752 H 159.827 3.367 1.91603 0
M  V30 1753 H 160.241 5.20118 0.676607 0
M  V30 1754 H 161.715 4.98393 2.37294 0
M  V30 1755 H 162.192 3.3525 2.83733 0
M  V30 1756 H 162.798 4.04458 1.31506 0
M  V30 1757 N 161.113 -0.173488 1.56642 0
M  V30 1758 C 162.524 -0.736155 1.71574 0
M  V30 1759 C 162.875 -1.82888 0.710389 0
M  V30 1760 O 162 -2.16017 -0.1287 0
M  V30 1761 C 162.595 -1.34211 3.11083 0
M  V30 1762 C 161.154 -1.85162 3.27707 0
M  V30 1763 C 160.301 -0.729765 2.67525 0
M  V30 1764 H 163.252 0.0518786 1.58615 0
M  V30 1765 H 163.273 -2.21178 3.09613 0
M  V30 1766 H 162.785 -0.546579 3.84232 0
M  V30 1767 H 160.886 -2.67366 2.59512 0
M  V30 1768 H 160.999 -1.99855 4.35425 0
M  V30 1769 H 159.363 -1.14965 2.27278 0
M  V30 1770 H 160.146 0.0538806 3.43258 0
M  V30 1771 N 162.591 -1.51276 -0.441967 0
M  V30 1772 C 163.523 -1.68444 -1.55433 0
M  V30 1773 C 164.536 -0.565187 -1.52674 0
M  V30 1774 O 165.725 -0.839356 -1.57534 0
M  V30 1775 C 162.825 -1.67966 -2.94348 0
M  V30 1776 C 161.998 -2.964 -3.21661 0
M  V30 1777 C 161.057 -2.88171 -4.40277 0
M  V30 1778 O 160.083 -3.62119 -4.39157 0
M  V30 1779 N 161.285 -2.03706 -5.43584 0
M  V30 1780 H 164.05 -2.644 -1.41112 0
M  V30 1781 H 161.611 -1.49104 -0.630838 0
M  V30 1782 H 163.603 -1.60035 -3.71713 0
M  V30 1783 H 162.173 -0.796225 -3.0229 0
M  V30 1784 H 161.393 -3.18234 -2.32638 0
M  V30 1785 H 162.681 -3.81427 -3.36736 0
M  V30 1786 H 162.079 -1.42995 -5.47329 0
M  V30 1787 H 160.636 -2.01658 -6.1982 0
M  V30 1788 N 164.069 0.697108 -1.41344 0
M  V30 1789 C 164.999 1.82353 -1.45841 0
M  V30 1790 C 165.98 1.67115 -0.317247 0
M  V30 1791 O 167.165 1.86871 -0.528474 0
M  V30 1792 C 164.295 3.20476 -1.33838 0
M  V30 1793 C 163.249 3.50415 -2.4575 0
M  V30 1794 C 162.575 4.87878 -2.18813 0
M  V30 1795 C 163.875 3.49546 -3.88091 0
M  V30 1796 H 165.569 1.78846 -2.40113 0
M  V30 1797 H 163.115 0.859028 -1.15571 0
M  V30 1798 H 165.068 3.98988 -1.35596 0
M  V30 1799 H 163.792 3.24604 -0.360498 0
M  V30 1800 H 162.451 2.74253 -2.43271 0
M  V30 1801 H 162.099 4.8863 -1.19371 0
M  V30 1802 H 161.799 5.08875 -2.93803 0
M  V30 1803 H 163.323 5.68702 -2.22284 0
M  V30 1804 H 164.737 4.18066 -3.92293 0
M  V30 1805 H 163.134 3.82075 -4.62751 0
M  V30 1806 H 164.204 2.48552 -4.16353 0
M  V30 1807 N 165.547 1.27147 0.931209 0
M  V30 1808 C 166.795 1.13055 1.6752 0
M  V30 1809 C 167.116 -0.324791 1.92276 0
M  V30 1810 O 166.386 -1.22775 1.52654 0
M  V30 1811 H 164.966 0.415391 0.620854 0
M  V30 1812 H 167.628 1.59623 1.11833 0
M  V30 1813 H 166.724 1.65694 2.64485 0
M  V30 1814 N 167.025 -1.13721 1.09112 0
M  V30 1815 C 168.273 -1.84559 0.823562 0
M  V30 1816 C 168.594 -1.83754 -0.652658 0
M  V30 1817 O 167.864 -1.29102 -1.47342 0
M  V30 1818 H 166.444 -0.683376 0.301673 0
M  V30 1819 H 169.106 -1.37771 1.37859 0
M  V30 1820 H 168.202 -2.8917 1.17419 0
M  V30 1821 N 168.503 -0.877838 -1.30888 0
M  V30 1822 C 169.453 -0.310872 -2.25871 0
M  V30 1823 C 170.437 0.556596 -1.50966 0
M  V30 1824 O 171.629 0.402187 -1.7237 0
M  V30 1825 C 168.758 0.479821 -3.3993 0
M  V30 1826 C 167.844 -0.401333 -4.22197 0
M  V30 1827 N 168.235 -1.49848 -4.83093 0
M  V30 1828 C 166.533 -0.195167 -4.45573 0
M  V30 1829 C 167.234 -2.0425 -5.44662 0
M  V30 1830 N 166.21 -1.33843 -5.26865 0
M  V30 1831 H 170.012 -1.1493 -2.70496 0
M  V30 1832 H 167.526 -0.726458 -1.45246 0
M  V30 1833 H 169.523 0.902582 -4.07012 0
M  V30 1834 H 168.183 1.31577 -2.96846 0
M  V30 1835 H 169.194 -1.88137 -4.82519 0
M  V30 1836 H 165.871 0.604192 -4.13105 0
M  V30 1837 H 167.261 -2.96345 -6.03017 0
M  V30 1838 N 169.982 1.44106 -0.638065 0
M  V30 1839 C 171.228 2.02815 -0.15409 0
M  V30 1840 C 171.583 1.49342 1.21304 0
M  V30 1841 O 170.876 0.670699 1.79478 0
M  V30 1842 C 171.07 3.5729 -0.0887327 0
M  V30 1843 C 170.899 4.2575 -1.44799 0
M  V30 1844 C 169.669 4.62443 -2.03653 0
M  V30 1845 C 171.867 4.55746 -2.38327 0
M  V30 1846 N 169.849 5.15903 -3.32741 0
M  V30 1847 C 171.22 5.10364 -3.52036 0
M  V30 1848 C 173.275 4.37703 -2.3732 0
M  V30 1849 C 171.978 5.48837 -4.64941 0
M  V30 1850 C 174.004 4.77229 -3.49294 0
M  V30 1851 C 173.366 5.31966 -4.61726 0
M  V30 1852 H 169.465 0.775519 -0.100466 0
M  V30 1853 H 172.049 1.755 -0.843071 0
M  V30 1854 H 170.22 3.84201 0.569548 0
M  V30 1855 H 171.952 4.02671 0.404711 0
M  V30 1856 H 168.707 4.46987 -1.56523 0
M  V30 1857 H 169.131 5.47102 -3.98758 0
M  V30 1858 H 173.773 3.94671 -1.51641 0
M  V30 1859 H 171.491 5.9082 -5.51323 0
M  V30 1860 H 175.077 4.64976 -3.49698 0
M  V30 1861 H 173.957 5.61986 -5.46939 0
M  V30 1862 N 171.46 0.379036 1.52974 0
M  V30 1863 C 172.871 -0.0972525 1.86447 0
M  V30 1864 C 173.222 -1.47027 1.29914 0
M  V30 1865 O 172.347 -2.07135 0.626433 0
M  V30 1866 C 172.942 -0.183248 3.38304 0
M  V30 1867 C 171.501 -0.603812 3.71525 0
M  V30 1868 C 170.648 0.240632 2.76254 0
M  V30 1869 H 173.599 0.597316 1.4703 0
M  V30 1870 H 173.62 -1.00432 3.67006 0
M  V30 1871 H 173.132 0.816191 3.79421 0
M  V30 1872 H 171.233 -1.61099 3.35973 0
M  V30 1873 H 171.346 -0.369086 4.77676 0
M  V30 1874 H 169.71 -0.292548 2.53014 0
M  V30 1875 H 170.493 1.23786 3.20206 0
M  V30 1876 N 172.938 -1.57226 0.108567 0
M  V30 1877 C 174.349 -1.8195 -0.418464 0
M  V30 1878 C 174.7 -1.02508 -1.67292 0
M  V30 1879 O 173.825 -0.258496 -2.14851 0
M  V30 1880 C 174.42 -3.30028 -0.765979 0
M  V30 1881 C 172.979 -3.55469 -1.23769 0
M  V30 1882 C 172.126 -2.7625 -0.241106 0
M  V30 1883 H 175.077 -1.55149 0.33384 0
M  V30 1884 H 175.098 -3.44086 -1.62434 0
M  V30 1885 H 174.61 -3.87821 0.147219 0
M  V30 1886 H 172.711 -3.03022 -2.16814 0
M  V30 1887 H 172.824 -4.6408 -1.19022 0
M  V30 1888 H 171.188 -2.44133 -0.72602 0
M  V30 1889 H 171.971 -3.36797 0.665007 0
M  V30 1890 N 174.416 0.165178 -1.56732 0
M  V30 1891 C 175.644 0.896218 -1.86482 0
M  V30 1892 C 176.059 1.75555 -0.694675 0
M  V30 1893 O 175.416 1.79379 0.33607 0
M  V30 1894 C 175.467 1.76792 -3.1532 0
M  V30 1895 O 175.188 0.943239 -4.27825 0
M  V30 1896 C 176.689 2.6081 -3.58459 0
M  V30 1897 H 173.909 0.260064 -0.618553 0
M  V30 1898 H 176.453 0.163428 -2.03846 0
M  V30 1899 H 174.608 2.45398 -2.99764 0
M  V30 1900 H 175.022 1.53998 -5.01383 0
M  V30 1901 H 176.496 3.17579 -4.51495 0
M  V30 1902 H 176.973 3.35977 -2.82872 0
M  V30 1903 H 177.579 1.97526 -3.76648 0
M  V30 1904 N 175.894 1.51508 0.433938 0
M  V30 1905 C 177.142 1.6402 1.18075 0
M  V30 1906 C 177.463 0.360328 1.91642 0
M  V30 1907 O 176.733 -0.623945 1.85698 0
M  V30 1908 H 175.313 0.6045 0.43885 0
M  V30 1909 H 177.975 1.88452 0.497178 0
M  V30 1910 H 177.071 2.46949 1.90847 0
M  V30 1911 N 177.372 -0.689602 1.41712 0
M  V30 1912 C 178.621 -1.44534 1.40686 0
M  V30 1913 C 178.934 -1.95588 0.0213352 0
M  V30 1914 O 180.14 -2.71271 -0.111534 0
M  V30 1915 C 178.596 -2.61387 2.47396 0
M  V30 1916 C 178.204 -2.17094 3.91885 0
M  V30 1917 C 179.948 -3.38986 2.55517 0
M  V30 1918 C 177.855 -3.3094 4.90135 0
M  V30 1919 H 176.785 -0.542925 0.52321 0
M  V30 1920 H 179.436 -0.748054 1.6756 0
M  V30 1921 H 177.818 -3.33412 2.13664 0
M  V30 1922 H 178.992 -1.52318 4.34897 0
M  V30 1923 H 177.307 -1.52473 3.8748 0
M  V30 1924 H 179.904 -4.23747 3.26102 0
M  V30 1925 H 180.247 -3.84578 1.59391 0
M  V30 1926 H 180.78 -2.74021 2.8837 0
M  V30 1927 H 177.519 -2.90355 5.87685 0
M  V30 1928 H 177.039 -3.94546 4.51767 0
M  V30 1929 H 178.718 -3.9663 5.11169 0
M  V30 1930 N 178.85 -1.27639 -0.924453 0
M  V30 1931 C 180.078 -1.16989 -1.70649 0
M  V30 1932 C 180.493 0.272869 -1.86818 0
M  V30 1933 O 179.85 1.18549 -1.38753 0
M  V30 1934 C 179.901 -1.85229 -3.10439 0
M  V30 1935 O 179.622 -3.23868 -2.95028 0
M  V30 1936 C 181.123 -1.80746 -4.04779 0
M  V30 1937 H 178.343 -0.406595 -0.53378 0
M  V30 1938 H 180.887 -1.68569 -1.15778 0
M  V30 1939 H 179.042 -1.37545 -3.6216 0
M  V30 1940 H 179.456 -3.57889 -3.83426 0
M  V30 1941 H 180.93 -2.33101 -5.00368 0
M  V30 1942 H 181.407 -0.777499 -4.32263 0
M  V30 1943 H 182.013 -2.28059 -3.58984 0
M  V30 1944 N 180.328 1.1314 -1.09713 0
M  V30 1945 C 181.739 1.66029 -0.853885 0
M  V30 1946 C 182.09 1.86241 0.617142 0
M  V30 1947 O 181.215 1.5834 1.47503 0
M  V30 1948 C 181.81 3.01599 -1.5435 0
M  V30 1949 C 180.369 3.51467 -1.34714 0
M  V30 1950 C 179.516 2.26648 -1.59769 0
M  V30 1951 H 182.467 0.970226 -1.25588 0
M  V30 1952 H 182.488 3.67709 -0.978267 0
M  V30 1953 H 182 2.86856 -2.6141 0
M  V30 1954 H 180.101 3.71408 -0.297838 0
M  V30 1955 H 180.214 4.314 -2.08401 0
M  V30 1956 H 178.578 2.33385 -1.01998 0
M  V30 1957 H 179.361 2.14467 -2.68065 0
M  V30 1958 N 181.806 0.884767 1.30421 0
M  V30 1959 C 182.736 0.367574 2.30589 0
M  V30 1960 C 183.717 -0.549464 1.60981 0
M  V30 1961 O 184.902 -0.46336 1.88591 0
M  V30 1962 C 182.032 -0.418944 3.44764 0
M  V30 1963 C 180.986 0.406316 4.26067 0
M  V30 1964 C 180.312 -0.506793 5.32293 0
M  V30 1965 C 181.612 1.64832 4.95608 0
M  V30 1966 H 183.306 1.20462 2.74097 0
M  V30 1967 H 180.852 0.580695 1.31772 0
M  V30 1968 H 182.805 -0.791395 4.13902 0
M  V30 1969 H 181.529 -1.28964 3.0006 0
M  V30 1970 H 180.188 0.760903 3.58617 0
M  V30 1971 H 179.836 -1.37519 4.83836 0
M  V30 1972 H 179.536 0.0415828 5.87585 0
M  V30 1973 H 181.06 -0.875764 6.04287 0
M  V30 1974 H 182.474 1.34646 5.57264 0
M  V30 1975 H 180.871 2.13688 5.60765 0
M  V30 1976 H 181.941 2.39284 4.21748 0
M  V30 1977 N 183.284 -1.43765 0.645699 0
M  V30 1978 C 184.232 -2.32516 -0.0624849 0
M  V30 1979 C 185.226 -1.48183 -0.820855 0
M  V30 1980 O 186.432 -1.64439 -0.732106 0
M  V30 1981 H 182.807 -0.750989 -0.0389864 0
M  V30 1982 H 184.778 -2.89979 0.703892 0
M  V30 1983 C 183.527 -3.32389 -1.02044 0
M  V30 1984 H 182.85 -3.97301 -0.446312 0
M  V30 1985 H 184.29 -3.97138 -1.48517 0
M  V30 1986 C 182.749 -2.62416 -2.11281 0
M  V30 1987 O 183.279 -2.434 -3.19561 0
M  V30 1988 N 181.485 -2.21913 -1.87624 0
M  V30 1989 H 181.032 -2.37578 -0.995703 0
M  V30 1990 H 180.99 -1.75424 -2.6091 0
M  V30 1991 N 184.763 -0.387143 -1.52771 0
M  V30 1992 C 186.174 0.0873634 -1.86495 0
M  V30 1993 C 186.525 1.46336 -1.30691 0
M  V30 1994 O 185.65 2.068 -0.637409 0
M  V30 1995 C 186.245 0.165305 -3.38396 0
M  V30 1996 C 184.804 0.584101 -3.7184 0
M  V30 1997 C 183.951 -0.255279 -2.76122 0
M  V30 1998 H 186.902 -0.605104 -1.46711 0
M  V30 1999 H 186.923 0.984848 -3.67534 0
M  V30 2000 H 186.435 -0.836301 -3.78982 0
M  V30 2001 H 184.536 1.59315 -3.36823 0
M  V30 2002 H 184.649 0.343749 -4.77865 0
M  V30 2003 H 183.013 0.279126 -2.53166 0
M  V30 2004 H 183.796 -1.25482 -3.19545 0
M  V30 2005 N 186.241 1.57166 -0.116904 0
M  V30 2006 C 187.171 2.18222 0.830759 0
M  V30 2007 C 188.152 1.12167 1.27877 0
M  V30 2008 O 189.337 1.40394 1.34176 0
M  V30 2009 C 186.467 2.77996 2.08172 0
M  V30 2010 C 185.421 3.89614 1.77157 0
M  V30 2011 C 184.747 4.36187 3.09265 0
M  V30 2012 C 186.047 5.1181 1.04151 0
M  V30 2013 H 187.741 2.97664 0.321992 0
M  V30 2014 H 185.287 1.4318 0.153434 0
M  V30 2015 H 187.24 3.19366 2.74924 0
M  V30 2016 H 185.964 1.9584 2.6137 0
M  V30 2017 H 184.623 3.48816 1.12796 0
M  V30 2018 H 184.271 3.50893 3.60393 0
M  V30 2019 H 183.971 5.11455 2.89288 0
M  V30 2020 H 185.495 4.80207 3.77139 0
M  V30 2021 H 186.909 5.50214 1.61052 0
M  V30 2022 H 185.306 5.92648 0.942762 0
M  V30 2023 H 186.376 4.84892 0.0279022 0
M  V30 2024 N 187.719 -0.156864 1.56817 0
M  V30 2025 C 188.629 -1.2136 2.00771 0
M  V30 2026 C 189.645 -1.47598 0.921459 0
M  V30 2027 O 190.821 -1.59462 1.2302 0
M  V30 2028 C 187.886 -2.52943 2.37109 0
M  V30 2029 C 186.947 -2.34439 3.59634 0
M  V30 2030 C 186.18 -3.59748 3.94229 0
M  V30 2031 O 186.403 -4.65526 3.29609 0
M  V30 2032 O 185.337 -3.52998 4.8752 0
M  V30 2033 H 189.163 -0.870468 2.90958 0
M  V30 2034 H 186.748 -0.36484 1.44877 0
M  V30 2035 H 188.63 -3.30538 2.61386 0
M  V30 2036 H 187.305 -2.86806 1.5008 0
M  V30 2037 H 186.212 -1.54828 3.40557 0
M  V30 2038 H 187.545 -2.05496 4.4725 0
M  V30 2039 N 189.197 -1.51736 -0.425897 0
M  V30 2040 C 190.443 -1.65214 -1.1761 0
M  V30 2041 C 190.776 -0.372778 -1.90589 0
M  V30 2042 O 190.051 0.628139 -1.84078 0
M  V30 2043 C 190.334 -2.86312 -2.18398 0
M  V30 2044 C 190.187 -4.24254 -1.49426 0
M  V30 2045 C 191.506 -3.02925 -3.19256 0
M  V30 2046 H 188.625 -0.601263 -0.426206 0
M  V30 2047 H 191.267 -1.8425 -0.463882 0
M  V30 2048 H 189.417 -2.70213 -2.79137 0
M  V30 2049 H 191.089 -4.52046 -0.919362 0
M  V30 2050 H 189.332 -4.26426 -0.796432 0
M  V30 2051 H 190.003 -5.05001 -2.22885 0
M  V30 2052 H 192.479 -3.1781 -2.68581 0
M  V30 2053 H 191.355 -3.89199 -3.8706 0
M  V30 2054 H 191.616 -2.15497 -3.86023 0
M  V30 2055 N 190.675 0.682077 -1.42076 0
M  V30 2056 C 192.086 1.26246 -1.37546 0
M  V30 2057 C 192.437 1.96092 -0.0651481 0
M  V30 2058 O 191.562 1.99587 0.836297 0
M  V30 2059 C 192.157 2.29594 -2.49143 0
M  V30 2060 C 190.716 2.83175 -2.47969 0
M  V30 2061 C 189.863 1.57395 -2.28303 0
M  V30 2062 H 192.814 0.475937 -1.51395 0
M  V30 2063 H 192.835 3.11175 -2.18976 0
M  V30 2064 H 192.347 1.78729 -3.44496 0
M  V30 2065 H 190.448 3.3818 -1.56413 0
M  V30 2066 H 190.561 3.32687 -3.44755 0
M  V30 2067 H 188.925 1.83699 -1.76428 0
M  V30 2068 H 189.708 1.08507 -3.25701 0
M  V30 2069 N 192.153 1.28127 0.917671 0
M  V30 2070 C 193.083 1.14248 2.03641 0
M  V30 2071 C 194.064 0.0412748 1.7005 0
M  V30 2072 O 195.249 0.217566 1.92977 0
M  V30 2073 C 192.379 0.799431 3.37974 0
M  V30 2074 C 191.333 1.85497 3.85713 0
M  V30 2075 C 190.659 1.36565 5.16966 0
M  V30 2076 C 191.959 3.26085 4.08002 0
M  V30 2077 H 193.653 2.07835 2.15511 0
M  V30 2078 H 191.199 1.00064 1.03553 0
M  V30 2079 H 193.152 0.689114 4.15727 0
M  V30 2080 H 191.876 -0.172145 3.26146 0
M  V30 2081 H 190.535 1.95437 3.10161 0
M  V30 2082 H 190.183 0.383253 5.01538 0
M  V30 2083 H 189.883 2.07143 5.49878 0
M  V30 2084 H 191.407 1.26848 5.97279 0
M  V30 2085 H 192.821 3.19089 4.76293 0
M  V30 2086 H 191.218 3.94462 4.52238 0
M  V30 2087 H 192.288 3.70394 3.12948 0
M  V30 2088 N 193.631 -1.12557 1.10312 0
M  V30 2089 C 194.561 -2.20341 0.772798 0
M  V30 2090 C 195.542 -1.68198 -0.25365 0
M  V30 2091 O 196.727 -1.93831 -0.119699 0
M  V30 2092 C 193.857 -3.46709 0.202443 0
M  V30 2093 C 192.811 -4.11996 1.15943 0
M  V30 2094 C 192.137 -5.328 0.450345 0
M  V30 2095 C 193.437 -4.5828 2.50552 0
M  V30 2096 H 195.131 -2.48229 1.674 0
M  V30 2097 H 192.677 -1.19308 0.806326 0
M  V30 2098 H 194.63 -4.2138 -0.0407752 0
M  V30 2099 H 193.354 -3.18245 -0.734001 0
M  V30 2100 H 192.013 -3.39305 1.38808 0
M  V30 2101 H 191.661 -5.00602 -0.490531 0
M  V30 2102 H 191.361 -5.7743 1.08851 0
M  V30 2103 H 192.885 -6.10219 0.215642 0
M  V30 2104 H 194.299 -5.2433 2.31843 0
M  V30 2105 H 192.696 -5.13683 3.10242 0
M  V30 2106 H 193.766 -3.72329 3.10643 0
M  V30 2107 N 195.109 -0.891671 -1.2995 0
M  V30 2108 C 196.057 -0.353066 -2.29905 0
M  V30 2109 C 197.051 0.543509 -1.60444 0
M  V30 2110 O 198.257 0.4272 -1.74857 0
M  V30 2111 H 194.632 -0.095531 -0.745907 0
M  V30 2112 H 196.603 -1.20961 -2.72784 0
M  V30 2113 C 195.352 0.411475 -3.45257 0
M  V30 2114 H 194.675 -0.269182 -3.98893 0
M  V30 2115 H 196.115 0.753328 -4.17254 0
M  V30 2116 C 194.574 1.6111 -2.9588 0
M  V30 2117 O 195.104 2.71045 -2.96475 0
M  V30 2118 N 193.31 1.45054 -2.51809 0
M  V30 2119 H 192.857 0.556175 -2.51524 0
M  V30 2120 H 192.815 2.25453 -2.1913 0
M  V30 2121 N 196.587 1.43421 -0.653314 0
M  V30 2122 C 197.815 2.06163 -0.174491 0
M  V30 2123 C 198.23 1.48969 1.1599 0
M  V30 2124 O 197.587 0.621042 1.71608 0
M  V30 2125 C 197.638 3.61417 -0.0774865 0
M  V30 2126 O 197.359 4.16485 -1.35912 0
M  V30 2127 C 198.86 4.41235 0.427402 0
M  V30 2128 H 196.08 0.664946 -0.0899353 0
M  V30 2129 H 198.624 1.83924 -0.893988 0
M  V30 2130 H 196.779 3.82841 0.59257 0
M  V30 2131 H 197.193 5.10153 -1.21839 0
M  V30 2132 H 198.667 5.5021 0.44423 0
M  V30 2133 H 199.144 4.14268 1.45873 0
M  V30 2134 H 199.75 4.2478 -0.210167 0
M  V30 2135 N 198.065 0.39524 1.52563 0
M  V30 2136 C 199.29 -0.187456 2.06551 0
M  V30 2137 C 199.715 -1.39249 1.26457 0
M  V30 2138 O 199.073 -1.78947 0.291151 0
M  V30 2139 C 199.121 -0.529985 3.56684 0
M  V30 2140 O 198.225 -1.62307 3.79118 0
M  V30 2141 H 197.566 -0.0202537 0.663691 0
M  V30 2142 H 200.096 0.564426 1.96661 0
M  V30 2143 H 200.106 -0.792598 4.00227 0
M  V30 2144 H 198.781 0.350987 4.14416 0
M  V30 2145 H 197.358 -1.3537 3.47461 0
M  V30 2146 N 199.544 -1.57102 0.125237 0
M  V30 2147 C 200.79 -1.95697 -0.532035 0
M  V30 2148 C 201.123 -1.009 -1.6593 0
M  V30 2149 O 200.398 -0.047347 -1.94442 0
M  V30 2150 C 200.681 -3.44181 -1.05884 0
M  V30 2151 C 200.534 -4.49752 0.0654392 0
M  V30 2152 C 201.853 -3.94655 -1.9477 0
M  V30 2153 H 198.972 -0.711571 -0.191925 0
M  V30 2154 H 201.614 -1.88923 0.20206 0
M  V30 2155 H 199.764 -3.50085 -1.68442 0
M  V30 2156 H 201.436 -4.55943 0.700982 0
M  V30 2157 H 199.679 -4.27653 0.727709 0
M  V30 2158 H 200.35 -5.50924 -0.344505 0
M  V30 2159 H 202.826 -3.91094 -1.42074 0
M  V30 2160 H 201.702 -4.99057 -2.28546 0
M  V30 2161 H 201.963 -3.35718 -2.87656 0
M  V30 2162 N 201.022 0.148545 -1.56898 0
M  V30 2163 C 201.952 1.18524 -2.01182 0
M  V30 2164 C 202.933 1.4489 -0.891123 0
M  V30 2165 O 204.118 1.55836 -1.15882 0
M  V30 2166 C 201.248 2.51879 -2.39112 0
M  V30 2167 C 200.202 2.40038 -3.54353 0
M  V30 2168 C 199.528 3.78089 -3.78091 0
M  V30 2169 C 200.828 1.88577 -4.87069 0
M  V30 2170 H 202.522 0.817029 -2.88036 0
M  V30 2171 H 200.068 0.391575 -1.38574 0
M  V30 2172 H 202.021 3.24627 -2.68692 0
M  V30 2173 H 200.745 2.90532 -1.49193 0
M  V30 2174 H 199.404 1.69742 -3.24936 0
M  V30 2175 H 199.052 4.14175 -2.85426 0
M  V30 2176 H 198.752 3.71028 -4.55645 0
M  V30 2177 H 200.276 4.52387 -4.10095 0
M  V30 2178 H 201.69 2.51117 -5.15377 0
M  V30 2179 H 200.087 1.9241 -5.68417 0
M  V30 2180 H 201.157 0.84136 -4.77545 0
M  V30 2181 N 202.5 1.5196 0.417844 0
M  V30 2182 C 203.43 1.77634 1.51554 0
M  V30 2183 C 204.411 0.626918 1.58126 0
M  V30 2184 O 205.596 0.871632 1.7354 0
M  V30 2185 C 202.726 1.91911 2.8946 0
M  V30 2186 C 201.68 3.07463 2.97743 0
M  V30 2187 C 201.006 3.06951 4.37819 0
M  V30 2188 C 202.306 4.47082 2.70027 0
M  V30 2189 H 204 2.6955 1.3032 0
M  V30 2190 H 201.546 1.29706 0.625492 0
M  V30 2191 H 203.499 2.08455 3.6623 0
M  V30 2192 H 202.223 0.966598 3.11969 0
M  V30 2193 H 200.882 2.90656 2.23416 0
M  V30 2194 H 200.53 2.09438 4.57323 0
M  V30 2195 H 200.23 3.84556 4.44286 0
M  V30 2196 H 201.754 3.25613 5.16535 0
M  V30 2197 H 203.168 4.6414 3.36522 0
M  V30 2198 H 201.565 5.2654 2.87881 0
M  V30 2199 H 202.635 4.55777 1.65514 0
M  V30 2200 N 203.978 -0.674533 1.42435 0
M  V30 2201 C 204.941 -1.76986 1.45632 0
M  V30 2202 C 205.941 -1.5708 0.343871 0
M  V30 2203 O 207.131 -1.63367 0.604709 0
M  V30 2204 C 204.263 -3.15623 1.28822 0
M  V30 2205 H 205.456 -1.75539 2.43158 0
M  V30 2206 H 203.009 -0.884189 1.28887 0
M  V30 2207 H 203.744 -3.22696 0.322193 0
M  V30 2208 H 203.529 -3.31475 2.09444 0
M  V30 2209 H 205.019 -3.95537 1.33942 0
M  V30 2210 N 205.456 -1.28612 -0.910864 0
M  V30 2211 C 206.681 -1.1891 -1.69927 0
M  V30 2212 C 207.106 0.248372 -1.86453 0
M  V30 2213 O 206.464 1.17961 -1.37676 0
M  V30 2214 C 206.512 -1.89578 -3.06745 0
M  V30 2215 O 205.616 -1.20521 -3.94396 0
M  V30 2216 H 204.957 -0.412632 -0.520222 0
M  V30 2217 H 207.487 -1.69985 -1.1387 0
M  V30 2218 H 207.497 -1.97597 -3.56958 0
M  V30 2219 H 206.172 -2.94136 -2.94035 0
M  V30 2220 H 204.749 -1.20684 -3.52831 0
M  V30 2221 N 206.934 1.1197 -1.10907 0
M  V30 2222 C 208.182 1.83225 -0.852819 0
M  V30 2223 C 208.503 1.84769 0.623341 0
M  V30 2224 O 207.773 1.3143 1.45269 0
M  V30 2225 H 206.353 0.67849 -0.312507 0
M  V30 2226 H 209.015 1.3556 -1.40033 0
M  V30 2227 H 208.111 2.87265 -1.22005 0
M  V30 2228 N 208.412 0.89855 1.29475 0
M  V30 2229 C 209.658 0.524658 1.95896 0
M  V30 2230 C 209.991 -0.926468 1.70676 0
M  V30 2231 O 209.266 -1.65665 1.01908 0
M  V30 2232 C 209.549 0.81633 3.50725 0
M  V30 2233 C 209.402 2.31907 3.85408 0
M  V30 2234 C 210.721 0.302038 4.39062 0
M  V30 2235 H 207.84 0.19209 0.711527 0
M  V30 2236 H 210.482 1.12502 1.53112 0
M  V30 2237 H 208.632 0.305369 3.87298 0
M  V30 2238 H 210.304 2.89949 3.58786 0
M  V30 2239 H 208.547 2.78027 3.32992 0
M  V30 2240 H 209.218 2.47373 4.93468 0
M  V30 2241 H 211.694 0.739551 4.09475 0
M  V30 2242 H 210.57 0.535331 5.46283 0
M  V30 2243 H 210.831 -0.797216 4.34853 0
M  V30 2244 N 209.89 -1.43072 0.660911 0
M  V30 2245 C 211.115 -2.06584 0.183805 0
M  V30 2246 C 211.54 -1.49257 -1.14472 0
M  V30 2247 O 210.898 -0.605528 -1.70889 0
M  V30 2248 C 210.946 -3.60418 0.114434 0
M  V30 2249 O 210.05 -4.01981 -0.921137 0
M  V30 2250 H 209.391 -0.656669 0.0983994 0
M  V30 2251 H 211.921 -1.83447 0.906006 0
M  V30 2252 H 211.931 -4.07946 -0.0663394 0
M  V30 2253 H 210.606 -4.01519 1.08422 0
M  V30 2254 H 209.183 -3.66029 -0.71253 0
M  V30 2255 N 211.368 -0.403325 -1.52352 0
M  V30 2256 C 212.617 0.175668 -2.00934 0
M  V30 2257 C 212.93 1.46718 -1.29356 0
M  V30 2258 O 214.136 2.12708 -1.68724 0
M  V30 2259 C 212.592 0.363612 -3.58058 0
M  V30 2260 C 212.2 -0.915472 -4.38547 0
M  V30 2261 C 213.944 0.89821 -4.14888 0
M  V30 2262 C 211.851 -0.695035 -5.87302 0
M  V30 2263 H 210.781 0.0694234 -0.750797 0
M  V30 2264 H 213.432 -0.527879 -1.75743 0
M  V30 2265 H 211.814 1.12935 -3.79555 0
M  V30 2266 H 212.988 -1.68691 -4.28812 0
M  V30 2267 H 211.303 -1.37606 -3.93006 0
M  V30 2268 H 213.9 1.07907 -5.23699 0
M  V30 2269 H 214.243 1.87126 -3.71873 0
M  V30 2270 H 214.776 0.191681 -3.97338 0
M  V30 2271 H 211.515 -1.63948 -6.34666 0
M  V30 2272 H 211.035 0.0372116 -5.99788 0
M  V30 2273 H 212.714 -0.33497 -6.46132 0
M  V30 2274 N 212.846 1.57033 -0.133567 0
M  V30 2275 C 214.074 2.00044 0.528195 0
M  V30 2276 C 214.489 1.01349 1.59291 0
M  V30 2277 O 213.846 0.00848369 1.82498 0
M  V30 2278 C 213.897 3.43018 1.1411 0
M  V30 2279 O 213.618 4.37939 0.11892 0
M  V30 2280 C 215.119 4.01237 1.88477 0
M  V30 2281 H 212.339 0.656517 0.138661 0
M  V30 2282 H 214.883 2.03267 -0.224196 0
M  V30 2283 H 213.038 3.40688 1.84418 0
M  V30 2284 H 213.452 5.21436 0.56613 0
M  V30 2285 H 214.926 5.03314 2.26669 0
M  V30 2286 H 215.403 3.41193 2.76558 0
M  V30 2287 H 216.009 4.07156 1.22898 0
M  V30 2288 N 214.325 -0.140222 1.56975 0
M  V30 2289 C 215.571 -0.848084 1.84876 0
M  V30 2290 C 215.926 -1.78481 0.718481 0
M  V30 2291 O 215.219 -1.89497 -0.283093 0
M  V30 2292 C 215.413 -1.65386 3.16832 0
M  V30 2293 C 215.242 -0.79665 4.42587 0
M  V30 2294 C 214.012 -0.459648 5.03205 0
M  V30 2295 C 216.21 -0.12389 5.14151 0
M  V30 2296 N 214.192 0.410446 6.12526 0
M  V30 2297 C 215.563 0.606064 6.17031 0
M  V30 2298 C 217.618 -0.0452654 4.97879 0
M  V30 2299 C 216.321 1.40723 7.054 0
M  V30 2300 C 218.347 0.742658 5.86718 0
M  V30 2301 C 217.709 1.46087 6.89085 0
M  V30 2302 H 213.808 -0.287946 0.727056 0
M  V30 2303 H 216.392 -0.11304 1.94372 0
M  V30 2304 H 214.563 -2.36009 3.08471 0
M  V30 2305 H 216.295 -2.30541 3.32615 0
M  V30 2306 H 213.05 -0.797006 4.66846 0
M  V30 2307 H 213.474 0.836716 6.7181 0
M  V30 2308 H 218.116 -0.586184 4.18717 0
M  V30 2309 H 215.834 1.95938 7.83986 0
M  V30 2310 H 219.42 0.805574 5.76196 0
M  V30 2311 H 218.3 2.06077 7.56639 0
M  V30 2312 N 215.803 -1.52179 -0.40978 0
M  V30 2313 C 216.766 -1.74853 -1.48186 0
M  V30 2314 C 217.766 -0.618417 -1.48433 0
M  V30 2315 O 218.956 -0.886286 -1.49969 0
M  V30 2316 C 216.088 -1.8303 -2.87598 0
M  V30 2317 H 217.281 -2.70559 -1.29374 0
M  V30 2318 H 214.834 -1.42586 -0.640233 0
M  V30 2319 H 215.569 -0.89236 -3.11781 0
M  V30 2320 H 215.354 -2.65187 -2.88822 0
M  V30 2321 H 216.844 -2.02316 -3.65319 0
M  V30 2322 N 217.281 0.66697 -1.42791 0
M  V30 2323 C 218.231 1.77313 -1.43332 0
M  V30 2324 C 219.215 1.5801 -0.303586 0
M  V30 2325 O 220.407 1.68356 -0.546385 0
M  V30 2326 C 217.536 3.15822 -1.34578 0
M  V30 2327 C 216.622 3.40721 -2.52528 0
M  V30 2328 N 217.013 3.36162 -3.77927 0
M  V30 2329 C 215.311 3.71387 -2.46956 0
M  V30 2330 C 216.012 3.60762 -4.56318 0
M  V30 2331 N 214.988 3.81908 -3.86843 0
M  V30 2332 H 218.79 1.72193 -2.38174 0
M  V30 2333 H 216.304 0.868114 -1.3725 0
M  V30 2334 H 218.301 3.951 -1.33048 0
M  V30 2335 H 216.961 3.22133 -0.407453 0
M  V30 2336 H 217.972 3.15885 -4.10411 0
M  V30 2337 H 214.649 3.84897 -1.61743 0
M  V30 2338 H 216.039 3.63132 -5.65318 0
M  V30 2339 N 218.759 1.29093 0.90403 0
M  V30 2340 C 219.709 1.10482 1.99443 0
M  V30 2341 C 220.693 0.0255401 1.6088 0
M  V30 2342 O 221.885 0.24677 1.75271 0
M  V30 2343 C 219.014 0.778882 3.34348 0
M  V30 2344 C 218.1 1.89749 3.79284 0
M  V30 2345 N 218.491 3.14045 3.96497 0
M  V30 2346 C 216.789 1.78955 4.08523 0
M  V30 2347 C 217.49 3.86996 4.34292 0
M  V30 2348 N 216.466 3.14909 4.43095 0
M  V30 2349 H 220.268 2.04778 2.10815 0
M  V30 2350 H 217.782 1.20155 1.09255 0
M  V30 2351 H 219.779 0.62661 4.12164 0
M  V30 2352 H 218.439 -0.156205 3.24324 0
M  V30 2353 H 219.45 3.49548 3.82148 0
M  V30 2354 H 216.127 0.926886 4.07081 0
M  V30 2355 H 217.517 4.93941 4.55491 0
M  V30 2356 N 220.237 -1.11381 1.11499 0
M  V30 2357 C 221.462 -1.87475 0.887019 0
M  V30 2358 C 221.887 -1.79639 -0.557796 0
M  V30 2359 O 221.245 -1.15924 -1.39396 0
M  V30 2360 C 221.293 -3.34213 1.35403 0
M  V30 2361 O 220.397 -4.0903 0.526146 0
M  V30 2362 H 219.738 -0.582099 0.319463 0
M  V30 2363 H 222.268 -1.40785 1.48461 0
M  V30 2364 H 222.278 -3.8506 1.34881 0
M  V30 2365 H 220.953 -3.39232 2.40612 0
M  V30 2366 H 219.53 -3.68082 0.597522 0
M  V30 2367 N 221.715 -0.905404 -1.28997 0
M  V30 2368 C 222.645 -0.404212 -2.29975 0
M  V30 2369 C 223.626 0.523784 -1.61835 0
M  V30 2370 O 224.811 0.433298 -1.89304 0
M  V30 2371 C 221.941 0.364042 -3.45387 0
M  V30 2372 C 220.895 -0.474048 -4.25367 0
M  V30 2373 C 220.221 0.422045 -5.33032 0
M  V30 2374 C 221.521 -1.72696 -4.92923 0
M  V30 2375 H 223.215 -1.24807 -2.72146 0
M  V30 2376 H 220.761 -0.601585 -1.30832 0
M  V30 2377 H 222.714 0.725447 -4.15109 0
M  V30 2378 H 221.438 1.24174 -3.02074 0
M  V30 2379 H 220.097 -0.81786 -3.57361 0
M  V30 2380 H 219.745 1.29804 -4.85963 0
M  V30 2381 H 219.445 -0.135057 -5.87445 0
M  V30 2382 H 220.969 0.779517 -6.05604 0
M  V30 2383 H 222.383 -1.43495 -5.55051 0
M  V30 2384 H 220.78 -2.22582 -5.57295 0
M  V30 2385 H 221.85 -2.45964 -4.17887 0
M  V30 2386 N 223.193 1.4272 -0.668489 0
M  V30 2387 C 224.126 2.28111 0.0637898 0
M  V30 2388 C 225.104 1.40705 0.814912 0
M  V30 2389 O 226.288 1.70146 0.81134 0
M  V30 2390 C 223.415 3.20429 1.0974 0
M  V30 2391 C 222.461 4.24197 0.442579 0
M  V30 2392 S 223.294 5.29563 -0.795173 0
M  V30 2393 C 224.45 6.25449 0.237516 0
M  V30 2394 H 224.683 2.8987 -0.660521 0
M  V30 2395 H 222.216 1.47456 -0.457821 0
M  V30 2396 H 224.174 3.74158 1.68868 0
M  V30 2397 H 222.835 2.57818 1.79411 0
M  V30 2398 H 222.028 4.88954 1.22227 0
M  V30 2399 H 221.63 3.73925 -0.0749554 0
M  V30 2400 H 223.922 6.68524 1.09915 0
M  V30 2401 H 224.865 7.07104 -0.375421 0
M  V30 2402 H 225.273 5.61511 0.580167 0
M  V30 2403 N 224.671 0.411399 1.52136 0
M  V30 2404 C 225.581 -0.419774 2.30814 0
M  V30 2405 C 226.597 -1.0515 1.38634 0
M  V30 2406 O 227.773 -1.05252 1.71709 0
M  V30 2407 C 224.838 -1.52019 3.11594 0
M  V30 2408 C 223.899 -0.91129 4.19516 0
M  V30 2409 C 223.132 -1.95927 4.96436 0
M  V30 2410 O 223.355 -3.17775 4.73683 0
M  V30 2411 O 222.289 -1.56423 5.81219 0
M  V30 2412 H 226.115 0.221805 3.02889 0
M  V30 2413 H 223.7 0.174547 1.48377 0
M  V30 2414 H 225.582 -2.15898 3.61892 0
M  V30 2415 H 224.257 -2.14633 2.42311 0
M  V30 2416 H 223.164 -0.235157 3.7336 0
M  V30 2417 H 224.497 -0.32904 4.91099 0
M  V30 2418 N 226.149 -1.5696 0.141893 0
M  V30 2419 C 227.097 -2.17784 -0.816874 0
M  V30 2420 C 228.091 -1.1334 -1.25899 0
M  V30 2421 O 229.297 -1.316 -1.22806 0
M  V30 2422 H 225.672 -0.697278 -0.281615 0
M  V30 2423 H 227.643 -2.97087 -0.279621 0
M  V30 2424 C 226.392 -2.80983 -2.04802 0
M  V30 2425 H 225.715 -3.61062 -1.7168 0
M  V30 2426 H 227.155 -3.2705 -2.69841 0
M  V30 2427 C 225.614 -1.79228 -2.8527 0
M  V30 2428 O 226.144 -1.25962 -3.8144 0
M  V30 2429 N 224.35 -1.48647 -2.49704 0
M  V30 2430 H 223.897 -1.92155 -1.71564 0
M  V30 2431 H 223.855 -0.808115 -3.03837 0
M  V30 2432 N 227.627 0.131896 -1.57047 0
M  V30 2433 C 228.575 1.18146 -2.0036 0
M  V30 2434 C 229.569 1.43614 -0.898406 0
M  V30 2435 O 230.775 1.43729 -1.08361 0
M  V30 2436 H 227.15 0.398042 -0.638018 0
M  V30 2437 H 229.121 0.789564 -2.87765 0
M  V30 2438 C 227.87 2.50341 -2.41298 0
M  V30 2439 H 227.193 2.31578 -3.25902 0
M  V30 2440 H 228.633 3.22371 -2.75414 0
M  V30 2441 C 227.092 3.11984 -1.27153 0
M  V30 2442 O 227.622 3.97484 -0.580459 0
M  V30 2443 N 225.828 2.71662 -1.03189 0
M  V30 2444 H 225.375 2.02231 -1.59564 0
M  V30 2445 H 225.333 3.13238 -0.270077 0
M  V30 2446 N 229.106 1.52395 0.401703 0
M  V30 2447 C 230.522 1.41363 0.740864 0
M  V30 2448 C 230.722 0.523982 1.94568 0
M  V30 2449 O 229.778 -0.00741204 2.52499 0
M  V30 2450 C 231.091 2.84011 0.987847 0
M  V30 2451 C 232.639 2.93404 1.09011 0
M  V30 2452 C 233.114 4.37036 1.3698 0
M  V30 2453 N 234.605 4.40304 1.43829 0
M  V30 2454 C 235.34 5.48508 1.67112 0
M  V30 2455 N 234.836 6.66819 1.87949 0
M  V30 2456 N 236.629 5.36034 1.69187 0
M  V30 2457 H 228.78 2.08765 -0.391262 0
M  V30 2458 H 231.043 0.941265 -0.112798 0
M  V30 2459 H 230.749 3.51265 0.174835 0
M  V30 2460 H 230.623 3.25502 1.906 0
M  V30 2461 H 233.01 2.26325 1.8937 0
M  V30 2462 H 233.091 2.55359 0.15015 0
M  V30 2463 H 232.735 5.04676 0.571353 0
M  V30 2464 H 232.665 4.72623 2.3224 0
M  V30 2465 H 235.156 3.55024 1.29486 0
M  V30 2466 H 235.469 7.45063 2.05185 0
M  V30 2467 H 233.814 6.6987 1.85199 0
M  V30 2468 H 237.005 4.42579 1.52451 0
M  V30 2469 H 237.178 6.20434 1.86993 0
M  V30 2470 N 230.584 -0.659388 1.43143 0
M  V30 2471 C 231.532 -1.79374 1.4808 0
M  V30 2472 C 232.526 -1.65639 0.354988 0
M  V30 2473 O 233.732 -1.7206 0.528704 0
M  V30 2474 H 230.107 -0.591705 0.4641 0
M  V30 2475 H 232.078 -1.72329 2.43609 0
M  V30 2476 C 230.827 -3.17606 1.41499 0
M  V30 2477 H 230.15 -3.28809 2.27431 0
M  V30 2478 H 231.59 -3.96951 1.49015 0
M  V30 2479 C 230.049 -3.36642 0.131765 0
M  V30 2480 O 230.579 -3.93461 -0.809386 0
M  V30 2481 N 228.785 -2.90567 0.0439396 0
M  V30 2482 H 228.332 -2.44513 0.810619 0
M  V30 2483 H 228.29 -3.03681 -0.813969 0
M  V30 2484 N 232.062 -1.29571 -0.897171 0
M  V30 2485 C 232.994 -1.10724 -2.00681 0
M  V30 2486 C 234.007 -0.0540026 -1.6271 0
M  V30 2487 O 235.196 -0.298783 -1.75982 0
M  V30 2488 C 232.296 -0.663912 -3.32333 0
M  V30 2489 C 231.469 -1.79622 -3.98816 0
M  V30 2490 C 230.528 -1.34349 -5.0876 0
M  V30 2491 O 229.554 -2.04864 -5.31055 0
M  V30 2492 N 230.756 -0.215764 -5.80099 0
M  V30 2493 H 233.521 -2.06291 -2.17403 0
M  V30 2494 H 231.082 -1.21544 -1.06951 0
M  V30 2495 H 233.074 -0.344295 -4.03233 0
M  V30 2496 H 231.644 0.199375 -3.11964 0
M  V30 2497 H 230.864 -2.28459 -3.21248 0
M  V30 2498 H 232.152 -2.55535 -4.39976 0
M  V30 2499 H 231.55 0.372091 -5.64475 0
M  V30 2500 H 230.107 0.0444707 -6.51785 0
M  V30 2501 N 233.54 1.10788 -1.12088 0
M  V30 2502 C 234.473 2.16237 -0.729168 0
M  V30 2503 C 235.451 1.60207 0.277921 0
M  V30 2504 O 236.635 1.87707 0.172737 0
M  V30 2505 C 233.762 3.38609 -0.0786848 0
M  V30 2506 C 232.808 4.13322 -1.05201 0
M  V30 2507 S 233.641 4.69371 -2.57781 0
M  V30 2508 C 234.797 5.95058 -1.94053 0
M  V30 2509 H 235.03 2.4913 -1.62239 0
M  V30 2510 H 232.563 1.22519 -0.939603 0
M  V30 2511 H 234.521 4.09473 0.290254 0
M  V30 2512 H 233.182 3.03962 0.791593 0
M  V30 2513 H 232.375 5.01051 -0.544433 0
M  V30 2514 H 231.977 3.48251 -1.36371 0
M  V30 2515 H 234.269 6.65278 -1.28107 0
M  V30 2516 H 235.212 6.50472 -2.79807 0
M  V30 2517 H 235.62 5.46918 -1.39787 0
M  V30 2518 N 235.018 0.912232 1.28515 0
M  V30 2519 C 236.267 0.540504 1.94323 0
M  V30 2520 C 236.58 -0.920044 1.72611 0
M  V30 2521 O 237.786 -1.39986 2.32629 0
M  V30 2522 C 236.242 0.915803 3.48053 0
M  V30 2523 C 235.85 2.39598 3.78546 0
M  V30 2524 C 237.594 0.614588 4.20027 0
M  V30 2525 C 235.501 2.71148 5.25578 0
M  V30 2526 H 234.431 0.198418 0.727424 0
M  V30 2527 H 237.082 1.11094 1.46049 0
M  V30 2528 H 235.464 0.274168 3.9505 0
M  V30 2529 H 236.638 3.08422 3.42364 0
M  V30 2530 H 234.953 2.66749 3.1974 0
M  V30 2531 H 237.55 0.827002 5.28266 0
M  V30 2532 H 237.893 -0.447531 4.13887 0
M  V30 2533 H 238.426 1.21462 3.78803 0
M  V30 2534 H 235.165 3.76207 5.36794 0
M  V30 2535 H 234.685 2.0696 5.62963 0
M  V30 2536 H 236.364 2.58072 5.93302 0
M  V30 2537 N 236.496 -1.42363 0.676048 0
M  V30 2538 C 237.428 -2.29164 -0.0404605 0
M  V30 2539 C 238.441 -1.43747 -0.764245 0
M  V30 2540 O 239.63 -1.67453 -0.618195 0
M  V30 2541 C 236.73 -3.21196 -1.08103 0
M  V30 2542 C 235.903 -4.35273 -0.430812 0
M  V30 2543 C 234.962 -5.08017 -1.37133 0
M  V30 2544 O 233.988 -5.62494 -0.87116 0
M  V30 2545 N 235.19 -5.13647 -2.70456 0
M  V30 2546 H 237.955 -2.91298 0.704667 0
M  V30 2547 H 235.516 -1.53303 0.520559 0
M  V30 2548 H 237.508 -3.66728 -1.71152 0
M  V30 2549 H 236.078 -2.60505 -1.72788 0
M  V30 2550 H 235.298 -3.92372 0.379209 0
M  V30 2551 H 236.586 -5.08795 0.0221132 0
M  V30 2552 H 235.984 -4.708 -3.1363 0
M  V30 2553 H 234.541 -5.62821 -3.28749 0
M  V30 2554 N 237.974 -0.419461 -1.51915 0
M  V30 2555 C 238.937 0.389116 -2.25873 0
M  V30 2556 C 239.937 0.964924 -1.28631 0
M  V30 2557 O 241.127 0.842179 -1.52489 0
M  V30 2558 C 238.259 1.54874 -3.03689 0
M  V30 2559 H 239.452 -0.258799 -2.98781 0
M  V30 2560 H 237.005 -0.172209 -1.55348 0
M  V30 2561 H 237.74 2.23323 -2.35154 0
M  V30 2562 H 237.525 1.14223 -3.75094 0
M  V30 2563 H 239.015 2.12046 -3.59759 0
M  V30 2564 N 239.452 1.56882 -0.150215 0
M  V30 2565 C 240.382 2.19935 0.784284 0
M  V30 2566 C 241.363 1.14854 1.25469 0
M  V30 2567 O 242.548 1.43209 1.31168 0
M  V30 2568 C 239.678 2.82349 2.02229 0
M  V30 2569 C 238.632 3.93285 1.68853 0
M  V30 2570 C 237.958 4.42649 2.99944 0
M  V30 2571 C 239.258 5.13904 0.932714 0
M  V30 2572 H 240.952 2.9828 0.258781 0
M  V30 2573 H 238.498 1.43473 0.123029 0
M  V30 2574 H 240.451 3.25126 2.68088 0
M  V30 2575 H 239.175 2.0134 2.57157 0
M  V30 2576 H 237.834 3.5113 1.05371 0
M  V30 2577 H 237.482 3.58458 3.52869 0
M  V30 2578 H 237.182 5.17476 2.78374 0
M  V30 2579 H 238.706 4.88099 3.66868 0
M  V30 2580 H 240.12 5.53506 1.49345 0
M  V30 2581 H 238.517 5.94515 0.81684 0
M  V30 2582 H 239.587 4.84842 -0.0749568 0
M  V30 2583 N 240.93 -0.123565 1.57115 0
M  V30 2584 C 241.86 -1.15309 2.03042 0
M  V30 2585 C 242.841 -1.43454 0.914061 0
M  V30 2586 O 244.026 -1.53973 1.18347 0
M  V30 2587 C 241.156 -2.48043 2.43089 0
M  V30 2588 C 240.11 -2.3437 3.58127 0
M  V30 2589 C 239.436 -3.72026 3.84059 0
M  V30 2590 C 240.736 -1.80804 4.90007 0
M  V30 2591 H 242.43 -0.771102 2.893 0
M  V30 2592 H 239.976 -0.369479 1.39179 0
M  V30 2593 H 241.929 -3.20311 2.73823 0
M  V30 2594 H 240.653 -2.88122 1.53796 0
M  V30 2595 H 239.312 -1.64551 3.27595 0
M  V30 2596 H 238.96 -4.09582 2.91979 0
M  V30 2597 H 238.66 -3.63732 4.6149 0
M  V30 2598 H 240.184 -4.45806 4.1724 0
M  V30 2599 H 241.598 -2.42886 5.19307 0
M  V30 2600 H 239.995 -1.83343 5.71407 0
M  V30 2601 H 241.065 -0.76528 4.78823 0
M  V30 2602 N 242.408 -1.52605 -0.393616 0
M  V30 2603 C 243.657 -1.66649 -1.13627 0
M  V30 2604 C 243.97 -0.410364 -1.91247 0
M  V30 2605 O 245.176 -0.430854 -2.68059 0
M  V30 2606 C 243.632 -2.9449 -2.06891 0
M  V30 2607 C 243.24 -4.27266 -1.34714 0
M  V30 2608 C 244.984 -3.17899 -2.81319 0
M  V30 2609 C 242.891 -5.46217 -2.26717 0
M  V30 2610 H 241.821 -0.62084 -0.427871 0
M  V30 2611 H 244.472 -1.791 -0.399428 0
M  V30 2612 H 242.854 -2.75774 -2.84191 0
M  V30 2613 H 244.028 -4.56518 -0.626714 0
M  V30 2614 H 242.343 -4.10081 -0.722643 0
M  V30 2615 H 244.94 -4.03949 -3.50328 0
M  V30 2616 H 245.283 -2.32777 -3.45139 0
M  V30 2617 H 245.816 -3.37159 -2.11113 0
M  V30 2618 H 242.555 -6.33733 -1.67521 0
M  V30 2619 H 242.075 -5.21283 -2.96689 0
M  V30 2620 H 243.754 -5.7991 -2.86903 0
M  V30 2621 N 243.887 0.651787 -1.4349 0
M  V30 2622 C 245.115 1.43937 -1.48626 0
M  V30 2623 C 245.53 1.8851 -0.104587 0
M  V30 2624 O 244.887 1.5958 0.885464 0
M  V30 2625 C 244.938 2.6734 -2.43334 0
M  V30 2626 O 244.659 2.24631 -3.76128 0
M  V30 2627 C 246.16 3.60683 -2.57726 0
M  V30 2628 H 243.38 0.44213 -0.504739 0
M  V30 2629 H 245.924 0.798944 -1.88248 0
M  V30 2630 H 244.079 3.2752 -2.06904 0
M  V30 2631 H 244.493 3.04485 -4.2707 0
M  V30 2632 H 245.967 4.43933 -3.28067 0
M  V30 2633 H 246.444 4.08126 -1.62265 0
M  V30 2634 H 247.05 3.06384 -2.94973 0
M  V30 2635 N 245.365 1.30045 0.890287 0
M  V30 2636 C 246.614 1.17929 1.63633 0
M  V30 2637 C 246.927 -0.266204 1.9378 0
M  V30 2638 O 248.133 -0.508804 2.6669 0
M  V30 2639 C 246.589 2.06317 2.94892 0
M  V30 2640 C 246.197 3.55745 2.72305 0
M  V30 2641 C 247.941 2.0295 3.72843 0
M  V30 2642 C 245.848 4.36205 3.99348 0
M  V30 2643 H 244.778 0.437782 0.613892 0
M  V30 2644 H 247.429 1.54754 0.986075 0
M  V30 2645 H 245.811 1.6237 3.61182 0
M  V30 2646 H 246.985 4.07805 2.1455 0
M  V30 2647 H 245.3 3.6088 2.07737 0
M  V30 2648 H 247.897 2.60319 4.67053 0
M  V30 2649 H 248.24 1.0117 4.0382 0
M  V30 2650 H 248.773 2.4499 3.13408 0
M  V30 2651 H 245.512 5.38659 3.73533 0
M  V30 2652 H 245.032 3.8891 4.56628 0
M  V30 2653 H 246.711 4.47362 4.67415 0
M  V30 2654 N 246.843 -1.10192 1.12674 0
M  V30 2655 C 247.773 -2.18652 0.819362 0
M  V30 2656 C 248.754 -1.68698 -0.217915 0
M  V30 2657 O 249.939 -1.94041 -0.0785581 0
M  V30 2658 C 247.069 -3.46202 0.27594 0
M  V30 2659 C 246.023 -4.09444 1.24656 0
M  V30 2660 C 245.349 -5.31725 0.563258 0
M  V30 2661 C 246.649 -4.52863 2.60217 0
M  V30 2662 H 248.343 -2.44622 1.72628 0
M  V30 2663 H 245.889 -1.17571 0.831451 0
M  V30 2664 H 247.842 -4.21372 0.0486149 0
M  V30 2665 H 246.566 -3.1973 -0.666331 0
M  V30 2666 H 245.225 -3.36284 1.45974 0
M  V30 2667 H 244.873 -5.0153 -0.384235 0
M  V30 2668 H 244.573 -5.74991 1.21075 0
M  V30 2669 H 246.097 -6.09624 0.34503 0
M  V30 2670 H 247.511 -5.19294 2.42913 0
M  V30 2671 H 245.908 -5.06986 3.21068 0
M  V30 2672 H 246.978 -3.65656 3.18471 0
M  V30 2673 N 248.321 -0.919034 -1.28029 0
M  V30 2674 C 249.251 -0.428581 -2.29533 0
M  V30 2675 C 250.232 0.50659 -1.62381 0
M  V30 2676 O 251.417 0.413195 -1.89753 0
M  V30 2677 C 248.547 0.327388 -3.45753 0
M  V30 2678 C 247.501 -0.519137 -4.2484 0
M  V30 2679 C 246.827 0.365486 -5.33449 0
M  V30 2680 C 248.127 -1.77914 -4.91064 0
M  V30 2681 H 249.821 -1.27687 -2.70807 0
M  V30 2682 H 247.367 -0.615428 -1.30186 0
M  V30 2683 H 249.32 0.681378 -4.15855 0
M  V30 2684 H 248.044 1.20963 -3.03374 0
M  V30 2685 H 246.703 -0.855717 -3.56473 0
M  V30 2686 H 246.351 1.24642 -4.87312 0
M  V30 2687 H 246.051 -0.197356 -5.87268 0
M  V30 2688 H 247.575 0.715241 -6.06396 0
M  V30 2689 H 248.989 -1.49374 -5.53498 0
M  V30 2690 H 247.386 -2.2848 -5.54903 0
M  V30 2691 H 248.456 -2.50382 -4.15255 0
M  V30 2692 N 249.799 1.42003 -0.683588 0
M  V30 2693 C 251.047 2.01015 -0.209101 0
M  V30 2694 C 251.368 1.54365 1.19149 0
M  V30 2695 O 250.638 0.769083 1.80172 0
M  V30 2696 H 249.218 0.743294 -0.074315 0
M  V30 2697 H 251.88 1.73798 -0.882066 0
M  V30 2698 H 250.976 3.11343 -0.2172 0
M  V30 2699 N 251.277 0.427512 1.51691 0
M  V30 2700 C 252.207 -0.3796 2.30394 0
M  V30 2701 C 253.188 -1.02982 1.35384 0
M  V30 2702 O 254.373 -1.03534 1.643 0
M  V30 2703 C 251.503 -1.48649 3.1388 0
M  V30 2704 C 250.457 -0.960294 4.17088 0
M  V30 2705 C 249.783 -2.16219 4.89033 0
M  V30 2706 C 251.083 -0.00153679 5.223 0
M  V30 2707 H 252.777 0.277164 2.98114 0
M  V30 2708 H 250.323 0.134739 1.43368 0
M  V30 2709 H 252.276 -2.05826 3.67714 0
M  V30 2710 H 251 -2.1714 2.43962 0
M  V30 2711 H 249.659 -0.410806 3.64291 0
M  V30 2712 H 249.307 -2.83307 4.15628 0
M  V30 2713 H 249.007 -1.81654 5.58816 0
M  V30 2714 H 250.531 -2.73968 5.45687 0
M  V30 2715 H 251.945 -0.482687 5.71264 0
M  V30 2716 H 250.342 0.256199 5.99553 0
M  V30 2717 H 251.412 0.938174 4.75738 0
M  V30 2718 N 252.755 -1.56801 0.158532 0
M  V30 2719 C 253.985 -2.00568 -0.495583 0
M  V30 2720 C 254.393 -1.03774 -1.58201 0
M  V30 2721 O 253.736 -0.0285797 -1.83678 0
M  V30 2722 C 253.798 -3.40768 -1.14532 0
M  V30 2723 C 253.462 -4.56553 -0.202101 0
M  V30 2724 C 254.459 -5.16714 0.574675 0
M  V30 2725 C 252.144 -5.02197 -0.101648 0
M  V30 2726 C 254.138 -6.20939 1.43924 0
M  V30 2727 C 251.825 -6.06274 0.766508 0
M  V30 2728 C 252.823 -6.65515 1.53555 0
M  V30 2729 O 252.511 -7.67575 2.38922 0
M  V30 2730 H 252.243 -0.662893 -0.13247 0
M  V30 2731 H 254.797 -2.03829 0.253559 0
M  V30 2732 H 253.027 -3.34381 -1.94233 0
M  V30 2733 H 254.716 -3.6857 -1.70033 0
M  V30 2734 H 255.482 -4.82341 0.507167 0
M  V30 2735 H 251.361 -4.55807 -0.689994 0
M  V30 2736 H 254.905 -6.67107 2.03996 0
M  V30 2737 H 250.802 -6.40073 0.835266 0
M  V30 2738 H 251.57 -7.84844 2.32296 0
M  V30 2739 N 254.233 0.115231 -1.57178 0
M  V30 2740 C 255.48 0.822351 -1.8505 0
M  V30 2741 C 255.808 1.79701 -0.744168 0
M  V30 2742 O 255.063 1.93909 0.26414 0
M  V30 2743 C 255.362 1.60324 -3.19423 0
M  V30 2744 C 255.028 0.772536 -4.44233 0
M  V30 2745 C 253.69 0.543468 -4.78121 0
M  V30 2746 C 256.042 0.193746 -5.2084 0
M  V30 2747 C 253.37 -0.274583 -5.86057 0
M  V30 2748 C 255.722 -0.611517 -6.29637 0
M  V30 2749 C 254.386 -0.850867 -6.62055 0
M  V30 2750 H 253.656 0.30092 -0.677147 0
M  V30 2751 H 256.303 0.0845802 -1.91313 0
M  V30 2752 H 254.608 2.41203 -3.08753 0
M  V30 2753 H 256.305 2.1544 -3.38211 0
M  V30 2754 H 252.895 0.96117 -4.17683 0
M  V30 2755 H 257.079 0.357926 -4.95008 0
M  V30 2756 H 252.335 -0.469206 -6.09597 0
M  V30 2757 H 256.509 -1.06697 -6.88178 0
M  V30 2758 H 254.136 -1.48657 -7.45523 0
M  V30 2759 N 255.711 1.52812 0.385517 0
M  V30 2760 C 256.939 1.71907 1.15133 0
M  V30 2761 C 257.354 0.439004 1.83625 0
M  V30 2762 O 256.711 -0.586765 1.7281 0
M  V30 2763 C 256.762 2.87099 2.19673 0
M  V30 2764 O 256.483 4.10151 1.53973 0
M  V30 2765 C 257.984 3.17902 3.08955 0
M  V30 2766 H 255.204 0.575479 0.345057 0
M  V30 2767 H 257.748 1.99476 0.45052 0
M  V30 2768 H 255.903 2.61982 2.85384 0
M  V30 2769 H 256.317 4.74514 2.23465 0
M  V30 2770 H 257.791 4.01959 3.7833 0
M  V30 2771 H 258.268 2.3243 3.72657 0
M  V30 2772 H 258.874 3.44871 2.48885 0
M  V30 2773 N 257.189 -0.644168 1.43834 0
M  V30 2774 C 258.119 -1.76814 1.52509 0
M  V30 2775 C 259.1 -1.65823 0.379052 0
M  V30 2776 O 260.285 -1.84781 0.597466 0
M  V30 2777 C 257.415 -3.15288 1.4564 0
M  V30 2778 C 256.369 -3.41053 2.58586 0
M  V30 2779 C 255.695 -4.79421 2.36769 0
M  V30 2780 C 256.995 -3.34902 4.00797 0
M  V30 2781 H 258.689 -1.69812 2.46586 0
M  V30 2782 H 256.235 -0.815542 1.1868 0
M  V30 2783 H 258.188 -3.93681 1.50311 0
M  V30 2784 H 256.912 -3.23043 0.480725 0
M  V30 2785 H 255.571 -2.65035 2.53282 0
M  V30 2786 H 255.219 -4.83863 1.37424 0
M  V30 2787 H 254.919 -4.9762 3.12487 0
M  V30 2788 H 256.443 -5.6006 2.43238 0
M  V30 2789 H 257.857 -4.03218 4.07539 0
M  V30 2790 H 256.254 -3.64637 4.76613 0
M  V30 2791 H 257.324 -2.32928 4.25291 0
M  V30 2792 N 258.668 -1.30515 -0.883378 0
M  V30 2793 C 259.598 -1.19607 -2.00541 0
M  V30 2794 C 260.579 -0.086346 -1.69881 0
M  V30 2795 O 261.764 -0.268654 -1.92333 0
M  V30 2796 C 258.894 -0.888758 -3.35736 0
M  V30 2797 C 257.848 -1.95659 -3.8066 0
M  V30 2798 C 257.174 -1.50224 -5.13164 0
M  V30 2799 C 258.474 -3.36788 -3.99213 0
M  V30 2800 H 260.168 -2.13476 -2.09925 0
M  V30 2801 H 257.714 -1.02775 -1.00863 0
M  V30 2802 H 259.667 -0.799094 -4.13754 0
M  V30 2803 H 258.391 0.0856125 -3.26488 0
M  V30 2804 H 257.05 -2.03591 -3.04871 0
M  V30 2805 H 256.698 -0.516092 -5.00345 0
M  V30 2806 H 256.398 -2.2165 -5.44192 0
M  V30 2807 H 257.922 -1.42639 -5.93706 0
M  V30 2808 H 259.336 -3.31605 -4.67665 0
M  V30 2809 H 257.733 -4.06314 -4.41621 0
M  V30 2810 H 258.803 -3.78561 -3.03017 0
M  V30 2811 N 260.146 1.09593 -1.13257 0
M  V30 2812 C 261.078 2.16015 -0.766167 0
M  V30 2813 C 262.091 1.61423 0.211303 0
M  V30 2814 O 263.28 1.78498 -0.00863946 0
M  V30 2815 C 260.38 3.38706 -0.114662 0
M  V30 2816 C 259.553 4.22717 -1.12379 0
M  V30 2817 C 258.612 5.23835 -0.498301 0
M  V30 2818 O 257.638 5.573 -1.15781 0
M  V30 2819 N 258.84 5.75886 0.730417 0
M  V30 2820 H 261.605 2.48055 -1.68193 0
M  V30 2821 H 259.166 1.25292 -1.02535 0
M  V30 2822 H 261.158 4.03464 0.315991 0
M  V30 2823 H 259.728 3.04569 0.704011 0
M  V30 2824 H 258.948 3.54122 -1.73179 0
M  V30 2825 H 260.236 4.75673 -1.80589 0
M  V30 2826 H 259.634 5.50911 1.28504 0
M  V30 2827 H 258.191 6.42387 1.10376 0
M  V30 2828 N 261.624 0.925811 1.2754 0
M  V30 2829 C 262.587 0.428129 2.25166 0
M  V30 2830 C 263.587 -0.452261 1.54309 0
M  V30 2831 O 264.777 -0.253608 1.72344 0
M  V30 2832 C 261.909 -0.384749 3.38722 0
M  V30 2833 H 263.102 1.29066 2.70706 0
M  V30 2834 H 260.655 0.706323 1.3943 0
M  V30 2835 H 261.39 -1.26618 2.98561 0
M  V30 2836 H 261.175 0.246454 3.91325 0
M  V30 2837 H 262.665 -0.723389 4.11287 0
M  V30 2838 N 263.102 -1.41638 0.69111 0
M  V30 2839 C 264.327 -2.06148 0.227583 0
M  V30 2840 C 264.752 -1.51652 -1.11281 0
M  V30 2841 O 264.11 -0.64164 -1.69566 0
M  V30 2842 C 264.158 -3.60095 0.190858 0
M  V30 2843 O 263.262 -4.03845 -0.835664 0
M  V30 2844 H 262.603 -0.654434 0.112306 0
M  V30 2845 H 265.133 -1.81484 0.944714 0
M  V30 2846 H 265.143 -4.07995 0.020207 0
M  V30 2847 H 263.818 -3.99129 1.16915 0
M  V30 2848 H 262.395 -3.67458 -0.63473 0
M  V30 2849 N 264.58 -0.43555 -1.51462 0
M  V30 2850 C 265.49 0.383001 -2.31453 0
M  V30 2851 C 266.506 1.02931 -1.4029 0
M  V30 2852 O 267.682 1.02507 -1.73362 0
M  V30 2853 C 264.747 1.47043 -3.13973 0
M  V30 2854 C 263.808 0.844433 -4.20913 0
M  V30 2855 C 263.041 1.88004 -4.9949 0
M  V30 2856 O 263.264 3.10199 -4.78678 0
M  V30 2857 O 262.198 1.47157 -5.83634 0
M  V30 2858 H 266.024 -0.269964 -3.02498 0
M  V30 2859 H 263.609 -0.19813 -1.4808 0
M  V30 2860 H 265.491 2.10113 -3.65281 0
M  V30 2861 H 264.166 2.10751 -2.45695 0
M  V30 2862 H 263.073 0.175729 -3.73687 0
M  V30 2863 H 264.406 0.250869 -4.9156 0
M  V30 2864 N 266.058 1.56714 -0.166846 0
M  V30 2865 C 267.288 2.00828 0.48494 0
M  V30 2866 C 267.696 1.04612 1.57648 0
M  V30 2867 O 267.039 0.0383201 1.8366 0
M  V30 2868 C 267.101 3.4137 1.12723 0
M  V30 2869 C 266.765 4.56654 0.177886 0
M  V30 2870 C 267.762 5.16402 -0.60207 0
M  V30 2871 C 265.447 5.02244 0.0750139 0
M  V30 2872 C 267.441 6.20167 -1.47215 0
M  V30 2873 C 265.128 6.05859 -0.798649 0
M  V30 2874 C 266.126 6.64691 -1.57082 0
M  V30 2875 O 265.814 7.66297 -2.42989 0
M  V30 2876 H 265.546 0.663587 0.128953 0
M  V30 2877 H 268.1 2.03692 -0.264365 0
M  V30 2878 H 266.33 3.35406 1.92457 0
M  V30 2879 H 268.019 3.69466 1.68076 0
M  V30 2880 H 268.785 4.82065 -0.53274 0
M  V30 2881 H 264.664 4.56167 0.665812 0
M  V30 2882 H 268.208 6.66016 -2.07531 0
M  V30 2883 H 264.105 6.39621 -0.869199 0
M  V30 2884 H 264.873 7.83601 -2.36455 0
M  V30 2885 N 267.536 -0.106894 1.57237 0
M  V30 2886 C 268.783 -0.812526 1.85484 0
M  V30 2887 C 269.111 -1.79304 0.753687 0
M  V30 2888 O 268.366 -1.94047 -0.253853 0
M  V30 2889 C 268.665 -1.58628 3.20268 0
M  V30 2890 C 268.331 -0.748967 4.44636 0
M  V30 2891 C 266.993 -0.518104 4.78403 0
M  V30 2892 C 269.345 -0.166122 5.20935 0
M  V30 2893 C 266.673 0.305659 5.85903 0
M  V30 2894 C 269.025 0.644899 6.29304 0
M  V30 2895 C 267.689 0.885965 6.61594 0
M  V30 2896 H 266.959 -0.297324 0.678734 0
M  V30 2897 H 269.606 -0.0744332 1.91355 0
M  V30 2898 H 267.911 -2.39562 3.10028 0
M  V30 2899 H 269.608 -2.13643 3.39349 0
M  V30 2900 H 266.198 -0.939006 4.18187 0
M  V30 2901 H 270.382 -0.33167 4.95191 0
M  V30 2902 H 265.638 0.501528 6.0934 0
M  V30 2903 H 269.812 1.10345 6.87602 0
M  V30 2904 H 267.439 1.52609 7.44725 0
M  V30 2905 N 269.014 -1.53014 -0.377408 0
M  V30 2906 C 269.924 -1.81557 -1.48574 0
M  V30 2907 C 270.94 -0.703102 -1.59162 0
M  V30 2908 O 272.116 -0.99192 -1.75279 0
M  V30 2909 C 269.181 -1.9889 -2.83978 0
M  V30 2910 C 268.242 -3.22801 -2.83016 0
M  V30 2911 C 267.475 -3.39298 -4.11962 0
M  V30 2912 O 267.698 -2.60345 -5.0752 0
M  V30 2913 O 266.632 -4.32604 -4.18494 0
M  V30 2914 H 270.458 -2.75695 -1.27382 0
M  V30 2915 H 268.043 -1.38248 -0.566373 0
M  V30 2916 H 269.925 -2.11931 -3.6423 0
M  V30 2917 H 268.6 -1.07942 -3.05172 0
M  V30 2918 H 267.507 -3.15193 -2.01505 0
M  V30 2919 H 268.84 -4.13632 -2.66775 0
M  V30 2920 N 270.492 0.636531 -1.44174 0
M  V30 2921 C 271.717 1.42847 -1.50364 0
M  V30 2922 C 272.142 1.87665 -0.127867 0
M  V30 2923 O 271.5 1.58408 0.88185 0
M  V30 2924 C 271.548 2.62854 -2.4686 0
M  V30 2925 O 270.652 3.62501 -1.9664 0
M  V30 2926 H 269.993 0.427642 -0.507955 0
M  V30 2927 H 272.523 0.777422 -1.89255 0
M  V30 2928 H 272.533 3.10465 -2.64718 0
M  V30 2929 H 271.208 2.29578 -3.46795 0
M  V30 2930 H 269.785 3.21735 -1.88523 0
M  V30 2931 N 271.97 1.30982 0.876444 0
M  V30 2932 C 273.381 1.18277 1.44456 0
M  V30 2933 C 273.732 -0.213265 1.95037 0
M  V30 2934 O 272.857 -1.11057 1.85729 0
M  V30 2935 C 273.452 2.1411 2.62569 0
M  V30 2936 C 272.011 2.05358 3.15444 0
M  V30 2937 C 271.158 2.03706 1.88146 0
M  V30 2938 H 274.109 1.43127 0.685584 0
M  V30 2939 H 274.13 1.72692 3.39054 0
M  V30 2940 H 273.642 3.15706 2.25724 0
M  V30 2941 H 271.743 1.06934 3.56926 0
M  V30 2942 H 271.856 2.94156 3.78166 0
M  V30 2943 H 270.22 1.48629 2.06837 0
M  V30 2944 H 271.003 3.07047 1.53547 0
M  V30 2945 N 273.449 -1.08991 1.13837 0
M  V30 2946 C 274.696 -1.81258 0.902882 0
M  V30 2947 C 275.024 -1.85936 -0.570803 0
M  V30 2948 O 274.279 -1.3267 -1.43865 0
M  V30 2949 C 274.578 -3.27042 1.44147 0
M  V30 2950 C 274.244 -3.4249 2.93276 0
M  V30 2951 C 272.906 -3.46414 3.33992 0
M  V30 2952 C 275.258 -3.4666 3.892 0
M  V30 2953 C 272.586 -3.52091 4.69307 0
M  V30 2954 C 274.938 -3.53872 5.24364 0
M  V30 2955 C 273.602 -3.56066 5.646 0
M  V30 2956 H 272.872 -0.663268 0.330388 0
M  V30 2957 H 275.519 -1.28368 1.42105 0
M  V30 2958 H 273.824 -3.82599 0.844097 0
M  V30 2959 H 275.521 -3.81499 1.23528 0
M  V30 2960 H 272.111 -3.40124 2.60794 0
M  V30 2961 H 276.295 -3.42865 3.58828 0
M  V30 2962 H 271.551 -3.52079 4.9985 0
M  V30 2963 H 275.725 -3.56043 5.98503 0
M  V30 2964 H 273.352 -3.60218 6.69438 0
M  V30 2965 N 274.927 -0.932562 -1.27047 0
M  V30 2966 C 276.155 -0.592031 -1.98249 0
M  V30 2967 C 276.57 0.831062 -1.69525 0
M  V30 2968 O 275.927 1.55299 -0.958561 0
M  V30 2969 C 275.978 -0.814279 -3.5221 0
M  V30 2970 O 275.699 -2.18139 -3.7993 0
M  V30 2971 C 277.2 -0.483121 -4.4066 0
M  V30 2972 H 274.42 -0.223896 -0.632544 0
M  V30 2973 H 276.964 -1.25091 -1.61779 0
M  V30 2974 H 275.119 -0.20213 -3.86872 0
M  V30 2975 H 275.533 -2.235 -4.74498 0
M  V30 2976 H 277.007 -0.689298 -5.47679 0
M  V30 2977 H 277.484 0.581546 -4.35333 0
M  V30 2978 H 278.09 -1.07362 -4.11526 0
M  V30 2979 N 276.405 1.4127 -0.698611 0
M  V30 2980 C 277.654 2.00408 -0.227949 0
M  V30 2981 C 277.967 1.55981 1.18023 0
M  V30 2982 O 279.173 2.07699 1.74852 0
M  V30 2983 C 277.629 3.58129 -0.356636 0
M  V30 2984 C 277.237 4.11536 -1.77037 0
M  V30 2985 C 278.981 4.24466 0.0540969 0
M  V30 2986 C 276.888 5.61701 -1.85055 0
M  V30 2987 H 275.818 0.749586 -0.0814657 0
M  V30 2988 H 278.469 1.61713 -0.867249 0
M  V30 2989 H 276.851 3.94442 0.350965 0
M  V30 2990 H 278.025 3.86636 -2.50698 0
M  V30 2991 H 276.34 3.57736 -2.13105 0
M  V30 2992 H 278.937 5.34698 0.0146723 0
M  V30 2993 H 279.28 4.01687 1.09332 0
M  V30 2994 H 279.813 3.93198 -0.603337 0
M  V30 2995 H 276.552 5.89312 -2.8704 0
M  V30 2996 H 276.072 5.88519 -1.15783 0
M  V30 2997 H 277.751 6.26524 -1.61484 0
M  V30 2998 N 277.883 0.443576 1.51229 0
M  V30 2999 C 279.108 -0.121648 2.07043 0
M  V30 3000 C 279.533 -1.35156 1.30823 0
M  V30 3001 O 278.891 -1.7793 0.347934 0
M  V30 3002 C 278.939 -0.41624 3.5819 0
M  V30 3003 O 278.043 -1.50163 3.8409 0
M  V30 3004 H 277.384 0.000871367 0.663999 0
M  V30 3005 H 279.914 0.626706 1.94765 0
M  V30 3006 H 279.924 -0.664867 4.02546 0
M  V30 3007 H 278.599 0.482653 4.1309 0
M  V30 3008 H 277.176 -1.24248 3.51592 0
M  V30 3009 N 279.361 -1.56624 0.175154 0
M  V30 3010 C 280.638 -1.88688 -0.515373 0
M  V30 3011 C 281.018 -1.08564 -1.81044 0
M  V30 3012 O 280.366 -0.180703 -2.27784 0
M  V30 3013 C 280.576 -3.40768 -0.753552 0
M  V30 3014 C 281.924 -4.10587 -1.08184 0
M  V30 3015 O 282.948 -3.46106 -0.841961 0
M  V30 3016 O 281.807 -5.24512 -1.53459 0
M  V30 3017 H 278.901 -0.78301 -0.26613 0
M  V30 3018 H 281.447 -1.68347 0.213877 0
M  V30 3019 H 280.219 -3.90965 0.161829 0
M  V30 3020 H 279.842 -3.66733 -1.53598 0
M  V30 3021 N 280.839 0.0985539 -1.57292 0
M  V30 3022 C 282.087 0.801092 -1.85545 0
M  V30 3023 C 282.408 1.79438 -0.763353 0
M  V30 3024 O 281.678 1.94763 0.21073 0
M  V30 3025 H 280.258 0.29884 -0.684619 0
M  V30 3026 H 282.92 0.0810064 -1.94732 0
M  V30 3027 H 282.016 1.3338 -2.82163 0
M  V30 3028 N 282.317 1.53212 0.369288 0
M  V30 3029 C 283.566 1.68436 1.10961 0
M  V30 3030 C 283.879 0.440738 1.9057 0
M  V30 3031 O 285.085 0.473446 2.6734 0
M  V30 3032 C 283.541 2.97744 2.0218 0
M  V30 3033 C 283.149 4.29355 1.279 0
M  V30 3034 C 284.893 3.22334 2.76226 0
M  V30 3035 C 282.8 5.49755 2.17999 0
M  V30 3036 H 281.73 0.627568 0.41794 0
M  V30 3037 H 284.381 1.79713 0.370884 0
M  V30 3038 H 282.763 2.8026 2.79768 0
M  V30 3039 H 283.937 4.57458 0.554007 0
M  V30 3040 H 282.252 4.11179 0.657311 0
M  V30 3041 H 284.849 4.09471 3.43857 0
M  V30 3042 H 285.192 2.38238 3.41392 0
M  V30 3043 H 285.725 3.40475 2.05723 0
M  V30 3044 H 282.464 6.36318 1.57417 0
M  V30 3045 H 281.984 5.25937 2.88359 0
M  V30 3046 H 283.663 5.84401 2.77641 0
M  V30 3047 N 283.795 -0.628877 1.44509 0
M  V30 3048 C 285.025 -1.41349 1.50678 0
M  V30 3049 C 285.433 -1.88745 0.131075 0
M  V30 3050 O 284.776 -1.61592 -0.87371 0
M  V30 3051 C 284.838 -2.66608 2.41165 0
M  V30 3052 C 284.502 -2.40993 3.88293 0
M  V30 3053 C 285.499 -2.0268 4.78766 0
M  V30 3054 C 283.184 -2.54563 4.33016 0
M  V30 3055 C 285.178 -1.78269 6.11963 0
M  V30 3056 C 282.865 -2.29766 5.6626 0
M  V30 3057 C 283.863 -1.91678 6.55552 0
M  V30 3058 O 283.551 -1.67158 7.86329 0
M  V30 3059 H 283.283 -0.439851 0.51333 0
M  V30 3060 H 285.837 -0.776084 1.90174 0
M  V30 3061 H 284.067 -3.32994 1.96601 0
M  V30 3062 H 285.756 -3.28615 2.38259 0
M  V30 3063 H 286.522 -1.91751 4.45485 0
M  V30 3064 H 282.401 -2.83179 3.63773 0
M  V30 3065 H 285.945 -1.48465 6.81619 0
M  V30 3066 H 281.842 -2.40306 5.99102 0
M  V30 3067 H 282.61 -1.81386 7.98149 0
M  V30 3068 N 285.273 -1.31445 -0.869486 0
M  V30 3069 C 286.521 -1.20918 -1.61936 0
M  V30 3070 C 286.842 0.232683 -1.93607 0
M  V30 3071 O 286.112 1.15352 -1.58338 0
M  V30 3072 H 284.692 -0.44454 -0.600328 0
M  V30 3073 H 287.354 -1.64776 -1.0409 0
M  V30 3074 H 286.45 -1.78124 -2.56278 0
M  V30 3075 N 286.751 1.08385 -1.14413 0
M  V30 3076 C 287.976 1.85057 -0.936413 0
M  V30 3077 C 288.401 1.81055 0.509971 0
M  V30 3078 O 287.759 1.1958 1.36273 0
M  V30 3079 C 287.807 3.30505 -1.44217 0
M  V30 3080 O 286.911 4.07491 -0.634409 0
M  V30 3081 H 286.252 0.573425 -0.334784 0
M  V30 3082 H 288.782 1.36799 -1.52142 0
M  V30 3083 H 288.792 3.81348 -1.45043 0
M  V30 3084 H 287.467 3.32734 -2.49522 0
M  V30 3085 H 286.044 3.66368 -0.694902 0
M  V30 3086 N 288.23 0.939286 1.26551 0
M  V30 3087 C 289.458 0.602536 1.97932 0
M  V30 3088 C 289.873 -0.82206 1.69964 0
M  V30 3089 O 289.23 -1.54789 0.966784 0
M  V30 3090 C 289.281 0.832946 3.51773 0
M  V30 3091 O 289.002 2.20151 3.78768 0
M  V30 3092 C 290.503 0.506483 4.40397 0
M  V30 3093 H 287.723 0.227248 0.631347 0
M  V30 3094 H 290.267 1.25948 1.61113 0
M  V30 3095 H 288.422 0.222644 3.8676 0
M  V30 3096 H 288.836 2.26013 4.73306 0
M  V30 3097 H 290.31 0.718333 5.47306 0
M  V30 3098 H 290.787 -0.558451 4.35635 0
M  V30 3099 H 291.393 1.09543 4.10951 0
M  V30 3100 N 289.708 -1.40897 0.706093 0
M  V30 3101 C 290.955 -2.01054 0.241531 0
M  V30 3102 C 291.283 -1.55956 -1.16223 0
M  V30 3103 O 290.538 -0.766336 -1.80072 0
M  V30 3104 C 290.837 -3.5646 0.259099 0
M  V30 3105 C 290.503 -4.21106 1.61184 0
M  V30 3106 C 289.165 -4.38479 1.98216 0
M  V30 3107 C 291.517 -4.57256 2.50132 0
M  V30 3108 C 288.845 -4.89282 3.2376 0
M  V30 3109 C 291.197 -5.09454 3.7502 0
M  V30 3110 C 289.861 -5.25037 4.12181 0
M  V30 3111 H 289.131 -0.73571 0.0883825 0
M  V30 3112 H 291.778 -1.68645 0.907257 0
M  V30 3113 H 290.083 -3.88721 -0.490189 0
M  V30 3114 H 291.78 -4.00826 -0.11804 0
M  V30 3115 H 288.37 -4.07966 1.31384 0
M  V30 3116 H 292.554 -4.43479 2.228 0
M  V30 3117 H 287.81 -4.99531 3.52532 0
M  V30 3118 H 291.984 -5.36404 4.44121 0
M  V30 3119 H 289.611 -5.64164 5.09532 0
M  V30 3120 N 291.186 -0.45159 -1.50991 0
M  V30 3121 C 292.433 0.110074 -2.02201 0
M  V30 3122 C 292.761 1.4146 -1.33489 0
M  V30 3123 O 292.016 1.90617 -0.443125 0
M  V30 3124 C 292.315 0.361728 -3.55565 0
M  V30 3125 C 291.981 -0.858717 -4.42648 0
M  V30 3126 C 290.643 -1.19338 -4.66167 0
M  V30 3127 C 292.995 -1.67221 -4.93646 0
M  V30 3128 C 290.323 -2.34195 -5.37931 0
M  V30 3129 C 292.675 -2.8119 -5.6667 0
M  V30 3130 C 291.339 -3.15094 -5.88449 0
M  V30 3131 H 290.609 0.040279 -0.739904 0
M  V30 3132 H 293.256 -0.601696 -1.81802 0
M  V30 3133 H 291.561 1.15554 -3.74372 0
M  V30 3134 H 293.258 0.80996 -3.92735 0
M  V30 3135 H 289.848 -0.58796 -4.24548 0
M  V30 3136 H 294.032 -1.42686 -4.75347 0
M  V30 3137 H 289.288 -2.6076 -5.53005 0
M  V30 3138 H 293.462 -3.44585 -6.05173 0
M  V30 3139 H 291.089 -4.04204 -6.43835 0
M  V30 3140 N 292.664 1.56529 -0.183458 0
M  V30 3141 C 293.91 1.97537 0.459036 0
M  V30 3142 C 294.243 1.06989 1.62071 0
M  V30 3143 O 293.518 0.11948 1.94133 0
M  V30 3144 C 293.801 3.47874 0.930368 0
M  V30 3145 C 293.654 4.492 -0.232317 0
M  V30 3146 C 294.973 4.01612 1.79989 0
M  V30 3147 H 292.092 0.718204 0.165383 0
M  V30 3148 H 294.734 1.88042 -0.272038 0
M  V30 3149 H 292.884 3.56095 1.55333 0
M  V30 3150 H 294.556 4.53027 -0.86972 0
M  V30 3151 H 292.799 4.24657 -0.885928 0
M  V30 3152 H 293.47 5.51823 0.139796 0
M  V30 3153 H 295.946 3.96097 1.27461 0
M  V30 3154 H 294.822 5.07195 2.09867 0
M  V30 3155 H 295.083 3.46163 2.74998 0
M  V30 3156 N 294.142 -0.090211 1.57342 0
M  V30 3157 C 295.105 -1.09335 2.01441 0
M  V30 3158 C 296.105 -1.32666 0.908641 0
M  V30 3159 O 297.295 -1.28697 1.174 0
M  V30 3160 C 294.427 -2.44136 2.3793 0
M  V30 3161 H 295.62 -0.713662 2.91285 0
M  V30 3162 H 293.173 -0.335404 1.52659 0
M  V30 3163 H 293.908 -2.86972 1.51055 0
M  V30 3164 H 293.693 -2.28548 3.18603 0
M  V30 3165 H 295.183 -3.16277 2.72688 0
M  V30 3166 N 295.62 -1.53406 -0.361157 0
M  V30 3167 C 296.848 -1.73717 -1.12383 0
M  V30 3168 C 297.263 -0.468161 -1.82904 0
M  V30 3169 O 296.62 0.559198 -1.73722 0
M  V30 3170 C 296.671 -2.90558 -2.15078 0
M  V30 3171 O 296.392 -4.12549 -1.47428 0
M  V30 3172 C 297.893 -3.22777 -3.03858 0
M  V30 3173 H 295.113 -0.580896 -0.335858 0
M  V30 3174 H 297.657 -2.00167 -0.418728 0
M  V30 3175 H 295.812 -2.66489 -2.8118 0
M  V30 3176 H 296.226 -4.78009 -2.15887 0
M  V30 3177 H 297.7 -4.07927 -3.71887 0
M  V30 3178 H 298.177 -2.38329 -3.68912 0
M  V30 3179 H 298.783 -3.48787 -2.43367 0
M  V30 3180 N 297.098 0.621204 -1.44841 0
M  V30 3181 C 298.346 1.37783 -1.47852 0
M  V30 3182 C 298.667 1.94653 -0.116224 0
M  V30 3183 O 297.937 1.76367 0.852737 0
M  V30 3184 H 296.517 0.511453 -0.544449 0
M  V30 3185 H 299.179 0.730446 -1.80694 0
M  V30 3186 H 298.275 2.20414 -2.20961 0
M  V30 3187 N 298.576 1.31904 0.862503 0
M  V30 3188 C 299.823 1.22017 1.61611 0
M  V30 3189 C 300.151 -0.21991 1.93253 0
M  V30 3190 O 299.406 -1.17076 1.56817 0
M  V30 3191 C 299.705 2.01713 2.95037 0
M  V30 3192 C 299.371 3.51145 2.82857 0
M  V30 3193 C 298.033 3.91889 2.79243 0
M  V30 3194 C 300.385 4.46204 2.69353 0
M  V30 3195 C 297.713 5.25947 2.59993 0
M  V30 3196 C 300.065 5.80397 2.5164 0
M  V30 3197 C 298.729 6.20352 2.46413 0
M  V30 3198 H 297.999 0.44649 0.591378 0
M  V30 3199 H 300.646 1.63248 1.00111 0
M  V30 3200 H 298.951 1.53185 3.60613 0
M  V30 3201 H 300.648 1.91437 3.52353 0
M  V30 3202 H 297.238 3.1878 2.86491 0
M  V30 3203 H 301.422 4.15652 2.71196 0
M  V30 3204 H 296.678 5.5597 2.54376 0
M  V30 3205 H 300.852 6.53676 2.40169 0
M  V30 3206 H 298.479 7.24172 2.31256 0
M  V30 3207 N 300.054 -1.07777 1.14986 0
M  V30 3208 C 301.004 -2.13082 0.811181 0
M  V30 3209 C 301.988 -1.59619 -0.202597 0
M  V30 3210 O 303.18 -1.77 -0.00398275 0
M  V30 3211 C 300.309 -3.42009 0.297439 0
M  V30 3212 C 299.395 -4.02337 1.34112 0
M  V30 3213 N 299.786 -4.36982 2.54716 0
M  V30 3214 C 298.084 -4.29752 1.19285 0
M  V30 3215 C 298.785 -4.84729 3.21578 0
M  V30 3216 N 297.761 -4.83233 2.48972 0
M  V30 3217 H 301.563 -2.37696 1.72853 0
M  V30 3218 H 299.077 -1.25173 1.03468 0
M  V30 3219 H 301.074 -4.16884 0.0364777 0
M  V30 3220 H 299.734 -3.18841 -0.614022 0
M  V30 3221 H 300.745 -4.27807 2.91894 0
M  V30 3222 H 297.422 -4.16106 0.340926 0
M  V30 3223 H 298.812 -5.20863 4.24442 0
M  V30 3224 N 301.532 -0.945985 -1.26051 0
M  V30 3225 C 302.78 -0.594941 -1.93145 0
M  V30 3226 C 303.101 0.86953 -1.7454 0
M  V30 3227 O 302.371 1.61838 -1.10387 0
M  V30 3228 H 300.951 -0.217044 -0.714773 0
M  V30 3229 H 303.613 -1.20235 -1.53393 0
M  V30 3230 H 302.709 -0.816835 -3.01221 0
M  V30 3231 N 303.011 1.40521 -0.713556 0
M  V30 3232 C 303.941 2.33381 -0.0743864 0
M  V30 3233 C 304.922 1.52784 0.747735 0
M  V30 3234 O 306.107 1.81258 0.697071 0
M  V30 3235 C 303.237 3.36748 0.849598 0
M  V30 3236 C 302.191 4.27793 0.133247 0
M  V30 3237 C 301.517 5.21679 1.17281 0
M  V30 3238 C 302.817 5.12415 -1.01134 0
M  V30 3239 H 304.511 2.87081 -0.850007 0
M  V30 3240 H 302.057 1.38034 -0.410201 0
M  V30 3241 H 304.01 4.00648 1.30612 0
M  V30 3242 H 302.734 2.81439 1.65709 0
M  V30 3243 H 301.393 3.65342 -0.303426 0
M  V30 3244 H 301.041 4.62677 1.9733 0
M  V30 3245 H 300.741 5.83435 0.698397 0
M  V30 3246 H 302.265 5.88456 1.62947 0
M  V30 3247 H 303.679 5.69781 -0.634274 0
M  V30 3248 H 302.076 5.83203 -1.41399 0
M  V30 3249 H 303.146 4.48514 -1.84292 0
M  V30 3250 N 304.489 0.459591 1.5075 0
M  V30 3251 C 305.439 -0.358926 2.25157 0
M  V30 3252 C 306.423 -0.971285 1.28276 0
M  V30 3253 O 307.615 -0.885739 1.53244 0
M  V30 3254 C 304.744 -1.44695 3.11317 0
M  V30 3255 C 303.83 -0.842894 4.15639 0
M  V30 3256 N 304.221 0.0299373 5.05791 0
M  V30 3257 C 302.519 -1.10809 4.32015 0
M  V30 3258 C 303.22 0.371563 5.80512 0
M  V30 3259 N 302.196 -0.250409 5.43023 0
M  V30 3260 H 305.998 0.313636 2.92222 0
M  V30 3261 H 303.512 0.273021 1.60089 0
M  V30 3262 H 305.509 -2.04641 3.63218 0
M  V30 3263 H 304.169 -2.12162 2.45799 0
M  V30 3264 H 305.18 0.39797 5.16369 0
M  V30 3265 H 301.857 -1.7786 3.77719 0
M  V30 3266 H 303.247 1.08319 6.63111 0
M  V30 3267 N 305.967 -1.56429 0.191757 0
M  V30 3268 C 307.213 -1.97777 -0.448554 0
M  V30 3269 C 307.546 -1.07847 -1.61501 0
M  V30 3270 O 306.821 -0.129774 -1.94067 0
M  V30 3271 C 307.104 -3.48362 -0.911906 0
M  V30 3272 C 306.957 -4.4907 0.256136 0
M  V30 3273 C 308.276 -4.02561 -1.77857 0
M  V30 3274 H 305.395 -0.719071 -0.161572 0
M  V30 3275 H 308.037 -1.87896 0.282007 0
M  V30 3276 H 306.187 -3.56914 -1.53442 0
M  V30 3277 H 307.859 -4.5256 0.893733 0
M  V30 3278 H 306.102 -4.24181 0.908436 0
M  V30 3279 H 306.773 -5.51889 -0.11053 0
M  V30 3280 H 309.249 -3.96767 -1.25359 0
M  V30 3281 H 308.125 -5.08301 -2.07174 0
M  V30 3282 H 308.386 -3.47616 -2.73158 0
M  V30 3283 N 307.445 0.0818655 -1.57387 0
M  V30 3284 C 308.694 0.781681 -1.85937 0
M  V30 3285 C 309.007 1.79246 -0.782957 0
M  V30 3286 O 310.213 2.54112 -0.955987 0
M  V30 3287 C 308.669 1.44109 -3.29789 0
M  V30 3288 C 308.277 0.469396 -4.45534 0
M  V30 3289 C 310.021 2.12386 -3.67549 0
M  V30 3290 C 307.928 1.13415 -5.80423 0
M  V30 3291 H 306.858 0.295682 -0.693605 0
M  V30 3292 H 309.509 0.0348051 -1.83467 0
M  V30 3293 H 307.891 2.23588 -3.2684 0
M  V30 3294 H 309.065 -0.294856 -4.59856 0
M  V30 3295 H 307.38 -0.108383 -4.16259 0
M  V30 3296 H 309.977 2.62878 -4.65617 0
M  V30 3297 H 310.32 2.91877 -2.96839 0
M  V30 3298 H 310.853 1.39751 -3.72444 0
M  V30 3299 H 307.592 0.379771 -6.54399 0
M  V30 3300 H 307.112 1.8695 -5.69921 0
M  V30 3301 H 308.791 1.65686 -6.25426 0
M  V30 3302 N 308.923 1.53595 0.353017 0
M  V30 3303 C 310.172 1.69603 1.09168 0
M  V30 3304 C 310.485 0.460925 1.90092 0
M  V30 3305 O 311.691 0.501774 2.66823 0
M  V30 3306 C 310.147 2.99872 1.9901 0
M  V30 3307 C 309.755 4.30687 1.23339 0
M  V30 3308 C 311.499 3.25246 2.72792 0
M  V30 3309 C 309.406 5.52036 2.12156 0
M  V30 3310 H 308.336 0.631966 0.411261 0
M  V30 3311 H 310.987 1.80096 0.351802 0
M  V30 3312 H 309.369 2.83212 2.7678 0
M  V30 3313 H 310.543 4.58019 0.505456 0
M  V30 3314 H 308.858 4.11853 0.613663 0
M  V30 3315 H 311.455 4.13095 3.39495 0
M  V30 3316 H 311.798 2.41846 3.38846 0
M  V30 3317 H 312.331 3.42638 2.021 0
M  V30 3318 H 309.07 6.37951 1.50659 0
M  V30 3319 H 308.59 5.28966 2.82764 0
M  V30 3320 H 310.269 5.87313 2.71427 0
M  V30 3321 N 310.401 -0.613514 1.45168 0
M  V30 3322 C 311.649 -1.36997 1.48581 0
M  V30 3323 C 311.97 -1.94589 0.126545 0
M  V30 3324 O 311.24 -1.76816 -0.843372 0
M  V30 3325 H 309.82 -0.508558 0.547154 0
M  V30 3326 H 312.482 -0.720853 1.81079 0
M  V30 3327 H 311.578 -2.1924 2.22127 0
M  V30 3328 N 311.879 -1.3236 -0.855495 0
M  V30 3329 C 313.104 -1.2601 -1.64731 0
M  V30 3330 C 313.529 0.169068 -1.87339 0
M  V30 3331 O 312.887 1.12016 -1.42556 0
M  V30 3332 C 312.935 -2.02417 -2.98429 0
M  V30 3333 O 312.039 -1.3714 -3.8893 0
M  V30 3334 H 311.38 -0.434325 -0.502253 0
M  V30 3335 H 313.91 -1.74661 -1.06558 0
M  V30 3336 H 313.92 -2.12559 -3.48257 0
M  V30 3337 H 312.595 -3.06343 -2.81295 0
M  V30 3338 H 311.172 -1.3554 -3.47395 0
M  V30 3339 N 313.357 1.07166 -1.15556 0
M  V30 3340 C 314.585 1.83514 -0.955519 0
M  V30 3341 C 315 1.82163 0.49621 0
M  V30 3342 O 314.357 1.23441 1.34419 0
M  V30 3343 C 314.408 3.30515 -1.46432 0
M  V30 3344 O 314.129 3.31937 -2.85918 0
M  V30 3345 C 315.63 4.23625 -1.30603 0
M  V30 3346 H 312.85 0.578926 -0.339244 0
M  V30 3347 H 315.394 1.35265 -1.53374 0
M  V30 3348 H 313.549 3.76106 -0.928584 0
M  V30 3349 H 313.963 4.23794 -3.09029 0
M  V30 3350 H 315.437 5.24831 -1.71047 0
M  V30 3351 H 315.914 4.38485 -0.250441 0
M  V30 3352 H 316.52 3.83871 -1.83094 0
M  V30 3353 N 314.835 0.952656 1.25548 0
M  V30 3354 C 316.082 0.606373 1.93208 0
M  V30 3355 C 316.41 -0.85631 1.74636 0
M  V30 3356 O 315.665 -1.62951 1.08376 0
M  V30 3357 C 315.964 0.908818 3.45652 0
M  V30 3358 C 315.63 2.35722 3.84378 0
M  V30 3359 C 314.292 2.75312 3.9466 0
M  V30 3360 C 316.644 3.29793 4.03591 0
M  V30 3361 C 313.972 4.08047 4.21562 0
M  V30 3362 C 316.324 4.62138 4.31985 0
M  V30 3363 C 314.988 5.01528 4.40484 0
M  V30 3364 H 314.258 0.221888 0.706998 0
M  V30 3365 H 316.905 1.20132 1.49133 0
M  V30 3366 H 315.21 0.231456 3.91116 0
M  V30 3367 H 316.907 0.619498 3.96186 0
M  V30 3368 H 313.497 2.04017 3.76928 0
M  V30 3369 H 317.681 3.00397 3.95064 0
M  V30 3370 H 312.937 4.38212 4.26357 0
M  V30 3371 H 317.111 5.35012 4.45797 0
M  V30 3372 H 314.738 6.04406 4.61083 0
M  V30 3373 N 316.313 -1.40141 0.720998 0
M  V30 3374 C 317.243 -2.33339 0.0867621 0
M  V30 3375 C 318.224 -1.53178 -0.739622 0
M  V30 3376 O 319.409 -1.81625 -0.687449 0
M  V30 3377 C 316.539 -3.37194 -0.831728 0
M  V30 3378 C 315.493 -4.27857 -0.110558 0
M  V30 3379 C 314.819 -5.22294 -1.14513 0
M  V30 3380 C 316.119 -5.11872 1.0385 0
M  V30 3381 H 317.813 -2.86626 0.865219 0
M  V30 3382 H 315.359 -1.37814 0.417516 0
M  V30 3383 H 317.312 -4.01335 -1.28485 0
M  V30 3384 H 316.036 -2.82314 -1.64214 0
M  V30 3385 H 314.695 -3.65176 0.322797 0
M  V30 3386 H 314.343 -4.63717 -1.94874 0
M  V30 3387 H 314.043 -5.83797 -0.667446 0
M  V30 3388 H 315.567 -5.89312 -1.59824 0
M  V30 3389 H 316.981 -5.69436 0.664482 0
M  V30 3390 H 315.378 -5.82445 1.4449 0
M  V30 3391 H 316.448 -4.4753 1.86668 0
M  V30 3392 N 317.792 -0.46758 -1.50504 0
M  V30 3393 C 319.02 0.0864133 -2.06719 0
M  V30 3394 C 319.435 1.33819 -1.33184 0
M  V30 3395 O 318.792 1.78061 -0.400083 0
M  V30 3396 C 318.843 0.378079 -3.59517 0
M  V30 3397 O 318.564 -0.824044 -4.3028 0
M  V30 3398 C 320.065 0.979426 -4.32345 0
M  V30 3399 H 317.285 -0.00551697 -0.670977 0
M  V30 3400 H 319.829 -0.655354 -1.93715 0
M  V30 3401 H 317.984 1.06977 -3.72337 0
M  V30 3402 H 318.398 -0.566518 -5.21432 0
M  V30 3403 H 319.872 1.1333 -5.40241 0
M  V30 3404 H 320.349 1.9686 -3.9261 0
M  V30 3405 H 320.955 0.326216 -4.24047 0
M  V30 3406 N 319.27 1.56325 -0.20005 0
M  V30 3407 C 320.519 1.96895 0.437652 0
M  V30 3408 C 320.832 1.08999 1.62415 0
M  V30 3409 O 322.038 1.39372 2.32997 0
M  V30 3410 C 320.494 3.50198 0.830025 0
M  V30 3411 C 320.102 4.46765 -0.332461 0
M  V30 3412 C 321.846 3.99526 1.43453 0
M  V30 3413 C 319.753 5.91344 0.0811468 0
M  V30 3414 H 318.683 0.735209 0.167282 0
M  V30 3415 H 321.334 1.81148 -0.292853 0
M  V30 3416 H 319.716 3.61467 1.61734 0
M  V30 3417 H 320.89 4.47231 -1.11 0
M  V30 3418 H 319.205 4.07657 -0.848789 0
M  V30 3419 H 321.802 5.05025 1.75652 0
M  V30 3420 H 322.145 3.44122 2.34277 0
M  V30 3421 H 322.678 3.91393 0.71109 0
M  V30 3422 H 319.417 6.50685 -0.793033 0
M  V30 3423 H 318.937 5.94121 0.823445 0
M  V30 3424 H 320.616 6.44945 0.515252 0
M  V30 3425 N 320.748 -0.0735177 1.57428 0
M  V30 3426 C 321.988 -0.778363 1.89 0
M  V30 3427 C 322.352 -1.7483 0.793634 0
M  V30 3428 O 323.553 -2.49811 0.992367 0
M  V30 3429 C 321.824 -1.46929 3.25802 0
M  V30 3430 S 323.383 -2.20943 3.79117 0
M  V30 3431 H 320.201 -0.258874 0.662197 0
M  V30 3432 H 322.803 -0.0345338 1.95469 0
M  V30 3433 H 321.507 -0.749532 4.03497 0
M  V30 3434 H 321.038 -2.25258 3.22525 0
M  V30 3435 H 323.053 -3.47435 3.54265 0
M  V30 3436 N 322.226 -1.5378 -0.344866 0
M  V30 3437 C 323.473 -1.70963 -1.08526 0
M  V30 3438 C 323.801 -0.472126 -1.88683 0
M  V30 3439 O 323.056 0.546116 -1.87926 0
M  V30 3440 C 323.355 -2.92407 -2.05506 0
M  V30 3441 C 323.021 -4.28066 -1.41671 0
M  V30 3442 C 321.683 -4.64951 -1.2399 0
M  V30 3443 C 324.035 -5.12344 -0.956726 0
M  V30 3444 C 321.363 -5.83733 -0.589277 0
M  V30 3445 C 323.715 -6.3179 -0.320015 0
M  V30 3446 C 322.379 -6.67372 -0.130881 0
M  V30 3447 H 321.649 -0.625598 -0.397124 0
M  V30 3448 H 324.296 -1.87995 -0.36469 0
M  V30 3449 H 322.601 -2.69973 -2.8394 0
M  V30 3450 H 324.298 -3.02895 -2.62784 0
M  V30 3451 H 320.888 -3.99034 -1.56429 0
M  V30 3452 H 325.072 -4.8438 -1.08118 0
M  V30 3453 H 320.328 -6.09877 -0.431344 0
M  V30 3454 H 324.502 -6.96386 0.0445072 0
M  V30 3455 H 322.129 -7.59273 0.375318 0
M  V30 3456 N 323.704 0.605807 -1.45491 0
M  V30 3457 C 324.953 1.36086 -1.48874 0
M  V30 3458 C 325.266 1.95131 -0.135333 0
M  V30 3459 O 326.472 2.7146 -0.0468144 0
M  V30 3460 C 324.928 2.46518 -2.62215 0
M  V30 3461 C 324.536 1.93877 -4.03876 0
M  V30 3462 C 326.28 3.23512 -2.74846 0
M  V30 3463 C 324.187 3.01801 -5.08596 0
M  V30 3464 H 323.117 0.511497 -0.553974 0
M  V30 3465 H 325.768 0.649089 -1.71636 0
M  V30 3466 H 324.15 3.20388 -2.32739 0
M  V30 3467 H 325.324 1.26704 -4.43038 0
M  V30 3468 H 323.639 1.29622 -3.95711 0
M  V30 3469 H 326.236 4.04013 -3.50253 0
M  V30 3470 H 326.579 3.74631 -1.81542 0
M  V30 3471 H 327.112 2.56742 -3.03856 0
M  V30 3472 H 323.851 2.55597 -6.03614 0
M  V30 3473 H 323.371 3.67535 -4.74002 0
M  V30 3474 H 325.05 3.66152 -5.33424 0
M  V30 3475 N 325.182 1.32811 0.848464 0
M  V30 3476 C 326.598 1.11937 1.13764 0
M  V30 3477 C 326.798 -0.0960789 2.01271 0
M  V30 3478 O 325.854 -0.779165 2.40178 0
M  V30 3479 C 327.167 2.402 1.809 0
M  V30 3480 C 328.715 2.46016 1.93508 0
M  V30 3481 C 329.19 3.74215 2.64059 0
M  V30 3482 N 330.681 3.75232 2.71579 0
M  V30 3483 C 331.416 4.71134 3.26833 0
M  V30 3484 N 330.912 5.77406 3.8285 0
M  V30 3485 N 332.705 4.58623 3.24995 0
M  V30 3486 H 324.856 2.1073 0.265855 0
M  V30 3487 H 327.119 0.930671 0.180431 0
M  V30 3488 H 326.825 3.29093 1.24058 0
M  V30 3489 H 326.699 2.51628 2.81004 0
M  V30 3490 H 329.086 1.57577 2.49506 0
M  V30 3491 H 329.167 2.38536 0.923811 0
M  V30 3492 H 328.811 4.63031 2.08722 0
M  V30 3493 H 328.741 3.78968 3.65637 0
M  V30 3494 H 331.232 2.98423 2.31845 0
M  V30 3495 H 331.545 6.46632 4.23187 0
M  V30 3496 H 329.89 5.81152 3.81165 0
M  V30 3497 H 333.081 3.74762 2.80484 0
M  V30 3498 H 333.254 5.33535 3.67756 0
M  V30 3499 N 326.66 -1.06551 1.16123 0
M  V30 3500 C 327.592 -2.13908 0.823171 0
M  V30 3501 C 328.605 -1.61926 -0.16843 0
M  V30 3502 O 329.794 -1.78412 0.055962 0
M  V30 3503 C 326.894 -3.38283 0.204424 0
M  V30 3504 C 326.067 -4.19589 1.23548 0
M  V30 3505 C 325.126 -5.2233 0.637011 0
M  V30 3506 O 324.152 -5.54034 1.30516 0
M  V30 3507 N 325.354 -5.77621 -0.577474 0
M  V30 3508 H 328.119 -2.43508 1.74711 0
M  V30 3509 H 325.68 -1.2253 1.05821 0
M  V30 3510 H 327.672 -4.0416 -0.208909 0
M  V30 3511 H 326.242 -3.06329 -0.623012 0
M  V30 3512 H 325.462 -3.49406 1.82507 0
M  V30 3513 H 326.75 -4.70718 1.93137 0
M  V30 3514 H 326.148 -5.54125 -1.13853 0
M  V30 3515 H 324.705 -6.45087 -0.933053 0
M  V30 3516 N 328.138 -0.959301 -1.25041 0
M  V30 3517 C 329.068 -0.501388 -2.28053 0
M  V30 3518 C 330.049 0.454673 -1.63911 0
M  V30 3519 O 331.234 0.352618 -1.90972 0
M  V30 3520 C 328.364 0.217224 -3.4662 0
M  V30 3521 C 327.318 -0.654034 -4.22973 0
M  V30 3522 C 326.644 0.195589 -5.34342 0
M  V30 3523 C 327.944 -1.93447 -4.85155 0
M  V30 3524 H 329.638 -1.36238 -2.66608 0
M  V30 3525 H 327.184 -0.656534 -1.28163 0
M  V30 3526 H 329.137 0.548732 -4.17812 0
M  V30 3527 H 327.861 1.1125 -3.07068 0
M  V30 3528 H 326.52 -0.968693 -3.5357 0
M  V30 3529 H 326.168 1.09076 -4.91031 0
M  V30 3530 H 325.868 -0.384091 -5.86343 0
M  V30 3531 H 327.392 0.521958 -6.08365 0
M  V30 3532 H 328.806 -1.66908 -5.48466 0
M  V30 3533 H 327.203 -2.46018 -5.47353 0
M  V30 3534 H 328.273 -2.63466 -4.07079 0
M  V30 3535 N 329.616 1.39756 -0.72842 0
M  V30 3536 C 330.549 2.28176 -0.0330172 0
M  V30 3537 C 331.527 1.44035 0.754501 0
M  V30 3538 O 332.711 1.73434 0.738445 0
M  V30 3539 C 329.838 3.24795 0.960504 0
M  V30 3540 C 328.884 4.25693 0.262264 0
M  V30 3541 S 329.717 5.25714 -1.01906 0
M  V30 3542 C 330.873 6.25894 -0.0279717 0
M  V30 3543 H 331.106 2.86807 -0.78287 0
M  V30 3544 H 328.639 1.45382 -0.519951 0
M  V30 3545 H 330.597 3.80983 1.52846 0
M  V30 3546 H 329.258 2.65196 1.68315 0
M  V30 3547 H 328.451 4.93699 1.01379 0
M  V30 3548 H 328.053 3.7327 -0.233482 0
M  V30 3549 H 330.345 6.72585 0.814621 0
M  V30 3550 H 331.288 7.04876 -0.67499 0
M  V30 3551 H 331.696 5.63466 0.341489 0
M  V30 3552 N 331.094 0.475555 1.50254 0
M  V30 3553 C 332.341 -0.0778919 2.0235 0
M  V30 3554 C 332.669 -1.39319 1.35722 0
M  V30 3555 O 331.924 -1.89888 0.473395 0
M  V30 3556 C 332.223 -0.305114 3.56095 0
M  V30 3557 C 331.889 0.92903 4.41225 0
M  V30 3558 C 330.551 1.26739 4.6421 0
M  V30 3559 C 332.903 1.75054 4.90923 0
M  V30 3560 C 330.231 2.42724 5.34137 0
M  V30 3561 C 332.583 2.9017 5.62125 0
M  V30 3562 C 331.247 3.24416 5.83362 0
M  V30 3563 H 330.517 -0.0285027 0.740452 0
M  V30 3564 H 333.164 0.630543 1.80821 0
M  V30 3565 H 331.469 -1.09584 3.76163 0
M  V30 3566 H 333.166 -0.747377 3.93974 0
M  V30 3567 H 329.756 0.655428 4.23559 0
M  V30 3568 H 333.94 1.50231 4.73016 0
M  V30 3569 H 329.196 2.69525 5.48786 0
M  V30 3570 H 333.37 3.54169 5.99614 0
M  V30 3571 H 330.997 4.14396 6.37323 0
M  V30 3572 N 332.573 -1.56217 0.208337 0
M  V30 3573 C 333.523 -2.16324 -0.720281 0
M  V30 3574 C 334.507 -1.10775 -1.16695 0
M  V30 3575 O 335.699 -1.36801 -1.12314 0
M  V30 3576 C 332.828 -2.83644 -1.93393 0
M  V30 3577 C 331.914 -3.96401 -1.50755 0
M  V30 3578 N 332.305 -4.99546 -0.792937 0
M  V30 3579 C 330.603 -4.08246 -1.79585 0
M  V30 3580 C 331.304 -5.78828 -0.577364 0
M  V30 3581 N 330.28 -5.31723 -1.1301 0
M  V30 3582 H 334.082 -2.93432 -0.165725 0
M  V30 3583 H 331.596 -1.62397 0.00906463 0
M  V30 3584 H 333.593 -3.25107 -2.60981 0
M  V30 3585 H 332.253 -2.08027 -2.49308 0
M  V30 3586 H 333.264 -5.15967 -0.447004 0
M  V30 3587 H 329.941 -3.4377 -2.36915 0
M  V30 3588 H 331.331 -6.71899 -0.00952956 0
M  V30 3589 N 334.051 0.0651679 -1.57465 0
M  V30 3590 C 335.298 0.763063 -1.87573 0
M  V30 3591 C 335.626 1.77242 -0.800961 0
M  V30 3592 O 334.881 1.94651 0.202316 0
M  V30 3593 C 335.18 1.50081 -3.24362 0
M  V30 3594 C 334.846 0.630816 -4.46466 0
M  V30 3595 C 333.508 0.391082 -4.79608 0
M  V30 3596 C 335.86 0.0279465 -5.21193 0
M  V30 3597 C 333.188 -0.460894 -5.84887 0
M  V30 3598 C 335.54 -0.811522 -6.27373 0
M  V30 3599 C 334.204 -1.06106 -6.59013 0
M  V30 3600 H 333.474 0.279224 -0.686378 0
M  V30 3601 H 336.121 0.0236726 -1.91485 0
M  V30 3602 H 334.426 2.31258 -3.16271 0
M  V30 3603 H 336.123 2.04571 -3.44894 0
M  V30 3604 H 332.713 0.8278 -4.2053 0
M  V30 3605 H 336.897 0.200262 -4.95896 0
M  V30 3606 H 332.153 -0.662907 -6.07796 0
M  V30 3607 H 336.327 -1.28537 -6.84435 0
M  V30 3608 H 333.954 -1.723 -7.40417 0
M  V30 3609 N 335.529 1.53961 0.336706 0
M  V30 3610 C 336.757 1.75483 1.09605 0
M  V30 3611 C 337.172 0.4972 1.82136 0
M  V30 3612 O 336.529 -0.53149 1.74589 0
M  V30 3613 C 336.58 2.93943 2.10428 0
M  V30 3614 O 336.301 4.14842 1.40846 0
M  V30 3615 C 337.802 3.27571 2.98684 0
M  V30 3616 H 335.022 0.586166 0.326574 0
M  V30 3617 H 337.566 2.00808 0.38683 0
M  V30 3618 H 335.721 2.70929 2.76905 0
M  V30 3619 H 336.135 4.81383 2.08255 0
M  V30 3620 H 337.609 4.13791 3.6535 0
M  V30 3621 H 338.086 2.44168 3.65074 0
M  V30 3622 H 338.692 3.52615 2.37787 0
M  V30 3623 N 337.007 -0.598083 1.45811 0
M  V30 3624 C 338.232 -1.3881 1.54099 0
M  V30 3625 C 338.657 -1.8726 0.177578 0
M  V30 3626 O 338.015 -1.6069 -0.839541 0
M  V30 3627 C 338.063 -2.56217 2.53743 0
M  V30 3628 O 337.167 -3.5716 2.06182 0
M  V30 3629 H 336.508 -0.414024 0.519115 0
M  V30 3630 H 339.038 -0.726971 1.91249 0
M  V30 3631 H 339.048 -3.03337 2.72856 0
M  V30 3632 H 337.723 -2.20303 3.5276 0
M  V30 3633 H 336.3 -3.16624 1.96987 0
M  V30 3634 N 338.485 -1.33259 -0.841409 0
M  V30 3635 C 339.432 -1.23302 -1.95103 0
M  V30 3636 C 340.402 -0.112204 -1.65721 0
M  V30 3637 O 341.587 -0.290038 -1.88583 0
M  V30 3638 C 338.727 -0.975583 -3.31023 0
M  V30 3639 C 337.84 -2.18243 -3.72819 0
M  V30 3640 C 336.975 -1.85936 -4.97595 0
M  V30 3641 C 336.014 -3.02866 -5.3192 0
M  V30 3642 N 335.151 -2.70565 -6.47873 0
M  V30 3643 H 339.991 -2.18207 -2.02952 0
M  V30 3644 H 337.528 -1.0851 -0.993173 0
M  V30 3645 H 339.486 -0.80677 -4.09325 0
M  V30 3646 H 338.116 -0.0632755 -3.22738 0
M  V30 3647 H 337.168 -2.46107 -2.90061 0
M  V30 3648 H 338.48 -3.05666 -3.94169 0
M  V30 3649 H 337.634 -1.65684 -5.83638 0
M  V30 3650 H 336.373 -0.957452 -4.78209 0
M  V30 3651 H 335.378 -3.23736 -4.44382 0
M  V30 3652 H 336.603 -3.93809 -5.53255 0
M  V30 3653 H 334.549 -1.8293 -6.29978 0
M  V30 3654 H 334.466 -3.51519 -6.69306 0
M  V30 3655 H 335.734 -2.53774 -7.37034 0
M  V30 3656 N 339.963 1.05934 -1.16686 0
M  V30 3657 C 340.913 2.11764 -0.844978 0
M  V30 3658 C 341.897 1.59922 0.177178 0
M  V30 3659 O 343.089 1.76983 -0.0241768 0
M  V30 3660 C 340.218 3.41493 -0.351812 0
M  V30 3661 C 339.304 4.00152 -1.40496 0
M  V30 3662 N 339.695 4.32874 -2.61636 0
M  V30 3663 C 337.993 4.278 -1.26106 0
M  V30 3664 C 338.694 4.79552 -3.29249 0
M  V30 3665 N 337.67 4.79211 -2.56628 0
M  V30 3666 H 341.472 2.34916 -1.76612 0
M  V30 3667 H 338.986 1.23511 -1.05446 0
M  V30 3668 H 340.983 4.16773 -0.102796 0
M  V30 3669 H 339.643 3.19778 0.56322 0
M  V30 3670 H 340.654 4.23109 -2.98663 0
M  V30 3671 H 337.331 4.15511 -0.407081 0
M  V30 3672 H 338.721 5.14045 -4.32675 0
M  V30 3673 N 341.441 0.965919 1.2453 0
M  V30 3674 C 342.391 0.465731 2.23193 0
M  V30 3675 C 343.375 -0.451277 1.54442 0
M  V30 3676 O 344.567 -0.282489 1.74731 0
M  V30 3677 C 341.696 -0.244511 3.42428 0
M  V30 3678 C 340.782 0.691222 4.18429 0
M  V30 3679 N 341.173 1.82771 4.71623 0
M  V30 3680 C 339.471 0.501649 4.4317 0
M  V30 3681 C 340.172 2.41285 5.29298 0
M  V30 3682 N 339.148 1.69819 5.16394 0
M  V30 3683 H 342.95 1.33291 2.61937 0
M  V30 3684 H 340.464 0.824789 1.39896 0
M  V30 3685 H 342.461 -0.620056 4.12263 0
M  V30 3686 H 341.121 -1.10815 3.05205 0
M  V30 3687 H 342.132 2.20929 4.68413 0
M  V30 3688 H 338.809 -0.318177 4.16286 0
M  V30 3689 H 340.199 3.37181 5.8117 0
M  V30 3690 N 342.919 -1.39368 0.735821 0
M  V30 3691 C 344.166 -2.00497 0.284123 0
M  V30 3692 C 344.494 -1.58387 -1.12889 0
M  V30 3693 O 343.749 -0.804359 -1.78406 0
M  V30 3694 C 344.048 -3.5583 0.334651 0
M  V30 3695 C 343.714 -4.17593 1.7008 0
M  V30 3696 C 342.376 -4.34176 2.07472 0
M  V30 3697 C 344.728 -4.51848 2.59775 0
M  V30 3698 C 342.056 -4.82304 3.34065 0
M  V30 3699 C 344.408 -5.01384 3.85741 0
M  V30 3700 C 343.072 -5.16175 4.23225 0
M  V30 3701 H 342.342 -0.73367 0.103968 0
M  V30 3702 H 344.989 -1.66683 0.942825 0
M  V30 3703 H 343.294 -3.89674 -0.407625 0
M  V30 3704 H 344.991 -4.00986 -0.0329927 0
M  V30 3705 H 341.581 -4.05087 1.40008 0
M  V30 3706 H 345.765 -4.38653 2.32157 0
M  V30 3707 H 341.021 -4.91941 3.63049 0
M  V30 3708 H 345.195 -5.26863 4.55399 0
M  V30 3709 H 342.822 -5.5323 5.21384 0
M  V30 3710 N 344.397 -0.483516 -1.5 0
M  V30 3711 C 345.645 0.067027 -2.01989 0
M  V30 3712 C 345.966 1.3909 -1.36671 0
M  V30 3713 O 345.236 1.88978 -0.516152 0
M  V30 3714 H 343.816 0.0277606 -0.746484 0
M  V30 3715 H 346.478 -0.636773 -1.84204 0
M  V30 3716 H 345.574 0.209484 -3.11396 0
M  V30 3717 N 345.875 1.56104 -0.216619 0
M  V30 3718 C 347.122 1.98172 0.416416 0
M  V30 3719 C 347.45 1.10413 1.60122 0
M  V30 3720 O 346.705 0.147967 1.9514 0
M  V30 3721 C 347.004 3.45923 0.898464 0
M  V30 3722 C 346.67 4.50559 -0.175288 0
M  V30 3723 C 345.332 4.78897 -0.470271 0
M  V30 3724 C 347.684 5.1334 -0.901728 0
M  V30 3725 C 345.012 5.67299 -1.4963 0
M  V30 3726 C 347.364 6.02853 -1.91705 0
M  V30 3727 C 346.028 6.29537 -2.21901 0
M  V30 3728 H 345.298 0.725164 0.152377 0
M  V30 3729 H 347.945 1.88839 -0.318103 0
M  V30 3730 H 346.25 3.52434 1.71165 0
M  V30 3731 H 347.947 3.75841 1.39803 0
M  V30 3732 H 344.537 4.28551 0.0647806 0
M  V30 3733 H 348.721 4.91521 -0.687072 0
M  V30 3734 H 343.977 5.86239 -1.73592 0
M  V30 3735 H 348.151 6.50552 -2.48505 0
M  V30 3736 H 345.778 6.97835 -3.01548 0
M  V30 3737 N 347.353 -0.0568162 1.57498 0
M  V30 3738 C 348.263 -1.08346 2.08083 0
M  V30 3739 C 349.279 -1.41439 1.01346 0
M  V30 3740 O 350.455 -1.51316 1.32912 0
M  V30 3741 C 347.52 -2.37352 2.52715 0
M  V30 3742 C 346.581 -2.11093 3.73816 0
M  V30 3743 C 345.814 -3.33949 4.1631 0
M  V30 3744 O 346.037 -4.43622 3.58547 0
M  V30 3745 O 344.971 -3.21279 5.08983 0
M  V30 3746 H 348.797 -0.683667 2.95905 0
M  V30 3747 H 346.382 -0.271965 1.46904 0
M  V30 3748 H 348.264 -3.13246 2.81877 0
M  V30 3749 H 346.939 -2.76681 1.68016 0
M  V30 3750 H 345.846 -1.32856 3.49714 0
M  V30 3751 H 347.179 -1.76637 4.59413 0
M  V30 3752 N 348.832 -1.54138 -0.328536 0
M  V30 3753 C 349.795 -1.82462 -1.38709 0
M  V30 3754 C 350.795 -0.696229 -1.44946 0
M  V30 3755 O 351.985 -0.964535 -1.4506 0
M  V30 3756 C 349.117 -1.98018 -2.77492 0
M  V30 3757 H 350.31 -2.77037 -1.14851 0
M  V30 3758 H 347.863 -1.45779 -0.563751 0
M  V30 3759 H 348.598 -1.05637 -3.06613 0
M  V30 3760 H 348.383 -2.80124 -2.74359 0
M  V30 3761 H 349.873 -2.21396 -3.54081 0
M  V30 3762 N 350.31 0.590341 -1.46126 0
M  V30 3763 C 351.273 1.68194 -1.55703 0
M  V30 3764 C 352.273 1.54808 -0.434868 0
M  V30 3765 O 353.463 1.59564 -0.698928 0
M  V30 3766 C 350.595 3.07575 -1.47005 0
M  V30 3767 H 351.788 1.61064 -2.52979 0
M  V30 3768 H 349.341 0.807541 -1.33823 0
M  V30 3769 H 350.076 3.20268 -0.509785 0
M  V30 3770 H 349.861 3.187 -2.28414 0
M  V30 3771 H 351.351 3.87055 -1.56776 0
M  V30 3772 N 351.788 1.33704 0.83433 0
M  V30 3773 C 352.751 1.24244 1.92603 0
M  V30 3774 C 353.751 0.160383 1.59998 0
M  V30 3775 O 354.941 0.412228 1.69252 0
M  V30 3776 C 352.073 0.91555 3.28376 0
M  V30 3777 H 353.266 2.21287 2.02416 0
M  V30 3778 H 350.819 1.17827 1.02696 0
M  V30 3779 H 351.554 -0.0521886 3.24258 0
M  V30 3780 H 351.339 1.69811 3.53422 0
M  V30 3781 H 352.829 0.874231 4.08347 0
M  V30 3782 N 353.266 -1.05314 1.17247 0
M  V30 3783 C 354.512 -1.78699 0.971513 0
M  V30 3784 C 354.867 -1.85932 -0.494692 0
M  V30 3785 O 354.16 -1.34716 -1.36243 0
M  V30 3786 C 354.354 -3.2229 1.54479 0
M  V30 3787 C 354.183 -3.29052 3.06521 0
M  V30 3788 C 352.953 -3.3841 3.75242 0
M  V30 3789 C 355.151 -3.18095 4.04129 0
M  V30 3790 N 353.133 -3.34289 5.14902 0
M  V30 3791 C 354.504 -3.21331 5.30232 0
M  V30 3792 C 356.559 -3.02049 3.95817 0
M  V30 3793 C 355.262 -3.10169 6.4899 0
M  V30 3794 C 357.288 -2.92228 5.14156 0
M  V30 3795 C 356.65 -2.96096 6.39145 0
M  V30 3796 H 352.749 -0.66628 0.409383 0
M  V30 3797 H 355.333 -1.25553 1.4881 0
M  V30 3798 H 353.504 -3.7381 1.05455 0
M  V30 3799 H 355.236 -3.83905 1.28059 0
M  V30 3800 H 351.991 -3.43621 3.25917 0
M  V30 3801 H 352.415 -3.35702 5.87906 0
M  V30 3802 H 357.057 -2.97897 3.00029 0
M  V30 3803 H 354.775 -3.13076 7.44989 0
M  V30 3804 H 358.361 -2.80885 5.09505 0
M  V30 3805 H 357.241 -2.88568 7.29176 0
M  V30 3806 N 354.744 -0.972509 -1.24016 0
M  V30 3807 C 355.974 -0.653853 -1.9598 0
M  V30 3808 C 356.382 0.781801 -1.72292 0
M  V30 3809 O 355.725 1.53677 -1.00644 0
M  V30 3810 C 355.787 -0.854608 -3.49194 0
M  V30 3811 C 355.451 -2.27082 -3.96589 0
M  V30 3812 C 356.448 -3.24892 -4.05883 0
M  V30 3813 C 354.133 -2.5998 -4.29786 0
M  V30 3814 C 356.127 -4.53684 -4.47716 0
M  V30 3815 C 353.814 -3.88997 -4.71301 0
M  V30 3816 C 354.812 -4.85661 -4.80232 0
M  V30 3817 O 354.5 -6.12376 -5.20818 0
M  V30 3818 H 354.232 -0.242572 -0.630979 0
M  V30 3819 H 356.786 -1.30431 -1.58673 0
M  V30 3820 H 355.016 -0.146985 -3.86421 0
M  V30 3821 H 356.705 -0.534311 -4.02368 0
M  V30 3822 H 357.471 -3.00805 -3.80449 0
M  V30 3823 H 353.35 -1.85457 -4.22051 0
M  V30 3824 H 356.894 -5.29135 -4.54601 0
M  V30 3825 H 352.791 -4.12882 -4.96184 0
M  V30 3826 H 353.559 -6.16013 -5.38953 0
M  V30 3827 N 356.222 1.38976 -0.743202 0
M  V30 3828 C 357.468 2.01114 -0.304109 0
M  V30 3829 C 357.823 1.57929 1.09892 0
M  V30 3830 O 357.116 0.801983 1.74008 0
M  V30 3831 C 357.31 3.55647 -0.353517 0
M  V30 3832 C 357.139 4.13837 -1.75981 0
M  V30 3833 C 355.909 4.46062 -2.37395 0
M  V30 3834 C 358.107 4.36812 -2.71477 0
M  V30 3835 N 356.089 4.898 -3.70093 0
M  V30 3836 C 357.46 4.82844 -3.88923 0
M  V30 3837 C 359.515 4.18893 -2.69134 0
M  V30 3838 C 358.218 5.12837 -5.04371 0
M  V30 3839 C 360.244 4.50005 -3.83731 0
M  V30 3840 C 359.606 4.96251 -4.99914 0
M  V30 3841 H 355.705 0.765931 -0.157716 0
M  V30 3842 H 358.289 1.68763 -0.970931 0
M  V30 3843 H 356.46 3.87368 0.282987 0
M  V30 3844 H 358.192 4.04564 0.104904 0
M  V30 3845 H 354.947 4.34145 -1.89248 0
M  V30 3846 H 355.371 5.16016 -4.38242 0
M  V30 3847 H 360.013 3.82335 -1.80499 0
M  V30 3848 H 357.731 5.48297 -5.9363 0
M  V30 3849 H 361.317 4.37755 -3.83225 0
M  V30 3850 H 360.197 5.19867 -5.87118 0
M  V30 3851 N 357.7 0.491464 1.49741 0
M  V30 3852 C 358.65 -0.311086 2.25868 0
M  V30 3853 C 359.634 -0.943857 1.30308 0
M  V30 3854 O 360.826 -0.853035 1.55088 0
M  V30 3855 C 357.955 -1.38059 3.14316 0
M  V30 3856 C 357.041 -0.754541 4.17334 0
M  V30 3857 N 357.432 0.137216 5.05614 0
M  V30 3858 C 355.73 -1.01621 4.34269 0
M  V30 3859 C 356.431 0.494614 5.79593 0
M  V30 3860 N 355.407 -0.135169 5.43432 0
M  V30 3861 H 359.209 0.37555 2.91491 0
M  V30 3862 H 356.723 0.306917 1.59473 0
M  V30 3863 H 358.72 -1.96891 3.67477 0
M  V30 3864 H 357.38 -2.06901 2.50244 0
M  V30 3865 H 358.391 0.50741 5.15408 0
M  V30 3866 H 355.068 -1.69808 3.81407 0
M  V30 3867 H 356.458 1.2236 6.60665 0
M  V30 3868 N 359.178 -1.55987 0.224894 0
M  V30 3869 C 360.425 -1.9839 -0.4059 0
M  V30 3870 C 360.753 -1.11261 -1.59535 0
M  V30 3871 O 360.008 -0.158314 -1.95059 0
M  V30 3872 C 360.307 -3.46394 -0.880106 0
M  V30 3873 C 359.973 -4.5046 0.19918 0
M  V30 3874 C 358.635 -4.7864 0.495661 0
M  V30 3875 C 360.987 -5.12855 0.928939 0
M  V30 3876 C 358.315 -5.66497 1.52636 0
M  V30 3877 C 360.667 -6.01828 1.949 0
M  V30 3878 C 359.331 -6.28351 2.25236 0
M  V30 3879 H 358.601 -0.725961 -0.148529 0
M  V30 3880 H 361.248 -1.88668 0.328113 0
M  V30 3881 H 359.553 -3.53337 -1.69294 0
M  V30 3882 H 361.25 -3.76577 -1.37808 0
M  V30 3883 H 357.84 -4.28579 -0.0420526 0
M  V30 3884 H 362.024 -4.9115 0.713129 0
M  V30 3885 H 357.28 -5.8531 1.76698 0
M  V30 3886 H 361.454 -6.49225 2.51951 0
M  V30 3887 H 359.081 -6.96226 3.05244 0
M  V30 3888 N 360.656 0.0484629 -1.57525 0
M  V30 3889 C 361.902 0.744226 -1.88651 0
M  V30 3890 C 362.235 1.76029 -0.820212 0
M  V30 3891 O 361.51 1.93782 0.166985 0
M  V30 3892 C 361.793 1.43128 -3.30434 0
M  V30 3893 C 361.646 0.43005 -4.47739 0
M  V30 3894 C 362.965 2.37031 -3.70816 0
M  V30 3895 H 360.084 0.269089 -0.68612 0
M  V30 3896 H 362.726 0.00713532 -1.89999 0
M  V30 3897 H 360.876 2.05956 -3.29415 0
M  V30 3898 H 362.548 -0.194816 -4.60888 0
M  V30 3899 H 360.791 -0.252522 -4.33064 0
M  V30 3900 H 361.462 0.948874 -5.43783 0
M  V30 3901 H 363.938 1.84263 -3.73077 0
M  V30 3902 H 362.814 2.82094 -4.70865 0
M  V30 3903 H 363.075 3.22864 -3.02012 0
M  V30 3904 N 362.134 1.5431 0.320358 0
M  V30 3905 C 363.411 1.63322 1.07635 0
M  V30 3906 C 363.791 0.46912 2.05821 0
M  V30 3907 O 363.139 -0.536274 2.22118 0
M  V30 3908 C 363.349 3.00465 1.77544 0
M  V30 3909 C 364.697 3.56621 2.30449 0
M  V30 3910 O 365.721 3.02791 1.87606 0
M  V30 3911 O 364.58 4.5083 3.08892 0
M  V30 3912 H 361.674 0.661502 0.496331 0
M  V30 3913 H 364.22 1.66656 0.319992 0
M  V30 3914 H 362.992 3.76629 1.06143 0
M  V30 3915 H 362.615 3.00824 2.59982 0
M  V30 3916 N 363.613 -0.582584 1.46437 0
M  V30 3917 C 364.859 -1.34278 1.51978 0
M  V30 3918 C 365.192 -1.93446 0.170973 0
M  V30 3919 O 364.467 -1.76481 -0.817608 0
M  V30 3920 C 364.75 -2.47203 2.61845 0
M  V30 3921 C 364.603 -1.93069 4.06257 0
M  V30 3922 C 365.922 -3.49247 2.67795 0
M  V30 3923 H 363.041 -0.486876 0.553282 0
M  V30 3924 H 365.683 -0.654437 1.78374 0
M  V30 3925 H 363.833 -3.0592 2.39469 0
M  V30 3926 H 365.505 -1.38808 4.3992 0
M  V30 3927 H 363.748 -1.23898 4.1573 0
M  V30 3928 H 364.419 -2.74586 4.7886 0
M  V30 3929 H 366.895 -3.00411 2.8791 0
M  V30 3930 H 365.771 -4.25719 3.46489 0
M  V30 3931 H 366.032 -4.06482 1.73852 0
M  V30 3932 N 365.091 -1.34144 -0.827227 0
M  V30 3933 C 366.337 -1.26446 -1.58554 0
M  V30 3934 C 366.67 0.1664 -1.93486 0
M  V30 3935 O 365.945 1.1107 -1.59667 0
M  V30 3936 C 366.228 -2.15111 -2.8879 0
M  V30 3937 C 366.081 -3.66712 -2.60465 0
M  V30 3938 C 367.4 -2.03311 -3.90324 0
M  V30 3939 H 364.519 -0.46067 -0.575284 0
M  V30 3940 H 367.161 -1.64356 -0.953269 0
M  V30 3941 H 365.311 -1.8291 -3.42748 0
M  V30 3942 H 366.983 -4.09259 -2.1285 0
M  V30 3943 H 365.226 -3.88014 -1.93978 0
M  V30 3944 H 365.897 -4.24112 -3.53317 0
M  V30 3945 H 368.373 -2.31574 -3.45706 0
M  V30 3946 H 367.249 -2.67582 -4.79261 0
M  V30 3947 H 367.51 -1.00879 -4.30437 0
M  V30 3948 N 366.569 1.04691 -1.17803 0
M  V30 3949 C 367.815 1.78181 -0.980977 0
M  V30 3950 C 368.17 1.86191 0.484825 0
M  V30 3951 O 367.463 1.35436 1.35527 0
M  V30 3952 C 367.657 3.21467 -1.56186 0
M  V30 3953 C 367.486 3.27422 -3.08261 0
M  V30 3954 C 366.256 3.36415 -3.77032 0
M  V30 3955 C 368.454 3.15947 -4.0581 0
M  V30 3956 N 366.436 3.31554 -5.16667 0
M  V30 3957 C 367.807 3.18514 -5.31929 0
M  V30 3958 C 369.862 2.99945 -3.97413 0
M  V30 3959 C 368.565 3.06723 -6.50625 0
M  V30 3960 C 370.591 2.89497 -5.15699 0
M  V30 3961 C 369.953 2.92702 -6.40706 0
M  V30 3962 H 366.052 0.6641 -0.412911 0
M  V30 3963 H 368.636 1.24762 -1.49474 0
M  V30 3964 H 366.807 3.73245 -1.07436 0
M  V30 3965 H 368.539 3.8322 -1.30093 0
M  V30 3966 H 365.294 3.41887 -3.27735 0
M  V30 3967 H 365.718 3.3258 -5.89678 0
M  V30 3968 H 370.36 2.96302 -3.01604 0
M  V30 3969 H 368.078 3.0912 -7.46639 0
M  V30 3970 H 371.664 2.78179 -5.10987 0
M  V30 3971 H 370.544 2.84697 -7.30696 0
M  V30 3972 N 368.047 0.979072 1.23499 0
M  V30 3973 C 368.977 0.537606 2.27227 0
M  V30 3974 C 369.958 -0.428539 1.64613 0
M  V30 3975 O 371.143 -0.322191 1.91509 0
M  V30 3976 C 368.273 -0.162052 3.46922 0
M  V30 3977 C 367.227 0.721242 4.21879 0
M  V30 3978 C 366.553 -0.110555 5.34586 0
M  V30 3979 C 367.853 2.01141 4.82016 0
M  V30 3980 H 369.547 1.40462 2.64406 0
M  V30 3981 H 367.093 0.67684 1.27102 0
M  V30 3982 H 369.046 -0.482192 4.18632 0
M  V30 3983 H 367.77 -1.06351 3.08799 0
M  V30 3984 H 366.429 1.02482 3.51984 0
M  V30 3985 H 366.077 -1.0125 4.92704 0
M  V30 3986 H 365.777 0.477325 5.85658 0
M  V30 3987 H 367.301 -0.425107 6.09118 0
M  V30 3988 H 368.715 1.75612 5.45741 0
M  V30 3989 H 367.112 2.54695 5.43369 0
M  V30 3990 H 368.182 2.69909 4.02836 0
M  V30 3991 N 369.525 -1.3858 0.750561 0
M  V30 3992 C 370.772 -2.00184 0.305373 0
M  V30 3993 C 371.1 -1.59575 -1.11203 0
M  V30 3994 O 370.355 -0.823236 -1.77542 0
M  V30 3995 C 370.654 -3.55455 0.372373 0
M  V30 3996 C 370.32 -4.15765 1.745 0
M  V30 3997 C 368.982 -4.31951 2.12065 0
M  V30 3998 C 371.334 -4.49067 2.64553 0
M  V30 3999 C 368.662 -4.78734 3.39162 0
M  V30 4000 C 371.014 -4.97265 3.91038 0
M  V30 4001 C 369.678 -5.11658 4.28676 0
M  V30 4002 H 368.948 -0.732526 0.111744 0
M  V30 4003 H 371.595 -1.65673 0.960451 0
M  V30 4004 H 369.9 -3.90084 -0.366272 0
M  V30 4005 H 371.597 -4.00999 0.00953918 0
M  V30 4006 H 368.187 -4.03579 1.44297 0
M  V30 4007 H 372.371 -4.36166 2.36796 0
M  V30 4008 H 367.627 -4.88062 3.68246 0
M  V30 4009 H 371.801 -5.22003 4.60962 0
M  V30 4010 H 369.428 -5.47668 5.27222 0
M  V30 4011 N 371.003 -0.499398 -1.49478 0
M  V30 4012 C 371.933 0.269244 -2.31943 0
M  V30 4013 C 372.914 0.964054 -1.40143 0
M  V30 4014 O 374.099 0.955767 -1.69052 0
M  V30 4015 C 371.229 1.33504 -3.20615 0
M  V30 4016 C 370.183 0.760202 -4.21195 0
M  V30 4017 C 369.509 1.9264 -4.98792 0
M  V30 4018 C 370.809 -0.247661 -5.21712 0
M  V30 4019 H 372.503 -0.419082 -2.96452 0
M  V30 4020 H 370.049 -0.202988 -1.42562 0
M  V30 4021 H 372.002 1.88048 -3.77115 0
M  V30 4022 H 370.726 2.05253 -2.54045 0
M  V30 4023 H 369.385 0.23653 -3.65836 0
M  V30 4024 H 369.033 2.63154 -4.28671 0
M  V30 4025 H 368.733 1.54785 -5.66847 0
M  V30 4026 H 370.257 2.4762 -5.58137 0
M  V30 4027 H 371.671 0.209579 -5.72917 0
M  V30 4028 H 370.068 -0.541962 -5.97648 0
M  V30 4029 H 371.138 -1.16409 -4.7072 0
M  V30 4030 N 372.481 1.55866 -0.233164 0
M  V30 4031 C 373.711 2.02704 0.399325 0
M  V30 4032 C 374.119 1.11204 1.53069 0
M  V30 4033 O 373.462 0.116182 1.83332 0
M  V30 4034 C 373.524 3.45844 0.981429 0
M  V30 4035 C 373.188 4.56997 -0.0159561 0
M  V30 4036 C 374.185 5.13384 -0.820552 0
M  V30 4037 C 371.87 5.0211 -0.138072 0
M  V30 4038 C 373.864 6.13365 -1.73386 0
M  V30 4039 C 371.551 6.01926 -1.0549 0
M  V30 4040 C 372.549 6.57431 -1.85132 0
M  V30 4041 O 372.237 7.55302 -2.75272 0
M  V30 4042 H 371.969 0.668459 0.100692 0
M  V30 4043 H 374.523 2.02387 -0.35052 0
M  V30 4044 H 372.753 3.43267 1.78058 0
M  V30 4045 H 374.442 3.76262 1.52255 0
M  V30 4046 H 375.208 4.79372 -0.736721 0
M  V30 4047 H 371.087 4.5858 0.471737 0
M  V30 4048 H 374.631 6.56614 -2.35592 0
M  V30 4049 H 370.528 6.35359 -1.1397 0
M  V30 4050 H 371.296 7.72867 -2.69477 0
M  V30 4051 N 373.959 -0.0401083 1.57549 0
M  V30 4052 C 375.205 -0.734211 1.89043 0
M  V30 4053 C 375.538 -1.75591 0.829535 0
M  V30 4054 O 374.813 -1.93868 -0.156706 0
M  V30 4055 C 375.096 -1.41374 3.31188 0
M  V30 4056 C 374.949 -0.406299 4.47961 0
M  V30 4057 C 376.268 -2.35061 3.72068 0
M  V30 4058 H 373.387 -0.265447 0.687537 0
M  V30 4059 H 376.029 0.00294087 1.9 0
M  V30 4060 H 374.179 -2.04206 3.30503 0
M  V30 4061 H 375.851 0.219255 4.60779 0
M  V30 4062 H 374.094 0.275485 4.32924 0
M  V30 4063 H 374.765 -0.920022 5.44279 0
M  V30 4064 H 377.241 -1.82282 3.74049 0
M  V30 4065 H 376.117 -2.79593 4.72355 0
M  V30 4066 H 376.378 -3.21258 3.0372 0
M  V30 4067 N 375.437 -1.54477 -0.31217 0
M  V30 4068 C 376.662 -1.77526 -1.07235 0
M  V30 4069 C 377.087 -0.527775 -1.80544 0
M  V30 4070 O 376.445 0.52121 -1.73646 0
M  V30 4071 C 376.493 -2.97535 -2.03728 0
M  V30 4072 O 375.597 -2.69878 -3.11833 0
M  V30 4073 H 374.938 -0.58792 -0.30862 0
M  V30 4074 H 377.468 -2.01532 -0.352993 0
M  V30 4075 H 377.478 -3.25198 -2.46395 0
M  V30 4076 H 376.153 -3.87996 -1.49774 0
M  V30 4077 H 374.73 -2.53199 -2.7376 0
M  V30 4078 N 376.915 0.57481 -1.46744 0
M  V30 4079 C 378.164 1.32898 -1.51727 0
M  V30 4080 C 378.477 1.948 -0.176692 0
M  V30 4081 O 379.683 2.71299 -0.104385 0
M  V30 4082 C 378.139 2.40901 -2.67385 0
M  V30 4083 C 377.747 1.85266 -4.07898 0
M  V30 4084 C 379.491 3.17609 -2.81646 0
M  V30 4085 C 377.398 2.90945 -5.14883 0
M  V30 4086 H 376.328 0.499631 -0.564699 0
M  V30 4087 H 378.979 0.612536 -1.72975 0
M  V30 4088 H 377.361 3.15379 -2.39483 0
M  V30 4089 H 378.535 1.17278 -4.45626 0
M  V30 4090 H 376.85 1.21199 -3.98371 0
M  V30 4091 H 379.447 3.96493 -3.58744 0
M  V30 4092 H 379.79 3.70696 -1.89448 0
M  V30 4093 H 380.323 2.50239 -3.09233 0
M  V30 4094 H 377.062 2.42736 -6.089 0
M  V30 4095 H 376.582 3.57398 -4.81691 0
M  V30 4096 H 378.261 3.54755 -5.41071 0
M  V30 4097 N 378.394 1.34581 0.820102 0
M  V30 4098 C 379.624 1.29991 1.6058 0
M  V30 4099 C 380.032 -0.127588 1.88769 0
M  V30 4100 O 379.375 -1.08595 1.48165 0
M  V30 4101 C 379.437 2.02548 2.9701 0
M  V30 4102 C 379.101 3.51794 2.91701 0
M  V30 4103 C 380.098 4.46647 2.66087 0
M  V30 4104 C 377.783 3.94249 3.11245 0
M  V30 4105 C 379.777 5.81929 2.60071 0
M  V30 4106 C 377.464 5.2963 3.04853 0
M  V30 4107 C 378.462 6.23282 2.793 0
M  V30 4108 O 378.15 7.56181 2.72847 0
M  V30 4109 H 377.882 0.448539 0.505756 0
M  V30 4110 H 380.436 1.77811 1.02822 0
M  V30 4111 H 378.666 1.49345 3.56697 0
M  V30 4112 H 380.355 1.91211 3.58041 0
M  V30 4113 H 381.121 4.15168 2.5072 0
M  V30 4114 H 377 3.21749 3.30149 0
M  V30 4115 H 380.544 6.54999 2.40046 0
M  V30 4116 H 376.441 5.60727 3.19774 0
M  V30 4117 H 377.209 7.6595 2.88553 0
M  V30 4118 N 379.872 -1.04064 1.18357 0
M  V30 4119 C 381.118 -1.77658 0.990412 0
M  V30 4120 C 381.473 -1.86446 -0.474944 0
M  V30 4121 O 380.766 -1.36153 -1.34807 0
M  V30 4122 C 380.96 -3.20634 1.57888 0
M  V30 4123 C 380.789 -3.25782 3.09994 0
M  V30 4124 C 379.559 -3.34411 3.7881 0
M  V30 4125 C 381.757 -3.13791 4.0748 0
M  V30 4126 N 379.739 -3.28809 5.18418 0
M  V30 4127 C 381.11 -3.15689 5.33611 0
M  V30 4128 C 383.165 -2.97833 3.98998 0
M  V30 4129 C 381.868 -3.03268 6.52243 0
M  V30 4130 C 383.894 -2.86759 5.17227 0
M  V30 4131 C 383.256 -2.893 6.4225 0
M  V30 4132 H 379.355 -0.661901 0.416427 0
M  V30 4133 H 381.939 -1.23968 1.50133 0
M  V30 4134 H 380.11 -3.7267 1.09414 0
M  V30 4135 H 381.842 -3.82525 1.32124 0
M  V30 4136 H 378.597 -3.40144 3.29543 0
M  V30 4137 H 379.021 -3.29448 5.91433 0
M  V30 4138 H 383.663 -2.94698 3.03171 0
M  V30 4139 H 381.381 -3.05156 7.48268 0
M  V30 4140 H 384.967 -2.75465 5.12455 0
M  V30 4141 H 383.847 -2.80818 7.32196 0
M  V30 4142 N 381.35 -0.985608 -1.22978 0
M  V30 4143 C 382.596 -0.667998 -1.92118 0
M  V30 4144 C 382.951 0.790454 -1.75413 0
M  V30 4145 O 382.244 1.56336 -1.10768 0
M  V30 4146 C 382.438 -1.00014 -3.43121 0
M  V30 4147 C 382.267 -2.48933 -3.74516 0
M  V30 4148 C 381.037 -3.15218 -3.94925 0
M  V30 4149 C 383.235 -3.47024 -3.79577 0
M  V30 4150 N 381.217 -4.53689 -4.13569 0
M  V30 4151 C 382.588 -4.70923 -4.03276 0
M  V30 4152 C 384.643 -3.41432 -3.62393 0
M  V30 4153 C 383.346 -5.89914 -4.11574 0
M  V30 4154 C 385.372 -4.59793 -3.71947 0
M  V30 4155 C 384.734 -5.82489 -3.96088 0
M  V30 4156 H 380.833 -0.295589 -0.723983 0
M  V30 4157 H 383.417 -1.26413 -1.4808 0
M  V30 4158 H 381.588 -0.432655 -3.85983 0
M  V30 4159 H 383.32 -0.63927 -3.99619 0
M  V30 4160 H 380.075 -2.65702 -3.92045 0
M  V30 4161 H 380.499 -5.25492 -4.26834 0
M  V30 4162 H 385.141 -2.47594 -3.4272 0
M  V30 4163 H 382.859 -6.84164 -4.30053 0
M  V30 4164 H 386.445 -4.57048 -3.59998 0
M  V30 4165 H 385.325 -6.72546 -4.033 0
M  V30 4166 N 382.828 1.3818 -0.7579 0
M  V30 4167 C 384.076 1.99624 -0.315361 0
M  V30 4168 C 384.397 1.60464 1.10799 0
M  V30 4169 O 383.667 0.863507 1.75842 0
M  V30 4170 H 382.247 0.73831 -0.113611 0
M  V30 4171 H 384.909 1.68878 -0.972952 0
M  V30 4172 H 384.005 3.09754 -0.381931 0
M  V30 4173 N 384.306 0.507319 1.49211 0
M  V30 4174 C 385.531 -0.033725 2.07373 0
M  V30 4175 C 385.956 -1.29485 1.36437 0
M  V30 4176 O 385.314 -1.76294 0.423087 0
M  V30 4177 C 385.362 -0.263945 3.59633 0
M  V30 4178 O 384.466 -1.33737 3.90113 0
M  V30 4179 H 383.807 0.0290331 0.663365 0
M  V30 4180 H 386.337 0.708749 1.91932 0
M  V30 4181 H 386.347 -0.493536 4.05004 0
M  V30 4182 H 385.022 0.657424 4.10671 0
M  V30 4183 H 383.599 -1.09224 3.56545 0
M  V30 4184 O 385.823 -1.56889 0.38316 0
M  V30 4185 H 386.514 -1.93009 -0.163415 0
M  V30 END ATOM
M  V30 BEGIN BOND
M  V30 END BOND
M  V30 END CTAB
M  END
$$$$
