drugbank_target|P00480 Ornithine carbamoyltransferase, mitochondrial (DB00129; DB00155; DB02011; DB04185)
 OpenBabel12092119283D

  0  0  0     0  0            999 V3000
M  V30 BEGIN CTAB
M  V30 COUNTS 5656 5714 0 0 0
M  V30 BEGIN ATOM
M  V30 1 H -0.908 1.98254 -0.117106 0
M  V30 2 N 0 1.576 0 0
M  V30 3 C 0.933 2.03868 1.02534 0
M  V30 4 C 1.911 0.928543 1.3348 0
M  V30 5 O 3.095 1.19667 1.45644 0
M  V30 6 C 0.222 2.43627 2.35294 0
M  V30 7 C -0.732 3.65373 2.2001 0
M  V30 8 S 0.101 5.13292 1.52614 0
M  V30 9 C 1.257 5.56322 2.86805 0
M  V30 10 H 1.49 2.90518 0.631377 0
M  V30 11 H -0.977 1.52953 0.210867 0
M  V30 12 H 0.981 2.67203 3.11629 0
M  V30 13 H -0.358 1.57376 2.7183 0
M  V30 14 H -1.165 3.90944 3.18086 0
M  V30 15 H -1.563 3.418 1.51819 0
M  V30 16 H 0.729 5.58782 3.83104 0
M  V30 17 H 1.672 6.56266 2.65933 0
M  V30 18 H 2.08 4.83886 2.90714 0
M  V30 19 N 1.4781 -0.272755 1.55222 0
M  V30 20 C 2.4081 -1.34136 1.91127 0
M  V30 21 C 3.3891 -1.51513 0.773168 0
M  V30 22 O 4.5741 -1.64552 1.03132 0
M  V30 23 C 1.7041 -2.70083 2.1834 0
M  V30 24 C 0.6581 -2.67437 3.34158 0
M  V30 25 C -0.0159 -4.06938 3.46851 0
M  V30 26 C 1.2841 -2.26686 4.70543 0
M  V30 27 H 2.9781 -1.04333 2.80633 0
M  V30 28 H 0.5241 -0.500454 1.35024 0
M  V30 29 H 2.4771 -3.44952 2.42046 0
M  V30 30 H 1.2011 -3.01469 1.25634 0
M  V30 31 H -0.1399 -1.95026 3.1042 0
M  V30 32 H -0.4919 -4.35547 2.51611 0
M  V30 33 H -0.7919 -4.06062 4.2472 0
M  V30 34 H 0.7321 -4.83545 3.72849 0
M  V30 35 H 2.1461 -2.91277 4.93792 0
M  V30 36 H 0.5431 -2.36971 5.5133 0
M  V30 37 H 1.6131 -1.21818 4.69349 0
M  V30 38 N 2.9562 -1.48159 -0.537278 0
M  V30 39 C 4.2032 -1.55804 -1.29349 0
M  V30 40 C 4.5312 -0.228802 -1.9315 0
M  V30 41 O 3.7862 0.780242 -1.79473 0
M  V30 42 C 4.0852 -2.63956 -2.40961 0
M  V30 43 C 3.7512 -4.0662 -1.94861 0
M  V30 44 C 2.4132 -4.45452 -1.82006 0
M  V30 45 C 4.7652 -4.96055 -1.59933 0
M  V30 46 C 2.0932 -5.71531 -1.32547 0
M  V30 47 C 4.4452 -6.22617 -1.11939 0
M  V30 48 C 3.1092 -6.60312 -0.976951 0
M  V30 49 H 2.3792 -0.570129 -0.473322 0
M  V30 50 H 5.0262 -1.81845 -0.600372 0
M  V30 51 H 3.3312 -2.31747 -3.15912 0
M  V30 52 H 5.0282 -2.67089 -2.99107 0
M  V30 53 H 1.6182 -3.75949 -2.05815 0
M  V30 54 H 5.8022 -4.66738 -1.68728 0
M  V30 55 H 1.0582 -5.99468 -1.202 0
M  V30 56 H 5.2322 -6.91318 -0.839811 0
M  V30 57 H 2.8592 -7.57895 -0.591501 0
M  V30 58 N 4.4343 0.785586 -1.36625 0
M  V30 59 C 5.3823 1.91978 -1.31329 0
M  V30 60 C 6.3763 1.68162 -0.204416 0
M  V30 61 O 7.5823 1.76122 -0.371645 0
M  V30 62 H 3.9573 0.631087 -0.408942 0
M  V30 63 H 5.9283 1.93562 -2.27104 0
M  V30 64 C 4.6773 3.29055 -1.12329 0
M  V30 65 H 4.0003 3.4795 -1.96903 0
M  V30 66 H 5.4403 4.08756 -1.12671 0
M  V30 67 C 3.8993 3.36461 0.171861 0
M  V30 68 O 4.4293 3.84576 1.16035 0
M  V30 69 N 2.6353 2.89782 0.217846 0
M  V30 70 H 2.1823 2.50819 -0.587183 0
M  V30 71 H 2.1403 2.95119 1.08408 0
M  V30 72 N 5.9124 1.20967 1.01018 0
M  V30 73 C 6.8424 0.988272 2.11555 0
M  V30 74 C 7.8234 -0.0849778 1.69888 0
M  V30 75 O 9.0084 0.0738202 1.9406 0
M  V30 76 C 6.1384 0.546528 3.42973 0
M  V30 77 C 5.0924 1.56375 3.9841 0
M  V30 78 C 4.4184 0.97842 5.25672 0
M  V30 79 C 5.7184 2.94922 4.31066 0
M  V30 80 H 7.4124 1.91276 2.30334 0
M  V30 81 H 4.9584 0.921073 1.1069 0
M  V30 82 H 6.9114 0.378839 4.19694 0
M  V30 83 H 5.6354 -0.413598 3.23971 0
M  V30 84 H 4.2944 1.71891 3.23804 0
M  V30 85 H 3.9424 0.0101688 5.02999 0
M  V30 86 H 3.6424 1.65784 5.63728 0
M  V30 87 H 5.1664 0.821939 6.05043 0
M  V30 88 H 6.5804 2.8288 4.9865 0
M  V30 89 H 4.9774 3.5983 4.80253 0
M  V30 90 H 6.0474 3.4616 3.39561 0
M  V30 91 N 7.3905 -1.2043 1.01659 0
M  V30 92 C 8.8065 -1.41852 0.731442 0
M  V30 93 C 9.0065 -1.89358 -0.688898 0
M  V30 94 O 8.0625 -2.06247 -1.45666 0
M  V30 95 C 9.3755 -2.44019 1.75714 0
M  V30 96 C 10.9235 -2.57785 1.77527 0
M  V30 97 C 11.3985 -3.63194 2.79023 0
M  V30 98 N 12.8895 -3.70678 2.77763 0
M  V30 99 C 13.6245 -4.51897 3.52954 0
M  V30 100 N 13.1205 -5.36921 4.37821 0
M  V30 101 N 14.9135 -4.4643 3.41551 0
M  V30 102 H 7.0645 -0.879093 1.93354 0
M  V30 103 H 9.3275 -0.448425 0.835236 0
M  V30 104 H 9.0335 -2.1611 2.77469 0
M  V30 105 H 8.9075 -3.43007 1.56927 0
M  V30 106 H 11.2945 -2.85023 0.764569 0
M  V30 107 H 11.3755 -1.58992 2.00387 0
M  V30 108 H 11.0195 -3.36699 3.80258 0
M  V30 109 H 10.9495 -4.61609 2.53425 0
M  V30 110 H 13.4405 -3.09944 2.16201 0
M  V30 111 H 13.7535 -5.95981 4.91962 0
M  V30 112 H 12.0985 -5.36424 4.41899 0
M  V30 113 H 15.2895 -3.79042 2.74672 0
M  V30 114 H 15.4625 -5.09491 4.00404 0
M  V30 115 N 8.8686 -0.792821 -1.36206 0
M  V30 116 C 10.1176 -0.363353 -1.984 0
M  V30 117 C 10.4306 1.07172 -1.63626 0
M  V30 118 O 11.6366 1.60362 -2.19081 0
M  V30 119 C 10.0926 -0.59872 -3.54885 0
M  V30 120 C 9.7006 -2.04543 -3.9858 0
M  V30 121 C 11.4446 -0.233926 -4.23855 0
M  V30 122 C 9.3516 -2.22727 -5.47856 0
M  V30 123 H 8.2816 -0.13212 -0.742334 0
M  V30 124 H 10.9326 -0.974935 -1.55458 0
M  V30 125 H 9.3146 0.0826222 -3.95914 0
M  V30 126 H 10.4886 -2.76345 -3.68741 0
M  V30 127 H 8.8036 -2.36879 -3.42458 0
M  V30 128 H 11.4006 -0.348027 -5.33566 0
M  V30 129 H 11.7436 0.818351 -4.08177 0
M  V30 130 H 12.2766 -0.868639 -3.882 0
M  V30 131 H 9.0156 -3.2635 -5.68486 0
M  V30 132 H 8.5356 -1.55434 -5.7931 0
M  V30 133 H 10.2146 -2.03607 -6.14128 0
M  V30 134 N 10.3467 1.47872 -0.545128 0
M  V30 135 C 11.2767 2.32661 0.197793 0
M  V30 136 C 12.2577 1.43041 0.920504 0
M  V30 137 O 13.4427 1.71912 0.90333 0
M  V30 138 C 10.5727 3.24569 1.23582 0
M  V30 139 C 9.5267 4.23333 0.630323 0
M  V30 140 C 8.8527 5.0448 1.77211 0
M  V30 141 C 10.1527 5.20704 -0.407974 0
M  V30 142 H 11.8467 2.95024 -0.510045 0
M  V30 143 H 9.3927 1.4187 -0.246731 0
M  V30 144 H 11.3457 3.8272 1.76362 0
M  V30 145 H 10.0697 2.60236 1.97344 0
M  V30 146 H 8.7287 3.6639 0.123922 0
M  V30 147 H 8.3767 4.36561 2.49847 0
M  V30 148 H 8.0767 5.71339 1.37281 0
M  V30 149 H 9.6007 5.65487 2.3034 0
M  V30 150 H 11.0147 5.7329 0.033305 0
M  V30 151 H 9.4117 5.95699 -0.725486 0
M  V30 152 H 10.4817 4.66917 -1.30828 0
M  V30 153 N 11.8248 0.280983 1.55075 0
M  V30 154 C 12.7548 -0.597469 2.25727 0
M  V30 155 C 13.7358 -1.15417 1.24952 0
M  V30 156 O 14.9208 -1.18722 1.53684 0
M  V30 157 C 12.0508 -1.7789 2.98283 0
M  V30 158 C 11.0048 -1.35347 4.06036 0
M  V30 159 C 10.3308 -2.61846 4.66198 0
M  V30 160 C 11.6308 -0.499354 5.19907 0
M  V30 161 H 13.3248 -0.00824265 2.99399 0
M  V30 162 H 10.8708 -0.0025244 1.44 0
M  V30 163 H 12.8238 -2.39937 3.46422 0
M  V30 164 H 11.5478 -2.39405 2.22155 0
M  V30 165 H 10.2068 -0.756156 3.58717 0
M  V30 166 H 9.8548 -3.21632 3.86732 0
M  V30 167 H 9.5548 -2.3409 5.38958 0
M  V30 168 H 11.0788 -3.24732 5.1709 0
M  V30 169 H 12.4928 -1.02498 5.64063 0
M  V30 170 H 10.8898 -0.316424 5.99265 0
M  V30 171 H 11.9598 0.480459 4.82514 0
M  V30 172 N 13.3029 -1.57598 0.00835791 0
M  V30 173 C 14.2509 -2.10078 -0.998508 0
M  V30 174 C 15.2449 -1.02262 -1.35051 0
M  V30 175 O 16.4509 -1.20719 -1.33518 0
M  V30 176 H 12.8259 -0.670903 -0.339696 0
M  V30 177 H 14.7969 -2.93648 -0.530398 0
M  V30 178 C 13.5459 -2.62615 -2.27879 0
M  V30 179 H 12.8689 -3.45213 -2.01662 0
M  V30 180 H 14.3089 -3.03004 -2.96588 0
M  V30 181 C 12.7679 -1.54407 -2.99433 0
M  V30 182 O 13.2979 -0.931812 -3.90743 0
M  V30 183 N 11.5039 -1.2695 -2.61404 0
M  V30 184 H 11.0509 -1.76924 -1.87232 0
M  V30 185 H 11.0089 -0.547704 -3.09593 0
M  V30 186 N 14.781 0.264519 -1.55364 0
M  V30 187 C 15.729 1.34702 -1.89626 0
M  V30 188 C 16.723 1.50712 -0.773459 0
M  V30 189 O 17.929 1.52395 -0.957897 0
M  V30 190 H 14.304 0.450682 -0.601988 0
M  V30 191 H 16.275 1.0306 -2.80038 0
M  V30 192 C 15.024 2.6989 -2.19214 0
M  V30 193 H 14.347 2.58365 -3.05103 0
M  V30 194 H 15.787 3.44553 -2.47102 0
M  V30 195 C 14.246 3.21637 -1.00254 0
M  V30 196 O 14.776 4.00973 -0.241501 0
M  V30 197 N 12.982 2.7943 -0.797938 0
M  V30 198 H 12.529 2.15026 -1.4185 0
M  V30 199 H 12.487 3.144 -0.00363422 0
M  V30 200 N 16.2591 1.48442 0.529413 0
M  V30 201 C 17.2221 1.62524 1.61612 0
M  V30 202 C 18.2221 0.498509 1.52877 0
M  V30 203 O 19.4121 0.76431 1.56537 0
M  V30 204 C 16.5441 1.59597 3.01233 0
M  V30 205 H 17.7371 2.59423 1.50465 0
M  V30 206 H 15.2901 1.37047 0.751514 0
M  V30 207 H 16.0251 0.641781 3.17886 0
M  V30 208 H 15.8101 2.41397 3.08982 0
M  V30 209 H 17.3001 1.72646 3.80241 0
M  V30 210 N 17.7372 -0.778329 1.37039 0
M  V30 211 C 18.7002 -1.87301 1.32102 0
M  V30 212 C 19.7002 -1.59198 0.226405 0
M  V30 213 O 20.8902 -1.67403 0.481861 0
M  V30 214 C 18.0222 -3.24309 1.05055 0
M  V30 215 H 19.2152 -1.93093 2.29467 0
M  V30 216 H 16.7682 -0.977358 1.21973 0
M  V30 217 H 17.5032 -3.24196 0.0819373 0
M  V30 218 H 17.2882 -3.46098 1.84279 0
M  V30 219 H 18.7782 -4.04382 1.04234 0
M  V30 220 N 19.2153 -1.21501 -1.00376 0
M  V30 221 C 20.4623 -1.03299 -1.74171 0
M  V30 222 C 20.7903 0.433326 -1.89612 0
M  V30 223 O 20.0453 1.33779 -1.42834 0
M  V30 224 C 20.3443 -1.67673 -3.15627 0
M  V30 225 C 20.0103 -3.17533 -3.2013 0
M  V30 226 C 18.6723 -3.58427 -3.21067 0
M  V30 227 C 21.0243 -4.13504 -3.17275 0
M  V30 228 C 18.3523 -4.93794 -3.16835 0
M  V30 229 C 20.7043 -5.48834 -3.14585 0
M  V30 230 C 19.3683 -5.89123 -3.13831 0
M  V30 231 H 18.6383 -0.377999 -0.637336 0
M  V30 232 H 21.2853 -1.51111 -1.17634 0
M  V30 233 H 19.5903 -1.12158 -3.75404 0
M  V30 234 H 21.2873 -1.51091 -3.71446 0
M  V30 235 H 17.8773 -2.84965 -3.20145 0
M  V30 236 H 22.0613 -3.82936 -3.15711 0
M  V30 237 H 17.3173 -5.24255 -3.1459 0
M  V30 238 H 21.4913 -6.22934 -3.1133 0
M  V30 239 H 19.1183 -6.93984 -3.10307 0
M  V30 240 N 20.6934 1.19889 -1.02296 0
M  V30 241 C 22.1094 1.41462 -0.738954 0
M  V30 242 C 22.3094 1.89721 0.678846 0
M  V30 243 O 21.3654 2.07016 1.4457 0
M  V30 244 C 22.6784 2.43083 -1.77005 0
M  V30 245 C 24.2264 2.5684 -1.78892 0
M  V30 246 C 24.7014 3.61709 -2.80945 0
M  V30 247 N 26.1924 3.69199 -2.79725 0
M  V30 248 C 26.9274 4.50019 -3.55345 0
M  V30 249 N 26.4234 5.34592 -4.40662 0
M  V30 250 N 28.2164 4.44612 -3.43914 0
M  V30 251 H 20.3674 0.868827 -1.93817 0
M  V30 252 H 22.6304 0.44399 -0.837602 0
M  V30 253 H 22.3364 2.14636 -2.78612 0
M  V30 254 H 22.2104 3.4217 -1.58744 0
M  V30 255 H 24.5974 2.84614 -0.779674 0
M  V30 256 H 24.6784 1.57927 -2.01228 0
M  V30 257 H 24.3224 3.34678 -3.82038 0
M  V30 258 H 24.2524 4.60259 -2.5587 0
M  V30 259 H 26.7434 3.08794 -2.17842 0
M  V30 260 H 27.0564 5.93363 -4.95116 0
M  V30 261 H 25.4014 5.34073 -4.44737 0
M  V30 262 H 28.5924 3.7758 -2.76679 0
M  V30 263 H 28.7654 5.0736 -4.031 0
M  V30 264 N 22.1715 0.800033 1.35784 0
M  V30 265 C 23.1195 0.193851 2.31791 0
M  V30 266 C 24.1135 -0.652744 1.56319 0
M  V30 267 O 25.3195 -0.546641 1.71499 0
M  V30 268 H 21.6945 0.04392 0.750716 0
M  V30 269 H 23.6655 1.01883 2.80468 0
M  V30 270 C 22.4145 -0.648338 3.41602 0
M  V30 271 H 21.7375 -0.00624665 3.998 0
M  V30 272 H 23.1775 -1.03898 4.11073 0
M  V30 273 C 21.6365 -1.8111 2.84079 0
M  V30 274 O 22.1665 -2.90825 2.77099 0
M  V30 275 N 20.3725 -1.62056 2.41218 0
M  V30 276 H 19.9195 -0.728123 2.47095 0
M  V30 277 H 19.8775 -2.40013 2.03079 0
M  V30 278 N 23.6496 -1.47581 0.552962 0
M  V30 279 C 24.8976 -2.02082 0.0272703 0
M  V30 280 C 25.2186 -1.4301 -1.32563 0
M  V30 281 O 24.4886 -0.603745 -1.86365 0
M  V30 282 H 23.0686 -0.746966 0.00709182 0
M  V30 283 H 25.7306 -1.81033 0.722008 0
M  V30 284 H 24.8266 -3.12034 -0.0639951 0
M  V30 285 N 25.1277 -0.289203 -1.54924 0
M  V30 286 C 26.0777 0.606939 -2.19773 0
M  V30 287 C 27.0617 1.10783 -1.16687 0
M  V30 288 O 28.2537 1.05057 -1.4245 0
M  V30 289 C 25.3827 1.78398 -2.93307 0
M  V30 290 C 24.4687 1.29961 -4.03697 0
M  V30 291 N 24.8597 0.532377 -5.0299 0
M  V30 292 C 23.1577 1.58136 -4.17024 0
M  V30 293 C 23.8587 0.275912 -5.81045 0
M  V30 294 N 22.8347 0.852365 -5.36876 0
M  V30 295 H 26.6367 0.0130779 -2.93897 0
M  V30 296 H 24.1507 -0.09341 -1.62131 0
M  V30 297 H 26.1477 2.43741 -3.38225 0
M  V30 298 H 24.8077 2.38166 -2.20697 0
M  V30 299 H 25.8187 0.17838 -5.17593 0
M  V30 300 H 22.4957 2.18738 -3.55612 0
M  V30 301 H 23.8857 -0.339502 -6.71042 0
M  V30 302 N 26.6058 1.57591 -0.0167156 0
M  V30 303 C 27.5538 2.10604 0.987353 0
M  V30 304 C 28.5478 1.02977 1.34507 0
M  V30 305 O 29.7538 1.21425 1.32875 0
M  V30 306 H 26.1288 0.672695 0.336134 0
M  V30 307 H 28.0998 2.93925 0.514817 0
M  V30 308 C 26.8488 2.6382 2.26483 0
M  V30 309 H 26.1718 3.46278 1.99829 0
M  V30 310 H 27.6118 3.04573 2.94977 0
M  V30 311 C 26.0708 1.55992 2.9861 0
M  V30 312 O 26.6008 0.952521 3.90243 0
M  V30 313 N 24.8068 1.28335 2.60727 0
M  V30 314 H 24.3538 1.77914 1.86291 0
M  V30 315 H 24.3118 0.564115 3.09298 0
M  V30 316 N 28.0839 -0.256276 1.55502 0
M  V30 317 C 29.3309 -0.985619 1.76895 0
M  V30 318 C 29.6589 -1.85671 0.579355 0
M  V30 319 O 28.9139 -1.90744 -0.437651 0
M  V30 320 C 29.2129 -1.88432 3.03691 0
M  V30 321 C 28.8789 -1.16936 4.35473 0
M  V30 322 C 27.5409 -0.97173 4.71286 0
M  V30 323 C 29.8929 -0.661889 5.1698 0
M  V30 324 C 27.2209 -0.254179 5.86149 0
M  V30 325 C 29.5729 0.042149 6.32586 0
M  V30 326 C 28.2369 0.25134 6.67027 0
M  V30 327 H 27.5069 -0.360663 0.647304 0
M  V30 328 H 30.1539 -0.256483 1.89775 0
M  V30 329 H 28.4589 -2.68021 2.85783 0
M  V30 330 H 30.1559 -2.45015 3.1744 0
M  V30 331 H 26.7459 -1.33332 4.07333 0
M  V30 332 H 30.9299 -0.802145 4.89775 0
M  V30 333 H 26.1859 -0.0815408 6.11346 0
M  V30 334 H 30.3599 0.443049 6.94989 0
M  V30 335 H 27.9869 0.809314 7.5588 0
M  V30 336 N 29.562 -1.4872 -0.521534 0
M  V30 337 C 30.495 -1.58451 -1.64221 0
M  V30 338 C 31.473 -0.434513 -1.56687 0
M  V30 339 O 32.657 -0.647275 -1.77038 0
M  V30 340 C 29.784 -1.52037 -3.02659 0
M  V30 341 C 28.83 -2.71981 -3.28525 0
M  V30 342 S 29.663 -4.33869 -3.13876 0
M  V30 343 C 30.819 -4.30067 -4.54745 0
M  V30 344 H 31.052 -2.53256 -1.55719 0
M  V30 345 H 28.585 -1.37358 -0.705143 0
M  V30 346 H 30.543 -1.49023 -3.82495 0
M  V30 347 H 29.204 -0.585541 -3.08594 0
M  V30 348 H 28.397 -2.63656 -4.29536 0
M  V30 349 H 27.999 -2.72302 -2.56374 0
M  V30 350 H 30.291 -4.00521 -5.46433 0
M  V30 351 H 31.234 -5.31287 -4.68123 0
M  V30 352 H 31.642 -3.60419 -4.34463 0
M  V30 353 N 31.0401 0.771051 -1.3745 0
M  V30 354 C 32.2861 1.5319 -1.32894 0
M  V30 355 C 32.6191 1.94008 0.0862511 0
M  V30 356 O 31.8941 1.64124 1.04373 0
M  V30 357 C 32.1771 2.79648 -2.26868 0
M  V30 358 C 32.0301 2.45079 -3.77169 0
M  V30 359 C 33.3491 3.81583 -2.19277 0
M  V30 360 H 30.4681 0.555744 -0.484064 0
M  V30 361 H 33.1101 0.884492 -1.68157 0
M  V30 362 H 31.2601 3.34891 -1.96926 0
M  V30 363 H 32.9321 1.95745 -4.1771 0
M  V30 364 H 31.1751 1.77767 -3.95704 0
M  V30 365 H 31.8461 3.35478 -4.38359 0
M  V30 366 H 34.3221 3.35835 -2.45671 0
M  V30 367 H 33.1981 4.67787 -2.87171 0
M  V30 368 H 33.4591 4.25897 -1.18592 0
M  V30 369 N 32.5182 1.22032 0.997298 0
M  V30 370 C 33.9342 0.979326 1.26021 0
M  V30 371 C 34.1342 -0.32972 1.98784 0
M  V30 372 O 33.1902 -1.05345 2.29475 0
M  V30 373 C 34.5032 2.17509 2.07631 0
M  V30 374 C 36.0512 2.21817 2.2083 0
M  V30 375 C 36.5262 3.40933 3.05825 0
M  V30 376 N 38.0172 3.41067 3.13412 0
M  V30 377 C 38.7522 4.29885 3.79455 0
M  V30 378 N 38.2482 5.28914 4.47462 0
M  V30 379 N 40.0412 4.17673 3.76173 0
M  V30 380 H 32.1922 2.06202 0.509352 0
M  V30 381 H 34.4552 0.90334 0.287541 0
M  V30 382 H 34.1612 3.12415 1.61524 0
M  V30 383 H 34.0352 2.17206 3.08385 0
M  V30 384 H 36.4222 1.27462 2.66153 0
M  V30 385 H 36.5032 2.2616 1.1952 0
M  V30 386 H 36.1472 4.35586 2.61203 0
M  V30 387 H 36.0772 3.33829 4.07266 0
M  V30 388 H 38.5682 2.69406 2.65007 0
M  V30 389 H 38.8812 5.92973 4.95583 0
M  V30 390 H 37.2262 5.32831 4.46224 0
M  V30 391 H 40.4172 3.39564 3.22202 0
M  V30 392 H 40.5902 4.87098 4.27363 0
M  V30 393 N 33.9963 -1.19345 1.0293 0
M  V30 394 C 34.9443 -2.24621 0.604001 0
M  V30 395 C 35.9383 -1.65452 -0.363587 0
M  V30 396 O 37.1443 -1.78497 -0.23212 0
M  V30 397 H 33.5193 -0.730858 0.177061 0
M  V30 398 H 35.4903 -2.5781 1.50255 0
M  V30 399 C 34.2393 -3.47688 -0.0289127 0
M  V30 400 H 33.5623 -3.93505 0.706651 0
M  V30 401 H 35.0023 -4.23011 -0.289432 0
M  V30 402 C 33.4613 -3.11817 -1.2756 0
M  V30 403 O 33.9913 -3.2451 -2.36762 0
M  V30 404 N 32.1973 -2.66246 -1.16453 0
M  V30 405 H 31.7443 -2.56118 -0.275914 0
M  V30 406 H 31.7023 -2.42617 -1.99961 0
M  V30 407 N 35.4744 -0.807222 -1.35358 0
M  V30 408 C 36.7214 -0.387888 -1.9875 0
M  V30 409 C 37.0494 1.04509 -1.64037 0
M  V30 410 O 36.3044 1.73986 -0.895946 0
M  V30 411 C 36.6034 -0.519036 -3.53611 0
M  V30 412 C 36.2694 -1.91542 -4.08194 0
M  V30 413 C 34.9314 -2.29745 -4.22813 0
M  V30 414 C 37.2834 -2.82896 -4.37744 0
M  V30 415 C 34.6114 -3.58668 -4.643 0
M  V30 416 C 36.9634 -4.11265 -4.8067 0
M  V30 417 C 35.6274 -4.49466 -4.93494 0
M  V30 418 H 34.8974 -0.141938 -0.727279 0
M  V30 419 H 37.5444 -1.02814 -1.6156 0
M  V30 420 H 35.8494 0.204658 -3.91265 0
M  V30 421 H 37.5464 -0.175345 -4.00616 0
M  V30 422 H 34.1364 -1.60862 -3.97268 0
M  V30 423 H 38.3204 -2.54629 -4.26002 0
M  V30 424 H 33.5764 -3.88113 -4.72418 0
M  V30 425 H 37.7504 -4.82153 -5.02496 0
M  V30 426 H 35.3774 -5.49418 -5.25399 0
M  V30 427 N 36.9525 1.47285 -0.560781 0
M  V30 428 C 38.3685 1.58065 -0.22081 0
M  V30 429 C 38.5685 1.55892 1.27671 0
M  V30 430 O 37.6245 1.46422 2.0571 0
M  V30 431 C 38.9375 2.88418 -0.850625 0
M  V30 432 C 40.4855 3.02009 -0.822184 0
M  V30 433 C 40.9605 4.35066 -1.43113 0
M  V30 434 N 42.4515 4.41711 -1.39448 0
M  V30 435 C 43.1865 5.43237 -1.83525 0
M  V30 436 N 42.6825 6.51555 -2.35474 0
M  V30 437 N 44.4755 5.34304 -1.74574 0
M  V30 438 H 36.6265 1.46941 -1.53369 0
M  V30 439 H 38.8895 0.699558 -0.639783 0
M  V30 440 H 38.5955 2.95755 -1.9032 0
M  V30 441 H 38.4695 3.75612 -0.345773 0
M  V30 442 H 40.8565 2.94266 0.221714 0
M  V30 443 H 40.9375 2.16347 -1.36483 0
M  V30 444 H 40.5815 4.43565 -2.47412 0
M  V30 445 H 40.5115 5.19465 -0.863899 0
M  V30 446 H 43.0025 3.64027 -1.01452 0
M  V30 447 H 43.3155 7.25203 -2.67021 0
M  V30 448 H 41.6605 6.52435 -2.39487 0
M  V30 449 H 44.8515 4.48581 -1.33763 0
M  V30 450 H 45.0245 6.13288 -2.09242 0
M  V30 451 N 38.4306 0.297415 1.54768 0
M  V30 452 C 39.6706 -0.313829 2.01976 0
M  V30 453 C 40.0346 -1.51366 1.1812 0
M  V30 454 O 41.2356 -2.19603 1.5501 0
M  V30 455 C 39.5066 -0.664964 3.51159 0
M  V30 456 S 41.0656 -1.25958 4.20333 0
M  V30 457 H 37.8836 -0.0965014 0.704421 0
M  V30 458 H 40.4856 0.424451 1.90837 0
M  V30 459 H 39.1896 0.21681 4.09827 0
M  V30 460 H 38.7206 -1.43413 3.66328 0
M  V30 461 H 40.7356 -2.54751 4.25813 0
M  V30 462 N 39.9087 -1.5758 0.0250728 0
M  V30 463 C 41.1567 -1.91255 -0.653151 0
M  V30 464 C 41.4777 -0.901691 -1.729 0
M  V30 465 O 40.7477 0.0573785 -1.95816 0
M  V30 466 H 39.3277 -0.705942 -0.244243 0
M  V30 467 H 41.9897 -1.94767 0.0719209 0
M  V30 468 H 41.0857 -2.91752 -1.10847 0
M  V30 469 N 41.3868 0.248026 -1.55636 0
M  V30 470 C 42.3188 1.32993 -1.8667 0
M  V30 471 C 43.3318 1.44345 -0.752877 0
M  V30 472 O 44.5208 1.45715 -1.03098 0
M  V30 473 C 41.6208 2.70863 -2.03682 0
M  V30 474 C 40.7938 2.81792 -3.34532 0
M  V30 475 C 39.8528 4.005 -3.41301 0
M  V30 476 O 38.8788 3.9008 -4.14519 0
M  V30 477 N 40.0808 5.13618 -2.70512 0
M  V30 478 H 42.8458 1.06707 -2.8006 0
M  V30 479 H 40.4068 0.438129 -1.55859 0
M  V30 480 H 42.3988 3.48612 -2.05553 0
M  V30 481 H 40.9688 2.89862 -1.17041 0
M  V30 482 H 40.1888 1.90729 -3.44987 0
M  V30 483 H 41.4768 2.86043 -4.20781 0
M  V30 484 H 40.8748 5.24975 -2.10755 0
M  V30 485 H 39.4318 5.89505 -2.78077 0
M  V30 486 N 42.8649 1.48995 0.513639 0
M  V30 487 C 44.2759 1.5119 1.09537 0
M  V30 488 C 44.6269 0.290906 1.94031 0
M  V30 489 O 43.7519 -0.60049 2.07902 0
M  V30 490 C 44.3469 2.73964 1.99322 0
M  V30 491 C 42.9059 2.78978 2.52682 0
M  V30 492 C 42.0529 2.44934 1.30009 0
M  V30 493 H 45.0039 1.55875 0.298125 0
M  V30 494 H 45.0249 2.53409 2.83838 0
M  V30 495 H 44.5369 3.62813 1.37799 0
M  V30 496 H 42.6379 1.94378 3.1788 0
M  V30 497 H 42.7509 3.8083 2.90698 0
M  V30 498 H 41.1149 1.9644 1.62122 0
M  V30 499 H 41.8979 3.36043 0.702131 0
M  V30 500 N 44.343 -0.763751 1.37857 0
M  V30 501 C 45.273 -1.89103 1.36975 0
M  V30 502 C 46.254 -1.68439 0.237152 0
M  V30 503 O 47.439 -1.8918 0.438713 0
M  V30 504 C 44.569 -3.26496 1.18395 0
M  V30 505 C 43.523 -3.61741 2.28751 0
M  V30 506 C 42.849 -4.97762 1.95286 0
M  V30 507 C 44.149 -3.67665 3.70972 0
M  V30 508 H 45.843 -1.90099 2.31307 0
M  V30 509 H 43.389 -0.91319 1.11341 0
M  V30 510 H 45.342 -4.05003 1.16406 0
M  V30 511 H 44.066 -3.25955 0.205215 0
M  V30 512 H 42.725 -2.85547 2.29909 0
M  V30 513 H 42.373 -4.93769 0.959221 0
M  V30 514 H 42.073 -5.22313 2.69189 0
M  V30 515 H 43.597 -5.7866 1.94898 0
M  V30 516 H 45.011 -4.36307 3.719 0
M  V30 517 H 43.408 -4.03718 4.43995 0
M  V30 518 H 44.478 -2.68134 4.0402 0
M  V30 519 N 45.8211 -1.22559 -0.990812 0
M  V30 520 C 46.7531 -0.955325 -2.08342 0
M  V30 521 C 47.7661 0.0668408 -1.62663 0
M  V30 522 O 48.9551 -0.167421 -1.77713 0
M  V30 523 C 46.0551 -0.415566 -3.36342 0
M  V30 524 C 45.2281 -1.49544 -4.11042 0
M  V30 525 C 44.2871 -0.962399 -5.17324 0
M  V30 526 O 43.3131 -1.64907 -5.44788 0
M  V30 527 N 44.5151 0.215134 -5.80101 0
M  V30 528 H 47.2801 -1.89596 -2.32106 0
M  V30 529 H 44.8411 -1.13276 -1.15673 0
M  V30 530 H 46.8331 -0.0442386 -4.04676 0
M  V30 531 H 45.4031 0.430232 -3.09625 0
M  V30 532 H 44.6231 -2.04 -3.37309 0
M  V30 533 H 45.9111 -2.22195 -4.57719 0
M  V30 534 H 45.3091 0.789779 -5.6016 0
M  V30 535 H 43.8661 0.527826 -6.49659 0
M  V30 536 N 47.2992 1.18797 -1.03562 0
M  V30 537 C 48.2472 2.24297 -0.615905 0
M  V30 538 C 49.2412 1.65643 0.354808 0
M  V30 539 O 50.4472 1.78618 0.22265 0
M  V30 540 H 46.8222 0.729909 -0.180934 0
M  V30 541 H 48.7932 2.5701 -1.5162 0
M  V30 542 C 47.5422 3.47698 0.0104735 0
M  V30 543 H 46.8652 3.93125 -0.727509 0
M  V30 544 H 48.3052 4.23159 0.266995 0
M  V30 545 C 46.7642 3.12489 1.25905 0
M  V30 546 O 47.2942 3.25761 2.35038 0
M  V30 547 N 45.5002 2.6686 1.15039 0
M  V30 548 H 45.0472 2.56261 0.262328 0
M  V30 549 H 45.0052 2.43674 1.98672 0
M  V30 550 N 48.7773 0.814389 1.34928 0
M  V30 551 C 49.7243 0.22822 2.29669 0
M  V30 552 C 50.6943 -0.642164 1.53184 0
M  V30 553 O 51.8793 -0.585605 1.81591 0
M  V30 554 C 49.0193 -0.61089 3.3965 0
M  V30 555 C 48.1323 0.280792 4.31086 0
M  V30 556 C 47.2673 -0.567067 5.28165 0
M  V30 557 C 46.3063 0.324531 6.11239 0
M  V30 558 N 45.4433 -0.483756 7.00431 0
M  V30 559 H 50.2833 1.04153 2.79206 0
M  V30 560 H 47.8203 0.525133 1.37407 0
M  V30 561 H 49.7783 -1.11263 4.0209 0
M  V30 562 H 48.4083 -1.38939 2.91369 0
M  V30 563 H 47.4603 0.900688 3.69583 0
M  V30 564 H 48.7723 0.966723 4.89342 0
M  V30 565 H 47.9263 -1.13363 5.96015 0
M  V30 566 H 46.6653 -1.28654 4.70425 0
M  V30 567 H 45.6703 0.903298 5.42329 0
M  V30 568 H 46.8953 1.04198 6.71059 0
M  V30 569 H 44.8413 -1.18706 6.45171 0
M  V30 570 H 44.7583 0.143965 7.55863 0
M  V30 571 H 46.0263 -1.03334 7.7262 0
M  V30 572 N 50.2554 -1.46986 0.568584 0
M  V30 573 C 51.5014 -2.02741 0.0488709 0
M  V30 574 C 51.8344 -1.44077 -1.30214 0
M  V30 575 O 51.1094 -0.600552 -1.84996 0
M  V30 576 C 51.3924 -3.60086 -0.032047 0
M  V30 577 C 51.2454 -4.29162 1.34686 0
M  V30 578 C 52.5644 -4.33838 -0.739798 0
M  V30 579 H 49.6834 -0.736749 0.0192338 0
M  V30 580 H 52.3254 -1.75289 0.733065 0
M  V30 581 H 50.4754 -3.83606 -0.61473 0
M  V30 582 H 52.1474 -4.16948 1.97362 0
M  V30 583 H 50.3904 -3.89073 1.91846 0
M  V30 584 H 51.0614 -5.37826 1.24285 0
M  V30 585 H 53.5374 -4.15378 -0.244939 0
M  V30 586 H 52.4134 -5.43537 -0.765406 0
M  V30 587 H 52.6744 -4.03875 -1.79827 0
M  V30 588 N 51.7335 -0.305618 -1.54608 0
M  V30 589 C 52.6655 0.602161 -2.21149 0
M  V30 590 C 53.6785 1.09394 -1.20569 0
M  V30 591 O 54.8675 1.0106 -1.47136 0
M  V30 592 C 51.9675 1.83692 -2.84799 0
M  V30 593 C 51.1405 1.48686 -4.11353 0
M  V30 594 C 50.1995 2.57725 -4.58764 0
M  V30 595 O 49.2255 2.22623 -5.23858 0
M  V30 596 N 50.4275 3.88346 -4.31471 0
M  V30 597 H 53.1925 0.0324966 -2.99682 0
M  V30 598 H 50.7535 -0.128021 -1.61393 0
M  V30 599 H 52.7455 2.55994 -3.13448 0
M  V30 600 H 51.3155 2.31486 -2.10078 0
M  V30 601 H 50.5355 0.596269 -3.89664 0
M  V30 602 H 51.8235 1.22842 -4.93748 0
M  V30 603 H 51.2215 4.19671 -3.79331 0
M  V30 604 H 49.7785 4.56932 -4.64818 0
M  V30 605 N 53.2116 1.57565 -0.0334293 0
M  V30 606 C 54.1416 2.13511 0.945265 0
M  V30 607 C 55.1226 1.05231 1.33643 0
M  V30 608 O 56.3076 1.33084 1.41429 0
M  V30 609 C 53.4376 2.6657 2.22616 0
M  V30 610 C 52.3916 3.79676 1.97561 0
M  V30 611 C 51.7176 4.1918 3.31952 0
M  V30 612 C 53.0176 5.0557 1.31135 0
M  V30 613 H 54.7116 2.95538 0.479325 0
M  V30 614 H 52.2576 1.42166 0.229115 0
M  V30 615 H 54.2106 3.04344 2.91466 0
M  V30 616 H 52.9346 1.8171 2.71384 0
M  V30 617 H 51.5936 3.42347 1.31127 0
M  V30 618 H 51.2416 3.31296 3.78487 0
M  V30 619 H 50.9416 4.95402 3.15992 0
M  V30 620 H 52.4656 4.59541 4.02063 0
M  V30 621 H 53.8796 5.40903 1.89992 0
M  V30 622 H 52.2766 5.86818 1.25559 0
M  V30 623 H 53.3466 4.84062 0.284894 0
M  V30 624 N 54.6897 -0.239769 1.55765 0
M  V30 625 C 55.6367 -1.29696 1.90913 0
M  V30 626 C 56.6067 -1.47478 0.764164 0
M  V30 627 O 57.7917 -1.61345 1.01845 0
M  V30 628 C 54.9317 -2.64598 2.21544 0
M  V30 629 C 54.0447 -2.54765 3.48882 0
M  V30 630 C 53.1797 -3.82069 3.69049 0
M  V30 631 C 52.2187 -3.66883 4.89963 0
M  V30 632 N 51.3557 -4.86094 5.06614 0
M  V30 633 H 56.1957 -0.990224 2.81067 0
M  V30 634 H 53.7327 -0.477684 1.39128 0
M  V30 635 H 55.6907 -3.43132 2.3731 0
M  V30 636 H 54.3207 -2.93405 1.34585 0
M  V30 637 H 53.3727 -1.67763 3.41409 0
M  V30 638 H 54.6847 -2.39457 4.37563 0
M  V30 639 H 53.8387 -4.69046 3.84812 0
M  V30 640 H 52.5777 -4.00282 2.78614 0
M  V30 641 H 51.5827 -2.78289 4.74168 0
M  V30 642 H 52.8077 -3.50157 5.81865 0
M  V30 643 H 50.7537 -5.04655 4.19117 0
M  V30 644 H 50.6707 -4.73443 5.89396 0
M  V30 645 H 51.9387 -5.74549 5.26795 0
M  V30 646 N 56.1678 -1.49265 -0.50573 0
M  V30 647 C 57.4158 -1.582 -1.25766 0
M  V30 648 C 57.7368 -0.268482 -1.93143 0
M  V30 649 O 57.0068 0.711833 -1.8251 0
M  V30 650 H 55.5868 -0.582873 -0.467191 0
M  V30 651 H 58.2488 -1.85865 -0.586525 0
M  V30 652 H 57.3448 -2.37563 -2.02412 0
M  V30 653 N 57.6459 0.756429 -1.3826 0
M  V30 654 C 59.0619 1.0591 -1.19395 0
M  V30 655 C 59.2619 2.01459 -0.0406567 0
M  V30 656 O 58.3179 2.44909 0.614467 0
M  V30 657 C 59.6309 1.64191 -2.51916 0
M  V30 658 C 61.1789 1.76376 -2.58574 0
M  V30 659 C 61.6539 2.38069 -3.91264 0
M  V30 660 N 63.1449 2.45503 -3.92788 0
M  V30 661 C 63.8799 2.94126 -4.92217 0
M  V30 662 N 63.3759 3.42805 -6.02043 0
M  V30 663 N 65.1689 2.9314 -4.7961 0
M  V30 664 H 57.3199 0.122313 -2.12048 0
M  V30 665 H 59.5829 0.116892 -0.940766 0
M  V30 666 H 59.2889 1.01451 -3.3675 0
M  V30 667 H 59.1629 2.6329 -2.70108 0
M  V30 668 H 61.5499 2.38244 -1.74137 0
M  V30 669 H 61.6309 0.759894 -2.44252 0
M  V30 670 H 61.2749 1.76835 -4.76121 0
M  V30 671 H 61.2049 3.39091 -4.02895 0
M  V30 672 H 63.6959 2.1107 -3.13461 0
M  V30 673 H 64.0089 3.78354 -6.73846 0
M  V30 674 H 62.3539 3.4087 -6.05667 0
M  V30 675 H 65.5449 2.54419 -3.92923 0
M  V30 676 H 65.7179 3.30721 -5.5725 0
M  V30 677 N 59.124 1.23083 0.984299 0
M  V30 678 C 60.401 0.9689 1.69917 0
M  V30 679 C 60.781 -0.513604 2.04757 0
M  V30 680 O 60.129 -1.48383 1.73767 0
M  V30 681 C 60.339 1.87518 2.94343 0
M  V30 682 C 61.687 2.13636 3.6694 0
M  V30 683 O 62.711 1.85036 3.04368 0
M  V30 684 O 61.57 2.62119 4.79537 0
M  V30 685 H 58.664 0.365095 0.742048 0
M  V30 686 H 61.21 1.34107 1.03987 0
M  V30 687 H 59.982 2.87756 2.65164 0
M  V30 688 H 59.605 1.50514 3.6801 0
M  V30 689 N 60.6021 -1.18246 1.0419 0
M  V30 690 C 61.5321 -2.24127 0.654914 0
M  V30 691 C 62.5131 -1.66617 -0.342451 0
M  V30 692 O 63.6981 -1.92924 -0.222277 0
M  V30 693 C 60.8281 -3.47295 0.0183757 0
M  V30 694 C 59.7821 -4.17563 0.939414 0
M  V30 695 C 59.1081 -5.34438 0.167286 0
M  V30 696 C 60.4081 -4.70917 2.25908 0
M  V30 697 H 62.1021 -2.56753 1.54007 0
M  V30 698 H 59.6481 -1.23414 0.74195 0
M  V30 699 H 61.6011 -4.20572 -0.264082 0
M  V30 700 H 60.3251 -3.13907 -0.901664 0
M  V30 701 H 58.9841 -3.46186 1.20628 0
M  V30 702 H 58.6321 -4.97298 -0.7552 0
M  V30 703 H 58.3321 -5.82388 0.780901 0
M  V30 704 H 59.8561 -6.10504 -0.108125 0
M  V30 705 H 61.2701 -5.35882 2.03724 0
M  V30 706 H 59.6671 -5.29406 2.82577 0
M  V30 707 H 60.7371 -3.88272 2.9047 0
M  V30 708 N 62.0802 -0.821533 -1.34494 0
M  V30 709 C 63.0102 -0.257138 -2.3208 0
M  V30 710 C 63.9912 0.625645 -1.58176 0
M  V30 711 O 65.1762 0.552811 -1.86166 0
M  V30 712 C 62.3062 0.582958 -3.42372 0
M  V30 713 C 61.2602 -0.202571 -4.2752 0
M  V30 714 C 60.5862 0.760179 -5.29269 0
M  V30 715 C 61.8862 -1.40998 -5.02908 0
M  V30 716 H 63.5802 -1.07247 -2.79532 0
M  V30 717 H 61.1262 -0.517163 -1.34393 0
M  V30 718 H 63.0792 0.987972 -4.09655 0
M  V30 719 H 61.8032 1.43133 -2.93565 0
M  V30 720 H 60.4622 -0.588936 -3.61838 0
M  V30 721 H 60.1102 1.60447 -4.76724 0
M  V30 722 H 59.8102 0.238809 -5.87115 0
M  V30 723 H 61.3342 1.16308 -5.9942 0
M  V30 724 H 62.7482 -1.07905 -5.63054 0
M  V30 725 H 61.1452 -1.86689 -5.70322 0
M  V30 726 H 62.2152 -2.1889 -4.32684 0
M  V30 727 N 63.5583 1.46682 -0.576371 0
M  V30 728 C 64.7863 2.06798 -0.0649635 0
M  V30 729 C 65.2013 1.42612 1.23723 0
M  V30 730 O 64.5583 0.529203 1.74659 0
M  V30 731 C 64.6093 3.6132 0.114202 0
M  V30 732 O 64.3303 4.23104 -1.13644 0
M  V30 733 C 65.8313 4.38349 0.66069 0
M  V30 734 H 63.0513 0.668778 -0.0545616 0
M  V30 735 H 65.5953 1.88404 -0.795237 0
M  V30 736 H 63.7503 3.79162 0.794673 0
M  V30 737 H 64.1643 5.15894 -0.946253 0
M  V30 738 H 65.6383 5.47081 0.73526 0
M  V30 739 H 66.1153 4.05953 1.67627 0
M  V30 740 H 66.7213 4.25297 0.0152951 0
M  V30 741 N 65.0364 0.313813 1.54444 0
M  V30 742 C 65.9664 -0.549454 2.26943 0
M  V30 743 C 66.9474 -1.12741 1.27372 0
M  V30 744 O 68.1324 -1.15436 1.56167 0
M  V30 745 C 65.2624 -1.71523 3.01989 0
M  V30 746 C 64.2164 -1.26703 4.08816 0
M  V30 747 C 63.5424 -2.51898 4.71647 0
M  V30 748 C 64.8424 -0.388962 5.2085 0
M  V30 749 H 66.5364 0.0552661 2.99349 0
M  V30 750 H 64.0824 0.0280207 1.43973 0
M  V30 751 H 66.0354 -2.32535 3.51433 0
M  V30 752 H 64.7594 -2.34639 2.27183 0
M  V30 753 H 63.4184 -0.679896 3.6024 0
M  V30 754 H 63.0664 -3.13356 3.93468 0
M  V30 755 H 62.7664 -2.22605 5.43802 0
M  V30 756 H 64.2904 -3.1369 5.23861 0
M  V30 757 H 65.7044 -0.905107 5.6611 0
M  V30 758 H 64.1014 -0.18924 5.99802 0
M  V30 759 H 65.1714 0.582699 4.81386 0
M  V30 760 N 66.5145 -1.57545 0.0417849 0
M  V30 761 C 67.4615 -2.10977 -0.935805 0
M  V30 762 C 68.4315 -1.01486 -1.31491 0
M  V30 763 O 69.6165 -1.2898 -1.40602 0
M  V30 764 C 66.7565 -2.65169 -2.2086 0
M  V30 765 C 65.8695 -3.88714 -1.88482 0
M  V30 766 C 65.0045 -4.31254 -3.1015 0
M  V30 767 C 64.0435 -5.47524 -2.7365 0
M  V30 768 N 63.1805 -5.85162 -3.87982 0
M  V30 769 H 68.0205 -2.94218 -0.473249 0
M  V30 770 H 65.5575 -1.45415 -0.221981 0
M  V30 771 H 67.5155 -2.94685 -2.95325 0
M  V30 772 H 66.1455 -1.8474 -2.64709 0
M  V30 773 H 65.1975 -3.65849 -1.04205 0
M  V30 774 H 66.5095 -4.73245 -1.57608 0
M  V30 775 H 65.6635 -4.62273 -3.92923 0
M  V30 776 H 64.4025 -3.45516 -3.44195 0
M  V30 777 H 63.4075 -5.16187 -1.89291 0
M  V30 778 H 64.6325 -6.34971 -2.40807 0
M  V30 779 H 62.5785 -5.02377 -4.21846 0
M  V30 780 H 62.4955 -6.64362 -3.60775 0
M  V30 781 H 63.7635 -6.20791 -4.71422 0
M  V30 782 N 67.9926 0.231505 -1.5589 0
M  V30 783 C 68.9406 1.30649 -1.92441 0
M  V30 784 C 69.9346 1.49037 -0.805254 0
M  V30 785 O 71.1406 1.50329 -0.990007 0
M  V30 786 H 67.5156 0.437812 -0.611412 0
M  V30 787 H 69.4866 0.970973 -2.82161 0
M  V30 788 C 68.2356 2.65179 -2.24889 0
M  V30 789 H 67.5586 2.51835 -3.10514 0
M  V30 790 H 68.9986 3.39234 -2.54355 0
M  V30 791 C 67.4576 3.19439 -1.07054 0
M  V30 792 O 67.9876 4.00371 -0.326499 0
M  V30 793 N 66.1936 2.77675 -0.85703 0
M  V30 794 H 65.7406 2.11969 -1.46379 0
M  V30 795 H 65.6986 3.14321 -0.0703223 0
M  V30 796 N 69.4707 1.49531 0.497807 0
M  V30 797 C 70.7177 1.59179 1.25173 0
M  V30 798 C 71.0457 0.279932 1.92475 0
M  V30 799 O 70.3007 -0.732383 1.81479 0
M  V30 800 C 70.5997 2.70252 2.33878 0
M  V30 801 C 70.2657 4.11644 1.84012 0
M  V30 802 C 68.9277 4.50121 1.70132 0
M  V30 803 C 71.2797 5.00121 1.46725 0
M  V30 804 C 68.6077 5.74845 1.17348 0
M  V30 805 C 70.9597 6.25366 0.95392 0
M  V30 806 C 69.6237 6.6267 0.801538 0
M  V30 807 H 68.8937 0.582478 0.45804 0
M  V30 808 H 71.5407 1.83373 0.551948 0
M  V30 809 H 69.8457 2.40041 3.09657 0
M  V30 810 H 71.5427 2.74925 2.9192 0
M  V30 811 H 68.1327 3.81274 1.95775 0
M  V30 812 H 72.3167 4.71048 1.56294 0
M  V30 813 H 67.5727 6.02444 1.04264 0
M  V30 814 H 71.7467 6.93301 0.656225 0
M  V30 815 H 69.3737 7.59197 0.390351 0
M  V30 816 N 70.9488 -0.749086 1.3866 0
M  V30 817 C 72.1768 -1.53834 1.38358 0
M  V30 818 C 72.5918 -1.88783 -0.0255219 0
M  V30 819 O 71.9488 -1.53101 -0.993292 0
M  V30 820 C 71.9998 -2.83468 2.2434 0
M  V30 821 O 71.7208 -2.50008 3.5976 0
M  V30 822 C 73.2218 -3.7758 2.32267 0
M  V30 823 H 70.4418 -0.47585 0.473083 0
M  V30 824 H 72.9858 -0.926726 1.82297 0
M  V30 825 H 71.1408 -3.40995 1.83851 0
M  V30 826 H 71.5548 -3.33182 4.05081 0
M  V30 827 H 73.0288 -4.65478 2.96706 0
M  V30 828 H 73.5058 -4.18334 1.33765 0
M  V30 829 H 74.1118 -3.25976 2.73166 0
M  V30 830 N 72.4269 -1.23603 -0.977757 0
M  V30 831 C 73.6749 -1.06759 -1.71601 0
M  V30 832 C 73.9959 0.395929 -1.90938 0
M  V30 833 O 73.2659 1.28356 -1.47992 0
M  V30 834 H 71.8459 -0.392062 -0.635843 0
M  V30 835 H 74.5079 -1.55362 -1.1768 0
M  V30 836 H 73.6039 -1.55763 -2.70452 0
M  V30 837 N 73.905 1.17692 -1.04816 0
M  V30 838 C 74.815 2.25229 -0.65643 0
M  V30 839 C 75.831 1.71018 0.320761 0
M  V30 840 O 77.007 2.00649 0.173805 0
M  V30 841 C 74.072 3.46684 -0.0332629 0
M  V30 842 C 73.133 4.15997 -1.06042 0
M  V30 843 C 72.366 5.31654 -0.466893 0
M  V30 844 O 72.589 5.65777 0.724758 0
M  V30 845 O 71.523 5.89831 -1.1993 0
M  V30 846 H 75.349 2.61016 -1.55255 0
M  V30 847 H 72.934 1.24919 -0.81949 0
M  V30 848 H 74.816 4.20234 0.313256 0
M  V30 849 H 73.491 3.12703 0.836566 0
M  V30 850 H 72.398 3.44482 -1.45886 0
M  V30 851 H 73.731 4.53996 -1.90127 0
M  V30 852 N 75.3831 0.828654 1.34056 0
M  V30 853 C 76.2931 0.256725 2.33191 0
M  V30 854 C 77.3091 -0.611898 1.62886 0
M  V30 855 O 78.4851 -0.51844 1.94613 0
M  V30 856 C 75.5501 -0.567238 3.42028 0
M  V30 857 C 74.6111 0.324458 4.28072 0
M  V30 858 C 73.8441 -0.460274 5.31712 0
M  V30 859 O 74.0671 -1.693 5.44696 0
M  V30 860 O 73.0011 0.160391 6.01686 0
M  V30 861 H 76.8271 1.07739 2.83947 0
M  V30 862 H 74.4121 0.59093 1.37217 0
M  V30 863 H 76.2941 -1.03582 4.08471 0
M  V30 864 H 74.9691 -1.36513 2.93506 0
M  V30 865 H 73.8761 0.840659 3.64532 0
M  V30 866 H 75.2091 1.08685 4.8005 0
M  V30 867 N 76.8612 -1.46375 0.584142 0
M  V30 868 C 78.1102 -2.01585 0.0679741 0
M  V30 869 C 78.4232 -1.46109 -1.30045 0
M  V30 870 O 79.6292 -1.93148 -1.90804 0
M  V30 871 C 78.0852 -3.5983 0.0709207 0
M  V30 872 C 77.6932 -4.24303 1.43775 0
M  V30 873 C 79.4372 -4.22693 -0.391228 0
M  V30 874 C 77.3442 -5.74631 1.39834 0
M  V30 875 H 76.2742 -0.753689 0.0216421 0
M  V30 876 H 78.9252 -1.68093 0.736001 0
M  V30 877 H 77.3072 -3.90405 -0.663299 0
M  V30 878 H 78.4812 -4.05335 2.19181 0
M  V30 879 H 76.7962 -3.73539 1.84004 0
M  V30 880 H 79.3932 -5.3289 -0.439524 0
M  V30 881 H 79.7362 -3.91728 -1.40906 0
M  V30 882 H 80.2692 -3.96749 0.288974 0
M  V30 883 H 77.0082 -6.10258 2.39303 0
M  V30 884 H 76.5282 -5.95858 0.686505 0
M  V30 885 H 78.2072 -6.37375 1.11187 0
M  V30 886 N 78.3393 -0.321999 -1.54275 0
M  V30 887 C 79.2863 0.544664 -2.24281 0
M  V30 888 C 80.2563 1.1129 -1.23303 0
M  V30 889 O 81.4413 1.15354 -1.51981 0
M  V30 890 C 78.5813 1.70045 -3.00298 0
M  V30 891 C 77.6943 1.16159 -4.1609 0
M  V30 892 C 76.8293 2.28293 -4.79641 0
M  V30 893 C 75.8683 1.71648 -5.8754 0
M  V30 894 N 75.0053 2.77438 -6.44959 0
M  V30 895 H 79.8453 -0.0588907 -2.97942 0
M  V30 896 H 77.3823 -0.0408345 -1.47043 0
M  V30 897 H 79.3403 2.38054 -3.42616 0
M  V30 898 H 77.9703 2.27531 -2.28975 0
M  V30 899 H 77.0223 0.373092 -3.78566 0
M  V30 900 H 78.3343 0.707087 -4.93763 0
M  V30 901 H 77.4883 3.0421 -5.2492 0
M  V30 902 H 76.2273 2.77079 -4.01346 0
M  V30 903 H 75.2323 0.942282 -5.41665 0
M  V30 904 H 76.4573 1.23741 -6.67731 0
M  V30 905 H 74.4033 3.25519 -5.69538 0
M  V30 906 H 74.3203 2.36547 -7.1804 0
M  V30 907 H 75.5883 3.53189 -6.94894 0
M  V30 908 N 79.8174 1.5752 -0.0501392 0
M  V30 909 C 81.0474 1.96678 0.632573 0
M  V30 910 C 81.4554 0.926298 1.64974 0
M  V30 911 O 80.7984 -0.09802 1.83438 0
M  V30 912 C 80.8604 3.32068 1.37735 0
M  V30 913 C 80.5244 4.54076 0.516131 0
M  V30 914 C 81.5214 5.19445 -0.217357 0
M  V30 915 C 79.2064 5.00304 0.44736 0
M  V30 916 C 81.2004 6.29378 -1.00807 0
M  V30 917 C 78.8874 6.10114 -0.347038 0
M  V30 918 C 79.8854 6.74512 -1.07344 0
M  V30 919 O 79.5734 7.82211 -1.85477 0
M  V30 920 H 79.3054 0.652193 0.177821 0
M  V30 921 H 81.8594 2.05091 -0.112543 0
M  V30 922 H 80.0894 3.20206 2.16807 0
M  V30 923 H 81.7784 3.55981 1.95019 0
M  V30 924 H 82.5444 4.84689 -0.173688 0
M  V30 925 H 78.4234 4.49971 1.00235 0
M  V30 926 H 81.9674 6.79575 -1.57556 0
M  V30 927 H 77.8644 6.44307 -0.392349 0
M  V30 928 H 78.6324 7.98982 -1.77678 0
M  V30 929 N 81.2955 -0.223234 1.56011 0
M  V30 930 C 82.2285 -1.30377 1.87289 0
M  V30 931 C 83.2065 -1.45286 0.730112 0
M  V30 932 O 84.3905 -1.61126 0.978302 0
M  V30 933 C 81.5175 -2.67431 2.07843 0
M  V30 934 C 80.5635 -2.69546 3.30526 0
M  V30 935 S 81.3965 -2.23781 4.865 0
M  V30 936 C 82.5525 -3.62714 5.10088 0
M  V30 937 H 82.7855 -1.03652 2.78646 0
M  V30 938 H 80.3185 -0.425393 1.48424 0
M  V30 939 H 82.2765 -3.46336 2.20368 0
M  V30 940 H 80.9375 -2.91381 1.17285 0
M  V30 941 H 80.1305 -3.70255 3.41947 0
M  V30 942 H 79.7325 -1.98703 3.16849 0
M  V30 943 H 82.0245 -4.58391 4.98883 0
M  V30 944 H 82.9675 -3.5621 6.11981 0
M  V30 945 H 83.3755 -3.56323 4.37829 0
M  V30 946 N 82.7736 -1.49793 -0.48987 0
M  V30 947 C 83.7036 -1.70201 -1.59856 0
M  V30 948 C 84.6846 -0.55076 -1.60937 0
M  V30 949 O 85.8696 -0.787841 -1.77501 0
M  V30 950 C 82.9996 -1.77882 -2.98287 0
M  V30 951 C 81.9536 -2.92907 -3.12073 0
M  V30 952 C 81.2796 -2.85712 -4.51965 0
M  V30 953 C 82.5796 -4.3369 -2.91051 0
M  V30 954 H 84.2736 -2.63025 -1.43032 0
M  V30 955 H 81.8196 -1.26574 -0.686664 0
M  V30 956 H 83.7726 -1.90744 -3.75759 0
M  V30 957 H 82.4966 -0.816653 -3.16225 0
M  V30 958 H 81.1556 -2.79665 -2.37029 0
M  V30 959 H 80.8036 -1.8738 -4.66795 0
M  V30 960 H 80.5036 -3.62921 -4.62128 0
M  V30 961 H 82.0276 -3.00598 -5.31482 0
M  V30 962 H 83.4416 -4.47555 -3.58284 0
M  V30 963 H 81.8386 -5.12205 -3.12675 0
M  V30 964 H 82.9086 -4.47362 -1.87071 0
M  V30 965 N 84.2517 0.741722 -1.39055 0
M  V30 966 C 85.4977 1.50234 -1.37118 0
M  V30 967 C 85.8527 1.92368 0.0350439 0
M  V30 968 O 85.1457 1.63422 1.00019 0
M  V30 969 C 85.3397 2.7592 -2.27163 0
M  V30 970 C 85.1687 2.46074 -3.76401 0
M  V30 971 C 83.9387 2.38704 -4.45364 0
M  V30 972 C 86.1367 2.12062 -4.68545 0
M  V30 973 N 84.1187 2.01258 -5.79973 0
M  V30 974 C 85.4897 1.85005 -5.91754 0
M  V30 975 C 87.5447 1.98473 -4.56632 0
M  V30 976 C 86.2477 1.4573 -7.04383 0
M  V30 977 C 88.2737 1.60599 -5.69176 0
M  V30 978 C 87.6357 1.34423 -6.91455 0
M  V30 979 H 83.7347 0.548858 -0.557027 0
M  V30 980 H 86.3187 0.862642 -1.74547 0
M  V30 981 H 84.4897 3.3768 -1.91904 0
M  V30 982 H 86.2217 3.42068 -2.16267 0
M  V30 983 H 82.9767 2.55574 -3.98721 0
M  V30 984 H 83.4007 1.85147 -6.51191 0
M  V30 985 H 88.0427 2.17381 -3.62637 0
M  V30 986 H 85.7607 1.25562 -7.98286 0
M  V30 987 H 89.3467 1.507 -5.61944 0
M  V30 988 H 88.2267 1.05555 -7.77064 0
M  V30 989 N 85.7298 1.2412 0.971189 0
M  V30 990 C 86.6598 1.05508 2.08304 0
M  V30 991 C 87.6408 -0.0308864 1.70072 0
M  V30 992 O 88.8258 0.135521 1.93727 0
M  V30 993 C 85.9558 0.655365 3.4106 0
M  V30 994 C 84.9098 1.68971 3.93234 0
M  V30 995 C 84.2358 1.14516 5.22293 0
M  V30 996 C 85.5358 3.08487 4.21465 0
M  V30 997 H 87.2298 1.98507 2.24132 0
M  V30 998 H 84.7758 0.955821 1.07704 0
M  V30 999 H 86.7288 0.51217 4.18276 0
M  V30 1000 H 85.4528 -0.31032 3.25122 0
M  V30 1001 H 84.1118 1.82106 3.18171 0
M  V30 1002 H 83.7598 0.170189 5.02712 0
M  V30 1003 H 83.4598 1.83635 5.58168 0
M  V30 1004 H 84.9838 1.01401 6.02121 0
M  V30 1005 H 86.3978 2.98601 4.89398 0
M  V30 1006 H 84.7948 3.74926 4.68562 0
M  V30 1007 H 85.8648 3.56787 3.28376 0
M  V30 1008 N 87.2079 -1.17134 1.05439 0
M  V30 1009 C 88.4329 -1.91913 0.786396 0
M  V30 1010 C 88.8579 -1.7643 -0.652234 0
M  V30 1011 O 88.2159 -1.08372 -1.45345 0
M  V30 1012 C 88.2639 -3.40921 1.17497 0
M  V30 1013 O 87.3679 -4.11244 0.308589 0
M  V30 1014 H 86.7089 -0.598215 0.288158 0
M  V30 1015 H 89.2389 -1.48457 1.4079 0
M  V30 1016 H 89.2489 -3.91668 1.14281 0
M  V30 1017 H 87.9239 -3.5151 2.22292 0
M  V30 1018 H 86.5009 -3.70731 0.40157 0
M  V30 1019 N 88.686 -0.835752 -1.33615 0
M  V30 1020 C 89.649 -0.272 -2.2758 0
M  V30 1021 C 90.649 0.557487 -1.50827 0
M  V30 1022 O 91.839 0.37173 -1.70188 0
M  V30 1023 C 88.971 0.617173 -3.35267 0
M  V30 1024 H 90.164 -1.10111 -2.78954 0
M  V30 1025 H 87.717 -0.608594 -1.43965 0
M  V30 1026 H 88.452 1.46884 -2.89129 0
M  V30 1027 H 88.237 0.0237066 -3.92093 0
M  V30 1028 H 89.727 1.005 -4.05326 0
M  V30 1029 N 90.1641 1.46063 -0.591896 0
M  V30 1030 C 91.4411 1.95595 -0.0137119 0
M  V30 1031 C 91.8211 1.5345 1.4497 0
M  V30 1032 O 91.1691 0.789543 2.14426 0
M  V30 1033 C 91.3791 3.48453 -0.195373 0
M  V30 1034 C 92.7271 4.24546 -0.0679765 0
M  V30 1035 O 93.7511 3.55982 -0.124681 0
M  V30 1036 O 92.6101 5.46467 0.0600579 0
M  V30 1037 H 89.7041 0.825795 0.0446279 0
M  V30 1038 H 92.2501 1.56303 -0.660859 0
M  V30 1039 H 91.0221 3.72045 -1.21235 0
M  V30 1040 H 90.6451 3.94597 0.487775 0
M  V30 1041 N 91.6422 0.330177 1.54103 0
M  V30 1042 C 92.5722 -0.525353 2.27513 0
M  V30 1043 C 93.5532 -1.11383 1.2856 0
M  V30 1044 O 94.7382 -1.13773 1.57383 0
M  V30 1045 C 91.8682 -1.6831 3.03791 0
M  V30 1046 C 90.8222 -1.2236 4.10137 0
M  V30 1047 C 90.1482 -2.46882 4.74293 0
M  V30 1048 C 91.4482 -0.333697 5.21233 0
M  V30 1049 H 93.1422 0.087013 2.99274 0
M  V30 1050 H 90.6882 0.0432893 1.43935 0
M  V30 1051 H 92.6412 -2.28795 3.5388 0
M  V30 1052 H 91.3652 -2.32216 2.29659 0
M  V30 1053 H 90.0242 -0.64165 3.60941 0
M  V30 1054 H 89.6722 -3.09165 3.96769 0
M  V30 1055 H 89.3722 -2.16825 5.46133 0
M  V30 1056 H 90.8962 -3.08117 5.27159 0
M  V30 1057 H 92.3102 -0.845013 5.67038 0
M  V30 1058 H 90.7072 -0.125612 5.99969 0
M  V30 1059 H 91.7772 0.633724 4.80741 0
M  V30 1060 N 93.1203 -1.57491 0.0584922 0
M  V30 1061 C 94.0673 -2.11958 -0.913376 0
M  V30 1062 C 95.0373 -1.02875 -1.30407 0
M  V30 1063 O 96.2223 -1.30464 -1.39226 0
M  V30 1064 C 93.3623 -2.67497 -2.18035 0
M  V30 1065 C 92.4753 -3.90691 -1.84349 0
M  V30 1066 C 91.6103 -4.3452 -3.05559 0
M  V30 1067 C 90.6493 -5.50395 -2.67827 0
M  V30 1068 N 89.7863 -5.89244 -3.81754 0
M  V30 1069 H 94.6263 -2.94704 -0.442017 0
M  V30 1070 H 92.1633 -1.45643 -0.206545 0
M  V30 1071 H 94.1213 -2.978 -2.92183 0
M  V30 1072 H 92.7513 -1.87537 -2.62735 0
M  V30 1073 H 91.8033 -3.66934 -1.00319 0
M  V30 1074 H 93.1153 -4.7489 -1.5258 0
M  V30 1075 H 92.2693 -4.66414 -3.87998 0
M  V30 1076 H 91.0083 -3.49147 -3.40511 0
M  V30 1077 H 90.0133 -5.18165 -1.83806 0
M  V30 1078 H 91.2383 -6.3749 -2.34059 0
M  V30 1079 H 89.1843 -5.06823 -4.16493 0
M  V30 1080 H 89.1013 -6.68151 -3.53708 0
M  V30 1081 H 90.3693 -6.25756 -4.64811 0
M  V30 1082 N 94.5984 0.214957 -1.56127 0
M  V30 1083 C 95.8454 0.938372 -1.79446 0
M  V30 1084 C 96.1734 1.8407 -0.628378 0
M  V30 1085 O 95.4284 1.91837 0.386925 0
M  V30 1086 C 95.7274 1.80314 -3.0858 0
M  V30 1087 C 95.3934 1.05349 -4.3842 0
M  V30 1088 C 94.0554 0.846435 -4.73697 0
M  V30 1089 C 96.4074 0.524588 -5.18553 0
M  V30 1090 C 93.7354 0.098683 -5.86617 0
M  V30 1091 C 96.0874 -0.209853 -6.32252 0
M  V30 1092 C 94.7514 -0.428102 -6.66126 0
M  V30 1093 H 94.0214 0.343375 -0.656639 0
M  V30 1094 H 96.6684 0.206077 -1.90388 0
M  V30 1095 H 94.9734 2.6035 -2.92789 0
M  V30 1096 H 96.6704 2.36513 -3.23825 0
M  V30 1097 H 93.2604 1.22486 -4.10725 0
M  V30 1098 H 97.4444 0.672008 -4.91729 0
M  V30 1099 H 92.7004 -0.0805753 -6.11347 0
M  V30 1100 H 96.8744 -0.627157 -6.9357 0
M  V30 1101 H 94.5014 -1.00944 -7.53468 0
M  V30 1102 N 96.0765 1.50051 0.48192 0
M  V30 1103 C 97.4925 1.37237 0.814756 0
M  V30 1104 C 97.6925 0.420109 1.97072 0
M  V30 1105 O 96.7485 -0.141246 2.52105 0
M  V30 1106 C 98.0615 2.78375 1.13701 0
M  V30 1107 C 99.6095 2.87213 1.2441 0
M  V30 1108 C 100.084 4.29161 1.59954 0
M  V30 1109 N 101.575 4.32061 1.66967 0
M  V30 1110 C 102.31 5.38879 1.95952 0
M  V30 1111 N 101.806 6.55918 2.23031 0
M  V30 1112 N 103.599 5.26312 1.97363 0
M  V30 1113 H 95.7505 2.10546 -0.28005 0
M  V30 1114 H 98.0135 0.945921 -0.0627454 0
M  V30 1115 H 97.7195 3.49845 0.360787 0
M  V30 1116 H 97.5935 3.14941 2.07586 0
M  V30 1117 H 99.9805 2.15969 2.01101 0
M  V30 1118 H 100.061 2.54204 0.285299 0
M  V30 1119 H 99.7055 5.00938 0.838067 0
M  V30 1120 H 99.6355 4.59648 2.56966 0
M  V30 1121 H 102.126 3.47661 1.48123 0
M  V30 1122 H 102.439 7.33139 2.44391 0
M  V30 1123 H 100.784 6.59112 2.20447 0
M  V30 1124 H 103.975 4.33876 1.75697 0
M  V30 1125 H 104.148 6.09649 2.19618 0
M  V30 1126 N 97.5546 -0.734337 1.39446 0
M  V30 1127 C 98.8036 -1.48937 1.36017 0
M  V30 1128 C 99.1166 -1.95557 -0.0409005 0
M  V30 1129 O 100.323 -2.70779 -0.19778 0
M  V30 1130 C 98.7786 -2.69125 2.38955 0
M  V30 1131 C 98.3866 -2.29452 3.8478 0
M  V30 1132 C 100.131 -3.46944 2.44603 0
M  V30 1133 C 98.0376 -3.46366 4.79358 0
M  V30 1134 H 96.9676 -0.559296 0.505672 0
M  V30 1135 H 99.6186 -0.800983 1.65095 0
M  V30 1136 H 98.0006 -3.40041 2.02948 0
M  V30 1137 H 99.1746 -1.66077 4.29831 0
M  V30 1138 H 97.4896 -1.64723 3.82433 0
M  V30 1139 H 100.087 -4.33907 3.12456 0
M  V30 1140 H 100.43 -3.89454 1.47076 0
M  V30 1141 H 100.963 -2.83056 2.79507 0
M  V30 1142 H 97.7016 -3.08905 5.78151 0
M  V30 1143 H 97.2216 -4.08719 4.38986 0
M  V30 1144 H 98.9006 -4.12691 4.98292 0
M  V30 1145 N 99.0327 -1.24633 -0.964593 0
M  V30 1146 C 99.9797 -1.04144 -2.05968 0
M  V30 1147 C 100.95 0.046262 -1.66036 0
M  V30 1148 O 102.135 -0.108972 -1.90489 0
M  V30 1149 C 99.2747 -0.65563 -3.38815 0
M  V30 1150 C 98.3877 -1.81714 -3.91923 0
M  V30 1151 C 97.5227 -1.37662 -5.13052 0
M  V30 1152 C 96.5617 -2.50788 -5.58365 0
M  V30 1153 N 95.6987 -2.07582 -6.70712 0
M  V30 1154 H 100.539 -1.9787 -2.22827 0
M  V30 1155 H 98.0757 -0.9855 -1.09208 0
M  V30 1156 H 100.034 -0.412954 -4.15151 0
M  V30 1157 H 98.6637 0.244627 -3.21872 0
M  V30 1158 H 97.7157 -2.1734 -3.12198 0
M  V30 1159 H 99.0277 -2.66705 -4.21509 0
M  V30 1160 H 98.1817 -1.093 -5.96773 0
M  V30 1161 H 96.9207 -0.497293 -4.85158 0
M  V30 1162 H 95.9257 -2.79906 -4.73215 0
M  V30 1163 H 97.1507 -3.39283 -5.88272 0
M  V30 1164 H 95.0967 -1.22051 -6.44546 0
M  V30 1165 H 95.0137 -2.86125 -6.99763 0
M  V30 1166 H 96.2817 -1.82369 -7.57867 0
M  V30 1167 N 100.511 1.16574 -1.06058 0
M  V30 1168 C 101.443 2.2045 -0.627239 0
M  V30 1169 C 102.456 1.59752 0.313534 0
M  V30 1170 O 103.645 1.78192 0.104896 0
M  V30 1171 C 100.745 3.3875 0.100974 0
M  V30 1172 C 99.9178 4.29008 -0.852687 0
M  V30 1173 C 98.9768 5.25944 -0.164152 0
M  V30 1174 O 98.0028 5.63535 -0.801047 0
M  V30 1175 N 99.2048 5.70075 1.09518 0
M  V30 1176 H 101.97 2.58249 -1.52077 0
M  V30 1177 H 99.5308 1.3156 -0.943594 0
M  V30 1178 H 101.523 4.00638 0.57194 0
M  V30 1179 H 100.093 2.99476 0.89628 0
M  V30 1180 H 99.3128 3.64419 -1.50308 0
M  V30 1181 H 100.601 4.86195 -1.49972 0
M  V30 1182 H 99.9988 5.41624 1.6328 0
M  V30 1183 H 98.5558 6.34067 1.51006 0
M  V30 1184 N 101.989 0.842826 1.3317 0
M  V30 1185 C 102.936 0.276885 2.29133 0
M  V30 1186 C 103.906 -0.609527 1.54512 0
M  V30 1187 O 105.091 -0.546955 1.82792 0
M  V30 1188 C 102.231 -0.538707 3.40869 0
M  V30 1189 C 101.344 0.372169 4.30394 0
M  V30 1190 C 100.479 -0.454908 5.29249 0
M  V30 1191 C 99.5179 0.45411 6.10413 0
M  V30 1192 N 98.6549 -0.335075 7.013 0
M  V30 1193 H 103.495 1.10052 2.76934 0
M  V30 1194 H 101.032 0.554161 1.36262 0
M  V30 1195 H 102.99 -1.02709 4.0436 0
M  V30 1196 H 101.62 -1.32727 2.9425 0
M  V30 1197 H 100.672 0.97888 3.6759 0
M  V30 1198 H 101.984 1.0703 4.87182 0
M  V30 1199 H 101.138 -1.00695 5.98285 0
M  V30 1200 H 99.8769 -1.18646 4.73048 0
M  V30 1201 H 98.8819 1.01813 5.40291 0
M  V30 1202 H 100.107 1.18409 6.68697 0
M  V30 1203 H 98.0529 -1.04994 6.47543 0
M  V30 1204 H 97.9699 0.304262 7.55387 0
M  V30 1205 H 99.2379 -0.869224 7.74638 0
M  V30 1206 N 103.467 -1.45747 0.599634 0
M  V30 1207 C 104.715 -2.01893 0.0915472 0
M  V30 1208 C 105.036 -1.47155 -1.27946 0
M  V30 1209 O 104.306 -0.66273 -1.84349 0
M  V30 1210 H 102.886 -0.746363 0.0308524 0
M  V30 1211 H 105.548 -1.78645 0.779237 0
M  V30 1212 H 104.644 -3.1208 0.0353086 0
M  V30 1213 N 104.945 -0.338344 -1.53925 0
M  V30 1214 C 105.855 0.529421 -2.28548 0
M  V30 1215 C 106.871 1.11645 -1.3346 0
M  V30 1216 O 108.047 1.13325 -1.66492 0
M  V30 1217 C 105.112 1.66713 -3.03987 0
M  V30 1218 C 104.173 1.11041 -4.14691 0
M  V30 1219 C 103.406 2.19389 -4.86522 0
M  V30 1220 O 103.629 3.40013 -4.57982 0
M  V30 1221 O 102.563 1.83976 -5.73094 0
M  V30 1222 H 106.389 -0.0770399 -3.03602 0
M  V30 1223 H 103.974 -0.103555 -1.49041 0
M  V30 1224 H 105.856 2.32918 -3.5118 0
M  V30 1225 H 104.531 2.25949 -2.31794 0
M  V30 1226 H 103.438 0.413024 -3.71813 0
M  V30 1227 H 104.771 0.562975 -4.8897 0
M  V30 1228 N 106.423 1.57458 -0.0668435 0
M  V30 1229 C 107.653 1.97337 0.611677 0
M  V30 1230 C 108.061 0.943744 1.63982 0
M  V30 1231 O 107.404 -0.0785584 1.83532 0
M  V30 1232 C 107.466 3.33511 1.34205 0
M  V30 1233 C 107.13 4.54598 0.467941 0
M  V30 1234 C 108.127 5.19186 -0.272439 0
M  V30 1235 C 105.812 5.0075 0.39427 0
M  V30 1236 C 107.806 6.28274 -1.07476 0
M  V30 1237 C 105.493 6.09711 -0.411729 0
M  V30 1238 C 106.491 6.73335 -1.14492 0
M  V30 1239 O 106.179 7.80199 -1.93763 0
M  V30 1240 H 105.911 0.654042 0.170893 0
M  V30 1241 H 108.465 2.04961 -0.134289 0
M  V30 1242 H 106.695 3.22487 2.13398 0
M  V30 1243 H 108.384 3.58029 1.91233 0
M  V30 1244 H 109.15 4.84477 -0.225086 0
M  V30 1245 H 105.029 4.51009 0.954569 0
M  V30 1246 H 108.573 6.77866 -1.64755 0
M  V30 1247 H 104.47 6.43854 -0.460664 0
M  V30 1248 H 105.238 7.97053 -1.86142 0
M  V30 1249 N 107.901 -0.206675 1.56239 0
M  V30 1250 C 108.831 -1.25909 1.96645 0
M  V30 1251 C 109.812 -1.48097 0.836734 0
M  V30 1252 O 110.997 -1.6003 1.10019 0
M  V30 1253 C 108.127 -2.6058 2.29599 0
M  V30 1254 C 107.081 -2.53024 3.452 0
M  V30 1255 C 106.407 -3.91861 3.63798 0
M  V30 1256 C 107.707 -2.06524 4.79734 0
M  V30 1257 H 109.401 -0.923369 2.84806 0
M  V30 1258 H 106.947 -0.442735 1.37025 0
M  V30 1259 H 108.9 -3.34375 2.56459 0
M  V30 1260 H 107.624 -2.95869 1.38307 0
M  V30 1261 H 106.283 -1.81684 3.18412 0
M  V30 1262 H 105.931 -4.24483 2.69857 0
M  V30 1263 H 105.631 -3.87683 4.4156 0
M  V30 1264 H 107.155 -4.67296 3.93022 0
M  V30 1265 H 108.569 -2.70072 5.05702 0
M  V30 1266 H 106.966 -2.13374 5.60885 0
M  V30 1267 H 108.036 -1.01802 4.74093 0
M  V30 1268 N 109.379 -1.50304 -0.473955 0
M  V30 1269 C 110.79 -1.54042 -1.0549 0
M  V30 1270 C 111.141 -0.342248 -1.93192 0
M  V30 1271 O 110.266 0.545157 -2.09421 0
M  V30 1272 C 110.861 -2.79152 -1.91989 0
M  V30 1273 C 109.42 -2.8558 -2.45196 0
M  V30 1274 C 108.567 -2.48295 -1.2347 0
M  V30 1275 H 111.518 -1.5661 -0.256693 0
M  V30 1276 H 111.539 -2.60845 -2.7702 0
M  V30 1277 H 111.051 -3.66339 -1.28131 0
M  V30 1278 H 109.152 -2.02738 -3.12615 0
M  V30 1279 H 109.265 -3.88403 -2.80499 0
M  V30 1280 H 107.629 -2.00669 -1.56856 0
M  V30 1281 H 108.412 -3.37787 -0.612789 0
M  V30 1282 N 110.857 0.726932 -1.39834 0
M  V30 1283 C 111.787 1.85405 -1.41941 0
M  V30 1284 C 112.768 1.67751 -0.281728 0
M  V30 1285 O 113.953 1.8795 -0.488717 0
M  V30 1286 C 111.083 3.23243 -1.2701 0
M  V30 1287 C 110.037 3.55549 -2.38262 0
M  V30 1288 C 109.363 4.9241 -2.08415 0
M  V30 1289 C 110.663 3.577 -3.80589 0
M  V30 1290 H 112.357 1.83899 -2.36266 0
M  V30 1291 H 109.903 0.883349 -1.13723 0
M  V30 1292 H 111.856 4.01775 -1.27103 0
M  V30 1293 H 110.58 3.25296 -0.291564 0
M  V30 1294 H 109.239 2.79351 -2.37399 0
M  V30 1295 H 108.887 4.91052 -1.0898 0
M  V30 1296 H 108.587 5.14992 -2.82943 0
M  V30 1297 H 110.111 5.73289 -2.10171 0
M  V30 1298 H 111.525 4.26293 -3.83337 0
M  V30 1299 H 109.922 3.91804 -4.54543 0
M  V30 1300 H 110.992 2.57328 -4.10987 0
M  V30 1301 N 112.336 1.25143 0.95797 0
M  V30 1302 C 113.266 1.07711 2.07173 0
M  V30 1303 C 114.247 -0.0128462 1.70095 0
M  V30 1304 O 115.432 0.156061 1.93572 0
M  V30 1305 C 112.562 0.691503 3.40346 0
M  V30 1306 C 111.516 1.73132 3.9142 0
M  V30 1307 C 110.842 1.20049 5.21049 0
M  V30 1308 C 112.142 3.1294 4.1817 0
M  V30 1309 H 113.836 2.00873 2.22014 0
M  V30 1310 H 111.382 0.967191 1.06684 0
M  V30 1311 H 113.335 0.556505 4.17709 0
M  V30 1312 H 112.059 -0.275819 3.25433 0
M  V30 1313 H 110.718 1.8547 3.16222 0
M  V30 1314 H 110.366 0.223499 5.02503 0
M  V30 1315 H 110.066 1.89545 5.56189 0
M  V30 1316 H 111.59 1.07782 6.01012 0
M  V30 1317 H 113.004 3.03775 4.86203 0
M  V30 1318 H 111.401 3.79875 4.64559 0
M  V30 1319 H 112.471 3.6025 3.24573 0
M  V30 1320 N 113.814 -1.1601 1.06675 0
M  V30 1321 C 114.746 -2.20115 0.638921 0
M  V30 1322 C 115.759 -1.59916 -0.305057 0
M  V30 1323 O 116.948 -1.78245 -0.0954446 0
M  V30 1324 C 114.048 -3.38798 -0.0830083 0
M  V30 1325 C 113.221 -4.2855 0.875426 0
M  V30 1326 C 112.28 -5.25849 0.192042 0
M  V30 1327 O 111.306 -5.63102 0.830921 0
M  V30 1328 N 112.508 -5.70648 -1.06493 0
M  V30 1329 H 115.273 -2.57439 1.53444 0
M  V30 1330 H 112.834 -1.31057 0.950557 0
M  V30 1331 H 114.826 -4.00936 -0.550685 0
M  V30 1332 H 113.396 -2.99947 -0.880386 0
M  V30 1333 H 112.616 -3.63617 1.52238 0
M  V30 1334 H 113.904 -4.85393 1.52548 0
M  V30 1335 H 113.302 -5.42482 -1.60405 0
M  V30 1336 H 111.859 -6.34859 -1.47641 0
M  V30 1337 N 115.292 -0.849877 -1.32721 0
M  V30 1338 C 116.54 -0.450032 -1.97026 0
M  V30 1339 C 116.861 0.996604 -1.67609 0
M  V30 1340 O 116.131 1.6958 -0.980786 0
M  V30 1341 H 114.711 -0.163426 -0.728904 0
M  V30 1342 H 117.373 -1.08526 -1.6189 0
M  V30 1343 H 116.469 -0.591146 -3.0645 0
M  V30 1344 N 116.77 1.45427 -0.607355 0
M  V30 1345 C 117.717 2.3053 0.111625 0
M  V30 1346 C 118.687 1.4209 0.860216 0
M  V30 1347 O 119.872 1.71019 0.845998 0
M  V30 1348 C 117.012 3.26992 1.10319 0
M  V30 1349 C 116.125 4.30535 0.355493 0
M  V30 1350 C 115.26 5.14105 1.33676 0
M  V30 1351 C 114.299 6.09376 0.576862 0
M  V30 1352 N 113.436 6.85727 1.5074 0
M  V30 1353 H 118.276 2.91477 -0.620093 0
M  V30 1354 H 115.813 1.43631 -0.317594 0
M  V30 1355 H 117.771 3.81385 1.6912 0
M  V30 1356 H 116.401 2.67799 1.80232 0
M  V30 1357 H 115.453 3.78805 -0.348023 0
M  V30 1358 H 116.765 4.98235 -0.237423 0
M  V30 1359 H 115.919 5.72897 1.99684 0
M  V30 1360 H 114.658 4.46423 1.9636 0
M  V30 1361 H 113.663 5.49715 -0.0968519 0
M  V30 1362 H 114.888 6.79085 -0.0449341 0
M  V30 1363 H 112.834 6.20735 2.12189 0
M  V30 1364 H 112.751 7.49778 0.967913 0
M  V30 1365 H 114.019 7.4906 2.15706 0
M  V30 1366 N 118.248 0.346503 1.53744 0
M  V30 1367 C 119.473 -0.253074 2.0585 0
M  V30 1368 C 119.898 -1.43202 1.21962 0
M  V30 1369 O 119.256 -1.79783 0.234073 0
M  V30 1370 C 119.304 -0.643193 3.54817 0
M  V30 1371 O 118.408 -1.74286 3.73762 0
M  V30 1372 H 117.749 -0.0413583 0.662711 0
M  V30 1373 H 120.279 0.501574 1.98357 0
M  V30 1374 H 120.289 -0.919526 3.97503 0
M  V30 1375 H 118.964 0.218966 4.15323 0
M  V30 1376 H 117.541 -1.46356 3.42979 0
M  V30 1377 N 119.726 -1.57421 0.075193 0
M  V30 1378 C 120.656 -2.15942 -0.888324 0
M  V30 1379 C 121.637 -1.08737 -1.30806 0
M  V30 1380 O 122.822 -1.36787 -1.37851 0
M  V30 1381 C 119.952 -2.72379 -2.1547 0
M  V30 1382 C 118.906 -3.8478 -1.87425 0
M  V30 1383 C 118.232 -4.27834 -3.20721 0
M  V30 1384 C 119.532 -5.08869 -1.17684 0
M  V30 1385 H 121.226 -2.96705 -0.400799 0
M  V30 1386 H 118.772 -1.42723 -0.191342 0
M  V30 1387 H 120.725 -3.11965 -2.83295 0
M  V30 1388 H 119.449 -1.88841 -2.6647 0
M  V30 1389 H 118.108 -3.45703 -1.22004 0
M  V30 1390 H 117.756 -3.41214 -3.6957 0
M  V30 1391 H 117.456 -5.03605 -3.02746 0
M  V30 1392 H 118.98 -4.70039 -3.89738 0
M  V30 1393 H 120.394 -5.4575 -1.75584 0
M  V30 1394 H 118.791 -5.8994 -1.09956 0
M  V30 1395 H 119.861 -4.84648 -0.156453 0
M  V30 1396 N 121.204 0.198386 -1.56346 0
M  V30 1397 C 122.452 0.91747 -1.80075 0
M  V30 1398 C 122.773 1.83929 -0.647692 0
M  V30 1399 O 122.043 1.93029 0.334166 0
M  V30 1400 H 120.623 0.341774 -0.664228 0
M  V30 1401 H 123.285 0.204684 -1.93822 0
M  V30 1402 H 122.381 1.51055 -2.7311 0
M  V30 1403 N 122.682 1.50554 0.465978 0
M  V30 1404 C 123.615 1.64436 1.58227 0
M  V30 1405 C 124.593 0.492367 1.54966 0
M  V30 1406 O 125.777 0.712536 1.74514 0
M  V30 1407 C 122.904 1.63165 2.96808 0
M  V30 1408 C 121.95 2.83987 3.18204 0
M  V30 1409 S 122.783 4.45219 2.97557 0
M  V30 1410 C 123.939 4.46649 4.3847 0
M  V30 1411 H 124.172 2.58861 1.46213 0
M  V30 1412 H 121.705 1.3988 0.653678 0
M  V30 1413 H 123.663 1.63116 3.76701 0
M  V30 1414 H 122.324 0.69967 3.06208 0
M  V30 1415 H 121.517 2.79416 4.19455 0
M  V30 1416 H 121.119 2.81629 2.46092 0
M  V30 1417 H 123.411 4.20526 5.31191 0
M  V30 1418 H 124.354 5.48295 4.48082 0
M  V30 1419 H 124.762 3.76296 4.20787 0
M  V30 1420 N 124.16 -0.719506 1.40217 0
M  V30 1421 C 125.409 -1.47486 1.37589 0
M  V30 1422 C 125.722 -1.9559 -0.0201568 0
M  V30 1423 O 126.928 -2.70973 -0.169049 0
M  V30 1424 C 125.384 -2.66575 2.41796 0
M  V30 1425 C 124.992 -2.25358 3.87192 0
M  V30 1426 C 126.736 -3.4433 2.48269 0
M  V30 1427 C 124.643 -3.41262 4.83005 0
M  V30 1428 H 123.573 -0.553901 0.511576 0
M  V30 1429 H 126.224 -0.783427 1.65936 0
M  V30 1430 H 124.606 -3.3787 2.06543 0
M  V30 1431 H 125.78 -1.61509 4.31569 0
M  V30 1432 H 124.095 -1.60657 3.84159 0
M  V30 1433 H 126.692 -4.30569 3.17041 0
M  V30 1434 H 127.035 -3.87872 1.51198 0
M  V30 1435 H 127.568 -2.80076 2.82493 0
M  V30 1436 H 124.307 -3.02755 5.81394 0
M  V30 1437 H 123.827 -4.0404 4.43297 0
M  V30 1438 H 125.506 -4.07383 5.02641 0
M  V30 1439 N 125.638 -1.25649 -0.95132 0
M  V30 1440 C 126.885 -1.10594 -1.69633 0
M  V30 1441 C 127.213 0.352515 -1.91279 0
M  V30 1442 O 126.468 1.27601 -1.4838 0
M  V30 1443 C 126.767 -1.80909 -3.08231 0
M  V30 1444 C 126.433 -3.30825 -3.06375 0
M  V30 1445 C 125.095 -3.71722 -3.05576 0
M  V30 1446 C 127.447 -4.26589 -2.99452 0
M  V30 1447 C 124.775 -5.06788 -2.95606 0
M  V30 1448 C 127.127 -5.61683 -2.91024 0
M  V30 1449 C 125.791 -6.01904 -2.88562 0
M  V30 1450 H 125.061 -0.404691 -0.620731 0
M  V30 1451 H 127.708 -1.55964 -1.11119 0
M  V30 1452 H 126.013 -1.27979 -3.70309 0
M  V30 1453 H 127.71 -1.6671 -3.64704 0
M  V30 1454 H 124.3 -2.98287 -3.07771 0
M  V30 1455 H 128.484 -3.95982 -2.99185 0
M  V30 1456 H 123.74 -5.37126 -2.92071 0
M  V30 1457 H 127.914 -6.35578 -2.84629 0
M  V30 1458 H 125.541 -7.06521 -2.80593 0
M  V30 1459 N 127.117 1.15442 -1.07289 0
M  V30 1460 C 128.027 2.23786 -0.704057 0
M  V30 1461 C 129.043 1.7166 0.284413 0
M  V30 1462 O 130.219 2.00972 0.131205 0
M  V30 1463 C 127.284 3.46535 -0.106792 0
M  V30 1464 C 126.345 4.13654 -1.14842 0
M  V30 1465 C 125.578 5.30544 -0.57956 0
M  V30 1466 O 125.801 5.67187 0.604585 0
M  V30 1467 O 124.735 5.87154 -1.32414 0
M  V30 1468 H 128.561 2.57664 -1.60757 0
M  V30 1469 H 126.146 1.23152 -0.845803 0
M  V30 1470 H 128.028 4.20804 0.224048 0
M  V30 1471 H 126.703 3.14407 0.770049 0
M  V30 1472 H 125.61 3.4131 -1.5316 0
M  V30 1473 H 126.943 4.49861 -1.99714 0
M  V30 1474 N 128.595 0.856903 1.32268 0
M  V30 1475 C 129.542 0.301172 2.28827 0
M  V30 1476 C 130.512 -0.593104 1.5515 0
M  V30 1477 O 131.697 -0.527537 1.83362 0
M  V30 1478 C 128.837 -0.502523 3.41422 0
M  V30 1479 C 127.95 0.417797 4.29975 0
M  V30 1480 C 127.085 -0.398749 5.29701 0
M  V30 1481 C 126.124 0.518827 6.09897 0
M  V30 1482 N 125.261 -0.260674 7.01616 0
M  V30 1483 H 130.101 1.12983 2.75751 0
M  V30 1484 H 127.638 0.568582 1.35667 0
M  V30 1485 H 129.596 -0.984141 4.05426 0
M  V30 1486 H 128.226 -1.29599 2.95642 0
M  V30 1487 H 127.278 1.01781 3.66531 0
M  V30 1488 H 128.59 1.12191 4.86019 0
M  V30 1489 H 127.744 -0.943435 5.9932 0
M  V30 1490 H 126.483 -1.13622 4.7428 0
M  V30 1491 H 125.488 1.07538 5.39181 0
M  V30 1492 H 126.713 1.25495 6.67404 0
M  V30 1493 H 124.659 -0.981198 6.4862 0
M  V30 1494 H 124.576 0.384364 7.55022 0
M  V30 1495 H 125.844 -0.787014 7.75517 0
M  V30 1496 N 130.073 -1.45103 0.615059 0
M  V30 1497 C 131.489 -1.57137 0.279322 0
M  V30 1498 C 131.689 -1.60523 -1.21797 0
M  V30 1499 O 130.745 -1.53956 -2.00134 0
M  V30 1500 C 132.058 -2.85062 0.957083 0
M  V30 1501 C 133.606 -2.98749 0.933706 0
M  V30 1502 C 134.081 -4.29455 1.59162 0
M  V30 1503 N 135.572 -4.36231 1.55746 0
M  V30 1504 C 136.307 -5.36051 2.0356 0
M  V30 1505 N 135.803 -6.42367 2.59494 0
M  V30 1506 N 137.596 -5.27456 1.94284 0
M  V30 1507 H 129.747 -1.41148 1.58717 0
M  V30 1508 H 132.01 -0.675331 0.665306 0
M  V30 1509 H 131.716 -2.88488 2.01166 0
M  V30 1510 H 131.59 -3.7407 0.48494 0
M  V30 1511 H 133.977 -2.94886 -0.112347 0
M  V30 1512 H 134.058 -2.11132 1.44419 0
M  V30 1513 H 133.702 -4.34077 2.63704 0
M  V30 1514 H 133.632 -5.15901 1.0561 0
M  V30 1515 H 136.123 -3.60011 1.14893 0
M  V30 1516 H 136.436 -7.14793 2.93752 0
M  V30 1517 H 134.781 -6.43097 2.63537 0
M  V30 1518 H 137.972 -4.43308 1.5032 0
M  V30 1519 H 138.145 -6.05099 2.3186 0
M  V30 1520 N 131.551 -0.354651 -1.53558 0
M  V30 1521 C 132.776 0.242153 -2.05981 0
M  V30 1522 C 133.201 1.42553 -1.2272 0
M  V30 1523 O 132.559 1.79656 -0.243604 0
M  V30 1524 C 132.607 0.624367 -3.55154 0
M  V30 1525 O 131.711 1.72301 -3.74681 0
M  V30 1526 H 131.052 0.0378432 -0.662921 0
M  V30 1527 H 133.582 -0.512087 -1.98088 0
M  V30 1528 H 133.592 0.898433 -3.97985 0
M  V30 1529 H 132.267 -0.240989 -4.15201 0
M  V30 1530 H 130.844 1.44535 -3.4375 0
M  V30 1531 N 133.029 1.57378 -0.0835403 0
M  V30 1532 C 134.257 1.98263 0.59157 0
M  V30 1533 C 134.672 0.962302 1.62435 0
M  V30 1534 O 134.029 -0.049581 1.82433 0
M  V30 1535 C 134.08 3.39214 1.24965 0
M  V30 1536 O 133.801 4.37339 0.258186 0
M  V30 1537 C 135.302 3.95038 2.01147 0
M  V30 1538 H 132.522 0.651773 0.159477 0
M  V30 1539 H 135.066 2.03878 -0.159415 0
M  V30 1540 H 133.221 3.34649 1.95164 0
M  V30 1541 H 133.635 5.19371 0.731734 0
M  V30 1542 H 135.109 4.95848 2.42567 0
M  V30 1543 H 135.586 3.32222 2.87272 0
M  V30 1544 H 136.192 4.0304 1.35789 0
M  V30 1545 N 134.507 -0.190092 1.56449 0
M  V30 1546 C 135.923 -0.54113 1.50146 0
M  V30 1547 C 136.123 -1.85603 0.784465 0
M  V30 1548 O 135.179 -2.5024 0.337051 0
M  V30 1549 C 136.492 -0.591241 2.9483 0
M  V30 1550 C 138.04 -0.679732 3.0553 0
M  V30 1551 C 138.515 -0.760908 4.51635 0
M  V30 1552 N 140.006 -0.824302 4.55806 0
M  V30 1553 C 140.741 -0.907365 5.66175 0
M  V30 1554 N 140.237 -0.952422 6.86222 0
M  V30 1555 N 142.03 -0.94494 5.541 0
M  V30 1556 H 134.181 0.67235 2.01478 0
M  V30 1557 H 136.444 0.240127 0.917084 0
M  V30 1558 H 136.15 0.305905 3.50367 0
M  V30 1559 H 136.024 -1.44422 3.48457 0
M  V30 1560 H 138.411 -1.56731 2.50039 0
M  V30 1561 H 138.492 0.199549 2.5502 0
M  V30 1562 H 138.136 0.122336 5.07753 0
M  V30 1563 H 138.066 -1.65606 4.99882 0
M  V30 1564 H 140.557 -0.798526 3.69367 0
M  V30 1565 H 140.87 -1.01645 7.66086 0
M  V30 1566 H 139.215 -0.921014 6.8887 0
M  V30 1567 H 142.406 -0.906612 4.59236 0
M  V30 1568 H 142.579 -1.00622 6.4014 0
M  V30 1569 N 135.985 -1.50799 -0.457987 0
M  V30 1570 C 137.213 -1.66218 -1.23203 0
M  V30 1571 C 137.628 -0.350894 -1.85511 0
M  V30 1572 O 136.985 0.668546 -1.69814 0
M  V30 1573 C 137.036 -2.76291 -2.33121 0
M  V30 1574 O 136.757 -4.02338 -1.73366 0
M  V30 1575 C 138.258 -3.028 -3.2377 0
M  V30 1576 H 135.478 -0.558361 -0.372121 0
M  V30 1577 H 138.022 -1.97099 -0.545179 0
M  V30 1578 H 136.177 -2.48068 -2.97558 0
M  V30 1579 H 136.591 -4.63312 -2.4585 0
M  V30 1580 H 138.065 -3.8345 -3.97077 0
M  V30 1581 H 138.542 -2.14385 -3.83322 0
M  V30 1582 H 139.148 -3.32604 -2.65056 0
M  V30 1583 N 137.463 0.71206 -1.40597 0
M  V30 1584 C 138.879 1.02058 -1.22704 0
M  V30 1585 C 139.079 2.01228 -0.104729 0
M  V30 1586 O 138.135 2.4674 0.53624 0
M  V30 1587 C 139.448 1.56094 -2.57012 0
M  V30 1588 C 140.996 1.6806 -2.64054 0
M  V30 1589 C 141.471 2.25501 -3.9864 0
M  V30 1590 N 142.962 2.32882 -4.004 0
M  V30 1591 C 143.697 2.78317 -5.01325 0
M  V30 1592 N 143.193 3.23478 -6.12645 0
M  V30 1593 N 144.986 2.77733 -4.88693 0
M  V30 1594 H 137.137 0.0547896 -2.12329 0
M  V30 1595 H 139.4 0.0869027 -0.944008 0
M  V30 1596 H 139.106 0.906865 -3.39807 0
M  V30 1597 H 138.98 2.54564 -2.78347 0
M  V30 1598 H 141.367 2.32583 -1.81629 0
M  V30 1599 H 141.448 0.681802 -2.46546 0
M  V30 1600 H 141.092 1.61598 -4.81506 0
M  V30 1601 H 141.022 3.26102 -4.13479 0
M  V30 1602 H 143.513 2.00991 -3.20017 0
M  V30 1603 H 143.826 3.56725 -6.85542 0
M  V30 1604 H 142.171 3.21429 -6.16205 0
M  V30 1605 H 145.362 2.4179 -4.00818 0
M  V30 1606 H 145.535 3.12826 -5.67489 0
M  V30 1607 N 138.941 1.26152 0.944643 0
M  V30 1608 C 139.871 1.09902 2.06019 0
M  V30 1609 C 140.852 0.00519538 1.70099 0
M  V30 1610 O 142.037 0.176583 1.93396 0
M  V30 1611 C 139.167 0.727562 3.39594 0
M  V30 1612 C 138.121 1.77274 3.89561 0
M  V30 1613 C 137.447 1.25569 5.19747 0
M  V30 1614 C 138.747 3.17357 4.14827 0
M  V30 1615 H 140.441 2.03217 2.19871 0
M  V30 1616 H 137.987 0.978452 1.05652 0
M  V30 1617 H 139.94 0.600777 4.17095 0
M  V30 1618 H 138.664 -0.241287 3.25707 0
M  V30 1619 H 137.323 1.88814 3.14237 0
M  V30 1620 H 136.971 0.276783 5.02238 0
M  V30 1621 H 136.671 1.95433 5.54148 0
M  V30 1622 H 138.195 1.1415 5.99835 0
M  V30 1623 H 139.609 3.08914 4.82954 0
M  V30 1624 H 138.006 3.84781 4.60504 0
M  V30 1625 H 139.076 3.63673 3.20734 0
M  V30 1626 N 140.419 -1.14872 1.07899 0
M  V30 1627 C 141.644 -1.90202 0.826926 0
M  V30 1628 C 142.069 -1.77774 -0.614664 0
M  V30 1629 O 141.427 -1.11431 -1.43013 0
M  V30 1630 C 141.475 -3.38352 1.24702 0
M  V30 1631 O 140.579 -4.10497 0.39575 0
M  V30 1632 H 139.92 -0.591968 0.300782 0
M  V30 1633 H 142.45 -1.45437 1.43907 0
M  V30 1634 H 142.46 -3.89156 1.22563 0
M  V30 1635 H 141.135 -3.46715 2.29698 0
M  V30 1636 H 139.712 -3.69796 0.480117 0
M  V30 1637 N 141.898 -0.863906 -1.31812 0
M  V30 1638 C 143.126 -0.486111 -2.01108 0
M  V30 1639 C 143.541 0.919755 -1.64882 0
M  V30 1640 O 142.898 1.60162 -0.874893 0
M  V30 1641 C 142.949 -0.626435 -3.56031 0
M  V30 1642 O 142.67 -1.97693 -3.90959 0
M  V30 1643 C 144.171 -0.248857 -4.42601 0
M  V30 1644 H 141.391 -0.190052 -0.643523 0
M  V30 1645 H 143.935 -1.1634 -1.68182 0
M  V30 1646 H 142.09 0.00322717 -3.874 0
M  V30 1647 H 142.504 -1.98034 -4.85678 0
M  V30 1648 H 143.978 -0.398016 -5.50563 0
M  V30 1649 H 144.455 0.811489 -4.31638 0
M  V30 1650 H 145.061 -0.853971 -4.16638 0
M  V30 1651 N 143.376 1.44774 -0.622745 0
M  V30 1652 C 144.286 2.34433 0.0886031 0
M  V30 1653 C 145.302 1.52131 0.844529 0
M  V30 1654 O 146.478 1.84886 0.798691 0
M  V30 1655 C 143.543 3.29986 1.0635 0
M  V30 1656 C 142.604 4.28195 0.307873 0
M  V30 1657 C 141.837 5.19183 1.23633 0
M  V30 1658 O 142.06 5.13918 2.47476 0
M  V30 1659 O 140.994 5.97515 0.725189 0
M  V30 1660 H 144.82 2.96693 -0.648599 0
M  V30 1661 H 142.405 1.44408 -0.382957 0
M  V30 1662 H 144.287 3.88825 1.6246 0
M  V30 1663 H 142.962 2.70269 1.78146 0
M  V30 1664 H 141.869 3.72927 -0.296064 0
M  V30 1665 H 143.202 4.90808 -0.3699 0
M  V30 1666 N 144.854 0.36279 1.53368 0
M  V30 1667 C 146.082 -0.228613 2.05633 0
M  V30 1668 C 146.497 -1.42676 1.23649 0
M  V30 1669 O 145.854 -1.80394 0.27647 0
M  V30 1670 C 145.905 -0.624845 3.56059 0
M  V30 1671 O 145.626 0.525675 4.34935 0
M  V30 1672 C 147.127 -1.27493 4.24571 0
M  V30 1673 H 144.347 -0.0407183 0.669763 0
M  V30 1674 H 146.891 0.520352 1.97769 0
M  V30 1675 H 145.046 -1.32373 3.64083 0
M  V30 1676 H 145.46 0.205969 5.24095 0
M  V30 1677 H 146.934 -1.50277 5.31151 0
M  V30 1678 H 147.411 -2.23439 3.78116 0
M  V30 1679 H 148.017 -0.617558 4.20792 0
M  V30 1680 N 146.332 -1.57332 0.0918853 0
M  V30 1681 C 147.58 -1.93853 -0.571446 0
M  V30 1682 C 147.901 -0.974212 -1.6892 0
M  V30 1683 O 147.171 -0.0257254 -1.95883 0
M  V30 1684 H 145.751 -0.715666 -0.214082 0
M  V30 1685 H 148.413 -1.94287 0.154464 0
M  V30 1686 H 147.509 -2.96191 -0.983729 0
M  V30 1687 N 147.81 0.181792 -1.56548 0
M  V30 1688 C 149.057 0.900097 -1.81396 0
M  V30 1689 C 149.385 1.82695 -0.667281 0
M  V30 1690 O 148.64 1.92614 0.346146 0
M  V30 1691 C 148.939 1.73728 -3.12335 0
M  V30 1692 C 148.605 0.960255 -4.40556 0
M  V30 1693 C 147.267 0.745766 -4.75386 0
M  V30 1694 C 149.619 0.414477 -5.19549 0
M  V30 1695 C 146.947 -0.0257694 -5.86694 0
M  V30 1696 C 149.299 -0.343916 -6.31664 0
M  V30 1697 C 147.963 -0.569301 -6.65068 0
M  V30 1698 H 147.233 0.329369 -0.663775 0
M  V30 1699 H 149.88 0.165647 -1.90782 0
M  V30 1700 H 148.185 2.54081 -2.98245 0
M  V30 1701 H 149.882 2.29591 -3.28769 0
M  V30 1702 H 146.472 1.13746 -4.13231 0
M  V30 1703 H 150.656 0.567554 -4.93044 0
M  V30 1704 H 145.912 -0.210233 -6.11038 0
M  V30 1705 H 150.086 -0.774133 -6.92084 0
M  V30 1706 H 147.713 -1.16903 -7.51158 0
M  V30 1707 N 149.288 1.51039 0.449983 0
M  V30 1708 C 150.251 1.70863 1.5277 0
M  V30 1709 C 151.251 0.578846 1.5002 0
M  V30 1710 O 152.441 0.846213 1.52266 0
M  V30 1711 C 149.573 1.75341 2.9235 0
M  V30 1712 H 150.766 2.67034 1.36502 0
M  V30 1713 H 148.319 1.40838 0.677812 0
M  V30 1714 H 149.054 0.809383 3.14037 0
M  V30 1715 H 148.839 2.57436 2.95752 0
M  V30 1716 H 150.329 1.92559 3.70555 0
M  V30 1717 N 150.766 -0.704594 1.40972 0
M  V30 1718 C 151.696 -1.83124 1.44872 0
M  V30 1719 C 152.677 -1.67281 0.30838 0
M  V30 1720 O 153.862 -1.87149 0.518556 0
M  V30 1721 C 150.992 -3.21181 1.32136 0
M  V30 1722 C 149.946 -3.51714 2.43888 0
M  V30 1723 C 149.272 -4.89032 2.16222 0
M  V30 1724 C 150.572 -3.516 3.86232 0
M  V30 1725 H 152.266 -1.80117 2.39161 0
M  V30 1726 H 149.812 -0.865145 1.15114 0
M  V30 1727 H 151.765 -3.99702 1.33479 0
M  V30 1728 H 150.489 -3.24791 0.343279 0
M  V30 1729 H 149.148 -2.75539 2.41813 0
M  V30 1730 H 148.796 -4.89256 1.16778 0
M  V30 1731 H 148.496 -5.10426 2.911 0
M  V30 1732 H 150.02 -5.69873 2.19265 0
M  V30 1733 H 151.434 -4.2014 3.9007 0
M  V30 1734 H 149.831 -3.84523 4.60719 0
M  V30 1735 H 150.901 -2.50757 4.15029 0
M  V30 1736 N 152.244 -1.26651 -0.937939 0
M  V30 1737 C 153.174 -1.10993 -2.05433 0
M  V30 1738 C 154.155 -0.0142161 -1.70094 0
M  V30 1739 O 155.34 -0.186837 -1.93299 0
M  V30 1740 C 152.47 -0.745561 -3.39203 0
M  V30 1741 C 151.424 -1.79337 -3.88616 0
M  V30 1742 C 150.75 -1.28324 -5.19073 0
M  V30 1743 C 152.05 -3.19553 -4.13138 0
M  V30 1744 H 153.744 -2.0438 -2.1879 0
M  V30 1745 H 151.29 -0.984041 -1.05131 0
M  V30 1746 H 153.243 -0.622888 -4.16771 0
M  V30 1747 H 151.967 0.22401 -3.25831 0
M  V30 1748 H 150.626 -1.90477 -3.13231 0
M  V30 1749 H 150.274 -0.303414 -5.02084 0
M  V30 1750 H 149.974 -1.98369 -5.53103 0
M  V30 1751 H 151.498 -1.1733 -5.99221 0
M  V30 1752 H 152.912 -3.11471 -4.81309 0
M  V30 1753 H 151.309 -3.87218 -4.58457 0
M  V30 1754 H 152.379 -3.65368 -3.18801 0
M  V30 1755 N 153.722 1.14298 -1.08507 0
M  V30 1756 C 154.97 1.84993 -0.813763 0
M  V30 1757 C 155.291 1.83405 0.662393 0
M  V30 1758 O 154.561 1.28319 1.48024 0
M  V30 1759 H 153.141 0.684966 -0.298045 0
M  V30 1760 H 155.803 1.385 -1.37126 0
M  V30 1761 H 154.899 2.89788 -1.15884 0
M  V30 1762 N 155.201 0.870884 1.31352 0
M  V30 1763 C 156.449 0.48132 1.96285 0
M  V30 1764 C 156.77 -0.969813 1.69173 0
M  V30 1765 O 156.04 -1.67998 1.00764 0
M  V30 1766 H 154.62 0.175002 0.726212 0
M  V30 1767 H 157.282 1.11087 1.60143 0
M  V30 1768 H 156.378 0.639825 3.05471 0
M  V30 1769 N 156.679 -1.44442 0.630414 0
M  V30 1770 C 157.629 -2.27794 -0.0968103 0
M  V30 1771 C 158.613 -1.38624 -0.816834 0
M  V30 1772 O 159.805 -1.62438 -0.70306 0
M  V30 1773 C 156.934 -3.25929 -1.07819 0
M  V30 1774 C 156.02 -4.22588 -0.357826 0
M  V30 1775 N 156.411 -5.0207 0.613169 0
M  V30 1776 C 154.709 -4.41914 -0.602365 0
M  V30 1777 C 155.41 -5.72351 1.03871 0
M  V30 1778 N 154.386 -5.42287 0.377642 0
M  V30 1779 H 158.188 -2.86653 0.648621 0
M  V30 1780 H 155.702 -1.55871 0.455862 0
M  V30 1781 H 157.699 -3.84399 -1.61378 0
M  V30 1782 H 156.359 -2.68631 -1.82393 0
M  V30 1783 H 157.37 -5.08331 0.990947 0
M  V30 1784 H 154.047 -3.95714 -1.33103 0
M  V30 1785 H 155.437 -6.4619 1.84086 0
M  V30 1786 N 158.157 -0.370918 -1.53173 0
M  V30 1787 C 159.568 0.107139 -1.86392 0
M  V30 1788 C 159.919 1.47714 -1.29132 0
M  V30 1789 O 159.044 2.07464 -0.615439 0
M  V30 1790 C 159.639 0.201187 -3.38202 0
M  V30 1791 C 158.198 0.623507 -3.712 0
M  V30 1792 C 157.345 -0.225978 -2.76378 0
M  V30 1793 H 160.296 -0.58951 -1.47345 0
M  V30 1794 H 160.317 1.02377 -3.66468 0
M  V30 1795 H 159.829 -0.796058 -3.79848 0
M  V30 1796 H 157.93 1.62879 -3.35114 0
M  V30 1797 H 158.043 0.394414 -4.77474 0
M  V30 1798 H 156.407 0.305962 -2.52856 0
M  V30 1799 H 157.19 -1.22086 -3.20858 0
M  V30 1800 N 159.635 1.57281 -0.100228 0
M  V30 1801 C 160.875 1.96419 0.56558 0
M  V30 1802 C 161.239 0.981265 1.65031 0
M  V30 1803 O 162.44 1.26133 2.37369 0
M  V30 1804 C 160.711 3.39996 1.10171 0
M  V30 1805 S 162.27 4.01134 1.77867 0
M  V30 1806 H 159.088 0.68667 0.184406 0
M  V30 1807 H 161.69 1.94662 -0.180851 0
M  V30 1808 H 160.394 4.09296 0.300803 0
M  V30 1809 H 159.925 3.45361 1.88385 0
M  V30 1810 H 161.94 3.90358 3.06326 0
M  V30 1811 N 161.113 -0.173488 1.56642 0
M  V30 1812 C 162.36 -0.890465 1.81871 0
M  V30 1813 C 162.688 -1.82339 0.67696 0
M  V30 1814 O 161.943 -1.92795 -0.335926 0
M  V30 1815 C 162.242 -1.72069 3.13252 0
M  V30 1816 C 161.908 -0.936878 4.41059 0
M  V30 1817 C 160.57 -0.720545 4.75775 0
M  V30 1818 C 162.922 -0.386919 5.19762 0
M  V30 1819 C 160.25 0.0568829 5.86672 0
M  V30 1820 C 162.602 0.37741 6.31473 0
M  V30 1821 C 161.266 0.604563 6.64757 0
M  V30 1822 H 160.536 -0.325844 0.665512 0
M  V30 1823 H 163.183 -0.155527 1.90867 0
M  V30 1824 H 161.488 -2.52496 2.99588 0
M  V30 1825 H 163.185 -2.27844 3.29982 0
M  V30 1826 H 159.775 -1.11553 4.13828 0
M  V30 1827 H 163.959 -0.541398 4.93338 0
M  V30 1828 H 159.215 0.242635 6.10918 0
M  V30 1829 H 163.389 0.810825 6.91664 0
M  V30 1830 H 161.016 1.20885 7.50527 0
M  V30 1831 N 162.591 -1.51276 -0.441967 0
M  V30 1832 C 163.521 -1.752 -1.54361 0
M  V30 1833 C 164.502 -0.601682 -1.59103 0
M  V30 1834 O 165.687 -0.843913 -1.74905 0
M  V30 1835 C 162.817 -1.87282 -2.92477 0
M  V30 1836 C 161.771 -3.02687 -3.02596 0
M  V30 1837 C 161.097 -2.99947 -4.42647 0
M  V30 1838 C 162.397 -4.4273 -2.77106 0
M  V30 1839 H 164.091 -2.67442 -1.34592 0
M  V30 1840 H 161.637 -1.28694 -0.646048 0
M  V30 1841 H 163.59 -2.02602 -3.695 0
M  V30 1842 H 162.314 -0.916844 -3.13467 0
M  V30 1843 H 160.973 -2.87065 -2.28012 0
M  V30 1844 H 160.621 -2.02136 -4.60597 0
M  V30 1845 H 160.321 -3.77439 -4.50348 0
M  V30 1846 H 161.845 -3.17354 -5.2165 0
M  V30 1847 H 163.259 -4.58727 -3.43864 0
M  V30 1848 H 161.656 -5.21893 -2.96222 0
M  V30 1849 H 162.726 -4.53087 -1.72744 0
M  V30 1850 N 164.069 0.697108 -1.41344 0
M  V30 1851 C 165.297 1.48593 -1.43972 0
M  V30 1852 C 165.712 1.88747 -0.0445612 0
M  V30 1853 O 165.069 1.56682 0.935785 0
M  V30 1854 C 165.12 2.74946 -2.34706 0
M  V30 1855 O 164.841 2.36484 -3.68791 0
M  V30 1856 C 166.342 3.687 -2.46121 0
M  V30 1857 H 163.562 0.457964 -0.490418 0
M  V30 1858 H 166.106 0.858429 -1.8561 0
M  V30 1859 H 164.261 3.33937 -1.9638 0
M  V30 1860 H 164.675 3.17918 -4.17167 0
M  V30 1861 H 166.149 4.54145 -3.13777 0
M  V30 1862 H 166.626 4.13081 -1.49199 0
M  V30 1863 H 167.232 3.15613 -2.85076 0
M  V30 1864 N 165.547 1.27147 0.931209 0
M  V30 1865 C 166.775 1.16082 1.71267 0
M  V30 1866 C 167.19 -0.282772 1.8667 0
M  V30 1867 O 166.547 -1.19283 1.38122 0
M  V30 1868 C 166.598 1.8358 3.11417 0
M  V30 1869 O 166.319 3.22299 2.96741 0
M  V30 1870 C 167.82 1.78597 4.05732 0
M  V30 1871 H 165.04 0.403758 0.535929 0
M  V30 1872 H 167.584 1.67953 1.16671 0
M  V30 1873 H 165.739 1.35623 3.62885 0
M  V30 1874 H 166.153 3.55851 3.85319 0
M  V30 1875 H 167.627 2.30444 5.01597 0
M  V30 1876 H 168.104 0.754564 4.3267 0
M  V30 1877 H 168.71 2.26152 3.60188 0
M  V30 1878 N 167.025 -1.13721 1.09112 0
M  V30 1879 C 167.957 -2.1871 0.685467 0
M  V30 1880 C 168.97 -1.60527 -0.271068 0
M  V30 1881 O 170.159 -1.78407 -0.0576148 0
M  V30 1882 C 167.259 -3.38898 -0.0111255 0
M  V30 1883 C 166.432 -4.26597 0.966131 0
M  V30 1884 C 165.491 -5.25324 0.303539 0
M  V30 1885 O 164.517 -5.61213 0.950177 0
M  V30 1886 N 165.719 -5.72779 -0.943651 0
M  V30 1887 H 168.484 -2.54126 1.58871 0
M  V30 1888 H 166.045 -1.29012 0.978143 0
M  V30 1889 H 168.037 -4.02014 -0.465517 0
M  V30 1890 H 166.607 -3.01747 -0.816565 0
M  V30 1891 H 165.827 -3.60306 1.59917 0
M  V30 1892 H 167.115 -4.82048 1.6281 0
M  V30 1893 H 166.513 -5.45762 -1.48862 0
M  V30 1894 H 165.07 -6.37847 -1.34142 0
M  V30 1895 N 168.503 -0.877838 -1.30888 0
M  V30 1896 C 169.78 -0.413052 -1.91189 0
M  V30 1897 C 170.16 1.1056 -1.79832 0
M  V30 1898 O 169.508 1.93771 -1.21099 0
M  V30 1899 C 169.718 -0.903191 -3.3711 0
M  V30 1900 C 171.066 -0.93395 -4.14201 0
M  V30 1901 O 172.09 -0.849373 -3.45925 0
M  V30 1902 O 170.949 -1.05772 -5.36167 0
M  V30 1903 H 168.043 -0.125035 -0.817493 0
M  V30 1904 H 170.589 -0.966269 -1.39504 0
M  V30 1905 H 169.361 -1.94692 -3.39427 0
M  V30 1906 H 168.984 -0.328732 -3.96239 0
M  V30 1907 N 169.982 1.44106 -0.638065 0
M  V30 1908 C 171.231 2.01194 -0.142744 0
M  V30 1909 C 171.544 1.50835 1.24532 0
M  V30 1910 O 172.75 2.00096 1.83504 0
M  V30 1911 C 171.206 3.59319 -0.20442 0
M  V30 1912 C 170.814 4.18674 -1.59423 0
M  V30 1913 C 172.558 4.23854 0.234079 0
M  V30 1914 C 170.465 5.69045 -1.61065 0
M  V30 1915 H 169.395 0.752367 -0.0495998 0
M  V30 1916 H 172.046 1.65246 -0.797881 0
M  V30 1917 H 170.428 3.92598 0.517946 0
M  V30 1918 H 171.602 3.96921 -2.34074 0
M  V30 1919 H 169.917 3.66453 -1.97741 0
M  V30 1920 H 172.514 5.34155 0.241443 0
M  V30 1921 H 172.857 3.96688 1.2627 0
M  V30 1922 H 173.39 3.95403 -0.436025 0
M  V30 1923 H 170.129 6.00956 -2.61787 0
M  V30 1924 H 169.649 5.929 -0.90718 0
M  V30 1925 H 171.328 6.32809 -1.34766 0
M  V30 1926 N 171.46 0.379036 1.52974 0
M  V30 1927 C 172.41 -0.477772 2.22938 0
M  V30 1928 C 173.394 -1.03792 1.22948 0
M  V30 1929 O 174.586 -0.965725 1.48333 0
M  V30 1930 C 171.715 -1.60994 3.03209 0
M  V30 1931 C 170.801 -1.06203 4.10587 0
M  V30 1932 N 171.192 -0.238214 5.05239 0
M  V30 1933 C 169.49 -1.33554 4.25534 0
M  V30 1934 C 170.191 0.0633235 5.81666 0
M  V30 1935 N 169.167 -0.537901 5.40932 0
M  V30 1936 H 172.969 0.158295 2.93473 0
M  V30 1937 H 170.483 0.187778 1.61311 0
M  V30 1938 H 172.48 -2.23607 3.5186 0
M  V30 1939 H 171.14 -2.24893 2.34207 0
M  V30 1940 H 172.151 0.123695 5.17752 0
M  V30 1941 H 168.828 -1.97632 3.6776 0
M  V30 1942 H 170.218 0.730161 6.67921 0
M  V30 1943 N 172.938 -1.57226 0.108567 0
M  V30 1944 C 173.868 -2.17778 -0.84232 0
M  V30 1945 C 174.849 -1.11487 -1.2847 0
M  V30 1946 O 176.034 -1.39681 -1.34918 0
M  V30 1947 C 173.164 -2.76888 -2.09644 0
M  V30 1948 C 172.118 -3.88669 -1.79221 0
M  V30 1949 C 171.444 -4.34541 -3.11574 0
M  V30 1950 C 172.744 -5.11251 -1.06864 0
M  V30 1951 H 174.438 -2.97489 -0.337774 0
M  V30 1952 H 171.984 -1.43097 -0.161025 0
M  V30 1953 H 173.937 -3.17904 -2.76614 0
M  V30 1954 H 172.661 -1.94451 -2.62405 0
M  V30 1955 H 171.32 -3.48213 -1.14644 0
M  V30 1956 H 170.968 -3.48977 -3.62249 0
M  V30 1957 H 170.668 -5.09914 -2.91996 0
M  V30 1958 H 172.192 -4.782 -3.7968 0
M  V30 1959 H 173.606 -5.49352 -1.63968 0
M  V30 1960 H 172.003 -5.9214 -0.974178 0
M  V30 1961 H 173.073 -4.8487 -0.0536168 0
M  V30 1962 N 174.416 0.165178 -1.56732 0
M  V30 1963 C 175.664 0.879068 -1.8198 0
M  V30 1964 C 175.985 1.82514 -0.686561 0
M  V30 1965 O 175.255 1.93694 0.293146 0
M  V30 1966 H 173.835 0.327608 -0.671329 0
M  V30 1967 H 176.497 0.163526 -1.94213 0
M  V30 1968 H 175.593 1.45228 -2.76252 0
M  V30 1969 N 175.894 1.51508 0.433938 0
M  V30 1970 C 177.14 1.64588 1.18484 0
M  V30 1971 C 177.473 0.362666 1.90784 0
M  V30 1972 O 176.748 -0.637892 1.83742 0
M  V30 1973 C 177.031 2.85149 2.19913 0
M  V30 1974 C 176.884 4.23456 1.51674 0
M  V30 1975 C 178.203 3.01227 3.20858 0
M  V30 1976 H 175.322 0.598994 0.429389 0
M  V30 1977 H 177.964 1.84002 0.473647 0
M  V30 1978 H 176.114 2.68729 2.80566 0
M  V30 1979 H 177.786 4.51552 0.943322 0
M  V30 1980 H 176.029 4.25998 0.819035 0
M  V30 1981 H 176.7 5.03812 2.2556 0
M  V30 1982 H 179.176 3.16382 2.70263 0
M  V30 1983 H 178.052 3.87141 3.89118 0
M  V30 1984 H 178.313 2.13447 3.8716 0
M  V30 1985 N 177.372 -0.689602 1.41712 0
M  V30 1986 C 178.32 -1.82475 1.44242 0
M  V30 1987 C 179.314 -1.66354 0.319774 0
M  V30 1988 O 180.52 -1.73143 0.492089 0
M  V30 1989 H 176.895 -0.601416 0.451445 0
M  V30 1990 H 178.866 -1.77458 2.39899 0
M  V30 1991 C 177.615 -3.20535 1.3473 0
M  V30 1992 H 176.938 -3.33559 2.20405 0
M  V30 1993 H 178.378 -4.00023 1.40562 0
M  V30 1994 C 176.837 -3.36846 0.0603281 0
M  V30 1995 O 177.367 -3.91656 -0.892663 0
M  V30 1996 N 175.573 -2.90595 -0.0177039 0
M  V30 1997 H 175.12 -2.46178 0.758572 0
M  V30 1998 H 175.078 -3.01886 -0.878201 0
M  V30 1999 N 178.85 -1.27639 -0.924453 0
M  V30 2000 C 179.76 -1.12466 -2.05885 0
M  V30 2001 C 180.776 -0.053869 -1.73917 0
M  V30 2002 O 181.952 -0.261012 -1.99702 0
M  V30 2003 C 179.017 -0.776768 -3.37886 0
M  V30 2004 C 178.078 -1.92878 -3.83532 0
M  V30 2005 C 177.311 -1.59739 -5.09234 0
M  V30 2006 O 177.534 -0.506782 -5.68144 0
M  V30 2007 O 176.468 -2.43761 -5.50331 0
M  V30 2008 H 180.294 -2.07671 -2.21599 0
M  V30 2009 H 177.879 -1.06857 -1.04413 0
M  V30 2010 H 179.761 -0.596229 -4.17161 0
M  V30 2011 H 178.436 0.145732 -3.23372 0
M  V30 2012 H 177.343 -2.1644 -3.0513 0
M  V30 2013 H 178.676 -2.8316 -4.02593 0
M  V30 2014 N 180.328 1.1314 -1.09713 0
M  V30 2015 C 181.553 1.88862 -0.857081 0
M  V30 2016 C 181.978 1.78729 0.586304 0
M  V30 2017 O 181.336 1.13692 1.41222 0
M  V30 2018 C 181.384 3.36325 -1.30069 0
M  V30 2019 O 180.488 4.09815 -0.461007 0
M  V30 2020 H 179.829 0.587108 -0.310162 0
M  V30 2021 H 182.359 1.43129 -1.46203 0
M  V30 2022 H 182.369 3.87157 -1.28738 0
M  V30 2023 H 181.044 3.43017 -2.35185 0
M  V30 2024 H 179.621 3.68986 -0.538888 0
M  V30 2025 N 181.806 0.884767 1.30421 0
M  V30 2026 C 182.736 0.367574 2.30589 0
M  V30 2027 C 183.717 -0.549464 1.60981 0
M  V30 2028 O 184.902 -0.46336 1.88591 0
M  V30 2029 C 182.032 -0.418944 3.44764 0
M  V30 2030 C 180.986 0.406316 4.26067 0
M  V30 2031 C 180.312 -0.506793 5.32293 0
M  V30 2032 C 181.612 1.64832 4.95608 0
M  V30 2033 H 183.306 1.20462 2.74097 0
M  V30 2034 H 180.852 0.580695 1.31772 0
M  V30 2035 H 182.805 -0.791395 4.13902 0
M  V30 2036 H 181.529 -1.28964 3.0006 0
M  V30 2037 H 180.188 0.760903 3.58617 0
M  V30 2038 H 179.836 -1.37519 4.83836 0
M  V30 2039 H 179.536 0.0415828 5.87585 0
M  V30 2040 H 181.06 -0.875764 6.04287 0
M  V30 2041 H 182.474 1.34646 5.57264 0
M  V30 2042 H 180.871 2.13688 5.60765 0
M  V30 2043 H 181.941 2.39284 4.21748 0
M  V30 2044 N 183.284 -1.43765 0.645699 0
M  V30 2045 C 184.512 -2.06253 0.163556 0
M  V30 2046 C 184.927 -1.48352 -1.16778 0
M  V30 2047 O 184.284 -0.611932 -1.71935 0
M  V30 2048 C 184.335 -3.61453 0.0583186 0
M  V30 2049 O 184.056 -4.172 1.33702 0
M  V30 2050 C 185.557 -4.41002 -0.450795 0
M  V30 2051 H 182.777 -0.665413 0.0864077 0
M  V30 2052 H 185.321 -1.84396 0.884222 0
M  V30 2053 H 183.476 -3.82522 -0.612865 0
M  V30 2054 H 183.89 -5.10791 1.19131 0
M  V30 2055 H 185.364 -5.49966 -0.473403 0
M  V30 2056 H 185.841 -4.13488 -1.48068 0
M  V30 2057 H 186.447 -4.24886 0.187637 0
M  V30 2058 N 184.763 -0.387143 -1.52771 0
M  V30 2059 C 186.04 0.253197 -1.93954 0
M  V30 2060 C 186.42 1.64545 -1.32243 0
M  V30 2061 O 185.768 2.23191 -0.489699 0
M  V30 2062 C 185.978 0.281722 -3.47861 0
M  V30 2063 C 187.326 0.511715 -4.21505 0
M  V30 2064 O 188.35 0.362023 -3.54356 0
M  V30 2065 O 187.209 0.804847 -5.40541 0
M  V30 2066 H 184.303 0.156845 -0.811991 0
M  V30 2067 H 186.849 -0.441494 -1.63856 0
M  V30 2068 H 185.621 -0.693571 -3.85104 0
M  V30 2069 H 185.244 1.02142 -3.84256 0
M  V30 2070 N 186.241 1.57166 -0.116904 0
M  V30 2071 C 187.469 1.99473 0.549383 0
M  V30 2072 C 187.884 0.996541 1.60357 0
M  V30 2073 O 187.241 -0.0108731 1.82497 0
M  V30 2074 C 187.292 3.41788 1.17741 0
M  V30 2075 O 187.013 4.37788 0.165362 0
M  V30 2076 C 188.514 3.99216 1.92722 0
M  V30 2077 H 185.734 0.655009 0.145616 0
M  V30 2078 H 188.278 2.03494 -0.202625 0
M  V30 2079 H 186.433 3.38713 1.88021 0
M  V30 2080 H 186.847 5.20806 0.621403 0
M  V30 2081 H 188.321 5.00882 2.31995 0
M  V30 2082 H 188.798 3.3824 2.80161 0
M  V30 2083 H 189.404 4.0583 1.27209 0
M  V30 2084 N 187.719 -0.156864 1.56817 0
M  V30 2085 C 188.682 -1.17781 1.96622 0
M  V30 2086 C 189.682 -1.36401 0.851555 0
M  V30 2087 O 190.872 -1.33561 1.11836 0
M  V30 2088 C 188.004 -2.54008 2.27361 0
M  V30 2089 H 189.197 -0.836564 2.87996 0
M  V30 2090 H 186.75 -0.39985 1.51099 0
M  V30 2091 H 187.485 -2.9312 1.38748 0
M  V30 2092 H 187.27 -2.41856 3.08623 0
M  V30 2093 H 188.76 -3.27558 2.59029 0
M  V30 2094 N 189.197 -1.51736 -0.425897 0
M  V30 2095 C 190.613 -1.40166 -0.76326 0
M  V30 2096 C 190.813 -0.492962 -1.95377 0
M  V30 2097 O 189.869 0.0475815 -2.52455 0
M  V30 2098 C 191.182 -2.82403 -1.03291 0
M  V30 2099 C 192.73 -2.91632 -1.13665 0
M  V30 2100 C 193.205 -4.34801 -1.43916 0
M  V30 2101 N 194.696 -4.3796 -1.50816 0
M  V30 2102 C 195.431 -5.4578 -1.75817 0
M  V30 2103 N 194.927 -6.63744 -1.98534 0
M  V30 2104 N 196.72 -5.33274 -1.77694 0
M  V30 2105 H 188.871 -2.09361 0.358 0
M  V30 2106 H 191.134 -0.942941 0.0978094 0
M  V30 2107 H 190.84 -3.50943 -0.230696 0
M  V30 2108 H 190.714 -3.22428 -1.95754 0
M  V30 2109 H 193.101 -2.23284 -1.92947 0
M  V30 2110 H 193.182 -2.55088 -0.190756 0
M  V30 2111 H 192.826 -5.03703 -0.65157 0
M  V30 2112 H 192.756 -4.68868 -2.39729 0
M  V30 2113 H 195.247 -3.52919 -1.35118 0
M  V30 2114 H 195.56 -7.41704 -2.17013 0
M  V30 2115 H 193.905 -6.66839 -1.95832 0
M  V30 2116 H 197.096 -4.40098 -1.59473 0
M  V30 2117 H 197.269 -6.1738 -1.9684 0
M  V30 2118 N 190.675 0.682077 -1.42076 0
M  V30 2119 C 191.921 1.44428 -1.42367 0
M  V30 2120 C 192.254 1.94164 -0.0373056 0
M  V30 2121 O 191.529 1.70429 0.937239 0
M  V30 2122 C 191.812 2.64654 -2.44194 0
M  V30 2123 C 191.665 2.20596 -3.91991 0
M  V30 2124 C 192.984 3.66865 -2.431 0
M  V30 2125 H 190.103 0.523834 -0.518428 0
M  V30 2126 H 192.745 0.77576 -1.73442 0
M  V30 2127 H 190.895 3.2169 -2.17826 0
M  V30 2128 H 192.567 1.68783 -4.29313 0
M  V30 2129 H 190.81 1.52242 -4.06208 0
M  V30 2130 H 191.481 3.06921 -4.58807 0
M  V30 2131 H 193.957 3.19531 -2.66532 0
M  V30 2132 H 192.833 4.48577 -3.16339 0
M  V30 2133 H 193.094 4.17493 -1.45437 0
M  V30 2134 N 192.153 1.28127 0.917671 0
M  V30 2135 C 193.083 1.14248 2.03641 0
M  V30 2136 C 194.064 0.0412748 1.7005 0
M  V30 2137 O 195.249 0.217566 1.92977 0
M  V30 2138 C 192.379 0.799431 3.37974 0
M  V30 2139 C 191.333 1.85497 3.85713 0
M  V30 2140 C 190.659 1.36565 5.16966 0
M  V30 2141 C 191.959 3.26085 4.08002 0
M  V30 2142 H 193.653 2.07835 2.15511 0
M  V30 2143 H 191.199 1.00064 1.03553 0
M  V30 2144 H 193.152 0.689114 4.15727 0
M  V30 2145 H 191.876 -0.172145 3.26146 0
M  V30 2146 H 190.535 1.95437 3.10161 0
M  V30 2147 H 190.183 0.383253 5.01538 0
M  V30 2148 H 189.883 2.07143 5.49878 0
M  V30 2149 H 191.407 1.26848 5.97279 0
M  V30 2150 H 192.821 3.19089 4.76293 0
M  V30 2151 H 191.218 3.94462 4.52238 0
M  V30 2152 H 192.288 3.70394 3.12948 0
M  V30 2153 N 193.631 -1.12557 1.10312 0
M  V30 2154 C 194.856 -1.88405 0.867085 0
M  V30 2155 C 195.281 -1.79038 -0.576817 0
M  V30 2156 O 194.639 -1.14439 -1.40618 0
M  V30 2157 C 194.687 -3.3563 1.31851 0
M  V30 2158 O 193.791 -4.09565 0.482734 0
M  V30 2159 H 193.132 -0.585455 0.313271 0
M  V30 2160 H 195.662 -1.42352 1.4696 0
M  V30 2161 H 195.672 -3.86469 1.3079 0
M  V30 2162 H 194.347 -3.41765 2.37001 0
M  V30 2163 H 192.924 -3.68695 0.558448 0
M  V30 2164 N 195.109 -0.891671 -1.2995 0
M  V30 2165 C 196.334 -0.527932 -2.00568 0
M  V30 2166 C 196.759 0.877969 -1.66353 0
M  V30 2167 O 196.117 1.58301 -0.883762 0
M  V30 2168 C 196.165 -0.717745 -3.53385 0
M  V30 2169 O 195.269 0.233376 -4.11739 0
M  V30 2170 H 194.61 -0.20722 -0.630837 0
M  V30 2171 H 197.14 -1.20105 -1.65638 0
M  V30 2172 H 197.15 -0.619307 -4.03272 0
M  V30 2173 H 195.825 -1.74276 -3.77625 0
M  V30 2174 H 194.402 0.0880706 -3.72796 0
M  V30 2175 N 196.587 1.43421 -0.653314 0
M  V30 2176 C 197.52 2.2803 0.0879804 0
M  V30 2177 C 198.498 1.39833 0.82979 0
M  V30 2178 O 199.682 1.69275 0.829341 0
M  V30 2179 C 196.809 3.19247 1.13132 0
M  V30 2180 C 195.855 4.23704 0.487546 0
M  V30 2181 S 196.688 5.30377 -0.738961 0
M  V30 2182 C 197.844 6.25162 0.30384 0
M  V30 2183 H 198.077 2.90554 -0.629739 0
M  V30 2184 H 195.61 1.47934 -0.442156 0
M  V30 2185 H 197.568 3.72346 1.72827 0
M  V30 2186 H 196.229 2.55901 1.82136 0
M  V30 2187 H 195.422 4.87631 1.27407 0
M  V30 2188 H 195.024 3.73983 -0.0352915 0
M  V30 2189 H 197.316 6.67321 1.17 0
M  V30 2190 H 198.259 7.07463 -0.300402 0
M  V30 2191 H 198.667 5.60864 0.63969 0
M  V30 2192 N 198.065 0.39524 1.52563 0
M  V30 2193 C 199.028 -0.425001 2.25225 0
M  V30 2194 C 200.028 -0.985266 1.27079 0
M  V30 2195 O 201.218 -0.866332 1.5113 0
M  V30 2196 C 198.35 -1.59686 3.01186 0
M  V30 2197 H 199.543 0.211233 2.99155 0
M  V30 2198 H 197.096 0.147472 1.55603 0
M  V30 2199 H 197.831 -2.27035 2.31572 0
M  V30 2200 H 197.616 -1.20176 3.73229 0
M  V30 2201 H 199.106 -2.17743 3.5634 0
M  V30 2202 N 199.544 -1.57102 0.125237 0
M  V30 2203 C 200.821 -1.86953 -0.575142 0
M  V30 2204 C 201.201 -1.02749 -1.84407 0
M  V30 2205 O 200.549 -0.108144 -2.28244 0
M  V30 2206 C 200.759 -3.38198 -0.861583 0
M  V30 2207 C 202.107 -4.06937 -1.21192 0
M  V30 2208 O 203.131 -3.43252 -0.951645 0
M  V30 2209 O 201.99 -5.19364 -1.70068 0
M  V30 2210 H 199.084 -0.774147 -0.290906 0
M  V30 2211 H 201.63 -1.68942 0.160211 0
M  V30 2212 H 200.402 -3.91282 0.0373647 0
M  V30 2213 H 200.025 -3.61661 -1.65188 0
M  V30 2214 N 201.022 0.148545 -1.56898 0
M  V30 2215 C 201.985 1.16736 -1.97244 0
M  V30 2216 C 202.985 1.35947 -0.858777 0
M  V30 2217 O 204.175 1.32966 -1.12542 0
M  V30 2218 C 201.307 2.52798 -2.28705 0
M  V30 2219 H 202.5 0.821279 -2.88435 0
M  V30 2220 H 200.053 0.391831 -1.51309 0
M  V30 2221 H 200.788 2.92381 -1.403 0
M  V30 2222 H 200.573 2.40216 -3.09901 0
M  V30 2223 H 202.063 3.26179 -2.60762 0
M  V30 2224 N 202.5 1.5196 0.417844 0
M  V30 2225 C 203.746 1.65836 1.16732 0
M  V30 2226 C 204.079 0.382881 1.90388 0
M  V30 2227 O 203.354 -0.618368 1.84408 0
M  V30 2228 C 203.637 2.87466 2.16876 0
M  V30 2229 C 203.49 4.25041 1.47174 0
M  V30 2230 C 204.809 3.04613 3.17646 0
M  V30 2231 H 201.928 0.603515 0.423011 0
M  V30 2232 H 204.57 1.84494 0.454105 0
M  V30 2233 H 202.72 2.71689 2.777 0
M  V30 2234 H 204.392 4.52527 0.895376 0
M  V30 2235 H 202.635 4.26843 0.773806 0
M  V30 2236 H 203.306 5.06176 2.20204 0
M  V30 2237 H 205.782 3.1923 2.66892 0
M  V30 2238 H 204.658 3.91247 3.8499 0
M  V30 2239 H 204.919 2.17541 3.84874 0
M  V30 2240 N 203.978 -0.674533 1.42435 0
M  V30 2241 C 204.908 -1.80009 1.48724 0
M  V30 2242 C 205.889 -1.6659 0.343793 0
M  V30 2243 O 207.074 -1.86007 0.558137 0
M  V30 2244 C 204.204 -3.18306 1.38919 0
M  V30 2245 C 203.158 -3.46461 2.51294 0
M  V30 2246 C 202.484 -4.84335 2.26547 0
M  V30 2247 C 203.784 -3.43328 3.93603 0
M  V30 2248 H 205.478 -1.75004 2.42928 0
M  V30 2249 H 203.024 -0.840533 1.16923 0
M  V30 2250 H 204.977 -3.9678 1.41927 0
M  V30 2251 H 203.701 -3.2399 0.412094 0
M  V30 2252 H 202.36 -2.70348 2.47604 0
M  V30 2253 H 202.008 -4.86669 1.2713 0
M  V30 2254 H 201.708 -5.04136 3.01861 0
M  V30 2255 H 203.232 -5.65094 2.31304 0
M  V30 2256 H 204.646 -4.11772 3.98894 0
M  V30 2257 H 203.043 -3.74664 4.68771 0
M  V30 2258 H 204.113 -2.41897 4.20255 0
M  V30 2259 N 205.456 -1.28612 -0.910864 0
M  V30 2260 C 206.419 -1.12803 -1.9952 0
M  V30 2261 C 207.419 -0.0668264 -1.60661 0
M  V30 2262 O 208.609 -0.312847 -1.71368 0
M  V30 2263 C 205.741 -0.72254 -3.33155 0
M  V30 2264 H 206.934 -2.09109 -2.14973 0
M  V30 2265 H 204.487 -1.11639 -1.09391 0
M  V30 2266 H 205.222 0.241152 -3.23402 0
M  V30 2267 H 205.007 -1.48916 -3.62721 0
M  V30 2268 H 206.497 -0.634666 -4.12749 0
M  V30 2269 N 206.934 1.1197 -1.10907 0
M  V30 2270 C 208.35 1.35591 -0.841852 0
M  V30 2271 C 208.55 1.94233 0.536246 0
M  V30 2272 O 207.606 2.1717 1.28816 0
M  V30 2273 C 208.919 2.29284 -1.94549 0
M  V30 2274 C 210.467 2.42862 -1.97451 0
M  V30 2275 C 210.942 3.39873 -3.07002 0
M  V30 2276 N 212.433 3.47433 -3.06341 0
M  V30 2277 C 213.168 4.22421 -3.87748 0
M  V30 2278 N 212.664 5.00432 -4.79103 0
M  V30 2279 N 214.457 4.17876 -3.75946 0
M  V30 2280 H 206.608 0.722664 -1.99728 0
M  V30 2281 H 208.871 0.380635 -0.868229 0
M  V30 2282 H 208.577 1.93378 -2.93765 0
M  V30 2283 H 208.451 3.29452 -1.83688 0
M  V30 2284 H 210.838 2.78046 -0.988645 0
M  V30 2285 H 210.919 1.42566 -2.12388 0
M  V30 2286 H 210.563 3.05417 -4.05811 0
M  V30 2287 H 210.493 4.40011 -2.89306 0
M  V30 2288 H 212.984 2.91784 -2.40147 0
M  V30 2289 H 213.297 5.55002 -5.37766 0
M  V30 2290 H 211.642 4.99612 -4.83128 0
M  V30 2291 H 214.833 3.56016 -3.03924 0
M  V30 2292 H 215.006 4.76061 -4.39624 0
M  V30 2293 N 208.412 0.89855 1.29475 0
M  V30 2294 C 209.658 0.524658 1.95896 0
M  V30 2295 C 209.991 -0.926468 1.70676 0
M  V30 2296 O 209.266 -1.65665 1.01908 0
M  V30 2297 C 209.549 0.81633 3.50725 0
M  V30 2298 C 209.402 2.31907 3.85408 0
M  V30 2299 C 210.721 0.302038 4.39062 0
M  V30 2300 H 207.84 0.19209 0.711527 0
M  V30 2301 H 210.482 1.12502 1.53112 0
M  V30 2302 H 208.632 0.305369 3.87298 0
M  V30 2303 H 210.304 2.89949 3.58786 0
M  V30 2304 H 208.547 2.78027 3.32992 0
M  V30 2305 H 209.218 2.47373 4.93468 0
M  V30 2306 H 211.694 0.739551 4.09475 0
M  V30 2307 H 210.57 0.535331 5.46283 0
M  V30 2308 H 210.831 -0.797216 4.34853 0
M  V30 2309 N 209.89 -1.43072 0.660911 0
M  V30 2310 C 211.12 -2.05769 0.185153 0
M  V30 2311 C 211.528 -1.49668 -1.15742 0
M  V30 2312 O 210.871 -0.625649 -1.72717 0
M  V30 2313 C 210.933 -3.59489 0.0278237 0
M  V30 2314 C 210.597 -4.38212 1.2969 0
M  V30 2315 C 211.594 -4.69772 2.22734 0
M  V30 2316 C 209.279 -4.7809 1.54063 0
M  V30 2317 C 211.273 -5.40129 3.38437 0
M  V30 2318 C 208.96 -5.4819 2.70058 0
M  V30 2319 C 209.958 -5.79132 3.62071 0
M  V30 2320 O 209.646 -6.47798 4.76039 0
M  V30 2321 H 209.378 -0.669873 0.0908086 0
M  V30 2322 H 211.932 -1.84436 0.90402 0
M  V30 2323 H 210.162 -3.79426 -0.746489 0
M  V30 2324 H 211.851 -4.03862 -0.406275 0
M  V30 2325 H 212.617 -4.39476 2.05149 0
M  V30 2326 H 208.496 -4.53408 0.833215 0
M  V30 2327 H 212.04 -5.64198 4.10277 0
M  V30 2328 H 207.937 -5.77902 2.87574 0
M  V30 2329 H 208.705 -6.66283 4.75404 0
M  V30 2330 N 211.368 -0.403325 -1.52352 0
M  V30 2331 C 212.315 0.425011 -2.26853 0
M  V30 2332 C 213.285 1.04598 -1.29029 0
M  V30 2333 O 214.47 1.07135 -1.57882 0
M  V30 2334 C 211.61 1.53888 -3.08889 0
M  V30 2335 C 210.723 0.939396 -4.21663 0
M  V30 2336 C 209.858 2.02547 -4.91068 0
M  V30 2337 C 208.897 1.40263 -5.95813 0
M  V30 2338 N 208.034 2.4286 -6.58759 0
M  V30 2339 H 212.874 -0.21674 -2.97211 0
M  V30 2340 H 210.411 -0.118722 -1.4662 0
M  V30 2341 H 212.369 2.19558 -3.54753 0
M  V30 2342 H 210.999 2.15074 -2.40714 0
M  V30 2343 H 210.051 0.171898 -3.80011 0
M  V30 2344 H 211.363 0.44436 -4.96817 0
M  V30 2345 H 210.517 2.75958 -5.40308 0
M  V30 2346 H 209.256 2.55415 -4.15469 0
M  V30 2347 H 208.261 0.653833 -5.45898 0
M  V30 2348 H 209.486 0.881719 -6.73352 0
M  V30 2349 H 207.432 2.94871 -5.85992 0
M  V30 2350 H 207.349 1.98152 -7.2957 0
M  V30 2351 H 208.617 3.15858 -7.12639 0
M  V30 2352 N 212.846 1.57033 -0.133567 0
M  V30 2353 C 213.778 2.13176 0.841944 0
M  V30 2354 C 214.791 1.07794 1.22001 0
M  V30 2355 O 215.98 1.35117 1.16643 0
M  V30 2356 C 213.08 2.62847 2.13926 0
M  V30 2357 C 212.253 3.92486 1.93064 0
M  V30 2358 C 211.312 4.27605 3.0666 0
M  V30 2359 O 210.338 4.96168 2.78937 0
M  V30 2360 N 211.54 3.861 4.33483 0
M  V30 2361 H 214.305 2.97503 0.362192 0
M  V30 2362 H 211.866 1.61821 0.05042 0
M  V30 2363 H 213.858 2.83363 2.88942 0
M  V30 2364 H 212.428 1.83319 2.53205 0
M  V30 2365 H 211.648 3.80732 1.02159 0
M  V30 2366 H 212.936 4.77225 1.76447 0
M  V30 2367 H 212.334 3.30828 4.58878 0
M  V30 2368 H 210.891 4.11694 5.05323 0
M  V30 2369 N 214.325 -0.140222 1.56975 0
M  V30 2370 C 215.55 -0.870414 1.88251 0
M  V30 2371 C 215.975 -1.73637 0.723312 0
M  V30 2372 O 215.333 -1.78329 -0.32689 0
M  V30 2373 C 215.381 -1.69737 3.18154 0
M  V30 2374 O 214.485 -2.80229 3.02565 0
M  V30 2375 H 213.826 -0.242025 0.61832 0
M  V30 2376 H 216.356 -0.128999 2.04193 0
M  V30 2377 H 216.366 -2.09099 3.50345 0
M  V30 2378 H 215.041 -1.06152 4.02125 0
M  V30 2379 H 213.618 -2.44224 2.81796 0
M  V30 2380 N 215.803 -1.52179 -0.40978 0
M  V30 2381 C 217.08 -1.56769 -1.16974 0
M  V30 2382 C 217.46 -0.348322 -2.08206 0
M  V30 2383 O 216.808 0.664862 -2.18613 0
M  V30 2384 C 217.018 -2.89603 -1.9476 0
M  V30 2385 C 218.366 -3.42579 -2.50849 0
M  V30 2386 O 219.39 -2.91338 -2.04941 0
M  V30 2387 O 218.249 -4.32054 -3.34652 0
M  V30 2388 H 215.343 -0.631439 -0.534054 0
M  V30 2389 H 217.889 -1.64507 -0.416613 0
M  V30 2390 H 216.661 -3.698 -1.27921 0
M  V30 2391 H 216.284 -2.85155 -2.77079 0
M  V30 2392 N 217.281 0.66697 -1.42791 0
M  V30 2393 C 218.211 1.79218 -1.49677 0
M  V30 2394 C 219.192 1.66405 -0.352623 0
M  V30 2395 O 220.377 1.85708 -0.567993 0
M  V30 2396 C 217.507 3.17565 -1.40605 0
M  V30 2397 C 216.461 3.45124 -2.53127 0
M  V30 2398 C 215.787 4.83127 -2.29112 0
M  V30 2399 C 217.087 3.41236 -3.95418 0
M  V30 2400 H 218.781 1.73713 -2.43853 0
M  V30 2401 H 216.327 0.83432 -1.17367 0
M  V30 2402 H 218.28 3.96022 -1.44029 0
M  V30 2403 H 217.004 3.23767 -0.429271 0
M  V30 2404 H 215.663 2.69031 -2.49034 0
M  V30 2405 H 215.311 4.85988 -1.29709 0
M  V30 2406 H 215.011 5.02528 -3.04531 0
M  V30 2407 H 216.535 5.63859 -2.34297 0
M  V30 2408 H 217.949 4.09651 -4.01073 0
M  V30 2409 H 216.346 3.72173 -4.70752 0
M  V30 2410 H 217.416 2.39665 -4.21532 0
M  V30 2411 N 218.759 1.29093 0.90403 0
M  V30 2412 C 220.036 1.075 1.63411 0
M  V30 2413 C 220.416 -0.382346 2.07609 0
M  V30 2414 O 219.764 -1.37031 1.82851 0
M  V30 2415 C 219.974 2.05858 2.81822 0
M  V30 2416 C 221.322 2.36539 3.52611 0
M  V30 2417 O 222.346 2.04019 2.91984 0
M  V30 2418 O 221.205 2.92085 4.61897 0
M  V30 2419 H 218.299 0.411547 0.717327 0
M  V30 2420 H 220.845 1.40449 0.952479 0
M  V30 2421 H 219.617 3.04037 2.46327 0
M  V30 2422 H 219.24 1.73613 3.57693 0
M  V30 2423 N 220.237 -1.11381 1.11499 0
M  V30 2424 C 221.465 -1.86934 0.88675 0
M  V30 2425 C 221.88 -1.80195 -0.563476 0
M  V30 2426 O 221.237 -1.18367 -1.38908 0
M  V30 2427 C 221.288 -3.35722 1.34064 0
M  V30 2428 O 221.009 -3.4232 2.73401 0
M  V30 2429 C 222.51 -4.2818 1.14791 0
M  V30 2430 H 219.73 -0.591117 0.317523 0
M  V30 2431 H 222.274 -1.40865 1.48248 0
M  V30 2432 H 220.429 -3.79294 0.788355 0
M  V30 2433 H 220.843 -4.34971 2.93087 0
M  V30 2434 H 222.317 -5.30817 1.5145 0
M  V30 2435 H 222.794 -4.39113 0.0875279 0
M  V30 2436 H 223.4 -3.90402 1.68721 0
M  V30 2437 N 221.715 -0.905404 -1.28997 0
M  V30 2438 C 222.645 -0.404212 -2.29975 0
M  V30 2439 C 223.626 0.523784 -1.61835 0
M  V30 2440 O 224.811 0.433298 -1.89304 0
M  V30 2441 C 221.941 0.364042 -3.45387 0
M  V30 2442 C 220.895 -0.474048 -4.25367 0
M  V30 2443 C 220.221 0.422045 -5.33032 0
M  V30 2444 C 221.521 -1.72696 -4.92923 0
M  V30 2445 H 223.215 -1.24807 -2.72146 0
M  V30 2446 H 220.761 -0.601585 -1.30832 0
M  V30 2447 H 222.714 0.725447 -4.15109 0
M  V30 2448 H 221.438 1.24174 -3.02074 0
M  V30 2449 H 220.097 -0.81786 -3.57361 0
M  V30 2450 H 219.745 1.29804 -4.85963 0
M  V30 2451 H 219.445 -0.135057 -5.87445 0
M  V30 2452 H 220.969 0.779517 -6.05604 0
M  V30 2453 H 222.383 -1.43495 -5.55051 0
M  V30 2454 H 220.78 -2.22582 -5.57295 0
M  V30 2455 H 221.85 -2.45964 -4.17887 0
M  V30 2456 N 223.193 1.4272 -0.668489 0
M  V30 2457 C 224.156 2.292 0.00448567 0
M  V30 2458 C 225.156 1.43001 0.735339 0
M  V30 2459 O 226.346 1.64461 0.57429 0
M  V30 2460 C 223.478 3.25375 1.01705 0
M  V30 2461 H 224.671 2.90199 -0.756608 0
M  V30 2462 H 222.224 1.50254 -0.430506 0
M  V30 2463 H 222.959 2.69301 1.80686 0
M  V30 2464 H 222.744 3.88944 0.496463 0
M  V30 2465 H 224.234 3.90245 1.48655 0
M  V30 2466 N 224.671 0.411399 1.52136 0
M  V30 2467 C 225.618 -0.412975 2.27075 0
M  V30 2468 C 226.588 -1.03912 1.29582 0
M  V30 2469 O 227.773 -1.06296 1.58448 0
M  V30 2470 C 224.913 -1.52247 3.09701 0
M  V30 2471 C 224.026 -0.917021 4.22155 0
M  V30 2472 C 223.161 -1.9994 4.92135 0
M  V30 2473 C 222.2 -1.37101 5.96548 0
M  V30 2474 N 221.337 -2.39364 6.60038 0
M  V30 2475 H 226.177 0.232499 2.97092 0
M  V30 2476 H 223.714 0.126496 1.46555 0
M  V30 2477 H 225.672 -2.17674 3.55913 0
M  V30 2478 H 224.302 -2.13794 2.41851 0
M  V30 2479 H 223.354 -0.151742 3.80097 0
M  V30 2480 H 224.666 -0.418006 4.97045 0
M  V30 2481 H 223.82 -2.73088 5.41763 0
M  V30 2482 H 222.559 -2.53208 4.16818 0
M  V30 2483 H 221.564 -0.624873 5.46237 0
M  V30 2484 H 222.789 -0.845998 6.7381 0
M  V30 2485 H 220.735 -2.91759 5.87548 0
M  V30 2486 H 220.652 -1.9428 7.3061 0
M  V30 2487 H 221.92 -3.12074 7.14304 0
M  V30 2488 N 226.149 -1.5696 0.141893 0
M  V30 2489 C 227.059 -2.20066 -0.812905 0
M  V30 2490 C 228.075 -1.18344 -1.27557 0
M  V30 2491 O 229.251 -1.50902 -1.33381 0
M  V30 2492 C 226.316 -2.80583 -2.03652 0
M  V30 2493 C 225.377 -3.97414 -1.62359 0
M  V30 2494 C 224.61 -4.55036 -2.78887 0
M  V30 2495 O 224.833 -4.11538 -3.94959 0
M  V30 2496 O 223.767 -5.45376 -2.54653 0
M  V30 2497 H 227.593 -3.02157 -0.305746 0
M  V30 2498 H 225.178 -1.49159 -0.0848799 0
M  V30 2499 H 227.06 -3.19067 -2.75272 0
M  V30 2500 H 225.735 -2.01508 -2.5333 0
M  V30 2501 H 224.642 -3.63656 -0.877775 0
M  V30 2502 H 225.975 -4.77994 -1.17401 0
M  V30 2503 N 227.627 0.131896 -1.57047 0
M  V30 2504 C 228.59 1.14638 -1.98471 0
M  V30 2505 C 229.59 1.35029 -0.873148 0
M  V30 2506 O 230.78 1.31764 -1.13946 0
M  V30 2507 C 227.912 2.50358 -2.31373 0
M  V30 2508 H 229.105 0.79064 -2.8929 0
M  V30 2509 H 226.658 0.375761 -1.51716 0
M  V30 2510 H 227.393 2.90876 -1.43393 0
M  V30 2511 H 227.178 2.36915 -3.12432 0
M  V30 2512 H 228.668 3.23395 -2.64207 0
M  V30 2513 N 229.106 1.52395 0.401703 0
M  V30 2514 C 230.331 1.70972 1.17403 0
M  V30 2515 C 230.756 0.421615 1.83314 0
M  V30 2516 O 230.114 -0.621564 1.70312 0
M  V30 2517 C 230.162 2.85151 2.20728 0
M  V30 2518 O 229.266 2.51238 3.27037 0
M  V30 2519 H 228.607 0.568927 0.342372 0
M  V30 2520 H 231.137 1.99131 0.469891 0
M  V30 2521 H 231.147 3.10279 2.64936 0
M  V30 2522 H 229.822 3.78603 1.7214 0
M  V30 2523 H 228.399 2.36808 2.88057 0
M  V30 2524 N 230.584 -0.659388 1.43143 0
M  V30 2525 C 231.833 -1.41518 1.43721 0
M  V30 2526 C 232.146 -1.95499 0.0628176 0
M  V30 2527 O 233.352 -2.71446 -0.0539683 0
M  V30 2528 C 231.808 -2.5608 2.52885 0
M  V30 2529 C 231.416 -2.08733 3.96402 0
M  V30 2530 C 233.16 -3.3349 2.62649 0
M  V30 2531 C 231.067 -3.20469 4.97045 0
M  V30 2532 H 229.997 -0.531705 0.534608 0
M  V30 2533 H 232.648 -0.712343 1.69109 0
M  V30 2534 H 231.03 -3.28805 2.20688 0
M  V30 2535 H 232.204 -1.43059 4.3803 0
M  V30 2536 H 230.519 -1.44219 3.90627 0
M  V30 2537 H 233.116 -4.16734 3.35017 0
M  V30 2538 H 233.459 -3.8111 1.67513 0
M  V30 2539 H 233.992 -2.67842 2.94118 0
M  V30 2540 H 230.731 -2.77824 5.93712 0
M  V30 2541 H 230.251 -3.84874 4.60034 0
M  V30 2542 H 231.93 -3.85698 5.19467 0
M  V30 2543 N 232.062 -1.29571 -0.897171 0
M  V30 2544 C 233.473 -1.15964 -1.46319 0
M  V30 2545 C 233.824 0.244267 -1.94674 0
M  V30 2546 O 232.949 1.13998 -1.83939 0
M  V30 2547 C 233.544 -2.09906 -2.65942 0
M  V30 2548 C 232.103 -2.00314 -3.18671 0
M  V30 2549 C 231.25 -2.00687 -1.91363 0
M  V30 2550 H 234.201 -1.42019 -0.708268 0
M  V30 2551 H 234.222 -1.67276 -3.41759 0
M  V30 2552 H 233.734 -3.12075 -2.30718 0
M  V30 2553 H 231.835 -1.01242 -3.58582 0
M  V30 2554 H 231.948 -2.88102 -3.82798 0
M  V30 2555 H 230.312 -1.45319 -2.09175 0
M  V30 2556 H 231.095 -3.04566 -1.58413 0
M  V30 2557 N 233.54 1.10788 -1.12088 0
M  V30 2558 C 234.789 1.82036 -0.868659 0
M  V30 2559 C 235.102 1.85929 0.607426 0
M  V30 2560 O 236.308 2.53346 0.97613 0
M  V30 2561 C 234.764 3.26951 -1.50435 0
M  V30 2562 C 234.372 3.31367 -3.01496 0
M  V30 2563 C 236.116 4.03053 -1.33225 0
M  V30 2564 C 234.023 4.7072 -3.58017 0
M  V30 2565 H 232.953 0.682108 -0.321318 0
M  V30 2566 H 235.604 1.24618 -1.34694 0
M  V30 2567 H 233.986 3.84343 -0.953735 0
M  V30 2568 H 235.16 2.83819 -3.6302 0
M  V30 2569 H 233.475 2.6875 -3.18061 0
M  V30 2570 H 236.072 5.05981 -1.72878 0
M  V30 2571 H 236.415 4.15387 -0.275529 0
M  V30 2572 H 236.948 3.52066 -1.85188 0
M  V30 2573 H 233.687 4.63585 -4.63432 0
M  V30 2574 H 233.207 5.1865 -3.01268 0
M  V30 2575 H 234.886 5.39685 -3.56859 0
M  V30 2576 N 235.018 0.912232 1.28515 0
M  V30 2577 C 236.267 0.540504 1.94323 0
M  V30 2578 C 236.58 -0.920044 1.72611 0
M  V30 2579 O 237.786 -1.39986 2.32629 0
M  V30 2580 C 236.242 0.915803 3.48053 0
M  V30 2581 C 235.85 2.39598 3.78546 0
M  V30 2582 C 237.594 0.614588 4.20027 0
M  V30 2583 C 235.501 2.71148 5.25578 0
M  V30 2584 H 234.431 0.198418 0.727424 0
M  V30 2585 H 237.082 1.11094 1.46049 0
M  V30 2586 H 235.464 0.274168 3.9505 0
M  V30 2587 H 236.638 3.08422 3.42364 0
M  V30 2588 H 234.953 2.66749 3.1974 0
M  V30 2589 H 237.55 0.827002 5.28266 0
M  V30 2590 H 237.893 -0.447531 4.13887 0
M  V30 2591 H 238.426 1.21462 3.78803 0
M  V30 2592 H 235.165 3.76207 5.36794 0
M  V30 2593 H 234.685 2.0696 5.62963 0
M  V30 2594 H 236.364 2.58072 5.93302 0
M  V30 2595 N 236.496 -1.42363 0.676048 0
M  V30 2596 C 237.444 -2.32596 -0.0131507 0
M  V30 2597 C 238.438 -1.49891 -0.789238 0
M  V30 2598 O 239.644 -1.65955 -0.697061 0
M  V30 2599 H 236.019 -0.751647 -0.0230481 0
M  V30 2600 H 237.99 -2.88421 0.765243 0
M  V30 2601 C 236.739 -3.34479 -0.949702 0
M  V30 2602 H 236.062 -3.98158 -0.361938 0
M  V30 2603 H 237.502 -4.00199 -1.4006 0
M  V30 2604 C 235.961 -2.66838 -2.05667 0
M  V30 2605 O 236.491 -2.50124 -3.14326 0
M  V30 2606 N 234.697 -2.25843 -1.82875 0
M  V30 2607 H 234.244 -2.39637 -0.945085 0
M  V30 2608 H 234.202 -1.80918 -2.5713 0
M  V30 2609 N 237.974 -0.419461 -1.51915 0
M  V30 2610 C 239.222 0.152637 -2.01523 0
M  V30 2611 C 239.543 1.44762 -1.30649 0
M  V30 2612 O 238.813 1.90997 -0.435535 0
M  V30 2613 H 237.393 0.0593966 -0.744635 0
M  V30 2614 H 240.055 -0.558073 -1.86739 0
M  V30 2615 H 239.151 0.341369 -3.10227 0
M  V30 2616 N 239.452 1.56882 -0.150215 0
M  V30 2617 C 240.382 2.19935 0.784284 0
M  V30 2618 C 241.363 1.14854 1.25469 0
M  V30 2619 O 242.548 1.43209 1.31168 0
M  V30 2620 C 239.678 2.82349 2.02229 0
M  V30 2621 C 238.632 3.93285 1.68853 0
M  V30 2622 C 237.958 4.42649 2.99944 0
M  V30 2623 C 239.258 5.13904 0.932714 0
M  V30 2624 H 240.952 2.9828 0.258781 0
M  V30 2625 H 238.498 1.43473 0.123029 0
M  V30 2626 H 240.451 3.25126 2.68088 0
M  V30 2627 H 239.175 2.0134 2.57157 0
M  V30 2628 H 237.834 3.5113 1.05371 0
M  V30 2629 H 237.482 3.58458 3.52869 0
M  V30 2630 H 237.182 5.17476 2.78374 0
M  V30 2631 H 238.706 4.88099 3.66868 0
M  V30 2632 H 240.12 5.53506 1.49345 0
M  V30 2633 H 238.517 5.94515 0.81684 0
M  V30 2634 H 239.587 4.84842 -0.0749568 0
M  V30 2635 N 240.93 -0.123565 1.57115 0
M  V30 2636 C 242.155 -0.850398 1.89164 0
M  V30 2637 C 242.58 -1.7286 0.741688 0
M  V30 2638 O 241.938 -1.78665 -0.307958 0
M  V30 2639 C 241.986 -1.66353 3.19936 0
M  V30 2640 O 241.09 -2.77004 3.0552 0
M  V30 2641 H 240.431 -0.235454 0.620852 0
M  V30 2642 H 242.961 -0.107335 2.04318 0
M  V30 2643 H 242.971 -2.05372 3.52543 0
M  V30 2644 H 241.646 -1.01881 4.03228 0
M  V30 2645 H 240.223 -2.41221 2.84371 0
M  V30 2646 N 242.408 -1.52605 -0.393616 0
M  V30 2647 C 243.685 -1.58001 -1.15304 0
M  V30 2648 C 244.065 -0.370385 -2.07825 0
M  V30 2649 O 243.413 0.641638 -2.19306 0
M  V30 2650 C 243.623 -2.91652 -1.91677 0
M  V30 2651 C 244.971 -3.4522 -2.47201 0
M  V30 2652 O 245.995 -2.93495 -2.01839 0
M  V30 2653 O 244.854 -4.35579 -3.3005 0
M  V30 2654 H 241.948 -0.637068 -0.527327 0
M  V30 2655 H 244.494 -1.64939 -0.399141 0
M  V30 2656 H 243.266 -3.71136 -1.23992 0
M  V30 2657 H 242.889 -2.88077 -2.74039 0
M  V30 2658 N 243.887 0.651787 -1.4349 0
M  V30 2659 C 244.817 1.77621 -1.51569 0
M  V30 2660 C 245.798 1.66022 -0.370253 0
M  V30 2661 O 246.983 1.85095 -0.587658 0
M  V30 2662 C 244.113 3.16056 -1.43966 0
M  V30 2663 C 243.067 3.4242 -2.56774 0
M  V30 2664 C 242.393 4.8067 -2.34223 0
M  V30 2665 C 243.693 3.37023 -3.99015 0
M  V30 2666 H 245.387 1.71117 -2.45681 0
M  V30 2667 H 242.933 0.821825 -1.18246 0
M  V30 2668 H 244.886 3.94472 -1.48221 0
M  V30 2669 H 243.61 3.23293 -0.463586 0
M  V30 2670 H 242.269 2.66375 -2.51873 0
M  V30 2671 H 241.917 4.84585 -1.34856 0
M  V30 2672 H 241.617 4.9927 -3.09844 0
M  V30 2673 H 243.141 5.61342 -2.40265 0
M  V30 2674 H 244.555 4.05374 -4.05395 0
M  V30 2675 H 242.952 3.67159 -4.74673 0
M  V30 2676 H 244.022 2.3518 -4.2405 0
M  V30 2677 N 245.365 1.30045 0.890287 0
M  V30 2678 C 246.595 1.21296 1.67245 0
M  V30 2679 C 247.003 -0.227471 1.87828 0
M  V30 2680 O 246.346 -1.16296 1.422 0
M  V30 2681 C 246.408 1.86519 3.07329 0
M  V30 2682 C 246.072 3.35837 3.09939 0
M  V30 2683 C 247.069 4.31915 2.89389 0
M  V30 2684 C 244.754 3.77196 3.31706 0
M  V30 2685 C 246.748 5.67325 2.90552 0
M  V30 2686 C 244.435 5.12725 3.32499 0
M  V30 2687 C 245.433 6.076 3.11947 0
M  V30 2688 O 245.121 7.40655 3.12547 0
M  V30 2689 H 244.853 0.4211 0.528821 0
M  V30 2690 H 247.407 1.72111 1.12103 0
M  V30 2691 H 245.637 1.30228 3.64112 0
M  V30 2692 H 247.326 1.71963 3.67673 0
M  V30 2693 H 248.092 4.01294 2.72375 0
M  V30 2694 H 243.971 3.03796 3.4674 0
M  V30 2695 H 247.515 6.41354 2.74429 0
M  V30 2696 H 243.412 5.42988 3.49047 0
M  V30 2697 H 244.18 7.49577 3.28749 0
M  V30 2698 N 246.843 -1.10192 1.12674 0
M  V30 2699 C 247.793 -2.14754 0.765801 0
M  V30 2700 C 248.777 -1.59154 -0.236409 0
M  V30 2701 O 249.969 -1.76951 -0.0415261 0
M  V30 2702 C 247.098 -3.42563 0.224827 0
M  V30 2703 C 246.184 -4.05091 1.25548 0
M  V30 2704 N 246.575 -4.42287 2.4539 0
M  V30 2705 C 244.873 -4.32186 1.10142 0
M  V30 2706 C 245.574 -4.91441 3.11224 0
M  V30 2707 N 244.55 -4.88405 2.38666 0
M  V30 2708 H 248.352 -2.41309 1.67772 0
M  V30 2709 H 245.866 -1.27339 1.00789 0
M  V30 2710 H 247.863 -4.16868 -0.0519578 0
M  V30 2711 H 246.523 -3.17467 -0.681515 0
M  V30 2712 H 247.534 -4.33902 2.82754 0
M  V30 2713 H 244.211 -4.16735 0.252587 0
M  V30 2714 H 245.601 -5.29749 4.13298 0
M  V30 2715 N 248.321 -0.919034 -1.28029 0
M  V30 2716 C 249.732 -0.600735 -1.76771 0
M  V30 2717 C 250.083 0.884024 -1.75156 0
M  V30 2718 O 249.208 1.69163 -1.34956 0
M  V30 2719 C 249.803 -1.08372 -3.21 0
M  V30 2720 C 248.362 -0.816248 -3.67443 0
M  V30 2721 C 247.509 -1.24742 -2.47658 0
M  V30 2722 H 250.46 -1.09974 -1.14418 0
M  V30 2723 H 250.481 -0.427512 -3.78091 0
M  V30 2724 H 249.993 -2.16437 -3.22144 0
M  V30 2725 H 248.094 0.250968 -3.71754 0
M  V30 2726 H 248.207 -1.4277 -4.57333 0
M  V30 2727 H 246.571 -0.666083 -2.45836 0
M  V30 2728 H 247.354 -2.33653 -2.51518 0
M  V30 2729 N 249.799 1.42003 -0.683588 0
M  V30 2730 C 251.048 2.00638 -0.206681 0
M  V30 2731 C 251.361 1.5472 1.19671 0
M  V30 2732 O 252.567 2.05833 1.77045 0
M  V30 2733 C 251.023 3.58487 -0.318632 0
M  V30 2734 C 250.631 4.1339 -1.72663 0
M  V30 2735 C 252.375 4.24384 0.0991141 0
M  V30 2736 C 250.282 5.63633 -1.79087 0
M  V30 2737 H 249.212 0.750408 -0.0735107 0
M  V30 2738 H 251.863 1.62624 -0.850048 0
M  V30 2739 H 250.245 3.94047 0.392781 0
M  V30 2740 H 251.419 3.89273 -2.46583 0
M  V30 2741 H 249.734 3.59976 -2.09299 0
M  V30 2742 H 252.331 5.34652 0.0713833 0
M  V30 2743 H 252.674 4.00505 1.13586 0
M  V30 2744 H 253.207 3.93816 -0.561599 0
M  V30 2745 H 249.946 5.92323 -2.80774 0
M  V30 2746 H 249.466 5.89714 -1.09535 0
M  V30 2747 H 251.145 6.28201 -1.5483 0
M  V30 2748 N 251.277 0.427512 1.51691 0
M  V30 2749 C 252.209 -0.424521 2.25234 0
M  V30 2750 C 253.222 -0.994671 1.2888 0
M  V30 2751 O 254.411 -0.890483 1.54702 0
M  V30 2752 C 251.511 -1.60479 2.98496 0
M  V30 2753 C 250.684 -1.15527 4.21868 0
M  V30 2754 C 249.743 -2.20454 4.77793 0
M  V30 2755 O 248.769 -1.8029 5.39893 0
M  V30 2756 N 249.971 -3.52831 4.60967 0
M  V30 2757 H 252.736 0.205749 2.98993 0
M  V30 2758 H 250.297 0.255867 1.59865 0
M  V30 2759 H 252.289 -2.30276 3.32799 0
M  V30 2760 H 250.859 -2.14061 2.27809 0
M  V30 2761 H 250.079 -0.284736 3.9317 0
M  V30 2762 H 251.367 -0.832173 5.01949 0
M  V30 2763 H 250.765 -3.88201 4.11481 0
M  V30 2764 H 249.322 -4.18551 4.99658 0
M  V30 2765 N 252.755 -1.56801 0.158532 0
M  V30 2766 C 254.004 -1.95665 -0.489702 0
M  V30 2767 C 254.317 -1.04654 -1.65248 0
M  V30 2768 O 255.523 -1.33146 -2.3661 0
M  V30 2769 C 253.979 -3.47874 -0.922582 0
M  V30 2770 C 253.587 -4.47489 0.213893 0
M  V30 2771 C 255.331 -3.95583 -1.53996 0
M  V30 2772 C 253.238 -5.90921 -0.237903 0
M  V30 2773 H 252.168 -0.730516 -0.186716 0
M  V30 2774 H 254.819 -1.81861 0.244722 0
M  V30 2775 H 253.201 -3.57051 -1.71261 0
M  V30 2776 H 254.375 -4.50017 0.991036 0
M  V30 2777 H 252.69 -4.09764 0.740407 0
M  V30 2778 H 255.287 -5.0019 -1.8898 0
M  V30 2779 H 255.63 -3.37789 -2.43319 0
M  V30 2780 H 256.163 -3.8937 -0.814611 0
M  V30 2781 H 252.902 -6.52559 0.620236 0
M  V30 2782 H 252.422 -5.91729 -0.980676 0
M  V30 2783 H 254.101 -6.43352 -0.686067 0
M  V30 2784 N 254.233 0.115231 -1.57178 0
M  V30 2785 C 255.163 1.1423 -2.03651 0
M  V30 2786 C 256.144 1.42967 -0.921655 0
M  V30 2787 O 257.329 1.53343 -1.19162 0
M  V30 2788 C 254.459 2.4675 -2.44401 0
M  V30 2789 C 253.413 2.32467 -3.59365 0
M  V30 2790 C 252.739 3.69984 -3.86026 0
M  V30 2791 C 254.039 1.78203 -4.90959 0
M  V30 2792 H 255.733 0.755749 -2.89705 0
M  V30 2793 H 253.279 0.362093 -1.39373 0
M  V30 2794 H 255.232 3.18854 -2.75517 0
M  V30 2795 H 253.956 2.87302 -1.55322 0
M  V30 2796 H 252.615 1.62811 -3.28463 0
M  V30 2797 H 252.263 4.08028 -2.94147 0
M  V30 2798 H 251.963 3.61279 -4.63412 0
M  V30 2799 H 253.487 4.43587 -4.19599 0
M  V30 2800 H 254.901 2.40128 -5.20587 0
M  V30 2801 H 253.298 1.8031 -5.72371 0
M  V30 2802 H 254.368 0.739876 -4.79222 0
M  V30 2803 N 255.711 1.52812 0.385517 0
M  V30 2804 C 256.674 1.77188 1.45386 0
M  V30 2805 C 257.674 0.641953 1.4743 0
M  V30 2806 O 258.864 0.910033 1.4854 0
M  V30 2807 C 255.996 1.87582 2.8465 0
M  V30 2808 H 257.189 2.72583 1.25054 0
M  V30 2809 H 254.742 1.43586 0.617467 0
M  V30 2810 H 255.477 0.941849 3.10322 0
M  V30 2811 H 255.262 2.69748 2.84567 0
M  V30 2812 H 256.752 2.08102 3.62054 0
M  V30 2813 N 257.189 -0.644168 1.43834 0
M  V30 2814 C 258.466 -1.40188 1.36406 0
M  V30 2815 C 258.846 -2.11094 0.0163124 0
M  V30 2816 O 258.194 -2.05426 -1.00062 0
M  V30 2817 C 258.404 -2.3791 2.55343 0
M  V30 2818 C 259.752 -3.01637 2.98832 0
M  V30 2819 O 260.776 -2.48237 2.55455 0
M  V30 2820 O 259.635 -3.98477 3.74003 0
M  V30 2821 H 256.729 -0.626773 0.539523 0
M  V30 2822 H 259.275 -0.670317 1.559 0
M  V30 2823 H 258.047 -1.84525 3.4506 0
M  V30 2824 H 257.67 -3.18503 2.37995 0
M  V30 2825 N 258.668 -1.30515 -0.883378 0
M  V30 2826 C 259.898 -1.22182 -1.66599 0
M  V30 2827 C 260.306 0.217507 -1.87946 0
M  V30 2828 O 259.649 1.1554 -1.42815 0
M  V30 2829 C 259.711 -1.88146 -3.06335 0
M  V30 2830 C 259.375 -3.37476 -3.08154 0
M  V30 2831 C 260.372 -4.33443 -2.87094 0
M  V30 2832 C 258.057 -3.7895 -3.29701 0
M  V30 2833 C 260.051 -5.68858 -2.8754 0
M  V30 2834 C 257.738 -5.14482 -3.29776 0
M  V30 2835 C 258.736 -6.09246 -3.0872 0
M  V30 2836 O 258.424 -7.42302 -3.08615 0
M  V30 2837 H 258.156 -0.423898 -0.52658 0
M  V30 2838 H 260.71 -1.72703 -1.11188 0
M  V30 2839 H 258.94 -1.32157 -3.63416 0
M  V30 2840 H 260.629 -1.7391 -3.66756 0
M  V30 2841 H 261.395 -4.02733 -2.70243 0
M  V30 2842 H 257.274 -3.05631 -3.45124 0
M  V30 2843 H 260.818 -6.428 -2.71024 0
M  V30 2844 H 256.715 -5.44832 -3.46163 0
M  V30 2845 H 257.483 -7.5131 -3.24769 0
M  V30 2846 N 260.146 1.09593 -1.13257 0
M  V30 2847 C 261.076 2.18214 -0.830946 0
M  V30 2848 C 262.057 1.68812 0.208966 0
M  V30 2849 O 263.242 1.9408 0.0682666 0
M  V30 2850 C 260.372 3.46051 -0.294296 0
M  V30 2851 C 259.326 4.08778 -1.26826 0
M  V30 2852 C 258.652 5.31419 -0.591449 0
M  V30 2853 C 259.952 4.51476 -2.62615 0
M  V30 2854 H 261.646 2.43703 -1.73923 0
M  V30 2855 H 259.192 1.17128 -0.837675 0
M  V30 2856 H 261.145 4.2134 -0.0709606 0
M  V30 2857 H 259.869 3.20079 0.649366 0
M  V30 2858 H 258.528 3.35505 -1.47756 0
M  V30 2859 H 258.176 5.01727 0.357633 0
M  V30 2860 H 257.876 5.74341 -1.24123 0
M  V30 2861 H 259.4 6.09433 -0.377355 0
M  V30 2862 H 260.814 5.17999 -2.45663 0
M  V30 2863 H 259.211 5.05277 -3.23752 0
M  V30 2864 H 260.281 3.63962 -3.20406 0
M  V30 2865 N 261.624 0.925811 1.2754 0
M  V30 2866 C 262.852 0.581509 1.9856 0
M  V30 2867 C 263.267 -0.840041 1.69082 0
M  V30 2868 O 262.624 -1.55805 0.950312 0
M  V30 2869 C 262.675 0.795589 3.52637 0
M  V30 2870 O 262.396 2.16121 3.81082 0
M  V30 2871 C 263.897 0.459744 4.4091 0
M  V30 2872 H 261.117 0.220538 0.633722 0
M  V30 2873 H 263.661 1.24232 1.6244 0
M  V30 2874 H 261.816 0.18161 3.86974 0
M  V30 2875 H 262.23 2.2098 4.75676 0
M  V30 2876 H 263.704 0.660244 5.48037 0
M  V30 2877 H 264.181 -0.604625 4.35018 0
M  V30 2878 H 264.787 1.05178 4.12089 0
M  V30 2879 N 263.102 -1.41638 0.69111 0
M  V30 2880 C 264.032 -2.3347 0.037248 0
M  V30 2881 C 265.013 -1.51575 -0.771947 0
M  V30 2882 O 266.198 -1.80126 -0.72582 0
M  V30 2883 C 263.328 -3.35354 -0.903064 0
M  V30 2884 C 262.282 -4.27526 -0.201288 0
M  V30 2885 C 261.608 -5.19747 -1.25565 0
M  V30 2886 C 262.908 -5.13959 0.929689 0
M  V30 2887 H 264.602 -2.88397 0.804227 0
M  V30 2888 H 262.148 -1.38669 0.388189 0
M  V30 2889 H 264.101 -3.98519 -1.36969 0
M  V30 2890 H 262.825 -2.78767 -1.70166 0
M  V30 2891 H 261.484 -3.65779 0.245265 0
M  V30 2892 H 261.132 -4.59479 -2.04666 0
M  V30 2893 H 260.832 -5.8225 -0.791128 0
M  V30 2894 H 262.356 -5.85789 -1.72288 0
M  V30 2895 H 263.77 -5.70718 0.543546 0
M  V30 2896 H 262.167 -5.85379 1.32103 0
M  V30 2897 H 263.237 -4.51389 1.77133 0
M  V30 2898 N 264.58 -0.43555 -1.51462 0
M  V30 2899 C 265.512 0.41257 -2.25456 0
M  V30 2900 C 266.525 0.987822 -1.29406 0
M  V30 2901 O 267.714 0.882266 -1.55172 0
M  V30 2902 C 264.814 1.58894 -2.99342 0
M  V30 2903 C 263.987 1.13288 -4.22474 0
M  V30 2904 C 263.046 2.17917 -4.78956 0
M  V30 2905 O 262.072 1.77425 -5.40841 0
M  V30 2906 N 263.274 3.50382 -4.62832 0
M  V30 2907 H 266.039 -0.221603 -2.9888 0
M  V30 2908 H 263.6 -0.264342 -1.59727 0
M  V30 2909 H 265.592 2.28508 -3.34015 0
M  V30 2910 H 264.162 2.12849 -2.28941 0
M  V30 2911 H 263.382 0.263881 -3.93316 0
M  V30 2912 H 264.67 0.805542 -5.02383 0
M  V30 2913 H 264.068 3.86013 -4.13534 0
M  V30 2914 H 262.625 4.15895 -5.01871 0
M  V30 2915 N 266.058 1.56714 -0.166846 0
M  V30 2916 C 266.968 2.21331 0.777791 0
M  V30 2917 C 267.984 1.20358 1.25658 0
M  V30 2918 O 269.16 1.53005 1.30964 0
M  V30 2919 C 266.225 2.83787 1.99163 0
M  V30 2920 C 265.286 3.99947 1.56016 0
M  V30 2921 C 264.519 4.59415 2.71613 0
M  V30 2922 O 264.742 4.17769 3.88362 0
M  V30 2923 O 263.676 5.49359 2.45945 0
M  V30 2924 H 267.502 3.02605 0.257636 0
M  V30 2925 H 265.087 1.49275 0.0611393 0
M  V30 2926 H 266.969 3.23405 2.70161 0
M  V30 2927 H 265.644 2.05513 2.50092 0
M  V30 2928 H 264.551 3.65007 0.819809 0
M  V30 2929 H 265.884 4.79801 1.09782 0
M  V30 2930 N 267.536 -0.106894 1.57237 0
M  V30 2931 C 268.486 -1.1366 1.9765 0
M  V30 2932 C 269.47 -1.36416 0.853203 0
M  V30 2933 O 270.662 -1.37305 1.11697 0
M  V30 2934 C 267.791 -2.46 2.39455 0
M  V30 2935 C 266.877 -2.26668 3.58445 0
M  V30 2936 N 267.268 -1.77176 4.73754 0
M  V30 2937 C 265.566 -2.57279 3.64312 0
M  V30 2938 C 266.267 -1.71836 5.5574 0
M  V30 2939 N 265.243 -2.16623 4.98573 0
M  V30 2940 H 269.045 -0.74669 2.84256 0
M  V30 2941 H 266.559 -0.314483 1.59326 0
M  V30 2942 H 268.556 -3.2049 2.6663 0
M  V30 2943 H 267.216 -2.85738 1.54219 0
M  V30 2944 H 268.227 -1.46545 4.96734 0
M  V30 2945 H 264.904 -3.00622 2.89711 0
M  V30 2946 H 266.294 -1.34723 6.58255 0
M  V30 2947 N 269.014 -1.53014 -0.377408 0
M  V30 2948 C 270.244 -1.72265 -1.14054 0
M  V30 2949 C 270.652 -0.44601 -1.83868 0
M  V30 2950 O 269.995 0.590095 -1.73964 0
M  V30 2951 C 270.057 -2.82492 -2.22348 0
M  V30 2952 C 269.721 -4.23233 -1.72402 0
M  V30 2953 C 270.718 -5.05992 -1.19448 0
M  V30 2954 C 268.403 -4.696 -1.78273 0
M  V30 2955 C 270.397 -6.33203 -0.730268 0
M  V30 2956 C 268.084 -5.96792 -1.31464 0
M  V30 2957 C 269.082 -6.78424 -0.789297 0
M  V30 2958 O 268.77 -8.0323 -0.328077 0
M  V30 2959 H 268.502 -0.579873 -0.347453 0
M  V30 2960 H 271.056 -2.00502 -0.445882 0
M  V30 2961 H 269.286 -2.49702 -2.95272 0
M  V30 2962 H 270.975 -2.90034 -2.83963 0
M  V30 2963 H 271.741 -4.71349 -1.14259 0
M  V30 2964 H 267.62 -4.06142 -2.18106 0
M  V30 2965 H 271.164 -6.96868 -0.319542 0
M  V30 2966 H 267.061 -6.30937 -1.36342 0
M  V30 2967 H 267.829 -8.1727 -0.448493 0
M  V30 2968 N 270.492 0.636531 -1.44174 0
M  V30 2969 C 271.717 1.42847 -1.50364 0
M  V30 2970 C 272.142 1.87665 -0.127867 0
M  V30 2971 O 271.5 1.58408 0.88185 0
M  V30 2972 C 271.548 2.62854 -2.4686 0
M  V30 2973 O 270.652 3.62501 -1.9664 0
M  V30 2974 H 269.993 0.427642 -0.507955 0
M  V30 2975 H 272.523 0.777422 -1.89255 0
M  V30 2976 H 272.533 3.10465 -2.64718 0
M  V30 2977 H 271.208 2.29578 -3.46795 0
M  V30 2978 H 269.785 3.21735 -1.88523 0
M  V30 2979 N 271.97 1.30982 0.876444 0
M  V30 2980 C 273.195 1.23373 1.66715 0
M  V30 2981 C 273.62 -0.19885 1.87046 0
M  V30 2982 O 272.978 -1.1427 1.40756 0
M  V30 2983 C 273.026 1.97644 3.01611 0
M  V30 2984 O 272.13 1.30935 3.91062 0
M  V30 2985 H 271.471 0.426279 0.509099 0
M  V30 2986 H 274.001 1.72944 1.09323 0
M  V30 2987 H 274.011 2.06992 3.51594 0
M  V30 2988 H 272.686 3.01829 2.86133 0
M  V30 2989 H 271.263 1.29996 3.49507 0
M  V30 2990 N 273.449 -1.08991 1.13837 0
M  V30 2991 C 274.379 -2.17771 0.842507 0
M  V30 2992 C 275.36 -1.6892 -0.20001 0
M  V30 2993 O 276.545 -1.94113 -0.0579731 0
M  V30 2994 C 273.675 -3.4589 0.312644 0
M  V30 2995 C 272.629 -4.08099 1.28992 0
M  V30 2996 C 271.955 -5.31098 0.619623 0
M  V30 2997 C 273.255 -4.50077 2.65005 0
M  V30 2998 H 274.949 -2.42777 1.75213 0
M  V30 2999 H 272.495 -1.16682 0.843875 0
M  V30 3000 H 274.448 -4.21297 0.0933043 0
M  V30 3001 H 273.172 -3.20419 -0.632382 0
M  V30 3002 H 271.831 -3.34717 1.49533 0
M  V30 3003 H 271.479 -5.0191 -0.33102 0
M  V30 3004 H 271.179 -5.73674 1.27167 0
M  V30 3005 H 272.703 -6.09224 0.409669 0
M  V30 3006 H 274.117 -5.16688 2.48407 0
M  V30 3007 H 272.514 -5.03553 3.26427 0
M  V30 3008 H 273.584 -3.62257 3.22332 0
M  V30 3009 N 274.927 -0.932562 -1.27047 0
M  V30 3010 C 275.874 -0.434072 -2.26681 0
M  V30 3011 C 276.844 0.501639 -1.58344 0
M  V30 3012 O 278.029 0.419734 -1.86126 0
M  V30 3013 C 275.169 0.30261 -3.43771 0
M  V30 3014 C 274.282 -0.667774 -4.26808 0
M  V30 3015 C 273.417 0.0892393 -5.31125 0
M  V30 3016 C 272.456 -0.873532 -6.05835 0
M  V30 3017 N 271.593 -0.148832 -7.01942 0
M  V30 3018 H 276.433 -1.28868 -2.68695 0
M  V30 3019 H 273.97 -0.646713 -1.32121 0
M  V30 3020 H 275.928 0.746092 -4.10474 0
M  V30 3021 H 274.558 1.12142 -3.02695 0
M  V30 3022 H 273.61 -1.22978 -3.59973 0
M  V30 3023 H 274.922 -1.40337 -4.78651 0
M  V30 3024 H 274.076 0.592409 -6.03801 0
M  V30 3025 H 272.815 0.85777 -4.80097 0
M  V30 3026 H 271.82 -1.38791 -5.31994 0
M  V30 3027 H 273.045 -1.64193 -6.58952 0
M  V30 3028 H 270.991 0.601365 -6.53238 0
M  V30 3029 H 270.908 -0.82391 -7.51497 0
M  V30 3030 H 272.176 0.333527 -7.78786 0
M  V30 3031 N 276.405 1.4127 -0.698611 0
M  V30 3032 C 277.653 2.00782 -0.230409 0
M  V30 3033 C 277.974 1.5562 1.17505 0
M  V30 3034 O 277.244 0.78815 1.79346 0
M  V30 3035 H 275.824 0.742464 -0.0821944 0
M  V30 3036 H 278.486 1.72852 -0.90045 0
M  V30 3037 H 277.582 3.11095 -0.25021 0
M  V30 3038 N 277.883 0.443576 1.51229 0
M  V30 3039 C 278.813 -0.355142 2.30783 0
M  V30 3040 C 279.794 -1.0154 1.36468 0
M  V30 3041 O 280.979 -1.01785 1.65389 0
M  V30 3042 C 278.109 -1.45312 3.15439 0
M  V30 3043 C 277.063 -0.916002 4.18083 0
M  V30 3044 C 276.389 -2.1102 4.91299 0
M  V30 3045 C 277.689 0.0538602 5.22272 0
M  V30 3046 H 279.383 0.308767 2.97804 0
M  V30 3047 H 276.929 0.149937 1.43217 0
M  V30 3048 H 278.882 -2.01914 3.69876 0
M  V30 3049 H 277.606 -2.14541 2.46252 0
M  V30 3050 H 276.265 -0.372145 3.64706 0
M  V30 3051 H 275.913 -2.78882 4.18609 0
M  V30 3052 H 275.613 -1.75717 5.60712 0
M  V30 3053 H 277.137 -2.68164 5.48562 0
M  V30 3054 H 278.551 -0.422069 5.71744 0
M  V30 3055 H 276.948 0.319776 5.99247 0
M  V30 3056 H 278.018 0.98858 4.74716 0
M  V30 3057 N 279.361 -1.56624 0.175154 0
M  V30 3058 C 280.589 -2.01374 -0.474971 0
M  V30 3059 C 281.004 -1.05537 -1.56548 0
M  V30 3060 O 280.361 -0.0568668 -1.82411 0
M  V30 3061 C 280.412 -3.45923 -1.04975 0
M  V30 3062 O 280.133 -4.381 -0.00276605 0
M  V30 3063 C 281.634 -4.06093 -1.77773 0
M  V30 3064 H 278.854 -0.659962 -0.121206 0
M  V30 3065 H 281.398 -2.02601 0.27801 0
M  V30 3066 H 279.553 -3.45458 -1.75321 0
M  V30 3067 H 279.967 -5.22753 -0.427681 0
M  V30 3068 H 281.441 -5.09147 -2.13245 0
M  V30 3069 H 281.918 -3.48405 -2.67414 0
M  V30 3070 H 282.524 -4.10272 -1.12059 0
M  V30 3071 N 280.839 0.0985539 -1.57292 0
M  V30 3072 C 281.769 1.12064 -2.04851 0
M  V30 3073 C 282.75 1.41981 -0.936767 0
M  V30 3074 O 283.935 1.52071 -1.20781 0
M  V30 3075 C 281.065 2.44144 -2.47004 0
M  V30 3076 C 280.019 2.28643 -3.6181 0
M  V30 3077 C 279.345 3.65869 -3.89929 0
M  V30 3078 C 280.645 1.72986 -4.92822 0
M  V30 3079 H 282.339 0.724979 -2.9049 0
M  V30 3080 H 279.885 0.34729 -1.39749 0
M  V30 3081 H 281.838 3.15914 -2.78884 0
M  V30 3082 H 280.562 2.85639 -1.5836 0
M  V30 3083 H 279.221 1.59318 -3.30172 0
M  V30 3084 H 278.869 4.04885 -2.98458 0
M  V30 3085 H 278.569 3.56344 -4.67218 0
M  V30 3086 H 280.093 4.39112 -4.2428 0
M  V30 3087 H 281.507 2.34593 -5.23105 0
M  V30 3088 H 279.904 1.74229 -5.74251 0
M  V30 3089 H 280.974 0.689007 -4.7998 0
M  V30 3090 N 282.317 1.53212 0.369288 0
M  V30 3091 C 283.542 1.73423 1.1375 0
M  V30 3092 C 283.967 0.460404 1.82378 0
M  V30 3093 O 283.325 -0.585298 1.71592 0
M  V30 3094 C 283.373 2.89769 2.1463 0
M  V30 3095 O 282.477 2.58119 3.21634 0
M  V30 3096 H 281.818 0.576061 0.330227 0
M  V30 3097 H 284.348 2.00083 0.427547 0
M  V30 3098 H 284.358 3.15829 2.58294 0
M  V30 3099 H 283.033 3.8217 1.64071 0
M  V30 3100 H 281.61 2.42864 2.82969 0
M  V30 3101 N 283.795 -0.628877 1.44509 0
M  V30 3102 C 285.041 -1.38863 1.48623 0
M  V30 3103 C 285.396 -1.92038 0.117933 0
M  V30 3104 O 284.689 -1.70853 -0.86716 0
M  V30 3105 C 284.883 -2.56995 2.48371 0
M  V30 3106 C 284.712 -2.15385 3.94765 0
M  V30 3107 C 283.482 -2.02558 4.62924 0
M  V30 3108 C 285.68 -1.74158 4.83915 0
M  V30 3109 N 283.662 -1.54534 5.94132 0
M  V30 3110 C 285.033 -1.37396 6.04584 0
M  V30 3111 C 287.088 -1.61559 4.7096 0
M  V30 3112 C 285.791 -0.892948 7.13736 0
M  V30 3113 C 287.817 -1.14862 5.80139 0
M  V30 3114 C 287.179 -0.790516 6.9995 0
M  V30 3115 H 283.278 -0.502858 0.59888 0
M  V30 3116 H 285.862 -0.72121 1.8085 0
M  V30 3117 H 284.033 -3.21362 2.1813 0
M  V30 3118 H 285.765 -3.23801 2.42766 0
M  V30 3119 H 282.52 -2.23082 4.1777 0
M  V30 3120 H 282.944 -1.32815 6.63844 0
M  V30 3121 H 287.586 -1.87876 3.78764 0
M  V30 3122 H 285.304 -0.617291 8.05739 0
M  V30 3123 H 288.89 -1.05569 5.72142 0
M  V30 3124 H 287.77 -0.434713 7.82994 0
M  V30 3125 N 285.273 -1.31445 -0.869486 0
M  V30 3126 C 286.522 -1.20517 -1.61736 0
M  V30 3127 C 286.835 0.235341 -1.94179 0
M  V30 3128 O 288.041 0.466312 -2.67465 0
M  V30 3129 C 286.497 -2.10982 -2.91573 0
M  V30 3130 C 286.105 -3.60032 -2.66611 0
M  V30 3131 C 287.849 -2.08856 -3.69567 0
M  V30 3132 C 285.756 -4.42503 -3.92358 0
M  V30 3133 H 284.686 -0.447493 -0.606849 0
M  V30 3134 H 287.337 -1.56303 -0.96133 0
M  V30 3135 H 285.719 -1.68095 -3.58553 0
M  V30 3136 H 286.893 -4.11167 -2.08035 0
M  V30 3137 H 285.208 -3.64139 -2.0197 0
M  V30 3138 H 287.805 -2.67716 -4.62852 0
M  V30 3139 H 288.148 -1.07582 -4.02159 0
M  V30 3140 H 288.681 -2.49945 -3.09471 0
M  V30 3141 H 285.42 -5.44533 -3.64916 0
M  V30 3142 H 284.94 -3.96125 -4.50383 0
M  V30 3143 H 286.619 -4.54741 -4.60238 0
M  V30 3144 N 286.751 1.08385 -1.14413 0
M  V30 3145 C 287.999 1.80419 -0.910679 0
M  V30 3146 C 288.32 1.86658 0.564243 0
M  V30 3147 O 287.59 1.35985 1.41014 0
M  V30 3148 H 286.17 0.668204 -0.333934 0
M  V30 3149 H 288.832 1.31037 -1.44275 0
M  V30 3150 H 287.928 2.83238 -1.31082 0
M  V30 3151 N 288.23 0.939286 1.26551 0
M  V30 3152 C 289.507 0.5038 1.89001 0
M  V30 3153 C 289.887 -1.01854 1.84903 0
M  V30 3154 O 289.235 -1.87773 1.30206 0
M  V30 3155 C 289.445 1.063 3.32417 0
M  V30 3156 C 290.793 1.13051 4.09273 0
M  V30 3157 O 291.817 1.01345 3.41479 0
M  V30 3158 O 290.676 1.31233 5.30509 0
M  V30 3159 H 287.77 0.163897 0.810597 0
M  V30 3160 H 290.316 1.03173 1.34735 0
M  V30 3161 H 289.088 2.10665 3.29752 0
M  V30 3162 H 288.711 0.517408 3.94219 0
M  V30 3163 N 289.708 -1.40897 0.706093 0
M  V30 3164 C 290.956 -2.00657 0.241054 0
M  V30 3165 C 291.277 -1.56241 -1.16678 0
M  V30 3166 O 290.547 -0.79765 -1.78926 0
M  V30 3167 H 289.127 -0.742018 0.0861308 0
M  V30 3168 H 291.789 -1.72372 0.909604 0
M  V30 3169 H 290.885 -3.10958 0.266705 0
M  V30 3170 N 291.186 -0.45159 -1.50991 0
M  V30 3171 C 292.134 0.366864 -2.29689 0
M  V30 3172 C 293.128 1.00809 -1.36139 0
M  V30 3173 O 294.334 0.941427 -1.53418 0
M  V30 3174 H 290.709 0.137133 -0.739391 0
M  V30 3175 H 292.68 -0.317538 -2.96706 0
M  V30 3176 C 291.429 1.44751 -3.16137 0
M  V30 3177 H 290.752 0.963473 -3.88017 0
M  V30 3178 H 292.192 1.99315 -3.74232 0
M  V30 3179 C 290.651 2.43869 -2.32442 0
M  V30 3180 O 291.181 3.4872 -1.99392 0
M  V30 3181 N 289.387 2.15105 -1.95392 0
M  V30 3182 H 288.934 1.29866 -2.22469 0
M  V30 3183 H 288.892 2.81661 -1.39693 0
M  V30 3184 N 292.664 1.56529 -0.183458 0
M  V30 3185 C 293.612 2.19873 0.758845 0
M  V30 3186 C 294.606 1.16638 1.22849 0
M  V30 3187 O 295.812 1.3481 1.19274 0
M  V30 3188 H 292.187 0.7045 0.263029 0
M  V30 3189 H 294.158 2.97724 0.200755 0
M  V30 3190 C 292.907 2.86314 1.9728 0
M  V30 3191 H 292.23 3.65487 1.62047 0
M  V30 3192 H 293.67 3.3409 2.61075 0
M  V30 3193 C 292.129 1.86729 2.80418 0
M  V30 3194 O 292.659 1.36031 3.77966 0
M  V30 3195 N 290.865 1.55216 2.45675 0
M  V30 3196 H 290.412 1.96636 1.66409 0
M  V30 3197 H 290.37 0.888388 3.01588 0
M  V30 3198 N 294.142 -0.090211 1.57342 0
M  V30 3199 C 295.391 -0.791531 1.8552 0
M  V30 3200 C 295.704 -1.79659 0.773441 0
M  V30 3201 O 296.91 -2.54616 0.942497 0
M  V30 3202 C 295.366 -1.45856 3.2902 0
M  V30 3203 C 294.974 -0.493017 4.45279 0
M  V30 3204 C 296.718 -2.14332 3.66418 0
M  V30 3205 C 294.625 -1.16491 5.79814 0
M  V30 3206 H 293.555 -0.299356 0.692027 0
M  V30 3207 H 296.206 -0.0445343 1.83446 0
M  V30 3208 H 294.588 -2.25318 3.2565 0
M  V30 3209 H 295.762 0.270464 4.60006 0
M  V30 3210 H 294.077 0.0863061 4.16311 0
M  V30 3211 H 296.674 -2.65344 4.64216 0
M  V30 3212 H 297.017 -2.93447 2.95287 0
M  V30 3213 H 297.55 -1.41724 3.71698 0
M  V30 3214 H 294.289 -0.41447 6.54188 0
M  V30 3215 H 293.809 -1.8997 5.68921 0
M  V30 3216 H 295.488 -1.69001 6.24538 0
M  V30 3217 N 295.62 -1.53406 -0.361157 0
M  V30 3218 C 296.55 -1.83136 -1.44857 0
M  V30 3219 C 297.531 -0.685174 -1.5569 0
M  V30 3220 O 298.716 -0.93544 -1.70186 0
M  V30 3221 C 295.846 -2.02522 -2.82138 0
M  V30 3222 C 294.8 -3.18302 -2.86126 0
M  V30 3223 C 294.126 -3.22989 -4.26125 0
M  V30 3224 C 295.426 -4.56796 -2.53248 0
M  V30 3225 H 297.12 -2.74201 -1.20226 0
M  V30 3226 H 294.666 -1.31938 -0.576922 0
M  V30 3227 H 296.619 -2.21904 -3.58241 0
M  V30 3228 H 295.343 -1.08172 -3.08166 0
M  V30 3229 H 294.002 -2.98747 -2.12475 0
M  V30 3230 H 293.65 -2.26267 -4.49235 0
M  V30 3231 H 293.35 -4.00781 -4.29708 0
M  V30 3232 H 294.874 -3.44559 -5.04094 0
M  V30 3233 H 296.288 -4.7631 -3.19064 0
M  V30 3234 H 294.685 -5.36862 -2.68141 0
M  V30 3235 H 295.755 -4.61606 -1.48484 0
M  V30 3236 N 297.098 0.621204 -1.44841 0
M  V30 3237 C 298.048 1.72663 -1.48901 0
M  V30 3238 C 299.032 1.56964 -0.353702 0
M  V30 3239 O 300.224 1.66532 -0.599669 0
M  V30 3240 C 297.353 3.11381 -1.44557 0
M  V30 3241 C 296.439 3.32514 -2.6324 0
M  V30 3242 N 296.83 3.23969 -3.8843 0
M  V30 3243 C 295.128 3.63343 -2.58647 0
M  V30 3244 C 295.829 3.46062 -4.67564 0
M  V30 3245 N 294.805 3.69407 -3.98797 0
M  V30 3246 H 298.607 1.64529 -2.43531 0
M  V30 3247 H 296.121 0.82401 -1.39942 0
M  V30 3248 H 298.118 3.90667 -1.4555 0
M  V30 3249 H 296.778 3.20674 -0.509731 0
M  V30 3250 H 297.789 3.02669 -4.20252 0
M  V30 3251 H 294.466 3.79556 -1.73906 0
M  V30 3252 H 295.856 3.44963 -5.76585 0
M  V30 3253 N 298.576 1.31904 0.862503 0
M  V30 3254 C 299.801 1.25135 1.65397 0
M  V30 3255 C 300.226 -0.179 1.87246 0
M  V30 3256 O 299.584 -1.1277 1.4196 0
M  V30 3257 C 299.632 2.00832 2.99498 0
M  V30 3258 O 298.736 1.35075 3.89652 0
M  V30 3259 H 298.077 0.431655 0.504549 0
M  V30 3260 H 300.607 1.74094 1.07483 0
M  V30 3261 H 300.617 2.10709 3.49379 0
M  V30 3262 H 299.292 3.04847 2.82916 0
M  V30 3263 H 297.869 1.33696 3.48109 0
M  V30 3264 N 300.054 -1.07777 1.14986 0
M  V30 3265 C 301.303 -1.79669 0.916617 0
M  V30 3266 C 301.616 -1.87474 -0.557917 0
M  V30 3267 O 302.822 -2.55845 -0.908617 0
M  V30 3268 C 301.278 -3.22848 1.59051 0
M  V30 3269 C 300.886 -3.23257 3.10176 0
M  V30 3270 C 302.63 -3.99379 1.43864 0
M  V30 3271 C 300.537 -4.61063 3.70372 0
M  V30 3272 H 299.467 -0.673349 0.33929 0
M  V30 3273 H 302.118 -1.21003 1.37951 0
M  V30 3274 H 300.5 -3.8168 1.0553 0
M  V30 3275 H 301.674 -2.74095 3.70417 0
M  V30 3276 H 299.989 -2.60222 3.25074 0
M  V30 3277 H 302.586 -5.0122 1.86232 0
M  V30 3278 H 302.929 -4.14511 0.385564 0
M  V30 3279 H 303.462 -3.47032 1.94457 0
M  V30 3280 H 300.201 -4.51135 4.7556 0
M  V30 3281 H 299.721 -5.1048 3.14913 0
M  V30 3282 H 301.4 -5.30034 3.71043 0
M  V30 3283 N 301.532 -0.945985 -1.26051 0
M  V30 3284 C 302.465 -0.403619 -2.24602 0
M  V30 3285 C 303.443 0.510241 -1.54387 0
M  V30 3286 O 304.627 0.446593 -1.83133 0
M  V30 3287 C 301.754 0.419564 -3.36091 0
M  V30 3288 C 300.8 -0.433454 -4.24292 0
M  V30 3289 S 301.633 -1.86037 -5.02146 0
M  V30 3290 C 302.789 -1.04538 -6.17108 0
M  V30 3291 H 303.022 -1.23883 -2.7026 0
M  V30 3292 H 300.555 -0.749438 -1.34992 0
M  V30 3293 H 302.513 0.888595 -4.00767 0
M  V30 3294 H 301.174 1.22951 -2.89036 0
M  V30 3295 H 300.367 0.197486 -5.03613 0
M  V30 3296 H 299.969 -0.837357 -3.64506 0
M  V30 3297 H 302.261 -0.289923 -6.76879 0
M  V30 3298 H 303.204 -1.81222 -6.84518 0
M  V30 3299 H 303.612 -0.579319 -5.61519 0
M  V30 3300 N 303.011 1.40521 -0.713556 0
M  V30 3301 C 303.944 2.28198 -0.00881422 0
M  V30 3302 C 304.922 1.43227 0.769735 0
M  V30 3303 O 306.106 1.72641 0.756799 0
M  V30 3304 C 303.233 3.23758 0.994899 0
M  V30 3305 C 302.279 4.25391 0.3074 0
M  V30 3306 S 303.112 5.26765 -0.963247 0
M  V30 3307 C 304.268 6.25888 0.0384143 0
M  V30 3308 H 304.501 2.87622 -0.752407 0
M  V30 3309 H 302.034 1.45925 -0.504502 0
M  V30 3310 H 303.992 3.79341 1.56879 0
M  V30 3311 H 302.653 2.63396 1.71118 0
M  V30 3312 H 301.846 4.92596 1.0661 0
M  V30 3313 H 301.448 3.73497 -0.193879 0
M  V30 3314 H 303.74 6.71683 0.885912 0
M  V30 3315 H 304.683 7.05552 -0.60019 0
M  V30 3316 H 305.091 5.63072 0.401233 0
M  V30 3317 N 304.489 0.459591 1.5075 0
M  V30 3318 C 305.714 -0.0996819 2.0716 0
M  V30 3319 C 306.139 -1.33761 1.32249 0
M  V30 3320 O 305.497 -1.77551 0.366786 0
M  V30 3321 C 305.545 -0.378226 3.58611 0
M  V30 3322 O 304.649 -1.46081 3.85661 0
M  V30 3323 H 303.99 0.00791392 0.663953 0
M  V30 3324 H 306.52 0.647329 1.9409 0
M  V30 3325 H 306.53 -0.622135 4.03229 0
M  V30 3326 H 305.205 0.526439 4.12555 0
M  V30 3327 H 303.782 -1.20511 3.5289 0
M  V30 3328 N 305.967 -1.56429 0.191757 0
M  V30 3329 C 306.93 -2.17707 -0.716688 0
M  V30 3330 C 307.93 -1.13061 -1.14341 0
M  V30 3331 O 309.12 -1.38464 -1.05704 0
M  V30 3332 C 306.252 -2.77644 -1.97804 0
M  V30 3333 H 307.445 -2.99342 -0.1829 0
M  V30 3334 H 304.998 -1.56193 -0.0578566 0
M  V30 3335 H 305.733 -1.99799 -2.55443 0
M  V30 3336 H 305.518 -3.54246 -1.68083 0
M  V30 3337 H 307.008 -3.24708 -2.62592 0
M  V30 3338 N 307.445 0.0818655 -1.57387 0
M  V30 3339 C 308.408 1.08265 -2.02018 0
M  V30 3340 C 309.408 1.32183 -0.915664 0
M  V30 3341 O 310.598 1.28073 -1.18081 0
M  V30 3342 C 307.73 2.42871 -2.39221 0
M  V30 3343 H 308.923 0.698204 -2.91659 0
M  V30 3344 H 306.476 0.327303 -1.52835 0
M  V30 3345 H 307.211 2.86167 -1.52575 0
M  V30 3346 H 306.996 2.26855 -3.19811 0
M  V30 3347 H 308.486 3.14826 -2.74362 0
M  V30 3348 N 308.923 1.53595 0.353017 0
M  V30 3349 C 309.87 1.80919 1.43308 0
M  V30 3350 C 310.84 0.654288 1.5267 0
M  V30 3351 O 312.025 0.897759 1.6836 0
M  V30 3352 C 309.165 2.01605 2.80089 0
M  V30 3353 C 308.278 3.29321 2.79593 0
M  V30 3354 C 307.413 3.40125 4.0803 0
M  V30 3355 C 306.452 4.61826 4.01725 0
M  V30 3356 N 305.589 4.69716 5.21834 0
M  V30 3357 H 310.429 2.73074 1.19308 0
M  V30 3358 H 307.966 1.35263 0.578131 0
M  V30 3359 H 309.924 2.11586 3.59565 0
M  V30 3360 H 308.554 1.12772 3.0246 0
M  V30 3361 H 307.606 3.28229 1.92276 0
M  V30 3362 H 308.918 4.18884 2.70809 0
M  V30 3363 H 308.072 3.49488 4.95927 0
M  V30 3364 H 306.811 2.48601 4.19582 0
M  V30 3365 H 305.816 4.52552 3.12213 0
M  V30 3366 H 307.041 5.54705 3.91764 0
M  V30 3367 H 304.987 3.81097 5.33948 0
M  V30 3368 H 304.904 5.53202 5.1527 0
M  V30 3369 H 306.172 4.83376 6.11529 0
M  V30 3370 N 310.401 -0.613514 1.45168 0
M  V30 3371 C 311.648 -1.37268 1.48875 0
M  V30 3372 C 311.976 -1.94077 0.128161 0
M  V30 3373 O 311.231 -1.75178 -0.872416 0
M  V30 3374 C 311.53 -2.54347 2.51083 0
M  V30 3375 C 311.196 -2.1572 3.95949 0
M  V30 3376 C 309.858 -2.04899 4.35396 0
M  V30 3377 C 312.21 -1.85485 4.87078 0
M  V30 3378 C 309.538 -1.62057 5.63875 0
M  V30 3379 C 311.89 -1.4413 6.15962 0
M  V30 3380 C 310.554 -1.31863 6.54346 0
M  V30 3381 H 309.824 -0.502299 0.544773 0
M  V30 3382 H 312.471 -0.694021 1.78481 0
M  V30 3383 H 310.776 -3.27524 2.15024 0
M  V30 3384 H 312.473 -3.12577 2.51191 0
M  V30 3385 H 309.063 -2.25066 3.64751 0
M  V30 3386 H 313.247 -1.92745 4.57343 0
M  V30 3387 H 308.503 -1.51177 5.92415 0
M  V30 3388 H 312.677 -1.19778 6.86022 0
M  V30 3389 H 310.304 -0.984392 7.538 0
M  V30 3390 N 311.879 -1.3236 -0.855495 0
M  V30 3391 C 313.127 -1.22629 -1.60644 0
M  V30 3392 C 313.448 0.212136 -1.93843 0
M  V30 3393 O 312.718 1.13666 -1.59552 0
M  V30 3394 H 311.298 -0.450882 -0.595579 0
M  V30 3395 H 313.96 -1.65871 -1.02337 0
M  V30 3396 H 313.056 -1.80832 -2.54374 0
M  V30 3397 N 313.357 1.07166 -1.15556 0
M  V30 3398 C 314.29 2.13808 -0.797593 0
M  V30 3399 C 315.268 1.6101 0.226812 0
M  V30 3400 O 316.452 1.88161 0.112932 0
M  V30 3401 C 313.579 3.38187 -0.186371 0
M  V30 3402 C 312.625 4.09766 -1.18297 0
M  V30 3403 S 313.458 4.60932 -2.72584 0
M  V30 3404 C 314.614 5.88583 -2.12886 0
M  V30 3405 H 314.847 2.43843 -1.70083 0
M  V30 3406 H 312.38 1.19467 -0.978106 0
M  V30 3407 H 314.338 4.10189 0.159837 0
M  V30 3408 H 312.999 3.06326 0.694489 0
M  V30 3409 H 312.192 4.99065 -0.703562 0
M  V30 3410 H 311.794 3.43736 -1.47381 0
M  V30 3411 H 314.086 6.60866 -1.49208 0
M  V30 3412 H 315.029 6.41241 -3.0036 0
M  V30 3413 H 315.437 5.42194 -1.57116 0
M  V30 3414 N 314.835 0.952656 1.25548 0
M  V30 3415 C 315.785 0.442033 2.23674 0
M  V30 3416 C 316.769 -0.467632 1.53955 0
M  V30 3417 O 317.961 -0.301006 1.74422 0
M  V30 3418 C 315.09 -0.280816 3.4215 0
M  V30 3419 C 314.176 0.646803 4.19139 0
M  V30 3420 N 314.567 1.77759 4.73535 0
M  V30 3421 C 312.865 0.454617 4.43677 0
M  V30 3422 C 313.566 2.35658 5.31827 0
M  V30 3423 N 312.542 1.64333 5.18166 0
M  V30 3424 H 316.344 1.30505 2.63336 0
M  V30 3425 H 313.858 0.809904 1.40763 0
M  V30 3426 H 315.855 -0.663747 4.11582 0
M  V30 3427 H 314.515 -1.14046 3.04012 0
M  V30 3428 H 315.526 2.15949 4.7073 0
M  V30 3429 H 312.203 -0.362312 4.15925 0
M  V30 3430 H 313.593 3.30998 5.84713 0
M  V30 3431 N 316.313 -1.40141 0.720998 0
M  V30 3432 C 317.243 -2.33339 0.0867621 0
M  V30 3433 C 318.224 -1.53178 -0.739622 0
M  V30 3434 O 319.409 -1.81625 -0.687449 0
M  V30 3435 C 316.539 -3.37194 -0.831728 0
M  V30 3436 C 315.493 -4.27857 -0.110558 0
M  V30 3437 C 314.819 -5.22294 -1.14513 0
M  V30 3438 C 316.119 -5.11872 1.0385 0
M  V30 3439 H 317.813 -2.86626 0.865219 0
M  V30 3440 H 315.359 -1.37814 0.417516 0
M  V30 3441 H 317.312 -4.01335 -1.28485 0
M  V30 3442 H 316.036 -2.82314 -1.64214 0
M  V30 3443 H 314.695 -3.65176 0.322797 0
M  V30 3444 H 314.343 -4.63717 -1.94874 0
M  V30 3445 H 314.043 -5.83797 -0.667446 0
M  V30 3446 H 315.567 -5.89312 -1.59824 0
M  V30 3447 H 316.981 -5.69436 0.664482 0
M  V30 3448 H 315.378 -5.82445 1.4449 0
M  V30 3449 H 316.448 -4.4753 1.86668 0
M  V30 3450 N 317.792 -0.46758 -1.50504 0
M  V30 3451 C 318.724 0.364655 -2.26281 0
M  V30 3452 C 319.737 0.960151 -1.31472 0
M  V30 3453 O 320.926 0.849153 -1.57008 0
M  V30 3454 C 318.026 1.52509 -3.02645 0
M  V30 3455 C 317.199 1.04302 -4.24782 0
M  V30 3456 C 316.258 2.07709 -4.8347 0
M  V30 3457 O 315.284 1.65913 -5.44483 0
M  V30 3458 N 316.486 3.40485 -4.70159 0
M  V30 3459 H 319.251 -0.28495 -2.98342 0
M  V30 3460 H 316.812 -0.298163 -1.59131 0
M  V30 3461 H 318.804 2.21371 -3.38787 0
M  V30 3462 H 317.374 2.07945 -2.33404 0
M  V30 3463 H 316.594 0.180393 -3.93787 0
M  V30 3464 H 317.882 0.698798 -5.03978 0
M  V30 3465 H 317.28 3.77155 -4.21629 0
M  V30 3466 H 315.837 4.05156 -5.1058 0
M  V30 3467 N 319.27 1.56325 -0.20005 0
M  V30 3468 C 320.233 2.18084 0.705132 0
M  V30 3469 C 321.233 1.13666 1.1374 0
M  V30 3470 O 322.423 1.39023 1.04968 0
M  V30 3471 C 319.555 2.78689 1.96329 0
M  V30 3472 H 320.748 2.99435 0.167023 0
M  V30 3473 H 318.301 1.56221 0.0495725 0
M  V30 3474 H 319.036 2.0115 2.5438 0
M  V30 3475 H 318.821 3.55133 1.66202 0
M  V30 3476 H 320.311 3.26096 2.60866 0
M  V30 3477 N 320.748 -0.0735177 1.57428 0
M  V30 3478 C 321.711 -1.07192 2.02589 0
M  V30 3479 C 322.711 -1.31695 0.922661 0
M  V30 3480 O 323.901 -1.27445 1.18758 0
M  V30 3481 C 321.033 -2.41599 2.40506 0
M  V30 3482 H 322.226 -0.682727 2.92025 0
M  V30 3483 H 319.779 -0.319193 1.53006 0
M  V30 3484 H 320.514 -2.85354 1.5409 0
M  V30 3485 H 320.299 -2.25156 3.21009 0
M  V30 3486 H 321.789 -3.13367 2.76027 0
M  V30 3487 N 322.226 -1.5378 -0.344866 0
M  V30 3488 C 323.454 -1.74899 -1.10534 0
M  V30 3489 C 323.869 -0.487534 -1.82397 0
M  V30 3490 O 323.226 0.540741 -1.74305 0
M  V30 3491 C 323.277 -2.92822 -2.11984 0
M  V30 3492 O 322.998 -4.14089 -1.43044 0
M  V30 3493 C 324.499 -3.25982 -3.00417 0
M  V30 3494 H 321.719 -0.584426 -0.329678 0
M  V30 3495 H 324.263 -2.006 -0.397474 0
M  V30 3496 H 322.418 -2.69457 -2.78338 0
M  V30 3497 H 322.832 -4.80272 -2.10805 0
M  V30 3498 H 324.306 -4.11848 -3.67539 0
M  V30 3499 H 324.783 -2.42228 -3.66363 0
M  V30 3500 H 325.389 -3.51349 -2.39654 0
M  V30 3501 N 323.704 0.605807 -1.45491 0
M  V30 3502 C 325.115 1.18777 -1.44045 0
M  V30 3503 C 325.466 1.95471 -0.169001 0
M  V30 3504 O 324.591 2.0374 0.729324 0
M  V30 3505 C 325.186 2.16064 -2.60963 0
M  V30 3506 C 323.745 2.69633 -2.62631 0
M  V30 3507 C 322.892 1.45072 -2.36325 0
M  V30 3508 H 325.843 0.395017 -1.53705 0
M  V30 3509 H 325.864 2.9913 -2.35163 0
M  V30 3510 H 325.376 1.60217 -3.53486 0
M  V30 3511 H 323.477 3.29414 -1.74119 0
M  V30 3512 H 323.59 3.13944 -3.61906 0
M  V30 3513 H 321.954 1.74089 -1.85917 0
M  V30 3514 H 322.737 0.910899 -3.30995 0
M  V30 3515 N 325.182 1.32811 0.848464 0
M  V30 3516 C 326.129 1.22265 1.95755 0
M  V30 3517 C 327.099 0.103413 1.65778 0
M  V30 3518 O 328.284 0.280033 1.88734 0
M  V30 3519 C 325.424 0.958014 3.31536 0
M  V30 3520 C 324.537 2.16262 3.73971 0
M  V30 3521 C 323.672 1.83295 4.98575 0
M  V30 3522 C 322.711 3.00041 5.33518 0
M  V30 3523 N 321.848 2.67125 6.49299 0
M  V30 3524 H 326.688 2.17128 2.04107 0
M  V30 3525 H 324.225 1.07982 0.998913 0
M  V30 3526 H 326.183 0.785052 4.09747 0
M  V30 3527 H 324.813 0.046159 3.22767 0
M  V30 3528 H 323.865 2.44565 2.91362 0
M  V30 3529 H 325.177 3.03572 3.95785 0
M  V30 3530 H 324.331 1.62586 5.84509 0
M  V30 3531 H 323.07 0.932078 4.7871 0
M  V30 3532 H 322.075 3.21374 4.46093 0
M  V30 3533 H 323.3 3.90869 5.55336 0
M  V30 3534 H 321.246 1.79586 6.3094 0
M  V30 3535 H 321.163 3.47965 6.71161 0
M  V30 3536 H 322.431 2.49861 7.3837 0
M  V30 3537 N 326.66 -1.06551 1.16123 0
M  V30 3538 C 327.908 -1.78947 0.939267 0
M  V30 3539 C 328.229 -1.87532 -0.534476 0
M  V30 3540 O 327.499 -1.38211 -1.38833 0
M  V30 3541 H 326.079 -0.662807 0.344523 0
M  V30 3542 H 328.741 -1.28725 1.46342 0
M  V30 3543 H 327.837 -2.81117 1.35572 0
M  V30 3544 N 328.138 -0.959301 -1.25041 0
M  V30 3545 C 329.368 -0.63303 -1.96663 0
M  V30 3546 C 329.776 0.800031 -1.71453 0
M  V30 3547 O 329.119 1.54736 -0.99008 0
M  V30 3548 C 329.181 -0.817523 -3.50081 0
M  V30 3549 C 328.845 -2.22863 -3.98975 0
M  V30 3550 C 329.842 -3.20569 -4.09306 0
M  V30 3551 C 327.527 -2.55407 -4.32519 0
M  V30 3552 C 329.521 -4.4891 -4.52503 0
M  V30 3553 C 327.208 -3.83976 -4.754 0
M  V30 3554 C 328.206 -4.8054 -4.85356 0
M  V30 3555 O 327.894 -6.06817 -5.27284 0
M  V30 3556 H 327.626 -0.235866 -0.633516 0
M  V30 3557 H 330.18 -1.2874 -1.60047 0
M  V30 3558 H 328.41 -0.105992 -3.86555 0
M  V30 3559 H 330.099 -0.491604 -4.02912 0
M  V30 3560 H 330.865 -2.96753 -3.83618 0
M  V30 3561 H 326.744 -1.8097 -4.23994 0
M  V30 3562 H 330.288 -5.24283 -4.60188 0
M  V30 3563 H 326.185 -4.07596 -5.00535 0
M  V30 3564 H 326.953 -6.10262 -5.45457 0
M  V30 3565 N 329.616 1.39756 -0.72842 0
M  V30 3566 C 330.526 2.34444 -0.0855374 0
M  V30 3567 C 331.542 1.57976 0.729356 0
M  V30 3568 O 332.718 1.90301 0.659346 0
M  V30 3569 C 329.783 3.36965 0.815798 0
M  V30 3570 C 328.844 4.29299 -0.0105996 0
M  V30 3571 C 328.077 5.26923 0.84781 0
M  V30 3572 O 328.3 5.30859 2.08673 0
M  V30 3573 O 327.234 6.01249 0.279969 0
M  V30 3574 H 331.06 2.91065 -0.866892 0
M  V30 3575 H 328.645 1.4117 -0.48902 0
M  V30 3576 H 330.527 3.99804 1.33171 0
M  V30 3577 H 329.202 2.82739 1.57608 0
M  V30 3578 H 328.109 3.69703 -0.571877 0
M  V30 3579 H 329.442 4.86712 -0.73295 0
M  V30 3580 N 331.094 0.475555 1.50254 0
M  V30 3581 C 332.505 0.0215174 1.86688 0
M  V30 3582 C 332.856 -1.38467 1.39001 0
M  V30 3583 O 331.981 -2.02732 0.756894 0
M  V30 3584 C 332.576 0.0322715 3.38785 0
M  V30 3585 C 331.135 -0.366314 3.74613 0
M  V30 3586 C 330.282 0.415832 2.74164 0
M  V30 3587 H 333.233 0.689612 1.42934 0
M  V30 3588 H 333.254 -0.76889 3.7265 0
M  V30 3589 H 332.766 1.05584 3.73462 0
M  V30 3590 H 330.867 -1.39406 3.45538 0
M  V30 3591 H 330.98 -0.064555 4.79057 0
M  V30 3592 H 329.344 -0.131048 2.54363 0
M  V30 3593 H 330.127 1.43899 3.11686 0
M  V30 3594 N 332.573 -1.56217 0.208337 0
M  V30 3595 C 333.85 -1.89739 -0.475234 0
M  V30 3596 C 334.23 -1.1238 -1.78701 0
M  V30 3597 O 333.578 -0.228979 -2.2735 0
M  V30 3598 C 333.788 -3.42289 -0.681101 0
M  V30 3599 C 335.136 -4.12789 -0.994507 0
M  V30 3600 O 336.16 -3.47814 -0.768357 0
M  V30 3601 O 335.019 -5.27649 -1.42299 0
M  V30 3602 H 332.113 -0.788478 -0.249461 0
M  V30 3603 H 334.659 -1.67855 0.249538 0
M  V30 3604 H 333.431 -3.90534 0.244722 0
M  V30 3605 H 333.054 -3.69909 -1.45785 0
M  V30 3606 N 334.051 0.0651679 -1.57465 0
M  V30 3607 C 335.014 1.06117 -2.03155 0
M  V30 3608 C 336.014 1.31204 -0.929632 0
M  V30 3609 O 337.204 1.26813 -1.19432 0
M  V30 3610 C 334.336 2.4032 -2.41783 0
M  V30 3611 H 335.529 0.667231 -2.92383 0
M  V30 3612 H 333.082 0.311075 -1.53173 0
M  V30 3613 H 333.817 2.84532 -1.55601 0
M  V30 3614 H 333.602 2.23451 -3.22199 0
M  V30 3615 H 335.092 3.11898 -2.77685 0
M  V30 3616 N 335.529 1.53961 0.336706 0
M  V30 3617 C 336.754 1.75797 1.10046 0
M  V30 3618 C 337.179 0.498985 1.81361 0
M  V30 3619 O 336.537 -0.548769 1.72795 0
M  V30 3620 C 336.585 2.94257 2.08436 0
M  V30 3621 O 335.689 2.64883 3.16087 0
M  V30 3622 H 335.03 0.582936 0.317934 0
M  V30 3623 H 337.56 2.00945 0.38501 0
M  V30 3624 H 337.57 3.21237 2.51537 0
M  V30 3625 H 336.245 3.85564 1.55927 0
M  V30 3626 H 334.822 2.48812 2.77753 0
M  V30 3627 N 337.007 -0.598083 1.45811 0
M  V30 3628 C 338.253 -1.35882 1.50545 0
M  V30 3629 C 338.586 -1.93616 0.150445 0
M  V30 3630 O 337.861 -1.75604 -0.83628 0
M  V30 3631 C 338.144 -2.49966 2.59208 0
M  V30 3632 C 337.997 -1.97367 4.04186 0
M  V30 3633 C 339.316 -3.52068 2.64076 0
M  V30 3634 H 336.435 -0.492717 0.548087 0
M  V30 3635 H 339.077 -0.673319 1.77669 0
M  V30 3636 H 337.227 -3.08443 2.3621 0
M  V30 3637 H 338.899 -1.43466 4.38423 0
M  V30 3638 H 337.142 -1.283 4.14393 0
M  V30 3639 H 337.813 -2.79649 4.75921 0
M  V30 3640 H 340.289 -3.03448 2.84708 0
M  V30 3641 H 339.165 -4.2937 3.41954 0
M  V30 3642 H 339.426 -4.08304 1.69531 0
M  V30 3643 N 338.485 -1.33259 -0.841409 0
M  V30 3644 C 339.713 -1.27605 -1.62864 0
M  V30 3645 C 340.128 0.153507 -1.88175 0
M  V30 3646 O 339.485 1.09485 -1.46011 0
M  V30 3647 C 339.536 -2.04596 -2.98031 0
M  V30 3648 O 339.257 -3.41975 -2.73834 0
M  V30 3649 C 340.758 -2.06122 -3.92465 0
M  V30 3650 H 337.978 -0.439718 -0.506842 0
M  V30 3651 H 340.522 -1.75591 -1.04824 0
M  V30 3652 H 338.677 -1.60299 -3.5268 0
M  V30 3653 H 339.091 -3.81549 -3.59889 0
M  V30 3654 H 340.565 -2.64451 -4.84531 0
M  V30 3655 H 341.042 -1.05083 -4.26444 0
M  V30 3656 H 341.648 -2.50427 -3.43753 0
M  V30 3657 N 339.963 1.05934 -1.16686 0
M  V30 3658 C 340.91 2.13499 -0.876748 0
M  V30 3659 C 341.88 1.65162 0.176299 0
M  V30 3660 O 343.065 1.90757 0.0407143 0
M  V30 3661 C 340.205 3.42912 -0.387967 0
M  V30 3662 C 339.318 4.04964 -1.50426 0
M  V30 3663 C 338.453 5.22266 -0.970125 0
M  V30 3664 C 337.492 5.76309 -2.06238 0
M  V30 3665 N 336.629 6.84922 -1.54356 0
M  V30 3666 H 341.469 2.37654 -1.7979 0
M  V30 3667 H 339.006 1.16598 -0.896843 0
M  V30 3668 H 340.964 4.17111 -0.086186 0
M  V30 3669 H 339.594 3.18963 0.496235 0
M  V30 3670 H 338.646 3.28277 -1.92193 0
M  V30 3671 H 339.958 4.41122 -2.32836 0
M  V30 3672 H 339.112 6.03506 -0.621743 0
M  V30 3673 H 337.851 4.87564 -0.115377 0
M  V30 3674 H 336.856 4.93704 -2.41942 0
M  V30 3675 H 338.081 6.13062 -2.92115 0
M  V30 3676 H 336.027 6.52131 -0.711406 0
M  V30 3677 H 335.944 7.20043 -2.30379 0
M  V30 3678 H 337.212 7.69832 -1.22387 0
M  V30 3679 N 341.441 0.965919 1.2453 0
M  V30 3680 C 342.371 0.513476 2.27784 0
M  V30 3681 C 343.352 -0.445974 1.6415 0
M  V30 3682 O 344.537 -0.342485 1.91156 0
M  V30 3683 C 341.667 -0.198839 3.4673 0
M  V30 3684 C 340.621 0.676456 4.2262 0
M  V30 3685 C 339.947 -0.167248 5.34438 0
M  V30 3686 C 341.247 1.96017 4.84123 0
M  V30 3687 H 342.941 1.3765 2.65881 0
M  V30 3688 H 340.487 0.663321 1.27813 0
M  V30 3689 H 342.44 -0.526567 4.18097 0
M  V30 3690 H 341.164 -1.0962 3.07654 0
M  V30 3691 H 339.823 0.98743 3.53052 0
M  V30 3692 H 339.471 -1.0647 4.91603 0
M  V30 3693 H 339.171 0.415181 5.86131 0
M  V30 3694 H 340.695 -0.489688 6.08633 0
M  V30 3695 H 342.109 1.69814 5.47573 0
M  V30 3696 H 340.506 2.48918 5.4604 0
M  V30 3697 H 341.576 2.65622 4.05676 0
M  V30 3698 N 342.919 -1.39368 0.735821 0
M  V30 3699 C 343.882 -2.2896 0.104874 0
M  V30 3700 C 344.882 -1.46347 -0.666274 0
M  V30 3701 O 346.072 -1.67014 -0.49517 0
M  V30 3702 C 343.204 -3.29857 -0.860656 0
M  V30 3703 H 344.397 -2.86259 0.894205 0
M  V30 3704 H 341.95 -1.48029 0.501704 0
M  V30 3705 H 342.685 -2.77615 -1.67631 0
M  V30 3706 H 342.47 -3.9087 -0.310327 0
M  V30 3707 H 343.96 -3.96893 -1.29867 0
M  V30 3708 N 344.397 -0.483516 -1.5 0
M  V30 3709 C 345.307 0.309172 -2.32554 0
M  V30 3710 C 346.323 0.984159 -1.43493 0
M  V30 3711 O 347.499 0.969399 -1.76535 0
M  V30 3712 C 344.564 1.36979 -3.18493 0
M  V30 3713 C 343.625 0.710095 -4.23387 0
M  V30 3714 C 342.858 1.72018 -5.05218 0
M  V30 3715 O 343.081 2.94813 -4.88305 0
M  V30 3716 O 342.015 1.28515 -5.8802 0
M  V30 3717 H 345.841 -0.366064 -3.01486 0
M  V30 3718 H 343.426 -0.24514 -1.47375 0
M  V30 3719 H 345.308 1.98385 -3.71781 0
M  V30 3720 H 343.983 2.02828 -2.52275 0
M  V30 3721 H 342.89 0.0567539 -3.74057 0
M  V30 3722 H 344.223 0.0943557 -4.9211 0
M  V30 3723 N 345.875 1.56104 -0.216619 0
M  V30 3724 C 346.807 2.17339 0.72776 0
M  V30 3725 C 347.82 1.14109 1.16116 0
M  V30 3726 O 349.009 1.4111 1.09317 0
M  V30 3727 C 346.109 2.73818 1.99693 0
M  V30 3728 C 345.282 4.02168 1.71988 0
M  V30 3729 C 344.341 4.43259 2.83562 0
M  V30 3730 O 343.367 5.10257 2.52244 0
M  V30 3731 N 344.569 4.08535 4.12407 0
M  V30 3732 H 347.334 2.99005 0.203983 0
M  V30 3733 H 344.895 1.61861 -0.0354289 0
M  V30 3734 H 346.887 2.9828 2.73516 0
M  V30 3735 H 345.457 1.96483 2.43132 0
M  V30 3736 H 344.677 3.85612 0.818337 0
M  V30 3737 H 345.965 4.85907 1.50903 0
M  V30 3738 H 345.363 3.54687 4.40696 0
M  V30 3739 H 343.92 4.37901 4.8279 0
M  V30 3740 N 347.353 -0.0568162 1.57498 0
M  V30 3741 C 348.583 -0.764515 1.91934 0
M  V30 3742 C 348.991 -1.70877 0.81227 0
M  V30 3743 O 348.334 -1.82351 -0.222213 0
M  V30 3744 C 348.396 -1.5994 3.21962 0
M  V30 3745 C 348.06 -0.822925 4.4953 0
M  V30 3746 C 349.057 -0.135464 5.19723 0
M  V30 3747 C 346.742 -0.785666 4.96117 0
M  V30 3748 C 348.736 0.578861 6.34766 0
M  V30 3749 C 346.423 -0.0675784 6.11063 0
M  V30 3750 C 347.421 0.613471 6.80239 0
M  V30 3751 O 347.109 1.31996 7.92989 0
M  V30 3752 H 346.841 -0.221647 0.63863 0
M  V30 3753 H 349.395 -0.0268218 2.05382 0
M  V30 3754 H 347.625 -2.38026 3.04763 0
M  V30 3755 H 349.314 -2.18715 3.41934 0
M  V30 3756 H 350.08 -0.155458 4.84751 0
M  V30 3757 H 345.959 -1.30524 4.42136 0
M  V30 3758 H 349.503 1.111 6.88696 0
M  V30 3759 H 345.4 -0.0455636 6.45484 0
M  V30 3760 H 346.168 1.23077 8.09194 0
M  V30 3761 N 348.832 -1.54138 -0.328536 0
M  V30 3762 C 349.795 -1.82462 -1.38709 0
M  V30 3763 C 350.795 -0.696229 -1.44946 0
M  V30 3764 O 351.985 -0.964535 -1.4506 0
M  V30 3765 C 349.117 -1.98018 -2.77492 0
M  V30 3766 H 350.31 -2.77037 -1.14851 0
M  V30 3767 H 347.863 -1.45779 -0.563751 0
M  V30 3768 H 348.598 -1.05637 -3.06613 0
M  V30 3769 H 348.383 -2.80124 -2.74359 0
M  V30 3770 H 349.873 -2.21396 -3.54081 0
M  V30 3771 N 350.31 0.590341 -1.46126 0
M  V30 3772 C 351.257 1.69994 -1.56111 0
M  V30 3773 C 352.227 1.61065 -0.405867 0
M  V30 3774 O 353.412 1.8039 -0.621613 0
M  V30 3775 C 350.552 3.08326 -1.55013 0
M  V30 3776 C 349.665 3.27936 -2.81215 0
M  V30 3777 C 348.8 4.56473 -2.71673 0
M  V30 3778 C 347.839 4.694 -3.92849 0
M  V30 3779 N 346.976 5.89254 -3.81738 0
M  V30 3780 H 351.816 1.60797 -2.50895 0
M  V30 3781 H 349.353 0.783799 -1.24479 0
M  V30 3782 H 351.311 3.88383 -1.52362 0
M  V30 3783 H 349.941 3.16439 -0.637667 0
M  V30 3784 H 348.993 2.41536 -2.93879 0
M  V30 3785 H 350.305 3.33357 -3.71045 0
M  V30 3786 H 349.459 5.44748 -2.67085 0
M  V30 3787 H 348.198 4.53477 -1.7947 0
M  V30 3788 H 347.203 3.79544 -3.97777 0
M  V30 3789 H 348.428 4.7418 -4.86138 0
M  V30 3790 H 346.374 5.87271 -2.92317 0
M  V30 3791 H 346.291 5.95911 -4.65217 0
M  V30 3792 H 347.559 6.79981 -3.81112 0
M  V30 3793 N 351.788 1.33704 0.83433 0
M  V30 3794 C 352.698 1.26382 1.97648 0
M  V30 3795 C 353.714 0.173548 1.73132 0
M  V30 3796 O 354.89 0.397962 1.97429 0
M  V30 3797 C 351.955 1.00769 3.31733 0
M  V30 3798 C 351.016 2.1884 3.69334 0
M  V30 3799 C 350.249 1.9444 4.9702 0
M  V30 3800 O 350.472 0.896961 5.63303 0
M  V30 3801 O 349.406 2.81093 5.32231 0
M  V30 3802 H 353.232 2.22444 2.06767 0
M  V30 3803 H 350.817 1.13795 0.968037 0
M  V30 3804 H 352.699 0.882186 4.12062 0
M  V30 3805 H 351.374 0.0773783 3.23608 0
M  V30 3806 H 350.281 2.36946 2.89495 0
M  V30 3807 H 351.614 3.10221 3.82131 0
M  V30 3808 N 353.266 -1.05314 1.17247 0
M  V30 3809 C 354.214 -2.15137 0.884238 0
M  V30 3810 C 355.208 -1.68729 -0.15063 0
M  V30 3811 O 356.414 -1.8 -0.00366673 0
M  V30 3812 H 352.789 -0.702471 0.2684 0
M  V30 3813 H 354.76 -2.36652 1.81764 0
M  V30 3814 C 353.509 -3.45243 0.412659 0
M  V30 3815 H 352.832 -3.81352 1.20043 0
M  V30 3816 H 354.272 -4.23263 0.249858 0
M  V30 3817 C 352.731 -3.25487 -0.86948 0
M  V30 3818 O 353.261 -3.51938 -1.93655 0
M  V30 3819 N 351.467 -2.78875 -0.817147 0
M  V30 3820 H 351.014 -2.57549 0.0514211 0
M  V30 3821 H 350.972 -2.66036 -1.67547 0
M  V30 3822 N 354.744 -0.972509 -1.24016 0
M  V30 3823 C 355.992 -0.635776 -1.91839 0
M  V30 3824 C 356.313 0.832312 -1.76345 0
M  V30 3825 O 355.583 1.5946 -1.13795 0
M  V30 3826 H 354.163 -0.232157 -0.710009 0
M  V30 3827 H 356.825 -1.23462 -1.50809 0
M  V30 3828 H 355.921 -0.880545 -2.99421 0
M  V30 3829 N 356.222 1.38976 -0.743202 0
M  V30 3830 C 357.45 2.04636 -0.30525 0
M  V30 3831 C 357.865 1.56044 1.06281 0
M  V30 3832 O 357.222 0.728921 1.67311 0
M  V30 3833 C 357.273 3.60193 -0.307177 0
M  V30 3834 O 356.994 4.06998 -1.62124 0
M  V30 3835 C 358.495 4.4306 0.145928 0
M  V30 3836 H 355.715 0.65788 -0.132041 0
M  V30 3837 H 358.259 1.77866 -1.00915 0
M  V30 3838 H 356.414 3.85835 0.347898 0
M  V30 3839 H 356.828 5.01371 -1.54036 0
M  V30 3840 H 358.302 5.51921 0.0934183 0
M  V30 3841 H 358.779 4.22706 1.19231 0
M  V30 3842 H 359.385 4.22584 -0.479886 0
M  V30 3843 N 357.7 0.491464 1.49741 0
M  V30 3844 C 358.647 -0.292027 2.28945 0
M  V30 3845 C 359.617 -0.968973 1.34908 0
M  V30 3846 O 360.802 -0.97748 1.6386 0
M  V30 3847 C 357.942 -1.35617 3.17336 0
M  V30 3848 C 357.055 -0.691957 4.26422 0
M  V30 3849 C 356.19 -1.73572 5.02042 0
M  V30 3850 C 355.229 -1.05286 6.02977 0
M  V30 3851 N 354.366 -2.0404 6.71798 0
M  V30 3852 H 359.206 0.389654 2.95442 0
M  V30 3853 H 356.743 0.204003 1.45679 0
M  V30 3854 H 358.701 -1.98502 3.66951 0
M  V30 3855 H 357.331 -2.00674 2.52844 0
M  V30 3856 H 356.383 0.0499523 3.80367 0
M  V30 3857 H 357.695 -0.153946 4.98562 0
M  V30 3858 H 356.849 -2.43987 5.55478 0
M  V30 3859 H 355.588 -2.30757 4.29654 0
M  V30 3860 H 354.593 -0.334446 5.48782 0
M  V30 3861 H 355.818 -0.487636 6.77347 0
M  V30 3862 H 353.764 -2.60205 6.02187 0
M  V30 3863 H 353.681 -1.55279 7.39881 0
M  V30 3864 H 354.949 -2.73772 7.29842 0
M  V30 3865 N 359.178 -1.55987 0.224894 0
M  V30 3866 C 360.108 -2.23426 -0.678457 0
M  V30 3867 C 361.089 -1.20709 -1.19847 0
M  V30 3868 O 362.274 -1.49304 -1.24186 0
M  V30 3869 C 359.404 -2.91676 -1.88527 0
M  V30 3870 C 358.358 -4.00893 -1.49896 0
M  V30 3871 C 357.684 -4.56455 -2.78483 0
M  V30 3872 C 358.984 -5.17769 -0.686461 0
M  V30 3873 H 360.678 -2.99175 -0.116173 0
M  V30 3874 H 358.224 -1.43897 -0.054436 0
M  V30 3875 H 360.177 -3.37547 -2.5227 0
M  V30 3876 H 358.901 -2.1338 -2.47258 0
M  V30 3877 H 357.56 -3.55758 -0.884985 0
M  V30 3878 H 357.208 -3.74886 -3.35365 0
M  V30 3879 H 356.908 -5.30169 -2.53368 0
M  V30 3880 H 358.432 -5.05047 -3.43162 0
M  V30 3881 H 359.846 -5.60001 -1.22767 0
M  V30 3882 H 358.243 -5.97735 -0.532259 0
M  V30 3883 H 359.313 -4.83932 0.306196 0
M  V30 3884 N 360.656 0.0484629 -1.57525 0
M  V30 3885 C 361.586 1.0549 -2.08313 0
M  V30 3886 C 362.567 1.38929 -0.981463 0
M  V30 3887 O 363.752 1.48151 -1.25558 0
M  V30 3888 C 360.882 2.36162 -2.54646 0
M  V30 3889 C 359.836 2.17016 -3.68901 0
M  V30 3890 C 359.162 3.53278 -4.01371 0
M  V30 3891 C 360.462 1.57219 -4.98076 0
M  V30 3892 H 362.156 0.632195 -2.92649 0
M  V30 3893 H 359.702 0.302654 -1.40784 0
M  V30 3894 H 361.655 3.06882 -2.88793 0
M  V30 3895 H 360.379 2.80456 -1.67368 0
M  V30 3896 H 359.038 1.48733 -3.35073 0
M  V30 3897 H 358.686 3.95185 -3.11188 0
M  V30 3898 H 358.386 3.41299 -4.78318 0
M  V30 3899 H 359.91 4.25391 -4.38035 0
M  V30 3900 H 361.324 2.17832 -5.30304 0
M  V30 3901 H 359.721 1.55871 -5.79503 0
M  V30 3902 H 360.791 0.535956 -4.81929 0
M  V30 3903 N 362.134 1.5431 0.320358 0
M  V30 3904 C 363.064 1.86912 1.3995 0
M  V30 3905 C 364.045 0.726211 1.53819 0
M  V30 3906 O 365.23 0.980233 1.67646 0
M  V30 3907 C 362.36 2.09932 2.7667 0
M  V30 3908 C 361.314 3.25776 2.77586 0
M  V30 3909 C 360.64 3.34173 4.17412 0
M  V30 3910 C 361.94 4.6335 2.41048 0
M  V30 3911 H 363.634 2.77292 1.12914 0
M  V30 3912 H 361.18 1.33421 0.541738 0
M  V30 3913 H 363.133 2.31324 3.52232 0
M  V30 3914 H 361.857 1.16304 3.0519 0
M  V30 3915 H 360.516 3.04276 2.04479 0
M  V30 3916 H 360.164 2.38098 4.43078 0
M  V30 3917 H 359.864 4.12033 4.18931 0
M  V30 3918 H 361.388 3.57803 4.94782 0
M  V30 3919 H 362.802 4.84602 3.06324 0
M  V30 3920 H 361.199 5.43782 2.53813 0
M  V30 3921 H 362.269 4.65381 1.36193 0
M  V30 3922 N 363.613 -0.582584 1.46437 0
M  V30 3923 C 364.841 -1.36682 1.55324 0
M  V30 3924 C 365.256 -1.87796 0.194409 0
M  V30 3925 O 364.613 -1.63623 -0.808318 0
M  V30 3926 C 364.664 -2.55426 2.55812 0
M  V30 3927 O 364.385 -2.0643 3.86417 0
M  V30 3928 C 365.886 -3.47976 2.74641 0
M  V30 3929 H 363.106 -0.417545 0.525259 0
M  V30 3930 H 365.65 -0.708219 1.91845 0
M  V30 3931 H 363.805 -3.17275 2.22295 0
M  V30 3932 H 364.219 -2.83762 4.41111 0
M  V30 3933 H 365.693 -4.27775 3.48874 0
M  V30 3934 H 366.17 -3.99919 1.81553 0
M  V30 3935 H 366.776 -2.91962 3.09255 0
M  V30 3936 N 365.091 -1.34144 -0.827227 0
M  V30 3937 C 366.039 -1.25364 -1.95925 0
M  V30 3938 C 367.033 -0.152608 -1.68711 0
M  V30 3939 O 368.239 -0.317311 -1.77181 0
M  V30 3940 H 364.614 -0.389342 -0.643364 0
M  V30 3941 H 366.585 -2.21045 -2.00454 0
M  V30 3942 C 365.334 -1.02158 -3.32354 0
M  V30 3943 H 364.657 -1.86111 -3.5384 0
M  V30 3944 H 366.097 -1.00048 -4.12027 0
M  V30 3945 C 364.556 0.275244 -3.35774 0
M  V30 3946 O 365.086 1.27806 -3.80826 0
M  V30 3947 N 363.292 0.306853 -2.88975 0
M  V30 3948 H 362.839 -0.509777 -2.52506 0
M  V30 3949 H 362.797 1.17432 -2.91646 0
M  V30 3950 N 366.569 1.04691 -1.17803 0
M  V30 3951 C 367.846 1.7472 -0.879328 0
M  V30 3952 C 368.226 2.01812 0.619271 0
M  V30 3953 O 367.574 1.65824 1.57209 0
M  V30 3954 C 367.784 3.03686 -1.71976 0
M  V30 3955 C 369.132 3.77542 -1.94286 0
M  V30 3956 O 370.156 3.13569 -1.68976 0
M  V30 3957 O 369.015 4.92506 -2.36855 0
M  V30 3958 H 366.109 0.760011 -0.326056 0
M  V30 3959 H 368.655 1.10813 -1.28525 0
M  V30 3960 H 367.427 2.79754 -2.73594 0
M  V30 3961 H 367.05 3.75332 -1.31194 0
M  V30 3962 N 368.047 0.979072 1.23499 0
M  V30 3963 C 369.458 0.684391 1.73704 0
M  V30 3964 C 369.809 -0.799448 1.79174 0
M  V30 3965 O 368.934 -1.62531 1.42873 0
M  V30 3966 C 369.529 1.23564 3.15464 0
M  V30 3967 C 368.088 0.99063 3.6313 0
M  V30 3968 C 367.235 1.36416 2.41425 0
M  V30 3969 H 370.186 1.15307 1.09041 0
M  V30 3970 H 370.207 0.607417 3.7562 0
M  V30 3971 H 369.719 2.31561 3.1145 0
M  V30 3972 H 367.82 -0.0733136 3.72528 0
M  V30 3973 H 367.933 1.64427 4.5 0
M  V30 3974 H 366.297 0.782616 2.42378 0
M  V30 3975 H 367.08 2.45387 2.40083 0
M  V30 3976 N 369.525 -1.3858 0.750561 0
M  V30 3977 C 370.455 -2.33102 0.136237 0
M  V30 3978 C 371.436 -1.54713 -0.706965 0
M  V30 3979 O 372.621 -1.83043 -0.648769 0
M  V30 3980 C 369.751 -3.38882 -0.760017 0
M  V30 3981 C 368.705 -4.27995 -0.0197785 0
M  V30 3982 C 368.031 -5.24605 -1.03408 0
M  V30 3983 C 369.331 -5.09554 1.14684 0
M  V30 3984 H 371.025 -2.84726 0.925822 0
M  V30 3985 H 368.571 -1.36898 0.446654 0
M  V30 3986 H 370.524 -4.0397 -1.19943 0
M  V30 3987 H 369.248 -2.85734 -1.58189 0
M  V30 3988 H 367.907 -3.64409 0.400184 0
M  V30 3989 H 367.555 -4.67746 -1.84994 0
M  V30 3990 H 367.255 -5.85081 -0.543464 0
M  V30 3991 H 368.779 -5.9257 -1.47288 0
M  V30 3992 H 370.193 -5.67899 0.785118 0
M  V30 3993 H 368.59 -5.7925 1.56812 0
M  V30 3994 H 369.66 -4.4347 1.96118 0
M  V30 3995 N 371.003 -0.499398 -1.49478 0
M  V30 3996 C 371.913 0.284489 -2.32869 0
M  V30 3997 C 372.929 0.968885 -1.44529 0
M  V30 3998 O 374.105 0.95062 -1.77553 0
M  V30 3999 C 371.17 1.33594 -3.19928 0
M  V30 4000 C 370.231 0.665149 -4.24116 0
M  V30 4001 C 369.464 1.6665 -5.07014 0
M  V30 4002 O 369.687 2.89618 -4.91404 0
M  V30 4003 O 368.621 1.22271 -5.8935 0
M  V30 4004 H 372.447 -0.39802 -3.01081 0
M  V30 4005 H 370.032 -0.260758 -1.47107 0
M  V30 4006 H 371.914 1.94431 -3.73864 0
M  V30 4007 H 370.589 2.0014 -2.54412 0
M  V30 4008 H 369.496 0.0170769 -3.74096 0
M  V30 4009 H 370.829 0.0421555 -4.92182 0
M  V30 4010 N 372.481 1.55866 -0.233164 0
M  V30 4011 C 373.444 2.1953 0.658715 0
M  V30 4012 C 374.444 1.16053 1.11303 0
M  V30 4013 O 375.634 1.41218 1.01996 0
M  V30 4014 C 372.766 2.82791 1.90373 0
M  V30 4015 H 373.959 2.99721 0.10347 0
M  V30 4016 H 371.512 1.56291 0.0164245 0
M  V30 4017 H 372.247 2.06501 2.50056 0
M  V30 4018 H 372.032 3.58578 1.58632 0
M  V30 4019 H 373.522 3.31556 2.53891 0
M  V30 4020 N 373.959 -0.0401083 1.57549 0
M  V30 4021 C 374.922 -1.02871 2.04817 0
M  V30 4022 C 375.922 -1.29708 0.950388 0
M  V30 4023 O 377.112 -1.24897 1.21435 0
M  V30 4024 C 374.244 -2.36443 2.45576 0
M  V30 4025 H 375.437 -0.620631 2.93408 0
M  V30 4026 H 372.99 -0.286667 1.53649 0
M  V30 4027 H 373.725 -2.82021 1.60108 0
M  V30 4028 H 373.51 -2.18296 3.25713 0
M  V30 4029 H 375 -3.07441 2.82612 0
M  V30 4030 N 375.437 -1.54477 -0.31217 0
M  V30 4031 C 376.387 -1.81037 -1.38598 0
M  V30 4032 C 377.371 -0.666941 -1.46426 0
M  V30 4033 O 378.563 -0.927269 -1.50767 0
M  V30 4034 C 375.692 -2.05127 -2.75277 0
M  V30 4035 C 374.778 -3.25624 -2.71716 0
M  V30 4036 N 375.169 -4.46428 -2.37773 0
M  V30 4037 C 373.467 -3.27427 -3.02833 0
M  V30 4038 C 374.168 -5.28406 -2.43232 0
M  V30 4039 N 373.144 -4.6586 -2.80135 0
M  V30 4040 H 376.946 -2.7201 -1.11301 0
M  V30 4041 H 374.46 -1.53826 -0.520705 0
M  V30 4042 H 376.457 -2.22299 -3.52688 0
M  V30 4043 H 375.117 -1.15416 -3.03495 0
M  V30 4044 H 376.128 -4.73227 -2.1042 0
M  V30 4045 H 372.805 -2.47786 -3.36018 0
M  V30 4046 H 374.195 -6.34903 -2.19882 0
M  V30 4047 N 376.915 0.57481 -1.46744 0
M  V30 4048 C 378.163 1.33009 -1.52161 0
M  V30 4049 C 378.484 1.94185 -0.178092 0
M  V30 4050 O 377.754 1.7899 0.796196 0
M  V30 4051 H 376.334 0.493873 -0.560445 0
M  V30 4052 H 378.996 0.672589 -1.82927 0
M  V30 4053 H 378.092 2.13273 -2.27862 0
M  V30 4054 N 378.394 1.34581 0.820102 0
M  V30 4055 C 379.642 1.26845 1.57336 0
M  V30 4056 C 379.963 -0.160667 1.94337 0
M  V30 4057 O 379.233 -1.09396 1.6251 0
M  V30 4058 H 377.813 0.466514 0.583415 0
M  V30 4059 H 380.475 1.68526 0.979027 0
M  V30 4060 H 379.571 1.87513 2.4949 0
M  V30 4061 N 379.872 -1.04064 1.18357 0
M  V30 4062 C 380.82 -2.14187 0.907007 0
M  V30 4063 C 381.814 -1.68879 -0.132725 0
M  V30 4064 O 383.02 -1.79993 0.0154248 0
M  V30 4065 H 379.395 -0.699585 0.275835 0
M  V30 4066 H 381.366 -2.34711 1.84264 0
M  V30 4067 C 380.115 -3.44785 0.449254 0
M  V30 4068 H 379.438 -3.80058 1.24081 0
M  V30 4069 H 380.878 -4.22974 0.294737 0
M  V30 4070 C 379.337 -3.26391 -0.834909 0
M  V30 4071 O 379.867 -3.53973 -1.89911 0
M  V30 4072 N 378.073 -2.79726 -0.787523 0
M  V30 4073 H 377.62 -2.5748 0.0787347 0
M  V30 4074 H 377.578 -2.67798 -1.64716 0
M  V30 4075 N 381.35 -0.985608 -1.22978 0
M  V30 4076 C 382.596 -0.65836 -1.91816 0
M  V30 4077 C 382.929 0.806692 -1.76653 0
M  V30 4078 O 382.204 1.58252 -1.13078 0
M  V30 4079 C 382.487 -1.056 -3.44268 0
M  V30 4080 C 382.34 -2.57906 -3.68516 0
M  V30 4081 C 383.659 -0.603781 -4.35939 0
M  V30 4082 H 380.778 -0.24065 -0.696604 0
M  V30 4083 H 383.42 -1.22783 -1.44998 0
M  V30 4084 H 381.57 -0.571445 -3.84274 0
M  V30 4085 H 383.242 -3.13976 -3.3796 0
M  V30 4086 H 381.485 -3.00305 -3.13048 0
M  V30 4087 H 382.156 -2.80779 -4.75255 0
M  V30 4088 H 384.632 -1.01987 -4.03408 0
M  V30 4089 H 383.508 -0.910383 -5.41298 0
M  V30 4090 H 383.769 0.495761 -4.39312 0
M  V30 4091 N 382.828 1.3818 -0.7579 0
M  V30 4092 C 383.758 2.33027 -0.148597 0
M  V30 4093 C 384.739 1.55085 0.69875 0
M  V30 4094 O 385.924 1.83384 0.639053 0
M  V30 4095 C 383.054 3.3928 0.742034 0
M  V30 4096 C 382.008 4.28 -0.00291946 0
M  V30 4097 C 381.334 5.25146 1.00625 0
M  V30 4098 C 382.634 5.08938 -1.17385 0
M  V30 4099 H 384.328 2.84231 -0.940909 0
M  V30 4100 H 381.874 1.36659 -0.453908 0
M  V30 4101 H 383.827 4.046 1.17799 0
M  V30 4102 H 382.551 2.86569 1.56671 0
M  V30 4103 H 381.21 3.64192 -0.419504 0
M  V30 4104 H 380.858 4.68721 1.8251 0
M  V30 4105 H 380.558 5.85361 0.512428 0
M  V30 4106 H 382.082 5.93342 1.44143 0
M  V30 4107 H 383.496 5.67474 -0.815224 0
M  V30 4108 H 381.893 5.7841 -1.59882 0
M  V30 4109 H 382.963 4.42424 -1.98468 0
M  V30 4110 N 384.306 0.507319 1.49211 0
M  V30 4111 C 385.555 -0.0368315 2.01666 0
M  V30 4112 C 385.868 -1.37459 1.39156 0
M  V30 4113 O 387.074 -2.00579 1.82976 0
M  V30 4114 C 385.53 -0.116089 3.59713 0
M  V30 4115 C 385.138 1.2154 4.31198 0
M  V30 4116 C 386.882 -0.610268 4.2009 0
M  V30 4117 C 384.789 1.09796 5.81119 0
M  V30 4118 H 383.719 -0.0175376 0.753796 0
M  V30 4119 H 386.37 0.647691 1.71689 0
M  V30 4120 H 384.752 -0.8652 3.86433 0
M  V30 4121 H 385.926 1.9783 4.16173 0
M  V30 4122 H 384.241 1.64352 3.82593 0
M  V30 4123 H 386.838 -0.715742 5.29888 0
M  V30 4124 H 387.181 -1.61064 3.8388 0
M  V30 4125 H 387.714 0.0824916 3.97714 0
M  V30 4126 H 384.453 2.0728 6.21864 0
M  V30 4127 H 383.973 0.376058 5.9862 0
M  V30 4128 H 385.652 0.779281 6.4229 0
M  V30 4129 N 385.784 -1.5574 0.241426 0
M  V30 4130 C 387.012 -2.03208 -0.389134 0
M  V30 4131 C 387.427 -1.12082 -1.51931 0
M  V30 4132 O 386.784 -0.134183 -1.82006 0
M  V30 4133 C 386.835 -3.50064 -0.902087 0
M  V30 4134 O 386.556 -4.37717 0.18305 0
M  V30 4135 C 388.057 -4.13268 -1.60389 0
M  V30 4136 H 385.277 -0.664509 -0.0931053 0
M  V30 4137 H 387.821 -2.0124 0.36369 0
M  V30 4138 H 385.976 -3.52583 -1.60511 0
M  V30 4139 H 386.39 -5.24097 -0.205579 0
M  V30 4140 H 387.864 -5.17733 -1.91458 0
M  V30 4141 H 388.341 -3.59434 -2.52397 0
M  V30 4142 H 388.947 -4.14655 -0.945576 0
M  V30 4143 N 387.262 0.0317525 -1.57568 0
M  V30 4144 C 388.539 0.758366 -1.803 0
M  V30 4145 C 388.919 1.93718 -0.838845 0
M  V30 4146 O 388.267 2.28187 0.119571 0
M  V30 4147 C 388.477 1.19392 -3.27943 0
M  V30 4148 C 389.825 1.61094 -3.92854 0
M  V30 4149 O 390.849 1.28857 -3.32076 0
M  V30 4150 O 389.708 2.20918 -4.99858 0
M  V30 4151 H 386.802 0.366514 -0.741348 0
M  V30 4152 H 389.348 0.00873765 -1.69698 0
M  V30 4153 H 388.12 0.352275 -3.89711 0
M  V30 4154 H 387.743 2.00365 -3.43424 0
M  V30 4155 N 388.74 1.54641 0.303973 0
M  V30 4156 C 389.968 1.77768 1.05858 0
M  V30 4157 C 390.383 0.535722 1.8104 0
M  V30 4158 O 389.74 -0.494337 1.75677 0
M  V30 4159 C 389.791 2.9834 2.04146 0
M  V30 4160 O 389.512 4.17736 1.32015 0
M  V30 4161 C 391.013 3.33832 2.91669 0
M  V30 4162 H 388.233 0.592961 0.314067 0
M  V30 4163 H 390.777 2.01583 0.344149 0
M  V30 4164 H 388.932 2.76742 2.71096 0
M  V30 4165 H 389.346 4.85693 1.97998 0
M  V30 4166 H 390.82 4.21448 3.56491 0
M  V30 4167 H 391.297 2.51857 3.59812 0
M  V30 4168 H 391.903 3.57579 2.30254 0
M  V30 4169 N 390.218 -0.567019 1.47046 0
M  V30 4170 C 391.464 -1.32434 1.54379 0
M  V30 4171 C 391.819 -1.91365 0.199276 0
M  V30 4172 O 391.112 -1.74378 -0.793915 0
M  V30 4173 C 391.306 -2.4623 2.59047 0
M  V30 4174 C 391.135 -1.98448 4.03545 0
M  V30 4175 C 389.905 -1.82741 4.71098 0
M  V30 4176 C 392.103 -1.53477 4.90866 0
M  V30 4177 N 390.085 -1.29196 6.00151 0
M  V30 4178 C 391.456 -1.1163 6.09868 0
M  V30 4179 C 393.511 -1.41438 4.77388 0
M  V30 4180 C 392.214 -0.589425 7.16881 0
M  V30 4181 C 394.24 -0.901528 5.84488 0
M  V30 4182 C 393.602 -0.492932 7.02673 0
M  V30 4183 H 389.701 -0.477005 0.61967 0
M  V30 4184 H 392.285 -0.643856 1.83746 0
M  V30 4185 H 390.456 -3.11821 2.31564 0
M  V30 4186 H 392.188 -3.13213 2.56281 0
M  V30 4187 H 388.943 -2.05162 4.26855 0
M  V30 4188 H 389.367 -1.0454 6.6888 0
M  V30 4189 H 394.009 -1.71643 3.86392 0
M  V30 4190 H 391.727 -0.274994 8.07632 0
M  V30 4191 H 395.313 -0.812071 5.76105 0
M  V30 4192 H 394.193 -0.102227 7.84133 0
M  V30 4193 N 391.696 -1.35014 -0.812953 0
M  V30 4194 C 392.945 -1.27269 -1.56479 0
M  V30 4195 C 393.258 0.152771 -1.95002 0
M  V30 4196 O 394.464 0.352451 -2.69203 0
M  V30 4197 C 392.92 -2.23159 -2.82362 0
M  V30 4198 C 392.528 -3.71016 -2.511 0
M  V30 4199 C 394.272 -2.24342 -3.60376 0
M  V30 4200 C 392.179 -4.58746 -3.73237 0
M  V30 4201 H 391.109 -0.472829 -0.587324 0
M  V30 4202 H 393.76 -1.6024 -0.894171 0
M  V30 4203 H 392.142 -1.83151 -3.51101 0
M  V30 4204 H 393.316 -4.1962 -1.90409 0
M  V30 4205 H 391.631 -3.72378 -1.86343 0
M  V30 4206 H 394.228 -2.87107 -4.51081 0
M  V30 4207 H 394.571 -1.24542 -3.97234 0
M  V30 4208 H 395.104 -2.62846 -2.98591 0
M  V30 4209 H 391.843 -5.59521 -3.41492 0
M  V30 4210 H 391.363 -4.14871 -4.33176 0
M  V30 4211 H 393.042 -4.73852 -4.40537 0
M  V30 4212 N 393.175 1.03435 -1.18907 0
M  V30 4213 C 394.4 1.80919 -1.01406 0
M  V30 4214 C 394.825 1.83055 0.432721 0
M  V30 4215 O 394.183 1.25252 1.31079 0
M  V30 4216 C 394.231 3.24091 -1.58105 0
M  V30 4217 O 393.335 4.04434 -0.806669 0
M  V30 4218 H 392.676 0.558709 -0.358803 0
M  V30 4219 H 395.206 1.30223 -1.57807 0
M  V30 4220 H 395.216 3.74853 -1.61087 0
M  V30 4221 H 393.891 3.21851 -2.6341 0
M  V30 4222 H 392.468 3.63091 -0.849666 0
M  V30 4223 N 394.653 0.992116 1.22453 0
M  V30 4224 C 395.586 0.486701 2.22949 0
M  V30 4225 C 396.564 -0.45259 1.56174 0
M  V30 4226 O 397.748 -0.378317 1.84665 0
M  V30 4227 C 394.875 -0.294537 3.37417 0
M  V30 4228 C 393.921 0.590628 4.22391 0
M  V30 4229 S 394.754 2.04546 4.94895 0
M  V30 4230 C 395.91 1.27369 6.12803 0
M  V30 4231 H 396.143 1.33828 2.65475 0
M  V30 4232 H 393.676 0.799023 1.32117 0
M  V30 4233 H 395.634 -0.739241 4.03789 0
M  V30 4234 H 394.295 -1.12139 2.934 0
M  V30 4235 H 393.488 -0.0104375 5.03999 0
M  V30 4236 H 393.09 0.972064 3.61147 0
M  V30 4237 H 395.382 0.540943 6.75337 0
M  V30 4238 H 396.325 2.06502 6.7732 0
M  V30 4239 H 396.733 0.787324 5.58983 0
M  V30 4240 N 396.131 -1.37776 0.765217 0
M  V30 4241 C 397.379 -1.99454 0.325943 0
M  V30 4242 C 397.7 -1.61049 -1.09947 0
M  V30 4243 O 396.97 -0.872821 -1.75381 0
M  V30 4244 H 395.55 -0.737697 0.117525 0
M  V30 4245 H 398.212 -1.68359 0.981895 0
M  V30 4246 H 397.308 -3.09547 0.398353 0
M  V30 4247 N 397.609 -0.515225 -1.4894 0
M  V30 4248 C 398.541 0.292481 -2.27326 0
M  V30 4249 C 399.554 0.917838 -1.3446 0
M  V30 4250 O 400.743 0.798772 -1.5963 0
M  V30 4251 C 397.843 1.42803 -3.07344 0
M  V30 4252 C 397.016 0.907347 -4.27885 0
M  V30 4253 C 396.075 1.92222 -4.89834 0
M  V30 4254 O 395.101 1.48506 -5.49486 0
M  V30 4255 N 396.303 3.25355 -4.80754 0
M  V30 4256 H 399.068 -0.379721 -2.97285 0
M  V30 4257 H 396.629 -0.348638 -1.58102 0
M  V30 4258 H 398.621 2.10481 -3.45658 0
M  V30 4259 H 397.191 2.00414 -2.39902 0
M  V30 4260 H 396.411 0.0550218 -3.94162 0
M  V30 4261 H 397.699 0.538108 -5.05946 0
M  V30 4262 H 397.097 3.6355 -4.33414 0
M  V30 4263 H 395.654 3.88707 -5.23211 0
M  V30 4264 N 399.087 1.5561 -0.249682 0
M  V30 4265 C 399.997 2.25143 0.659375 0
M  V30 4266 C 401.013 1.2685 1.19101 0
M  V30 4267 O 402.189 1.59732 1.22669 0
M  V30 4268 C 399.254 2.93945 1.8384 0
M  V30 4269 C 398.315 4.07655 1.34596 0
M  V30 4270 C 397.548 4.73167 2.46878 0
M  V30 4271 O 397.771 4.37768 3.65671 0
M  V30 4272 O 396.705 5.61623 2.16478 0
M  V30 4273 H 400.531 3.03545 0.0968698 0
M  V30 4274 H 398.116 1.49389 -0.018074 0
M  V30 4275 H 399.998 3.37271 2.52638 0
M  V30 4276 H 398.673 2.18481 2.38847 0
M  V30 4277 H 397.58 3.68839 0.625174 0
M  V30 4278 H 398.913 4.84946 0.841941 0
M  V30 4279 N 400.565 -0.0233959 1.57583 0
M  V30 4280 C 401.475 -1.03907 2.10334 0
M  V30 4281 C 402.491 -1.39257 1.04323 0
M  V30 4282 O 403.667 -1.48462 1.36091 0
M  V30 4283 C 400.732 -2.31938 2.57693 0
M  V30 4284 C 399.793 -2.03117 3.78209 0
M  V30 4285 C 399.026 -3.25043 4.233 0
M  V30 4286 O 399.249 -4.35916 3.67876 0
M  V30 4287 O 398.183 -3.10411 5.15683 0
M  V30 4288 H 402.009 -0.620748 2.97288 0
M  V30 4289 H 399.594 -0.240743 1.47448 0
M  V30 4290 H 401.476 -3.07196 2.88458 0
M  V30 4291 H 400.151 -2.73055 1.73847 0
M  V30 4292 H 399.058 -1.25408 3.52454 0
M  V30 4293 H 400.391 -1.66852 4.63056 0
M  V30 4294 N 402.043 -1.548 -0.295768 0
M  V30 4295 C 402.953 -1.89177 -1.38742 0
M  V30 4296 C 403.969 -0.786481 -1.55211 0
M  V30 4297 O 405.145 -1.08344 -1.69775 0
M  V30 4298 C 402.21 -2.13663 -2.73036 0
M  V30 4299 C 401.271 -3.37349 -2.65508 0
M  V30 4300 C 400.504 -3.60658 -3.93398 0
M  V30 4301 O 400.727 -2.86882 -4.93006 0
M  V30 4302 O 399.661 -4.54179 -3.94975 0
M  V30 4303 H 403.487 -2.82059 -1.12589 0
M  V30 4304 H 401.072 -1.41056 -0.492295 0
M  V30 4305 H 402.954 -2.3094 -3.52484 0
M  V30 4306 H 401.629 -1.23967 -2.99022 0
M  V30 4307 H 400.536 -3.25431 -1.84514 0
M  V30 4308 H 401.869 -4.27192 -2.44474 0
M  V30 4309 N 403.521 0.559213 -1.47345 0
M  V30 4310 C 404.468 1.66645 -1.59682 0
M  V30 4311 C 405.438 1.60168 -0.43994 0
M  V30 4312 O 406.623 1.79031 -0.659736 0
M  V30 4313 C 403.763 3.04969 -1.61518 0
M  V30 4314 C 402.876 3.21897 -2.88108 0
M  V30 4315 C 402.011 4.50608 -2.81294 0
M  V30 4316 C 401.05 4.60961 -4.02717 0
M  V30 4317 N 400.187 5.81024 -3.94151 0
M  V30 4318 H 405.027 1.55439 -2.54249 0
M  V30 4319 H 402.564 0.757219 -1.26113 0
M  V30 4320 H 404.522 3.85064 -1.60566 0
M  V30 4321 H 403.152 3.15015 -0.704645 0
M  V30 4322 H 402.204 2.35248 -2.98936 0
M  V30 4323 H 403.516 3.25412 -3.78032 0
M  V30 4324 H 402.67 5.3896 -2.7858 0
M  V30 4325 H 401.409 4.49568 -1.89049 0
M  V30 4326 H 400.414 3.71021 -4.05738 0
M  V30 4327 H 401.639 4.63761 -4.96087 0
M  V30 4328 H 399.585 5.80938 -3.04708 0
M  V30 4329 H 399.502 5.85909 -4.77752 0
M  V30 4330 H 400.77 6.71744 -3.9545 0
M  V30 4331 N 404.999 1.35443 0.805782 0
M  V30 4332 C 405.946 1.28431 1.91766 0
M  V30 4333 C 406.916 0.156102 1.65365 0
M  V30 4334 O 408.101 0.339936 1.87747 0
M  V30 4335 C 405.241 1.06301 3.2832 0
M  V30 4336 C 404.354 2.2805 3.66902 0
M  V30 4337 C 403.489 1.99064 4.92491 0
M  V30 4338 C 402.528 3.16863 5.23703 0
M  V30 4339 N 401.665 2.87647 6.40471 0
M  V30 4340 H 406.505 2.23511 1.97096 0
M  V30 4341 H 404.042 1.11105 0.964054 0
M  V30 4342 H 406 0.915012 4.07042 0
M  V30 4343 H 404.63 0.148822 3.22457 0
M  V30 4344 H 403.682 2.53711 2.83434 0
M  V30 4345 H 404.994 3.1601 3.85927 0
M  V30 4346 H 404.148 1.81099 5.7904 0
M  V30 4347 H 402.887 1.0839 4.75503 0
M  V30 4348 H 401.892 3.35404 4.35642 0
M  V30 4349 H 403.117 4.08339 5.4262 0
M  V30 4350 H 401.063 1.99568 6.24907 0
M  V30 4351 H 400.98 3.69141 6.59751 0
M  V30 4352 H 402.248 2.73226 7.30047 0
M  V30 4353 N 406.477 -1.02803 1.19454 0
M  V30 4354 C 407.424 -2.11099 0.933046 0
M  V30 4355 C 408.394 -1.65571 -0.132447 0
M  V30 4356 O 409.579 -1.90797 0.00987576 0
M  V30 4357 C 406.719 -3.41763 0.478747 0
M  V30 4358 C 405.832 -4.00833 1.6111 0
M  V30 4359 C 404.967 -5.19511 1.10825 0
M  V30 4360 C 404.006 -5.70639 2.21445 0
M  V30 4361 N 403.143 -6.80589 1.72461 0
M  V30 4362 H 407.983 -2.32804 1.86028 0
M  V30 4363 H 405.52 -1.14179 0.927441 0
M  V30 4364 H 407.478 -4.16736 0.196745 0
M  V30 4365 H 406.108 -3.20166 -0.411493 0
M  V30 4366 H 405.16 -3.23066 2.00829 0
M  V30 4367 H 406.472 -4.34794 2.4445 0
M  V30 4368 H 405.626 -6.01645 0.781533 0
M  V30 4369 H 404.365 -4.87086 0.244606 0
M  V30 4370 H 403.37 -4.87116 2.54947 0
M  V30 4371 H 404.595 -6.05102 3.08267 0
M  V30 4372 H 402.541 -6.50016 0.884056 0
M  V30 4373 H 402.458 -7.13681 2.49389 0
M  V30 4374 H 403.726 -7.66317 1.42755 0
M  V30 4375 N 407.956 -0.998596 -1.21925 0
M  V30 4376 C 409.372 -0.710303 -1.42923 0
M  V30 4377 C 409.572 0.716933 -1.88314 0
M  V30 4378 O 408.628 1.48712 -2.04062 0
M  V30 4379 C 409.941 -1.72072 -2.466 0
M  V30 4380 C 411.489 -1.73681 -2.60392 0
M  V30 4381 C 411.964 -2.73601 -3.67296 0
M  V30 4382 N 413.455 -2.7223 -3.7476 0
M  V30 4383 C 414.19 -3.46206 -4.57087 0
M  V30 4384 N 413.686 -4.29802 -5.43362 0
M  V30 4385 N 415.479 -3.34886 -4.51451 0
M  V30 4386 H 407.63 -1.92028 -0.9077 0
M  V30 4387 H 409.893 -0.828487 -0.460775 0
M  V30 4388 H 409.599 -2.74231 -2.20206 0
M  V30 4389 H 409.473 -1.51818 -3.45299 0
M  V30 4390 H 411.86 -0.722173 -2.86127 0
M  V30 4391 H 411.941 -1.98005 -1.61949 0
M  V30 4392 H 411.585 -3.75217 -3.42307 0
M  V30 4393 H 411.515 -2.46545 -4.65321 0
M  V30 4394 H 414.006 -2.11576 -3.1312 0
M  V30 4395 H 414.319 -4.83061 -6.03218 0
M  V30 4396 H 412.664 -4.33887 -5.42925 0
M  V30 4397 H 415.855 -2.69015 -3.83078 0
M  V30 4398 H 416.028 -3.92796 -5.15379 0
M  V30 4399 N 409.434 1.37368 -0.772513 0
M  V30 4400 C 410.364 2.32856 -0.173304 0
M  V30 4401 C 411.345 1.55818 0.682262 0
M  V30 4402 O 412.53 1.84052 0.619566 0
M  V30 4403 C 409.66 3.40048 0.706007 0
M  V30 4404 C 408.614 4.27973 -0.0483144 0
M  V30 4405 C 407.94 5.26184 0.950491 0
M  V30 4406 C 409.24 5.07665 -1.22776 0
M  V30 4407 H 410.934 2.83217 -0.971002 0
M  V30 4408 H 408.48 1.3617 -0.468377 0
M  V30 4409 H 410.433 4.05827 1.13501 0
M  V30 4410 H 409.157 2.88214 1.53623 0
M  V30 4411 H 407.816 3.63726 -0.458107 0
M  V30 4412 H 407.464 4.7063 1.77529 0
M  V30 4413 H 407.164 5.85872 0.450314 0
M  V30 4414 H 408.688 5.94838 1.37842 0
M  V30 4415 H 410.102 5.66578 -0.875366 0
M  V30 4416 H 408.499 5.76681 -1.66007 0
M  V30 4417 H 409.569 4.40294 -2.03149 0
M  V30 4418 N 410.912 0.523116 1.48665 0
M  V30 4419 C 411.844 -0.280421 2.27478 0
M  V30 4420 C 412.857 -0.910694 1.34945 0
M  V30 4421 O 414.046 -0.790295 1.60052 0
M  V30 4422 C 411.146 -1.41171 3.08097 0
M  V30 4423 C 410.319 -0.884642 4.28361 0
M  V30 4424 C 409.378 -1.89622 4.90846 0
M  V30 4425 O 408.404 -1.4559 5.50265 0
M  V30 4426 N 409.606 -3.22801 4.82472 0
M  V30 4427 H 412.371 0.395481 2.97079 0
M  V30 4428 H 409.932 0.357018 1.57915 0
M  V30 4429 H 411.924 -2.08645 3.4677 0
M  V30 4430 H 410.494 -1.99139 2.40961 0
M  V30 4431 H 409.714 -0.0341177 3.94185 0
M  V30 4432 H 411.002 -0.511268 5.06225 0
M  V30 4433 H 410.4 -3.61246 4.35336 0
M  V30 4434 H 408.957 -3.85927 5.25265 0
M  V30 4435 N 412.39 -1.55475 0.257931 0
M  V30 4436 C 413.353 -2.20551 -0.623706 0
M  V30 4437 C 414.353 -1.17809 -1.09443 0
M  V30 4438 O 415.543 -1.42823 -0.997362 0
M  V30 4439 C 412.675 -2.85784 -1.8585 0
M  V30 4440 H 413.868 -2.99848 -0.0557743 0
M  V30 4441 H 411.421 -1.56298 0.0084422 0
M  V30 4442 H 412.156 -2.10453 -2.46739 0
M  V30 4443 H 411.941 -3.61057 -1.52907 0
M  V30 4444 H 413.431 -3.35553 -2.48584 0
M  V30 4445 N 413.868 0.0150385 -1.57593 0
M  V30 4446 C 415.115 0.703001 -1.89906 0
M  V30 4447 C 415.443 1.74604 -0.856944 0
M  V30 4448 O 414.698 1.95197 0.140287 0
M  V30 4449 C 414.997 1.39686 -3.28972 0
M  V30 4450 C 414.663 0.488457 -4.48246 0
M  V30 4451 C 413.325 0.2383 -4.8061 0
M  V30 4452 C 415.677 -0.137881 -5.21018 0
M  V30 4453 C 413.005 -0.646738 -5.83125 0
M  V30 4454 C 415.357 -1.0107 -6.24474 0
M  V30 4455 C 414.021 -1.27019 -6.55303 0
M  V30 4456 H 413.291 0.257246 -0.694914 0
M  V30 4457 H 415.938 -0.037259 -1.91464 0
M  V30 4458 H 414.243 2.21079 -3.23468 0
M  V30 4459 H 415.94 1.93495 -3.51227 0
M  V30 4460 H 412.53 0.693593 -4.22951 0
M  V30 4461 H 416.714 0.0423953 -4.96282 0
M  V30 4462 H 411.97 -0.855937 -6.05379 0
M  V30 4463 H 416.144 -1.50247 -6.79999 0
M  V30 4464 H 413.771 -1.95769 -7.3456 0
M  V30 4465 N 415.346 1.54954 0.287554 0
M  V30 4466 C 416.278 1.83224 1.37701 0
M  V30 4467 C 417.291 0.715898 1.46215 0
M  V30 4468 O 418.48 0.993565 1.48292 0
M  V30 4469 C 415.58 1.96723 2.75959 0
M  V30 4470 C 414.753 3.27253 2.90215 0
M  V30 4471 C 413.812 3.30998 4.09056 0
M  V30 4472 O 412.838 4.04457 4.00503 0
M  V30 4473 N 414.04 2.57353 5.20336 0
M  V30 4474 H 416.805 2.77254 1.138 0
M  V30 4475 H 414.366 1.54694 0.477652 0
M  V30 4476 H 416.358 1.96615 3.5373 0
M  V30 4477 H 414.928 1.09626 2.92747 0
M  V30 4478 H 414.148 3.40022 1.99447 0
M  V30 4479 H 415.436 4.13365 2.96659 0
M  V30 4480 H 414.834 1.97327 5.30169 0
M  V30 4481 H 413.391 2.62984 5.96391 0
M  V30 4482 N 416.824 -0.551391 1.4764 0
M  V30 4483 C 418.072 -1.30572 1.54258 0
M  V30 4484 C 418.393 -1.93877 0.208963 0
M  V30 4485 O 417.663 -1.80234 -0.767619 0
M  V30 4486 H 416.243 -0.484894 0.568231 0
M  V30 4487 H 418.905 -0.643402 1.83974 0
M  V30 4488 H 418.001 -2.09621 2.31226 0
M  V30 4489 N 418.302 -1.35869 -0.798587 0
M  V30 4490 C 419.532 -1.32529 -1.58491 0
M  V30 4491 C 419.94 0.0975405 -1.88948 0
M  V30 4492 O 419.283 1.06224 -1.49874 0
M  V30 4493 C 419.345 -2.07247 -2.9375 0
M  V30 4494 C 419.009 -3.56391 -2.86068 0
M  V30 4495 C 420.006 -4.50824 -2.58947 0
M  V30 4496 C 417.691 -3.9915 -3.04933 0
M  V30 4497 C 419.685 -5.85993 -2.5078 0
M  V30 4498 C 417.372 -5.34413 -2.96389 0
M  V30 4499 C 418.37 -6.27646 -2.69349 0
M  V30 4500 O 418.058 -7.60426 -2.60782 0
M  V30 4501 H 417.79 -0.456529 -0.498556 0
M  V30 4502 H 420.344 -1.79425 -0.999799 0
M  V30 4503 H 418.574 -1.55001 -3.54276 0
M  V30 4504 H 420.263 -1.96883 -3.54954 0
M  V30 4505 H 421.029 -4.19104 -2.44084 0
M  V30 4506 H 416.908 -3.26961 -3.24989 0
M  V30 4507 H 420.452 -6.58735 -2.29595 0
M  V30 4508 H 416.349 -5.65743 -3.10813 0
M  V30 4509 H 417.117 -7.70444 -2.76331 0
M  V30 4510 N 419.78 1.02168 -1.19998 0
M  V30 4511 C 420.712 2.10705 -0.901994 0
M  V30 4512 C 421.725 1.6244 0.108216 0
M  V30 4513 O 422.914 1.78082 -0.12214 0
M  V30 4514 C 420.014 3.37291 -0.329834 0
M  V30 4515 C 419.187 4.14714 -1.39035 0
M  V30 4516 C 418.246 5.19606 -0.830432 0
M  V30 4517 O 417.272 5.48809 -1.50989 0
M  V30 4518 N 418.474 5.79366 0.362696 0
M  V30 4519 H 421.239 2.36856 -1.83628 0
M  V30 4520 H 418.8 1.18518 -1.10296 0
M  V30 4521 H 420.792 4.04657 0.0587633 0
M  V30 4522 H 419.362 3.0843 0.508891 0
M  V30 4523 H 418.582 3.42392 -1.9535 0
M  V30 4524 H 419.87 4.63226 -2.10474 0
M  V30 4525 H 419.268 5.57968 0.932081 0
M  V30 4526 H 417.825 6.48106 0.69299 0
M  V30 4527 N 421.258 1.00505 1.21394 0
M  V30 4528 C 422.504 0.688793 1.90745 0
M  V30 4529 C 422.837 -0.778486 1.77914 0
M  V30 4530 O 422.112 -1.56433 1.15581 0
M  V30 4531 C 422.395 1.11063 3.42545 0
M  V30 4532 C 422.248 2.63737 3.64367 0
M  V30 4533 C 423.567 0.673059 4.34923 0
M  V30 4534 H 420.686 0.251702 0.692687 0
M  V30 4535 H 423.328 1.25074 1.43026 0
M  V30 4536 H 421.478 0.632508 3.83317 0
M  V30 4537 H 423.15 3.19313 3.32922 0
M  V30 4538 H 421.393 3.05248 3.08231 0
M  V30 4539 H 422.064 2.88305 4.70727 0
M  V30 4540 H 424.54 1.08392 4.01734 0
M  V30 4541 H 423.416 0.996383 5.39781 0
M  V30 4542 H 423.677 -0.425808 4.40045 0
M  V30 4543 N 422.737 -1.36956 0.779787 0
M  V30 4544 C 423.965 -2.03755 0.359398 0
M  V30 4545 C 424.38 -1.58807 -1.02106 0
M  V30 4546 O 423.737 -0.773024 -1.6532 0
M  V30 4547 C 423.788 -3.59251 0.402568 0
M  V30 4548 O 423.509 -4.02557 1.72858 0
M  V30 4549 C 425.01 -4.43291 -0.0284068 0
M  V30 4550 H 422.23 -0.654148 0.149437 0
M  V30 4551 H 424.774 -1.75128 1.05595 0
M  V30 4552 H 422.929 -3.86621 -0.245478 0
M  V30 4553 H 423.343 -4.97111 1.67275 0
M  V30 4554 H 424.817 -5.51975 0.0529466 0
M  V30 4555 H 425.294 -4.25719 -1.07982 0
M  V30 4556 H 425.9 -4.21163 0.591758 0
M  V30 4557 N 424.215 -0.530993 -1.48385 0
M  V30 4558 C 425.148 0.278511 -2.26494 0
M  V30 4559 C 426.126 0.943905 -1.32398 0
M  V30 4560 O 427.31 0.968098 -1.61741 0
M  V30 4561 C 424.437 1.39453 -3.08659 0
M  V30 4562 C 423.483 0.840434 -4.18137 0
M  V30 4563 S 424.316 -0.292496 -5.34701 0
M  V30 4564 C 425.472 0.825973 -6.20426 0
M  V30 4565 H 425.705 -0.384365 -2.94805 0
M  V30 4566 H 423.238 -0.316799 -1.51115 0
M  V30 4567 H 425.196 2.03382 -3.56575 0
M  V30 4568 H 423.857 2.02913 -2.3976 0
M  V30 4569 H 423.05 1.67769 -4.75257 0
M  V30 4570 H 422.652 0.277819 -3.72967 0
M  V30 4571 H 424.944 1.72438 -6.55188 0
M  V30 4572 H 425.887 0.292728 -7.07495 0
M  V30 4573 H 426.295 1.10683 -5.53543 0
M  V30 4574 N 425.693 1.55336 -0.266172 0
M  V30 4575 C 426.64 2.22172 0.625165 0
M  V30 4576 C 427.61 1.19211 1.15663 0
M  V30 4577 O 428.795 1.47723 1.20758 0
M  V30 4578 C 425.935 2.93972 1.8076 0
M  V30 4579 C 425.048 4.11632 1.31084 0
M  V30 4580 C 424.183 4.71099 2.45436 0
M  V30 4581 C 423.222 5.8097 1.92718 0
M  V30 4582 N 422.359 6.34538 3.00509 0
M  V30 4583 H 427.199 2.9796 0.0485582 0
M  V30 4584 H 424.736 1.47095 0.0122024 0
M  V30 4585 H 426.694 3.33811 2.50251 0
M  V30 4586 H 425.324 2.20623 2.35638 0
M  V30 4587 H 424.376 3.76975 0.509326 0
M  V30 4588 H 425.688 4.90893 0.884633 0
M  V30 4589 H 424.842 5.13612 3.22936 0
M  V30 4590 H 423.581 3.91096 2.91368 0
M  V30 4591 H 422.586 5.37916 1.13695 0
M  V30 4592 H 423.811 6.62836 1.47733 0
M  V30 4593 H 421.757 5.57433 3.45839 0
M  V30 4594 H 421.674 7.09046 2.62279 0
M  V30 4595 H 422.942 6.81709 3.78011 0
M  V30 4596 N 427.171 -0.0066808 1.57599 0
M  V30 4597 C 428.399 -0.704087 1.94551 0
M  V30 4598 C 428.814 -1.67677 0.867746 0
M  V30 4599 O 428.171 -1.8185 -0.153925 0
M  V30 4600 C 428.222 -1.44177 3.31505 0
M  V30 4601 O 427.943 -0.508097 4.35144 0
M  V30 4602 C 429.444 -2.23429 3.82876 0
M  V30 4603 H 426.664 -0.196523 0.641576 0
M  V30 4604 H 429.208 0.042453 2.04456 0
M  V30 4605 H 427.363 -2.13999 3.22929 0
M  V30 4606 H 427.777 -1.02782 5.14331 0
M  V30 4607 H 429.251 -2.70552 4.8115 0
M  V30 4608 H 429.728 -3.05818 3.15233 0
M  V30 4609 H 430.334 -1.58636 3.94607 0
M  V30 4610 N 428.649 -1.55105 -0.279332 0
M  V30 4611 C 429.612 -1.86783 -1.32834 0
M  V30 4612 C 430.612 -0.74199 -1.42657 0
M  V30 4613 O 431.802 -1.0102 -1.41918 0
M  V30 4614 C 428.934 -2.06746 -2.71052 0
M  V30 4615 H 430.127 -2.8055 -1.05979 0
M  V30 4616 H 427.68 -1.47499 -0.517087 0
M  V30 4617 H 428.415 -1.15339 -3.03097 0
M  V30 4618 H 428.2 -2.88711 -2.65309 0
M  V30 4619 H 429.69 -2.32549 -3.46858 0
M  V30 4620 N 430.127 0.543554 -1.4793 0
M  V30 4621 C 431.074 1.64942 -1.6144 0
M  V30 4622 C 432.044 1.59692 -0.456903 0
M  V30 4623 O 433.229 1.78321 -0.678688 0
M  V30 4624 C 430.369 3.03238 -1.64744 0
M  V30 4625 C 429.482 3.18823 -2.91506 0
M  V30 4626 C 428.617 4.47599 -2.86057 0
M  V30 4627 C 427.656 4.56664 -4.07584 0
M  V30 4628 N 426.793 5.76811 -4.00292 0
M  V30 4629 H 431.633 1.52733 -2.55884 0
M  V30 4630 H 429.17 0.7438 -1.2691 0
M  V30 4631 H 431.128 3.83339 -1.64641 0
M  V30 4632 H 429.758 3.1425 -0.738017 0
M  V30 4633 H 428.81 2.32064 -3.01414 0
M  V30 4634 H 430.122 3.21384 -3.81463 0
M  V30 4635 H 429.276 5.35975 -2.84281 0
M  V30 4636 H 428.015 4.47538 -1.93807 0
M  V30 4637 H 427.02 3.66697 -4.09651 0
M  V30 4638 H 428.245 4.58474 -5.00978 0
M  V30 4639 H 426.191 5.77673 -3.10853 0
M  V30 4640 H 426.108 5.80808 -4.8394 0
M  V30 4641 H 427.376 6.67512 -4.02553 0
M  V30 4642 N 431.605 1.3629 0.791371 0
M  V30 4643 C 432.851 1.30605 1.55146 0
M  V30 4644 C 433.184 -0.115042 1.93859 0
M  V30 4645 O 432.459 -1.06798 1.62556 0
M  V30 4646 C 432.742 2.22692 2.82985 0
M  V30 4647 C 432.595 3.73489 2.50651 0
M  V30 4648 C 433.914 2.13588 3.84796 0
M  V30 4649 H 431.033 0.475761 0.562868 0
M  V30 4650 H 433.675 1.66825 0.909358 0
M  V30 4651 H 431.825 1.91933 3.37778 0
M  V30 4652 H 433.497 4.14758 2.01924 0
M  V30 4653 H 431.74 3.93021 1.83622 0
M  V30 4654 H 432.411 4.3333 3.41949 0
M  V30 4655 H 434.887 2.40659 3.39445 0
M  V30 4656 H 433.763 2.80195 4.71998 0
M  V30 4657 H 434.024 1.12256 4.27611 0
M  V30 4658 N 433.083 -1.0153 1.20538 0
M  V30 4659 C 434.046 -2.0826 0.957098 0
M  V30 4660 C 435.046 -1.60657 -0.0678655 0
M  V30 4661 O 436.236 -1.73385 0.168332 0
M  V30 4662 C 433.368 -3.38033 0.441188 0
M  V30 4663 H 434.561 -2.31719 1.90384 0
M  V30 4664 H 432.114 -1.1835 1.02093 0
M  V30 4665 H 432.849 -3.20249 -0.510961 0
M  V30 4666 H 432.634 -3.73911 1.18038 0
M  V30 4667 H 434.124 -4.16613 0.287009 0
M  V30 4668 N 434.561 -1.01147 -1.20859 0
M  V30 4669 C 435.524 -0.582224 -2.21682 0
M  V30 4670 C 436.524 0.344887 -1.57058 0
M  V30 4671 O 437.714 0.134281 -1.73682 0
M  V30 4672 C 434.846 0.150496 -3.40568 0
M  V30 4673 H 436.039 -1.47408 -2.61172 0
M  V30 4674 H 433.592 -0.800695 -1.34233 0
M  V30 4675 H 434.327 1.0575 -3.06574 0
M  V30 4676 H 434.112 -0.515444 -3.88697 0
M  V30 4677 H 435.602 0.438344 -4.15293 0
M  V30 4678 N 436.039 1.36541 -0.78704 0
M  V30 4679 C 437.264 2.0409 -0.369053 0
M  V30 4680 C 437.689 1.58957 1.00569 0
M  V30 4681 O 437.047 0.756926 1.64743 0
M  V30 4682 C 437.095 3.57924 -0.438466 0
M  V30 4683 O 436.199 4.08642 0.555479 0
M  V30 4684 H 435.54 0.645142 -0.157122 0
M  V30 4685 H 438.07 1.74545 -1.06749 0
M  V30 4686 H 438.08 4.06887 -0.301218 0
M  V30 4687 H 436.755 3.90127 -1.44132 0
M  V30 4688 H 435.332 3.70958 0.380088 0
M  V30 4689 N 437.518 0.538854 1.48102 0
M  V30 4690 C 438.795 -0.0568108 1.95517 0
M  V30 4691 C 439.175 -1.50408 1.48124 0
M  V30 4692 O 438.523 -2.17133 0.711727 0
M  V30 4693 C 438.733 0.0696262 3.48931 0
M  V30 4694 C 440.081 -0.0851202 4.24515 0
M  V30 4695 O 441.105 -0.0037347 3.562 0
M  V30 4696 O 439.964 -0.257025 5.45895 0
M  V30 4697 H 437.058 -0.0743695 0.823649 0
M  V30 4698 H 439.604 0.604081 1.58584 0
M  V30 4699 H 438.376 1.07744 3.76174 0
M  V30 4700 H 437.999 -0.629714 3.92582 0
M  V30 4701 N 438.996 -1.55193 0.274407 0
M  V30 4702 C 440.242 -2.00604 -0.33608 0
M  V30 4703 C 440.597 -1.15948 -1.53538 0
M  V30 4704 O 439.89 -0.221385 -1.90317 0
M  V30 4705 C 440.084 -3.49019 -0.769458 0
M  V30 4706 C 439.913 -4.48038 0.386301 0
M  V30 4707 C 438.683 -4.97757 0.869854 0
M  V30 4708 C 440.881 -4.99558 1.22254 0
M  V30 4709 N 438.863 -5.80575 1.99515 0
M  V30 4710 C 440.234 -5.79816 2.19575 0
M  V30 4711 C 442.289 -4.81799 1.25597 0
M  V30 4712 C 440.992 -6.44208 3.19981 0
M  V30 4713 C 443.018 -5.46989 2.24848 0
M  V30 4714 C 442.38 -6.27058 3.20901 0
M  V30 4715 H 438.479 -0.777013 -0.088172 0
M  V30 4716 H 441.063 -1.90583 0.398266 0
M  V30 4717 H 439.234 -3.59383 -1.47303 0
M  V30 4718 H 440.966 -3.81263 -1.35722 0
M  V30 4719 H 437.721 -4.71464 0.449281 0
M  V30 4720 H 438.145 -6.26675 2.5614 0
M  V30 4721 H 442.787 -4.19501 0.527158 0
M  V30 4722 H 440.505 -7.05656 3.93796 0
M  V30 4723 H 444.091 -5.35189 2.28174 0
M  V30 4724 H 442.971 -6.7661 3.96445 0
M  V30 4725 N 440.474 -0.00167713 -1.576 0
M  V30 4726 C 441.702 0.693759 -1.94922 0
M  V30 4727 C 442.117 1.67215 -0.876626 0
M  V30 4728 O 441.474 1.81929 0.144279 0
M  V30 4729 C 441.525 1.42416 -3.32265 0
M  V30 4730 O 441.246 0.485014 -4.35407 0
M  V30 4731 C 442.747 2.21395 -3.84056 0
M  V30 4732 H 439.967 0.193118 -0.642609 0
M  V30 4733 H 442.511 -0.0532952 -2.04431 0
M  V30 4734 H 440.666 2.12284 -3.24059 0
M  V30 4735 H 441.08 1.00053 -5.14868 0
M  V30 4736 H 442.554 2.67996 -4.82578 0
M  V30 4737 H 443.031 3.04142 -3.16851 0
M  V30 4738 H 443.637 1.56542 -3.95443 0
M  V30 4739 N 441.952 1.55251 0.271103 0
M  V30 4740 C 443.199 1.75946 1.00245 0
M  V30 4741 C 443.527 0.561611 1.86215 0
M  V30 4742 O 442.782 -0.455832 1.90317 0
M  V30 4743 C 443.081 3.01879 1.91321 0
M  V30 4744 C 442.747 4.34337 1.21086 0
M  V30 4745 C 441.409 4.70338 1.01666 0
M  V30 4746 C 443.761 5.16325 0.71119 0
M  V30 4747 C 441.089 5.8588 0.310099 0
M  V30 4748 C 443.441 6.32597 0.0182157 0
M  V30 4749 C 442.105 6.67236 -0.18768 0
M  V30 4750 H 441.375 0.643833 0.366824 0
M  V30 4751 H 444.022 1.89521 0.27458 0
M  V30 4752 H 442.327 2.83212 2.70736 0
M  V30 4753 H 444.024 3.15088 2.48033 0
M  V30 4754 H 440.614 4.06043 1.37213 0
M  V30 4755 H 444.798 4.88987 0.848844 0
M  V30 4756 H 440.054 6.1124 0.139873 0
M  V30 4757 H 444.228 6.9538 -0.376711 0
M  V30 4758 H 441.855 7.56618 -0.73715 0
M  V30 4759 N 443.43 -0.535701 1.48216 0
M  V30 4760 C 444.36 -1.65014 1.65204 0
M  V30 4761 C 445.341 -1.62554 0.501011 0
M  V30 4762 O 446.526 -1.7984 0.732886 0
M  V30 4763 C 443.656 -3.03616 1.68626 0
M  V30 4764 C 442.61 -3.20932 2.83172 0
M  V30 4765 C 441.936 -4.60537 2.71679 0
M  V30 4766 C 443.236 -3.04249 4.24535 0
M  V30 4767 H 444.93 -1.51053 2.58502 0
M  V30 4768 H 442.476 -0.725262 1.24402 0
M  V30 4769 H 444.429 -3.81446 1.79099 0
M  V30 4770 H 443.153 -3.18587 0.719026 0
M  V30 4771 H 441.812 -2.45517 2.72244 0
M  V30 4772 H 441.46 -4.72336 1.72937 0
M  V30 4773 H 441.16 -4.73069 3.48538 0
M  V30 4774 H 442.684 -5.40475 2.84112 0
M  V30 4775 H 444.098 -3.71877 4.36326 0
M  V30 4776 H 442.495 -3.28278 5.02348 0
M  V30 4777 H 443.565 -2.00739 4.41397 0
M  V30 4778 N 444.908 -1.36708 -0.784132 0
M  V30 4779 C 445.858 -1.2799 -1.88686 0
M  V30 4780 C 446.842 -0.170282 -1.59996 0
M  V30 4781 O 448.034 -0.403571 -1.72338 0
M  V30 4782 C 445.163 -1.07674 -3.25977 0
M  V30 4783 C 444.249 -2.23127 -3.60659 0
M  V30 4784 N 444.64 -3.48467 -3.66612 0
M  V30 4785 C 442.938 -2.15009 -3.90752 0
M  V30 4786 C 443.639 -4.24525 -3.97685 0
M  V30 4787 N 442.615 -3.53524 -4.12943 0
M  V30 4788 H 446.417 -2.22927 -1.91522 0
M  V30 4789 H 443.931 -1.29503 -0.979933 0
M  V30 4790 H 445.928 -0.995151 -4.04849 0
M  V30 4791 H 444.588 -0.13643 -3.24413 0
M  V30 4792 H 445.599 -3.82534 -3.49125 0
M  V30 4793 H 442.276 -1.28963 -3.97083 0
M  V30 4794 H 443.666 -5.32944 -4.0917 0
M  V30 4795 N 446.386 1.0089 -1.21074 0
M  V30 4796 C 447.626 1.76142 -1.03699 0
M  V30 4797 C 447.99 1.87292 0.422587 0
M  V30 4798 O 449.191 2.59068 0.716752 0
M  V30 4799 C 447.462 3.13805 -1.7106 0
M  V30 4800 S 449.021 4.04996 -1.68889 0
M  V30 4801 H 445.839 0.606113 -0.371683 0
M  V30 4802 H 448.441 1.20744 -1.53756 0
M  V30 4803 H 447.145 3.0332 -2.76451 0
M  V30 4804 H 446.676 3.74276 -1.21166 0
M  V30 4805 H 448.691 4.90842 -0.727211 0
M  V30 4806 N 447.864 1.01787 1.20321 0
M  V30 4807 C 448.794 0.609625 2.25401 0
M  V30 4808 C 449.775 -0.375951 1.65893 0
M  V30 4809 O 450.96 -0.261101 1.92437 0
M  V30 4810 C 448.09 -0.0515995 3.47262 0
M  V30 4811 C 447.044 0.855095 4.19371 0
M  V30 4812 C 446.37 0.0595757 5.34667 0
M  V30 4813 C 447.67 2.16374 4.75373 0
M  V30 4814 H 449.364 1.48803 2.59804 0
M  V30 4815 H 446.91 0.716934 1.24884 0
M  V30 4816 H 448.863 -0.348764 4.19954 0
M  V30 4817 H 447.587 -0.964726 3.12027 0
M  V30 4818 H 446.246 1.13628 3.48546 0
M  V30 4819 H 445.894 -0.85524 4.95676 0
M  V30 4820 H 445.594 0.663406 5.83843 0
M  V30 4821 H 447.118 -0.231105 6.10162 0
M  V30 4822 H 448.532 1.92885 5.39878 0
M  V30 4823 H 446.929 2.71853 5.34991 0
M  V30 4824 H 447.999 2.82589 3.94045 0
M  V30 4825 N 449.342 -1.36122 0.79427 0
M  V30 4826 C 450.753 -1.81646 0.431446 0
M  V30 4827 C 451.104 -1.66043 -1.04518 0
M  V30 4828 O 450.229 -1.1841 -1.8113 0
M  V30 4829 C 450.824 -3.29785 0.776341 0
M  V30 4830 C 449.383 -3.73501 0.466282 0
M  V30 4831 C 448.53 -2.58313 1.00844 0
M  V30 4832 H 451.481 -1.24274 0.986995 0
M  V30 4833 H 451.502 -3.80437 0.0692413 0
M  V30 4834 H 451.014 -3.4111 1.8511 0
M  V30 4835 H 449.115 -3.67733 -0.600245 0
M  V30 4836 H 449.228 -4.68754 0.990288 0
M  V30 4837 H 447.592 -2.5102 0.431406 0
M  V30 4838 H 448.375 -2.72421 2.08906 0
M  V30 4839 N 450.82 -0.546701 -1.47814 0
M  V30 4840 C 452.236 -0.205717 -1.58269 0
M  V30 4841 C 452.436 1.29153 -1.54667 0
M  V30 4842 O 451.492 2.07098 -1.44453 0
M  V30 4843 C 452.805 -0.823065 -2.89216 0
M  V30 4844 C 454.353 -0.793328 -3.02779 0
M  V30 4845 C 454.828 -1.38955 -4.36412 0
M  V30 4846 N 456.319 -1.35227 -4.43021 0
M  V30 4847 C 457.054 -1.78333 -5.44963 0
M  V30 4848 N 456.55 -2.29246 -6.53772 0
M  V30 4849 N 458.343 -1.69467 -5.35945 0
M  V30 4850 H 450.494 -1.5196 -1.48398 0
M  V30 4851 H 452.757 -0.633078 -0.705632 0
M  V30 4852 H 452.463 -1.8749 -2.97558 0
M  V30 4853 H 452.337 -0.309915 -3.75925 0
M  V30 4854 H 454.724 0.249784 -2.94041 0
M  V30 4855 H 454.805 -1.34412 -2.17639 0
M  V30 4856 H 454.449 -2.43168 -4.45906 0
M  V30 4857 H 454.379 -0.814291 -5.20266 0
M  V30 4858 H 456.87 -0.979739 -3.64979 0
M  V30 4859 H 457.183 -2.60089 -7.27718 0
M  V30 4860 H 455.528 -2.3325 -6.5469 0
M  V30 4861 H 458.719 -1.29477 -4.49837 0
M  V30 4862 H 458.892 -2.03381 -6.15256 0
M  V30 4863 N 452.299 1.55045 -0.282633 0
M  V30 4864 C 453.246 2.22822 0.601566 0
M  V30 4865 C 454.216 1.20431 1.14392 0
M  V30 4866 O 455.401 1.48996 1.19184 0
M  V30 4867 C 452.541 2.95873 1.77632 0
M  V30 4868 C 451.654 4.12999 1.26711 0
M  V30 4869 C 450.789 4.73676 2.40426 0
M  V30 4870 C 449.828 5.82981 1.86545 0
M  V30 4871 N 448.965 6.3769 2.93762 0
M  V30 4872 H 453.805 2.97995 0.0169528 0
M  V30 4873 H 451.342 1.471 -0.00339964 0
M  V30 4874 H 453.3 3.36447 2.46697 0
M  V30 4875 H 451.93 2.2311 2.33285 0
M  V30 4876 H 450.982 3.77494 0.469314 0
M  V30 4877 H 452.294 4.91803 0.832518 0
M  V30 4878 H 451.448 5.17008 3.17471 0
M  V30 4879 H 450.187 3.94164 2.87203 0
M  V30 4880 H 449.192 5.39092 1.07983 0
M  V30 4881 H 450.417 6.64366 1.40694 0
M  V30 4882 H 448.363 5.61069 3.39908 0
M  V30 4883 H 448.28 7.11788 2.54744 0
M  V30 4884 H 449.548 6.8568 3.7076 0
M  V30 4885 N 453.777 0.010035 1.57597 0
M  V30 4886 C 455.188 -0.531426 1.78977 0
M  V30 4887 C 455.539 -1.73375 0.918454 0
M  V30 4888 O 454.664 -2.16047 0.123635 0
M  V30 4889 C 455.259 -0.97086 3.24592 0
M  V30 4890 C 453.818 -1.45756 3.47033 0
M  V30 4891 C 452.965 -0.413384 2.74201 0
M  V30 4892 H 455.916 0.236166 1.56933 0
M  V30 4893 H 455.937 -1.83633 3.33255 0
M  V30 4894 H 455.449 -0.0955893 3.87982 0
M  V30 4895 H 453.55 -2.35339 2.88871 0
M  V30 4896 H 453.663 -1.4781 4.55729 0
M  V30 4897 H 452.027 -0.877266 2.39115 0
M  V30 4898 H 452.81 0.453092 3.40297 0
M  V30 4899 N 455.255 -1.55392 -0.262866 0
M  V30 4900 C 456.165 -1.92077 -1.34698 0
M  V30 4901 C 457.181 -0.819227 -1.53508 0
M  V30 4902 O 458.357 -1.11921 -1.67439 0
M  V30 4903 C 455.422 -2.19407 -2.68443 0
M  V30 4904 C 454.483 -3.42905 -2.58292 0
M  V30 4905 C 453.716 -3.68921 -3.85659 0
M  V30 4906 O 453.939 -2.97275 -4.8681 0
M  V30 4907 O 452.873 -4.62455 -3.85252 0
M  V30 4908 H 456.699 -2.84384 -1.06581 0
M  V30 4909 H 454.284 -1.42069 -0.462264 0
M  V30 4910 H 456.166 -2.38365 -3.47506 0
M  V30 4911 H 454.841 -1.30282 -2.96325 0
M  V30 4912 H 453.748 -3.29272 -1.7757 0
M  V30 4913 H 455.081 -4.32282 -2.35358 0
M  V30 4914 N 456.733 0.527833 -1.48498 0
M  V30 4915 C 457.643 1.65907 -1.65867 0
M  V30 4916 C 458.659 1.6537 -0.541192 0
M  V30 4917 O 459.835 1.84282 -0.812534 0
M  V30 4918 C 456.9 3.02364 -1.69637 0
M  V30 4919 C 455.961 3.1374 -2.93028 0
M  V30 4920 C 455.194 4.43688 -2.96609 0
M  V30 4921 O 455.417 5.30913 -2.08538 0
M  V30 4922 O 454.351 4.59475 -3.88802 0
M  V30 4923 H 458.177 1.5419 -2.61647 0
M  V30 4924 H 455.762 0.701163 -1.31924 0
M  V30 4925 H 457.644 3.83515 -1.74625 0
M  V30 4926 H 456.319 3.14401 -0.770312 0
M  V30 4927 H 455.226 2.31877 -2.93571 0
M  V30 4928 H 456.559 3.06621 -3.85026 0
M  V30 4929 N 458.211 1.37122 0.776871 0
M  V30 4930 C 459.457 1.32243 1.53752 0
M  V30 4931 C 459.79 -0.0944745 1.9397 0
M  V30 4932 O 459.065 -1.05068 1.6368 0
M  V30 4933 C 459.348 2.25681 2.80607 0
M  V30 4934 C 459.201 3.76127 2.46676 0
M  V30 4935 C 460.52 2.17657 3.82509 0
M  V30 4936 H 457.639 0.481704 0.557791 0
M  V30 4937 H 460.281 1.6778 0.891612 0
M  V30 4938 H 458.431 1.95505 3.35723 0
M  V30 4939 H 460.103 4.16877 1.97513 0
M  V30 4940 H 458.346 3.94946 1.79443 0
M  V30 4941 H 459.017 4.36933 3.37333 0
M  V30 4942 H 461.493 2.44245 3.36873 0
M  V30 4943 H 460.369 2.85185 4.69 0
M  V30 4944 H 460.63 1.16785 4.26396 0
M  V30 4945 N 459.689 -1.00246 1.21608 0
M  V30 4946 C 460.966 -1.71336 0.943568 0
M  V30 4947 C 461.346 -2.03972 -0.543943 0
M  V30 4948 O 460.694 -1.71545 -1.50946 0
M  V30 4949 C 460.904 -2.97094 1.83128 0
M  V30 4950 C 462.252 -3.70071 2.08165 0
M  V30 4951 O 463.276 -3.07081 1.80498 0
M  V30 4952 O 462.135 -4.83376 2.54971 0
M  V30 4953 H 459.229 -0.747386 0.354039 0
M  V30 4954 H 461.775 -1.05967 1.32549 0
M  V30 4955 H 460.547 -2.69407 2.83788 0
M  V30 4956 H 460.17 -3.70204 1.45034 0
M  V30 4957 N 461.167 -1.02423 -1.1978 0
M  V30 4958 C 462.444 -0.632802 -1.85081 0
M  V30 4959 C 462.824 0.888745 -1.9148 0
M  V30 4960 O 462.172 1.78357 -1.42832 0
M  V30 4961 C 462.382 -1.28947 -3.24305 0
M  V30 4962 C 463.73 -1.40976 -4.00513 0
M  V30 4963 O 464.754 -1.24628 -3.33686 0
M  V30 4964 O 463.613 -1.67467 -5.20209 0
M  V30 4965 H 460.707 -0.219348 -0.79738 0
M  V30 4966 H 463.253 -1.12209 -1.27307 0
M  V30 4967 H 462.025 -2.3288 -3.14456 0
M  V30 4968 H 461.648 -0.787748 -3.89718 0
M  V30 4969 N 462.645 1.35699 -0.801477 0
M  V30 4970 C 463.555 2.33661 -0.209691 0
M  V30 4971 C 464.571 1.6162 0.644591 0
M  V30 4972 O 465.747 1.93529 0.557545 0
M  V30 4973 C 462.812 3.40816 0.636033 0
M  V30 4974 C 461.873 4.28639 -0.238147 0
M  V30 4975 C 461.106 5.30676 0.567307 0
M  V30 4976 O 461.329 5.41174 1.8024 0
M  V30 4977 O 460.263 6.01887 -0.0391336 0
M  V30 4978 H 464.089 2.8606 -1.01996 0
M  V30 4979 H 461.674 1.38379 -0.563164 0
M  V30 4980 H 463.556 4.06301 1.11791 0
M  V30 4981 H 462.231 2.90696 1.42399 0
M  V30 4982 H 461.138 3.66152 -0.767044 0
M  V30 4983 H 462.471 4.82143 -0.989915 0
M  V30 4984 N 464.123 0.554532 1.47522 0
M  V30 4985 C 465.369 0.0295227 2.02779 0
M  V30 4986 C 465.702 -1.31582 1.42828 0
M  V30 4987 O 464.977 -1.85561 0.582872 0
M  V30 4988 C 465.26 -0.0664057 3.60039 0
M  V30 4989 C 465.113 1.30585 4.30427 0
M  V30 4990 C 466.432 -0.781162 4.33112 0
M  V30 4991 H 463.551 0.0122027 0.736899 0
M  V30 4992 H 466.193 0.716305 1.7598 0
M  V30 4993 H 464.343 -0.651307 3.83002 0
M  V30 4994 H 466.015 1.93374 4.18813 0
M  V30 4995 H 464.258 1.88125 3.90886 0
M  V30 4996 H 464.929 1.19147 5.38988 0
M  V30 4997 H 467.405 -0.284565 4.15126 0
M  V30 4998 H 466.281 -0.817237 5.42782 0
M  V30 4999 H 466.542 -1.83672 4.0214 0
M  V30 5000 N 465.601 -1.54893 0.290851 0
M  V30 5001 C 466.848 -1.99933 -0.321391 0
M  V30 5002 C 467.176 -1.17927 -1.54672 0
M  V30 5003 O 466.431 -0.240902 -1.94212 0
M  V30 5004 C 466.73 -3.49815 -0.732397 0
M  V30 5005 C 466.396 -4.4921 0.390056 0
M  V30 5006 C 465.058 -4.76107 0.698223 0
M  V30 5007 C 467.41 -5.08453 1.14562 0
M  V30 5008 C 464.738 -5.59514 1.76526 0
M  V30 5009 C 467.09 -5.9302 2.2025 0
M  V30 5010 C 465.754 -6.18232 2.51684 0
M  V30 5011 H 465.024 -0.731608 -0.117605 0
M  V30 5012 H 467.671 -1.87107 0.407839 0
M  V30 5013 H 465.976 -3.60199 -1.54155 0
M  V30 5014 H 467.673 -3.82083 -1.21712 0
M  V30 5015 H 464.263 -4.28372 0.13976 0
M  V30 5016 H 468.447 -4.87683 0.920801 0
M  V30 5017 H 463.703 -5.77289 2.01364 0
M  V30 5018 H 467.877 -6.37955 2.7926 0
M  V30 5019 H 465.504 -6.82653 3.34499 0
M  V30 5020 N 467.08 -0.0183926 -1.57589 0
M  V30 5021 C 468.31 0.67207 -1.95363 0
M  V30 5022 C 468.718 1.66807 -0.892872 0
M  V30 5023 O 468.061 1.83204 0.134958 0
M  V30 5024 C 468.123 1.44397 -3.29226 0
M  V30 5025 C 467.787 0.607511 -4.52944 0
M  V30 5026 C 468.784 -0.112657 -5.19778 0
M  V30 5027 C 466.469 0.548068 -4.99301 0
M  V30 5028 C 468.463 -0.881057 -6.31281 0
M  V30 5029 C 466.15 -0.224044 -6.10689 0
M  V30 5030 C 467.148 -0.937323 -6.76538 0
M  V30 5031 O 466.836 -1.6968 -7.85789 0
M  V30 5032 H 466.568 0.190925 -0.648478 0
M  V30 5033 H 469.122 -0.0711994 -2.05277 0
M  V30 5034 H 467.352 2.23214 -3.15773 0
M  V30 5035 H 469.041 2.02152 -3.51979 0
M  V30 5036 H 469.807 -0.0759998 -4.8494 0
M  V30 5037 H 465.686 1.09281 -4.4786 0
M  V30 5038 H 469.23 -1.43832 -6.82611 0
M  V30 5039 H 465.127 -0.262457 -6.44966 0
M  V30 5040 H 465.895 -1.61544 -8.024 0
M  V30 5041 N 468.558 1.5553 0.254621 0
M  V30 5042 C 469.783 1.81383 1.00573 0
M  V30 5043 C 470.208 0.594419 1.78461 0
M  V30 5044 O 469.566 -0.456403 1.75461 0
M  V30 5045 C 469.614 3.04892 1.92545 0
M  V30 5046 O 468.718 2.81266 3.01601 0
M  V30 5047 H 468.059 0.598969 0.286587 0
M  V30 5048 H 470.589 2.02703 0.277952 0
M  V30 5049 H 470.599 3.34119 2.34155 0
M  V30 5050 H 469.274 3.93287 1.3527 0
M  V30 5051 H 467.851 2.63185 2.64174 0
M  V30 5052 N 470.036 -0.519951 1.48776 0
M  V30 5053 C 471.447 -1.10177 1.50725 0
M  V30 5054 C 471.798 -1.94153 0.282678 0
M  V30 5055 O 470.923 -2.07645 -0.609298 0
M  V30 5056 C 471.518 -2.00482 2.73116 0
M  V30 5057 C 470.077 -2.53862 2.77905 0
M  V30 5058 C 469.224 -1.31047 2.44381 0
M  V30 5059 H 472.175 -0.30473 1.55747 0
M  V30 5060 H 472.196 -2.8491 2.52203 0
M  V30 5061 H 471.708 -1.39335 3.62225 0
M  V30 5062 H 469.809 -3.18702 1.93029 0
M  V30 5063 H 469.922 -2.9231 3.79594 0
M  V30 5064 H 468.286 -1.62953 1.95751 0
M  V30 5065 H 469.069 -0.71637 3.35743 0
M  V30 5066 N 471.514 -1.37532 -0.769588 0
M  V30 5067 C 472.93 -1.18379 -1.07045 0
M  V30 5068 C 473.13 -0.0214312 -2.01489 0
M  V30 5069 O 472.186 0.637809 -2.44312 0
M  V30 5070 C 473.499 -2.50338 -1.66588 0
M  V30 5071 C 475.047 -2.56879 -1.78835 0
M  V30 5072 C 475.522 -3.88974 -2.41792 0
M  V30 5073 N 477.013 -3.90428 -2.4924 0
M  V30 5074 C 477.748 -4.89388 -2.98809 0
M  V30 5075 N 477.244 -5.98745 -3.48535 0
M  V30 5076 N 479.037 -4.76791 -2.97703 0
M  V30 5077 H 471.188 -2.11921 -0.142541 0
M  V30 5078 H 473.451 -0.939608 -0.125863 0
M  V30 5079 H 473.157 -3.35767 -1.0466 0
M  V30 5080 H 473.031 -2.67583 -2.65856 0
M  V30 5081 H 475.418 -1.71856 -2.39895 0
M  V30 5082 H 475.499 -2.43516 -0.783166 0
M  V30 5083 H 475.143 -4.74412 -1.81371 0
M  V30 5084 H 475.073 -3.99641 -3.4292 0
M  V30 5085 H 477.564 -3.11433 -2.14052 0
M  V30 5086 H 477.877 -6.70205 -3.84767 0
M  V30 5087 H 476.222 -6.02387 -3.46634 0
M  V30 5088 H 479.413 -3.90478 -2.58157 0
M  V30 5089 H 479.586 -5.54069 -3.36024 0
M  V30 5090 N 472.992 0.995999 -1.22138 0
M  V30 5091 C 474.217 1.77601 -1.0711 0
M  V30 5092 C 474.642 1.84339 0.374264 0
M  V30 5093 O 474 1.29359 1.27028 0
M  V30 5094 C 474.048 3.18897 -1.68336 0
M  V30 5095 O 473.152 4.01663 -0.934928 0
M  V30 5096 H 472.493 0.547011 -0.376397 0
M  V30 5097 H 475.023 1.25137 -1.6187 0
M  V30 5098 H 475.033 3.69539 -1.72931 0
M  V30 5099 H 473.708 3.13308 -2.73516 0
M  V30 5100 H 472.285 3.60204 -0.964751 0
M  V30 5101 N 474.47 1.03057 1.19235 0
M  V30 5102 C 475.4 0.633497 2.24742 0
M  V30 5103 C 476.381 -0.358335 1.66283 0
M  V30 5104 O 477.566 -0.240676 1.92703 0
M  V30 5105 C 474.696 -0.0147648 3.47297 0
M  V30 5106 C 473.65 0.899527 4.18441 0
M  V30 5107 C 472.976 0.116281 5.34574 0
M  V30 5108 C 474.276 2.21404 4.73051 0
M  V30 5109 H 475.97 1.5155 2.58211 0
M  V30 5110 H 473.516 0.73014 1.24117 0
M  V30 5111 H 475.469 -0.304202 4.20301 0
M  V30 5112 H 474.193 -0.931577 3.13032 0
M  V30 5113 H 472.852 1.17319 3.47321 0
M  V30 5114 H 472.5 -0.802619 4.96555 0
M  V30 5115 H 472.2 0.725293 5.83107 0
M  V30 5116 H 473.724 -0.166376 6.10373 0
M  V30 5117 H 475.138 1.98601 5.37802 0
M  V30 5118 H 473.535 2.77512 5.32078 0
M  V30 5119 H 474.605 2.86752 3.91026 0
M  V30 5120 N 475.948 -1.35272 0.808662 0
M  V30 5121 C 477.194 -1.99003 0.390581 0
M  V30 5122 C 477.527 -1.63999 -1.0401 0
M  V30 5123 O 476.802 -0.904368 -1.72196 0
M  V30 5124 C 477.085 -3.55454 0.576566 0
M  V30 5125 C 476.938 -4.00249 2.05233 0
M  V30 5126 C 478.257 -4.401 0.00354277 0
M  V30 5127 H 475.376 -0.722917 0.143388 0
M  V30 5128 H 478.018 -1.6039 1.01858 0
M  V30 5129 H 476.168 -3.88477 0.0419766 0
M  V30 5130 H 477.84 -3.77626 2.64946 0
M  V30 5131 H 476.083 -3.51082 2.54801 0
M  V30 5132 H 476.754 -5.0911 2.13333 0
M  V30 5133 H 479.23 -4.13548 0.460117 0
M  V30 5134 H 478.106 -5.48656 0.163575 0
M  V30 5135 H 478.367 -4.28444 -1.09032 0
M  V30 5136 N 477.426 -0.562348 -1.47226 0
M  V30 5137 C 478.673 -0.0402165 -2.0246 0
M  V30 5138 C 479.001 1.31169 -1.43614 0
M  V30 5139 O 478.256 1.86805 -0.5833 0
M  V30 5140 C 478.555 0.0969817 -3.57268 0
M  V30 5141 C 478.221 -1.1847 -4.35058 0
M  V30 5142 C 476.883 -1.53588 -4.56031 0
M  V30 5143 C 479.235 -2.03378 -4.79882 0
M  V30 5144 C 476.563 -2.73452 -5.19077 0
M  V30 5145 C 478.915 -3.2245 -5.44251 0
M  V30 5146 C 477.579 -3.57876 -5.63455 0
M  V30 5147 H 476.849 -0.0147163 -0.740854 0
M  V30 5148 H 479.496 -0.734895 -1.76838 0
M  V30 5149 H 477.801 0.87466 -3.81912 0
M  V30 5150 H 479.498 0.516408 -3.97661 0
M  V30 5151 H 476.088 -0.90126 -4.19017 0
M  V30 5152 H 480.272 -1.77553 -4.63453 0
M  V30 5153 H 475.528 -3.01062 -5.32139 0
M  V30 5154 H 479.702 -3.88526 -5.77945 0
M  V30 5155 H 477.329 -4.50849 -6.12078 0
M  V30 5156 N 478.904 1.54736 -0.299062 0
M  V30 5157 C 480.315 1.8569 0.193971 0
M  V30 5158 C 480.666 1.22101 1.53577 0
M  V30 5159 O 479.791 0.51799 2.10109 0
M  V30 5160 C 480.386 3.36895 0.358733 0
M  V30 5161 C 478.945 3.67887 0.795986 0
M  V30 5162 C 478.092 2.77131 -0.096807 0
M  V30 5163 H 481.043 1.49934 -0.520134 0
M  V30 5164 H 481.064 3.61294 1.19361 0
M  V30 5165 H 480.576 3.83148 -0.617998 0
M  V30 5166 H 478.677 3.27151 1.78334 0
M  V30 5167 H 478.79 4.75114 0.616718 0
M  V30 5168 H 477.154 2.51153 0.423581 0
M  V30 5169 H 477.937 3.26204 -1.06986 0
M  V30 5170 N 480.382 0.0267497 1.57577 0
M  V30 5171 C 481.292 -0.971633 2.13533 0
M  V30 5172 C 482.308 -1.35868 1.08701 0
M  V30 5173 O 483.484 -1.44058 1.40746 0
M  V30 5174 C 480.549 -2.23622 2.64941 0
M  V30 5175 C 479.61 -1.90982 3.8448 0
M  V30 5176 C 478.843 -3.11411 4.33427 0
M  V30 5177 O 479.066 -4.23992 3.81558 0
M  V30 5178 O 478 -2.93848 5.25297 0
M  V30 5179 H 481.826 -0.525853 2.99113 0
M  V30 5180 H 479.411 -0.193712 1.48139 0
M  V30 5181 H 481.293 -2.97864 2.98086 0
M  V30 5182 H 479.968 -2.67386 1.82446 0
M  V30 5183 H 478.875 -1.14132 3.56265 0
M  V30 5184 H 480.208 -1.52036 4.6813 0
M  V30 5185 N 481.861 -1.55662 -0.24637 0
M  V30 5186 C 482.824 -1.89558 -1.28842 0
M  V30 5187 C 483.824 -0.772082 -1.41052 0
M  V30 5188 O 485.014 -1.04007 -1.39743 0
M  V30 5189 C 482.146 -2.12449 -2.66605 0
M  V30 5190 H 483.339 -2.82735 -1.00004 0
M  V30 5191 H 480.892 -1.48562 -0.485684 0
M  V30 5192 H 481.627 -1.21742 -3.00582 0
M  V30 5193 H 481.412 -2.94273 -2.59125 0
M  V30 5194 H 482.902 -2.39854 -3.41847 0
M  V30 5195 N 483.339 0.512053 -1.4905 0
M  V30 5196 C 484.249 1.64139 -1.67617 0
M  V30 5197 C 485.265 1.64786 -0.558701 0
M  V30 5198 O 486.441 1.8341 -0.832034 0
M  V30 5199 C 483.506 3.00548 -1.72835 0
M  V30 5200 C 482.567 3.10615 -2.96339 0
M  V30 5201 C 481.8 4.40517 -3.01298 0
M  V30 5202 O 482.023 5.28671 -2.14157 0
M  V30 5203 O 480.957 4.55325 -3.93653 0
M  V30 5204 H 484.783 1.51407 -2.63267 0
M  V30 5205 H 482.368 0.687131 -1.32661 0
M  V30 5206 H 484.25 3.81641 -1.78683 0
M  V30 5207 H 482.925 3.13566 -0.803616 0
M  V30 5208 H 481.832 2.2875 -2.96014 0
M  V30 5209 H 483.165 3.0252 -3.88256 0
M  V30 5210 N 484.817 1.37938 0.762283 0
M  V30 5211 C 485.765 1.34569 1.89721 0
M  V30 5212 C 486.759 0.232929 1.67791 0
M  V30 5213 O 487.965 0.401485 1.75465 0
M  V30 5214 H 484.34 0.419594 0.624055 0
M  V30 5215 H 486.311 2.30357 1.8968 0
M  V30 5216 C 485.06 1.17898 3.27101 0
M  V30 5217 H 484.383 2.02781 3.44558 0
M  V30 5218 H 485.823 1.19593 4.06784 0
M  V30 5219 C 484.282 -0.114728 3.36705 0
M  V30 5220 O 484.812 -1.0949 3.8649 0
M  V30 5221 N 483.018 -0.16863 2.9011 0
M  V30 5222 H 482.565 0.62967 2.49786 0
M  V30 5223 H 482.523 -1.03383 2.96916 0
M  V30 5224 N 486.295 -0.989507 1.22664 0
M  V30 5225 C 487.711 -1.25395 0.987331 0
M  V30 5226 C 487.911 -1.9899 -0.317056 0
M  V30 5227 O 486.967 -2.30141 -1.03882 0
M  V30 5228 C 488.28 -2.06242 2.18826 0
M  V30 5229 C 489.828 -2.19413 2.23219 0
M  V30 5230 C 490.303 -3.03648 3.42873 0
M  V30 5231 N 491.794 -3.11234 3.43056 0
M  V30 5232 C 492.529 -3.7671 4.32293 0
M  V30 5233 N 492.025 -4.44085 5.31752 0
M  V30 5234 N 493.818 -3.73505 4.2006 0
M  V30 5235 H 485.969 -0.496212 2.06522 0
M  V30 5236 H 488.232 -0.281784 0.905153 0
M  V30 5237 H 487.938 -1.59531 3.13437 0
M  V30 5238 H 487.812 -3.06996 2.19165 0
M  V30 5239 H 490.199 -2.65336 1.29154 0
M  V30 5240 H 490.28 -1.18078 2.26917 0
M  V30 5241 H 489.924 -2.58424 4.37241 0
M  V30 5242 H 489.854 -4.05132 3.36416 0
M  V30 5243 H 492.345 -2.63287 2.71088 0
M  V30 5244 H 492.658 -4.91797 5.96117 0
M  V30 5245 H 491.003 -4.42822 5.35662 0
M  V30 5246 H 494.194 -3.20033 3.41609 0
M  V30 5247 H 494.367 -4.24253 4.8981 0
M  V30 5248 N 487.773 -1.03688 -1.18687 0
M  V30 5249 C 488.72 -0.624624 -2.22187 0
M  V30 5250 C 489.69 0.365636 -1.62026 0
M  V30 5251 O 490.875 0.260481 -1.89014 0
M  V30 5252 C 488.015 0.0101738 -3.45099 0
M  V30 5253 C 487.128 -1.02709 -4.19613 0
M  V30 5254 C 486.263 -0.361213 -5.2997 0
M  V30 5255 C 485.302 -1.38384 -5.96252 0
M  V30 5256 N 484.439 -0.743196 -6.98155 0
M  V30 5257 H 489.279 -1.51176 -2.56807 0
M  V30 5258 H 486.816 -0.75636 -1.26165 0
M  V30 5259 H 488.774 0.395528 -4.15321 0
M  V30 5260 H 487.404 0.860848 -3.1111 0
M  V30 5261 H 486.456 -1.53043 -3.48256 0
M  V30 5262 H 487.768 -1.80398 -4.65036 0
M  V30 5263 H 486.922 0.0785537 -6.06649 0
M  V30 5264 H 485.661 0.447799 -4.8564 0
M  V30 5265 H 484.666 -1.83378 -5.18317 0
M  V30 5266 H 485.891 -2.19448 -6.42666 0
M  V30 5267 H 483.837 0.0455789 -6.55984 0
M  V30 5268 H 483.754 -1.45784 -7.41811 0
M  V30 5269 H 485.022 -0.327698 -7.78811 0
M  V30 5270 N 489.251 1.34841 -0.815825 0
M  V30 5271 C 490.497 1.99219 -0.410288 0
M  V30 5272 C 490.852 1.63532 1.01366 0
M  V30 5273 O 490.145 0.893093 1.69512 0
M  V30 5274 C 490.339 3.53273 -0.541541 0
M  V30 5275 C 490.168 4.03927 -1.9767 0
M  V30 5276 C 488.938 4.32852 -2.60706 0
M  V30 5277 C 491.136 4.21808 -2.9425 0
M  V30 5278 N 489.118 4.69494 -3.95536 0
M  V30 5279 C 490.489 4.6155 -4.13971 0
M  V30 5280 C 492.544 4.04038 -2.9096 0
M  V30 5281 C 491.247 4.85381 -5.30847 0
M  V30 5282 C 493.273 4.29031 -4.07046 0
M  V30 5283 C 492.635 4.69054 -5.25517 0
M  V30 5284 H 488.734 0.756494 -0.198094 0
M  V30 5285 H 491.318 1.63379 -1.05902 0
M  V30 5286 H 489.489 3.88323 0.0772544 0
M  V30 5287 H 491.221 4.04551 -0.109694 0
M  V30 5288 H 487.976 4.23503 -2.11995 0
M  V30 5289 H 488.4 4.92061 -4.64979 0
M  V30 5290 H 493.042 3.7223 -2.00512 0
M  V30 5291 H 490.76 5.16059 -6.21859 0
M  V30 5292 H 494.346 4.16826 -4.05891 0
M  V30 5293 H 493.226 4.88014 -6.1385 0
M  V30 5294 N 490.729 0.570148 1.46925 0
M  V30 5295 C 491.957 0.0561966 2.06824 0
M  V30 5296 C 492.372 -1.24326 1.42086 0
M  V30 5297 O 491.729 -1.74882 0.521794 0
M  V30 5298 C 491.78 -0.129517 3.61268 0
M  V30 5299 O 491.501 1.1185 4.23581 0
M  V30 5300 C 493.002 -0.679266 4.38065 0
M  V30 5301 H 490.222 0.0517261 0.669003 0
M  V30 5302 H 492.766 0.787243 1.8874 0
M  V30 5303 H 490.921 -0.810739 3.78822 0
M  V30 5304 H 491.335 0.924375 5.1629 0
M  V30 5305 H 492.809 -0.758445 5.46765 0
M  V30 5306 H 493.286 -1.69346 4.05239 0
M  V30 5307 H 493.892 -0.0333237 4.25287 0
M  V30 5308 N 492.207 -1.54576 0.307264 0
M  V30 5309 C 493.456 -1.99442 -0.300976 0
M  V30 5310 C 493.769 -1.19928 -1.5452 0
M  V30 5311 O 494.975 -1.55092 -2.22842 0
M  V30 5312 C 493.431 -3.55084 -0.586809 0
M  V30 5313 C 493.039 -4.43413 0.639438 0
M  V30 5314 C 494.783 -4.0846 -1.1559 0
M  V30 5315 C 492.69 -5.90499 0.326411 0
M  V30 5316 H 491.62 -0.744986 -0.116238 0
M  V30 5317 H 494.271 -1.787 0.416947 0
M  V30 5318 H 492.653 -3.71749 -1.36449 0
M  V30 5319 H 493.827 -4.38522 1.41545 0
M  V30 5320 H 492.142 -4.00842 1.1276 0
M  V30 5321 H 494.739 -5.15926 -1.40445 0
M  V30 5322 H 495.082 -3.59443 -2.10015 0
M  V30 5323 H 495.615 -3.95362 -0.439778 0
M  V30 5324 H 492.354 -6.43676 1.23939 0
M  V30 5325 H 491.874 -5.98382 -0.412212 0
M  V30 5326 H 493.553 -6.46962 -0.0697393 0
M  V30 5327 N 493.685 -0.035106 -1.57561 0
M  V30 5328 C 494.618 0.979673 -2.06101 0
M  V30 5329 C 495.596 1.31378 -0.958046 0
M  V30 5330 O 496.78 1.42942 -1.22881 0
M  V30 5331 C 493.907 2.29809 -2.48808 0
M  V30 5332 C 492.953 2.11817 -3.70184 0
M  V30 5333 S 493.786 1.41143 -5.16565 0
M  V30 5334 C 494.942 2.74341 -5.62572 0
M  V30 5335 H 495.175 0.566506 -2.91853 0
M  V30 5336 H 492.708 0.176744 -1.53385 0
M  V30 5337 H 494.666 3.056 -2.74078 0
M  V30 5338 H 493.327 2.68257 -1.63392 0
M  V30 5339 H 492.52 3.09299 -3.97933 0
M  V30 5340 H 492.122 1.44168 -3.45097 0
M  V30 5341 H 494.414 3.70562 -5.67177 0
M  V30 5342 H 495.357 2.51249 -6.62027 0
M  V30 5343 H 495.765 2.79863 -4.90242 0
M  V30 5344 N 495.163 1.55791 0.238111 0
M  V30 5345 C 496.126 1.90239 1.27835 0
M  V30 5346 C 497.126 0.779552 1.4064 0
M  V30 5347 O 498.316 1.04747 1.3919 0
M  V30 5348 C 495.448 2.13859 2.65475 0
M  V30 5349 H 496.641 2.83262 0.985034 0
M  V30 5350 H 494.194 1.48818 0.477799 0
M  V30 5351 H 494.929 1.23334 2.99932 0
M  V30 5352 H 494.714 2.95643 2.57561 0
M  V30 5353 H 496.204 2.41664 3.40571 0
M  V30 5354 N 496.642 -0.504142 1.49319 0
M  V30 5355 C 497.888 -1.26033 1.58882 0
M  V30 5356 C 498.221 -1.92268 0.273274 0
M  V30 5357 O 497.496 -1.80567 -0.72291 0
M  V30 5358 C 497.779 -2.32976 2.7458 0
M  V30 5359 C 497.632 -1.71263 4.1592 0
M  V30 5360 C 498.951 -3.34561 2.85932 0
M  V30 5361 H 496.07 -0.456863 0.578312 0
M  V30 5362 H 498.712 -0.558965 1.81592 0
M  V30 5363 H 496.862 -2.92796 2.55348 0
M  V30 5364 H 498.534 -1.15294 4.4666 0
M  V30 5365 H 496.777 -1.01686 4.21714 0
M  V30 5366 H 497.448 -2.48816 4.92742 0
M  V30 5367 H 499.924 -2.84727 3.0343 0
M  V30 5368 H 498.8 -4.06754 3.68568 0
M  V30 5369 H 499.061 -3.96695 1.95154 0
M  V30 5370 N 498.12 -1.38341 -0.754957 0
M  V30 5371 C 499.053 -1.29837 -1.87663 0
M  V30 5372 C 500.031 -0.175659 -1.61648 0
M  V30 5373 O 501.215 -0.352745 -1.8517 0
M  V30 5374 C 498.342 -1.01141 -3.23246 0
M  V30 5375 C 497.388 -2.15331 -3.6815 0
M  V30 5376 S 498.221 -3.77459 -3.79849 0
M  V30 5377 C 499.377 -3.50948 -5.18253 0
M  V30 5378 H 499.61 -2.24771 -1.9459 0
M  V30 5379 H 497.143 -1.24161 -0.917796 0
M  V30 5380 H 499.101 -0.852687 -4.01546 0
M  V30 5381 H 497.762 -0.0792784 -3.14 0
M  V30 5382 H 496.955 -1.90795 -4.6649 0
M  V30 5383 H 496.557 -2.27304 -2.97 0
M  V30 5384 H 498.849 -3.06977 -6.03963 0
M  V30 5385 H 499.792 -4.48677 -5.47809 0
M  V30 5386 H 500.2 -2.85492 -4.86985 0
M  V30 5387 N 499.598 0.982988 -1.23187 0
M  V30 5388 C 500.844 1.72648 -1.06398 0
M  V30 5389 C 501.177 1.90066 0.398561 0
M  V30 5390 O 500.452 1.45105 1.29518 0
M  V30 5391 C 500.735 3.12627 -1.78707 0
M  V30 5392 C 500.588 3.02795 -3.32618 0
M  V30 5393 C 501.907 4.11997 -1.54747 0
M  V30 5394 H 499.026 0.626649 -0.387918 0
M  V30 5395 H 501.668 1.14455 -1.51658 0
M  V30 5396 H 499.818 3.62308 -1.40234 0
M  V30 5397 H 501.49 2.60659 -3.80598 0
M  V30 5398 H 499.733 2.39362 -3.61785 0
M  V30 5399 H 500.404 4.01893 -3.78399 0
M  V30 5400 H 502.88 3.71114 -1.88186 0
M  V30 5401 H 501.756 5.08037 -2.07821 0
M  V30 5402 H 502.017 4.39462 -0.482249 0
M  V30 5403 N 501.076 1.04316 1.18135 0
M  V30 5404 C 502.301 0.768047 1.92655 0
M  V30 5405 C 502.726 -0.66904 1.758 0
M  V30 5406 O 502.084 -1.46372 1.06981 0
M  V30 5407 C 502.132 1.14239 3.42026 0
M  V30 5408 O 501.236 0.269333 4.1152 0
M  V30 5409 H 500.577 0.282436 0.600937 0
M  V30 5410 H 503.107 1.39367 1.49793 0
M  V30 5411 H 503.117 1.10538 3.92741 0
M  V30 5412 H 501.792 2.18928 3.53615 0
M  V30 5413 H 500.369 0.366175 3.71098 0
M  V30 5414 N 502.554 -1.34406 0.822964 0
M  V30 5415 C 503.484 -2.32052 0.259608 0
M  V30 5416 C 504.465 -1.58243 -0.623961 0
M  V30 5417 O 505.65 -1.86224 -0.55083 0
M  V30 5418 C 502.78 -3.42434 -0.579314 0
M  V30 5419 C 501.734 -4.27499 0.20712 0
M  V30 5420 C 501.06 -5.29349 -0.754547 0
M  V30 5421 C 502.36 -5.02758 1.41533 0
M  V30 5422 H 504.054 -2.79418 1.07545 0
M  V30 5423 H 501.6 -1.34338 0.518593 0
M  V30 5424 H 503.553 -4.0976 -0.983612 0
M  V30 5425 H 502.277 -2.93717 -1.4282 0
M  V30 5426 H 500.936 -3.61776 0.592787 0
M  V30 5427 H 500.584 -4.76895 -1.59939 0
M  V30 5428 H 500.284 -5.8714 -0.232561 0
M  V30 5429 H 501.808 -5.99544 -1.1567 0
M  V30 5430 H 503.222 -5.62938 1.08504 0
M  V30 5431 H 501.619 -5.70123 1.87296 0
M  V30 5432 H 502.689 -4.32451 2.1935 0
M  V30 5433 N 504.032 -0.577932 -1.46621 0
M  V30 5434 C 504.962 0.145917 -2.33044 0
M  V30 5435 C 505.943 0.888412 -1.45056 0
M  V30 5436 O 507.128 0.864812 -1.73881 0
M  V30 5437 C 504.258 1.16322 -3.27241 0
M  V30 5438 C 503.212 0.535868 -4.24632 0
M  V30 5439 C 502.538 1.65929 -5.08303 0
M  V30 5440 C 503.838 -0.523861 -5.19666 0
M  V30 5441 H 505.532 -0.575636 -2.93814 0
M  V30 5442 H 503.078 -0.278272 -1.41286 0
M  V30 5443 H 505.031 1.67793 -3.86553 0
M  V30 5444 H 503.755 1.91498 -2.64567 0
M  V30 5445 H 502.414 0.0422759 -3.66576 0
M  V30 5446 H 502.062 2.40061 -4.42018 0
M  V30 5447 H 501.762 1.2452 -5.74255 0
M  V30 5448 H 503.286 2.17686 -5.70478 0
M  V30 5449 H 504.7 -0.0944059 -5.73222 0
M  V30 5450 H 503.097 -0.858 -5.93935 0
M  V30 5451 H 504.167 -1.41197 -4.63887 0
M  V30 5452 N 505.51 1.54411 -0.315457 0
M  V30 5453 C 506.738 2.04833 0.291738 0
M  V30 5454 C 507.153 1.19203 1.46411 0
M  V30 5455 O 506.51 0.220867 1.81159 0
M  V30 5456 C 506.561 3.53969 0.73404 0
M  V30 5457 O 506.282 4.36346 -0.391682 0
M  V30 5458 C 507.783 4.2045 1.40489 0
M  V30 5459 H 505.003 0.668195 0.0612947 0
M  V30 5460 H 507.547 1.99276 -0.45929 0
M  V30 5461 H 505.702 3.5984 1.43506 0
M  V30 5462 H 506.116 5.24481 -0.0447088 0
M  V30 5463 H 507.59 5.26278 1.66539 0
M  V30 5464 H 508.067 3.71067 2.3496 0
M  V30 5465 H 508.673 4.18694 0.746662 0
M  V30 5466 N 506.988 0.0434614 1.5754 0
M  V30 5467 C 508.265 -0.671479 1.83713 0
M  V30 5468 C 508.645 -1.89495 0.930315 0
M  V30 5469 O 507.993 -2.28498 -0.0105639 0
M  V30 5470 C 508.203 -1.0361 3.33266 0
M  V30 5471 C 509.551 -1.42167 4.00092 0
M  V30 5472 O 510.575 -1.12866 3.37846 0
M  V30 5473 O 509.434 -1.96817 5.09829 0
M  V30 5474 H 506.528 -0.330726 0.75799 0
M  V30 5475 H 509.074 0.0722373 1.69546 0
M  V30 5476 H 507.846 -0.165938 3.90948 0
M  V30 5477 H 507.469 -1.83751 3.52592 0
M  V30 5478 N 508.466 -1.55915 -0.229846 0
M  V30 5479 C 509.696 -1.82352 -0.971152 0
M  V30 5480 C 510.104 -0.619231 -1.7878 0
M  V30 5481 O 509.447 0.421597 -1.78797 0
M  V30 5482 C 509.509 -3.02399 -1.9441 0
M  V30 5483 C 509.173 -4.37739 -1.31277 0
M  V30 5484 C 510.17 -5.15074 -0.706757 0
M  V30 5485 C 507.855 -4.84454 -1.32702 0
M  V30 5486 C 509.849 -6.37281 -0.123413 0
M  V30 5487 C 507.536 -6.06605 -0.739831 0
M  V30 5488 C 508.534 -6.82858 -0.139071 0
M  V30 5489 O 508.222 -8.027 0.439007 0
M  V30 5490 H 507.954 -0.61035 -0.290601 0
M  V30 5491 H 510.508 -2.03839 -0.252746 0
M  V30 5492 H 508.738 -2.76709 -2.70128 0
M  V30 5493 H 510.427 -3.15779 -2.55026 0
M  V30 5494 H 511.193 -4.80093 -0.688131 0
M  V30 5495 H 507.072 -4.25081 -1.78402 0
M  V30 5496 H 510.616 -6.96741 0.346124 0
M  V30 5497 H 506.513 -6.4106 -0.755841 0
M  V30 5498 H 507.281 -8.17824 0.332521 0
M  V30 5499 N 509.944 0.496216 -1.49584 0
M  V30 5500 C 511.169 1.27865 -1.63295 0
M  V30 5501 C 511.594 1.85592 -0.306156 0
M  V30 5502 O 510.952 1.66092 0.726851 0
M  V30 5503 C 511 2.38128 -2.7079 0
M  V30 5504 O 510.104 3.42108 -2.30296 0
M  V30 5505 H 509.445 0.377279 -0.546403 0
M  V30 5506 H 511.975 0.593497 -1.95803 0
M  V30 5507 H 511.985 2.8382 -2.93104 0
M  V30 5508 H 510.66 1.95479 -3.67098 0
M  V30 5509 H 509.237 3.02301 -2.18331 0
M  V30 5510 N 511.423 1.38739 0.74761 0
M  V30 5511 C 512.834 1.31507 1.32524 0
M  V30 5512 C 513.185 -0.0263963 1.96182 0
M  V30 5513 O 512.31 -0.92849 1.95469 0
M  V30 5514 C 512.905 2.38162 2.40966 0
M  V30 5515 C 511.464 2.34489 2.94434 0
M  V30 5516 C 510.611 2.20712 1.67873 0
M  V30 5517 H 513.562 1.4901 0.546043 0
M  V30 5518 H 513.583 2.04222 3.21051 0
M  V30 5519 H 513.095 3.35783 1.94605 0
M  V30 5520 H 511.196 1.40467 3.45108 0
M  V30 5521 H 511.309 3.28861 3.48407 0
M  V30 5522 H 509.673 1.67667 1.91729 0
M  V30 5523 H 510.456 3.20285 1.23582 0
M  V30 5524 N 512.901 -0.976442 1.23707 0
M  V30 5525 C 513.833 -2.07212 0.979574 0
M  V30 5526 C 514.846 -1.6273 -0.0478528 0
M  V30 5527 O 516.035 -1.77506 0.18815 0
M  V30 5528 C 513.135 -3.35835 0.45479 0
M  V30 5529 C 512.308 -4.09268 1.54331 0
M  V30 5530 C 511.367 -5.16166 1.02271 0
M  V30 5531 O 510.393 -5.42827 1.71254 0
M  V30 5532 N 511.595 -5.80313 -0.147419 0
M  V30 5533 H 514.36 -2.29878 1.92292 0
M  V30 5534 H 511.921 -1.14343 1.14618 0
M  V30 5535 H 513.913 -4.04597 0.0914631 0
M  V30 5536 H 512.483 -3.10106 -0.394068 0
M  V30 5537 H 511.703 -3.34906 2.07923 0
M  V30 5538 H 512.991 -4.55095 2.27522 0
M  V30 5539 H 512.389 -5.61043 -0.724353 0
M  V30 5540 H 510.946 -6.50231 -0.451972 0
M  V30 5541 N 514.379 -1.04941 -1.1758 0
M  V30 5542 C 515.309 -0.669172 -2.23706 0
M  V30 5543 C 516.29 0.331835 -1.66832 0
M  V30 5544 O 517.475 0.209988 -1.93061 0
M  V30 5545 C 514.605 -0.0404889 -3.47276 0
M  V30 5546 C 513.559 -0.965983 -4.16957 0
M  V30 5547 C 512.885 -0.201312 -5.34321 0
M  V30 5548 C 514.185 -2.28902 -4.69469 0
M  V30 5549 H 515.879 -1.55639 -2.55767 0
M  V30 5550 H 513.425 -0.749793 -1.22939 0
M  V30 5551 H 515.378 0.237298 -4.20731 0
M  V30 5552 H 514.102 0.881658 -3.14475 0
M  V30 5553 H 512.761 -1.22829 -3.45411 0
M  V30 5554 H 512.409 0.723519 -4.97769 0
M  V30 5555 H 512.109 -0.817968 -5.81879 0
M  V30 5556 H 513.633 0.0692499 -6.10561 0
M  V30 5557 H 515.047 -2.07132 -5.34574 0
M  V30 5558 H 513.444 -2.85942 -5.27596 0
M  V30 5559 H 514.514 -2.92937 -3.86414 0
M  V30 5560 N 515.857 1.33968 -0.830081 0
M  V30 5561 C 516.789 2.28194 -0.21448 0
M  V30 5562 C 517.802 1.5135 0.599752 0
M  V30 5563 O 518.991 1.73286 0.42826 0
M  V30 5564 C 516.091 3.31221 0.717356 0
M  V30 5565 C 515.264 4.37365 -0.055613 0
M  V30 5566 C 514.323 5.2011 0.798231 0
M  V30 5567 O 513.349 5.68691 0.240616 0
M  V30 5568 N 514.551 5.40523 2.11695 0
M  V30 5569 H 517.316 2.81662 -1.02405 0
M  V30 5570 H 514.877 1.46568 -0.687713 0
M  V30 5571 H 516.869 3.83477 1.29334 0
M  V30 5572 H 515.439 2.78095 1.42765 0
M  V30 5573 H 514.659 3.85727 -0.812936 0
M  V30 5574 H 515.947 5.05397 -0.587444 0
M  V30 5575 H 515.345 5.0274 2.59363 0
M  V30 5576 H 513.902 5.95871 2.64162 0
M  V30 5577 N 517.335 0.585699 1.46312 0
M  V30 5578 C 518.282 -0.145835 2.30339 0
M  V30 5579 C 519.252 -0.881215 1.40797 0
M  V30 5580 O 520.437 -0.871293 1.69744 0
M  V30 5581 C 517.577 -1.15161 3.25318 0
M  V30 5582 C 516.69 -0.419367 4.2996 0
M  V30 5583 C 515.825 -1.41293 5.12064 0
M  V30 5584 C 514.864 -0.667261 6.08452 0
M  V30 5585 N 514.001 -1.60903 6.83414 0
M  V30 5586 H 518.841 0.576755 2.92365 0
M  V30 5587 H 516.378 0.296237 1.44086 0
M  V30 5588 H 518.336 -1.74763 3.78832 0
M  V30 5589 H 516.966 -1.84188 2.65094 0
M  V30 5590 H 516.018 0.291751 3.7928 0
M  V30 5591 H 517.33 0.163433 4.98532 0
M  V30 5592 H 516.484 -2.08167 5.6987 0
M  V30 5593 H 515.223 -2.02966 4.43459 0
M  V30 5594 H 514.228 0.0152356 5.49798 0
M  V30 5595 H 515.453 -0.0558817 6.79077 0
M  V30 5596 H 513.399 -2.21381 6.17516 0
M  V30 5597 H 513.316 -1.07911 7.48259 0
M  V30 5598 H 514.584 -2.26802 7.45775 0
M  V30 5599 N 518.813 -1.54241 0.323641 0
M  V30 5600 C 520.224 -1.85975 -0.164405 0
M  V30 5601 C 520.575 -1.24529 -1.51615 0
M  V30 5602 O 519.7 -0.551351 -2.09258 0
M  V30 5603 C 520.295 -3.37424 -0.305091 0
M  V30 5604 C 518.854 -3.69107 -0.737358 0
M  V30 5605 C 518.001 -2.76942 0.140884 0
M  V30 5606 H 520.952 -1.49088 0.543922 0
M  V30 5607 H 520.973 -3.63147 -1.13598 0
M  V30 5608 H 520.485 -3.82116 0.678876 0
M  V30 5609 H 518.586 -3.29947 -1.73107 0
M  V30 5610 H 518.699 -4.76035 -0.541053 0
M  V30 5611 H 517.063 -2.51795 -0.383572 0
M  V30 5612 H 517.846 -3.24461 1.12162 0
M  V30 5613 N 520.291 -0.0518155 -1.57515 0
M  V30 5614 C 521.238 0.922352 -2.11569 0
M  V30 5615 C 522.208 1.30842 -1.02321 0
M  V30 5616 O 523.393 1.39778 -1.29872 0
M  V30 5617 C 520.533 2.19167 -2.6657 0
M  V30 5618 C 519.646 1.86003 -3.89906 0
M  V30 5619 C 518.781 3.07398 -4.33221 0
M  V30 5620 C 517.82 2.70158 -5.49255 0
M  V30 5621 N 516.957 3.84248 -5.8762 0
M  V30 5622 H 521.797 0.454506 -2.94514 0
M  V30 5623 H 519.334 0.212718 -1.45554 0
M  V30 5624 H 521.292 2.93443 -2.96559 0
M  V30 5625 H 519.922 2.63528 -1.86421 0
M  V30 5626 H 518.974 1.01874 -3.66505 0
M  V30 5627 H 520.286 1.54592 -4.74239 0
M  V30 5628 H 519.44 3.89972 -4.64765 0
M  V30 5629 H 518.179 3.41988 -3.477 0
M  V30 5630 H 517.184 1.86001 -5.17382 0
M  V30 5631 H 518.409 2.36759 -6.36492 0
M  V30 5632 H 516.355 4.18638 -5.05053 0
M  V30 5633 H 516.272 3.56538 -6.66646 0
M  V30 5634 H 517.54 4.6746 -6.2378 0
M  V30 5635 N 521.769 1.56035 0.221574 0
M  V30 5636 C 523.016 1.79047 0.94597 0
M  V30 5637 C 523.344 0.62057 1.84334 0
M  V30 5638 O 522.599 -0.395053 1.91671 0
M  V30 5639 C 522.898 3.07813 1.8162 0
M  V30 5640 C 522.564 4.3797 1.07206 0
M  V30 5641 C 521.226 4.73334 0.866508 0
M  V30 5642 C 523.578 5.18326 0.546565 0
M  V30 5643 C 520.906 5.8657 0.123549 0
M  V30 5644 C 523.258 6.32335 -0.18305 0
M  V30 5645 C 521.922 6.66301 -0.399861 0
M  V30 5646 H 521.192 0.655178 0.346155 0
M  V30 5647 H 523.839 1.90299 0.214146 0
M  V30 5648 H 522.144 2.91682 2.61589 0
M  V30 5649 H 523.841 3.2282 2.37884 0
M  V30 5650 H 520.431 4.10202 1.24226 0
M  V30 5651 H 524.615 4.9144 0.692847 0
M  V30 5652 H 519.871 6.11376 -0.0546591 0
M  V30 5653 H 524.045 6.9383 -0.59775 0
M  V30 5654 H 521.672 7.53889 -0.977489 0
M  V30 5655 O 523.286 -0.367026 1.57274 0
M  V30 5656 H 523.977 -1.01783 1.64803 0
M  V30 END ATOM
M  V30 BEGIN BOND
M  V30 END BOND
M  V30 END CTAB
M  END
$$$$
