drugbank_target|P00491 Purine nucleoside phosphorylase (DB00242; DB00900; DB01667; DB02222; DB02230; DB02377; DB02391; DB02568; DB02796; DB02857; DB03101; DB03551; DB03609; DB03881; DB04076; DB04260; DB04335; DB04753; DB04754; DB04757; DB06185)
 OpenBabel12092119273D

  0  0  0     0  0            999 V3000
M  V30 BEGIN CTAB
M  V30 COUNTS 4490 4542 0 0 0
M  V30 BEGIN ATOM
M  V30 1 H -0.908 1.98254 -0.117106 0
M  V30 2 N 0 1.576 0 0
M  V30 3 C 0.933 2.03868 1.02534 0
M  V30 4 C 1.911 0.928543 1.3348 0
M  V30 5 O 3.095 1.19667 1.45644 0
M  V30 6 C 0.222 2.43627 2.35294 0
M  V30 7 C -0.732 3.65373 2.2001 0
M  V30 8 S 0.101 5.13292 1.52614 0
M  V30 9 C 1.257 5.56322 2.86805 0
M  V30 10 H 1.49 2.90518 0.631377 0
M  V30 11 H -0.977 1.52953 0.210867 0
M  V30 12 H 0.981 2.67203 3.11629 0
M  V30 13 H -0.358 1.57376 2.7183 0
M  V30 14 H -1.165 3.90944 3.18086 0
M  V30 15 H -1.563 3.418 1.51819 0
M  V30 16 H 0.729 5.58782 3.83104 0
M  V30 17 H 1.672 6.56266 2.65933 0
M  V30 18 H 2.08 4.83886 2.90714 0
M  V30 19 N 1.4781 -0.272755 1.55222 0
M  V30 20 C 2.3881 -1.35918 1.91216 0
M  V30 21 C 3.4041 -1.54026 0.809436 0
M  V30 22 O 4.5801 -1.68148 1.10852 0
M  V30 23 C 1.6451 -2.69834 2.17693 0
M  V30 24 C 0.7061 -2.6047 3.41253 0
M  V30 25 C -0.0609 -3.88 3.66458 0
M  V30 26 O 0.1621 -4.88693 2.94169 0
M  V30 27 O -0.9039 -3.88189 4.59992 0
M  V30 28 H 2.9221 -1.0839 2.83699 0
M  V30 29 H 0.5071 -0.471301 1.41771 0
M  V30 30 H 2.3891 -3.49017 2.36147 0
M  V30 31 H 1.0641 -2.97148 1.28392 0
M  V30 32 H -0.0289 -1.79663 3.28134 0
M  V30 33 H 1.3041 -2.38106 4.30774 0
M  V30 34 N 2.9562 -1.48159 -0.537278 0
M  V30 35 C 3.9042 -1.62573 -1.66352 0
M  V30 36 C 4.8982 -0.492366 -1.62087 0
M  V30 37 O 6.1042 -0.670847 -1.67032 0
M  V30 38 H 2.4792 -0.511992 -0.550789 0
M  V30 39 H 4.4502 -2.57176 -1.51337 0
M  V30 40 C 3.1992 -1.67583 -3.04649 0
M  V30 41 H 2.5222 -2.54151 -3.08622 0
M  V30 42 H 3.9622 -1.81713 -3.83088 0
M  V30 43 C 2.4212 -0.413039 -3.34358 0
M  V30 44 O 2.9512 0.477259 -3.98855 0
M  V30 45 N 1.1572 -0.286961 -2.8918 0
M  V30 46 H 0.7042 -1.01241 -2.36871 0
M  V30 47 H 0.6622 0.556963 -3.09427 0
M  V30 48 N 4.4343 0.785586 -1.36625 0
M  V30 49 C 5.6823 1.54057 -1.30808 0
M  V30 50 C 6.0033 1.94683 0.111157 0
M  V30 51 O 5.2733 1.65241 1.05224 0
M  V30 52 H 3.8533 0.571354 -0.481211 0
M  V30 53 H 6.5153 0.935821 -1.70963 0
M  V30 54 H 5.6113 2.44637 -1.93801 0
M  V30 55 N 5.9124 1.20967 1.01018 0
M  V30 56 C 7.1424 1.04803 1.78044 0
M  V30 57 C 7.5504 -0.405462 1.84804 0
M  V30 58 O 6.8934 -1.2932 1.30468 0
M  V30 59 C 6.9554 1.56377 3.23707 0
M  V30 60 C 6.6194 3.04767 3.40538 0
M  V30 61 C 7.6164 4.02366 3.29239 0
M  V30 62 C 5.3014 3.43862 3.66147 0
M  V30 63 C 7.2954 5.37049 3.43304 0
M  V30 64 C 4.9824 4.78699 3.79855 0
M  V30 65 C 5.9804 5.75101 3.68439 0
M  V30 66 O 5.6684 7.07493 3.81719 0
M  V30 67 H 5.4004 0.368778 0.56655 0
M  V30 68 H 7.9544 1.60642 1.27997 0
M  V30 69 H 6.1844 0.949297 3.74867 0
M  V30 70 H 7.8734 1.36136 3.8239 0
M  V30 71 H 8.6394 3.73506 3.09384 0
M  V30 72 H 4.5184 2.69364 3.74118 0
M  V30 73 H 8.0624 6.12277 3.34309 0
M  V30 74 H 3.9594 5.07247 3.99213 0
M  V30 75 H 4.7274 7.1483 3.98697 0
M  V30 76 N 7.3905 -1.2043 1.01659 0
M  V30 77 C 8.6185 -1.93777 0.725132 0
M  V30 78 C 9.0335 -1.74772 -0.714166 0
M  V30 79 O 8.3905 -1.06169 -1.4844 0
M  V30 80 C 8.4415 -3.45876 1.05129 0
M  V30 81 O 8.1625 -3.6426 2.43406 0
M  V30 82 C 9.6635 -4.36368 0.780891 0
M  V30 83 H 6.8835 -0.615901 0.266284 0
M  V30 84 H 9.4275 -1.52922 1.35776 0
M  V30 85 H 7.5825 -3.8461 0.464065 0
M  V30 86 H 7.9965 -4.58246 2.55169 0
M  V30 87 H 9.4705 -5.41743 1.05918 0
M  V30 88 H 9.9475 -4.38275 -0.284937 0
M  V30 89 H 10.5535 -4.03296 1.35027 0
M  V30 90 N 8.8686 -0.792821 -1.36206 0
M  V30 91 C 10.0986 -0.378275 -2.03107 0
M  V30 92 C 10.5066 1.01119 -1.59911 0
M  V30 93 O 9.8496 1.66052 -0.785658 0
M  V30 94 C 9.9116 -0.366535 -3.57627 0
M  V30 95 C 9.5756 -1.70416 -4.24037 0
M  V30 96 C 10.5726 -2.6602 -4.46687 0
M  V30 97 C 8.2576 -1.98439 -4.6144 0
M  V30 98 C 10.2516 -3.8784 -5.05825 0
M  V30 99 C 7.9386 -3.20525 -5.20295 0
M  V30 100 C 8.9366 -4.15044 -5.42427 0
M  V30 101 O 8.6246 -5.34978 -6.00045 0
M  V30 102 H 8.3566 -0.153543 -0.658332 0
M  V30 103 H 10.9106 -1.07383 -1.75094 0
M  V30 104 H 9.1406 0.385539 -3.84773 0
M  V30 105 H 10.8296 0.0238088 -4.05893 0
M  V30 106 H 11.5956 -2.45658 -4.18183 0
M  V30 107 H 7.4746 -1.25686 -4.43536 0
M  V30 108 H 11.0186 -4.61628 -5.23015 0
M  V30 109 H 6.9156 -3.40764 -5.48225 0
M  V30 110 H 7.6836 -5.36088 -6.18508 0
M  V30 111 N 10.3467 1.47872 -0.545128 0
M  V30 112 C 11.2567 2.33633 0.212746 0
M  V30 113 C 12.2727 1.4744 0.923983 0
M  V30 114 O 13.4487 1.80393 0.895572 0
M  V30 115 C 10.5137 3.23884 1.23693 0
M  V30 116 C 9.5747 4.25961 0.534417 0
M  V30 117 C 8.8077 5.11899 1.5098 0
M  V30 118 O 9.0307 5.00077 2.7437 0
M  V30 119 O 7.9647 5.92831 1.0409 0
M  V30 120 H 11.7907 2.99714 -0.490416 0
M  V30 121 H 9.3757 1.46235 -0.305871 0
M  V30 122 H 11.2577 3.79666 1.82843 0
M  V30 123 H 9.9327 2.60446 1.92222 0
M  V30 124 H 8.8397 3.73972 -0.0979679 0
M  V30 125 H 10.1727 4.92079 -0.109213 0
M  V30 126 N 11.8248 0.280983 1.55075 0
M  V30 127 C 13.1018 -0.386207 1.91749 0
M  V30 128 C 13.4818 -1.73264 1.20594 0
M  V30 129 O 12.8298 -2.26034 0.334784 0
M  V30 130 C 13.0398 -0.520687 3.45094 0
M  V30 131 C 14.3878 -0.800865 4.16979 0
M  V30 132 O 15.4118 -0.605271 3.5102 0
M  V30 133 O 14.2708 -1.1753 5.33712 0
M  V30 134 H 11.3648 -0.212408 0.799257 0
M  V30 135 H 13.9108 0.327568 1.66509 0
M  V30 136 H 12.6828 0.426633 3.88967 0
M  V30 137 H 12.3058 -1.2837 3.76307 0
M  V30 138 N 13.3029 -1.57598 0.00835791 0
M  V30 139 C 14.5329 -1.94931 -0.684496 0
M  V30 140 C 14.9409 -0.882233 -1.67372 0
M  V30 141 O 14.2839 0.146621 -1.83114 0
M  V30 142 C 14.3459 -3.283 -1.4649 0
M  V30 143 C 14.0099 -4.52548 -0.63634 0
M  V30 144 C 15.0069 -5.19839 0.0795586 0
M  V30 145 C 12.6919 -4.98942 -0.579849 0
M  V30 146 C 14.6859 -6.3183 0.840843 0
M  V30 147 C 12.3729 -6.10819 0.185155 0
M  V30 148 C 13.3709 -6.77121 0.894227 0
M  V30 149 O 13.0589 -7.86853 1.64673 0
M  V30 150 H 12.7909 -0.647249 -0.19505 0
M  V30 151 H 15.3449 -2.05318 0.0581272 0
M  V30 152 H 13.5749 -3.14345 -2.2522 0
M  V30 153 H 15.2639 -3.50685 -2.04389 0
M  V30 154 H 16.0299 -4.84979 0.0451202 0
M  V30 155 H 11.9089 -4.47155 -1.1213 0
M  V30 156 H 15.4529 -6.83513 1.39483 0
M  V30 157 H 11.3499 -6.4512 0.221384 0
M  V30 158 H 12.1179 -8.03412 1.56432 0
M  V30 159 N 14.781 0.264519 -1.55364 0
M  V30 160 C 15.728 1.32717 -1.88825 0
M  V30 161 C 16.698 1.48675 -0.740605 0
M  V30 162 O 17.883 1.62945 -0.992657 0
M  V30 163 C 15.023 2.68089 -2.17307 0
M  V30 164 C 14.136 2.60284 -3.44785 0
M  V30 165 C 13.271 3.87892 -3.62924 0
M  V30 166 C 12.31 3.74631 -4.84064 0
M  V30 167 N 11.447 4.94092 -4.98816 0
M  V30 168 H 16.287 1.03481 -2.79456 0
M  V30 169 H 13.824 0.499757 -1.3835 0
M  V30 170 H 15.782 3.46864 -2.31821 0
M  V30 171 H 14.412 2.95509 -1.299 0
M  V30 172 H 13.464 1.73173 -3.38697 0
M  V30 173 H 14.776 2.46388 -4.33698 0
M  V30 174 H 13.93 4.75109 -3.77302 0
M  V30 175 H 12.669 4.04664 -2.7221 0
M  V30 176 H 11.674 2.85797 -4.69681 0
M  V30 177 H 12.899 3.5937 -5.76221 0
M  V30 178 H 10.845 5.11259 -4.11036 0
M  V30 179 H 10.762 4.8276 -5.81789 0
M  V30 180 H 12.03 5.82857 -5.17588 0
M  V30 181 N 16.2591 1.48442 0.529413 0
M  V30 182 C 17.2071 1.63452 1.65487 0
M  V30 183 C 18.2011 0.500955 1.61823 0
M  V30 184 O 19.4071 0.679695 1.66674 0
M  V30 185 H 15.7821 0.514905 0.548066 0
M  V30 186 H 17.7531 2.57975 1.49971 0
M  V30 187 C 16.5021 1.69196 3.03756 0
M  V30 188 H 15.8251 2.55784 3.07269 0
M  V30 189 H 17.2651 1.83743 3.82119 0
M  V30 190 C 15.7241 0.430765 3.34135 0
M  V30 191 O 16.2541 -0.4561 3.99102 0
M  V30 192 N 14.4601 0.302293 2.89023 0
M  V30 193 H 14.0071 1.02496 2.36331 0
M  V30 194 H 13.9651 -0.540546 3.09718 0
M  V30 195 N 17.7372 -0.778329 1.37039 0
M  V30 196 C 18.9652 -1.56734 1.35063 0
M  V30 197 C 19.3802 -1.88686 -0.0655597 0
M  V30 198 O 18.7372 -1.5096 -1.02554 0
M  V30 199 C 18.7882 -2.88163 2.18276 0
M  V30 200 O 18.5092 -2.57583 3.54376 0
M  V30 201 C 20.0102 -3.82422 2.24206 0
M  V30 202 H 17.2302 -0.485778 0.462883 0
M  V30 203 H 19.7742 -0.965185 1.8029 0
M  V30 204 H 17.9292 -3.44818 1.76576 0
M  V30 205 H 18.3432 -3.41699 3.97922 0
M  V30 206 H 19.8172 -4.71667 2.86765 0
M  V30 207 H 20.2942 -4.21078 1.24861 0
M  V30 208 H 20.9002 -3.31697 2.6619 0
M  V30 209 N 19.2153 -1.21501 -1.00376 0
M  V30 210 C 20.1783 -0.976927 -2.07337 0
M  V30 211 C 21.1783 0.0525322 -1.60714 0
M  V30 212 O 22.3683 -0.184869 -1.73216 0
M  V30 213 C 19.5003 -0.473423 -3.37597 0
M  V30 214 H 20.6933 -1.92587 -2.29892 0
M  V30 215 H 18.2463 -1.03217 -1.17371 0
M  V30 216 H 18.9813 0.480379 -3.20722 0
M  V30 217 H 18.7663 -1.216 -3.72768 0
M  V30 218 H 20.2563 -0.32675 -4.1632 0
M  V30 219 N 20.6934 1.19889 -1.02296 0
M  V30 220 C 21.6034 2.26571 -0.608508 0
M  V30 221 C 22.6194 1.70299 0.356964 0
M  V30 222 O 23.7954 2.00235 0.216326 0
M  V30 223 C 20.8604 3.46677 0.0402814 0
M  V30 224 C 19.9214 4.18153 -0.97194 0
M  V30 225 C 19.1544 5.32525 -0.354016 0
M  V30 226 O 19.3774 5.64112 0.844604 0
M  V30 227 O 18.3114 5.92242 -1.07391 0
M  V30 228 H 22.1374 2.64251 -1.49684 0
M  V30 229 H 19.7224 1.26629 -0.792809 0
M  V30 230 H 21.6044 4.19475 0.402324 0
M  V30 231 H 20.2794 3.10858 0.902707 0
M  V30 232 H 19.1864 3.47499 -1.38546 0
M  V30 233 H 20.5194 4.57927 -1.80454 0
M  V30 234 N 22.1715 0.800033 1.35784 0
M  V30 235 C 23.4175 0.38701 1.99684 0
M  V30 236 C 23.7725 -1.03268 1.62338 0
M  V30 237 O 23.0655 -1.70543 0.87325 0
M  V30 238 C 23.2595 0.500276 3.53881 0
M  V30 239 C 23.0885 1.92942 4.06206 0
M  V30 240 C 21.8585 2.55637 4.35865 0
M  V30 241 C 24.0565 2.89307 4.25213 0
M  V30 242 N 22.0385 3.9003 4.74078 0
M  V30 243 C 23.4095 4.08556 4.66349 0
M  V30 244 C 25.4645 2.86225 4.07406 0
M  V30 245 C 24.1675 5.25146 4.91543 0
M  V30 246 C 26.1935 4.02011 4.33752 0
M  V30 247 C 25.5555 5.20007 4.75155 0
M  V30 248 H 21.6545 0.189252 0.758754 0
M  V30 249 H 24.2385 1.03988 1.64604 0
M  V30 250 H 22.4095 -0.122568 3.88207 0
M  V30 251 H 24.1415 0.0624733 4.04652 0
M  V30 252 H 20.8965 2.07039 4.25948 0
M  V30 253 H 21.3205 4.59205 4.97454 0
M  V30 254 H 25.9625 1.96154 3.74544 0
M  V30 255 H 23.6805 6.15794 5.23281 0
M  V30 256 H 27.2665 4.00999 4.21534 0
M  V30 257 H 26.1465 6.08113 4.95145 0
M  V30 258 N 23.6496 -1.47581 0.552962 0
M  V30 259 C 24.5796 -2.32762 -0.185451 0
M  V30 260 C 25.5606 -1.43527 -0.912905 0
M  V30 261 O 26.7456 -1.72388 -0.894201 0
M  V30 262 C 23.8756 -3.25219 -1.21859 0
M  V30 263 C 22.8296 -4.23661 -0.607864 0
M  V30 264 C 22.1556 -5.05413 -1.74533 0
M  V30 265 C 23.4556 -5.20481 0.435582 0
M  V30 266 H 25.1496 -2.94749 0.525684 0
M  V30 267 H 22.6956 -1.41738 0.254251 0
M  V30 268 H 24.6486 -3.8365 -1.7433 0
M  V30 269 H 23.3726 -2.61279 -1.95961 0
M  V30 270 H 22.0316 -3.66451 -0.104489 0
M  V30 271 H 21.6796 -4.3788 -2.47529 0
M  V30 272 H 21.3796 -5.72059 -1.34249 0
M  V30 273 H 22.9036 -5.66701 -2.27338 0
M  V30 274 H 24.3176 -5.733 -0.00290157 0
M  V30 275 H 22.7146 -5.95305 0.757067 0
M  V30 276 H 23.7846 -4.66217 1.33303 0
M  V30 277 N 25.1277 -0.289203 -1.54924 0
M  V30 278 C 26.0577 0.58549 -2.2604 0
M  V30 279 C 27.0387 1.14753 -1.25562 0
M  V30 280 O 28.2237 1.17906 -1.54311 0
M  V30 281 C 25.3537 1.76305 -2.99222 0
M  V30 282 C 24.3077 1.33191 -4.06748 0
M  V30 283 C 23.6337 2.5937 -4.6758 0
M  V30 284 C 24.9337 0.471775 -5.20165 0
M  V30 285 H 26.6277 -0.00763532 -2.99399 0
M  V30 286 H 24.1737 -0.00511229 -1.43999 0
M  V30 287 H 26.1267 2.38097 -3.47689 0
M  V30 288 H 24.8507 2.38223 -2.23422 0
M  V30 289 H 23.5097 0.737121 -3.59113 0
M  V30 290 H 23.1577 3.19576 -3.88433 0
M  V30 291 H 22.8577 2.31228 -5.40192 0
M  V30 292 H 24.3817 3.21985 -5.18804 0
M  V30 293 H 25.7957 0.995056 -5.64599 0
M  V30 294 H 24.1927 0.284639 -5.99425 0
M  V30 295 H 25.2627 -0.506041 -4.82252 0
M  V30 296 N 26.6058 1.57591 -0.0167156 0
M  V30 297 C 27.8308 1.9598 0.67872 0
M  V30 298 C 28.2558 0.892546 1.65575 0
M  V30 299 O 27.6138 -0.147772 1.80697 0
M  V30 300 C 27.6618 3.33468 1.37227 0
M  V30 301 O 26.7658 3.28954 2.48722 0
M  V30 302 H 26.1068 0.639339 0.17928 0
M  V30 303 H 28.6368 2.04463 -0.0748802 0
M  V30 304 H 28.6468 3.69417 1.7319 0
M  V30 305 H 27.3218 4.10694 0.656007 0
M  V30 306 H 25.8988 3.04705 2.14963 0
M  V30 307 N 28.0839 -0.256276 1.55502 0
M  V30 308 C 29.0339 -1.31981 1.85916 0
M  V30 309 C 30.0179 -1.43927 0.719296 0
M  V30 310 O 31.2099 -1.47326 0.981019 0
M  V30 311 C 28.3389 -2.67703 2.14918 0
M  V30 312 C 27.4249 -2.59801 3.35208 0
M  V30 313 N 27.8159 -2.21524 4.54709 0
M  V30 314 C 26.1139 -2.90832 3.38131 0
M  V30 315 C 26.8149 -2.24024 5.36832 0
M  V30 316 N 25.7909 -2.63158 4.75656 0
M  V30 317 H 29.5929 -1.01423 2.75845 0
M  V30 318 H 27.1069 -0.464911 1.55603 0
M  V30 319 H 29.1039 -3.44445 2.34869 0
M  V30 320 H 27.7639 -2.99137 1.26282 0
M  V30 321 H 28.7749 -1.93223 4.80505 0
M  V30 322 H 25.4519 -3.26867 2.59739 0
M  V30 323 H 26.8419 -1.9685 6.42417 0
M  V30 324 N 29.562 -1.4872 -0.521534 0
M  V30 325 C 30.79 -1.60843 -1.30142 0
M  V30 326 C 31.205 -0.271897 -1.86832 0
M  V30 327 O 30.562 0.739969 -1.66825 0
M  V30 328 C 30.613 -2.66155 -2.4463 0
M  V30 329 O 30.334 -3.94623 -1.90275 0
M  V30 330 C 31.835 -2.88795 -3.36322 0
M  V30 331 H 29.055 -0.542075 -0.395468 0
M  V30 332 H 31.599 -1.94609 -0.628285 0
M  V30 333 H 29.754 -2.35224 -3.07812 0
M  V30 334 H 30.168 -4.52468 -2.65279 0
M  V30 335 H 31.642 -3.66264 -4.12983 0
M  V30 336 H 32.119 -1.97934 -3.9207 0
M  V30 337 H 32.725 -3.21063 -2.78924 0
M  V30 338 N 31.0401 0.771051 -1.3745 0
M  V30 339 C 31.9871 1.88435 -1.3327 0
M  V30 340 C 32.9571 1.64914 -0.198136 0
M  V30 341 O 34.1421 1.86821 -0.387606 0
M  V30 342 C 31.2821 3.25509 -1.14622 0
M  V30 343 C 30.3951 3.60979 -2.37314 0
M  V30 344 C 29.5301 4.87265 -2.11533 0
M  V30 345 C 28.5691 5.15469 -3.30088 0
M  V30 346 N 27.7061 6.32944 -3.03853 0
M  V30 347 H 32.5461 1.91344 -2.28455 0
M  V30 348 H 30.0831 0.935466 -1.13523 0
M  V30 349 H 32.0411 4.04582 -1.01831 0
M  V30 350 H 30.6711 3.21974 -0.230837 0
M  V30 351 H 29.7231 2.76885 -2.60842 0
M  V30 352 H 31.0351 3.77759 -3.25729 0
M  V30 353 H 30.1891 5.74244 -1.95777 0
M  V30 354 H 28.9281 4.7259 -1.20457 0
M  V30 355 H 27.9331 4.26966 -3.46382 0
M  V30 356 H 29.1581 5.32052 -4.22016 0
M  V30 357 H 27.1041 6.19625 -2.15407 0
M  V30 358 H 27.0211 6.50143 -3.85812 0
M  V30 359 H 28.2891 7.22857 -2.91716 0
M  V30 360 N 32.5182 1.22032 0.997298 0
M  V30 361 C 33.4682 0.953838 2.07089 0
M  V30 362 C 34.4522 -0.0938669 1.60626 0
M  V30 363 O 35.6442 0.116078 1.76619 0
M  V30 364 C 32.7732 0.528726 3.39204 0
M  V30 365 C 31.8592 1.61092 3.92314 0
M  V30 366 N 32.2502 2.83768 4.18699 0
M  V30 367 C 30.5482 1.48158 4.20672 0
M  V30 368 C 31.2492 3.53715 4.61802 0
M  V30 369 N 30.2252 2.81174 4.65233 0
M  V30 370 H 34.0272 1.88577 2.25424 0
M  V30 371 H 31.5412 1.11719 1.17867 0
M  V30 372 H 33.5382 0.31915 4.15677 0
M  V30 373 H 32.1982 -0.39635 3.22272 0
M  V30 374 H 33.2092 3.20238 4.07023 0
M  V30 375 H 29.8862 0.622369 4.12835 0
M  V30 376 H 31.2762 4.58793 4.90875 0
M  V30 377 N 33.9963 -1.19345 1.0293 0
M  V30 378 C 35.4123 -1.41069 0.746446 0
M  V30 379 C 35.6123 -1.90078 -0.668776 0
M  V30 380 O 34.6683 -2.0778 -1.4347 0
M  V30 381 C 35.9813 -2.42141 1.78292 0
M  V30 382 C 37.5293 -2.55887 1.80252 0
M  V30 383 C 38.0043 -3.60214 2.8286 0
M  V30 384 N 39.4953 -3.67711 2.81679 0
M  V30 385 C 40.2303 -4.48128 3.57727 0
M  V30 386 N 39.7263 -5.32248 4.43491 0
M  V30 387 N 41.5193 -4.42782 3.46267 0
M  V30 388 H 33.6703 -0.858536 1.94275 0
M  V30 389 H 35.9333 -0.439541 0.839945 0
M  V30 390 H 35.6393 -2.13155 2.79746 0
M  V30 391 H 35.5133 -3.41323 1.60557 0
M  V30 392 H 37.9003 -2.84196 0.794757 0
M  V30 393 H 37.9813 -1.56858 2.02062 0
M  V30 394 H 37.6253 -3.32647 3.83807 0
M  V30 395 H 37.5553 -4.58895 2.58307 0
M  V30 396 H 40.0463 -3.07634 2.19476 0
M  V30 397 H 40.3593 -5.90729 4.98256 0
M  V30 398 H 38.7043 -5.31707 4.47564 0
M  V30 399 H 41.8953 -3.76107 2.78677 0
M  V30 400 H 42.0683 -5.05215 4.05785 0
M  V30 401 N 35.4744 -0.807222 -1.35358 0
M  V30 402 C 36.8854 -0.44876 -1.81226 0
M  V30 403 C 37.2364 1.02929 -1.67033 0
M  V30 404 O 36.3614 1.79991 -1.20133 0
M  V30 405 C 36.9564 -0.807774 -3.2903 0
M  V30 406 C 35.5154 -0.501901 -3.73039 0
M  V30 407 C 34.6624 -1.03304 -2.57339 0
M  V30 408 H 37.6134 -0.998808 -1.23327 0
M  V30 409 H 37.6344 -0.10554 -3.80354 0
M  V30 410 H 37.1464 -1.88357 -3.39328 0
M  V30 411 H 35.2474 0.565128 -3.68289 0
M  V30 412 H 35.3604 -1.03497 -4.67787 0
M  V30 413 H 33.7244 -0.455339 -2.50597 0
M  V30 414 H 34.5074 -2.11496 -2.70415 0
M  V30 415 N 36.9525 1.47285 -0.560781 0
M  V30 416 C 37.8845 2.28118 0.222438 0
M  V30 417 C 38.8975 1.37219 0.876056 0
M  V30 418 O 40.0865 1.62011 0.749307 0
M  V30 419 C 37.1865 3.1159 1.33285 0
M  V30 420 C 36.3595 4.30473 0.77534 0
M  V30 421 C 35.4185 4.95513 1.77069 0
M  V30 422 O 34.4445 5.53792 1.31539 0
M  V30 423 N 35.6465 4.90531 3.10418 0
M  V30 424 H 38.4115 2.95976 -0.470958 0
M  V30 425 H 35.9725 1.56955 -0.39709 0
M  V30 426 H 37.9645 3.51967 1.99752 0
M  V30 427 H 36.5345 2.45951 1.92943 0
M  V30 428 H 35.7545 3.94144 -0.0662113 0
M  V30 429 H 37.0425 5.07362 0.382272 0
M  V30 430 H 36.4405 4.44389 3.5005 0
M  V30 431 H 34.9975 5.34917 3.72434 0
M  V30 432 N 38.4306 0.297415 1.54768 0
M  V30 433 C 39.6766 -0.313376 2.00364 0
M  V30 434 C 40.0096 -1.53815 1.18553 0
M  V30 435 O 39.2846 -1.92739 0.261103 0
M  V30 436 C 39.5676 -0.673525 3.53745 0
M  V30 437 C 39.4206 0.560133 4.46299 0
M  V30 438 C 40.7396 -1.50143 4.13697 0
M  V30 439 H 37.8586 -0.112428 0.728374 0
M  V30 440 H 40.5006 0.4088 1.8555 0
M  V30 441 H 38.6506 -1.28881 3.665 0
M  V30 442 H 40.3226 1.19863 4.45455 0
M  V30 443 H 38.5656 1.19405 4.17043 0
M  V30 444 H 39.2366 0.26405 5.51368 0
M  V30 445 H 41.7126 -0.981588 4.04356 0
M  V30 446 H 40.5886 -1.72221 5.21182 0
M  V30 447 H 40.8496 -2.48952 3.65343 0
M  V30 448 N 39.9087 -1.5758 0.0250728 0
M  V30 449 C 40.8717 -2.08896 -0.943139 0
M  V30 450 C 41.8717 -1.00321 -1.25668 0
M  V30 451 O 43.0617 -1.26495 -1.19769 0
M  V30 452 C 40.1937 -2.55143 -2.26086 0
M  V30 453 H 41.3867 -2.95723 -0.498775 0
M  V30 454 H 38.9397 -1.54703 -0.222888 0
M  V30 455 H 39.6747 -1.71633 -2.75159 0
M  V30 456 H 39.4597 -3.34461 -2.04641 0
M  V30 457 H 40.9497 -2.95083 -2.95492 0
M  V30 458 N 41.3868 0.248026 -1.55636 0
M  V30 459 C 42.6358 0.974134 -1.76617 0
M  V30 460 C 42.9488 1.86528 -0.588796 0
M  V30 461 O 44.1548 2.62805 -0.681594 0
M  V30 462 C 42.6108 1.78213 -3.12679 0
M  V30 463 C 42.2188 0.93843 -4.38061 0
M  V30 464 C 43.9628 2.50104 -3.42999 0
M  V30 465 C 41.8698 1.74225 -5.65155 0
M  V30 466 H 40.7998 0.36745 -0.658405 0
M  V30 467 H 43.4508 0.22884 -1.82067 0
M  V30 468 H 41.8328 2.56933 -3.01333 0
M  V30 469 H 43.0068 0.193635 -4.60393 0
M  V30 470 H 41.3218 0.332905 -4.15067 0
M  V30 471 H 43.9188 3.10694 -4.3517 0
M  V30 472 H 44.2618 3.21662 -2.64271 0
M  V30 473 H 44.7948 1.78395 -3.55556 0
M  V30 474 H 41.5338 1.07043 -6.46701 0
M  V30 475 H 41.0538 2.46235 -5.46926 0
M  V30 476 H 42.7328 2.30967 -6.0437 0
M  V30 477 N 42.8649 1.48995 0.513639 0
M  V30 478 C 44.1139 1.57093 1.2651 0
M  V30 479 C 44.4269 0.257091 1.93903 0
M  V30 480 O 45.6329 0.216478 2.70636 0
M  V30 481 C 44.0889 2.77118 2.29638 0
M  V30 482 C 43.6969 4.15209 1.68241 0
M  V30 483 C 45.4409 2.94538 3.05692 0
M  V30 484 C 43.3479 5.26474 2.69406 0
M  V30 485 H 42.2779 0.584876 0.475854 0
M  V30 486 H 44.9289 1.7536 0.540487 0
M  V30 487 H 43.3109 2.52319 3.05207 0
M  V30 488 H 44.4849 4.50094 0.987505 0
M  V30 489 H 42.7999 4.03042 1.04623 0
M  V30 490 H 45.3969 3.74832 3.8132 0
M  V30 491 H 45.7399 2.04614 3.62545 0
M  V30 492 H 46.2729 3.19316 2.37238 0
M  V30 493 H 43.0119 6.18417 2.17351 0
M  V30 494 H 42.5319 4.96058 3.37175 0
M  V30 495 H 44.2109 5.55277 3.32078 0
M  V30 496 N 44.343 -0.763751 1.37857 0
M  V30 497 C 45.583 -1.53551 1.34913 0
M  V30 498 C 45.947 -1.91895 -0.0635882 0
M  V30 499 O 47.148 -2.67916 -0.217825 0
M  V30 500 C 45.419 -2.76126 2.26912 0
M  V30 501 S 46.978 -3.66105 2.41893 0
M  V30 502 H 43.796 -0.52559 0.478828 0
M  V30 503 H 46.398 -0.897435 1.73685 0
M  V30 504 H 45.102 -2.4605 3.28463 0
M  V30 505 H 44.633 -3.44887 1.89253 0
M  V30 506 H 46.648 -4.68473 1.63545 0
M  V30 507 N 45.8211 -1.22559 -0.990812 0
M  V30 508 C 47.0691 -1.04933 -1.72724 0
M  V30 509 C 47.3901 0.416158 -1.90508 0
M  V30 510 O 46.6601 1.29918 -1.46622 0
M  V30 511 H 45.2401 -0.385296 -0.639965 0
M  V30 512 H 47.9021 -1.54105 -1.19322 0
M  V30 513 H 46.9981 -1.52886 -2.72089 0
M  V30 514 N 47.2992 1.18797 -1.03562 0
M  V30 515 C 48.5242 1.9314 -0.755764 0
M  V30 516 C 48.9492 1.7537 0.68022 0
M  V30 517 O 48.3072 1.06046 1.47051 0
M  V30 518 C 48.3552 3.42747 -1.12058 0
M  V30 519 O 47.4592 4.11683 -0.243124 0
M  V30 520 H 46.8002 0.602724 -0.278604 0
M  V30 521 H 49.3302 1.50678 -1.3841 0
M  V30 522 H 49.3402 3.93437 -1.08035 0
M  V30 523 H 48.0152 3.55002 -2.16672 0
M  V30 524 H 46.5922 3.71323 -0.342539 0
M  V30 525 N 48.7773 0.814389 1.34928 0
M  V30 526 C 50.0253 0.397636 1.9815 0
M  V30 527 C 50.3463 -1.04069 1.64908 0
M  V30 528 O 49.6163 -1.72121 0.93548 0
M  V30 529 H 48.1963 0.144043 0.732981 0
M  V30 530 H 50.8583 1.04195 1.6471 0
M  V30 531 H 49.9543 0.509688 3.0791 0
M  V30 532 N 50.2554 -1.46986 0.568584 0
M  V30 533 C 51.1854 -2.32946 -0.160753 0
M  V30 534 C 52.1664 -1.44487 -0.897631 0
M  V30 535 O 53.3514 -1.73327 -0.875867 0
M  V30 536 C 50.4814 -3.26494 -1.18403 0
M  V30 537 C 49.4354 -4.24282 -0.562895 0
M  V30 538 C 48.7614 -5.07236 -1.69163 0
M  V30 539 C 50.0614 -5.19989 0.490761 0
M  V30 540 H 51.7554 -2.94175 0.556916 0
M  V30 541 H 49.3014 -1.4146 0.26927 0
M  V30 542 H 51.2544 -3.85477 -1.70251 0
M  V30 543 H 49.9784 -2.63343 -1.93179 0
M  V30 544 H 48.6374 -3.66541 -0.0656164 0
M  V30 545 H 48.2854 -4.4048 -2.42871 0
M  V30 546 H 47.9854 -5.7345 -1.28174 0
M  V30 547 H 49.5094 -5.6908 -2.21314 0
M  V30 548 H 50.9234 -5.73271 0.0579047 0
M  V30 549 H 49.3204 -5.94469 0.820165 0
M  V30 550 H 50.3904 -4.64777 1.3824 0
M  V30 551 N 51.7335 -0.305618 -1.54608 0
M  V30 552 C 52.9815 0.301701 -1.99835 0
M  V30 553 C 53.3025 1.54054 -1.19551 0
M  V30 554 O 52.5725 1.93702 -0.292658 0
M  V30 555 H 51.1525 0.114468 -0.738178 0
M  V30 556 H 53.8145 -0.418016 -1.90364 0
M  V30 557 H 52.9105 0.570548 -3.06841 0
M  V30 558 N 53.2116 1.57565 -0.0334293 0
M  V30 559 C 54.4596 1.91598 0.642999 0
M  V30 560 C 54.7806 0.910847 1.7242 0
M  V30 561 O 54.0506 -0.0469931 1.95844 0
M  V30 562 H 52.6306 0.707228 0.240496 0
M  V30 563 H 55.2926 1.94726 -0.0822488 0
M  V30 564 H 54.3886 2.92336 1.09298 0
M  V30 565 N 54.6897 -0.239769 1.55765 0
M  V30 566 C 55.6197 -1.30052 1.9393 0
M  V30 567 C 56.6007 -1.49839 0.805132 0
M  V30 568 O 57.7857 -1.62328 1.06599 0
M  V30 569 C 54.9157 -2.65391 2.2402 0
M  V30 570 C 53.8697 -2.60289 3.39755 0
M  V30 571 C 53.1957 -3.99489 3.55405 0
M  V30 572 C 54.4957 -2.16654 4.75246 0
M  V30 573 H 56.1897 -0.983573 2.82783 0
M  V30 574 H 53.7357 -0.471701 1.36055 0
M  V30 575 H 55.6887 -3.3974 2.49308 0
M  V30 576 H 54.4127 -2.98736 1.32 0
M  V30 577 H 53.0717 -1.88398 3.14487 0
M  V30 578 H 52.7197 -4.30112 2.60793 0
M  V30 579 H 52.4197 -3.96962 4.33238 0
M  V30 580 H 53.9437 -4.75528 3.83022 0
M  V30 581 H 55.3577 -2.80737 4.99859 0
M  V30 582 H 53.7547 -2.25223 5.56232 0
M  V30 583 H 54.8247 -1.11835 4.71827 0
M  V30 584 N 56.1678 -1.49265 -0.50573 0
M  V30 585 C 57.3958 -1.62215 -1.28429 0
M  V30 586 C 57.8108 -0.291697 -1.86533 0
M  V30 587 O 57.1678 0.722233 -1.67601 0
M  V30 588 C 57.2188 -2.68735 -2.41793 0
M  V30 589 O 56.9398 -3.96619 -1.86078 0
M  V30 590 C 58.4408 -2.92346 -3.3324 0
M  V30 591 H 55.6608 -0.546239 -0.389697 0
M  V30 592 H 58.2048 -1.95265 -0.607609 0
M  V30 593 H 56.3598 -2.38476 -3.053 0
M  V30 594 H 56.7738 -4.55256 -2.60465 0
M  V30 595 H 58.2478 -3.70623 -4.09075 0
M  V30 596 H 58.7248 -2.02081 -3.89948 0
M  V30 597 H 59.3308 -3.24003 -2.75503 0
M  V30 598 N 57.6459 0.756429 -1.3826 0
M  V30 599 C 58.9229 1.50584 -1.24835 0
M  V30 600 C 59.3029 2.10556 0.151485 0
M  V30 601 O 58.6509 1.96825 1.1607 0
M  V30 602 C 58.8609 2.57448 -2.3563 0
M  V30 603 C 60.2089 3.24429 -2.73917 0
M  V30 604 O 61.2329 2.67751 -2.34921 0
M  V30 605 O 60.0919 4.26937 -3.41156 0
M  V30 606 H 57.1859 0.667664 -0.48801 0
M  V30 607 H 59.7319 0.792083 -1.5008 0
M  V30 608 H 58.5039 2.11362 -3.29305 0
M  V30 609 H 58.1269 3.36408 -2.11933 0
M  V30 610 N 59.124 1.23083 0.984299 0
M  V30 611 C 60.071 1.00854 2.07598 0
M  V30 612 C 61.041 -0.0726709 1.65941 0
M  V30 613 O 62.226 0.0786535 1.90638 0
M  V30 614 C 59.366 0.601645 3.39815 0
M  V30 615 C 58.479 1.75456 3.94765 0
M  V30 616 C 57.614 1.29482 5.15177 0
M  V30 617 C 56.653 2.41873 5.62284 0
M  V30 618 N 55.79 1.96885 6.73929 0
M  V30 619 H 60.63 1.943 2.25946 0
M  V30 620 H 58.167 0.968001 1.10762 0
M  V30 621 H 60.125 0.346854 4.15756 0
M  V30 622 H 58.755 -0.295803 3.21442 0
M  V30 623 H 57.807 2.12346 3.15616 0
M  V30 624 H 59.119 2.59965 4.25699 0
M  V30 625 H 58.273 0.997923 5.98437 0
M  V30 626 H 57.012 0.420046 4.85888 0
M  V30 627 H 56.017 2.72342 4.77608 0
M  V30 628 H 57.242 3.29881 5.93595 0
M  V30 629 H 55.188 1.11782 6.46406 0
M  V30 630 H 55.105 2.74956 7.04227 0
M  V30 631 H 56.373 1.70289 7.60672 0
M  V30 632 N 60.6021 -1.18246 1.0419 0
M  V30 633 C 61.5321 -2.24127 0.654914 0
M  V30 634 C 62.5131 -1.66617 -0.342451 0
M  V30 635 O 63.6981 -1.92924 -0.222277 0
M  V30 636 C 60.8281 -3.47295 0.0183757 0
M  V30 637 C 59.7821 -4.17563 0.939414 0
M  V30 638 C 59.1081 -5.34438 0.167286 0
M  V30 639 C 60.4081 -4.70917 2.25908 0
M  V30 640 H 62.1021 -2.56753 1.54007 0
M  V30 641 H 59.6481 -1.23414 0.74195 0
M  V30 642 H 61.6011 -4.20572 -0.264082 0
M  V30 643 H 60.3251 -3.13907 -0.901664 0
M  V30 644 H 58.9841 -3.46186 1.20628 0
M  V30 645 H 58.6321 -4.97298 -0.7552 0
M  V30 646 H 58.3321 -5.82388 0.780901 0
M  V30 647 H 59.8561 -6.10504 -0.108125 0
M  V30 648 H 61.2701 -5.35882 2.03724 0
M  V30 649 H 59.6671 -5.29406 2.82577 0
M  V30 650 H 60.7371 -3.88272 2.9047 0
M  V30 651 N 62.0802 -0.821533 -1.34494 0
M  V30 652 C 63.3082 -0.421884 -2.02553 0
M  V30 653 C 63.7232 0.971745 -1.61872 0
M  V30 654 O 63.0802 1.62864 -0.823496 0
M  V30 655 C 63.1312 -0.51285 -3.57844 0
M  V30 656 O 62.8522 -1.85155 -3.97051 0
M  V30 657 C 64.3532 -0.107921 -4.43169 0
M  V30 658 H 61.5732 -0.169482 -0.649243 0
M  V30 659 H 64.1172 -1.1093 -1.71798 0
M  V30 660 H 62.2722 0.126474 -3.87193 0
M  V30 661 H 62.6862 -1.82482 -4.91732 0
M  V30 662 H 64.1602 -0.222657 -5.51551 0
M  V30 663 H 64.6372 0.948401 -4.28838 0
M  V30 664 H 65.2432 -0.720989 -4.19144 0
M  V30 665 N 63.5583 1.46682 -0.576371 0
M  V30 666 C 64.4903 2.28341 0.198231 0
M  V30 667 C 65.5033 1.38141 0.861453 0
M  V30 668 O 66.6923 1.62797 0.732082 0
M  V30 669 C 63.7923 3.12986 1.29972 0
M  V30 670 C 62.9653 4.31271 0.729639 0
M  V30 671 C 62.0243 4.97363 1.71803 0
M  V30 672 O 61.0503 5.55156 1.25658 0
M  V30 673 N 62.2523 4.93796 3.05198 0
M  V30 674 H 65.0173 2.9546 -0.502324 0
M  V30 675 H 62.5783 1.56525 -0.413715 0
M  V30 676 H 64.5703 3.54066 1.96008 0
M  V30 677 H 63.1403 2.47984 1.90323 0
M  V30 678 H 62.3603 3.94052 -0.108012 0
M  V30 679 H 63.6483 5.07739 0.328438 0
M  V30 680 H 63.0463 4.48077 3.45317 0
M  V30 681 H 61.6033 5.38837 3.6674 0
M  V30 682 N 65.0364 0.313813 1.54444 0
M  V30 683 C 65.9994 -0.54379 2.22656 0
M  V30 684 C 66.9994 -1.05124 1.21678 0
M  V30 685 O 68.1894 -0.945225 1.46325 0
M  V30 686 C 65.3214 -1.75427 2.92298 0
M  V30 687 H 66.5144 0.0523599 2.99854 0
M  V30 688 H 64.0674 0.0647834 1.56166 0
M  V30 689 H 64.8024 -2.38991 2.19211 0
M  V30 690 H 64.5874 -1.39791 3.66334 0
M  V30 691 H 66.0774 -2.36325 3.44297 0
M  V30 692 N 66.5145 -1.57545 0.0417849 0
M  V30 693 C 67.4465 -2.07904 -0.964799 0
M  V30 694 C 68.4595 -1.00497 -1.28079 0
M  V30 695 O 69.6485 -1.28087 -1.24322 0
M  V30 696 C 66.7485 -2.49928 -2.28887 0
M  V30 697 C 65.9215 -3.80562 -2.15619 0
M  V30 698 C 64.9805 -4.08999 -3.31069 0
M  V30 699 O 64.0065 -4.79061 -3.0739 0
M  V30 700 N 65.2085 -3.6017 -4.55256 0
M  V30 701 H 67.9735 -2.94886 -0.535029 0
M  V30 702 H 65.5345 -1.61252 -0.144681 0
M  V30 703 H 67.5265 -2.66034 -3.04972 0
M  V30 704 H 66.0965 -1.68245 -2.63463 0
M  V30 705 H 65.3165 -3.74129 -1.24183 0
M  V30 706 H 66.6045 -4.66126 -2.03971 0
M  V30 707 H 66.0025 -3.03512 -4.77386 0
M  V30 708 H 64.5595 -3.81532 -5.28466 0
M  V30 709 N 67.9926 0.231505 -1.5589 0
M  V30 710 C 69.2416 0.955346 -1.7764 0
M  V30 711 C 69.5546 1.85893 -0.608546 0
M  V30 712 O 70.7606 2.62067 -0.70943 0
M  V30 713 C 69.2166 1.74886 -3.14552 0
M  V30 714 C 68.8246 0.891915 -4.39032 0
M  V30 715 C 70.5686 2.46452 -3.45633 0
M  V30 716 C 68.4756 1.68221 -5.66971 0
M  V30 717 H 67.4056 0.360446 -0.662265 0
M  V30 718 H 70.0566 0.209516 -1.823 0
M  V30 719 H 68.4386 2.53723 -3.04041 0
M  V30 720 H 69.6126 0.144793 -4.60572 0
M  V30 721 H 67.9276 0.288863 -4.15397 0
M  V30 722 H 70.5246 3.06061 -4.38441 0
M  V30 723 H 70.8676 3.18841 -2.67668 0
M  V30 724 H 71.4006 1.74613 -3.57428 0
M  V30 725 H 68.1396 1.00178 -6.478 0
M  V30 726 H 67.6596 2.4042 -5.49507 0
M  V30 727 H 69.3386 2.24544 -6.06786 0
M  V30 728 N 69.4707 1.49531 0.497807 0
M  V30 729 C 70.7177 1.59179 1.25173 0
M  V30 730 C 71.0457 0.279932 1.92475 0
M  V30 731 O 70.3007 -0.732383 1.81479 0
M  V30 732 C 70.5997 2.70252 2.33878 0
M  V30 733 C 70.2657 4.11644 1.84012 0
M  V30 734 C 68.9277 4.50121 1.70132 0
M  V30 735 C 71.2797 5.00121 1.46725 0
M  V30 736 C 68.6077 5.74845 1.17348 0
M  V30 737 C 70.9597 6.25366 0.95392 0
M  V30 738 C 69.6237 6.6267 0.801538 0
M  V30 739 H 68.8937 0.582478 0.45804 0
M  V30 740 H 71.5407 1.83373 0.551948 0
M  V30 741 H 69.8457 2.40041 3.09657 0
M  V30 742 H 71.5427 2.74925 2.9192 0
M  V30 743 H 68.1327 3.81274 1.95775 0
M  V30 744 H 72.3167 4.71048 1.56294 0
M  V30 745 H 67.5727 6.02444 1.04264 0
M  V30 746 H 71.7467 6.93301 0.656225 0
M  V30 747 H 69.3737 7.59197 0.390351 0
M  V30 748 N 70.9488 -0.749086 1.3866 0
M  V30 749 C 72.2258 -1.4992 1.25632 0
M  V30 750 C 72.6058 -2.10633 -0.140317 0
M  V30 751 O 71.9538 -1.97437 -1.15025 0
M  V30 752 C 72.1638 -2.56195 2.36992 0
M  V30 753 C 73.5118 -3.22972 2.75634 0
M  V30 754 O 74.5358 -2.66502 2.36337 0
M  V30 755 O 73.3948 -4.25122 3.43415 0
M  V30 756 H 70.4888 -0.665067 0.491544 0
M  V30 757 H 73.0348 -0.784113 1.50498 0
M  V30 758 H 71.8068 -2.09612 3.30422 0
M  V30 759 H 71.4298 -3.35279 2.13714 0
M  V30 760 N 72.4269 -1.23603 -0.977757 0
M  V30 761 C 73.6569 -1.09487 -1.75203 0
M  V30 762 C 74.0649 0.356321 -1.85814 0
M  V30 763 O 73.4079 1.25816 -1.33851 0
M  V30 764 C 73.4699 -1.64905 -3.19447 0
M  V30 765 C 73.1339 -3.13688 -3.32338 0
M  V30 766 C 74.1309 -4.10953 -3.18455 0
M  V30 767 C 71.8159 -3.53449 -3.56902 0
M  V30 768 C 73.8099 -5.45962 -3.28944 0
M  V30 769 C 71.4969 -4.88602 -3.6703 0
M  V30 770 C 72.4949 -5.84668 -3.53062 0
M  V30 771 O 72.1829 -7.17365 -3.62826 0
M  V30 772 H 71.9149 -0.38367 -0.556573 0
M  V30 773 H 74.4689 -1.6398 -1.23693 0
M  V30 774 H 72.6989 -1.04835 -3.72218 0
M  V30 775 H 74.3879 -1.46226 -3.78646 0
M  V30 776 H 75.1539 -3.81577 -2.99372 0
M  V30 777 H 71.0329 -2.79188 -3.66844 0
M  V30 778 H 74.5769 -6.20925 -3.17958 0
M  V30 779 H 70.4739 -5.17653 -3.85623 0
M  V30 780 H 71.2419 -7.2515 -3.79605 0
M  V30 781 N 73.905 1.17692 -1.04816 0
M  V30 782 C 75.153 1.87488 -0.754497 0
M  V30 783 C 75.474 1.81205 0.720407 0
M  V30 784 O 74.744 1.23544 1.52032 0
M  V30 785 H 73.324 0.694101 -0.276102 0
M  V30 786 H 75.986 1.42793 -1.32651 0
M  V30 787 H 75.082 2.93328 -1.06606 0
M  V30 788 N 75.3831 0.828654 1.34056 0
M  V30 789 C 76.2931 0.256725 2.33191 0
M  V30 790 C 77.3091 -0.611898 1.62886 0
M  V30 791 O 78.4851 -0.51844 1.94613 0
M  V30 792 C 75.5501 -0.567238 3.42028 0
M  V30 793 C 74.6111 0.324458 4.28072 0
M  V30 794 C 73.8441 -0.460274 5.31712 0
M  V30 795 O 74.0671 -1.693 5.44696 0
M  V30 796 O 73.0011 0.160391 6.01686 0
M  V30 797 H 76.8271 1.07739 2.83947 0
M  V30 798 H 74.4121 0.59093 1.37217 0
M  V30 799 H 76.2941 -1.03582 4.08471 0
M  V30 800 H 74.9691 -1.36513 2.93506 0
M  V30 801 H 73.8761 0.840659 3.64532 0
M  V30 802 H 75.2091 1.08685 4.8005 0
M  V30 803 N 76.8612 -1.46375 0.584142 0
M  V30 804 C 78.1102 -2.01585 0.0679741 0
M  V30 805 C 78.4232 -1.46109 -1.30045 0
M  V30 806 O 79.6292 -1.93148 -1.90804 0
M  V30 807 C 78.0852 -3.5983 0.0709207 0
M  V30 808 C 77.6932 -4.24303 1.43775 0
M  V30 809 C 79.4372 -4.22693 -0.391228 0
M  V30 810 C 77.3442 -5.74631 1.39834 0
M  V30 811 H 76.2742 -0.753689 0.0216421 0
M  V30 812 H 78.9252 -1.68093 0.736001 0
M  V30 813 H 77.3072 -3.90405 -0.663299 0
M  V30 814 H 78.4812 -4.05335 2.19181 0
M  V30 815 H 76.7962 -3.73539 1.84004 0
M  V30 816 H 79.3932 -5.3289 -0.439524 0
M  V30 817 H 79.7362 -3.91728 -1.40906 0
M  V30 818 H 80.2692 -3.96749 0.288974 0
M  V30 819 H 77.0082 -6.10258 2.39303 0
M  V30 820 H 76.5282 -5.95858 0.686505 0
M  V30 821 H 78.2072 -6.37375 1.11187 0
M  V30 822 N 78.3393 -0.321999 -1.54275 0
M  V30 823 C 79.7503 0.166384 -1.85957 0
M  V30 824 C 80.1013 1.51747 -1.24367 0
M  V30 825 O 79.2263 2.09317 -0.549124 0
M  V30 826 C 79.8213 0.308681 -3.37391 0
M  V30 827 C 78.3803 0.741286 -3.69028 0
M  V30 828 C 77.5273 -0.137937 -2.76957 0
M  V30 829 H 80.4783 -0.542335 -1.49146 0
M  V30 830 H 80.4993 1.13984 -3.63026 0
M  V30 831 H 80.0113 -0.674809 -3.82188 0
M  V30 832 H 78.1123 1.73458 -3.29762 0
M  V30 833 H 78.2253 0.546118 -4.75977 0
M  V30 834 H 76.5893 0.386251 -2.51754 0
M  V30 835 H 77.3723 -1.11816 -3.2458 0
M  V30 836 N 79.8174 1.5752 -0.0501392 0
M  V30 837 C 80.7654 2.12651 0.942459 0
M  V30 838 C 81.7594 1.05807 1.32292 0
M  V30 839 O 82.9654 1.24217 1.3027 0
M  V30 840 H 79.3404 0.679673 0.321789 0
M  V30 841 H 81.3114 2.94951 0.452356 0
M  V30 842 C 80.0604 2.68565 2.20836 0
M  V30 843 H 79.3834 3.50439 1.92439 0
M  V30 844 H 80.8234 3.10761 2.8845 0
M  V30 845 C 79.2824 1.62291 2.95234 0
M  V30 846 O 79.8124 1.03508 3.88135 0
M  V30 847 N 78.0184 1.33836 2.57946 0
M  V30 848 H 77.5654 1.81826 1.82475 0
M  V30 849 H 77.5234 0.629595 3.08032 0
M  V30 850 N 81.2955 -0.223234 1.56011 0
M  V30 851 C 82.5425 -0.947875 1.78946 0
M  V30 852 C 82.8705 -1.844 0.618608 0
M  V30 853 O 82.1255 -1.91629 -0.397093 0
M  V30 854 C 82.4245 -1.81948 3.0762 0
M  V30 855 C 82.0905 -1.07672 4.37856 0
M  V30 856 C 80.7525 -0.871544 4.73242 0
M  V30 857 C 83.1045 -0.552081 5.18268 0
M  V30 858 C 80.4325 -0.129791 5.86556 0
M  V30 859 C 82.7845 0.17632 6.32354 0
M  V30 860 C 81.4485 0.39277 6.66343 0
M  V30 861 H 80.7185 -0.346852 0.654809 0
M  V30 862 H 83.3655 -0.216171 1.90276 0
M  V30 863 H 81.6705 -2.61899 2.91404 0
M  V30 864 H 83.3675 -2.38227 3.22566 0
M  V30 865 H 79.9575 -1.24662 4.1007 0
M  V30 866 H 84.1415 -0.698076 4.91366 0
M  V30 867 H 79.3975 0.048153 6.11381 0
M  V30 868 H 83.5715 0.590367 6.93893 0
M  V30 869 H 81.1985 0.969466 7.53993 0
M  V30 870 N 82.7736 -1.49793 -0.48987 0
M  V30 871 C 84.1846 -1.52914 -1.07118 0
M  V30 872 C 84.5356 -0.321738 -1.93544 0
M  V30 873 O 83.6606 0.567338 -2.08831 0
M  V30 874 C 84.2556 -2.771 -1.94938 0
M  V30 875 C 82.8146 -2.82963 -2.48212 0
M  V30 876 C 81.9616 -2.46972 -1.26096 0
M  V30 877 H 84.9126 -1.56329 -0.273289 0
M  V30 878 H 84.9336 -2.57892 -2.79771 0
M  V30 879 H 84.4456 -3.64959 -1.32009 0
M  V30 880 H 82.5466 -1.99411 -3.14748 0
M  V30 881 H 82.6596 -3.85406 -2.84603 0
M  V30 882 H 81.0236 -1.98994 -1.58976 0
M  V30 883 H 81.8066 -3.37118 -0.648581 0
M  V30 884 N 84.2517 0.741722 -1.39055 0
M  V30 885 C 85.6677 1.04638 -1.20512 0
M  V30 886 C 85.8677 2.01405 -0.0620218 0
M  V30 887 O 84.9237 2.45547 0.588457 0
M  V30 888 C 86.2367 1.6151 -2.53643 0
M  V30 889 C 87.7847 1.73623 -2.6043 0
M  V30 890 C 88.2597 2.33906 -3.93767 0
M  V30 891 N 89.7507 2.41323 -3.9537 0
M  V30 892 C 90.4857 2.88888 -4.95309 0
M  V30 893 N 89.9817 3.36401 -6.05645 0
M  V30 894 N 91.7747 2.88037 -4.82692 0
M  V30 895 H 83.9257 0.0998155 -2.12165 0
M  V30 896 H 86.1887 0.106907 -0.941953 0
M  V30 897 H 85.8947 0.978739 -3.37807 0
M  V30 898 H 85.7687 2.60411 -2.72885 0
M  V30 899 H 88.1557 2.36384 -1.76655 0
M  V30 900 H 88.2367 0.733945 -2.45045 0
M  V30 901 H 87.8807 1.71776 -4.7797 0
M  V30 902 H 87.8107 3.34799 -4.06469 0
M  V30 903 H 90.3017 2.07734 -3.15682 0
M  V30 904 H 90.6147 3.71186 -6.77821 0
M  V30 905 H 88.9597 3.34427 -6.09248 0
M  V30 906 H 92.1507 2.50237 -3.95599 0
M  V30 907 H 92.3237 3.24792 -5.60726 0
M  V30 908 N 85.7298 1.2412 0.971189 0
M  V30 909 C 86.9548 1.10667 1.75407 0
M  V30 910 C 87.3798 -0.337048 1.85056 0
M  V30 911 O 86.7378 -1.24396 1.31892 0
M  V30 912 C 86.7858 1.74726 3.15441 0
M  V30 913 O 85.8898 1.01566 3.99697 0
M  V30 914 H 85.2308 0.387341 0.539317 0
M  V30 915 H 87.7608 1.64358 1.2185 0
M  V30 916 H 87.7708 1.80341 3.6598 0
M  V30 917 H 86.4458 2.79773 3.07734 0
M  V30 918 H 85.0228 1.03713 3.58187 0
M  V30 919 N 87.2079 -1.17134 1.05439 0
M  V30 920 C 88.4359 -1.91372 0.786414 0
M  V30 921 C 88.8509 -1.76955 -0.658202 0
M  V30 922 O 88.2079 -1.10838 -1.44987 0
M  V30 923 C 88.2589 -3.42356 1.1608 0
M  V30 924 O 87.9799 -3.56332 2.54871 0
M  V30 925 C 89.4809 -4.33663 0.919322 0
M  V30 926 H 86.7009 -0.607118 0.285743 0
M  V30 927 H 89.2449 -1.48525 1.40572 0
M  V30 928 H 87.3999 -3.82939 0.586191 0
M  V30 929 H 87.8139 -4.49896 2.69618 0
M  V30 930 H 89.2879 -5.38099 1.231 0
M  V30 931 H 89.7649 -4.38959 -0.145359 0
M  V30 932 H 90.3709 -3.98796 1.47789 0
M  V30 933 N 88.686 -0.835752 -1.33615 0
M  V30 934 C 89.932 -0.430596 -1.98176 0
M  V30 935 C 90.265 1.00684 -1.66061 0
M  V30 936 O 89.54 1.70339 -0.938877 0
M  V30 937 C 89.823 -0.648065 -3.5422 0
M  V30 938 C 89.676 -2.13255 -3.96033 0
M  V30 939 C 90.995 -0.0922113 -4.40003 0
M  V30 940 H 88.114 -0.157924 -0.719881 0
M  V30 941 H 90.756 -1.05069 -1.58305 0
M  V30 942 H 88.906 -0.120237 -3.88314 0
M  V30 943 H 90.578 -2.725 -3.72211 0
M  V30 944 H 88.821 -2.61823 -3.45878 0
M  V30 945 H 89.492 -2.23547 -5.04708 0
M  V30 946 H 91.968 -0.543343 -4.12537 0
M  V30 947 H 90.844 -0.274083 -5.48215 0
M  V30 948 H 91.105 1.00378 -4.30554 0
M  V30 949 N 90.1641 1.46063 -0.591896 0
M  V30 950 C 91.5751 1.85944 -0.167822 0
M  V30 951 C 91.9261 1.49429 1.27143 0
M  V30 952 O 91.0511 0.913515 1.96173 0
M  V30 953 C 91.6461 3.37489 -0.297794 0
M  V30 954 C 90.2051 3.76332 0.0714732 0
M  V30 955 C 89.3521 2.7006 -0.629509 0
M  V30 956 H 92.3031 1.37087 -0.799555 0
M  V30 957 H 92.3241 3.77532 0.474349 0
M  V30 958 H 91.8361 3.64034 -1.3454 0
M  V30 959 H 89.9371 3.55405 1.11886 0
M  V30 960 H 90.0501 4.78088 -0.311245 0
M  V30 961 H 88.4141 2.54607 -0.0687867 0
M  V30 962 H 89.1971 2.99444 -1.67894 0
M  V30 963 N 91.6422 0.330177 1.54103 0
M  V30 964 C 92.8902 -0.269871 2.0029 0
M  V30 965 C 93.2112 -1.52133 1.21986 0
M  V30 966 O 92.4812 -1.93212 0.323438 0
M  V30 967 H 91.0612 -0.10271 0.739905 0
M  V30 968 H 93.7232 0.448249 1.89675 0
M  V30 969 H 92.8192 -0.52166 3.07709 0
M  V30 970 N 93.1203 -1.57491 0.0584922 0
M  V30 971 C 94.0703 -2.08474 -0.923188 0
M  V30 972 C 95.0543 -0.991479 -1.26722 0
M  V30 973 O 96.2463 -1.25473 -1.24842 0
M  V30 974 C 93.3753 -2.6392 -2.19548 0
M  V30 975 C 92.4613 -3.80227 -1.87852 0
M  V30 976 N 92.8523 -4.89714 -1.26546 0
M  V30 977 C 91.1503 -3.89271 -2.17679 0
M  V30 978 C 91.8513 -5.70689 -1.12644 0
M  V30 979 N 90.8273 -5.18531 -1.63176 0
M  V30 980 H 94.6293 -2.90517 -0.444653 0
M  V30 981 H 92.1433 -1.61745 -0.145764 0
M  V30 982 H 94.1403 -2.98752 -2.9078 0
M  V30 983 H 92.8003 -1.83318 -2.68001 0
M  V30 984 H 93.8113 -5.09358 -0.936757 0
M  V30 985 H 90.4883 -3.19623 -2.68602 0
M  V30 986 H 91.8783 -6.6875 -0.6499 0
M  V30 987 N 94.5984 0.214957 -1.56127 0
M  V30 988 C 95.5614 1.24997 -1.92116 0
M  V30 989 C 96.5614 1.39467 -0.800344 0
M  V30 990 O 97.7514 1.37619 -1.06802 0
M  V30 991 C 94.8834 2.62271 -2.17777 0
M  V30 992 H 96.0764 0.942875 -2.84693 0
M  V30 993 H 93.6294 0.455654 -1.49511 0
M  V30 994 H 94.3644 2.98068 -1.27773 0
M  V30 995 H 94.1494 2.53143 -2.99434 0
M  V30 996 H 95.6394 3.36946 -2.46693 0
M  V30 997 N 96.0765 1.50051 0.48192 0
M  V30 998 C 97.3245 1.60181 1.23234 0
M  V30 999 C 97.6455 0.299176 1.92691 0
M  V30 1000 O 96.9155 -0.682708 1.83619 0
M  V30 1001 H 95.4955 0.590232 0.457859 0
M  V30 1002 H 98.1575 1.86775 0.556881 0
M  V30 1003 H 97.2535 2.40753 1.98607 0
M  V30 1004 N 97.5546 -0.734337 1.39446 0
M  V30 1005 C 98.9706 -1.03997 1.21065 0
M  V30 1006 C 99.1706 -2.01369 0.0727019 0
M  V30 1007 O 98.2266 -2.45856 -0.575426 0
M  V30 1008 C 99.5396 -1.60163 2.54496 0
M  V30 1009 C 101.088 -1.7224 2.61347 0
M  V30 1010 C 101.563 -2.31814 3.95002 0
M  V30 1011 N 103.054 -2.39223 3.96644 0
M  V30 1012 C 103.789 -2.86258 4.96834 0
M  V30 1013 N 103.285 -3.33184 6.07421 0
M  V30 1014 N 105.078 -2.85473 4.84213 0
M  V30 1015 H 97.2286 -0.0885624 2.12215 0
M  V30 1016 H 99.4916 -0.10191 0.942506 0
M  V30 1017 H 99.1976 -0.960811 3.38321 0
M  V30 1018 H 99.0716 -2.5896 2.74262 0
M  V30 1019 H 101.459 -2.35443 1.77906 0
M  V30 1020 H 101.54 -0.720939 2.4543 0
M  V30 1021 H 101.184 -1.69238 4.78875 0
M  V30 1022 H 101.114 -3.32638 4.08239 0
M  V30 1023 H 103.605 -2.06057 3.16779 0
M  V30 1024 H 103.918 -3.67586 6.7978 0
M  V30 1025 H 102.263 -3.31191 6.11013 0
M  V30 1026 H 105.454 -2.48136 3.96921 0
M  V30 1027 H 105.627 -3.21814 5.62441 0
M  V30 1028 N 99.0327 -1.24633 -0.964593 0
M  V30 1029 C 99.9627 -1.06611 -2.07741 0
M  V30 1030 C 100.944 0.0218666 -1.70086 0
M  V30 1031 O 102.129 -0.145793 -1.93652 0
M  V30 1032 C 99.2587 -0.673444 -3.40708 0
M  V30 1033 C 98.2127 -1.71054 -3.92332 0
M  V30 1034 C 97.5387 -1.17285 -5.21678 0
M  V30 1035 C 98.8387 -3.10718 -4.19824 0
M  V30 1036 H 100.533 -1.99693 -2.23076 0
M  V30 1037 H 98.0787 -0.96152 -1.07195 0
M  V30 1038 H 100.032 -0.534345 -4.17998 0
M  V30 1039 H 98.7557 0.293073 -3.25282 0
M  V30 1040 H 97.4147 -1.83791 -3.17201 0
M  V30 1041 H 97.0627 -0.196847 -5.02615 0
M  V30 1042 H 96.7627 -1.86592 -5.57187 0
M  V30 1043 H 98.2867 -1.04593 -6.01575 0
M  V30 1044 H 99.7007 -3.01192 -4.87808 0
M  V30 1045 H 98.0977 -3.77406 -4.66567 0
M  V30 1046 H 99.1677 -3.58524 -3.26479 0
M  V30 1047 N 100.511 1.16574 -1.06058 0
M  V30 1048 C 101.757 1.87324 -0.777022 0
M  V30 1049 C 102.09 1.81351 0.694645 0
M  V30 1050 O 101.365 1.22753 1.50871 0
M  V30 1051 C 101.648 3.36991 -1.26922 0
M  V30 1052 C 101.501 3.51667 -2.80447 0
M  V30 1053 C 102.82 4.3131 -0.87521 0
M  V30 1054 H 99.9388 0.680191 -0.28374 0
M  V30 1055 H 102.581 1.37036 -1.3161 0
M  V30 1056 H 100.731 3.79949 -0.81063 0
M  V30 1057 H 102.403 3.17664 -3.34495 0
M  V30 1058 H 100.646 2.93656 -3.19294 0
M  V30 1059 H 101.317 4.56766 -3.0995 0
M  V30 1060 H 103.793 3.9624 -1.27014 0
M  V30 1061 H 102.669 5.34545 -1.2471 0
M  V30 1062 H 102.93 4.41552 0.220071 0
M  V30 1063 N 101.989 0.842826 1.3317 0
M  V30 1064 C 103.236 0.440447 1.97652 0
M  V30 1065 C 103.564 -1.00123 1.6675 0
M  V30 1066 O 102.819 -1.7155 0.941761 0
M  V30 1067 C 103.118 0.612607 3.52111 0
M  V30 1068 C 102.784 2.02297 4.02972 0
M  V30 1069 C 101.446 2.40874 4.16573 0
M  V30 1070 C 103.798 2.94402 4.30089 0
M  V30 1071 C 101.126 3.70852 4.54627 0
M  V30 1072 C 103.478 4.23865 4.69597 0
M  V30 1073 C 102.142 4.62392 4.81404 0
M  V30 1074 H 101.412 0.161171 0.72326 0
M  V30 1075 H 104.059 1.07061 1.58777 0
M  V30 1076 H 102.364 -0.100849 3.9167 0
M  V30 1077 H 104.061 0.2815 4.00011 0
M  V30 1078 H 100.651 1.71338 3.92863 0
M  V30 1079 H 104.835 2.65835 4.19101 0
M  V30 1080 H 100.091 4.00501 4.61962 0
M  V30 1081 H 104.265 4.95306 4.89536 0
M  V30 1082 H 101.892 5.63154 5.10648 0
M  V30 1083 N 103.467 -1.45747 0.599634 0
M  V30 1084 C 104.715 -2.01893 0.0915472 0
M  V30 1085 C 105.036 -1.47155 -1.27946 0
M  V30 1086 O 104.306 -0.66273 -1.84349 0
M  V30 1087 H 102.886 -0.746363 0.0308524 0
M  V30 1088 H 105.548 -1.78645 0.779237 0
M  V30 1089 H 104.644 -3.1208 0.0353086 0
M  V30 1090 N 104.945 -0.338344 -1.53925 0
M  V30 1091 C 106.192 0.259758 -2.00827 0
M  V30 1092 C 106.52 1.50973 -1.22628 0
M  V30 1093 O 105.775 1.93379 -0.300509 0
M  V30 1094 C 106.074 0.62448 -3.51902 0
M  V30 1095 C 105.74 -0.528006 -4.47798 0
M  V30 1096 C 104.402 -0.844298 -4.73735 0
M  V30 1097 C 106.754 -1.30143 -5.0469 0
M  V30 1098 C 104.082 -1.93648 -5.53821 0
M  V30 1099 C 106.434 -2.38382 -5.85967 0
M  V30 1100 C 105.098 -2.70576 -6.10201 0
M  V30 1101 H 104.368 0.0950523 -0.734878 0
M  V30 1102 H 107.015 -0.465182 -1.85764 0
M  V30 1103 H 105.32 1.43006 -3.64769 0
M  V30 1104 H 107.017 1.09905 -3.85645 0
M  V30 1105 H 103.607 -0.271421 -4.2774 0
M  V30 1106 H 107.791 -1.07033 -4.84621 0
M  V30 1107 H 103.047 -2.19021 -5.70824 0
M  V30 1108 H 107.221 -2.98746 -6.29066 0
M  V30 1109 H 104.848 -3.55333 -6.72044 0
M  V30 1110 N 106.423 1.57458 -0.0668435 0
M  V30 1111 C 107.353 2.15468 0.899764 0
M  V30 1112 C 108.334 1.08042 1.31381 0
M  V30 1113 O 109.519 1.36054 1.38574 0
M  V30 1114 C 106.649 2.71232 2.16911 0
M  V30 1115 C 105.603 3.83781 1.89463 0
M  V30 1116 C 104.929 4.26127 3.22986 0
M  V30 1117 C 106.229 5.08238 1.20381 0
M  V30 1118 H 107.923 2.96488 0.416529 0
M  V30 1119 H 105.469 1.4262 0.198908 0
M  V30 1120 H 107.422 3.10458 2.84945 0
M  V30 1121 H 106.146 1.87426 2.67468 0
M  V30 1122 H 104.805 3.45051 1.23836 0
M  V30 1123 H 104.453 3.39249 3.71374 0
M  V30 1124 H 104.153 5.01993 3.05413 0
M  V30 1125 H 105.677 4.67966 3.92225 0
M  V30 1126 H 107.091 5.44811 1.78475 0
M  V30 1127 H 105.488 5.89349 1.13083 0
M  V30 1128 H 106.558 4.84558 0.182153 0
M  V30 1129 N 107.901 -0.206675 1.56239 0
M  V30 1130 C 108.849 -1.27571 1.94495 0
M  V30 1131 C 109.843 -1.47737 0.828862 0
M  V30 1132 O 111.049 -1.48735 1.0138 0
M  V30 1133 H 107.424 -0.428029 0.6183 0
M  V30 1134 H 109.395 -0.925961 2.8367 0
M  V30 1135 C 108.144 -2.61568 2.29079 0
M  V30 1136 H 107.467 -2.46863 3.14482 0
M  V30 1137 H 108.907 -3.35144 2.5972 0
M  V30 1138 C 107.366 -3.17695 1.12123 0
M  V30 1139 O 107.896 -3.99801 0.390153 0
M  V30 1140 N 106.102 -2.76276 0.901097 0
M  V30 1141 H 105.649 -2.09613 1.49733 0
M  V30 1142 H 105.607 -3.1417 0.120319 0
M  V30 1143 N 109.379 -1.50304 -0.473955 0
M  V30 1144 C 110.627 -1.60832 -1.22382 0
M  V30 1145 C 110.948 -0.30939 -1.9253 0
M  V30 1146 O 110.218 0.67296 -1.83978 0
M  V30 1147 H 108.798 -0.592652 -0.454723 0
M  V30 1148 H 111.46 -1.87068 -0.546968 0
M  V30 1149 H 110.556 -2.41803 -1.97327 0
M  V30 1150 N 110.857 0.726932 -1.39834 0
M  V30 1151 C 112.273 1.03354 -1.21615 0
M  V30 1152 C 112.473 2.01327 -0.08338 0
M  V30 1153 O 111.529 2.46158 0.56238 0
M  V30 1154 C 112.842 1.58811 -2.55342 0
M  V30 1155 C 114.39 1.70851 -2.62257 0
M  V30 1156 C 114.865 2.29716 -3.96225 0
M  V30 1157 N 116.356 2.37116 -3.97907 0
M  V30 1158 C 117.091 2.83619 -4.98345 0
M  V30 1159 N 116.587 3.29958 -6.09179 0
M  V30 1160 N 118.38 2.82901 -4.8572 0
M  V30 1161 H 110.531 0.0773069 -2.12259 0
M  V30 1162 H 112.794 0.0969102 -0.943034 0
M  V30 1163 H 112.5 0.942855 -3.38826 0
M  V30 1164 H 112.374 2.57502 -2.75632 0
M  V30 1165 H 114.761 2.34497 -1.79152 0
M  V30 1166 H 114.842 0.707913 -2.45809 0
M  V30 1167 H 114.486 1.66696 -4.79765 0
M  V30 1168 H 114.416 3.30469 -4.09997 0
M  V30 1169 H 116.907 2.04374 -3.17868 0
M  V30 1170 H 117.22 3.63976 -6.8172 0
M  V30 1171 H 115.565 3.27946 -6.12761 0
M  V30 1172 H 118.756 2.46027 -3.98231 0
M  V30 1173 H 118.929 3.18827 -5.6414 0
M  V30 1174 N 112.336 1.25143 0.95797 0
M  V30 1175 C 113.299 1.05321 2.03569 0
M  V30 1176 C 114.299 0.007152 1.60798 0
M  V30 1177 O 115.489 0.24903 1.72411 0
M  V30 1178 C 112.621 0.598394 3.35607 0
M  V30 1179 H 113.814 2.00986 2.22586 0
M  V30 1180 H 111.367 1.07502 1.13459 0
M  V30 1181 H 112.102 -0.361014 3.22284 0
M  V30 1182 H 111.887 1.35351 3.67998 0
M  V30 1183 H 113.377 0.48104 4.1482 0
M  V30 1184 N 113.814 -1.1601 1.06675 0
M  V30 1185 C 115.054 -1.88304 0.795037 0
M  V30 1186 C 115.418 -1.80062 -0.666466 0
M  V30 1187 O 116.619 -2.47319 -1.05293 0
M  V30 1188 C 114.89 -3.33664 1.28076 0
M  V30 1189 S 116.449 -4.23768 1.13868 0
M  V30 1190 H 113.267 -0.649928 0.288296 0
M  V30 1191 H 115.869 -1.4001 1.36445 0
M  V30 1192 H 114.573 -3.37203 2.33927 0
M  V30 1193 H 114.104 -3.87009 0.706253 0
M  V30 1194 H 116.119 -4.96148 0.0719668 0
M  V30 1195 N 115.292 -0.849877 -1.32721 0
M  V30 1196 C 116.538 -0.451591 -1.97708 0
M  V30 1197 C 116.871 0.989175 -1.6712 0
M  V30 1198 O 116.146 1.69334 -0.956891 0
M  V30 1199 C 116.429 -0.685598 -3.53513 0
M  V30 1200 C 116.282 -2.17444 -3.93749 0
M  V30 1201 C 117.601 -0.138874 -4.39881 0
M  V30 1202 H 114.72 -0.16555 -0.718166 0
M  V30 1203 H 117.362 -1.06742 -1.57182 0
M  V30 1204 H 115.512 -0.161416 -3.88165 0
M  V30 1205 H 117.184 -2.76433 -3.693 0
M  V30 1206 H 115.427 -2.65476 -3.43081 0
M  V30 1207 H 116.098 -2.28888 -5.02309 0
M  V30 1208 H 118.574 -0.587068 -4.11938 0
M  V30 1209 H 117.45 -0.332213 -5.47894 0
M  V30 1210 H 117.711 0.95806 -4.31594 0
M  V30 1211 N 116.77 1.45427 -0.607355 0
M  V30 1212 C 117.703 2.27635 0.160482 0
M  V30 1213 C 118.681 1.37122 0.873857 0
M  V30 1214 O 119.865 1.66551 0.882775 0
M  V30 1215 C 116.992 3.15486 1.23231 0
M  V30 1216 C 116.038 4.21939 0.622097 0
M  V30 1217 S 116.871 5.32459 -0.569852 0
M  V30 1218 C 118.027 6.23879 0.502577 0
M  V30 1219 H 118.26 2.9241 -0.536983 0
M  V30 1220 H 115.793 1.49265 -0.394868 0
M  V30 1221 H 117.751 3.66659 1.84585 0
M  V30 1222 H 116.412 2.49977 1.90185 0
M  V30 1223 H 115.605 4.8333 1.42856 0
M  V30 1224 H 115.207 3.73906 0.0837063 0
M  V30 1225 H 117.499 6.63261 1.38171 0
M  V30 1226 H 118.442 7.0806 -0.0751759 0
M  V30 1227 H 118.85 5.58545 0.8178 0
M  V30 1228 N 118.248 0.346503 1.53744 0
M  V30 1229 C 119.181 -0.552023 2.21423 0
M  V30 1230 C 120.159 -1.09798 1.19929 0
M  V30 1231 O 121.343 -1.1577 1.4876 0
M  V30 1232 C 118.47 -1.75972 2.89398 0
M  V30 1233 C 117.516 -1.34295 4.04805 0
M  V30 1234 S 118.349 -0.360263 5.34287 0
M  V30 1235 C 119.505 -1.57473 6.05767 0
M  V30 1236 H 119.738 0.0228119 2.97291 0
M  V30 1237 H 117.271 0.130579 1.53847 0
M  V30 1238 H 119.229 -2.45256 3.2918 0
M  V30 1239 H 117.89 -2.30578 2.1329 0
M  V30 1240 H 117.083 -2.24349 4.51313 0
M  V30 1241 H 116.685 -0.729555 3.66815 0
M  V30 1242 H 118.977 -2.50875 6.29339 0
M  V30 1243 H 119.92 -1.15138 6.98676 0
M  V30 1244 H 120.328 -1.77212 5.35963 0
M  V30 1245 N 119.726 -1.57421 0.075193 0
M  V30 1246 C 120.658 -2.09904 -0.920483 0
M  V30 1247 C 121.671 -1.03191 -1.25918 0
M  V30 1248 O 122.86 -1.30695 -1.21577 0
M  V30 1249 C 119.96 -2.54726 -2.23534 0
M  V30 1250 C 119.133 -3.8505 -2.07498 0
M  V30 1251 C 118.192 -4.15929 -3.22319 0
M  V30 1252 O 117.218 -4.85474 -2.9716 0
M  V30 1253 N 118.42 -3.69745 -4.47514 0
M  V30 1254 H 121.185 -2.95954 -0.472359 0
M  V30 1255 H 118.746 -1.61523 -0.110444 0
M  V30 1256 H 120.738 -2.72443 -2.9926 0
M  V30 1257 H 119.308 -1.73795 -2.59835 0
M  V30 1258 H 118.528 -3.76679 -1.16219 0
M  V30 1259 H 119.816 -4.70348 -1.94038 0
M  V30 1260 H 119.214 -3.13569 -4.7084 0
M  V30 1261 H 117.771 -3.92655 -5.20255 0
M  V30 1262 N 121.204 0.198386 -1.56346 0
M  V30 1263 C 122.452 0.91747 -1.80075 0
M  V30 1264 C 122.773 1.83929 -0.647692 0
M  V30 1265 O 122.043 1.93029 0.334166 0
M  V30 1266 H 120.623 0.341774 -0.664228 0
M  V30 1267 H 123.285 0.204684 -1.93822 0
M  V30 1268 H 122.381 1.51055 -2.7311 0
M  V30 1269 N 122.682 1.50554 0.465978 0
M  V30 1270 C 124.098 1.38093 0.800154 0
M  V30 1271 C 124.298 0.440988 1.96615 0
M  V30 1272 O 123.354 -0.114499 2.5224 0
M  V30 1273 C 124.667 2.79565 1.10742 0
M  V30 1274 C 126.215 2.88516 1.21357 0
M  V30 1275 C 126.69 4.30833 1.55393 0
M  V30 1276 N 128.181 4.33807 1.62375 0
M  V30 1277 C 128.916 5.40927 1.90225 0
M  V30 1278 N 128.412 6.58247 2.16062 0
M  V30 1279 N 130.205 5.28376 1.9177 0
M  V30 1280 H 122.356 2.10237 -0.302366 0
M  V30 1281 H 124.619 0.945203 -0.0727746 0
M  V30 1282 H 124.325 3.50208 0.323661 0
M  V30 1283 H 124.199 3.17125 2.04234 0
M  V30 1284 H 126.586 2.1809 1.98799 0
M  V30 1285 H 126.667 2.54492 0.258321 0
M  V30 1286 H 126.311 5.01799 0.784889 0
M  V30 1287 H 126.241 4.62347 2.52076 0
M  V30 1288 H 128.732 3.49212 1.44427 0
M  V30 1289 H 129.045 7.3569 2.36601 0
M  V30 1290 H 127.39 6.61413 2.13444 0
M  V30 1291 H 130.581 4.35715 1.71085 0
M  V30 1292 H 130.754 6.11944 2.13139 0
M  V30 1293 N 124.16 -0.719506 1.40217 0
M  V30 1294 C 125.407 -1.47933 1.38283 0
M  V30 1295 C 125.735 -1.94493 -0.0161536 0
M  V30 1296 O 124.99 -1.68224 -0.999956 0
M  V30 1297 C 125.289 -2.72271 2.31524 0
M  V30 1298 C 124.955 -2.44496 3.78857 0
M  V30 1299 C 123.617 -2.36631 4.18998 0
M  V30 1300 C 125.969 -2.21104 4.71977 0
M  V30 1301 C 123.297 -2.03437 5.503 0
M  V30 1302 C 125.649 -1.89423 6.03574 0
M  V30 1303 C 124.313 -1.80038 6.42762 0
M  V30 1304 H 123.583 -0.541325 0.506012 0
M  V30 1305 H 126.23 -0.824502 1.72842 0
M  V30 1306 H 124.535 -3.42572 1.90137 0
M  V30 1307 H 126.232 -3.30348 2.27313 0
M  V30 1308 H 122.822 -2.51503 3.47051 0
M  V30 1309 H 127.006 -2.26139 4.41786 0
M  V30 1310 H 122.262 -1.94705 5.79569 0
M  V30 1311 H 126.436 -1.70336 6.75247 0
M  V30 1312 H 124.063 -1.54083 7.44421 0
M  V30 1313 N 125.638 -1.25649 -0.95132 0
M  V30 1314 C 126.588 -1.03004 -2.03406 0
M  V30 1315 C 127.572 0.034187 -1.60864 0
M  V30 1316 O 128.764 -0.181549 -1.76066 0
M  V30 1317 C 125.893 -0.654255 -3.37008 0
M  V30 1318 C 124.979 -1.75542 -3.86065 0
M  V30 1319 N 125.37 -2.99113 -4.07879 0
M  V30 1320 C 123.668 -1.63669 -4.14884 0
M  V30 1321 C 124.369 -3.70611 -4.48356 0
M  V30 1322 N 123.345 -2.98247 -4.54477 0
M  V30 1323 H 127.147 -1.96813 -2.1827 0
M  V30 1324 H 124.661 -1.16017 -1.13639 0
M  V30 1325 H 126.658 -0.473206 -4.14206 0
M  V30 1326 H 125.318 0.276468 -3.23521 0
M  V30 1327 H 126.329 -3.35124 -3.94857 0
M  V30 1328 H 123.006 -0.775161 -4.10241 0
M  V30 1329 H 124.396 -4.76695 -4.73509 0
M  V30 1330 N 127.117 1.15442 -1.07289 0
M  V30 1331 C 128.05 2.19135 -0.636798 0
M  V30 1332 C 129.028 1.58884 0.34562 0
M  V30 1333 O 130.212 1.86805 0.252195 0
M  V30 1334 C 127.339 3.38638 0.0650014 0
M  V30 1335 C 126.385 4.17412 -0.87576 0
M  V30 1336 S 127.218 4.79882 -2.37642 0
M  V30 1337 C 128.374 6.02753 -1.6864 0
M  V30 1338 H 128.607 2.55787 -1.51526 0
M  V30 1339 H 126.14 1.26394 -0.886793 0
M  V30 1340 H 128.098 4.07873 0.463664 0
M  V30 1341 H 126.759 3.00331 0.919801 0
M  V30 1342 H 125.952 5.02909 -0.33143 0
M  V30 1343 H 125.554 3.53722 -1.21478 0
M  V30 1344 H 127.846 6.70113 -0.997753 0
M  V30 1345 H 128.789 6.61754 -2.51967 0
M  V30 1346 H 129.197 5.52355 -1.16465 0
M  V30 1347 N 128.595 0.856903 1.32268 0
M  V30 1348 C 129.825 0.47475 2.01071 0
M  V30 1349 C 130.233 -0.933746 1.64553 0
M  V30 1350 O 129.576 -1.62114 0.863989 0
M  V30 1351 C 129.638 0.536746 3.55471 0
M  V30 1352 C 129.302 1.90453 4.15423 0
M  V30 1353 C 130.299 2.87029 4.33486 0
M  V30 1354 C 127.984 2.20229 4.51447 0
M  V30 1355 C 129.978 4.11532 4.86744 0
M  V30 1356 C 127.665 3.44984 5.0441 0
M  V30 1357 C 128.663 4.40452 5.22007 0
M  V30 1358 O 128.351 5.62998 5.73837 0
M  V30 1359 H 128.083 0.184778 0.650256 0
M  V30 1360 H 130.637 1.15615 1.69771 0
M  V30 1361 H 128.867 -0.20152 3.86175 0
M  V30 1362 H 130.556 0.169875 4.05544 0
M  V30 1363 H 131.322 2.6533 4.05986 0
M  V30 1364 H 127.201 1.46705 4.37034 0
M  V30 1365 H 130.745 4.86056 5.00395 0
M  V30 1366 H 126.642 3.66532 5.31342 0
M  V30 1367 H 127.41 5.64987 5.92226 0
M  V30 1368 N 130.073 -1.45103 0.615059 0
M  V30 1369 C 130.983 -2.34382 -0.101034 0
M  V30 1370 C 131.999 -1.51681 -0.852585 0
M  V30 1371 O 133.175 -1.8446 -0.808484 0
M  V30 1372 C 130.24 -3.29417 -1.08099 0
M  V30 1373 C 129.301 -4.28025 -0.330577 0
M  V30 1374 C 128.534 -5.1852 -1.26385 0
M  V30 1375 O 128.757 -5.12598 -2.50198 0
M  V30 1376 O 127.691 -5.97122 -0.756866 0
M  V30 1377 H 131.517 -2.97033 0.632855 0
M  V30 1378 H 129.102 -1.4461 0.375293 0
M  V30 1379 H 130.984 -3.87958 -1.6452 0
M  V30 1380 H 129.659 -2.69321 -1.79577 0
M  V30 1381 H 128.566 -3.73078 0.276283 0
M  V30 1382 H 129.899 -4.90997 0.343866 0
M  V30 1383 N 131.551 -0.354651 -1.53558 0
M  V30 1384 C 132.799 0.237972 -2.00694 0
M  V30 1385 C 133.12 1.50173 -1.24391 0
M  V30 1386 O 132.39 1.92673 -0.354135 0
M  V30 1387 H 130.97 0.0909256 -0.741446 0
M  V30 1388 H 133.632 -0.478368 -1.88938 0
M  V30 1389 H 132.728 0.47264 -3.085 0
M  V30 1390 N 133.029 1.57378 -0.0835403 0
M  V30 1391 C 134.259 1.97975 0.590713 0
M  V30 1392 C 134.667 0.961083 1.62972 0
M  V30 1393 O 134.01 -0.0590879 1.83605 0
M  V30 1394 C 134.072 3.34915 1.3066 0
M  V30 1395 C 133.736 4.55069 0.419698 0
M  V30 1396 C 134.733 5.18868 -0.32749 0
M  V30 1397 C 132.418 5.0114 0.341137 0
M  V30 1398 C 134.412 6.27098 -1.14134 0
M  V30 1399 C 132.099 6.0924 -0.476374 0
M  V30 1400 C 133.097 6.72083 -1.21627 0
M  V30 1401 O 132.785 7.781 -2.02028 0
M  V30 1402 H 132.517 0.655818 0.163947 0
M  V30 1403 H 135.071 2.04807 -0.156021 0
M  V30 1404 H 133.301 3.24733 2.09966 0
M  V30 1405 H 134.99 3.60037 1.87424 0
M  V30 1406 H 135.756 4.84211 -0.276459 0
M  V30 1407 H 131.635 4.51996 0.90668 0
M  V30 1408 H 135.179 6.7608 -1.71935 0
M  V30 1409 H 131.076 6.43329 -0.528927 0
M  V30 1410 H 131.844 7.95034 -1.94586 0
M  V30 1411 N 134.507 -0.190092 1.56449 0
M  V30 1412 C 135.918 -0.754312 1.70784 0
M  V30 1413 C 136.269 -1.83631 0.690951 0
M  V30 1414 O 135.394 -2.15868 -0.151604 0
M  V30 1415 C 135.989 -1.37503 3.09642 0
M  V30 1416 C 134.548 -1.88628 3.25725 0
M  V30 1417 C 133.695 -0.758098 2.66736 0
M  V30 1418 H 136.646 0.0350524 1.58661 0
M  V30 1419 H 136.667 -2.2445 3.0725 0
M  V30 1420 H 136.179 -0.587302 3.83631 0
M  V30 1421 H 134.28 -2.70103 2.56661 0
M  V30 1422 H 134.393 -2.04462 4.3328 0
M  V30 1423 H 132.757 -1.17369 2.26046 0
M  V30 1424 H 133.54 0.0174705 3.43296 0
M  V30 1425 N 135.985 -1.50799 -0.457987 0
M  V30 1426 C 136.915 -1.73553 -1.5621 0
M  V30 1427 C 137.896 -0.584774 -1.59732 0
M  V30 1428 O 139.081 -0.825314 -1.7579 0
M  V30 1429 C 136.211 -1.84169 -2.94447 0
M  V30 1430 C 135.165 -2.99461 -3.0579 0
M  V30 1431 C 134.491 -2.95235 -4.45803 0
M  V30 1432 C 135.791 -4.39766 -2.81786 0
M  V30 1433 H 137.485 -2.66 -1.37421 0
M  V30 1434 H 135.031 -1.28002 -0.659662 0
M  V30 1435 H 136.984 -1.98672 -3.71628 0
M  V30 1436 H 135.708 -0.883545 -3.14422 0
M  V30 1437 H 134.367 -2.8463 -2.31044 0
M  V30 1438 H 134.015 -1.97239 -4.62715 0
M  V30 1439 H 133.715 -3.72642 -4.54326 0
M  V30 1440 H 135.239 -3.11803 -5.24987 0
M  V30 1441 H 136.653 -4.55054 -3.4871 0
M  V30 1442 H 135.05 -5.18722 -3.0174 0
M  V30 1443 H 136.12 -4.51229 -1.7754 0
M  V30 1444 N 137.463 0.71206 -1.40597 0
M  V30 1445 C 138.709 1.47292 -1.40274 0
M  V30 1446 C 139.064 1.92399 -0.00576812 0
M  V30 1447 O 138.357 1.65507 0.965297 0
M  V30 1448 C 138.551 2.71039 -2.32965 0
M  V30 1449 C 138.38 2.38035 -3.81536 0
M  V30 1450 C 137.15 2.29203 -4.50327 0
M  V30 1451 C 139.348 2.02076 -4.72938 0
M  V30 1452 N 137.33 1.88911 -5.84111 0
M  V30 1453 C 138.701 1.72412 -5.95545 0
M  V30 1454 C 140.756 1.88742 -4.60739 0
M  V30 1455 C 139.459 1.30756 -7.07316 0
M  V30 1456 C 141.485 1.4849 -5.72455 0
M  V30 1457 C 140.847 1.19726 -6.94151 0
M  V30 1458 H 136.946 0.536919 -0.568544 0
M  V30 1459 H 139.53 0.825424 -1.76337 0
M  V30 1460 H 137.701 3.33533 -1.99023 0
M  V30 1461 H 139.433 3.37404 -2.23474 0
M  V30 1462 H 136.188 2.47059 -4.04053 0
M  V30 1463 H 136.612 1.71293 -6.54972 0
M  V30 1464 H 141.254 2.0964 -3.67166 0
M  V30 1465 H 138.972 1.08601 -8.00769 0
M  V30 1466 H 142.558 1.38747 -5.65014 0
M  V30 1467 H 141.438 0.890482 -7.79128 0
M  V30 1468 N 138.941 1.26152 0.944643 0
M  V30 1469 C 139.888 1.07408 2.04285 0
M  V30 1470 C 140.858 -0.0198413 1.66088 0
M  V30 1471 O 142.043 0.139264 1.90291 0
M  V30 1472 C 139.183 0.70945 3.37729 0
M  V30 1473 C 138.296 1.87926 3.88983 0
M  V30 1474 C 137.431 1.45807 5.10797 0
M  V30 1475 C 136.47 2.5964 5.54305 0
M  V30 1476 N 135.607 2.18226 6.67324 0
M  V30 1477 H 140.447 2.01389 2.1965 0
M  V30 1478 H 137.984 1.00275 1.07626 0
M  V30 1479 H 139.942 0.478948 4.14442 0
M  V30 1480 H 138.572 -0.193389 3.2222 0
M  V30 1481 H 137.624 2.22279 3.08701 0
M  V30 1482 H 138.936 2.73377 4.17213 0
M  V30 1483 H 138.09 1.18781 5.94959 0
M  V30 1484 H 136.829 0.574414 4.84305 0
M  V30 1485 H 135.834 2.87399 4.68702 0
M  V30 1486 H 137.059 3.48599 5.828 0
M  V30 1487 H 135.005 1.3229 6.42523 0
M  V30 1488 H 134.922 2.97221 6.95123 0
M  V30 1489 H 136.19 1.94403 7.54869 0
M  V30 1490 N 140.419 -1.14872 1.07899 0
M  V30 1491 C 141.665 -1.86064 0.806725 0
M  V30 1492 C 141.998 -1.82434 -0.665706 0
M  V30 1493 O 141.273 -1.25138 -1.48899 0
M  V30 1494 C 141.556 -3.34929 1.32267 0
M  V30 1495 C 141.409 -3.47161 2.86006 0
M  V30 1496 C 142.728 -4.29863 0.943717 0
M  V30 1497 H 139.847 -0.675591 0.294526 0
M  V30 1498 H 142.489 -1.34925 1.33773 0
M  V30 1499 H 140.639 -3.78611 0.870974 0
M  V30 1500 H 142.311 -3.12302 3.39507 0
M  V30 1501 H 140.554 -2.88539 3.23925 0
M  V30 1502 H 141.225 -4.51777 3.17177 0
M  V30 1503 H 143.701 -3.9417 1.33302 0
M  V30 1504 H 142.577 -5.32494 1.33198 0
M  V30 1505 H 142.838 -4.41846 -0.149796 0
M  V30 1506 N 141.898 -0.863906 -1.31812 0
M  V30 1507 C 143.126 -0.486111 -2.01108 0
M  V30 1508 C 143.541 0.919755 -1.64882 0
M  V30 1509 O 142.898 1.60162 -0.874893 0
M  V30 1510 C 142.949 -0.626435 -3.56031 0
M  V30 1511 O 142.67 -1.97693 -3.90959 0
M  V30 1512 C 144.171 -0.248857 -4.42601 0
M  V30 1513 H 141.391 -0.190052 -0.643523 0
M  V30 1514 H 143.935 -1.1634 -1.68182 0
M  V30 1515 H 142.09 0.00322717 -3.874 0
M  V30 1516 H 142.504 -1.98034 -4.85678 0
M  V30 1517 H 143.978 -0.398016 -5.50563 0
M  V30 1518 H 144.455 0.811489 -4.31638 0
M  V30 1519 H 145.061 -0.853971 -4.16638 0
M  V30 1520 N 143.376 1.44774 -0.622745 0
M  V30 1521 C 144.623 2.02121 -0.1239 0
M  V30 1522 C 144.951 1.48915 1.25118 0
M  V30 1523 O 144.206 0.660045 1.84233 0
M  V30 1524 C 144.505 3.57364 -0.0508323 0
M  V30 1525 C 144.171 4.29787 -1.36358 0
M  V30 1526 C 142.833 4.4929 -1.72314 0
M  V30 1527 C 145.185 4.71062 -2.23048 0
M  V30 1528 C 142.513 5.07325 -2.94682 0
M  V30 1529 C 144.865 5.30452 -3.44679 0
M  V30 1530 C 143.529 5.48175 -3.80868 0
M  V30 1531 H 142.799 0.739612 -0.0453381 0
M  V30 1532 H 145.446 1.73648 -0.807389 0
M  V30 1533 H 143.751 3.85202 0.715991 0
M  V30 1534 H 145.448 3.99456 0.351533 0
M  V30 1535 H 142.038 4.14932 -1.07375 0
M  V30 1536 H 146.222 4.55715 -1.96565 0
M  V30 1537 H 141.478 5.19235 -3.22809 0
M  V30 1538 H 145.652 5.61385 -4.12092 0
M  V30 1539 H 143.279 5.92912 -4.75773 0
M  V30 1540 N 144.854 0.36279 1.53368 0
M  V30 1541 C 146.265 -0.117022 1.86333 0
M  V30 1542 C 146.616 -1.48397 1.28347 0
M  V30 1543 O 145.741 -2.07787 0.604428 0
M  V30 1544 C 146.336 -0.21912 3.38091 0
M  V30 1545 C 144.895 -0.643184 3.70864 0
M  V30 1546 C 144.042 0.211318 2.76494 0
M  V30 1547 H 146.993 0.581687 1.47655 0
M  V30 1548 H 147.014 -1.04319 3.6592 0
M  V30 1549 H 146.526 0.775902 3.80265 0
M  V30 1550 H 144.627 -1.64654 3.34245 0
M  V30 1551 H 144.74 -0.41973 4.77258 0
M  V30 1552 H 143.104 -0.319367 2.5269 0
M  V30 1553 H 143.887 1.20383 3.21501 0
M  V30 1554 N 146.332 -1.57332 0.0918853 0
M  V30 1555 C 147.578 -1.94524 -0.573425 0
M  V30 1556 C 147.911 -0.973578 -1.68033 0
M  V30 1557 O 147.186 -0.00609226 -1.94499 0
M  V30 1558 C 147.469 -3.41858 -1.13161 0
M  V30 1559 C 147.322 -4.4979 -0.0299747 0
M  V30 1560 C 148.641 -3.90435 -2.03098 0
M  V30 1561 H 145.76 -0.70734 -0.206975 0
M  V30 1562 H 148.402 -1.89309 0.161942 0
M  V30 1563 H 146.552 -3.46433 -1.7583 0
M  V30 1564 H 148.224 -4.57327 0.604112 0
M  V30 1565 H 146.467 -4.291 0.636833 0
M  V30 1566 H 147.138 -5.50069 -0.461287 0
M  V30 1567 H 149.614 -3.87992 -1.50338 0
M  V30 1568 H 148.49 -4.94097 -2.39081 0
M  V30 1569 H 148.751 -3.29541 -2.94712 0
M  V30 1570 N 147.81 0.181792 -1.56548 0
M  V30 1571 C 149.226 0.53316 -1.50431 0
M  V30 1572 C 149.426 1.85184 -0.794297 0
M  V30 1573 O 148.482 2.50058 -0.350318 0
M  V30 1574 C 149.795 0.575597 -2.9514 0
M  V30 1575 C 151.343 0.663519 -3.05886 0
M  V30 1576 C 151.818 0.736946 -4.52032 0
M  V30 1577 N 153.309 0.800118 -4.56237 0
M  V30 1578 C 154.044 0.877327 -5.66649 0
M  V30 1579 N 153.54 0.916016 -6.86718 0
M  V30 1580 N 155.333 0.915542 -5.54594 0
M  V30 1581 H 147.484 -0.683025 -2.01118 0
M  V30 1582 H 149.747 -0.244988 -0.915797 0
M  V30 1583 H 149.453 -0.324482 -3.502 0
M  V30 1584 H 149.327 1.42572 -3.49218 0
M  V30 1585 H 151.714 1.55403 -2.50867 0
M  V30 1586 H 151.795 -0.21307 -2.54911 0
M  V30 1587 H 151.439 -0.149262 -5.07681 0
M  V30 1588 H 151.369 1.62953 -5.00753 0
M  V30 1589 H 153.86 0.778926 -3.69785 0
M  V30 1590 H 154.173 0.975813 -7.66614 0
M  V30 1591 H 152.518 0.884469 -6.89349 0
M  V30 1592 H 155.709 0.882245 -4.59711 0
M  V30 1593 H 155.882 0.972253 -6.40665 0
M  V30 1594 N 149.288 1.51039 0.449983 0
M  V30 1595 C 150.534 1.63322 1.20223 0
M  V30 1596 C 150.867 0.34241 1.91158 0
M  V30 1597 O 150.142 -0.657344 1.83055 0
M  V30 1598 C 150.425 2.82801 2.22925 0
M  V30 1599 C 150.278 4.21823 1.56157 0
M  V30 1600 C 151.597 2.97807 3.24035 0
M  V30 1601 H 148.716 0.594407 0.435718 0
M  V30 1602 H 151.358 1.83489 0.493136 0
M  V30 1603 H 149.508 2.65738 2.834 0
M  V30 1604 H 151.18 4.50526 0.991162 0
M  V30 1605 H 149.423 4.25105 0.864172 0
M  V30 1606 H 150.094 5.01391 2.30891 0
M  V30 1607 H 152.57 3.13497 2.73603 0
M  V30 1608 H 151.446 3.82992 3.93202 0
M  V30 1609 H 151.707 2.09328 3.89402 0
M  V30 1610 N 150.766 -0.704594 1.40972 0
M  V30 1611 C 152.013 -1.46458 1.39844 0
M  V30 1612 C 152.341 -1.94499 0.00447594 0
M  V30 1613 O 151.596 -1.69275 -0.982057 0
M  V30 1614 C 151.895 -2.698 2.34399 0
M  V30 1615 C 151.561 -2.40464 3.81429 0
M  V30 1616 C 150.223 -2.32174 4.21484 0
M  V30 1617 C 152.575 -2.16086 4.74296 0
M  V30 1618 C 149.903 -1.97589 5.52427 0
M  V30 1619 C 152.255 -1.83011 6.05549 0
M  V30 1620 C 150.919 -1.7321 6.44635 0
M  V30 1621 H 150.189 -0.535927 0.511725 0
M  V30 1622 H 152.836 -0.806124 1.73706 0
M  V30 1623 H 151.141 -3.40536 1.93759 0
M  V30 1624 H 152.838 -3.27919 2.30804 0
M  V30 1625 H 149.428 -2.47808 3.49699 0
M  V30 1626 H 153.612 -2.2144 4.4416 0
M  V30 1627 H 148.868 -1.88547 5.81601 0
M  V30 1628 H 153.042 -1.63164 6.77016 0
M  V30 1629 H 150.669 -1.46179 7.46013 0
M  V30 1630 N 152.244 -1.26651 -0.937939 0
M  V30 1631 C 153.194 -1.05156 -2.02302 0
M  V30 1632 C 154.178 0.0171233 -1.60891 0
M  V30 1633 O 155.37 -0.200213 -1.75864 0
M  V30 1634 C 152.499 -0.689962 -3.36295 0
M  V30 1635 C 151.585 -1.79626 -3.84181 0
M  V30 1636 N 151.976 -3.03422 -4.04684 0
M  V30 1637 C 150.274 -1.6806 -4.13124 0
M  V30 1638 C 150.975 -3.75345 -4.444 0
M  V30 1639 N 149.951 -3.03051 -4.51288 0
M  V30 1640 H 153.753 -1.99117 -2.1617 0
M  V30 1641 H 151.267 -1.17216 -1.12402 0
M  V30 1642 H 153.264 -0.517112 -4.13681 0
M  V30 1643 H 151.924 0.242139 -3.23796 0
M  V30 1644 H 152.935 -3.39293 -3.91281 0
M  V30 1645 H 149.612 -0.818629 -4.09396 0
M  V30 1646 H 151.002 -4.81691 -4.68427 0
M  V30 1647 N 153.722 1.14298 -1.08507 0
M  V30 1648 C 154.652 2.21542 -0.737646 0
M  V30 1649 C 155.633 1.67773 0.280377 0
M  V30 1650 O 156.818 1.93616 0.150521 0
M  V30 1651 C 153.948 3.46988 -0.147259 0
M  V30 1652 C 152.902 4.13789 -1.09374 0
M  V30 1653 C 152.228 5.33449 -0.365524 0
M  V30 1654 C 153.528 4.62208 -2.4323 0
M  V30 1655 H 155.222 2.5086 -1.6343 0
M  V30 1656 H 152.768 1.20576 -0.787243 0
M  V30 1657 H 154.721 4.21262 0.107808 0
M  V30 1658 H 153.445 3.17037 0.784538 0
M  V30 1659 H 152.104 3.4147 -1.33393 0
M  V30 1660 H 151.752 4.99759 0.57011 0
M  V30 1661 H 151.452 5.79088 -0.996512 0
M  V30 1662 H 152.976 6.10485 -0.118534 0
M  V30 1663 H 154.39 5.27952 -2.23472 0
M  V30 1664 H 152.787 5.18553 -3.02031 0
M  V30 1665 H 153.857 3.77224 -3.04681 0
M  V30 1666 N 155.201 0.870884 1.31352 0
M  V30 1667 C 156.131 0.343096 2.30966 0
M  V30 1668 C 157.112 -0.566507 1.60389 0
M  V30 1669 O 158.297 -0.483336 1.88089 0
M  V30 1670 C 155.427 -0.455487 3.443 0
M  V30 1671 C 154.381 0.361103 4.26474 0
M  V30 1672 C 153.707 -0.563221 5.31725 0
M  V30 1673 C 155.007 1.59566 4.97329 0
M  V30 1674 H 156.701 1.17548 2.75359 0
M  V30 1675 H 154.247 0.566686 1.32381 0
M  V30 1676 H 156.2 -0.83525 4.13039 0
M  V30 1677 H 154.924 -1.32139 2.98675 0
M  V30 1678 H 153.583 0.722825 3.59403 0
M  V30 1679 H 153.231 -1.42643 4.82351 0
M  V30 1680 H 152.931 -0.0207409 5.87596 0
M  V30 1681 H 154.455 -0.939808 6.03324 0
M  V30 1682 H 155.869 1.28728 5.58661 0
M  V30 1683 H 154.266 2.07728 5.63 0
M  V30 1684 H 155.336 2.34798 4.24262 0
M  V30 1685 N 156.679 -1.44442 0.630414 0
M  V30 1686 C 157.927 -2.01653 0.134351 0
M  V30 1687 C 158.248 -1.49836 -1.24796 0
M  V30 1688 O 157.518 -0.701684 -1.82902 0
M  V30 1689 H 156.098 -0.74554 0.0466769 0
M  V30 1690 H 158.76 -1.76952 0.816955 0
M  V30 1691 H 157.856 -3.11935 0.101498 0
M  V30 1692 N 158.157 -0.370918 -1.53173 0
M  V30 1693 C 159.403 0.217423 -2.01631 0
M  V30 1694 C 159.736 1.47983 -1.25756 0
M  V30 1695 O 159.011 1.91274 -0.352764 0
M  V30 1696 C 159.294 0.503982 -3.56556 0
M  V30 1697 C 159.147 -0.77243 -4.43118 0
M  V30 1698 C 160.466 1.30234 -4.20389 0
M  V30 1699 H 157.585 0.0775486 -0.732909 0
M  V30 1700 H 160.227 -0.496863 -1.83388 0
M  V30 1701 H 158.377 1.11248 -3.72231 0
M  V30 1702 H 160.049 -1.4098 -4.39229 0
M  V30 1703 H 158.292 -1.39167 -4.10871 0
M  V30 1704 H 158.963 -0.526815 -5.4948 0
M  V30 1705 H 161.439 0.787546 -4.08579 0
M  V30 1706 H 160.315 1.47158 -5.28806 0
M  V30 1707 H 160.576 2.31237 -3.76805 0
M  V30 1708 N 159.635 1.57281 -0.100228 0
M  V30 1709 C 160.912 1.86014 0.604812 0
M  V30 1710 C 161.292 0.998025 1.86018 0
M  V30 1711 O 160.64 0.0718184 2.28387 0
M  V30 1712 C 160.85 3.36784 0.915278 0
M  V30 1713 C 162.198 4.04957 1.27651 0
M  V30 1714 O 163.222 3.41695 1.00613 0
M  V30 1715 O 162.081 5.16593 1.7831 0
M  V30 1716 H 159.175 0.76942 0.303185 0
M  V30 1717 H 161.721 1.69176 -0.133313 0
M  V30 1718 H 160.493 3.91292 0.0248896 0
M  V30 1719 H 160.116 3.58987 1.70921 0
M  V30 1720 N 161.113 -0.173488 1.56642 0
M  V30 1721 C 162.341 -0.906095 1.86004 0
M  V30 1722 C 162.756 -1.75921 0.685355 0
M  V30 1723 O 162.113 -1.79198 -0.345578 0
M  V30 1724 C 162.164 -1.78462 3.14378 0
M  V30 1725 O 161.885 -0.965914 4.27319 0
M  V30 1726 C 163.386 -2.62707 3.57071 0
M  V30 1727 H 160.606 -0.263341 0.617165 0
M  V30 1728 H 163.15 -0.174236 2.03756 0
M  V30 1729 H 161.305 -2.46984 2.98459 0
M  V30 1730 H 161.719 -1.56655 5.00559 0
M  V30 1731 H 163.193 -3.19969 4.49804 0
M  V30 1732 H 163.67 -3.37472 2.81086 0
M  V30 1733 H 164.276 -1.99521 3.75595 0
M  V30 1734 N 162.591 -1.51276 -0.441967 0
M  V30 1735 C 163.521 -1.752 -1.54361 0
M  V30 1736 C 164.502 -0.601682 -1.59103 0
M  V30 1737 O 165.687 -0.843913 -1.74905 0
M  V30 1738 C 162.817 -1.87282 -2.92477 0
M  V30 1739 C 161.771 -3.02687 -3.02596 0
M  V30 1740 C 161.097 -2.99947 -4.42647 0
M  V30 1741 C 162.397 -4.4273 -2.77106 0
M  V30 1742 H 164.091 -2.67442 -1.34592 0
M  V30 1743 H 161.637 -1.28694 -0.646048 0
M  V30 1744 H 163.59 -2.02602 -3.695 0
M  V30 1745 H 162.314 -0.916844 -3.13467 0
M  V30 1746 H 160.973 -2.87065 -2.28012 0
M  V30 1747 H 160.621 -2.02136 -4.60597 0
M  V30 1748 H 160.321 -3.77439 -4.50348 0
M  V30 1749 H 161.845 -3.17354 -5.2165 0
M  V30 1750 H 163.259 -4.58727 -3.43864 0
M  V30 1751 H 161.656 -5.21893 -2.96222 0
M  V30 1752 H 162.726 -4.53087 -1.72744 0
M  V30 1753 N 164.069 0.697108 -1.41344 0
M  V30 1754 C 165.315 1.4593 -1.40827 0
M  V30 1755 C 165.648 1.94193 -0.0167098 0
M  V30 1756 O 164.923 1.69425 0.955263 0
M  V30 1757 C 165.206 2.67229 -2.41373 0
M  V30 1758 C 165.059 2.24741 -3.8963 0
M  V30 1759 C 166.378 3.69423 -2.39196 0
M  V30 1760 H 163.497 0.529303 -0.512842 0
M  V30 1761 H 166.139 0.794112 -1.72609 0
M  V30 1762 H 164.289 3.23982 -2.14401 0
M  V30 1763 H 165.961 1.73327 -4.27499 0
M  V30 1764 H 164.204 1.56542 -4.0457 0
M  V30 1765 H 164.875 3.1177 -4.55525 0
M  V30 1766 H 167.351 3.2234 -2.63128 0
M  V30 1767 H 166.227 4.51907 -3.11563 0
M  V30 1768 H 166.488 4.19012 -1.41001 0
M  V30 1769 N 165.547 1.27147 0.931209 0
M  V30 1770 C 166.793 1.13446 1.68101 0
M  V30 1771 C 167.126 -0.319628 1.91552 0
M  V30 1772 O 166.401 -1.23407 1.50336 0
M  V30 1773 C 166.684 1.91482 3.0497 0
M  V30 1774 C 166.537 3.44855 2.88782 0
M  V30 1775 C 167.856 1.71651 4.05246 0
M  V30 1776 H 164.975 0.413498 0.610072 0
M  V30 1777 H 167.617 1.56261 1.08086 0
M  V30 1778 H 165.767 1.55095 3.56199 0
M  V30 1779 H 167.439 3.9105 2.44698 0
M  V30 1780 H 165.682 3.71373 2.24198 0
M  V30 1781 H 166.353 3.94694 3.85902 0
M  V30 1782 H 168.829 2.0337 3.63015 0
M  V30 1783 H 167.705 2.28651 4.99009 0
M  V30 1784 H 167.966 0.663555 4.37092 0
M  V30 1785 N 167.025 -1.13721 1.09112 0
M  V30 1786 C 168.253 -1.88773 0.846899 0
M  V30 1787 C 168.668 -1.7896 -0.601572 0
M  V30 1788 O 168.025 -1.15394 -1.41388 0
M  V30 1789 C 168.076 -3.3849 1.26913 0
M  V30 1790 O 167.797 -3.48043 2.66079 0
M  V30 1791 C 169.298 -4.30518 1.05682 0
M  V30 1792 H 166.518 -0.59772 0.304914 0
M  V30 1793 H 169.062 -1.43977 1.45227 0
M  V30 1794 H 167.217 -3.80881 0.707723 0
M  V30 1795 H 167.631 -4.4109 2.83795 0
M  V30 1796 H 169.105 -5.3391 1.40156 0
M  V30 1797 H 169.582 -4.392 -0.00563416 0
M  V30 1798 H 170.188 -3.93893 1.60402 0
M  V30 1799 N 168.503 -0.877838 -1.30888 0
M  V30 1800 C 169.451 -0.328662 -2.30266 0
M  V30 1801 C 170.445 0.560496 -1.59859 0
M  V30 1802 O 171.651 0.445722 -1.74394 0
M  V30 1803 H 168.026 -0.0876142 -0.746879 0
M  V30 1804 H 169.997 -1.18061 -2.74051 0
M  V30 1805 C 168.746 0.448071 -3.44801 0
M  V30 1806 H 168.069 -0.226859 -3.99156 0
M  V30 1807 H 169.509 0.797541 -4.16432 0
M  V30 1808 C 167.968 1.64239 -2.94155 0
M  V30 1809 O 168.498 2.74175 -2.93583 0
M  V30 1810 N 166.704 1.47716 -2.50256 0
M  V30 1811 H 166.251 0.582821 -2.5092 0
M  V30 1812 H 166.209 2.27765 -2.16727 0
M  V30 1813 N 169.982 1.44106 -0.638065 0
M  V30 1814 C 170.945 2.29138 0.0531013 0
M  V30 1815 C 171.945 1.41409 0.765506 0
M  V30 1816 O 173.135 1.63206 0.609046 0
M  V30 1817 C 170.267 3.23144 1.08584 0
M  V30 1818 H 171.46 2.91739 -0.694883 0
M  V30 1819 H 169.013 1.51134 -0.398538 0
M  V30 1820 H 169.748 2.65408 1.86357 0
M  V30 1821 H 169.533 3.87804 0.578852 0
M  V30 1822 H 171.023 3.87004 1.56899 0
M  V30 1823 N 171.46 0.379036 1.52974 0
M  V30 1824 C 172.423 -0.448865 2.24762 0
M  V30 1825 C 173.423 -0.998689 1.26027 0
M  V30 1826 O 174.613 -0.882313 1.50203 0
M  V30 1827 C 171.745 -1.62872 2.99476 0
M  V30 1828 H 172.938 0.179491 2.99362 0
M  V30 1829 H 170.491 0.13096 1.5575 0
M  V30 1830 H 171.226 -2.29479 2.29151 0
M  V30 1831 H 171.011 -1.24128 3.71934 0
M  V30 1832 H 172.501 -2.2151 3.5401 0
M  V30 1833 N 172.938 -1.57226 0.108567 0
M  V30 1834 C 174.186 -1.94448 -0.550853 0
M  V30 1835 C 174.507 -0.992074 -1.67878 0
M  V30 1836 O 173.777 -0.0465 -1.95845 0
M  V30 1837 H 172.357 -0.717897 -0.206479 0
M  V30 1838 H 175.019 -1.94112 0.175062 0
M  V30 1839 H 174.115 -2.97218 -0.952259 0
M  V30 1840 N 174.416 0.165178 -1.56732 0
M  V30 1841 C 175.664 0.879068 -1.8198 0
M  V30 1842 C 175.985 1.82514 -0.686561 0
M  V30 1843 O 175.255 1.93694 0.293146 0
M  V30 1844 H 173.835 0.327608 -0.671329 0
M  V30 1845 H 176.497 0.163526 -1.94213 0
M  V30 1846 H 175.593 1.45228 -2.76252 0
M  V30 1847 N 175.894 1.51508 0.433938 0
M  V30 1848 C 176.824 1.76016 1.53429 0
M  V30 1849 C 177.805 0.610112 1.58782 0
M  V30 1850 O 178.99 0.853177 1.74455 0
M  V30 1851 C 176.12 1.88831 2.9148 0
M  V30 1852 C 175.074 3.04288 3.00987 0
M  V30 1853 C 174.4 3.0229 4.4105 0
M  V30 1854 C 175.7 4.44193 2.74754 0
M  V30 1855 H 177.394 2.68152 1.33171 0
M  V30 1856 H 174.94 1.29035 0.639214 0
M  V30 1857 H 176.893 2.04559 3.6842 0
M  V30 1858 H 175.617 0.933455 3.12976 0
M  V30 1859 H 174.276 2.8827 2.26486 0
M  V30 1860 H 173.924 2.04576 4.59519 0
M  V30 1861 H 173.624 3.79822 4.4834 0
M  V30 1862 H 175.148 3.20116 5.1996 0
M  V30 1863 H 176.562 4.60544 3.41426 0
M  V30 1864 H 174.959 5.23457 2.9345 0
M  V30 1865 H 176.029 4.53996 1.70339 0
M  V30 1866 N 177.372 -0.689602 1.41712 0
M  V30 1867 C 178.32 -1.82475 1.44242 0
M  V30 1868 C 179.314 -1.66354 0.319774 0
M  V30 1869 O 180.52 -1.73143 0.492089 0
M  V30 1870 H 176.895 -0.601416 0.451445 0
M  V30 1871 H 178.866 -1.77458 2.39899 0
M  V30 1872 C 177.615 -3.20535 1.3473 0
M  V30 1873 H 176.938 -3.33559 2.20405 0
M  V30 1874 H 178.378 -4.00023 1.40562 0
M  V30 1875 C 176.837 -3.36846 0.0603281 0
M  V30 1876 O 177.367 -3.91656 -0.892663 0
M  V30 1877 N 175.573 -2.90595 -0.0177039 0
M  V30 1878 H 175.12 -2.46178 0.758572 0
M  V30 1879 H 175.078 -3.01886 -0.878201 0
M  V30 1880 N 178.85 -1.27639 -0.924453 0
M  V30 1881 C 180.261 -1.12834 -1.48746 0
M  V30 1882 C 180.612 0.285505 -1.94112 0
M  V30 1883 O 179.737 1.17874 -1.81479 0
M  V30 1884 C 180.332 -2.04217 -2.70334 0
M  V30 1885 C 178.891 -1.93509 -3.22848 0
M  V30 1886 C 178.038 -1.96583 -1.95577 0
M  V30 1887 H 180.989 -1.40484 -0.738233 0
M  V30 1888 H 181.01 -1.59989 -3.4523 0
M  V30 1889 H 180.522 -3.07111 -2.37285 0
M  V30 1890 H 178.623 -0.936131 -3.60649 0
M  V30 1891 H 178.736 -2.79917 -3.88823 0
M  V30 1892 H 177.1 -1.4085 -2.12211 0
M  V30 1893 H 177.883 -3.01137 -1.64837 0
M  V30 1894 N 180.328 1.1314 -1.09713 0
M  V30 1895 C 181.275 2.18642 -0.739196 0
M  V30 1896 C 182.245 1.63706 0.280978 0
M  V30 1897 O 183.43 1.90111 0.161946 0
M  V30 1898 C 180.57 3.44685 -0.169102 0
M  V30 1899 C 179.683 4.13711 -1.24367 0
M  V30 1900 C 178.818 5.27379 -0.636019 0
M  V30 1901 C 177.857 5.88259 -1.69169 0
M  V30 1902 N 176.994 6.93352 -1.10485 0
M  V30 1903 H 181.834 2.48607 -1.64312 0
M  V30 1904 H 179.371 1.22066 -0.820875 0
M  V30 1905 H 181.329 4.16815 0.179256 0
M  V30 1906 H 179.959 3.15161 0.698079 0
M  V30 1907 H 179.011 3.39835 -1.70927 0
M  V30 1908 H 180.323 4.55037 -2.04311 0
M  V30 1909 H 179.477 6.06238 -0.236677 0
M  V30 1910 H 178.216 4.8731 0.194928 0
M  V30 1911 H 177.221 5.08092 -2.10055 0
M  V30 1912 H 178.446 6.30399 -2.52536 0
M  V30 1913 H 176.392 6.55335 -0.295234 0
M  V30 1914 H 176.309 7.33236 -1.84121 0
M  V30 1915 H 177.577 7.76057 -0.73181 0
M  V30 1916 N 181.806 0.884767 1.30421 0
M  V30 1917 C 183.053 0.503105 1.96151 0
M  V30 1918 C 183.381 -0.947676 1.69851 0
M  V30 1919 O 182.636 -1.68467 0.995861 0
M  V30 1920 C 182.935 0.724318 3.49983 0
M  V30 1921 C 182.601 2.15015 3.96332 0
M  V30 1922 C 181.263 2.54005 4.08699 0
M  V30 1923 C 183.615 3.07936 4.20505 0
M  V30 1924 C 180.943 3.85128 4.42599 0
M  V30 1925 C 183.295 4.3859 4.55874 0
M  V30 1926 C 181.959 4.77474 4.66449 0
M  V30 1927 H 181.229 0.184099 0.717766 0
M  V30 1928 H 183.876 1.12058 1.55291 0
M  V30 1929 H 182.181 0.0238086 3.91793 0
M  V30 1930 H 183.878 0.408617 3.98913 0
M  V30 1931 H 180.468 1.8375 3.87213 0
M  V30 1932 H 184.652 2.79033 4.10431 0
M  V30 1933 H 179.908 4.14996 4.48986 0
M  V30 1934 H 184.082 5.10629 4.7353 0
M  V30 1935 H 181.709 5.79115 4.92473 0
M  V30 1936 N 183.284 -1.43765 0.645699 0
M  V30 1937 C 184.194 -2.34544 -0.0512957 0
M  V30 1938 C 185.21 -1.53455 -0.82022 0
M  V30 1939 O 186.386 -1.86133 -0.769176 0
M  V30 1940 C 183.451 -3.31636 -1.01087 0
M  V30 1941 C 182.512 -4.2863 -0.239712 0
M  V30 1942 C 181.745 -5.21084 -1.15358 0
M  V30 1943 O 181.968 -5.1779 -2.39269 0
M  V30 1944 O 180.902 -5.98593 -0.630038 0
M  V30 1945 H 184.728 -2.95624 0.695718 0
M  V30 1946 H 182.313 -1.43781 0.405882 0
M  V30 1947 H 184.195 -3.9136 -1.56254 0
M  V30 1948 H 182.87 -2.73069 -1.73824 0
M  V30 1949 H 181.777 -3.72408 0.355356 0
M  V30 1950 H 183.11 -4.90157 0.447936 0
M  V30 1951 N 184.763 -0.387143 -1.52771 0
M  V30 1952 C 186.009 0.196025 -2.0185 0
M  V30 1953 C 186.342 1.46641 -1.27319 0
M  V30 1954 O 185.617 1.90889 -0.373032 0
M  V30 1955 C 185.9 0.466136 -3.5707 0
M  V30 1956 C 185.753 -0.819385 -4.42274 0
M  V30 1957 C 187.072 1.25768 -4.21747 0
M  V30 1958 H 184.191 0.0697708 -0.73369 0
M  V30 1959 H 186.833 -0.516286 -1.82851 0
M  V30 1960 H 184.983 1.07293 -3.7339 0
M  V30 1961 H 186.655 -1.4563 -4.37709 0
M  V30 1962 H 184.898 -1.43517 -4.09372 0
M  V30 1963 H 185.569 -0.585065 -5.48891 0
M  V30 1964 H 188.045 0.744167 -4.09391 0
M  V30 1965 H 186.921 1.41541 -5.30337 0
M  V30 1966 H 187.182 2.27228 -3.79236 0
M  V30 1967 N 186.241 1.57166 -0.116904 0
M  V30 1968 C 187.489 1.94737 0.540533 0
M  V30 1969 C 187.81 1.00096 1.67349 0
M  V30 1970 O 187.08 0.0568854 1.95817 0
M  V30 1971 H 185.66 0.718981 0.202669 0
M  V30 1972 H 188.322 1.94017 -0.185353 0
M  V30 1973 H 187.418 2.97719 0.936483 0
M  V30 1974 N 187.719 -0.156864 1.56817 0
M  V30 1975 C 188.996 -0.899244 1.73704 0
M  V30 1976 C 189.376 -1.99771 0.682254 0
M  V30 1977 O 188.724 -2.26515 -0.300522 0
M  V30 1978 C 188.934 -1.45075 3.17418 0
M  V30 1979 C 190.282 -1.91802 3.7881 0
M  V30 1980 O 191.306 -1.54838 3.20786 0
M  V30 1981 O 190.165 -2.5994 4.80722 0
M  V30 1982 H 187.259 -0.424267 0.709878 0
M  V30 1983 H 189.805 -0.143561 1.69092 0
M  V30 1984 H 188.577 -0.660846 3.85679 0
M  V30 1985 H 188.2 -2.27021 3.26416 0
M  V30 1986 N 189.197 -1.51736 -0.425897 0
M  V30 1987 C 190.446 -1.64201 -1.17136 0
M  V30 1988 C 190.759 -0.369705 -1.92074 0
M  V30 1989 O 191.965 -0.373898 -2.68913 0
M  V30 1990 C 190.421 -2.90035 -2.13091 0
M  V30 1991 C 190.029 -4.24312 -1.43747 0
M  V30 1992 C 191.773 -3.1186 -2.87999 0
M  V30 1993 C 189.68 -5.41285 -2.38253 0
M  V30 1994 H 188.61 -0.611624 -0.440944 0
M  V30 1995 H 191.261 -1.78212 -0.437328 0
M  V30 1996 H 189.643 -2.69684 -2.89977 0
M  V30 1997 H 190.817 -4.55086 -0.723408 0
M  V30 1998 H 189.132 -4.08456 -0.809465 0
M  V30 1999 H 191.729 -3.96427 -3.58817 0
M  V30 2000 H 192.072 -2.25403 -3.49999 0
M  V30 2001 H 192.605 -3.32605 -2.18217 0
M  V30 2002 H 189.344 -6.30037 -1.80925 0
M  V30 2003 H 188.864 -5.14872 -3.0768 0
M  V30 2004 H 190.543 -5.73694 -2.99139 0
M  V30 2005 N 190.675 0.682077 -1.42076 0
M  V30 2006 C 191.608 1.80666 -1.3941 0
M  V30 2007 C 192.586 1.60518 -0.25939 0
M  V30 2008 O 193.77 1.83088 -0.448456 0
M  V30 2009 C 190.897 3.17556 -1.17796 0
M  V30 2010 C 189.943 3.56468 -2.34164 0
M  V30 2011 S 190.776 3.59729 -3.96681 0
M  V30 2012 C 191.932 4.99323 -3.77395 0
M  V30 2013 H 192.165 1.82652 -2.34575 0
M  V30 2014 H 189.698 0.852062 -1.2876 0
M  V30 2015 H 191.656 3.96575 -1.06012 0
M  V30 2016 H 190.317 3.13164 -0.242279 0
M  V30 2017 H 189.51 4.5595 -2.1477 0
M  V30 2018 H 189.112 2.84792 -2.42425 0
M  V30 2019 H 191.404 5.87202 -3.37935 0
M  V30 2020 H 192.347 5.23763 -4.76527 0
M  V30 2021 H 192.755 4.71498 -3.10403 0
M  V30 2022 N 192.153 1.28127 0.917671 0
M  V30 2023 C 193.083 1.14248 2.03641 0
M  V30 2024 C 194.064 0.0412748 1.7005 0
M  V30 2025 O 195.249 0.217566 1.92977 0
M  V30 2026 C 192.379 0.799431 3.37974 0
M  V30 2027 C 191.333 1.85497 3.85713 0
M  V30 2028 C 190.659 1.36565 5.16966 0
M  V30 2029 C 191.959 3.26085 4.08002 0
M  V30 2030 H 193.653 2.07835 2.15511 0
M  V30 2031 H 191.199 1.00064 1.03553 0
M  V30 2032 H 193.152 0.689114 4.15727 0
M  V30 2033 H 191.876 -0.172145 3.26146 0
M  V30 2034 H 190.535 1.95437 3.10161 0
M  V30 2035 H 190.183 0.383253 5.01538 0
M  V30 2036 H 189.883 2.07143 5.49878 0
M  V30 2037 H 191.407 1.26848 5.97279 0
M  V30 2038 H 192.821 3.19089 4.76293 0
M  V30 2039 H 191.218 3.94462 4.52238 0
M  V30 2040 H 192.288 3.70394 3.12948 0
M  V30 2041 N 193.631 -1.12557 1.10312 0
M  V30 2042 C 194.88 -1.83395 0.839588 0
M  V30 2043 C 195.193 -1.84939 -0.636929 0
M  V30 2044 O 196.399 -2.51761 -1.01631 0
M  V30 2045 C 194.855 -3.29303 1.45215 0
M  V30 2046 C 194.463 -3.36122 2.96186 0
M  V30 2047 C 196.207 -4.05121 1.26796 0
M  V30 2048 C 194.114 -4.76357 3.50483 0
M  V30 2049 H 193.044 -0.687133 0.310425 0
M  V30 2050 H 195.695 -1.26746 1.32694 0
M  V30 2051 H 194.077 -3.85812 0.892469 0
M  V30 2052 H 195.251 -2.89559 3.58458 0
M  V30 2053 H 193.566 -2.73776 3.13745 0
M  V30 2054 H 196.163 -5.08668 1.64806 0
M  V30 2055 H 196.506 -4.15773 0.209409 0
M  V30 2056 H 197.039 -3.54967 1.79563 0
M  V30 2057 H 193.778 -4.70899 4.55998 0
M  V30 2058 H 193.298 -5.23377 2.92978 0
M  V30 2059 H 194.977 -5.45294 3.48228 0
M  V30 2060 N 195.109 -0.891671 -1.2995 0
M  V30 2061 C 196.525 -0.58662 -1.48428 0
M  V30 2062 C 196.725 0.873951 -1.81561 0
M  V30 2063 O 195.781 1.65471 -1.90724 0
M  V30 2064 C 197.094 -1.50553 -2.60296 0
M  V30 2065 C 198.642 -1.50988 -2.74175 0
M  V30 2066 C 199.117 -2.41488 -3.89163 0
M  V30 2067 N 200.608 -2.39489 -3.96483 0
M  V30 2068 C 201.343 -3.06223 -4.84784 0
M  V30 2069 N 200.839 -3.82206 -5.77833 0
M  V30 2070 N 202.632 -2.95421 -4.78208 0
M  V30 2071 H 194.783 -1.83644 -1.06718 0
M  V30 2072 H 197.046 -0.786455 -0.529332 0
M  V30 2073 H 196.752 -2.54581 -2.42654 0
M  V30 2074 H 196.626 -1.22008 -3.56923 0
M  V30 2075 H 199.013 -0.47708 -2.91218 0
M  V30 2076 H 199.094 -1.83567 -1.78148 0
M  V30 2077 H 198.738 -3.44857 -3.72876 0
M  V30 2078 H 198.668 -2.06222 -4.84541 0
M  V30 2079 H 201.159 -1.84278 -3.29924 0
M  V30 2080 H 201.472 -4.302 -6.41988 0
M  V30 2081 H 199.817 -3.86313 -5.77743 0
M  V30 2082 H 203.008 -2.35581 -4.04499 0
M  V30 2083 H 203.181 -3.47704 -5.46814 0
M  V30 2084 N 196.587 1.43421 -0.653314 0
M  V30 2085 C 197.864 1.95361 -0.0966581 0
M  V30 2086 C 198.244 1.59461 1.38331 0
M  V30 2087 O 197.592 0.879777 2.10884 0
M  V30 2088 C 197.802 3.47311 -0.342988 0
M  V30 2089 C 199.15 4.23875 -0.24798 0
M  V30 2090 O 200.174 3.55133 -0.275553 0
M  V30 2091 O 199.033 5.4623 -0.171771 0
M  V30 2092 H 196.127 0.826945 0.00956291 0
M  V30 2093 H 198.673 1.5336 -0.726558 0
M  V30 2094 H 197.445 3.66569 -1.36906 0
M  V30 2095 H 197.068 3.9631 0.319975 0
M  V30 2096 N 198.065 0.39524 1.52563 0
M  V30 2097 C 199.015 -0.4541 2.23432 0
M  V30 2098 C 199.999 -1.02482 1.24042 0
M  V30 2099 O 201.191 -0.949938 1.49349 0
M  V30 2100 C 198.32 -1.57769 3.049 0
M  V30 2101 C 197.406 -1.01842 4.1169 0
M  V30 2102 N 197.797 -0.184613 5.05463 0
M  V30 2103 C 196.095 -1.29033 4.26927 0
M  V30 2104 C 196.796 0.125013 5.81566 0
M  V30 2105 N 195.772 -0.480498 5.41472 0
M  V30 2106 H 199.574 0.189413 2.93289 0
M  V30 2107 H 197.088 0.204877 1.61102 0
M  V30 2108 H 199.085 -2.19862 3.54212 0
M  V30 2109 H 197.745 -2.22397 2.36579 0
M  V30 2110 H 198.756 0.178602 5.17592 0
M  V30 2111 H 195.433 -1.93721 3.69836 0
M  V30 2112 H 196.823 0.800962 6.67109 0
M  V30 2113 N 199.544 -1.57102 0.125237 0
M  V30 2114 C 200.793 -1.94582 -0.531095 0
M  V30 2115 C 201.106 -1.01126 -1.6743 0
M  V30 2116 O 202.312 -1.28097 -2.39381 0
M  V30 2117 C 200.768 -3.45839 -0.996164 0
M  V30 2118 C 200.376 -4.47842 0.118926 0
M  V30 2119 C 202.12 -3.92227 -1.62352 0
M  V30 2120 C 200.027 -5.90284 -0.363192 0
M  V30 2121 H 198.957 -0.726391 -0.20217 0
M  V30 2122 H 201.608 -1.82339 0.206092 0
M  V30 2123 H 199.99 -3.53338 -1.78796 0
M  V30 2124 H 201.164 -4.52018 0.895358 0
M  V30 2125 H 199.479 -4.11243 0.653324 0
M  V30 2126 H 202.076 -4.96069 -1.99548 0
M  V30 2127 H 202.419 -3.32552 -2.50429 0
M  V30 2128 H 202.952 -3.87554 -0.897019 0
M  V30 2129 H 199.691 -6.53728 0.481679 0
M  V30 2130 H 199.211 -5.89515 -1.10597 0
M  V30 2131 H 200.89 -6.41752 -0.822377 0
M  V30 2132 N 201.022 0.148545 -1.56898 0
M  V30 2133 C 201.97 1.20265 -1.99096 0
M  V30 2134 C 202.964 1.44559 -0.883123 0
M  V30 2135 O 204.17 1.4487 -1.0683 0
M  V30 2136 H 200.545 0.404786 -0.63376 0
M  V30 2137 H 202.516 0.82004 -2.86911 0
M  V30 2138 C 201.265 2.52886 -2.3863 0
M  V30 2139 H 200.588 2.35021 -3.23427 0
M  V30 2140 H 202.028 3.25274 -2.7198 0
M  V30 2141 C 200.487 3.13315 -1.23837 0
M  V30 2142 O 201.017 3.98077 -0.538268 0
M  V30 2143 N 199.223 2.72742 -1.00301 0
M  V30 2144 H 198.77 2.03912 -1.5741 0
M  V30 2145 H 198.728 3.13507 -0.236838 0
M  V30 2146 N 202.5 1.5196 0.417844 0
M  V30 2147 C 203.43 1.77634 1.51554 0
M  V30 2148 C 204.411 0.626918 1.58126 0
M  V30 2149 O 205.596 0.871632 1.7354 0
M  V30 2150 C 202.726 1.91911 2.8946 0
M  V30 2151 C 201.68 3.07463 2.97743 0
M  V30 2152 C 201.006 3.06951 4.37819 0
M  V30 2153 C 202.306 4.47082 2.70027 0
M  V30 2154 H 204 2.6955 1.3032 0
M  V30 2155 H 201.546 1.29706 0.625492 0
M  V30 2156 H 203.499 2.08455 3.6623 0
M  V30 2157 H 202.223 0.966598 3.11969 0
M  V30 2158 H 200.882 2.90656 2.23416 0
M  V30 2159 H 200.53 2.09438 4.57323 0
M  V30 2160 H 200.23 3.84556 4.44286 0
M  V30 2161 H 201.754 3.25613 5.16535 0
M  V30 2162 H 203.168 4.6414 3.36522 0
M  V30 2163 H 201.565 5.2654 2.87881 0
M  V30 2164 H 202.635 4.55777 1.65514 0
M  V30 2165 N 203.978 -0.674533 1.42435 0
M  V30 2166 C 205.389 -1.25514 1.38214 0
M  V30 2167 C 205.74 -1.96055 0.0755464 0
M  V30 2168 O 204.865 -2.00028 -0.8257 0
M  V30 2169 C 205.46 -2.28269 2.50357 0
M  V30 2170 C 204.019 -2.81856 2.49467 0
M  V30 2171 C 203.166 -1.56182 2.29134 0
M  V30 2172 H 206.117 -0.467902 1.51646 0
M  V30 2173 H 206.138 -3.10009 2.20624 0
M  V30 2174 H 205.65 -1.769 3.45439 0
M  V30 2175 H 203.751 -3.37346 1.58204 0
M  V30 2176 H 203.864 -3.30854 3.46515 0
M  V30 2177 H 202.228 -1.82761 1.774 0
M  V30 2178 H 203.011 -1.06778 3.26272 0
M  V30 2179 N 205.456 -1.28612 -0.910864 0
M  V30 2180 C 206.704 -1.15705 -1.65701 0
M  V30 2181 C 207.025 0.29416 -1.92769 0
M  V30 2182 O 206.295 1.20331 -1.54588 0
M  V30 2183 H 204.875 -0.425216 -0.614167 0
M  V30 2184 H 207.537 -1.61381 -1.0928 0
M  V30 2185 H 206.633 -1.6988 -2.61815 0
M  V30 2186 N 206.934 1.1197 -1.10907 0
M  V30 2187 C 208.181 1.83588 -0.854507 0
M  V30 2188 C 208.509 1.84357 0.6199 0
M  V30 2189 O 207.764 1.28809 1.47332 0
M  V30 2190 C 208.063 3.30749 -1.35425 0
M  V30 2191 C 207.729 3.50146 -2.84093 0
M  V30 2192 C 206.391 3.55148 -3.2469 0
M  V30 2193 C 208.743 3.56857 -3.79872 0
M  V30 2194 C 206.071 3.6441 -4.59806 0
M  V30 2195 C 208.423 3.6765 -5.14797 0
M  V30 2196 C 207.087 3.7091 -5.54961 0
M  V30 2197 H 206.357 0.671795 -0.312686 0
M  V30 2198 H 209.004 1.32091 -1.38652 0
M  V30 2199 H 207.309 3.84703 -0.742361 0
M  V30 2200 H 209.006 3.8464 -1.1337 0
M  V30 2201 H 205.596 3.46919 -2.51685 0
M  V30 2202 H 209.78 3.52258 -3.49611 0
M  V30 2203 H 205.036 3.65208 -4.9034 0
M  V30 2204 H 209.21 3.71786 -5.88853 0
M  V30 2205 H 206.837 3.7784 -6.59652 0
M  V30 2206 N 208.412 0.89855 1.29475 0
M  V30 2207 C 209.637 0.538561 2.00285 0
M  V30 2208 C 210.062 -0.869135 1.66816 0
M  V30 2209 O 209.42 -1.57831 0.892145 0
M  V30 2210 C 209.468 0.736475 3.52999 0
M  V30 2211 O 208.572 -0.211537 4.11857 0
M  V30 2212 H 207.913 0.210563 0.62973 0
M  V30 2213 H 210.443 1.20982 1.64998 0
M  V30 2214 H 210.453 0.640685 4.02938 0
M  V30 2215 H 209.128 1.76276 3.76696 0
M  V30 2216 H 207.705 -0.0682991 3.72837 0
M  V30 2217 N 209.89 -1.43072 0.660911 0
M  V30 2218 C 211.138 -2.01323 0.177094 0
M  V30 2219 C 211.459 -1.5245 -1.2159 0
M  V30 2220 O 210.729 -0.740322 -1.81373 0
M  V30 2221 H 209.309 -0.744382 0.0624804 0
M  V30 2222 H 211.971 -1.75179 0.854305 0
M  V30 2223 H 211.067 -3.11649 0.167641 0
M  V30 2224 N 211.368 -0.403325 -1.52352 0
M  V30 2225 C 212.3 0.4603 -2.2453 0
M  V30 2226 C 213.313 1.01505 -1.27282 0
M  V30 2227 O 214.502 0.914982 -1.53266 0
M  V30 2228 C 211.602 1.65208 -2.95905 0
M  V30 2229 C 210.775 1.22224 -4.19976 0
M  V30 2230 C 209.834 2.28028 -4.74226 0
M  V30 2231 O 208.86 1.88857 -5.36956 0
M  V30 2232 N 210.062 3.6012 -4.55295 0
M  V30 2233 H 212.827 -0.158156 -2.99282 0
M  V30 2234 H 210.388 -0.230402 -1.60252 0
M  V30 2235 H 212.38 2.35541 -3.29093 0
M  V30 2236 H 210.95 2.17658 -2.24374 0
M  V30 2237 H 210.17 0.34725 -3.92668 0
M  V30 2238 H 211.458 0.911924 -5.00561 0
M  V30 2239 H 210.856 3.94698 -4.05253 0
M  V30 2240 H 209.413 4.26447 -4.92936 0
M  V30 2241 N 212.846 1.57033 -0.133567 0
M  V30 2242 C 213.794 2.17348 0.828412 0
M  V30 2243 C 214.788 1.12671 1.26498 0
M  V30 2244 O 215.994 1.30947 1.23502 0
M  V30 2245 H 212.369 0.695775 0.285309 0
M  V30 2246 H 214.34 2.96935 0.295372 0
M  V30 2247 C 213.089 2.79893 2.06289 0
M  V30 2248 H 212.412 3.60147 1.73592 0
M  V30 2249 H 213.852 3.25615 2.71572 0
M  V30 2250 C 212.311 1.77713 2.86216 0
M  V30 2251 O 212.841 1.23937 3.82103 0
M  V30 2252 N 211.047 1.47321 2.50489 0
M  V30 2253 H 210.594 1.91243 1.7258 0
M  V30 2254 H 210.552 0.79199 3.04261 0
M  V30 2255 N 214.325 -0.140222 1.56975 0
M  V30 2256 C 215.736 -0.699596 1.73097 0
M  V30 2257 C 216.087 -1.8134 0.749022 0
M  V30 2258 O 215.212 -2.16241 -0.0828503 0
M  V30 2259 C 215.807 -1.27582 3.1386 0
M  V30 2260 C 214.366 -1.78169 3.31561 0
M  V30 2261 C 213.513 -0.672855 2.69013 0
M  V30 2262 H 216.464 0.0855115 1.58469 0
M  V30 2263 H 216.485 -2.14561 3.14235 0
M  V30 2264 H 215.997 -0.464955 3.85305 0
M  V30 2265 H 214.098 -2.61801 2.65124 0
M  V30 2266 H 214.211 -1.90574 4.39566 0
M  V30 2267 H 212.575 -1.10118 2.29665 0
M  V30 2268 H 213.358 0.126679 3.43066 0
M  V30 2269 N 215.803 -1.52179 -0.40978 0
M  V30 2270 C 216.733 -1.78435 -1.5061 0
M  V30 2271 C 217.714 -0.635295 -1.57791 0
M  V30 2272 O 218.899 -0.880823 -1.73076 0
M  V30 2273 C 216.029 -1.93444 -2.88439 0
M  V30 2274 C 214.983 -3.09038 -2.96108 0
M  V30 2275 C 214.309 -3.09268 -4.36185 0
M  V30 2276 C 215.609 -4.48508 -2.67652 0
M  V30 2277 H 217.303 -2.70237 -1.28889 0
M  V30 2278 H 214.849 -1.30036 -0.618605 0
M  V30 2279 H 216.802 -2.10394 -3.65119 0
M  V30 2280 H 215.526 -0.983129 -3.11452 0
M  V30 2281 H 214.185 -2.91837 -2.21872 0
M  V30 2282 H 213.833 -2.11861 -4.56206 0
M  V30 2283 H 213.533 -3.86907 -4.42241 0
M  V30 2284 H 215.057 -3.28348 -5.14801 0
M  V30 2285 H 216.471 -4.65918 -3.34056 0
M  V30 2286 H 214.868 -5.28059 -2.85085 0
M  V30 2287 H 215.938 -4.56649 -1.63095 0
M  V30 2288 N 217.281 0.66697 -1.42791 0
M  V30 2289 C 218.697 0.981027 -1.25889 0
M  V30 2290 C 218.897 2.00793 -0.168695 0
M  V30 2291 O 217.953 2.48321 0.45747 0
M  V30 2292 C 219.266 1.47838 -2.61848 0
M  V30 2293 C 220.814 1.59575 -2.69267 0
M  V30 2294 C 221.289 2.12704 -4.05612 0
M  V30 2295 N 222.78 2.20026 -4.07606 0
M  V30 2296 C 223.515 2.62227 -5.09926 0
M  V30 2297 N 223.011 3.03824 -6.22626 0
M  V30 2298 N 224.804 2.62045 -4.97281 0
M  V30 2299 H 216.955 -0.0127891 -2.12396 0
M  V30 2300 H 219.218 0.0568258 -0.946295 0
M  V30 2301 H 218.924 0.798299 -3.4252 0
M  V30 2302 H 218.798 2.45579 -2.86305 0
M  V30 2303 H 221.185 2.26687 -1.88936 0
M  V30 2304 H 221.266 0.60302 -2.48591 0
M  V30 2305 H 220.91 1.46198 -4.86404 0
M  V30 2306 H 220.84 3.12782 -4.23645 0
M  V30 2307 H 223.331 1.90708 -3.2625 0
M  V30 2308 H 223.644 3.34734 -6.96544 0
M  V30 2309 H 221.989 3.01662 -6.26119 0
M  V30 2310 H 225.18 2.28916 -4.08308 0
M  V30 2311 H 225.353 2.94613 -5.77154 0
M  V30 2312 N 218.759 1.29093 0.90403 0
M  V30 2313 C 220.007 1.16583 1.65085 0
M  V30 2314 C 220.328 -0.283933 1.92922 0
M  V30 2315 O 219.598 -1.19509 1.55224 0
M  V30 2316 H 218.178 0.428467 0.611903 0
M  V30 2317 H 220.84 1.61959 1.08422 0
M  V30 2318 H 219.936 1.71266 2.6091 0
M  V30 2319 N 220.237 -1.11381 1.11499 0
M  V30 2320 C 221.648 -1.6465 0.880191 0
M  V30 2321 C 221.999 -1.87199 -0.587434 0
M  V30 2322 O 221.124 -1.60667 -1.44966 0
M  V30 2323 C 221.719 -2.99105 1.59128 0
M  V30 2324 C 220.278 -3.49279 1.40289 0
M  V30 2325 C 219.425 -2.24077 1.63354 0
M  V30 2326 H 222.376 -0.950123 1.27116 0
M  V30 2327 H 222.397 -3.66107 1.03664 0
M  V30 2328 H 221.909 -2.82661 2.65941 0
M  V30 2329 H 220.01 -3.70887 0.356888 0
M  V30 2330 H 220.123 -4.2803 2.15238 0
M  V30 2331 H 218.487 -2.31733 1.05698 0
M  V30 2332 H 219.27 -2.10175 2.71443 0
M  V30 2333 N 221.715 -0.905404 -1.28997 0
M  V30 2334 C 222.663 -0.377431 -2.29517 0
M  V30 2335 C 223.657 0.526461 -1.61012 0
M  V30 2336 O 224.863 0.40863 -1.753 0
M  V30 2337 H 221.238 -0.103437 -0.744852 0
M  V30 2338 H 223.209 -1.23848 -2.71485 0
M  V30 2339 C 221.958 0.374833 -3.45674 0
M  V30 2340 H 221.281 -0.311474 -3.98585 0
M  V30 2341 H 222.721 0.70903 -4.1803 0
M  V30 2342 C 221.18 1.57963 -2.97572 0
M  V30 2343 O 221.71 2.67886 -2.99333 0
M  V30 2344 N 219.916 1.42375 -2.53333 0
M  V30 2345 H 219.463 0.529466 -2.521 0
M  V30 2346 H 219.421 2.23117 -2.21509 0
M  V30 2347 N 223.193 1.4272 -0.668489 0
M  V30 2348 C 224.47 1.95248 -0.117373 0
M  V30 2349 C 224.85 1.60919 1.36632 0
M  V30 2350 O 224.198 0.902095 2.09939 0
M  V30 2351 C 224.408 3.46927 -0.379806 0
M  V30 2352 C 225.756 4.23588 -0.292923 0
M  V30 2353 O 226.78 3.5482 -0.313204 0
M  V30 2354 O 225.639 5.46017 -0.229697 0
M  V30 2355 H 222.733 0.827 0.00079152 0
M  V30 2356 H 225.279 1.52581 -0.742783 0
M  V30 2357 H 224.051 3.65096 -1.40786 0
M  V30 2358 H 223.674 3.96627 0.277923 0
M  V30 2359 N 224.671 0.411399 1.52136 0
M  V30 2360 C 225.581 -0.419774 2.30814 0
M  V30 2361 C 226.597 -1.0515 1.38634 0
M  V30 2362 O 227.773 -1.05252 1.71709 0
M  V30 2363 C 224.838 -1.52019 3.11594 0
M  V30 2364 C 223.899 -0.91129 4.19516 0
M  V30 2365 C 223.132 -1.95927 4.96436 0
M  V30 2366 O 223.355 -3.17775 4.73683 0
M  V30 2367 O 222.289 -1.56423 5.81219 0
M  V30 2368 H 226.115 0.221805 3.02889 0
M  V30 2369 H 223.7 0.174547 1.48377 0
M  V30 2370 H 225.582 -2.15898 3.61892 0
M  V30 2371 H 224.257 -2.14633 2.42311 0
M  V30 2372 H 223.164 -0.235157 3.7336 0
M  V30 2373 H 224.497 -0.32904 4.91099 0
M  V30 2374 N 226.149 -1.5696 0.141893 0
M  V30 2375 C 227.565 -1.58151 -0.21456 0
M  V30 2376 C 227.765 -1.1559 -1.65049 0
M  V30 2377 O 226.821 -0.853832 -2.37626 0
M  V30 2378 C 228.134 -3.00674 0.0395576 0
M  V30 2379 C 229.682 -3.1299 -0.0245529 0
M  V30 2380 C 230.157 -4.57554 0.202167 0
M  V30 2381 N 231.648 -4.62961 0.148919 0
M  V30 2382 C 232.383 -5.7262 0.298924 0
M  V30 2383 N 231.879 -6.90947 0.50637 0
M  V30 2384 N 233.672 -5.61601 0.236886 0
M  V30 2385 H 225.823 -1.8292 1.07953 0
M  V30 2386 H 228.086 -0.846425 0.42693 0
M  V30 2387 H 227.792 -3.36183 1.03315 0
M  V30 2388 H 227.666 -3.70981 -0.682143 0
M  V30 2389 H 230.053 -2.77326 -1.00869 0
M  V30 2390 H 230.134 -2.4518 0.729396 0
M  V30 2391 H 229.778 -4.93922 1.18338 0
M  V30 2392 H 229.708 -5.23484 -0.572044 0
M  V30 2393 H 232.199 -3.77899 -0.00697015 0
M  V30 2394 H 232.512 -7.7038 0.611076 0
M  V30 2395 H 230.857 -6.92878 0.542628 0
M  V30 2396 H 234.048 -4.68039 0.0756209 0
M  V30 2397 H 234.221 -6.47015 0.357227 0
M  V30 2398 N 227.627 0.131896 -1.57047 0
M  V30 2399 C 228.874 0.841932 -1.84168 0
M  V30 2400 C 229.202 1.8048 -0.725066 0
M  V30 2401 O 228.457 1.93618 0.284692 0
M  V30 2402 C 228.756 1.63703 -3.17704 0
M  V30 2403 C 228.422 0.81961 -4.43388 0
M  V30 2404 C 227.084 0.594148 -4.77518 0
M  V30 2405 C 229.436 0.248977 -5.20605 0
M  V30 2406 C 226.764 -0.212409 -5.86315 0
M  V30 2407 C 229.116 -0.544701 -6.30251 0
M  V30 2408 C 227.78 -0.780599 -6.6292 0
M  V30 2409 H 227.05 0.308085 -0.673917 0
M  V30 2410 H 229.697 0.104867 -1.91213 0
M  V30 2411 H 228.002 2.44464 -3.06177 0
M  V30 2412 H 229.699 2.19015 -3.35907 0
M  V30 2413 H 226.289 1.00542 -4.16641 0
M  V30 2414 H 230.473 0.410408 -4.946 0
M  V30 2415 H 225.729 -0.404524 -6.1006 0
M  V30 2416 H 229.903 -0.993922 -6.89271 0
M  V30 2417 H 227.53 -1.40742 -7.47058 0
M  V30 2418 N 229.106 1.52395 0.401703 0
M  V30 2419 C 230.354 1.66488 1.14569 0
M  V30 2420 C 230.675 0.400897 1.90835 0
M  V30 2421 O 229.945 -0.584415 1.8698 0
M  V30 2422 H 228.525 0.613672 0.425929 0
M  V30 2423 H 231.187 1.89464 0.457093 0
M  V30 2424 H 230.283 2.50942 1.85566 0
M  V30 2425 N 230.584 -0.659388 1.43143 0
M  V30 2426 C 231.861 -1.41627 1.34912 0
M  V30 2427 C 232.241 -2.11099 -0.00607785 0
M  V30 2428 O 231.589 -2.04353 -1.02236 0
M  V30 2429 C 231.799 -2.40604 2.52805 0
M  V30 2430 C 233.147 -3.04789 2.95616 0
M  V30 2431 O 234.171 -2.50932 2.52807 0
M  V30 2432 O 233.03 -4.02421 3.69756 0
M  V30 2433 H 230.124 -0.63246 0.532844 0
M  V30 2434 H 232.67 -0.686814 1.5518 0
M  V30 2435 H 231.442 -1.88174 3.43083 0
M  V30 2436 H 231.065 -3.21009 2.34604 0
M  V30 2437 N 232.062 -1.29571 -0.897171 0
M  V30 2438 C 233.478 -1.07637 -1.17841 0
M  V30 2439 C 233.678 0.170713 -2.00776 0
M  V30 2440 O 232.734 0.867768 -2.3712 0
M  V30 2441 C 234.047 -2.3332 -1.8969 0
M  V30 2442 C 235.595 -2.38664 -2.02505 0
M  V30 2443 C 236.07 -3.64157 -2.77765 0
M  V30 2444 N 237.561 -3.64894 -2.85318 0
M  V30 2445 C 238.296 -4.58679 -3.44094 0
M  V30 2446 N 237.792 -5.62799 -4.04017 0
M  V30 2447 N 239.585 -4.46245 -3.41793 0
M  V30 2448 H 231.736 -2.09598 -0.343883 0
M  V30 2449 H 233.999 -0.923333 -0.214848 0
M  V30 2450 H 233.705 -3.24262 -1.36187 0
M  V30 2451 H 233.579 -2.41025 -2.9015 0
M  V30 2452 H 235.966 -1.48208 -2.55183 0
M  V30 2453 H 236.047 -2.34943 -1.01171 0
M  V30 2454 H 235.691 -4.54965 -2.25763 0
M  V30 2455 H 235.621 -3.65137 -3.7945 0
M  V30 2456 H 238.112 -2.89613 -2.42761 0
M  V30 2457 H 238.425 -6.3048 -4.46895 0
M  V30 2458 H 236.77 -5.66605 -4.02472 0
M  V30 2459 H 239.961 -3.64094 -2.94199 0
M  V30 2460 H 240.134 -5.19518 -3.87304 0
M  V30 2461 N 233.54 1.10788 -1.12088 0
M  V30 2462 C 234.787 1.82671 -0.873931 0
M  V30 2463 C 235.115 1.85004 0.600311 0
M  V30 2464 O 234.37 1.30365 1.45957 0
M  V30 2465 C 234.669 3.29294 -1.38926 0
M  V30 2466 C 234.335 3.47113 -2.87791 0
M  V30 2467 C 232.997 3.51684 -3.28439 0
M  V30 2468 C 235.349 3.52808 -3.83635 0
M  V30 2469 C 232.677 3.59513 -4.63646 0
M  V30 2470 C 235.029 3.62169 -5.18668 0
M  V30 2471 C 233.693 3.65003 -5.58864 0
M  V30 2472 H 232.963 0.668441 -0.319794 0
M  V30 2473 H 235.61 1.30613 -1.40045 0
M  V30 2474 H 233.915 3.83894 -0.783122 0
M  V30 2475 H 235.612 3.83416 -1.17443 0
M  V30 2476 H 232.202 3.4423 -2.5535 0
M  V30 2477 H 236.386 3.4853 -3.53328 0
M  V30 2478 H 231.642 3.59987 -4.94185 0
M  V30 2479 H 235.816 3.6552 -5.92763 0
M  V30 2480 H 233.443 3.70822 -6.63623 0
M  V30 2481 N 235.018 0.912232 1.28515 0
M  V30 2482 C 236.429 0.591352 1.77087 0
M  V30 2483 C 236.78 -0.8933 1.74684 0
M  V30 2484 O 235.905 -1.69876 1.34056 0
M  V30 2485 C 236.5 1.06668 3.2157 0
M  V30 2486 C 235.059 0.79675 3.67871 0
M  V30 2487 C 234.206 1.23427 2.48316 0
M  V30 2488 H 237.157 1.09365 1.15 0
M  V30 2489 H 237.178 0.407455 3.78312 0
M  V30 2490 H 236.69 2.14726 3.23287 0
M  V30 2491 H 234.791 -0.270679 3.71616 0
M  V30 2492 H 234.904 1.40343 4.58084 0
M  V30 2493 H 233.268 0.653036 2.46186 0
M  V30 2494 H 234.051 2.32316 2.52753 0
M  V30 2495 N 236.496 -1.42363 0.676048 0
M  V30 2496 C 237.459 -2.29199 0.00766941 0
M  V30 2497 C 238.459 -1.43389 -0.727745 0
M  V30 2498 O 239.649 -1.64764 -0.56556 0
M  V30 2499 C 236.781 -3.2591 -0.999785 0
M  V30 2500 H 237.974 -2.89794 0.771988 0
M  V30 2501 H 235.527 -1.50024 0.438468 0
M  V30 2502 H 236.262 -2.70256 -1.79255 0
M  V30 2503 H 236.047 -3.89202 -0.475829 0
M  V30 2504 H 237.537 -3.91028 -1.46583 0
M  V30 2505 N 237.974 -0.419461 -1.51915 0
M  V30 2506 C 238.907 0.445751 -2.23804 0
M  V30 2507 C 239.885 1.03951 -1.25031 0
M  V30 2508 O 241.069 1.08541 -1.54114 0
M  V30 2509 C 238.196 1.61964 -2.97465 0
M  V30 2510 C 237.242 1.14828 -4.10751 0
M  V30 2511 S 238.075 0.104938 -5.35397 0
M  V30 2512 C 239.231 1.28391 -6.1259 0
M  V30 2513 H 239.464 -0.164627 -2.96844 0
M  V30 2514 H 236.997 -0.203833 -1.53049 0
M  V30 2515 H 238.955 2.29271 -3.40507 0
M  V30 2516 H 237.616 2.20139 -2.24048 0
M  V30 2517 H 236.809 2.02561 -4.61503 0
M  V30 2518 H 236.411 0.553712 -3.69878 0
M  V30 2519 H 238.703 2.20563 -6.40592 0
M  V30 2520 H 239.646 0.816724 -7.03374 0
M  V30 2521 H 240.054 1.51439 -5.43807 0
M  V30 2522 N 239.452 1.56882 -0.150215 0
M  V30 2523 C 240.677 2.01027 0.510184 0
M  V30 2524 C 241.102 1.02966 1.57415 0
M  V30 2525 O 240.46 0.00590158 1.81299 0
M  V30 2526 C 240.508 3.43899 1.08472 0
M  V30 2527 O 239.612 3.4885 2.19948 0
M  V30 2528 H 238.953 0.652233 0.124451 0
M  V30 2529 H 241.483 2.03093 -0.247894 0
M  V30 2530 H 241.493 3.82766 1.41259 0
M  V30 2531 H 240.168 4.14776 0.305582 0
M  V30 2532 H 238.745 3.21827 1.88366 0
M  V30 2533 N 240.93 -0.123565 1.57115 0
M  V30 2534 C 242.207 -0.862196 1.75572 0
M  V30 2535 C 242.587 -1.98279 0.724475 0
M  V30 2536 O 241.935 -2.27102 -0.252407 0
M  V30 2537 C 242.145 -1.38309 3.20424 0
M  V30 2538 C 243.493 -1.83724 3.82793 0
M  V30 2539 O 244.517 -1.47999 3.23998 0
M  V30 2540 O 243.376 -2.49685 4.86127 0
M  V30 2541 H 240.47 -0.409113 0.718718 0
M  V30 2542 H 243.016 -0.107661 1.69358 0
M  V30 2543 H 241.788 -0.578889 3.86994 0
M  V30 2544 H 241.411 -2.20046 3.31158 0
M  V30 2545 N 242.408 -1.52605 -0.393616 0
M  V30 2546 C 243.371 -1.76415 -1.46323 0
M  V30 2547 C 244.371 -0.634126 -1.47768 0
M  V30 2548 O 245.561 -0.902142 -1.4902 0
M  V30 2549 C 242.693 -1.8607 -2.85641 0
M  V30 2550 H 243.886 -2.71916 -1.26498 0
M  V30 2551 H 241.439 -1.43257 -0.625073 0
M  V30 2552 H 242.174 -0.925378 -3.10817 0
M  V30 2553 H 241.959 -2.68235 -2.85993 0
M  V30 2554 H 243.449 -2.06179 -3.63153 0
M  V30 2555 N 243.887 0.651787 -1.4349 0
M  V30 2556 C 245.117 1.43728 -1.48411 0
M  V30 2557 C 245.525 1.8893 -0.10103 0
M  V30 2558 O 244.868 1.60182 0.899307 0
M  V30 2559 C 244.93 2.70411 -2.36893 0
M  V30 2560 C 244.594 2.4714 -3.8441 0
M  V30 2561 C 245.591 2.10271 -4.75481 0
M  V30 2562 C 243.276 2.6142 -4.28912 0
M  V30 2563 C 245.27 1.87982 -6.0905 0
M  V30 2564 C 242.957 2.38746 -5.62533 0
M  V30 2565 C 243.955 2.02083 -6.5242 0
M  V30 2566 O 243.643 1.79647 -7.8357 0
M  V30 2567 H 243.375 0.447962 -0.506267 0
M  V30 2568 H 245.929 0.80624 -1.88915 0
M  V30 2569 H 244.159 3.36079 -1.91278 0
M  V30 2570 H 245.848 3.32364 -2.33 0
M  V30 2571 H 246.614 1.98814 -4.42378 0
M  V30 2572 H 242.493 2.88931 -3.59222 0
M  V30 2573 H 246.037 1.5929 -6.7917 0
M  V30 2574 H 241.934 2.49806 -5.95203 0
M  V30 2575 H 242.702 1.9406 -7.95162 0
M  V30 2576 N 245.365 1.30045 0.890287 0
M  V30 2577 C 246.642 1.09227 1.62262 0
M  V30 2578 C 247.022 -0.360305 2.08002 0
M  V30 2579 O 246.37 -1.35084 1.84295 0
M  V30 2580 C 246.58 2.08835 2.79623 0
M  V30 2581 C 247.928 2.40266 3.50082 0
M  V30 2582 O 248.952 2.07104 2.89804 0
M  V30 2583 O 247.811 2.96967 4.58773 0
M  V30 2584 H 244.905 0.419132 0.712922 0
M  V30 2585 H 247.451 1.41451 0.937529 0
M  V30 2586 H 246.223 3.06633 2.43089 0
M  V30 2587 H 245.846 1.77397 3.55832 0
M  V30 2588 N 246.843 -1.10192 1.12674 0
M  V30 2589 C 248.259 -1.34235 0.863317 0
M  V30 2590 C 248.459 -1.95062 -0.505277 0
M  V30 2591 O 247.515 -2.19192 -1.25345 0
M  V30 2592 C 248.828 -2.2616 1.98172 0
M  V30 2593 C 250.376 -2.3969 2.0129 0
M  V30 2594 C 250.851 -3.34946 3.1237 0
M  V30 2595 N 252.342 -3.42515 3.11829 0
M  V30 2596 C 253.077 -4.16199 3.94419 0
M  V30 2597 N 252.573 -4.92747 4.87004 0
M  V30 2598 N 254.366 -4.11843 3.82547 0
M  V30 2599 H 246.517 -0.690798 2.00853 0
M  V30 2600 H 248.78 -0.366774 0.874174 0
M  V30 2601 H 248.486 -1.8868 2.96804 0
M  V30 2602 H 248.36 -3.26488 1.88906 0
M  V30 2603 H 250.747 -2.76438 1.03276 0
M  V30 2604 H 250.828 -1.39169 2.14629 0
M  V30 2605 H 250.472 -2.98923 4.10619 0
M  V30 2606 H 250.402 -4.35353 2.96269 0
M  V30 2607 H 252.893 -2.87926 2.44759 0
M  V30 2608 H 253.206 -5.46376 5.46528 0
M  V30 2609 H 251.551 -4.91862 4.91016 0
M  V30 2610 H 254.742 -3.51136 3.0955 0
M  V30 2611 H 254.915 -4.69007 4.47142 0
M  V30 2612 N 248.321 -0.919034 -1.28029 0
M  V30 2613 C 249.549 -0.570971 -1.98866 0
M  V30 2614 C 249.964 0.848996 -1.68634 0
M  V30 2615 O 249.321 1.56307 -0.942036 0
M  V30 2616 C 249.372 -0.776876 -3.53054 0
M  V30 2617 O 249.093 -2.14097 -3.82222 0
M  V30 2618 C 250.594 -0.436356 -4.41147 0
M  V30 2619 H 247.814 -0.217175 -0.634883 0
M  V30 2620 H 250.358 -1.23368 -1.63097 0
M  V30 2621 H 248.513 -0.161085 -3.87065 0
M  V30 2622 H 248.927 -2.18455 -4.76841 0
M  V30 2623 H 250.401 -0.63117 -5.4838 0
M  V30 2624 H 250.878 0.627686 -4.34692 0
M  V30 2625 H 251.484 -1.02991 -4.12641 0
M  V30 2626 N 249.799 1.42003 -0.683588 0
M  V30 2627 C 250.732 2.28166 0.039592 0
M  V30 2628 C 251.71 1.41562 0.799942 0
M  V30 2629 O 252.894 1.70997 0.793248 0
M  V30 2630 C 250.021 3.21575 1.06335 0
M  V30 2631 C 249.067 4.24643 0.397562 0
M  V30 2632 S 249.9 5.2869 -0.851296 0
M  V30 2633 C 251.056 6.25666 0.171166 0
M  V30 2634 H 251.289 2.89153 -0.691229 0
M  V30 2635 H 248.822 1.46962 -0.473435 0
M  V30 2636 H 250.78 3.75928 1.6489 0
M  V30 2637 H 249.441 2.59707 1.76667 0
M  V30 2638 H 248.634 4.90223 1.17035 0
M  V30 2639 H 248.236 3.73824 -0.114611 0
M  V30 2640 H 250.528 6.69653 1.02819 0
M  V30 2641 H 251.471 7.06666 -0.450397 0
M  V30 2642 H 251.879 5.62095 0.520578 0
M  V30 2643 N 251.277 0.427512 1.51691 0
M  V30 2644 C 252.693 0.0792977 1.59403 0
M  V30 2645 C 252.893 -1.41035 1.43914 0
M  V30 2646 O 251.949 -2.17922 1.27539 0
M  V30 2647 C 253.262 0.590636 2.94842 0
M  V30 2648 C 254.81 0.550215 3.08126 0
M  V30 2649 C 255.285 1.03836 4.46074 0
M  V30 2650 N 256.776 0.995943 4.52366 0
M  V30 2651 C 257.511 1.34463 5.57411 0
M  V30 2652 N 257.007 1.76569 6.69922 0
M  V30 2653 N 258.8 1.26343 5.47717 0
M  V30 2654 H 250.951 1.39687 1.60004 0
M  V30 2655 H 253.214 0.575003 0.753708 0
M  V30 2656 H 252.92 1.63251 3.11516 0
M  V30 2657 H 252.794 0.0102061 3.77199 0
M  V30 2658 H 255.181 -0.482654 2.91126 0
M  V30 2659 H 255.262 1.16693 2.27632 0
M  V30 2660 H 254.906 2.06965 4.63819 0
M  V30 2661 H 254.836 0.398286 5.25092 0
M  V30 2662 H 257.327 0.68661 3.7161 0
M  V30 2663 H 257.64 2.01438 7.46085 0
M  V30 2664 H 255.985 1.80488 6.71155 0
M  V30 2665 H 259.176 0.933209 4.58703 0
M  V30 2666 H 259.349 1.53846 6.29472 0
M  V30 2667 N 252.755 -1.56801 0.158532 0
M  V30 2668 C 253.687 -2.14488 -0.807923 0
M  V30 2669 C 254.7 -1.09721 -1.20271 0
M  V30 2670 O 255.889 -1.36956 -1.14478 0
M  V30 2671 C 252.989 -2.66217 -2.09718 0
M  V30 2672 C 252.162 -3.95507 -1.86796 0
M  V30 2673 C 251.221 -4.3243 -2.99818 0
M  V30 2674 O 250.247 -5.00543 -2.71008 0
M  V30 2675 N 251.449 -3.92947 -4.27285 0
M  V30 2676 H 254.214 -2.98042 -0.314816 0
M  V30 2677 H 251.775 -1.61881 -0.0246692 0
M  V30 2678 H 253.767 -2.87924 -2.84398 0
M  V30 2679 H 252.337 -1.87324 -2.50257 0
M  V30 2680 H 251.557 -3.82309 -0.96089 0
M  V30 2681 H 252.845 -4.79972 -1.68833 0
M  V30 2682 H 252.243 -3.38087 -4.53557 0
M  V30 2683 H 250.8 -4.19681 -4.9871 0
M  V30 2684 N 254.233 0.115231 -1.57178 0
M  V30 2685 C 255.649 0.468877 -1.52557 0
M  V30 2686 C 255.849 1.81649 -0.872125 0
M  V30 2687 O 254.905 2.48347 -0.45606 0
M  V30 2688 C 256.218 0.4499 -2.97315 0
M  V30 2689 C 257.766 0.533185 -3.08425 0
M  V30 2690 C 258.241 0.54456 -4.54751 0
M  V30 2691 N 259.732 0.605892 -4.5922 0
M  V30 2692 C 260.467 0.636203 -5.6986 0
M  V30 2693 N 259.963 0.623931 -6.89985 0
M  V30 2694 N 261.756 0.679496 -5.57978 0
M  V30 2695 H 253.907 -0.767712 -1.9804 0
M  V30 2696 H 256.17 -0.283609 -0.904583 0
M  V30 2697 H 255.876 -0.472721 -3.48509 0
M  V30 2698 H 255.75 1.27632 -3.5495 0
M  V30 2699 H 258.137 1.44623 -2.57232 0
M  V30 2700 H 258.218 -0.320995 -2.53778 0
M  V30 2701 H 257.862 -0.364452 -5.06591 0
M  V30 2702 H 257.792 1.41568 -5.07214 0
M  V30 2703 H 260.283 0.621386 -3.72756 0
M  V30 2704 H 260.596 0.649787 -7.70063 0
M  V30 2705 H 258.941 0.591296 -6.9248 0
M  V30 2706 H 262.132 0.686472 -4.63039 0
M  V30 2707 H 262.305 0.69965 -6.44212 0
M  V30 2708 N 255.711 1.52812 0.385517 0
M  V30 2709 C 256.674 1.77188 1.45386 0
M  V30 2710 C 257.674 0.641953 1.4743 0
M  V30 2711 O 258.864 0.910033 1.4854 0
M  V30 2712 C 255.996 1.87582 2.8465 0
M  V30 2713 H 257.189 2.72583 1.25054 0
M  V30 2714 H 254.742 1.43586 0.617467 0
M  V30 2715 H 255.477 0.941849 3.10322 0
M  V30 2716 H 255.262 2.69748 2.84567 0
M  V30 2717 H 256.752 2.08102 3.62054 0
M  V30 2718 N 257.189 -0.644168 1.43834 0
M  V30 2719 C 258.119 -1.76814 1.52509 0
M  V30 2720 C 259.1 -1.65823 0.379052 0
M  V30 2721 O 260.285 -1.84781 0.597466 0
M  V30 2722 C 257.415 -3.15288 1.4564 0
M  V30 2723 C 256.369 -3.41053 2.58586 0
M  V30 2724 C 255.695 -4.79421 2.36769 0
M  V30 2725 C 256.995 -3.34902 4.00797 0
M  V30 2726 H 258.689 -1.69812 2.46586 0
M  V30 2727 H 256.235 -0.815542 1.1868 0
M  V30 2728 H 258.188 -3.93681 1.50311 0
M  V30 2729 H 256.912 -3.23043 0.480725 0
M  V30 2730 H 255.571 -2.65035 2.53282 0
M  V30 2731 H 255.219 -4.83863 1.37424 0
M  V30 2732 H 254.919 -4.9762 3.12487 0
M  V30 2733 H 256.443 -5.6006 2.43238 0
M  V30 2734 H 257.857 -4.03218 4.07539 0
M  V30 2735 H 256.254 -3.64637 4.76613 0
M  V30 2736 H 257.324 -2.32928 4.25291 0
M  V30 2737 N 258.668 -1.30515 -0.883378 0
M  V30 2738 C 259.893 -1.22487 -1.67367 0
M  V30 2739 C 260.318 0.208767 -1.86938 0
M  V30 2740 O 259.676 1.15015 -1.40148 0
M  V30 2741 C 259.724 -1.96041 -3.02655 0
M  V30 2742 O 258.828 -1.28859 -3.91751 0
M  V30 2743 H 258.169 -0.423573 -0.511353 0
M  V30 2744 H 260.699 -1.72362 -1.10239 0
M  V30 2745 H 260.709 -2.05124 -3.52687 0
M  V30 2746 H 259.384 -3.00307 -2.8773 0
M  V30 2747 H 257.961 -1.28141 -3.50192 0
M  V30 2748 N 260.146 1.09593 -1.13257 0
M  V30 2749 C 261.374 1.855 -0.916378 0
M  V30 2750 C 261.789 1.81069 0.534738 0
M  V30 2751 O 261.146 1.20562 1.37007 0
M  V30 2752 C 261.197 3.33546 -1.39388 0
M  V30 2753 O 260.918 3.37927 -2.78813 0
M  V30 2754 C 262.419 4.26299 -1.21588 0
M  V30 2755 H 259.639 0.585991 -0.326887 0
M  V30 2756 H 262.183 1.38488 -1.5047 0
M  V30 2757 H 260.338 3.77992 -0.848597 0
M  V30 2758 H 260.752 4.30254 -2.9997 0
M  V30 2759 H 262.226 5.28341 -1.59876 0
M  V30 2760 H 262.703 4.38918 -0.157376 0
M  V30 2761 H 263.309 3.87668 -1.7491 0
M  V30 2762 N 261.624 0.925811 1.2754 0
M  V30 2763 C 262.87 0.575575 1.95086 0
M  V30 2764 C 263.225 -0.873246 1.71441 0
M  V30 2765 O 262.518 -1.61443 1.03183 0
M  V30 2766 C 262.712 0.835296 3.47502 0
M  V30 2767 C 262.541 2.30781 3.85967 0
M  V30 2768 C 261.311 2.96017 4.09514 0
M  V30 2769 C 263.509 3.28519 3.95702 0
M  V30 2770 N 261.491 4.3344 4.34744 0
M  V30 2771 C 262.862 4.51146 4.25285 0
M  V30 2772 C 264.917 3.23753 3.7827 0
M  V30 2773 C 263.62 5.69606 4.39251 0
M  V30 2774 C 265.646 4.41523 3.9346 0
M  V30 2775 C 265.008 5.62928 4.23428 0
M  V30 2776 H 261.107 0.260711 0.737261 0
M  V30 2777 H 263.691 1.19204 1.53943 0
M  V30 2778 H 261.862 0.248005 3.87607 0
M  V30 2779 H 263.594 0.447878 4.02214 0
M  V30 2780 H 260.349 2.46695 4.04275 0
M  V30 2781 H 260.773 5.04528 4.5142 0
M  V30 2782 H 265.415 2.3096 3.54143 0
M  V30 2783 H 263.133 6.62866 4.62205 0
M  V30 2784 H 266.719 4.39351 3.81394 0
M  V30 2785 H 265.599 6.52538 4.34929 0
M  V30 2786 N 263.102 -1.41638 0.69111 0
M  V30 2787 C 264.049 -2.30789 0.0229705 0
M  V30 2788 C 265.019 -1.46863 -0.775911 0
M  V30 2789 O 266.204 -1.75661 -0.74485 0
M  V30 2790 C 263.344 -3.32868 -0.910666 0
M  V30 2791 C 262.457 -4.31875 -0.103874 0
M  V30 2792 C 261.592 -5.21024 -1.03475 0
M  V30 2793 C 260.631 -6.11702 -0.220598 0
M  V30 2794 N 259.768 -6.93349 -1.10504 0
M  V30 2795 H 264.608 -2.87366 0.788978 0
M  V30 2796 H 262.145 -1.41535 0.400794 0
M  V30 2797 H 264.103 -3.90596 -1.46597 0
M  V30 2798 H 262.733 -2.77851 -1.64312 0
M  V30 2799 H 261.785 -3.76131 0.568285 0
M  V30 2800 H 263.097 -4.96003 0.527504 0
M  V30 2801 H 262.251 -5.83565 -1.65943 0
M  V30 2802 H 260.99 -4.57112 -1.69999 0
M  V30 2803 H 259.995 -5.48215 0.417187 0
M  V30 2804 H 261.22 -6.77668 0.440784 0
M  V30 2805 H 259.166 -6.3205 -1.75638 0
M  V30 2806 H 259.083 -7.54146 -0.529125 0
M  V30 2807 H 260.351 -7.60362 -1.71667 0
M  V30 2808 N 264.58 -0.43555 -1.51462 0
M  V30 2809 C 265.512 0.41257 -2.25456 0
M  V30 2810 C 266.525 0.987822 -1.29406 0
M  V30 2811 O 267.714 0.882266 -1.55172 0
M  V30 2812 C 264.814 1.58894 -2.99342 0
M  V30 2813 C 263.987 1.13288 -4.22474 0
M  V30 2814 C 263.046 2.17917 -4.78956 0
M  V30 2815 O 262.072 1.77425 -5.40841 0
M  V30 2816 N 263.274 3.50382 -4.62832 0
M  V30 2817 H 266.039 -0.221603 -2.9888 0
M  V30 2818 H 263.6 -0.264342 -1.59727 0
M  V30 2819 H 265.592 2.28508 -3.34015 0
M  V30 2820 H 264.162 2.12849 -2.28941 0
M  V30 2821 H 263.382 0.263881 -3.93316 0
M  V30 2822 H 264.67 0.805542 -5.02383 0
M  V30 2823 H 264.068 3.86013 -4.13534 0
M  V30 2824 H 262.625 4.15895 -5.01871 0
M  V30 2825 N 266.058 1.56714 -0.166846 0
M  V30 2826 C 266.991 2.13577 0.80375 0
M  V30 2827 C 267.969 1.06464 1.22899 0
M  V30 2828 O 269.153 1.34413 1.32157 0
M  V30 2829 C 266.28 2.67168 2.0818 0
M  V30 2830 C 265.326 3.86612 1.80093 0
M  V30 2831 S 266.159 5.26565 0.97416 0
M  V30 2832 C 267.315 5.83558 2.26297 0
M  V30 2833 H 267.548 2.9557 0.320267 0
M  V30 2834 H 265.081 1.54326 0.0477555 0
M  V30 2835 H 267.039 2.98692 2.8159 0
M  V30 2836 H 265.7 1.85269 2.53642 0
M  V30 2837 H 264.893 4.22422 2.7491 0
M  V30 2838 H 264.495 3.55951 1.14781 0
M  V30 2839 H 266.787 5.962 3.21795 0
M  V30 2840 H 267.73 6.80731 1.94962 0
M  V30 2841 H 268.138 5.11944 2.37853 0
M  V30 2842 N 267.536 -0.106894 1.57237 0
M  V30 2843 C 268.784 -0.810921 1.85117 0
M  V30 2844 C 269.105 -1.7984 0.753827 0
M  V30 2845 O 268.375 -1.94649 -0.221056 0
M  V30 2846 H 266.955 -0.302466 0.683025 0
M  V30 2847 H 269.617 -0.0913324 1.94686 0
M  V30 2848 H 268.713 -1.34875 2.81452 0
M  V30 2849 N 269.014 -1.53014 -0.377408 0
M  V30 2850 C 269.924 -1.81557 -1.48574 0
M  V30 2851 C 270.94 -0.703102 -1.59162 0
M  V30 2852 O 272.116 -0.99192 -1.75279 0
M  V30 2853 C 269.181 -1.9889 -2.83978 0
M  V30 2854 C 268.242 -3.22801 -2.83016 0
M  V30 2855 C 267.475 -3.39298 -4.11962 0
M  V30 2856 O 267.698 -2.60345 -5.0752 0
M  V30 2857 O 266.632 -4.32604 -4.18494 0
M  V30 2858 H 270.458 -2.75695 -1.27382 0
M  V30 2859 H 268.043 -1.38248 -0.566373 0
M  V30 2860 H 269.925 -2.11931 -3.6423 0
M  V30 2861 H 268.6 -1.07942 -3.05172 0
M  V30 2862 H 267.507 -3.15193 -2.01505 0
M  V30 2863 H 268.84 -4.13632 -2.66775 0
M  V30 2864 N 270.492 0.636531 -1.44174 0
M  V30 2865 C 271.424 1.7618 -1.46606 0
M  V30 2866 C 272.437 1.58768 -0.360091 0
M  V30 2867 O 273.626 1.67181 -0.625518 0
M  V30 2868 C 270.726 3.13833 -1.27915 0
M  V30 2869 C 269.899 3.57753 -2.51658 0
M  V30 2870 C 268.958 4.74265 -2.27945 0
M  V30 2871 O 267.984 4.82852 -3.01401 0
M  V30 2872 N 269.186 5.65604 -1.30662 0
M  V30 2873 H 271.951 1.74567 -2.43612 0
M  V30 2874 H 269.512 0.820924 -1.39544 0
M  V30 2875 H 271.504 3.8949 -1.09907 0
M  V30 2876 H 270.074 3.10121 -0.39293 0
M  V30 2877 H 269.294 2.72362 -2.84978 0
M  V30 2878 H 270.582 3.83847 -3.33974 0
M  V30 2879 H 269.98 5.61354 -0.699844 0
M  V30 2880 H 268.537 6.40913 -1.18634 0
M  V30 2881 N 271.97 1.30982 0.876444 0
M  V30 2882 C 273.386 1.09498 1.16113 0
M  V30 2883 C 273.586 -0.13875 2.01022 0
M  V30 2884 O 272.642 -0.829935 2.38471 0
M  V30 2885 C 273.955 2.36308 1.85954 0
M  V30 2886 C 275.503 2.41856 1.98683 0
M  V30 2887 C 275.978 3.6853 2.71937 0
M  V30 2888 N 277.469 3.69387 2.79477 0
M  V30 2889 C 278.204 4.64096 3.36753 0
M  V30 2890 N 277.7 5.69155 3.95012 0
M  V30 2891 N 279.493 4.51626 3.3465 0
M  V30 2892 H 271.644 2.10118 0.310494 0
M  V30 2893 H 273.907 0.926634 0.200131 0
M  V30 2894 H 273.613 3.26388 1.31011 0
M  V30 2895 H 273.487 2.4561 2.86278 0
M  V30 2896 H 275.874 1.52249 2.52793 0
M  V30 2897 H 275.955 2.36523 0.9742 0
M  V30 2898 H 275.599 4.58499 2.18496 0
M  V30 2899 H 275.529 3.71127 3.73593 0
M  V30 2900 H 278.02 2.93438 2.38123 0
M  V30 2901 H 278.333 6.3751 4.36808 0
M  V30 2902 H 276.678 5.72937 3.93406 0
M  V30 2903 H 279.869 3.68728 2.8837 0
M  V30 2904 H 280.042 5.25614 3.7899 0
M  V30 2905 N 273.449 -1.08991 1.13837 0
M  V30 2906 C 274.359 -2.19301 0.833333 0
M  V30 2907 C 275.375 -1.73026 -0.183847 0
M  V30 2908 O 276.551 -2.01395 -0.0138092 0
M  V30 2909 C 273.616 -3.45323 0.308651 0
M  V30 2910 C 272.677 -4.06255 1.38764 0
M  V30 2911 C 271.91 -5.26262 0.887896 0
M  V30 2912 O 272.133 -5.69747 -0.27287 0
M  V30 2913 O 271.067 -5.78435 1.66421 0
M  V30 2914 H 274.893 -2.47854 1.75506 0
M  V30 2915 H 272.478 -1.18012 0.916166 0
M  V30 2916 H 274.36 -4.21394 0.0216739 0
M  V30 2917 H 273.035 -3.18362 -0.585431 0
M  V30 2918 H 271.942 -3.318 1.72799 0
M  V30 2919 H 273.275 -4.37452 2.25602 0
M  V30 2920 N 274.927 -0.932562 -1.27047 0
M  V30 2921 C 275.857 -0.452902 -2.29066 0
M  V30 2922 C 276.838 0.489338 -1.62909 0
M  V30 2923 O 278.023 0.393046 -1.90181 0
M  V30 2924 C 275.153 0.290698 -3.46081 0
M  V30 2925 C 274.107 -0.564168 -4.24265 0
M  V30 2926 C 273.433 0.308886 -5.33807 0
M  V30 2927 C 274.733 -1.83112 -4.89149 0
M  V30 2928 H 276.427 -1.30552 -2.69437 0
M  V30 2929 H 273.973 -0.629201 -1.29526 0
M  V30 2930 H 275.926 0.637233 -4.16554 0
M  V30 2931 H 274.65 1.17738 -3.0464 0
M  V30 2932 H 273.309 -0.893477 -3.55545 0
M  V30 2933 H 272.957 1.19467 -4.88607 0
M  V30 2934 H 272.657 -0.259633 -5.87026 0
M  V30 2935 H 274.181 0.650884 -6.07121 0
M  V30 2936 H 275.595 -1.55236 -5.51883 0
M  V30 2937 H 273.992 -2.34353 -5.52448 0
M  V30 2938 H 275.062 -2.54772 -4.12576 0
M  V30 2939 N 276.405 1.4127 -0.698611 0
M  V30 2940 C 277.337 2.292 0.00399731 0
M  V30 2941 C 278.35 1.44944 0.741279 0
M  V30 2942 O 279.539 1.68416 0.591477 0
M  V30 2943 C 276.639 3.22875 1.02979 0
M  V30 2944 C 275.812 4.35904 0.36151 0
M  V30 2945 C 274.871 5.10134 1.29033 0
M  V30 2946 O 273.897 5.63809 0.781562 0
M  V30 2947 N 275.099 5.17885 2.6225 0
M  V30 2948 H 277.864 2.9014 -0.750921 0
M  V30 2949 H 275.425 1.52455 -0.544882 0
M  V30 2950 H 277.417 3.69404 1.65296 0
M  V30 2951 H 275.987 2.63221 1.68622 0
M  V30 2952 H 275.207 3.91719 -0.441584 0
M  V30 2953 H 276.495 5.08696 -0.103055 0
M  V30 2954 H 275.893 4.7573 3.061 0
M  V30 2955 H 274.45 5.6798 3.19754 0
M  V30 2956 N 277.883 0.443576 1.51229 0
M  V30 2957 C 278.793 -0.370721 2.31652 0
M  V30 2958 C 279.809 -1.02186 1.40833 0
M  V30 2959 O 280.985 -1.01586 1.73903 0
M  V30 2960 C 278.05 -1.45376 3.14749 0
M  V30 2961 C 277.111 -0.822099 4.21355 0
M  V30 2962 C 276.344 -1.85353 5.0048 0
M  V30 2963 O 276.567 -3.07656 4.80316 0
M  V30 2964 O 275.501 -1.4406 5.84406 0
M  V30 2965 H 279.327 0.286002 3.0235 0
M  V30 2966 H 276.912 0.20598 1.47973 0
M  V30 2967 H 278.794 -2.08173 3.66391 0
M  V30 2968 H 277.469 -2.09445 2.46809 0
M  V30 2969 H 276.376 -0.155909 3.73775 0
M  V30 2970 H 277.709 -0.224797 4.91686 0
M  V30 2971 N 279.361 -1.56624 0.175154 0
M  V30 2972 C 280.609 -1.96609 -0.467885 0
M  V30 2973 C 280.93 -1.06238 -1.63519 0
M  V30 2974 O 280.2 -0.129523 -1.95471 0
M  V30 2975 H 278.78 -0.726008 -0.175845 0
M  V30 2976 H 281.442 -1.93195 0.257234 0
M  V30 2977 H 280.538 -3.00989 -0.825342 0
M  V30 2978 N 280.839 0.0985539 -1.57292 0
M  V30 2979 C 282.067 0.816318 -1.90115 0
M  V30 2980 C 282.482 1.72451 -0.768509 0
M  V30 2981 O 281.839 1.80643 0.259687 0
M  V30 2982 C 281.89 1.63259 -3.22535 0
M  V30 2983 O 281.611 0.760934 -4.31441 0
M  V30 2984 C 283.112 2.45372 -3.69199 0
M  V30 2985 H 280.332 0.233595 -0.629027 0
M  V30 2986 H 282.876 0.0768229 -2.04356 0
M  V30 2987 H 281.031 2.32463 -3.09903 0
M  V30 2988 H 281.445 1.32595 -5.07463 0
M  V30 2989 H 282.919 2.98144 -4.64558 0
M  V30 2990 H 283.396 3.23677 -2.96867 0
M  V30 2991 H 284.002 1.81373 -3.84687 0
M  V30 2992 N 282.317 1.53212 0.369288 0
M  V30 2993 C 283.547 1.72868 1.13139 0
M  V30 2994 C 283.955 0.455754 1.83629 0
M  V30 2995 O 283.298 -0.580861 1.74275 0
M  V30 2996 C 283.36 2.83667 2.20847 0
M  V30 2997 C 283.024 4.24142 1.70155 0
M  V30 2998 C 284.021 5.06619 1.16763 0
M  V30 2999 C 281.706 4.70539 1.7578 0
M  V30 3000 C 283.7 6.33581 0.696678 0
M  V30 3001 C 281.387 5.97481 1.28297 0
M  V30 3002 C 282.385 6.78833 0.753307 0
M  V30 3003 O 282.073 8.03393 0.285475 0
M  V30 3004 H 281.805 0.581707 0.344373 0
M  V30 3005 H 284.359 2.00736 0.435243 0
M  V30 3006 H 282.589 2.51265 2.93944 0
M  V30 3007 H 284.278 2.91536 2.82421 0
M  V30 3008 H 285.044 4.71948 1.11758 0
M  V30 3009 H 280.923 4.07293 2.15949 0
M  V30 3010 H 284.467 6.97027 0.282581 0
M  V30 3011 H 280.364 6.31651 1.32994 0
M  V30 3012 H 281.132 8.17497 0.405145 0
M  V30 3013 N 283.795 -0.628877 1.44509 0
M  V30 3014 C 285.041 -1.39045 1.47629 0
M  V30 3015 C 285.374 -1.93892 0.109343 0
M  V30 3016 O 284.649 -1.7379 -0.87334 0
M  V30 3017 C 284.932 -2.55408 2.53848 0
M  V30 3018 C 284.785 -2.05896 3.99909 0
M  V30 3019 C 286.104 -3.5759 2.56549 0
M  V30 3020 H 283.223 -0.504232 0.537512 0
M  V30 3021 H 285.865 -0.710854 1.76201 0
M  V30 3022 H 284.015 -3.13384 2.29615 0
M  V30 3023 H 285.687 -1.52734 4.35282 0
M  V30 3024 H 283.93 -1.37061 4.11578 0
M  V30 3025 H 284.601 -2.89681 4.69882 0
M  V30 3026 H 287.077 -3.09419 2.78207 0
M  V30 3027 H 285.953 -4.36527 3.32769 0
M  V30 3028 H 286.214 -4.11808 1.60832 0
M  V30 3029 N 285.273 -1.31445 -0.869486 0
M  V30 3030 C 286.206 -1.13465 -1.97992 0
M  V30 3031 C 287.184 -0.0380291 -1.62556 0
M  V30 3032 O 288.368 -0.194544 -1.87493 0
M  V30 3033 C 285.495 -0.733822 -3.30655 0
M  V30 3034 C 284.541 -1.83356 -3.85075 0
M  V30 3035 S 285.374 -3.43909 -4.10472 0
M  V30 3036 C 286.53 -3.05763 -5.46132 0
M  V30 3037 H 286.763 -2.07471 -2.1294 0
M  V30 3038 H 284.296 -1.15936 -1.01972 0
M  V30 3039 H 286.254 -0.509306 -4.07328 0
M  V30 3040 H 284.915 0.187123 -3.13542 0
M  V30 3041 H 284.108 -1.50574 -4.80982 0
M  V30 3042 H 283.71 -2.01315 -3.15195 0
M  V30 3043 H 286.002 -2.54686 -6.27807 0
M  V30 3044 H 286.945 -4.00635 -5.83864 0
M  V30 3045 H 287.353 -2.43192 -5.09429 0
M  V30 3046 N 286.751 1.08385 -1.14413 0
M  V30 3047 C 287.997 1.81044 -0.913834 0
M  V30 3048 C 288.33 1.86004 0.558209 0
M  V30 3049 O 287.605 1.33606 1.4135 0
M  V30 3050 C 287.888 3.26648 -1.51569 0
M  V30 3051 C 287.741 3.29895 -3.0576 0
M  V30 3052 C 289.06 4.23629 -1.19273 0
M  V30 3053 H 286.179 0.65727 -0.333414 0
M  V30 3054 H 288.821 1.26896 -1.41412 0
M  V30 3055 H 286.971 3.72889 -1.09023 0
M  V30 3056 H 288.643 2.91977 -3.57137 0
M  V30 3057 H 286.886 2.69163 -3.40197 0
M  V30 3058 H 287.557 4.32516 -3.42977 0
M  V30 3059 H 290.033 3.85727 -1.56057 0
M  V30 3060 H 288.909 5.23822 -1.64017 0
M  V30 3061 H 289.17 4.41968 -0.108068 0
M  V30 3062 N 288.23 0.939286 1.26551 0
M  V30 3063 C 289.193 0.451987 2.24699 0
M  V30 3064 C 290.193 -0.435869 1.5478 0
M  V30 3065 O 291.383 -0.235314 1.72603 0
M  V30 3066 C 288.515 -0.348801 3.39111 0
M  V30 3067 H 289.708 1.3193 2.69322 0
M  V30 3068 H 287.261 0.721072 1.38673 0
M  V30 3069 H 287.996 -1.23444 2.99887 0
M  V30 3070 H 287.781 0.287945 3.91041 0
M  V30 3071 H 289.271 -0.679726 4.12031 0
M  V30 3072 N 289.708 -1.40897 0.706093 0
M  V30 3073 C 290.956 -2.00657 0.241054 0
M  V30 3074 C 291.277 -1.56241 -1.16678 0
M  V30 3075 O 290.547 -0.79765 -1.78926 0
M  V30 3076 H 289.127 -0.742018 0.0861308 0
M  V30 3077 H 291.789 -1.72372 0.909604 0
M  V30 3078 H 290.885 -3.10958 0.266705 0
M  V30 3079 N 291.186 -0.45159 -1.50991 0
M  V30 3080 C 292.597 0.00818571 -1.86698 0
M  V30 3081 C 292.948 1.40661 -1.3678 0
M  V30 3082 O 292.073 2.0391 -0.724546 0
M  V30 3083 C 292.668 0.0216303 -3.38793 0
M  V30 3084 C 291.227 0.425865 -3.73983 0
M  V30 3085 C 290.374 -0.372163 -2.74791 0
M  V30 3086 H 293.325 -0.666785 -1.44013 0
M  V30 3087 H 293.346 0.828078 -3.7138 0
M  V30 3088 H 292.858 -0.996288 -3.75094 0
M  V30 3089 H 290.959 1.44886 -3.43277 0
M  V30 3090 H 291.072 0.140761 -4.78893 0
M  V30 3091 H 289.436 0.171498 -2.54122 0
M  V30 3092 H 290.219 -1.38922 -3.13935 0
M  V30 3093 N 292.664 1.56529 -0.183458 0
M  V30 3094 C 293.889 2.02064 0.467428 0
M  V30 3095 C 294.314 1.06282 1.55196 0
M  V30 3096 O 293.672 0.0443565 1.81246 0
M  V30 3097 C 293.72 3.46122 1.01153 0
M  V30 3098 O 292.824 3.53437 2.12499 0
M  V30 3099 H 292.165 0.654726 0.110588 0
M  V30 3100 H 294.695 2.02521 -0.290917 0
M  V30 3101 H 294.705 3.85676 1.33108 0
M  V30 3102 H 293.38 4.15331 0.217533 0
M  V30 3103 H 291.957 3.2575 1.81497 0
M  V30 3104 N 294.142 -0.090211 1.57342 0
M  V30 3105 C 295.389 -0.792807 1.86335 0
M  V30 3106 C 295.717 -1.78494 0.772662 0
M  V30 3107 O 294.972 -1.94305 -0.233258 0
M  V30 3108 C 295.271 -1.55222 3.21933 0
M  V30 3109 C 294.937 -0.701765 4.45406 0
M  V30 3110 C 293.599 -0.467334 4.78925 0
M  V30 3111 C 295.951 -0.11086 5.21082 0
M  V30 3112 C 293.279 0.367785 5.85546 0
M  V30 3113 C 295.631 0.711609 6.28585 0
M  V30 3114 C 294.295 0.956086 6.60617 0
M  V30 3115 H 293.565 -0.290109 0.681849 0
M  V30 3116 H 296.212 -0.0541332 1.91423 0
M  V30 3117 H 294.517 -2.3626 3.12551 0
M  V30 3118 H 296.214 -2.10032 3.41595 0
M  V30 3119 H 292.804 -0.894598 4.1916 0
M  V30 3120 H 296.988 -0.279129 4.95514 0
M  V30 3121 H 292.244 0.566128 6.08773 0
M  V30 3122 H 296.418 1.17632 6.86393 0
M  V30 3123 H 294.045 1.60499 7.43064 0
M  V30 3124 N 295.62 -1.53406 -0.361157 0
M  V30 3125 C 296.53 -1.83122 -1.4664 0
M  V30 3126 C 297.546 -0.719943 -1.58407 0
M  V30 3127 O 298.722 -1.01046 -1.74218 0
M  V30 3128 C 295.787 -2.01891 -2.81853 0
M  V30 3129 C 294.848 -3.25784 -2.79577 0
M  V30 3130 C 294.081 -3.43648 -4.0834 0
M  V30 3131 O 294.304 -2.65714 -5.0473 0
M  V30 3132 O 293.238 -4.37018 -4.13883 0
M  V30 3133 H 297.064 -2.7703 -1.24451 0
M  V30 3134 H 294.649 -1.38841 -0.551678 0
M  V30 3135 H 296.531 -2.15782 -3.61962 0
M  V30 3136 H 295.206 -1.11173 -3.0401 0
M  V30 3137 H 294.113 -3.17312 -1.98151 0
M  V30 3138 H 295.446 -4.16439 -2.62373 0
M  V30 3139 N 297.098 0.621204 -1.44841 0
M  V30 3140 C 298.326 1.40752 -1.51646 0
M  V30 3141 C 298.741 1.88246 -0.144549 0
M  V30 3142 O 298.098 1.61422 0.851416 0
M  V30 3143 C 298.149 2.62119 -2.4895 0
M  V30 3144 O 297.87 2.16602 -3.80808 0
M  V30 3145 C 299.371 3.55135 -2.65319 0
M  V30 3146 H 296.591 0.431325 -0.514004 0
M  V30 3147 H 299.135 0.758835 -1.899 0
M  V30 3148 H 297.29 3.23058 -2.13805 0
M  V30 3149 H 297.704 2.95358 -4.33433 0
M  V30 3150 H 299.178 4.36874 -3.37409 0
M  V30 3151 H 299.655 4.04592 -1.70886 0
M  V30 3152 H 300.261 3.00058 -3.01405 0
M  V30 3153 N 298.576 1.31904 0.862503 0
M  V30 3154 C 299.822 1.22197 1.61851 0
M  V30 3155 C 300.155 -0.217641 1.92977 0
M  V30 3156 O 299.43 -1.15264 1.56666 0
M  V30 3157 C 299.713 2.07378 2.94391 0
M  V30 3158 C 299.566 3.59678 2.70096 0
M  V30 3159 C 300.885 1.92891 3.95577 0
M  V30 3160 H 298.004 0.445255 0.587296 0
M  V30 3161 H 300.646 1.6177 0.99651 0
M  V30 3162 H 298.796 1.73758 3.47477 0
M  V30 3163 H 300.468 4.03472 2.23625 0
M  V30 3164 H 298.711 3.82735 2.04197 0
M  V30 3165 H 299.382 4.14595 3.64438 0
M  V30 3166 H 301.858 2.22327 3.51724 0
M  V30 3167 H 300.734 2.54781 4.86187 0
M  V30 3168 H 300.995 0.894315 4.3296 0
M  V30 3169 N 300.054 -1.07777 1.14986 0
M  V30 3170 C 301.017 -2.13041 0.845358 0
M  V30 3171 C 302.017 -1.60071 -0.152931 0
M  V30 3172 O 303.207 -1.74033 0.0761879 0
M  V30 3173 C 300.339 -3.39896 0.261383 0
M  V30 3174 H 301.532 -2.41485 1.77834 0
M  V30 3175 H 299.085 -1.23595 0.956757 0
M  V30 3176 H 299.82 -3.17091 -0.68 0
M  V30 3177 H 299.605 -3.79642 0.980514 0
M  V30 3178 H 301.095 -4.17548 0.0657687 0
M  V30 3179 N 301.532 -0.945985 -1.26051 0
M  V30 3180 C 302.442 -0.465633 -2.29933 0
M  V30 3181 C 303.458 0.462761 -1.67733 0
M  V30 3182 O 304.634 0.341118 -1.9849 0
M  V30 3183 C 301.699 0.256994 -3.45746 0
M  V30 3184 C 300.76 -0.708549 -4.23412 0
M  V30 3185 C 299.993 -0.0203135 -5.33696 0
M  V30 3186 O 300.216 1.19571 -5.57726 0
M  V30 3187 O 299.15 -0.701459 -5.97799 0
M  V30 3188 H 302.976 -1.32866 -2.73094 0
M  V30 3189 H 300.561 -0.712071 -1.31339 0
M  V30 3190 H 302.443 0.663852 -4.16138 0
M  V30 3191 H 301.118 1.09533 -3.04605 0
M  V30 3192 H 300.025 -1.16545 -3.55483 0
M  V30 3193 H 301.358 -1.51465 -4.68315 0
M  V30 3194 N 303.011 1.40521 -0.713556 0
M  V30 3195 C 304.251 2.02783 -0.256584 0
M  V30 3196 C 304.615 1.55352 1.12827 0
M  V30 3197 O 305.816 2.09663 1.68211 0
M  V30 3198 C 304.087 3.5586 -0.331414 0
M  V30 3199 S 305.646 4.38773 0.0488703 0
M  V30 3200 H 302.464 0.703655 -0.101934 0
M  V30 3201 H 305.066 1.71674 -0.935325 0
M  V30 3202 H 303.77 3.87874 -1.34098 0
M  V30 3203 H 303.301 3.91695 0.365873 0
M  V30 3204 H 305.316 4.79633 1.2715 0
M  V30 3205 N 304.489 0.459591 1.5075 0
M  V30 3206 C 305.905 0.113092 1.59199 0
M  V30 3207 C 306.105 -1.37951 1.46874 0
M  V30 3208 O 305.161 -2.15168 1.32132 0
M  V30 3209 C 306.474 0.653043 2.93523 0
M  V30 3210 C 308.022 0.615449 3.0689 0
M  V30 3211 C 308.497 1.13275 4.43771 0
M  V30 3212 N 309.988 1.09167 4.50152 0
M  V30 3213 C 310.723 1.46256 5.54434 0
M  V30 3214 N 310.219 1.90739 6.66026 0
M  V30 3215 N 312.012 1.37932 5.44914 0
M  V30 3216 H 304.163 1.43049 1.57005 0
M  V30 3217 H 306.426 0.590861 0.741341 0
M  V30 3218 H 306.132 1.69822 3.07983 0
M  V30 3219 H 306.006 0.0902132 3.77092 0
M  V30 3220 H 308.393 -0.420793 2.92084 0
M  V30 3221 H 308.474 1.21495 2.25106 0
M  V30 3222 H 308.118 2.16757 4.59324 0
M  V30 3223 H 308.048 0.509576 5.24129 0
M  V30 3224 H 310.539 0.76528 3.7007 0
M  V30 3225 H 310.852 2.17218 7.41644 0
M  V30 3226 H 309.197 1.94683 6.67176 0
M  V30 3227 H 312.388 1.0303 4.56621 0
M  V30 3228 H 312.561 1.67164 6.26067 0
M  V30 3229 N 305.967 -1.56429 0.191757 0
M  V30 3230 C 307.213 -1.97777 -0.448554 0
M  V30 3231 C 307.546 -1.07847 -1.61501 0
M  V30 3232 O 306.821 -0.129774 -1.94067 0
M  V30 3233 C 307.104 -3.48362 -0.911906 0
M  V30 3234 C 306.957 -4.4907 0.256136 0
M  V30 3235 C 308.276 -4.02561 -1.77857 0
M  V30 3236 H 305.395 -0.719071 -0.161572 0
M  V30 3237 H 308.037 -1.87896 0.282007 0
M  V30 3238 H 306.187 -3.56914 -1.53442 0
M  V30 3239 H 307.859 -4.5256 0.893733 0
M  V30 3240 H 306.102 -4.24181 0.908436 0
M  V30 3241 H 306.773 -5.51889 -0.11053 0
M  V30 3242 H 309.249 -3.96767 -1.25359 0
M  V30 3243 H 308.125 -5.08301 -2.07174 0
M  V30 3244 H 308.386 -3.47616 -2.73158 0
M  V30 3245 N 307.445 0.0818655 -1.57387 0
M  V30 3246 C 308.375 1.09885 -2.06028 0
M  V30 3247 C 309.356 1.4098 -0.951774 0
M  V30 3248 O 310.541 1.50781 -1.22387 0
M  V30 3249 C 307.671 2.4151 -2.4958 0
M  V30 3250 C 306.625 2.24792 -3.64215 0
M  V30 3251 C 305.951 3.61712 -3.93787 0
M  V30 3252 C 307.251 1.67749 -4.94629 0
M  V30 3253 H 308.945 0.694128 -2.91243 0
M  V30 3254 H 306.491 0.332448 -1.4011 0
M  V30 3255 H 308.444 3.12939 -2.82219 0
M  V30 3256 H 307.168 2.83943 -1.61381 0
M  V30 3257 H 305.827 1.55807 -3.31843 0
M  V30 3258 H 305.475 4.01697 -3.02735 0
M  V30 3259 H 305.175 3.51368 -4.70971 0
M  V30 3260 H 306.699 4.34587 -4.28913 0
M  V30 3261 H 308.113 2.29032 -5.25564 0
M  V30 3262 H 306.51 1.68128 -5.76067 0
M  V30 3263 H 307.58 0.638059 -4.80684 0
M  V30 3264 N 308.923 1.53595 0.353017 0
M  V30 3265 C 309.855 1.77219 1.45348 0
M  V30 3266 C 310.868 0.65324 1.49119 0
M  V30 3267 O 312.057 0.929775 1.52373 0
M  V30 3268 C 309.157 1.84841 2.84055 0
M  V30 3269 C 308.33 3.14649 3.03833 0
M  V30 3270 C 307.389 3.13351 4.22727 0
M  V30 3271 O 306.415 3.87107 4.17297 0
M  V30 3272 N 307.617 2.35052 5.30783 0
M  V30 3273 H 310.382 2.72178 1.25457 0
M  V30 3274 H 307.943 1.52528 0.542833 0
M  V30 3275 H 309.935 1.81435 3.61751 0
M  V30 3276 H 308.505 0.971114 2.97133 0
M  V30 3277 H 307.725 3.31256 2.13689 0
M  V30 3278 H 309.013 4.00411 3.13925 0
M  V30 3279 H 308.411 1.74663 5.38061 0
M  V30 3280 H 306.968 2.37453 6.07009 0
M  V30 3281 N 310.401 -0.613514 1.45168 0
M  V30 3282 C 311.348 -1.72456 1.53387 0
M  V30 3283 C 312.318 -1.6169 0.380191 0
M  V30 3284 O 313.503 -1.81356 0.592836 0
M  V30 3285 C 310.643 -3.10753 1.50088 0
M  V30 3286 C 309.756 -3.32368 2.75963 0
M  V30 3287 C 308.891 -4.60737 2.64376 0
M  V30 3288 C 307.93 -4.7559 3.85332 0
M  V30 3289 N 307.067 -5.95253 3.72315 0
M  V30 3290 H 311.907 -1.64768 2.48305 0
M  V30 3291 H 309.444 -0.803503 1.23216 0
M  V30 3292 H 311.402 -3.90758 1.46164 0
M  V30 3293 H 310.032 -3.17413 0.587243 0
M  V30 3294 H 309.084 -2.4618 2.89999 0
M  V30 3295 H 310.396 -3.39218 3.65695 0
M  V30 3296 H 309.55 -5.48928 2.58385 0
M  V30 3297 H 308.289 -4.56275 1.72233 0
M  V30 3298 H 307.294 -3.85824 3.91688 0
M  V30 3299 H 308.519 -4.81854 4.78533 0
M  V30 3300 H 306.465 -5.91847 2.82937 0
M  V30 3301 H 306.382 -6.03236 4.55677 0
M  V30 3302 H 307.65 -6.85958 3.70246 0
M  V30 3303 N 311.879 -1.3236 -0.855495 0
M  V30 3304 C 312.809 -1.23833 -1.97958 0
M  V30 3305 C 313.79 -0.122361 -1.69659 0
M  V30 3306 O 314.975 -0.30939 -1.9172 0
M  V30 3307 C 312.105 -0.959772 -3.33775 0
M  V30 3308 C 311.059 -2.03689 -3.76424 0
M  V30 3309 C 310.385 -1.61075 -5.09862 0
M  V30 3310 C 311.685 -3.4518 -3.9198 0
M  V30 3311 H 313.379 -2.1788 -2.0535 0
M  V30 3312 H 310.925 -1.04891 -0.986605 0
M  V30 3313 H 312.878 -0.886678 -4.11966 0
M  V30 3314 H 311.602 0.0163404 -3.26596 0
M  V30 3315 H 310.261 -2.10012 -3.00484 0
M  V30 3316 H 309.909 -0.622107 -4.99138 0
M  V30 3317 H 309.609 -2.33143 -5.39368 0
M  V30 3318 H 311.133 -1.55201 -5.90546 0
M  V30 3319 H 312.547 -3.4145 -4.60526 0
M  V30 3320 H 310.944 -4.1559 -4.32903 0
M  V30 3321 H 312.014 -3.84903 -2.94919 0
M  V30 3322 N 313.357 1.07166 -1.15556 0
M  V30 3323 C 314.605 1.79443 -0.929764 0
M  V30 3324 C 314.926 1.87246 0.544414 0
M  V30 3325 O 314.196 1.37473 1.39564 0
M  V30 3326 H 312.776 0.664625 -0.341003 0
M  V30 3327 H 315.438 1.29499 -1.45657 0
M  V30 3328 H 314.534 2.81832 -1.34079 0
M  V30 3329 N 314.835 0.952656 1.25548 0
M  V30 3330 C 315.798 0.475794 2.24207 0
M  V30 3331 C 316.798 -0.419428 1.55234 0
M  V30 3332 O 317.988 -0.216994 1.72843 0
M  V30 3333 C 315.12 -0.312814 3.39462 0
M  V30 3334 H 316.313 1.34779 2.67908 0
M  V30 3335 H 313.866 0.735739 1.37901 0
M  V30 3336 H 314.601 -1.20257 3.01179 0
M  V30 3337 H 314.386 0.329404 3.90714 0
M  V30 3338 H 315.876 -0.635986 4.12729 0
M  V30 3339 N 316.313 -1.40141 0.720998 0
M  V30 3340 C 317.59 -1.94677 0.189757 0
M  V30 3341 C 317.97 -1.65879 -1.30566 0
M  V30 3342 O 317.318 -0.979391 -2.06447 0
M  V30 3343 C 317.528 -3.45279 0.508304 0
M  V30 3344 C 318.876 -4.22209 0.449934 0
M  V30 3345 O 319.9 -3.53413 0.444677 0
M  V30 3346 O 318.759 -5.44788 0.432189 0
M  V30 3347 H 315.853 -0.826459 0.0299026 0
M  V30 3348 H 318.399 -1.49719 0.7989 0
M  V30 3349 H 317.171 -3.59619 1.54239 0
M  V30 3350 H 316.794 -3.97386 -0.130525 0
M  V30 3351 N 317.792 -0.46758 -1.50504 0
M  V30 3352 C 318.755 0.317059 -2.26996 0
M  V30 3353 C 319.755 0.923513 -1.31635 0
M  V30 3354 O 320.945 0.793239 -1.55091 0
M  V30 3355 C 318.077 1.45134 -3.08462 0
M  V30 3356 H 319.27 -0.353723 -2.97807 0
M  V30 3357 H 316.823 -0.221545 -1.54722 0
M  V30 3358 H 317.558 2.15728 -2.4214 0
M  V30 3359 H 317.343 1.02232 -3.78538 0
M  V30 3360 H 318.833 2.00493 -3.66323 0
M  V30 3361 N 319.27 1.56325 -0.20005 0
M  V30 3362 C 320.516 1.98012 0.438059 0
M  V30 3363 C 320.849 1.08702 1.60927 0
M  V30 3364 O 320.124 0.140064 1.93995 0
M  V30 3365 C 320.407 3.48841 0.893419 0
M  V30 3366 C 320.26 4.48928 -0.279947 0
M  V30 3367 C 321.579 4.03498 1.75719 0
M  V30 3368 H 318.698 0.719918 0.157757 0
M  V30 3369 H 321.34 1.87743 -0.291968 0
M  V30 3370 H 319.49 3.57723 1.51547 0
M  V30 3371 H 321.162 4.52079 -0.91772 0
M  V30 3372 H 319.405 4.23694 -0.930919 0
M  V30 3373 H 320.076 5.5194 0.0812601 0
M  V30 3374 H 322.552 3.97427 1.23253 0
M  V30 3375 H 321.428 5.09393 2.04476 0
M  V30 3376 H 321.689 3.4906 2.71311 0
M  V30 3377 N 320.748 -0.0735177 1.57428 0
M  V30 3378 C 321.996 -0.771472 1.86796 0
M  V30 3379 C 322.317 -1.78201 0.791804 0
M  V30 3380 O 321.587 -1.95074 -0.179718 0
M  V30 3381 H 320.167 -0.28791 0.689287 0
M  V30 3382 H 322.829 -0.0500161 1.94836 0
M  V30 3383 H 321.925 -1.28874 2.8425 0
M  V30 3384 N 322.226 -1.5378 -0.344866 0
M  V30 3385 C 323.159 -1.7649 -1.4466 0
M  V30 3386 C 324.137 -0.613954 -1.50563 0
M  V30 3387 O 325.321 -0.84896 -1.683 0
M  V30 3388 C 322.448 -1.86235 -2.82903 0
M  V30 3389 C 321.494 -3.08375 -2.94631 0
M  V30 3390 S 322.327 -4.67457 -2.61236 0
M  V30 3391 C 323.483 -4.80079 -4.0159 0
M  V30 3392 H 323.716 -2.69661 -1.2518 0
M  V30 3393 H 321.249 -1.44632 -0.540455 0
M  V30 3394 H 323.207 -1.92535 -3.62547 0
M  V30 3395 H 321.868 -0.940786 -2.9968 0
M  V30 3396 H 321.061 -3.11865 -3.95925 0
M  V30 3397 H 320.663 -3.00294 -2.22934 0
M  V30 3398 H 322.955 -4.61407 -4.96094 0
M  V30 3399 H 323.898 -5.82168 -4.03095 0
M  V30 3400 H 324.306 -4.08544 -3.89554 0
M  V30 3401 N 323.704 0.605807 -1.45491 0
M  V30 3402 C 324.929 1.39625 -1.53361 0
M  V30 3403 C 325.354 1.87351 -0.167645 0
M  V30 3404 O 324.712 1.60243 0.848051 0
M  V30 3405 C 324.76 2.57559 -2.5238 0
M  V30 3406 O 323.864 3.58248 -2.04285 0
M  V30 3407 H 323.205 0.416771 -0.516912 0
M  V30 3408 H 325.735 0.737103 -1.90861 0
M  V30 3409 H 325.745 3.0478 -2.71244 0
M  V30 3410 H 324.42 2.22171 -3.51586 0
M  V30 3411 H 322.997 3.17664 -1.95305 0
M  V30 3412 N 325.182 1.32811 0.848464 0
M  V30 3413 C 326.41 1.26739 1.63538 0
M  V30 3414 C 326.825 -0.163484 1.88091 0
M  V30 3415 O 326.182 -1.10258 1.45429 0
M  V30 3416 C 326.233 2.03013 2.99112 0
M  V30 3417 O 325.954 3.40518 2.75643 0
M  V30 3418 C 327.455 2.04038 3.93552 0
M  V30 3419 H 324.675 0.437024 0.509167 0
M  V30 3420 H 327.219 1.75033 1.05753 0
M  V30 3421 H 325.374 1.58426 3.53525 0
M  V30 3422 H 325.788 3.79635 3.61908 0
M  V30 3423 H 327.262 2.61877 4.85926 0
M  V30 3424 H 327.739 1.0282 4.26995 0
M  V30 3425 H 328.345 2.486 3.45077 0
M  V30 3426 N 326.66 -1.06551 1.16123 0
M  V30 3427 C 327.906 -1.79567 0.94252 0
M  V30 3428 C 328.239 -1.86869 -0.528547 0
M  V30 3429 O 327.514 -1.35838 -1.39206 0
M  V30 3430 C 327.797 -3.24195 1.56747 0
M  V30 3431 C 327.65 -3.24989 3.10969 0
M  V30 3432 C 328.969 -4.21678 1.25998 0
M  V30 3433 H 326.088 -0.651883 0.343828 0
M  V30 3434 H 328.73 -1.2463 1.43413 0
M  V30 3435 H 326.88 -3.71107 1.14942 0
M  V30 3436 H 328.552 -2.86258 3.61737 0
M  V30 3437 H 326.795 -2.63716 3.44436 0
M  V30 3438 H 327.466 -4.27005 3.49815 0
M  V30 3439 H 329.942 -3.83196 1.62174 0
M  V30 3440 H 328.818 -5.21146 1.7233 0
M  V30 3441 H 329.079 -4.4174 0.178367 0
M  V30 3442 N 328.138 -0.959301 -1.25041 0
M  V30 3443 C 329.549 -0.65667 -1.74771 0
M  V30 3444 C 329.9 0.827852 -1.77879 0
M  V30 3445 O 329.025 1.64783 -1.40269 0
M  V30 3446 C 329.62 -1.1853 -3.1739 0
M  V30 3447 C 328.179 -0.932734 -3.6466 0
M  V30 3448 C 327.326 -1.32558 -2.43564 0
M  V30 3449 H 330.277 -1.13558 -1.10862 0
M  V30 3450 H 330.298 -0.547582 -3.76539 0
M  V30 3451 H 329.81 -2.26576 -3.15095 0
M  V30 3452 H 327.911 0.13257 -3.72364 0
M  V30 3453 H 328.024 -1.57248 -4.52559 0
M  V30 3454 H 326.388 -0.743956 -2.43593 0
M  V30 3455 H 327.171 -2.41537 -2.43957 0
M  V30 3456 N 329.616 1.39756 -0.72842 0
M  V30 3457 C 330.526 2.34444 -0.0855374 0
M  V30 3458 C 331.542 1.57976 0.729356 0
M  V30 3459 O 332.718 1.90301 0.659346 0
M  V30 3460 C 329.783 3.36965 0.815798 0
M  V30 3461 C 328.844 4.29299 -0.0105996 0
M  V30 3462 C 328.077 5.26923 0.84781 0
M  V30 3463 O 328.3 5.30859 2.08673 0
M  V30 3464 O 327.234 6.01249 0.279969 0
M  V30 3465 H 331.06 2.91065 -0.866892 0
M  V30 3466 H 328.645 1.4117 -0.48902 0
M  V30 3467 H 330.527 3.99804 1.33171 0
M  V30 3468 H 329.202 2.82739 1.57608 0
M  V30 3469 H 328.109 3.69703 -0.571877 0
M  V30 3470 H 329.442 4.86712 -0.73295 0
M  V30 3471 N 331.094 0.475555 1.50254 0
M  V30 3472 C 332.34 -0.0780073 2.0265 0
M  V30 3473 C 332.673 -1.38968 1.35652 0
M  V30 3474 O 331.948 -1.8839 0.483691 0
M  V30 3475 C 332.231 -0.257161 3.59181 0
M  V30 3476 C 332.084 1.07585 4.36744 0
M  V30 3477 C 333.403 -1.00965 4.28362 0
M  V30 3478 H 330.522 -0.0268758 0.73651 0
M  V30 3479 H 333.164 0.622015 1.7953 0
M  V30 3480 H 331.314 -0.853412 3.79011 0
M  V30 3481 H 332.986 1.70902 4.28474 0
M  V30 3482 H 331.229 1.6714 4.00308 0
M  V30 3483 H 331.9 0.904088 5.44546 0
M  V30 3484 H 334.376 -0.504214 4.13034 0
M  V30 3485 H 333.252 -1.10381 5.37687 0
M  V30 3486 H 333.513 -2.04731 3.91839 0
M  V30 3487 N 332.573 -1.56217 0.208337 0
M  V30 3488 C 333.822 -1.97124 -0.427204 0
M  V30 3489 C 334.135 -1.09859 -1.61835 0
M  V30 3490 O 335.341 -1.40606 -2.32255 0
M  V30 3491 C 333.797 -3.50633 -0.811442 0
M  V30 3492 C 333.405 -4.46582 0.35615 0
M  V30 3493 C 335.149 -4.00282 -1.41332 0
M  V30 3494 C 333.056 -5.91379 -0.0497852 0
M  V30 3495 H 331.986 -0.736086 -0.163381 0
M  V30 3496 H 334.637 -1.8099 0.302456 0
M  V30 3497 H 333.019 -3.62319 -1.59815 0
M  V30 3498 H 334.193 -4.46636 1.1337 0
M  V30 3499 H 332.508 -4.07202 0.870396 0
M  V30 3500 H 335.105 -5.0595 -1.72972 0
M  V30 3501 H 335.448 -3.45359 -2.32449 0
M  V30 3502 H 335.981 -3.91764 -0.690323 0
M  V30 3503 H 332.72 -6.50255 0.827529 0
M  V30 3504 H 332.24 -5.94549 -0.791926 0
M  V30 3505 H 333.919 -6.45209 -0.481042 0
M  V30 3506 N 334.051 0.0651679 -1.57465 0
M  V30 3507 C 335.297 0.764193 -1.87851 0
M  V30 3508 C 335.63 1.76889 -0.801495 0
M  V30 3509 O 334.905 1.93594 0.187528 0
M  V30 3510 C 335.188 1.46625 -3.28897 0
M  V30 3511 C 335.041 0.477515 -4.47258 0
M  V30 3512 C 336.36 2.4095 -3.68281 0
M  V30 3513 H 333.479 0.276351 -0.683227 0
M  V30 3514 H 336.121 0.0272868 -1.8998 0
M  V30 3515 H 334.271 2.09438 -3.27212 0
M  V30 3516 H 335.943 -0.145922 -4.61069 0
M  V30 3517 H 334.186 -0.206576 -4.33308 0
M  V30 3518 H 334.857 1.0065 -5.42746 0
M  V30 3519 H 337.333 1.88209 -3.71102 0
M  V30 3520 H 336.209 2.87072 -4.67847 0
M  V30 3521 H 336.47 3.26049 -2.98571 0
M  V30 3522 N 335.529 1.53961 0.336706 0
M  V30 3523 C 336.492 1.81724 1.39675 0
M  V30 3524 C 337.492 0.688532 1.45313 0
M  V30 3525 O 338.682 0.956829 1.45569 0
M  V30 3526 C 335.814 1.96543 2.78538 0
M  V30 3527 H 337.007 2.76424 1.16318 0
M  V30 3528 H 334.56 1.45478 0.571474 0
M  V30 3529 H 335.295 1.0401 3.07168 0
M  V30 3530 H 335.08 2.78665 2.75841 0
M  V30 3531 H 336.57 2.19516 3.5525 0
M  V30 3532 N 337.007 -0.598083 1.45811 0
M  V30 3533 C 338.423 -0.919847 1.30426 0
M  V30 3534 C 338.623 -1.99759 0.264303 0
M  V30 3535 O 337.679 -2.50221 -0.338472 0
M  V30 3536 C 338.992 -1.35176 2.68603 0
M  V30 3537 C 340.54 -1.46546 2.76574 0
M  V30 3538 C 341.015 -1.9311 4.15298 0
M  V30 3539 N 342.506 -2.00328 4.1764 0
M  V30 3540 C 343.241 -2.37599 5.21856 0
M  V30 3541 N 342.737 -2.73771 6.36413 0
M  V30 3542 N 344.53 -2.38021 5.09218 0
M  V30 3543 H 336.681 0.114111 2.12093 0
M  V30 3544 H 338.944 -0.0116121 0.947929 0
M  V30 3545 H 338.65 -0.633969 3.45939 0
M  V30 3546 H 338.524 -2.3164 2.97696 0
M  V30 3547 H 340.911 -2.17415 1.99537 0
M  V30 3548 H 340.992 -0.483727 2.51185 0
M  V30 3549 H 340.636 -1.22824 4.92825 0
M  V30 3550 H 340.566 -2.92213 4.38086 0
M  V30 3551 H 343.057 -1.74925 3.34977 0
M  V30 3552 H 343.37 -3.0112 7.11721 0
M  V30 3553 H 341.715 -2.71445 6.39799 0
M  V30 3554 H 344.906 -2.09174 4.18765 0
M  V30 3555 H 345.079 -2.66741 5.90554 0
M  V30 3556 N 338.485 -1.33259 -0.841409 0
M  V30 3557 C 339.435 -1.19872 -1.93945 0
M  V30 3558 C 340.419 -0.102269 -1.60575 0
M  V30 3559 O 341.611 -0.330114 -1.73894 0
M  V30 3560 C 338.74 -0.937517 -3.30251 0
M  V30 3561 C 337.826 -2.07629 -3.69799 0
M  V30 3562 N 338.217 -3.32604 -3.81062 0
M  V30 3563 C 336.515 -1.98242 -3.9952 0
M  V30 3564 C 337.216 -4.07275 -4.15333 0
M  V30 3565 N 336.192 -3.35691 -4.27566 0
M  V30 3566 H 339.994 -2.14604 -2.00805 0
M  V30 3567 H 337.508 -1.2523 -1.03398 0
M  V30 3568 H 339.505 -0.822545 -4.08705 0
M  V30 3569 H 338.165 0.00128798 -3.247 0
M  V30 3570 H 339.176 -3.67382 -3.65035 0
M  V30 3571 H 335.853 -1.12005 -4.02195 0
M  V30 3572 H 337.243 -5.1511 -4.31406 0
M  V30 3573 N 339.963 1.05934 -1.16686 0
M  V30 3574 C 341.203 1.80382 -0.961345 0
M  V30 3575 C 341.567 1.85331 0.501643 0
M  V30 3576 O 342.768 2.55795 0.825986 0
M  V30 3577 C 341.039 3.20777 -1.57596 0
M  V30 3578 S 342.598 4.11795 -1.51559 0
M  V30 3579 H 339.416 0.621332 -0.345641 0
M  V30 3580 H 342.018 1.27157 -1.48497 0
M  V30 3581 H 340.722 3.14773 -2.63337 0
M  V30 3582 H 340.253 3.79078 -1.05182 0
M  V30 3583 H 342.268 4.93485 -0.518374 0
M  V30 3584 N 341.441 0.965919 1.2453 0
M  V30 3585 C 342.689 0.625593 1.92174 0
M  V30 3586 C 343.01 -0.841652 1.75901 0
M  V30 3587 O 342.28 -1.60061 1.12948 0
M  V30 3588 H 340.86 0.228388 0.71123 0
M  V30 3589 H 343.522 1.2266 1.51461 0
M  V30 3590 H 342.618 0.864653 2.99884 0
M  V30 3591 N 342.919 -1.39368 0.735821 0
M  V30 3592 C 343.849 -2.33234 0.111506 0
M  V30 3593 C 344.83 -1.53954 -0.723334 0
M  V30 3594 O 346.015 -1.82344 -0.668147 0
M  V30 3595 C 343.145 -3.38057 -0.795917 0
M  V30 3596 C 342.099 -4.2795 -0.065172 0
M  V30 3597 C 341.425 -5.23479 -1.08967 0
M  V30 3598 C 342.725 -5.10741 1.09273 0
M  V30 3599 H 344.419 -2.85692 0.895571 0
M  V30 3600 H 341.965 -1.37364 0.432109 0
M  V30 3601 H 343.918 -4.02675 -1.24221 0
M  V30 3602 H 342.642 -2.8404 -1.61211 0
M  V30 3603 H 341.301 -3.64813 0.361511 0
M  V30 3604 H 340.949 -4.65758 -1.89944 0
M  V30 3605 H 340.649 -5.84472 -0.605489 0
M  V30 3606 H 342.173 -5.90974 -1.53565 0
M  V30 3607 H 343.587 -5.68699 0.724841 0
M  V30 3608 H 341.984 -5.8088 1.50659 0
M  V30 3609 H 343.054 -4.45525 1.91404 0
M  V30 3610 N 344.397 -0.483516 -1.5 0
M  V30 3611 C 345.813 -0.138404 -1.58999 0
M  V30 3612 C 346.013 1.35597 -1.4905 0
M  V30 3613 O 345.069 2.13039 -1.35539 0
M  V30 3614 C 346.382 -0.699658 -2.92447 0
M  V30 3615 C 347.93 -0.664195 -3.05872 0
M  V30 3616 C 348.405 -1.20321 -4.41913 0
M  V30 3617 N 349.896 -1.16315 -4.48358 0
M  V30 3618 C 350.631 -1.55058 -5.52037 0
M  V30 3619 N 350.127 -2.01311 -6.62907 0
M  V30 3620 N 351.92 -1.46584 -5.42651 0
M  V30 3621 H 344.071 -1.45529 -1.5471 0
M  V30 3622 H 346.334 -0.60258 -0.731848 0
M  V30 3623 H 346.04 -1.747 -3.05242 0
M  V30 3624 H 345.914 -0.150194 -3.76901 0
M  V30 3625 H 348.301 0.374272 -2.92717 0
M  V30 3626 H 348.382 -1.25061 -2.23144 0
M  V30 3627 H 348.026 -2.24037 -4.55818 0
M  V30 3628 H 347.956 -0.592896 -5.23252 0
M  V30 3629 H 350.447 -0.824058 -3.68806 0
M  V30 3630 H 350.76 -2.2899 -7.38095 0
M  V30 3631 H 349.105 -2.05273 -6.63994 0
M  V30 3632 H 352.296 -1.10281 -4.54924 0
M  V30 3633 H 352.469 -1.77103 -6.23329 0
M  V30 3634 N 345.875 1.56104 -0.216619 0
M  V30 3635 C 347.121 1.98466 0.417033 0
M  V30 3636 C 347.454 1.10403 1.59765 0
M  V30 3637 O 346.729 0.160632 1.93836 0
M  V30 3638 C 347.012 3.49769 0.85637 0
M  V30 3639 C 346.865 4.48606 -0.327546 0
M  V30 3640 C 348.184 4.05339 1.7143 0
M  V30 3641 H 345.303 0.721551 0.150112 0
M  V30 3642 H 347.945 1.87423 -0.311864 0
M  V30 3643 H 346.095 3.5931 1.47745 0
M  V30 3644 H 347.767 4.5108 -0.965618 0
M  V30 3645 H 346.01 4.22682 -0.975805 0
M  V30 3646 H 346.681 5.51995 0.0227149 0
M  V30 3647 H 349.157 3.98712 1.19031 0
M  V30 3648 H 348.033 5.11533 1.99061 0
M  V30 3649 H 348.294 3.51918 2.67593 0
M  V30 3650 N 347.353 -0.0568162 1.57498 0
M  V30 3651 C 348.6 -0.753104 1.87975 0
M  V30 3652 C 348.928 -1.76815 0.81035 0
M  V30 3653 O 348.183 -1.94756 -0.19199 0
M  V30 3654 C 348.482 -1.48359 3.25153 0
M  V30 3655 C 348.148 -0.60713 4.46794 0
M  V30 3656 C 346.81 -0.365642 4.79809 0
M  V30 3657 C 349.162 -0.000305978 5.212 0
M  V30 3658 C 346.49 0.491905 5.84634 0
M  V30 3659 C 348.842 0.844781 6.26934 0
M  V30 3660 C 347.506 1.096 6.58441 0
M  V30 3661 H 346.776 -0.27558 0.687849 0
M  V30 3662 H 349.423 -0.0135173 1.91495 0
M  V30 3663 H 347.728 -2.29577 3.17492 0
M  V30 3664 H 349.425 -2.02739 3.45974 0
M  V30 3665 H 346.015 -0.805487 4.20963 0
M  V30 3666 H 350.199 -0.173961 4.95995 0
M  V30 3667 H 345.455 0.695131 6.07436 0
M  V30 3668 H 349.629 1.32165 6.83744 0
M  V30 3669 H 347.256 1.76224 7.39492 0
M  V30 3670 N 348.832 -1.54138 -0.328536 0
M  V30 3671 C 350.08 -1.71765 -1.06496 0
M  V30 3672 C 350.401 -0.49149 -1.88704 0
M  V30 3673 O 349.671 0.494539 -1.89555 0
M  V30 3674 H 348.251 -0.633295 -0.396164 0
M  V30 3675 H 350.913 -1.91429 -0.366176 0
M  V30 3676 H 350.009 -2.5951 -1.73381 0
M  V30 3677 N 350.31 0.590341 -1.46126 0
M  V30 3678 C 351.557 1.34882 -1.5104 0
M  V30 3679 C 351.885 1.93849 -0.159021 0
M  V30 3680 O 351.14 1.76544 0.844436 0
M  V30 3681 C 351.439 2.5032 -2.55097 0
M  V30 3682 C 351.105 2.09394 -3.99331 0
M  V30 3683 C 349.767 1.97947 -4.38601 0
M  V30 3684 C 352.119 1.77712 -4.89967 0
M  V30 3685 C 349.447 1.53065 -5.66381 0
M  V30 3686 C 351.799 1.34312 -6.18177 0
M  V30 3687 C 350.463 1.21436 -6.56361 0
M  V30 3688 H 349.733 0.493568 -0.552695 0
M  V30 3689 H 352.38 0.665539 -1.79563 0
M  V30 3690 H 350.685 3.24062 -2.20207 0
M  V30 3691 H 352.382 3.08541 -2.56132 0
M  V30 3692 H 348.972 2.19235 -3.68285 0
M  V30 3693 H 353.156 1.85445 -4.60352 0
M  V30 3694 H 348.412 1.41733 -5.94745 0
M  V30 3695 H 352.586 1.08849 -6.87841 0
M  V30 3696 H 350.213 0.864345 -7.5527 0
M  V30 3697 N 351.788 1.33704 0.83433 0
M  V30 3698 C 353.013 1.28615 1.62705 0
M  V30 3699 C 353.438 -0.139242 1.87584 0
M  V30 3700 O 352.796 -1.09734 1.4432 0
M  V30 3701 C 352.844 2.07139 2.95171 0
M  V30 3702 O 351.948 1.4331 3.86699 0
M  V30 3703 H 351.289 0.44226 0.49528 0
M  V30 3704 H 353.819 1.76335 1.03766 0
M  V30 3705 H 353.829 2.18073 3.44831 0
M  V30 3706 H 352.504 3.10779 2.76386 0
M  V30 3707 H 351.081 1.4105 3.45195 0
M  V30 3708 N 353.266 -1.05314 1.17247 0
M  V30 3709 C 354.196 -2.1498 0.911362 0
M  V30 3710 C 355.177 -1.69471 -0.146169 0
M  V30 3711 O 356.362 -1.942 0.003812 0
M  V30 3712 C 353.492 -3.4472 0.422528 0
M  V30 3713 C 352.446 -4.03789 1.4191 0
M  V30 3714 C 351.772 -5.28858 0.788274 0
M  V30 3715 C 353.072 -4.41418 2.7919 0
M  V30 3716 H 354.766 -2.3708 1.82848 0
M  V30 3717 H 352.312 -1.13938 0.880569 0
M  V30 3718 H 354.265 -4.20787 0.227289 0
M  V30 3719 H 352.989 -3.22269 -0.530123 0
M  V30 3720 H 351.648 -3.2979 1.60106 0
M  V30 3721 H 351.296 -5.02709 -0.171173 0
M  V30 3722 H 350.996 -5.69338 1.45353 0
M  V30 3723 H 352.52 -6.07612 0.603282 0
M  V30 3724 H 353.934 -5.08524 2.64719 0
M  V30 3725 H 352.331 -4.92913 3.42282 0
M  V30 3726 H 353.401 -3.51819 3.33693 0
M  V30 3727 N 354.744 -0.972509 -1.24016 0
M  V30 3728 C 355.993 -0.632603 -1.91523 0
M  V30 3729 C 356.306 0.836641 -1.76804 0
M  V30 3730 O 357.512 1.28728 -2.39043 0
M  V30 3731 C 355.968 -1.08082 -3.43287 0
M  V30 3732 C 355.576 -2.57386 -3.66683 0
M  V30 3733 C 357.32 -0.814288 -4.16617 0
M  V30 3734 C 355.227 -2.95915 -5.12043 0
M  V30 3735 H 354.157 -0.232898 -0.717129 0
M  V30 3736 H 356.808 -1.17936 -1.40582 0
M  V30 3737 H 355.19 -0.462339 -3.93292 0
M  V30 3738 H 356.364 -3.24405 -3.27258 0
M  V30 3739 H 354.679 -2.81701 -3.06649 0
M  V30 3740 H 357.276 -1.0781 -5.23718 0
M  V30 3741 H 357.619 0.24955 -4.15551 0
M  V30 3742 H 358.152 -1.39397 -3.72577 0
M  V30 3743 H 354.891 -4.0139 -5.18234 0
M  V30 3744 H 354.411 -2.33584 -5.52448 0
M  V30 3745 H 356.09 -2.86086 -5.80314 0
M  V30 3746 N 356.222 1.38976 -0.743202 0
M  V30 3747 C 357.45 2.04636 -0.30525 0
M  V30 3748 C 357.865 1.56044 1.06281 0
M  V30 3749 O 357.222 0.728921 1.67311 0
M  V30 3750 C 357.273 3.60193 -0.307177 0
M  V30 3751 O 356.994 4.06998 -1.62124 0
M  V30 3752 C 358.495 4.4306 0.145928 0
M  V30 3753 H 355.715 0.65788 -0.132041 0
M  V30 3754 H 358.259 1.77866 -1.00915 0
M  V30 3755 H 356.414 3.85835 0.347898 0
M  V30 3756 H 356.828 5.01371 -1.54036 0
M  V30 3757 H 358.302 5.51921 0.0934183 0
M  V30 3758 H 358.779 4.22706 1.19231 0
M  V30 3759 H 359.385 4.22584 -0.479886 0
M  V30 3760 N 357.7 0.491464 1.49741 0
M  V30 3761 C 358.648 -0.305837 2.30581 0
M  V30 3762 C 359.642 -0.971642 1.38764 0
M  V30 3763 O 360.848 -0.90042 1.5586 0
M  V30 3764 H 357.223 -0.117482 0.742767 0
M  V30 3765 H 359.194 0.396093 2.95759 0
M  V30 3766 C 357.943 -1.36319 3.19863 0
M  V30 3767 H 357.266 -0.860258 3.90435 0
M  V30 3768 H 358.706 -1.89323 3.79385 0
M  V30 3769 C 357.165 -2.37621 2.38826 0
M  V30 3770 O 357.695 -3.43311 2.08567 0
M  V30 3771 N 355.901 -2.09849 2.01026 0
M  V30 3772 H 355.448 -1.23922 2.25834 0
M  V30 3773 H 355.406 -2.77859 1.47112 0
M  V30 3774 N 359.178 -1.55987 0.224894 0
M  V30 3775 C 360.125 -2.20436 -0.68385 0
M  V30 3776 C 361.095 -1.16102 -1.18783 0
M  V30 3777 O 362.28 -1.4447 -1.24632 0
M  V30 3778 C 359.42 -2.89076 -1.88491 0
M  V30 3779 C 358.533 -4.08012 -1.41951 0
M  V30 3780 C 357.668 -4.64426 -2.5784 0
M  V30 3781 C 356.707 -5.75656 -2.08053 0
M  V30 3782 N 355.844 -6.26347 -3.17227 0
M  V30 3783 H 360.684 -2.97727 -0.12754 0
M  V30 3784 H 358.221 -1.47011 -0.0511978 0
M  V30 3785 H 360.179 -3.27059 -2.59014 0
M  V30 3786 H 358.809 -2.14298 -2.41405 0
M  V30 3787 H 357.861 -3.75492 -0.609095 0
M  V30 3788 H 359.173 -4.88375 -1.01447 0
M  V30 3789 H 358.327 -5.04869 -3.3644 0
M  V30 3790 H 357.066 -3.83233 -3.01635 0
M  V30 3791 H 356.071 -5.34712 -1.27916 0
M  V30 3792 H 357.296 -6.58686 -1.65255 0
M  V30 3793 H 355.242 -5.48067 -3.60497 0
M  V30 3794 H 355.159 -7.01843 -2.80986 0
M  V30 3795 H 356.427 -6.71447 -3.95953 0
M  V30 3796 N 360.656 0.0484629 -1.57525 0
M  V30 3797 C 361.902 0.744226 -1.88651 0
M  V30 3798 C 362.235 1.76029 -0.820212 0
M  V30 3799 O 361.51 1.93782 0.166985 0
M  V30 3800 C 361.793 1.43128 -3.30434 0
M  V30 3801 C 361.646 0.43005 -4.47739 0
M  V30 3802 C 362.965 2.37031 -3.70816 0
M  V30 3803 H 360.084 0.269089 -0.68612 0
M  V30 3804 H 362.726 0.00713532 -1.89999 0
M  V30 3805 H 360.876 2.05956 -3.29415 0
M  V30 3806 H 362.548 -0.194816 -4.60888 0
M  V30 3807 H 360.791 -0.252522 -4.33064 0
M  V30 3808 H 361.462 0.948874 -5.43783 0
M  V30 3809 H 363.938 1.84263 -3.73077 0
M  V30 3810 H 362.814 2.82094 -4.70865 0
M  V30 3811 H 363.075 3.22864 -3.02012 0
M  V30 3812 N 362.134 1.5431 0.320358 0
M  V30 3813 C 363.383 1.7188 1.05546 0
M  V30 3814 C 363.696 0.501143 1.89071 0
M  V30 3815 O 364.902 0.558258 2.65699 0
M  V30 3816 C 363.358 3.04025 1.92605 0
M  V30 3817 C 362.966 4.33207 1.14176 0
M  V30 3818 C 364.71 3.30959 2.65832 0
M  V30 3819 C 362.617 5.56412 2.00399 0
M  V30 3820 H 361.547 0.640547 0.397763 0
M  V30 3821 H 364.198 1.80802 0.313522 0
M  V30 3822 H 362.58 2.89019 2.7071 0
M  V30 3823 H 363.754 4.58989 0.40819 0
M  V30 3824 H 362.069 4.13062 0.526165 0
M  V30 3825 H 364.666 4.20203 3.30656 0
M  V30 3826 H 365.009 2.48979 3.33639 0
M  V30 3827 H 365.542 3.46847 1.94787 0
M  V30 3828 H 362.281 6.41004 1.37094 0
M  V30 3829 H 361.801 5.34844 2.7148 0
M  V30 3830 H 363.48 5.92938 2.58908 0
M  V30 3831 N 363.613 -0.582584 1.46437 0
M  V30 3832 C 364.546 -1.70633 1.51524 0
M  V30 3833 C 365.524 -1.58349 0.369351 0
M  V30 3834 O 366.708 -1.79563 0.573516 0
M  V30 3835 C 363.835 -3.08687 1.39392 0
M  V30 3836 C 362.881 -3.3949 2.58164 0
M  V30 3837 S 363.714 -3.31548 4.20519 0
M  V30 3838 C 364.87 -4.72139 4.10896 0
M  V30 3839 H 365.103 -1.66058 2.46601 0
M  V30 3840 H 362.636 -0.761337 1.34324 0
M  V30 3841 H 364.594 -3.8833 1.33079 0
M  V30 3842 H 363.255 -3.10751 0.457436 0
M  V30 3843 H 362.448 -4.40071 2.45669 0
M  V30 3844 H 362.05 -2.67415 2.61468 0
M  V30 3845 H 364.342 -5.62527 3.77584 0
M  V30 3846 H 365.285 -4.89692 5.11476 0
M  V30 3847 H 365.693 -4.48995 3.42146 0
M  V30 3848 N 365.091 -1.34144 -0.827227 0
M  V30 3849 C 366.368 -1.16844 -1.56865 0
M  V30 3850 C 366.748 0.260654 -2.09485 0
M  V30 3851 O 366.096 1.26138 -1.9053 0
M  V30 3852 C 366.306 -2.21939 -2.6934 0
M  V30 3853 C 367.654 -2.56695 -3.3822 0
M  V30 3854 O 368.678 -2.20695 -2.79593 0
M  V30 3855 O 367.537 -3.18518 -4.44082 0
M  V30 3856 H 364.631 -0.452669 -0.692112 0
M  V30 3857 H 367.177 -1.45763 -0.868973 0
M  V30 3858 H 365.949 -3.17882 -2.28182 0
M  V30 3859 H 365.572 -1.94172 -3.46962 0
M  V30 3860 N 366.569 1.04691 -1.17803 0
M  V30 3861 C 367.799 1.81183 -0.992788 0
M  V30 3862 C 368.207 1.8347 0.462098 0
M  V30 3863 O 367.55 1.2643 1.33271 0
M  V30 3864 C 367.612 3.28363 -1.46349 0
M  V30 3865 C 367.276 3.49749 -2.94151 0
M  V30 3866 C 368.273 3.41456 -3.92051 0
M  V30 3867 C 365.958 3.76548 -3.32441 0
M  V30 3868 C 367.952 3.59656 -5.26238 0
M  V30 3869 C 365.639 3.94396 -4.66792 0
M  V30 3870 C 366.637 3.8595 -5.635 0
M  V30 3871 O 366.325 4.03294 -6.9542 0
M  V30 3872 H 366.057 0.577622 -0.351182 0
M  V30 3873 H 368.611 1.32876 -1.5663 0
M  V30 3874 H 366.841 3.77609 -0.833574 0
M  V30 3875 H 368.53 3.86395 -1.24313 0
M  V30 3876 H 369.296 3.20723 -3.63815 0
M  V30 3877 H 365.175 3.82224 -2.57732 0
M  V30 3878 H 368.719 3.52979 -6.01707 0
M  V30 3879 H 364.616 4.14622 -4.94731 0
M  V30 3880 H 365.384 4.2049 -7.02232 0
M  V30 3881 N 368.047 0.979072 1.23499 0
M  V30 3882 C 368.957 0.526431 2.28617 0
M  V30 3883 C 369.973 -0.418126 1.68901 0
M  V30 3884 O 371.149 -0.288372 1.99325 0
M  V30 3885 C 368.214 -0.165235 3.46306 0
M  V30 3886 C 367.275 0.82056 4.21385 0
M  V30 3887 C 366.508 0.161807 5.33455 0
M  V30 3888 O 366.731 -1.04742 5.60701 0
M  V30 3889 O 365.665 0.859708 5.95729 0
M  V30 3890 H 369.491 1.4006 2.69475 0
M  V30 3891 H 367.076 0.746643 1.29405 0
M  V30 3892 H 368.958 -0.553287 4.17752 0
M  V30 3893 H 367.633 -1.01419 3.07402 0
M  V30 3894 H 366.54 1.25929 3.52268 0
M  V30 3895 H 367.873 1.63828 4.64135 0
M  V30 3896 N 369.525 -1.3858 0.750561 0
M  V30 3897 C 370.75 -2.04997 0.314812 0
M  V30 3898 C 371.175 -1.56235 -1.04749 0
M  V30 3899 O 370.533 -0.712981 -1.66692 0
M  V30 3900 C 370.581 -3.58961 0.343415 0
M  V30 3901 O 369.685 -4.07025 -0.663628 0
M  V30 3902 H 369.026 -0.649081 0.139962 0
M  V30 3903 H 371.556 -1.77313 1.02084 0
M  V30 3904 H 371.566 -4.07542 0.193233 0
M  V30 3905 H 370.241 -3.93811 1.33738 0
M  V30 3906 H 368.818 -3.6982 -0.478307 0
M  V30 3907 N 371.003 -0.499398 -1.49478 0
M  V30 3908 C 371.933 0.269244 -2.31943 0
M  V30 3909 C 372.914 0.964054 -1.40143 0
M  V30 3910 O 374.099 0.955767 -1.69052 0
M  V30 3911 C 371.229 1.33504 -3.20615 0
M  V30 3912 C 370.183 0.760202 -4.21195 0
M  V30 3913 C 369.509 1.9264 -4.98792 0
M  V30 3914 C 370.809 -0.247661 -5.21712 0
M  V30 3915 H 372.503 -0.419082 -2.96452 0
M  V30 3916 H 370.049 -0.202988 -1.42562 0
M  V30 3917 H 372.002 1.88048 -3.77115 0
M  V30 3918 H 370.726 2.05253 -2.54045 0
M  V30 3919 H 369.385 0.23653 -3.65836 0
M  V30 3920 H 369.033 2.63154 -4.28671 0
M  V30 3921 H 368.733 1.54785 -5.66847 0
M  V30 3922 H 370.257 2.4762 -5.58137 0
M  V30 3923 H 371.671 0.209579 -5.72917 0
M  V30 3924 H 370.068 -0.541962 -5.97648 0
M  V30 3925 H 371.138 -1.16409 -4.7072 0
M  V30 3926 N 372.481 1.55866 -0.233164 0
M  V30 3927 C 373.391 2.24431 0.683217 0
M  V30 3928 C 374.407 1.2558 1.2044 0
M  V30 3929 O 375.583 1.58422 1.24356 0
M  V30 3930 C 372.648 2.91979 1.86947 0
M  V30 3931 C 371.709 4.06204 1.38912 0
M  V30 3932 C 370.942 4.70522 2.51883 0
M  V30 3933 O 371.165 4.33865 3.70293 0
M  V30 3934 O 370.099 5.59296 2.22423 0
M  V30 3935 H 373.925 3.03426 0.129059 0
M  V30 3936 H 371.51 1.494 -0.0022283 0
M  V30 3937 H 373.392 3.34573 2.56201 0
M  V30 3938 H 372.067 2.15935 2.41151 0
M  V30 3939 H 370.974 3.68155 0.664259 0
M  V30 3940 H 372.307 4.84025 0.893328 0
M  V30 3941 N 373.959 -0.0401083 1.57549 0
M  V30 3942 C 374.906 -1.04413 2.05831 0
M  V30 3943 C 375.876 -1.36585 0.945184 0
M  V30 3944 O 377.061 -1.47112 1.21502 0
M  V30 3945 C 374.201 -2.34336 2.53339 0
M  V30 3946 C 373.314 -2.08419 3.78398 0
M  V30 3947 C 372.449 -3.32133 4.14561 0
M  V30 3948 C 371.488 -3.01721 5.3257 0
M  V30 3949 N 370.625 -4.17855 5.64218 0
M  V30 3950 H 375.465 -0.625442 2.91363 0
M  V30 3951 H 373.002 -0.297218 1.44066 0
M  V30 3952 H 374.96 -3.10234 2.78946 0
M  V30 3953 H 373.59 -2.73948 1.7074 0
M  V30 3954 H 372.642 -1.23069 3.59942 0
M  V30 3955 H 373.954 -1.81978 4.64419 0
M  V30 3956 H 373.108 -4.16406 4.41238 0
M  V30 3957 H 371.847 -3.61678 3.2717 0
M  V30 3958 H 370.852 -2.15849 5.05657 0
M  V30 3959 H 372.077 -2.73466 6.21605 0
M  V30 3960 H 370.023 -4.47372 4.79786 0
M  V30 3961 H 369.94 -3.94798 6.44725 0
M  V30 3962 H 371.208 -5.03033 5.95465 0
M  V30 3963 N 375.437 -1.54477 -0.31217 0
M  V30 3964 C 376.4 -1.83923 -1.36766 0
M  V30 3965 C 377.4 -0.711563 -1.44199 0
M  V30 3966 O 378.59 -0.979866 -1.44029 0
M  V30 3967 C 375.722 -2.0095 -2.75376 0
M  V30 3968 H 376.915 -2.78239 -1.11906 0
M  V30 3969 H 374.468 -1.46369 -0.548257 0
M  V30 3970 H 375.203 -1.08883 -3.05475 0
M  V30 3971 H 374.988 -2.83018 -2.71373 0
M  V30 3972 H 376.478 -2.2514 -3.51713 0
M  V30 3973 N 376.915 0.57481 -1.46744 0
M  V30 3974 C 377.863 1.70435 -1.58286 0
M  V30 3975 C 378.857 1.63287 -0.450956 0
M  V30 3976 O 380.063 1.68685 -0.628121 0
M  V30 3977 H 376.438 0.56364 -0.497809 0
M  V30 3978 H 378.409 1.57833 -2.53242 0
M  V30 3979 C 377.158 3.08815 -1.59776 0
M  V30 3980 H 376.481 3.1499 -2.46214 0
M  V30 3981 H 377.921 3.87588 -1.71905 0
M  V30 3982 C 376.38 3.35301 -0.327812 0
M  V30 3983 O 376.91 3.97511 0.57861 0
M  V30 3984 N 375.116 2.89816 -0.213274 0
M  V30 3985 H 374.663 2.39371 -0.951798 0
M  V30 3986 H 374.621 3.0791 0.63553 0
M  V30 3987 N 378.394 1.34581 0.820102 0
M  V30 3988 C 379.344 1.22943 1.92013 0
M  V30 3989 C 380.328 0.127802 1.60392 0
M  V30 3990 O 381.52 0.357737 1.73347 0
M  V30 3991 C 378.649 0.989938 3.28717 0
M  V30 3992 C 377.735 2.13486 3.66449 0
M  V30 3993 N 378.126 3.38625 3.75722 0
M  V30 3994 C 376.424 2.04573 3.96315 0
M  V30 3995 C 377.125 4.13832 4.08801 0
M  V30 3996 N 376.101 3.42451 4.22171 0
M  V30 3997 H 379.903 2.17771 1.97365 0
M  V30 3998 H 377.417 1.2686 1.01392 0
M  V30 3999 H 379.414 0.887462 4.07345 0
M  V30 4000 H 378.074 0.0503691 3.24661 0
M  V30 4001 H 379.085 3.73143 3.59144 0
M  V30 4002 H 375.762 1.1839 4.00362 0
M  V30 4003 H 377.152 5.21909 4.23156 0
M  V30 4004 N 379.872 -1.04064 1.18357 0
M  V30 4005 C 380.782 -2.15569 0.925596 0
M  V30 4006 C 381.798 -1.7365 -0.110295 0
M  V30 4007 O 382.974 -2.01273 0.0716218 0
M  V30 4008 C 380.039 -3.43704 0.454836 0
M  V30 4009 C 379.1 -4.00004 1.55869 0
M  V30 4010 C 378.333 -5.22023 1.1103 0
M  V30 4011 O 378.556 -5.70392 -0.0309756 0
M  V30 4012 O 377.49 -5.70856 1.90805 0
M  V30 4013 H 381.316 -2.40187 1.8586 0
M  V30 4014 H 378.901 -1.1402 0.965394 0
M  V30 4015 H 380.783 -4.20923 0.200382 0
M  V30 4016 H 379.458 -3.20559 -0.449876 0
M  V30 4017 H 378.365 -3.24172 1.86716 0
M  V30 4018 H 379.698 -4.2749 2.43953 0
M  V30 4019 N 381.35 -0.985608 -1.22978 0
M  V30 4020 C 382.26 -0.538548 -2.28335 0
M  V30 4021 C 383.276 0.409163 -1.69121 0
M  V30 4022 O 384.452 0.277797 -1.99475 0
M  V30 4023 C 381.517 0.146867 -3.46389 0
M  V30 4024 C 380.578 -0.842896 -4.20944 0
M  V30 4025 C 379.811 -0.190095 -5.33361 0
M  V30 4026 O 380.034 1.01767 -5.61248 0
M  V30 4027 O 378.968 -0.891289 -5.95264 0
M  V30 4028 H 382.794 -1.41487 -2.68729 0
M  V30 4029 H 380.379 -0.753495 -1.29007 0
M  V30 4030 H 382.261 0.531125 -4.1804 0
M  V30 4031 H 380.936 0.997871 -3.07935 0
M  V30 4032 H 379.843 -1.27795 -3.51595 0
M  V30 4033 H 381.176 -1.66287 -4.6326 0
M  V30 4034 N 382.828 1.3818 -0.7579 0
M  V30 4035 C 384.074 2.00316 -0.316453 0
M  V30 4036 C 384.407 1.60026 1.10025 0
M  V30 4037 O 383.682 0.839835 1.75434 0
M  V30 4038 C 383.965 3.57349 -0.444245 0
M  V30 4039 C 383.818 4.07591 -1.90236 0
M  V30 4040 C 385.137 4.3981 0.1598 0
M  V30 4041 H 382.256 0.727741 -0.116459 0
M  V30 4042 H 384.898 1.6406 -0.958352 0
M  V30 4043 H 383.048 3.88365 0.102233 0
M  V30 4044 H 384.72 3.87199 -2.50748 0
M  V30 4045 H 382.963 3.60297 -2.41595 0
M  V30 4046 H 383.634 5.16677 -1.94291 0
M  V30 4047 H 386.11 4.14971 -0.306314 0
M  V30 4048 H 384.986 5.48885 0.0401675 0
M  V30 4049 H 385.247 4.24102 1.24859 0
M  V30 4050 N 384.306 0.507319 1.49211 0
M  V30 4051 C 385.236 -0.256939 2.32082 0
M  V30 4052 C 386.217 -0.956609 1.40652 0
M  V30 4053 O 387.402 -0.946788 1.69557 0
M  V30 4054 C 384.532 -1.31802 3.21318 0
M  V30 4055 C 383.486 -0.737855 4.21592 0
M  V30 4056 C 382.812 -1.89992 4.99807 0
M  V30 4057 C 384.112 0.275325 5.21574 0
M  V30 4058 H 385.806 0.434798 2.96226 0
M  V30 4059 H 383.352 0.210546 1.42452 0
M  V30 4060 H 385.305 -1.86045 3.78107 0
M  V30 4061 H 384.029 -2.03903 2.5513 0
M  V30 4062 H 382.688 -0.217126 3.65956 0
M  V30 4063 H 382.336 -2.60877 4.30061 0
M  V30 4064 H 382.036 -1.51777 5.6766 0
M  V30 4065 H 383.56 -2.44657 5.59442 0
M  V30 4066 H 384.974 -0.179193 5.7302 0
M  V30 4067 H 383.371 0.573649 5.97352 0
M  V30 4068 H 384.441 1.18903 4.70096 0
M  V30 4069 N 385.784 -1.5574 0.241426 0
M  V30 4070 C 386.747 -2.19877 -0.647063 0
M  V30 4071 C 387.747 -1.16642 -1.10686 0
M  V30 4072 O 388.937 -1.41757 -1.01245 0
M  V30 4073 C 386.069 -2.83797 -1.88871 0
M  V30 4074 H 387.262 -2.99772 -0.087574 0
M  V30 4075 H 384.815 -1.56298 -0.00813574 0
M  V30 4076 H 385.55 -2.07824 -2.48957 0
M  V30 4077 H 385.335 -3.59414 -1.56728 0
M  V30 4078 H 386.825 -3.32898 -2.52129 0
M  V30 4079 N 387.262 0.0317525 -1.57568 0
M  V30 4080 C 388.225 1.01783 -2.0536 0
M  V30 4081 C 389.225 1.29203 -0.957253 0
M  V30 4082 O 390.415 1.24251 -1.22095 0
M  V30 4083 C 387.547 2.35137 -2.46827 0
M  V30 4084 H 388.74 0.605062 -2.93733 0
M  V30 4085 H 386.293 0.278514 -1.53799 0
M  V30 4086 H 387.028 2.81168 -1.61602 0
M  V30 4087 H 386.813 2.16566 -3.26866 0
M  V30 4088 H 388.303 3.05938 -2.84239 0
M  V30 4089 N 388.74 1.54641 0.303973 0
M  V30 4090 C 389.988 1.73437 1.0375 0
M  V30 4091 C 390.309 0.521449 1.87899 0
M  V30 4092 O 389.579 -0.46432 1.90318 0
M  V30 4093 H 388.159 0.639518 0.386039 0
M  V30 4094 H 390.821 1.91988 0.335675 0
M  V30 4095 H 389.917 2.62235 1.69231 0
M  V30 4096 N 390.218 -0.567019 1.47046 0
M  V30 4097 C 391.165 -1.67489 1.58796 0
M  V30 4098 C 392.135 -1.60399 0.43144 0
M  V30 4099 O 393.32 -1.79378 0.650233 0
M  V30 4100 C 390.46 -3.05821 1.59899 0
M  V30 4101 C 389.573 -3.2342 2.86397 0
M  V30 4102 C 388.708 -4.52093 2.789 0
M  V30 4103 C 387.747 -4.6309 4.00267 0
M  V30 4104 N 386.884 -5.83106 3.91064 0
M  V30 4105 H 391.724 -1.56785 2.53422 0
M  V30 4106 H 389.261 -0.763896 1.2571 0
M  V30 4107 H 391.219 -3.8591 1.58522 0
M  V30 4108 H 389.849 -3.15384 0.687929 0
M  V30 4109 H 388.901 -2.3683 2.97684 0
M  V30 4110 H 390.213 -3.27412 3.76301 0
M  V30 4111 H 389.367 -5.4043 2.75718 0
M  V30 4112 H 388.106 -4.50565 1.86662 0
M  V30 4113 H 387.111 -3.73168 4.03765 0
M  V30 4114 H 388.336 -4.66386 4.93621 0
M  V30 4115 H 386.282 -5.82546 3.01623 0
M  V30 4116 H 386.199 -5.88434 4.74638 0
M  V30 4117 H 387.467 -6.73831 3.91882 0
M  V30 4118 N 391.696 -1.35014 -0.812953 0
M  V30 4119 C 392.628 -1.23262 -1.93233 0
M  V30 4120 C 393.641 -0.157371 -1.62038 0
M  V30 4121 O 394.83 -0.410096 -1.73725 0
M  V30 4122 C 391.93 -0.87392 -3.27438 0
M  V30 4123 C 391.103 -2.04622 -3.86586 0
M  V30 4124 C 390.162 -1.66432 -4.99186 0
M  V30 4125 O 389.188 -2.38222 -5.16951 0
M  V30 4126 N 390.39 -0.584248 -5.77552 0
M  V30 4127 H 393.155 -2.19699 -2.03844 0
M  V30 4128 H 390.716 -1.281 -0.99005 0
M  V30 4129 H 392.708 -0.600039 -4.00227 0
M  V30 4130 H 391.278 0.00057392 -3.126 0
M  V30 4131 H 390.498 -2.48427 -3.06068 0
M  V30 4132 H 391.786 -2.82999 -4.22835 0
M  V30 4133 H 391.184 0.0123526 -5.65699 0
M  V30 4134 H 389.741 -0.37013 -6.50748 0
M  V30 4135 N 393.175 1.03435 -1.18907 0
M  V30 4136 C 394.138 2.09756 -0.923844 0
M  V30 4137 C 395.138 1.60528 0.093416 0
M  V30 4138 O 396.328 1.73631 -0.140727 0
M  V30 4139 C 393.46 3.38692 -0.387354 0
M  V30 4140 H 394.653 2.34719 -1.86674 0
M  V30 4141 H 392.206 1.19959 -1.00197 0
M  V30 4142 H 392.941 3.19396 0.561845 0
M  V30 4143 H 392.726 3.75742 -1.12074 0
M  V30 4144 H 394.216 4.17016 -0.220694 0
M  V30 4145 N 394.653 0.992116 1.22453 0
M  V30 4146 C 395.616 0.546883 2.2258 0
M  V30 4147 C 396.616 -0.369829 1.56489 0
M  V30 4148 O 397.806 -0.161896 1.73446 0
M  V30 4149 C 394.938 -0.204659 3.40285 0
M  V30 4150 H 396.131 1.43234 2.63484 0
M  V30 4151 H 393.684 0.779239 1.3549 0
M  V30 4152 H 394.419 -1.10614 3.04853 0
M  V30 4153 H 394.204 0.45354 3.89468 0
M  V30 4154 H 395.694 -0.504358 4.14543 0
M  V30 4155 N 396.131 -1.37776 0.765217 0
M  V30 4156 C 397.063 -2.28958 0.105361 0
M  V30 4157 C 398.076 -1.48316 -0.67128 0
M  V30 4158 O 399.265 -1.71046 -0.51045 0
M  V30 4159 C 396.365 -3.27421 -0.874569 0
M  V30 4160 C 395.538 -4.37132 -0.153123 0
M  V30 4161 C 394.597 -5.1571 -1.04547 0
M  V30 4162 O 393.623 -5.66896 -0.511672 0
M  V30 4163 N 394.825 -5.29808 -2.37243 0
M  V30 4164 H 397.59 -2.86227 0.888495 0
M  V30 4165 H 395.151 -1.49682 0.617 0
M  V30 4166 H 397.143 -3.7687 -1.47483 0
M  V30 4167 H 395.713 -2.70967 -1.55871 0
M  V30 4168 H 394.933 -3.89166 0.627975 0
M  V30 4169 H 396.221 -5.07625 0.345643 0
M  V30 4170 H 395.619 -4.89793 -2.83054 0
M  V30 4171 H 394.176 -5.82589 -2.9229 0
M  V30 4172 N 397.609 -0.515225 -1.4894 0
M  V30 4173 C 398.556 0.255567 -2.29381 0
M  V30 4174 C 399.526 0.947387 -1.36432 0
M  V30 4175 O 400.711 0.951288 -1.65394 0
M  V30 4176 C 397.851 1.30551 -3.19453 0
M  V30 4177 C 396.964 0.624029 -4.27469 0
M  V30 4178 C 396.099 1.65563 -5.0474 0
M  V30 4179 C 395.138 0.956802 -6.04576 0
M  V30 4180 N 394.275 1.93326 -6.74959 0
M  V30 4181 H 399.115 -0.436607 -2.94784 0
M  V30 4182 H 396.652 -0.227154 -1.45336 0
M  V30 4183 H 398.61 1.92639 -3.70062 0
M  V30 4184 H 397.24 1.96626 -2.56004 0
M  V30 4185 H 396.292 -0.110459 -3.8024 0
M  V30 4186 H 397.604 0.0746092 -4.98744 0
M  V30 4187 H 396.758 2.35119 -5.59289 0
M  V30 4188 H 395.497 2.23893 -4.3327 0
M  V30 4189 H 394.502 0.247097 -5.49244 0
M  V30 4190 H 395.727 0.379814 -6.78037 0
M  V30 4191 H 393.673 2.50591 -6.06251 0
M  V30 4192 H 393.59 1.43489 -7.42258 0
M  V30 4193 H 394.858 2.62126 -7.34105 0
M  V30 4194 N 399.087 1.5561 -0.249682 0
M  V30 4195 C 400.017 2.24477 0.642826 0
M  V30 4196 C 400.998 1.22601 1.17911 0
M  V30 4197 O 402.183 1.5126 1.21795 0
M  V30 4198 C 399.313 2.94638 1.83863 0
M  V30 4199 C 398.267 4.03227 1.435 0
M  V30 4200 C 397.593 4.60828 2.71186 0
M  V30 4201 C 398.893 5.18796 0.604002 0
M  V30 4202 H 400.587 2.99321 0.0685625 0
M  V30 4203 H 398.133 1.43965 0.0315363 0
M  V30 4204 H 400.086 3.41517 2.46868 0
M  V30 4205 H 398.81 2.17287 2.43832 0
M  V30 4206 H 397.469 3.57121 0.828275 0
M  V30 4207 H 397.117 3.80174 3.29358 0
M  V30 4208 H 396.817 5.34132 2.44901 0
M  V30 4209 H 398.341 5.10442 3.35084 0
M  V30 4210 H 399.755 5.61883 1.13842 0
M  V30 4211 H 398.152 5.98506 0.437097 0
M  V30 4212 H 399.222 4.83384 -0.383147 0
M  V30 4213 N 400.565 -0.0233959 1.57583 0
M  V30 4214 C 401.475 -1.03907 2.10334 0
M  V30 4215 C 402.491 -1.39257 1.04323 0
M  V30 4216 O 403.667 -1.48462 1.36091 0
M  V30 4217 C 400.732 -2.31938 2.57693 0
M  V30 4218 C 399.793 -2.03117 3.78209 0
M  V30 4219 C 399.026 -3.25043 4.233 0
M  V30 4220 O 399.249 -4.35916 3.67876 0
M  V30 4221 O 398.183 -3.10411 5.15683 0
M  V30 4222 H 402.009 -0.620748 2.97288 0
M  V30 4223 H 399.594 -0.240743 1.47448 0
M  V30 4224 H 401.476 -3.07196 2.88458 0
M  V30 4225 H 400.151 -2.73055 1.73847 0
M  V30 4226 H 399.058 -1.25408 3.52454 0
M  V30 4227 H 400.391 -1.66852 4.63056 0
M  V30 4228 N 402.043 -1.548 -0.295768 0
M  V30 4229 C 402.975 -1.82492 -1.3867 0
M  V30 4230 C 403.988 -0.708134 -1.46592 0
M  V30 4231 O 405.177 -0.985686 -1.48817 0
M  V30 4232 C 402.277 -1.95256 -2.76999 0
M  V30 4233 C 401.45 -3.25709 -2.91946 0
M  V30 4234 C 400.509 -3.28824 -4.10806 0
M  V30 4235 O 399.535 -4.02328 -4.02643 0
M  V30 4236 N 400.737 -2.5459 -5.21694 0
M  V30 4237 H 403.502 -2.76646 -1.15269 0
M  V30 4238 H 401.063 -1.54438 -0.485849 0
M  V30 4239 H 403.055 -1.94736 -3.54768 0
M  V30 4240 H 401.625 -1.08072 -2.93324 0
M  V30 4241 H 400.845 -3.38959 -2.01247 0
M  V30 4242 H 402.133 -4.11786 -2.98847 0
M  V30 4243 H 401.531 -1.94512 -5.31208 0
M  V30 4244 H 400.088 -2.59818 -5.97778 0
M  V30 4245 N 403.521 0.559213 -1.47345 0
M  V30 4246 C 404.768 1.31648 -1.53867 0
M  V30 4247 C 405.096 1.93468 -0.200104 0
M  V30 4248 O 404.351 1.78295 0.806799 0
M  V30 4249 C 404.65 2.44853 -2.6035 0
M  V30 4250 C 404.316 2.00876 -4.03683 0
M  V30 4251 C 402.978 1.88599 -4.42701 0
M  V30 4252 C 405.33 1.67279 -4.93626 0
M  V30 4253 C 402.658 1.41017 -5.69501 0
M  V30 4254 C 405.01 1.21169 -6.20887 0
M  V30 4255 C 403.674 1.07487 -6.58789 0
M  V30 4256 H 402.944 0.481734 -0.56304 0
M  V30 4257 H 405.591 0.627301 -1.80934 0
M  V30 4258 H 403.896 3.19318 -2.27032 0
M  V30 4259 H 405.593 3.03039 -2.62619 0
M  V30 4260 H 402.183 2.11374 -3.72853 0
M  V30 4261 H 406.367 1.75638 -4.64182 0
M  V30 4262 H 401.623 1.29086 -5.97618 0
M  V30 4263 H 405.797 0.942345 -6.89995 0
M  V30 4264 H 403.424 0.703946 -7.56934 0
M  V30 4265 N 404.999 1.35443 0.805782 0
M  V30 4266 C 406.245 1.28952 1.56522 0
M  V30 4267 C 406.578 -0.135597 1.93726 0
M  V30 4268 O 405.853 -1.08516 1.61414 0
M  V30 4269 C 406.136 2.19678 2.85331 0
M  V30 4270 C 405.989 3.7081 2.54598 0
M  V30 4271 C 407.308 2.09495 3.8704 0
M  V30 4272 H 404.427 0.469764 0.567883 0
M  V30 4273 H 407.069 1.65851 0.927001 0
M  V30 4274 H 405.219 1.8834 3.39795 0
M  V30 4275 H 406.891 4.12593 2.06312 0
M  V30 4276 H 405.134 3.91051 1.8778 0
M  V30 4277 H 405.805 4.29679 3.46525 0
M  V30 4278 H 408.281 2.37045 3.41978 0
M  V30 4279 H 407.157 2.75173 4.74943 0
M  V30 4280 H 407.418 1.07714 4.28777 0
M  V30 4281 N 406.477 -1.02803 1.19454 0
M  V30 4282 C 407.702 -1.80378 1.02364 0
M  V30 4283 C 408.127 -1.83282 -0.423007 0
M  V30 4284 O 407.485 -1.25945 -1.30413 0
M  V30 4285 C 407.533 -3.23248 1.59821 0
M  V30 4286 O 406.637 -4.04 0.828105 0
M  V30 4287 H 405.978 -0.556799 0.361761 0
M  V30 4288 H 408.508 -1.29385 1.58495 0
M  V30 4289 H 408.518 -3.73994 1.63073 0
M  V30 4290 H 407.193 -3.2045 2.65113 0
M  V30 4291 H 405.77 -3.62635 0.86891 0
M  V30 4292 N 407.956 -0.998596 -1.21925 0
M  V30 4293 C 409.205 -0.673085 -1.90138 0
M  V30 4294 C 409.518 0.79895 -1.78539 0
M  V30 4295 O 410.724 1.23628 -2.4172 0
M  V30 4296 C 409.18 -1.15339 -3.40918 0
M  V30 4297 C 408.788 -2.65106 -3.61141 0
M  V30 4298 C 410.532 -0.902476 -4.14796 0
M  V30 4299 C 408.439 -3.0671 -5.05651 0
M  V30 4300 H 407.369 -0.248057 -0.712028 0
M  V30 4301 H 410.02 -1.20891 -1.38049 0
M  V30 4302 H 408.402 -0.545658 -3.92223 0
M  V30 4303 H 409.576 -3.31274 -3.20304 0
M  V30 4304 H 407.891 -2.88142 -3.00605 0
M  V30 4305 H 410.488 -1.18895 -5.21314 0
M  V30 4306 H 410.831 0.161349 -4.15987 0
M  V30 4307 H 411.364 -1.47269 -3.69536 0
M  V30 4308 H 408.103 -4.12292 -5.09603 0
M  V30 4309 H 407.623 -2.45249 -5.47369 0
M  V30 4310 H 409.302 -2.9833 -5.74115 0
M  V30 4311 N 409.434 1.37368 -0.772513 0
M  V30 4312 C 410.364 2.32856 -0.173304 0
M  V30 4313 C 411.345 1.55818 0.682262 0
M  V30 4314 O 412.53 1.84052 0.619566 0
M  V30 4315 C 409.66 3.40048 0.706007 0
M  V30 4316 C 408.614 4.27973 -0.0483144 0
M  V30 4317 C 407.94 5.26184 0.950491 0
M  V30 4318 C 409.24 5.07665 -1.22776 0
M  V30 4319 H 410.934 2.83217 -0.971002 0
M  V30 4320 H 408.48 1.3617 -0.468377 0
M  V30 4321 H 410.433 4.05827 1.13501 0
M  V30 4322 H 409.157 2.88214 1.53623 0
M  V30 4323 H 407.816 3.63726 -0.458107 0
M  V30 4324 H 407.464 4.7063 1.77529 0
M  V30 4325 H 407.164 5.85872 0.450314 0
M  V30 4326 H 408.688 5.94838 1.37842 0
M  V30 4327 H 410.102 5.66578 -0.875366 0
M  V30 4328 H 408.499 5.76681 -1.66007 0
M  V30 4329 H 409.569 4.40294 -2.03149 0
M  V30 4330 N 410.912 0.523116 1.48665 0
M  V30 4331 C 411.845 -0.290518 2.26343 0
M  V30 4332 C 412.823 -0.950913 1.31895 0
M  V30 4333 O 414.007 -0.976662 1.61225 0
M  V30 4334 C 411.134 -1.41088 3.07915 0
M  V30 4335 C 410.18 -0.862597 4.17686 0
M  V30 4336 S 411.013 0.264135 5.34848 0
M  V30 4337 C 412.169 -0.858864 6.19979 0
M  V30 4338 H 412.402 0.368726 2.95005 0
M  V30 4339 H 409.935 0.30878 1.51281 0
M  V30 4340 H 411.893 -2.0527 3.55492 0
M  V30 4341 H 410.554 -2.04182 2.38681 0
M  V30 4342 H 409.747 -1.70287 4.74361 0
M  V30 4343 H 409.349 -0.297595 3.72814 0
M  V30 4344 H 411.641 -1.7591 6.54264 0
M  V30 4345 H 412.584 -0.330244 7.07329 0
M  V30 4346 H 412.992 -1.13617 5.52948 0
M  V30 4347 N 412.39 -1.55475 0.257931 0
M  V30 4348 C 413.353 -2.20551 -0.623706 0
M  V30 4349 C 414.353 -1.17809 -1.09443 0
M  V30 4350 O 415.543 -1.42823 -0.997362 0
M  V30 4351 C 412.675 -2.85784 -1.8585 0
M  V30 4352 H 413.868 -2.99848 -0.0557743 0
M  V30 4353 H 411.421 -1.56298 0.0084422 0
M  V30 4354 H 412.156 -2.10453 -2.46739 0
M  V30 4355 H 411.941 -3.61057 -1.52907 0
M  V30 4356 H 413.431 -3.35553 -2.48584 0
M  V30 4357 N 413.868 0.0150385 -1.57593 0
M  V30 4358 C 415.093 0.718067 -1.94573 0
M  V30 4359 C 415.518 1.6734 -0.859005 0
M  V30 4360 O 414.876 1.80362 0.184147 0
M  V30 4361 C 414.924 1.43918 -3.30636 0
M  V30 4362 O 414.028 2.55299 -3.23876 0
M  V30 4363 H 413.369 0.192125 -0.635597 0
M  V30 4364 H 415.899 -0.0336708 -2.04572 0
M  V30 4365 H 415.909 1.80598 -3.65853 0
M  V30 4366 H 414.584 0.738619 -4.09289 0
M  V30 4367 H 413.161 2.21058 -3.00312 0
M  V30 4368 N 415.346 1.54954 0.287554 0
M  V30 4369 C 416.595 1.74081 1.01877 0
M  V30 4370 C 416.908 0.541135 1.87966 0
M  V30 4371 O 418.114 0.614491 2.64455 0
M  V30 4372 C 416.57 3.08042 1.86113 0
M  V30 4373 C 416.178 4.35531 1.04961 0
M  V30 4374 C 417.922 3.36523 2.58752 0
M  V30 4375 C 415.829 5.60538 1.88551 0
M  V30 4376 H 414.759 0.64884 0.384087 0
M  V30 4377 H 417.41 1.81426 0.275101 0
M  V30 4378 H 415.792 2.94696 2.64519 0
M  V30 4379 H 416.966 4.59751 0.31074 0
M  V30 4380 H 415.281 4.14085 0.43843 0
M  V30 4381 H 417.878 4.27122 3.21668 0
M  V30 4382 H 418.221 2.56 3.28283 0
M  V30 4383 H 418.754 3.50901 1.87386 0
M  V30 4384 H 415.493 6.43767 1.23466 0
M  V30 4385 H 415.013 5.40483 2.60074 0
M  V30 4386 H 416.692 5.98297 2.46273 0
M  V30 4387 N 416.824 -0.551391 1.4764 0
M  V30 4388 C 418.235 -1.13349 1.48354 0
M  V30 4389 C 418.586 -1.94709 0.241432 0
M  V30 4390 O 417.711 -2.06306 -0.653205 0
M  V30 4391 C 418.306 -2.0623 2.68802 0
M  V30 4392 C 416.865 -2.597 2.72457 0
M  V30 4393 C 416.012 -1.36201 2.41546 0
M  V30 4394 H 418.963 -0.337698 1.55065 0
M  V30 4395 H 418.984 -2.90196 2.46103 0
M  V30 4396 H 418.496 -1.46987 3.59188 0
M  V30 4397 H 416.597 -3.22724 1.86225 0
M  V30 4398 H 416.71 -3.00296 3.73308 0
M  V30 4399 H 415.074 -1.67068 1.9225 0
M  V30 4400 H 415.857 -0.787425 3.34147 0
M  V30 4401 N 418.302 -1.35869 -0.798587 0
M  V30 4402 C 419.232 -1.32118 -1.92528 0
M  V30 4403 C 420.213 -0.194209 -1.68988 0
M  V30 4404 O 421.398 -0.390426 -1.90235 0
M  V30 4405 C 418.528 -1.10047 -3.29404 0
M  V30 4406 C 417.482 -2.19471 -3.67446 0
M  V30 4407 C 416.808 -1.82555 -5.02571 0
M  V30 4408 C 418.108 -3.61495 -3.76987 0
M  V30 4409 H 419.802 -2.26394 -1.95924 0
M  V30 4410 H 417.348 -1.08981 -0.94123 0
M  V30 4411 H 419.301 -1.06061 -4.07835 0
M  V30 4412 H 418.025 -0.122195 -3.26371 0
M  V30 4413 H 416.684 -2.22568 -2.91306 0
M  V30 4414 H 416.332 -0.833249 -4.9605 0
M  V30 4415 H 416.032 -2.5581 -5.28995 0
M  V30 4416 H 417.556 -1.80108 -5.83432 0
M  V30 4417 H 418.97 -3.60676 -4.4563 0
M  V30 4418 H 417.367 -4.33577 -4.14887 0
M  V30 4419 H 418.437 -3.97065 -2.78329 0
M  V30 4420 N 419.78 1.02168 -1.19998 0
M  V30 4421 C 421.191 1.57135 -1.00825 0
M  V30 4422 C 421.542 1.91276 0.436818 0
M  V30 4423 O 420.667 1.71679 1.3174 0
M  V30 4424 C 421.262 2.85514 -1.82393 0
M  V30 4425 C 419.821 3.37027 -1.67601 0
M  V30 4426 C 418.968 2.10388 -1.80644 0
M  V30 4427 H 421.919 0.846106 -1.34264 0
M  V30 4428 H 421.94 3.56711 -1.32429 0
M  V30 4429 H 421.452 2.60634 -2.87561 0
M  V30 4430 H 419.553 3.66878 -0.650485 0
M  V30 4431 H 419.666 4.09572 -2.4857 0
M  V30 4432 H 418.03 2.22601 -1.23778 0
M  V30 4433 H 418.813 1.8794 -2.87286 0
M  V30 4434 N 421.258 1.00505 1.21394 0
M  V30 4435 C 422.535 0.603277 1.86064 0
M  V30 4436 C 422.915 -0.919095 1.90042 0
M  V30 4437 O 422.263 -1.80607 1.39977 0
M  V30 4438 C 422.473 1.23772 3.26315 0
M  V30 4439 C 423.821 1.34586 4.02705 0
M  V30 4440 O 424.845 1.19304 3.35626 0
M  V30 4441 O 423.704 1.59169 5.22807 0
M  V30 4442 H 420.798 0.206634 0.800769 0
M  V30 4443 H 423.344 1.1017 1.29076 0
M  V30 4444 H 422.116 2.27848 3.18121 0
M  V30 4445 H 421.739 0.725648 3.90922 0
M  V30 4446 N 422.737 -1.36956 0.779787 0
M  V30 4447 C 423.684 -2.30175 0.169697 0
M  V30 4448 C 424.654 -1.51501 -0.68094 0
M  V30 4449 O 425.839 -1.80042 -0.631629 0
M  V30 4450 C 422.979 -3.37985 -0.697131 0
M  V30 4451 C 422.092 -4.31661 0.170992 0
M  V30 4452 C 421.227 -5.2655 -0.701298 0
M  V30 4453 C 420.266 -6.11867 0.168869 0
M  V30 4454 N 419.403 -6.98973 -0.661855 0
M  V30 4455 H 424.243 -2.81767 0.970135 0
M  V30 4456 H 421.78 -1.38699 0.489994 0
M  V30 4457 H 423.738 -3.99128 -1.2146 0
M  V30 4458 H 422.368 -2.87739 -1.46309 0
M  V30 4459 H 421.42 -3.71756 0.80634 0
M  V30 4460 H 422.732 -4.91644 0.841875 0
M  V30 4461 H 421.886 -5.92937 -1.28494 0
M  V30 4462 H 420.625 -4.66998 -1.40584 0
M  V30 4463 H 419.63 -5.44452 0.764986 0
M  V30 4464 H 420.855 -6.73493 0.870863 0
M  V30 4465 H 418.801 -6.41941 -1.35086 0
M  V30 4466 H 418.718 -7.55984 -0.0484447 0
M  V30 4467 H 419.986 -7.6974 -1.22963 0
M  V30 4468 N 424.215 -0.530993 -1.48385 0
M  V30 4469 C 425.178 0.220497 -2.28137 0
M  V30 4470 C 426.178 0.866851 -1.35434 0
M  V30 4471 O 427.368 0.726746 -1.58316 0
M  V30 4472 C 424.5 1.31921 -3.1434 0
M  V30 4473 H 425.693 -0.479714 -2.96038 0
M  V30 4474 H 423.246 -0.286968 -1.53643 0
M  V30 4475 H 423.981 2.05264 -2.51072 0
M  V30 4476 H 423.766 0.86085 -3.82533 0
M  V30 4477 H 425.256 1.84776 -3.74497 0
M  V30 4478 N 425.693 1.55336 -0.266172 0
M  V30 4479 C 426.918 2.04258 0.359661 0
M  V30 4480 C 427.343 1.14359 1.49344 0
M  V30 4481 O 426.701 0.140369 1.80756 0
M  V30 4482 C 426.749 3.50997 0.826635 0
M  V30 4483 O 425.853 3.64204 1.93466 0
M  V30 4484 H 425.194 0.659668 0.075727 0
M  V30 4485 H 427.724 2.00694 -0.39786 0
M  V30 4486 H 427.734 3.9219 1.12477 0
M  V30 4487 H 426.409 4.159 -0.00293032 0
M  V30 4488 H 424.986 3.34913 1.63974 0
M  V30 4489 O 427.21 0.131478 1.60964 0
M  V30 4490 H 427.901 -0.465131 1.88033 0
M  V30 END ATOM
M  V30 BEGIN BOND
M  V30 END BOND
M  V30 END CTAB
M  END
$$$$
