drugbank_target|P00521 Tyrosine-protein kinase transforming protein Abl (DB02567; DB03814; DB03878; DB05489)
 OpenBabel12092120013D

  0  0  0     0  0            999 V3000
M  V30 BEGIN CTAB
M  V30 COUNTS 11506 11643 0 0 0
M  V30 BEGIN ATOM
M  V30 1 H -0.908 1.98254 -0.117106 0
M  V30 2 N 0 1.576 0 0
M  V30 3 C 1.23 1.94566 0.694824 0
M  V30 4 C 1.638 0.873344 1.67837 0
M  V30 5 O 0.981 -0.15633 1.83034 0
M  V30 6 C 1.043 3.27518 1.48229 0
M  V30 7 C 0.707 4.52204 0.66033 0
M  V30 8 C 1.704 5.19874 -0.0519891 0
M  V30 9 C -0.611 4.98627 0.606301 0
M  V30 10 C 1.383 6.32267 -0.807324 0
M  V30 11 C -0.93 6.10909 -0.152759 0
M  V30 12 C 0.068 6.77586 -0.858305 0
M  V30 13 O -0.244 7.87715 -1.60498 0
M  V30 14 H -0.512 0.646206 0.19848 0
M  V30 15 H 2.042 2.05346 -0.0472378 0
M  V30 16 H 0.272 3.13146 2.26884 0
M  V30 17 H 1.961 3.49596 2.06246 0
M  V30 18 H 2.727 4.84996 -0.0193999 0
M  V30 19 H -1.394 4.46554 1.145 0
M  V30 20 H 2.15 6.84243 -1.35856 0
M  V30 21 H -1.953 6.45229 -0.187169 0
M  V30 22 H -1.185 8.04231 -1.52169 0
M  V30 23 N 1.4781 -0.272755 1.55222 0
M  V30 24 C 2.7271 -1.00211 1.75045 0
M  V30 25 C 3.0401 -1.87441 0.559046 0
M  V30 26 O 4.2461 -2.63856 0.639698 0
M  V30 27 C 2.7021 -1.83165 3.09804 0
M  V30 28 C 2.3101 -1.008 4.36513 0
M  V30 29 C 4.0541 -2.55529 3.38977 0
M  V30 30 C 1.9611 -1.83194 5.62311 0
M  V30 31 H 0.8911 -0.377878 0.652476 0
M  V30 32 H 3.5421 -0.257776 1.8168 0
M  V30 33 H 1.9241 -2.61694 2.97207 0
M  V30 34 H 3.0981 -0.266855 4.60027 0
M  V30 35 H 1.4131 -0.398897 4.14485 0
M  V30 36 H 4.0101 -3.17578 4.30172 0
M  V30 37 H 4.3531 -3.25825 2.59121 0
M  V30 38 H 4.8861 -1.84029 3.52673 0
M  V30 39 H 1.6251 -1.17318 6.44916 0
M  V30 40 H 1.1451 -2.54905 5.4294 0
M  V30 41 H 2.8241 -2.40552 6.00619 0
M  V30 42 N 2.9562 -1.48159 -0.537278 0
M  V30 43 C 4.1842 -1.59454 -1.31841 0
M  V30 44 C 4.5992 -0.252065 -1.8711 0
M  V30 45 O 3.9562 0.757621 -1.66031 0
M  V30 46 C 4.0072 -2.63546 -2.47439 0
M  V30 47 O 3.7282 -3.92583 -1.94449 0
M  V30 48 C 5.2292 -2.85212 -3.39366 0
M  V30 49 H 2.4492 -0.53785 -0.401196 0
M  V30 50 H 4.9932 -1.93932 -0.648891 0
M  V30 51 H 3.1482 -2.31946 -3.1029 0
M  V30 52 H 3.5622 -4.49629 -2.70063 0
M  V30 53 H 5.0362 -3.61863 -4.16844 0
M  V30 54 H 5.5132 -1.93765 -3.94147 0
M  V30 55 H 6.1192 -3.18086 -2.82314 0
M  V30 56 N 4.4343 0.785586 -1.36625 0
M  V30 57 C 5.8453 1.36101 -1.27803 0
M  V30 58 C 6.1963 1.96035 0.0804875 0
M  V30 59 O 5.3213 1.92834 0.982042 0
M  V30 60 C 5.9163 2.47442 -2.31426 0
M  V30 61 C 4.4753 3.00789 -2.26281 0
M  V30 62 C 3.6223 1.73896 -2.15999 0
M  V30 63 H 6.5733 0.586928 -1.47448 0
M  V30 64 H 6.5943 3.2656 -1.95291 0
M  V30 65 H 6.1063 2.03791 -3.30289 0
M  V30 66 H 4.2073 3.48851 -1.30896 0
M  V30 67 H 4.3203 3.57343 -3.19128 0
M  V30 68 H 2.6843 1.9628 -1.62316 0
M  V30 69 H 3.4673 1.32368 -3.16755 0
M  V30 70 N 5.9124 1.20967 1.01018 0
M  V30 71 C 7.1584 1.02526 1.74975 0
M  V30 72 C 7.4914 -0.4408 1.89131 0
M  V30 73 O 6.7664 -1.32718 1.42184 0
M  V30 74 C 7.0494 1.71699 3.1653 0
M  V30 75 C 6.9024 3.25791 3.10129 0
M  V30 76 C 8.2214 1.45531 4.15342 0
M  V30 77 H 5.3404 0.373863 0.635134 0
M  V30 78 H 7.9824 1.49071 1.17805 0
M  V30 79 H 6.1324 1.32128 3.65341 0
M  V30 80 H 7.8044 3.74697 2.69072 0
M  V30 81 H 6.0474 3.56363 2.47362 0
M  V30 82 H 6.7184 3.69353 4.10222 0
M  V30 83 H 9.1944 1.79872 3.75213 0
M  V30 84 H 8.0704 1.96453 5.1254 0
M  V30 85 H 8.3314 0.384237 4.40427 0
M  V30 86 N 7.3905 -1.2043 1.01659 0
M  V30 87 C 8.3385 -2.25249 0.580143 0
M  V30 88 C 9.3325 -1.65057 -0.381115 0
M  V30 89 O 10.5385 -1.78241 -0.251039 0
M  V30 90 H 6.9135 -0.732695 0.169299 0
M  V30 91 H 8.8845 -2.59389 1.47512 0
M  V30 92 C 7.6335 -3.47638 -0.065788 0
M  V30 93 H 6.9565 -3.94233 0.664874 0
M  V30 94 H 8.3965 -4.2268 -0.334282 0
M  V30 95 C 6.8555 -3.10447 -1.3086 0
M  V30 96 O 7.3855 -3.21981 -2.4019 0
M  V30 97 N 5.5915 -2.64996 -1.1927 0
M  V30 98 H 5.1385 -2.55811 -0.303064 0
M  V30 99 H 5.0965 -2.40482 -2.02523 0
M  V30 100 N 8.8686 -0.792821 -1.36206 0
M  V30 101 C 10.0936 -0.377701 -2.03932 0
M  V30 102 C 10.5186 0.998947 -1.59382 0
M  V30 103 O 9.8766 1.64421 -0.763903 0
M  V30 104 C 9.9246 -0.453635 -3.57735 0
M  V30 105 O 9.0286 0.538151 -4.08874 0
M  V30 106 H 8.3696 -0.159855 -0.644471 0
M  V30 107 H 10.8996 -1.07488 -1.7409 0
M  V30 108 H 10.9096 -0.318464 -4.06755 0
M  V30 109 H 9.5846 -1.45784 -3.89512 0
M  V30 110 H 8.1616 0.364359 -3.71116 0
M  V30 111 N 10.3467 1.47872 -0.545128 0
M  V30 112 C 11.2767 2.32661 0.197793 0
M  V30 113 C 12.2577 1.43041 0.920504 0
M  V30 114 O 13.4427 1.71912 0.90333 0
M  V30 115 C 10.5727 3.24569 1.23582 0
M  V30 116 C 9.5267 4.23333 0.630323 0
M  V30 117 C 8.8527 5.0448 1.77211 0
M  V30 118 C 10.1527 5.20704 -0.407974 0
M  V30 119 H 11.8467 2.95024 -0.510045 0
M  V30 120 H 9.3927 1.4187 -0.246731 0
M  V30 121 H 11.3457 3.8272 1.76362 0
M  V30 122 H 10.0697 2.60236 1.97344 0
M  V30 123 H 8.7287 3.6639 0.123922 0
M  V30 124 H 8.3767 4.36561 2.49847 0
M  V30 125 H 8.0767 5.71339 1.37281 0
M  V30 126 H 9.6007 5.65487 2.3034 0
M  V30 127 H 11.0147 5.7329 0.033305 0
M  V30 128 H 9.4117 5.95699 -0.725486 0
M  V30 129 H 10.4817 4.66917 -1.30828 0
M  V30 130 N 11.8248 0.280983 1.55075 0
M  V30 131 C 12.7348 -0.61388 2.26426 0
M  V30 132 C 13.7508 -1.16521 1.29224 0
M  V30 133 O 14.9268 -1.19426 1.62171 0
M  V30 134 C 11.9918 -1.7788 2.9759 0
M  V30 135 C 11.0528 -1.26355 4.10284 0
M  V30 136 C 10.2858 -2.37295 4.78045 0
M  V30 137 O 10.5088 -3.56777 4.45047 0
M  V30 138 O 9.4428 -2.05119 5.65871 0
M  V30 139 H 13.2688 -0.0356932 3.03679 0
M  V30 140 H 10.8538 0.0481686 1.49322 0
M  V30 141 H 12.7358 -2.45791 3.42293 0
M  V30 142 H 11.4108 -2.34397 2.23249 0
M  V30 143 H 10.3178 -0.550735 3.70024 0
M  V30 144 H 11.6508 -0.744065 4.86543 0
M  V30 145 N 13.3029 -1.57598 0.00835791 0
M  V30 146 C 14.2499 -2.08945 -0.980346 0
M  V30 147 C 15.2199 -0.986738 -1.33614 0
M  V30 148 O 16.4049 -1.25968 -1.43306 0
M  V30 149 C 13.5449 -2.60425 -2.26435 0
M  V30 150 C 12.6579 -3.84628 -1.96685 0
M  V30 151 C 11.7929 -4.24579 -3.19228 0
M  V30 152 C 10.8319 -5.41596 -2.85202 0
M  V30 153 N 9.9689 -5.768 -4.00307 0
M  V30 154 H 14.8089 -2.93148 -0.535551 0
M  V30 155 H 12.3459 -1.44912 -0.252776 0
M  V30 156 H 14.3039 -2.88354 -3.01509 0
M  V30 157 H 12.9339 -1.79083 -2.68568 0
M  V30 158 H 11.9859 -3.63556 -1.11942 0
M  V30 159 H 13.2979 -4.69796 -1.67611 0
M  V30 160 H 12.4519 -4.53834 -4.02641 0
M  V30 161 H 11.1909 -3.38137 -3.51447 0
M  V30 162 H 10.1959 -5.12056 -2.00198 0
M  V30 163 H 11.4209 -6.29721 -2.54222 0
M  V30 164 H 9.3669 -4.93316 -4.32407 0
M  V30 165 H 9.2839 -6.5656 -3.74786 0
M  V30 166 H 10.5519 -6.10652 -4.84484 0
M  V30 167 N 14.781 0.264519 -1.55364 0
M  V30 168 C 15.731 1.32966 -1.85214 0
M  V30 169 C 16.715 1.44306 -0.711653 0
M  V30 170 O 17.907 1.47844 -0.973192 0
M  V30 171 C 15.036 2.68839 -2.13495 0
M  V30 172 C 14.122 2.61575 -3.33825 0
M  V30 173 N 14.513 2.23933 -4.53528 0
M  V30 174 C 12.811 2.92621 -3.36584 0
M  V30 175 C 13.512 2.26868 -5.35636 0
M  V30 176 N 12.488 2.65677 -4.74254 0
M  V30 177 H 16.29 1.02884 -2.75304 0
M  V30 178 H 13.804 0.473157 -1.55354 0
M  V30 179 H 15.801 3.45685 -2.33039 0
M  V30 180 H 14.461 2.99802 -1.24694 0
M  V30 181 H 15.472 1.95769 -4.79474 0
M  V30 182 H 12.149 3.2824 -2.58002 0
M  V30 183 H 13.539 2.00254 -6.41364 0
M  V30 184 N 16.2591 1.48442 0.529413 0
M  V30 185 C 17.4841 1.60406 1.31471 0
M  V30 186 C 17.9091 0.264738 1.86228 0
M  V30 187 O 17.2671 -0.763668 1.64432 0
M  V30 188 C 17.3151 2.65419 2.44101 0
M  V30 189 O 16.4191 2.22618 3.47153 0
M  V30 190 H 15.7601 0.537863 0.389357 0
M  V30 191 H 18.2901 1.94432 0.636965 0
M  V30 192 H 18.3001 2.86709 2.90279 0
M  V30 193 H 16.9751 3.62652 2.03608 0
M  V30 194 H 15.5521 2.11543 3.0709 0
M  V30 195 N 17.7372 -0.778329 1.37039 0
M  V30 196 C 18.9832 -1.53817 1.33086 0
M  V30 197 C 19.3382 -1.92208 -0.0860346 0
M  V30 198 O 18.6312 -1.60713 -1.04316 0
M  V30 199 C 18.8252 -2.81845 2.19768 0
M  V30 200 C 18.6542 -2.55967 3.69744 0
M  V30 201 C 17.4242 -2.50428 4.38878 0
M  V30 202 C 19.6222 -2.2441 4.62758 0
M  V30 203 N 17.6042 -2.16564 5.74433 0
M  V30 204 C 18.9752 -2.0063 5.86641 0
M  V30 205 C 21.0302 -2.1051 4.5121 0
M  V30 206 C 19.7332 -1.64354 7.00272 0
M  V30 207 C 21.7592 -1.75634 5.64718 0
M  V30 208 C 21.1212 -1.52709 6.87648 0
M  V30 209 H 17.2202 -0.563434 0.542279 0
M  V30 210 H 19.8042 -0.908617 1.72198 0
M  V30 211 H 17.9752 -3.42649 1.82883 0
M  V30 212 H 19.7072 -3.47682 2.07122 0
M  V30 213 H 16.4622 -2.66056 3.91805 0
M  V30 214 H 16.8862 -2.02348 6.46053 0
M  V30 215 H 21.5282 -2.26919 3.56746 0
M  V30 216 H 19.2462 -1.46683 7.94676 0
M  V30 217 H 22.8322 -1.65546 5.57751 0
M  V30 218 H 21.7122 -1.2612 7.73992 0
M  V30 219 N 19.2153 -1.21501 -1.00376 0
M  V30 220 C 20.4453 -1.05746 -1.77486 0
M  V30 221 C 20.8533 0.395655 -1.85017 0
M  V30 222 O 20.1963 1.28626 -1.31152 0
M  V30 223 C 20.2583 -1.58092 -3.22873 0
M  V30 224 C 19.9223 -3.06568 -3.38917 0
M  V30 225 C 20.9193 -4.04106 -3.271 0
M  V30 226 C 18.6043 -3.45799 -3.64319 0
M  V30 227 C 20.5983 -5.38862 -3.40451 0
M  V30 228 C 18.2853 -4.80707 -3.77311 0
M  V30 229 C 19.2833 -5.77047 -3.65384 0
M  V30 230 O 18.9713 -7.09507 -3.77961 0
M  V30 231 H 18.7033 -0.371778 -0.564586 0
M  V30 232 H 21.2573 -1.61319 -1.27143 0
M  V30 233 H 19.4873 -0.969163 -3.74358 0
M  V30 234 H 21.1763 -1.38162 -3.81662 0
M  V30 235 H 21.9423 -3.75141 -3.07399 0
M  V30 236 H 17.8213 -2.71344 -3.72684 0
M  V30 237 H 21.3653 -6.14041 -3.31058 0
M  V30 238 H 17.2623 -5.09357 -3.96517 0
M  V30 239 H 18.0303 -7.16935 -3.94901 0
M  V30 240 N 20.6934 1.19889 -1.02296 0
M  V30 241 C 21.6434 2.20777 -0.56934 0
M  V30 242 C 22.6274 1.56379 0.378741 0
M  V30 243 O 23.8194 1.75859 0.200673 0
M  V30 244 C 20.9484 3.43196 0.0845077 0
M  V30 245 C 20.0344 4.14749 -0.88566 0
M  V30 246 N 20.4254 4.62584 -2.04573 0
M  V30 247 C 18.7234 4.40347 -0.707835 0
M  V30 248 C 19.4244 5.17466 -2.65714 0
M  V30 249 N 18.4004 5.0791 -1.93723 0
M  V30 250 H 22.2024 2.55434 -1.45365 0
M  V30 251 H 19.7164 1.35897 -0.88915 0
M  V30 252 H 21.7134 4.14707 0.427067 0
M  V30 253 H 20.3734 3.10042 0.964574 0
M  V30 254 H 21.3844 4.57597 -2.4254 0
M  V30 255 H 18.0614 4.17317 0.12364 0
M  V30 256 H 19.4514 5.64808 -3.63925 0
M  V30 257 N 22.1715 0.800033 1.35784 0
M  V30 258 C 23.4195 0.376597 1.9856 0
M  V30 259 C 23.7405 -1.05812 1.63795 0
M  V30 260 O 23.0105 -1.73103 0.917171 0
M  V30 261 H 21.5905 0.136261 0.734467 0
M  V30 262 H 24.2525 1.02442 1.65806 0
M  V30 263 H 23.3485 0.477002 3.08433 0
M  V30 264 N 23.6496 -1.47581 0.552962 0
M  V30 265 C 25.0606 -1.86324 0.118463 0
M  V30 266 C 25.4116 -1.46006 -1.3106 0
M  V30 267 O 24.5366 -0.861182 -1.98526 0
M  V30 268 C 25.1316 -3.3816 0.20821 0
M  V30 269 C 23.6906 -3.7601 -0.171226 0
M  V30 270 C 22.8376 -2.71634 0.557686 0
M  V30 271 H 25.7886 -1.39159 0.762928 0
M  V30 272 H 25.8096 -3.76141 -0.574278 0
M  V30 273 H 25.3216 -3.67473 1.24841 0
M  V30 274 H 23.4226 -3.52313 -1.21269 0
M  V30 275 H 23.5356 -4.78745 0.184379 0
M  V30 276 H 21.8996 -2.547 0.00125792 0
M  V30 277 H 22.6826 -3.0379 1.59896 0
M  V30 278 N 25.1277 -0.289203 -1.54924 0
M  V30 279 C 26.3737 0.323998 -2.00195 0
M  V30 280 C 26.7067 1.54441 -1.17735 0
M  V30 281 O 25.9817 1.92875 -0.250878 0
M  V30 282 C 26.2647 0.692276 -3.53383 0
M  V30 283 C 26.1177 -0.536457 -4.46589 0
M  V30 284 C 27.4367 1.52335 -4.12895 0
M  V30 285 H 24.5557 0.116289 -0.727768 0
M  V30 286 H 27.1977 -0.398954 -1.85764 0
M  V30 287 H 25.3477 1.30822 -3.65811 0
M  V30 288 H 27.0197 -1.17499 -4.46085 0
M  V30 289 H 25.2627 -1.17192 -4.1767 0
M  V30 290 H 25.9337 -0.234806 -5.515 0
M  V30 291 H 28.4097 1.00302 -4.0383 0
M  V30 292 H 27.2857 1.74982 -5.20262 0
M  V30 293 H 27.5467 2.50886 -3.64018 0
M  V30 294 N 26.6058 1.57591 -0.0167156 0
M  V30 295 C 27.8308 1.9598 0.67872 0
M  V30 296 C 28.2558 0.892546 1.65575 0
M  V30 297 O 27.6138 -0.147772 1.80697 0
M  V30 298 C 27.6618 3.33468 1.37227 0
M  V30 299 O 26.7658 3.28954 2.48722 0
M  V30 300 H 26.1068 0.639339 0.17928 0
M  V30 301 H 28.6368 2.04463 -0.0748802 0
M  V30 302 H 28.6468 3.69417 1.7319 0
M  V30 303 H 27.3218 4.10694 0.656007 0
M  V30 304 H 25.8988 3.04705 2.14963 0
M  V30 305 N 28.0839 -0.256276 1.55502 0
M  V30 306 C 29.4999 -0.604325 1.47716 0
M  V30 307 C 29.6999 -1.88763 0.705039 0
M  V30 308 O 28.7559 -2.51445 0.230613 0
M  V30 309 C 30.0689 -0.715756 2.92057 0
M  V30 310 C 31.6169 -0.808706 3.02372 0
M  V30 311 C 32.0919 -0.951777 4.48001 0
M  V30 312 N 33.5829 -1.01688 4.519 0
M  V30 313 C 34.3179 -1.14668 5.61817 0
M  V30 314 N 33.8139 -1.24261 6.81565 0
M  V30 315 N 35.6069 -1.1791 5.49594 0
M  V30 316 H 27.7579 0.586291 2.04148 0
M  V30 317 H 30.0209 0.201015 0.926443 0
M  V30 318 H 29.7269 0.157027 3.51349 0
M  V30 319 H 29.6009 -1.59071 3.42018 0
M  V30 320 H 31.9879 -1.67195 2.43166 0
M  V30 321 H 32.0689 0.0912063 2.55637 0
M  V30 322 H 31.7129 -0.0931291 5.07815 0
M  V30 323 H 31.6429 -1.86659 4.92408 0
M  V30 324 H 34.1339 -0.954468 3.65648 0
M  V30 325 H 34.4469 -1.34046 7.61086 0
M  V30 326 H 32.7919 -1.21236 6.84344 0
M  V30 327 H 35.9829 -1.10057 4.54978 0
M  V30 328 H 36.1559 -1.27681 6.35296 0
M  V30 329 N 29.562 -1.4872 -0.521534 0
M  V30 330 C 30.51 -1.64328 -1.64618 0
M  V30 331 C 31.504 -0.50953 -1.61555 0
M  V30 332 O 32.71 -0.688525 -1.66311 0
M  V30 333 H 29.085 -0.517805 -0.545328 0
M  V30 334 H 31.056 -2.58767 -1.48601 0
M  V30 335 C 29.805 -1.70805 -3.02855 0
M  V30 336 H 29.128 -2.5741 -3.05909 0
M  V30 337 H 30.568 -1.85766 -3.81139 0
M  V30 338 C 29.027 -0.448479 -3.33902 0
M  V30 339 O 29.557 0.434928 -3.99339 0
M  V30 340 N 27.763 -0.317616 -2.88859 0
M  V30 341 H 27.31 -1.03748 -2.35784 0
M  V30 342 H 27.268 0.524113 -3.10001 0
M  V30 343 N 31.0401 0.771051 -1.3745 0
M  V30 344 C 32.0031 1.86598 -1.33093 0
M  V30 345 C 33.0031 1.59076 -0.234845 0
M  V30 346 O 34.1931 1.67145 -0.490732 0
M  V30 347 C 31.3251 3.23747 -1.06773 0
M  V30 348 H 32.5181 1.91873 -2.30488 0
M  V30 349 H 30.0711 0.970876 -1.2249 0
M  V30 350 H 30.8061 3.24148 -0.099129 0
M  V30 351 H 30.5911 3.45115 -1.86112 0
M  V30 352 H 32.0811 4.03824 -1.06377 0
M  V30 353 N 32.5182 1.22032 0.997298 0
M  V30 354 C 33.4812 0.987909 2.06816 0
M  V30 355 C 34.4812 -0.0440084 1.6074 0
M  V30 356 O 35.6712 0.194053 1.73116 0
M  V30 357 C 32.8032 0.49132 3.37341 0
M  V30 358 H 33.9962 1.93803 2.28868 0
M  V30 359 H 31.5492 1.03838 1.16822 0
M  V30 360 H 32.2842 -0.463364 3.20973 0
M  V30 361 H 32.0692 1.23575 3.72118 0
M  V30 362 H 33.5592 0.348824 4.16141 0
M  V30 363 N 33.9963 -1.19345 1.0293 0
M  V30 364 C 34.9063 -2.26245 0.620515 0
M  V30 365 C 35.9223 -1.70486 -0.347928 0
M  V30 366 O 37.0983 -2.00347 -0.205704 0
M  V30 367 C 34.1633 -3.46693 -0.0218957 0
M  V30 368 C 33.2243 -4.17632 0.994102 0
M  V30 369 C 32.4573 -5.32329 0.382253 0
M  V30 370 O 32.6803 -5.64552 -0.814676 0
M  V30 371 O 31.6143 -5.91664 1.10531 0
M  V30 372 H 35.4403 -2.63453 1.51083 0
M  V30 373 H 33.0253 -1.26207 0.799513 0
M  V30 374 H 34.9073 -4.19683 -0.380072 0
M  V30 375 H 33.5823 -3.11333 -0.886209 0
M  V30 376 H 32.4893 -3.4676 1.40387 0
M  V30 377 H 33.8223 -4.56964 1.8288 0
M  V30 378 N 35.4744 -0.807222 -1.35358 0
M  V30 379 C 36.7044 -0.399796 -2.02695 0
M  V30 380 C 37.1124 0.994176 -1.60974 0
M  V30 381 O 36.4554 1.65209 -0.803226 0
M  V30 382 C 36.5174 -0.404445 -3.57218 0
M  V30 383 C 36.1814 -1.74904 -4.22206 0
M  V30 384 C 37.1784 -2.70743 -4.4384 0
M  V30 385 C 34.8634 -2.03322 -4.5931 0
M  V30 386 C 36.8574 -3.93183 -5.01683 0
M  V30 387 C 34.5444 -3.26026 -5.16866 0
M  V30 388 C 35.5424 -4.20774 -5.37994 0
M  V30 389 O 35.2304 -5.41312 -5.94337 0
M  V30 390 H 34.9624 -0.160517 -0.656666 0
M  V30 391 H 37.5164 -1.09235 -1.73945 0
M  V30 392 H 35.7464 0.344707 -3.85161 0
M  V30 393 H 37.4354 -0.0192429 -4.05895 0
M  V30 394 H 38.2014 -2.5008 -4.15554 0
M  V30 395 H 34.0804 -1.30384 -4.42178 0
M  V30 396 H 37.6244 -4.6715 -5.1809 0
M  V30 397 H 33.5214 -3.46559 -5.44579 0
M  V30 398 H 34.2894 -5.42618 -6.12787 0
M  V30 399 N 36.9525 1.47285 -0.560781 0
M  V30 400 C 37.8825 2.32857 0.173105 0
M  V30 401 C 38.8635 1.44009 0.905281 0
M  V30 402 O 40.0485 1.7286 0.885046 0
M  V30 403 C 37.1785 3.25861 1.20133 0
M  V30 404 C 36.1325 4.23978 0.585388 0
M  V30 405 C 35.4585 5.06332 1.7185 0
M  V30 406 C 36.7585 5.20242 -0.463178 0
M  V30 407 H 38.4525 2.94466 -0.541307 0
M  V30 408 H 35.9985 1.41601 -0.261764 0
M  V30 409 H 37.9515 3.84569 1.72293 0
M  V30 410 H 36.6755 2.62315 1.94573 0
M  V30 411 H 35.3345 3.66501 0.085054 0
M  V30 412 H 34.9825 4.39186 2.45203 0
M  V30 413 H 34.6825 5.72762 1.31213 0
M  V30 414 H 36.2065 5.67899 2.24329 0
M  V30 415 H 37.6205 5.73293 -0.027502 0
M  V30 416 H 36.0175 5.94896 -0.788627 0
M  V30 417 H 37.0875 4.65504 -1.35773 0
M  V30 418 N 38.4306 0.297415 1.54768 0
M  V30 419 C 39.3606 -0.573494 2.26348 0
M  V30 420 C 40.3416 -1.14085 1.26169 0
M  V30 421 O 41.5266 -1.17086 1.54934 0
M  V30 422 C 38.6566 -1.74716 3.00153 0
M  V30 423 C 37.6106 -1.31032 4.07449 0
M  V30 424 C 36.9366 -2.56887 4.68949 0
M  V30 425 C 38.2366 -0.444183 5.20408 0
M  V30 426 H 39.9306 0.0235131 2.99391 0
M  V30 427 H 37.4766 0.0127488 1.43994 0
M  V30 428 H 39.4296 -2.3625 3.48947 0
M  V30 429 H 38.1536 -2.37035 2.24682 0
M  V30 430 H 36.8126 -0.718066 3.59499 0
M  V30 431 H 36.4606 -3.17512 3.90122 0
M  V30 432 H 36.1606 -2.2836 5.41411 0
M  V30 433 H 37.6846 -3.19229 5.20505 0
M  V30 434 H 39.0986 -0.9651 5.65118 0
M  V30 435 H 37.4956 -0.252846 5.99567 0
M  V30 436 H 38.5656 0.531609 4.81977 0
M  V30 437 N 39.9087 -1.5758 0.0250728 0
M  V30 438 C 41.1337 -1.96337 -0.668317 0
M  V30 439 C 41.5587 -0.901314 -1.651 0
M  V30 440 O 40.9167 0.138187 -1.80773 0
M  V30 441 C 40.9647 -3.34191 -1.35457 0
M  V30 442 O 40.0687 -3.30269 -2.46974 0
M  V30 443 H 39.4097 -0.640281 -0.175887 0
M  V30 444 H 41.9397 -2.0442 0.0857224 0
M  V30 445 H 41.9497 -3.70331 -1.71228 0
M  V30 446 H 40.6247 -4.11036 -0.634218 0
M  V30 447 H 39.2017 -3.05841 -2.13344 0
M  V30 448 N 41.3868 0.248026 -1.55636 0
M  V30 449 C 42.6118 0.998028 -1.81808 0
M  V30 450 C 43.0368 1.78207 -0.601979 0
M  V30 451 O 42.3948 1.75653 0.448961 0
M  V30 452 C 42.4428 1.9125 -3.05705 0
M  V30 453 O 41.5468 3.00406 -2.82542 0
M  V30 454 H 40.8878 0.284045 -0.600179 0
M  V30 455 H 43.4178 0.269357 -2.02819 0
M  V30 456 H 43.4278 2.32737 -3.35108 0
M  V30 457 H 42.1028 1.33602 -3.93857 0
M  V30 458 H 40.6798 2.63056 -2.64303 0
M  V30 459 N 42.8649 1.48995 0.513639 0
M  V30 460 C 44.1129 1.57531 1.26604 0
M  V30 461 C 44.4339 0.258236 1.93283 0
M  V30 462 O 43.7039 -0.721502 1.8213 0
M  V30 463 H 42.2839 0.580387 0.470276 0
M  V30 464 H 44.9459 1.85552 0.596373 0
M  V30 465 H 44.0419 2.36486 2.03669 0
M  V30 466 N 44.343 -0.763751 1.37857 0
M  V30 467 C 45.592 -1.51789 1.32827 0
M  V30 468 C 45.905 -1.95426 -0.0823719 0
M  V30 469 O 47.111 -2.70298 -0.255172 0
M  V30 470 C 45.567 -2.74133 2.33193 0
M  V30 471 C 45.175 -2.37562 3.79827 0
M  V30 472 C 46.919 -3.52054 2.37188 0
M  V30 473 C 44.826 -3.56456 4.71904 0
M  V30 474 H 43.756 -0.569896 0.493695 0
M  V30 475 H 46.407 -0.835822 1.63359 0
M  V30 476 H 44.789 -3.4427 1.9569 0
M  V30 477 H 45.963 -1.75157 4.26212 0
M  V30 478 H 44.278 -1.72798 3.78853 0
M  V30 479 H 46.875 -4.40437 3.03182 0
M  V30 480 H 47.218 -3.92486 1.38782 0
M  V30 481 H 47.751 -2.88921 2.7344 0
M  V30 482 H 44.49 -3.21099 5.71468 0
M  V30 483 H 44.01 -4.17938 4.30218 0
M  V30 484 H 45.689 -4.23168 4.89426 0
M  V30 485 N 45.8211 -1.22559 -0.990812 0
M  V30 486 C 46.7691 -0.994798 -2.10253 0
M  V30 487 C 47.7631 0.0627798 -1.69284 0
M  V30 488 O 48.9691 -0.0898392 -1.79776 0
M  V30 489 H 45.3441 -0.304527 -0.687581 0
M  V30 490 H 47.3151 -1.93812 -2.26891 0
M  V30 491 C 46.0641 -0.591439 -3.42633 0
M  V30 492 H 45.3871 -1.3969 -3.74602 0
M  V30 493 H 46.8271 -0.469385 -4.21394 0
M  V30 494 C 45.2861 0.699232 -3.29564 0
M  V30 495 O 45.8161 1.75112 -3.61523 0
M  V30 496 N 44.0221 0.671182 -2.82743 0
M  V30 497 H 43.5691 -0.185136 -2.56934 0
M  V30 498 H 43.5271 1.53502 -2.7438 0
M  V30 499 N 47.2992 1.18797 -1.03562 0
M  V30 500 C 48.5472 1.88278 -0.734569 0
M  V30 501 C 48.8682 1.8043 0.739586 0
M  V30 502 O 48.1382 1.21925 1.53333 0
M  V30 503 H 46.7182 0.696991 -0.268725 0
M  V30 504 H 49.3802 1.44192 -1.31129 0
M  V30 505 H 48.4762 2.94443 -1.03489 0
M  V30 506 N 48.7773 0.814389 1.34928 0
M  V30 507 C 50.0023 0.410097 2.03305 0
M  V30 508 C 50.4273 -0.973464 1.60951 0
M  V30 509 O 49.7853 -1.63185 0.789964 0
M  V30 510 C 49.8333 0.51049 3.56968 0
M  V30 511 O 48.9373 -0.473035 4.09678 0
M  V30 512 H 48.2783 0.170088 0.641846 0
M  V30 513 H 50.8083 1.10244 1.72358 0
M  V30 514 H 50.8183 0.383135 4.06197 0
M  V30 515 H 49.4933 1.51963 3.87144 0
M  V30 516 H 48.0703 -0.305272 3.71648 0
M  V30 517 N 50.2554 -1.46986 0.568584 0
M  V30 518 C 51.5024 -2.02441 0.0487986 0
M  V30 519 C 51.8304 -1.44169 -1.30559 0
M  V30 520 O 51.0854 -0.591213 -1.86556 0
M  V30 521 C 51.3844 -3.57306 -0.081836 0
M  V30 522 C 51.0504 -4.34552 1.20313 0
M  V30 523 C 49.7124 -4.55376 1.5552 0
M  V30 524 C 52.0644 -4.79016 2.05411 0
M  V30 525 C 49.3924 -5.17913 2.7565 0
M  V30 526 C 51.7444 -5.42879 3.24754 0
M  V30 527 C 50.4084 -5.61933 3.60261 0
M  V30 528 H 49.6784 -0.740785 0.0178567 0
M  V30 529 H 52.3254 -1.76525 0.742384 0
M  V30 530 H 50.6304 -3.8228 -0.858463 0
M  V30 531 H 52.3274 -3.97876 -0.499546 0
M  V30 532 H 48.9174 -4.18631 0.919014 0
M  V30 533 H 53.1014 -4.62696 1.79516 0
M  V30 534 H 48.3574 -5.30858 3.03315 0
M  V30 535 H 52.5314 -5.76293 3.90973 0
M  V30 536 H 50.1584 -6.10161 4.53439 0
M  V30 537 N 51.7335 -0.305618 -1.54608 0
M  V30 538 C 52.6635 0.561482 -2.26649 0
M  V30 539 C 53.6445 1.13415 -1.26772 0
M  V30 540 O 54.8295 1.16262 -1.55553 0
M  V30 541 C 51.9595 1.73122 -3.01075 0
M  V30 542 C 50.9135 1.2887 -4.08138 0
M  V30 543 C 50.2395 2.54396 -4.70305 0
M  V30 544 C 51.5395 0.416578 -5.20636 0
M  V30 545 H 53.2335 -0.0393902 -2.99374 0
M  V30 546 H 50.7795 -0.020385 -1.43986 0
M  V30 547 H 52.7325 2.34396 -3.50195 0
M  V30 548 H 51.4565 2.3584 -2.25936 0
M  V30 549 H 50.1155 0.698991 -3.59875 0
M  V30 550 H 49.7635 3.15439 -3.918 0
M  V30 551 H 49.4635 2.25486 -5.42614 0
M  V30 552 H 50.9875 3.16464 -5.2219 0
M  V30 553 H 52.4015 0.935116 -5.65622 0
M  V30 554 H 50.7985 0.221046 -5.99693 0
M  V30 555 H 51.8685 -0.557162 -4.81688 0
M  V30 556 N 53.2116 1.57565 -0.0334293 0
M  V30 557 C 54.4576 1.92262 0.645226 0
M  V30 558 C 54.7906 0.910543 1.71531 0
M  V30 559 O 54.0656 -0.066099 1.94388 0
M  V30 560 C 54.3486 3.37422 1.2577 0
M  V30 561 C 54.2016 4.49369 0.196891 0
M  V30 562 C 55.5206 3.82628 2.17449 0
M  V30 563 H 52.6396 0.699171 0.233085 0
M  V30 564 H 55.2816 1.89779 -0.0915694 0
M  V30 565 H 53.4316 3.39669 1.88566 0
M  V30 566 H 55.1036 4.59254 -0.433962 0
M  V30 567 H 53.3466 4.31168 -0.477137 0
M  V30 568 H 54.0176 5.47978 0.665124 0
M  V30 569 H 56.4936 3.82145 1.64634 0
M  V30 570 H 55.3696 4.84883 2.57254 0
M  V30 571 H 55.6306 3.18376 3.0674 0
M  V30 572 N 54.6897 -0.239769 1.55765 0
M  V30 573 C 56.1057 -0.588624 1.48349 0
M  V30 574 C 56.3057 -1.88005 0.72502 0
M  V30 575 O 55.3617 -2.51186 0.257269 0
M  V30 576 C 56.6747 -0.68474 2.928 0
M  V30 577 C 58.2227 -0.77659 3.03213 0
M  V30 578 C 58.6977 -0.904207 4.48986 0
M  V30 579 N 60.1887 -0.968896 4.52953 0
M  V30 580 C 60.9237 -1.08703 5.63002 0
M  V30 581 N 60.4197 -1.17026 6.82845 0
M  V30 582 N 62.2127 -1.12074 5.50814 0
M  V30 583 H 54.3637 0.607911 2.03515 0
M  V30 584 H 56.6267 0.21083 0.924259 0
M  V30 585 H 56.3327 0.194284 3.51163 0
M  V30 586 H 56.2067 -1.55435 3.43686 0
M  V30 587 H 58.5937 -1.64606 2.44926 0
M  V30 588 H 58.6747 0.118315 2.55526 0
M  V30 589 H 58.3187 -0.0392633 5.07885 0
M  V30 590 H 58.2487 -1.81426 4.9436 0
M  V30 591 H 60.7397 -0.915633 3.6664 0
M  V30 592 H 61.0527 -1.25966 7.62465 0
M  V30 593 H 59.3977 -1.13971 6.85591 0
M  V30 594 H 62.5887 -1.05226 4.5612 0
M  V30 595 H 62.7617 -1.20936 6.36615 0
M  V30 596 N 56.1678 -1.49265 -0.50573 0
M  V30 597 C 57.0778 -1.68312 -1.63427 0
M  V30 598 C 58.0938 -0.565682 -1.64548 0
M  V30 599 O 59.2698 -0.839801 -1.83055 0
M  V30 600 C 56.3348 -1.74107 -2.99813 0
M  V30 601 C 55.3958 -2.97653 -3.09356 0
M  V30 602 C 54.6288 -3.03163 -4.39236 0
M  V30 603 O 54.8518 -2.16396 -5.27758 0
M  V30 604 O 53.7858 -3.9558 -4.53652 0
M  V30 605 H 57.6118 -2.63907 -1.50289 0
M  V30 606 H 55.1968 -1.32951 -0.681502 0
M  V30 607 H 57.0788 -1.803 -3.80881 0
M  V30 608 H 55.7538 -0.816901 -3.13223 0
M  V30 609 H 54.6608 -2.96981 -2.27493 0
M  V30 610 H 55.9938 -3.89535 -3.00871 0
M  V30 611 N 57.6459 0.756429 -1.3826 0
M  V30 612 C 58.8709 1.55077 -1.37717 0
M  V30 613 C 59.2959 1.88073 0.03164 0
M  V30 614 O 58.6539 1.50364 1.01293 0
M  V30 615 C 58.7019 2.8283 -2.23695 0
M  V30 616 O 57.8059 3.77862 -1.6521 0
M  V30 617 H 57.1469 0.469152 -0.469885 0
M  V30 618 H 59.6769 0.935019 -1.81985 0
M  V30 619 H 59.6869 3.31783 -2.37453 0
M  V30 620 H 58.3619 2.58144 -3.2609 0
M  V30 621 H 56.9389 3.36555 -1.60578 0
M  V30 622 N 59.124 1.23083 0.984299 0
M  V30 623 C 60.034 1.02515 2.11016 0
M  V30 624 C 61.05 -0.0291702 1.73976 0
M  V30 625 O 62.226 0.165434 2.00719 0
M  V30 626 C 59.291 0.614673 3.41208 0
M  V30 627 C 58.352 1.74359 3.92297 0
M  V30 628 C 57.585 1.35261 5.16275 0
M  V30 629 O 57.808 0.235136 5.69915 0
M  V30 630 O 56.742 2.17227 5.61334 0
M  V30 631 H 60.568 1.96862 2.31255 0
M  V30 632 H 58.153 1.01753 1.09392 0
M  V30 633 H 60.035 0.396518 4.1953 0
M  V30 634 H 58.71 -0.299851 3.22308 0
M  V30 635 H 57.617 2.01635 3.1511 0
M  V30 636 H 58.95 2.63629 4.15645 0
M  V30 637 N 60.6021 -1.18246 1.0419 0
M  V30 638 C 61.8271 -1.92736 0.765996 0
M  V30 639 C 62.2521 -1.75728 -0.67091 0
M  V30 640 O 61.6101 -1.06825 -1.46486 0
M  V30 641 C 61.6581 -3.42148 1.13875 0
M  V30 642 O 60.7621 -4.11548 0.264954 0
M  V30 643 H 60.1031 -0.601238 0.281797 0
M  V30 644 H 62.6331 -1.49942 1.39207 0
M  V30 645 H 62.6431 -3.92858 1.1012 0
M  V30 646 H 61.3181 -3.53848 2.18551 0
M  V30 647 H 59.8951 -3.71137 0.362226 0
M  V30 648 N 62.0802 -0.821533 -1.34494 0
M  V30 649 C 63.3052 -0.420873 -2.03085 0
M  V30 650 C 63.7302 0.964915 -1.61465 0
M  V30 651 O 63.0882 1.62763 -0.798607 0
M  V30 652 C 63.1362 -0.529414 -3.56693 0
M  V30 653 O 62.2402 0.451302 -4.09923 0
M  V30 654 H 61.5812 -0.173489 -0.640935 0
M  V30 655 H 64.1112 -1.11157 -1.71771 0
M  V30 656 H 64.1212 -0.404671 -4.05988 0
M  V30 657 H 62.7962 -1.54014 -3.86332 0
M  V30 658 H 61.3732 0.285558 -3.71805 0
M  V30 659 N 63.5583 1.46682 -0.576371 0
M  V30 660 C 64.9693 1.86112 -0.148091 0
M  V30 661 C 65.3203 1.48073 1.2872 0
M  V30 662 O 64.4453 0.892656 1.97131 0
M  V30 663 C 65.0403 3.37786 -0.261982 0
M  V30 664 C 63.5993 3.76235 0.111384 0
M  V30 665 C 62.7463 2.70713 -0.60083 0
M  V30 666 H 65.6973 1.37927 -0.78497 0
M  V30 667 H 65.7183 3.77007 0.514364 0
M  V30 668 H 65.2303 3.6544 -1.30671 0
M  V30 669 H 63.3313 3.54198 1.15649 0
M  V30 670 H 63.4443 4.78391 -0.26052 0
M  V30 671 H 61.8083 2.54666 -0.0417783 0
M  V30 672 H 62.5913 3.01208 -1.64708 0
M  V30 673 N 65.0364 0.313813 1.54444 0
M  V30 674 C 66.2844 -0.291099 1.99993 0
M  V30 675 C 66.6054 -1.53418 1.20366 0
M  V30 676 O 65.8754 -1.93544 0.302927 0
M  V30 677 H 64.4554 -0.110552 0.738774 0
M  V30 678 H 67.1174 0.428106 1.9014 0
M  V30 679 H 66.2134 -0.554268 3.07139 0
M  V30 680 N 66.5145 -1.57545 0.0417849 0
M  V30 681 C 67.4465 -2.07904 -0.964799 0
M  V30 682 C 68.4595 -1.00497 -1.28079 0
M  V30 683 O 69.6485 -1.28087 -1.24322 0
M  V30 684 C 66.7485 -2.49928 -2.28887 0
M  V30 685 C 65.9215 -3.80562 -2.15619 0
M  V30 686 C 64.9805 -4.08999 -3.31069 0
M  V30 687 O 64.0065 -4.79061 -3.0739 0
M  V30 688 N 65.2085 -3.6017 -4.55256 0
M  V30 689 H 67.9735 -2.94886 -0.535029 0
M  V30 690 H 65.5345 -1.61252 -0.144681 0
M  V30 691 H 67.5265 -2.66034 -3.04972 0
M  V30 692 H 66.0965 -1.68245 -2.63463 0
M  V30 693 H 65.3165 -3.74129 -1.24183 0
M  V30 694 H 66.6045 -4.66126 -2.03971 0
M  V30 695 H 66.0025 -3.03512 -4.77386 0
M  V30 696 H 64.5595 -3.81532 -5.28466 0
M  V30 697 N 67.9926 0.231505 -1.5589 0
M  V30 698 C 69.4086 0.580748 -1.48659 0
M  V30 699 C 69.6086 1.87617 -0.73498 0
M  V30 700 O 68.6646 2.51046 -0.270586 0
M  V30 701 C 69.9776 0.669202 -2.93159 0
M  V30 702 C 71.5256 0.760499 -3.03621 0
M  V30 703 C 72.0006 0.880383 -4.49459 0
M  V30 704 N 73.4916 0.944861 -4.53461 0
M  V30 705 C 74.2266 1.05716 -5.63571 0
M  V30 706 N 73.7226 1.13403 -6.83456 0
M  V30 707 N 75.5156 1.09152 -5.514 0
M  V30 708 H 67.6666 -0.618695 -2.03189 0
M  V30 709 H 69.9296 -0.215728 -0.923128 0
M  V30 710 H 69.6356 -0.212904 -3.51055 0
M  V30 711 H 69.5096 1.5361 -3.44505 0
M  V30 712 H 71.8966 1.63305 -2.45796 0
M  V30 713 H 71.9776 -0.131864 -2.5546 0
M  V30 714 H 71.6216 0.0123284 -5.07899 0
M  V30 715 H 71.5516 1.78802 -4.95316 0
M  V30 716 H 74.0426 0.896176 -3.6712 0
M  V30 717 H 74.3556 1.21921 -7.63122 0
M  V30 718 H 72.7006 1.10333 -6.86186 0
M  V30 719 H 75.8916 1.02805 -4.56671 0
M  V30 720 H 76.0646 1.17558 -6.37247 0
M  V30 721 N 69.4707 1.49531 0.497807 0
M  V30 722 C 70.6957 1.63159 1.28039 0
M  V30 723 C 71.1207 0.30418 1.85624 0
M  V30 724 O 70.4787 -0.728618 1.66015 0
M  V30 725 C 70.5267 2.70537 2.38416 0
M  V30 726 O 69.6307 2.29931 3.42353 0
M  V30 727 H 68.9717 0.546001 0.377861 0
M  V30 728 H 71.5017 1.9574 0.59558 0
M  V30 729 H 71.5117 2.92802 2.84132 0
M  V30 730 H 70.1867 3.6689 1.95869 0
M  V30 731 H 68.7637 2.18009 3.02533 0
M  V30 732 N 70.9488 -0.749086 1.3866 0
M  V30 733 C 72.1978 -1.50371 1.3443 0
M  V30 734 C 72.5108 -1.95503 -0.0616397 0
M  V30 735 O 73.7168 -2.70554 -0.226489 0
M  V30 736 C 72.1728 -2.71644 2.36088 0
M  V30 737 C 71.7808 -2.3352 3.82325 0
M  V30 738 C 73.5248 -3.49518 2.40909 0
M  V30 739 C 71.4318 -3.51431 4.75658 0
M  V30 740 H 70.3618 -0.564628 0.499712 0
M  V30 741 H 73.0128 -0.818449 1.64237 0
M  V30 742 H 71.3948 -3.42175 1.9933 0
M  V30 743 H 72.5688 -1.70627 4.28046 0
M  V30 744 H 70.8838 -1.6877 3.80665 0
M  V30 745 H 73.4808 -4.37197 3.07836 0
M  V30 746 H 73.8238 -3.90992 1.42937 0
M  V30 747 H 74.3568 -2.86005 2.76489 0
M  V30 748 H 71.0958 -3.15019 5.74842 0
M  V30 749 H 70.6158 -4.13352 4.34627 0
M  V30 750 H 72.2948 -4.17953 4.93887 0
M  V30 751 N 72.4269 -1.23603 -0.977757 0
M  V30 752 C 73.6519 -1.09735 -1.75991 0
M  V30 753 C 74.0769 0.346858 -1.84874 0
M  V30 754 O 73.4349 1.25093 -1.3123 0
M  V30 755 C 73.4829 -1.73051 -3.16363 0
M  V30 756 O 72.5869 -0.994452 -4.0023 0
M  V30 757 H 71.9279 -0.384476 -0.541364 0
M  V30 758 H 74.4579 -1.6371 -1.2272 0
M  V30 759 H 74.4679 -1.78398 -3.66931 0
M  V30 760 H 73.1429 -2.78137 -3.09213 0
M  V30 761 H 71.7199 -1.01812 -3.58732 0
M  V30 762 N 73.905 1.17692 -1.04816 0
M  V30 763 C 74.835 2.23777 -0.666791 0
M  V30 764 C 75.816 1.66796 0.33361 0
M  V30 765 O 77.001 1.93039 0.212042 0
M  V30 766 C 74.131 3.47281 -0.0367933 0
M  V30 767 C 73.085 4.17059 -0.961546 0
M  V30 768 C 72.411 5.34342 -0.195626 0
M  V30 769 C 73.711 4.69713 -2.28402 0
M  V30 770 H 75.405 2.55933 -1.55367 0
M  V30 771 H 72.951 1.23019 -0.748484 0
M  V30 772 H 74.904 4.20706 0.241775 0
M  V30 773 H 73.628 3.14381 0.885004 0
M  V30 774 H 72.287 3.45541 -1.22462 0
M  V30 775 H 71.935 4.97692 0.728816 0
M  V30 776 H 71.635 5.81966 -0.811775 0
M  V30 777 H 73.159 6.10553 0.0757473 0
M  V30 778 H 74.573 5.34794 -2.06563 0
M  V30 779 H 72.97 5.279 -2.8538 0
M  V30 780 H 74.04 3.86726 -2.92525 0
M  V30 781 N 75.3831 0.828654 1.34056 0
M  V30 782 C 76.7991 0.515135 1.51058 0
M  V30 783 C 76.9991 -0.959581 1.77184 0
M  V30 784 O 76.0551 -1.74382 1.82612 0
M  V30 785 C 77.3681 1.37963 2.67183 0
M  V30 786 C 78.9161 1.37735 2.81066 0
M  V30 787 C 79.3911 2.22645 4.00241 0
M  V30 788 N 80.8821 2.203 4.07458 0
M  V30 789 C 81.6171 2.82744 4.98842 0
M  V30 790 N 81.1131 3.54201 5.9541 0
M  V30 791 N 82.9061 2.72268 4.91759 0
M  V30 792 H 75.0571 1.78343 1.15358 0
M  V30 793 H 77.3201 0.760304 0.566252 0
M  V30 794 H 77.0261 2.42714 2.54525 0
M  V30 795 H 76.9001 1.0484 3.62338 0
M  V30 796 H 79.2871 0.337593 2.93163 0
M  V30 797 H 79.3681 1.74859 1.86703 0
M  V30 798 H 79.0121 3.26674 3.88905 0
M  V30 799 H 78.9421 1.82869 4.93829 0
M  V30 800 H 81.4331 1.68327 3.38341 0
M  V30 801 H 81.7461 3.9908 6.61782 0
M  V30 802 H 80.0911 3.58308 5.95517 0
M  V30 803 H 83.2821 2.16014 4.15278 0
M  V30 804 H 83.4551 3.21219 5.62781 0
M  V30 805 N 76.8612 -1.46375 0.584142 0
M  V30 806 C 78.0912 -2.06461 0.0758195 0
M  V30 807 C 78.4992 -1.43322 -1.23512 0
M  V30 808 O 77.8422 -0.533216 -1.75791 0
M  V30 809 C 77.9042 -3.59131 -0.162773 0
M  V30 810 C 77.5682 -4.4447 1.06279 0
M  V30 811 C 78.5652 -4.80918 1.97519 0
M  V30 812 C 76.2502 -4.85584 1.28504 0
M  V30 813 C 78.2442 -5.57309 3.09331 0
M  V30 814 C 75.9312 -5.61734 2.4062 0
M  V30 815 C 76.9292 -5.9751 3.30863 0
M  V30 816 O 76.6172 -6.72121 4.41032 0
M  V30 817 H 76.3492 -0.673745 0.0551725 0
M  V30 818 H 78.9032 -1.88969 0.804984 0
M  V30 819 H 77.1332 -3.74936 -0.946565 0
M  V30 820 H 78.8222 -4.0114 -0.619782 0
M  V30 821 H 79.5882 -4.49732 1.81565 0
M  V30 822 H 75.4672 -4.57187 0.591702 0
M  V30 823 H 79.0112 -5.85152 3.79793 0
M  V30 824 H 74.9082 -5.92334 2.56537 0
M  V30 825 H 75.6762 -6.90547 4.39417 0
M  V30 826 N 78.3393 -0.321999 -1.54275 0
M  V30 827 C 79.2493 0.553631 -2.27974 0
M  V30 828 C 80.2653 1.13054 -1.32268 0
M  V30 829 O 81.4413 1.15084 -1.6528 0
M  V30 830 C 78.5063 1.69927 -3.02201 0
M  V30 831 C 77.5673 1.15433 -4.1349 0
M  V30 832 C 76.8003 2.24537 -4.84168 0
M  V30 833 O 77.0233 3.44852 -4.5435 0
M  V30 834 O 75.9573 1.90044 -5.7111 0
M  V30 835 H 79.7833 -0.0448345 -3.03667 0
M  V30 836 H 77.3683 -0.0877418 -1.49142 0
M  V30 837 H 79.2503 2.3663 -3.48689 0
M  V30 838 H 77.9253 2.28395 -2.29385 0
M  V30 839 H 76.8323 0.452436 -3.71354 0
M  V30 840 H 78.1653 0.614805 -4.88345 0
M  V30 841 N 79.8174 1.5752 -0.0501392 0
M  V30 842 C 81.0654 1.9227 0.622642 0
M  V30 843 C 81.3864 0.929083 1.71444 0
M  V30 844 O 80.6564 -0.0262186 1.95882 0
M  V30 845 H 79.2364 0.709739 0.232981 0
M  V30 846 H 81.8984 1.94628 -0.102898 0
M  V30 847 H 80.9944 2.93479 1.06191 0
M  V30 848 N 81.2955 -0.223234 1.56011 0
M  V30 849 C 82.7115 -0.572856 1.48965 0
M  V30 850 C 82.9115 -1.87225 0.74492 0
M  V30 851 O 81.9675 -2.50899 0.283896 0
M  V30 852 C 83.2805 -0.653646 2.9351 0
M  V30 853 C 84.8285 -0.744386 3.0402 0
M  V30 854 C 85.3035 -0.856535 4.49919 0
M  V30 855 N 86.7945 -0.9208 4.53955 0
M  V30 856 C 87.5295 -1.02726 5.64123 0
M  V30 857 N 87.0255 -1.09777 6.84047 0
M  V30 858 N 88.8185 -1.06226 5.51971 0
M  V30 859 H 80.9695 0.629462 2.02858 0
M  V30 860 H 83.2325 0.220621 0.921971 0
M  V30 861 H 82.9385 0.231518 3.50937 0
M  V30 862 H 82.8125 -1.51781 3.45315 0
M  V30 863 H 85.1995 -1.61999 2.46658 0
M  V30 864 H 85.2805 0.14541 2.55386 0
M  V30 865 H 84.9245 0.0146069 5.07898 0
M  V30 866 H 84.8545 -1.76172 4.96257 0
M  V30 867 H 87.3455 -0.876694 3.6759 0
M  V30 868 H 87.6585 -1.17872 7.63758 0
M  V30 869 H 86.0035 -1.06693 6.86762 0
M  V30 870 H 89.1945 -1.00382 4.5721 0
M  V30 871 H 89.3675 -1.14177 6.37862 0
M  V30 872 N 82.7736 -1.49793 -0.48987 0
M  V30 873 C 84.0196 -1.60078 -1.24511 0
M  V30 874 C 84.3526 -0.291608 -1.91998 0
M  V30 875 O 83.6276 0.705647 -1.81248 0
M  V30 876 C 83.9106 -2.76791 -2.30345 0
M  V30 877 C 83.7636 -4.17535 -1.67286 0
M  V30 878 C 85.0826 -2.89111 -3.31817 0
M  V30 879 H 82.2016 -0.582645 -0.451324 0
M  V30 880 H 84.8436 -1.82117 -0.541612 0
M  V30 881 H 82.9936 -2.5813 -2.90346 0
M  V30 882 H 84.6656 -4.4774 -1.11026 0
M  V30 883 H 82.9086 -4.22665 -0.976577 0
M  V30 884 H 83.5796 -4.95094 -2.44103 0
M  V30 885 H 86.0556 -3.06133 -2.81819 0
M  V30 886 H 84.9316 -3.72433 -4.03219 0
M  V30 887 H 85.1926 -1.9893 -3.94815 0
M  V30 888 N 84.2517 0.741722 -1.39055 0
M  V30 889 C 85.4817 1.52876 -1.3897 0
M  V30 890 C 85.8897 1.8919 0.0193266 0
M  V30 891 O 85.2327 1.54138 0.999356 0
M  V30 892 C 85.2947 2.84929 -2.19216 0
M  V30 893 C 84.9587 2.71086 -3.67915 0
M  V30 894 C 85.9557 2.40084 -4.61146 0
M  V30 895 C 83.6407 2.88168 -4.11418 0
M  V30 896 C 85.6347 2.26335 -5.95862 0
M  V30 897 C 83.3217 2.74037 -5.46211 0
M  V30 898 C 84.3197 2.43166 -6.38247 0
M  V30 899 O 84.0077 2.29115 -7.70559 0
M  V30 900 H 83.7397 0.479252 -0.476753 0
M  V30 901 H 86.2937 0.924751 -1.83405 0
M  V30 902 H 84.5237 3.47564 -1.69518 0
M  V30 903 H 86.2127 3.46509 -2.11392 0
M  V30 904 H 86.9787 2.26545 -4.28838 0
M  V30 905 H 82.8577 3.11191 -3.40119 0
M  V30 906 H 86.4017 2.0216 -6.67665 0
M  V30 907 H 82.2987 2.87153 -5.78112 0
M  V30 908 H 83.0667 2.44237 -7.81211 0
M  V30 909 N 85.7298 1.2412 0.971189 0
M  V30 910 C 86.6798 0.997551 2.05019 0
M  V30 911 C 87.6638 -0.0597747 1.60789 0
M  V30 912 O 88.8558 0.153516 1.76333 0
M  V30 913 C 85.9848 0.600557 3.38006 0
M  V30 914 C 85.0708 1.69377 3.88809 0
M  V30 915 N 85.4618 2.92586 4.12586 0
M  V30 916 C 83.7598 1.57048 4.17435 0
M  V30 917 C 84.4608 3.63431 4.54195 0
M  V30 918 N 83.4368 2.90979 4.59165 0
M  V30 919 H 87.2388 1.93316 2.21374 0
M  V30 920 H 84.7528 1.14194 1.1547 0
M  V30 921 H 86.7498 0.40725 4.14906 0
M  V30 922 H 85.4098 -0.327903 3.2304 0
M  V30 923 H 86.4208 3.288 4.00139 0
M  V30 924 H 83.0978 0.709798 4.11422 0
M  V30 925 H 84.4878 4.69102 4.81033 0
M  V30 926 N 87.2079 -1.17134 1.05439 0
M  V30 927 C 88.4379 -1.91094 0.785274 0
M  V30 928 C 88.8459 -1.77198 -0.663142 0
M  V30 929 O 88.1889 -1.10835 -1.46497 0
M  V30 930 C 88.2509 -3.42594 1.08949 0
M  V30 931 C 87.9149 -3.80274 2.53458 0
M  V30 932 C 88.9119 -3.82912 3.51673 0
M  V30 933 C 86.5969 -4.11162 2.88532 0
M  V30 934 C 88.5909 -4.15913 4.83006 0
M  V30 935 C 86.2779 -4.43831 4.20068 0
M  V30 936 C 87.2759 -4.46185 5.17115 0
M  V30 937 O 86.9639 -4.78083 6.46291 0
M  V30 938 H 86.6959 -0.613073 0.284811 0
M  V30 939 H 89.2499 -1.49461 1.40893 0
M  V30 940 H 87.4799 -3.84534 0.408741 0
M  V30 941 H 89.1689 -3.97817 0.805991 0
M  V30 942 H 89.9349 -3.5917 3.25917 0
M  V30 943 H 85.8139 -4.085 2.13656 0
M  V30 944 H 89.3579 -4.17665 5.5875 0
M  V30 945 H 85.2549 -4.67037 4.45586 0
M  V30 946 H 86.0229 -4.9593 6.51149 0
M  V30 947 N 88.686 -0.835752 -1.33615 0
M  V30 948 C 90.102 -0.523139 -1.50783 0
M  V30 949 C 90.302 0.950171 -1.77691 0
M  V30 950 O 89.358 1.73411 -1.83534 0
M  V30 951 C 90.671 -1.39378 -2.66448 0
M  V30 952 C 92.219 -1.39223 -2.80332 0
M  V30 953 C 92.694 -2.24765 -3.99055 0
M  V30 954 N 94.185 -2.22458 -4.06284 0
M  V30 955 C 94.92 -2.85386 -4.97336 0
M  V30 956 N 94.416 -3.57354 -5.93523 0
M  V30 957 N 96.209 -2.74872 -4.90308 0
M  V30 958 H 88.36 -1.78952 -1.14411 0
M  V30 959 H 90.623 -0.763297 -0.562212 0
M  V30 960 H 90.329 -2.44061 -2.53234 0
M  V30 961 H 90.203 -1.0676 -3.61776 0
M  V30 962 H 92.59 -0.353136 -2.92979 0
M  V30 963 H 92.671 -1.75846 -1.85773 0
M  V30 964 H 92.315 -3.28732 -3.87167 0
M  V30 965 H 92.245 -1.85485 -4.92852 0
M  V30 966 H 94.736 -1.70119 -3.37443 0
M  V30 967 H 95.049 -4.02584 -6.59656 0
M  V30 968 H 93.394 -3.61461 -5.93608 0
M  V30 969 H 96.585 -2.18213 -4.14126 0
M  V30 970 H 96.758 -3.24199 -5.61069 0
M  V30 971 N 90.1641 1.46063 -0.591896 0
M  V30 972 C 91.4131 2.01547 -0.0786637 0
M  V30 973 C 91.7261 1.46796 1.29268 0
M  V30 974 O 92.9321 1.94157 1.89777 0
M  V30 975 C 91.3881 3.59787 -0.0900024 0
M  V30 976 C 90.9961 4.23534 -1.46023 0
M  V30 977 C 92.7401 4.22895 0.368806 0
M  V30 978 C 90.6471 5.73881 -1.4288 0
M  V30 979 H 89.5771 0.753564 -0.0256388 0
M  V30 980 H 92.2281 1.677 -0.744905 0
M  V30 981 H 90.6101 3.90752 0.642586 0
M  V30 982 H 91.7841 4.04167 -2.21328 0
M  V30 983 H 90.0991 3.72558 -1.85982 0
M  V30 984 H 92.6961 5.33116 0.411258 0
M  V30 985 H 93.0391 3.9247 1.38827 0
M  V30 986 H 93.5721 3.9659 -0.31001 0
M  V30 987 H 90.3111 6.0898 -2.42536 0
M  V30 988 H 89.8311 5.95486 -0.718095 0
M  V30 989 H 91.5101 6.36776 -1.14565 0
M  V30 990 N 91.6422 0.330177 1.54103 0
M  V30 991 C 92.5902 -0.548226 2.26047 0
M  V30 992 C 93.5842 -1.11309 1.27698 0
M  V30 993 O 94.7902 -1.06036 1.45452 0
M  V30 994 H 91.1652 -0.195456 0.726155 0
M  V30 995 H 93.1362 0.0807567 2.98291 0
M  V30 996 C 91.8852 -1.69415 3.03634 0
M  V30 997 H 91.2082 -1.26876 3.79134 0
M  V30 998 H 92.6482 -2.28423 3.5721 0
M  V30 999 C 91.1072 -2.61569 2.12328 0
M  V30 1000 O 91.6372 -3.63462 1.7105 0
M  V30 1001 N 89.8432 -2.29952 1.77681 0
M  V30 1002 H 89.3902 -1.47134 2.11446 0
M  V30 1003 H 89.3482 -2.91871 1.16869 0
M  V30 1004 N 93.1203 -1.57491 0.0584922 0
M  V30 1005 C 94.3483 -1.97296 -0.623037 0
M  V30 1006 C 94.7633 -0.936338 -1.63946 0
M  V30 1007 O 94.1203 0.0785981 -1.82331 0
M  V30 1008 C 94.1713 -3.37183 -1.30345 0
M  V30 1009 O 93.8923 -4.36872 -0.32773 0
M  V30 1010 C 95.3933 -3.91788 -2.07406 0
M  V30 1011 H 92.6133 -0.649153 -0.169826 0
M  V30 1012 H 95.1573 -2.04106 0.12696 0
M  V30 1013 H 93.3123 -3.31502 -2.00463 0
M  V30 1014 H 93.7263 -5.18141 -0.814269 0
M  V30 1015 H 95.2003 -4.91926 -2.50425 0
M  V30 1016 H 95.6773 -3.27609 -2.92521 0
M  V30 1017 H 96.2833 -4.00829 -1.42184 0
M  V30 1018 N 94.5984 0.214957 -1.56127 0
M  V30 1019 C 95.5614 1.24997 -1.92116 0
M  V30 1020 C 96.5614 1.39467 -0.800344 0
M  V30 1021 O 97.7514 1.37619 -1.06802 0
M  V30 1022 C 94.8834 2.62271 -2.17777 0
M  V30 1023 H 96.0764 0.942875 -2.84693 0
M  V30 1024 H 93.6294 0.455654 -1.49511 0
M  V30 1025 H 94.3644 2.98068 -1.27773 0
M  V30 1026 H 94.1494 2.53143 -2.99434 0
M  V30 1027 H 95.6394 3.36946 -2.46693 0
M  V30 1028 N 96.0765 1.50051 0.48192 0
M  V30 1029 C 97.3015 1.64508 1.26301 0
M  V30 1030 C 97.7265 0.323851 1.85291 0
M  V30 1031 O 97.0845 -0.710969 1.66778 0
M  V30 1032 C 97.1325 2.7305 2.35533 0
M  V30 1033 O 96.2365 2.3355 3.39895 0
M  V30 1034 H 95.5775 0.549978 0.372048 0
M  V30 1035 H 98.1075 1.9636 0.574786 0
M  V30 1036 H 98.1175 2.95799 2.8101 0
M  V30 1037 H 96.7925 3.68946 1.91967 0
M  V30 1038 H 95.3695 2.21205 3.00204 0
M  V30 1039 N 97.5546 -0.734337 1.39446 0
M  V30 1040 C 98.8316 -1.48579 1.27215 0
M  V30 1041 C 99.2116 -2.1077 -0.117968 0
M  V30 1042 O 98.5596 -1.98646 -1.12924 0
M  V30 1043 C 98.7696 -2.53667 2.39696 0
M  V30 1044 C 100.118 -3.20031 2.79044 0
M  V30 1045 O 101.142 -2.6398 2.39151 0
M  V30 1046 O 100.001 -4.21455 3.47905 0
M  V30 1047 H 97.0946 -0.659816 0.49857 0
M  V30 1048 H 99.6406 -0.768106 1.51322 0
M  V30 1049 H 98.4126 -2.06096 3.32626 0
M  V30 1050 H 98.0356 -3.32994 2.17258 0
M  V30 1051 N 99.0327 -1.24633 -0.964593 0
M  V30 1052 C 100.281 -1.08573 -1.70459 0
M  V30 1053 C 100.602 0.375655 -1.91347 0
M  V30 1054 O 99.8717 1.26779 -1.49345 0
M  V30 1055 H 98.4517 -0.398784 -0.631649 0
M  V30 1056 H 101.114 -1.56601 -1.16026 0
M  V30 1057 H 100.21 -1.58623 -2.68785 0
M  V30 1058 N 100.511 1.16574 -1.06058 0
M  V30 1059 C 101.458 2.20883 -0.669263 0
M  V30 1060 C 102.428 1.62729 0.332918 0
M  V30 1061 O 103.613 1.895 0.222346 0
M  V30 1062 C 100.753 3.45049 -0.0593572 0
M  V30 1063 C 99.8658 4.17458 -1.11143 0
M  V30 1064 C 99.0008 5.29135 -0.467916 0
M  V30 1065 C 98.0398 5.93343 -1.50369 0
M  V30 1066 N 97.1768 6.96516 -0.883706 0
M  V30 1067 H 102.017 2.53709 -1.5632 0
M  V30 1068 H 99.5538 1.24616 -0.781625 0
M  V30 1069 H 101.512 4.16033 0.311771 0
M  V30 1070 H 100.142 3.12781 0.797992 0
M  V30 1071 H 99.1938 3.45101 -1.60029 0
M  V30 1072 H 100.506 4.61307 -1.89731 0
M  V30 1073 H 99.6598 6.06684 -0.0436871 0
M  V30 1074 H 98.3988 4.86443 0.349864 0
M  V30 1075 H 97.4038 5.14517 -1.93784 0
M  V30 1076 H 98.6288 6.38114 -2.32352 0
M  V30 1077 H 96.5748 6.55943 -0.086595 0
M  V30 1078 H 96.4918 7.38723 -1.607 0
M  V30 1079 H 97.7598 7.77993 -0.484543 0
M  V30 1080 N 101.989 0.842826 1.3317 0
M  V30 1081 C 102.919 0.294028 2.31641 0
M  V30 1082 C 103.9 -0.600401 1.59151 0
M  V30 1083 O 105.085 -0.523124 1.87022 0
M  V30 1084 C 102.215 -0.528416 3.43257 0
M  V30 1085 C 101.169 0.27056 4.27144 0
M  V30 1086 C 100.495 -0.675881 5.30411 0
M  V30 1087 C 101.795 1.48981 5.00602 0
M  V30 1088 H 103.489 1.11681 2.77791 0
M  V30 1089 H 101.035 0.538478 1.33553 0
M  V30 1090 H 102.988 -0.922674 4.11175 0
M  V30 1091 H 101.712 -1.38445 2.95805 0
M  V30 1092 H 100.371 0.646427 3.60856 0
M  V30 1093 H 100.019 -1.52842 4.79216 0
M  V30 1094 H 99.7189 -0.145374 5.8742 0
M  V30 1095 H 101.243 -1.06757 6.01195 0
M  V30 1096 H 102.657 1.16849 5.61266 0
M  V30 1097 H 101.054 1.95739 5.6728 0
M  V30 1098 H 102.124 2.25746 4.29147 0
M  V30 1099 N 103.467 -1.45747 0.599634 0
M  V30 1100 C 104.697 -2.06369 0.0977132 0
M  V30 1101 C 105.105 -1.44624 -1.21985 0
M  V30 1102 O 104.448 -0.551831 -1.75216 0
M  V30 1103 C 104.51 -3.59284 -0.124673 0
M  V30 1104 C 104.174 -4.43318 1.10987 0
M  V30 1105 C 105.171 -4.78796 2.02609 0
M  V30 1106 C 102.856 -4.84194 1.33647 0
M  V30 1107 C 104.85 -5.53997 3.15224 0
M  V30 1108 C 102.537 -5.5915 2.46565 0
M  V30 1109 C 103.535 -5.93968 3.37182 0
M  V30 1110 O 103.223 -6.67405 4.48136 0
M  V30 1111 H 102.955 -0.673122 0.0623153 0
M  V30 1112 H 105.509 -1.88104 0.824981 0
M  V30 1113 H 103.739 -3.75919 -0.906745 0
M  V30 1114 H 105.428 -4.01775 -0.577201 0
M  V30 1115 H 106.194 -4.47781 1.86325 0
M  V30 1116 H 102.073 -4.56534 0.64016 0
M  V30 1117 H 105.617 -5.81091 3.85978 0
M  V30 1118 H 101.514 -5.89579 2.62805 0
M  V30 1119 H 102.282 -6.85847 4.46717 0
M  V30 1120 N 104.945 -0.338344 -1.53925 0
M  V30 1121 C 106.191 0.260143 -2.01125 0
M  V30 1122 C 106.524 1.50617 -1.22589 0
M  V30 1123 O 105.799 1.91979 -0.312113 0
M  V30 1124 C 106.082 0.579499 -3.55407 0
M  V30 1125 C 105.935 -0.678264 -4.44657 0
M  V30 1126 C 107.254 1.39122 -4.17532 0
M  V30 1127 H 104.373 0.0930772 -0.731099 0
M  V30 1128 H 107.015 -0.457852 -1.84401 0
M  V30 1129 H 105.165 1.19118 -3.69788 0
M  V30 1130 H 106.837 -1.31631 -4.42121 0
M  V30 1131 H 105.08 -1.3042 -4.13731 0
M  V30 1132 H 105.751 -0.410143 -5.50474 0
M  V30 1133 H 108.227 0.874035 -4.06817 0
M  V30 1134 H 107.103 1.58342 -5.25565 0
M  V30 1135 H 107.364 2.39178 -3.71815 0
M  V30 1136 N 106.423 1.57458 -0.0668435 0
M  V30 1137 C 107.648 1.9804 0.616027 0
M  V30 1138 C 108.073 0.944771 1.62652 0
M  V30 1139 O 107.431 -0.0902094 1.81075 0
M  V30 1140 C 107.479 3.37665 1.26549 0
M  V30 1141 O 106.583 3.36701 2.38131 0
M  V30 1142 H 105.924 0.644719 0.158849 0
M  V30 1143 H 108.454 2.04121 -0.139891 0
M  V30 1144 H 108.464 3.7474 1.6135 0
M  V30 1145 H 107.139 4.12573 0.525016 0
M  V30 1146 H 105.716 3.1139 2.0516 0
M  V30 1147 N 107.901 -0.206675 1.56239 0
M  V30 1148 C 109.126 -0.949474 1.8439 0
M  V30 1149 C 109.551 -1.76549 0.649016 0
M  V30 1150 O 108.909 -1.76782 -0.402231 0
M  V30 1151 C 108.957 -1.83078 3.10668 0
M  V30 1152 O 108.061 -2.9281 2.90407 0
M  V30 1153 H 107.402 -0.268033 0.607499 0
M  V30 1154 H 109.932 -0.215488 2.03462 0
M  V30 1155 H 109.942 -2.2377 3.41161 0
M  V30 1156 H 108.617 -1.23112 3.97261 0
M  V30 1157 H 107.194 -2.55956 2.71184 0
M  V30 1158 N 109.379 -1.50304 -0.473955 0
M  V30 1159 C 110.289 -1.7174 -1.5982 0
M  V30 1160 C 111.305 -0.600457 -1.63311 0
M  V30 1161 O 112.481 -0.878441 -1.81233 0
M  V30 1162 C 109.546 -1.80427 -2.96052 0
M  V30 1163 C 108.607 -3.04148 -3.02972 0
M  V30 1164 C 107.84 -3.12411 -4.32706 0
M  V30 1165 O 108.063 -2.27542 -5.23049 0
M  V30 1166 O 106.997 -4.05113 -4.45159 0
M  V30 1167 H 110.823 -2.67035 -1.44657 0
M  V30 1168 H 108.408 -1.34366 -0.653148 0
M  V30 1169 H 110.29 -1.88338 -3.7697 0
M  V30 1170 H 108.965 -0.883156 -3.11419 0
M  V30 1171 H 107.872 -3.0174 -2.21142 0
M  V30 1172 H 109.205 -3.95829 -2.92541 0
M  V30 1173 N 110.857 0.726932 -1.39834 0
M  V30 1174 C 112.082 1.52121 -1.40976 0
M  V30 1175 C 112.507 1.88098 -0.00826029 0
M  V30 1176 O 111.865 1.52479 0.980807 0
M  V30 1177 C 111.913 2.78021 -2.29644 0
M  V30 1178 O 111.017 3.74272 -1.73188 0
M  V30 1179 H 110.358 0.45908 -0.479731 0
M  V30 1180 H 112.888 0.896207 -1.83927 0
M  V30 1181 H 112.898 3.26671 -2.44438 0
M  V30 1182 H 111.573 2.51169 -3.31492 0
M  V30 1183 H 110.15 3.33073 -1.6768 0
M  V30 1184 N 112.336 1.25143 0.95797 0
M  V30 1185 C 113.752 1.01892 1.22842 0
M  V30 1186 C 113.952 -0.266311 1.99732 0
M  V30 1187 O 113.008 -0.979913 2.3271 0
M  V30 1188 C 114.321 2.24004 2.00606 0
M  V30 1189 C 115.869 2.28731 2.13662 0
M  V30 1190 C 116.344 3.5049 2.94823 0
M  V30 1191 N 117.835 3.50866 3.02403 0
M  V30 1192 C 118.57 4.4174 3.65586 0
M  V30 1193 N 118.066 5.42882 4.30408 0
M  V30 1194 N 119.859 4.29429 3.62694 0
M  V30 1195 H 112.01 2.07718 0.443493 0
M  V30 1196 H 114.273 0.912031 0.258657 0
M  V30 1197 H 113.979 3.17395 1.51503 0
M  V30 1198 H 113.853 2.26907 3.01319 0
M  V30 1199 H 116.24 1.35865 2.61963 0
M  V30 1200 H 116.321 2.29848 1.12265 0
M  V30 1201 H 115.965 4.43676 2.47213 0
M  V30 1202 H 115.895 3.46617 3.96439 0
M  V30 1203 H 118.386 2.777 2.56302 0
M  V30 1204 H 118.699 6.0844 4.76467 0
M  V30 1205 H 117.044 5.46758 4.29047 0
M  V30 1206 H 120.235 3.49643 3.11236 0
M  V30 1207 H 120.408 5.00448 4.1165 0
M  V30 1208 N 113.814 -1.1601 1.06675 0
M  V30 1209 C 115.061 -1.86633 0.785781 0
M  V30 1210 C 115.389 -1.81929 -0.687896 0
M  V30 1211 O 114.644 -1.23253 -1.52011 0
M  V30 1212 C 114.943 -3.35547 1.23057 0
M  V30 1213 C 114.609 -3.60448 2.70902 0
M  V30 1214 C 113.271 -3.66954 3.11285 0
M  V30 1215 C 115.623 -3.7071 3.66365 0
M  V30 1216 C 112.951 -3.81225 4.45965 0
M  V30 1217 C 115.303 -3.86503 5.00797 0
M  V30 1218 C 113.967 -3.91252 5.40813 0
M  V30 1219 H 113.237 -0.682937 0.287538 0
M  V30 1220 H 115.884 -1.37146 1.33654 0
M  V30 1221 H 114.189 -3.87193 0.59907 0
M  V30 1222 H 115.886 -3.88583 0.990163 0
M  V30 1223 H 112.476 -3.56021 2.38636 0
M  V30 1224 H 116.66 -3.64991 3.36296 0
M  V30 1225 H 111.916 -3.83155 4.76447 0
M  V30 1226 H 116.09 -3.93385 5.74649 0
M  V30 1227 H 113.717 -4.02062 6.45174 0
M  V30 1228 N 115.292 -0.849877 -1.32721 0
M  V30 1229 C 116.24 -0.279745 -2.30912 0
M  V30 1230 C 117.234 0.594278 -1.58634 0
M  V30 1231 O 118.44 0.482613 -1.73409 0
M  V30 1232 H 114.815 -0.0717521 -0.748569 0
M  V30 1233 H 116.786 -1.12222 -2.76494 0
M  V30 1234 C 115.535 0.521108 -3.43773 0
M  V30 1235 H 114.858 -0.142141 -3.99547 0
M  V30 1236 H 116.298 0.885693 -4.14646 0
M  V30 1237 C 114.757 1.70442 -2.90605 0
M  V30 1238 O 115.287 2.8034 -2.87702 0
M  V30 1239 N 113.493 1.52991 -2.47067 0
M  V30 1240 H 113.04 0.635914 -2.49628 0
M  V30 1241 H 112.998 2.32311 -2.11847 0
M  V30 1242 N 116.77 1.45427 -0.607355 0
M  V30 1243 C 117.998 2.06614 -0.108814 0
M  V30 1244 C 118.413 1.45204 1.2067 0
M  V30 1245 O 117.77 0.566132 1.73497 0
M  V30 1246 C 117.821 3.61481 0.0375347 0
M  V30 1247 O 117.542 4.20598 -1.22593 0
M  V30 1248 C 119.043 4.39652 0.567561 0
M  V30 1249 H 116.263 0.66747 -0.0687351 0
M  V30 1250 H 118.807 1.86675 -0.835022 0
M  V30 1251 H 116.962 3.80762 0.714068 0
M  V30 1252 H 117.376 5.1377 -1.05547 0
M  V30 1253 H 118.85 5.48518 0.61905 0
M  V30 1254 H 119.327 4.09417 1.58978 0
M  V30 1255 H 119.933 4.25234 -0.0749202 0
M  V30 1256 N 118.248 0.346503 1.53744 0
M  V30 1257 C 119.178 -0.501193 2.28058 0
M  V30 1258 C 120.159 -1.10014 1.29734 0
M  V30 1259 O 121.344 -1.12097 1.58581 0
M  V30 1260 C 118.474 -1.65078 3.05559 0
M  V30 1261 C 117.428 -1.18003 4.11411 0
M  V30 1262 C 116.754 -2.41837 4.76884 0
M  V30 1263 C 118.054 -0.278394 5.21558 0
M  V30 1264 H 119.748 0.11875 2.99164 0
M  V30 1265 H 117.294 0.0585531 1.43881 0
M  V30 1266 H 119.247 -2.25028 3.56287 0
M  V30 1267 H 117.971 -2.29767 2.32109 0
M  V30 1268 H 116.63 -0.603331 3.61601 0
M  V30 1269 H 116.278 -3.0494 4.00026 0
M  V30 1270 H 115.978 -2.1102 5.48402 0
M  V30 1271 H 117.502 -3.02508 5.30397 0
M  V30 1272 H 118.916 -0.784823 5.67903 0
M  V30 1273 H 117.313 -0.0619707 6.00068 0
M  V30 1274 H 118.383 0.684677 4.80042 0
M  V30 1275 N 119.726 -1.57421 0.075193 0
M  V30 1276 C 120.689 -2.11791 -0.876203 0
M  V30 1277 C 121.689 -1.04268 -1.22412 0
M  V30 1278 O 122.879 -1.30242 -1.15684 0
M  V30 1279 C 120.011 -2.62207 -2.17854 0
M  V30 1280 H 121.204 -2.9716 -0.40444 0
M  V30 1281 H 118.757 -1.55333 -0.173557 0
M  V30 1282 H 119.492 -1.803 -2.6956 0
M  V30 1283 H 119.277 -3.40802 -1.93897 0
M  V30 1284 H 120.767 -3.04335 -2.85955 0
M  V30 1285 N 121.204 0.198386 -1.56346 0
M  V30 1286 C 122.114 1.2664 -1.97483 0
M  V30 1287 C 123.13 1.49989 -0.882002 0
M  V30 1288 O 124.306 1.62668 -1.18748 0
M  V30 1289 C 121.371 2.59141 -2.30319 0
M  V30 1290 C 120.432 2.43892 -3.53292 0
M  V30 1291 C 119.665 3.70074 -3.84553 0
M  V30 1292 O 119.888 4.74101 -3.1715 0
M  V30 1293 O 118.822 3.658 -4.7799 0
M  V30 1294 H 122.648 0.947304 -2.88548 0
M  V30 1295 H 120.233 0.403123 -1.43859 0
M  V30 1296 H 122.115 3.37352 -2.5253 0
M  V30 1297 H 120.79 2.90684 -1.42423 0
M  V30 1298 H 119.697 1.63803 -3.36332 0
M  V30 1299 H 121.03 2.17282 -4.41644 0
M  V30 1300 N 122.682 1.50554 0.465978 0
M  V30 1301 C 123.612 1.72722 1.57128 0
M  V30 1302 C 124.593 0.576294 1.6004 0
M  V30 1303 O 125.778 0.81598 1.76225 0
M  V30 1304 C 122.908 1.82605 2.95419 0
M  V30 1305 C 121.862 2.97835 3.07373 0
M  V30 1306 C 121.188 2.92867 4.47363 0
M  V30 1307 C 122.488 4.38265 2.84114 0
M  V30 1308 H 124.182 2.65267 1.38829 0
M  V30 1309 H 121.728 1.2765 0.666441 0
M  V30 1310 H 123.681 1.96698 3.72677 0
M  V30 1311 H 122.405 0.866858 3.14886 0
M  V30 1312 H 121.064 2.83401 2.3255 0
M  V30 1313 H 120.712 1.94783 4.63755 0
M  V30 1314 H 120.412 3.70227 4.56296 0
M  V30 1315 H 121.936 3.09015 5.26633 0
M  V30 1316 H 123.35 4.53198 3.51118 0
M  V30 1317 H 121.747 5.17115 3.04487 0
M  V30 1318 H 122.817 4.50281 1.7993 0
M  V30 1319 N 124.16 -0.719506 1.40217 0
M  V30 1320 C 125.406 -1.48152 1.38488 0
M  V30 1321 C 125.739 -1.94195 -0.0141867 0
M  V30 1322 O 125.014 -1.67884 -0.982096 0
M  V30 1323 C 125.297 -2.71035 2.37091 0
M  V30 1324 C 125.15 -2.30912 3.86005 0
M  V30 1325 C 126.469 -3.73182 2.33288 0
M  V30 1326 H 123.588 -0.537395 0.504357 0
M  V30 1327 H 126.23 -0.821472 1.71324 0
M  V30 1328 H 124.38 -3.27352 2.0922 0
M  V30 1329 H 126.052 -1.80107 4.24687 0
M  V30 1330 H 124.295 -1.62958 4.02029 0
M  V30 1331 H 124.966 -3.18978 4.50508 0
M  V30 1332 H 127.442 -3.26485 2.57966 0
M  V30 1333 H 126.318 -4.56806 3.04334 0
M  V30 1334 H 126.579 -4.21202 1.34317 0
M  V30 1335 N 125.638 -1.25649 -0.95132 0
M  V30 1336 C 126.588 -1.03004 -2.03406 0
M  V30 1337 C 127.572 0.034187 -1.60864 0
M  V30 1338 O 128.764 -0.181549 -1.76066 0
M  V30 1339 C 125.893 -0.654255 -3.37008 0
M  V30 1340 C 124.979 -1.75542 -3.86065 0
M  V30 1341 N 125.37 -2.99113 -4.07879 0
M  V30 1342 C 123.668 -1.63669 -4.14884 0
M  V30 1343 C 124.369 -3.70611 -4.48356 0
M  V30 1344 N 123.345 -2.98247 -4.54477 0
M  V30 1345 H 127.147 -1.96813 -2.1827 0
M  V30 1346 H 124.661 -1.16017 -1.13639 0
M  V30 1347 H 126.658 -0.473206 -4.14206 0
M  V30 1348 H 125.318 0.276468 -3.23521 0
M  V30 1349 H 126.329 -3.35124 -3.94857 0
M  V30 1350 H 123.006 -0.775161 -4.10241 0
M  V30 1351 H 124.396 -4.76695 -4.73509 0
M  V30 1352 N 127.117 1.15442 -1.07289 0
M  V30 1353 C 128.067 2.18164 -0.662467 0
M  V30 1354 C 129.051 1.57845 0.312074 0
M  V30 1355 O 130.243 1.76552 0.125905 0
M  V30 1356 C 127.372 3.43246 -0.0611295 0
M  V30 1357 C 126.458 4.1062 -1.06077 0
M  V30 1358 N 126.849 4.53491 -2.24008 0
M  V30 1359 C 125.147 4.36949 -0.893964 0
M  V30 1360 C 125.848 5.05731 -2.87422 0
M  V30 1361 N 124.824 4.99236 -2.15091 0
M  V30 1362 H 128.626 2.49038 -1.56068 0
M  V30 1363 H 126.14 1.32003 -0.945988 0
M  V30 1364 H 128.137 4.16145 0.250792 0
M  V30 1365 H 126.797 3.13854 0.832207 0
M  V30 1366 H 127.808 4.46898 -2.6173 0
M  V30 1367 H 124.485 4.17466 -0.0534693 0
M  V30 1368 H 125.875 5.48865 -3.87553 0
M  V30 1369 N 128.595 0.856903 1.32268 0
M  V30 1370 C 129.545 0.274899 2.26337 0
M  V30 1371 C 130.529 -0.580543 1.50062 0
M  V30 1372 O 131.721 -0.429559 1.71708 0
M  V30 1373 C 128.85 -0.533841 3.39124 0
M  V30 1374 C 127.936 0.334114 4.22782 0
M  V30 1375 N 128.327 1.42143 4.85416 0
M  V30 1376 C 126.625 0.124256 4.45827 0
M  V30 1377 C 127.326 1.95559 5.47843 0
M  V30 1378 N 126.302 1.25444 5.28928 0
M  V30 1379 H 130.104 1.10612 2.72291 0
M  V30 1380 H 127.618 0.703258 1.46383 0
M  V30 1381 H 129.615 -0.96722 4.05525 0
M  V30 1382 H 128.275 -1.36283 2.94715 0
M  V30 1383 H 129.286 1.80436 4.85451 0
M  V30 1384 H 125.963 -0.669837 4.12092 0
M  V30 1385 H 127.353 2.86714 6.07655 0
M  V30 1386 N 130.073 -1.45103 0.615059 0
M  V30 1387 C 131.298 -2.07064 0.117988 0
M  V30 1388 C 131.723 -1.4554 -1.19163 0
M  V30 1389 O 131.081 -0.550855 -1.72729 0
M  V30 1390 C 131.129 -3.606 -0.000288387 0
M  V30 1391 O 130.233 -3.98847 -1.04856 0
M  V30 1392 H 129.574 -0.659467 0.0774581 0
M  V30 1393 H 132.104 -1.86236 0.847186 0
M  V30 1394 H 132.114 -4.07529 -0.196091 0
M  V30 1395 H 130.789 -4.04765 0.955932 0
M  V30 1396 H 129.366 -3.63577 -0.828619 0
M  V30 1397 N 131.551 -0.354651 -1.53558 0
M  V30 1398 C 132.779 0.239515 -2.05509 0
M  V30 1399 C 133.194 1.4333 -1.2289 0
M  V30 1400 O 132.551 1.80538 -0.266899 0
M  V30 1401 C 132.602 0.643719 -3.55723 0
M  V30 1402 O 132.323 -0.502602 -4.35207 0
M  V30 1403 C 133.824 1.29743 -4.23889 0
M  V30 1404 H 131.044 0.0442697 -0.669538 0
M  V30 1405 H 133.588 -0.509856 -1.98042 0
M  V30 1406 H 131.743 1.34302 -3.63376 0
M  V30 1407 H 132.157 -0.178172 -5.24197 0
M  V30 1408 H 133.631 1.53091 -5.30346 0
M  V30 1409 H 134.108 2.25441 -3.76926 0
M  V30 1410 H 134.714 0.639865 -4.20459 0
M  V30 1411 N 133.029 1.57378 -0.0835403 0
M  V30 1412 C 134.275 1.94217 0.583733 0
M  V30 1413 C 134.608 0.964653 1.68547 0
M  V30 1414 O 133.883 -0.00422258 1.945 0
M  V30 1415 C 134.166 3.41253 1.14972 0
M  V30 1416 C 134.019 4.49768 0.0538277 0
M  V30 1417 C 135.338 3.89352 2.05166 0
M  V30 1418 H 132.457 0.706233 0.210724 0
M  V30 1419 H 135.099 1.89392 -0.1519 0
M  V30 1420 H 133.249 3.45496 1.77665 0
M  V30 1421 H 134.921 4.57641 -0.579851 0
M  V30 1422 H 133.164 4.29432 -0.614068 0
M  V30 1423 H 133.835 5.49817 0.490452 0
M  V30 1424 H 136.311 3.87189 1.52393 0
M  V30 1425 H 135.187 4.92822 2.41698 0
M  V30 1426 H 135.448 3.27973 2.96456 0
M  V30 1427 N 134.507 -0.190092 1.56449 0
M  V30 1428 C 135.47 -1.21925 1.9408 0
M  V30 1429 C 136.47 -1.38176 0.822431 0
M  V30 1430 O 137.66 -1.35903 1.08977 0
M  V30 1431 C 134.792 -2.58773 2.21922 0
M  V30 1432 H 135.985 -0.897464 2.86157 0
M  V30 1433 H 133.538 -0.43181 1.50217 0
M  V30 1434 H 134.273 -2.95998 1.32499 0
M  V30 1435 H 134.058 -2.48348 3.03424 0
M  V30 1436 H 135.548 -3.32978 2.52022 0
M  V30 1437 N 135.985 -1.50799 -0.457987 0
M  V30 1438 C 137.262 -1.52968 -1.21902 0
M  V30 1439 C 137.642 -0.281906 -2.09209 0
M  V30 1440 O 136.99 0.734076 -2.16388 0
M  V30 1441 C 137.2 -2.8326 -2.03875 0
M  V30 1442 C 138.548 -3.34425 -2.6162 0
M  V30 1443 O 139.572 -2.8467 -2.14106 0
M  V30 1444 O 138.431 -4.21188 -3.48228 0
M  V30 1445 H 135.525 -0.614129 -0.553873 0
M  V30 1446 H 138.071 -1.63098 -0.468739 0
M  V30 1447 H 136.843 -3.65543 -1.39621 0
M  V30 1448 H 136.466 -2.76195 -2.8601 0
M  V30 1449 N 137.463 0.71206 -1.40597 0
M  V30 1450 C 138.711 1.46907 -1.38791 0
M  V30 1451 C 139.032 1.94998 0.00780391 0
M  V30 1452 O 138.302 1.70587 0.963174 0
M  V30 1453 H 136.882 0.545043 -0.51082 0
M  V30 1454 H 139.544 0.843882 -1.75683 0
M  V30 1455 H 138.64 2.34021 -2.06496 0
M  V30 1456 N 138.941 1.26152 0.944643 0
M  V30 1457 C 139.871 1.09902 2.06019 0
M  V30 1458 C 140.852 0.00519538 1.70099 0
M  V30 1459 O 142.037 0.176583 1.93396 0
M  V30 1460 C 139.167 0.727562 3.39594 0
M  V30 1461 C 138.121 1.77274 3.89561 0
M  V30 1462 C 137.447 1.25569 5.19747 0
M  V30 1463 C 138.747 3.17357 4.14827 0
M  V30 1464 H 140.441 2.03217 2.19871 0
M  V30 1465 H 137.987 0.978452 1.05652 0
M  V30 1466 H 139.94 0.600777 4.17095 0
M  V30 1467 H 138.664 -0.241287 3.25707 0
M  V30 1468 H 137.323 1.88814 3.14237 0
M  V30 1469 H 136.971 0.276783 5.02238 0
M  V30 1470 H 136.671 1.95433 5.54148 0
M  V30 1471 H 138.195 1.1415 5.99835 0
M  V30 1472 H 139.609 3.08914 4.82954 0
M  V30 1473 H 138.006 3.84781 4.60504 0
M  V30 1474 H 139.076 3.63673 3.20734 0
M  V30 1475 N 140.419 -1.14872 1.07899 0
M  V30 1476 C 141.668 -1.85135 0.800499 0
M  V30 1477 C 141.981 -1.83547 -0.676014 0
M  V30 1478 O 143.187 -2.49548 -1.06948 0
M  V30 1479 C 141.643 -3.3231 1.38197 0
M  V30 1480 C 141.251 -3.42329 2.8899 0
M  V30 1481 C 142.995 -4.0772 1.18174 0
M  V30 1482 C 140.902 -4.83684 3.403 0
M  V30 1483 H 139.832 -0.693563 0.29578 0
M  V30 1484 H 142.483 -1.29532 1.29976 0
M  V30 1485 H 140.865 -3.87618 0.810431 0
M  V30 1486 H 142.039 -2.97097 3.52236 0
M  V30 1487 H 140.354 -2.80369 3.07867 0
M  V30 1488 H 142.951 -5.12049 1.5398 0
M  V30 1489 H 143.294 -4.16124 0.12117 0
M  V30 1490 H 143.827 -3.58696 1.71994 0
M  V30 1491 H 140.566 -4.80465 4.45907 0
M  V30 1492 H 140.086 -5.29474 2.81811 0
M  V30 1493 H 141.765 -5.52558 3.36584 0
M  V30 1494 N 141.898 -0.863906 -1.31812 0
M  V30 1495 C 143.126 -0.486111 -2.01108 0
M  V30 1496 C 143.541 0.919755 -1.64882 0
M  V30 1497 O 142.898 1.60162 -0.874893 0
M  V30 1498 C 142.949 -0.626435 -3.56031 0
M  V30 1499 O 142.67 -1.97693 -3.90959 0
M  V30 1500 C 144.171 -0.248857 -4.42601 0
M  V30 1501 H 141.391 -0.190052 -0.643523 0
M  V30 1502 H 143.935 -1.1634 -1.68182 0
M  V30 1503 H 142.09 0.00322717 -3.874 0
M  V30 1504 H 142.504 -1.98034 -4.85678 0
M  V30 1505 H 143.978 -0.398016 -5.50563 0
M  V30 1506 H 144.455 0.811489 -4.31638 0
M  V30 1507 H 145.061 -0.853971 -4.16638 0
M  V30 1508 N 143.376 1.44774 -0.622745 0
M  V30 1509 C 144.604 2.06487 -0.130722 0
M  V30 1510 C 145.019 1.46476 1.19123 0
M  V30 1511 O 144.376 0.584502 1.72887 0
M  V30 1512 C 144.427 3.615 -0.000807207 0
M  V30 1513 O 144.148 4.19274 -1.27048 0
M  V30 1514 C 145.649 4.40229 0.520898 0
M  V30 1515 H 142.869 0.666704 -0.0758106 0
M  V30 1516 H 145.413 1.85779 -0.854774 0
M  V30 1517 H 143.568 3.81498 0.673643 0
M  V30 1518 H 143.982 5.12622 -1.1099 0
M  V30 1519 H 145.456 5.49144 0.560838 0
M  V30 1520 H 145.933 4.1108 1.54627 0
M  V30 1521 H 146.539 4.25131 -0.120018 0
M  V30 1522 N 144.854 0.36279 1.53368 0
M  V30 1523 C 145.784 -0.476976 2.28576 0
M  V30 1524 C 146.765 -1.08631 1.30894 0
M  V30 1525 O 147.95 -1.10409 1.59761 0
M  V30 1526 C 145.08 -1.61828 3.07293 0
M  V30 1527 C 144.034 -1.13633 4.1264 0
M  V30 1528 C 143.36 -2.36766 4.79423 0
M  V30 1529 C 144.66 -0.223061 5.21823 0
M  V30 1530 H 146.354 0.150474 2.99022 0
M  V30 1531 H 143.9 0.0738103 1.43811 0
M  V30 1532 H 145.853 -2.21237 3.58653 0
M  V30 1533 H 144.577 -2.27292 2.34533 0
M  V30 1534 H 143.236 -0.564945 3.62221 0
M  V30 1535 H 142.884 -3.0068 4.03238 0
M  V30 1536 H 142.584 -2.05192 5.50609 0
M  V30 1537 H 144.108 -2.96865 5.33576 0
M  V30 1538 H 145.522 -0.724545 5.68703 0
M  V30 1539 H 143.919 0.001678 6.001 0
M  V30 1540 H 144.989 0.735553 4.79289 0
M  V30 1541 N 146.332 -1.57332 0.0918853 0
M  V30 1542 C 147.282 -2.10385 -0.87876 0
M  V30 1543 C 148.266 -1.01814 -1.24591 0
M  V30 1544 O 149.458 -1.28093 -1.22152 0
M  V30 1545 C 146.587 -2.68517 -2.13901 0
M  V30 1546 C 145.673 -3.84126 -1.79744 0
M  V30 1547 N 146.064 -4.92288 -1.1613 0
M  V30 1548 C 144.362 -3.93801 -2.09373 0
M  V30 1549 C 145.063 -5.7295 -1.00513 0
M  V30 1550 N 144.039 -5.21876 -1.5214 0
M  V30 1551 H 147.841 -2.91395 -0.38293 0
M  V30 1552 H 145.355 -1.62017 -0.111423 0
M  V30 1553 H 147.352 -3.04852 -2.84378 0
M  V30 1554 H 146.012 -1.88961 -2.64053 0
M  V30 1555 H 147.023 -5.1123 -0.828504 0
M  V30 1556 H 143.7 -3.25249 -2.61762 0
M  V30 1557 H 145.09 -6.69978 -0.507902 0
M  V30 1558 N 147.81 0.181792 -1.56548 0
M  V30 1559 C 149.04 0.914618 -1.85252 0
M  V30 1560 C 149.448 1.76791 -0.673914 0
M  V30 1561 O 148.791 1.80009 0.366416 0
M  V30 1562 C 148.853 1.85019 -3.08234 0
M  V30 1563 C 148.517 1.17754 -4.41569 0
M  V30 1564 C 149.514 0.548035 -5.17003 0
M  V30 1565 C 147.199 1.17742 -4.88305 0
M  V30 1566 C 149.193 -0.0726128 -6.37359 0
M  V30 1567 C 146.88 0.552946 -6.08593 0
M  V30 1568 C 147.878 -0.070978 -6.82963 0
M  V30 1569 O 147.566 -0.685635 -8.00971 0
M  V30 1570 H 147.298 0.271695 -0.618998 0
M  V30 1571 H 149.852 0.189944 -2.0452 0
M  V30 1572 H 148.082 2.61491 -2.84885 0
M  V30 1573 H 149.771 2.45195 -3.23472 0
M  V30 1574 H 150.537 0.540174 -4.81982 0
M  V30 1575 H 146.416 1.65246 -4.30366 0
M  V30 1576 H 149.96 -0.560213 -6.95347 0
M  V30 1577 H 145.857 0.558354 -6.43081 0
M  V30 1578 H 146.625 -0.58385 -8.16415 0
M  V30 1579 N 149.288 1.51039 0.449983 0
M  V30 1580 C 150.699 1.557 1.03026 0
M  V30 1581 C 151.05 0.372939 1.92623 0
M  V30 1582 O 150.175 -0.511771 2.10261 0
M  V30 1583 C 150.77 2.82171 1.87523 0
M  V30 1584 C 149.329 2.89444 2.40622 0
M  V30 1585 C 148.476 2.50228 1.19504 0
M  V30 1586 H 151.427 1.56999 0.231745 0
M  V30 1587 H 151.448 2.65219 2.72835 0
M  V30 1588 H 150.96 3.68331 1.22286 0
M  V30 1589 H 149.061 2.07685 3.0935 0
M  V30 1590 H 149.174 3.92816 2.74285 0
M  V30 1591 H 147.538 2.03139 1.53644 0
M  V30 1592 H 148.321 3.38719 0.558972 0
M  V30 1593 N 150.766 -0.704594 1.40972 0
M  V30 1594 C 151.729 -1.80035 1.41845 0
M  V30 1595 C 152.729 -1.57774 0.310474 0
M  V30 1596 O 153.919 -1.64613 0.56992 0
M  V30 1597 C 151.051 -3.18284 1.22098 0
M  V30 1598 H 152.244 -1.80658 2.3938 0
M  V30 1599 H 149.797 -0.911329 1.26982 0
M  V30 1600 H 150.532 -3.23306 0.253672 0
M  V30 1601 H 150.317 -3.35843 2.02366 0
M  V30 1602 H 151.807 -3.98289 1.25522 0
M  V30 1603 N 152.244 -1.26651 -0.937939 0
M  V30 1604 C 153.655 -1.1125 -1.49934 0
M  V30 1605 C 154.006 0.306077 -1.93798 0
M  V30 1606 O 153.131 1.19792 -1.80219 0
M  V30 1607 C 153.726 -2.01339 -2.72485 0
M  V30 1608 C 152.285 -1.90074 -3.24883 0
M  V30 1609 C 151.432 -1.94498 -1.97651 0
M  V30 1610 H 154.383 -1.39693 -0.753091 0
M  V30 1611 H 154.404 -1.56319 -3.46907 0
M  V30 1612 H 153.916 -3.04577 -2.40529 0
M  V30 1613 H 152.017 -0.897827 -3.61621 0
M  V30 1614 H 152.13 -2.75778 -3.9177 0
M  V30 1615 H 150.494 -1.38591 -2.13693 0
M  V30 1616 H 151.277 -2.99372 -1.68022 0
M  V30 1617 N 153.722 1.14298 -1.08507 0
M  V30 1618 C 154.669 2.19414 -0.715965 0
M  V30 1619 C 155.639 1.63399 0.298326 0
M  V30 1620 O 156.824 1.89929 0.182101 0
M  V30 1621 C 153.964 3.44845 -0.132534 0
M  V30 1622 C 153.077 4.15007 -1.19973 0
M  V30 1623 C 152.212 5.28024 -0.580048 0
M  V30 1624 C 151.251 5.9002 -1.62921 0
M  V30 1625 N 150.388 6.94485 -1.03125 0
M  V30 1626 H 155.228 2.50336 -1.61666 0
M  V30 1627 H 152.765 1.2293 -0.807882 0
M  V30 1628 H 154.723 4.16601 0.223454 0
M  V30 1629 H 153.353 3.14403 0.731467 0
M  V30 1630 H 152.405 3.41629 -1.67313 0
M  V30 1631 H 153.717 4.57178 -1.99473 0
M  V30 1632 H 152.871 6.06455 -0.172364 0
M  V30 1633 H 151.61 4.87076 0.246603 0
M  V30 1634 H 150.615 5.10291 -2.04654 0
M  V30 1635 H 151.84 6.33042 -2.45835 0
M  V30 1636 H 149.786 6.55612 -0.225711 0
M  V30 1637 H 149.703 7.35148 -1.76334 0
M  V30 1638 H 150.971 7.7679 -0.649458 0
M  V30 1639 N 155.201 0.870884 1.31352 0
M  V30 1640 C 156.617 0.562932 1.49343 0
M  V30 1641 C 156.817 -0.902725 1.80148 0
M  V30 1642 O 155.873 -1.68484 1.88067 0
M  V30 1643 C 157.186 1.46393 2.62659 0
M  V30 1644 C 158.734 1.46607 2.76542 0
M  V30 1645 C 159.209 2.35266 3.92955 0
M  V30 1646 N 160.7 2.33151 4.00243 0
M  V30 1647 C 161.435 2.98471 4.89594 0
M  V30 1648 N 160.931 3.72964 5.8384 0
M  V30 1649 N 162.724 2.87775 4.82848 0
M  V30 1650 H 154.875 1.81923 1.09626 0
M  V30 1651 H 157.138 0.777934 0.541777 0
M  V30 1652 H 156.844 2.50689 2.46674 0
M  V30 1653 H 156.718 1.16314 3.58819 0
M  V30 1654 H 159.105 0.43069 2.9194 0
M  V30 1655 H 159.186 1.8071 1.81046 0
M  V30 1656 H 158.83 3.38881 3.78315 0
M  V30 1657 H 158.76 1.98487 4.87761 0
M  V30 1658 H 161.251 1.79006 3.32814 0
M  V30 1659 H 161.564 4.19932 6.4875 0
M  V30 1660 H 159.909 3.77073 5.83816 0
M  V30 1661 H 163.1 2.29116 4.08195 0
M  V30 1662 H 163.273 3.38961 5.52277 0
M  V30 1663 N 156.679 -1.44442 0.630414 0
M  V30 1664 C 157.627 -2.32437 -0.0871428 0
M  V30 1665 C 158.621 -1.47304 -0.836525 0
M  V30 1666 O 159.827 -1.63653 -0.749506 0
M  V30 1667 H 156.202 -0.750533 -0.0469495 0
M  V30 1668 H 158.173 -2.90709 0.673096 0
M  V30 1669 C 156.922 -3.31288 -1.05563 0
M  V30 1670 H 156.245 -3.96805 -0.488426 0
M  V30 1671 H 157.685 -3.9554 -1.52721 0
M  V30 1672 C 156.144 -2.6016 -2.14052 0
M  V30 1673 O 156.674 -2.39997 -3.22124 0
M  V30 1674 N 154.88 -2.19911 -1.89967 0
M  V30 1675 H 154.427 -2.36509 -1.02085 0
M  V30 1676 H 154.385 -1.72646 -2.62756 0
M  V30 1677 N 158.157 -0.370918 -1.53173 0
M  V30 1678 C 159.104 0.473035 -2.259 0
M  V30 1679 C 160.074 1.07311 -1.26781 0
M  V30 1680 O 161.259 1.1046 -1.55574 0
M  V30 1681 C 158.399 1.60405 -3.05556 0
M  V30 1682 C 157.512 1.02863 -4.19575 0
M  V30 1683 C 156.647 2.12918 -4.86661 0
M  V30 1684 C 155.686 1.52869 -5.92704 0
M  V30 1685 N 154.823 2.56779 -6.53459 0
M  V30 1686 H 159.663 -0.153649 -2.97604 0
M  V30 1687 H 157.2 -0.0875946 -1.46839 0
M  V30 1688 H 159.158 2.27034 -3.50016 0
M  V30 1689 H 157.788 2.20131 -2.36097 0
M  V30 1690 H 156.84 0.252465 -3.79561 0
M  V30 1691 H 158.152 0.549642 -4.95762 0
M  V30 1692 H 157.306 2.87356 -5.34333 0
M  V30 1693 H 156.045 2.6417 -4.09958 0
M  V30 1694 H 155.05 0.769479 -5.44389 0
M  V30 1695 H 156.275 1.02435 -6.7133 0
M  V30 1696 H 154.221 3.07235 -5.79606 0
M  V30 1697 H 154.138 2.13583 -7.25202 0
M  V30 1698 H 155.406 3.30903 -7.05779 0
M  V30 1699 N 159.635 1.57281 -0.100228 0
M  V30 1700 C 161.046 1.81725 0.428107 0
M  V30 1701 C 161.397 1.01619 1.67833 0
M  V30 1702 O 160.522 0.247098 2.14985 0
M  V30 1703 C 161.117 3.29617 0.78347 0
M  V30 1704 C 159.676 3.54808 1.25653 0
M  V30 1705 C 158.823 2.76118 0.255752 0
M  V30 1706 H 161.774 1.55324 -0.325608 0
M  V30 1707 H 161.795 3.4322 1.64256 0
M  V30 1708 H 161.307 3.87893 -0.12665 0
M  V30 1709 H 159.408 3.01868 2.18418 0
M  V30 1710 H 159.521 4.63443 1.21482 0
M  V30 1711 H 157.885 2.43745 0.738956 0
M  V30 1712 H 158.668 3.37145 -0.647136 0
M  V30 1713 N 161.113 -0.173488 1.56642 0
M  V30 1714 C 162.341 -0.906095 1.86004 0
M  V30 1715 C 162.756 -1.75921 0.685355 0
M  V30 1716 O 162.113 -1.79198 -0.345578 0
M  V30 1717 C 162.164 -1.78462 3.14378 0
M  V30 1718 O 161.885 -0.965914 4.27319 0
M  V30 1719 C 163.386 -2.62707 3.57071 0
M  V30 1720 H 160.606 -0.263341 0.617165 0
M  V30 1721 H 163.15 -0.174236 2.03756 0
M  V30 1722 H 161.305 -2.46984 2.98459 0
M  V30 1723 H 161.719 -1.56655 5.00559 0
M  V30 1724 H 163.193 -3.19969 4.49804 0
M  V30 1725 H 163.67 -3.37472 2.81086 0
M  V30 1726 H 164.276 -1.99521 3.75595 0
M  V30 1727 N 162.591 -1.51276 -0.441967 0
M  V30 1728 C 163.84 -1.6295 -1.18871 0
M  V30 1729 C 164.153 -0.349312 -1.92456 0
M  V30 1730 O 165.359 -0.345355 -2.69295 0
M  V30 1731 C 163.815 -2.87759 -2.16155 0
M  V30 1732 C 163.423 -4.22764 -1.48239 0
M  V30 1733 C 165.167 -3.08788 -2.91291 0
M  V30 1734 C 163.074 -5.38728 -2.4398 0
M  V30 1735 H 162.004 -0.606913 -0.447406 0
M  V30 1736 H 164.655 -1.77739 -0.456205 0
M  V30 1737 H 163.037 -2.66593 -2.92821 0
M  V30 1738 H 164.211 -4.54293 -0.771635 0
M  V30 1739 H 162.526 -4.07575 -0.852741 0
M  V30 1740 H 165.123 -3.92599 -3.63002 0
M  V30 1741 H 165.466 -2.21679 -3.5237 0
M  V30 1742 H 165.999 -3.30272 -2.21733 0
M  V30 1743 H 162.738 -6.28082 -1.87598 0
M  V30 1744 H 162.258 -5.1158 -3.13123 0
M  V30 1745 H 163.937 -5.70489 -3.05207 0
M  V30 1746 N 164.069 0.697108 -1.41344 0
M  V30 1747 C 165.299 1.48377 -1.43763 0
M  V30 1748 C 165.707 1.89156 -0.0408726 0
M  V30 1749 O 165.05 1.57239 0.949812 0
M  V30 1750 C 165.112 2.7781 -2.2817 0
M  V30 1751 C 164.776 2.59244 -3.76353 0
M  V30 1752 C 165.773 2.25292 -4.68551 0
M  V30 1753 C 163.458 2.74933 -4.20378 0
M  V30 1754 C 165.452 2.07264 -6.02761 0
M  V30 1755 C 163.139 2.56521 -5.54653 0
M  V30 1756 C 164.137 2.22737 -6.4566 0
M  V30 1757 O 163.825 2.04485 -7.77458 0
M  V30 1758 H 163.557 0.463842 -0.491759 0
M  V30 1759 H 166.111 0.865934 -1.86255 0
M  V30 1760 H 164.341 3.41995 -1.8049 0
M  V30 1761 H 166.03 3.39608 -2.22309 0
M  V30 1762 H 166.796 2.12787 -4.35829 0
M  V30 1763 H 162.675 3.00213 -3.49848 0
M  V30 1764 H 166.219 1.80817 -6.73759 0
M  V30 1765 H 162.116 2.68616 -5.86955 0
M  V30 1766 H 162.884 2.1926 -7.88586 0
M  V30 1767 N 165.547 1.27147 0.931209 0
M  V30 1768 C 166.795 1.13055 1.6752 0
M  V30 1769 C 167.116 -0.324791 1.92276 0
M  V30 1770 O 166.386 -1.22775 1.52654 0
M  V30 1771 H 164.966 0.415391 0.620854 0
M  V30 1772 H 167.628 1.59623 1.11833 0
M  V30 1773 H 166.724 1.65694 2.64485 0
M  V30 1774 N 167.025 -1.13721 1.09112 0
M  V30 1775 C 168.271 -1.85198 0.826414 0
M  V30 1776 C 168.604 -1.83129 -0.646319 0
M  V30 1777 O 167.879 -1.2671 -1.47563 0
M  V30 1778 C 168.162 -3.33507 1.35812 0
M  V30 1779 C 168.015 -3.44108 2.89672 0
M  V30 1780 C 169.334 -4.28838 0.989256 0
M  V30 1781 H 166.453 -0.67243 0.301675 0
M  V30 1782 H 169.095 -1.33499 1.35197 0
M  V30 1783 H 167.245 -3.77666 0.911082 0
M  V30 1784 H 168.917 -3.08684 3.428 0
M  V30 1785 H 167.16 -2.85087 3.26967 0
M  V30 1786 H 167.831 -4.48388 3.21951 0
M  V30 1787 H 170.307 -3.92734 1.37475 0
M  V30 1788 H 169.183 -5.31051 1.38838 0
M  V30 1789 H 169.444 -4.4198 -0.102924 0
M  V30 1790 N 168.503 -0.877838 -1.30888 0
M  V30 1791 C 169.728 -0.506629 -2.01117 0
M  V30 1792 C 170.153 0.895564 -1.65412 0
M  V30 1793 O 169.511 1.5923 -0.866922 0
M  V30 1794 C 169.559 -0.680223 -3.54126 0
M  V30 1795 O 168.663 0.277033 -4.11468 0
M  V30 1796 H 168.004 -0.200518 -0.633 0
M  V30 1797 H 170.534 -1.18342 -1.66902 0
M  V30 1798 H 170.544 -0.5765 -4.03907 0
M  V30 1799 H 169.219 -1.70261 -3.79452 0
M  V30 1800 H 167.796 0.127606 -3.72682 0
M  V30 1801 N 169.982 1.44106 -0.638065 0
M  V30 1802 C 171.393 1.85316 -0.226894 0
M  V30 1803 C 171.744 1.53399 1.22324 0
M  V30 1804 O 170.869 0.975463 1.93167 0
M  V30 1805 C 171.464 3.3637 -0.405013 0
M  V30 1806 C 170.023 3.76369 -0.0482902 0
M  V30 1807 C 169.17 2.67921 -0.715108 0
M  V30 1808 H 172.121 1.34474 -0.842764 0
M  V30 1809 H 172.142 3.7885 0.354 0
M  V30 1810 H 171.654 3.59569 -1.46053 0
M  V30 1811 H 169.755 3.58784 1.00522 0
M  V30 1812 H 169.868 4.76856 -0.463187 0
M  V30 1813 H 168.232 2.54259 -0.149753 0
M  V30 1814 H 169.015 2.93951 -1.77335 0
M  V30 1815 N 171.46 0.379036 1.52974 0
M  V30 1816 C 172.408 -0.476033 2.27677 0
M  V30 1817 C 173.402 -1.0719 1.31174 0
M  V30 1818 O 174.608 -1.01355 1.48752 0
M  V30 1819 H 170.983 -0.172255 0.732006 0
M  V30 1820 H 172.954 0.175615 2.97883 0
M  V30 1821 C 171.703 -1.5967 3.0887 0
M  V30 1822 H 171.026 -1.1475 3.82978 0
M  V30 1823 H 172.466 -2.16943 3.64296 0
M  V30 1824 C 170.925 -2.54682 2.20542 0
M  V30 1825 O 171.455 -3.57836 1.82527 0
M  V30 1826 N 169.661 -2.24183 1.84907 0
M  V30 1827 H 169.208 -1.40333 2.1602 0
M  V30 1828 H 169.166 -2.88006 1.26096 0
M  V30 1829 N 172.938 -1.57226 0.108567 0
M  V30 1830 C 174.168 -1.9889 -0.559142 0
M  V30 1831 C 174.576 -0.986889 -1.61422 0
M  V30 1832 O 173.919 0.0298705 -1.83676 0
M  V30 1833 C 173.981 -3.36952 -1.25315 0
M  V30 1834 C 173.645 -4.55679 -0.347248 0
M  V30 1835 C 174.642 -5.18281 0.409996 0
M  V30 1836 C 172.327 -5.0162 -0.261367 0
M  V30 1837 C 174.321 -6.25203 1.24096 0
M  V30 1838 C 172.008 -6.08405 0.573238 0
M  V30 1839 C 173.006 -6.70063 1.32304 0
M  V30 1840 O 172.694 -7.74788 2.14381 0
M  V30 1841 H 172.426 -0.658343 -0.153492 0
M  V30 1842 H 174.98 -2.04532 0.188584 0
M  V30 1843 H 173.21 -3.28032 -2.04773 0
M  V30 1844 H 174.899 -3.62974 -1.81673 0
M  V30 1845 H 175.665 -4.8371 0.353457 0
M  V30 1846 H 171.544 -4.53381 -0.834656 0
M  V30 1847 H 175.088 -6.73259 1.82669 0
M  V30 1848 H 170.985 -6.42406 0.631208 0
M  V30 1849 H 171.753 -7.91837 2.07209 0
M  V30 1850 N 174.416 0.165178 -1.56732 0
M  V30 1851 C 175.693 0.908443 -1.73224 0
M  V30 1852 C 176.073 2.0013 -0.67165 0
M  V30 1853 O 175.421 2.26353 0.31253 0
M  V30 1854 C 175.631 1.46756 -3.16644 0
M  V30 1855 C 176.979 1.93809 -3.77787 0
M  V30 1856 O 178.003 1.56537 -3.1996 0
M  V30 1857 O 176.862 2.62486 -4.79336 0
M  V30 1858 H 173.956 0.428025 -0.707618 0
M  V30 1859 H 176.502 0.152526 -1.69013 0
M  V30 1860 H 175.274 0.68129 -3.85323 0
M  V30 1861 H 174.897 2.28749 -3.25207 0
M  V30 1862 N 175.894 1.51508 0.433938 0
M  V30 1863 C 176.841 1.73068 1.52696 0
M  V30 1864 C 177.811 0.572441 1.55924 0
M  V30 1865 O 178.996 0.807253 1.72882 0
M  V30 1866 C 176.136 1.86474 2.90381 0
M  V30 1867 C 175.249 3.14037 2.96656 0
M  V30 1868 C 174.384 3.18019 4.25485 0
M  V30 1869 C 173.423 4.39882 4.2564 0
M  V30 1870 N 172.56 4.41394 5.45999 0
M  V30 1871 H 177.4 2.66366 1.33615 0
M  V30 1872 H 174.937 1.32008 0.649018 0
M  V30 1873 H 176.895 1.92229 3.70275 0
M  V30 1874 H 175.525 0.965809 3.08013 0
M  V30 1875 H 174.577 3.17575 2.09404 0
M  V30 1876 H 175.889 4.0394 2.92633 0
M  V30 1877 H 175.043 3.22708 5.13755 0
M  V30 1878 H 173.782 2.2601 4.3217 0
M  V30 1879 H 172.787 4.35366 3.35763 0
M  V30 1880 H 174.012 5.33159 4.20617 0
M  V30 1881 H 171.958 3.52258 5.53399 0
M  V30 1882 H 171.875 5.25111 5.4387 0
M  V30 1883 H 173.143 4.50281 6.36292 0
M  V30 1884 N 177.372 -0.689602 1.41712 0
M  V30 1885 C 178.618 -1.45041 1.42599 0
M  V30 1886 C 178.973 -1.92366 0.0363764 0
M  V30 1887 O 178.266 -1.67022 -0.938844 0
M  V30 1888 C 178.46 -2.67298 2.37247 0
M  V30 1889 C 178.289 -2.31935 3.85274 0
M  V30 1890 C 177.059 -2.2201 4.53916 0
M  V30 1891 C 179.257 -1.94526 4.76093 0
M  V30 1892 N 177.239 -1.79594 5.87043 0
M  V30 1893 C 178.61 -1.62915 5.98213 0
M  V30 1894 C 180.665 -1.81388 4.63684 0
M  V30 1895 C 179.368 -1.19486 7.09306 0
M  V30 1896 C 181.394 -1.39364 5.74745 0
M  V30 1897 C 180.756 -1.08668 6.95967 0
M  V30 1898 H 176.855 -0.527806 0.577014 0
M  V30 1899 H 179.439 -0.797266 1.77628 0
M  V30 1900 H 177.61 -3.30325 2.04304 0
M  V30 1901 H 179.342 -3.33806 2.28814 0
M  V30 1902 H 176.097 -2.406 4.07932 0
M  V30 1903 H 176.521 -1.60851 6.57614 0
M  V30 1904 H 181.163 -2.03772 3.70455 0
M  V30 1905 H 178.881 -0.958477 8.02396 0
M  V30 1906 H 182.467 -1.2974 5.6715 0
M  V30 1907 H 181.347 -0.766417 7.80446 0
M  V30 1908 N 178.85 -1.27639 -0.924453 0
M  V30 1909 C 179.76 -1.12466 -2.05885 0
M  V30 1910 C 180.776 -0.053869 -1.73917 0
M  V30 1911 O 181.952 -0.261012 -1.99702 0
M  V30 1912 C 179.017 -0.776768 -3.37886 0
M  V30 1913 C 178.078 -1.92878 -3.83532 0
M  V30 1914 C 177.311 -1.59739 -5.09234 0
M  V30 1915 O 177.534 -0.506782 -5.68144 0
M  V30 1916 O 176.468 -2.43761 -5.50331 0
M  V30 1917 H 180.294 -2.07671 -2.21599 0
M  V30 1918 H 177.879 -1.06857 -1.04413 0
M  V30 1919 H 179.761 -0.596229 -4.17161 0
M  V30 1920 H 178.436 0.145732 -3.23372 0
M  V30 1921 H 177.343 -2.1644 -3.0513 0
M  V30 1922 H 178.676 -2.8316 -4.02593 0
M  V30 1923 N 180.328 1.1314 -1.09713 0
M  V30 1924 C 181.261 2.17735 -0.683137 0
M  V30 1925 C 182.239 1.59582 0.311841 0
M  V30 1926 O 183.423 1.87298 0.212514 0
M  V30 1927 C 180.55 3.38699 -0.00684324 0
M  V30 1928 C 179.596 4.1546 -0.964102 0
M  V30 1929 S 180.429 4.74733 -2.47767 0
M  V30 1930 C 181.585 5.9904 -1.81387 0
M  V30 1931 H 181.818 2.52515 -1.56918 0
M  V30 1932 H 179.351 1.24484 -0.913404 0
M  V30 1933 H 181.309 4.08765 0.377044 0
M  V30 1934 H 179.97 3.02214 0.85589 0
M  V30 1935 H 179.163 5.02093 -0.43803 0
M  V30 1936 H 178.765 3.51066 -1.28953 0
M  V30 1937 H 181.057 6.67846 -1.13967 0
M  V30 1938 H 182 6.56261 -2.65947 0
M  V30 1939 H 182.408 5.4976 -1.28155 0
M  V30 1940 N 181.806 0.884767 1.30421 0
M  V30 1941 C 182.716 0.355398 2.31892 0
M  V30 1942 C 183.732 -0.542261 1.65335 0
M  V30 1943 O 184.908 -0.435432 1.96637 0
M  V30 1944 C 181.973 -0.421661 3.44126 0
M  V30 1945 C 181.034 0.505727 4.26311 0
M  V30 1946 C 180.267 -0.234343 5.33185 0
M  V30 1947 O 180.49 -1.46045 5.51386 0
M  V30 1948 O 179.424 0.415443 6.00465 0
M  V30 1949 H 183.25 1.19685 2.79122 0
M  V30 1950 H 180.835 0.648596 1.34587 0
M  V30 1951 H 182.717 -0.861641 4.12497 0
M  V30 1952 H 181.392 -1.23942 2.99032 0
M  V30 1953 H 180.299 0.994513 3.60639 0
M  V30 1954 H 181.632 1.28948 4.75009 0
M  V30 1955 N 183.284 -1.43765 0.645699 0
M  V30 1956 C 184.7 -1.56509 0.312591 0
M  V30 1957 C 184.9 -1.6307 -1.18365 0
M  V30 1958 O 183.956 -1.58167 -1.96824 0
M  V30 1959 C 185.269 -2.82968 1.01733 0
M  V30 1960 C 186.817 -2.96701 0.996865 0
M  V30 1961 C 187.292 -4.25982 1.68236 0
M  V30 1962 N 188.783 -4.32829 1.64964 0
M  V30 1963 C 189.518 -5.31613 2.14885 0
M  V30 1964 N 189.014 -6.36718 2.73061 0
M  V30 1965 N 190.807 -5.23217 2.05428 0
M  V30 1966 H 182.958 -1.3775 1.61675 0
M  V30 1967 H 185.221 -0.661067 0.679481 0
M  V30 1968 H 184.927 -2.84156 2.0724 0
M  V30 1969 H 184.801 -3.72957 0.564177 0
M  V30 1970 H 187.188 -2.95058 -0.0497719 0
M  V30 1971 H 187.269 -2.08022 1.48865 0
M  V30 1972 H 186.913 -4.28386 2.72852 0
M  V30 1973 H 186.843 -5.13545 1.16529 0
M  V30 1974 H 189.334 -3.57493 1.22503 0
M  V30 1975 H 189.647 -7.08401 3.08848 0
M  V30 1976 H 187.992 -6.37362 2.77118 0
M  V30 1977 H 191.183 -4.40019 1.59689 0
M  V30 1978 H 191.356 -6.00045 2.44643 0
M  V30 1979 N 184.763 -0.387143 -1.52771 0
M  V30 1980 C 185.991 0.195869 -2.05971 0
M  V30 1981 C 186.406 1.40691 -1.25903 0
M  V30 1982 O 185.763 1.79931 -0.305134 0
M  V30 1983 C 185.814 0.56812 -3.57008 0
M  V30 1984 O 185.535 -0.594803 -4.34043 0
M  V30 1985 C 187.036 1.20723 -4.26545 0
M  V30 1986 H 184.256 0.0300578 -0.670326 0
M  V30 1987 H 186.8 -0.551749 -1.96916 0
M  V30 1988 H 184.955 1.26564 -3.66143 0
M  V30 1989 H 185.369 -0.289322 -5.23701 0
M  V30 1990 H 186.843 1.41807 -5.33474 0
M  V30 1991 H 187.32 2.17395 -3.81623 0
M  V30 1992 H 187.926 0.550535 -4.21722 0
M  V30 1993 N 186.241 1.57166 -0.116904 0
M  V30 1994 C 187.518 1.86645 0.585049 0
M  V30 1995 C 187.898 1.0177 1.84949 0
M  V30 1996 O 187.246 0.0960379 2.28298 0
M  V30 1997 C 187.456 3.37736 0.879507 0
M  V30 1998 C 188.804 4.06289 1.23348 0
M  V30 1999 O 189.828 3.42743 0.969836 0
M  V30 2000 O 188.687 5.18455 1.7282 0
M  V30 2001 H 185.781 0.772593 0.295007 0
M  V30 2002 H 188.327 1.69025 -0.151249 0
M  V30 2003 H 187.099 3.91296 -0.0166136 0
M  V30 2004 H 186.722 3.6078 1.67103 0
M  V30 2005 N 187.719 -0.156864 1.56817 0
M  V30 2006 C 188.968 -0.869504 1.81996 0
M  V30 2007 C 189.281 -1.82777 0.696545 0
M  V30 2008 O 190.487 -2.58384 0.833658 0
M  V30 2009 C 188.943 -1.59679 3.22538 0
M  V30 2010 C 188.551 -0.681431 4.42787 0
M  V30 2011 C 190.295 -2.2968 3.56997 0
M  V30 2012 C 188.202 -1.40978 5.74351 0
M  V30 2013 H 187.132 -0.328438 0.678708 0
M  V30 2014 H 189.783 -0.1223 1.83092 0
M  V30 2015 H 188.165 -2.38927 3.158 0
M  V30 2016 H 189.339 0.0751166 4.60739 0
M  V30 2017 H 187.654 -0.0903431 4.16302 0
M  V30 2018 H 190.251 -2.84794 4.52544 0
M  V30 2019 H 190.594 -3.05707 2.82576 0
M  V30 2020 H 191.127 -1.57361 3.65352 0
M  V30 2021 H 187.866 -0.691561 6.51842 0
M  V30 2022 H 187.386 -2.13929 5.60352 0
M  V30 2023 H 189.065 -1.95337 6.16808 0
M  V30 2024 N 189.197 -1.51736 -0.425897 0
M  V30 2025 C 190.425 -1.68794 -1.1965 0
M  V30 2026 C 190.84 -0.390164 -1.84725 0
M  V30 2027 O 190.197 0.632376 -1.71194 0
M  V30 2028 C 190.248 -2.81174 -2.27208 0
M  V30 2029 O 189.969 -4.05925 -1.64793 0
M  V30 2030 C 191.47 -3.09599 -3.17275 0
M  V30 2031 H 188.69 -0.566128 -0.360194 0
M  V30 2032 H 191.234 -1.98211 -0.503249 0
M  V30 2033 H 189.389 -2.54324 -2.9223 0
M  V30 2034 H 189.803 -4.68423 -2.35967 0
M  V30 2035 H 191.277 -3.91786 -3.88854 0
M  V30 2036 H 191.754 -2.22468 -3.78688 0
M  V30 2037 H 192.36 -3.38151 -2.57941 0
M  V30 2038 N 190.675 0.682077 -1.42076 0
M  V30 2039 C 191.608 1.80666 -1.3941 0
M  V30 2040 C 192.586 1.60518 -0.25939 0
M  V30 2041 O 193.77 1.83088 -0.448456 0
M  V30 2042 C 190.897 3.17556 -1.17796 0
M  V30 2043 C 189.943 3.56468 -2.34164 0
M  V30 2044 S 190.776 3.59729 -3.96681 0
M  V30 2045 C 191.932 4.99323 -3.77395 0
M  V30 2046 H 192.165 1.82652 -2.34575 0
M  V30 2047 H 189.698 0.852062 -1.2876 0
M  V30 2048 H 191.656 3.96575 -1.06012 0
M  V30 2049 H 190.317 3.13164 -0.242279 0
M  V30 2050 H 189.51 4.5595 -2.1477 0
M  V30 2051 H 189.112 2.84792 -2.42425 0
M  V30 2052 H 191.404 5.87202 -3.37935 0
M  V30 2053 H 192.347 5.23763 -4.76527 0
M  V30 2054 H 192.755 4.71498 -3.10403 0
M  V30 2055 N 192.153 1.28127 0.917671 0
M  V30 2056 C 193.1 1.11717 2.0196 0
M  V30 2057 C 194.07 0.0153929 1.66093 0
M  V30 2058 O 195.255 0.179596 1.89953 0
M  V30 2059 C 192.395 0.780927 3.36148 0
M  V30 2060 C 191.508 1.96135 3.84909 0
M  V30 2061 C 190.643 1.56609 5.0759 0
M  V30 2062 C 189.682 2.71339 5.48673 0
M  V30 2063 N 188.819 2.32332 6.62545 0
M  V30 2064 H 193.659 2.06003 2.15329 0
M  V30 2065 H 191.196 1.02535 1.05475 0
M  V30 2066 H 193.154 0.56675 4.13333 0
M  V30 2067 H 191.784 -0.124998 3.22558 0
M  V30 2068 H 190.836 2.28777 3.03916 0
M  V30 2069 H 192.148 2.82165 4.1132 0
M  V30 2070 H 191.302 1.31374 5.92305 0
M  V30 2071 H 190.041 0.677014 4.82978 0
M  V30 2072 H 189.046 2.97276 4.62501 0
M  V30 2073 H 190.271 3.60882 5.75274 0
M  V30 2074 H 188.217 1.45889 6.39572 0
M  V30 2075 H 188.134 3.11899 6.88662 0
M  V30 2076 H 189.402 2.10371 7.50576 0
M  V30 2077 N 193.631 -1.12557 1.10312 0
M  V30 2078 C 194.581 -2.16331 0.720076 0
M  V30 2079 C 195.565 -1.58616 -0.270115 0
M  V30 2080 O 196.757 -1.76823 -0.0790507 0
M  V30 2081 C 193.886 -3.42963 0.152113 0
M  V30 2082 C 192.972 -4.07663 1.16927 0
M  V30 2083 N 193.363 -4.47392 2.35953 0
M  V30 2084 C 191.661 -4.34425 1.0095 0
M  V30 2085 C 192.362 -4.97932 3.0073 0
M  V30 2086 N 191.338 -4.93358 2.28252 0
M  V30 2087 H 195.14 -2.44813 1.62616 0
M  V30 2088 H 192.654 -1.29449 0.980654 0
M  V30 2089 H 194.651 -4.16664 -0.14037 0
M  V30 2090 H 193.311 -3.1595 -0.748701 0
M  V30 2091 H 194.322 -4.39802 2.73486 0
M  V30 2092 H 190.999 -4.17177 0.164134 0
M  V30 2093 H 192.389 -5.38397 4.01969 0
M  V30 2094 N 195.109 -0.891671 -1.2995 0
M  V30 2095 C 196.056 -0.361736 -2.27948 0
M  V30 2096 C 197.026 0.551761 -1.56668 0
M  V30 2097 O 198.211 0.478736 -1.84696 0
M  V30 2098 C 195.351 0.411825 -3.42634 0
M  V30 2099 C 194.464 -0.531651 -4.28716 0
M  V30 2100 C 193.599 0.258167 -5.30572 0
M  V30 2101 C 192.638 -0.680349 -6.08307 0
M  V30 2102 N 191.775 0.0745613 -7.0206 0
M  V30 2103 H 196.615 -1.20254 -2.72659 0
M  V30 2104 H 194.152 -0.604352 -1.34112 0
M  V30 2105 H 196.11 0.876304 -4.07893 0
M  V30 2106 H 194.74 1.21715 -2.98974 0
M  V30 2107 H 193.792 -1.11463 -3.63703 0
M  V30 2108 H 195.104 -1.25038 -4.82874 0
M  V30 2109 H 194.258 0.784204 -6.0161 0
M  V30 2110 H 192.997 1.01008 -4.77126 0
M  V30 2111 H 192.002 -1.21796 -5.3614 0
M  V30 2112 H 193.227 -1.43145 -6.63842 0
M  V30 2113 H 191.173 0.808883 -6.50994 0
M  V30 2114 H 191.09 -0.584409 -7.53738 0
M  V30 2115 H 192.358 0.581123 -7.77331 0
M  V30 2116 N 196.587 1.43421 -0.653314 0
M  V30 2117 C 197.517 2.33487 0.0246656 0
M  V30 2118 C 198.498 1.49475 0.811863 0
M  V30 2119 O 199.683 1.78139 0.773322 0
M  V30 2120 C 196.813 3.32841 0.99166 0
M  V30 2121 C 195.767 4.26842 0.314568 0
M  V30 2122 C 195.093 5.16236 1.39302 0
M  V30 2123 C 196.393 5.16243 -0.793095 0
M  V30 2124 H 198.087 2.90427 -0.727481 0
M  V30 2125 H 195.633 1.39649 -0.351287 0
M  V30 2126 H 197.586 3.94747 1.47487 0
M  V30 2127 H 196.31 2.74158 1.77497 0
M  V30 2128 H 194.969 3.663 -0.148199 0
M  V30 2129 H 194.617 4.53891 2.16776 0
M  V30 2130 H 194.317 5.79948 0.945223 0
M  V30 2131 H 195.841 5.81015 1.87759 0
M  V30 2132 H 197.255 5.71958 -0.392039 0
M  V30 2133 H 195.652 5.88676 -1.16536 0
M  V30 2134 H 196.722 4.55927 -1.65103 0
M  V30 2135 N 198.065 0.39524 1.52563 0
M  V30 2136 C 199.313 -0.184678 2.01254 0
M  V30 2137 C 199.634 -1.46822 1.28329 0
M  V30 2138 O 198.904 -1.91666 0.405094 0
M  V30 2139 H 197.484 -0.0712355 0.743596 0
M  V30 2140 H 200.146 0.528293 1.87603 0
M  V30 2141 H 199.242 -0.390681 3.09645 0
M  V30 2142 N 199.544 -1.57102 0.125237 0
M  V30 2143 C 200.792 -1.95021 -0.530198 0
M  V30 2144 C 201.113 -1.00982 -1.66816 0
M  V30 2145 O 200.383 -0.0672693 -1.95784 0
M  V30 2146 H 198.963 -0.720046 -0.198853 0
M  V30 2147 H 201.625 -1.93916 0.19564 0
M  V30 2148 H 200.721 -2.98211 -0.920681 0
M  V30 2149 N 201.022 0.148545 -1.56898 0
M  V30 2150 C 202.27 0.859717 -1.82902 0
M  V30 2151 C 202.591 1.81775 -0.70588 0
M  V30 2152 O 201.861 1.93994 0.272586 0
M  V30 2153 H 200.441 0.320469 -0.674766 0
M  V30 2154 H 203.103 0.142918 -1.94375 0
M  V30 2155 H 202.199 1.4229 -2.77777 0
M  V30 2156 N 202.5 1.5196 0.417844 0
M  V30 2157 C 203.432 1.70895 1.52733 0
M  V30 2158 C 204.445 0.589405 1.51756 0
M  V30 2159 O 205.634 0.864312 1.56179 0
M  V30 2160 C 202.734 1.72627 2.91639 0
M  V30 2161 C 201.907 3.01479 3.16905 0
M  V30 2162 C 200.966 2.95139 4.35637 0
M  V30 2163 O 199.992 3.69059 4.3334 0
M  V30 2164 N 201.194 2.12328 5.40275 0
M  V30 2165 H 203.959 2.66612 1.36888 0
M  V30 2166 H 201.52 1.50089 0.607037 0
M  V30 2167 H 203.512 1.65928 3.6912 0
M  V30 2168 H 202.082 0.844216 3.00985 0
M  V30 2169 H 201.302 3.21895 2.27546 0
M  V30 2170 H 202.59 3.86736 3.30625 0
M  V30 2171 H 201.988 1.51685 5.44985 0
M  V30 2172 H 200.545 2.11494 6.16534 0
M  V30 2173 N 203.978 -0.674533 1.42435 0
M  V30 2174 C 205.208 -1.46071 1.46105 0
M  V30 2175 C 205.616 -1.89067 0.0709605 0
M  V30 2176 O 204.959 -1.58731 -0.924677 0
M  V30 2177 C 205.021 -2.74145 2.32561 0
M  V30 2178 C 204.685 -2.53224 3.8043 0
M  V30 2179 C 205.682 -2.17809 4.72075 0
M  V30 2180 C 203.367 -2.6821 4.24698 0
M  V30 2181 C 205.361 -1.97648 6.05982 0
M  V30 2182 C 203.048 -2.47665 5.58664 0
M  V30 2183 C 204.046 -2.12437 6.49122 0
M  V30 2184 O 203.734 -1.9209 7.80613 0
M  V30 2185 H 203.466 -0.455959 0.499076 0
M  V30 2186 H 206.02 -0.836193 1.87609 0
M  V30 2187 H 204.25 -3.3908 1.85908 0
M  V30 2188 H 205.939 -3.36028 2.27683 0
M  V30 2189 H 206.705 -2.05826 4.39159 0
M  V30 2190 H 202.584 -2.94609 3.54579 0
M  V30 2191 H 206.128 -1.70075 6.7655 0
M  V30 2192 H 202.025 -2.59244 5.91154 0
M  V30 2193 H 202.793 -2.06686 7.91974 0
M  V30 2194 N 205.456 -1.28612 -0.910864 0
M  V30 2195 C 206.704 -1.15705 -1.65701 0
M  V30 2196 C 207.025 0.29416 -1.92769 0
M  V30 2197 O 206.295 1.20331 -1.54588 0
M  V30 2198 H 204.875 -0.425216 -0.614167 0
M  V30 2199 H 207.537 -1.61381 -1.0928 0
M  V30 2200 H 206.633 -1.6988 -2.61815 0
M  V30 2201 N 206.934 1.1197 -1.10907 0
M  V30 2202 C 207.844 2.21433 -0.774896 0
M  V30 2203 C 208.86 1.72478 0.229657 0
M  V30 2204 O 210.036 2.01288 0.0672008 0
M  V30 2205 C 207.101 3.4602 -0.216986 0
M  V30 2206 C 206.162 4.09791 -1.27944 0
M  V30 2207 C 205.395 5.28431 -0.748055 0
M  V30 2208 O 205.618 5.68823 0.423833 0
M  V30 2209 O 204.552 5.82644 -1.51027 0
M  V30 2210 H 208.378 2.5242 -1.68873 0
M  V30 2211 H 205.963 1.20399 -0.884555 0
M  V30 2212 H 207.845 4.21304 0.090059 0
M  V30 2213 H 206.52 3.16698 0.669633 0
M  V30 2214 H 205.427 3.36265 -1.63941 0
M  V30 2215 H 206.76 4.4328 -2.13925 0
M  V30 2216 N 208.412 0.89855 1.29475 0
M  V30 2217 C 209.658 0.524658 1.95896 0
M  V30 2218 C 209.991 -0.926468 1.70676 0
M  V30 2219 O 209.266 -1.65665 1.01908 0
M  V30 2220 C 209.549 0.81633 3.50725 0
M  V30 2221 C 209.402 2.31907 3.85408 0
M  V30 2222 C 210.721 0.302038 4.39062 0
M  V30 2223 H 207.84 0.19209 0.711527 0
M  V30 2224 H 210.482 1.12502 1.53112 0
M  V30 2225 H 208.632 0.305369 3.87298 0
M  V30 2226 H 210.304 2.89949 3.58786 0
M  V30 2227 H 208.547 2.78027 3.32992 0
M  V30 2228 H 209.218 2.47373 4.93468 0
M  V30 2229 H 211.694 0.739551 4.09475 0
M  V30 2230 H 210.57 0.535331 5.46283 0
M  V30 2231 H 210.831 -0.797216 4.34853 0
M  V30 2232 N 209.89 -1.43072 0.660911 0
M  V30 2233 C 211.12 -2.05769 0.185153 0
M  V30 2234 C 211.528 -1.49668 -1.15742 0
M  V30 2235 O 210.871 -0.625649 -1.72717 0
M  V30 2236 C 210.933 -3.59489 0.0278237 0
M  V30 2237 C 210.597 -4.38212 1.2969 0
M  V30 2238 C 211.594 -4.69772 2.22734 0
M  V30 2239 C 209.279 -4.7809 1.54063 0
M  V30 2240 C 211.273 -5.40129 3.38437 0
M  V30 2241 C 208.96 -5.4819 2.70058 0
M  V30 2242 C 209.958 -5.79132 3.62071 0
M  V30 2243 O 209.646 -6.47798 4.76039 0
M  V30 2244 H 209.378 -0.669873 0.0908086 0
M  V30 2245 H 211.932 -1.84436 0.90402 0
M  V30 2246 H 210.162 -3.79426 -0.746489 0
M  V30 2247 H 211.851 -4.03862 -0.406275 0
M  V30 2248 H 212.617 -4.39476 2.05149 0
M  V30 2249 H 208.496 -4.53408 0.833215 0
M  V30 2250 H 212.04 -5.64198 4.10277 0
M  V30 2251 H 207.937 -5.77902 2.87574 0
M  V30 2252 H 208.705 -6.66283 4.75404 0
M  V30 2253 N 211.368 -0.403325 -1.52352 0
M  V30 2254 C 212.278 0.432009 -2.30588 0
M  V30 2255 C 213.294 1.05884 -1.38075 0
M  V30 2256 O 214.47 1.06161 -1.71148 0
M  V30 2257 C 211.535 1.53669 -3.10784 0
M  V30 2258 C 210.596 0.933525 -4.19027 0
M  V30 2259 C 209.829 1.98557 -4.9539 0
M  V30 2260 O 210.052 3.20283 -4.71991 0
M  V30 2261 O 208.986 1.59504 -5.80381 0
M  V30 2262 H 212.812 -0.205739 -3.03002 0
M  V30 2263 H 210.397 -0.166675 -1.48467 0
M  V30 2264 H 212.279 2.17814 -3.60742 0
M  V30 2265 H 210.954 2.15915 -2.41169 0
M  V30 2266 H 209.861 0.254954 -3.7323 0
M  V30 2267 H 211.194 0.35508 -4.90918 0
M  V30 2268 N 212.846 1.57033 -0.133567 0
M  V30 2269 C 214.094 1.953 0.519848 0
M  V30 2270 C 214.415 1.01866 1.66278 0
M  V30 2271 O 213.685 0.0776513 1.95746 0
M  V30 2272 H 212.265 0.721091 0.195032 0
M  V30 2273 H 214.927 1.93809 -0.205921 0
M  V30 2274 H 214.023 2.98695 0.904854 0
M  V30 2275 N 214.325 -0.140222 1.56975 0
M  V30 2276 C 215.571 -0.852949 1.83991 0
M  V30 2277 C 215.904 -1.80512 0.716187 0
M  V30 2278 O 215.179 -1.92479 -0.279681 0
M  V30 2279 C 215.462 -1.6215 3.21527 0
M  V30 2280 C 215.315 -0.690363 4.4447 0
M  V30 2281 C 216.634 -2.58247 3.56366 0
M  V30 2282 H 213.753 -0.308634 0.669264 0
M  V30 2283 H 216.395 -0.117898 1.89634 0
M  V30 2284 H 214.545 -2.24812 3.16847 0
M  V30 2285 H 216.217 -0.0742264 4.6124 0
M  V30 2286 H 214.46 -0.000396433 4.338 0
M  V30 2287 H 215.131 -1.2643 5.37326 0
M  V30 2288 H 217.607 -2.05701 3.61699 0
M  V30 2289 H 216.483 -3.09067 4.53617 0
M  V30 2290 H 216.744 -3.39923 2.82674 0
M  V30 2291 N 215.803 -1.52179 -0.40978 0
M  V30 2292 C 217.049 -1.67408 -1.15525 0
M  V30 2293 C 217.404 -0.398746 -1.88223 0
M  V30 2294 O 216.697 0.60678 -1.81738 0
M  V30 2295 C 216.891 -2.83428 -2.17723 0
M  V30 2296 C 216.72 -4.22121 -1.55061 0
M  V30 2297 C 215.49 -4.87657 -1.3236 0
M  V30 2298 C 217.688 -5.04248 -1.01185 0
M  V30 2299 N 215.67 -6.10387 -0.655834 0
M  V30 2300 C 217.041 -6.18209 -0.470963 0
M  V30 2301 C 219.096 -4.89583 -0.906252 0
M  V30 2302 C 217.799 -7.1911 0.165172 0
M  V30 2303 C 219.825 -5.90718 -0.28397 0
M  V30 2304 C 219.187 -7.03969 0.246243 0
M  V30 2305 H 215.286 -0.666251 -0.409431 0
M  V30 2306 H 217.87 -1.89482 -0.447729 0
M  V30 2307 H 216.041 -2.6297 -2.85834 0
M  V30 2308 H 217.773 -2.87697 -2.84627 0
M  V30 2309 H 214.528 -4.46007 -1.59294 0
M  V30 2310 H 214.952 -6.76153 -0.338596 0
M  V30 2311 H 219.594 -4.02253 -1.302 0
M  V30 2312 H 217.312 -8.06066 0.572986 0
M  V30 2313 H 220.898 -5.81443 -0.203792 0
M  V30 2314 H 219.778 -7.80886 0.720173 0
M  V30 2315 N 217.281 0.66697 -1.42791 0
M  V30 2316 C 218.228 1.7803 -1.4688 0
M  V30 2317 C 219.198 1.6299 -0.319919 0
M  V30 2318 O 220.383 1.83432 -0.525118 0
M  V30 2319 C 217.523 3.1611 -1.38451 0
M  V30 2320 C 216.636 3.42381 -2.63437 0
M  V30 2321 C 215.771 4.70232 -2.47094 0
M  V30 2322 C 214.81 4.89564 -3.67415 0
M  V30 2323 N 213.947 6.08661 -3.49966 0
M  V30 2324 H 218.787 1.7387 -2.42019 0
M  V30 2325 H 216.324 0.84868 -1.20149 0
M  V30 2326 H 218.282 3.95914 -1.31561 0
M  V30 2327 H 216.912 3.19374 -0.469033 0
M  V30 2328 H 215.964 2.56774 -2.80662 0
M  V30 2329 H 217.276 3.52557 -3.52853 0
M  V30 2330 H 216.43 5.5814 -2.37834 0
M  V30 2331 H 215.169 4.62353 -1.5518 0
M  V30 2332 H 214.174 4.00096 -3.77099 0
M  V30 2333 H 215.399 4.99282 -4.6032 0
M  V30 2334 H 213.345 6.0194 -2.60776 0
M  V30 2335 H 213.262 6.19733 -4.32975 0
M  V30 2336 H 214.53 6.99226 -3.44532 0
M  V30 2337 N 218.759 1.29093 0.90403 0
M  V30 2338 C 219.706 1.13853 2.00764 0
M  V30 2339 C 220.676 0.0330084 1.66067 0
M  V30 2340 O 221.861 0.199733 1.89752 0
M  V30 2341 C 219.001 0.816537 3.35301 0
M  V30 2342 C 218.114 2.00206 3.82807 0
M  V30 2343 C 217.249 1.61983 5.059 0
M  V30 2344 C 216.288 2.77143 5.45764 0
M  V30 2345 N 215.425 2.39346 6.60044 0
M  V30 2346 H 220.265 2.08276 2.13132 0
M  V30 2347 H 217.802 1.03648 1.04381 0
M  V30 2348 H 219.76 0.610557 4.12708 0
M  V30 2349 H 218.39 -0.090779 3.22672 0
M  V30 2350 H 217.442 2.31988 3.01473 0
M  V30 2351 H 218.754 2.86512 4.08304 0
M  V30 2352 H 217.908 1.37649 5.90879 0
M  V30 2353 H 216.647 0.728202 4.82233 0
M  V30 2354 H 215.652 3.02165 4.59322 0
M  V30 2355 H 216.877 3.66964 5.71414 0
M  V30 2356 H 214.823 1.52665 6.37989 0
M  V30 2357 H 214.74 3.19185 6.85315 0
M  V30 2358 H 216.008 2.1832 7.48303 0
M  V30 2359 N 220.237 -1.11381 1.11499 0
M  V30 2360 C 221.467 -1.86663 0.885464 0
M  V30 2361 C 221.875 -1.80464 -0.568281 0
M  V30 2362 O 221.218 -1.18445 -1.40415 0
M  V30 2363 C 221.28 -3.36337 1.26956 0
M  V30 2364 C 220.944 -3.66304 2.73259 0
M  V30 2365 C 221.941 -3.63733 3.71476 0
M  V30 2366 C 219.626 -3.9529 3.09921 0
M  V30 2367 C 221.62 -3.89725 5.04374 0
M  V30 2368 C 219.307 -4.20941 4.43004 0
M  V30 2369 C 220.305 -4.18147 5.40039 0
M  V30 2370 O 219.993 -4.43153 6.70724 0
M  V30 2371 H 219.725 -0.597114 0.316908 0
M  V30 2372 H 222.279 -1.41782 1.48617 0
M  V30 2373 H 220.509 -3.81826 0.611999 0
M  V30 2374 H 222.198 -3.92986 1.01573 0
M  V30 2375 H 222.964 -3.41389 3.44498 0
M  V30 2376 H 218.843 -3.966 2.35009 0
M  V30 2377 H 222.387 -3.8746 5.80104 0
M  V30 2378 H 218.284 -4.42761 4.69716 0
M  V30 2379 H 219.052 -4.60717 6.76522 0
M  V30 2380 N 221.715 -0.905404 -1.28997 0
M  V30 2381 C 222.94 -0.549175 -1.99997 0
M  V30 2382 C 223.365 0.860276 -1.67275 0
M  V30 2383 O 222.723 1.57355 -0.900502 0
M  V30 2384 C 222.771 -0.755185 -3.52604 0
M  V30 2385 O 221.875 0.189692 -4.11964 0
M  V30 2386 H 221.216 -0.213899 -0.628604 0
M  V30 2387 H 223.746 -1.21856 -1.64354 0
M  V30 2388 H 223.756 -0.662045 -4.02593 0
M  V30 2389 H 222.431 -1.78271 -3.75755 0
M  V30 2390 H 221.008 0.0485257 -3.72868 0
M  V30 2391 N 223.193 1.4272 -0.668489 0
M  V30 2392 C 224.123 2.335 -0.000100175 0
M  V30 2393 C 225.104 1.50328 0.795964 0
M  V30 2394 O 226.289 1.78949 0.754385 0
M  V30 2395 C 223.419 3.33874 0.956302 0
M  V30 2396 C 222.373 4.27152 0.269278 0
M  V30 2397 C 221.699 5.17684 1.33818 0
M  V30 2398 C 222.999 5.15373 -0.847805 0
M  V30 2399 H 224.693 2.89639 -0.758244 0
M  V30 2400 H 222.239 1.39269 -0.366079 0
M  V30 2401 H 224.192 3.9629 1.43292 0
M  V30 2402 H 222.916 2.76025 1.74579 0
M  V30 2403 H 221.575 3.66123 -0.187042 0
M  V30 2404 H 221.223 4.56165 2.1195 0
M  V30 2405 H 220.923 5.80918 0.883659 0
M  V30 2406 H 222.447 5.82974 1.81586 0
M  V30 2407 H 223.861 5.7151 -0.452681 0
M  V30 2408 H 222.258 5.87407 -1.22773 0
M  V30 2409 H 223.328 4.5415 -1.69929 0
M  V30 2410 N 224.671 0.411399 1.52136 0
M  V30 2411 C 225.899 -0.163076 2.06256 0
M  V30 2412 C 226.314 -1.3867 1.28125 0
M  V30 2413 O 225.671 -1.79423 0.333721 0
M  V30 2414 C 225.722 -0.511252 3.57867 0
M  V30 2415 O 225.443 0.66378 4.33042 0
M  V30 2416 C 226.944 -1.13921 4.28412 0
M  V30 2417 H 224.164 -0.0193897 0.67072 0
M  V30 2418 H 226.708 0.583007 1.96013 0
M  V30 2419 H 224.863 -1.20723 3.6811 0
M  V30 2420 H 225.277 0.372601 5.23175 0
M  V30 2421 H 226.751 -1.33302 5.35663 0
M  V30 2422 H 227.228 -2.11296 3.85033 0
M  V30 2423 H 227.834 -0.483373 4.22544 0
M  V30 2424 N 226.149 -1.5696 0.141893 0
M  V30 2425 C 227.395 -1.9625 -0.511248 0
M  V30 2426 C 227.728 -1.02654 -1.64851 0
M  V30 2427 O 227.003 -0.0679676 -1.94381 0
M  V30 2428 C 227.286 -3.45285 -1.02227 0
M  V30 2429 C 227.139 -4.49658 0.113138 0
M  V30 2430 C 228.458 -3.96698 -1.90574 0
M  V30 2431 H 225.577 -0.713567 -0.184367 0
M  V30 2432 H 228.219 -1.88698 0.222087 0
M  V30 2433 H 226.369 -3.51852 -1.64719 0
M  V30 2434 H 228.041 -4.55174 0.749302 0
M  V30 2435 H 226.284 -4.26857 0.773026 0
M  V30 2436 H 226.955 -5.51258 -0.286053 0
M  V30 2437 H 229.431 -3.92578 -1.37918 0
M  V30 2438 H 228.307 -5.01453 -2.2324 0
M  V30 2439 H 228.568 -3.3875 -2.84079 0
M  V30 2440 N 227.627 0.131896 -1.57047 0
M  V30 2441 C 228.59 1.14638 -1.98471 0
M  V30 2442 C 229.59 1.35029 -0.873148 0
M  V30 2443 O 230.78 1.31764 -1.13946 0
M  V30 2444 C 227.912 2.50358 -2.31373 0
M  V30 2445 H 229.105 0.79064 -2.8929 0
M  V30 2446 H 226.658 0.375761 -1.51716 0
M  V30 2447 H 227.393 2.90876 -1.43393 0
M  V30 2448 H 227.178 2.36915 -3.12432 0
M  V30 2449 H 228.668 3.23395 -2.64207 0
M  V30 2450 N 229.106 1.52395 0.401703 0
M  V30 2451 C 230.352 1.67065 1.14966 0
M  V30 2452 C 230.685 0.403052 1.89971 0
M  V30 2453 O 229.96 -0.598774 1.85054 0
M  V30 2454 C 230.243 2.8975 2.13815 0
M  V30 2455 C 230.096 4.26578 1.42658 0
M  V30 2456 C 231.415 3.07965 3.14397 0
M  V30 2457 H 228.534 0.607968 0.416587 0
M  V30 2458 H 231.176 1.84965 0.434511 0
M  V30 2459 H 229.326 2.74619 2.74803 0
M  V30 2460 H 230.998 4.53451 0.847329 0
M  V30 2461 H 229.241 4.27639 0.72849 0
M  V30 2462 H 229.912 5.08483 2.14823 0
M  V30 2463 H 232.388 3.22043 2.63491 0
M  V30 2464 H 231.264 3.95308 3.80819 0
M  V30 2465 H 231.525 2.21611 3.82545 0
M  V30 2466 N 230.584 -0.659388 1.43143 0
M  V30 2467 C 231.531 -1.77249 1.47822 0
M  V30 2468 C 232.501 -1.62818 0.328558 0
M  V30 2469 O 233.686 -1.83151 0.534838 0
M  V30 2470 C 230.826 -3.15371 1.40126 0
M  V30 2471 C 229.939 -3.4098 2.65249 0
M  V30 2472 C 229.074 -4.68915 2.49584 0
M  V30 2473 C 228.113 -4.87608 3.70006 0
M  V30 2474 N 227.25 -6.06796 3.53189 0
M  V30 2475 H 232.09 -1.72584 2.42938 0
M  V30 2476 H 229.627 -0.842297 1.20598 0
M  V30 2477 H 231.585 -3.9521 1.33659 0
M  V30 2478 H 230.215 -3.19121 0.485964 0
M  V30 2479 H 229.267 -2.55282 2.8202 0
M  V30 2480 H 230.579 -3.50681 3.54717 0
M  V30 2481 H 229.733 -5.56871 2.4079 0
M  V30 2482 H 228.472 -4.61524 1.5763 0
M  V30 2483 H 227.477 -3.9809 3.79215 0
M  V30 2484 H 228.702 -4.96834 4.62961 0
M  V30 2485 H 226.648 -6.00549 2.63965 0
M  V30 2486 H 226.565 -6.17428 4.36255 0
M  V30 2487 H 227.833 -6.9739 3.48236 0
M  V30 2488 N 232.062 -1.29571 -0.897171 0
M  V30 2489 C 233.29 -1.20583 -1.68129 0
M  V30 2490 C 233.705 0.233181 -1.87354 0
M  V30 2491 O 233.062 1.15579 -1.41236 0
M  V30 2492 C 233.113 -1.91772 -3.06441 0
M  V30 2493 O 232.834 -3.30053 -2.88091 0
M  V30 2494 C 234.335 -1.89291 -4.00854 0
M  V30 2495 H 231.555 -0.417826 -0.525036 0
M  V30 2496 H 234.099 -1.70987 -1.12177 0
M  V30 2497 H 232.254 -1.45196 -3.59161 0
M  V30 2498 H 232.668 -3.65942 -3.75748 0
M  V30 2499 H 234.142 -2.43662 -4.95311 0
M  V30 2500 H 234.619 -0.869014 -4.30517 0
M  V30 2501 H 235.225 -2.35622 -3.54066 0
M  V30 2502 N 233.54 1.10788 -1.12088 0
M  V30 2503 C 234.47 2.19083 -0.807755 0
M  V30 2504 C 235.451 1.6858 0.226859 0
M  V30 2505 O 236.636 1.93997 0.0888475 0
M  V30 2506 C 233.766 3.46344 -0.257576 0
M  V30 2507 C 232.72 4.101 -1.22483 0
M  V30 2508 C 232.046 5.32016 -0.535052 0
M  V30 2509 C 233.346 4.54236 -2.57811 0
M  V30 2510 H 235.04 2.45534 -1.71328 0
M  V30 2511 H 232.586 1.1801 -0.825205 0
M  V30 2512 H 234.539 4.21392 -0.0262679 0
M  V30 2513 H 233.263 3.19373 0.683278 0
M  V30 2514 H 231.922 3.37054 -1.44189 0
M  V30 2515 H 231.57 5.01319 0.410827 0
M  V30 2516 H 231.27 5.75625 -1.18024 0
M  V30 2517 H 232.794 6.09799 -0.312695 0
M  V30 2518 H 234.208 5.20575 -2.40155 0
M  V30 2519 H 232.605 5.08682 -3.18375 0
M  V30 2520 H 233.675 3.6734 -3.16528 0
M  V30 2521 N 235.018 0.912232 1.28515 0
M  V30 2522 C 235.965 0.397954 2.27343 0
M  V30 2523 C 236.935 -0.526766 1.57526 0
M  V30 2524 O 238.12 -0.449292 1.85435 0
M  V30 2525 C 235.26 -0.357263 3.43246 0
M  V30 2526 C 234.373 0.599788 4.27816 0
M  V30 2527 C 233.508 -0.173725 5.30916 0
M  V30 2528 C 232.547 0.777039 6.07148 0
M  V30 2529 N 231.684 0.0371398 7.0209 0
M  V30 2530 H 236.524 1.24577 2.70711 0
M  V30 2531 H 234.061 0.625612 1.33133 0
M  V30 2532 H 236.019 -0.8113 4.09236 0
M  V30 2533 H 234.649 -1.16943 3.00872 0
M  V30 2534 H 233.701 1.17235 3.61884 0
M  V30 2535 H 235.013 1.32704 4.80823 0
M  V30 2536 H 234.167 -0.688394 6.02782 0
M  V30 2537 H 232.906 -0.934041 4.78672 0
M  V30 2538 H 231.911 1.3031 5.34134 0
M  V30 2539 H 233.136 1.53689 6.61481 0
M  V30 2540 H 231.082 -0.705213 6.52198 0
M  V30 2541 H 230.999 0.704249 7.52713 0
M  V30 2542 H 232.267 -0.457383 7.78157 0
M  V30 2543 N 236.496 -1.42363 0.676048 0
M  V30 2544 C 237.406 -2.346 -0.00153389 0
M  V30 2545 C 238.422 -1.5516 -0.787485 0
M  V30 2546 O 239.598 -1.87723 -0.729521 0
M  V30 2547 C 236.663 -3.33705 -0.940298 0
M  V30 2548 C 235.724 -4.29042 -0.148739 0
M  V30 2549 C 234.957 -5.23413 -1.04279 0
M  V30 2550 O 235.18 -5.22749 -2.28232 0
M  V30 2551 O 234.114 -5.99795 -0.502925 0
M  V30 2552 H 237.94 -2.94082 0.758268 0
M  V30 2553 H 235.525 -1.42888 0.436289 0
M  V30 2554 H 237.407 -3.94586 -1.47917 0
M  V30 2555 H 236.082 -2.76695 -1.67993 0
M  V30 2556 H 234.989 -3.71571 0.43427 0
M  V30 2557 H 236.322 -4.89097 0.551805 0
M  V30 2558 N 237.974 -0.419461 -1.51915 0
M  V30 2559 C 239.251 0.211999 -1.94448 0
M  V30 2560 C 239.631 1.61703 -1.35703 0
M  V30 2561 O 238.979 2.22102 -0.536931 0
M  V30 2562 C 239.189 0.207872 -3.4838 0
M  V30 2563 C 240.537 0.422192 -4.22496 0
M  V30 2564 O 241.561 0.286778 -3.55044 0
M  V30 2565 O 240.42 0.690009 -5.42126 0
M  V30 2566 H 237.514 0.139586 -0.815135 0
M  V30 2567 H 240.06 -0.476151 -1.62883 0
M  V30 2568 H 238.832 -0.775102 -3.83546 0
M  V30 2569 H 238.455 0.939688 -3.86336 0
M  V30 2570 N 239.452 1.56882 -0.150215 0
M  V30 2571 C 240.68 2.00593 0.506948 0
M  V30 2572 C 241.095 1.03033 1.58208 0
M  V30 2573 O 240.452 0.0278396 1.82479 0
M  V30 2574 C 240.503 3.44209 1.10465 0
M  V30 2575 O 240.224 4.3804 0.0724636 0
M  V30 2576 C 241.725 4.03214 1.84211 0
M  V30 2577 H 238.945 0.65795 0.13169 0
M  V30 2578 H 241.489 2.03018 -0.245743 0
M  V30 2579 H 239.644 3.42625 1.80795 0
M  V30 2580 H 240.058 5.22007 0.510793 0
M  V30 2581 H 241.532 5.0569 2.21318 0
M  V30 2582 H 242.009 3.44107 2.72923 0
M  V30 2583 H 242.615 4.08437 1.18572 0
M  V30 2584 N 240.93 -0.123565 1.57115 0
M  V30 2585 C 241.863 -1.18202 1.95201 0
M  V30 2586 C 242.841 -1.40349 0.821031 0
M  V30 2587 O 244.025 -1.54578 1.07879 0
M  V30 2588 C 241.152 -2.53671 2.24429 0
M  V30 2589 C 240.198 -2.4798 3.46999 0
M  V30 2590 S 241.031 -1.92389 4.99747 0
M  V30 2591 C 242.187 -3.2954 5.32123 0
M  V30 2592 H 242.42 -0.857212 2.84674 0
M  V30 2593 H 239.953 -0.33014 1.50829 0
M  V30 2594 H 241.911 -3.3162 2.41947 0
M  V30 2595 H 240.572 -2.83332 1.35579 0
M  V30 2596 H 239.765 -3.47758 3.64801 0
M  V30 2597 H 239.367 -1.7815 3.28844 0
M  V30 2598 H 241.659 -4.25736 5.27025 0
M  V30 2599 H 242.602 -3.16569 6.33395 0
M  V30 2600 H 243.01 -3.27758 4.59603 0
M  V30 2601 N 242.408 -1.52605 -0.393616 0
M  V30 2602 C 243.318 -1.79971 -1.50492 0
M  V30 2603 C 244.334 -0.686181 -1.59899 0
M  V30 2604 O 245.51 -0.973274 -1.76322 0
M  V30 2605 C 242.575 -1.95867 -2.86072 0
M  V30 2606 C 241.636 -3.19781 -2.86424 0
M  V30 2607 C 240.869 -3.34909 -4.15538 0
M  V30 2608 O 241.092 -2.54948 -5.10253 0
M  V30 2609 O 240.026 -4.28141 -4.23059 0
M  V30 2610 H 243.852 -2.74328 -1.30299 0
M  V30 2611 H 241.437 -1.3764 -0.581005 0
M  V30 2612 H 243.319 -2.08056 -3.66457 0
M  V30 2613 H 241.994 -1.04699 -3.063 0
M  V30 2614 H 240.901 -3.13038 -2.04837 0
M  V30 2615 H 242.234 -4.1078 -2.71147 0
M  V30 2616 N 243.887 0.651787 -1.4349 0
M  V30 2617 C 245.133 1.41376 -1.45398 0
M  V30 2618 C 245.466 1.94041 -0.0784823 0
M  V30 2619 O 244.741 1.72379 0.900878 0
M  V30 2620 C 245.024 2.59414 -2.49752 0
M  V30 2621 C 244.877 2.12232 -3.96582 0
M  V30 2622 C 246.196 3.61626 -2.50827 0
M  V30 2623 H 243.315 0.512719 -0.529422 0
M  V30 2624 H 245.957 0.738796 -1.75048 0
M  V30 2625 H 244.107 3.16997 -2.246 0
M  V30 2626 H 245.779 1.59639 -4.32797 0
M  V30 2627 H 244.022 1.43592 -4.09346 0
M  V30 2628 H 244.693 2.9712 -4.65214 0
M  V30 2629 H 247.169 3.13805 -2.7325 0
M  V30 2630 H 246.045 4.41766 -3.25783 0
M  V30 2631 H 246.306 4.14314 -1.5426 0
M  V30 2632 N 245.365 1.30045 0.890287 0
M  V30 2633 C 246.275 1.17885 2.02831 0
M  V30 2634 C 247.291 0.0999609 1.73713 0
M  V30 2635 O 248.467 0.313867 1.98939 0
M  V30 2636 C 245.532 0.866079 3.35708 0
M  V30 2637 C 244.593 2.02979 3.78283 0
M  V30 2638 C 243.826 1.73184 5.0482 0
M  V30 2639 O 244.049 0.657237 5.66601 0
M  V30 2640 O 242.983 2.58267 5.43674 0
M  V30 2641 H 246.809 2.13474 2.16015 0
M  V30 2642 H 244.394 1.09587 1.01543 0
M  V30 2643 H 246.276 0.706623 4.15433 0
M  V30 2644 H 244.951 -0.0599443 3.23644 0
M  V30 2645 H 243.858 2.24454 2.99285 0
M  V30 2646 H 245.191 2.93734 3.94944 0
M  V30 2647 N 246.843 -1.10192 1.12674 0
M  V30 2648 C 247.753 -2.20172 0.810026 0
M  V30 2649 C 248.769 -1.72821 -0.202188 0
M  V30 2650 O 249.945 -2.01369 -0.0351691 0
M  V30 2651 C 247.01 -3.45631 0.272007 0
M  V30 2652 C 246.071 -4.07704 1.34447 0
M  V30 2653 C 245.304 -5.27175 0.832029 0
M  V30 2654 O 245.527 -5.69425 -0.333284 0
M  V30 2655 O 244.461 -5.80168 1.60277 0
M  V30 2656 H 248.287 -2.49701 1.72867 0
M  V30 2657 H 245.872 -1.18977 0.903597 0
M  V30 2658 H 247.754 -4.21394 -0.0230219 0
M  V30 2659 H 246.429 -3.17723 -0.619164 0
M  V30 2660 H 245.336 -3.33614 1.6927 0
M  V30 2661 H 246.669 -4.3982 2.2095 0
M  V30 2662 N 248.321 -0.919034 -1.28029 0
M  V30 2663 C 249.568 -0.554934 -1.94748 0
M  V30 2664 C 249.896 0.90231 -1.72304 0
M  V30 2665 O 249.151 1.65767 -1.04018 0
M  V30 2666 C 249.45 -0.816855 -3.4794 0
M  V30 2667 C 249.116 -2.25448 -3.90492 0
M  V30 2668 C 247.778 -2.64752 -4.01821 0
M  V30 2669 C 250.13 -3.18977 -4.12193 0
M  V30 2670 C 247.458 -3.96727 -4.32232 0
M  V30 2671 C 249.81 -4.50523 -4.44086 0
M  V30 2672 C 248.474 -4.89673 -4.53626 0
M  V30 2673 H 247.744 -0.203065 -0.712633 0
M  V30 2674 H 250.391 -1.16136 -1.52265 0
M  V30 2675 H 248.696 -0.127677 -3.91592 0
M  V30 2676 H 250.393 -0.514238 -3.97689 0
M  V30 2677 H 246.983 -1.93952 -3.82205 0
M  V30 2678 H 251.167 -2.89817 -4.02889 0
M  V30 2679 H 246.423 -4.26754 -4.37825 0
M  V30 2680 H 250.597 -5.23005 -4.59825 0
M  V30 2681 H 248.224 -5.91969 -4.76946 0
M  V30 2682 N 249.799 1.42003 -0.683588 0
M  V30 2683 C 250.729 2.33487 -0.024866 0
M  V30 2684 C 251.71 1.51163 0.779975 0
M  V30 2685 O 252.895 1.79739 0.735362 0
M  V30 2686 C 250.025 3.3487 0.920836 0
M  V30 2687 C 248.979 4.27414 0.223958 0
M  V30 2688 C 248.305 5.19074 1.2832 0
M  V30 2689 C 249.605 5.14445 -0.90242 0
M  V30 2690 H 251.299 2.88819 -0.788921 0
M  V30 2691 H 248.845 1.38873 -0.38083 0
M  V30 2692 H 250.798 3.97787 1.39081 0
M  V30 2693 H 249.522 2.77861 1.71642 0
M  V30 2694 H 248.181 3.65904 -0.225864 0
M  V30 2695 H 247.829 4.58387 2.071 0
M  V30 2696 H 247.529 5.81822 0.821995 0
M  V30 2697 H 249.053 5.84867 1.75392 0
M  V30 2698 H 250.467 5.70998 -0.513272 0
M  V30 2699 H 248.864 5.86072 -1.28997 0
M  V30 2700 H 249.934 4.52322 -1.74737 0
M  V30 2701 N 251.277 0.427512 1.51691 0
M  V30 2702 C 252.224 -0.388867 2.275 0
M  V30 2703 C 253.194 -1.02532 1.30677 0
M  V30 2704 O 254.379 -1.0461 1.59566 0
M  V30 2705 C 251.519 -1.48954 3.11298 0
M  V30 2706 C 250.632 -0.872194 4.23104 0
M  V30 2707 C 249.767 -1.94709 4.94228 0
M  V30 2708 C 248.806 -1.30766 5.97969 0
M  V30 2709 N 247.943 -2.32349 6.62539 0
M  V30 2710 H 252.783 0.263997 2.96828 0
M  V30 2711 H 250.32 0.142033 1.46413 0
M  V30 2712 H 252.278 -2.13887 3.58201 0
M  V30 2713 H 250.908 -2.11217 2.44105 0
M  V30 2714 H 249.96 -0.111419 3.80237 0
M  V30 2715 H 251.272 -0.365264 4.97461 0
M  V30 2716 H 250.426 -2.67327 5.44629 0
M  V30 2717 H 249.165 -2.48773 4.1948 0
M  V30 2718 H 248.17 -0.566902 5.4687 0
M  V30 2719 H 249.395 -0.774483 6.74669 0
M  V30 2720 H 247.341 -2.85511 5.90609 0
M  V30 2721 H 247.258 -1.8652 7.3263 0
M  V30 2722 H 248.526 -3.04481 7.17574 0
M  V30 2723 N 252.755 -1.56801 0.158532 0
M  V30 2724 C 253.665 -2.20916 -0.789518 0
M  V30 2725 C 254.681 -1.1969 -1.26294 0
M  V30 2726 O 255.857 -1.52308 -1.31773 0
M  V30 2727 C 252.922 -2.82727 -2.00665 0
M  V30 2728 C 251.983 -3.99114 -1.58134 0
M  V30 2729 C 251.216 -4.57968 -2.74045 0
M  V30 2730 O 251.439 -4.15704 -3.90572 0
M  V30 2731 O 250.373 -5.48047 -2.48855 0
M  V30 2732 H 254.199 -3.02464 -0.273681 0
M  V30 2733 H 251.784 -1.4924 -0.0690548 0
M  V30 2734 H 253.666 -3.21968 -2.71872 0
M  V30 2735 H 252.341 -2.04184 -2.51179 0
M  V30 2736 H 251.248 -3.64567 -0.839155 0
M  V30 2737 H 252.581 -4.79212 -1.12325 0
M  V30 2738 N 254.233 0.115231 -1.57178 0
M  V30 2739 C 255.196 1.12526 -1.99676 0
M  V30 2740 C 256.196 1.34095 -0.88742 0
M  V30 2741 O 257.386 1.30548 -1.15337 0
M  V30 2742 C 254.518 2.4789 -2.34015 0
M  V30 2743 H 255.711 0.759912 -2.90113 0
M  V30 2744 H 253.264 0.359648 -1.52106 0
M  V30 2745 H 253.999 2.89339 -1.4647 0
M  V30 2746 H 253.784 2.33588 -3.14927 0
M  V30 2747 H 255.274 3.20575 -2.67622 0
M  V30 2748 N 255.711 1.52812 0.385517 0
M  V30 2749 C 256.674 1.77188 1.45386 0
M  V30 2750 C 257.674 0.641953 1.4743 0
M  V30 2751 O 258.864 0.910033 1.4854 0
M  V30 2752 C 255.996 1.87582 2.8465 0
M  V30 2753 H 257.189 2.72583 1.25054 0
M  V30 2754 H 254.742 1.43586 0.617467 0
M  V30 2755 H 255.477 0.941849 3.10322 0
M  V30 2756 H 255.262 2.69748 2.84567 0
M  V30 2757 H 256.752 2.08102 3.62054 0
M  V30 2758 N 257.189 -0.644168 1.43834 0
M  V30 2759 C 258.435 -1.40603 1.46146 0
M  V30 2760 C 258.768 -1.93997 0.0887717 0
M  V30 2761 O 258.043 -1.72854 -0.891724 0
M  V30 2762 C 258.326 -2.58086 2.51124 0
M  V30 2763 C 258.179 -2.10126 3.97702 0
M  V30 2764 C 259.498 -3.60291 2.52742 0
M  V30 2765 H 256.617 -0.509905 0.532134 0
M  V30 2766 H 259.259 -0.729502 1.75437 0
M  V30 2767 H 257.409 -3.15801 2.26278 0
M  V30 2768 H 259.081 -1.57342 4.33637 0
M  V30 2769 H 257.324 -1.41419 4.10101 0
M  V30 2770 H 257.995 -2.94649 4.66783 0
M  V30 2771 H 260.471 -3.12352 2.7491 0
M  V30 2772 H 259.347 -4.40032 3.28121 0
M  V30 2773 H 259.608 -4.1349 1.56455 0
M  V30 2774 N 258.668 -1.30515 -0.883378 0
M  V30 2775 C 259.601 -1.11359 -1.99184 0
M  V30 2776 C 260.579 -0.0207858 -1.62587 0
M  V30 2777 O 261.763 -0.174646 -1.87689 0
M  V30 2778 C 258.89 -0.69871 -3.31415 0
M  V30 2779 C 257.936 -1.79261 -3.86998 0
M  V30 2780 S 258.769 -3.39536 -4.14096 0
M  V30 2781 C 259.925 -2.99954 -5.49344 0
M  V30 2782 H 260.158 -2.052 -2.15128 0
M  V30 2783 H 257.691 -1.14847 -1.03196 0
M  V30 2784 H 259.649 -0.466075 -4.07846 0
M  V30 2785 H 258.31 0.220368 -3.13326 0
M  V30 2786 H 257.503 -1.45464 -4.82552 0
M  V30 2787 H 257.105 -1.97961 -3.17313 0
M  V30 2788 H 259.397 -2.48013 -6.30473 0
M  V30 2789 H 260.34 -3.9442 -5.8808 0
M  V30 2790 H 260.748 -2.37775 -5.1198 0
M  V30 2791 N 260.146 1.09593 -1.13257 0
M  V30 2792 C 261.093 2.1618 -0.808381 0
M  V30 2793 C 262.063 1.64517 0.228754 0
M  V30 2794 O 263.248 1.9053 0.101381 0
M  V30 2795 C 260.388 3.43973 -0.278675 0
M  V30 2796 C 259.501 4.09545 -1.37466 0
M  V30 2797 C 258.636 5.25088 -0.803479 0
M  V30 2798 C 257.675 5.82579 -1.87799 0
M  V30 2799 N 256.812 6.89486 -1.32488 0
M  V30 2800 H 261.652 2.43254 -1.72138 0
M  V30 2801 H 259.189 1.19392 -0.859294 0
M  V30 2802 H 261.147 4.17174 0.0465583 0
M  V30 2803 H 259.777 3.17223 0.597459 0
M  V30 2804 H 258.829 3.34226 -1.81652 0
M  V30 2805 H 260.141 4.48307 -2.18684 0
M  V30 2806 H 259.295 6.05178 -0.429427 0
M  V30 2807 H 258.034 4.87684 0.0397956 0
M  V30 2808 H 257.039 5.01152 -2.26113 0
M  V30 2809 H 258.264 6.22045 -2.72463 0
M  V30 2810 H 256.21 6.54064 -0.503575 0
M  V30 2811 H 256.127 7.27007 -2.07355 0
M  V30 2812 H 257.395 7.73336 -0.978336 0
M  V30 2813 N 261.624 0.925811 1.2754 0
M  V30 2814 C 262.534 0.428993 2.30644 0
M  V30 2815 C 263.55 -0.489387 1.66976 0
M  V30 2816 O 264.726 -0.372653 1.97922 0
M  V30 2817 C 261.791 -0.311967 3.45294 0
M  V30 2818 C 260.852 0.641098 4.24486 0
M  V30 2819 C 260.085 -0.0645955 5.33661 0
M  V30 2820 O 260.308 -1.28429 5.55754 0
M  V30 2821 O 259.242 0.606265 5.98839 0
M  V30 2822 H 263.068 1.28504 2.75173 0
M  V30 2823 H 260.653 0.691086 1.32455 0
M  V30 2824 H 262.535 -0.729972 4.15029 0
M  V30 2825 H 261.21 -1.14365 3.02824 0
M  V30 2826 H 260.117 1.10874 3.57292 0
M  V30 2827 H 261.45 1.43995 4.70666 0
M  V30 2828 N 263.102 -1.41638 0.69111 0
M  V30 2829 C 264.351 -2.00526 0.217318 0
M  V30 2830 C 264.664 -1.55353 -1.18848 0
M  V30 2831 O 265.87 -2.06769 -1.75951 0
M  V30 2832 C 264.326 -3.58313 0.337639 0
M  V30 2833 C 263.934 -4.12469 1.74852 0
M  V30 2834 C 265.678 -4.24431 -0.0766066 0
M  V30 2835 C 263.585 -5.62675 1.82074 0
M  V30 2836 H 262.515 -0.750008 0.0774893 0
M  V30 2837 H 265.166 -1.6217 0.858661 0
M  V30 2838 H 263.548 -3.9425 -0.371879 0
M  V30 2839 H 264.722 -3.8796 2.48644 0
M  V30 2840 H 263.037 -3.58861 2.11205 0
M  V30 2841 H 265.634 -5.34683 -0.0430284 0
M  V30 2842 H 265.977 -4.01101 -1.1146 0
M  V30 2843 H 266.51 -3.93512 0.582476 0
M  V30 2844 H 263.249 -5.90826 2.83911 0
M  V30 2845 H 262.769 -5.89124 1.12661 0
M  V30 2846 H 264.448 -6.27371 1.58159 0
M  V30 2847 N 264.58 -0.43555 -1.51462 0
M  V30 2848 C 265.527 0.376797 -2.27703 0
M  V30 2849 C 266.497 1.01838 -1.31219 0
M  V30 2850 O 267.682 1.03762 -1.60119 0
M  V30 2851 C 264.822 1.47301 -3.12084 0
M  V30 2852 C 263.935 0.849744 -4.2356 0
M  V30 2853 C 263.07 1.92086 -4.95254 0
M  V30 2854 C 262.109 1.27593 -5.98654 0
M  V30 2855 N 261.246 2.28833 -6.63762 0
M  V30 2856 H 266.086 -0.279734 -2.96684 0
M  V30 2857 H 263.623 -0.149795 -1.46335 0
M  V30 2858 H 265.581 2.11984 -3.59331 0
M  V30 2859 H 264.211 2.0992 -2.45221 0
M  V30 2860 H 263.263 0.0912529 -3.80291 0
M  V30 2861 H 264.575 0.338878 -4.97648 0
M  V30 2862 H 263.729 2.64435 -5.46039 0
M  V30 2863 H 262.468 2.46545 -4.20793 0
M  V30 2864 H 261.473 0.537893 -5.47162 0
M  V30 2865 H 262.698 0.738693 -6.7507 0
M  V30 2866 H 260.644 2.82375 -5.92115 0
M  V30 2867 H 260.561 1.82632 -7.33608 0
M  V30 2868 H 261.829 3.00671 -7.19178 0
M  V30 2869 N 266.058 1.56714 -0.166846 0
M  V30 2870 C 267.008 2.14338 0.777382 0
M  V30 2871 C 267.992 1.07642 1.19591 0
M  V30 2872 O 269.184 1.33775 1.15902 0
M  V30 2873 C 266.313 2.78417 2.00846 0
M  V30 2874 C 265.399 3.92264 1.61212 0
M  V30 2875 N 265.79 4.97268 0.925104 0
M  V30 2876 C 264.088 4.03342 1.90346 0
M  V30 2877 C 264.789 5.77093 0.730627 0
M  V30 2878 N 263.765 5.2854 1.27067 0
M  V30 2879 H 267.567 2.9289 0.243466 0
M  V30 2880 H 265.081 1.62364 0.0339954 0
M  V30 2881 H 267.078 3.18073 2.69509 0
M  V30 2882 H 265.738 2.01344 2.54736 0
M  V30 2883 H 266.749 5.14601 0.583646 0
M  V30 2884 H 263.426 3.37368 2.45946 0
M  V30 2885 H 264.816 6.71638 0.187668 0
M  V30 2886 N 267.536 -0.106894 1.57237 0
M  V30 2887 C 268.947 -0.662723 1.74542 0
M  V30 2888 C 269.298 -1.7971 0.787319 0
M  V30 2889 O 268.423 -2.16368 -0.0369636 0
M  V30 2890 C 269.018 -1.20896 3.16496 0
M  V30 2891 C 267.577 -1.71096 3.35266 0
M  V30 2892 C 266.724 -0.615642 2.7038 0
M  V30 2893 H 269.675 0.119106 1.58252 0
M  V30 2894 H 269.696 -2.07847 3.18716 0
M  V30 2895 H 269.208 -0.383122 3.86204 0
M  V30 2896 H 267.309 -2.56119 2.70618 0
M  V30 2897 H 267.422 -1.81208 4.43509 0
M  V30 2898 H 265.786 -1.05222 2.31949 0
M  V30 2899 H 266.569 0.199419 3.4272 0
M  V30 2900 N 269.014 -1.53014 -0.377408 0
M  V30 2901 C 269.962 -1.7927 -1.48206 0
M  V30 2902 C 270.956 -0.661195 -1.55963 0
M  V30 2903 O 272.162 -0.843908 -1.58991 0
M  V30 2904 H 268.537 -0.567425 -0.493491 0
M  V30 2905 H 270.508 -2.71753 -1.2326 0
M  V30 2906 C 269.257 -1.98894 -2.85196 0
M  V30 2907 H 268.58 -2.85395 -2.79981 0
M  V30 2908 H 270.02 -2.21249 -3.61698 0
M  V30 2909 C 268.479 -0.764691 -3.28107 0
M  V30 2910 O 269.009 0.0523226 -4.01666 0
M  V30 2911 N 267.215 -0.591493 -2.84517 0
M  V30 2912 H 266.762 -1.25749 -2.24822 0
M  V30 2913 H 266.72 0.226253 -3.13585 0
M  V30 2914 N 270.492 0.636531 -1.44174 0
M  V30 2915 C 271.422 1.76003 -1.53444 0
M  V30 2916 C 272.403 1.65619 -0.387841 0
M  V30 2917 O 273.588 1.84461 -0.607257 0
M  V30 2918 C 270.718 3.14511 -1.4731 0
M  V30 2919 C 269.672 3.39677 -2.60391 0
M  V30 2920 C 268.998 4.78159 -2.39308 0
M  V30 2921 C 270.298 3.32772 -4.02567 0
M  V30 2922 H 271.992 1.68501 -2.47483 0
M  V30 2923 H 269.538 0.809237 -1.19111 0
M  V30 2924 H 271.491 3.92878 -1.52397 0
M  V30 2925 H 270.215 3.22783 -0.49785 0
M  V30 2926 H 268.874 2.63688 -2.54684 0
M  V30 2927 H 268.522 4.83128 -1.39988 0
M  V30 2928 H 268.222 4.95956 -3.15122 0
M  V30 2929 H 269.746 5.58762 -2.46205 0
M  V30 2930 H 271.16 4.01051 -4.09672 0
M  V30 2931 H 269.557 3.62104 -4.7854 0
M  V30 2932 H 270.627 2.30669 -4.2652 0
M  V30 2933 N 271.97 1.30982 0.876444 0
M  V30 2934 C 273.216 1.20474 1.63138 0
M  V30 2935 C 273.549 -0.238096 1.92735 0
M  V30 2936 O 272.824 -1.1692 1.55435 0
M  V30 2937 C 273.107 2.04244 2.96574 0
M  V30 2938 C 272.96 3.56793 2.73896 0
M  V30 2939 C 274.279 1.88684 3.97601 0
M  V30 2940 H 271.398 0.439001 0.591985 0
M  V30 2941 H 274.04 1.60704 1.01361 0
M  V30 2942 H 272.19 1.70063 3.493 0
M  V30 2943 H 273.862 4.01077 2.27892 0
M  V30 2944 H 272.105 3.80548 2.08245 0
M  V30 2945 H 272.776 4.10706 3.68815 0
M  V30 2946 H 275.252 2.18584 3.54062 0
M  V30 2947 H 274.128 2.4961 4.88862 0
M  V30 2948 H 274.389 0.848343 4.33884 0
M  V30 2949 N 273.449 -1.08991 1.13837 0
M  V30 2950 C 274.381 -2.15606 0.777612 0
M  V30 2951 C 275.394 -1.61533 -0.202739 0
M  V30 2952 O 276.583 -1.78491 0.0181055 0
M  V30 2953 C 273.683 -3.3864 0.132623 0
M  V30 2954 C 272.856 -4.22115 1.1462 0
M  V30 2955 C 271.915 -5.23564 0.526074 0
M  V30 2956 O 270.941 -5.56678 1.18735 0
M  V30 2957 N 272.143 -5.76266 -0.699866 0
M  V30 2958 H 274.908 -2.47159 1.69506 0
M  V30 2959 H 272.469 -1.24747 1.03198 0
M  V30 2960 H 274.461 -4.03626 -0.29459 0
M  V30 2961 H 273.031 -3.04938 -0.687849 0
M  V30 2962 H 272.251 -3.53199 1.75055 0
M  V30 2963 H 273.539 -4.74709 1.83109 0
M  V30 2964 H 272.937 -5.51585 -1.25581 0
M  V30 2965 H 271.494 -6.42963 -1.06968 0
M  V30 2966 N 274.927 -0.932562 -1.27047 0
M  V30 2967 C 275.857 -0.452902 -2.29066 0
M  V30 2968 C 276.838 0.489338 -1.62909 0
M  V30 2969 O 278.023 0.393046 -1.90181 0
M  V30 2970 C 275.153 0.290698 -3.46081 0
M  V30 2971 C 274.107 -0.564168 -4.24265 0
M  V30 2972 C 273.433 0.308886 -5.33807 0
M  V30 2973 C 274.733 -1.83112 -4.89149 0
M  V30 2974 H 276.427 -1.30552 -2.69437 0
M  V30 2975 H 273.973 -0.629201 -1.29526 0
M  V30 2976 H 275.926 0.637233 -4.16554 0
M  V30 2977 H 274.65 1.17738 -3.0464 0
M  V30 2978 H 273.309 -0.893477 -3.55545 0
M  V30 2979 H 272.957 1.19467 -4.88607 0
M  V30 2980 H 272.657 -0.259633 -5.87026 0
M  V30 2981 H 274.181 0.650884 -6.07121 0
M  V30 2982 H 275.595 -1.55236 -5.51883 0
M  V30 2983 H 273.992 -2.34353 -5.52448 0
M  V30 2984 H 275.062 -2.54772 -4.12576 0
M  V30 2985 N 276.405 1.4127 -0.698611 0
M  V30 2986 C 277.335 2.33447 -0.049629 0
M  V30 2987 C 278.316 1.51982 0.763898 0
M  V30 2988 O 279.501 1.80509 0.716257 0
M  V30 2989 C 276.631 3.35828 0.885267 0
M  V30 2990 C 275.585 4.27627 0.178613 0
M  V30 2991 C 274.911 5.20406 1.22807 0
M  V30 2992 C 276.211 5.13459 -0.956933 0
M  V30 2993 H 277.905 2.87966 -0.81951 0
M  V30 2994 H 275.451 1.38461 -0.395538 0
M  V30 2995 H 277.404 3.9924 1.34854 0
M  V30 2996 H 276.128 2.79666 1.68685 0
M  V30 2997 H 274.787 3.65643 -0.26466 0
M  V30 2998 H 274.435 4.60558 2.02226 0
M  V30 2999 H 274.135 5.82661 0.760239 0
M  V30 3000 H 275.659 5.86695 1.69179 0
M  V30 3001 H 277.073 5.70421 -0.573805 0
M  V30 3002 H 275.47 5.8467 -1.35205 0
M  V30 3003 H 276.54 4.50443 -1.79524 0
M  V30 3004 N 277.883 0.443576 1.51229 0
M  V30 3005 C 279.131 -0.120557 2.0174 0
M  V30 3006 C 279.452 -1.42665 1.32935 0
M  V30 3007 O 278.722 -1.9028 0.465866 0
M  V30 3008 H 277.302 -0.0475426 0.745486 0
M  V30 3009 H 279.964 0.587711 1.85828 0
M  V30 3010 H 279.06 -0.291972 3.10731 0
M  V30 3011 N 279.361 -1.56624 0.175154 0
M  V30 3012 C 280.607 -1.9729 -0.469506 0
M  V30 3013 C 280.94 -1.06128 -1.62636 0
M  V30 3014 O 280.215 -0.109183 -1.94193 0
M  V30 3015 C 280.498 -3.47375 -0.948804 0
M  V30 3016 C 280.351 -4.49317 0.208491 0
M  V30 3017 C 281.67 -4.00652 -1.82116 0
M  V30 3018 H 278.789 -0.717317 -0.16919 0
M  V30 3019 H 281.431 -1.88184 0.262062 0
M  V30 3020 H 279.581 -3.55267 -1.57219 0
M  V30 3021 H 281.253 -4.53482 0.845682 0
M  V30 3022 H 279.496 -4.25121 0.863395 0
M  V30 3023 H 280.167 -5.51741 -0.169059 0
M  V30 3024 H 282.643 -3.95416 -1.2956 0
M  V30 3025 H 281.519 -5.06075 -2.12554 0
M  V30 3026 H 281.78 -3.44699 -2.7683 0
M  V30 3027 N 280.839 0.0985539 -1.57292 0
M  V30 3028 C 282.079 0.808332 -1.87737 0
M  V30 3029 C 282.443 1.7607 -0.76572 0
M  V30 3030 O 283.644 2.51358 -0.952499 0
M  V30 3031 C 281.915 1.52093 -3.23423 0
M  V30 3032 S 283.474 2.26947 -3.75554 0
M  V30 3033 H 280.292 0.269377 -0.657995 0
M  V30 3034 H 282.894 0.0656269 -1.9539 0
M  V30 3035 H 281.598 0.81363 -4.02254 0
M  V30 3036 H 281.129 2.30361 -3.189 0
M  V30 3037 H 283.144 3.53027 -3.48692 0
M  V30 3038 N 282.317 1.53212 0.369288 0
M  V30 3039 C 283.545 1.73119 1.13303 0
M  V30 3040 C 283.96 0.458455 1.83149 0
M  V30 3041 O 283.317 -0.568403 1.73423 0
M  V30 3042 C 283.368 2.89413 2.16616 0
M  V30 3043 O 283.089 4.11761 1.49614 0
M  V30 3044 C 284.59 3.21161 3.05566 0
M  V30 3045 H 281.81 0.579107 0.338934 0
M  V30 3046 H 284.354 1.99942 0.429338 0
M  V30 3047 H 282.509 2.64994 2.82589 0
M  V30 3048 H 282.923 4.76858 2.18419 0
M  V30 3049 H 284.397 4.05949 3.74045 0
M  V30 3050 H 284.874 2.36369 3.70171 0
M  V30 3051 H 285.48 3.47492 2.45213 0
M  V30 3052 N 283.795 -0.628877 1.44509 0
M  V30 3053 C 285.211 -0.947305 1.28446 0
M  V30 3054 C 285.411 -2.00275 0.221872 0
M  V30 3055 O 284.467 -2.49447 -0.391471 0
M  V30 3056 C 285.78 -1.40843 2.65676 0
M  V30 3057 C 287.328 -1.52379 2.73404 0
M  V30 3058 C 287.803 -2.01875 4.11109 0
M  V30 3059 N 289.294 -2.09142 4.13296 0
M  V30 3060 C 290.029 -2.48615 5.16699 0
M  V30 3061 N 289.525 -2.87209 6.30462 0
M  V30 3062 N 291.318 -2.48768 5.04054 0
M  V30 3063 H 283.469 0.0690977 2.12288 0
M  V30 3064 H 285.732 -0.0317164 0.947469 0
M  V30 3065 H 285.438 -0.707206 3.44516 0
M  V30 3066 H 285.312 -2.37902 2.92716 0
M  V30 3067 H 287.699 -2.21598 1.9488 0
M  V30 3068 H 287.78 -0.536898 2.50102 0
M  V30 3069 H 287.424 -1.3325 4.90109 0
M  V30 3070 H 287.354 -3.0144 4.31789 0
M  V30 3071 H 289.845 -1.81991 3.31191 0
M  V30 3072 H 290.158 -3.16149 7.05174 0
M  V30 3073 H 288.503 -2.84955 6.33897 0
M  V30 3074 H 291.694 -2.18009 4.14234 0
M  V30 3075 H 291.867 -2.79207 5.84763 0
M  V30 3076 N 285.273 -1.31445 -0.869486 0
M  V30 3077 C 286.183 -1.21097 -2.0093 0
M  V30 3078 C 287.199 -0.127584 -1.73532 0
M  V30 3079 O 288.375 -0.345477 -1.98415 0
M  V30 3080 C 285.44 -0.919378 -3.34288 0
M  V30 3081 C 284.501 -2.08971 -3.75006 0
M  V30 3082 C 283.734 -1.81194 -5.02001 0
M  V30 3083 O 283.957 -0.747296 -5.65484 0
M  V30 3084 O 282.891 -2.66883 -5.39497 0
M  V30 3085 H 286.717 -2.16883 -2.12592 0
M  V30 3086 H 284.302 -1.11189 -0.997868 0
M  V30 3087 H 286.184 -0.772625 -4.14257 0
M  V30 3088 H 284.859 0.00844772 -3.23699 0
M  V30 3089 H 283.766 -2.29187 -2.95676 0
M  V30 3090 H 285.099 -2.9998 -3.90221 0
M  V30 3091 N 286.751 1.08385 -1.14413 0
M  V30 3092 C 288.162 1.62258 -0.923535 0
M  V30 3093 C 288.513 1.88691 0.537595 0
M  V30 3094 O 287.638 1.64454 1.40655 0
M  V30 3095 C 288.233 2.94781 -1.67002 0
M  V30 3096 C 286.792 3.45437 -1.495 0
M  V30 3097 C 285.939 2.19668 -1.69238 0
M  V30 3098 H 288.89 0.916086 -1.2959 0
M  V30 3099 H 288.911 3.63229 -1.13334 0
M  V30 3100 H 288.423 2.7551 -2.73342 0
M  V30 3101 H 286.524 3.6981 -0.455097 0
M  V30 3102 H 286.637 4.22173 -2.2651 0
M  V30 3103 H 285.001 2.28849 -1.11804 0
M  V30 3104 H 285.784 2.02905 -2.7692 0
M  V30 3105 N 288.23 0.939286 1.26551 0
M  V30 3106 C 289.641 0.628782 1.75793 0
M  V30 3107 C 289.992 -0.856046 1.7654 0
M  V30 3108 O 289.117 -1.66994 1.3763 0
M  V30 3109 C 289.712 1.13465 3.19235 0
M  V30 3110 C 288.271 0.874601 3.66098 0
M  V30 3111 C 287.418 1.28667 2.45642 0
M  V30 3112 H 290.369 1.1178 1.12654 0
M  V30 3113 H 290.39 0.487609 3.77363 0
M  V30 3114 H 289.902 2.21535 3.1866 0
M  V30 3115 H 288.003 -0.191793 3.72106 0
M  V30 3116 H 288.116 1.50028 4.55004 0
M  V30 3117 H 286.48 0.705109 2.44745 0
M  V30 3118 H 287.263 2.37625 2.47769 0
M  V30 3119 N 289.708 -1.40897 0.706093 0
M  V30 3120 C 290.955 -2.01054 0.241531 0
M  V30 3121 C 291.283 -1.55956 -1.16223 0
M  V30 3122 O 290.538 -0.766336 -1.80072 0
M  V30 3123 C 290.837 -3.5646 0.259099 0
M  V30 3124 C 290.503 -4.21106 1.61184 0
M  V30 3125 C 289.165 -4.38479 1.98216 0
M  V30 3126 C 291.517 -4.57256 2.50132 0
M  V30 3127 C 288.845 -4.89282 3.2376 0
M  V30 3128 C 291.197 -5.09454 3.7502 0
M  V30 3129 C 289.861 -5.25037 4.12181 0
M  V30 3130 H 289.131 -0.73571 0.0883825 0
M  V30 3131 H 291.778 -1.68645 0.907257 0
M  V30 3132 H 290.083 -3.88721 -0.490189 0
M  V30 3133 H 291.78 -4.00826 -0.11804 0
M  V30 3134 H 288.37 -4.07966 1.31384 0
M  V30 3135 H 292.554 -4.43479 2.228 0
M  V30 3136 H 287.81 -4.99531 3.52532 0
M  V30 3137 H 291.984 -5.36404 4.44121 0
M  V30 3138 H 289.611 -5.64164 5.09532 0
M  V30 3139 N 291.186 -0.45159 -1.50991 0
M  V30 3140 C 292.416 0.108177 -2.06317 0
M  V30 3141 C 292.824 1.35774 -1.31765 0
M  V30 3142 O 292.167 1.79838 -0.374694 0
M  V30 3143 C 292.229 0.481659 -3.56259 0
M  V30 3144 C 291.893 -0.663114 -4.52163 0
M  V30 3145 C 292.89 -1.53947 -4.96585 0
M  V30 3146 C 290.575 -0.8479 -4.95092 0
M  V30 3147 C 292.569 -2.58518 -5.82621 0
M  V30 3148 C 290.256 -1.89686 -5.80915 0
M  V30 3149 C 291.254 -2.76388 -6.24579 0
M  V30 3150 O 290.942 -3.79482 -7.08695 0
M  V30 3151 H 290.674 0.00499183 -0.675982 0
M  V30 3152 H 293.228 -0.633659 -1.95381 0
M  V30 3153 H 291.458 1.27641 -3.65027 0
M  V30 3154 H 293.147 0.974233 -3.94035 0
M  V30 3155 H 293.913 -1.4083 -4.64103 0
M  V30 3156 H 289.792 -0.18258 -4.60638 0
M  V30 3157 H 293.336 -3.26224 -6.16623 0
M  V30 3158 H 289.233 -2.02817 -6.12809 0
M  V30 3159 H 290.001 -3.76234 -7.26905 0
M  V30 3160 N 292.664 1.56529 -0.183458 0
M  V30 3161 C 293.913 1.96419 0.458511 0
M  V30 3162 C 294.226 1.0727 1.63562 0
M  V30 3163 O 295.432 1.36893 2.34462 0
M  V30 3164 C 293.888 3.49298 0.867122 0
M  V30 3165 C 293.496 4.47092 -0.285057 0
M  V30 3166 C 295.24 3.97983 1.47683 0
M  V30 3167 C 293.147 5.91225 0.143862 0
M  V30 3168 H 292.077 0.733394 0.175071 0
M  V30 3169 H 294.728 1.81448 -0.273624 0
M  V30 3170 H 293.11 3.59731 1.65559 0
M  V30 3171 H 294.284 4.48383 -1.0625 0
M  V30 3172 H 292.599 4.08535 -0.805503 0
M  V30 3173 H 295.196 5.03134 1.80999 0
M  V30 3174 H 295.539 3.41618 2.37914 0
M  V30 3175 H 296.072 3.90617 0.752562 0
M  V30 3176 H 292.811 6.5149 -0.723974 0
M  V30 3177 H 292.331 5.93214 0.886413 0
M  V30 3178 H 294.01 6.44362 0.583628 0
M  V30 3179 N 294.142 -0.090211 1.57342 0
M  V30 3180 C 295.391 -0.791531 1.8552 0
M  V30 3181 C 295.704 -1.79659 0.773441 0
M  V30 3182 O 296.91 -2.54616 0.942497 0
M  V30 3183 C 295.366 -1.45856 3.2902 0
M  V30 3184 C 294.974 -0.493017 4.45279 0
M  V30 3185 C 296.718 -2.14332 3.66418 0
M  V30 3186 C 294.625 -1.16491 5.79814 0
M  V30 3187 H 293.555 -0.299356 0.692027 0
M  V30 3188 H 296.206 -0.0445343 1.83446 0
M  V30 3189 H 294.588 -2.25318 3.2565 0
M  V30 3190 H 295.762 0.270464 4.60006 0
M  V30 3191 H 294.077 0.0863061 4.16311 0
M  V30 3192 H 296.674 -2.65344 4.64216 0
M  V30 3193 H 297.017 -2.93447 2.95287 0
M  V30 3194 H 297.55 -1.41724 3.71698 0
M  V30 3195 H 294.289 -0.41447 6.54188 0
M  V30 3196 H 293.809 -1.8997 5.68921 0
M  V30 3197 H 295.488 -1.69001 6.24538 0
M  V30 3198 N 295.62 -1.53406 -0.361157 0
M  V30 3199 C 296.848 -1.73717 -1.12383 0
M  V30 3200 C 297.263 -0.468161 -1.82904 0
M  V30 3201 O 296.62 0.559198 -1.73722 0
M  V30 3202 C 296.671 -2.90558 -2.15078 0
M  V30 3203 O 296.392 -4.12549 -1.47428 0
M  V30 3204 C 297.893 -3.22777 -3.03858 0
M  V30 3205 H 295.113 -0.580896 -0.335858 0
M  V30 3206 H 297.657 -2.00167 -0.418728 0
M  V30 3207 H 295.812 -2.66489 -2.8118 0
M  V30 3208 H 296.226 -4.78009 -2.15887 0
M  V30 3209 H 297.7 -4.07927 -3.71887 0
M  V30 3210 H 298.177 -2.38329 -3.68912 0
M  V30 3211 H 298.783 -3.48787 -2.43367 0
M  V30 3212 N 297.098 0.621204 -1.44841 0
M  V30 3213 C 298.008 1.7612 -1.5498 0
M  V30 3214 C 299.024 1.68477 -0.434927 0
M  V30 3215 O 300.2 1.89076 -0.693693 0
M  V30 3216 C 297.265 3.1254 -1.50065 0
M  V30 3217 C 296.326 3.31741 -2.72482 0
M  V30 3218 C 295.559 4.61653 -2.67792 0
M  V30 3219 O 295.782 5.431 -1.74352 0
M  V30 3220 O 294.716 4.83271 -3.58794 0
M  V30 3221 H 298.542 1.70518 -2.51311 0
M  V30 3222 H 296.127 0.783643 -1.27198 0
M  V30 3223 H 298.009 3.93844 -1.49882 0
M  V30 3224 H 296.684 3.18663 -0.568806 0
M  V30 3225 H 295.591 2.50077 -2.7823 0
M  V30 3226 H 296.924 3.30486 -3.64746 0
M  V30 3227 N 298.576 1.31904 0.862503 0
M  V30 3228 C 299.823 1.22017 1.61611 0
M  V30 3229 C 300.151 -0.21991 1.93253 0
M  V30 3230 O 299.406 -1.17076 1.56817 0
M  V30 3231 C 299.705 2.01713 2.95037 0
M  V30 3232 C 299.371 3.51145 2.82857 0
M  V30 3233 C 298.033 3.91889 2.79243 0
M  V30 3234 C 300.385 4.46204 2.69353 0
M  V30 3235 C 297.713 5.25947 2.59993 0
M  V30 3236 C 300.065 5.80397 2.5164 0
M  V30 3237 C 298.729 6.20352 2.46413 0
M  V30 3238 H 297.999 0.44649 0.591378 0
M  V30 3239 H 300.646 1.63248 1.00111 0
M  V30 3240 H 298.951 1.53185 3.60613 0
M  V30 3241 H 300.648 1.91437 3.52353 0
M  V30 3242 H 297.238 3.1878 2.86491 0
M  V30 3243 H 301.422 4.15652 2.71196 0
M  V30 3244 H 296.678 5.5597 2.54376 0
M  V30 3245 H 300.852 6.53676 2.40169 0
M  V30 3246 H 298.479 7.24172 2.31256 0
M  V30 3247 N 300.054 -1.07777 1.14986 0
M  V30 3248 C 300.987 -2.14228 0.786243 0
M  V30 3249 C 301.965 -1.60888 -0.235347 0
M  V30 3250 O 303.149 -1.88099 -0.122909 0
M  V30 3251 C 300.276 -3.38281 0.168433 0
M  V30 3252 C 299.322 -4.10387 1.16123 0
M  V30 3253 S 300.155 -4.62371 2.70135 0
M  V30 3254 C 301.311 -5.89704 2.09762 0
M  V30 3255 H 301.544 -2.44741 1.68787 0
M  V30 3256 H 299.077 -1.19984 0.971756 0
M  V30 3257 H 301.035 -4.10098 -0.181588 0
M  V30 3258 H 299.696 -3.05953 -0.710725 0
M  V30 3259 H 298.889 -4.99431 0.677086 0
M  V30 3260 H 298.491 -3.44513 1.45556 0
M  V30 3261 H 300.783 -6.61648 1.45701 0
M  V30 3262 H 301.726 -6.42824 2.96955 0
M  V30 3263 H 302.134 -5.4302 1.54239 0
M  V30 3264 N 301.532 -0.945985 -1.26051 0
M  V30 3265 C 302.76 -0.613025 -1.9761 0
M  V30 3266 C 303.175 0.813035 -1.70397 0
M  V30 3267 O 302.532 1.54274 -0.974979 0
M  V30 3268 C 302.583 -0.85159 -3.51326 0
M  V30 3269 O 302.304 -2.22157 -3.77595 0
M  V30 3270 C 303.805 -0.529831 -4.40122 0
M  V30 3271 H 301.025 -0.230593 -0.630133 0
M  V30 3272 H 303.569 -1.268 -1.60443 0
M  V30 3273 H 301.724 -0.243151 -3.86636 0
M  V30 3274 H 302.138 -2.2852 -4.721 0
M  V30 3275 H 303.612 -0.747348 -5.46917 0
M  V30 3276 H 304.089 0.535341 -4.35925 0
M  V30 3277 H 304.695 -1.11721 -4.10364 0
M  V30 3278 N 303.011 1.40521 -0.713556 0
M  V30 3279 C 304.241 2.0494 -0.261395 0
M  V30 3280 C 304.649 1.53861 1.10107 0
M  V30 3281 O 303.992 0.689321 1.70276 0
M  V30 3282 C 304.054 3.59138 -0.161227 0
M  V30 3283 C 303.718 4.33096 -1.45865 0
M  V30 3284 C 304.715 4.61182 -2.40016 0
M  V30 3285 C 302.4 4.72043 -1.71701 0
M  V30 3286 C 304.394 5.27196 -3.58251 0
M  V30 3287 C 302.081 5.37789 -2.90218 0
M  V30 3288 C 303.079 5.65295 -3.83315 0
M  V30 3289 O 302.767 6.29683 -4.99754 0
M  V30 3290 H 302.499 0.666041 -0.115608 0
M  V30 3291 H 305.053 1.80954 -0.971849 0
M  V30 3292 H 303.283 3.81936 0.605153 0
M  V30 3293 H 304.972 4.05091 0.256105 0
M  V30 3294 H 305.738 4.31559 -2.21318 0
M  V30 3295 H 301.617 4.50003 -1.00092 0
M  V30 3296 H 305.161 5.48582 -4.30934 0
M  V30 3297 H 301.058 5.66831 -3.08825 0
M  V30 3298 H 301.826 6.4818 -4.99805 0
M  V30 3299 N 304.489 0.459591 1.5075 0
M  V30 3300 C 305.737 -0.0991532 2.01857 0
M  V30 3301 C 306.058 -1.41247 1.34441 0
M  V30 3302 O 305.328 -1.89775 0.486022 0
M  V30 3303 H 303.908 -0.039633 0.745948 0
M  V30 3304 H 306.57 0.607387 1.85194 0
M  V30 3305 H 305.666 -0.258998 3.11023 0
M  V30 3306 N 305.967 -1.56429 0.191757 0
M  V30 3307 C 306.915 -2.20273 -0.747174 0
M  V30 3308 C 307.909 -1.17288 -1.22229 0
M  V30 3309 O 309.115 -1.35441 -1.18557 0
M  V30 3310 H 305.49 -0.705885 -0.259289 0
M  V30 3311 H 307.461 -2.97826 -0.184963 0
M  V30 3312 C 306.21 -2.87356 -1.95759 0
M  V30 3313 H 305.533 -3.66341 -1.60106 0
M  V30 3314 H 306.973 -3.3547 -2.59299 0
M  V30 3315 C 305.432 -1.88213 -2.79423 0
M  V30 3316 O 305.962 -1.38033 -3.7724 0
M  V30 3317 N 304.168 -1.56516 -2.44849 0
M  V30 3318 H 303.715 -1.97516 -1.65364 0
M  V30 3319 H 303.673 -0.904369 -3.01112 0
M  V30 3320 N 307.445 0.0818655 -1.57387 0
M  V30 3321 C 308.375 1.09885 -2.06028 0
M  V30 3322 C 309.356 1.4098 -0.951774 0
M  V30 3323 O 310.541 1.50781 -1.22387 0
M  V30 3324 C 307.671 2.4151 -2.4958 0
M  V30 3325 C 306.625 2.24792 -3.64215 0
M  V30 3326 C 305.951 3.61712 -3.93787 0
M  V30 3327 C 307.251 1.67749 -4.94629 0
M  V30 3328 H 308.945 0.694128 -2.91243 0
M  V30 3329 H 306.491 0.332448 -1.4011 0
M  V30 3330 H 308.444 3.12939 -2.82219 0
M  V30 3331 H 307.168 2.83943 -1.61381 0
M  V30 3332 H 305.827 1.55807 -3.31843 0
M  V30 3333 H 305.475 4.01697 -3.02735 0
M  V30 3334 H 305.175 3.51368 -4.70971 0
M  V30 3335 H 306.699 4.34587 -4.28913 0
M  V30 3336 H 308.113 2.29032 -5.25564 0
M  V30 3337 H 306.51 1.68128 -5.76067 0
M  V30 3338 H 307.58 0.638059 -4.80684 0
M  V30 3339 N 308.923 1.53595 0.353017 0
M  V30 3340 C 309.853 1.83902 1.43883 0
M  V30 3341 C 310.834 0.693421 1.55324 0
M  V30 3342 O 312.019 0.944452 1.69687 0
M  V30 3343 C 309.149 2.04016 2.8106 0
M  V30 3344 C 308.103 3.19814 2.84434 0
M  V30 3345 C 307.429 3.25244 4.24406 0
M  V30 3346 C 308.729 4.58133 2.50822 0
M  V30 3347 H 310.423 2.74835 1.1877 0
M  V30 3348 H 307.969 1.32242 0.569917 0
M  V30 3349 H 309.922 2.238 3.57059 0
M  V30 3350 H 308.646 1.09804 3.07588 0
M  V30 3351 H 307.305 2.9987 2.10887 0
M  V30 3352 H 306.953 2.28646 4.48029 0
M  V30 3353 H 306.653 4.03054 4.27576 0
M  V30 3354 H 308.177 3.47228 5.0226 0
M  V30 3355 H 309.591 4.77995 3.16534 0
M  V30 3356 H 307.988 5.38276 2.6529 0
M  V30 3357 H 309.058 4.62387 1.46034 0
M  V30 3358 N 310.401 -0.613514 1.45168 0
M  V30 3359 C 311.678 -1.37263 1.39349 0
M  V30 3360 C 312.058 -2.11012 0.0610848 0
M  V30 3361 O 311.406 -2.07502 -0.956825 0
M  V30 3362 C 311.616 -2.3244 2.60332 0
M  V30 3363 C 312.964 -2.9523 3.05163 0
M  V30 3364 O 313.988 -2.42762 2.60663 0
M  V30 3365 O 312.847 -3.90454 3.82372 0
M  V30 3366 H 309.941 -0.615188 0.552696 0
M  V30 3367 H 312.487 -0.637097 1.57287 0
M  V30 3368 H 311.259 -1.77164 3.48896 0
M  V30 3369 H 310.882 -3.13383 2.44698 0
M  V30 3370 N 311.879 -1.3236 -0.855495 0
M  V30 3371 C 313.109 -1.25688 -1.6397 0
M  V30 3372 C 313.517 0.177592 -1.88365 0
M  V30 3373 O 312.86 1.12485 -1.45234 0
M  V30 3374 C 312.922 -1.94602 -3.02275 0
M  V30 3375 C 312.586 -3.43937 -3.00926 0
M  V30 3376 C 313.583 -4.39435 -2.77835 0
M  V30 3377 C 311.268 -3.85858 -3.21588 0
M  V30 3378 C 313.262 -5.74829 -2.75409 0
M  V30 3379 C 310.949 -5.21361 -3.18789 0
M  V30 3380 C 311.947 -6.15658 -2.95727 0
M  V30 3381 O 311.635 -7.48681 -2.928 0
M  V30 3382 H 311.367 -0.434972 -0.51747 0
M  V30 3383 H 313.921 -1.75023 -1.075 0
M  V30 3384 H 312.151 -1.39836 -3.60531 0
M  V30 3385 H 313.84 -1.81651 -3.62985 0
M  V30 3386 H 314.606 -4.08374 -2.6164 0
M  V30 3387 H 310.485 -3.12883 -3.38564 0
M  V30 3388 H 314.029 -6.48404 -2.57328 0
M  V30 3389 H 309.926 -5.52052 -3.34528 0
M  V30 3390 H 310.694 -7.5803 -3.0876 0
M  V30 3391 N 313.357 1.07166 -1.15556 0
M  V30 3392 C 314.287 2.16403 -0.877046 0
M  V30 3393 C 315.268 1.69217 0.173111 0
M  V30 3394 O 316.453 1.94181 0.027084 0
M  V30 3395 C 313.583 3.45349 -0.367632 0
M  V30 3396 C 312.537 4.05995 -1.35468 0
M  V30 3397 C 311.863 5.30045 -0.704038 0
M  V30 3398 C 313.163 4.45804 -2.72132 0
M  V30 3399 H 314.857 2.39959 -1.79053 0
M  V30 3400 H 312.403 1.15325 -0.862331 0
M  V30 3401 H 314.356 4.21095 -0.160317 0
M  V30 3402 H 313.08 3.21385 0.581326 0
M  V30 3403 H 311.739 3.32296 -1.54839 0
M  V30 3404 H 311.387 5.02373 0.251128 0
M  V30 3405 H 311.087 5.71579 -1.36277 0
M  V30 3406 H 312.611 6.08495 -0.50654 0
M  V30 3407 H 314.025 5.12671 -2.56595 0
M  V30 3408 H 312.422 4.98296 -3.34397 0
M  V30 3409 H 313.492 3.57083 -3.28054 0
M  V30 3410 N 314.835 0.952656 1.25548 0
M  V30 3411 C 316.251 0.656769 1.4546 0
M  V30 3412 C 316.451 -0.78633 1.85524 0
M  V30 3413 O 315.507 -1.56183 1.98402 0
M  V30 3414 C 316.82 1.62801 2.52817 0
M  V30 3415 C 318.368 1.63897 2.66659 0
M  V30 3416 C 318.843 2.5978 3.77198 0
M  V30 3417 N 320.334 2.58133 3.84606 0
M  V30 3418 C 321.069 3.29003 4.69621 0
M  V30 3419 N 320.565 4.09339 5.58939 0
M  V30 3420 N 322.358 3.179 4.63569 0
M  V30 3421 H 314.509 1.88526 0.978344 0
M  V30 3422 H 316.772 0.810815 0.491206 0
M  V30 3423 H 316.478 2.65869 2.30232 0
M  V30 3424 H 316.352 1.38898 3.50695 0
M  V30 3425 H 318.739 0.615481 2.8861 0
M  V30 3426 H 318.82 1.91858 1.69187 0
M  V30 3427 H 318.464 3.62254 3.55997 0
M  V30 3428 H 318.394 2.29105 4.7415 0
M  V30 3429 H 320.885 1.99809 3.20757 0
M  V30 3430 H 321.198 4.6034 6.20731 0
M  V30 3431 H 319.543 4.13438 5.58654 0
M  V30 3432 H 322.734 2.54612 3.92798 0
M  V30 3433 H 322.907 3.73398 5.29602 0
M  V30 3434 N 316.313 -1.40141 0.720998 0
M  V30 3435 C 317.223 -2.34486 0.0731031 0
M  V30 3436 C 318.239 -1.57587 -0.737723 0
M  V30 3437 O 319.415 -1.89949 -0.669429 0
M  V30 3438 C 316.48 -3.36528 -0.833656 0
M  V30 3439 C 315.541 -4.29298 -0.0121673 0
M  V30 3440 C 314.774 -5.26466 -0.875742 0
M  V30 3441 O 314.997 -5.29745 -2.11485 0
M  V30 3442 O 313.931 -6.01092 -0.31185 0
M  V30 3443 H 317.757 -2.9152 0.851444 0
M  V30 3444 H 315.342 -1.41427 0.481527 0
M  V30 3445 H 317.224 -3.99093 -1.35289 0
M  V30 3446 H 315.899 -2.81899 -1.59105 0
M  V30 3447 H 314.806 -3.70001 0.552262 0
M  V30 3448 H 316.139 -4.87094 0.707129 0
M  V30 3449 N 317.792 -0.46758 -1.50504 0
M  V30 3450 C 319.032 0.0874114 -2.04213 0
M  V30 3451 C 319.396 1.37301 -1.34211 0
M  V30 3452 O 320.597 2.01015 -1.78456 0
M  V30 3453 C 318.868 0.270571 -3.56374 0
M  V30 3454 S 320.427 0.784623 -4.31728 0
M  V30 3455 H 317.245 0.0176153 -0.710782 0
M  V30 3456 H 319.847 -0.633915 -1.84937 0
M  V30 3457 H 318.551 -0.670942 -4.04878 0
M  V30 3458 H 318.082 1.01811 -3.79997 0
M  V30 3459 H 320.097 2.05849 -4.51487 0
M  V30 3460 N 319.27 1.56325 -0.20005 0
M  V30 3461 C 320.218 2.20666 0.735482 0
M  V30 3462 C 321.212 1.17934 1.21605 0
M  V30 3463 O 322.418 1.36068 1.17837 0
M  V30 3464 H 318.793 0.70725 0.255542 0
M  V30 3465 H 320.764 2.9792 0.169166 0
M  V30 3466 C 319.513 2.88391 1.94232 0
M  V30 3467 H 318.836 3.67185 1.58161 0
M  V30 3468 H 320.276 3.3684 2.57517 0
M  V30 3469 C 318.735 1.89692 2.78421 0
M  V30 3470 O 319.265 1.40032 3.76502 0
M  V30 3471 N 317.471 1.57813 2.44015 0
M  V30 3472 H 317.018 1.9839 1.64314 0
M  V30 3473 H 316.976 0.920325 3.00628 0
M  V30 3474 N 320.748 -0.0735177 1.57428 0
M  V30 3475 C 322.164 -0.428264 1.53747 0
M  V30 3476 C 322.364 -1.79272 0.91998 0
M  V30 3477 O 321.42 -2.47051 0.521745 0
M  V30 3478 C 322.733 -0.370914 2.98404 0
M  V30 3479 C 324.281 -0.451224 3.0973 0
M  V30 3480 C 324.756 -0.4238 4.56035 0
M  V30 3481 N 326.247 -0.483925 4.60665 0
M  V30 3482 C 326.982 -0.484891 5.71346 0
M  V30 3483 N 326.478 -0.440775 6.91396 0
M  V30 3484 N 328.271 -0.531319 5.59583 0
M  V30 3485 H 320.422 0.819949 1.95935 0
M  V30 3486 H 322.685 0.307493 0.896745 0
M  V30 3487 H 322.391 0.564956 3.47133 0
M  V30 3488 H 322.265 -1.18176 3.5821 0
M  V30 3489 H 324.652 -1.37752 2.60976 0
M  V30 3490 H 324.733 0.388167 2.52838 0
M  V30 3491 H 324.377 0.498638 5.05446 0
M  V30 3492 H 324.307 -1.2807 5.10789 0
M  V30 3493 H 326.798 -0.522338 3.74273 0
M  V30 3494 H 327.111 -0.44539 7.71515 0
M  V30 3495 H 325.456 -0.40749 6.93804 0
M  V30 3496 H 328.647 -0.563464 4.64696 0
M  V30 3497 H 328.82 -0.528603 6.4584 0
M  V30 3498 N 322.226 -1.5378 -0.344866 0
M  V30 3499 C 323.158 -1.77988 -1.44406 0
M  V30 3500 C 324.171 -0.661138 -1.48771 0
M  V30 3501 O 325.36 -0.937842 -1.51877 0
M  V30 3502 C 322.46 -1.86345 -2.8307 0
M  V30 3503 C 321.633 -3.16256 -3.0216 0
M  V30 3504 C 320.692 -3.15588 -4.21059 0
M  V30 3505 O 319.718 -3.89314 -4.15239 0
M  V30 3506 N 320.92 -2.37864 -5.29529 0
M  V30 3507 H 323.685 -2.72839 -1.24012 0
M  V30 3508 H 321.246 -1.52814 -0.534737 0
M  V30 3509 H 323.238 -1.83351 -3.60783 0
M  V30 3510 H 321.808 -0.986858 -2.96614 0
M  V30 3511 H 321.028 -3.32385 -2.11929 0
M  V30 3512 H 322.316 -4.0207 -3.11797 0
M  V30 3513 H 321.714 -1.77514 -5.37127 0
M  V30 3514 H 320.271 -2.40668 -6.05741 0
M  V30 3515 N 323.704 0.605807 -1.45491 0
M  V30 3516 C 324.614 1.74466 -1.56839 0
M  V30 3517 C 325.63 1.68006 -0.452772 0
M  V30 3518 O 326.806 1.8833 -0.713708 0
M  V30 3519 C 323.871 3.10931 -1.53371 0
M  V30 3520 C 322.932 3.28832 -2.75986 0
M  V30 3521 C 322.165 4.58787 -2.72673 0
M  V30 3522 O 322.388 5.4122 -1.80102 0
M  V30 3523 O 321.322 4.79438 -3.63899 0
M  V30 3524 H 325.148 1.67843 -2.53106 0
M  V30 3525 H 322.733 0.770108 -1.28022 0
M  V30 3526 H 324.615 3.92233 -1.54051 0
M  V30 3527 H 323.29 3.18042 -0.602572 0
M  V30 3528 H 322.197 2.47112 -2.80867 0
M  V30 3529 H 323.53 3.26599 -3.68231 0
M  V30 3530 N 325.182 1.32811 0.848464 0
M  V30 3531 C 326.428 1.23907 1.60546 0
M  V30 3532 C 326.761 -0.197161 1.93197 0
M  V30 3533 O 326.036 -1.13596 1.5788 0
M  V30 3534 C 326.319 2.10489 2.92175 0
M  V30 3535 C 326.172 3.62522 2.66266 0
M  V30 3536 C 327.491 1.97075 3.93509 0
M  V30 3537 H 324.61 0.451459 0.58254 0
M  V30 3538 H 327.252 1.62818 0.979296 0
M  V30 3539 H 325.402 1.77434 3.45614 0
M  V30 3540 H 327.074 4.05821 2.19334 0
M  V30 3541 H 325.317 3.84879 2.00126 0
M  V30 3542 H 325.988 4.18437 3.6002 0
M  V30 3543 H 328.464 2.26045 3.49346 0
M  V30 3544 H 327.34 2.59923 4.83457 0
M  V30 3545 H 327.601 0.940186 4.31987 0
M  V30 3546 N 326.66 -1.06551 1.16123 0
M  V30 3547 C 327.885 -1.83544 0.965735 0
M  V30 3548 C 328.31 -1.81843 -0.481102 0
M  V30 3549 O 327.668 -1.21732 -1.34354 0
M  V30 3550 C 327.716 -3.28169 1.49457 0
M  V30 3551 O 326.82 -4.0643 0.699157 0
M  V30 3552 H 326.161 -0.568026 0.343864 0
M  V30 3553 H 328.691 -1.34362 1.54299 0
M  V30 3554 H 328.701 -3.78992 1.51092 0
M  V30 3555 H 327.376 -3.28722 2.54784 0
M  V30 3556 H 325.953 -3.65216 0.7531 0
M  V30 3557 N 328.138 -0.959301 -1.25041 0
M  V30 3558 C 329.101 -0.487677 -2.23952 0
M  V30 3559 C 330.101 0.41119 -1.55454 0
M  V30 3560 O 331.291 0.207825 -1.72956 0
M  V30 3561 C 328.423 0.294807 -3.39623 0
M  V30 3562 H 329.616 -1.36198 -2.67189 0
M  V30 3563 H 327.169 -0.743042 -1.37508 0
M  V30 3564 H 327.904 1.18658 -3.01813 0
M  V30 3565 H 327.689 -0.35012 -3.90534 0
M  V30 3566 H 329.179 0.614089 -4.1306 0
M  V30 3567 N 329.616 1.39756 -0.72842 0
M  V30 3568 C 330.862 2.00942 -0.273892 0
M  V30 3569 C 331.195 1.57656 1.13394 0
M  V30 3570 O 330.47 0.802434 1.77176 0
M  V30 3571 C 330.753 3.58211 -0.368346 0
M  V30 3572 C 330.606 4.11534 -1.81548 0
M  V30 3573 C 331.925 4.39372 0.253054 0
M  V30 3574 H 329.044 0.730047 -0.100996 0
M  V30 3575 H 331.686 1.66056 -0.923337 0
M  V30 3576 H 329.836 3.88061 0.184588 0
M  V30 3577 H 331.508 3.92431 -2.42478 0
M  V30 3578 H 329.751 3.65341 -2.33898 0
M  V30 3579 H 330.422 5.20682 -1.83288 0
M  V30 3580 H 332.898 4.15527 -0.218224 0
M  V30 3581 H 331.774 5.48677 0.156585 0
M  V30 3582 H 332.035 4.21358 1.33826 0
M  V30 3583 N 331.094 0.475555 1.50254 0
M  V30 3584 C 332.34 -0.0780073 2.0265 0
M  V30 3585 C 332.673 -1.38968 1.35652 0
M  V30 3586 O 331.948 -1.8839 0.483691 0
M  V30 3587 C 332.231 -0.257161 3.59181 0
M  V30 3588 C 332.084 1.07585 4.36744 0
M  V30 3589 C 333.403 -1.00965 4.28362 0
M  V30 3590 H 330.522 -0.0268758 0.73651 0
M  V30 3591 H 333.164 0.622015 1.7953 0
M  V30 3592 H 331.314 -0.853412 3.79011 0
M  V30 3593 H 332.986 1.70902 4.28474 0
M  V30 3594 H 331.229 1.6714 4.00308 0
M  V30 3595 H 331.9 0.904088 5.44546 0
M  V30 3596 H 334.376 -0.504214 4.13034 0
M  V30 3597 H 333.252 -1.10381 5.37687 0
M  V30 3598 H 333.513 -2.04731 3.91839 0
M  V30 3599 N 332.573 -1.56217 0.208337 0
M  V30 3600 C 333.503 -2.22694 -0.702116 0
M  V30 3601 C 334.484 -1.19432 -1.2112 0
M  V30 3602 O 335.669 -1.47978 -1.25762 0
M  V30 3603 C 332.799 -2.8966 -1.9161 0
M  V30 3604 C 331.753 -3.9928 -1.5414 0
M  V30 3605 C 331.079 -4.53476 -2.83308 0
M  V30 3606 C 332.379 -5.17012 -0.741339 0
M  V30 3607 H 334.073 -2.99034 -0.147898 0
M  V30 3608 H 331.619 -1.43831 -0.0696951 0
M  V30 3609 H 333.572 -3.34852 -2.55836 0
M  V30 3610 H 332.296 -2.10746 -2.49507 0
M  V30 3611 H 330.955 -3.54799 -0.922668 0
M  V30 3612 H 330.603 -3.71308 -3.39322 0
M  V30 3613 H 330.303 -5.27451 -2.58976 0
M  V30 3614 H 331.827 -5.01378 -3.485 0
M  V30 3615 H 333.241 -5.58667 -1.28699 0
M  V30 3616 H 331.638 -5.97137 -0.595627 0
M  V30 3617 H 332.708 -4.8423 0.254851 0
M  V30 3618 N 334.051 0.0651679 -1.57465 0
M  V30 3619 C 334.981 1.07693 -2.07182 0
M  V30 3620 C 335.962 1.39962 -0.966673 0
M  V30 3621 O 337.147 1.49475 -1.2398 0
M  V30 3622 C 334.277 2.3885 -2.52127 0
M  V30 3623 C 333.231 2.20917 -3.66579 0
M  V30 3624 C 332.557 3.57515 -3.97601 0
M  V30 3625 C 333.857 1.62493 -4.9638 0
M  V30 3626 H 335.551 0.663199 -2.91962 0
M  V30 3627 H 333.097 0.317569 -1.40455 0
M  V30 3628 H 335.05 3.09928 -2.85522 0
M  V30 3629 H 333.774 2.82215 -1.64384 0
M  V30 3630 H 332.433 1.52279 -3.33477 0
M  V30 3631 H 332.081 3.98463 -3.06979 0
M  V30 3632 H 331.781 3.46353 -4.74672 0
M  V30 3633 H 333.305 4.30013 -4.33499 0
M  V30 3634 H 334.719 2.23445 -5.27963 0
M  V30 3635 H 333.116 1.62009 -5.77818 0
M  V30 3636 H 334.186 0.587041 -4.81333 0
M  V30 3637 N 335.529 1.53961 0.336706 0
M  V30 3638 C 336.759 1.75229 1.09446 0
M  V30 3639 C 337.167 0.494602 1.82621 0
M  V30 3640 O 336.51 -0.543764 1.75468 0
M  V30 3641 C 336.572 2.88288 2.1478 0
M  V30 3642 C 336.236 4.27656 1.6112 0
M  V30 3643 C 337.233 5.08981 1.0599 0
M  V30 3644 C 334.918 4.74161 1.6576 0
M  V30 3645 C 336.912 6.34916 0.562129 0
M  V30 3646 C 334.599 6.00067 1.15595 0
M  V30 3647 C 335.597 6.80278 0.609147 0
M  V30 3648 O 335.285 8.03818 0.114999 0
M  V30 3649 H 335.017 0.588881 0.331956 0
M  V30 3650 H 337.571 2.01614 0.392566 0
M  V30 3651 H 335.801 2.57443 2.88548 0
M  V30 3652 H 337.49 2.97461 2.76174 0
M  V30 3653 H 338.256 4.74213 1.01722 0
M  V30 3654 H 334.135 4.11781 2.07261 0
M  V30 3655 H 337.679 6.9747 0.134668 0
M  V30 3656 H 333.576 6.3433 1.19566 0
M  V30 3657 H 334.344 8.18172 0.231651 0
M  V30 3658 N 337.007 -0.598083 1.45811 0
M  V30 3659 C 337.94 -1.7223 1.49706 0
M  V30 3660 C 338.918 -1.58732 0.352535 0
M  V30 3661 O 340.102 -1.80162 0.554438 0
M  V30 3662 C 337.229 -3.10148 1.3611 0
M  V30 3663 C 336.275 -3.42209 2.54549 0
M  V30 3664 S 337.108 -3.35989 4.16979 0
M  V30 3665 C 338.264 -4.76471 4.05865 0
M  V30 3666 H 338.497 -1.68665 2.44826 0
M  V30 3667 H 336.03 -0.775541 1.33509 0
M  V30 3668 H 337.988 -3.8972 1.28953 0
M  V30 3669 H 336.649 -3.11219 0.424451 0
M  V30 3670 H 335.842 -4.42652 2.40988 0
M  V30 3671 H 335.444 -2.70173 2.58617 0
M  V30 3672 H 337.736 -5.665 3.71596 0
M  V30 3673 H 338.679 -4.95089 5.06253 0
M  V30 3674 H 339.087 -4.52599 3.37364 0
M  V30 3675 N 338.485 -1.33259 -0.841409 0
M  V30 3676 C 339.448 -1.23221 -1.9326 0
M  V30 3677 C 340.448 -0.151895 -1.60081 0
M  V30 3678 O 341.638 -0.403246 -1.69468 0
M  V30 3679 C 338.77 -0.898123 -3.28856 0
M  V30 3680 H 339.963 -2.2021 -2.03587 0
M  V30 3681 H 337.516 -1.17281 -1.03319 0
M  V30 3682 H 338.251 0.0693841 -3.24226 0
M  V30 3683 H 338.036 -1.67934 -3.54317 0
M  V30 3684 H 339.526 -0.852563 -4.08805 0
M  V30 3685 N 339.963 1.05934 -1.16686 0
M  V30 3686 C 341.191 1.8249 -0.974929 0
M  V30 3687 C 341.606 1.82679 0.476861 0
M  V30 3688 O 340.963 1.2486 1.33103 0
M  V30 3689 C 341.014 3.28943 -1.49929 0
M  V30 3690 O 340.735 3.28886 -2.89423 0
M  V30 3691 C 342.236 4.22215 -1.35089 0
M  V30 3692 H 339.456 0.575295 -0.345365 0
M  V30 3693 H 342 1.33631 -1.548 0
M  V30 3694 H 340.155 3.751 -0.968423 0
M  V30 3695 H 340.569 4.20493 -3.13506 0
M  V30 3696 H 342.043 5.22987 -1.76603 0
M  V30 3697 H 342.52 4.38195 -0.296935 0
M  V30 3698 H 343.126 3.81907 -1.87155 0
M  V30 3699 N 341.441 0.965919 1.2453 0
M  V30 3700 C 342.373 0.452465 2.2469 0
M  V30 3701 C 343.386 -0.437821 1.56802 0
M  V30 3702 O 344.575 -0.244283 1.76821 0
M  V30 3703 C 341.675 -0.366258 3.36915 0
M  V30 3704 C 340.848 0.513701 4.34373 0
M  V30 3705 C 339.907 -0.248716 5.25612 0
M  V30 3706 O 338.933 0.356745 5.68081 0
M  V30 3707 N 340.135 -1.53877 5.59734 0
M  V30 3708 H 342.9 1.31361 2.69378 0
M  V30 3709 H 340.461 0.837541 1.38553 0
M  V30 3710 H 342.453 -0.884297 3.94921 0
M  V30 3711 H 341.023 -1.12832 2.91526 0
M  V30 3712 H 340.243 1.21273 3.75082 0
M  V30 3713 H 341.531 1.11391 4.96457 0
M  V30 3714 H 340.929 -2.05243 5.27154 0
M  V30 3715 H 339.486 -2.00254 6.20275 0
M  V30 3716 N 342.919 -1.39368 0.735821 0
M  V30 3717 C 344.168 -1.99733 0.281004 0
M  V30 3718 C 344.481 -1.59055 -1.13846 0
M  V30 3719 O 345.687 -2.12262 -1.69284 0
M  V30 3720 C 344.143 -3.57057 0.451462 0
M  V30 3721 C 343.751 -4.06697 1.87886 0
M  V30 3722 C 345.495 -4.2446 0.0584616 0
M  V30 3723 C 343.402 -5.56598 1.99883 0
M  V30 3724 H 342.332 -0.747163 0.101311 0
M  V30 3725 H 344.983 -1.59357 0.909819 0
M  V30 3726 H 343.365 -3.95234 -0.246263 0
M  V30 3727 H 344.539 -3.79853 2.60861 0
M  V30 3728 H 342.854 -3.5196 2.22515 0
M  V30 3729 H 345.451 -5.34549 0.127099 0
M  V30 3730 H 345.794 -4.04444 -0.986433 0
M  V30 3731 H 346.327 -3.9146 0.707374 0
M  V30 3732 H 343.066 -5.81494 3.02564 0
M  V30 3733 H 342.586 -5.85242 1.31346 0
M  V30 3734 H 344.265 -6.22022 1.78039 0
M  V30 3735 N 344.397 -0.483516 -1.5 0
M  V30 3736 C 345.622 0.0667119 -2.07293 0
M  V30 3737 C 346.047 1.3164 -1.3436 0
M  V30 3738 O 345.405 1.76945 -0.394987 0
M  V30 3739 C 345.453 0.321126 -3.59167 0
M  V30 3740 O 344.557 1.39927 -3.87936 0
M  V30 3741 H 343.898 -0.0184758 -0.663743 0
M  V30 3742 H 346.428 -0.678125 -1.93035 0
M  V30 3743 H 346.438 0.557906 -4.04168 0
M  V30 3744 H 345.113 -0.592007 -4.11665 0
M  V30 3745 H 343.69 1.14882 -3.54763 0
M  V30 3746 N 345.875 1.56104 -0.216619 0
M  V30 3747 C 347.1 2.0301 0.424462 0
M  V30 3748 C 347.525 1.0955 1.52907 0
M  V30 3749 O 346.883 0.0827914 1.81111 0
M  V30 3750 C 346.931 3.4819 0.937883 0
M  V30 3751 O 346.035 3.57865 2.04955 0
M  V30 3752 H 345.376 0.656925 0.0966755 0
M  V30 3753 H 347.906 2.01859 -0.33381 0
M  V30 3754 H 347.916 3.88413 1.24897 0
M  V30 3755 H 346.591 4.15699 0.129387 0
M  V30 3756 H 345.168 3.29527 1.74546 0
M  V30 3757 N 347.353 -0.0568162 1.57498 0
M  V30 3758 C 348.316 -1.05038 2.03715 0
M  V30 3759 C 349.316 -1.30709 0.936577 0
M  V30 3760 O 350.506 -1.26178 1.20103 0
M  V30 3761 C 347.638 -2.39034 2.43055 0
M  V30 3762 H 348.831 -0.651715 2.92733 0
M  V30 3763 H 346.384 -0.302947 1.53336 0
M  V30 3764 H 347.119 -2.83703 1.57108 0
M  V30 3765 H 346.904 -2.21739 3.2338 0
M  V30 3766 H 348.394 -3.10421 2.79336 0
M  V30 3767 N 348.832 -1.54138 -0.328536 0
M  V30 3768 C 349.765 -1.78014 -1.4278 0
M  V30 3769 C 350.743 -0.629889 -1.49904 0
M  V30 3770 O 351.927 -0.866763 -1.6739 0
M  V30 3771 C 349.054 -1.89225 -2.80912 0
M  V30 3772 C 348.1 -3.11483 -2.91343 0
M  V30 3773 S 348.933 -4.70201 -2.56263 0
M  V30 3774 C 350.089 -4.84312 -3.96476 0
M  V30 3775 H 350.322 -2.70974 -1.22313 0
M  V30 3776 H 347.855 -1.45197 -0.525084 0
M  V30 3777 H 349.813 -1.9637 -3.60485 0
M  V30 3778 H 348.474 -0.972518 -2.98665 0
M  V30 3779 H 347.667 -3.16046 -3.92595 0
M  V30 3780 H 347.269 -3.02642 -2.19736 0
M  V30 3781 H 349.561 -4.66643 -4.91173 0
M  V30 3782 H 350.504 -5.86411 -3.96898 0
M  V30 3783 H 350.912 -4.12652 -3.85199 0
M  V30 3784 N 350.31 0.590341 -1.46126 0
M  V30 3785 C 351.22 1.72793 -1.58681 0
M  V30 3786 C 352.236 1.67516 -0.470566 0
M  V30 3787 O 353.412 1.87562 -0.733642 0
M  V30 3788 C 350.477 3.09287 -1.5666 0
M  V30 3789 C 349.538 3.25886 -2.79458 0
M  V30 3790 C 348.771 4.55869 -2.77524 0
M  V30 3791 O 348.994 5.3928 -1.85832 0
M  V30 3792 O 347.928 4.75552 -3.68964 0
M  V30 3793 H 351.754 1.65149 -2.54872 0
M  V30 3794 H 349.339 0.756486 -1.28832 0
M  V30 3795 H 351.221 3.90577 -1.58202 0
M  V30 3796 H 349.896 3.17385 -0.636271 0
M  V30 3797 H 348.803 2.44119 -2.83472 0
M  V30 3798 H 350.136 3.22675 -3.71674 0
M  V30 3799 N 351.788 1.33704 0.83433 0
M  V30 3800 C 353.018 1.28281 1.6195 0
M  V30 3801 C 353.426 -0.147603 1.88623 0
M  V30 3802 O 352.769 -1.1016 1.47005 0
M  V30 3803 C 352.831 1.99386 2.99141 0
M  V30 3804 C 352.495 3.48681 2.95416 0
M  V30 3805 C 353.492 4.438 2.70809 0
M  V30 3806 C 351.177 3.90925 3.15409 0
M  V30 3807 C 353.171 5.79138 2.66229 0
M  V30 3808 C 350.858 5.26366 3.10454 0
M  V30 3809 C 351.856 6.20284 2.85895 0
M  V30 3810 O 351.544 7.53245 2.80852 0
M  V30 3811 H 351.276 0.44315 0.510484 0
M  V30 3812 H 353.83 1.76711 1.04702 0
M  V30 3813 H 352.06 1.45554 3.58261 0
M  V30 3814 H 353.749 1.87403 3.60049 0
M  V30 3815 H 354.515 4.12485 2.5511 0
M  V30 3816 H 350.394 3.18229 3.33543 0
M  V30 3817 H 353.938 6.52416 2.4698 0
M  V30 3818 H 349.835 5.57304 3.25703 0
M  V30 3819 H 350.603 7.62846 2.96661 0
M  V30 3820 N 353.266 -1.05314 1.17247 0
M  V30 3821 C 354.196 -2.1498 0.911362 0
M  V30 3822 C 355.177 -1.69471 -0.146169 0
M  V30 3823 O 356.362 -1.942 0.003812 0
M  V30 3824 C 353.492 -3.4472 0.422528 0
M  V30 3825 C 352.446 -4.03789 1.4191 0
M  V30 3826 C 351.772 -5.28858 0.788274 0
M  V30 3827 C 353.072 -4.41418 2.7919 0
M  V30 3828 H 354.766 -2.3708 1.82848 0
M  V30 3829 H 352.312 -1.13938 0.880569 0
M  V30 3830 H 354.265 -4.20787 0.227289 0
M  V30 3831 H 352.989 -3.22269 -0.530123 0
M  V30 3832 H 351.648 -3.2979 1.60106 0
M  V30 3833 H 351.296 -5.02709 -0.171173 0
M  V30 3834 H 350.996 -5.69338 1.45353 0
M  V30 3835 H 352.52 -6.07612 0.603282 0
M  V30 3836 H 353.934 -5.08524 2.64719 0
M  V30 3837 H 352.331 -4.92913 3.42282 0
M  V30 3838 H 353.401 -3.51819 3.33693 0
M  V30 3839 N 354.744 -0.972509 -1.24016 0
M  V30 3840 C 355.654 -0.5143 -2.28893 0
M  V30 3841 C 356.67 0.427078 -1.68677 0
M  V30 3842 O 357.846 0.298939 -1.99169 0
M  V30 3843 C 354.911 0.183598 -3.46214 0
M  V30 3844 C 353.972 -0.798202 -4.21814 0
M  V30 3845 C 353.205 -0.133514 -5.33533 0
M  V30 3846 O 353.428 1.07714 -5.60137 0
M  V30 3847 O 352.362 -0.828103 -5.96176 0
M  V30 3848 H 356.188 -1.38629 -2.70214 0
M  V30 3849 H 353.773 -0.739769 -1.29799 0
M  V30 3850 H 355.655 0.575433 -4.17453 0
M  V30 3851 H 354.33 1.03048 -3.0686 0
M  V30 3852 H 353.237 -1.24059 -3.52931 0
M  V30 3853 H 354.57 -1.61364 -4.64997 0
M  V30 3854 N 356.222 1.38976 -0.743202 0
M  V30 3855 C 357.169 2.30544 -0.10861 0
M  V30 3856 C 358.139 1.49642 0.720869 0
M  V30 3857 O 359.324 1.78304 0.679142 0
M  V30 3858 C 356.464 3.36018 0.786496 0
M  V30 3859 C 355.577 4.31963 -0.0564849 0
M  V30 3860 C 354.712 5.24506 0.840657 0
M  V30 3861 C 353.751 6.121 -0.00658363 0
M  V30 3862 N 352.888 6.96973 0.846943 0
M  V30 3863 H 357.728 2.8424 -0.895088 0
M  V30 3864 H 355.265 1.3995 -0.453048 0
M  V30 3865 H 357.223 3.95768 1.31999 0
M  V30 3866 H 355.853 2.83758 1.53887 0
M  V30 3867 H 354.905 3.73763 -0.707492 0
M  V30 3868 H 356.217 4.93703 -0.711229 0
M  V30 3869 H 355.371 5.89322 1.4417 0
M  V30 3870 H 354.11 4.63107 1.52916 0
M  V30 3871 H 353.115 5.46289 -0.620366 0
M  V30 3872 H 354.34 6.75565 -0.691992 0
M  V30 3873 H 352.286 6.38133 1.52059 0
M  V30 3874 H 352.203 7.5559 0.248864 0
M  V30 3875 H 353.471 7.6621 1.43328 0
M  V30 3876 N 357.7 0.491464 1.49741 0
M  V30 3877 C 358.647 -0.292027 2.28945 0
M  V30 3878 C 359.617 -0.968973 1.34908 0
M  V30 3879 O 360.802 -0.97748 1.6386 0
M  V30 3880 C 357.942 -1.35617 3.17336 0
M  V30 3881 C 357.055 -0.691957 4.26422 0
M  V30 3882 C 356.19 -1.73572 5.02042 0
M  V30 3883 C 355.229 -1.05286 6.02977 0
M  V30 3884 N 354.366 -2.0404 6.71798 0
M  V30 3885 H 359.206 0.389654 2.95442 0
M  V30 3886 H 356.743 0.204003 1.45679 0
M  V30 3887 H 358.701 -1.98502 3.66951 0
M  V30 3888 H 357.331 -2.00674 2.52844 0
M  V30 3889 H 356.383 0.0499523 3.80367 0
M  V30 3890 H 357.695 -0.153946 4.98562 0
M  V30 3891 H 356.849 -2.43987 5.55478 0
M  V30 3892 H 355.588 -2.30757 4.29654 0
M  V30 3893 H 354.593 -0.334446 5.48782 0
M  V30 3894 H 355.818 -0.487636 6.77347 0
M  V30 3895 H 353.764 -2.60205 6.02187 0
M  V30 3896 H 353.681 -1.55279 7.39881 0
M  V30 3897 H 354.949 -2.73772 7.29842 0
M  V30 3898 N 359.178 -1.55987 0.224894 0
M  V30 3899 C 360.126 -2.21808 -0.700283 0
M  V30 3900 C 361.12 -1.19854 -1.19714 0
M  V30 3901 O 362.326 -1.37925 -1.15658 0
M  V30 3902 H 358.701 -0.711226 -0.244258 0
M  V30 3903 H 360.672 -2.98152 -0.121749 0
M  V30 3904 C 359.421 -2.91444 -1.8962 0
M  V30 3905 H 358.744 -3.69655 -1.52299 0
M  V30 3906 H 360.184 -3.40894 -2.52125 0
M  V30 3907 C 358.643 -1.94098 -2.75368 0
M  V30 3908 O 359.173 -1.46004 -3.74227 0
M  V30 3909 N 357.379 -1.61675 -2.41474 0
M  V30 3910 H 356.926 -2.00979 -1.61137 0
M  V30 3911 H 356.884 -0.968036 -2.99126 0
M  V30 3912 N 360.656 0.0484629 -1.57525 0
M  V30 3913 C 361.903 0.743125 -1.88372 0
M  V30 3914 C 362.231 1.76383 -0.819715 0
M  V30 3915 O 361.486 1.94855 0.181659 0
M  V30 3916 C 361.785 1.46632 -3.25935 0
M  V30 3917 C 361.451 0.583427 -4.4711 0
M  V30 3918 C 360.113 0.340191 -4.79996 0
M  V30 3919 C 362.465 -0.0273345 -5.21193 0
M  V30 3920 C 359.793 -0.522903 -5.84365 0
M  V30 3921 C 362.145 -0.878017 -6.26477 0
M  V30 3922 C 360.809 -1.1309 -6.5785 0
M  V30 3923 H 360.079 0.271929 -0.689301 0
M  V30 3924 H 362.726 0.00336166 -1.915 0
M  V30 3925 H 361.031 2.2789 -3.18706 0
M  V30 3926 H 362.728 2.00902 -3.47044 0
M  V30 3927 H 359.318 0.783151 -4.21384 0
M  V30 3928 H 363.502 0.147654 -4.9608 0
M  V30 3929 H 358.758 -0.727335 -6.07058 0
M  V30 3930 H 362.932 -1.35789 -6.83033 0
M  V30 3931 H 360.559 -1.80144 -7.38547 0
M  V30 3932 N 362.134 1.5431 0.320358 0
M  V30 3933 C 363.383 1.7188 1.05546 0
M  V30 3934 C 363.696 0.501143 1.89071 0
M  V30 3935 O 364.902 0.558258 2.65699 0
M  V30 3936 C 363.358 3.04025 1.92605 0
M  V30 3937 C 362.966 4.33207 1.14176 0
M  V30 3938 C 364.71 3.30959 2.65832 0
M  V30 3939 C 362.617 5.56412 2.00399 0
M  V30 3940 H 361.547 0.640547 0.397763 0
M  V30 3941 H 364.198 1.80802 0.313522 0
M  V30 3942 H 362.58 2.89019 2.7071 0
M  V30 3943 H 363.754 4.58989 0.40819 0
M  V30 3944 H 362.069 4.13062 0.526165 0
M  V30 3945 H 364.666 4.20203 3.30656 0
M  V30 3946 H 365.009 2.48979 3.33639 0
M  V30 3947 H 365.542 3.46847 1.94787 0
M  V30 3948 H 362.281 6.41004 1.37094 0
M  V30 3949 H 361.801 5.34844 2.7148 0
M  V30 3950 H 363.48 5.92938 2.58908 0
M  V30 3951 N 363.613 -0.582584 1.46437 0
M  V30 3952 C 364.563 -1.68654 1.53426 0
M  V30 3953 C 365.547 -1.55971 0.395194 0
M  V30 3954 O 366.739 -1.64884 0.643612 0
M  V30 3955 C 363.868 -3.07439 1.52762 0
M  V30 3956 C 362.954 -3.25418 2.71963 0
M  V30 3957 N 363.345 -3.13556 3.96883 0
M  V30 3958 C 361.643 -3.56357 2.68189 0
M  V30 3959 C 362.344 -3.33543 4.76575 0
M  V30 3960 N 361.32 -3.58704 4.08451 0
M  V30 3961 H 365.122 -1.58014 2.47808 0
M  V30 3962 H 362.636 -0.786617 1.42078 0
M  V30 3963 H 364.633 -3.86671 1.55857 0
M  V30 3964 H 363.293 -3.1921 0.594573 0
M  V30 3965 H 364.304 -2.9142 4.28129 0
M  V30 3966 H 360.981 -3.74812 1.83908 0
M  V30 3967 H 362.371 -3.29555 5.85528 0
M  V30 3968 N 365.091 -1.34144 -0.827227 0
M  V30 3969 C 366.507 -1.13732 -1.11969 0
M  V30 3970 C 366.707 0.0640463 -2.01398 0
M  V30 3971 O 365.763 0.740856 -2.41387 0
M  V30 3972 C 367.076 -2.43047 -1.77055 0
M  V30 3973 C 368.624 -2.49063 -1.89569 0
M  V30 3974 C 369.099 -3.78369 -2.58072 0
M  V30 3975 N 370.59 -3.79505 -2.65575 0
M  V30 3976 C 371.325 -4.76274 -3.19297 0
M  V30 3977 N 370.821 -5.83424 -3.73616 0
M  V30 3978 N 372.614 -4.63735 -3.17658 0
M  V30 3979 H 364.765 -2.11126 -0.232296 0
M  V30 3980 H 367.028 -0.933424 -0.165602 0
M  V30 3981 H 366.734 -3.31025 -1.18807 0
M  V30 3982 H 366.608 -2.56066 -2.76966 0
M  V30 3983 H 368.995 -1.61527 -2.46968 0
M  V30 3984 H 369.076 -2.39975 -0.885745 0
M  V30 3985 H 368.72 -4.66293 -2.01329 0
M  V30 3986 H 368.65 -3.84737 -3.59562 0
M  V30 3987 H 371.141 -3.02074 -2.27068 0
M  V30 3988 H 371.454 -6.53282 -4.12846 0
M  V30 3989 H 369.799 -5.87143 -3.71871 0
M  V30 3990 H 372.99 -3.79177 -2.74486 0
M  V30 3991 H 373.163 -5.39318 -3.59221 0
M  V30 3992 N 366.569 1.04691 -1.17803 0
M  V30 3993 C 367.846 1.7472 -0.879328 0
M  V30 3994 C 368.226 2.01812 0.619271 0
M  V30 3995 O 367.574 1.65824 1.57209 0
M  V30 3996 C 367.784 3.03686 -1.71976 0
M  V30 3997 C 369.132 3.77542 -1.94286 0
M  V30 3998 O 370.156 3.13569 -1.68976 0
M  V30 3999 O 369.015 4.92506 -2.36855 0
M  V30 4000 H 366.109 0.760011 -0.326056 0
M  V30 4001 H 368.655 1.10813 -1.28525 0
M  V30 4002 H 367.427 2.79754 -2.73594 0
M  V30 4003 H 367.05 3.75332 -1.31194 0
M  V30 4004 N 368.047 0.979072 1.23499 0
M  V30 4005 C 368.977 0.537606 2.27227 0
M  V30 4006 C 369.958 -0.428539 1.64613 0
M  V30 4007 O 371.143 -0.322191 1.91509 0
M  V30 4008 C 368.273 -0.162052 3.46922 0
M  V30 4009 C 367.227 0.721242 4.21879 0
M  V30 4010 C 366.553 -0.110555 5.34586 0
M  V30 4011 C 367.853 2.01141 4.82016 0
M  V30 4012 H 369.547 1.40462 2.64406 0
M  V30 4013 H 367.093 0.67684 1.27102 0
M  V30 4014 H 369.046 -0.482192 4.18632 0
M  V30 4015 H 367.77 -1.06351 3.08799 0
M  V30 4016 H 366.429 1.02482 3.51984 0
M  V30 4017 H 366.077 -1.0125 4.92704 0
M  V30 4018 H 365.777 0.477325 5.85658 0
M  V30 4019 H 367.301 -0.425107 6.09118 0
M  V30 4020 H 368.715 1.75612 5.45741 0
M  V30 4021 H 367.112 2.54695 5.43369 0
M  V30 4022 H 368.182 2.69909 4.02836 0
M  V30 4023 N 369.525 -1.3858 0.750561 0
M  V30 4024 C 370.488 -2.28836 0.129152 0
M  V30 4025 C 371.488 -1.47045 -0.650714 0
M  V30 4026 O 372.678 -1.6753 -0.477428 0
M  V30 4027 C 369.81 -3.30751 -0.825622 0
M  V30 4028 H 371.003 -2.85294 0.924516 0
M  V30 4029 H 368.556 -1.47489 0.517376 0
M  V30 4030 H 369.291 -2.79378 -1.64677 0
M  V30 4031 H 369.076 -3.91177 -0.268852 0
M  V30 4032 H 370.566 -3.98249 -1.2565 0
M  V30 4033 N 371.003 -0.499398 -1.49478 0
M  V30 4034 C 371.966 0.268838 -2.27618 0
M  V30 4035 C 372.966 0.895383 -1.33565 0
M  V30 4036 O 374.156 0.760164 -1.56739 0
M  V30 4037 C 371.288 1.38559 -3.11471 0
M  V30 4038 H 372.481 -0.416812 -2.96989 0
M  V30 4039 H 370.034 -0.254313 -1.54217 0
M  V30 4040 H 370.769 2.10544 -2.46661 0
M  V30 4041 H 370.554 0.941797 -3.80621 0
M  V30 4042 H 372.044 1.92678 -3.70493 0
M  V30 4043 N 372.481 1.55866 -0.233164 0
M  V30 4044 C 373.897 1.59133 0.121988 0
M  V30 4045 C 374.097 1.25016 1.58029 0
M  V30 4046 O 373.153 0.990922 2.32243 0
M  V30 4047 C 374.466 2.99932 -0.214792 0
M  V30 4048 C 376.014 3.12601 -0.157971 0
M  V30 4049 C 376.489 4.55597 -0.46859 0
M  V30 4050 N 377.98 4.61305 -0.418585 0
M  V30 4051 C 378.715 5.69903 -0.63227 0
M  V30 4052 N 378.211 6.86819 -0.90835 0
M  V30 4053 N 380.004 5.59264 -0.563913 0
M  V30 4054 H 372.155 1.76315 -1.18434 0
M  V30 4055 H 374.418 0.820093 -0.475553 0
M  V30 4056 H 374.124 3.29588 -1.22739 0
M  V30 4057 H 373.998 3.74327 0.464691 0
M  V30 4058 H 376.385 2.82735 0.845283 0
M  V30 4059 H 376.466 2.40511 -0.871102 0
M  V30 4060 H 376.11 4.86182 -1.46934 0
M  V30 4061 H 376.04 5.25928 0.265865 0
M  V30 4062 H 378.531 3.77297 -0.213368 0
M  V30 4063 H 378.844 7.65507 -1.05919 0
M  V30 4064 H 377.189 6.88536 -0.945673 0
M  V30 4065 H 380.38 4.66802 -0.348372 0
M  V30 4066 H 380.553 6.43831 -0.733847 0
M  V30 4067 N 373.959 -0.0401083 1.57549 0
M  V30 4068 C 374.907 -1.06264 2.06908 0
M  V30 4069 C 375.901 -1.38132 0.980608 0
M  V30 4070 O 377.107 -1.37167 1.16556 0
M  V30 4071 H 373.482 -0.360166 0.660139 0
M  V30 4072 H 375.453 -0.620445 2.91878 0
M  V30 4073 C 374.202 -2.35846 2.55483 0
M  V30 4074 H 373.525 -2.12183 3.38849 0
M  V30 4075 H 374.965 -3.05765 2.93741 0
M  V30 4076 C 373.424 -3.0404 1.45126 0
M  V30 4077 O 373.954 -3.93424 0.811216 0
M  V30 4078 N 372.16 -2.65184 1.18852 0
M  V30 4079 H 371.707 -1.92584 1.71083 0
M  V30 4080 H 371.665 -3.1113 0.452244 0
M  V30 4081 N 375.437 -1.54477 -0.31217 0
M  V30 4082 C 376.677 -1.74958 -1.05684 0
M  V30 4083 C 377.041 -0.518414 -1.84869 0
M  V30 4084 O 378.242 -0.600759 -2.62001 0
M  V30 4085 C 376.513 -2.99656 -1.94785 0
M  V30 4086 S 378.072 -3.4109 -2.76049 0
M  V30 4087 H 374.89 -0.615104 -0.356606 0
M  V30 4088 H 377.492 -1.92669 -0.331514 0
M  V30 4089 H 376.196 -3.87397 -1.35468 0
M  V30 4090 H 375.727 -2.845 -2.71704 0
M  V30 4091 H 377.742 -2.97283 -3.97287 0
M  V30 4092 N 376.915 0.57481 -1.46744 0
M  V30 4093 C 377.845 1.69337 -1.60771 0
M  V30 4094 C 378.826 1.63825 -0.457736 0
M  V30 4095 O 380.011 1.8172 -0.684947 0
M  V30 4096 C 377.141 3.0798 -1.60517 0
M  V30 4097 C 376.095 3.28327 -2.74564 0
M  V30 4098 C 375.421 4.67578 -2.59373 0
M  V30 4099 C 376.721 3.15398 -4.16319 0
M  V30 4100 H 378.415 1.57853 -2.54407 0
M  V30 4101 H 375.961 0.75799 -1.22436 0
M  V30 4102 H 377.914 3.86061 -1.68923 0
M  V30 4103 H 376.638 3.20381 -0.634305 0
M  V30 4104 H 375.297 2.52649 -2.65639 0
M  V30 4105 H 374.945 4.76755 -1.60353 0
M  V30 4106 H 374.645 4.82144 -3.35873 0
M  V30 4107 H 376.169 5.47817 -2.69682 0
M  V30 4108 H 377.583 3.83315 -4.26313 0
M  V30 4109 H 375.98 3.41482 -4.93468 0
M  V30 4110 H 377.05 2.12372 -4.3592 0
M  V30 4111 N 378.394 1.34581 0.820102 0
M  V30 4112 C 379.64 1.27285 1.57881 0
M  V30 4113 C 379.973 -0.156137 1.93571 0
M  V30 4114 O 379.248 -1.10222 1.60254 0
M  V30 4115 C 379.531 2.16639 2.87645 0
M  V30 4116 C 379.384 3.68088 2.58517 0
M  V30 4117 C 380.703 2.05378 3.8924 0
M  V30 4118 H 377.822 0.463714 0.572833 0
M  V30 4119 H 380.464 1.64859 0.944539 0
M  V30 4120 H 378.614 1.84725 3.41773 0
M  V30 4121 H 380.286 4.10382 2.10676 0
M  V30 4122 H 378.529 3.89038 1.91917 0
M  V30 4123 H 379.2 4.2598 3.51063 0
M  V30 4124 H 381.676 2.33404 3.44473 0
M  V30 4125 H 380.552 2.7012 4.77835 0
M  V30 4126 H 380.813 1.0316 4.29896 0
M  V30 4127 N 379.872 -1.04064 1.18357 0
M  V30 4128 C 381.12 -1.76915 0.977013 0
M  V30 4129 C 381.441 -1.88624 -0.494577 0
M  V30 4130 O 380.711 -1.41125 -1.3587 0
M  V30 4131 H 379.291 -0.65535 0.358504 0
M  V30 4132 H 381.953 -1.25592 1.49039 0
M  V30 4133 H 381.049 -2.78178 1.41504 0
M  V30 4134 N 381.35 -0.985608 -1.22978 0
M  V30 4135 C 382.26 -0.538548 -2.28335 0
M  V30 4136 C 383.276 0.409163 -1.69121 0
M  V30 4137 O 384.452 0.277797 -1.99475 0
M  V30 4138 C 381.517 0.146867 -3.46389 0
M  V30 4139 C 380.578 -0.842896 -4.20944 0
M  V30 4140 C 379.811 -0.190095 -5.33361 0
M  V30 4141 O 380.034 1.01767 -5.61248 0
M  V30 4142 O 378.968 -0.891289 -5.95264 0
M  V30 4143 H 382.794 -1.41487 -2.68729 0
M  V30 4144 H 380.379 -0.753495 -1.29007 0
M  V30 4145 H 382.261 0.531125 -4.1804 0
M  V30 4146 H 380.936 0.997871 -3.07935 0
M  V30 4147 H 379.843 -1.27795 -3.51595 0
M  V30 4148 H 381.176 -1.66287 -4.6326 0
M  V30 4149 N 382.828 1.3818 -0.7579 0
M  V30 4150 C 383.776 2.32277 -0.122482 0
M  V30 4151 C 384.77 1.54238 0.700505 0
M  V30 4152 O 385.976 1.69737 0.599119 0
M  V30 4153 H 382.351 0.751712 -0.0208143 0
M  V30 4154 H 384.322 2.83469 -0.932099 0
M  V30 4155 C 383.071 3.39447 0.753076 0
M  V30 4156 H 382.394 3.99591 0.129184 0
M  V30 4157 H 383.834 4.07684 1.16489 0
M  V30 4158 C 382.293 2.78375 1.8976 0
M  V30 4159 O 382.823 2.68025 2.99208 0
M  V30 4160 N 381.029 2.36121 1.69397 0
M  V30 4161 H 380.576 2.4474 0.803762 0
M  V30 4162 H 380.534 1.95602 2.46145 0
M  V30 4163 N 384.306 0.507319 1.49211 0
M  V30 4164 C 385.256 -0.287112 2.26185 0
M  V30 4165 C 386.24 -0.929983 1.31302 0
M  V30 4166 O 387.432 -0.836538 1.55984 0
M  V30 4167 C 384.561 -1.34718 3.15763 0
M  V30 4168 C 383.647 -0.710235 4.18111 0
M  V30 4169 N 384.038 0.190836 5.0544 0
M  V30 4170 C 382.336 -0.97009 4.35322 0
M  V30 4171 C 383.037 0.55606 5.79036 0
M  V30 4172 N 382.013 -0.0775232 5.43545 0
M  V30 4173 H 385.815 0.406445 2.91076 0
M  V30 4174 H 383.329 0.323814 1.59139 0
M  V30 4175 H 385.326 -1.92982 3.69545 0
M  V30 4176 H 383.986 -2.04235 2.52424 0
M  V30 4177 H 384.997 0.562047 5.14841 0
M  V30 4178 H 381.674 -1.65753 3.83187 0
M  V30 4179 H 383.064 1.2936 6.5933 0
M  V30 4180 N 385.784 -1.5574 0.241426 0
M  V30 4181 C 386.714 -2.24133 -0.654722 0
M  V30 4182 C 387.695 -1.21974 -1.1856 0
M  V30 4183 O 388.88 -1.50612 -1.22595 0
M  V30 4184 C 386.01 -2.93659 -1.85423 0
M  V30 4185 C 384.964 -4.0246 -1.45636 0
M  V30 4186 C 384.29 -4.59383 -2.73626 0
M  V30 4187 C 385.59 -5.18468 -0.631506 0
M  V30 4188 H 387.284 -2.99281 -0.0844353 0
M  V30 4189 H 384.83 -1.43947 -0.0391707 0
M  V30 4190 H 386.783 -3.40203 -2.48676 0
M  V30 4191 H 385.507 -2.15991 -2.44981 0
M  V30 4192 H 384.166 -3.56676 -0.847202 0
M  V30 4193 H 383.814 -3.78422 -3.3137 0
M  V30 4194 H 383.514 -5.32826 -2.4773 0
M  V30 4195 H 385.038 -5.08658 -3.37786 0
M  V30 4196 H 386.452 -5.61272 -1.1682 0
M  V30 4197 H 384.849 -5.98266 -0.468831 0
M  V30 4198 H 385.919 -4.8358 0.357506 0
M  V30 4199 N 387.262 0.0317525 -1.57568 0
M  V30 4200 C 388.508 0.724175 -1.8943 0
M  V30 4201 C 388.841 1.75149 -0.838836 0
M  V30 4202 O 388.116 1.93948 0.146422 0
M  V30 4203 C 388.399 1.39615 -3.31933 0
M  V30 4204 C 388.252 0.382537 -4.4817 0
M  V30 4205 C 389.571 2.33084 -3.73309 0
M  V30 4206 H 386.69 0.261797 -0.688935 0
M  V30 4207 H 389.332 -0.013017 -1.89996 0
M  V30 4208 H 387.482 2.02451 -3.31581 0
M  V30 4209 H 389.154 -0.243689 -4.60656 0
M  V30 4210 H 387.397 -0.29844 -4.32772 0
M  V30 4211 H 388.068 0.891145 -5.44759 0
M  V30 4212 H 390.544 1.80295 -3.7501 0
M  V30 4213 H 389.42 2.77084 -4.73831 0
M  V30 4214 H 389.681 3.19643 -3.05419 0
M  V30 4215 N 388.74 1.54641 0.303973 0
M  V30 4216 C 389.687 1.85386 1.37479 0
M  V30 4217 C 390.657 0.702528 1.50512 0
M  V30 4218 O 391.842 0.950867 1.65418 0
M  V30 4219 C 388.982 2.10413 2.73533 0
M  V30 4220 C 388.095 3.38049 2.68974 0
M  V30 4221 C 387.23 3.52934 3.97002 0
M  V30 4222 C 386.269 4.74373 3.86829 0
M  V30 4223 N 385.406 4.8608 5.06627 0
M  V30 4224 H 390.246 2.76732 1.1056 0
M  V30 4225 H 387.783 1.37034 0.534805 0
M  V30 4226 H 389.741 2.22919 3.52652 0
M  V30 4227 H 388.371 1.22338 2.98719 0
M  V30 4228 H 387.423 3.3418 1.81736 0
M  V30 4229 H 388.735 4.27288 2.57346 0
M  V30 4230 H 387.889 3.65088 4.84557 0
M  V30 4231 H 386.628 2.61824 4.1146 0
M  V30 4232 H 385.633 4.62255 2.97658 0
M  V30 4233 H 386.858 5.66888 3.73918 0
M  V30 4234 H 384.804 3.97891 5.21554 0
M  V30 4235 H 384.721 5.69315 4.9741 0
M  V30 4236 H 385.989 5.02587 5.95841 0
M  V30 4237 N 390.218 -0.567019 1.47046 0
M  V30 4238 C 391.464 -1.32658 1.53394 0
M  V30 4239 C 391.797 -1.93254 0.19148 0
M  V30 4240 O 391.072 -1.77338 -0.798844 0
M  V30 4241 C 391.355 -2.44412 2.64452 0
M  V30 4242 C 391.208 -1.88749 4.08282 0
M  V30 4243 C 392.527 -3.46387 2.71485 0
M  V30 4244 H 389.646 -0.48098 0.558415 0
M  V30 4245 H 392.288 -0.635481 1.79058 0
M  V30 4246 H 390.438 -3.03363 2.427 0
M  V30 4247 H 392.11 -1.34134 4.41368 0
M  V30 4248 H 390.353 -1.19481 4.17021 0
M  V30 4249 H 391.024 -2.69491 4.81745 0
M  V30 4250 H 393.5 -2.9734 2.91081 0
M  V30 4251 H 392.376 -4.2202 3.50985 0
M  V30 4252 H 392.637 -4.04616 1.78153 0
M  V30 4253 N 391.696 -1.35014 -0.812953 0
M  V30 4254 C 392.659 -1.27292 -1.90602 0
M  V30 4255 C 393.659 -0.185817 -1.59723 0
M  V30 4256 O 394.849 -0.439102 -1.68575 0
M  V30 4257 C 391.981 -0.967676 -3.26877 0
M  V30 4258 H 393.174 -2.24479 -1.9887 0
M  V30 4259 H 390.727 -1.19446 -1.00808 0
M  V30 4260 H 391.462 0.0005954 -3.243 0
M  V30 4261 H 391.247 -1.75412 -3.50675 0
M  V30 4262 H 392.737 -0.939085 -4.06904 0
M  V30 4263 N 393.175 1.03435 -1.18907 0
M  V30 4264 C 394.452 1.73778 -0.89781 0
M  V30 4265 C 394.832 2.02458 0.597832 0
M  V30 4266 O 394.18 1.67482 1.55441 0
M  V30 4267 C 394.39 3.01845 -1.75187 0
M  V30 4268 C 395.738 3.7546 -1.9828 0
M  V30 4269 O 396.762 3.11759 -1.72293 0
M  V30 4270 O 395.621 4.89966 -2.42065 0
M  V30 4271 H 392.715 0.75651 -0.334098 0
M  V30 4272 H 395.261 1.09444 -1.29693 0
M  V30 4273 H 394.033 2.76836 -2.76545 0
M  V30 4274 H 393.656 3.73919 -1.35167 0
M  V30 4275 N 394.653 0.992116 1.22453 0
M  V30 4276 C 395.9 0.667534 1.91181 0
M  V30 4277 C 396.228 -0.800317 1.77271 0
M  V30 4278 O 395.483 -1.59421 1.13505 0
M  V30 4279 C 395.782 1.01832 3.42586 0
M  V30 4280 C 395.448 2.47831 3.76684 0
M  V30 4281 C 394.11 2.87729 3.85701 0
M  V30 4282 C 396.462 3.42466 3.92895 0
M  V30 4283 C 393.79 4.21252 4.08367 0
M  V30 4284 C 396.142 4.75648 4.17064 0
M  V30 4285 C 394.806 5.15288 4.24305 0
M  V30 4286 H 394.076 0.244268 0.699581 0
M  V30 4287 H 396.723 1.24816 1.45235 0
M  V30 4288 H 395.028 0.355769 3.90181 0
M  V30 4289 H 396.725 0.745228 3.94014 0
M  V30 4290 H 393.315 2.15905 3.70247 0
M  V30 4291 H 397.499 3.12814 3.85307 0
M  V30 4292 H 392.755 4.51554 4.122 0
M  V30 4293 H 396.929 5.48924 4.2855 0
M  V30 4294 H 394.556 6.18769 4.41621 0
M  V30 4295 N 396.131 -1.37776 0.765217 0
M  V30 4296 C 397.379 -1.99454 0.325943 0
M  V30 4297 C 397.7 -1.61049 -1.09947 0
M  V30 4298 O 396.97 -0.872821 -1.75381 0
M  V30 4299 H 395.55 -0.737697 0.117525 0
M  V30 4300 H 398.212 -1.68359 0.981895 0
M  V30 4301 H 397.308 -3.09547 0.398353 0
M  V30 4302 N 397.609 -0.515225 -1.4894 0
M  V30 4303 C 398.539 0.244628 -2.32215 0
M  V30 4304 C 399.52 0.949136 -1.41157 0
M  V30 4305 O 400.705 0.937783 -1.70057 0
M  V30 4306 C 397.835 1.30096 -3.22013 0
M  V30 4307 C 396.789 0.715486 -4.21977 0
M  V30 4308 C 396.115 1.87339 -5.00808 0
M  V30 4309 C 397.415 -0.302982 -5.2142 0
M  V30 4310 H 399.109 -0.450501 -2.95991 0
M  V30 4311 H 396.655 -0.218098 -1.42339 0
M  V30 4312 H 398.608 1.84037 -3.79089 0
M  V30 4313 H 397.332 2.02547 -2.56207 0
M  V30 4314 H 395.991 0.197715 -3.66066 0
M  V30 4315 H 395.639 2.58592 -4.31438 0
M  V30 4316 H 395.339 1.48764 -5.68457 0
M  V30 4317 H 396.863 2.41686 -5.60732 0
M  V30 4318 H 398.277 0.148802 -5.73107 0
M  V30 4319 H 396.674 -0.60532 -5.97039 0
M  V30 4320 H 397.744 -1.21395 -4.69459 0
M  V30 4321 N 399.087 1.5561 -0.249682 0
M  V30 4322 C 400.312 2.03865 0.381305 0
M  V30 4323 C 400.737 1.12769 1.50548 0
M  V30 4324 O 400.095 0.121189 1.80895 0
M  V30 4325 C 400.143 3.50101 0.863816 0
M  V30 4326 O 399.247 3.62132 1.97318 0
M  V30 4327 H 398.588 0.658827 0.0827194 0
M  V30 4328 H 401.118 2.01105 -0.376552 0
M  V30 4329 H 401.128 3.90975 1.1663 0
M  V30 4330 H 399.803 4.1588 0.0411816 0
M  V30 4331 H 398.38 3.33155 1.67517 0
M  V30 4332 N 400.565 -0.0233959 1.57583 0
M  V30 4333 C 401.981 -0.379134 1.55031 0
M  V30 4334 C 402.181 -1.76255 0.976548 0
M  V30 4335 O 401.237 -2.45266 0.600078 0
M  V30 4336 C 402.55 -0.275792 2.99433 0
M  V30 4337 C 404.098 -0.352458 3.11009 0
M  V30 4338 C 404.573 -0.278501 4.57152 0
M  V30 4339 N 406.064 -0.337123 4.61972 0
M  V30 4340 C 406.799 -0.302876 5.726 0
M  V30 4341 N 406.295 -0.220589 6.92449 0
M  V30 4342 N 408.088 -0.353023 5.6099 0
M  V30 4343 H 400.239 0.881869 1.93227 0
M  V30 4344 H 402.502 0.335867 0.886509 0
M  V30 4345 H 402.208 0.675108 3.4516 0
M  V30 4346 H 402.082 -1.06721 3.61788 0
M  V30 4347 H 404.469 -1.29379 2.65226 0
M  V30 4348 H 404.55 0.468409 2.51475 0
M  V30 4349 H 404.194 0.659189 5.03604 0
M  V30 4350 H 404.124 -1.11755 5.14605 0
M  V30 4351 H 406.615 -0.403002 3.75745 0
M  V30 4352 H 406.928 -0.199713 7.72542 0
M  V30 4353 H 405.273 -0.186555 6.9475 0
M  V30 4354 H 408.464 -0.415339 4.66254 0
M  V30 4355 H 408.637 -0.322866 6.47195 0
M  V30 4356 N 402.043 -1.548 -0.295768 0
M  V30 4357 C 402.973 -1.89115 -1.36959 0
M  V30 4358 C 403.954 -0.75059 -1.52644 0
M  V30 4359 O 405.139 -1.00678 -1.66065 0
M  V30 4360 C 402.269 -2.14307 -2.73295 0
M  V30 4361 C 401.223 -3.30151 -2.72368 0
M  V30 4362 C 400.549 -3.40772 -4.12042 0
M  V30 4363 C 401.849 -4.67126 -2.33646 0
M  V30 4364 H 403.543 -2.79053 -1.08488 0
M  V30 4365 H 401.089 -1.34266 -0.520443 0
M  V30 4366 H 403.042 -2.36898 -3.48507 0
M  V30 4367 H 401.766 -1.21145 -3.03301 0
M  V30 4368 H 400.425 -3.0749 -1.99613 0
M  V30 4369 H 400.073 -2.45117 -4.39234 0
M  V30 4370 H 399.773 -4.18645 -4.12322 0
M  V30 4371 H 401.297 -3.6563 -4.89027 0
M  V30 4372 H 402.711 -4.89414 -2.98575 0
M  V30 4373 H 401.108 -5.47751 -2.45129 0
M  V30 4374 H 402.178 -4.67489 -1.28772 0
M  V30 4375 N 403.521 0.559213 -1.47345 0
M  V30 4376 C 404.454 1.68201 -1.5422 0
M  V30 4377 C 405.432 1.57742 -0.394497 0
M  V30 4378 O 406.616 1.78628 -0.60201 0
M  V30 4379 C 403.743 3.0643 -1.44285 0
M  V30 4380 C 402.789 3.3534 -2.63532 0
M  V30 4381 S 403.622 3.24816 -4.25741 0
M  V30 4382 C 404.778 4.65542 -4.18355 0
M  V30 4383 H 405.011 1.62114 -2.49211 0
M  V30 4384 H 402.544 0.739871 -1.35519 0
M  V30 4385 H 404.502 3.86164 -1.3924 0
M  V30 4386 H 403.163 3.09984 -0.506816 0
M  V30 4387 H 402.356 4.36107 -2.52639 0
M  V30 4388 H 401.958 2.63221 -2.65689 0
M  V30 4389 H 404.25 5.56449 -3.86485 0
M  V30 4390 H 405.193 4.81493 -5.19202 0
M  V30 4391 H 405.601 4.43495 -3.49246 0
M  V30 4392 N 404.999 1.35443 0.805782 0
M  V30 4393 C 406.227 1.31878 1.59423 0
M  V30 4394 C 406.642 -0.103562 1.88516 0
M  V30 4395 O 405.999 -1.05575 1.48863 0
M  V30 4396 C 406.05 2.12426 2.92502 0
M  V30 4397 O 405.771 3.49115 2.6467 0
M  V30 4398 C 407.272 2.16455 3.86862 0
M  V30 4399 H 404.492 0.453002 0.495005 0
M  V30 4400 H 407.036 1.78309 1.00131 0
M  V30 4401 H 405.191 1.69593 3.48306 0
M  V30 4402 H 405.605 3.90957 3.49647 0
M  V30 4403 H 407.079 2.77204 4.77349 0
M  V30 4404 H 407.556 1.16352 4.23508 0
M  V30 4405 H 408.162 2.59453 3.36993 0
M  V30 4406 N 406.477 -1.02803 1.19454 0
M  V30 4407 C 407.725 -1.75869 0.995722 0
M  V30 4408 C 408.046 -1.89138 -0.474543 0
M  V30 4409 O 407.316 -1.42558 -1.34366 0
M  V30 4410 H 405.896 -0.651511 0.365435 0
M  V30 4411 H 408.558 -1.24004 1.50363 0
M  V30 4412 H 407.654 -2.76661 1.44447 0
M  V30 4413 N 407.956 -0.998596 -1.21925 0
M  V30 4414 C 409.233 -0.593401 -1.86382 0
M  V30 4415 C 409.613 0.92916 -1.89552 0
M  V30 4416 O 408.961 1.81347 -1.39017 0
M  V30 4417 C 409.171 -1.22039 -3.26967 0
M  V30 4418 C 410.519 -1.32449 -4.03413 0
M  V30 4419 O 411.543 -1.17522 -3.36254 0
M  V30 4420 O 410.402 -1.56395 -5.23644 0
M  V30 4421 H 407.496 -0.202385 -0.801854 0
M  V30 4422 H 410.042 -1.09484 -1.29659 0
M  V30 4423 H 408.814 -2.26158 -3.19325 0
M  V30 4424 H 408.437 -0.704906 -3.91301 0
M  V30 4425 N 409.434 1.37368 -0.772513 0
M  V30 4426 C 410.662 2.03942 -0.348588 0
M  V30 4427 C 411.077 1.58264 1.02947 0
M  V30 4428 O 410.434 0.764246 1.65727 0
M  V30 4429 C 410.485 3.5946 -0.38351 0
M  V30 4430 O 410.206 4.03468 -1.70721 0
M  V30 4431 C 411.707 4.4327 0.0519152 0
M  V30 4432 H 408.927 0.654931 -0.145966 0
M  V30 4433 H 411.471 1.75686 -1.04665 0
M  V30 4434 H 409.626 3.86486 0.265978 0
M  V30 4435 H 410.04 4.97991 -1.64636 0
M  V30 4436 H 411.514 5.51995 -0.0236733 0
M  V30 4437 H 411.991 4.2514 1.10238 0
M  V30 4438 H 412.597 4.21471 -0.569415 0
M  V30 4439 N 410.912 0.523116 1.48665 0
M  V30 4440 C 412.142 -0.00961724 2.06598 0
M  V30 4441 C 412.55 -1.29333 1.38093 0
M  V30 4442 O 411.893 -1.77846 0.46007 0
M  V30 4443 C 411.955 -0.311135 3.58151 0
M  V30 4444 C 411.619 0.878092 4.48485 0
M  V30 4445 C 412.616 1.77464 4.88674 0
M  V30 4446 C 410.301 1.08315 4.90483 0
M  V30 4447 C 412.295 2.86021 5.69623 0
M  V30 4448 C 409.982 2.17187 5.71203 0
M  V30 4449 C 410.98 3.05873 6.10681 0
M  V30 4450 O 410.668 4.12862 6.89783 0
M  V30 4451 H 410.4 0.0272658 0.67545 0
M  V30 4452 H 412.954 0.726156 1.92136 0
M  V30 4453 H 411.184 -1.10079 3.70701 0
M  V30 4454 H 412.873 -0.785125 3.98234 0
M  V30 4455 H 413.639 1.62813 4.56855 0
M  V30 4456 H 409.518 0.402149 4.59243 0
M  V30 4457 H 413.062 3.55272 6.00356 0
M  V30 4458 H 408.959 2.31824 6.02435 0
M  V30 4459 H 409.727 4.10487 7.08126 0
M  V30 4460 N 412.39 -1.55475 0.257931 0
M  V30 4461 C 413.618 -2.03609 -0.367559 0
M  V30 4462 C 414.033 -1.13687 -1.50734 0
M  V30 4463 O 413.39 -0.153479 -1.81853 0
M  V30 4464 C 413.441 -3.51001 -0.864908 0
M  V30 4465 O 413.162 -4.37499 0.229465 0
M  V30 4466 C 414.663 -4.14946 -1.55997 0
M  V30 4467 H 411.883 -0.665459 -0.0860521 0
M  V30 4468 H 414.427 -2.00843 0.385014 0
M  V30 4469 H 412.582 -3.54266 -1.56762 0
M  V30 4470 H 412.996 -5.24286 -0.14998 0
M  V30 4471 H 414.47 -5.19735 -1.85956 0
M  V30 4472 H 414.947 -3.6209 -2.4857 0
M  V30 4473 H 415.553 -4.15635 -0.901543 0
M  V30 4474 N 413.868 0.0150385 -1.57593 0
M  V30 4475 C 414.831 0.995996 -2.06428 0
M  V30 4476 C 415.831 1.2818 -0.970903 0
M  V30 4477 O 417.021 1.22949 -1.23406 0
M  V30 4478 C 414.153 2.32506 -2.49307 0
M  V30 4479 H 415.346 0.573873 -2.94358 0
M  V30 4480 H 412.899 0.262186 -1.54085 0
M  V30 4481 H 413.634 2.79438 -1.64575 0
M  V30 4482 H 413.419 2.13087 -3.29145 0
M  V30 4483 H 414.909 3.02906 -2.87468 0
M  V30 4484 N 415.346 1.54954 0.287554 0
M  V30 4485 C 416.296 1.8322 1.357 0
M  V30 4486 C 417.28 0.690152 1.45347 0
M  V30 4487 O 418.472 0.951137 1.49273 0
M  V30 4488 C 415.601 2.09481 2.71979 0
M  V30 4489 C 414.687 3.29906 2.66502 0
M  V30 4490 N 415.078 4.50154 2.30641 0
M  V30 4491 C 413.376 3.32203 2.97585 0
M  V30 4492 C 414.077 5.32209 2.34794 0
M  V30 4493 N 413.053 4.70258 2.72688 0
M  V30 4494 H 416.855 2.73746 1.0696 0
M  V30 4495 H 414.369 1.54635 0.496167 0
M  V30 4496 H 416.366 2.27882 3.49107 0
M  V30 4497 H 415.026 1.2023 3.0162 0
M  V30 4498 H 416.037 4.76515 2.02865 0
M  V30 4499 H 412.714 2.53101 3.32034 0
M  V30 4500 H 414.104 6.38321 2.09753 0
M  V30 4501 N 416.824 -0.551391 1.4764 0
M  V30 4502 C 417.787 -1.64007 1.60107 0
M  V30 4503 C 418.787 -1.53601 0.47576 0
M  V30 4504 O 419.977 -1.57655 0.740988 0
M  V30 4505 C 417.109 -3.03569 1.55108 0
M  V30 4506 H 418.302 -1.543 2.57161 0
M  V30 4507 H 415.855 -0.771776 1.35917 0
M  V30 4508 H 416.59 -3.18804 0.594519 0
M  V30 4509 H 416.375 -3.12532 2.36783 0
M  V30 4510 H 417.865 -3.82762 1.66982 0
M  V30 4511 N 418.302 -1.35869 -0.798587 0
M  V30 4512 C 419.55 -1.29332 -1.55298 0
M  V30 4513 C 419.871 0.129729 -1.94568 0
M  V30 4514 O 419.141 1.06796 -1.6423 0
M  V30 4515 H 417.721 -0.475737 -0.57592 0
M  V30 4516 H 420.383 -1.70062 -0.952093 0
M  V30 4517 H 419.479 -1.91458 -2.46476 0
M  V30 4518 N 419.78 1.02168 -1.19998 0
M  V30 4519 C 420.743 2.08765 -0.94604 0
M  V30 4520 C 421.743 1.60618 0.0763846 0
M  V30 4521 O 422.933 1.73472 -0.159135 0
M  V30 4522 C 420.065 3.38262 -0.423255 0
M  V30 4523 H 421.258 2.32726 -1.89153 0
M  V30 4524 H 418.811 1.1889 -1.01464 0
M  V30 4525 H 419.546 3.19974 0.527938 0
M  V30 4526 H 419.331 3.74532 -1.16053 0
M  V30 4527 H 420.821 4.16759 -0.264911 0
M  V30 4528 N 421.258 1.00505 1.21394 0
M  V30 4529 C 422.205 0.565496 2.23765 0
M  V30 4530 C 423.175 -0.408466 1.60999 0
M  V30 4531 O 424.36 -0.310503 1.88257 0
M  V30 4532 C 421.5 -0.101667 3.4495 0
M  V30 4533 C 420.613 0.915479 4.22188 0
M  V30 4534 C 419.748 0.220574 5.30742 0
M  V30 4535 C 418.787 1.22527 5.99711 0
M  V30 4536 N 417.924 0.557831 6.9988 0
M  V30 4537 H 422.764 1.44314 2.60725 0
M  V30 4538 H 420.301 0.722643 1.28126 0
M  V30 4539 H 422.259 -0.505504 4.14126 0
M  V30 4540 H 420.889 -0.94303 3.08718 0
M  V30 4541 H 419.941 1.43756 3.52191 0
M  V30 4542 H 421.253 1.68005 4.69655 0
M  V30 4543 H 420.407 -0.239368 6.06228 0
M  V30 4544 H 419.146 -0.576401 4.84282 0
M  V30 4545 H 418.151 1.69571 5.22997 0
M  V30 4546 H 419.376 2.02332 6.48258 0
M  V30 4547 H 417.322 -0.219486 6.55633 0
M  V30 4548 H 417.239 1.26065 7.45415 0
M  V30 4549 H 418.507 0.121095 7.79406 0
M  V30 4550 N 422.737 -1.36956 0.779787 0
M  V30 4551 C 423.984 -1.99491 0.347766 0
M  V30 4552 C 424.312 -1.61898 -1.07793 0
M  V30 4553 O 423.567 -0.86071 -1.75756 0
M  V30 4554 C 423.866 -3.54585 0.447686 0
M  V30 4555 C 423.532 -4.1197 1.83279 0
M  V30 4556 C 422.194 -4.27356 2.2118 0
M  V30 4557 C 424.546 -4.43354 2.74019 0
M  V30 4558 C 421.874 -4.71432 3.4924 0
M  V30 4559 C 424.226 -4.88858 4.01497 0
M  V30 4560 C 422.89 -5.0245 4.39432 0
M  V30 4561 H 422.16 -0.729991 0.127257 0
M  V30 4562 H 424.807 -1.63599 0.995376 0
M  V30 4563 H 423.112 -3.90773 -0.283447 0
M  V30 4564 H 424.809 -4.00888 0.0945948 0
M  V30 4565 H 421.399 -4.00428 1.52825 0
M  V30 4566 H 425.583 -4.31045 2.45995 0
M  V30 4567 H 420.839 -4.80141 3.78516 0
M  V30 4568 H 425.013 -5.12108 4.71931 0
M  V30 4569 H 422.64 -5.36362 5.38721 0
M  V30 4570 N 424.215 -0.530993 -1.48385 0
M  V30 4571 C 425.626 -0.0907905 -1.86479 0
M  V30 4572 C 425.977 1.33213 -1.44044 0
M  V30 4573 O 425.102 1.99783 -0.831615 0
M  V30 4574 C 425.697 -0.157987 -3.38431 0
M  V30 4575 C 424.256 0.227026 -3.75715 0
M  V30 4576 C 423.403 -0.5173 -2.72432 0
M  V30 4577 H 426.354 -0.742186 -1.40276 0
M  V30 4578 H 426.375 0.630053 -3.75247 0
M  V30 4579 H 425.887 -1.19372 -3.69286 0
M  V30 4580 H 423.988 1.26486 -3.50474 0
M  V30 4581 H 424.101 -0.113288 -4.78966 0
M  V30 4582 H 422.465 0.0365527 -2.54674 0
M  V30 4583 H 423.248 -1.55368 -3.0613 0
M  V30 4584 N 425.693 1.55336 -0.266172 0
M  V30 4585 C 426.942 1.98574 0.353749 0
M  V30 4586 C 427.255 1.15789 1.57646 0
M  V30 4587 O 428.461 1.49129 2.26876 0
M  V30 4588 C 426.917 3.53403 0.680747 0
M  V30 4589 C 426.525 4.44953 -0.52165 0
M  V30 4590 C 428.269 4.05251 1.26379 0
M  V30 4591 C 426.176 5.91156 -0.169736 0
M  V30 4592 H 425.106 0.741643 0.135949 0
M  V30 4593 H 427.757 1.79743 -0.369421 0
M  V30 4594 H 426.139 3.68001 1.46257 0
M  V30 4595 H 427.313 4.42121 -1.29869 0
M  V30 4596 H 425.628 4.03691 -1.02093 0
M  V30 4597 H 428.225 5.12021 1.54074 0
M  V30 4598 H 428.568 3.53749 2.19471 0
M  V30 4599 H 429.101 3.94057 0.544447 0
M  V30 4600 H 425.84 6.46736 -1.0683 0
M  V30 4601 H 425.36 5.97079 0.570717 0
M  V30 4602 H 427.039 6.4655 0.241245 0
M  V30 4603 N 427.171 -0.0066808 1.57599 0
M  V30 4604 C 428.118 -1.00024 2.08 0
M  V30 4605 C 429.088 -1.34549 0.973943 0
M  V30 4606 O 430.273 -1.44502 1.24595 0
M  V30 4607 C 427.413 -2.2891 2.58252 0
M  V30 4608 C 426.526 -2.00346 3.82734 0
M  V30 4609 C 425.661 -3.23265 4.21513 0
M  V30 4610 C 424.7 -2.90357 5.3885 0
M  V30 4611 N 423.837 -4.05793 5.72954 0
M  V30 4612 H 428.677 -0.563499 2.92624 0
M  V30 4613 H 426.214 -0.266592 1.44664 0
M  V30 4614 H 428.172 -3.04247 2.85464 0
M  V30 4615 H 426.802 -2.70265 1.76512 0
M  V30 4616 H 425.854 -1.15406 3.62471 0
M  V30 4617 H 427.166 -1.72086 4.68175 0
M  V30 4618 H 426.32 -4.06953 4.49971 0
M  V30 4619 H 425.059 -3.54657 3.34768 0
M  V30 4620 H 424.064 -2.05075 5.10122 0
M  V30 4621 H 425.289 -2.60219 6.27266 0
M  V30 4622 H 423.235 -4.37094 4.89167 0
M  V30 4623 H 423.152 -3.81034 6.52954 0
M  V30 4624 H 424.42 -4.90289 6.06001 0
M  V30 4625 N 428.649 -1.55105 -0.279332 0
M  V30 4626 C 429.895 -1.76597 -1.00921 0
M  V30 4627 C 430.25 -0.556831 -1.84166 0
M  V30 4628 O 429.543 0.450573 -1.86227 0
M  V30 4629 C 429.737 -3.0086 -1.92919 0
M  V30 4630 C 429.566 -4.33744 -1.18728 0
M  V30 4631 C 428.336 -4.9712 -0.905545 0
M  V30 4632 C 430.534 -5.11009 -0.580857 0
M  V30 4633 N 428.516 -6.13749 -0.136169 0
M  V30 4634 C 429.887 -6.19976 0.0546661 0
M  V30 4635 C 431.942 -4.95502 -0.488067 0
M  V30 4636 C 430.645 -7.15123 0.774028 0
M  V30 4637 C 432.671 -5.90999 0.217688 0
M  V30 4638 C 432.033 -6.9935 0.841975 0
M  V30 4639 H 428.132 -0.698553 -0.351493 0
M  V30 4640 H 430.716 -1.92595 -0.285531 0
M  V30 4641 H 428.887 -2.86249 -2.62519 0
M  V30 4642 H 430.619 -3.10784 -2.59221 0
M  V30 4643 H 427.374 -4.57903 -1.20921 0
M  V30 4644 H 427.798 -6.7659 0.235665 0
M  V30 4645 H 432.44 -4.11841 -0.956406 0
M  V30 4646 H 430.158 -7.9831 1.25407 0
M  V30 4647 H 433.744 -5.81078 0.289717 0
M  V30 4648 H 432.624 -7.71973 1.37939 0
M  V30 4649 N 430.127 0.543554 -1.4793 0
M  V30 4650 C 431.355 1.32516 -1.58894 0
M  V30 4651 C 431.77 1.87215 -0.244131 0
M  V30 4652 O 431.127 1.65709 0.764652 0
M  V30 4653 C 431.178 2.48554 -2.62494 0
M  V30 4654 O 430.899 1.96112 -3.91755 0
M  V30 4655 C 432.4 3.40572 -2.8377 0
M  V30 4656 H 429.62 0.403472 -0.536145 0
M  V30 4657 H 432.164 0.657106 -1.93655 0
M  V30 4658 H 430.319 3.1127 -2.30629 0
M  V30 4659 H 430.733 2.71967 -4.4848 0
M  V30 4660 H 432.207 4.18375 -3.60093 0
M  V30 4661 H 432.684 3.94965 -1.92092 0
M  V30 4662 H 433.29 2.8366 -3.16887 0
M  V30 4663 N 431.605 1.3629 0.791371 0
M  V30 4664 C 432.568 1.30309 1.88553 0
M  V30 4665 C 433.568 0.211204 1.59407 0
M  V30 4666 O 434.758 0.465865 1.67855 0
M  V30 4667 C 431.89 1.01956 3.25297 0
M  V30 4668 H 433.083 2.27614 1.95273 0
M  V30 4669 H 430.636 1.21035 0.988953 0
M  V30 4670 H 431.371 0.050998 3.2426 0
M  V30 4671 H 431.156 1.80968 3.4784 0
M  V30 4672 H 432.646 1.0037 4.05359 0
M  V30 4673 N 433.083 -1.0153 1.20538 0
M  V30 4674 C 434.494 -1.56598 1.01657 0
M  V30 4675 C 434.845 -1.91505 -0.426668 0
M  V30 4676 O 433.97 -1.72375 -1.30827 0
M  V30 4677 C 434.565 -2.84542 1.83905 0
M  V30 4678 C 433.124 -3.36133 1.69386 0
M  V30 4679 C 432.271 -2.09427 1.81757 0
M  V30 4680 H 435.222 -0.838974 1.34711 0
M  V30 4681 H 435.243 -3.56004 1.34319 0
M  V30 4682 H 434.755 -2.59105 2.8894 0
M  V30 4683 H 432.856 -3.66528 0.669933 0
M  V30 4684 H 432.969 -4.08248 2.50739 0
M  V30 4685 H 431.333 -2.21941 1.24957 0
M  V30 4686 H 432.116 -1.86414 2.88279 0
M  V30 4687 N 434.561 -1.01147 -1.20859 0
M  V30 4688 C 435.471 -0.58686 -2.27141 0
M  V30 4689 C 436.487 0.373198 -1.69951 0
M  V30 4690 O 437.663 0.235423 -2.00019 0
M  V30 4691 C 434.728 0.0733602 -3.46622 0
M  V30 4692 C 433.789 -0.931995 -4.19061 0
M  V30 4693 C 433.022 -0.303186 -5.32838 0
M  V30 4694 O 433.245 0.898395 -5.63281 0
M  V30 4695 O 432.179 -1.01735 -5.9324 0
M  V30 4696 H 436.005 -1.47155 -2.65667 0
M  V30 4697 H 433.59 -0.780689 -1.2738 0
M  V30 4698 H 435.472 0.442333 -4.19072 0
M  V30 4699 H 434.147 0.932329 -3.09983 0
M  V30 4700 H 433.054 -1.35224 -3.48805 0
M  V30 4701 H 434.387 -1.76076 -4.59628 0
M  V30 4702 N 436.039 1.36541 -0.78704 0
M  V30 4703 C 437.264 2.0409 -0.369053 0
M  V30 4704 C 437.689 1.58957 1.00569 0
M  V30 4705 O 437.047 0.756926 1.64743 0
M  V30 4706 C 437.095 3.57924 -0.438466 0
M  V30 4707 O 436.199 4.08642 0.555479 0
M  V30 4708 H 435.54 0.645142 -0.157122 0
M  V30 4709 H 438.07 1.74545 -1.06749 0
M  V30 4710 H 438.08 4.06887 -0.301218 0
M  V30 4711 H 436.755 3.90127 -1.44132 0
M  V30 4712 H 435.332 3.70958 0.380088 0
M  V30 4713 N 437.518 0.538854 1.48102 0
M  V30 4714 C 438.448 -0.207654 2.32575 0
M  V30 4715 C 439.429 -0.926559 1.4265 0
M  V30 4716 O 440.614 -0.91061 1.71527 0
M  V30 4717 C 437.744 -1.24957 3.24042 0
M  V30 4718 C 436.698 -0.648263 4.23062 0
M  V30 4719 C 436.024 -1.79348 5.03725 0
M  V30 4720 C 437.324 0.385897 5.20872 0
M  V30 4721 H 439.018 0.497534 2.95237 0
M  V30 4722 H 436.564 0.240715 1.41974 0
M  V30 4723 H 438.517 -1.77983 3.81969 0
M  V30 4724 H 437.241 -1.98446 2.59397 0
M  V30 4725 H 435.9 -0.139452 3.66335 0
M  V30 4726 H 435.548 -2.51696 4.35498 0
M  V30 4727 H 435.248 -1.39702 5.70751 0
M  V30 4728 H 436.772 -2.32735 5.64506 0
M  V30 4729 H 438.186 -0.057607 5.73271 0
M  V30 4730 H 436.583 0.700227 5.96001 0
M  V30 4731 H 437.653 1.28848 4.67468 0
M  V30 4732 N 438.996 -1.55193 0.274407 0
M  V30 4733 C 439.959 -2.212 -0.600279 0
M  V30 4734 C 440.959 -1.18963 -1.08187 0
M  V30 4735 O 442.149 -1.43873 -0.982158 0
M  V30 4736 C 439.281 -2.87739 -1.82809 0
M  V30 4737 H 440.474 -2.9989 -0.0239682 0
M  V30 4738 H 438.027 -1.5628 0.0250192 0
M  V30 4739 H 438.762 -2.13058 -2.44493 0
M  V30 4740 H 438.547 -3.62658 -1.49069 0
M  V30 4741 H 440.037 -3.38171 -2.45011 0
M  V30 4742 N 440.474 -0.00167713 -1.576 0
M  V30 4743 C 441.704 0.692754 -1.94639 0
M  V30 4744 C 442.112 1.67744 -0.87513 0
M  V30 4745 O 441.455 1.8305 0.154382 0
M  V30 4746 C 441.517 1.47881 -3.27676 0
M  V30 4747 C 441.181 0.655518 -4.52274 0
M  V30 4748 C 442.178 -0.0575214 -5.19868 0
M  V30 4749 C 439.863 0.600994 -4.98692 0
M  V30 4750 C 441.857 -0.814052 -6.3218 0
M  V30 4751 C 439.544 -0.15926 -6.10892 0
M  V30 4752 C 440.542 -0.865515 -6.77494 0
M  V30 4753 O 440.23 -1.61336 -7.87544 0
M  V30 4754 H 439.962 0.197792 -0.646417 0
M  V30 4755 H 442.516 -0.049423 -2.05341 0
M  V30 4756 H 440.746 2.2655 -3.13388 0
M  V30 4757 H 442.435 2.05874 -3.49816 0
M  V30 4758 H 443.201 -0.0245611 -4.84994 0
M  V30 4759 H 439.08 1.14025 -4.46676 0
M  V30 4760 H 442.624 -1.36584 -6.84098 0
M  V30 4761 H 438.521 -0.194035 -6.45208 0
M  V30 4762 H 439.289 -1.53025 -8.04068 0
M  V30 4763 N 441.952 1.55251 0.271103 0
M  V30 4764 C 442.9 1.89054 1.35504 0
M  V30 4765 C 443.894 0.767064 1.51038 0
M  V30 4766 O 445.1 0.951429 1.528 0
M  V30 4767 H 441.475 0.600072 0.45323 0
M  V30 4768 H 443.446 2.79598 1.04247 0
M  V30 4769 C 442.195 2.18068 2.70817 0
M  V30 4770 H 441.518 3.04005 2.59656 0
M  V30 4771 H 442.958 2.4564 3.45597 0
M  V30 4772 C 441.417 0.988901 3.2206 0
M  V30 4773 O 441.947 0.224501 4.01072 0
M  V30 4774 N 440.153 0.786085 2.79766 0
M  V30 4775 H 439.7 1.40937 2.15626 0
M  V30 4776 H 439.658 -0.00969349 3.14399 0
M  V30 4777 N 443.43 -0.535701 1.48216 0
M  V30 4778 C 444.377 -1.64083 1.62312 0
M  V30 4779 C 445.347 -1.59448 0.465365 0
M  V30 4780 O 446.532 -1.77959 0.688135 0
M  V30 4781 C 443.672 -3.0236 1.66349 0
M  V30 4782 C 442.785 -3.17273 2.93193 0
M  V30 4783 C 441.92 -4.46075 2.88427 0
M  V30 4784 C 440.959 -4.54496 4.1 0
M  V30 4785 N 440.096 -5.7468 4.03345 0
M  V30 4786 H 444.936 -1.51374 2.5669 0
M  V30 4787 H 442.473 -0.737059 1.27302 0
M  V30 4788 H 444.431 -3.82461 1.66672 0
M  V30 4789 H 443.061 -3.13854 0.754672 0
M  V30 4790 H 442.113 -2.30462 3.02641 0
M  V30 4791 H 443.425 -3.19357 3.83162 0
M  V30 4792 H 442.579 -5.3446 2.87119 0
M  V30 4793 H 441.318 -4.46504 1.96177 0
M  V30 4794 H 440.323 -3.64519 4.11589 0
M  V30 4795 H 441.548 -4.5581 5.03402 0
M  V30 4796 H 439.494 -5.76017 3.13912 0
M  V30 4797 H 439.411 -5.78234 4.87013 0
M  V30 4798 H 440.679 -6.65367 4.06087 0
M  V30 4799 N 444.908 -1.36708 -0.784132 0
M  V30 4800 C 446.155 -1.31231 -1.54222 0
M  V30 4801 C 446.483 0.106864 -1.94206 0
M  V30 4802 O 445.738 1.07734 -1.63376 0
M  V30 4803 C 446.037 -2.18571 -2.82774 0
M  V30 4804 C 445.703 -3.67039 -2.61903 0
M  V30 4805 C 444.365 -4.07503 -2.55919 0
M  V30 4806 C 446.717 -4.61149 -2.4288 0
M  V30 4807 C 444.045 -5.40211 -2.28886 0
M  V30 4808 C 446.397 -5.94081 -2.17373 0
M  V30 4809 C 445.061 -6.33664 -2.09825 0
M  V30 4810 H 444.331 -0.48021 -0.56434 0
M  V30 4811 H 446.978 -1.68807 -0.904233 0
M  V30 4812 H 445.283 -1.73949 -3.51068 0
M  V30 4813 H 446.98 -2.11655 -3.40592 0
M  V30 4814 H 443.57 -3.34941 -2.67418 0
M  V30 4815 H 447.754 -4.30756 -2.46501 0
M  V30 4816 H 443.01 -5.69855 -2.21529 0
M  V30 4817 H 447.184 -6.66566 -2.01649 0
M  V30 4818 H 444.811 -7.36423 -1.88641 0
M  V30 4819 N 446.386 1.0089 -1.21074 0
M  V30 4820 C 447.611 1.78727 -1.05221 0
M  V30 4821 C 448.036 1.83932 0.393795 0
M  V30 4822 O 447.394 1.28004 1.28393 0
M  V30 4823 C 447.442 3.20665 -1.64944 0
M  V30 4824 O 446.546 4.02632 -0.892273 0
M  V30 4825 H 445.887 0.550973 -0.370574 0
M  V30 4826 H 448.417 1.26847 -1.60534 0
M  V30 4827 H 448.427 3.71352 -1.69002 0
M  V30 4828 H 447.102 3.16191 -2.70177 0
M  V30 4829 H 445.679 3.61207 -0.926492 0
M  V30 4830 N 447.864 1.01787 1.20321 0
M  V30 4831 C 449.113 0.703249 1.89043 0
M  V30 4832 C 449.426 -0.770445 1.79787 0
M  V30 4833 O 450.632 -1.19767 2.43656 0
M  V30 4834 C 449.088 1.20749 3.3904 0
M  V30 4835 C 448.696 2.70817 3.56878 0
M  V30 4836 C 450.44 0.968352 4.13308 0
M  V30 4837 C 448.347 3.14716 5.00708 0
M  V30 4838 H 447.277 0.259354 0.707991 0
M  V30 4839 H 449.928 1.23072 1.36108 0
M  V30 4840 H 448.31 0.607989 3.91305 0
M  V30 4841 H 449.484 3.36327 3.14993 0
M  V30 4842 H 447.799 2.92888 2.95983 0
M  V30 4843 H 450.396 1.27173 5.19356 0
M  V30 4844 H 450.739 -0.095149 4.16191 0
M  V30 4845 H 451.272 1.53129 3.67146 0
M  V30 4846 H 448.011 4.20347 5.02979 0
M  V30 4847 H 447.531 2.53927 5.43398 0
M  V30 4848 H 449.21 3.07426 5.69296 0
M  V30 4849 N 449.342 -1.36122 0.79427 0
M  V30 4850 C 450.289 -2.29982 0.194101 0
M  V30 4851 C 451.259 -1.52214 -0.664833 0
M  V30 4852 O 452.444 -1.80702 -0.612498 0
M  V30 4853 C 449.584 -3.38706 -0.661244 0
M  V30 4854 C 448.697 -4.31456 0.216766 0
M  V30 4855 C 447.832 -5.27265 -0.645411 0
M  V30 4856 C 446.871 -6.11653 0.233756 0
M  V30 4857 N 446.008 -6.99636 -0.587682 0
M  V30 4858 H 450.848 -2.80722 0.999965 0
M  V30 4859 H 448.385 -1.38172 0.504677 0
M  V30 4860 H 450.343 -4.00394 -1.17219 0
M  V30 4861 H 448.973 -2.89274 -1.43249 0
M  V30 4862 H 448.025 -3.7088 0.845724 0
M  V30 4863 H 449.337 -4.90724 0.893973 0
M  V30 4864 H 448.491 -5.94266 -1.22198 0
M  V30 4865 H 447.23 -4.68463 -1.35623 0
M  V30 4866 H 446.235 -5.4361 0.82269 0
M  V30 4867 H 447.46 -6.72531 0.942247 0
M  V30 4868 H 445.406 -6.43337 -1.2827 0
M  V30 4869 H 445.323 -7.55993 0.0317402 0
M  V30 4870 H 446.591 -7.71001 -1.14792 0
M  V30 4871 N 450.82 -0.546701 -1.47814 0
M  V30 4872 C 452.045 -0.021268 -2.07389 0
M  V30 4873 C 452.47 1.25822 -1.39822 0
M  V30 4874 O 451.828 1.75111 -0.46968 0
M  V30 4875 C 451.876 0.168502 -3.60206 0
M  V30 4876 O 450.98 1.23347 -3.93522 0
M  V30 4877 H 450.321 -0.0466108 -0.662362 0
M  V30 4878 H 452.851 -0.759387 -1.89985 0
M  V30 4879 H 452.861 0.385982 -4.0617 0
M  V30 4880 H 451.536 -0.766075 -4.08784 0
M  V30 4881 H 450.113 0.997319 -3.59316 0
M  V30 4882 N 452.299 1.55045 -0.282633 0
M  V30 4883 C 453.576 1.9179 0.384166 0
M  V30 4884 C 453.956 1.20778 1.73136 0
M  V30 4885 O 453.304 0.33719 2.25998 0
M  V30 4886 C 453.514 3.45149 0.517014 0
M  V30 4887 C 454.862 4.17064 0.796427 0
M  V30 4888 O 455.886 3.51084 0.601535 0
M  V30 4889 O 454.745 5.33837 1.16962 0
M  V30 4890 H 451.839 0.799483 0.211558 0
M  V30 4891 H 454.385 1.66474 -0.32934 0
M  V30 4892 H 453.157 3.88922 -0.430772 0
M  V30 4893 H 452.78 3.76443 1.2797 0
M  V30 4894 N 453.777 0.010035 1.57597 0
M  V30 4895 C 455.023 -0.673697 1.91283 0
M  V30 4896 C 455.356 -1.72863 0.884979 0
M  V30 4897 O 454.631 -1.94268 -0.0949487 0
M  V30 4898 C 454.914 -1.30766 3.35518 0
M  V30 4899 C 454.767 -0.263578 4.49027 0
M  V30 4900 C 456.086 -2.23105 3.79358 0
M  V30 4901 H 453.205 -0.243439 0.695634 0
M  V30 4902 H 455.847 0.0633864 1.89894 0
M  V30 4903 H 453.997 -1.93588 3.36832 0
M  V30 4904 H 455.669 0.365738 4.59848 0
M  V30 4905 H 453.912 0.413077 4.31829 0
M  V30 4906 H 454.583 -0.746398 5.4693 0
M  V30 4907 H 457.059 -1.70289 3.79659 0
M  V30 4908 H 455.935 -2.64424 4.81011 0
M  V30 4909 H 456.196 -3.11433 3.13787 0
M  V30 4910 N 455.255 -1.55392 -0.262866 0
M  V30 4911 C 456.501 -1.77657 -0.990424 0
M  V30 4912 C 456.856 -0.576333 -1.83565 0
M  V30 4913 O 456.149 0.430795 -1.86694 0
M  V30 4914 C 456.343 -3.02889 -1.89718 0
M  V30 4915 C 456.172 -4.34979 -1.14121 0
M  V30 4916 C 454.942 -4.98052 -0.852768 0
M  V30 4917 C 457.14 -5.11597 -0.526625 0
M  V30 4918 N 455.122 -6.13859 -0.0710649 0
M  V30 4919 C 456.493 -6.19883 0.12042 0
M  V30 4920 C 458.548 -4.95992 -0.435485 0
M  V30 4921 C 457.251 -7.14262 0.849833 0
M  V30 4922 C 459.277 -5.90735 0.280359 0
M  V30 4923 C 458.639 -6.98417 0.916103 0
M  V30 4924 H 454.738 -0.702242 -0.344064 0
M  V30 4925 H 457.322 -1.92887 -0.265088 0
M  V30 4926 H 455.493 -2.89017 -2.59468 0
M  V30 4927 H 457.225 -3.13516 -2.5591 0
M  V30 4928 H 453.98 -4.5916 -1.16058 0
M  V30 4929 H 454.404 -6.76302 0.307413 0
M  V30 4930 H 459.046 -4.12832 -0.912671 0
M  V30 4931 H 456.764 -7.96935 1.33867 0
M  V30 4932 H 460.35 -5.80738 0.351332 0
M  V30 4933 H 459.23 -7.70467 1.46119 0
M  V30 4934 N 456.733 0.527833 -1.48498 0
M  V30 4935 C 457.696 1.61439 -1.62696 0
M  V30 4936 C 458.696 1.52824 -0.500136 0
M  V30 4937 O 459.886 1.56456 -0.765976 0
M  V30 4938 C 457.018 3.01063 -1.59918 0
M  V30 4939 H 458.211 1.50189 -2.59583 0
M  V30 4940 H 455.764 0.750055 -1.37127 0
M  V30 4941 H 456.499 3.17818 -0.645163 0
M  V30 4942 H 456.284 3.08725 -2.41726 0
M  V30 4943 H 457.774 3.80057 -1.73051 0
M  V30 4944 N 458.211 1.37122 0.776871 0
M  V30 4945 C 459.458 1.32047 1.53524 0
M  V30 4946 C 459.786 -0.0965631 1.9426 0
M  V30 4947 O 459.041 -1.06866 1.63945 0
M  V30 4948 C 459.34 2.20068 2.81611 0
M  V30 4949 C 459.006 3.68423 2.59953 0
M  V30 4950 C 457.668 4.08854 2.53755 0
M  V30 4951 C 460.02 4.62431 2.40431 0
M  V30 4952 C 457.348 5.41417 2.26018 0
M  V30 4953 C 459.7 5.95225 2.14219 0
M  V30 4954 C 458.364 6.34767 2.06462 0
M  V30 4955 H 457.634 0.483196 0.561785 0
M  V30 4956 H 460.281 1.69284 0.895268 0
M  V30 4957 H 458.586 1.75809 3.50141 0
M  V30 4958 H 460.283 2.13458 3.39465 0
M  V30 4959 H 456.873 3.36354 2.65638 0
M  V30 4960 H 461.057 4.32057 2.44213 0
M  V30 4961 H 456.313 5.71022 2.18504 0
M  V30 4962 H 460.487 6.67626 1.98112 0
M  V30 4963 H 458.114 7.37413 1.84733 0
M  V30 4964 N 459.689 -1.00246 1.21608 0
M  V30 4965 C 460.937 -1.73717 1.0328 0
M  V30 4966 C 461.258 -1.90102 -0.434318 0
M  V30 4967 O 460.528 -1.45376 -1.31311 0
M  V30 4968 H 459.108 -0.643613 0.379172 0
M  V30 4969 H 461.77 -1.20787 1.52959 0
M  V30 4970 H 460.866 -2.73535 1.50283 0
M  V30 4971 N 461.167 -1.02423 -1.1978 0
M  V30 4972 C 462.413 -0.719051 -1.89625 0
M  V30 4973 C 462.746 0.750083 -1.7913 0
M  V30 4974 O 462.021 1.54574 -1.18056 0
M  V30 4975 C 462.304 -1.16499 -3.40735 0
M  V30 4976 C 462.157 -2.695 -3.60125 0
M  V30 4977 C 463.476 -0.742166 -4.33797 0
M  V30 4978 H 460.595 -0.26269 -0.688595 0
M  V30 4979 H 463.237 -1.27333 -1.41018 0
M  V30 4980 H 461.387 -0.69341 -3.82262 0
M  V30 4981 H 463.059 -3.24569 -3.278 0
M  V30 4982 H 461.302 -3.10113 -3.03336 0
M  V30 4983 H 461.973 -2.95757 -4.66081 0
M  V30 4984 H 464.449 -1.1477 -3.99959 0
M  V30 4985 H 463.325 -1.08213 -5.38127 0
M  V30 4986 H 463.586 0.355747 -4.40666 0
M  V30 4987 N 462.645 1.35699 -0.801477 0
M  V30 4988 C 463.575 2.32436 -0.222658 0
M  V30 4989 C 464.556 1.5723 0.649057 0
M  V30 4990 O 465.741 1.85324 0.580387 0
M  V30 4991 C 462.871 3.41469 0.633719 0
M  V30 4992 C 461.825 4.27774 -0.139083 0
M  V30 4993 C 461.151 5.28082 0.838666 0
M  V30 4994 C 462.451 5.04946 -1.33517 0
M  V30 4995 H 464.145 2.81094 -1.03086 0
M  V30 4996 H 461.691 1.35146 -0.497155 0
M  V30 4997 H 463.644 4.08143 1.04868 0
M  V30 4998 H 462.368 2.91408 1.47475 0
M  V30 4999 H 461.027 3.62673 -0.535156 0
M  V30 5000 H 460.675 4.7429 1.67506 0
M  V30 5001 H 460.375 5.86695 0.32594 0
M  V30 5002 H 461.899 5.97628 1.25194 0
M  V30 5003 H 463.313 5.64593 -0.995349 0
M  V30 5004 H 461.71 5.7303 -1.78202 0
M  V30 5005 H 462.78 4.35886 -2.12442 0
M  V30 5006 N 464.123 0.554532 1.47522 0
M  V30 5007 C 465.053 -0.182974 2.32782 0
M  V30 5008 C 466.034 -0.911377 1.43624 0
M  V30 5009 O 467.219 -0.892366 1.72483 0
M  V30 5010 C 464.349 -1.21513 3.25349 0
M  V30 5011 C 463.303 -0.603355 4.23726 0
M  V30 5012 C 462.629 -1.73995 5.05598 0
M  V30 5013 C 463.929 0.441121 5.20434 0
M  V30 5014 H 465.623 0.52882 2.94693 0
M  V30 5015 H 463.169 0.255759 1.41711 0
M  V30 5016 H 465.122 -1.73922 3.83835 0
M  V30 5017 H 463.846 -1.95683 2.61487 0
M  V30 5018 H 462.505 -0.10059 3.66462 0
M  V30 5019 H 462.153 -2.47063 4.38143 0
M  V30 5020 H 461.853 -1.3364 5.72201 0
M  V30 5021 H 463.377 -2.26735 5.66942 0
M  V30 5022 H 464.791 0.00319931 5.733 0
M  V30 5023 H 463.188 0.763402 5.95224 0
M  V30 5024 H 464.258 1.33799 4.66075 0
M  V30 5025 N 465.601 -1.54893 0.290851 0
M  V30 5026 C 466.847 -2.00949 -0.314784 0
M  V30 5027 C 467.202 -1.1757 -1.52299 0
M  V30 5028 O 466.495 -0.241558 -1.90071 0
M  V30 5029 C 466.689 -3.49815 -0.732397 0
M  V30 5030 C 466.518 -4.47603 0.433799 0
M  V30 5031 C 465.288 -4.96806 0.922599 0
M  V30 5032 C 467.486 -4.98233 1.27546 0
M  V30 5033 N 465.468 -5.78426 2.05662 0
M  V30 5034 C 466.839 -5.77455 2.25712 0
M  V30 5035 C 468.894 -4.80439 1.307 0
M  V30 5036 C 467.597 -6.40778 3.26796 0
M  V30 5037 C 469.623 -5.44574 2.30637 0
M  V30 5038 C 468.985 -6.23619 3.27533 0
M  V30 5039 H 465.084 -0.777905 -0.0799257 0
M  V30 5040 H 467.668 -1.9015 0.418458 0
M  V30 5041 H 465.839 -3.60925 -1.43483 0
M  V30 5042 H 467.571 -3.82681 -1.31671 0
M  V30 5043 H 464.326 -4.70961 0.49926 0
M  V30 5044 H 464.75 -6.23923 2.62772 0
M  V30 5045 H 469.392 -4.18918 0.571622 0
M  V30 5046 H 467.11 -7.01439 4.01258 0
M  V30 5047 H 470.696 -5.32739 2.33838 0
M  V30 5048 H 469.576 -6.72367 4.03599 0
M  V30 5049 N 467.08 -0.0183926 -1.57589 0
M  V30 5050 C 467.99 0.982943 -2.13015 0
M  V30 5051 C 469.006 1.36443 -1.07979 0
M  V30 5052 O 470.182 1.44802 -1.3998 0
M  V30 5053 C 467.247 2.25024 -2.63752 0
M  V30 5054 C 466.308 1.93018 -3.83461 0
M  V30 5055 C 465.541 3.13706 -4.31769 0
M  V30 5056 O 465.764 4.2601 -3.79305 0
M  V30 5057 O 464.698 2.96629 -5.23732 0
M  V30 5058 H 468.524 0.541709 -2.9883 0
M  V30 5059 H 466.109 0.201565 -1.48034 0
M  V30 5060 H 467.991 2.99441 -2.96502 0
M  V30 5061 H 466.666 2.68349 -1.81026 0
M  V30 5062 H 465.573 1.16019 -3.55655 0
M  V30 5063 H 466.906 1.54516 -4.67317 0
M  V30 5064 N 468.558 1.5553 0.254621 0
M  V30 5065 C 469.807 1.76202 0.981612 0
M  V30 5066 C 470.12 0.580883 1.86776 0
M  V30 5067 O 471.326 0.670448 2.63092 0
M  V30 5068 C 469.782 3.11921 1.79537 0
M  V30 5069 C 469.39 4.37659 0.956991 0
M  V30 5070 C 471.134 3.41936 2.51555 0
M  V30 5071 C 469.041 5.64411 1.76619 0
M  V30 5072 H 467.971 0.656841 0.370237 0
M  V30 5073 H 470.622 1.81969 0.236556 0
M  V30 5074 H 469.004 3.00241 2.58208 0
M  V30 5075 H 470.178 4.60307 0.21315 0
M  V30 5076 H 468.493 4.14922 0.350497 0
M  V30 5077 H 471.09 4.33849 3.12536 0
M  V30 5078 H 471.433 2.62905 3.22779 0
M  V30 5079 H 471.966 3.54797 1.799 0
M  V30 5080 H 468.705 6.46241 1.09783 0
M  V30 5081 H 468.225 5.45877 2.48551 0
M  V30 5082 H 469.904 6.03386 2.33527 0
M  V30 5083 N 470.036 -0.519951 1.48776 0
M  V30 5084 C 470.999 -1.60574 1.6355 0
M  V30 5085 C 471.999 -1.52557 0.508234 0
M  V30 5086 O 473.189 -1.56047 0.774262 0
M  V30 5087 C 470.321 -3.00211 1.61512 0
M  V30 5088 H 471.514 -1.4881 2.60376 0
M  V30 5089 H 469.067 -0.742772 1.37523 0
M  V30 5090 H 469.802 -3.17471 0.662009 0
M  V30 5091 H 469.587 -3.07439 2.43359 0
M  V30 5092 H 471.077 -3.79134 1.75064 0
M  V30 5093 N 471.514 -1.37532 -0.769588 0
M  V30 5094 C 472.742 -1.36059 -1.55871 0
M  V30 5095 C 473.157 0.053544 -1.88724 0
M  V30 5096 O 472.514 1.01591 -1.5161 0
M  V30 5097 C 472.565 -2.20107 -2.86767 0
M  V30 5098 O 472.286 -3.56009 -2.55321 0
M  V30 5099 C 473.787 -2.26636 -3.80987 0
M  V30 5100 H 471.007 -0.465967 -0.482821 0
M  V30 5101 H 473.551 -1.80901 -0.953686 0
M  V30 5102 H 471.706 -1.78768 -3.43687 0
M  V30 5103 H 472.12 -4.0009 -3.39158 0
M  V30 5104 H 473.594 -2.89763 -4.69831 0
M  V30 5105 H 474.071 -1.2754 -4.20274 0
M  V30 5106 H 474.677 -2.68296 -3.29996 0
M  V30 5107 N 472.992 0.995999 -1.22138 0
M  V30 5108 C 474.222 1.76809 -1.06874 0
M  V30 5109 C 474.63 1.85265 0.383866 0
M  V30 5110 O 473.973 1.31969 1.27789 0
M  V30 5111 C 474.035 3.2186 -1.60144 0
M  V30 5112 C 473.699 3.36958 -3.0872 0
M  V30 5113 C 474.696 3.2452 -4.0618 0
M  V30 5114 C 472.381 3.62109 -3.48112 0
M  V30 5115 C 474.375 3.37013 -5.41019 0
M  V30 5116 C 472.062 3.74243 -4.831 0
M  V30 5117 C 473.06 3.61702 -5.79362 0
M  V30 5118 O 472.748 3.73436 -7.119 0
M  V30 5119 H 472.48 0.562207 -0.375365 0
M  V30 5120 H 475.034 1.26113 -1.62125 0
M  V30 5121 H 473.264 3.73734 -0.992981 0
M  V30 5122 H 474.953 3.80775 -1.40589 0
M  V30 5123 H 475.719 3.05004 -3.77091 0
M  V30 5124 H 471.598 3.70949 -2.73712 0
M  V30 5125 H 475.142 3.27141 -6.16137 0
M  V30 5126 H 471.039 3.93266 -5.11872 0
M  V30 5127 H 471.807 3.90328 -7.19435 0
M  V30 5128 N 474.47 1.03057 1.19235 0
M  V30 5129 C 475.718 0.726581 1.88587 0
M  V30 5130 C 476.039 -0.747227 1.80115 0
M  V30 5131 O 475.309 -1.53849 1.21274 0
M  V30 5132 H 473.889 0.265768 0.698124 0
M  V30 5133 H 476.551 1.30516 1.44746 0
M  V30 5134 H 475.647 1.0224 2.94879 0
M  V30 5135 N 475.948 -1.35272 0.808662 0
M  V30 5136 C 476.881 -2.27595 0.165994 0
M  V30 5137 C 477.859 -1.48189 -0.669241 0
M  V30 5138 O 479.043 -1.77444 -0.636073 0
M  V30 5139 C 476.17 -3.29843 -0.769505 0
M  V30 5140 C 475.216 -4.26498 -0.0136267 0
M  V30 5141 S 476.049 -5.18878 1.32384 0
M  V30 5142 C 477.205 -6.24666 0.392838 0
M  V30 5143 H 477.438 -2.81755 0.948756 0
M  V30 5144 H 474.971 -1.42103 0.603828 0
M  V30 5145 H 476.929 -3.89247 -1.30374 0
M  V30 5146 H 475.59 -2.74558 -1.52567 0
M  V30 5147 H 474.783 -4.98769 -0.724227 0
M  V30 5148 H 474.385 -3.71274 0.450713 0
M  V30 5149 H 476.677 -6.7619 -0.4211 0
M  V30 5150 H 477.62 -6.99741 1.0848 0
M  V30 5151 H 478.028 -5.64499 -0.0123908 0
M  V30 5152 N 477.426 -0.562348 -1.47226 0
M  V30 5153 C 478.651 -0.0432632 -2.07355 0
M  V30 5154 C 479.076 1.24332 -1.41149 0
M  V30 5155 O 478.434 1.74603 -0.488226 0
M  V30 5156 C 478.482 0.130288 -3.60365 0
M  V30 5157 O 477.586 1.19166 -3.94808 0
M  V30 5158 H 476.927 -0.0536334 -0.66183 0
M  V30 5159 H 479.457 -0.779495 -1.89169 0
M  V30 5160 H 479.467 0.342881 -4.06557 0
M  V30 5161 H 478.142 -0.809389 -4.07948 0
M  V30 5162 H 476.719 0.959153 -3.60354 0
M  V30 5163 N 478.904 1.54736 -0.299062 0
M  V30 5164 C 480.315 1.8569 0.193971 0
M  V30 5165 C 480.666 1.22101 1.53577 0
M  V30 5166 O 479.791 0.51799 2.10109 0
M  V30 5167 C 480.386 3.36895 0.358733 0
M  V30 5168 C 478.945 3.67887 0.795986 0
M  V30 5169 C 478.092 2.77131 -0.096807 0
M  V30 5170 H 481.043 1.49934 -0.520134 0
M  V30 5171 H 481.064 3.61294 1.19361 0
M  V30 5172 H 480.576 3.83148 -0.617998 0
M  V30 5173 H 478.677 3.27151 1.78334 0
M  V30 5174 H 478.79 4.75114 0.616718 0
M  V30 5175 H 477.154 2.51153 0.423581 0
M  V30 5176 H 477.937 3.26204 -1.06986 0
M  V30 5177 N 480.382 0.0267497 1.57577 0
M  V30 5178 C 481.612 -0.6617 1.95717 0
M  V30 5179 C 482.02 -1.66331 0.901706 0
M  V30 5180 O 481.363 -1.83273 -0.125241 0
M  V30 5181 C 481.425 -1.42649 3.29987 0
M  V30 5182 C 481.089 -0.583482 4.5326 0
M  V30 5183 C 482.086 0.140221 5.19711 0
M  V30 5184 C 479.771 -0.521581 4.99585 0
M  V30 5185 C 481.765 0.914523 6.30805 0
M  V30 5186 C 479.452 0.256428 6.10562 0
M  V30 5187 C 480.45 0.973189 6.76031 0
M  V30 5188 O 480.138 1.73845 7.84878 0
M  V30 5189 H 479.87 -0.187483 0.649481 0
M  V30 5190 H 482.424 0.0820847 2.05236 0
M  V30 5191 H 480.654 -2.21536 3.16952 0
M  V30 5192 H 482.343 -2.00282 3.53047 0
M  V30 5193 H 483.109 0.101716 4.84893 0
M  V30 5194 H 478.988 -1.06904 4.48433 0
M  V30 5195 H 482.532 1.4745 6.81839 0
M  V30 5196 H 478.429 0.296657 6.44818 0
M  V30 5197 H 479.197 1.65797 8.01532 0
M  V30 5198 N 481.861 -1.55662 -0.24637 0
M  V30 5199 C 483.272 -1.67953 -0.81539 0
M  V30 5200 C 483.623 -0.624302 -1.86002 0
M  V30 5201 O 482.748 0.229328 -2.15181 0
M  V30 5202 C 483.343 -3.04484 -1.48576 0
M  V30 5203 C 481.902 -3.18713 -2.00248 0
M  V30 5204 C 481.049 -2.6383 -0.853766 0
M  V30 5205 H 484 -1.58685 -0.0221692 0
M  V30 5206 H 484.021 -2.98959 -2.3538 0
M  V30 5207 H 483.533 -3.81264 -0.725222 0
M  V30 5208 H 481.634 -2.46757 -2.79181 0
M  V30 5209 H 481.747 -4.25628 -2.1995 0
M  V30 5210 H 480.111 -2.21667 -1.25442 0
M  V30 5211 H 480.894 -3.43135 -0.106302 0
M  V30 5212 N 483.339 0.512053 -1.4905 0
M  V30 5213 C 484.587 1.26436 -1.57665 0
M  V30 5214 C 484.908 1.93255 -0.260293 0
M  V30 5215 O 484.178 1.82206 0.719564 0
M  V30 5216 H 482.758 0.469658 -0.580888 0
M  V30 5217 H 485.42 0.594398 -1.85615 0
M  V30 5218 H 484.516 2.03417 -2.36702 0
M  V30 5219 N 484.817 1.37938 0.762283 0
M  V30 5220 C 486.066 1.32989 1.51647 0
M  V30 5221 C 486.379 -0.0802922 1.95435 0
M  V30 5222 O 487.585 -0.252295 2.70325 0
M  V30 5223 C 486.041 2.33485 2.73885 0
M  V30 5224 C 485.649 3.80079 2.37157 0
M  V30 5225 C 487.393 2.37563 3.51801 0
M  V30 5226 C 485.3 4.72283 3.55954 0
M  V30 5227 H 484.23 0.494301 0.56937 0
M  V30 5228 H 486.881 1.63448 0.834083 0
M  V30 5229 H 485.263 1.96056 3.44061 0
M  V30 5230 H 486.437 4.26398 1.74704 0
M  V30 5231 H 484.752 3.79037 1.72395 0
M  V30 5232 H 487.349 3.0365 4.40114 0
M  V30 5233 H 487.692 1.39199 3.92338 0
M  V30 5234 H 488.225 2.73747 2.8863 0
M  V30 5235 H 484.964 5.7181 3.2049 0
M  V30 5236 H 484.484 4.30663 4.1748 0
M  V30 5237 H 486.163 4.89876 4.22647 0
M  V30 5238 N 486.295 -0.989507 1.22664 0
M  V30 5239 C 487.572 -1.70326 0.961688 0
M  V30 5240 C 487.952 -2.04537 -0.522279 0
M  V30 5241 O 487.3 -1.73136 -1.49118 0
M  V30 5242 C 487.51 -2.95135 1.86269 0
M  V30 5243 C 488.858 -3.67842 2.12078 0
M  V30 5244 O 489.882 -3.0515 1.83745 0
M  V30 5245 O 488.741 -4.80644 2.60083 0
M  V30 5246 H 485.835 -0.743589 0.361946 0
M  V30 5247 H 488.381 -1.04555 1.33665 0
M  V30 5248 H 487.153 -2.66382 2.8663 0
M  V30 5249 H 486.776 -3.68645 1.48952 0
M  V30 5250 N 487.773 -1.03688 -1.18687 0
M  V30 5251 C 488.703 -0.645407 -2.24403 0
M  V30 5252 C 489.684 0.349511 -1.66471 0
M  V30 5253 O 490.869 0.230453 -1.92828 0
M  V30 5254 C 487.999 -0.00365337 -3.473 0
M  V30 5255 C 486.953 -0.921705 -4.17958 0
M  V30 5256 C 486.279 -0.144629 -5.34504 0
M  V30 5257 C 487.579 -2.23909 -4.71871 0
M  V30 5258 H 489.273 -1.52917 -2.57404 0
M  V30 5259 H 486.819 -0.736711 -1.23728 0
M  V30 5260 H 488.772 0.281908 -4.20456 0
M  V30 5261 H 487.496 0.914963 -3.13522 0
M  V30 5262 H 486.155 -1.19159 -3.46694 0
M  V30 5263 H 485.803 0.776274 -4.96974 0
M  V30 5264 H 485.503 -0.756206 -5.82714 0
M  V30 5265 H 487.027 0.134004 -6.10453 0
M  V30 5266 H 488.441 -2.0145 -5.36741 0
M  V30 5267 H 486.838 -2.8033 -5.30599 0
M  V30 5268 H 487.908 -2.88822 -3.895 0
M  V30 5269 N 489.251 1.34841 -0.815825 0
M  V30 5270 C 490.476 2.03261 -0.41226 0
M  V30 5271 C 490.901 1.61055 0.971751 0
M  V30 5272 O 490.259 0.7917 1.63101 0
M  V30 5273 C 490.307 3.56914 -0.514289 0
M  V30 5274 O 489.411 4.09728 0.468675 0
M  V30 5275 H 488.752 0.641664 -0.170771 0
M  V30 5276 H 491.282 1.72241 -1.10427 0
M  V30 5277 H 491.292 4.06156 -0.387457 0
M  V30 5278 H 489.967 3.86982 -1.52375 0
M  V30 5279 H 488.544 3.71681 0.301316 0
M  V30 5280 N 490.729 0.570148 1.46925 0
M  V30 5281 C 491.661 -0.207909 2.28255 0
M  V30 5282 C 492.674 -0.867301 1.37774 0
M  V30 5283 O 493.863 -0.738976 1.62485 0
M  V30 5284 C 490.963 -1.31298 3.12433 0
M  V30 5285 C 490.136 -0.747915 4.30958 0
M  V30 5286 C 489.195 -1.7391 4.9663 0
M  V30 5287 O 488.221 -1.2801 5.54619 0
M  V30 5288 N 489.423 -3.07288 4.92498 0
M  V30 5289 H 492.188 0.489794 2.95671 0
M  V30 5290 H 489.749 0.407076 1.56699 0
M  V30 5291 H 491.741 -1.97507 3.53232 0
M  V30 5292 H 490.311 -1.91373 2.47175 0
M  V30 5293 H 489.531 0.0913066 3.94094 0
M  V30 5294 H 490.819 -0.349958 5.07595 0
M  V30 5295 H 490.217 -3.47213 4.46609 0
M  V30 5296 H 488.774 -3.69021 5.37277 0
M  V30 5297 N 492.207 -1.54576 0.307264 0
M  V30 5298 C 493.453 -2.0056 -0.300612 0
M  V30 5299 C 493.786 -1.1953 -1.53057 0
M  V30 5300 O 493.061 -0.27337 -1.92569 0
M  V30 5301 C 493.344 -3.54167 -0.650987 0
M  V30 5302 C 493.197 -4.45933 0.588539 0
M  V30 5303 C 494.516 -4.14645 -1.47506 0
M  V30 5304 H 491.635 -0.729075 -0.107788 0
M  V30 5305 H 494.277 -1.85286 0.420606 0
M  V30 5306 H 492.427 -3.67313 -1.26544 0
M  V30 5307 H 494.099 -4.44683 1.22697 0
M  V30 5308 H 492.342 -4.16274 1.22058 0
M  V30 5309 H 493.013 -5.51189 0.299153 0
M  V30 5310 H 495.489 -4.04973 -0.955821 0
M  V30 5311 H 494.365 -5.22269 -1.68899 0
M  V30 5312 H 494.626 -3.66921 -2.4662 0
M  V30 5313 N 493.685 -0.035106 -1.57561 0
M  V30 5314 C 494.915 0.651312 -1.96065 0
M  V30 5315 C 495.323 1.6585 -0.910514 0
M  V30 5316 O 494.666 1.83336 0.11552 0
M  V30 5317 C 494.728 1.40897 -3.30739 0
M  V30 5318 C 494.392 0.559436 -4.53563 0
M  V30 5319 C 495.389 -0.16778 -5.19629 0
M  V30 5320 C 493.074 0.495079 -4.99854 0
M  V30 5321 C 495.068 -0.947963 -6.30311 0
M  V30 5322 C 492.755 -0.288804 -6.10417 0
M  V30 5323 C 493.753 -1.00903 -6.75505 0
M  V30 5324 O 493.441 -1.78005 -7.83945 0
M  V30 5325 H 493.173 0.184036 -0.650467 0
M  V30 5326 H 495.727 -0.0929677 -2.05189 0
M  V30 5327 H 493.957 2.19852 -3.18123 0
M  V30 5328 H 495.646 1.98407 -3.54104 0
M  V30 5329 H 496.412 -0.12743 -4.84833 0
M  V30 5330 H 492.291 1.04524 -4.48994 0
M  V30 5331 H 495.835 -1.51064 -6.81047 0
M  V30 5332 H 491.732 -0.33085 -6.44652 0
M  V30 5333 H 492.5 -1.70046 -8.00641 0
M  V30 5334 N 495.163 1.55791 0.238111 0
M  V30 5335 C 496.073 1.94196 1.31625 0
M  V30 5336 C 497.089 0.843545 1.52185 0
M  V30 5337 O 498.265 1.1457 1.65637 0
M  V30 5338 C 495.33 2.2365 2.64918 0
M  V30 5339 C 494.391 3.46971 2.52804 0
M  V30 5340 C 493.624 3.7501 3.79741 0
M  V30 5341 O 493.847 3.04982 4.82019 0
M  V30 5342 O 492.781 4.68525 3.77846 0
M  V30 5343 H 496.607 2.86044 1.02043 0
M  V30 5344 H 494.192 1.42786 0.439603 0
M  V30 5345 H 496.074 2.43863 3.4367 0
M  V30 5346 H 494.749 1.34979 2.94215 0
M  V30 5347 H 493.656 3.32055 1.72309 0
M  V30 5348 H 494.989 4.35971 2.28451 0
M  V30 5349 N 496.642 -0.504142 1.49319 0
M  V30 5350 C 497.572 -1.61473 1.68667 0
M  V30 5351 C 498.553 -1.61455 0.535378 0
M  V30 5352 O 499.738 -1.78245 0.770868 0
M  V30 5353 C 496.868 -2.99971 1.75028 0
M  V30 5354 C 495.822 -3.14854 2.89916 0
M  V30 5355 C 495.148 -4.54671 2.81387 0
M  V30 5356 C 496.448 -2.95176 4.30893 0
M  V30 5357 H 498.142 -1.45535 2.61648 0
M  V30 5358 H 495.688 -0.698711 1.25913 0
M  V30 5359 H 497.641 -3.77562 1.8715 0
M  V30 5360 H 496.365 -3.1699 0.786441 0
M  V30 5361 H 495.024 -2.39687 2.77391 0
M  V30 5362 H 494.672 -4.68562 1.82917 0
M  V30 5363 H 494.372 -4.6557 3.58494 0
M  V30 5364 H 495.896 -5.34327 2.95512 0
M  V30 5365 H 497.31 -3.62538 4.44116 0
M  V30 5366 H 495.707 -3.17549 5.09198 0
M  V30 5367 H 496.777 -1.91332 4.45556 0
M  V30 5368 N 498.12 -1.38341 -0.754957 0
M  V30 5369 C 499.05 -1.38176 -1.88227 0
M  V30 5370 C 500.031 -0.247873 -1.68284 0
M  V30 5371 O 501.216 -0.45075 -1.88896 0
M  V30 5372 C 498.346 -1.20471 -3.25736 0
M  V30 5373 C 497.3 -2.3105 -3.60278 0
M  V30 5374 C 496.626 -1.98452 -4.96509 0
M  V30 5375 C 497.926 -3.73305 -3.65295 0
M  V30 5376 H 499.62 -2.32512 -1.88622 0
M  V30 5377 H 497.166 -1.1192 -0.906082 0
M  V30 5378 H 499.119 -1.18982 -4.04254 0
M  V30 5379 H 497.843 -0.225965 -3.25817 0
M  V30 5380 H 496.502 -2.31723 -2.84078 0
M  V30 5381 H 496.15 -0.990641 -4.93148 0
M  V30 5382 H 495.85 -2.7251 -5.20588 0
M  V30 5383 H 497.374 -1.98578 -5.77407 0
M  V30 5384 H 498.788 -3.7467 -4.3393 0
M  V30 5385 H 497.185 -4.46557 -4.00883 0
M  V30 5386 H 498.255 -4.05719 -2.65556 0
M  V30 5387 N 499.598 0.982988 -1.23187 0
M  V30 5388 C 500.508 2.10907 -1.02739 0
M  V30 5389 C 501.524 1.73979 0.0273188 0
M  V30 5390 O 502.7 2.00702 -0.16757 0
M  V30 5391 C 499.765 3.41142 -0.618304 0
M  V30 5392 C 498.826 3.92112 -1.74777 0
M  V30 5393 C 498.059 5.16131 -1.3581 0
M  V30 5394 O 498.282 5.6989 -0.241201 0
M  V30 5395 O 497.216 5.61103 -2.17824 0
M  V30 5396 H 501.042 2.31046 -1.97108 0
M  V30 5397 H 498.627 1.09284 -1.01869 0
M  V30 5398 H 500.509 4.19488 -0.400982 0
M  V30 5399 H 499.184 3.2234 0.296421 0
M  V30 5400 H 498.091 3.14895 -2.0197 0
M  V30 5401 H 499.424 4.15364 -2.64071 0
M  V30 5402 N 501.076 1.04316 1.18135 0
M  V30 5403 C 502.023 0.636398 2.21853 0
M  V30 5404 C 502.993 -0.357039 1.62217 0
M  V30 5405 O 504.178 -0.250453 1.89149 0
M  V30 5406 C 501.318 0.00812779 3.45099 0
M  V30 5407 C 500.431 1.04933 4.19062 0
M  V30 5408 C 499.566 0.389313 5.29771 0
M  V30 5409 C 498.605 1.41544 5.9551 0
M  V30 5410 N 497.742 0.78021 6.97751 0
M  V30 5411 H 502.582 1.52536 2.56002 0
M  V30 5412 H 500.119 0.76304 1.25762 0
M  V30 5413 H 502.077 -0.373497 4.15525 0
M  V30 5414 H 500.707 -0.844336 3.11562 0
M  V30 5415 H 499.759 1.54888 3.47439 0
M  V30 5416 H 501.071 1.82862 4.64072 0
M  V30 5417 H 500.225 -0.0463805 6.06682 0
M  V30 5418 H 498.964 -0.422038 4.8587 0
M  V30 5419 H 497.969 1.86124 5.17337 0
M  V30 5420 H 499.194 2.22854 6.41493 0
M  V30 5421 H 497.14 -0.0107899 6.55999 0
M  V30 5422 H 497.057 1.49716 7.41027 0
M  V30 5423 H 498.325 0.368996 7.78626 0
M  V30 5424 N 502.554 -1.34406 0.822964 0
M  V30 5425 C 503.831 -1.92733 0.333641 0
M  V30 5426 C 504.211 -1.75107 -1.17901 0
M  V30 5427 O 503.559 -1.12983 -1.98613 0
M  V30 5428 C 503.769 -3.40557 0.763023 0
M  V30 5429 C 505.117 -4.17709 0.761879 0
M  V30 5430 O 506.141 -3.49141 0.705606 0
M  V30 5431 O 505 -5.40082 0.835109 0
M  V30 5432 H 502.094 -0.821964 0.0911249 0
M  V30 5433 H 504.64 -1.4338 0.907757 0
M  V30 5434 H 503.412 -3.47187 1.8049 0
M  V30 5435 H 503.035 -3.97259 0.164605 0
M  V30 5436 N 504.032 -0.577932 -1.46621 0
M  V30 5437 C 505.262 -0.0670668 -2.06491 0
M  V30 5438 C 505.67 1.24119 -1.42798 0
M  V30 5439 O 505.013 1.76016 -0.525759 0
M  V30 5440 C 505.075 0.177995 -3.59059 0
M  V30 5441 C 504.739 -1.04394 -4.44917 0
M  V30 5442 C 505.736 -1.95479 -4.81751 0
M  V30 5443 C 503.421 -1.26444 -4.86125 0
M  V30 5444 C 505.415 -3.06965 -5.58615 0
M  V30 5445 C 503.102 -2.38237 -5.62749 0
M  V30 5446 C 504.1 -3.28327 -5.98908 0
M  V30 5447 O 503.788 -4.38179 -6.73984 0
M  V30 5448 H 503.52 -0.0523159 -0.673973 0
M  V30 5449 H 506.074 -0.796966 -1.89308 0
M  V30 5450 H 504.304 0.962451 -3.74531 0
M  V30 5451 H 505.993 0.636782 -4.00874 0
M  V30 5452 H 506.759 -1.79657 -4.50498 0
M  V30 5453 H 502.638 -0.572316 -4.57434 0
M  V30 5454 H 506.182 -3.77309 -5.86757 0
M  V30 5455 H 502.079 -2.54023 -5.93416 0
M  V30 5456 H 502.847 -4.36486 -6.92403 0
M  V30 5457 N 505.51 1.54411 -0.315457 0
M  V30 5458 C 506.926 1.59556 0.037464 0
M  V30 5459 C 507.126 1.33217 1.5118 0
M  V30 5460 O 506.182 1.11264 2.26664 0
M  V30 5461 C 507.495 2.98372 -0.373477 0
M  V30 5462 C 509.043 3.11324 -0.323452 0
M  V30 5463 C 509.518 4.52472 -0.709433 0
M  V30 5464 N 511.009 4.58437 -0.662524 0
M  V30 5465 C 511.744 5.65751 -0.933474 0
M  V30 5466 N 511.24 6.81039 -1.27114 0
M  V30 5467 N 513.033 5.55489 -0.859573 0
M  V30 5468 H 505.184 1.6979 -1.27614 0
M  V30 5469 H 507.447 0.793732 -0.518356 0
M  V30 5470 H 507.153 3.22618 -1.40037 0
M  V30 5471 H 507.027 3.76264 0.265615 0
M  V30 5472 H 509.414 2.86818 0.694223 0
M  V30 5473 H 509.495 2.35555 -0.997367 0
M  V30 5474 H 509.139 4.7771 -1.72498 0
M  V30 5475 H 509.069 5.26598 -0.0132923 0
M  V30 5476 H 511.56 3.75636 -0.413065 0
M  V30 5477 H 511.873 7.58816 -1.46348 0
M  V30 5478 H 510.218 6.82555 -1.30932 0
M  V30 5479 H 513.409 4.64299 -0.595324 0
M  V30 5480 H 513.582 6.39036 -1.0741 0
M  V30 5481 N 506.988 0.0434614 1.5754 0
M  V30 5482 C 507.921 -0.968729 2.06618 0
M  V30 5483 C 508.899 -1.30868 0.965 0
M  V30 5484 O 510.083 -1.42288 1.23638 0
M  V30 5485 C 507.21 -2.28486 2.50023 0
M  V30 5486 C 506.256 -2.09851 3.71302 0
M  V30 5487 S 507.089 -1.38401 5.17306 0
M  V30 5488 C 508.245 -2.71354 5.64019 0
M  V30 5489 H 508.478 -0.551021 2.92149 0
M  V30 5490 H 506.011 -0.168607 1.53477 0
M  V30 5491 H 507.969 -3.04142 2.75695 0
M  V30 5492 H 506.63 -2.67387 1.64812 0
M  V30 5493 H 505.823 -3.07184 3.99567 0
M  V30 5494 H 505.425 -1.42336 3.45856 0
M  V30 5495 H 507.717 -3.67549 5.69134 0
M  V30 5496 H 508.66 -2.47734 6.6335 0
M  V30 5497 H 509.068 -2.77259 4.91719 0
M  V30 5498 N 508.466 -1.55915 -0.229846 0
M  V30 5499 C 509.376 -1.94891 -1.30593 0
M  V30 5500 C 510.392 -0.851604 -1.51736 0
M  V30 5501 O 511.568 -1.15447 -1.65027 0
M  V30 5502 C 508.633 -2.25052 -2.63728 0
M  V30 5503 C 507.694 -3.48306 -2.5096 0
M  V30 5504 C 506.927 -3.77019 -3.77747 0
M  V30 5505 O 507.15 -3.07534 -4.80395 0
M  V30 5506 O 506.084 -4.70523 -3.75356 0
M  V30 5507 H 509.91 -2.86581 -1.00525 0
M  V30 5508 H 507.495 -1.43017 -0.432025 0
M  V30 5509 H 509.377 -2.45682 -3.42372 0
M  V30 5510 H 508.052 -1.36538 -2.93495 0
M  V30 5511 H 506.959 -3.32964 -1.70546 0
M  V30 5512 H 508.292 -4.37177 -2.26136 0
M  V30 5513 N 509.944 0.496216 -1.49584 0
M  V30 5514 C 511.36 0.827814 -1.36453 0
M  V30 5515 C 511.56 1.97464 -0.401285 0
M  V30 5516 O 510.616 2.51958 0.165296 0
M  V30 5517 C 511.929 1.16352 -2.77277 0
M  V30 5518 C 513.477 1.27145 -2.86013 0
M  V30 5519 C 513.952 1.64042 -4.27615 0
M  V30 5520 N 515.443 1.71082 -4.30448 0
M  V30 5521 C 516.178 2.01085 -5.36984 0
M  V30 5522 N 515.674 2.2928 -6.5376 0
M  V30 5523 N 517.467 2.02376 -5.24405 0
M  V30 5524 H 509.618 -0.259947 -2.10803 0
M  V30 5525 H 511.881 -0.0537163 -0.946477 0
M  V30 5526 H 511.587 0.394153 -3.49484 0
M  V30 5527 H 511.461 2.10582 -3.12946 0
M  V30 5528 H 513.848 2.03152 -2.1404 0
M  V30 5529 H 513.929 0.309542 -2.5392 0
M  V30 5530 H 513.573 0.88583 -5.00115 0
M  V30 5531 H 513.503 2.6134 -4.57175 0
M  V30 5532 H 515.994 1.51434 -3.46232 0
M  V30 5533 H 516.307 2.51376 -7.30774 0
M  V30 5534 H 514.652 2.26726 -6.56978 0
M  V30 5535 H 517.843 1.79829 -4.32179 0
M  V30 5536 H 518.016 2.25425 -6.07526 0
M  V30 5537 N 511.423 1.38739 0.74761 0
M  V30 5538 C 512.834 1.31507 1.32524 0
M  V30 5539 C 513.185 -0.0263963 1.96182 0
M  V30 5540 O 512.31 -0.92849 1.95469 0
M  V30 5541 C 512.905 2.38162 2.40966 0
M  V30 5542 C 511.464 2.34489 2.94434 0
M  V30 5543 C 510.611 2.20712 1.67873 0
M  V30 5544 H 513.562 1.4901 0.546043 0
M  V30 5545 H 513.583 2.04222 3.21051 0
M  V30 5546 H 513.095 3.35783 1.94605 0
M  V30 5547 H 511.196 1.40467 3.45108 0
M  V30 5548 H 511.309 3.28861 3.48407 0
M  V30 5549 H 509.673 1.67667 1.91729 0
M  V30 5550 H 510.456 3.20285 1.23582 0
M  V30 5551 N 512.901 -0.976442 1.23707 0
M  V30 5552 C 513.811 -2.10359 1.03856 0
M  V30 5553 C 514.827 -1.73991 -0.0180919 0
M  V30 5554 O 516.003 -2.0061 0.178211 0
M  V30 5555 C 513.068 -3.40809 0.636387 0
M  V30 5556 C 512.129 -3.91179 1.76854 0
M  V30 5557 C 511.362 -5.15404 1.38546 0
M  V30 5558 O 511.585 -5.69754 0.27142 0
M  V30 5559 O 510.519 -5.5994 2.20797 0
M  V30 5560 H 514.345 -2.29997 1.98331 0
M  V30 5561 H 511.93 -1.08742 1.02448 0
M  V30 5562 H 513.812 -4.19269 0.423223 0
M  V30 5563 H 512.487 -3.22493 -0.279322 0
M  V30 5564 H 511.394 -3.13819 2.03638 0
M  V30 5565 H 512.727 -4.13958 2.6627 0
M  V30 5566 N 514.379 -1.04941 -1.1758 0
M  V30 5567 C 515.627 -0.756492 -1.87408 0
M  V30 5568 C 515.948 0.718478 -1.81281 0
M  V30 5569 O 515.218 1.519 -1.23706 0
M  V30 5570 H 513.798 -0.276841 -0.693807 0
M  V30 5571 H 516.46 -1.32803 -1.42652 0
M  V30 5572 H 515.556 -1.06918 -2.93215 0
M  V30 5573 N 515.857 1.33968 -0.830081 0
M  V30 5574 C 517.097 1.99879 -0.427521 0
M  V30 5575 C 517.461 1.64355 0.992546 0
M  V30 5576 O 518.662 2.23164 1.49837 0
M  V30 5577 C 516.933 3.51771 -0.631815 0
M  V30 5578 S 518.492 4.37608 -0.323168 0
M  V30 5579 H 515.31 0.692485 -0.161202 0
M  V30 5580 H 517.912 1.63129 -1.07745 0
M  V30 5581 H 516.616 3.75113 -1.66488 0
M  V30 5582 H 516.147 3.93386 0.0325936 0
M  V30 5583 H 518.162 4.88683 0.860432 0
M  V30 5584 N 517.335 0.585699 1.46312 0
M  V30 5585 C 518.746 0.159938 1.86014 0
M  V30 5586 C 519.097 -1.27775 1.48889 0
M  V30 5587 O 518.222 -1.96559 0.90519 0
M  V30 5588 C 518.817 0.283485 3.37612 0
M  V30 5589 C 517.376 -0.0874256 3.76298 0
M  V30 5590 C 516.523 0.618055 2.70325 0
M  V30 5591 H 519.474 0.793737 1.37425 0
M  V30 5592 H 519.495 -0.490348 3.77327 0
M  V30 5593 H 519.007 1.32995 3.64601 0
M  V30 5594 H 517.108 -1.13391 3.54927 0
M  V30 5595 H 517.221 0.290975 4.78216 0
M  V30 5596 H 515.585 0.057993 2.54634 0
M  V30 5597 H 516.368 1.66623 3.00153 0
M  V30 5598 N 518.813 -1.54241 0.323641 0
M  V30 5599 C 519.723 -2.28033 -0.551205 0
M  V30 5600 C 520.739 -1.32388 -1.12913 0
M  V30 5601 O 521.915 -1.65403 -1.14908 0
M  V30 5602 C 518.98 -3.02382 -1.69606 0
M  V30 5603 C 518.041 -4.13612 -1.14993 0
M  V30 5604 C 517.274 -4.84407 -2.24022 0
M  V30 5605 O 517.497 -4.54716 -3.44368 0
M  V30 5606 O 516.431 -5.71312 -1.89436 0
M  V30 5607 H 520.257 -3.03662 0.048066 0
M  V30 5608 H 517.842 -1.49133 0.0893289 0
M  V30 5609 H 519.724 -3.48941 -2.36259 0
M  V30 5610 H 518.399 -2.29628 -2.28151 0
M  V30 5611 H 517.306 -3.71402 -0.448484 0
M  V30 5612 H 518.639 -4.8841 -0.609608 0
M  V30 5613 N 520.291 -0.0518155 -1.57515 0
M  V30 5614 C 521.238 0.922352 -2.11569 0
M  V30 5615 C 522.208 1.30842 -1.02321 0
M  V30 5616 O 523.393 1.39778 -1.29872 0
M  V30 5617 C 520.533 2.19167 -2.6657 0
M  V30 5618 C 519.646 1.86003 -3.89906 0
M  V30 5619 C 518.781 3.07398 -4.33221 0
M  V30 5620 C 517.82 2.70158 -5.49255 0
M  V30 5621 N 516.957 3.84248 -5.8762 0
M  V30 5622 H 521.797 0.454506 -2.94514 0
M  V30 5623 H 519.334 0.212718 -1.45554 0
M  V30 5624 H 521.292 2.93443 -2.96559 0
M  V30 5625 H 519.922 2.63528 -1.86421 0
M  V30 5626 H 518.974 1.01874 -3.66505 0
M  V30 5627 H 520.286 1.54592 -4.74239 0
M  V30 5628 H 519.44 3.89972 -4.64765 0
M  V30 5629 H 518.179 3.41988 -3.477 0
M  V30 5630 H 517.184 1.86001 -5.17382 0
M  V30 5631 H 518.409 2.36759 -6.36492 0
M  V30 5632 H 516.355 4.18638 -5.05053 0
M  V30 5633 H 516.272 3.56538 -6.66646 0
M  V30 5634 H 517.54 4.6746 -6.2378 0
M  V30 5635 N 521.769 1.56035 0.221574 0
M  V30 5636 C 523.015 1.79312 0.947372 0
M  V30 5637 C 523.348 0.621453 1.83988 0
M  V30 5638 O 522.623 -0.379287 1.90766 0
M  V30 5639 C 522.906 3.1267 1.78633 0
M  V30 5640 C 522.759 4.40284 0.920312 0
M  V30 5641 C 524.078 3.4247 2.7641 0
M  V30 5642 H 521.197 0.652328 0.342982 0
M  V30 5643 H 523.839 1.88765 0.216244 0
M  V30 5644 H 521.989 3.04741 2.40967 0
M  V30 5645 H 523.661 4.60232 0.313718 0
M  V30 5646 H 521.904 4.33212 0.225734 0
M  V30 5647 H 522.575 5.30033 1.54171 0
M  V30 5648 H 525.051 3.50526 2.24211 0
M  V30 5649 H 523.927 4.3695 3.32213 0
M  V30 5650 H 524.188 2.64635 3.54148 0
M  V30 5651 N 523.247 -0.488276 1.49845 0
M  V30 5652 C 524.477 -1.26344 1.63465 0
M  V30 5653 C 524.885 -1.86637 0.310379 0
M  V30 5654 O 524.228 -1.69184 -0.715712 0
M  V30 5655 C 524.29 -2.42407 2.65479 0
M  V30 5656 C 523.954 -2.02886 4.09495 0
M  V30 5657 C 524.951 -1.56124 4.95904 0
M  V30 5658 C 522.636 -2.12131 4.55308 0
M  V30 5659 C 524.63 -1.19129 6.26169 0
M  V30 5660 C 522.317 -1.74747 5.85582 0
M  V30 5661 C 523.315 -1.28322 6.70837 0
M  V30 5662 O 523.003 -0.914491 7.98682 0
M  V30 5663 H 522.735 -0.388921 0.552916 0
M  V30 5664 H 525.289 -0.591288 1.96705 0
M  V30 5665 H 523.519 -3.12739 2.27445 0
M  V30 5666 H 525.208 -3.04409 2.68495 0
M  V30 5667 H 525.974 -1.48417 4.61733 0
M  V30 5668 H 521.853 -2.47217 3.89107 0
M  V30 5669 H 525.397 -0.828211 6.92666 0
M  V30 5670 H 521.294 -1.82109 6.19279 0
M  V30 5671 H 522.062 -1.04485 8.11804 0
M  V30 5672 N 524.725 -1.39134 -0.740242 0
M  V30 5673 C 525.635 -1.39697 -1.88473 0
M  V30 5674 C 526.651 -0.292403 -1.71526 0
M  V30 5675 O 527.827 -0.533021 -1.94219 0
M  V30 5676 C 524.892 -1.23382 -3.24003 0
M  V30 5677 C 523.953 -2.43763 -3.53381 0
M  V30 5678 C 523.186 -2.28216 -4.82445 0
M  V30 5679 O 523.409 -1.28288 -5.55786 0
M  V30 5680 O 522.343 -3.1709 -5.11603 0
M  V30 5681 H 526.169 -2.36159 -1.90952 0
M  V30 5682 H 523.754 -1.20194 -0.887346 0
M  V30 5683 H 525.636 -1.16395 -4.05006 0
M  V30 5684 H 524.311 -0.300121 -3.22306 0
M  V30 5685 H 523.218 -2.56325 -2.72485 0
M  V30 5686 H 524.551 -3.35808 -3.59852 0
M  V30 5687 N 526.204 0.969867 -1.24223 0
M  V30 5688 C 527.134 2.08191 -1.05729 0
M  V30 5689 C 528.115 1.70075 0.0290765 0
M  V30 5690 O 529.3 1.93712 -0.137583 0
M  V30 5691 C 526.43 3.40991 -0.658995 0
M  V30 5692 C 525.384 3.93054 -1.69389 0
M  V30 5693 C 524.71 5.22171 -1.15072 0
M  V30 5694 C 526.01 4.21137 -3.08935 0
M  V30 5695 H 527.704 2.23921 -1.98746 0
M  V30 5696 H 525.25 1.07602 -0.956967 0
M  V30 5697 H 527.203 4.18221 -0.51662 0
M  V30 5698 H 525.927 3.25155 0.30686 0
M  V30 5699 H 524.586 3.17977 -1.82444 0
M  V30 5700 H 524.234 5.02694 -0.175539 0
M  V30 5701 H 523.934 5.57973 -1.84229 0
M  V30 5702 H 525.458 6.02013 -1.02042 0
M  V30 5703 H 526.872 4.8908 -2.99121 0
M  V30 5704 H 525.269 4.68163 -3.75425 0
M  V30 5705 H 526.339 3.27996 -3.57137 0
M  V30 5706 N 527.682 1.05563 1.17022 0
M  V30 5707 C 528.615 0.604197 2.20056 0
M  V30 5708 C 529.593 -0.369169 1.58354 0
M  V30 5709 O 530.777 -0.279898 1.8641 0
M  V30 5710 C 527.904 -0.115265 3.38504 0
M  V30 5711 C 526.95 0.813698 4.18666 0
M  V30 5712 S 527.783 2.30492 4.83357 0
M  V30 5713 C 528.939 1.59674 6.0519 0
M  V30 5714 H 529.172 1.47713 2.58008 0
M  V30 5715 H 526.705 0.867932 1.27696 0
M  V30 5716 H 528.663 -0.524162 4.0714 0
M  V30 5717 H 527.324 -0.964284 2.98932 0
M  V30 5718 H 526.517 0.256736 5.03346 0
M  V30 5719 H 526.119 1.16213 3.55486 0
M  V30 5720 H 528.411 0.898164 6.7152 0
M  V30 5721 H 529.354 2.42115 6.65422 0
M  V30 5722 H 529.762 1.08252 5.54023 0
M  V30 5723 N 529.16 -1.33526 0.837174 0
M  V30 5724 C 530.576 -1.50727 0.524743 0
M  V30 5725 C 530.776 -1.77792 -0.948279 0
M  V30 5726 O 529.832 -1.83719 -1.73216 0
M  V30 5727 C 531.145 -2.66299 1.39661 0
M  V30 5728 C 532.693 -2.80183 1.39521 0
M  V30 5729 C 533.168 -3.98815 2.25189 0
M  V30 5730 N 534.659 -4.06047 2.2289 0
M  V30 5731 C 535.394 -4.97032 2.85915 0
M  V30 5732 N 534.89 -5.93143 3.57985 0
M  V30 5733 N 536.683 -4.90015 2.75394 0
M  V30 5734 H 528.834 -1.1422 1.79074 0
M  V30 5735 H 531.097 -0.561399 0.763894 0
M  V30 5736 H 530.803 -2.52974 2.4433 0
M  V30 5737 H 530.677 -3.61663 1.07145 0
M  V30 5738 H 533.064 -2.92942 0.356253 0
M  V30 5739 H 533.145 -1.85586 1.76044 0
M  V30 5740 H 532.789 -3.86817 3.29143 0
M  V30 5741 H 532.719 -4.92654 1.86009 0
M  V30 5742 H 535.21 -3.37262 1.70478 0
M  V30 5743 H 535.523 -6.59227 4.03286 0
M  V30 5744 H 533.868 -5.93223 3.62093 0
M  V30 5745 H 537.059 -4.13894 2.18654 0
M  V30 5746 H 537.232 -5.60724 3.24796 0
M  V30 5747 N 530.638 -0.59345 -1.46 0
M  V30 5748 C 531.601 0.123538 -2.28867 0
M  V30 5749 C 532.601 0.808628 -1.38989 0
M  V30 5750 O 533.791 0.658945 -1.61256 0
M  V30 5751 C 530.923 1.1847 -3.19653 0
M  V30 5752 H 532.116 -0.604843 -2.93737 0
M  V30 5753 H 529.669 -0.351875 -1.52288 0
M  V30 5754 H 530.404 1.94431 -2.59552 0
M  V30 5755 H 530.189 0.69783 -3.8584 0
M  V30 5756 H 531.679 1.68726 -3.81997 0
M  V30 5757 N 532.116 1.54067 -0.331816 0
M  V30 5758 C 533.356 2.02625 0.26876 0
M  V30 5759 C 533.72 1.21462 1.48697 0
M  V30 5760 O 534.921 1.59863 2.16096 0
M  V30 5761 C 533.192 3.52554 0.586577 0
M  V30 5762 S 534.751 4.23035 1.16563 0
M  V30 5763 H 531.569 0.706395 0.0807862 0
M  V30 5764 H 534.171 1.89844 -0.466856 0
M  V30 5765 H 532.875 4.09242 -0.308046 0
M  V30 5766 H 532.406 3.69432 1.35217 0
M  V30 5767 H 534.421 4.31382 2.45203 0
M  V30 5768 N 533.594 0.0601682 1.57485 0
M  V30 5769 C 534.84 -0.606552 1.94146 0
M  V30 5770 C 535.195 -1.67918 0.939225 0
M  V30 5771 O 534.488 -1.91558 -0.0402649 0
M  V30 5772 C 534.682 -1.23831 3.35262 0
M  V30 5773 C 534.511 -0.228408 4.4912 0
M  V30 5774 C 533.281 0.182813 5.04969 0
M  V30 5775 C 535.479 0.52975 5.11564 0
M  V30 5776 N 533.461 1.18464 6.02362 0
M  V30 5777 C 534.832 1.38439 6.04346 0
M  V30 5778 C 536.887 0.587084 4.94427 0
M  V30 5779 C 535.59 2.29125 6.81832 0
M  V30 5780 C 537.616 1.4814 5.72546 0
M  V30 5781 C 536.978 2.32375 6.64967 0
M  V30 5782 H 533.077 -0.193328 0.757726 0
M  V30 5783 H 535.661 0.1346 1.94234 0
M  V30 5784 H 533.832 -1.94944 3.35933 0
M  V30 5785 H 535.564 -1.86456 3.59188 0
M  V30 5786 H 532.319 -0.197968 4.73186 0
M  V30 5787 H 532.743 1.68271 6.55754 0
M  V30 5788 H 537.385 -0.049944 4.22771 0
M  V30 5789 H 535.103 2.93868 7.52773 0
M  V30 5790 H 538.689 1.53045 5.6131 0
M  V30 5791 H 537.569 3.00454 7.2436 0
M  V30 5792 N 535.072 -1.5615 -0.213296 0
M  V30 5793 C 536.004 -1.89586 -1.28802 0
M  V30 5794 C 537.017 -0.784844 -1.42633 0
M  V30 5795 O 538.206 -1.06319 -1.43383 0
M  V30 5796 C 535.306 -2.09665 -2.66259 0
M  V30 5797 C 534.479 -3.40726 -2.7427 0
M  V30 5798 C 533.538 -3.50137 -3.92798 0
M  V30 5799 O 532.564 -4.23105 -3.8075 0
M  V30 5800 N 533.766 -2.81886 -5.07465 0
M  V30 5801 H 536.531 -2.82368 -1.00442 0
M  V30 5802 H 534.092 -1.56796 -0.403302 0
M  V30 5803 H 536.084 -2.13268 -3.43946 0
M  V30 5804 H 534.654 -1.23469 -2.87183 0
M  V30 5805 H 533.874 -3.4915 -1.82997 0
M  V30 5806 H 535.162 -4.27048 -2.76599 0
M  V30 5807 H 534.56 -2.22397 -5.2015 0
M  V30 5808 H 533.117 -2.91139 -5.83165 0
M  V30 5809 N 536.55 0.480323 -1.50102 0
M  V30 5810 C 537.796 1.23208 -1.61837 0
M  V30 5811 C 538.151 1.89878 -0.310509 0
M  V30 5812 O 537.444 1.7871 0.690897 0
M  V30 5813 C 537.638 2.30708 -2.72963 0
M  V30 5814 C 537.467 1.74583 -4.14428 0
M  V30 5815 C 536.237 1.54964 -4.80951 0
M  V30 5816 C 538.435 1.24597 -4.98979 0
M  V30 5817 N 536.417 0.939855 -6.06663 0
M  V30 5818 C 537.788 0.758834 -6.15339 0
M  V30 5819 C 539.843 1.13365 -4.84822 0
M  V30 5820 C 538.546 0.17046 -7.19098 0
M  V30 5821 C 540.572 0.559221 -5.8875 0
M  V30 5822 C 539.934 0.082415 -7.04352 0
M  V30 5823 H 536.033 0.440065 -0.646426 0
M  V30 5824 H 538.617 0.535632 -1.87187 0
M  V30 5825 H 536.788 2.9779 -2.4935 0
M  V30 5826 H 538.52 2.97738 -2.74106 0
M  V30 5827 H 535.275 1.79926 -4.38091 0
M  V30 5828 H 535.699 0.653641 -6.73837 0
M  V30 5829 H 540.341 1.48823 -3.95742 0
M  V30 5830 H 538.059 -0.196347 -8.07861 0
M  V30 5831 H 541.645 0.474804 -5.79859 0
M  V30 5832 H 540.525 -0.355119 -7.83396 0
M  V30 5833 N 538.028 1.39524 0.732853 0
M  V30 5834 C 538.976 1.38563 1.86824 0
M  V30 5835 C 539.97 0.268467 1.67259 0
M  V30 5836 O 541.176 0.438613 1.74574 0
M  V30 5837 H 537.551 0.432737 0.615014 0
M  V30 5838 H 539.522 2.34328 1.84751 0
M  V30 5839 C 538.271 1.2481 3.24527 0
M  V30 5840 H 537.594 2.10044 3.40179 0
M  V30 5841 H 539.034 1.28194 4.04156 0
M  V30 5842 C 537.493 -0.0432825 3.36872 0
M  V30 5843 O 538.023 -1.01268 3.88726 0
M  V30 5844 N 536.229 -0.107055 2.90403 0
M  V30 5845 H 535.776 0.682512 2.48394 0
M  V30 5846 H 535.734 -0.970618 2.99042 0
M  V30 5847 N 539.506 -0.963266 1.24736 0
M  V30 5848 C 540.917 -1.52145 1.08207 0
M  V30 5849 C 541.268 -1.93142 -0.345061 0
M  V30 5850 O 540.393 -1.77769 -1.23399 0
M  V30 5851 C 540.988 -2.76486 1.95808 0
M  V30 5852 C 539.547 -3.28646 1.8349 0
M  V30 5853 C 538.694 -2.01529 1.90476 0
M  V30 5854 H 541.645 -0.781083 1.38148 0
M  V30 5855 H 541.666 -3.49986 1.49297 0
M  V30 5856 H 541.178 -2.46617 2.99669 0
M  V30 5857 H 539.279 -3.63357 0.824787 0
M  V30 5858 H 539.392 -3.97246 2.67829 0
M  V30 5859 H 537.756 -2.16442 1.34258 0
M  V30 5860 H 538.539 -1.7402 2.95926 0
M  V30 5861 N 540.985 -1.06182 -1.16461 0
M  V30 5862 C 542.21 -0.798599 -1.91408 0
M  V30 5863 C 542.635 0.640987 -1.76842 0
M  V30 5864 O 541.993 1.44652 -1.09296 0
M  V30 5865 C 542.041 -1.19665 -3.40165 0
M  V30 5866 O 541.145 -0.334768 -4.11039 0
M  V30 5867 H 540.486 -0.291961 -0.596368 0
M  V30 5868 H 543.016 -1.41732 -1.47557 0
M  V30 5869 H 543.026 -1.16772 -3.90933 0
M  V30 5870 H 541.701 -2.24526 -3.50087 0
M  V30 5871 H 540.278 -0.425168 -3.70468 0
M  V30 5872 N 542.463 1.3308 -0.844243 0
M  V30 5873 C 543.74 1.92178 -0.364261 0
M  V30 5874 C 544.12 1.76961 1.15101 0
M  V30 5875 O 543.468 1.16128 1.9679 0
M  V30 5876 C 543.678 3.393 -0.817106 0
M  V30 5877 C 545.026 4.16444 -0.828236 0
M  V30 5878 O 546.05 3.47975 -0.761062 0
M  V30 5879 O 544.909 5.38685 -0.920926 0
M  V30 5880 H 542.003 0.820411 -0.10419 0
M  V30 5881 H 544.549 1.41918 -0.930453 0
M  V30 5882 H 543.321 3.44272 -1.85991 0
M  V30 5883 H 542.944 3.96947 -0.227785 0
M  V30 5884 N 543.941 0.601185 1.45683 0
M  V30 5885 C 545.357 0.264315 1.57396 0
M  V30 5886 C 545.557 -1.23324 1.59353 0
M  V30 5887 O 544.613 -2.01594 1.52039 0
M  V30 5888 C 545.926 0.929839 2.85962 0
M  V30 5889 C 547.474 0.905156 2.99626 0
M  V30 5890 C 547.949 1.55057 4.30954 0
M  V30 5891 N 549.44 1.51576 4.37697 0
M  V30 5892 C 550.175 1.98436 5.37969 0
M  V30 5893 N 549.671 2.53352 6.44813 0
M  V30 5894 N 551.464 1.89242 5.29286 0
M  V30 5895 H 543.615 1.57363 1.42656 0
M  V30 5896 H 545.878 0.658831 0.681649 0
M  V30 5897 H 545.584 1.98404 2.90394 0
M  V30 5898 H 545.458 0.449224 3.74515 0
M  V30 5899 H 547.845 -0.14048 2.94765 0
M  V30 5900 H 547.926 1.42397 2.12501 0
M  V30 5901 H 547.57 2.5955 4.36573 0
M  V30 5902 H 547.5 1.00682 5.16886 0
M  V30 5903 H 549.991 1.11452 3.61091 0
M  V30 5904 H 550.304 2.86918 7.17564 0
M  V30 5905 H 548.649 2.57388 6.45582 0
M  V30 5906 H 551.84 1.46083 4.44722 0
M  V30 5907 H 552.013 2.26075 6.07284 0
M  V30 5908 N 545.419 -1.53889 0.339982 0
M  V30 5909 C 546.83 -1.86139 -0.144671 0
M  V30 5910 C 547.181 -1.2613 -1.50285 0
M  V30 5911 O 546.306 -0.573515 -2.08662 0
M  V30 5912 C 546.901 -3.37728 -0.269285 0
M  V30 5913 C 545.46 -3.69868 -0.698168 0
M  V30 5914 C 544.607 -2.76777 0.170249 0
M  V30 5915 H 547.558 -1.48503 0.559704 0
M  V30 5916 H 547.579 -3.64331 -1.0974 0
M  V30 5917 H 547.091 -3.81375 0.719366 0
M  V30 5918 H 545.192 -3.31764 -1.69597 0
M  V30 5919 H 545.305 -4.76582 -0.490533 0
M  V30 5920 H 543.669 -2.52188 -0.356844 0
M  V30 5921 H 544.452 -3.23253 1.15597 0
M  V30 5922 N 546.897 -0.0685191 -1.57451 0
M  V30 5923 C 548.122 0.613919 -1.98106 0
M  V30 5924 C 548.547 1.62551 -0.946501 0
M  V30 5925 O 547.905 1.81085 0.0882824 0
M  V30 5926 C 547.953 1.26189 -3.378 0
M  V30 5927 O 547.057 2.37773 -3.36954 0
M  V30 5928 H 546.398 0.158163 -0.644888 0
M  V30 5929 H 548.928 -0.142063 -2.04106 0
M  V30 5930 H 548.938 1.60951 -3.74912 0
M  V30 5931 H 547.613 0.520625 -4.12629 0
M  V30 5932 H 546.19 2.04829 -3.11608 0
M  V30 5933 N 548.375 1.56261 0.205012 0
M  V30 5934 C 549.622 1.8004 0.926927 0
M  V30 5935 C 549.95 0.640086 1.83666 0
M  V30 5936 O 549.205 -0.374702 1.92079 0
M  V30 5937 C 549.504 3.09722 1.78345 0
M  V30 5938 C 549.17 4.39082 1.02555 0
M  V30 5939 C 547.832 4.74226 0.816256 0
M  V30 5940 C 550.184 5.18877 0.491559 0
M  V30 5941 C 547.512 5.86668 0.0613287 0
M  V30 5942 C 549.864 6.32105 -0.250107 0
M  V30 5943 C 548.528 6.6584 -0.470508 0
M  V30 5944 H 547.798 0.658812 0.339187 0
M  V30 5945 H 550.445 1.90515 0.19395 0
M  V30 5946 H 548.75 2.9444 2.5848 0
M  V30 5947 H 550.447 3.25324 2.34446 0
M  V30 5948 H 547.037 4.11497 1.19868 0
M  V30 5949 H 551.221 4.92147 0.640684 0
M  V30 5950 H 546.477 6.11283 -0.119501 0
M  V30 5951 H 550.651 6.93157 -0.671307 0
M  V30 5952 H 548.278 7.5281 -1.05739 0
M  V30 5953 N 549.853 -0.472356 1.50355 0
M  V30 5954 C 550.816 -1.5529 1.68576 0
M  V30 5955 C 551.816 -1.50863 0.556511 0
M  V30 5956 O 553.006 -1.53505 0.823516 0
M  V30 5957 C 550.138 -2.94921 1.70981 0
M  V30 5958 H 551.331 -1.40451 2.64978 0
M  V30 5959 H 548.884 -0.698645 1.39816 0
M  V30 5960 H 549.619 -3.15204 0.762675 0
M  V30 5961 H 549.404 -2.99541 2.53017 0
M  V30 5962 H 550.894 -3.73372 1.87037 0
M  V30 5963 N 551.331 -1.39911 -0.725443 0
M  V30 5964 C 552.241 -1.41688 -1.8698 0
M  V30 5965 C 553.257 -0.310579 -1.71206 0
M  V30 5966 O 554.433 -0.55359 -1.93642 0
M  V30 5967 C 551.498 -1.26811 -3.22676 0
M  V30 5968 C 550.559 -2.47497 -3.50776 0
M  V30 5969 C 549.792 -2.3332 -4.79997 0
M  V30 5970 O 550.015 -1.34175 -5.54394 0
M  V30 5971 O 548.949 -3.22498 -5.08211 0
M  V30 5972 H 552.775 -2.38171 -1.88436 0
M  V30 5973 H 550.36 -1.21128 -0.874548 0
M  V30 5974 H 552.242 -1.20684 -4.03749 0
M  V30 5975 H 550.917 -0.334289 -3.21969 0
M  V30 5976 H 549.824 -2.59201 -2.69751 0
M  V30 5977 H 551.157 -3.39606 -3.5627 0
M  V30 5978 N 552.809 0.956637 -1.25245 0
M  V30 5979 C 554.058 1.69537 -1.0927 0
M  V30 5980 C 554.371 1.92136 0.366503 0
M  V30 5981 O 555.577 2.63687 0.64665 0
M  V30 5982 C 554.033 3.05211 -1.9072 0
M  V30 5983 C 553.641 2.90416 -3.41119 0
M  V30 5984 C 555.385 3.82882 -1.83308 0
M  V30 5985 C 553.292 4.21468 -4.14872 0
M  V30 5986 H 552.222 0.635804 -0.405302 0
M  V30 5987 H 554.873 1.06513 -1.49423 0
M  V30 5988 H 553.255 3.69128 -1.43389 0
M  V30 5989 H 554.429 2.35444 -3.9611 0
M  V30 5990 H 552.744 2.26203 -3.49602 0
M  V30 5991 H 555.341 4.79944 -2.35706 0
M  V30 5992 H 555.684 4.0853 -0.800572 0
M  V30 5993 H 556.217 3.25711 -2.28379 0
M  V30 5994 H 552.956 4.01009 -5.18529 0
M  V30 5995 H 552.476 4.76213 -3.64665 0
M  V30 5996 H 554.155 4.90022 -4.22478 0
M  V30 5997 N 554.287 1.06798 1.15896 0
M  V30 5998 C 555.237 0.653213 2.18443 0
M  V30 5999 C 556.221 -0.318763 1.57711 0
M  V30 6000 O 557.413 -0.133388 1.76497 0
M  V30 6001 C 554.542 0.0465785 3.43268 0
M  V30 6002 C 553.628 1.04336 4.11066 0
M  V30 6003 N 554.019 2.22084 4.54436 0
M  V30 6004 C 552.317 0.875433 4.37324 0
M  V30 6005 C 553.018 2.85276 5.06944 0
M  V30 6006 N 551.994 2.12973 5.00143 0
M  V30 6007 H 555.796 1.55011 2.49698 0
M  V30 6008 H 553.31 0.940384 1.32403 0
M  V30 6009 H 555.307 -0.26843 4.16035 0
M  V30 6010 H 553.967 -0.845504 3.13499 0
M  V30 6011 H 554.978 2.59833 4.48004 0
M  V30 6012 H 551.655 0.0357721 4.17485 0
M  V30 6013 H 553.045 3.85223 5.50503 0
M  V30 6014 N 555.766 -1.3263 0.851289 0
M  V30 6015 C 556.698 -2.27824 0.250757 0
M  V30 6016 C 557.711 -1.52285 -0.575598 0
M  V30 6017 O 558.9 -1.73946 -0.400638 0
M  V30 6018 C 556 -3.3232 -0.664571 0
M  V30 6019 C 555.173 -4.37221 0.125187 0
M  V30 6020 C 554.232 -5.21314 -0.715385 0
M  V30 6021 O 553.258 -5.69002 -0.150111 0
M  V30 6022 N 554.46 -5.43823 -2.03069 0
M  V30 6023 H 557.225 -2.79997 1.06873 0
M  V30 6024 H 554.786 -1.45455 0.710943 0
M  V30 6025 H 556.778 -3.85486 -1.23216 0
M  V30 6026 H 555.348 -2.80331 -1.38323 0
M  V30 6027 H 554.568 -3.84384 0.874199 0
M  V30 6028 H 555.856 -5.04399 0.667774 0
M  V30 6029 H 555.254 -5.06803 -2.51332 0
M  V30 6030 H 553.811 -5.99998 -2.54648 0
M  V30 6031 N 557.244 -0.608902 -1.45362 0
M  V30 6032 C 558.207 0.0992563 -2.28985 0
M  V30 6033 C 559.207 0.793841 -1.39838 0
M  V30 6034 O 560.397 0.641804 -1.61946 0
M  V30 6035 C 557.529 1.15073 -3.20891 0
M  V30 6036 H 558.722 -0.635964 -2.93079 0
M  V30 6037 H 556.275 -0.368007 -1.51906 0
M  V30 6038 H 557.01 1.91667 -2.616 0
M  V30 6039 H 556.795 0.656867 -3.86559 0
M  V30 6040 H 558.285 1.64665 -3.83765 0
M  V30 6041 N 558.722 1.53707 -0.348139 0
M  V30 6042 C 559.969 2.00988 0.246966 0
M  V30 6043 C 560.297 1.23586 1.50189 0
M  V30 6044 O 559.552 0.312817 1.93184 0
M  V30 6045 C 559.851 3.52292 0.602061 0
M  V30 6046 C 559.517 4.47453 -0.556509 0
M  V30 6047 C 558.179 4.73188 -0.874446 0
M  V30 6048 C 560.531 5.03851 -1.33354 0
M  V30 6049 C 557.859 5.52577 -1.9717 0
M  V30 6050 C 560.211 5.84437 -2.42108 0
M  V30 6051 C 558.875 6.08465 -2.74456 0
M  V30 6052 H 558.145 0.735469 0.0903712 0
M  V30 6053 H 560.792 1.85464 -0.477001 0
M  V30 6054 H 559.097 3.65672 1.40681 0
M  V30 6055 H 560.794 3.86337 1.07447 0
M  V30 6056 H 557.384 4.27558 -0.298652 0
M  V30 6057 H 561.568 4.8393 -1.10117 0
M  V30 6058 H 556.824 5.69418 -2.22651 0
M  V30 6059 H 560.998 6.27151 -3.02745 0
M  V30 6060 H 558.625 6.69768 -3.59604 0
M  V30 6061 N 560.2 0.0768682 1.57412 0
M  V30 6062 C 561.11 -0.903207 2.16516 0
M  V30 6063 C 562.126 -1.32341 1.12968 0
M  V30 6064 O 563.302 -1.39507 1.45258 0
M  V30 6065 C 560.367 -2.1508 2.71922 0
M  V30 6066 C 559.428 -1.78653 3.90361 0
M  V30 6067 C 558.661 -2.97465 4.43114 0
M  V30 6068 O 558.884 -4.11638 3.94854 0
M  V30 6069 O 557.818 -2.76987 5.3438 0
M  V30 6070 H 561.644 -0.430427 3.00634 0
M  V30 6071 H 559.229 -0.146485 1.4868 0
M  V30 6072 H 561.111 -2.8823 3.07411 0
M  V30 6073 H 559.786 -2.61446 1.9086 0
M  V30 6074 H 558.693 -1.0274 3.59716 0
M  V30 6075 H 560.026 -1.37066 4.7273 0
M  V30 6076 N 561.678 -1.56367 -0.196722 0
M  V30 6077 C 562.906 -1.84639 -0.933608 0
M  V30 6078 C 563.321 -0.659164 -1.76919 0
M  V30 6079 O 562.678 0.372142 -1.78665 0
M  V30 6080 C 562.729 -3.11694 -1.83109 0
M  V30 6081 O 562.45 -4.25838 -1.02924 0
M  V30 6082 C 563.951 -3.53132 -2.67979 0
M  V30 6083 H 561.171 -0.613188 -0.272473 0
M  V30 6084 H 563.715 -2.03475 -0.204465 0
M  V30 6085 H 561.87 -2.94759 -2.51387 0
M  V30 6086 H 562.284 -4.98178 -1.64069 0
M  V30 6087 H 563.758 -4.45005 -3.26611 0
M  V30 6088 H 564.235 -2.76045 -3.41608 0
M  V30 6089 H 564.841 -3.72592 -2.05074 0
M  V30 6090 N 563.156 0.464375 -1.50603 0
M  V30 6091 C 564.089 1.58052 -1.64605 0
M  V30 6092 C 565.067 1.54914 -0.494016 0
M  V30 6093 O 566.251 1.74438 -0.714393 0
M  V30 6094 C 563.378 2.96634 -1.63481 0
M  V30 6095 C 562.424 3.17901 -2.84325 0
M  V30 6096 S 563.257 2.97083 -4.45536 0
M  V30 6097 C 564.413 4.37994 -4.47115 0
M  V30 6098 H 564.646 1.45937 -2.59017 0
M  V30 6099 H 562.179 0.652189 -1.39949 0
M  V30 6100 H 564.137 3.76527 -1.63517 0
M  V30 6101 H 562.798 3.06134 -0.702928 0
M  V30 6102 H 561.991 4.19158 -2.79862 0
M  V30 6103 H 561.593 2.45792 -2.81891 0
M  V30 6104 H 563.885 5.30743 -4.21091 0
M  V30 6105 H 564.828 4.47499 -5.48772 0
M  V30 6106 H 565.236 4.20386 -3.76743 0
M  V30 6107 N 564.634 1.40294 0.718013 0
M  V30 6108 C 565.881 1.3844 1.47786 0
M  V30 6109 C 566.209 -0.0140838 1.94495 0
M  V30 6110 O 565.464 -0.998165 1.68331 0
M  V30 6111 C 565.763 2.31814 2.72024 0
M  V30 6112 C 565.429 3.79117 2.44093 0
M  V30 6113 C 564.091 4.19249 2.36185 0
M  V30 6114 C 566.443 4.72212 2.20602 0
M  V30 6115 C 563.771 5.50516 2.02851 0
M  V30 6116 C 566.123 6.03775 1.88781 0
M  V30 6117 C 564.787 6.42953 1.79354 0
M  V30 6118 H 564.057 0.506588 0.540786 0
M  V30 6119 H 566.704 1.72929 0.822663 0
M  V30 6120 H 565.009 1.90501 3.42369 0
M  V30 6121 H 566.706 2.27664 3.30106 0
M  V30 6122 H 563.296 3.47318 2.51133 0
M  V30 6123 H 567.48 4.42026 2.25669 0
M  V30 6124 H 562.736 5.79776 1.94088 0
M  V30 6125 H 566.91 6.75428 1.69617 0
M  V30 6126 H 564.537 7.44584 1.53291 0
M  V30 6127 N 566.112 -0.949982 1.2575 0
M  V30 6128 C 567.044 -2.05088 1.02331 0
M  V30 6129 C 568.057 -1.62795 -0.0133247 0
M  V30 6130 O 569.246 -1.77067 0.225759 0
M  V30 6131 C 566.346 -3.34794 0.525924 0
M  V30 6132 C 565.519 -4.05903 1.62978 0
M  V30 6133 C 564.578 -5.1388 1.13196 0
M  V30 6134 O 563.604 -5.39072 1.82729 0
M  V30 6135 N 564.806 -5.80495 -0.0242926 0
M  V30 6136 H 567.571 -2.25747 1.97125 0
M  V30 6137 H 565.132 -1.11886 1.17018 0
M  V30 6138 H 567.124 -4.04312 0.177263 0
M  V30 6139 H 565.694 -3.10872 -0.328202 0
M  V30 6140 H 564.914 -3.3042 2.1498 0
M  V30 6141 H 566.202 -4.50166 2.37124 0
M  V30 6142 H 565.6 -5.62454 -0.605184 0
M  V30 6143 H 564.157 -6.51043 -0.313947 0
M  V30 6144 N 567.59 -1.07411 -1.15328 0
M  V30 6145 C 568.5 -0.706438 -2.23711 0
M  V30 6146 C 569.516 0.282586 -1.7169 0
M  V30 6147 O 570.692 0.129066 -2.00986 0
M  V30 6148 C 567.757 -0.11048 -3.46524 0
M  V30 6149 C 566.818 -1.15282 -4.13532 0
M  V30 6150 C 566.051 -0.585205 -5.30482 0
M  V30 6151 O 566.274 0.598549 -5.67251 0
M  V30 6152 O 565.208 -1.33039 -5.87013 0
M  V30 6153 H 569.034 -1.61031 -2.57493 0
M  V30 6154 H 566.619 -0.847113 -1.23062 0
M  V30 6155 H 568.501 0.21957 -4.20828 0
M  V30 6156 H 567.176 0.766703 -3.14489 0
M  V30 6157 H 566.083 -1.53523 -3.41147 0
M  V30 6158 H 567.416 -2.00192 -4.49649 0
M  V30 6159 N 569.068 1.32177 -0.85831 0
M  V30 6160 C 570.293 2.01847 -0.476718 0
M  V30 6161 C 570.718 1.64065 0.920021 0
M  V30 6162 O 570.076 0.843189 1.60499 0
M  V30 6163 C 570.124 3.55097 -0.627578 0
M  V30 6164 O 569.228 4.11012 0.338086 0
M  V30 6165 H 568.569 0.635907 -0.191099 0
M  V30 6166 H 571.099 1.68641 -1.15851 0
M  V30 6167 H 571.109 4.04718 -0.516476 0
M  V30 6168 H 569.784 3.81938 -1.64609 0
M  V30 6169 H 568.361 3.72451 0.182917 0
M  V30 6170 N 570.547 0.616602 1.45037 0
M  V30 6171 C 571.772 0.120192 2.07051 0
M  V30 6172 C 572.197 -1.19008 1.45666 0
M  V30 6173 O 571.555 -1.7267 0.552692 0
M  V30 6174 C 571.603 0.00354901 3.606 0
M  V30 6175 O 570.707 -1.04431 3.98958 0
M  V30 6176 H 570.048 0.0781599 0.659384 0
M  V30 6177 H 572.578 0.849167 1.86146 0
M  V30 6178 H 572.588 -0.191754 4.07549 0
M  V30 6179 H 571.263 0.960239 4.04663 0
M  V30 6180 H 569.84 -0.824749 3.63665 0
M  V30 6181 N 572.025 -1.5352 0.356285 0
M  V30 6182 C 573.274 -2.00298 -0.237373 0
M  V30 6183 C 573.587 -1.24784 -1.50627 0
M  V30 6184 O 574.793 -1.62103 -2.17795 0
M  V30 6185 C 573.249 -3.56771 -0.473545 0
M  V30 6186 C 572.857 -4.41154 0.780183 0
M  V30 6187 C 574.601 -4.1193 -1.02537 0
M  V30 6188 C 572.508 -5.89161 0.514108 0
M  V30 6189 H 571.438 -0.748307 -0.092478 0
M  V30 6190 H 574.089 -1.77283 0.473588 0
M  V30 6191 H 572.471 -3.75902 -1.24553 0
M  V30 6192 H 573.645 -4.33797 1.55425 0
M  V30 6193 H 571.96 -3.97052 1.25455 0
M  V30 6194 H 574.557 -5.20133 -1.2396 0
M  V30 6195 H 574.9 -3.65943 -1.98473 0
M  V30 6196 H 575.433 -3.96561 -0.313775 0
M  V30 6197 H 572.172 -6.39408 1.44355 0
M  V30 6198 H 571.692 -5.9939 -0.221632 0
M  V30 6199 H 573.371 -6.46857 0.136122 0
M  V30 6200 N 573.503 -0.0852151 -1.57369 0
M  V30 6201 C 574.728 0.592872 -1.98746 0
M  V30 6202 C 575.153 1.61538 -0.963689 0
M  V30 6203 O 574.511 1.81168 0.069071 0
M  V30 6204 C 574.559 1.22599 -3.39119 0
M  V30 6205 O 573.663 2.34185 -3.39457 0
M  V30 6206 H 573.004 0.151314 -0.646529 0
M  V30 6207 H 575.534 -0.163703 -2.03944 0
M  V30 6208 H 575.544 1.56965 -3.76598 0
M  V30 6209 H 574.219 0.476831 -4.13158 0
M  V30 6210 H 572.796 2.01512 -3.13763 0
M  V30 6211 N 574.981 1.5647 0.188427 0
M  V30 6212 C 576.258 1.71857 0.934058 0
M  V30 6213 C 576.638 0.641867 2.01105 0
M  V30 6214 O 575.986 -0.346098 2.25864 0
M  V30 6215 C 576.196 3.14431 1.5144 0
M  V30 6216 C 577.544 3.74869 1.99396 0
M  V30 6217 O 578.568 3.17601 1.61269 0
M  V30 6218 O 577.427 4.75387 2.69573 0
M  V30 6219 H 574.521 0.701186 0.438483 0
M  V30 6220 H 577.067 1.68768 0.177599 0
M  V30 6221 H 575.839 3.8427 0.738416 0
M  V30 6222 H 575.462 3.21775 2.33552 0
M  V30 6223 N 576.459 -0.456382 1.50847 0
M  V30 6224 C 577.369 -1.57805 1.73594 0
M  V30 6225 C 578.385 -1.62599 0.619476 0
M  V30 6226 O 579.561 -1.80195 0.899532 0
M  V30 6227 C 576.626 -2.93926 1.8387 0
M  V30 6228 C 575.687 -2.99402 3.07663 0
M  V30 6229 C 574.92 -4.29031 3.1744 0
M  V30 6230 O 575.143 -5.20358 2.33631 0
M  V30 6231 O 574.077 -4.40401 4.10281 0
M  V30 6232 H 577.903 -1.41531 2.68705 0
M  V30 6233 H 575.488 -0.637422 1.3512 0
M  V30 6234 H 577.37 -3.74747 1.92725 0
M  V30 6235 H 576.045 -3.10368 0.91944 0
M  V30 6236 H 574.952 -2.17606 3.043 0
M  V30 6237 H 576.285 -2.87901 3.99216 0
M  V30 6238 N 577.937 -1.40673 -0.710563 0
M  V30 6239 C 579.183 -1.39428 -1.47267 0
M  V30 6240 C 579.516 0.00182129 -1.942 0
M  V30 6241 O 578.791 0.971387 -1.68506 0
M  V30 6242 C 579.074 -2.38812 -2.6952 0
M  V30 6243 C 578.927 -3.87467 -2.28449 0
M  V30 6244 C 580.246 -2.3566 -3.71689 0
M  V30 6245 H 577.365 -0.507768 -0.534173 0
M  V30 6246 H 580.007 -1.71843 -0.810547 0
M  V30 6247 H 578.157 -2.113 -3.26013 0
M  V30 6248 H 579.829 -4.25825 -1.77399 0
M  V30 6249 H 578.072 -4.03058 -1.60395 0
M  V30 6250 H 578.743 -4.5253 -3.16103 0
M  V30 6251 H 581.219 -2.6004 -3.24836 0
M  V30 6252 H 580.095 -3.07237 -4.54859 0
M  V30 6253 H 580.356 -1.36996 -4.20339 0
M  V30 6254 N 579.415 0.9433 -1.26252 0
M  V30 6255 C 580.325 2.07532 -1.09397 0
M  V30 6256 C 581.341 1.73977 -0.0280449 0
M  V30 6257 O 582.517 2.00067 -0.231337 0
M  V30 6258 C 579.582 3.39002 -0.726523 0
M  V30 6259 C 578.643 3.86353 -1.87163 0
M  V30 6260 C 577.876 5.11549 -1.52162 0
M  V30 6261 O 578.099 5.68834 -0.422385 0
M  V30 6262 O 577.033 5.53889 -2.35565 0
M  V30 6263 H 580.859 2.24658 -2.04359 0
M  V30 6264 H 578.444 1.05988 -1.05295 0
M  V30 6265 H 580.326 4.18 -0.534236 0
M  V30 6266 H 579.001 3.2312 0.193721 0
M  V30 6267 H 577.908 3.0831 -2.11886 0
M  V30 6268 H 579.241 4.06752 -2.77152 0
M  V30 6269 N 580.893 1.08022 1.14757 0
M  V30 6270 C 581.84 0.706657 2.19716 0
M  V30 6271 C 582.81 -0.30525 1.63271 0
M  V30 6272 O 583.995 -0.19015 1.8985 0
M  V30 6273 C 581.135 0.117914 3.44898 0
M  V30 6274 C 580.248 1.18212 4.15512 0
M  V30 6275 C 579.383 0.557659 5.28265 0
M  V30 6276 C 578.422 1.60418 5.90705 0
M  V30 6277 N 577.559 1.0018 6.94916 0
M  V30 6278 H 582.399 1.60603 2.51019 0
M  V30 6279 H 579.936 0.802664 1.23271 0
M  V30 6280 H 581.894 -0.241112 4.16503 0
M  V30 6281 H 580.524 -0.744788 3.1409 0
M  V30 6282 H 579.576 1.65863 3.42335 0
M  V30 6283 H 580.888 1.97533 4.5802 0
M  V30 6284 H 580.042 0.146654 6.06523 0
M  V30 6285 H 578.781 -0.267249 4.86967 0
M  V30 6286 H 577.786 2.02489 5.11154 0
M  V30 6287 H 579.011 2.43149 6.34078 0
M  V30 6288 H 576.957 0.197917 6.55701 0
M  V30 6289 H 576.874 1.73216 7.35889 0
M  V30 6290 H 578.142 0.616523 7.77058 0
M  V30 6291 N 582.371 -1.3172 0.865308 0
M  V30 6292 C 583.281 -2.32394 0.320935 0
M  V30 6293 C 584.297 -1.64511 -0.566746 0
M  V30 6294 O 585.473 -1.95969 -0.464575 0
M  V30 6295 C 582.538 -3.43462 -0.472701 0
M  V30 6296 C 581.599 -4.27015 0.442385 0
M  V30 6297 C 580.832 -5.32779 -0.313469 0
M  V30 6298 O 581.055 -5.49158 -1.54214 0
M  V30 6299 O 579.989 -6.01015 0.326257 0
M  V30 6300 H 583.815 -2.80868 1.15528 0
M  V30 6301 H 581.4 -1.35535 0.628545 0
M  V30 6302 H 583.282 -4.11172 -0.922781 0
M  V30 6303 H 581.957 -2.97159 -1.28367 0
M  V30 6304 H 580.864 -3.62075 0.940866 0
M  V30 6305 H 582.197 -4.76871 1.21882 0
M  V30 6306 N 583.85 -0.624285 -1.44708 0
M  V30 6307 C 584.779 0.0717025 -2.3339 0
M  V30 6308 C 585.76 0.841814 -1.47809 0
M  V30 6309 O 586.946 0.809056 -1.76544 0
M  V30 6310 C 584.076 1.05852 -3.30776 0
M  V30 6311 C 583.029 0.400503 -4.26122 0
M  V30 6312 C 582.356 1.49674 -5.13324 0
M  V30 6313 C 583.656 -0.688924 -5.17737 0
M  V30 6314 H 585.35 -0.668819 -2.91834 0
M  V30 6315 H 582.896 -0.32308 -1.40329 0
M  V30 6316 H 584.849 1.5541 -3.91696 0
M  V30 6317 H 583.572 1.82984 -2.70526 0
M  V30 6318 H 582.231 -0.0743687 -3.66525 0
M  V30 6319 H 581.88 2.25877 -4.49431 0
M  V30 6320 H 581.58 1.06188 -5.77926 0
M  V30 6321 H 583.104 1.99427 -5.77115 0
M  V30 6322 H 584.518 -0.276724 -5.72632 0
M  V30 6323 H 582.915 -1.04652 -5.90904 0
M  V30 6324 H 583.985 -1.55884 -4.5916 0
M  V30 6325 N 585.328 1.53329 -0.364422 0
M  V30 6326 C 586.576 2.00842 0.225189 0
M  V30 6327 C 586.897 1.25345 1.49378 0
M  V30 6328 O 586.167 0.366396 1.92443 0
M  V30 6329 H 584.747 0.742009 0.0862027 0
M  V30 6330 H 587.409 1.8863 -0.490389 0
M  V30 6331 H 586.505 3.08795 0.452987 0
M  V30 6332 N 586.806 0.0935595 1.57322 0
M  V30 6333 C 587.753 -0.865935 2.1394 0
M  V30 6334 C 588.723 -1.28083 1.05754 0
M  V30 6335 O 589.908 -1.36285 1.33533 0
M  V30 6336 C 587.048 -2.12023 2.72287 0
M  V30 6337 C 586.161 -1.756 3.94701 0
M  V30 6338 C 585.296 -2.95804 4.41218 0
M  V30 6339 C 584.335 -2.555 5.56225 0
M  V30 6340 N 583.472 -3.68534 5.97601 0
M  V30 6341 H 588.312 -0.376261 2.95615 0
M  V30 6342 H 585.849 -0.174052 1.46067 0
M  V30 6343 H 587.807 -2.85477 3.04235 0
M  V30 6344 H 586.437 -2.58492 1.93343 0
M  V30 6345 H 585.489 -0.921208 3.69077 0
M  V30 6346 H 586.801 -1.41964 4.78171 0
M  V30 6347 H 585.955 -3.77513 4.74941 0
M  V30 6348 H 584.694 -3.32649 3.56645 0
M  V30 6349 H 583.699 -1.72218 5.22131 0
M  V30 6350 H 584.924 -2.19801 6.42545 0
M  V30 6351 H 582.87 -4.051 5.15974 0
M  V30 6352 H 582.787 -3.38737 6.75865 0
M  V30 6353 H 584.055 -4.50757 6.35955 0
M  V30 6354 N 588.284 -1.56567 -0.180126 0
M  V30 6355 C 589.7 -1.50488 -0.531559 0
M  V30 6356 C 589.9 -0.796267 -1.851 0
M  V30 6357 O 588.956 -0.352978 -2.50021 0
M  V30 6358 C 590.269 -2.95201 -0.572456 0
M  V30 6359 C 591.817 -3.05957 -0.660264 0
M  V30 6360 C 592.292 -4.5211 -0.732135 0
M  V30 6361 N 593.783 -4.56322 -0.795262 0
M  V30 6362 C 594.518 -5.66742 -0.871296 0
M  V30 6363 N 594.014 -6.86815 -0.908708 0
M  V30 6364 N 595.807 -5.54691 -0.909639 0
M  V30 6365 H 587.958 -2.01045 0.685165 0
M  V30 6366 H 590.221 -0.915536 0.245962 0
M  V30 6367 H 589.927 -3.50165 0.328208 0
M  V30 6368 H 589.801 -3.49369 -1.422 0
M  V30 6369 H 592.188 -2.51032 -1.55136 0
M  V30 6370 H 592.269 -2.54888 0.215783 0
M  V30 6371 H 591.913 -5.07664 0.154664 0
M  V30 6372 H 591.843 -5.00926 -1.6242 0
M  V30 6373 H 594.334 -3.69868 -0.77499 0
M  V30 6374 H 594.647 -7.66718 -0.967654 0
M  V30 6375 H 592.992 -6.89443 -0.877132 0
M  V30 6376 H 596.183 -4.59804 -0.877353 0
M  V30 6377 H 596.356 -6.40768 -0.965434 0
M  V30 6378 N 589.762 0.448376 -1.51087 0
M  V30 6379 C 591.01 1.19635 -1.62886 0
M  V30 6380 C 591.331 1.91977 -0.342024 0
M  V30 6381 O 590.601 1.85094 0.641636 0
M  V30 6382 H 589.181 0.444598 -0.600285 0
M  V30 6383 H 591.843 0.515138 -1.87969 0
M  V30 6384 H 590.939 1.93194 -2.45117 0
M  V30 6385 N 591.24 1.41047 0.703093 0
M  V30 6386 C 592.468 1.4334 1.49202 0
M  V30 6387 C 592.883 0.0365596 1.88765 0
M  V30 6388 O 592.24 -0.942419 1.56284 0
M  V30 6389 C 592.291 2.33538 2.75939 0
M  V30 6390 O 592.012 3.67786 2.38045 0
M  V30 6391 C 593.513 2.44555 3.6974 0
M  V30 6392 H 590.733 0.488472 0.460039 0
M  V30 6393 H 593.277 1.85245 0.86629 0
M  V30 6394 H 591.432 1.94962 3.34766 0
M  V30 6395 H 591.846 4.15816 3.19683 0
M  V30 6396 H 593.32 3.11849 4.55471 0
M  V30 6397 H 593.797 1.47447 4.1371 0
M  V30 6398 H 594.403 2.83735 3.16819 0
M  V30 6399 N 592.718 -0.936591 1.26751 0
M  V30 6400 C 594.134 -1.21095 1.03963 0
M  V30 6401 C 594.334 -2.00156 -0.232372 0
M  V30 6402 O 593.39 -2.3434 -0.940274 0
M  V30 6403 C 594.703 -1.96775 2.27377 0
M  V30 6404 C 596.251 -2.09749 2.32324 0
M  V30 6405 C 596.726 -2.88832 3.55443 0
M  V30 6406 N 598.217 -2.96404 3.55948 0
M  V30 6407 C 598.952 -3.58036 4.47881 0
M  V30 6408 N 598.448 -4.21132 5.50109 0
M  V30 6409 N 600.241 -3.55353 4.35523 0
M  V30 6410 H 592.392 -0.408173 2.08441 0
M  V30 6411 H 594.655 -0.243139 0.91629 0
M  V30 6412 H 594.361 -1.46094 3.19921 0
M  V30 6413 H 594.235 -2.97424 2.31989 0
M  V30 6414 H 596.622 -2.5962 1.40291 0
M  V30 6415 H 596.703 -1.08347 2.31721 0
M  V30 6416 H 596.347 -2.39647 4.47808 0
M  V30 6417 H 596.277 -3.90499 3.53296 0
M  V30 6418 H 598.768 -2.51552 2.82011 0
M  V30 6419 H 599.081 -4.66071 6.16439 0
M  V30 6420 H 597.426 -4.19705 5.53961 0
M  V30 6421 H 600.617 -3.05256 3.54875 0
M  V30 6422 H 600.79 -4.03097 5.07363 0
M  V30 6423 N 594.196 -1.08629 -1.14182 0
M  V30 6424 C 595.444 -0.815731 -1.84906 0
M  V30 6425 C 595.765 0.660441 -1.83475 0
M  V30 6426 O 595.035 1.47888 -1.28476 0
M  V30 6427 H 593.615 -0.298773 -0.684648 0
M  V30 6428 H 596.277 -1.37274 -1.38354 0
M  V30 6429 H 595.373 -1.16193 -2.89665 0
M  V30 6430 N 595.674 1.31259 -0.872281 0
M  V30 6431 C 596.922 1.96233 -0.483409 0
M  V30 6432 C 597.243 1.69276 0.968012 0
M  V30 6433 O 596.513 1.00943 1.67891 0
M  V30 6434 H 595.093 0.726025 -0.175774 0
M  V30 6435 H 597.755 1.60024 -1.11258 0
M  V30 6436 H 596.851 3.05403 -0.643075 0
M  V30 6437 N 597.152 0.631951 1.44375 0
M  V30 6438 C 598.115 -0.0628142 2.29114 0
M  V30 6439 C 599.115 -0.771494 1.41084 0
M  V30 6440 O 600.305 -0.615959 1.62947 0
M  V30 6441 C 597.437 -1.09953 3.22681 0
M  V30 6442 H 598.63 0.682509 2.92031 0
M  V30 6443 H 596.183 0.392128 1.51301 0
M  V30 6444 H 596.918 -1.87481 2.64616 0
M  V30 6445 H 596.703 -0.595286 3.87555 0
M  V30 6446 H 598.193 -1.58538 3.86336 0
M  V30 6447 N 598.631 -1.53133 0.372548 0
M  V30 6448 C 599.879 -2.00958 -0.214534 0
M  V30 6449 C 600.2 -1.26135 -1.48711 0
M  V30 6450 O 599.47 -0.376597 -1.92246 0
M  V30 6451 H 598.05 -0.742456 -0.0822664 0
M  V30 6452 H 600.712 -1.88367 0.500385 0
M  V30 6453 H 599.808 -3.09031 -0.436605 0
M  V30 6454 N 600.109 -0.101901 -1.5727 0
M  V30 6455 C 601.334 0.571759 -1.99363 0
M  V30 6456 C 601.759 1.60507 -0.980768 0
M  V30 6457 O 601.117 1.81231 0.0498517 0
M  V30 6458 C 601.165 1.18996 -3.404 0
M  V30 6459 O 600.269 2.30572 -3.41922 0
M  V30 6460 H 599.61 0.144449 -0.648098 0
M  V30 6461 H 602.14 -0.185325 -2.03759 0
M  V30 6462 H 602.15 1.52962 -3.78241 0
M  V30 6463 H 600.825 0.432984 -4.1364 0
M  V30 6464 H 599.402 1.98173 -3.15883 0
M  V30 6465 N 601.587 1.56661 0.17182 0
M  V30 6466 C 602.52 1.91474 1.24149 0
M  V30 6467 C 603.498 0.777485 1.42807 0
M  V30 6468 O 604.682 1.03075 1.57822 0
M  V30 6469 C 601.809 2.16523 2.60453 0
M  V30 6470 C 600.855 3.39209 2.58533 0
M  V30 6471 S 601.688 4.93594 2.07665 0
M  V30 6472 C 602.844 5.21737 3.45747 0
M  V30 6473 H 603.077 2.81903 0.944346 0
M  V30 6474 H 600.61 1.49743 0.376364 0
M  V30 6475 H 602.568 2.31635 3.38903 0
M  V30 6476 H 601.229 1.26802 2.87368 0
M  V30 6477 H 600.422 3.53935 3.58812 0
M  V30 6478 H 600.024 3.2321 1.88178 0
M  V30 6479 H 602.316 5.13684 4.41741 0
M  V30 6480 H 603.259 6.23361 3.35896 0
M  V30 6481 H 603.667 4.49307 3.41736 0
M  V30 6482 N 603.065 -0.440357 1.51323 0
M  V30 6483 C 603.995 -1.54174 1.75364 0
M  V30 6484 C 604.976 -1.59039 0.603375 0
M  V30 6485 O 606.161 -1.74815 0.845774 0
M  V30 6486 C 603.291 -2.92277 1.87593 0
M  V30 6487 C 602.245 -3.02274 3.03009 0
M  V30 6488 C 601.571 -4.42327 3.00418 0
M  V30 6489 C 602.871 -2.76634 4.43024 0
M  V30 6490 H 604.565 -1.34307 2.67585 0
M  V30 6491 H 602.111 -0.644678 1.28763 0
M  V30 6492 H 604.064 -3.69284 2.02995 0
M  V30 6493 H 602.788 -3.13369 0.920179 0
M  V30 6494 H 601.447 -2.27706 2.87307 0
M  V30 6495 H 601.095 -4.60382 2.02626 0
M  V30 6496 H 600.795 -4.49946 3.77918 0
M  V30 6497 H 602.319 -5.21312 3.17909 0
M  V30 6498 H 603.733 -3.43376 4.59093 0
M  V30 6499 H 602.13 -2.95666 5.22208 0
M  V30 6500 H 603.2 -1.72262 4.5327 0
M  V30 6501 N 604.543 -1.41418 -0.695603 0
M  V30 6502 C 605.475 -1.39195 -1.82092 0
M  V30 6503 C 606.488 -0.294132 -1.60121 0
M  V30 6504 O 607.677 -0.555854 -1.69625 0
M  V30 6505 C 604.777 -1.14828 -3.18854 0
M  V30 6506 C 603.95 -2.36649 -3.67853 0
M  V30 6507 C 603.009 -2.08139 -4.83285 0
M  V30 6508 O 602.035 -2.81177 -4.94902 0
M  V30 6509 N 603.237 -1.07162 -5.70523 0
M  V30 6510 H 606.002 -2.36185 -1.84491 0
M  V30 6511 H 603.563 -1.3603 -0.877923 0
M  V30 6512 H 605.555 -0.937075 -3.93702 0
M  V30 6513 H 604.125 -0.264358 -3.1148 0
M  V30 6514 H 603.345 -2.73472 -2.83913 0
M  V30 6515 H 604.633 -3.17816 -3.97329 0
M  V30 6516 H 604.031 -0.467124 -5.63768 0
M  V30 6517 H 602.588 -0.920311 -6.4527 0
M  V30 6518 N 606.021 0.929856 -1.27246 0
M  V30 6519 C 606.984 2.01172 -1.09829 0
M  V30 6520 C 607.984 1.60743 -0.0429687 0
M  V30 6521 O 609.174 1.71813 -0.287373 0
M  V30 6522 C 606.306 3.34191 -0.673003 0
M  V30 6523 H 607.499 2.18054 -2.05895 0
M  V30 6524 H 605.052 1.11036 -1.10003 0
M  V30 6525 H 605.787 3.23009 0.289134 0
M  V30 6526 H 605.572 3.64892 -1.43515 0
M  V30 6527 H 607.062 4.13646 -0.573323 0
M  V30 6528 N 607.499 1.09233 1.13605 0
M  V30 6529 C 608.91 0.846839 1.6639 0
M  V30 6530 C 609.261 -0.625031 1.85978 0
M  V30 6531 O 608.386 -1.48173 1.57714 0
M  V30 6532 C 608.981 1.5307 3.0225 0
M  V30 6533 C 607.54 1.33223 3.52035 0
M  V30 6534 C 606.687 1.58806 2.27323 0
M  V30 6535 H 609.638 1.25175 0.975541 0
M  V30 6536 H 609.659 0.96267 3.68121 0
M  V30 6537 H 609.171 2.60192 2.87961 0
M  V30 6538 H 607.272 0.282091 3.71531 0
M  V30 6539 H 607.385 2.0657 4.32279 0
M  V30 6540 H 605.749 1.01007 2.33815 0
M  V30 6541 H 606.532 2.67153 2.15602 0
M  V30 6542 N 608.977 -1.30795 0.87923 0
M  V30 6543 C 609.887 -2.32041 0.345565 0
M  V30 6544 C 610.903 -1.65103 -0.549265 0
M  V30 6545 O 612.079 -1.9645 -0.443763 0
M  V30 6546 C 609.144 -3.43944 -0.436245 0
M  V30 6547 C 608.205 -4.26521 0.48765 0
M  V30 6548 C 607.438 -5.33081 -0.256943 0
M  V30 6549 O 607.661 -5.50762 -1.48381 0
M  V30 6550 O 606.595 -6.00635 0.389985 0
M  V30 6551 H 610.421 -2.79627 1.18501 0
M  V30 6552 H 608.006 -1.3486 0.642885 0
M  V30 6553 H 609.888 -4.12128 -0.879119 0
M  V30 6554 H 608.563 -2.98504 -1.25208 0
M  V30 6555 H 607.47 -3.61057 0.979216 0
M  V30 6556 H 608.803 -4.75551 1.26933 0
M  V30 6557 N 610.455 -0.639598 -1.44038 0
M  V30 6558 C 611.385 0.0469443 -2.33453 0
M  V30 6559 C 612.366 0.82609 -1.48694 0
M  V30 6560 O 613.551 0.790285 -1.77393 0
M  V30 6561 C 610.681 1.02338 -3.3188 0
M  V30 6562 C 609.635 0.355284 -4.26523 0
M  V30 6563 C 608.961 1.44221 -5.14883 0
M  V30 6564 C 610.261 -0.743798 -5.16977 0
M  V30 6565 H 611.955 -0.699735 -2.91108 0
M  V30 6566 H 609.501 -0.337946 -1.39978 0
M  V30 6567 H 611.454 1.51247 -3.93322 0
M  V30 6568 H 610.178 1.80105 -2.72451 0
M  V30 6569 H 608.837 -0.113239 -3.66425 0
M  V30 6570 H 608.485 2.21097 -4.51802 0
M  V30 6571 H 608.185 1.00052 -5.79019 0
M  V30 6572 H 609.709 1.93295 -5.79197 0
M  V30 6573 H 611.123 -0.337444 -5.72306 0
M  V30 6574 H 609.52 -1.10914 -5.89761 0
M  V30 6575 H 610.59 -1.60745 -4.57481 0
M  V30 6576 N 611.933 1.52934 -0.380664 0
M  V30 6577 C 613.344 1.86457 0.0952684 0
M  V30 6578 C 613.695 1.3007 1.46889 0
M  V30 6579 O 612.82 0.628636 2.07068 0
M  V30 6580 C 613.415 3.38323 0.179648 0
M  V30 6581 C 611.974 3.71589 0.599858 0
M  V30 6582 C 611.121 2.76228 -0.243572 0
M  V30 6583 H 614.072 1.46966 -0.59888 0
M  V30 6584 H 614.093 3.67113 1.00042 0
M  V30 6585 H 613.605 3.79333 -0.820228 0
M  V30 6586 H 611.706 3.36144 1.60742 0
M  V30 6587 H 611.819 4.77715 0.364003 0
M  V30 6588 H 610.183 2.53045 0.289855 0
M  V30 6589 H 610.966 3.20074 -1.24127 0
M  V30 6590 N 613.412 0.11024 1.57214 0
M  V30 6591 C 614.64 -0.557834 1.99238 0
M  V30 6592 C 615.055 -1.60778 0.989734 0
M  V30 6593 O 614.412 -1.82491 -0.0186092 0
M  V30 6594 C 614.463 -1.19189 3.41286 0
M  V30 6595 O 614.184 -0.183919 4.37714 0
M  V30 6596 C 615.685 -1.94413 3.98395 0
M  V30 6597 H 612.905 -0.148392 0.654386 0
M  V30 6598 H 615.449 0.193996 2.03578 0
M  V30 6599 H 613.604 -1.89456 3.37913 0
M  V30 6600 H 614.018 -0.643475 5.20538 0
M  V30 6601 H 615.492 -2.34116 4.99894 0
M  V30 6602 H 615.969 -2.81592 3.3705 0
M  V30 6603 H 616.575 -1.28928 4.05287 0
M  V30 6604 N 614.89 -1.56749 -0.16351 0
M  V30 6605 C 615.837 -1.97011 -1.2023 0
M  V30 6606 C 616.807 -0.835186 -1.43575 0
M  V30 6607 O 617.992 -1.09594 -1.56185 0
M  V30 6608 C 615.132 -2.34186 -2.53478 0
M  V30 6609 C 614.245 -3.60893 -2.37446 0
M  V30 6610 C 613.38 -3.87245 -3.63614 0
M  V30 6611 C 612.419 -5.07274 -3.42548 0
M  V30 6612 N 611.556 -5.29719 -4.60806 0
M  V30 6613 H 616.396 -2.85562 -0.851958 0
M  V30 6614 H 613.933 -1.41292 -0.409257 0
M  V30 6615 H 615.891 -2.53764 -3.31149 0
M  V30 6616 H 614.521 -1.48736 -2.86492 0
M  V30 6617 H 613.573 -3.49185 -1.50911 0
M  V30 6618 H 614.885 -4.48722 -2.1783 0
M  V30 6619 H 614.039 -4.07232 -4.49719 0
M  V30 6620 H 612.778 -2.97806 -3.86216 0
M  V30 6621 H 611.783 -4.87177 -2.5483 0
M  V30 6622 H 613.008 -5.98251 -3.2136 0
M  V30 6623 H 610.954 -4.43233 -4.83612 0
M  V30 6624 H 610.871 -6.11786 -4.44132 0
M  V30 6625 H 612.139 -5.54192 -5.48171 0
M  V30 6626 N 616.368 0.432326 -1.51554 0
M  V30 6627 C 617.596 1.20364 -1.68286 0
M  V30 6628 C 618.011 1.84888 -0.38233 0
M  V30 6629 O 617.368 1.70924 0.639627 0
M  V30 6630 C 617.419 2.28398 -2.80208 0
M  V30 6631 O 617.14 1.66512 -4.05223 0
M  V30 6632 C 618.641 3.18584 -3.08251 0
M  V30 6633 H 615.861 0.36259 -0.564596 0
M  V30 6634 H 618.405 0.511647 -1.97996 0
M  V30 6635 H 616.56 2.93305 -2.53083 0
M  V30 6636 H 616.974 2.37951 -4.67418 0
M  V30 6637 H 618.448 3.90511 -3.90135 0
M  V30 6638 H 618.925 3.79628 -2.2086 0
M  V30 6639 H 619.531 2.59372 -3.37055 0
M  V30 6640 N 617.846 1.41785 0.688094 0
M  V30 6641 C 619.262 1.24419 0.999608 0
M  V30 6642 C 619.462 0.138868 2.01021 0
M  V30 6643 O 618.518 -0.494283 2.47615 0
M  V30 6644 C 619.831 2.59625 1.51709 0
M  V30 6645 C 621.379 2.66869 1.63554 0
M  V30 6646 C 621.854 4.0241 2.18702 0
M  V30 6647 N 623.345 4.04295 2.26053 0
M  V30 6648 C 624.08 5.05977 2.69768 0
M  V30 6649 N 623.576 6.18047 3.13033 0
M  V30 6650 N 625.369 4.93336 2.69398 0
M  V30 6651 H 617.52 2.12392 0.0187427 0
M  V30 6652 H 619.783 0.945347 0.0708673 0
M  V30 6653 H 619.489 3.41297 0.849059 0
M  V30 6654 H 619.363 2.82628 2.49803 0
M  V30 6655 H 621.75 1.8555 2.29467 0
M  V30 6656 H 621.831 2.47668 0.639857 0
M  V30 6657 H 621.475 4.8418 1.53402 0
M  V30 6658 H 621.405 4.18955 3.19037 0
M  V30 6659 H 623.896 3.23383 1.9553 0
M  V30 6660 H 624.209 6.91498 3.45038 0
M  V30 6661 H 622.554 6.21572 3.10923 0
M  V30 6662 H 625.745 4.04865 2.34952 0
M  V30 6663 H 625.918 5.72717 3.03148 0
M  V30 6664 N 619.324 -0.923095 1.27737 0
M  V30 6665 C 620.552 -1.70525 1.17171 0
M  V30 6666 C 620.967 -1.86847 -0.270881 0
M  V30 6667 O 620.324 -1.38879 -1.18401 0
M  V30 6668 C 620.375 -3.10242 1.85559 0
M  V30 6669 O 620.096 -2.94683 3.24182 0
M  V30 6670 C 621.597 -4.04586 1.81176 0
M  V30 6671 H 618.817 -0.533347 0.407163 0
M  V30 6672 H 621.361 -1.15599 1.68692 0
M  V30 6673 H 619.516 -3.62014 1.3793 0
M  V30 6674 H 619.93 -3.83045 3.58297 0
M  V30 6675 H 621.404 -5.00119 2.33633 0
M  V30 6676 H 621.881 -4.3218 0.782099 0
M  V30 6677 H 622.487 -3.58741 2.2844 0
M  V30 6678 N 620.802 -1.09834 -1.13024 0
M  V30 6679 C 622.042 -0.846664 -1.8604 0
M  V30 6680 C 622.406 0.616557 -1.81831 0
M  V30 6681 O 623.607 0.984329 -2.50129 0
M  V30 6682 C 621.878 -1.37228 -3.30005 0
M  V30 6683 S 623.437 -1.25511 -4.20467 0
M  V30 6684 H 620.255 -0.30611 -0.64173 0
M  V30 6685 H 622.857 -1.40255 -1.36194 0
M  V30 6686 H 621.561 -2.43138 -3.30624 0
M  V30 6687 H 621.092 -0.81271 -3.84914 0
M  V30 6688 H 623.107 -0.208762 -4.95761 0
M  V30 6689 N 622.28 1.30327 -0.886154 0
M  V30 6690 C 623.696 1.48676 -0.580323 0
M  V30 6691 C 623.896 1.81189 0.881639 0
M  V30 6692 O 622.952 1.90021 1.66278 0
M  V30 6693 C 624.265 2.60932 -1.49449 0
M  V30 6694 C 625.813 2.74812 -1.49824 0
M  V30 6695 C 626.288 3.90183 -2.39836 0
M  V30 6696 N 627.779 3.97495 -2.37806 0
M  V30 6697 C 628.514 4.86078 -3.04165 0
M  V30 6698 N 628.01 5.79448 -3.79753 0
M  V30 6699 N 629.803 4.79456 -2.93391 0
M  V30 6700 H 621.954 1.07495 -1.8319 0
M  V30 6701 H 624.217 0.532661 -0.784204 0
M  V30 6702 H 623.923 2.43731 -2.5355 0
M  V30 6703 H 623.797 3.57437 -1.20494 0
M  V30 6704 H 626.184 2.91418 -0.464731 0
M  V30 6705 H 626.265 1.78924 -1.82811 0
M  V30 6706 H 625.909 3.74334 -3.43273 0
M  V30 6707 H 625.839 4.85411 -2.04166 0
M  V30 6708 H 628.33 3.30703 -1.82877 0
M  V30 6709 H 628.643 6.43805 -4.27475 0
M  V30 6710 H 626.988 5.79376 -3.8386 0
M  V30 6711 H 630.179 4.05494 -2.33864 0
M  V30 6712 H 630.352 5.48283 -3.45383 0
M  V30 6713 N 623.758 0.647228 1.43697 0
M  V30 6714 C 625.174 0.314256 1.56476 0
M  V30 6715 C 625.374 -1.18191 1.63196 0
M  V30 6716 O 624.43 -1.96655 1.58376 0
M  V30 6717 C 625.743 1.02034 2.82859 0
M  V30 6718 C 627.291 1.00002 2.96595 0
M  V30 6719 C 627.766 1.68689 4.25803 0
M  V30 6720 N 629.257 1.65424 4.32654 0
M  V30 6721 C 629.992 2.1545 5.31384 0
M  V30 6722 N 629.488 2.73738 6.36427 0
M  V30 6723 N 631.281 2.05985 5.22998 0
M  V30 6724 H 623.432 1.61821 1.37578 0
M  V30 6725 H 625.695 0.680184 0.660344 0
M  V30 6726 H 625.401 2.07542 2.83935 0
M  V30 6727 H 625.275 0.568146 3.72897 0
M  V30 6728 H 627.662 -0.0466319 2.95063 0
M  V30 6729 H 627.743 1.49086 2.07863 0
M  V30 6730 H 627.387 2.73308 4.28095 0
M  V30 6731 H 627.317 1.17076 5.13421 0
M  V30 6732 H 629.808 1.22884 3.57363 0
M  V30 6733 H 630.121 3.09602 7.08072 0
M  V30 6734 H 628.466 2.77796 6.37067 0
M  V30 6735 H 631.657 1.60157 4.39849 0
M  V30 6736 H 631.83 2.45281 5.99784 0
M  V30 6737 N 625.236 -1.5273 0.388769 0
M  V30 6738 C 626.199 -2.25043 -0.434544 0
M  V30 6739 C 627.199 -1.26661 -0.990644 0
M  V30 6740 O 628.389 -1.50762 -0.872731 0
M  V30 6741 C 625.521 -3.00507 -1.60961 0
M  V30 6742 H 626.714 -2.99242 0.198549 0
M  V30 6743 H 624.267 -1.55664 0.140875 0
M  V30 6744 H 625.002 -2.30607 -2.28015 0
M  V30 6745 H 624.787 -3.72716 -1.21757 0
M  V30 6746 H 626.277 -3.55413 -2.19251 0
M  V30 6747 N 626.714 -0.118576 -1.57153 0
M  V30 6748 C 627.677 0.817464 -2.14127 0
M  V30 6749 C 628.677 1.1949 -1.07604 0
M  V30 6750 O 629.867 1.12048 -1.33382 0
M  V30 6751 C 626.999 2.10541 -2.68115 0
M  V30 6752 H 628.192 0.322339 -2.98163 0
M  V30 6753 H 625.745 0.130655 -1.55753 0
M  V30 6754 H 626.48 2.64485 -1.87665 0
M  V30 6755 H 626.265 1.84425 -3.4602 0
M  V30 6756 H 627.755 2.77453 -3.12105 0
M  V30 6757 N 628.193 1.56834 0.155195 0
M  V30 6758 C 629.103 2.009 1.21146 0
M  V30 6759 C 630.119 0.923029 1.475 0
M  V30 6760 O 631.295 1.23189 1.59331 0
M  V30 6761 C 628.36 2.37378 2.52691 0
M  V30 6762 C 627.421 3.59883 2.34057 0
M  V30 6763 C 626.654 3.94612 3.59329 0
M  V30 6764 O 626.877 3.30104 4.65175 0
M  V30 6765 O 625.811 4.87895 3.52479 0
M  V30 6766 H 629.637 2.9105 0.867371 0
M  V30 6767 H 627.222 1.44916 0.363298 0
M  V30 6768 H 629.104 2.61737 3.3026 0
M  V30 6769 H 627.779 1.50385 2.86646 0
M  V30 6770 H 626.686 3.40722 1.54465 0
M  V30 6771 H 628.019 4.47468 2.0502 0
M  V30 6772 N 629.671 -0.424282 1.51781 0
M  V30 6773 C 630.603 -1.53457 1.70246 0
M  V30 6774 C 631.616 -1.52004 0.582967 0
M  V30 6775 O 632.805 -1.56544 0.857683 0
M  V30 6776 C 629.905 -2.92368 1.71389 0
M  V30 6777 C 629.078 -3.1818 3.00133 0
M  V30 6778 C 628.137 -4.36884 2.9329 0
M  V30 6779 O 627.163 -4.34901 3.67219 0
M  V30 6780 N 628.365 -5.4117 2.10036 0
M  V30 6781 H 631.13 -1.38017 2.66029 0
M  V30 6782 H 628.691 -0.613394 1.4983 0
M  V30 6783 H 630.683 -3.6982 1.64362 0
M  V30 6784 H 629.253 -3.0134 0.831449 0
M  V30 6785 H 628.473 -2.28908 3.20928 0
M  V30 6786 H 629.761 -3.32261 3.85331 0
M  V30 6787 H 629.159 -5.45623 1.49373 0
M  V30 6788 H 627.716 -6.17425 2.08878 0
M  V30 6789 N 631.149 -1.42148 -0.680565 0
M  V30 6790 C 632.096 -1.45175 -1.79424 0
M  V30 6791 C 633.066 -0.304352 -1.63288 0
M  V30 6792 O 634.251 -0.507591 -1.83924 0
M  V30 6793 C 631.391 -1.35429 -3.17416 0
M  V30 6794 C 630.504 -2.60158 -3.4488 0
M  V30 6795 C 629.639 -2.42596 -4.72568 0
M  V30 6796 C 628.678 -3.62727 -4.93047 0
M  V30 6797 N 627.815 -3.44143 -6.11973 0
M  V30 6798 H 632.655 -2.40349 -1.76172 0
M  V30 6799 H 630.192 -1.19334 -0.860107 0
M  V30 6800 H 632.15 -1.27777 -3.97151 0
M  V30 6801 H 630.78 -0.438536 -3.19807 0
M  V30 6802 H 629.832 -2.78199 -2.5944 0
M  V30 6803 H 631.144 -3.49473 -3.55908 0
M  V30 6804 H 630.298 -2.32497 -5.60384 0
M  V30 6805 H 629.037 -1.50761 -4.63813 0
M  V30 6806 H 628.042 -3.73264 -4.03676 0
M  V30 6807 H 629.267 -4.55534 -5.03652 0
M  V30 6808 H 627.213 -2.5502 -6.04401 0
M  V30 6809 H 627.13 -4.27041 -6.23836 0
M  V30 6810 H 628.398 -3.37845 -7.02482 0
M  V30 6811 N 632.627 0.916307 -1.28225 0
M  V30 6812 C 633.59 1.99996 -1.11957 0
M  V30 6813 C 634.59 1.60688 -0.0600152 0
M  V30 6814 O 635.78 1.71499 -0.30558 0
M  V30 6815 C 632.912 3.33458 -0.708411 0
M  V30 6816 H 634.105 2.15858 -2.08196 0
M  V30 6817 H 631.658 1.09863 -1.11175 0
M  V30 6818 H 632.393 3.23297 0.254859 0
M  V30 6819 H 632.178 3.63349 -1.47377 0
M  V30 6820 H 633.668 4.13014 -0.617164 0
M  V30 6821 N 634.105 1.10431 1.1244 0
M  V30 6822 C 635.33 0.869089 1.88313 0
M  V30 6823 C 635.755 -0.574912 1.79099 0
M  V30 6824 O 635.113 -1.40496 1.14589 0
M  V30 6825 C 635.161 1.32208 3.3549 0
M  V30 6826 O 634.265 0.487092 4.09513 0
M  V30 6827 H 633.606 0.313894 0.585121 0
M  V30 6828 H 636.136 1.47111 1.42195 0
M  V30 6829 H 636.146 1.31201 3.86329 0
M  V30 6830 H 634.821 2.37364 3.41513 0
M  V30 6831 H 633.398 0.562372 3.68635 0
M  V30 6832 N 635.583 -1.29855 0.893053 0
M  V30 6833 C 636.994 -1.77946 0.564998 0
M  V30 6834 C 637.345 -1.73339 -0.919134 0
M  V30 6835 O 636.47 -1.3152 -1.71847 0
M  V30 6836 C 637.065 -3.23118 1.01883 0
M  V30 6837 C 635.624 -3.69013 0.742051 0
M  V30 6838 C 634.771 -2.50121 1.19727 0
M  V30 6839 H 637.722 -1.16611 1.07646 0
M  V30 6840 H 637.743 -3.78875 0.351249 0
M  V30 6841 H 637.255 -3.26439 2.09903 0
M  V30 6842 H 635.356 -3.71173 -0.325816 0
M  V30 6843 H 635.469 -4.60117 1.33527 0
M  V30 6844 H 633.833 -2.47128 0.616418 0
M  V30 6845 H 634.616 -2.56174 2.28538 0
M  V30 6846 N 637.061 -0.65484 -1.43351 0
M  V30 6847 C 638.472 -0.248506 -1.85039 0
M  V30 6848 C 638.823 1.20526 -1.54816 0
M  V30 6849 O 637.948 1.92016 -0.99794 0
M  V30 6850 C 638.543 -0.444241 -3.35875 0
M  V30 6851 C 637.102 -0.0922108 -3.76287 0
M  V30 6852 C 636.249 -0.746327 -2.67068 0
M  V30 6853 H 639.2 -0.8584 -1.33481 0
M  V30 6854 H 639.221 0.309762 -3.79237 0
M  V30 6855 H 638.733 -1.50239 -3.5784 0
M  V30 6856 H 636.834 0.96328 -3.59933 0
M  V30 6857 H 636.947 -0.518807 -4.76283 0
M  V30 6858 H 635.311 -0.179416 -2.54067 0
M  V30 6859 H 636.094 -1.80754 -2.91861 0
M  V30 6860 N 638.539 1.52521 -0.396863 0
M  V30 6861 C 639.764 2.06571 0.185258 0
M  V30 6862 C 640.189 1.26605 1.39115 0
M  V30 6863 O 639.547 0.293055 1.78916 0
M  V30 6864 C 639.595 3.5674 0.526189 0
M  V30 6865 O 638.699 3.7929 1.61903 0
M  V30 6866 H 638.04 0.663712 0.0195474 0
M  V30 6867 H 640.57 1.966 -0.566519 0
M  V30 6868 H 640.58 4.00311 0.788338 0
M  V30 6869 H 639.255 4.14379 -0.355397 0
M  V30 6870 H 637.832 3.47605 1.35 0
M  V30 6871 N 640.017 0.126909 1.57088 0
M  V30 6872 C 640.947 -0.816847 2.18746 0
M  V30 6873 C 641.928 -1.27161 1.12979 0
M  V30 6874 O 643.113 -1.33279 1.41246 0
M  V30 6875 C 640.243 -2.06398 2.79315 0
M  V30 6876 C 639.197 -1.74673 3.90735 0
M  V30 6877 C 638.523 -3.06482 4.38147 0
M  V30 6878 C 639.823 -1.0089 5.12463 0
M  V30 6879 H 641.517 -0.303032 2.97863 0
M  V30 6880 H 639.063 -0.144314 1.43275 0
M  V30 6881 H 641.016 -2.72885 3.2111 0
M  V30 6882 H 639.74 -2.60118 1.975 0
M  V30 6883 H 638.399 -1.10572 3.49527 0
M  V30 6884 H 638.047 -3.58152 3.5318 0
M  V30 6885 H 637.747 -2.86025 5.13287 0
M  V30 6886 H 639.271 -3.74073 4.82599 0
M  V30 6887 H 640.685 -1.57546 5.51228 0
M  V30 6888 H 639.082 -0.905006 5.93237 0
M  V30 6889 H 640.152 0.00297335 4.849 0
M  V30 6890 N 641.495 -1.56914 -0.146875 0
M  V30 6891 C 642.723 -1.87515 -0.874394 0
M  V30 6892 C 643.138 -0.715116 -1.74733 0
M  V30 6893 O 642.495 0.315113 -1.79759 0
M  V30 6894 C 642.546 -3.17362 -1.731 0
M  V30 6895 O 642.267 -4.28897 -0.893245 0
M  V30 6896 C 643.768 -3.61479 -2.56609 0
M  V30 6897 H 640.988 -0.621546 -0.252827 0
M  V30 6898 H 643.532 -2.04023 -0.139627 0
M  V30 6899 H 641.687 -3.02608 -2.41883 0
M  V30 6900 H 642.101 -5.03146 -1.48137 0
M  V30 6901 H 643.575 -4.5517 -3.12289 0
M  V30 6902 H 644.052 -2.86773 -3.32653 0
M  V30 6903 H 644.658 -3.78927 -1.93117 0
M  V30 6904 N 642.974 0.416227 -1.52004 0
M  V30 6905 C 644.385 0.995319 -1.57957 0
M  V30 6906 C 644.736 1.91744 -0.415754 0
M  V30 6907 O 643.861 2.11349 0.464808 0
M  V30 6908 C 644.456 1.81191 -2.86278 0
M  V30 6909 C 643.015 2.34115 -2.94732 0
M  V30 6910 C 642.162 1.139 -2.52828 0
M  V30 6911 H 645.113 0.196716 -1.57476 0
M  V30 6912 H 645.134 2.66859 -2.71231 0
M  V30 6913 H 644.646 1.14051 -3.70963 0
M  V30 6914 H 642.747 3.04647 -2.14525 0
M  V30 6915 H 642.86 2.65466 -3.98829 0
M  V30 6916 H 641.224 1.49081 -2.06511 0
M  V30 6917 H 642.007 0.483383 -3.3988 0
M  V30 6918 N 644.452 1.42507 0.673017 0
M  V30 6919 C 645.399 1.46124 1.78651 0
M  V30 6920 C 646.369 0.313007 1.63124 0
M  V30 6921 O 647.554 0.517337 1.83653 0
M  V30 6922 C 644.694 1.3711 3.16694 0
M  V30 6923 C 643.807 2.61983 3.43495 0
M  V30 6924 C 642.942 2.45098 4.71275 0
M  V30 6925 C 641.981 3.65336 4.91117 0
M  V30 6926 N 641.118 3.47383 6.10139 0
M  V30 6927 H 645.958 2.4128 1.74895 0
M  V30 6928 H 643.495 1.19788 0.853766 0
M  V30 6929 H 645.453 1.29881 3.96468 0
M  V30 6930 H 644.083 0.45549 3.1957 0
M  V30 6931 H 643.135 2.79571 2.57961 0
M  V30 6932 H 644.447 3.51355 3.5405 0
M  V30 6933 H 643.601 2.35466 5.59143 0
M  V30 6934 H 642.34 1.53219 4.63007 0
M  V30 6935 H 641.345 3.754 4.0169 0
M  V30 6936 H 642.57 4.58199 5.01229 0
M  V30 6937 H 640.516 2.58222 6.0304 0
M  V30 6938 H 640.433 4.30344 6.21563 0
M  V30 6939 H 641.701 3.41565 7.00681 0
M  V30 6940 N 645.93 -0.909495 1.28709 0
M  V30 6941 C 646.86 -2.0291 1.15542 0
M  V30 6942 C 647.841 -1.7002 0.0521017 0
M  V30 6943 O 649.026 -1.92835 0.229849 0
M  V30 6944 C 646.156 -3.37458 0.820935 0
M  V30 6945 C 645.11 -3.84524 1.87949 0
M  V30 6946 C 644.436 -5.16086 1.39854 0
M  V30 6947 C 645.736 -4.05918 3.28676 0
M  V30 6948 H 647.43 -2.14183 2.09203 0
M  V30 6949 H 644.976 -1.02913 1.00722 0
M  V30 6950 H 646.929 -4.1528 0.715571 0
M  V30 6951 H 645.653 -3.26249 -0.151374 0
M  V30 6952 H 644.312 -3.08911 1.97408 0
M  V30 6953 H 643.96 -5.01284 0.41518 0
M  V30 6954 H 643.66 -5.48547 2.1064 0
M  V30 6955 H 645.184 -5.96459 1.30649 0
M  V30 6956 H 646.598 -4.74252 3.22115 0
M  V30 6957 H 644.995 -4.49717 3.97334 0
M  V30 6958 H 646.065 -3.10583 3.72379 0
M  V30 6959 N 647.408 -1.11026 -1.11852 0
M  V30 6960 C 648.338 -0.786812 -2.19844 0
M  V30 6961 C 649.319 0.242935 -1.68356 0
M  V30 6962 O 650.504 0.107355 -1.93903 0
M  V30 6963 C 647.634 -0.224516 -3.46574 0
M  V30 6964 C 646.588 -1.18564 -4.1125 0
M  V30 6965 C 645.914 -0.484261 -5.32503 0
M  V30 6966 C 647.214 -2.53465 -4.56676 0
M  V30 6967 H 648.908 -1.68978 -2.47158 0
M  V30 6968 H 646.454 -0.813906 -1.18792 0
M  V30 6969 H 648.407 0.0139435 -4.21398 0
M  V30 6970 H 647.131 0.713722 -3.18706 0
M  V30 6971 H 645.79 -1.40966 -3.38414 0
M  V30 6972 H 645.438 0.458646 -5.00905 0
M  V30 6973 H 645.138 -1.12526 -5.76725 0
M  V30 6974 H 646.662 -0.254492 -6.10069 0
M  V30 6975 H 648.076 -2.35177 -5.22843 0
M  V30 6976 H 646.473 -3.13507 -5.11697 0
M  V30 6977 H 647.543 -3.13008 -3.70343 0
M  V30 6978 N 648.886 1.2938 -0.899927 0
M  V30 6979 C 650.302 1.48052 -0.596059 0
M  V30 6980 C 650.502 1.82114 0.862372 0
M  V30 6981 O 649.558 1.91774 1.64253 0
M  V30 6982 C 650.871 2.59332 -1.52208 0
M  V30 6983 C 652.419 2.73208 -1.5273 0
M  V30 6984 C 652.894 3.87617 -2.43961 0
M  V30 6985 N 654.385 3.9495 -2.42009 0
M  V30 6986 C 655.12 4.82824 -3.09303 0
M  V30 6987 N 654.616 5.75387 -3.85877 0
M  V30 6988 N 656.409 4.76317 -2.98459 0
M  V30 6989 H 648.56 1.05546 -1.8432 0
M  V30 6990 H 650.823 0.524314 -0.78981 0
M  V30 6991 H 650.529 2.41029 -2.56121 0
M  V30 6992 H 650.403 3.56139 -1.24278 0
M  V30 6993 H 652.79 2.90908 -0.495614 0
M  V30 6994 H 652.871 1.76975 -1.84698 0
M  V30 6995 H 652.515 3.70672 -3.47224 0
M  V30 6996 H 652.445 4.83218 -2.09303 0
M  V30 6997 H 654.936 3.28744 -1.86375 0
M  V30 6998 H 655.249 6.39235 -4.34279 0
M  V30 6999 H 653.594 5.75272 -3.89984 0
M  V30 7000 H 656.785 4.0299 -2.38152 0
M  V30 7001 H 656.958 5.44589 -3.51179 0
M  V30 7002 N 650.364 0.662433 1.43002 0
M  V30 7003 C 651.78 0.330835 1.56133 0
M  V30 7004 C 651.98 -1.16454 1.64441 0
M  V30 7005 O 651.036 -1.94964 1.60453 0
M  V30 7006 C 652.349 1.05029 2.81761 0
M  V30 7007 C 653.897 1.03142 2.95518 0
M  V30 7008 C 654.372 1.73196 4.2399 0
M  V30 7009 N 655.863 1.70004 4.30875 0
M  V30 7010 C 656.598 2.21074 5.29069 0
M  V30 7011 N 656.094 2.80473 6.33488 0
M  V30 7012 N 657.887 2.1152 5.20784 0
M  V30 7013 H 650.038 1.63272 1.35853 0
M  V30 7014 H 652.301 0.687149 0.653092 0
M  V30 7015 H 652.007 2.10542 2.81718 0
M  V30 7016 H 651.881 0.607664 3.72273 0
M  V30 7017 H 654.268 -0.0153339 2.95096 0
M  V30 7018 H 654.349 1.51282 2.0627 0
M  V30 7019 H 653.993 2.77833 4.25172 0
M  V30 7020 H 653.923 1.22515 5.1215 0
M  V30 7021 H 656.414 1.26667 3.56039 0
M  V30 7022 H 656.727 3.17094 7.04749 0
M  V30 7023 H 655.072 2.84538 6.34085 0
M  V30 7024 H 658.263 1.64814 4.38126 0
M  V30 7025 H 658.436 2.51629 5.97149 0
M  V30 7026 N 651.842 -1.52309 0.404946 0
M  V30 7027 C 652.774 -2.24579 -0.45791 0
M  V30 7028 C 653.787 -1.2739 -1.01369 0
M  V30 7029 O 654.976 -1.53363 -0.91335 0
M  V30 7030 C 652.076 -2.9608 -1.64893 0
M  V30 7031 C 651.249 -4.20106 -1.21777 0
M  V30 7032 C 650.308 -4.74468 -2.27523 0
M  V30 7033 O 649.334 -5.37157 -1.88285 0
M  V30 7034 N 650.536 -4.55678 -3.59635 0
M  V30 7035 H 653.301 -2.99265 0.161341 0
M  V30 7036 H 650.862 -1.60228 0.232107 0
M  V30 7037 H 652.854 -3.29344 -2.35191 0
M  V30 7038 H 651.424 -2.24606 -2.17419 0
M  V30 7039 H 650.644 -3.92704 -0.343071 0
M  V30 7040 H 651.932 -5.00658 -0.906596 0
M  V30 7041 H 651.33 -4.05673 -3.94266 0
M  V30 7042 H 649.887 -4.9339 -4.25922 0
M  V30 7043 N 653.32 -0.135238 -1.57019 0
M  V30 7044 C 654.566 0.519563 -1.96032 0
M  V30 7045 C 654.899 1.65284 -1.01955 0
M  V30 7046 O 654.174 1.94408 -0.059727 0
M  V30 7047 C 654.457 1.0369 -3.44848 0
M  V30 7048 C 654.31 -0.0940754 -4.49702 0
M  V30 7049 C 655.629 1.92254 -3.95887 0
M  V30 7050 H 652.748 0.18739 -0.712779 0
M  V30 7051 H 655.39 -0.214086 -1.8879 0
M  V30 7052 H 653.54 1.66209 -3.5115 0
M  V30 7053 H 655.212 -0.73 -4.55487 0
M  V30 7054 H 653.455 -0.754924 -4.27181 0
M  V30 7055 H 654.126 0.309419 -5.51132 0
M  V30 7056 H 656.602 1.39581 -3.9199 0
M  V30 7057 H 655.478 2.25364 -5.00502 0
M  V30 7058 H 655.739 2.85513 -3.37543 0
M  V30 7059 N 654.798 1.5699 0.138552 0
M  V30 7060 C 656.026 1.87976 0.864437 0
M  V30 7061 C 656.441 0.724372 1.74351 0
M  V30 7062 O 655.798 -0.305575 1.79924 0
M  V30 7063 C 655.849 3.18276 1.71414 0
M  V30 7064 O 655.57 4.29365 0.870487 0
M  V30 7065 C 657.071 3.62834 2.54688 0
M  V30 7066 H 654.291 0.622878 0.249528 0
M  V30 7067 H 656.835 2.04094 0.128805 0
M  V30 7068 H 654.99 3.03886 2.40274 0
M  V30 7069 H 655.404 5.03924 1.45466 0
M  V30 7070 H 656.878 4.5682 3.0987 0
M  V30 7071 H 657.355 2.88533 3.31127 0
M  V30 7072 H 657.961 3.79946 1.91105 0
M  V30 7073 N 656.276 -0.40816 1.52223 0
M  V30 7074 C 657.239 -1.48 1.7501 0
M  V30 7075 C 658.239 -1.48367 0.619996 0
M  V30 7076 O 659.429 -1.49874 0.887881 0
M  V30 7077 C 656.561 -2.87403 1.83336 0
M  V30 7078 H 657.754 -1.29086 2.70697 0
M  V30 7079 H 655.307 -0.638715 1.42654 0
M  V30 7080 H 656.042 -3.11686 0.895677 0
M  V30 7081 H 655.827 -2.8854 2.65494 0
M  V30 7082 H 657.317 -3.65103 2.02705 0
M  V30 7083 N 657.755 -1.42862 -0.66545 0
M  V30 7084 C 658.98 -1.47456 -1.45848 0
M  V30 7085 C 659.405 -0.0900312 -1.87884 0
M  V30 7086 O 658.763 0.913587 -1.56599 0
M  V30 7087 C 658.811 -2.41514 -2.67774 0
M  V30 7088 O 657.915 -1.89296 -3.66389 0
M  V30 7089 H 657.256 -0.499236 -0.437789 0
M  V30 7090 H 659.786 -1.8765 -0.815394 0
M  V30 7091 H 659.796 -2.58409 -3.15735 0
M  V30 7092 H 658.471 -3.42099 -2.36519 0
M  V30 7093 H 657.048 -1.82003 -3.25468 0
M  V30 7094 N 659.233 0.902656 -1.29189 0
M  V30 7095 C 660.644 1.46809 -1.15343 0
M  V30 7096 C 660.995 1.94568 0.252517 0
M  V30 7097 O 660.12 1.83454 1.14777 0
M  V30 7098 C 660.715 2.66829 -2.08776 0
M  V30 7099 C 659.274 3.19518 -1.98961 0
M  V30 7100 C 658.421 1.92212 -1.99874 0
M  V30 7101 H 661.372 0.714282 -1.41717 0
M  V30 7102 H 661.393 3.42465 -1.65826 0
M  V30 7103 H 660.905 2.32039 -3.11094 0
M  V30 7104 H 659.006 3.59008 -0.99721 0
M  V30 7105 H 659.119 3.84016 -2.86477 0
M  V30 7106 H 657.483 2.0979 -1.44431 0
M  V30 7107 H 658.266 1.59702 -3.03891 0
M  V30 7108 N 660.711 1.11618 1.11262 0
M  V30 7109 C 661.936 0.889013 1.8738 0
M  V30 7110 C 662.361 -0.555884 1.79698 0
M  V30 7111 O 661.719 -1.39272 1.16073 0
M  V30 7112 C 661.767 1.35759 3.34069 0
M  V30 7113 O 660.871 0.530499 4.08974 0
M  V30 7114 H 660.212 0.320082 0.581759 0
M  V30 7115 H 662.742 1.48611 1.40627 0
M  V30 7116 H 662.752 1.35291 3.84916 0
M  V30 7117 H 661.427 2.40973 3.38976 0
M  V30 7118 H 660.004 0.601439 3.68018 0
M  V30 7119 N 662.189 -1.289 0.906776 0
M  V30 7120 C 663.414 -1.99939 0.551303 0
M  V30 7121 C 663.839 -1.67366 -0.858496 0
M  V30 7122 O 663.197 -0.902176 -1.57259 0
M  V30 7123 C 663.245 -3.52523 0.758937 0
M  V30 7124 O 662.349 -4.11983 -0.185308 0
M  V30 7125 H 661.69 -0.628376 0.214568 0
M  V30 7126 H 664.22 -1.64225 1.2203 0
M  V30 7127 H 664.23 -4.02522 0.666329 0
M  V30 7128 H 662.905 -3.75566 1.78671 0
M  V30 7129 H 661.482 -3.72873 -0.0445577 0
M  V30 7130 N 663.667 -0.670007 -1.42649 0
M  V30 7131 C 664.915 -0.18991 -2.01206 0
M  V30 7132 C 665.236 1.20617 -1.53221 0
M  V30 7133 O 664.506 1.80898 -0.751856 0
M  V30 7134 H 663.086 -0.0672189 -0.743969 0
M  V30 7135 H 665.748 -0.865442 -1.74631 0
M  V30 7136 H 664.844 -0.187481 -3.11536 0
M  V30 7137 N 665.145 1.52092 -0.413018 0
M  V30 7138 C 666.075 2.30021 0.401567 0
M  V30 7139 C 667.056 1.34395 1.04269 0
M  V30 7140 O 668.241 1.63304 1.05097 0
M  V30 7141 C 665.371 3.12447 1.51638 0
M  V30 7142 C 664.325 4.16153 1.00005 0
M  V30 7143 C 663.651 4.86948 2.20875 0
M  V30 7144 C 664.951 5.22275 0.0513757 0
M  V30 7145 H 666.645 2.98365 -0.248704 0
M  V30 7146 H 664.191 1.4349 -0.121052 0
M  V30 7147 H 666.144 3.65733 2.09326 0
M  V30 7148 H 664.868 2.41879 2.19458 0
M  V30 7149 H 663.527 3.63882 0.445549 0
M  V30 7150 H 663.175 4.12905 2.8726 0
M  V30 7151 H 662.875 5.57057 1.86978 0
M  V30 7152 H 664.399 5.43048 2.79162 0
M  V30 7153 H 665.813 5.70778 0.537176 0
M  V30 7154 H 664.21 5.9977 -0.198977 0
M  V30 7155 H 665.28 4.76611 -0.892736 0
M  V30 7156 N 666.623 0.143563 1.56945 0
M  V30 7157 C 667.848 -0.518701 2.00809 0
M  V30 7158 C 668.273 -1.5785 1.02298 0
M  V30 7159 O 667.631 -1.813 -0.0017839 0
M  V30 7160 C 667.679 -1.09929 3.43436 0
M  V30 7161 O 666.783 -2.21425 3.47915 0
M  V30 7162 H 666.124 -0.127215 0.6517 0
M  V30 7163 H 668.654 0.239283 2.03196 0
M  V30 7164 H 668.664 -1.4288 3.82164 0
M  V30 7165 H 667.339 -0.323162 4.14643 0
M  V30 7166 H 665.916 -1.89728 3.21026 0
M  V30 7167 N 668.101 -1.57061 -0.130224 0
M  V30 7168 C 669.051 -1.95941 -1.16582 0
M  V30 7169 C 670.035 -0.832858 -1.37667 0
M  V30 7170 O 671.227 -1.09647 -1.38948 0
M  V30 7171 C 668.356 -2.35777 -2.49528 0
M  V30 7172 C 667.442 -3.5504 -2.31964 0
M  V30 7173 N 667.833 -4.71071 -1.84189 0
M  V30 7174 C 666.131 -3.60453 -2.62659 0
M  V30 7175 C 666.832 -5.53128 -1.80068 0
M  V30 7176 N 665.808 -4.95303 -2.24001 0
M  V30 7177 H 669.61 -2.83117 -0.788806 0
M  V30 7178 H 667.124 -1.58842 -0.3381 0
M  V30 7179 H 669.121 -2.61843 -3.24413 0
M  V30 7180 H 667.781 -1.49961 -2.87996 0
M  V30 7181 H 668.792 -4.94504 -1.53903 0
M  V30 7182 H 665.469 -2.85217 -3.0489 0
M  V30 7183 H 666.859 -6.56182 -1.4448 0
M  V30 7184 N 669.579 0.400081 -1.52437 0
M  V30 7185 C 670.526 1.48803 -1.76426 0
M  V30 7186 C 671.496 1.5461 -0.607032 0
M  V30 7187 O 672.681 1.71041 -0.845563 0
M  V30 7188 C 669.821 2.86156 -1.92896 0
M  V30 7189 C 668.934 2.89587 -3.20567 0
M  V30 7190 C 668.069 4.18296 -3.27417 0
M  V30 7191 C 667.108 4.15736 -4.49255 0
M  V30 7192 N 666.245 5.36032 -4.53447 0
M  V30 7193 H 671.085 1.27649 -2.69276 0
M  V30 7194 H 668.622 0.619451 -1.33421 0
M  V30 7195 H 670.58 3.65901 -2.00429 0
M  V30 7196 H 669.21 3.05785 -1.03418 0
M  V30 7197 H 668.262 2.02278 -3.22161 0
M  V30 7198 H 669.574 2.83562 -4.10358 0
M  V30 7199 H 668.728 5.06439 -3.34072 0
M  V30 7200 H 667.467 4.27028 -2.35581 0
M  V30 7201 H 666.472 3.25982 -4.42737 0
M  V30 7202 H 667.697 4.08636 -5.42396 0
M  V30 7203 H 665.643 5.45415 -3.64498 0
M  V30 7204 H 665.56 5.32038 -5.37096 0
M  V30 7205 H 666.828 6.26104 -4.64343 0
M  V30 7206 N 671.057 1.43213 0.657864 0
M  V30 7207 C 672.004 1.48011 1.77092 0
M  V30 7208 C 672.974 0.330291 1.62783 0
M  V30 7209 O 674.159 0.536787 1.83094 0
M  V30 7210 C 671.299 1.40461 3.15222 0
M  V30 7211 C 670.412 2.65612 3.40697 0
M  V30 7212 C 669.547 2.50083 4.68649 0
M  V30 7213 C 668.586 3.70525 4.87214 0
M  V30 7214 N 667.723 3.53835 6.0642 0
M  V30 7215 H 672.563 2.43121 1.72326 0
M  V30 7216 H 670.1 1.20687 0.841013 0
M  V30 7217 H 672.058 1.34079 3.95068 0
M  V30 7218 H 670.688 0.489359 3.19069 0
M  V30 7219 H 669.74 2.82292 2.54982 0
M  V30 7220 H 671.052 3.5509 3.50303 0
M  V30 7221 H 670.206 2.41383 5.56614 0
M  V30 7222 H 668.945 1.58121 4.61356 0
M  V30 7223 H 667.95 3.79639 3.97686 0
M  V30 7224 H 669.175 4.63489 4.96341 0
M  V30 7225 H 667.121 2.64604 6.00267 0
M  V30 7226 H 667.038 4.36912 6.16963 0
M  V30 7227 H 668.306 3.48978 6.97019 0
M  V30 7228 N 672.536 -0.895792 1.29666 0
M  V30 7229 C 673.446 -2.03329 1.17024 0
M  V30 7230 C 674.462 -1.73753 0.0925962 0
M  V30 7231 O 675.638 -1.99071 0.305431 0
M  V30 7232 C 672.703 -3.36072 0.851841 0
M  V30 7233 C 671.764 -3.7914 2.01373 0
M  V30 7234 C 670.997 -5.05549 1.71043 0
M  V30 7235 O 671.22 -5.66874 0.633213 0
M  V30 7236 O 670.154 -5.44764 2.5596 0
M  V30 7237 H 673.98 -2.16918 2.12556 0
M  V30 7238 H 671.565 -1.02007 1.09156 0
M  V30 7239 H 673.447 -4.15729 0.689006 0
M  V30 7240 H 672.122 -3.23616 -0.0736634 0
M  V30 7241 H 671.029 -3.00233 2.23183 0
M  V30 7242 H 672.362 -3.96186 2.92058 0
M  V30 7243 N 674.014 -1.12206 -1.10668 0
M  V30 7244 C 674.977 -0.790867 -2.15123 0
M  V30 7245 C 675.977 0.193618 -1.5963 0
M  V30 7246 O 677.167 -0.0318728 -1.74171 0
M  V30 7247 C 674.299 -0.174797 -3.40452 0
M  V30 7248 H 675.492 -1.7163 -2.45933 0
M  V30 7249 H 673.045 -0.924993 -1.2599 0
M  V30 7250 H 673.78 0.760478 -3.15257 0
M  V30 7251 H 673.565 -0.88358 -3.82015 0
M  V30 7252 H 675.055 0.0405162 -4.1758 0
M  V30 7253 N 675.492 1.28418 -0.913599 0
M  V30 7254 C 676.72 1.99106 -0.562536 0
M  V30 7255 C 677.135 1.68273 0.856137 0
M  V30 7256 O 676.492 0.935401 1.56705 0
M  V30 7257 C 676.543 3.5338 -0.761903 0
M  V30 7258 O 676.264 3.83127 -2.12475 0
M  V30 7259 C 677.765 4.41328 -0.417651 0
M  V30 7260 H 674.985 0.635798 -0.214481 0
M  V30 7261 H 677.529 1.63618 -1.22676 0
M  V30 7262 H 675.684 3.8713 -0.144676 0
M  V30 7263 H 676.098 4.77763 -2.16431 0
M  V30 7264 H 677.572 5.48642 -0.607919 0
M  V30 7265 H 678.049 4.34422 0.646108 0
M  V30 7266 H 678.655 4.13074 -1.01241 0
M  V30 7267 N 676.97 0.677563 1.42291 0
M  V30 7268 C 677.917 0.000947061 2.308 0
M  V30 7269 C 678.887 -0.789889 1.46116 0
M  V30 7270 O 680.072 -0.761578 1.74942 0
M  V30 7271 C 677.212 -0.942387 3.31984 0
M  V30 7272 C 676.325 -0.14508 4.31756 0
M  V30 7273 C 675.46 -1.08442 5.20013 0
M  V30 7274 C 674.499 -0.278958 6.11464 0
M  V30 7275 N 673.636 -1.17115 6.92263 0
M  V30 7276 H 678.476 0.761521 2.88106 0
M  V30 7277 H 676.013 0.38727 1.41911 0
M  V30 7278 H 677.971 -1.50317 3.89179 0
M  V30 7279 H 676.601 -1.66956 2.76271 0
M  V30 7280 H 675.653 0.532368 3.76656 0
M  V30 7281 H 676.965 0.48015 4.96484 0
M  V30 7282 H 676.119 -1.71504 5.81955 0
M  V30 7283 H 674.858 -1.74353 4.55469 0
M  V30 7284 H 673.863 0.364856 5.48588 0
M  V30 7285 H 675.088 0.376099 6.78058 0
M  V30 7286 H 673.034 -1.81661 6.30345 0
M  V30 7287 H 672.951 -0.601063 7.53607 0
M  V30 7288 H 674.219 -1.78915 7.58689 0
M  V30 7289 N 678.448 -1.51871 0.421078 0
M  V30 7290 C 679.696 -2.01539 -0.150492 0
M  V30 7291 C 680.017 -1.30803 -1.44623 0
M  V30 7292 O 679.287 -0.437568 -1.90951 0
M  V30 7293 H 677.867 -0.744698 -0.0586041 0
M  V30 7294 H 680.529 -1.8668 0.560059 0
M  V30 7295 H 679.625 -3.10264 -0.338068 0
M  V30 7296 N 679.926 -0.151884 -1.56866 0
M  V30 7297 C 681.151 0.508044 -2.01081 0
M  V30 7298 C 681.576 1.57306 -1.03134 0
M  V30 7299 O 680.934 1.81298 -0.0078309 0
M  V30 7300 C 680.982 1.08106 -3.44014 0
M  V30 7301 O 680.086 2.19577 -3.49084 0
M  V30 7302 H 679.427 0.123757 -0.652365 0
M  V30 7303 H 681.957 -0.250055 -2.03066 0
M  V30 7304 H 681.967 1.40851 -3.82916 0
M  V30 7305 H 680.642 0.301168 -4.14808 0
M  V30 7306 H 679.219 1.88023 -3.22027 0
M  V30 7307 N 681.404 1.57128 0.121893 0
M  V30 7308 C 682.367 1.99197 1.13372 0
M  V30 7309 C 683.367 0.881728 1.3447 0
M  V30 7310 O 684.557 1.14783 1.31036 0
M  V30 7311 C 681.689 2.32963 2.4888 0
M  V30 7312 H 682.882 2.89788 0.772204 0
M  V30 7313 H 680.435 1.51952 0.366093 0
M  V30 7314 H 681.17 1.45243 2.89957 0
M  V30 7315 H 680.955 3.13934 2.34921 0
M  V30 7316 H 682.445 2.66261 3.21706 0
M  V30 7317 N 682.882 -0.391992 1.52647 0
M  V30 7318 C 684.107 -1.16312 1.71716 0
M  V30 7319 C 684.532 -1.83042 0.433279 0
M  V30 7320 O 683.89 -1.70705 -0.610707 0
M  V30 7321 C 683.938 -2.18908 2.86551 0
M  V30 7322 O 683.042 -3.2543 2.53316 0
M  V30 7323 H 682.383 -0.338743 0.571095 0
M  V30 7324 H 684.913 -0.457202 1.99426 0
M  V30 7325 H 684.923 -2.62954 3.1196 0
M  V30 7326 H 683.598 -1.69726 3.79692 0
M  V30 7327 H 682.175 -2.86543 2.38637 0
M  V30 7328 N 684.36 -1.4356 -0.65026 0
M  V30 7329 C 685.608 -1.45046 -1.40734 0
M  V30 7330 C 685.929 -0.0769822 -1.94848 0
M  V30 7331 O 685.199 0.888098 -1.74613 0
M  V30 7332 H 683.779 -0.534034 -0.522318 0
M  V30 7333 H 686.441 -1.79186 -0.766703 0
M  V30 7334 H 685.537 -2.16476 -2.24822 0
M  V30 7335 N 685.838 0.888903 -1.30139 0
M  V30 7336 C 686.771 1.99655 -1.10514 0
M  V30 7337 C 687.749 1.62594 -0.0138934 0
M  V30 7338 O 688.933 1.87762 -0.166689 0
M  V30 7339 C 686.06 3.31708 -0.684655 0
M  V30 7340 C 685.106 3.87755 -1.77619 0
M  V30 7341 S 685.939 4.15532 -3.37777 0
M  V30 7342 C 687.095 5.5061 -2.97622 0
M  V30 7343 H 687.328 2.15996 -2.04287 0
M  V30 7344 H 684.861 1.03682 -1.14409 0
M  V30 7345 H 686.819 4.08039 -0.448782 0
M  V30 7346 H 685.48 3.1323 0.233648 0
M  V30 7347 H 684.673 4.83164 -1.43417 0
M  V30 7348 H 684.275 3.18149 -1.96614 0
M  V30 7349 H 686.567 6.31518 -2.45338 0
M  V30 7350 H 687.51 5.89747 -3.91924 0
M  V30 7351 H 687.918 5.12983 -2.35603 0
M  V30 7352 N 687.317 1.12792 1.10072 0
M  V30 7353 C 688.565 0.883796 1.81751 0
M  V30 7354 C 688.886 -0.591891 1.858 0
M  V30 7355 O 688.156 -1.43017 1.33876 0
M  V30 7356 H 686.736 0.323978 0.673088 0
M  V30 7357 H 689.398 1.42314 1.33164 0
M  V30 7358 H 688.494 1.26863 2.85153 0
M  V30 7359 N 688.795 -1.27931 0.920396 0
M  V30 7360 C 690.023 -1.98805 0.573087 0
M  V30 7361 C 690.438 -1.68724 -0.847201 0
M  V30 7362 O 689.795 -0.943699 -1.56207 0
M  V30 7363 C 689.846 -3.52971 0.780633 0
M  V30 7364 O 689.567 -3.81994 2.14504 0
M  V30 7365 C 691.068 -4.411 0.44105 0
M  V30 7366 H 688.288 -0.634651 0.21785 0
M  V30 7367 H 690.832 -1.62965 1.23542 0
M  V30 7368 H 688.987 -3.87048 0.165204 0
M  V30 7369 H 689.401 -4.76609 2.18962 0
M  V30 7370 H 690.875 -5.48312 0.637006 0
M  V30 7371 H 691.352 -4.34758 -0.62306 0
M  V30 7372 H 691.958 -4.12532 1.0343 0
M  V30 7373 N 690.273 -0.685099 -1.4193 0
M  V30 7374 C 691.684 -0.287699 -1.8447 0
M  V30 7375 C 692.035 1.17215 -1.57338 0
M  V30 7376 O 691.16 1.89856 -1.03845 0
M  V30 7377 C 691.755 -0.515385 -3.34857 0
M  V30 7378 C 690.314 -0.172006 -3.76007 0
M  V30 7379 C 689.461 -0.802808 -2.65425 0
M  V30 7380 H 692.412 -0.88652 -1.3163 0
M  V30 7381 H 692.433 0.229251 -3.79809 0
M  V30 7382 H 691.945 -1.57796 -3.54573 0
M  V30 7383 H 690.046 0.886716 -3.61895 0
M  V30 7384 H 690.159 -0.619717 -4.75075 0
M  V30 7385 H 688.523 -0.233267 -2.5363 0
M  V30 7386 H 689.306 -1.86904 -2.87961 0
M  V30 7387 N 691.751 1.51645 -0.429126 0
M  V30 7388 C 692.714 2.26116 0.374726 0
M  V30 7389 C 693.714 1.29242 0.956714 0
M  V30 7390 O 694.904 1.53022 0.832452 0
M  V30 7391 C 692.036 3.04669 1.52937 0
M  V30 7392 H 693.229 2.9861 -0.277818 0
M  V30 7393 H 690.782 1.55236 -0.182097 0
M  V30 7394 H 691.517 2.36571 2.21821 0
M  V30 7395 H 691.302 3.75814 1.11833 0
M  V30 7396 H 692.792 3.61102 2.09751 0
M  V30 7397 N 693.229 0.160201 1.56784 0
M  V30 7398 C 694.457 -0.494165 2.00912 0
M  V30 7399 C 694.872 -1.57548 1.04038 0
M  V30 7400 O 694.229 -1.82457 0.0394581 0
M  V30 7401 C 694.28 -1.08271 3.44905 0
M  V30 7402 O 694.001 -0.0445704 4.38077 0
M  V30 7403 C 695.502 -1.8164 4.04378 0
M  V30 7404 H 692.722 -0.127498 0.658776 0
M  V30 7405 H 695.266 0.258665 2.02858 0
M  V30 7406 H 693.421 -1.78609 3.4377 0
M  V30 7407 H 693.835 -0.477544 5.22322 0
M  V30 7408 H 695.309 -2.18094 5.07089 0
M  V30 7409 H 695.786 -2.70727 3.45838 0
M  V30 7410 H 696.392 -1.15969 4.09184 0
M  V30 7411 N 694.707 -1.5719 -0.113559 0
M  V30 7412 C 695.67 -1.99796 -1.12314 0
M  V30 7413 C 696.67 -0.888847 -1.34001 0
M  V30 7414 O 697.86 -1.15476 -1.30426 0
M  V30 7415 C 694.992 -2.34279 -2.47641 0
M  V30 7416 H 696.185 -2.90193 -0.756825 0
M  V30 7417 H 693.738 -1.52144 -0.358029 0
M  V30 7418 H 694.473 -1.46778 -2.89183 0
M  V30 7419 H 694.258 -3.15175 -2.33253 0
M  V30 7420 H 695.748 -2.67963 -3.2029 0
M  V30 7421 N 696.185 0.383891 -1.52853 0
M  V30 7422 C 697.095 1.49343 -1.80925 0
M  V30 7423 C 698.111 1.59458 -0.696348 0
M  V30 7424 O 699.287 1.75698 -0.984481 0
M  V30 7425 C 696.352 2.84819 -1.97684 0
M  V30 7426 C 695.413 2.84382 -3.21598 0
M  V30 7427 C 694.646 4.13397 -3.37548 0
M  V30 7428 O 694.869 5.08619 -2.58192 0
M  V30 7429 O 693.803 4.20325 -4.30826 0
M  V30 7430 H 697.629 1.2855 -2.75152 0
M  V30 7431 H 695.214 0.572229 -1.38007 0
M  V30 7432 H 697.096 3.65125 -2.10385 0
M  V30 7433 H 695.771 3.05627 -1.06647 0
M  V30 7434 H 694.678 2.0284 -3.14336 0
M  V30 7435 H 696.011 2.68526 -4.12498 0
M  V30 7436 N 697.663 1.43903 0.642637 0
M  V30 7437 C 699.074 1.40975 1.22404 0
M  V30 7438 C 699.425 0.1192 1.95838 0
M  V30 7439 O 698.55 -0.780939 2.01818 0
M  V30 7440 C 699.145 2.5538 2.22636 0
M  V30 7441 C 697.704 2.55684 2.76229 0
M  V30 7442 C 696.851 2.32556 1.51039 0
M  V30 7443 H 699.802 1.5265 0.434006 0
M  V30 7444 H 699.823 2.27474 3.05017 0
M  V30 7445 H 699.335 3.49294 1.69161 0
M  V30 7446 H 697.436 1.65679 3.33738 0
M  V30 7447 H 697.549 3.53799 3.23053 0
M  V30 7448 H 695.913 1.81427 1.78764 0
M  V30 7449 H 696.696 3.28569 0.99484 0
M  V30 7450 N 699.141 -0.881989 1.30609 0
M  V30 7451 C 700.104 -1.96957 1.1722 0
M  V30 7452 C 701.104 -1.60472 0.102598 0
M  V30 7453 O 702.294 -1.70628 0.350943 0
M  V30 7454 C 699.426 -3.31463 0.796572 0
M  V30 7455 H 700.619 -2.10262 2.13846 0
M  V30 7456 H 698.172 -1.06877 1.14048 0
M  V30 7457 H 698.907 -3.23859 -0.169053 0
M  V30 7458 H 698.692 -3.59314 1.56959 0
M  V30 7459 H 700.182 -4.11233 0.72645 0
M  V30 7460 N 700.619 -1.13374 -1.09472 0
M  V30 7461 C 702.03 -0.90801 -1.63132 0
M  V30 7462 C 702.381 0.555576 -1.8817 0
M  V30 7463 O 701.506 1.42218 -1.63104 0
M  V30 7464 C 702.101 -1.64182 -2.96361 0
M  V30 7465 C 700.66 -1.46197 -3.46848 0
M  V30 7466 C 699.807 -1.67134 -2.21273 0
M  V30 7467 H 702.758 -1.2871 -0.928411 0
M  V30 7468 H 702.779 -1.09863 -3.64294 0
M  V30 7469 H 702.291 -2.707 -2.78106 0
M  V30 7470 H 700.392 -0.419788 -3.70228 0
M  V30 7471 H 700.505 -2.22472 -4.24315 0
M  V30 7472 H 698.869 -1.09616 -2.29905 0
M  V30 7473 H 699.652 -2.74971 -2.05538 0
M  V30 7474 N 702.098 1.27442 -0.927168 0
M  V30 7475 C 703.509 1.76385 -0.611979 0
M  V30 7476 C 703.86 1.75715 0.872853 0
M  V30 7477 O 702.985 1.3603 1.683 0
M  V30 7478 C 703.58 3.20303 -1.10414 0
M  V30 7479 C 702.139 3.66916 -0.839628 0
M  V30 7480 C 701.286 2.46859 -1.26317 0
M  V30 7481 H 704.237 1.13716 -1.107 0
M  V30 7482 H 704.258 3.77811 -0.451578 0
M  V30 7483 H 703.77 3.20759 -2.18484 0
M  V30 7484 H 701.871 3.71906 0.227292 0
M  V30 7485 H 701.984 4.56415 -1.45679 0
M  V30 7486 H 700.348 2.45407 -0.681723 0
M  V30 7487 H 701.131 2.50025 -2.3525 0
M  V30 7488 N 703.576 0.692616 1.41565 0
M  V30 7489 C 704.801 0.229776 2.06123 0
M  V30 7490 C 705.226 -1.11119 1.5177 0
M  V30 7491 O 704.584 -1.69498 0.643444 0
M  V30 7492 C 704.632 0.19469 3.60074 0
M  V30 7493 O 703.736 -0.831366 4.03933 0
M  V30 7494 H 703.077 0.113002 0.654314 0
M  V30 7495 H 705.607 0.946645 1.81383 0
M  V30 7496 H 705.617 0.0245487 4.07993 0
M  V30 7497 H 704.292 1.17339 3.99004 0
M  V30 7498 H 702.869 -0.630819 3.67526 0
M  V30 7499 N 705.054 -1.51416 0.437162 0
M  V30 7500 C 706.002 -2.29328 -0.388765 0
M  V30 7501 C 706.996 -1.35171 -1.02104 0
M  V30 7502 O 708.202 -1.52513 -0.956024 0
M  V30 7503 H 704.577 -0.738048 -0.144183 0
M  V30 7504 H 706.548 -2.96995 0.289212 0
M  V30 7505 C 705.297 -3.14741 -1.47761 0
M  V30 7506 H 704.62 -3.8708 -1.00045 0
M  V30 7507 H 706.06 -3.72313 -2.02877 0
M  V30 7508 C 704.519 -2.30105 -2.46076 0
M  V30 7509 O 705.049 -1.96055 -3.50607 0
M  V30 7510 N 703.255 -1.93331 -2.1696 0
M  V30 7511 H 702.802 -2.2122 -1.31983 0
M  V30 7512 H 702.76 -1.36999 -2.82982 0
M  V30 7513 N 706.532 -0.168513 -1.56696 0
M  V30 7514 C 707.479 0.762875 -2.17828 0
M  V30 7515 C 708.449 1.22892 -1.11745 0
M  V30 7516 O 709.634 1.29759 -1.39883 0
M  V30 7517 C 706.774 1.9879 -2.82093 0
M  V30 7518 C 705.887 1.56568 -4.02629 0
M  V30 7519 C 705.022 2.74416 -4.54829 0
M  V30 7520 C 704.061 2.28671 -5.67782 0
M  V30 7521 N 703.198 3.39602 -6.14504 0
M  V30 7522 H 708.038 0.23479 -2.97074 0
M  V30 7523 H 705.575 0.104163 -1.46731 0
M  V30 7524 H 707.533 2.70636 -3.17509 0
M  V30 7525 H 706.163 2.48973 -2.05456 0
M  V30 7526 H 705.215 0.744067 -3.73052 0
M  V30 7527 H 706.527 1.18988 -4.844 0
M  V30 7528 H 705.681 3.54423 -4.92412 0
M  V30 7529 H 704.42 3.15254 -3.7211 0
M  V30 7530 H 703.425 1.4711 -5.29753 0
M  V30 7531 H 704.65 1.88894 -6.52301 0
M  V30 7532 H 702.596 3.80021 -5.34715 0
M  V30 7533 H 702.513 3.06105 -6.91257 0
M  V30 7534 H 703.781 4.19902 -6.56737 0
M  V30 7535 N 708.01 1.57248 0.105221 0
M  V30 7536 C 709.256 1.85845 0.811753 0
M  V30 7537 C 709.589 0.756219 1.78871 0
M  V30 7538 O 708.864 -0.236736 1.93054 0
M  V30 7539 C 709.147 3.25059 1.54947 0
M  V30 7540 C 709 4.45898 0.591185 0
M  V30 7541 C 710.319 3.6203 2.50245 0
M  V30 7542 H 707.438 0.675973 0.293649 0
M  V30 7543 H 710.08 1.89849 0.0756269 0
M  V30 7544 H 708.23 3.21776 2.17698 0
M  V30 7545 H 709.902 4.61291 -0.0285352 0
M  V30 7546 H 708.145 4.33693 -0.0962343 0
M  V30 7547 H 708.816 5.40009 1.1443 0
M  V30 7548 H 711.292 3.66192 1.97593 0
M  V30 7549 H 710.168 4.60389 2.98886 0
M  V30 7550 H 710.429 2.90176 3.33542 0
M  V30 7551 N 709.488 -0.375779 1.53054 0
M  V30 7552 C 710.736 -1.11727 1.68409 0
M  V30 7553 C 711.057 -1.90127 0.43323 0
M  V30 7554 O 710.327 -1.87945 -0.552595 0
M  V30 7555 H 708.907 -0.415451 0.620813 0
M  V30 7556 H 711.569 -0.424869 1.90213 0
M  V30 7557 H 710.665 -1.8128 2.54055 0
M  V30 7558 N 710.966 -1.44241 -0.634997 0
M  V30 7559 C 711.896 -1.53632 -1.7584 0
M  V30 7560 C 712.877 -0.389603 -1.65578 0
M  V30 7561 O 714.062 -0.609219 -1.84397 0
M  V30 7562 C 711.192 -1.47644 -3.14354 0
M  V30 7563 C 710.146 -2.60752 -3.394 0
M  V30 7564 C 709.472 -2.39817 -4.77904 0
M  V30 7565 C 710.772 -4.02921 -3.32343 0
M  V30 7566 H 712.466 -2.47662 -1.68238 0
M  V30 7567 H 710.012 -1.19197 -0.807969 0
M  V30 7568 H 711.965 -1.52815 -3.92716 0
M  V30 7569 H 710.689 -0.501284 -3.2273 0
M  V30 7570 H 709.348 -2.54965 -2.63417 0
M  V30 7571 H 708.996 -1.40502 -4.82978 0
M  V30 7572 H 708.696 -3.15649 -4.9562 0
M  V30 7573 H 710.22 -2.46799 -5.585 0
M  V30 7574 H 711.634 -4.10098 -4.00615 0
M  V30 7575 H 710.031 -4.78925 -3.61595 0
M  V30 7576 H 711.101 -4.26766 -2.30215 0
M  V30 7577 N 712.444 0.87505 -1.31075 0
M  V30 7578 C 713.669 1.66583 -1.23551 0
M  V30 7579 C 714.094 1.87067 0.19686 0
M  V30 7580 O 713.452 1.40877 1.1412 0
M  V30 7581 C 713.5 3.01401 -1.97965 0
M  V30 7582 O 712.604 3.90923 -1.31351 0
M  V30 7583 H 711.945 0.508645 -0.426821 0
M  V30 7584 H 714.475 1.09139 -1.7306 0
M  V30 7585 H 714.485 3.51374 -2.07366 0
M  V30 7586 H 713.16 2.85812 -3.02133 0
M  V30 7587 H 711.737 3.49369 -1.30368 0
M  V30 7588 N 713.922 1.13953 1.08869 0
M  V30 7589 C 714.869 0.82213 2.15661 0
M  V30 7590 C 715.839 -0.218274 1.6466 0
M  V30 7591 O 717.024 -0.0892475 1.90591 0
M  V30 7592 C 714.164 0.300572 3.43789 0
M  V30 7593 C 713.277 1.40071 4.08661 0
M  V30 7594 C 712.412 0.836897 5.24566 0
M  V30 7595 C 711.451 1.91504 5.81371 0
M  V30 7596 N 710.588 1.36875 6.88629 0
M  V30 7597 H 715.428 1.73683 2.42153 0
M  V30 7598 H 712.965 0.866879 1.18843 0
M  V30 7599 H 714.923 -0.0199943 4.17195 0
M  V30 7600 H 713.553 -0.577248 3.17597 0
M  V30 7601 H 712.605 1.83776 3.33062 0
M  V30 7602 H 713.917 2.21534 4.46905 0
M  V30 7603 H 713.071 0.467953 6.04893 0
M  V30 7604 H 711.81 -0.00874207 4.87699 0
M  V30 7605 H 710.815 2.29299 4.99702 0
M  V30 7606 H 712.04 2.76419 6.20298 0
M  V30 7607 H 709.986 0.545211 6.5373 0
M  V30 7608 H 709.903 2.1198 7.25672 0
M  V30 7609 H 711.171 1.02756 7.72698 0
M  V30 7610 N 715.4 -1.26948 0.933913 0
M  V30 7611 C 716.363 -2.24889 0.442457 0
M  V30 7612 C 717.363 -1.54594 -0.442426 0
M  V30 7613 O 718.553 -1.72502 -0.242629 0
M  V30 7614 C 715.685 -3.3896 -0.363173 0
M  V30 7615 H 716.878 -2.69879 1.30787 0
M  V30 7616 H 714.431 -1.38978 0.715187 0
M  V30 7617 H 715.166 -2.99361 -1.24714 0
M  V30 7618 H 714.951 -3.9116 0.271366 0
M  V30 7619 H 716.441 -4.11739 -0.697186 0
M  V30 7620 N 716.879 -0.700114 -1.41195 0
M  V30 7621 C 718.104 -0.240704 -2.05998 0
M  V30 7622 C 718.529 1.10313 -1.52357 0
M  V30 7623 O 717.887 1.69154 -0.652424 0
M  V30 7624 C 717.935 -0.213783 -3.59966 0
M  V30 7625 O 717.039 0.809933 -4.04368 0
M  V30 7626 H 716.38 -0.116471 -0.653705 0
M  V30 7627 H 718.91 -0.956251 -1.80878 0
M  V30 7628 H 718.92 -0.0461852 -4.07974 0
M  V30 7629 H 717.595 -1.19454 -3.98376 0
M  V30 7630 H 716.172 0.611319 -3.67855 0
M  V30 7631 N 718.357 1.51182 -0.445186 0
M  V30 7632 C 719.582 2.07056 0.119445 0
M  V30 7633 C 720.007 1.30966 1.35016 0
M  V30 7634 O 719.365 0.349827 1.77893 0
M  V30 7635 C 719.413 3.58234 0.412428 0
M  V30 7636 O 718.517 3.84249 1.49754 0
M  V30 7637 H 717.858 0.663998 -0.00157797 0
M  V30 7638 H 720.388 1.94699 -0.628779 0
M  V30 7639 H 720.398 4.02617 0.660583 0
M  V30 7640 H 719.073 4.13038 -0.487049 0
M  V30 7641 H 717.65 3.51724 1.23873 0
M  V30 7642 N 719.835 0.176821 1.56605 0
M  V30 7643 C 720.745 -0.763682 2.21822 0
M  V30 7644 C 721.761 -1.24889 1.21156 0
M  V30 7645 O 722.937 -1.29987 1.53836 0
M  V30 7646 C 720.002 -1.97352 2.8505 0
M  V30 7647 C 719.063 -1.53466 4.00932 0
M  V30 7648 C 718.296 -2.68682 4.61135 0
M  V30 7649 O 718.519 -3.85694 4.20234 0
M  V30 7650 O 717.453 -2.42442 5.50913 0
M  V30 7651 H 721.279 -0.238363 3.02763 0
M  V30 7652 H 718.864 -0.0516331 1.49311 0
M  V30 7653 H 720.746 -2.68096 3.25119 0
M  V30 7654 H 719.421 -2.48779 2.07101 0
M  V30 7655 H 718.328 -0.796551 3.65521 0
M  V30 7656 H 719.661 -1.06724 4.8049 0
M  V30 7657 N 721.313 -1.57302 -0.09688 0
M  V30 7658 C 722.223 -2.05258 -1.13606 0
M  V30 7659 C 723.239 -0.977137 -1.43972 0
M  V30 7660 O 724.415 -1.29018 -1.54649 0
M  V30 7661 C 721.48 -2.46593 -2.43706 0
M  V30 7662 C 720.541 -3.68322 -2.20538 0
M  V30 7663 C 719.774 -4.07676 -3.44435 0
M  V30 7664 O 719.997 -3.47141 -4.52603 0
M  V30 7665 O 718.931 -5.00641 -3.34129 0
M  V30 7666 H 722.757 -2.94069 -0.758752 0
M  V30 7667 H 720.342 -1.46164 -0.309263 0
M  V30 7668 H 722.224 -2.73814 -3.20318 0
M  V30 7669 H 720.899 -1.6092 -2.80867 0
M  V30 7670 H 719.806 -3.4622 -1.41713 0
M  V30 7671 H 721.139 -4.54769 -1.88271 0
M  V30 7672 N 722.791 0.367657 -1.53252 0
M  V30 7673 C 723.724 1.47264 -1.74323 0
M  V30 7674 C 724.702 1.51458 -0.591535 0
M  V30 7675 O 725.886 1.69542 -0.823883 0
M  V30 7676 C 723.013 2.85637 -1.82015 0
M  V30 7677 C 722.059 2.99176 -3.03967 0
M  V30 7678 S 722.892 2.68147 -4.63527 0
M  V30 7679 C 724.048 4.08673 -4.74065 0
M  V30 7680 H 724.281 1.29169 -2.67773 0
M  V30 7681 H 721.814 0.561866 -1.43814 0
M  V30 7682 H 723.772 3.65365 -1.87132 0
M  V30 7683 H 722.433 3.01043 -0.896195 0
M  V30 7684 H 721.626 4.00511 -3.05953 0
M  V30 7685 H 721.228 2.27367 -2.96952 0
M  V30 7686 H 723.52 5.02889 -4.53992 0
M  V30 7687 H 724.463 4.11693 -5.7612 0
M  V30 7688 H 724.871 3.95576 -4.02716 0
M  V30 7689 N 724.269 1.44576 0.627338 0
M  V30 7690 C 725.685 1.28546 0.945938 0
M  V30 7691 C 725.885 0.224003 2.00251 0
M  V30 7692 O 724.941 -0.388817 2.49488 0
M  V30 7693 C 726.254 2.65825 1.40561 0
M  V30 7694 C 727.802 2.73566 1.52088 0
M  V30 7695 C 728.277 4.11323 2.01438 0
M  V30 7696 N 729.768 4.13519 2.08702 0
M  V30 7697 C 730.503 5.16964 2.48065 0
M  V30 7698 N 729.999 6.30768 2.86538 0
M  V30 7699 N 731.792 5.04319 2.48232 0
M  V30 7700 H 723.943 2.1228 -0.0713567 0
M  V30 7701 H 726.206 0.947503 0.0307081 0
M  V30 7702 H 725.912 3.44591 0.703539 0
M  V30 7703 H 725.786 2.92969 2.37591 0
M  V30 7704 H 728.173 1.95116 2.21391 0
M  V30 7705 H 728.254 2.50159 0.534237 0
M  V30 7706 H 727.898 4.9025 1.32729 0
M  V30 7707 H 727.828 4.32109 3.0098 0
M  V30 7708 H 730.319 3.31385 1.81638 0
M  V30 7709 H 730.632 7.0551 3.15398 0
M  V30 7710 H 728.977 6.342 2.84281 0
M  V30 7711 H 732.168 4.14465 2.17569 0
M  V30 7712 H 732.341 5.85059 2.78585 0
M  V30 7713 N 725.747 -0.868086 1.31537 0
M  V30 7714 C 726.993 -1.62367 1.2151 0
M  V30 7715 C 727.326 -1.92883 -0.225819 0
M  V30 7716 O 726.601 -1.56176 -1.15927 0
M  V30 7717 C 726.884 -2.95268 2.06129 0
M  V30 7718 C 726.737 -2.71619 3.58529 0
M  V30 7719 C 728.056 -3.96391 1.91212 0
M  V30 7720 H 725.175 -0.589178 0.442762 0
M  V30 7721 H 727.817 -1.00336 1.61347 0
M  V30 7722 H 725.967 -3.4821 1.72284 0
M  V30 7723 H 727.639 -2.25334 4.0252 0
M  V30 7724 H 725.882 -2.05817 3.81866 0
M  V30 7725 H 726.553 -3.66192 4.13047 0
M  V30 7726 H 729.029 -3.52663 2.20834 0
M  V30 7727 H 727.905 -4.87263 2.52718 0
M  V30 7728 H 728.166 -4.33335 0.875953 0
M  V30 7729 N 727.225 -1.14528 -1.08264 0
M  V30 7730 C 728.641 -0.885976 -1.3275 0
M  V30 7731 C 728.841 0.472096 -1.95892 0
M  V30 7732 O 727.897 1.21606 -2.21288 0
M  V30 7733 C 729.21 -2.01982 -2.22764 0
M  V30 7734 C 730.758 -2.05329 -2.36239 0
M  V30 7735 C 731.233 -3.1801 -3.29596 0
M  V30 7736 N 732.724 -3.17598 -3.37173 0
M  V30 7737 C 733.459 -4.01426 -4.09444 0
M  V30 7738 N 732.955 -4.95297 -4.8441 0
M  V30 7739 N 734.748 -3.89482 -4.0529 0
M  V30 7740 H 726.899 -2.01996 -0.656607 0
M  V30 7741 H 729.162 -0.880274 -0.351884 0
M  V30 7742 H 728.868 -2.99964 -1.83615 0
M  V30 7743 H 728.742 -1.94421 -3.23234 0
M  V30 7744 H 731.129 -1.07953 -2.74646 0
M  V30 7745 H 731.21 -2.1696 -1.35506 0
M  V30 7746 H 730.854 -4.15633 -2.9191 0
M  V30 7747 H 730.784 -3.03616 -4.30261 0
M  V30 7748 H 733.275 -2.4961 -2.83731 0
M  V30 7749 H 733.588 -5.55723 -5.37021 0
M  V30 7750 H 731.933 -4.99293 -4.83457 0
M  V30 7751 H 735.124 -3.15465 -3.45832 0
M  V30 7752 H 735.297 -4.55039 -4.6135 0
M  V30 7753 N 728.703 1.26451 -0.940633 0
M  V30 7754 C 730.119 1.4608 -0.642859 0
M  V30 7755 C 730.319 1.84765 0.803998 0
M  V30 7756 O 729.375 1.96902 1.58069 0
M  V30 7757 C 730.688 2.54359 -1.60381 0
M  V30 7758 C 732.236 2.6821 -1.61345 0
M  V30 7759 C 732.711 3.79659 -2.56169 0
M  V30 7760 N 734.202 3.87051 -2.54452 0
M  V30 7761 C 734.937 4.72739 -3.24507 0
M  V30 7762 N 734.433 5.6282 -4.03987 0
M  V30 7763 N 736.226 4.66581 -3.13462 0
M  V30 7764 H 728.377 0.996289 -1.87584 0
M  V30 7765 H 730.64 0.498921 -0.80609 0
M  V30 7766 H 730.346 2.32758 -2.6366 0
M  V30 7767 H 730.22 3.52005 -1.35545 0
M  V30 7768 H 732.607 2.89184 -0.587913 0
M  V30 7769 H 732.688 1.7101 -1.90235 0
M  V30 7770 H 732.332 3.59438 -3.58841 0
M  V30 7771 H 732.262 4.76315 -2.2457 0
M  V30 7772 H 734.753 3.22649 -1.96739 0
M  V30 7773 H 735.066 6.25095 -4.54396 0
M  V30 7774 H 733.411 5.62574 -4.08088 0
M  V30 7775 H 736.602 3.9521 -2.50852 0
M  V30 7776 H 736.775 5.33141 -3.68327 0
M  V30 7777 N 730.181 0.707592 1.40822 0
M  V30 7778 C 731.131 0.0265008 2.27985 0
M  V30 7779 C 732.115 -0.740685 1.42838 0
M  V30 7780 O 733.307 -0.6142 1.66002 0
M  V30 7781 C 730.436 -0.900382 3.31282 0
M  V30 7782 C 729.522 -0.128807 4.23904 0
M  V30 7783 N 729.913 0.883744 4.9802 0
M  V30 7784 C 728.211 -0.362539 4.44524 0
M  V30 7785 C 728.912 1.34666 5.65898 0
M  V30 7786 N 727.888 0.670306 5.39451 0
M  V30 7787 H 731.69 0.802667 2.82727 0
M  V30 7788 H 729.204 0.539475 1.53178 0
M  V30 7789 H 731.201 -1.40357 3.92563 0
M  V30 7790 H 729.861 -1.67601 2.781 0
M  V30 7791 H 730.872 1.26435 5.0223 0
M  V30 7792 H 727.549 -1.11512 4.02332 0
M  V30 7793 H 728.939 2.18756 6.35292 0
M  V30 7794 N 731.66 -1.50943 0.453197 0
M  V30 7795 C 732.607 -2.28128 -0.350197 0
M  V30 7796 C 733.577 -1.32398 -1.00299 0
M  V30 7797 O 734.762 -1.61319 -1.01887 0
M  V30 7798 C 731.902 -3.13782 -1.43649 0
M  V30 7799 C 731.015 -4.24523 -0.800255 0
M  V30 7800 C 730.15 -4.97462 -1.86293 0
M  V30 7801 C 729.189 -6.00102 -1.20598 0
M  V30 7802 N 728.326 -6.66387 -2.21071 0
M  V30 7803 H 733.166 -2.96337 0.31434 0
M  V30 7804 H 730.703 -1.46151 0.166863 0
M  V30 7805 H 732.661 -3.6178 -2.07776 0
M  V30 7806 H 731.291 -2.47655 -2.07044 0
M  V30 7807 H 730.343 -3.80371 -0.0468651 0
M  V30 7808 H 731.655 -4.98009 -0.280777 0
M  V30 7809 H 730.809 -5.49088 -2.58044 0
M  V30 7810 H 729.548 -4.23642 -2.41617 0
M  V30 7811 H 728.553 -5.47753 -0.474 0
M  V30 7812 H 729.778 -6.75887 -0.659859 0
M  V30 7813 H 727.724 -5.9537 -2.75446 0
M  V30 7814 H 727.641 -7.3569 -1.74058 0
M  V30 7815 H 728.909 -7.22638 -2.92257 0
M  V30 7816 N 733.138 -0.185124 -1.56509 0
M  V30 7817 C 734.088 0.752315 -2.15231 0
M  V30 7818 C 735.072 1.18327 -1.0903 0
M  V30 7819 O 736.264 1.14333 -1.35119 0
M  V30 7820 C 733.393 1.97583 -2.80742 0
M  V30 7821 C 732.479 1.56623 -3.94119 0
M  V30 7822 N 732.87 0.867008 -4.98314 0
M  V30 7823 C 731.168 1.85626 -4.05535 0
M  V30 7824 C 731.869 0.663228 -5.77907 0
M  V30 7825 N 730.845 1.20891 -5.29987 0
M  V30 7826 H 734.647 0.209267 -2.93154 0
M  V30 7827 H 732.161 0.0150444 -1.62393 0
M  V30 7828 H 734.158 2.65779 -3.21197 0
M  V30 7829 H 732.818 2.52369 -2.04303 0
M  V30 7830 H 733.829 0.52355 -5.15247 0
M  V30 7831 H 730.506 2.41992 -3.40215 0
M  V30 7832 H 731.896 0.109273 -6.71811 0
M  V30 7833 N 734.616 1.57351 0.0885366 0
M  V30 7834 C 735.841 1.91011 0.80805 0
M  V30 7835 C 736.266 0.780009 1.71165 0
M  V30 7836 O 735.624 -0.268083 1.79307 0
M  V30 7837 C 735.672 3.23562 1.59185 0
M  V30 7838 O 734.776 3.11615 2.7013 0
M  V30 7839 H 734.117 0.625943 0.221565 0
M  V30 7840 H 736.647 2.04507 0.0617954 0
M  V30 7841 H 736.657 3.5703 1.97468 0
M  V30 7842 H 735.332 4.05398 0.928741 0
M  V30 7843 H 733.909 2.89673 2.34827 0
M  V30 7844 N 736.094 -0.359525 1.53444 0
M  V30 7845 C 737.319 -1.12644 1.74144 0
M  V30 7846 C 737.744 -1.82082 0.472007 0
M  V30 7847 O 737.102 -1.71962 -0.57436 0
M  V30 7848 C 737.15 -2.12781 2.9113 0
M  V30 7849 O 736.254 -3.19984 2.60162 0
M  V30 7850 H 735.595 -0.326553 0.578152 0
M  V30 7851 H 738.125 -0.414798 2.00351 0
M  V30 7852 H 738.135 -2.56278 3.17467 0
M  V30 7853 H 736.81 -1.61634 3.83207 0
M  V30 7854 H 735.387 -2.81417 2.44661 0
M  V30 7855 N 737.572 -1.44907 -0.619662 0
M  V30 7856 C 738.482 -1.55168 -1.75955 0
M  V30 7857 C 739.498 -0.43672 -1.6843 0
M  V30 7858 O 740.674 -0.695704 -1.89002 0
M  V30 7859 C 737.739 -1.50397 -3.12381 0
M  V30 7860 C 736.8 -2.72835 -3.31451 0
M  V30 7861 C 736.033 -2.68283 -4.61368 0
M  V30 7862 O 736.256 -1.74929 -5.42914 0
M  V30 7863 O 735.19 -3.59308 -4.82889 0
M  V30 7864 H 739.016 -2.51493 -1.7025 0
M  V30 7865 H 736.601 -1.27282 -0.782289 0
M  V30 7866 H 738.483 -1.50301 -3.93685 0
M  V30 7867 H 737.158 -0.572197 -3.18603 0
M  V30 7868 H 736.065 -2.78496 -2.49781 0
M  V30 7869 H 737.398 -3.65098 -3.30098 0
M  V30 7870 N 739.05 0.861098 -1.31996 0
M  V30 7871 C 740.275 1.65264 -1.2531 0
M  V30 7872 C 740.7 1.87265 0.177007 0
M  V30 7873 O 740.058 1.4208 1.12619 0
M  V30 7874 C 740.106 2.99284 -2.0115 0
M  V30 7875 O 739.21 3.89508 -1.3549 0
M  V30 7876 H 738.551 0.50409 -0.432192 0
M  V30 7877 H 741.081 1.07297 -1.74208 0
M  V30 7878 H 741.091 3.49154 -2.11081 0
M  V30 7879 H 739.766 2.82591 -3.05148 0
M  V30 7880 H 738.343 3.47966 -1.34066 0
M  V30 7881 N 740.528 1.15101 1.07655 0
M  V30 7882 C 741.939 0.933848 1.61667 0
M  V30 7883 C 742.29 -0.525569 1.8903 0
M  V30 7884 O 741.415 -1.39605 1.65346 0
M  V30 7885 C 742.01 1.68876 2.93711 0
M  V30 7886 C 740.569 1.51697 3.44478 0
M  V30 7887 C 739.716 1.70633 2.18586 0
M  V30 7888 H 742.667 1.30171 0.907816 0
M  V30 7889 H 742.688 1.15645 3.625 0
M  V30 7890 H 742.2 2.7509 2.73764 0
M  V30 7891 H 740.301 0.478635 3.69513 0
M  V30 7892 H 740.414 2.29194 4.20722 0
M  V30 7893 H 738.778 1.13259 2.28132 0
M  V30 7894 H 739.561 2.78206 2.01137 0
M  V30 7895 N 742.006 -1.2595 0.947325 0
M  V30 7896 C 743.254 -1.93081 0.596996 0
M  V30 7897 C 743.575 -1.74632 -0.867672 0
M  V30 7898 O 742.845 -1.1056 -1.6172 0
M  V30 7899 H 741.425 -0.714542 0.217805 0
M  V30 7900 H 744.087 -1.53265 1.20398 0
M  V30 7901 H 743.183 -3.01134 0.82004 0
M  V30 7902 N 743.484 -0.715051 -1.40445 0
M  V30 7903 C 744.9 -0.388555 -1.54798 0
M  V30 7904 C 745.1 1.10271 -1.68649 0
M  V30 7905 O 744.156 1.88875 -1.67578 0
M  V30 7906 C 745.469 -1.15414 -2.77669 0
M  V30 7907 C 747.017 -1.14039 -2.91486 0
M  V30 7908 C 747.492 -1.88812 -4.1727 0
M  V30 7909 N 748.983 -1.85878 -4.24268 0
M  V30 7910 C 749.718 -2.40558 -5.20499 0
M  V30 7911 N 749.214 -3.03791 -6.22642 0
M  V30 7912 N 751.007 -2.30703 -5.12574 0
M  V30 7913 H 743.158 -1.68201 -1.297 0
M  V30 7914 H 745.421 -0.710915 -0.627139 0
M  V30 7915 H 745.127 -2.20853 -2.7371 0
M  V30 7916 H 745.001 -0.745412 -3.69761 0
M  V30 7917 H 747.388 -0.0941996 -2.9495 0
M  V30 7918 H 747.469 -1.58834 -2.00513 0
M  V30 7919 H 747.113 -2.93422 -4.14568 0
M  V30 7920 H 747.043 -1.41438 -5.0725 0
M  V30 7921 H 749.534 -1.39794 -3.51093 0
M  V30 7922 H 749.847 -3.43032 -6.92495 0
M  V30 7923 H 748.192 -3.07875 -6.23087 0
M  V30 7924 H 751.383 -1.80961 -4.31707 0
M  V30 7925 H 751.556 -2.73618 -5.87398 0
M  V30 7926 N 744.962 1.50701 -0.461195 0
M  V30 7927 C 746.239 1.94958 0.158296 0
M  V30 7928 C 746.619 1.40111 1.57899 0
M  V30 7929 O 745.967 0.597976 2.20537 0
M  V30 7930 C 746.177 3.48821 0.11172 0
M  V30 7931 C 747.525 4.23499 0.30552 0
M  V30 7932 O 748.549 3.557 0.188758 0
M  V30 7933 O 747.408 5.43823 0.540244 0
M  V30 7934 H 744.502 0.818674 0.117054 0
M  V30 7935 H 747.048 1.61508 -0.520888 0
M  V30 7936 H 745.82 3.81263 -0.880577 0
M  V30 7937 H 745.443 3.88781 0.832791 0
M  V30 7938 N 746.441 0.193421 1.56409 0
M  V30 7939 C 747.388 -0.728124 2.19014 0
M  V30 7940 C 748.358 -1.21098 1.13686 0
M  V30 7941 O 749.543 -1.27517 1.4193 0
M  V30 7942 C 746.683 -1.94277 2.8522 0
M  V30 7943 C 745.796 -1.50143 4.05069 0
M  V30 7944 C 744.931 -2.67145 4.59137 0
M  V30 7945 C 743.97 -2.19609 5.71348 0
M  V30 7946 N 743.107 -3.29782 6.19829 0
M  V30 7947 H 747.947 -0.187499 2.9741 0
M  V30 7948 H 745.484 -0.0808064 1.46878 0
M  V30 7949 H 747.442 -2.65551 3.21774 0
M  V30 7950 H 746.072 -2.45673 2.09391 0
M  V30 7951 H 745.124 -0.684624 3.74189 0
M  V30 7952 H 746.436 -1.11266 4.86232 0
M  V30 7953 H 745.59 -3.46544 4.97988 0
M  V30 7954 H 744.329 -3.09295 3.77078 0
M  V30 7955 H 743.334 -1.38664 5.32027 0
M  V30 7956 H 744.559 -1.78492 6.55223 0
M  V30 7957 H 742.505 -3.71466 5.40693 0
M  V30 7958 H 742.422 -2.95069 6.96039 0
M  V30 7959 H 743.69 -4.094 6.63334 0
M  V30 7960 N 747.919 -1.57396 -0.0801906 0
M  V30 7961 C 749.167 -1.86467 -0.779384 0
M  V30 7962 C 749.488 -0.784243 -1.78535 0
M  V30 7963 O 748.758 0.187986 -1.94996 0
M  V30 7964 H 747.338 -0.68806 -0.29083 0
M  V30 7965 H 750 -1.94813 -0.0582749 0
M  V30 7966 H 749.096 -2.83701 -1.30078 0
M  V30 7967 N 749.397 0.351382 -1.53633 0
M  V30 7968 C 750.813 0.693987 -1.43722 0
M  V30 7969 C 751.013 1.9274 -0.587669 0
M  V30 7970 O 750.069 2.52387 -0.0756082 0
M  V30 7971 C 751.382 0.893937 -2.87105 0
M  V30 7972 C 752.93 0.993051 -2.96829 0
M  V30 7973 C 753.405 1.22537 -4.41303 0
M  V30 7974 N 754.896 1.29275 -4.44795 0
M  V30 7975 C 755.631 1.48988 -5.53706 0
M  V30 7976 N 755.127 1.65924 -6.72637 0
M  V30 7977 N 756.92 1.51472 -5.41306 0
M  V30 7978 H 749.071 -0.459688 -2.07366 0
M  V30 7979 H 751.334 -0.143684 -0.937048 0
M  V30 7980 H 751.04 0.0592517 -3.5165 0
M  V30 7981 H 750.914 1.79795 -3.31592 0
M  V30 7982 H 753.301 1.81827 -2.32429 0
M  V30 7983 H 753.382 0.0661119 -2.55715 0
M  V30 7984 H 753.026 0.405117 -5.06282 0
M  V30 7985 H 752.956 2.16575 -4.80003 0
M  V30 7986 H 755.447 1.17743 -3.59089 0
M  V30 7987 H 755.76 1.80578 -7.51406 0
M  V30 7988 H 754.105 1.63075 -6.75597 0
M  V30 7989 H 757.296 1.37818 -4.47352 0
M  V30 7990 H 757.469 1.66493 -6.26246 0
M  V30 7991 N 750.875 1.45233 0.611969 0
M  V30 7992 C 751.805 1.5641 1.73373 0
M  V30 7993 C 752.786 0.415896 1.64937 0
M  V30 7994 O 753.971 0.638478 1.83404 0
M  V30 7995 C 751.101 1.52627 3.11965 0
M  V30 7996 C 750.055 2.66119 3.35208 0
M  V30 7997 C 749.381 2.4739 4.74028 0
M  V30 7998 C 750.681 4.08157 3.25891 0
M  V30 7999 H 752.375 2.50307 1.64277 0
M  V30 8000 H 749.921 1.20467 0.788904 0
M  V30 8001 H 751.874 1.59043 3.90235 0
M  V30 8002 H 750.598 0.552564 3.21892 0
M  V30 8003 H 749.257 2.59123 2.59327 0
M  V30 8004 H 748.905 1.48168 4.80682 0
M  V30 8005 H 748.605 3.23494 4.90536 0
M  V30 8006 H 750.129 2.55653 5.54503 0
M  V30 8007 H 751.543 4.1642 3.9404 0
M  V30 8008 H 749.94 4.84617 3.5393 0
M  V30 8009 H 751.01 4.30374 2.23397 0
M  V30 8010 N 752.353 -0.854086 1.3245 0
M  V30 8011 C 753.316 -1.94427 1.21371 0
M  V30 8012 C 754.316 -1.60219 0.136613 0
M  V30 8013 O 755.506 -1.69846 0.387057 0
M  V30 8014 C 752.638 -3.29698 0.866701 0
M  V30 8015 H 753.831 -2.05679 2.18257 0
M  V30 8016 H 751.384 -1.04434 1.1629 0
M  V30 8017 H 752.119 -3.24145 -0.100319 0
M  V30 8018 H 751.904 -3.55903 1.64545 0
M  V30 8019 H 753.394 -4.09599 0.813515 0
M  V30 8020 N 753.831 -1.1567 -1.07043 0
M  V30 8021 C 754.778 -0.856336 -2.14326 0
M  V30 8022 C 755.748 0.192051 -1.64986 0
M  V30 8023 O 756.933 0.0589148 -1.90709 0
M  V30 8024 C 754.073 -0.355227 -3.43267 0
M  V30 8025 C 753.186 -1.46555 -4.06381 0
M  V30 8026 C 752.321 -0.920245 -5.23168 0
M  V30 8027 C 751.36 -2.00729 -5.78251 0
M  V30 8028 N 750.497 -1.47813 -6.86364 0
M  V30 8029 H 755.337 -1.77514 -2.39359 0
M  V30 8030 H 752.874 -0.885676 -1.17449 0
M  V30 8031 H 754.832 -0.0463804 -4.17174 0
M  V30 8032 H 753.462 0.526649 -3.18475 0
M  V30 8033 H 752.514 -1.89052 -3.30096 0
M  V30 8034 H 753.826 -2.28616 -4.43324 0
M  V30 8035 H 752.98 -0.564127 -6.04072 0
M  V30 8036 H 751.719 -0.0688477 -4.87651 0
M  V30 8037 H 750.724 -2.3722 -4.95991 0
M  V30 8038 H 751.949 -2.86252 -6.15822 0
M  V30 8039 H 749.895 -0.649145 -6.5278 0
M  V30 8040 H 749.812 -2.23498 -7.22208 0
M  V30 8041 H 751.08 -1.15036 -7.70965 0
M  V30 8042 N 755.309 1.25446 -0.953992 0
M  V30 8043 C 756.239 2.28264 -0.491717 0
M  V30 8044 C 757.22 1.63717 0.461617 0
M  V30 8045 O 758.405 1.90821 0.36071 0
M  V30 8046 C 755.535 3.46525 0.231915 0
M  V30 8047 C 754.489 4.23247 -0.636098 0
M  V30 8048 C 753.815 5.34254 0.218238 0
M  V30 8049 C 755.115 4.85971 -1.91389 0
M  V30 8050 H 756.809 2.67183 -1.35106 0
M  V30 8051 H 754.355 1.2844 -0.651095 0
M  V30 8052 H 756.308 4.17576 0.566439 0
M  V30 8053 H 755.032 3.06594 1.12551 0
M  V30 8054 H 753.691 3.53978 -0.953696 0
M  V30 8055 H 753.339 4.90564 1.11156 0
M  V30 8056 H 753.039 5.86501 -0.359232 0
M  V30 8057 H 754.563 6.08138 0.547743 0
M  V30 8058 H 755.977 5.49168 -1.64581 0
M  V30 8059 H 754.374 5.48391 -2.43696 0
M  V30 8060 H 755.444 4.08192 -2.61738 0
M  V30 8061 N 756.787 0.722489 1.40064 0
M  V30 8062 C 757.734 0.0743738 2.3068 0
M  V30 8063 C 758.704 -0.743004 1.48555 0
M  V30 8064 O 759.889 -0.705536 1.77276 0
M  V30 8065 C 757.029 -0.836292 3.34814 0
M  V30 8066 C 756.142 -0.00764663 4.31999 0
M  V30 8067 C 755.277 -0.918428 5.232 0
M  V30 8068 C 754.316 -0.0842838 6.12042 0
M  V30 8069 N 753.453 -0.950316 6.95639 0
M  V30 8070 H 758.293 0.852794 2.85537 0
M  V30 8071 H 755.83 0.432222 1.40607 0
M  V30 8072 H 757.788 -1.3786 3.93765 0
M  V30 8073 H 756.418 -1.58082 2.81443 0
M  V30 8074 H 755.47 0.651928 3.74772 0
M  V30 8075 H 756.782 0.63786 4.94705 0
M  V30 8076 H 755.936 -1.52902 5.87116 0
M  V30 8077 H 754.675 -1.59774 4.60786 0
M  V30 8078 H 753.68 0.5392 5.4715 0
M  V30 8079 H 754.905 0.591628 6.76518 0
M  V30 8080 H 752.851 -1.61515 6.35806 0
M  V30 8081 H 752.768 -0.361004 7.55138 0
M  V30 8082 H 754.036 -1.54687 7.63997 0
M  V30 8083 N 758.265 -1.50454 0.469181 0
M  V30 8084 C 759.676 -1.86695 0.0136034 0
M  V30 8085 C 760.027 -1.38413 -1.39055 0
M  V30 8086 O 759.152 -0.748294 -2.03051 0
M  V30 8087 C 759.747 -3.38795 0.0179098 0
M  V30 8088 C 758.306 -3.74455 -0.382191 0
M  V30 8089 C 757.453 -2.74338 0.404207 0
M  V30 8090 H 760.404 -1.43225 0.683547 0
M  V30 8091 H 760.425 -3.72321 -0.78468 0
M  V30 8092 H 759.937 -3.73906 1.04 0
M  V30 8093 H 758.038 -3.44944 -1.4087 0
M  V30 8094 H 758.151 -4.79025 -0.084862 0
M  V30 8095 H 756.515 -2.54305 -0.141829 0
M  V30 8096 H 757.298 -3.12293 1.42577 0
M  V30 8097 N 759.743 -0.201713 -1.56304 0
M  V30 8098 C 760.706 0.702811 -2.18159 0
M  V30 8099 C 761.706 1.13619 -1.13787 0
M  V30 8100 O 762.896 1.0482 -1.39134 0
M  V30 8101 C 760.028 1.96032 -2.78898 0
M  V30 8102 H 761.221 0.163836 -2.99452 0
M  V30 8103 H 758.774 0.04791 -1.56227 0
M  V30 8104 H 759.509 2.54165 -2.01421 0
M  V30 8105 H 759.294 1.65824 -3.55309 0
M  V30 8106 H 760.784 2.60519 -3.26373 0
M  V30 8107 N 761.222 1.57436 0.0718424 0
M  V30 8108 C 762.633 1.75975 0.623678 0
M  V30 8109 C 762.984 0.827155 1.77912 0
M  V30 8110 O 762.109 0.0112425 2.16397 0
M  V30 8111 C 762.704 3.1911 1.13816 0
M  V30 8112 C 761.263 3.38994 1.63586 0
M  V30 8113 C 760.41 2.71684 0.555261 0
M  V30 8114 H 763.361 1.57948 -0.154328 0
M  V30 8115 H 763.382 3.23267 2.00696 0
M  V30 8116 H 762.894 3.86962 0.296998 0
M  V30 8117 H 760.995 2.76256 2.50027 0
M  V30 8118 H 761.108 4.47436 1.71283 0
M  V30 8119 H 759.472 2.34236 1.00029 0
M  V30 8120 H 760.255 3.42191 -0.275712 0
M  V30 8121 N 762.7 -0.34323 1.53817 0
M  V30 8122 C 764.111 -0.918823 1.62525 0
M  V30 8123 C 764.462 -1.89542 0.506765 0
M  V30 8124 O 763.587 -2.13326 -0.363441 0
M  V30 8125 C 764.182 -1.67326 2.94597 0
M  V30 8126 C 762.741 -2.19786 3.05567 0
M  V30 8127 C 761.888 -1.01708 2.57974 0
M  V30 8128 H 764.839 -0.121358 1.58235 0
M  V30 8129 H 764.86 -2.53615 2.83654 0
M  V30 8130 H 764.372 -0.962223 3.75983 0
M  V30 8131 H 762.473 -2.94065 2.28816 0
M  V30 8132 H 762.586 -2.46135 4.1104 0
M  V30 8133 H 760.95 -1.39058 2.13389 0
M  V30 8134 H 761.733 -0.320671 3.41799 0
M  V30 8135 N 764.178 -1.45556 -0.604258 0
M  V30 8136 C 765.589 -1.44171 -1.18624 0
M  V30 8137 C 765.94 -0.171081 -1.95453 0
M  V30 8138 O 765.065 0.727156 -2.03817 0
M  V30 8139 C 765.66 -2.61193 -2.15786 0
M  V30 8140 C 764.219 -2.62918 -2.69353 0
M  V30 8141 C 763.366 -2.36479 -1.4482 0
M  V30 8142 H 766.317 -1.53747 -0.393381 0
M  V30 8143 H 766.338 -2.35481 -2.98879 0
M  V30 8144 H 765.85 -3.53656 -1.59841 0
M  V30 8145 H 763.951 -1.7447 -3.29228 0
M  V30 8146 H 764.064 -3.6224 -3.13559 0
M  V30 8147 H 762.428 -1.86103 -1.73891 0
M  V30 8148 H 763.211 -3.31091 -0.907376 0
M  V30 8149 N 765.656 0.84705 -1.32902 0
M  V30 8150 C 767.067 1.41785 -1.21466 0
M  V30 8151 C 767.418 1.95464 0.169767 0
M  V30 8152 O 766.543 1.88157 1.06892 0
M  V30 8153 C 767.138 2.57734 -2.19906 0
M  V30 8154 C 765.697 3.10791 -2.12334 0
M  V30 8155 C 764.844 1.83562 -2.07847 0
M  V30 8156 H 767.795 0.653532 -1.44619 0
M  V30 8157 H 767.816 3.35123 -1.80202 0
M  V30 8158 H 767.328 2.18635 -3.20656 0
M  V30 8159 H 765.429 3.54455 -1.14858 0
M  V30 8160 H 765.542 3.71519 -3.02506 0
M  V30 8161 H 763.906 2.03475 -1.53199 0
M  V30 8162 H 764.689 1.4667 -3.10392 0
M  V30 8163 N 767.134 1.16236 1.06428 0
M  V30 8164 C 768.545 0.950942 1.60667 0
M  V30 8165 C 768.896 -0.505491 1.89576 0
M  V30 8166 O 768.021 -1.37843 1.66818 0
M  V30 8167 C 768.616 1.71982 2.91904 0
M  V30 8168 C 767.175 1.55342 3.4285 0
M  V30 8169 C 766.322 1.72942 2.16763 0
M  V30 8170 H 769.273 1.31126 0.893959 0
M  V30 8171 H 769.294 1.19483 3.61253 0
M  V30 8172 H 768.806 2.77978 2.70831 0
M  V30 8173 H 766.907 0.5178 3.68985 0
M  V30 8174 H 767.02 2.33643 4.18267 0
M  V30 8175 H 765.384 1.15673 2.26918 0
M  V30 8176 H 766.167 2.80324 1.98175 0
M  V30 8177 N 768.612 -1.24939 0.960631 0
M  V30 8178 C 769.575 -2.239 0.49006 0
M  V30 8179 C 770.575 -1.55497 -0.409535 0
M  V30 8180 O 771.765 -1.72978 -0.205984 0
M  V30 8181 C 768.897 -3.39654 -0.291193 0
M  V30 8182 H 770.09 -2.67044 1.36482 0
M  V30 8183 H 767.643 -1.37429 0.744505 0
M  V30 8184 H 768.378 -3.01939 -1.18336 0
M  V30 8185 H 768.163 -3.90496 0.354276 0
M  V30 8186 H 769.653 -4.13125 -0.609693 0
M  V30 8187 N 770.09 -0.729906 -1.39679 0
M  V30 8188 C 771.33 -0.280232 -2.0247 0
M  V30 8189 C 771.694 1.11006 -1.56658 0
M  V30 8190 O 772.895 1.65753 -2.11612 0
M  V30 8191 C 771.166 -0.372922 -3.55449 0
M  V30 8192 S 772.725 -0.00233974 -4.388 0
M  V30 8193 H 769.543 -0.110139 -0.702418 0
M  V30 8194 H 772.145 -0.955296 -1.70571 0
M  V30 8195 H 770.849 -1.38616 -3.86282 0
M  V30 8196 H 770.38 0.320136 -3.92095 0
M  V30 8197 H 772.395 1.21544 -4.81084 0
M  V30 8198 N 771.568 1.50203 -0.477153 0
M  V30 8199 C 772.796 2.0677 0.0732489 0
M  V30 8200 C 773.211 1.34033 1.32968 0
M  V30 8201 O 772.568 0.411412 1.77802 0
M  V30 8202 C 772.619 3.59751 0.35518 0
M  V30 8203 O 772.34 4.29747 -0.851425 0
M  V30 8204 C 773.841 4.3296 0.951877 0
M  V30 8205 H 771.061 0.670929 -0.00978923 0
M  V30 8206 H 773.605 1.93293 -0.667676 0
M  V30 8207 H 771.76 3.7301 1.04605 0
M  V30 8208 H 772.174 5.2106 -0.599708 0
M  V30 8209 H 773.648 5.40952 1.09888 0
M  V30 8210 H 774.125 3.93856 1.94356 0
M  V30 8211 H 774.731 4.24246 0.299208 0
M  V30 8212 N 773.046 0.209999 1.56195 0
M  V30 8213 C 774.294 -0.423974 1.97603 0
M  V30 8214 C 774.615 -1.61112 1.09854 0
M  V30 8215 O 773.885 -1.95134 0.173032 0
M  V30 8216 H 772.465 -0.159629 0.729745 0
M  V30 8217 H 775.127 0.300205 1.92574 0
M  V30 8218 H 774.223 -0.75809 3.02753 0
M  V30 8219 N 774.524 -1.57472 -0.0634922 0
M  V30 8220 C 775.471 -2.04258 -1.07457 0
M  V30 8221 C 776.441 -0.924804 -1.37973 0
M  V30 8222 O 777.626 -1.19305 -1.48899 0
M  V30 8223 C 774.766 -2.49832 -2.38071 0
M  V30 8224 C 773.879 -3.75263 -2.14014 0
M  V30 8225 C 773.014 -4.09585 -3.38251 0
M  V30 8226 C 772.053 -5.28032 -3.09594 0
M  V30 8227 N 771.19 -5.57953 -4.26185 0
M  V30 8228 H 776.03 -2.90402 -0.668626 0
M  V30 8229 H 773.567 -1.43609 -0.318572 0
M  V30 8230 H 775.525 -2.7431 -3.14341 0
M  V30 8231 H 774.155 -1.66654 -2.76453 0
M  V30 8232 H 773.207 -3.58075 -1.28399 0
M  V30 8233 H 774.519 -4.61667 -1.88852 0
M  V30 8234 H 773.673 -4.35008 -4.2291 0
M  V30 8235 H 772.412 -3.21765 -3.66495 0
M  V30 8236 H 771.417 -5.02397 -2.23332 0
M  V30 8237 H 772.642 -6.17477 -2.82663 0
M  V30 8238 H 770.588 -4.73092 -4.54445 0
M  V30 8239 H 770.505 -6.38793 -4.04326 0
M  V30 8240 H 771.773 -5.87931 -5.11817 0
M  V30 8241 N 776.003 0.335068 -1.53997 0
M  V30 8242 C 776.966 1.39481 -1.81872 0
M  V30 8243 C 777.966 1.4524 -0.690078 0
M  V30 8244 O 779.156 1.45467 -0.958377 0
M  V30 8245 C 776.288 2.78329 -1.9684 0
M  V30 8246 H 777.481 1.16024 -2.76547 0
M  V30 8247 H 775.034 0.569926 -1.45539 0
M  V30 8248 H 775.769 3.07058 -1.04337 0
M  V30 8249 H 775.554 2.75544 -2.78958 0
M  V30 8250 H 777.044 3.55016 -2.19894 0
M  V30 8251 N 777.481 1.45874 0.596531 0
M  V30 8252 C 778.729 1.5017 1.35253 0
M  V30 8253 C 779.05 0.149246 1.94428 0
M  V30 8254 O 778.32 -0.82268 1.77789 0
M  V30 8255 H 776.9 0.553052 0.502138 0
M  V30 8256 H 779.562 1.81908 0.699671 0
M  V30 8257 H 778.658 2.24671 2.16632 0
M  V30 8258 N 778.959 -0.83999 1.33349 0
M  V30 8259 C 779.906 -1.94972 1.23509 0
M  V30 8260 C 780.876 -1.65709 0.113967 0
M  V30 8261 O 782.061 -1.88552 0.292045 0
M  V30 8262 C 779.201 -3.30919 0.979105 0
M  V30 8263 C 778.314 -3.72587 2.18639 0
M  V30 8264 C 777.449 -4.97397 1.86465 0
M  V30 8265 C 776.488 -5.31597 3.03432 0
M  V30 8266 N 775.625 -6.47584 2.71254 0
M  V30 8267 H 780.465 -2.0272 2.18423 0
M  V30 8268 H 778.002 -0.992017 1.08616 0
M  V30 8269 H 779.96 -4.09239 0.811126 0
M  V30 8270 H 778.59 -3.22731 0.0667099 0
M  V30 8271 H 777.642 -2.89799 2.46416 0
M  V30 8272 H 778.954 -3.93844 3.06086 0
M  V30 8273 H 778.108 -5.83462 1.66305 0
M  V30 8274 H 776.847 -4.78107 0.96254 0
M  V30 8275 H 775.852 -4.44037 3.24208 0
M  V30 8276 H 777.077 -5.52836 3.94397 0
M  V30 8277 H 775.023 -6.29783 1.836 0
M  V30 8278 H 774.94 -6.68931 3.52231 0
M  V30 8279 H 776.208 -7.36764 2.54558 0
M  V30 8280 N 780.437 -1.16799 -1.0581 0
M  V30 8281 C 781.848 -0.95945 -1.60161 0
M  V30 8282 C 782.199 0.49543 -1.89842 0
M  V30 8283 O 781.324 1.36957 -1.67546 0
M  V30 8284 C 781.919 -1.73527 -2.90987 0
M  V30 8285 C 780.478 -1.57158 -3.42021 0
M  V30 8286 C 779.625 -1.74089 -2.15843 0
M  V30 8287 H 782.576 -1.31598 -0.886992 0
M  V30 8288 H 782.597 -1.21397 -3.60615 0
M  V30 8289 H 782.109 -2.79411 -2.69353 0
M  V30 8290 H 780.21 -0.537361 -3.68705 0
M  V30 8291 H 780.323 -2.35858 -4.17022 0
M  V30 8292 H 778.687 -1.16874 -2.26302 0
M  V30 8293 H 779.47 -2.81371 -1.96686 0
M  V30 8294 N 781.915 1.24427 -0.967243 0
M  V30 8295 C 782.878 2.23637 -0.501927 0
M  V30 8296 C 783.878 1.55712 0.401283 0
M  V30 8297 O 785.068 1.73085 0.196808 0
M  V30 8298 C 782.2 3.39804 0.273176 0
M  V30 8299 H 783.393 2.66317 -1.37897 0
M  V30 8300 H 780.946 1.37033 -0.751783 0
M  V30 8301 H 781.681 3.02562 1.16733 0
M  V30 8302 H 781.466 3.90303 -0.37498 0
M  V30 8303 H 782.956 4.13443 0.587776 0
M  V30 8304 N 783.393 0.737304 1.3929 0
M  V30 8305 C 784.325 0.0592106 2.29124 0
M  V30 8306 C 785.338 -0.701026 1.46934 0
M  V30 8307 O 786.527 -0.544808 1.69983 0
M  V30 8308 C 783.627 -0.940358 3.25592 0
M  V30 8309 C 782.8 -0.241163 4.36735 0
M  V30 8310 C 781.859 -1.14916 5.13498 0
M  V30 8311 O 780.885 -0.625783 5.6575 0
M  V30 8312 N 782.087 -2.47869 5.2492 0
M  V30 8313 H 784.852 0.830647 2.87959 0
M  V30 8314 H 782.413 0.586718 1.50895 0
M  V30 8315 H 784.405 -1.55046 3.73822 0
M  V30 8316 H 782.975 -1.61299 2.67771 0
M  V30 8317 H 782.195 0.549441 3.90352 0
M  V30 8318 H 783.483 0.243299 5.08218 0
M  V30 8319 H 782.881 -2.92864 4.83991 0
M  V30 8320 H 781.438 -3.03969 5.76581 0
M  V30 8321 N 784.871 -1.49948 0.485112 0
M  V30 8322 C 786.096 -2.073 -0.0645059 0
M  V30 8323 C 786.521 -1.345 -1.31497 0
M  V30 8324 O 785.879 -0.39687 -1.76903 0
M  V30 8325 C 785.927 -3.59201 -0.317304 0
M  V30 8326 O 785.031 -3.88085 -1.39514 0
M  V30 8327 H 784.372 -0.663723 0.0191822 0
M  V30 8328 H 786.902 -1.92963 0.680179 0
M  V30 8329 H 786.912 -4.04227 -0.553604 0
M  V30 8330 H 785.587 -4.11602 0.596387 0
M  V30 8331 H 784.164 -3.54885 -1.14504 0
M  V30 8332 N 786.349 -0.21828 -1.56081 0
M  V30 8333 C 787.76 0.290166 -1.84431 0
M  V30 8334 C 788.111 1.59712 -1.13958 0
M  V30 8335 O 787.236 2.12516 -0.40815 0
M  V30 8336 C 787.831 0.53325 -3.34577 0
M  V30 8337 C 786.39 0.986011 -3.63256 0
M  V30 8338 C 785.537 0.0472798 -2.7726 0
M  V30 8339 H 788.488 -0.441548 -1.52434 0
M  V30 8340 H 788.509 1.37967 -3.54606 0
M  V30 8341 H 788.021 -0.418137 -3.85841 0
M  V30 8342 H 786.122 1.95087 -3.17446 0
M  V30 8343 H 786.235 0.862684 -4.71269 0
M  V30 8344 H 784.599 0.553471 -2.48614 0
M  V30 8345 H 785.382 -0.898966 -3.31321 0
M  V30 8346 N 787.827 1.57504 0.0551401 0
M  V30 8347 C 789.052 1.92682 0.767352 0
M  V30 8348 C 789.477 0.81614 1.69472 0
M  V30 8349 O 788.835 -0.229989 1.79835 0
M  V30 8350 C 788.883 3.26866 1.52286 0
M  V30 8351 O 787.987 3.17274 2.63459 0
M  V30 8352 H 787.328 0.630502 0.208238 0
M  V30 8353 H 789.858 2.04592 0.0184026 0
M  V30 8354 H 789.868 3.61138 1.8985 0
M  V30 8355 H 788.543 4.07276 0.842541 0
M  V30 8356 H 787.12 2.94589 2.2863 0
M  V30 8357 N 789.305 -0.326896 1.54172 0
M  V30 8358 C 790.237 -1.42319 1.79661 0
M  V30 8359 C 791.25 -1.47989 0.678456 0
M  V30 8360 O 792.439 -1.50773 0.955503 0
M  V30 8361 C 789.539 -2.80876 1.89636 0
M  V30 8362 C 788.712 -2.98449 3.19761 0
M  V30 8363 C 787.771 -4.17347 3.2048 0
M  V30 8364 O 786.797 -4.10667 3.94134 0
M  V30 8365 N 787.999 -5.26717 2.44027 0
M  V30 8366 H 790.764 -1.20819 2.74268 0
M  V30 8367 H 788.325 -0.516866 1.53428 0
M  V30 8368 H 790.317 -3.58619 1.87549 0
M  V30 8369 H 788.887 -2.95442 1.02141 0
M  V30 8370 H 788.107 -2.08035 3.34836 0
M  V30 8371 H 789.395 -3.07083 4.05681 0
M  V30 8372 H 788.793 -5.35019 1.8377 0
M  V30 8373 H 787.35 -6.02891 2.47721 0
M  V30 8374 N 790.784 -1.46188 -0.588786 0
M  V30 8375 C 791.694 -1.58865 -1.72624 0
M  V30 8376 C 792.71 -0.472348 -1.67466 0
M  V30 8377 O 793.886 -0.735638 -1.87484 0
M  V30 8378 C 790.951 -1.56989 -3.0912 0
M  V30 8379 C 790.012 -2.79804 -3.25589 0
M  V30 8380 C 789.245 -2.78009 -4.55573 0
M  V30 8381 O 789.468 -1.86406 -5.39082 0
M  V30 8382 O 788.402 -3.6947 -4.75159 0
M  V30 8383 H 792.228 -2.55047 -1.64878 0
M  V30 8384 H 789.813 -1.28912 -0.755115 0
M  V30 8385 H 791.695 -1.58618 -3.90408 0
M  V30 8386 H 790.37 -0.639648 -3.17317 0
M  V30 8387 H 789.277 -2.83732 -2.43818 0
M  V30 8388 H 790.61 -3.72017 -3.22279 0
M  V30 8389 N 792.262 0.832906 -1.33792 0
M  V30 8390 C 793.225 1.92471 -1.24449 0
M  V30 8391 C 794.225 1.59981 -0.162085 0
M  V30 8392 O 795.415 1.69208 -0.414029 0
M  V30 8393 C 792.547 3.28278 -0.919044 0
M  V30 8394 H 793.74 2.0218 -2.21502 0
M  V30 8395 H 791.293 1.0257 -1.17936 0
M  V30 8396 H 792.028 3.24263 0.048738 0
M  V30 8397 H 791.813 3.53241 -1.70187 0
M  V30 8398 H 793.303 4.08253 -0.878576 0
M  V30 8399 N 793.74 1.17359 1.05189 0
M  V30 8400 C 794.988 0.960087 1.77839 0
M  V30 8401 C 795.309 -0.512554 1.88143 0
M  V30 8402 O 794.579 -1.3721 1.39822 0
M  V30 8403 H 793.159 0.352234 0.658741 0
M  V30 8404 H 795.821 1.47834 1.27008 0
M  V30 8405 H 794.917 1.38843 2.79516 0
M  V30 8406 N 795.218 -1.23913 0.973828 0
M  V30 8407 C 796.128 -2.28838 0.516735 0
M  V30 8408 C 797.144 -1.68723 -0.425282 0
M  V30 8409 O 798.32 -1.99201 -0.296819 0
M  V30 8410 C 795.385 -3.46233 -0.179914 0
M  V30 8411 C 794.446 -4.21729 0.80269 0
M  V30 8412 C 793.679 -5.33518 0.139191 0
M  V30 8413 O 793.902 -5.60252 -1.07118 0
M  V30 8414 O 792.836 -5.96088 0.834447 0
M  V30 8415 H 796.662 -2.70067 1.38916 0
M  V30 8416 H 794.247 -1.2972 0.74115 0
M  V30 8417 H 796.129 -4.17514 -0.570991 0
M  V30 8418 H 794.804 -3.06969 -1.02721 0
M  V30 8419 H 793.711 -3.52799 1.24434 0
M  V30 8420 H 795.044 -4.64825 1.61859 0
M  V30 8421 N 796.696 -0.74468 -1.38897 0
M  V30 8422 C 797.659 -0.11945 -2.28889 0
M  V30 8423 C 798.659 0.656942 -1.46768 0
M  V30 8424 O 799.849 0.484525 -1.67326 0
M  V30 8425 C 796.981 0.839635 -3.30398 0
M  V30 8426 H 798.174 -0.912414 -2.85683 0
M  V30 8427 H 795.727 -0.511119 -1.47707 0
M  V30 8428 H 796.462 1.6586 -2.78677 0
M  V30 8429 H 796.247 0.285432 -3.9106 0
M  V30 8430 H 797.737 1.27337 -3.97712 0
M  V30 8431 N 798.174 1.49689 -0.493057 0
M  V30 8432 C 799.422 2.02027 0.0541642 0
M  V30 8433 C 799.743 1.37554 1.38217 0
M  V30 8434 O 799.013 0.528174 1.88646 0
M  V30 8435 H 797.593 0.746646 0.0230069 0
M  V30 8436 H 800.255 1.83795 -0.648489 0
M  V30 8437 H 799.351 3.11523 0.189652 0
M  V30 8438 N 799.652 0.226554 1.55963 0
M  V30 8439 C 800.9 -0.402991 1.98041 0
M  V30 8440 C 801.221 -1.59938 1.11557 0
M  V30 8441 O 800.491 -1.9494 0.193719 0
M  V30 8442 H 799.071 -0.15188 0.731397 0
M  V30 8443 H 801.733 0.320613 1.92245 0
M  V30 8444 H 800.829 -0.725937 3.0354 0
M  V30 8445 N 801.13 -1.57531 -0.0467866 0
M  V30 8446 C 802.541 -1.76945 -0.595603 0
M  V30 8447 C 802.892 -0.855354 -1.76573 0
M  V30 8448 O 802.017 -0.045668 -2.16352 0
M  V30 8449 C 802.612 -3.20881 -1.08725 0
M  V30 8450 C 801.171 -3.41553 -1.58172 0
M  V30 8451 C 800.318 -2.72533 -0.511968 0
M  V30 8452 H 803.269 -1.57682 0.179436 0
M  V30 8453 H 803.29 -3.26419 -1.95528 0
M  V30 8454 H 802.802 -3.87385 -0.235398 0
M  V30 8455 H 800.903 -2.80199 -2.456 0
M  V30 8456 H 801.016 -4.50104 -1.64143 0
M  V30 8457 H 799.38 -2.35797 -0.962899 0
M  V30 8458 H 800.163 -3.41709 0.330117 0
M  V30 8459 N 802.608 0.318715 -1.54344 0
M  V30 8460 C 803.836 1.0755 -1.7675 0
M  V30 8461 C 804.251 1.81543 -0.518422 0
M  V30 8462 O 803.608 1.75198 0.511078 0
M  V30 8463 C 803.659 2.06983 -2.96378 0
M  V30 8464 O 803.38 1.35995 -4.16458 0
M  V30 8465 C 804.881 2.94841 -3.31034 0
M  V30 8466 H 802.101 0.319711 -0.589937 0
M  V30 8467 H 804.645 0.363369 -2.01246 0
M  V30 8468 H 802.8 2.73724 -2.74142 0
M  V30 8469 H 803.214 2.02623 -4.83781 0
M  V30 8470 H 804.688 3.60496 -4.18027 0
M  V30 8471 H 805.165 3.62199 -2.48412 0
M  V30 8472 H 805.771 2.33656 -3.55366 0
M  V30 8473 N 804.086 1.46499 0.581025 0
M  V30 8474 C 805.033 1.5719 1.68997 0
M  V30 8475 C 806.003 0.416114 1.60803 0
M  V30 8476 O 807.188 0.633086 1.79991 0
M  V30 8477 C 804.328 1.56973 3.07333 0
M  V30 8478 C 803.441 2.83298 3.26139 0
M  V30 8479 C 802.576 2.74574 4.54734 0
M  V30 8480 C 801.615 3.9583 4.66889 0
M  V30 8481 N 800.752 3.85482 5.86811 0
M  V30 8482 H 805.592 2.51914 1.59196 0
M  V30 8483 H 803.129 1.24975 0.775857 0
M  V30 8484 H 805.087 1.54832 3.87405 0
M  V30 8485 H 803.717 0.657803 3.16027 0
M  V30 8486 H 802.769 2.95411 2.3966 0
M  V30 8487 H 804.081 3.7316 3.30988 0
M  V30 8488 H 803.235 2.70548 5.43036 0
M  V30 8489 H 801.974 1.82354 4.52325 0
M  V30 8490 H 800.979 4.00186 3.77003 0
M  V30 8491 H 802.204 4.89148 4.71075 0
M  V30 8492 H 800.15 2.96051 5.85397 0
M  V30 8493 H 800.067 4.69002 5.92936 0
M  V30 8494 H 801.335 3.85434 6.7754 0
M  V30 8495 N 805.565 -0.825799 1.34232 0
M  V30 8496 C 806.793 -1.61363 1.29497 0
M  V30 8497 C 807.208 -1.88341 -0.131536 0
M  V30 8498 O 806.565 -1.47279 -1.07773 0
M  V30 8499 C 806.616 -2.95623 2.08061 0
M  V30 8500 O 806.337 -2.69824 3.45147 0
M  V30 8501 C 807.838 -3.90032 2.10688 0
M  V30 8502 H 805.058 -0.501676 0.445603 0
M  V30 8503 H 807.602 -1.02767 1.76803 0
M  V30 8504 H 805.757 -3.50785 1.64404 0
M  V30 8505 H 806.171 -3.55412 3.85723 0
M  V30 8506 H 807.645 -4.81411 2.70087 0
M  V30 8507 H 808.122 -4.25188 1.10052 0
M  V30 8508 H 808.728 -3.40807 2.54422 0
M  V30 8509 N 807.043 -1.17915 -1.04565 0
M  V30 8510 C 807.99 -0.901605 -2.12461 0
M  V30 8511 C 808.96 0.157011 -1.65356 0
M  V30 8512 O 810.145 0.0184494 -1.90791 0
M  V30 8513 C 807.285 -0.42796 -3.42436 0
M  V30 8514 C 806.398 -1.55142 -4.03181 0
M  V30 8515 C 805.533 -1.03101 -5.21098 0
M  V30 8516 C 804.572 -2.1295 -5.73863 0
M  V30 8517 N 803.709 -1.62339 -6.83074 0
M  V30 8518 H 808.549 -1.82551 -2.3554 0
M  V30 8519 H 806.086 -0.910389 -1.15544 0
M  V30 8520 H 808.044 -0.134859 -4.16982 0
M  V30 8521 H 806.674 0.458977 -3.1952 0
M  V30 8522 H 805.726 -1.96011 -3.26012 0
M  V30 8523 H 807.038 -2.37968 -4.38375 0
M  V30 8524 H 806.192 -0.692132 -6.02739 0
M  V30 8525 H 804.931 -0.17227 -4.87396 0
M  V30 8526 H 803.936 -2.47687 -4.90847 0
M  V30 8527 H 805.161 -2.9925 -6.09611 0
M  V30 8528 H 803.107 -0.787464 -6.51256 0
M  V30 8529 H 803.024 -2.38767 -7.17305 0
M  V30 8530 H 804.292 -1.31363 -7.68351 0
M  V30 8531 N 808.521 1.23394 -0.980386 0
M  V30 8532 C 809.761 1.93543 -0.657288 0
M  V30 8533 C 810.125 1.74791 0.794477 0
M  V30 8534 O 811.326 2.39089 1.2284 0
M  V30 8535 C 809.597 3.42025 -1.03701 0
M  V30 8536 S 811.156 4.30871 -0.830379 0
M  V30 8537 H 807.974 0.669012 -0.240717 0
M  V30 8538 H 810.576 1.49478 -1.26002 0
M  V30 8539 H 809.28 3.53183 -2.09022 0
M  V30 8540 H 808.811 3.91091 -0.425559 0
M  V30 8541 H 810.826 4.95377 0.285719 0
M  V30 8542 N 809.999 0.752036 1.385 0
M  V30 8543 C 811.227 0.318274 2.04437 0
M  V30 8544 C 811.642 -1.05285 1.56718 0
M  V30 8545 O 810.999 -1.66844 0.73956 0
M  V30 8546 C 811.05 0.330106 3.5999 0
M  V30 8547 O 810.771 1.64712 4.05957 0
M  V30 8548 C 812.272 -0.117713 4.43144 0
M  V30 8549 H 809.492 0.136228 0.657026 0
M  V30 8550 H 812.036 1.02045 1.7722 0
M  V30 8551 H 810.191 -0.323323 3.86048 0
M  V30 8552 H 810.605 1.57225 5.0038 0
M  V30 8553 H 812.079 -0.0582735 5.51969 0
M  V30 8554 H 812.556 -1.16538 4.23457 0
M  V30 8555 H 813.162 0.506784 4.2227 0
M  V30 8556 N 811.477 -1.49425 0.500989 0
M  V30 8557 C 812.702 -2.07356 -0.0425154 0
M  V30 8558 C 813.127 -1.35887 -1.30063 0
M  V30 8559 O 812.485 -0.41561 -1.76472 0
M  V30 8560 C 812.533 -3.59518 -0.279188 0
M  V30 8561 O 811.637 -3.89542 -1.3539 0
M  V30 8562 H 810.978 -0.663482 0.0262207 0
M  V30 8563 H 813.508 -1.92231 0.700607 0
M  V30 8564 H 813.518 -4.04791 -0.5107 0
M  V30 8565 H 812.193 -4.10946 0.640009 0
M  V30 8566 H 810.77 -3.56079 -1.10734 0
M  V30 8567 N 812.955 -0.234822 -1.55841 0
M  V30 8568 C 813.885 0.664217 -2.23854 0
M  V30 8569 C 814.866 1.19076 -1.2147 0
M  V30 8570 O 816.051 1.23232 -1.50091 0
M  V30 8571 C 813.181 1.86666 -2.9287 0
M  V30 8572 C 812.135 1.47341 -4.01839 0
M  V30 8573 C 811.461 2.75571 -4.58219 0
M  V30 8574 C 812.761 0.653479 -5.18196 0
M  V30 8575 H 814.455 0.0971213 -2.99242 0
M  V30 8576 H 812.001 0.0452724 -1.43929 0
M  V30 8577 H 813.954 2.50116 -3.39146 0
M  V30 8578 H 812.678 2.45894 -2.1495 0
M  V30 8579 H 811.337 0.862314 -3.56314 0
M  V30 8580 H 810.985 3.32971 -3.77014 0
M  V30 8581 H 810.685 2.49987 -5.31771 0
M  V30 8582 H 812.209 3.39939 -5.07221 0
M  V30 8583 H 813.623 1.19198 -5.60771 0
M  V30 8584 H 812.02 0.494188 -5.98062 0
M  V30 8585 H 813.09 -0.337004 -4.83728 0
M  V30 8586 N 814.433 1.57553 0.0384317 0
M  V30 8587 C 815.396 2.04927 1.02653 0
M  V30 8588 C 816.396 0.951768 1.29607 0
M  V30 8589 O 817.586 1.21568 1.24768 0
M  V30 8590 C 814.718 2.45828 2.36181 0
M  V30 8591 H 815.911 2.93474 0.617508 0
M  V30 8592 H 813.464 1.53679 0.285031 0
M  V30 8593 H 814.199 1.60408 2.8185 0
M  V30 8594 H 813.984 3.25945 2.1795 0
M  V30 8595 H 815.474 2.82939 3.0714 0
M  V30 8596 N 815.911 -0.310526 1.54511 0
M  V30 8597 C 816.844 -1.40693 1.79668 0
M  V30 8598 C 817.822 -1.49159 0.64734 0
M  V30 8599 O 819.006 -1.66367 0.886239 0
M  V30 8600 C 816.133 -2.78685 1.92491 0
M  V30 8601 C 815.179 -2.87688 3.14861 0
M  V30 8602 S 816.012 -2.50759 4.7316 0
M  V30 8603 C 817.168 -3.90797 4.88906 0
M  V30 8604 H 817.401 -1.19142 2.72383 0
M  V30 8605 H 814.934 -0.508103 1.458 0
M  V30 8606 H 816.892 -3.58168 2.00563 0
M  V30 8607 H 815.553 -2.9751 1.00731 0
M  V30 8608 H 814.746 -3.8888 3.20607 0
M  V30 8609 H 814.348 -2.16189 3.05186 0
M  V30 8610 H 816.64 -4.85693 4.72344 0
M  V30 8611 H 817.583 -3.90027 5.91003 0
M  V30 8612 H 817.991 -3.80357 4.1712 0
M  V30 8613 N 817.389 -1.46805 -0.573248 0
M  V30 8614 C 818.666 -1.43082 -1.33368 0
M  V30 8615 C 819.046 -0.119252 -2.10763 0
M  V30 8616 O 818.394 0.899239 -2.10062 0
M  V30 8617 C 818.604 -2.66643 -2.25172 0
M  V30 8618 C 819.952 -3.13188 -2.86702 0
M  V30 8619 O 820.976 -2.67258 -2.35482 0
M  V30 8620 O 819.835 -3.92994 -3.79761 0
M  V30 8621 H 816.929 -0.569451 -0.599712 0
M  V30 8622 H 819.475 -1.58984 -0.59348 0
M  V30 8623 H 818.247 -3.53649 -1.67475 0
M  V30 8624 H 817.87 -2.53247 -3.06516 0
M  V30 8625 N 818.867 0.818669 -1.34668 0
M  V30 8626 C 819.83 1.9114 -1.26483 0
M  V30 8627 C 820.83 1.598 -0.179044 0
M  V30 8628 O 822.02 1.6876 -0.431952 0
M  V30 8629 C 819.152 3.27285 -0.95381 0
M  V30 8630 H 820.345 1.9982 -2.23634 0
M  V30 8631 H 817.898 1.01314 -1.19018 0
M  V30 8632 H 818.633 3.24297 0.0143428 0
M  V30 8633 H 818.418 3.51416 -1.73924 0
M  V30 8634 H 819.908 4.07299 -0.921827 0
M  V30 8635 N 820.346 1.18468 1.03938 0
M  V30 8636 C 821.592 0.982286 1.77423 0
M  V30 8637 C 821.925 -0.48679 1.88 0
M  V30 8638 O 821.2 -1.36146 1.38905 0
M  V30 8639 C 821.483 1.63929 3.20623 0
M  V30 8640 C 821.336 3.18132 3.17982 0
M  V30 8641 C 822.655 1.3536 4.18767 0
M  V30 8642 H 819.774 0.358264 0.644062 0
M  V30 8643 H 822.416 1.46154 1.21405 0
M  V30 8644 H 820.566 1.2318 3.68455 0
M  V30 8645 H 822.238 3.68024 2.78129 0
M  V30 8646 H 820.481 3.50225 2.55978 0
M  V30 8647 H 821.152 3.5924 4.19107 0
M  V30 8648 H 823.628 1.70669 3.79488 0
M  V30 8649 H 822.504 1.83896 5.17178 0
M  V30 8650 H 822.765 0.276722 4.41233 0
M  V30 8651 N 821.824 -1.22873 0.986916 0
M  V30 8652 C 822.772 -2.26597 0.525043 0
M  V30 8653 C 823.766 -1.64079 -0.421252 0
M  V30 8654 O 824.972 -1.77576 -0.294429 0
M  V30 8655 H 821.347 -0.736606 0.151381 0
M  V30 8656 H 823.318 -2.62909 1.41142 0
M  V30 8657 C 822.067 -3.47374 -0.150542 0
M  V30 8658 H 821.39 -3.95737 0.568541 0
M  V30 8659 H 822.83 -4.21739 -0.437256 0
M  V30 8660 C 821.289 -3.07163 -1.38392 0
M  V30 8661 O 821.819 -3.16028 -2.47971 0
M  V30 8662 N 820.025 -2.62009 -1.25697 0
M  V30 8663 H 819.572 -2.54996 -0.365355 0
M  V30 8664 H 819.53 -2.35472 -2.08327 0
M  V30 8665 N 823.302 -0.75937 -1.38099 0
M  V30 8666 C 824.53 -0.329111 -2.04266 0
M  V30 8667 C 824.945 1.04453 -1.57274 0
M  V30 8668 O 824.302 1.66449 -0.748397 0
M  V30 8669 C 824.353 -0.349192 -3.5981 0
M  V30 8670 O 824.074 -1.66863 -4.05078 0
M  V30 8671 C 825.575 0.0942106 -4.432 0
M  V30 8672 H 822.795 -0.13971 -0.656294 0
M  V30 8673 H 825.339 -1.02984 -1.76677 0
M  V30 8674 H 823.494 0.302846 -3.86214 0
M  V30 8675 H 823.908 -1.59877 -4.9954 0
M  V30 8676 H 825.382 0.0290004 -5.51992 0
M  V30 8677 H 825.859 1.1429 -4.24069 0
M  V30 8678 H 826.465 -0.529171 -4.21995 0
M  V30 8679 N 824.78 1.49157 -0.508906 0
M  V30 8680 C 826.057 1.95363 0.0961913 0
M  V30 8681 C 826.437 1.45064 1.53362 0
M  V30 8682 O 825.785 0.667835 2.18523 0
M  V30 8683 C 825.995 3.49 0.000688881 0
M  V30 8684 C 827.343 4.24257 0.170632 0
M  V30 8685 O 828.367 3.5612 0.0754994 0
M  V30 8686 O 827.226 5.45267 0.366957 0
M  V30 8687 H 824.32 0.821984 0.0909489 0
M  V30 8688 H 826.866 1.59769 -0.572007 0
M  V30 8689 H 825.638 3.78269 -1.00143 0
M  V30 8690 H 825.261 3.91233 0.708682 0
M  V30 8691 N 826.258 0.243083 1.55714 0
M  V30 8692 C 827.669 -0.260788 1.8487 0
M  V30 8693 C 828.02 -1.57879 1.16485 0
M  V30 8694 O 827.145 -2.1184 0.441908 0
M  V30 8695 C 827.74 -0.479954 3.35383 0
M  V30 8696 C 826.299 -0.928096 3.64778 0
M  V30 8697 C 825.446 -0.00316416 2.773 0
M  V30 8698 H 828.397 0.465743 1.51712 0
M  V30 8699 H 828.418 -1.32308 3.56756 0
M  V30 8700 H 827.93 0.479468 3.85127 0
M  V30 8701 H 826.031 -1.90012 3.20509 0
M  V30 8702 H 826.144 -0.7876 4.72582 0
M  V30 8703 H 824.508 -0.513849 2.49463 0
M  V30 8704 H 825.291 0.951562 3.29849 0
M  V30 8705 N 827.736 -1.57571 -0.0300757 0
M  V30 8706 C 828.964 -1.93485 -0.732891 0
M  V30 8707 C 829.379 -0.842758 -1.68947 0
M  V30 8708 O 828.736 0.180904 -1.81601 0
M  V30 8709 C 828.787 -3.29328 -1.49082 0
M  V30 8710 O 828.508 -4.34341 -0.572639 0
M  V30 8711 C 830.009 -3.79517 -2.29088 0
M  V30 8712 H 827.229 -0.638588 -0.206026 0
M  V30 8713 H 829.773 -2.04496 0.0120966 0
M  V30 8714 H 827.928 -3.19716 -2.1877 0
M  V30 8715 H 828.342 -5.12748 -1.10406 0
M  V30 8716 H 829.816 -4.77081 -2.77665 0
M  V30 8717 H 830.293 -3.10659 -3.10464 0
M  V30 8718 H 830.899 -3.92208 -1.64477 0
M  V30 8719 N 829.214 0.302327 -1.54673 0
M  V30 8720 C 830.161 1.37282 -1.85532 0
M  V30 8721 C 831.131 1.50437 -0.704129 0
M  V30 8722 O 832.316 1.65317 -0.952627 0
M  V30 8723 C 829.456 2.73309 -2.10704 0
M  V30 8724 C 828.569 2.68614 -3.38335 0
M  V30 8725 C 827.704 3.96626 -3.53357 0
M  V30 8726 C 826.743 3.86324 -4.74784 0
M  V30 8727 N 825.88 5.06109 -4.86619 0
M  V30 8728 H 830.72 1.10265 -2.76849 0
M  V30 8729 H 828.257 0.533346 -1.37091 0
M  V30 8730 H 830.215 3.52414 -2.23294 0
M  V30 8731 H 828.845 2.98589 -1.22656 0
M  V30 8732 H 827.897 1.81381 -3.34373 0
M  V30 8733 H 829.209 2.56891 -4.27561 0
M  V30 8734 H 828.363 4.84168 -3.65604 0
M  V30 8735 H 827.102 4.11182 -2.62261 0
M  V30 8736 H 826.107 2.97166 -4.62572 0
M  V30 8737 H 827.332 3.73315 -5.67286 0
M  V30 8738 H 825.278 5.2113 -3.98446 0
M  V30 8739 H 825.195 4.96804 -5.69844 0
M  V30 8740 H 826.463 5.95306 -5.03221 0
M  V30 8741 N 830.692 1.47107 0.565454 0
M  V30 8742 C 831.655 1.58535 1.65527 0
M  V30 8743 C 832.655 0.461081 1.54048 0
M  V30 8744 O 833.845 0.725911 1.58355 0
M  V30 8745 C 830.977 1.52204 3.05036 0
M  V30 8746 H 832.17 2.55676 1.56747 0
M  V30 8747 H 829.723 1.35174 0.78471 0
M  V30 8748 H 830.458 0.564071 3.19357 0
M  V30 8749 H 830.243 2.3379 3.14777 0
M  V30 8750 H 831.733 1.63322 3.84338 0
M  V30 8751 N 832.17 -0.811516 1.35101 0
M  V30 8752 C 833.418 -1.56525 1.27845 0
M  V30 8753 C 833.739 -1.94435 -0.14829 0
M  V30 8754 O 833.009 -1.63203 -1.08359 0
M  V30 8755 H 831.589 -0.580433 0.47022 0
M  V30 8756 H 834.251 -0.968277 1.69146 0
M  V30 8757 H 833.347 -2.48291 1.89097 0
M  V30 8758 N 833.648 -1.19017 -1.03309 0
M  V30 8759 C 835.059 -0.993206 -1.5809 0
M  V30 8760 C 835.41 0.45505 -1.9085 0
M  V30 8761 O 834.535 1.33372 -1.70414 0
M  V30 8762 C 835.13 -1.79661 -2.87241 0
M  V30 8763 C 833.689 -1.64377 -3.38611 0
M  V30 8764 C 832.836 -1.78628 -2.12102 0
M  V30 8765 H 835.787 -1.3345 -0.858879 0
M  V30 8766 H 835.808 -1.29019 -3.57958 0
M  V30 8767 H 835.32 -2.85061 -2.63366 0
M  V30 8768 H 833.421 -0.615447 -3.67482 0
M  V30 8769 H 833.534 -2.44651 -4.11926 0
M  V30 8770 H 831.898 -1.21648 -2.23772 0
M  V30 8771 H 832.681 -2.8548 -1.90673 0
M  V30 8772 N 835.127 1.22348 -0.993418 0
M  V30 8773 C 836.538 1.72893 -0.704616 0
M  V30 8774 C 836.889 1.80095 0.778483 0
M  V30 8775 O 836.014 1.4476 1.60853 0
M  V30 8776 C 836.609 3.14 -1.27237 0
M  V30 8777 C 835.168 3.61949 -1.03294 0
M  V30 8778 C 834.315 2.39816 -1.39225 0
M  V30 8779 H 837.266 1.07688 -1.16572 0
M  V30 8780 H 837.287 3.74886 -0.651212 0
M  V30 8781 H 836.799 3.08727 -2.3518 0
M  V30 8782 H 834.9 3.72588 0.0298329 0
M  V30 8783 H 835.013 4.48051 -1.69668 0
M  V30 8784 H 833.377 2.41448 -0.810849 0
M  V30 8785 H 834.16 2.37203 -2.48172 0
M  V30 8786 N 836.605 0.766683 1.37694 0
M  V30 8787 C 837.853 0.328065 1.9942 0
M  V30 8788 C 838.174 -1.09775 1.61166 0
M  V30 8789 O 837.444 -1.75288 0.874686 0
M  V30 8790 H 836.024 0.11831 0.737572 0
M  V30 8791 H 838.686 0.983686 1.68255 0
M  V30 8792 H 837.782 0.401647 3.09505 0
M  V30 8793 N 838.083 -1.48885 0.516809 0
M  V30 8794 C 838.993 -2.33185 -0.257293 0
M  V30 8795 C 840.009 -1.4565 -0.951952 0
M  V30 8796 O 841.185 -1.78651 -0.929834 0
M  V30 8797 C 838.25 -3.21465 -1.29851 0
M  V30 8798 C 837.311 -4.24863 -0.615608 0
M  V30 8799 C 836.544 -5.08925 -1.60722 0
M  V30 8800 O 836.767 -4.9475 -2.83863 0
M  V30 8801 O 835.701 -5.90737 -1.15384 0
M  V30 8802 H 839.527 -3.00596 0.433131 0
M  V30 8803 H 837.112 -1.46792 0.277908 0
M  V30 8804 H 838.994 -3.76108 -1.90055 0
M  V30 8805 H 837.669 -2.5673 -1.97158 0
M  V30 8806 H 836.576 -3.74091 0.0265829 0
M  V30 8807 H 837.909 -4.92198 0.0152871 0
M  V30 8808 N 839.561 -0.251338 -1.55583 0
M  V30 8809 C 840.809 0.371434 -1.98657 0
M  V30 8810 C 841.13 1.58143 -1.14087 0
M  V30 8811 O 840.4 1.94607 -0.224708 0
M  V30 8812 H 838.98 0.140225 -0.733721 0
M  V30 8813 H 841.642 -0.351157 -1.9171 0
M  V30 8814 H 840.738 0.677554 -3.04657 0
M  V30 8815 N 841.039 1.57585 0.0217189 0
M  V30 8816 C 841.969 2.10073 1.01939 0
M  V30 8817 C 842.95 1.0049 1.37243 0
M  V30 8818 O 844.135 1.28055 1.45999 0
M  V30 8819 C 841.265 2.58618 2.31806 0
M  V30 8820 C 840.219 3.72531 2.10724 0
M  V30 8821 C 839.545 4.07309 3.46415 0
M  V30 8822 C 840.845 5.00672 1.48743 0
M  V30 8823 H 842.539 2.9368 0.582432 0
M  V30 8824 H 840.085 1.41277 0.278715 0
M  V30 8825 H 842.038 2.9396 3.01936 0
M  V30 8826 H 840.762 1.72104 2.77575 0
M  V30 8827 H 839.421 3.37549 1.43025 0
M  V30 8828 H 839.069 3.17851 3.89846 0
M  V30 8829 H 838.769 4.84042 3.33132 0
M  V30 8830 H 840.293 4.45192 4.17895 0
M  V30 8831 H 841.707 5.33925 2.088 0
M  V30 8832 H 840.104 5.82065 1.46013 0
M  V30 8833 H 841.174 4.82769 0.45408 0
M  V30 8834 N 842.517 -0.29412 1.54831 0
M  V30 8835 C 843.933 -0.640167 1.46199 0
M  V30 8836 C 844.133 -1.90426 0.658798 0
M  V30 8837 O 843.189 -2.51932 0.169228 0
M  V30 8838 C 844.502 -0.786763 2.90225 0
M  V30 8839 C 846.05 -0.882201 3.0031 0
M  V30 8840 C 846.525 -1.06074 4.45547 0
M  V30 8841 N 848.016 -1.12678 4.49286 0
M  V30 8842 C 848.751 -1.28334 5.58854 0
M  V30 8843 N 848.247 -1.40845 6.78332 0
M  V30 8844 N 850.04 -1.31277 5.46555 0
M  V30 8845 H 842.191 0.536334 2.05517 0
M  V30 8846 H 844.454 0.178363 0.93107 0
M  V30 8847 H 844.16 0.0713018 3.51628 0
M  V30 8848 H 844.034 -1.67364 3.38037 0
M  V30 8849 H 846.421 -1.73075 2.39017 0
M  V30 8850 H 846.502 0.0288405 2.55784 0
M  V30 8851 H 846.146 -0.216935 5.07437 0
M  V30 8852 H 846.076 -1.98611 4.8771 0
M  V30 8853 H 848.567 -1.04335 3.63212 0
M  V30 8854 H 848.88 -1.52566 7.57591 0
M  V30 8855 H 847.225 -1.37888 6.81184 0
M  V30 8856 H 850.416 -1.2112 4.52159 0
M  V30 8857 H 850.589 -1.43136 6.31994 0
M  V30 8858 N 843.995 -1.47404 -0.557645 0
M  V30 8859 C 844.942 -1.59859 -1.66475 0
M  V30 8860 C 845.912 -0.441644 -1.60121 0
M  V30 8861 O 847.097 -0.661641 -1.78961 0
M  V30 8862 C 844.237 -1.61843 -3.04797 0
M  V30 8863 C 843.35 -2.8845 -3.2159 0
M  V30 8864 C 842.485 -2.81773 -4.50308 0
M  V30 8865 C 841.524 -4.03208 -4.60532 0
M  V30 8866 N 840.661 -3.94769 -5.80604 0
M  V30 8867 H 845.501 -2.54415 -1.55168 0
M  V30 8868 H 843.038 -1.26194 -0.755876 0
M  V30 8869 H 844.996 -1.60976 -3.84893 0
M  V30 8870 H 843.626 -0.707997 -3.1494 0
M  V30 8871 H 842.678 -2.99186 -2.34929 0
M  V30 8872 H 843.99 -3.78379 -3.25009 0
M  V30 8873 H 843.144 -2.79153 -5.38663 0
M  V30 8874 H 841.883 -1.89527 -4.49367 0
M  V30 8875 H 840.888 -4.06133 -3.70589 0
M  V30 8876 H 842.113 -4.9658 -4.63233 0
M  V30 8877 H 840.059 -3.05326 -5.80613 0
M  V30 8878 H 839.976 -4.78375 -5.854 0
M  V30 8879 H 841.244 -3.96165 -6.71322 0
M  V30 8880 N 845.473 0.80434 -1.35529 0
M  V30 8881 C 846.884 1.37849 -1.25915 0
M  V30 8882 C 847.235 1.95905 0.107495 0
M  V30 8883 O 846.36 1.91462 1.00852 0
M  V30 8884 C 846.955 2.50608 -2.27994 0
M  V30 8885 C 845.514 3.03879 -2.22114 0
M  V30 8886 C 844.661 1.76856 -2.13582 0
M  V30 8887 H 847.612 0.607192 -1.46625 0
M  V30 8888 H 847.633 3.29221 -1.90772 0
M  V30 8889 H 847.145 2.08323 -3.27449 0
M  V30 8890 H 845.246 3.50622 -1.26077 0
M  V30 8891 H 845.359 3.61707 -3.14173 0
M  V30 8892 H 843.723 1.98498 -1.59595 0
M  V30 8893 H 844.506 1.36721 -3.14901 0
M  V30 8894 N 846.951 1.19563 1.02676 0
M  V30 8895 C 848.197 1.00105 1.76371 0
M  V30 8896 C 848.53 -0.466823 1.88506 0
M  V30 8897 O 847.805 -1.34665 1.40341 0
M  V30 8898 C 848.088 1.67321 3.18866 0
M  V30 8899 C 847.941 3.21486 3.1459 0
M  V30 8900 C 849.26 1.39794 4.17308 0
M  V30 8901 H 846.379 0.365075 0.640226 0
M  V30 8902 H 849.021 1.47433 1.19848 0
M  V30 8903 H 847.171 1.27081 3.67128 0
M  V30 8904 H 848.843 3.70953 2.7421 0
M  V30 8905 H 847.086 3.5292 2.52249 0
M  V30 8906 H 847.757 3.63665 4.15273 0
M  V30 8907 H 850.233 1.74685 3.77657 0
M  V30 8908 H 849.109 1.89371 5.15199 0
M  V30 8909 H 849.37 0.323505 4.40915 0
M  V30 8910 N 848.429 -1.21819 0.999893 0
M  V30 8911 C 849.84 -1.72517 0.713775 0
M  V30 8912 C 850.191 -1.80505 -0.768922 0
M  V30 8913 O 849.316 -1.45611 -1.60083 0
M  V30 8914 C 849.911 -3.13321 1.28901 0
M  V30 8915 C 848.47 -3.61396 1.05212 0
M  V30 8916 C 847.617 -2.39074 1.40494 0
M  V30 8917 H 850.568 -1.07068 1.17141 0
M  V30 8918 H 850.589 -3.74535 0.671084 0
M  V30 8919 H 850.101 -3.07475 2.36814 0
M  V30 8920 H 848.202 -3.72599 -0.0100732 0
M  V30 8921 H 848.315 -4.47145 1.72042 0
M  V30 8922 H 846.679 -2.41015 0.823642 0
M  V30 8923 H 847.462 -2.35884 2.49427 0
M  V30 8924 N 849.908 -0.773975 -1.37286 0
M  V30 8925 C 851.319 -0.404433 -1.82267 0
M  V30 8926 C 851.67 1.06971 -1.64474 0
M  V30 8927 O 850.795 1.82867 -1.15708 0
M  V30 8928 C 851.39 -0.727298 -3.30902 0
M  V30 8929 C 849.949 -0.410784 -3.74152 0
M  V30 8930 C 849.096 -0.969983 -2.59782 0
M  V30 8931 H 852.047 -0.968437 -1.25726 0
M  V30 8932 H 852.068 -0.0127575 -3.80498 0
M  V30 8933 H 851.58 -1.80026 -3.4382 0
M  V30 8934 H 849.681 0.65477 -3.66802 0
M  V30 8935 H 849.794 -0.920592 -4.70172 0
M  V30 8936 H 848.158 -0.394094 -2.51633 0
M  V30 8937 H 848.941 -2.04839 -2.75492 0
M  V30 8938 N 851.386 1.48609 -0.524698 0
M  V30 8939 C 852.611 2.07398 0.00952139 0
M  V30 8940 C 853.036 1.37939 1.27884 0
M  V30 8941 O 852.394 0.443633 1.75788 0
M  V30 8942 C 852.442 3.59916 0.221956 0
M  V30 8943 O 851.546 3.91647 1.29175 0
M  V30 8944 H 850.887 0.662981 -0.0367729 0
M  V30 8945 H 853.417 1.91092 -0.7311 0
M  V30 8946 H 853.427 4.05552 0.446236 0
M  V30 8947 H 852.102 4.09876 -0.705306 0
M  V30 8948 H 850.679 3.57796 1.05055 0
M  V30 8949 N 852.864 0.259585 1.55447 0
M  V30 8950 C 854.11 -0.362143 1.9954 0
M  V30 8951 C 854.443 -1.5666 1.14767 0
M  V30 8952 O 853.718 -1.93319 0.214025 0
M  V30 8953 C 854.001 -0.759588 3.51998 0
M  V30 8954 C 853.854 0.451134 4.47532 0
M  V30 8955 C 855.173 -1.60186 4.09913 0
M  V30 8956 H 852.292 -0.130157 0.725416 0
M  V30 8957 H 854.934 0.363431 1.86492 0
M  V30 8958 H 853.084 -1.3778 3.63248 0
M  V30 8959 H 854.756 1.08965 4.48246 0
M  V30 8960 H 852.999 1.092 4.19831 0
M  V30 8961 H 853.67 0.129518 5.51848 0
M  V30 8962 H 856.146 -1.0799 4.01842 0
M  V30 8963 H 855.022 -1.84879 5.16828 0
M  V30 8964 H 855.283 -2.57787 3.59163 0
M  V30 8965 N 854.342 -1.57594 -0.0133615 0
M  V30 8966 C 855.753 -1.78168 -0.557937 0
M  V30 8967 C 856.104 -0.892616 -1.74719 0
M  V30 8968 O 855.229 -0.0915491 -2.16206 0
M  V30 8969 C 855.824 -3.23115 -1.01894 0
M  V30 8970 C 854.383 -3.44831 -1.50892 0
M  V30 8971 C 853.53 -2.73558 -0.454044 0
M  V30 8972 H 856.481 -1.57266 0.212843 0
M  V30 8973 H 856.502 -3.30493 -1.8856 0
M  V30 8974 H 856.014 -3.87798 -0.153175 0
M  V30 8975 H 854.115 -2.85345 -2.39602 0
M  V30 8976 H 854.228 -4.53485 -1.54559 0
M  V30 8977 H 852.592 -2.37787 -0.912666 0
M  V30 8978 H 853.375 -3.40932 0.402524 0
M  V30 8979 N 855.82 0.285905 -1.54985 0
M  V30 8980 C 856.767 1.35306 -1.86978 0
M  V30 8981 C 857.737 1.49682 -0.720046 0
M  V30 8982 O 858.922 1.64297 -0.970107 0
M  V30 8983 C 856.062 2.71059 -2.13591 0
M  V30 8984 C 855.175 2.6501 -3.41165 0
M  V30 8985 C 854.31 3.92856 -3.57544 0
M  V30 8986 C 853.349 3.81266 -4.78855 0
M  V30 8987 N 852.486 5.00919 -4.9196 0
M  V30 8988 H 857.326 1.07323 -2.78003 0
M  V30 8989 H 854.863 0.518776 -1.37649 0
M  V30 8990 H 856.821 3.50026 -2.27019 0
M  V30 8991 H 855.451 2.97271 -1.25816 0
M  V30 8992 H 854.503 1.77824 -3.36278 0
M  V30 8993 H 855.815 2.52342 -4.30262 0
M  V30 8994 H 854.969 4.80263 -3.70718 0
M  V30 8995 H 853.708 4.08377 -2.66608 0
M  V30 8996 H 852.713 2.92243 -4.65698 0
M  V30 8997 H 853.938 3.67277 -5.71213 0
M  V30 8998 H 851.884 5.16875 -4.03951 0
M  V30 8999 H 851.801 4.90732 -5.75081 0
M  V30 9000 H 853.069 5.89935 -5.09507 0
M  V30 9001 N 857.298 1.47698 0.54982 0
M  V30 9002 C 858.709 1.48474 1.13191 0
M  V30 9003 C 859.06 0.243504 1.94683 0
M  V30 9004 O 858.185 -0.651009 2.06375 0
M  V30 9005 C 858.78 2.69022 2.05944 0
M  V30 9006 C 857.339 2.72733 2.5941 0
M  V30 9007 C 856.486 2.41691 1.35944 0
M  V30 9008 H 859.437 1.55101 0.336048 0
M  V30 9009 H 859.458 2.46412 2.89934 0
M  V30 9010 H 858.97 3.59345 1.46605 0
M  V30 9011 H 857.071 1.86568 3.22526 0
M  V30 9012 H 857.184 3.73628 2.99899 0
M  V30 9013 H 855.548 1.92428 1.66864 0
M  V30 9014 H 856.331 3.34231 0.783869 0
M  V30 9015 N 858.776 -0.797141 1.35954 0
M  V30 9016 C 859.708 -1.91782 1.25509 0
M  V30 9017 C 860.721 -1.61843 0.176271 0
M  V30 9018 O 861.91 -1.73235 0.430343 0
M  V30 9019 C 859.01 -3.26396 0.912073 0
M  V30 9020 C 858.183 -3.84171 2.0912 0
M  V30 9021 C 857.242 -4.9721 1.72246 0
M  V30 9022 O 856.268 -5.14136 2.44239 0
M  V30 9023 N 857.47 -5.76831 0.651611 0
M  V30 9024 H 860.235 -2.01266 2.22063 0
M  V30 9025 H 857.796 -0.975033 1.29247 0
M  V30 9026 H 859.788 -3.99499 0.646707 0
M  V30 9027 H 858.358 -3.12579 0.0359079 0
M  V30 9028 H 857.578 -3.03148 2.51982 0
M  V30 9029 H 858.866 -4.19503 2.87914 0
M  V30 9030 H 858.264 -5.65675 0.0536678 0
M  V30 9031 H 856.821 -6.50272 0.44605 0
M  V30 9032 N 860.254 -1.20106 -1.0204 0
M  V30 9033 C 861.479 -1.0351 -1.79723 0
M  V30 9034 C 861.904 0.411328 -1.83548 0
M  V30 9035 O 861.262 1.29608 -1.26773 0
M  V30 9036 C 861.31 -1.61876 -3.22224 0
M  V30 9037 O 860.414 -0.853813 -4.03465 0
M  V30 9038 H 859.755 -0.365299 -0.554484 0
M  V30 9039 H 862.285 -1.59316 -1.28373 0
M  V30 9040 H 862.295 -1.65451 -3.72948 0
M  V30 9041 H 860.97 -2.67148 -3.18755 0
M  V30 9042 H 859.547 -0.891983 -3.62075 0
M  V30 9043 N 861.732 1.21287 -1.00634 0
M  V30 9044 C 862.96 1.94385 -0.708678 0
M  V30 9045 C 863.375 1.7416 0.728957 0
M  V30 9046 O 862.732 1.04906 1.49335 0
M  V30 9047 C 862.783 3.46755 -1.02193 0
M  V30 9048 O 862.504 3.6631 -2.40309 0
M  V30 9049 C 864.005 4.37014 -0.743867 0
M  V30 9050 H 861.225 0.618136 -0.261052 0
M  V30 9051 H 863.769 1.54067 -1.34475 0
M  V30 9052 H 861.924 3.8499 -0.431441 0
M  V30 9053 H 862.338 4.60393 -2.51274 0
M  V30 9054 H 863.812 5.42621 -1.01321 0
M  V30 9055 H 864.289 4.38017 0.322084 0
M  V30 9056 H 864.895 4.04426 -1.31603 0
M  V30 9057 N 863.21 0.781244 1.36873 0
M  V30 9058 C 864.173 0.180094 2.28491 0
M  V30 9059 C 865.173 -0.617798 1.48458 0
M  V30 9060 O 866.363 -0.439991 1.68552 0
M  V30 9061 C 863.495 -0.751741 3.32508 0
M  V30 9062 H 864.688 0.987837 2.83164 0
M  V30 9063 H 862.241 0.550102 1.463 0
M  V30 9064 H 862.976 -1.58413 2.82977 0
M  V30 9065 H 862.761 -0.181649 3.91679 0
M  V30 9066 H 864.251 -1.16748 4.00949 0
M  V30 9067 N 864.689 -1.48329 0.532571 0
M  V30 9068 C 865.636 -2.29663 -0.228779 0
M  V30 9069 C 866.606 -1.37529 -0.931401 0
M  V30 9070 O 867.791 -1.66493 -0.931921 0
M  V30 9071 C 864.931 -3.20955 -1.26814 0
M  V30 9072 C 864.044 -4.28168 -0.574099 0
M  V30 9073 C 863.179 -5.06638 -1.59661 0
M  V30 9074 C 862.218 -6.05651 -0.88618 0
M  V30 9075 N 861.355 -6.77169 -1.85436 0
M  V30 9076 H 866.195 -2.94255 0.47098 0
M  V30 9077 H 863.732 -1.45061 0.2441 0
M  V30 9078 H 865.69 -3.72285 -1.88307 0
M  V30 9079 H 864.32 -2.58281 -1.93625 0
M  V30 9080 H 863.372 -3.80085 0.154827 0
M  V30 9081 H 864.684 -4.98797 -0.0163984 0
M  V30 9082 H 863.838 -5.61995 -2.28576 0
M  V30 9083 H 862.577 -4.35854 -2.18821 0
M  V30 9084 H 861.582 -5.49495 -0.182981 0
M  V30 9085 H 862.807 -6.78434 -0.300659 0
M  V30 9086 H 860.753 -6.09134 -2.43499 0
M  V30 9087 H 860.67 -7.43882 -1.34816 0
M  V30 9088 H 861.938 -7.37114 -2.53541 0
M  V30 9089 N 866.167 -0.267825 -1.55308 0
M  V30 9090 C 867.578 0.231344 -1.85261 0
M  V30 9091 C 867.929 1.56006 -1.18982 0
M  V30 9092 O 867.054 2.1111 -0.475554 0
M  V30 9093 C 867.649 0.426537 -3.36104 0
M  V30 9094 C 866.208 0.869945 -3.66209 0
M  V30 9095 C 865.355 -0.0409522 -2.7727 0
M  V30 9096 H 868.306 -0.489821 -1.50952 0
M  V30 9097 H 868.327 1.26616 -3.58816 0
M  V30 9098 H 867.839 -0.540678 -3.84315 0
M  V30 9099 H 865.94 1.84889 -3.23492 0
M  V30 9100 H 866.053 0.712316 -4.73775 0
M  V30 9101 H 864.417 0.474097 -2.50249 0
M  V30 9102 H 865.2 -1.00392 -3.28293 0
M  V30 9103 N 867.645 1.57599 0.00500368 0
M  V30 9104 C 869.056 1.78462 0.54848 0
M  V30 9105 C 869.407 0.901869 1.74243 0
M  V30 9106 O 868.532 0.103014 2.16155 0
M  V30 9107 C 869.127 3.2365 1.00179 0
M  V30 9108 C 867.686 3.45627 1.49061 0
M  V30 9109 C 866.833 2.73794 0.439531 0
M  V30 9110 H 869.784 1.57151 -0.22118 0
M  V30 9111 H 869.805 3.31488 1.86805 0
M  V30 9112 H 869.317 3.87873 0.132607 0
M  V30 9113 H 867.418 2.86612 2.38085 0
M  V30 9114 H 867.531 4.54298 1.52152 0
M  V30 9115 H 865.895 2.38267 0.900043 0
M  V30 9116 H 866.678 3.40714 -0.420599 0
M  V30 9117 N 869.123 -0.277682 1.55134 0
M  V30 9118 C 870.371 -1.00791 1.75173 0
M  V30 9119 C 870.692 -1.86987 0.553266 0
M  V30 9120 O 869.962 -1.91079 -0.43195 0
M  V30 9121 H 868.542 -0.375129 0.645978 0
M  V30 9122 H 871.204 -0.303041 1.9253 0
M  V30 9123 H 870.3 -1.64756 2.6507 0
M  V30 9124 N 870.601 -1.47988 -0.541979 0
M  V30 9125 C 871.829 -1.59034 -1.32347 0
M  V30 9126 C 872.244 -0.246123 -1.87189 0
M  V30 9127 O 871.601 0.762889 -1.6579 0
M  V30 9128 C 871.652 -2.62759 -2.48274 0
M  V30 9129 O 871.373 -3.91963 -1.95695 0
M  V30 9130 C 872.874 -2.84133 -3.4027 0
M  V30 9131 H 870.094 -0.536574 -0.402901 0
M  V30 9132 H 872.638 -1.93725 -0.655045 0
M  V30 9133 H 870.793 -2.3096 -3.11025 0
M  V30 9134 H 871.207 -4.48769 -2.7149 0
M  V30 9135 H 872.681 -3.60538 -4.17991 0
M  V30 9136 H 873.158 -1.92512 -3.9476 0
M  V30 9137 H 873.764 -3.17188 -2.83322 0
M  V30 9138 N 872.079 0.78992 -1.36375 0
M  V30 9139 C 873.49 1.36506 -1.2737 0
M  V30 9140 C 873.841 1.96008 0.086711 0
M  V30 9141 O 872.966 1.92521 0.988159 0
M  V30 9142 C 873.561 2.48175 -2.30639 0
M  V30 9143 C 872.12 3.01506 -2.25325 0
M  V30 9144 C 871.267 1.74581 -2.15445 0
M  V30 9145 H 874.218 0.591606 -1.47261 0
M  V30 9146 H 874.239 3.27179 -1.94253 0
M  V30 9147 H 873.751 2.04838 -3.2964 0
M  V30 9148 H 871.852 3.49265 -1.29788 0
M  V30 9149 H 871.965 3.58355 -3.17992 0
M  V30 9150 H 870.329 1.96794 -1.61692 0
M  V30 9151 H 871.112 1.33373 -3.16333 0
M  V30 9152 N 873.557 1.20646 1.01402 0
M  V30 9153 C 874.785 1.04389 1.78635 0
M  V30 9154 C 875.2 -0.406771 1.84366 0
M  V30 9155 O 874.557 -1.28239 1.2985 0
M  V30 9156 C 874.608 1.62378 3.22979 0
M  V30 9157 O 874.329 3.01768 3.17597 0
M  V30 9158 C 875.83 1.5111 4.1675 0
M  V30 9159 H 873.05 0.367077 0.56169 0
M  V30 9160 H 875.594 1.59789 1.27624 0
M  V30 9161 H 873.749 1.11092 3.7113 0
M  V30 9162 H 874.163 3.29331 4.08217 0
M  V30 9163 H 875.637 1.96441 5.15863 0
M  V30 9164 H 876.114 0.464011 4.36742 0
M  V30 9165 H 876.72 2.01599 3.74483 0
M  V30 9166 N 875.035 -1.20752 1.01276 0
M  V30 9167 C 876.26 -1.94547 0.718769 0
M  V30 9168 C 876.685 -1.7404 -0.713563 0
M  V30 9169 O 876.043 -1.03221 -1.49047 0
M  V30 9170 C 876.091 -3.44823 1.05497 0
M  V30 9171 O 875.195 -4.12072 0.164516 0
M  V30 9172 H 874.536 -0.607931 0.267051 0
M  V30 9173 H 877.066 -1.53292 1.35509 0
M  V30 9174 H 877.076 -3.95427 1.00507 0
M  V30 9175 H 875.751 -3.59072 2.09858 0
M  V30 9176 H 874.328 -3.71909 0.271615 0
M  V30 9177 N 876.513 -0.788492 -1.36457 0
M  V30 9178 C 877.924 -0.423742 -1.81828 0
M  V30 9179 C 878.275 1.05221 -1.65599 0
M  V30 9180 O 877.4 1.8163 -1.17641 0
M  V30 9181 C 877.995 -0.762354 -3.30112 0
M  V30 9182 C 876.554 -0.450445 -3.73695 0
M  V30 9183 C 875.701 -0.997482 -2.58738 0
M  V30 9184 H 878.652 -0.981718 -1.24692 0
M  V30 9185 H 878.673 -0.0531136 -3.80463 0
M  V30 9186 H 878.185 -1.83662 -3.41891 0
M  V30 9187 H 876.286 0.615829 -3.67476 0
M  V30 9188 H 876.399 -0.970408 -4.69169 0
M  V30 9189 H 874.763 -0.420761 -2.51201 0
M  V30 9190 H 875.546 -2.07749 -2.73304 0
M  V30 9191 N 877.991 1.48044 -0.54043 0
M  V30 9192 C 879.237 2.02797 -0.0101718 0
M  V30 9193 C 879.57 1.41565 1.32939 0
M  V30 9194 O 878.845 0.565139 1.86109 0
M  V30 9195 C 879.128 3.59959 0.100758 0
M  V30 9196 C 878.981 4.31654 -1.26471 0
M  V30 9197 C 880.3 4.32347 0.822455 0
M  V30 9198 H 877.419 0.736982 -0.00517052 0
M  V30 9199 H 880.061 1.76656 -0.69948 0
M  V30 9200 H 878.211 3.82363 0.687824 0
M  V30 9201 H 879.883 4.20639 -1.89369 0
M  V30 9202 H 878.126 3.92663 -1.84386 0
M  V30 9203 H 878.797 5.401 -1.13998 0
M  V30 9204 H 881.273 4.14835 0.324164 0
M  V30 9205 H 880.149 5.41978 0.868993 0
M  V30 9206 H 880.41 4.00369 1.87501 0
M  V30 9207 N 879.47 0.276058 1.55163 0
M  V30 9208 C 880.695 -0.346648 2.04483 0
M  V30 9209 C 881.12 -1.48613 1.15308 0
M  V30 9210 O 880.478 -1.80663 0.151875 0
M  V30 9211 C 880.526 -0.804268 3.51517 0
M  V30 9212 O 879.63 -1.91143 3.65429 0
M  V30 9213 H 878.971 -0.0715251 0.660136 0
M  V30 9214 H 881.501 0.410631 2.00437 0
M  V30 9215 H 881.511 -1.09977 3.92898 0
M  V30 9216 H 880.186 0.0294123 4.1589 0
M  V30 9217 H 878.763 -1.61839 3.3595 0
M  V30 9218 N 880.948 -1.576 0.00335426 0
M  V30 9219 C 882.176 -1.94996 -0.691685 0
M  V30 9220 C 882.591 -0.878405 -1.67121 0
M  V30 9221 O 881.948 0.142343 -1.81944 0
M  V30 9222 C 881.999 -3.32416 -1.42063 0
M  V30 9223 O 881.72 -4.35458 -0.48038 0
M  V30 9224 C 883.221 -3.84291 -2.20987 0
M  V30 9225 H 880.441 -0.642814 -0.192434 0
M  V30 9226 H 882.985 -2.04425 0.0554706 0
M  V30 9227 H 881.14 -3.24285 -2.11939 0
M  V30 9228 H 881.554 -5.14975 -0.995054 0
M  V30 9229 H 883.028 -4.82863 -2.67483 0
M  V30 9230 H 883.505 -3.17174 -3.03805 0
M  V30 9231 H 884.111 -3.95609 -1.56121 0
M  V30 9232 N 882.426 0.269451 -1.5528 0
M  V30 9233 C 883.837 0.840233 -1.66724 0
M  V30 9234 C 884.188 1.86909 -0.596621 0
M  V30 9235 O 883.313 2.14817 0.261246 0
M  V30 9236 C 883.908 1.5308 -3.02245 0
M  V30 9237 C 882.467 2.04957 -3.15705 0
M  V30 9238 C 881.614 0.892838 -2.62533 0
M  V30 9239 H 884.565 0.0457236 -1.58634 0
M  V30 9240 H 884.586 2.39792 -2.95432 0
M  V30 9241 H 884.098 0.781741 -3.80145 0
M  V30 9242 H 882.199 2.82813 -2.42585 0
M  V30 9243 H 882.312 2.26244 -4.22316 0
M  V30 9244 H 880.676 1.28719 -2.19781 0
M  V30 9245 H 881.459 0.157229 -3.4294 0
M  V30 9246 N 883.904 1.48273 0.534124 0
M  V30 9247 C 885.129 1.59988 1.31979 0
M  V30 9248 C 885.554 0.258824 1.86311 0
M  V30 9249 O 884.912 -0.768885 1.64188 0
M  V30 9250 C 884.96 2.64642 2.44943 0
M  V30 9251 O 884.064 2.21515 3.47858 0
M  V30 9252 H 883.405 0.536625 0.391063 0
M  V30 9253 H 885.935 1.94229 0.643135 0
M  V30 9254 H 885.945 2.85786 2.91187 0
M  V30 9255 H 884.62 3.62004 2.04758 0
M  V30 9256 H 883.197 2.10567 3.0776 0
M  V30 9257 N 885.382 -0.782676 1.36792 0
M  V30 9258 C 886.61 -1.57162 1.34565 0
M  V30 9259 C 887.025 -1.88664 -0.0715501 0
M  V30 9260 O 886.382 -1.50633 -1.03033 0
M  V30 9261 C 886.433 -2.88854 2.1736 0
M  V30 9262 O 886.154 -2.58707 3.53557 0
M  V30 9263 C 887.655 -3.83132 2.2299 0
M  V30 9264 H 884.875 -0.487245 0.461338 0
M  V30 9265 H 887.419 -0.970905 1.79982 0
M  V30 9266 H 885.574 -3.45377 1.7548 0
M  V30 9267 H 885.988 -3.42961 3.96835 0
M  V30 9268 H 887.462 -4.72575 2.85266 0
M  V30 9269 H 887.939 -4.21472 1.23524 0
M  V30 9270 H 888.545 -3.32541 2.65135 0
M  V30 9271 N 886.86 -1.21182 -1.00761 0
M  V30 9272 C 887.823 -0.970339 -2.07646 0
M  V30 9273 C 888.823 0.0576345 -1.60697 0
M  V30 9274 O 890.013 -0.179369 -1.73274 0
M  V30 9275 C 887.145 -0.462703 -3.37745 0
M  V30 9276 H 888.338 -1.91856 -2.30502 0
M  V30 9277 H 885.891 -1.02844 -1.17698 0
M  V30 9278 H 886.626 0.490559 -3.20568 0
M  V30 9279 H 886.411 -1.20416 -3.73152 0
M  V30 9280 H 887.901 -0.313531 -4.16421 0
M  V30 9281 N 888.338 1.20213 -1.01915 0
M  V30 9282 C 889.749 1.7136 -0.741131 0
M  V30 9283 C 890.1 1.81705 0.740107 0
M  V30 9284 O 889.225 1.48139 1.57746 0
M  V30 9285 C 889.82 3.11231 -1.33869 0
M  V30 9286 C 888.379 3.59677 -1.10948 0
M  V30 9287 C 887.526 2.36809 -1.4428 0
M  V30 9288 H 890.477 1.05191 -1.1883 0
M  V30 9289 H 890.498 3.7342 -0.730585 0
M  V30 9290 H 890.01 3.03669 -2.41675 0
M  V30 9291 H 888.111 3.72568 -0.0492052 0
M  V30 9292 H 888.224 4.44351 -1.79134 0
M  V30 9293 H 886.588 2.39674 -0.861881 0
M  V30 9294 H 887.371 2.31886 -2.53148 0
M  V30 9295 N 889.816 0.795718 1.36037 0
M  V30 9296 C 890.779 0.204318 2.28287 0
M  V30 9297 C 891.779 -0.602017 1.49105 0
M  V30 9298 O 892.969 -0.422089 1.69009 0
M  V30 9299 C 890.101 -0.716431 3.33287 0
M  V30 9300 H 891.294 1.01781 2.821 0
M  V30 9301 H 888.847 0.565588 1.45708 0
M  V30 9302 H 889.582 -1.55403 2.84641 0
M  V30 9303 H 889.367 -0.140096 3.9185 0
M  V30 9304 H 890.857 -1.12488 4.02164 0
M  V30 9305 N 891.294 -1.47756 0.548274 0
M  V30 9306 C 892.705 -1.8636 0.112547 0
M  V30 9307 C 893.056 -1.45589 -1.31523 0
M  V30 9308 O 892.181 -0.854874 -1.98799 0
M  V30 9309 C 892.776 -3.38224 0.197473 0
M  V30 9310 C 891.335 -3.75954 -0.183163 0
M  V30 9311 C 890.482 -2.7181 0.549059 0
M  V30 9312 H 893.433 -1.394 0.758506 0
M  V30 9313 H 893.454 -3.75957 -0.586217 0
M  V30 9314 H 892.966 -3.67868 1.23673 0
M  V30 9315 H 891.067 -3.51926 -1.22387 0
M  V30 9316 H 891.18 -4.78801 0.169178 0
M  V30 9317 H 889.544 -2.54699 -0.00682862 0
M  V30 9318 H 890.327 -3.04296 1.5893 0
M  V30 9319 N 892.772 -0.284283 -1.55015 0
M  V30 9320 C 893.997 0.335799 -2.04664 0
M  V30 9321 C 894.422 1.47999 -1.16094 0
M  V30 9322 O 893.78 1.8058 -0.161454 0
M  V30 9323 C 893.828 0.785615 -3.51938 0
M  V30 9324 O 892.932 1.89202 -3.66437 0
M  V30 9325 H 892.273 0.0680233 -0.660506 0
M  V30 9326 H 894.803 -0.421255 -2.00216 0
M  V30 9327 H 894.813 1.07892 -3.93476 0
M  V30 9328 H 893.488 -0.0514675 -4.15868 0
M  V30 9329 H 892.065 1.60055 -3.36804 0
M  V30 9330 N 894.251 1.57596 -0.0117121 0
M  V30 9331 C 895.662 1.79033 0.529521 0
M  V30 9332 C 896.013 0.920299 1.73277 0
M  V30 9333 O 895.138 0.125934 2.16033 0
M  V30 9334 C 895.733 3.24695 0.967405 0
M  V30 9335 C 894.292 3.47188 1.45387 0
M  V30 9336 C 893.439 2.74245 0.410466 0
M  V30 9337 H 896.39 1.56908 -0.237836 0
M  V30 9338 H 896.411 3.33451 1.83278 0
M  V30 9339 H 895.923 3.87992 0.0914605 0
M  V30 9340 H 894.024 2.89121 2.35032 0
M  V30 9341 H 894.137 4.55886 1.47325 0
M  V30 9342 H 892.501 2.39209 0.874721 0
M  V30 9343 H 893.284 3.40248 -0.456713 0
M  V30 9344 N 895.729 -0.261212 1.5542 0
M  V30 9345 C 896.659 -1.32712 1.92119 0
M  V30 9346 C 897.64 -1.50934 0.784406 0
M  V30 9347 O 898.825 -1.63781 1.04352 0
M  V30 9348 C 895.955 -2.68453 2.20341 0
M  V30 9349 C 894.909 -2.64947 3.36136 0
M  V30 9350 C 894.235 -4.04349 3.49865 0
M  V30 9351 C 895.535 -2.23182 4.72215 0
M  V30 9352 H 897.229 -1.02245 2.81401 0
M  V30 9353 H 894.775 -0.490406 1.35392 0
M  V30 9354 H 896.728 -3.43144 2.44603 0
M  V30 9355 H 895.452 -3.00527 1.27871 0
M  V30 9356 H 894.111 -1.92714 3.11861 0
M  V30 9357 H 893.759 -4.33665 2.5484 0
M  V30 9358 H 893.459 -4.02895 4.27726 0
M  V30 9359 H 894.983 -4.80761 3.76432 0
M  V30 9360 H 896.397 -2.87599 4.95943 0
M  V30 9361 H 894.794 -2.32867 5.53076 0
M  V30 9362 H 895.864 -1.18327 4.70241 0
M  V30 9363 N 897.207 -1.48554 -0.526253 0
M  V30 9364 C 898.17 -1.62868 -1.61266 0
M  V30 9365 C 899.17 -0.501762 -1.52771 0
M  V30 9366 O 900.36 -0.76764 -1.56374 0
M  V30 9367 C 897.492 -1.60238 -3.00893 0
M  V30 9368 H 898.685 -2.59742 -1.49913 0
M  V30 9369 H 896.238 -1.37207 -0.748595 0
M  V30 9370 H 896.973 -0.648545 -3.17749 0
M  V30 9371 H 896.758 -2.42054 -3.08468 0
M  V30 9372 H 898.248 -1.73455 -3.79872 0
M  V30 9373 N 898.685 0.775411 -1.37205 0
M  V30 9374 C 899.933 1.53081 -1.3195 0
M  V30 9375 C 900.254 1.9476 0.0966864 0
M  V30 9376 O 899.524 1.66019 1.03993 0
M  V30 9377 H 898.104 0.567762 -0.485444 0
M  V30 9378 H 900.766 0.92309 -1.71654 0
M  V30 9379 H 899.862 2.4319 -1.95614 0
M  V30 9380 N 900.163 1.21714 1.00117 0
M  V30 9381 C 901.44 0.945391 1.71236 0
M  V30 9382 C 901.82 -0.541772 2.0403 0
M  V30 9383 O 901.168 -1.50763 1.71705 0
M  V30 9384 C 901.378 1.83444 2.96899 0
M  V30 9385 C 902.726 2.08558 3.69849 0
M  V30 9386 O 903.75 1.80824 3.06889 0
M  V30 9387 O 902.609 2.55485 4.83104 0
M  V30 9388 H 899.703 0.354834 0.747009 0
M  V30 9389 H 902.249 1.32661 1.05825 0
M  V30 9390 H 901.021 2.84075 2.69105 0
M  V30 9391 H 900.644 1.45428 3.70049 0
M  V30 9392 N 901.641 -1.19671 1.02551 0
M  V30 9393 C 902.573 -2.22215 0.561517 0
M  V30 9394 C 903.586 -1.58751 -0.360821 0
M  V30 9395 O 904.775 -1.77802 -0.157749 0
M  V30 9396 C 901.875 -3.383 -0.201494 0
M  V30 9397 C 901.048 -4.3135 0.724952 0
M  V30 9398 C 900.107 -5.26199 0.00794334 0
M  V30 9399 O 899.133 -5.65665 0.633398 0
M  V30 9400 N 900.335 -5.66573 -1.26394 0
M  V30 9401 H 903.1 -2.6265 1.44343 0
M  V30 9402 H 900.661 -1.34303 0.904122 0
M  V30 9403 H 902.653 -3.98764 -0.690625 0
M  V30 9404 H 901.223 -2.96683 -0.98479 0
M  V30 9405 H 900.443 -3.6872 1.39423 0
M  V30 9406 H 901.731 -4.90433 1.35472 0
M  V30 9407 H 901.129 -5.36538 -1.79287 0
M  V30 9408 H 899.686 -6.29304 -1.69763 0
M  V30 9409 N 903.119 -0.802921 -1.35613 0
M  V30 9410 C 904.051 -0.168461 -2.2858 0
M  V30 9411 C 905.064 0.630123 -1.50111 0
M  V30 9412 O 906.253 0.463086 -1.72388 0
M  V30 9413 C 903.353 0.783943 -3.29708 0
M  V30 9414 C 902.526 0.0325165 -4.37388 0
M  V30 9415 C 901.585 0.902859 -5.18396 0
M  V30 9416 O 900.611 0.355144 -5.68091 0
M  V30 9417 N 901.813 2.22542 -5.36149 0
M  V30 9418 H 904.578 -0.96709 -2.83668 0
M  V30 9419 H 902.139 -0.658043 -1.47924 0
M  V30 9420 H 904.131 1.37034 -3.80794 0
M  V30 9421 H 902.701 1.48339 -2.75162 0
M  V30 9422 H 901.921 -0.735057 -3.87286 0
M  V30 9423 H 903.209 -0.485499 -5.06478 0
M  V30 9424 H 902.607 2.69439 -4.97412 0
M  V30 9425 H 901.164 2.76113 -5.90428 0
M  V30 9426 N 904.597 1.47463 -0.556102 0
M  V30 9427 C 906.008 1.86298 -0.122429 0
M  V30 9428 C 906.359 1.46285 1.30749 0
M  V30 9429 O 905.484 0.865405 1.98342 0
M  V30 9430 C 906.079 3.38115 -0.215407 0
M  V30 9431 C 904.638 3.76046 0.163223 0
M  V30 9432 C 903.785 2.71515 -0.563466 0
M  V30 9433 H 906.736 1.38996 -0.765888 0
M  V30 9434 H 906.757 3.76263 0.566271 0
M  V30 9435 H 906.269 3.67207 -1.25622 0
M  V30 9436 H 904.37 3.5257 1.20519 0
M  V30 9437 H 904.483 4.78705 -0.194568 0
M  V30 9438 H 902.847 2.54699 -0.00667879 0
M  V30 9439 H 903.63 3.03449 -1.60542 0
M  V30 9440 N 906.075 0.2925 1.54862 0
M  V30 9441 C 907.3 -0.32494 2.04839 0
M  V30 9442 C 907.725 -1.47381 1.16877 0
M  V30 9443 O 907.083 -1.80492 0.171028 0
M  V30 9444 C 907.131 -0.76694 3.5235 0
M  V30 9445 O 906.235 -1.87256 3.67436 0
M  V30 9446 H 905.576 -0.0645195 0.660858 0
M  V30 9447 H 908.106 0.431867 1.9999 0
M  V30 9448 H 908.116 -1.05804 3.94043 0
M  V30 9449 H 906.791 0.0735212 4.15835 0
M  V30 9450 H 905.368 -1.58266 3.37648 0
M  V30 9451 N 907.553 -1.57587 0.0200696 0
M  V30 9452 C 908.778 -1.96124 -0.674547 0
M  V30 9453 C 909.203 -0.896068 -1.65385 0
M  V30 9454 O 908.561 0.143925 -1.80728 0
M  V30 9455 C 908.609 -3.3376 -1.36517 0
M  V30 9456 O 907.713 -3.29483 -2.48022 0
M  V30 9457 H 907.054 -0.639719 -0.177919 0
M  V30 9458 H 909.584 -2.04447 0.0792317 0
M  V30 9459 H 909.594 -3.69785 -1.72403 0
M  V30 9460 H 908.269 -4.10832 -0.647265 0
M  V30 9461 H 906.846 -3.05162 -2.14314 0
M  V30 9462 N 909.032 0.252966 -1.55557 0
M  V30 9463 C 909.995 1.29645 -1.8901 0
M  V30 9464 C 910.995 1.41378 -0.766096 0
M  V30 9465 O 912.185 1.40183 -1.03414 0
M  V30 9466 C 909.317 2.67504 -2.11316 0
M  V30 9467 H 910.51 1.01202 -2.82309 0
M  V30 9468 H 908.063 0.491977 -1.48355 0
M  V30 9469 H 908.798 3.01095 -1.20466 0
M  V30 9470 H 908.583 2.6037 -2.93172 0
M  V30 9471 H 910.073 3.42861 -2.38403 0
M  V30 9472 N 910.51 1.48831 0.518367 0
M  V30 9473 C 911.473 1.63721 1.604 0
M  V30 9474 C 912.473 0.509857 1.52503 0
M  V30 9475 O 913.663 0.775922 1.55965 0
M  V30 9476 C 910.795 1.61831 3.00039 0
M  V30 9477 H 911.988 2.60534 1.48533 0
M  V30 9478 H 909.541 1.37602 0.741309 0
M  V30 9479 H 910.276 0.665387 3.17401 0
M  V30 9480 H 910.061 2.43686 3.0718 0
M  V30 9481 H 911.551 1.75467 3.78947 0
M  V30 9482 N 911.988 -0.768124 1.37614 0
M  V30 9483 C 913.235 -1.5268 1.33022 0
M  V30 9484 C 913.563 -1.94318 -0.0841918 0
M  V30 9485 O 912.818 -1.64623 -1.0582 0
M  V30 9486 C 913.117 -2.80204 2.21856 0
M  V30 9487 C 912.783 -2.57602 3.7007 0
M  V30 9488 C 911.445 -2.51146 4.10462 0
M  V30 9489 C 913.797 -2.37482 4.63952 0
M  V30 9490 C 911.125 -2.22566 5.42846 0
M  V30 9491 C 913.477 -2.10425 5.96577 0
M  V30 9492 C 912.141 -2.02416 6.36069 0
M  V30 9493 H 911.411 -0.558697 0.486763 0
M  V30 9494 H 914.058 -0.88447 1.69851 0
M  V30 9495 H 912.363 -3.49014 1.78034 0
M  V30 9496 H 914.06 -3.38099 2.15615 0
M  V30 9497 H 910.65 -2.63491 3.38039 0
M  V30 9498 H 914.834 -2.41457 4.33604 0
M  V30 9499 H 910.09 -2.14863 5.72402 0
M  V30 9500 H 914.264 -1.93857 6.68874 0
M  V30 9501 H 911.891 -1.80034 7.38574 0
M  V30 9502 N 913.466 -1.22244 -0.994698 0
M  V30 9503 C 914.715 -1.04005 -1.72817 0
M  V30 9504 C 915.028 0.425413 -1.90918 0
M  V30 9505 O 916.234 0.727429 -2.61574 0
M  V30 9506 C 914.69 -1.81244 -3.10932 0
M  V30 9507 C 914.298 -3.32028 -3.00768 0
M  V30 9508 C 916.042 -1.71448 -3.88337 0
M  V30 9509 C 913.949 -4.01716 -4.34026 0
M  V30 9510 H 912.879 -0.385559 -0.647966 0
M  V30 9511 H 915.53 -1.46077 -1.11058 0
M  V30 9512 H 913.912 -1.3197 -3.73363 0
M  V30 9513 H 915.086 -3.88682 -2.47513 0
M  V30 9514 H 913.401 -3.4248 -2.36846 0
M  V30 9515 H 915.998 -2.20836 -4.86965 0
M  V30 9516 H 916.341 -0.674568 -4.10798 0
M  V30 9517 H 916.874 -2.18256 -3.3258 0
M  V30 9518 H 913.613 -5.05952 -4.16765 0
M  V30 9519 H 913.133 -3.49849 -4.87202 0
M  V30 9520 H 914.812 -4.0721 -5.02782 0
M  V30 9521 N 914.944 1.19125 -1.03184 0
M  V30 9522 C 916.355 1.70564 -0.759264 0
M  V30 9523 C 916.706 1.8248 0.720794 0
M  V30 9524 O 915.831 1.49804 1.56166 0
M  V30 9525 C 916.426 3.09793 -1.37163 0
M  V30 9526 C 914.985 3.5848 -1.14757 0
M  V30 9527 C 914.132 2.35265 -1.46784 0
M  V30 9528 H 917.083 1.03925 -1.19939 0
M  V30 9529 H 917.104 3.72624 -0.77015 0
M  V30 9530 H 916.616 3.01088 -2.44882 0
M  V30 9531 H 914.717 3.72494 -0.0887182 0
M  V30 9532 H 914.83 4.42426 -1.83836 0
M  V30 9533 H 913.194 2.38747 -0.887254 0
M  V30 9534 H 913.977 2.29188 -2.55593 0
M  V30 9535 N 916.422 0.810101 1.35185 0
M  V30 9536 C 917.352 0.237453 2.32289 0
M  V30 9537 C 918.333 -0.639032 1.5764 0
M  V30 9538 O 919.518 -0.568575 1.8569 0
M  V30 9539 C 916.648 -0.611964 3.41866 0
M  V30 9540 C 915.602 0.166318 4.27677 0
M  V30 9541 C 914.928 -0.805024 5.28605 0
M  V30 9542 C 916.228 1.36729 5.04086 0
M  V30 9543 H 917.922 1.04874 2.80432 0
M  V30 9544 H 915.468 0.505751 1.34826 0
M  V30 9545 H 917.421 -1.02267 4.08802 0
M  V30 9546 H 916.145 -1.45617 2.92341 0
M  V30 9547 H 914.804 0.558238 3.62325 0
M  V30 9548 H 914.452 -1.64483 4.75347 0
M  V30 9549 H 914.152 -0.288577 5.86891 0
M  V30 9550 H 915.676 -1.21386 5.98413 0
M  V30 9551 H 917.09 1.03128 5.63948 0
M  V30 9552 H 915.487 1.81848 5.71884 0
M  V30 9553 H 916.557 2.15214 4.34524 0
M  V30 9554 N 917.9 -1.47166 0.563914 0
M  V30 9555 C 919.149 -2.0166 0.0401871 0
M  V30 9556 C 919.462 -1.44303 -1.32046 0
M  V30 9557 O 920.668 -1.905 -1.93448 0
M  V30 9558 C 919.124 -3.59894 0.0213257 0
M  V30 9559 C 918.732 -4.26244 1.37914 0
M  V30 9560 C 920.476 -4.22114 -0.449442 0
M  V30 9561 C 918.383 -5.76503 1.31902 0
M  V30 9562 H 917.313 -0.753916 0.0112534 0
M  V30 9563 H 919.964 -1.69091 0.712766 0
M  V30 9564 H 918.346 -3.89454 -0.717038 0
M  V30 9565 H 919.52 -4.08317 2.13574 0
M  V30 9566 H 917.835 -3.76039 1.78839 0
M  V30 9567 H 920.432 -5.32234 -0.51292 0
M  V30 9568 H 920.775 -3.89749 -1.46291 0
M  V30 9569 H 921.308 -3.9711 0.23427 0
M  V30 9570 H 918.047 -6.13498 2.3087 0
M  V30 9571 H 917.567 -5.96748 0.604324 0
M  V30 9572 H 919.246 -6.38846 1.02392 0
M  V30 9573 N 919.378 -0.300708 -1.54705 0
M  V30 9574 C 920.603 0.314073 -2.05008 0
M  V30 9575 C 921.028 1.46759 -1.17657 0
M  V30 9576 O 920.386 1.80398 -0.180598 0
M  V30 9577 C 920.434 0.748243 -3.52752 0
M  V30 9578 O 919.538 1.85305 -3.68424 0
M  V30 9579 H 918.879 0.0610139 -0.661191 0
M  V30 9580 H 921.409 -0.442467 -1.99758 0
M  V30 9581 H 921.419 1.03713 -3.94598 0
M  V30 9582 H 920.094 -0.095573 -4.1579 0
M  V30 9583 H 918.671 1.56473 -3.38483 0
M  V30 9584 N 920.856 1.57574 -0.0284266 0
M  V30 9585 C 922.084 1.96071 0.660575 0
M  V30 9586 C 922.499 0.904881 1.65703 0
M  V30 9587 O 921.856 -0.113379 1.82147 0
M  V30 9588 C 921.907 3.34634 1.36756 0
M  V30 9589 O 921.628 4.36167 0.411041 0
M  V30 9590 C 923.129 3.87758 2.14845 0
M  V30 9591 H 920.349 0.645794 0.182183 0
M  V30 9592 H 922.893 2.04311 -0.0879858 0
M  V30 9593 H 921.048 3.27616 2.06753 0
M  V30 9594 H 921.462 5.16493 0.913 0
M  V30 9595 H 922.936 4.87058 2.59767 0
M  V30 9596 H 923.413 3.21967 2.9872 0
M  V30 9597 H 924.019 3.98043 1.49807 0
M  V30 9598 N 922.334 -0.244713 1.55689 0
M  V30 9599 C 923.75 -0.593331 1.48161 0
M  V30 9600 C 923.95 -1.88234 0.719047 0
M  V30 9601 O 923.006 -2.51266 0.249292 0
M  V30 9602 C 924.319 -0.694032 2.92581 0
M  V30 9603 C 925.867 -0.786213 3.02965 0
M  V30 9604 C 926.342 -0.918457 4.48696 0
M  V30 9605 N 927.833 -0.983272 4.52643 0
M  V30 9606 C 928.568 -1.1049 5.62654 0
M  V30 9607 N 928.064 -1.19193 6.8247 0
M  V30 9608 N 929.857 -1.13823 5.50455 0
M  V30 9609 H 922.008 0.601446 2.03707 0
M  V30 9610 H 924.271 0.207894 0.924924 0
M  V30 9611 H 923.977 0.183133 3.51223 0
M  V30 9612 H 923.851 -1.56525 3.4319 0
M  V30 9613 H 926.238 -1.65383 2.44402 0
M  V30 9614 H 926.319 0.110202 2.55563 0
M  V30 9615 H 925.963 -0.0553881 5.0787 0
M  V30 9616 H 925.893 -1.82994 4.93782 0
M  V30 9617 H 928.384 -0.927269 3.66347 0
M  V30 9618 H 928.697 -1.28387 7.62061 0
M  V30 9619 H 927.042 -1.16147 6.85226 0
M  V30 9620 H 930.233 -1.06673 4.55783 0
M  V30 9621 H 930.406 -1.22957 6.36228 0
M  V30 9622 N 923.813 -1.49104 -0.510467 0
M  V30 9623 C 925.059 -1.58346 -1.26705 0
M  V30 9624 C 925.392 -0.265121 -1.92382 0
M  V30 9625 O 924.667 0.730558 -1.80258 0
M  V30 9626 C 924.95 -2.7359 -2.34137 0
M  V30 9627 C 924.803 -4.1519 -1.73024 0
M  V30 9628 C 926.122 -2.84511 -3.3577 0
M  V30 9629 H 923.241 -0.57637 -0.459311 0
M  V30 9630 H 925.883 -1.81353 -0.566658 0
M  V30 9631 H 924.033 -2.54105 -2.93876 0
M  V30 9632 H 925.705 -4.46167 -1.17186 0
M  V30 9633 H 923.948 -4.21279 -1.03473 0
M  V30 9634 H 924.619 -4.91683 -2.50903 0
M  V30 9635 H 927.095 -3.0222 -2.86011 0
M  V30 9636 H 925.971 -3.6684 -4.08313 0
M  V30 9637 H 926.232 -1.93471 -3.97519 0
M  V30 9638 N 925.291 0.760815 -1.38019 0
M  V30 9639 C 926.516 1.55513 -1.37224 0
M  V30 9640 C 926.941 1.88062 0.037611 0
M  V30 9641 O 926.299 1.50042 1.0177 0
M  V30 9642 C 926.347 2.83539 -2.22796 0
M  V30 9643 O 925.451 3.78384 -1.64009 0
M  V30 9644 H 924.792 0.470642 -0.468393 0
M  V30 9645 H 927.322 0.940792 -1.81687 0
M  V30 9646 H 927.332 3.32535 -2.36399 0
M  V30 9647 H 926.007 2.59178 -3.25269 0
M  V30 9648 H 924.584 3.37063 -1.59508 0
M  V30 9649 N 926.769 1.22769 0.988202 0
M  V30 9650 C 927.699 1.02627 2.09738 0
M  V30 9651 C 928.68 -0.0543211 1.70013 0
M  V30 9652 O 929.865 0.108811 1.93895 0
M  V30 9653 C 926.995 0.608302 3.41931 0
M  V30 9654 C 925.949 1.63536 3.95525 0
M  V30 9655 C 925.275 1.07308 5.23822 0
M  V30 9656 C 926.575 3.02649 4.25677 0
M  V30 9657 H 928.269 1.954 2.26847 0
M  V30 9658 H 925.815 0.940888 1.09011 0
M  V30 9659 H 927.768 0.454478 4.18942 0
M  V30 9660 H 926.492 -0.355095 3.24664 0
M  V30 9661 H 925.151 1.77704 3.20651 0
M  V30 9662 H 924.799 0.100894 5.02899 0
M  V30 9663 H 924.499 1.75925 5.60646 0
M  V30 9664 H 926.023 0.930938 6.03462 0
M  V30 9665 H 927.437 2.91828 4.93467 0
M  V30 9666 H 925.834 3.68434 4.73684 0
M  V30 9667 H 926.904 3.52228 3.33262 0
M  V30 9668 N 928.247 -1.18576 1.03814 0
M  V30 9669 C 929.663 -1.4051 0.756909 0
M  V30 9670 C 929.863 -1.9057 -0.654631 0
M  V30 9671 O 928.919 -2.0884 -1.41922 0
M  V30 9672 C 930.232 -2.4081 1.80087 0
M  V30 9673 C 931.78 -2.54541 1.82148 0
M  V30 9674 C 932.255 -3.58102 2.85529 0
M  V30 9675 N 933.746 -3.65607 2.84404 0
M  V30 9676 C 934.481 -4.45458 3.61047 0
M  V30 9677 N 933.977 -5.28937 4.47434 0
M  V30 9678 N 935.77 -4.40196 3.49548 0
M  V30 9679 H 927.921 -0.844075 1.94908 0
M  V30 9680 H 930.184 -0.433287 0.843188 0
M  V30 9681 H 929.89 -2.1107 2.81322 0
M  V30 9682 H 929.764 -3.4012 1.63089 0
M  V30 9683 H 932.151 -2.83598 0.815855 0
M  V30 9684 H 932.232 -1.55352 2.03223 0
M  V30 9685 H 931.876 -3.29786 3.86269 0
M  V30 9686 H 931.806 -4.56963 2.6171 0
M  V30 9687 H 934.297 -3.05994 2.21756 0
M  V30 9688 H 934.61 -5.8701 5.02632 0
M  V30 9689 H 932.955 -5.28366 4.51503 0
M  V30 9690 H 936.146 -3.74026 2.81464 0
M  V30 9691 H 936.319 -5.02186 4.09528 0
M  V30 9692 N 929.725 -0.817259 -1.34754 0
M  V30 9693 C 930.672 -0.233108 -2.2962 0
M  V30 9694 C 931.642 0.638902 -1.53321 0
M  V30 9695 O 932.827 0.581739 -1.81715 0
M  V30 9696 C 929.967 0.603659 -3.39779 0
M  V30 9697 C 929.08 -0.289967 -4.31026 0
M  V30 9698 C 928.215 0.555825 -5.28284 0
M  V30 9699 C 927.254 -0.337539 -6.11169 0
M  V30 9700 N 926.391 0.468847 -7.00533 0
M  V30 9701 H 931.231 -1.04747 -2.78984 0
M  V30 9702 H 928.768 -0.528056 -1.37295 0
M  V30 9703 H 930.726 1.10407 -4.02326 0
M  V30 9704 H 929.356 1.38319 -2.91664 0
M  V30 9705 H 928.408 -0.908552 -3.69391 0
M  V30 9706 H 929.72 -0.977136 -4.89135 0
M  V30 9707 H 928.874 1.12094 -5.96255 0
M  V30 9708 H 927.613 1.27652 -4.70698 0
M  V30 9709 H 926.618 -0.914839 -5.42135 0
M  V30 9710 H 927.843 -1.05626 -6.70835 0
M  V30 9711 H 925.789 1.17332 -6.45422 0
M  V30 9712 H 925.706 -0.160052 -7.55831 0
M  V30 9713 H 926.974 1.01689 -7.72839 0
M  V30 9714 N 931.203 1.46865 -0.571711 0
M  V30 9715 C 932.431 2.06818 -0.0583975 0
M  V30 9716 C 932.846 1.42218 1.24175 0
M  V30 9717 O 932.203 0.523655 1.74826 0
M  V30 9718 C 932.254 3.61281 0.125673 0
M  V30 9719 O 931.975 4.23462 -1.123 0
M  V30 9720 C 933.476 4.38137 0.674604 0
M  V30 9721 H 930.696 0.668948 -0.052438 0
M  V30 9722 H 933.24 1.88656 -0.789251 0
M  V30 9723 H 931.395 3.78908 0.806707 0
M  V30 9724 H 931.809 5.16192 -0.929869 0
M  V30 9725 H 933.283 5.46845 0.752626 0
M  V30 9726 H 933.76 4.05419 1.68915 0
M  V30 9727 H 934.366 4.2529 0.0287979 0
M  V30 9728 N 932.681 0.308908 1.54543 0
M  V30 9729 C 934.097 -0.0442273 1.59539 0
M  V30 9730 C 934.297 -1.51743 1.32575 0
M  V30 9731 O 933.353 -2.27134 1.10302 0
M  V30 9732 C 934.666 0.360826 2.98527 0
M  V30 9733 C 936.214 0.310252 3.11459 0
M  V30 9734 C 936.689 0.690246 4.52769 0
M  V30 9735 N 938.18 0.643084 4.58714 0
M  V30 9736 C 938.915 0.909483 5.66141 0
M  V30 9737 N 938.411 1.24226 6.81572 0
M  V30 9738 N 940.204 0.836018 5.55848 0
M  V30 9739 H 932.355 1.26893 1.70329 0
M  V30 9740 H 934.618 0.514986 0.795923 0
M  V30 9741 H 934.324 1.38669 3.23209 0
M  V30 9742 H 934.198 -0.281563 3.76148 0
M  V30 9743 H 936.585 -0.706375 2.86521 0
M  V30 9744 H 936.666 0.987373 2.35976 0
M  V30 9745 H 936.31 1.70472 4.78437 0
M  V30 9746 H 936.24 -0.00903075 5.26599 0
M  V30 9747 H 938.731 0.397138 3.75807 0
M  V30 9748 H 939.044 1.4313 7.5943 0
M  V30 9749 H 937.389 1.28038 6.83104 0
M  V30 9750 H 940.58 0.575637 4.64547 0
M  V30 9751 H 940.753 1.047 6.39486 0
M  V30 9752 N 934.159 -1.57557 0.0367827 0
M  V30 9753 C 935.091 -2.07597 -0.971395 0
M  V30 9754 C 936.104 -1.0009 -1.28397 0
M  V30 9755 O 937.293 -1.27692 -1.24728 0
M  V30 9756 C 934.393 -2.492 -2.2968 0
M  V30 9757 C 933.566 -3.79875 -2.16826 0
M  V30 9758 C 932.625 -4.07946 -3.32366 0
M  V30 9759 O 931.651 -4.78083 -3.0891 0
M  V30 9760 N 932.853 -3.58722 -4.56397 0
M  V30 9761 H 935.618 -2.94714 -0.544389 0
M  V30 9762 H 933.179 -1.61205 -0.1498 0
M  V30 9763 H 935.171 -2.65065 -3.05815 0
M  V30 9764 H 933.741 -1.67407 -2.63995 0
M  V30 9765 H 932.961 -3.73732 -1.2537 0
M  V30 9766 H 934.249 -4.65476 -2.0545 0
M  V30 9767 H 933.647 -3.01994 -4.78347 0
M  V30 9768 H 932.204 -3.79852 -5.29675 0
M  V30 9769 N 935.637 0.236453 -1.55816 0
M  V30 9770 C 937.048 0.80468 -1.68469 0
M  V30 9771 C 937.399 1.85601 -0.636133 0
M  V30 9772 O 936.524 2.15323 0.215622 0
M  V30 9773 C 937.119 1.46634 -3.05424 0
M  V30 9774 C 935.678 1.98214 -3.19981 0
M  V30 9775 C 934.825 0.83695 -2.64368 0
M  V30 9776 H 937.776 0.0120647 -1.58695 0
M  V30 9777 H 937.797 2.33472 -3.00451 0
M  V30 9778 H 937.309 0.700931 -3.81718 0
M  V30 9779 H 935.41 2.77604 -2.4853 0
M  V30 9780 H 935.523 2.17235 -4.2702 0
M  V30 9781 H 933.887 1.24028 -2.22462 0
M  V30 9782 H 934.67 0.084451 -3.43196 0
M  V30 9783 N 937.115 1.49373 0.502552 0
M  V30 9784 C 938.526 1.52 1.0841 0
M  V30 9785 C 938.877 0.305317 1.9381 0
M  V30 9786 O 938.002 -0.585023 2.08342 0
M  V30 9787 C 938.597 2.75437 1.97281 0
M  V30 9788 C 937.156 2.80848 2.50602 0
M  V30 9789 C 936.303 2.45894 1.28186 0
M  V30 9790 H 939.254 1.56092 0.286533 0
M  V30 9791 H 939.275 2.55511 2.81947 0
M  V30 9792 H 938.787 3.63827 1.35098 0
M  V30 9793 H 936.888 1.96735 3.16427 0
M  V30 9794 H 937.001 3.82979 2.8786 0
M  V30 9795 H 935.365 1.97639 1.60657 0
M  V30 9796 H 936.148 3.36556 0.677139 0
M  V30 9797 N 938.594 -0.753485 1.38421 0
M  V30 9798 C 939.504 -1.89797 1.37892 0
M  V30 9799 C 940.52 -1.71797 0.276023 0
M  V30 9800 O 941.696 -1.94718 0.514464 0
M  V30 9801 C 938.761 -3.25166 1.20284 0
M  V30 9802 C 937.822 -3.55691 2.4038 0
M  V30 9803 C 937.055 -4.84601 2.23602 0
M  V30 9804 O 937.278 -5.56985 1.22979 0
M  V30 9805 O 936.212 -5.14605 3.12194 0
M  V30 9806 H 940.038 -1.93197 2.34326 0
M  V30 9807 H 937.623 -0.898775 1.19342 0
M  V30 9808 H 939.505 -4.06099 1.12525 0
M  V30 9809 H 938.18 -3.22577 0.269352 0
M  V30 9810 H 937.087 -2.74919 2.53714 0
M  V30 9811 H 938.42 -3.6304 3.32359 0
M  V30 9812 N 940.072 -1.23292 -0.981677 0
M  V30 9813 C 941.488 -0.995295 -1.24764 0
M  V30 9814 C 941.688 0.304379 -1.99188 0
M  V30 9815 O 940.744 1.02414 -2.30798 0
M  V30 9816 C 942.057 -2.20135 -2.04844 0
M  V30 9817 C 943.605 -2.24612 -2.17988 0
M  V30 9818 C 944.08 -3.448 -3.01458 0
M  V30 9819 N 945.571 -3.45031 -3.09044 0
M  V30 9820 C 946.306 -4.34683 -3.7395 0
M  V30 9821 N 945.802 -5.34569 -4.4069 0
M  V30 9822 N 947.595 -4.22429 -3.70823 0
M  V30 9823 H 939.746 -2.06834 -0.483052 0
M  V30 9824 H 942.009 -0.906929 -0.276014 0
M  V30 9825 H 941.715 -3.14446 -1.57532 0
M  V30 9826 H 941.589 -2.21115 -3.05594 0
M  V30 9827 H 943.976 -1.30841 -2.64508 0
M  V30 9828 H 944.057 -2.27664 -1.16631 0
M  V30 9829 H 943.701 -4.38877 -2.55635 0
M  V30 9830 H 943.631 -3.38988 -4.02982 0
M  V30 9831 H 946.122 -2.72759 -2.61555 0
M  V30 9832 H 946.435 -5.99236 -4.87991 0
M  V30 9833 H 944.78 -5.3847 -4.39403 0
M  V30 9834 H 947.971 -3.43639 -3.17851 0
M  V30 9835 H 948.144 -4.92501 -4.21126 0
M  V30 9836 N 941.55 1.18024 -1.04442 0
M  V30 9837 C 942.799 1.8743 -0.745185 0
M  V30 9838 C 943.112 1.81459 0.730206 0
M  V30 9839 O 944.318 2.46263 1.1431 0
M  V30 9840 C 942.774 3.36266 -1.28271 0
M  V30 9841 C 942.382 3.50757 -2.787 0
M  V30 9842 C 944.126 4.11048 -1.06018 0
M  V30 9843 C 942.033 4.93573 -3.25791 0
M  V30 9844 H 940.963 0.702038 -0.27506 0
M  V30 9845 H 943.614 1.33333 -1.26073 0
M  V30 9846 H 941.996 3.89853 -0.695002 0
M  V30 9847 H 943.17 3.07423 -3.43261 0
M  V30 9848 H 941.485 2.89385 -2.99408 0
M  V30 9849 H 944.082 5.16395 -1.38711 0
M  V30 9850 H 944.425 4.163 0.00241716 0
M  V30 9851 H 944.958 3.63644 -1.61269 0
M  V30 9852 H 941.697 4.93491 -4.31447 0
M  V30 9853 H 941.217 5.37607 -2.65968 0
M  V30 9854 H 942.896 5.62307 -3.20031 0
M  V30 9855 N 943.028 0.824394 1.34319 0
M  V30 9856 C 943.991 0.252696 2.27803 0
M  V30 9857 C 944.991 -0.570254 1.50349 0
M  V30 9858 O 946.181 -0.386145 1.69866 0
M  V30 9859 C 943.313 -0.645575 3.34731 0
M  V30 9860 H 944.506 1.07742 2.79878 0
M  V30 9861 H 942.059 0.596367 1.44475 0
M  V30 9862 H 942.794 -1.4933 2.87873 0
M  V30 9863 H 942.579 -0.0569478 3.92059 0
M  V30 9864 H 944.069 -1.03933 4.0446 0
M  V30 9865 N 944.506 -1.46559 0.579492 0
M  V30 9866 C 945.731 -2.0729 0.0674595 0
M  V30 9867 C 946.156 -1.4259 -1.22677 0
M  V30 9868 O 945.514 -0.50857 -1.74021 0
M  V30 9869 C 945.562 -3.60492 -0.0882227 0
M  V30 9870 O 944.666 -3.96172 -1.14551 0
M  V30 9871 H 944.007 -0.661159 0.0613536 0
M  V30 9872 H 946.537 -1.88247 0.801519 0
M  V30 9873 H 946.547 -4.06929 -0.295411 0
M  V30 9874 H 945.222 -4.06976 0.856943 0
M  V30 9875 H 943.799 -3.61448 -0.917033 0
M  V30 9876 N 945.984 -0.3171 -1.54377 0
M  V30 9877 C 947.232 0.286842 -2.00054 0
M  V30 9878 C 947.553 1.53161 -1.20692 0
M  V30 9879 O 946.823 1.93479 -0.307045 0
M  V30 9880 H 945.403 0.108979 -0.739008 0
M  V30 9881 H 948.065 -0.432152 -1.90049 0
M  V30 9882 H 947.161 0.547729 -3.07256 0
M  V30 9883 N 947.462 1.57535 -0.0451378 0
M  V30 9884 C 948.69 1.96761 0.639742 0
M  V30 9885 C 949.105 0.922405 1.64734 0
M  V30 9886 O 948.462 -0.0940535 1.82257 0
M  V30 9887 C 948.513 3.36066 1.33199 0
M  V30 9888 O 948.234 4.36579 0.364757 0
M  V30 9889 C 949.735 3.90015 2.1072 0
M  V30 9890 H 946.955 0.64769 0.175324 0
M  V30 9891 H 949.499 2.04206 -0.109651 0
M  V30 9892 H 947.654 3.2979 2.03266 0
M  V30 9893 H 948.068 5.17432 0.858168 0
M  V30 9894 H 949.542 4.89785 2.54586 0
M  V30 9895 H 950.019 3.25117 2.95288 0
M  V30 9896 H 950.625 3.99609 1.45577 0
M  V30 9897 N 948.94 -0.228186 1.55939 0
M  V30 9898 C 950.189 -0.951563 1.77843 0
M  V30 9899 C 950.502 -1.85763 0.612501 0
M  V30 9900 O 951.708 -2.61916 0.715006 0
M  V30 9901 C 950.164 -1.74216 3.14923 0
M  V30 9902 C 949.772 -0.882569 4.39221 0
M  V30 9903 C 951.516 -2.45715 3.46156 0
M  V30 9904 C 949.423 -1.67014 5.67327 0
M  V30 9905 H 948.353 -0.359035 0.663031 0
M  V30 9906 H 951.004 -0.205636 1.82344 0
M  V30 9907 H 949.386 -2.53075 3.0458 0
M  V30 9908 H 950.56 -0.13499 4.60602 0
M  V30 9909 H 948.875 -0.280022 4.15457 0
M  V30 9910 H 951.472 -3.05127 4.39092 0
M  V30 9911 H 951.815 -3.1827 2.68346 0
M  V30 9912 H 952.348 -1.73852 3.57799 0
M  V30 9913 H 949.087 -0.987985 6.48012 0
M  V30 9914 H 948.607 -2.3925 5.50018 0
M  V30 9915 H 950.286 -2.23252 6.07262 0
M  V30 9916 N 950.418 -1.49637 -0.494624 0
M  V30 9917 C 951.646 -1.63164 -1.2722 0
M  V30 9918 C 952.061 -0.305552 -1.86311 0
M  V30 9919 O 951.418 0.709758 -1.68133 0
M  V30 9920 C 951.469 -2.70524 -2.39789 0
M  V30 9921 O 951.19 -3.97991 -1.83126 0
M  V30 9922 C 952.691 -2.94814 -3.31058 0
M  V30 9923 H 949.911 -0.54912 -0.385627 0
M  V30 9924 H 952.455 -1.95711 -0.593081 0
M  V30 9925 H 950.61 -2.40738 -3.03519 0
M  V30 9926 H 951.024 -4.57179 -2.57075 0
M  V30 9927 H 952.498 -3.73653 -4.06309 0
M  V30 9928 H 952.975 -2.04974 -3.88436 0
M  V30 9929 H 953.581 -3.26042 -2.73088 0
M  V30 9930 N 951.896 0.746133 -1.38819 0
M  V30 9931 C 952.843 1.86001 -1.36647 0
M  V30 9932 C 953.813 1.6453 -0.227849 0
M  V30 9933 O 954.998 1.86092 -0.421241 0
M  V30 9934 C 952.138 3.23388 -1.20474 0
M  V30 9935 C 951.251 3.5664 -2.43786 0
M  V30 9936 C 950.386 4.8337 -2.20287 0
M  V30 9937 C 949.425 5.09431 -3.39332 0
M  V30 9938 N 948.562 6.2736 -3.1522 0
M  V30 9939 H 953.402 1.87192 -2.31869 0
M  V30 9940 H 950.939 0.914838 -1.15192 0
M  V30 9941 H 952.897 4.02679 -1.09112 0
M  V30 9942 H 951.527 3.21505 -0.288874 0
M  V30 9943 H 950.579 2.72135 -2.65794 0
M  V30 9944 H 951.891 3.71823 -3.3249 0
M  V30 9945 H 951.045 5.70619 -2.06103 0
M  V30 9946 H 949.784 4.70341 -1.28961 0
M  V30 9947 H 948.789 4.20648 -3.54027 0
M  V30 9948 H 950.014 5.24354 -4.31544 0
M  V30 9949 H 947.96 6.15639 -2.26549 0
M  V30 9950 H 947.877 6.43078 -3.97476 0
M  V30 9951 H 949.145 7.17477 -3.04707 0
M  V30 9952 N 953.375 1.23811 0.975125 0
M  V30 9953 C 954.623 1.07124 1.71373 0
M  V30 9954 C 954.944 -0.391864 1.91022 0
M  V30 9955 O 954.214 -1.28041 1.48265 0
M  V30 9956 H 952.794 0.393415 0.635007 0
M  V30 9957 H 955.456 1.55612 1.17349 0
M  V30 9958 H 954.552 1.56338 2.7012 0
M  V30 9959 N 954.853 -1.17469 1.05066 0
M  V30 9960 C 956.099 -1.87976 0.761113 0
M  V30 9961 C 956.432 -1.80756 -0.709995 0
M  V30 9962 O 955.707 -1.21469 -1.51906 0
M  V30 9963 C 955.99 -3.38055 1.2406 0
M  V30 9964 C 955.843 -3.54032 2.77455 0
M  V30 9965 C 957.162 -4.32036 0.838612 0
M  V30 9966 H 954.281 -0.682573 0.277963 0
M  V30 9967 H 956.923 -1.38147 1.30443 0
M  V30 9968 H 955.073 -3.80622 0.778388 0
M  V30 9969 H 956.745 -3.20489 3.3179 0
M  V30 9970 H 954.988 -2.96352 3.16793 0
M  V30 9971 H 955.659 -4.59377 3.06066 0
M  V30 9972 H 958.135 -3.97303 1.23651 0
M  V30 9973 H 957.011 -5.35583 1.20173 0
M  V30 9974 H 957.272 -4.41349 -0.257498 0
M  V30 9975 N 956.331 -0.831506 -1.3388 0
M  V30 9976 C 957.577 -0.424302 -1.98312 0
M  V30 9977 C 957.91 1.01211 -1.65741 0
M  V30 9978 O 957.185 1.70636 -0.933464 0
M  V30 9979 C 957.468 -0.636815 -3.54424 0
M  V30 9980 C 957.321 -2.11997 -3.96708 0
M  V30 9981 C 958.64 -0.0782411 -4.4003 0
M  V30 9982 H 955.759 -0.155637 -0.720379 0
M  V30 9983 H 958.401 -1.04566 -1.58638 0
M  V30 9984 H 956.551 -0.107907 -3.8835 0
M  V30 9985 H 958.223 -2.71317 -3.73075 0
M  V30 9986 H 956.466 -2.60723 -3.46707 0
M  V30 9987 H 957.137 -2.21944 -5.05416 0
M  V30 9988 H 959.613 -0.530243 -4.12708 0
M  V30 9989 H 958.489 -0.256676 -5.483 0
M  V30 9990 H 958.75 1.01745 -4.30233 0
M  V30 9991 N 957.809 1.4625 -0.587256 0
M  V30 9992 C 958.739 2.33132 0.131076 0
M  V30 9993 C 959.72 1.45619 0.879158 0
M  V30 9994 O 960.905 1.74428 0.853723 0
M  V30 9995 C 958.035 3.27975 1.14236 0
M  V30 9996 C 956.989 4.24965 0.508819 0
M  V30 9997 C 956.315 5.09349 1.62689 0
M  V30 9998 C 957.615 5.19322 -0.55694 0
M  V30 9999 H 959.309 2.93442 -0.594333 0
M  V30 10000 H 956.855 1.41106 -0.287263 0
M  V30 10001 H 958.808 3.87614 1.65328 0
M  V30 10002 H 957.532 2.65781 1.8981 0
M  V30 10003 H 956.191 3.66595 0.0189337 0
M  V30 10004 H 955.839 4.43537 2.37242 0
M  V30 10005 H 955.539 5.75036 1.20861 0
M  V30 10006 H 957.063 5.71852 2.14049 0
M  V30 10007 H 958.477 5.73151 -0.130903 0
M  V30 10008 H 956.874 5.93376 -0.895801 0
M  V30 10009 H 957.944 4.62979 -1.44148 0
M  V30 10010 N 959.287 0.325282 1.54207 0
M  V30 10011 C 960.564 -0.33113 1.92777 0
M  V30 10012 C 960.944 -1.69739 1.25506 0
M  V30 10013 O 960.292 -2.24983 0.399385 0
M  V30 10014 C 960.502 -0.421636 3.46444 0
M  V30 10015 C 961.85 -0.681111 4.19101 0
M  V30 10016 O 962.874 -0.504488 3.52609 0
M  V30 10017 O 961.733 -1.02196 5.3686 0
M  V30 10018 H 958.827 -0.18943 0.805013 0
M  V30 10019 H 961.373 0.375123 1.65502 0
M  V30 10020 H 960.145 0.537862 3.87586 0
M  V30 10021 H 959.768 -1.1754 3.79829 0
M  V30 10022 N 960.765 -1.57509 0.0534917 0
M  V30 10023 C 961.99 -1.97511 -0.632794 0
M  V30 10024 C 962.415 -0.930947 -1.63447 0
M  V30 10025 O 961.773 0.105558 -1.80992 0
M  V30 10026 C 961.821 -3.3658 -1.29407 0
M  V30 10027 O 960.925 -3.3467 -2.40977 0
M  V30 10028 H 960.266 -0.643349 -0.16431 0
M  V30 10029 H 962.796 -2.04232 0.12258 0
M  V30 10030 H 962.806 -3.73359 -1.64521 0
M  V30 10031 H 961.481 -4.12113 -0.559976 0
M  V30 10032 H 960.058 -3.09639 -2.07793 0
M  V30 10033 N 962.243 0.219913 -1.56058 0
M  V30 10034 C 963.471 0.960915 -1.83232 0
M  V30 10035 C 963.886 1.77878 -0.632828 0
M  V30 10036 O 963.243 1.78093 0.398624 0
M  V30 10037 C 963.294 1.87716 -3.08942 0
M  V30 10038 O 963.015 1.09235 -4.24263 0
M  V30 10039 C 964.516 2.73192 -3.49115 0
M  V30 10040 H 961.736 0.281546 -0.609075 0
M  V30 10041 H 964.28 0.234648 -2.03149 0
M  V30 10042 H 962.435 2.55736 -2.90995 0
M  V30 10043 H 962.849 1.71446 -4.95688 0
M  V30 10044 H 964.323 3.33181 -4.40107 0
M  V30 10045 H 964.8 3.45668 -2.70943 0
M  V30 10046 H 965.406 2.10583 -3.69506 0
M  V30 10047 N 963.721 1.49897 0.486681 0
M  V30 10048 C 964.631 1.70379 1.6127 0
M  V30 10049 C 965.647 0.58659 1.63814 0
M  V30 10050 O 966.823 0.863044 1.81971 0
M  V30 10051 C 963.888 1.77911 2.97571 0
M  V30 10052 C 962.949 3.01569 3.0554 0
M  V30 10053 C 962.182 3.08732 4.35339 0
M  V30 10054 O 962.405 2.23099 5.2496 0
M  V30 10055 O 961.339 4.01325 4.48578 0
M  V30 10056 H 965.165 2.65799 1.46916 0
M  V30 10057 H 962.75 1.33808 0.664516 0
M  V30 10058 H 964.632 1.85135 3.78554 0
M  V30 10059 H 963.307 0.856722 3.12157 0
M  V30 10060 H 962.214 2.99854 2.23693 0
M  V30 10061 H 963.547 3.93335 2.95886 0
M  V30 10062 N 965.199 -0.738761 1.39212 0
M  V30 10063 C 966.162 -1.83441 1.37412 0
M  V30 10064 C 967.162 -1.58484 0.271908 0
M  V30 10065 O 968.352 -1.65954 0.529609 0
M  V30 10066 C 965.484 -3.21167 1.143 0
M  V30 10067 H 966.677 -1.86441 2.34904 0
M  V30 10068 H 964.23 -0.942023 1.24722 0
M  V30 10069 H 964.965 -3.23829 0.174756 0
M  V30 10070 H 964.75 -3.40678 1.94116 0
M  V30 10071 H 966.24 -4.01231 1.15773 0
M  V30 10072 N 966.677 -1.24326 -0.968545 0
M  V30 10073 C 967.607 -1.05951 -2.08079 0
M  V30 10074 C 968.588 0.0272666 -1.70078 0
M  V30 10075 O 969.773 -0.139644 -1.93697 0
M  V30 10076 C 966.903 -0.662623 -3.4092 0
M  V30 10077 C 965.857 -1.69807 -3.92873 0
M  V30 10078 C 965.183 -1.15628 -5.22048 0
M  V30 10079 C 966.483 -3.09383 -4.20808 0
M  V30 10080 H 968.177 -1.98984 -2.23709 0
M  V30 10081 H 965.723 -0.958112 -1.075 0
M  V30 10082 H 967.676 -0.521071 -4.18166 0
M  V30 10083 H 966.4 0.303399 -3.25188 0
M  V30 10084 H 965.059 -1.82783 -3.17783 0
M  V30 10085 H 964.707 -0.180888 -5.02675 0
M  V30 10086 H 964.407 -1.84822 -5.57776 0
M  V30 10087 H 965.931 -1.02683 -6.01904 0
M  V30 10088 H 967.345 -2.99642 -4.88761 0
M  V30 10089 H 965.742 -3.75923 -4.67763 0
M  V30 10090 H 966.812 -3.57486 -3.27616 0
M  V30 10091 N 968.156 1.1691 -1.05688 0
M  V30 10092 C 969.396 1.88972 -0.779044 0
M  V30 10093 C 969.76 1.7949 0.681708 0
M  V30 10094 O 970.961 2.46418 1.07386 0
M  V30 10095 C 969.232 3.34737 -1.25242 0
M  V30 10096 S 970.791 4.24718 -1.10272 0
M  V30 10097 H 967.609 0.652349 -0.282776 0
M  V30 10098 H 970.211 1.41162 -1.35254 0
M  V30 10099 H 968.915 3.39175 -2.3106 0
M  V30 10100 H 968.446 3.87593 -0.673417 0
M  V30 10101 H 970.461 4.96191 -0.0299004 0
M  V30 10102 N 969.634 0.838594 1.33437 0
M  V30 10103 C 970.564 0.286672 2.31734 0
M  V30 10104 C 971.545 -0.605451 1.5896 0
M  V30 10105 O 972.73 -0.529059 1.86854 0
M  V30 10106 C 969.86 -0.539311 3.43087 0
M  V30 10107 C 968.814 0.256997 4.27228 0
M  V30 10108 C 968.14 -0.692718 5.30194 0
M  V30 10109 C 969.44 1.47391 5.01072 0
M  V30 10110 H 971.134 1.10798 2.78144 0
M  V30 10111 H 968.68 0.534235 1.33723 0
M  V30 10112 H 970.633 -0.935724 4.1088 0
M  V30 10113 H 969.357 -1.39383 2.95364 0
M  V30 10114 H 968.016 0.634967 3.61059 0
M  V30 10115 H 967.664 -1.54363 4.78729 0
M  V30 10116 H 967.364 -0.164023 5.87371 0
M  V30 10117 H 968.888 -1.08665 6.00853 0
M  V30 10118 H 970.302 1.15067 5.61634 0
M  V30 10119 H 968.699 1.93937 5.67898 0
M  V30 10120 H 969.769 2.24382 4.29861 0
M  V30 10121 N 971.112 -1.45937 0.595003 0
M  V30 10122 C 972.075 -2.2888 -0.121102 0
M  V30 10123 C 973.075 -1.39075 -0.807149 0
M  V30 10124 O 974.265 -1.61326 -0.657228 0
M  V30 10125 C 971.397 -3.19778 -1.1813 0
M  V30 10126 H 972.59 -2.93673 0.607968 0
M  V30 10127 H 970.143 -1.5225 0.353495 0
M  V30 10128 H 970.878 -2.59759 -1.94154 0
M  V30 10129 H 970.663 -3.85914 -0.693724 0
M  V30 10130 H 972.153 -3.82176 -1.68319 0
M  V30 10131 N 972.59 -0.333456 -1.54032 0
M  V30 10132 C 973.839 0.267081 -1.99924 0
M  V30 10133 C 974.152 1.52463 -1.22534 0
M  V30 10134 O 975.358 2.20178 -1.58852 0
M  V30 10135 C 973.814 0.526456 -3.56029 0
M  V30 10136 C 973.422 -0.714607 -4.42264 0
M  V30 10137 C 975.166 1.0864 -4.10363 0
M  V30 10138 C 973.073 -0.42659 -5.89859 0
M  V30 10139 H 972.003 0.103577 -0.746852 0
M  V30 10140 H 974.654 -0.447218 -1.77967 0
M  V30 10141 H 973.036 1.3012 -3.74012 0
M  V30 10142 H 974.21 -1.48968 -4.36056 0
M  V30 10143 H 972.525 -1.19547 -3.9887 0
M  V30 10144 H 975.122 1.31668 -5.18235 0
M  V30 10145 H 975.465 2.03884 -3.62956 0
M  V30 10146 H 975.998 0.37261 -3.96051 0
M  V30 10147 H 972.737 -1.34847 -6.4148 0
M  V30 10148 H 972.257 0.310588 -5.98995 0
M  V30 10149 H 973.936 -0.0400807 -6.46988 0
M  V30 10150 N 974.068 1.57479 -0.061844 0
M  V30 10151 C 975.293 1.97843 0.622311 0
M  V30 10152 C 975.718 0.939602 1.62951 0
M  V30 10153 O 975.076 -0.095958 1.81046 0
M  V30 10154 C 975.124 3.37262 1.2762 0
M  V30 10155 O 974.228 3.35943 2.39199 0
M  V30 10156 H 973.569 0.644212 0.160896 0
M  V30 10157 H 976.099 2.04165 -0.133409 0
M  V30 10158 H 976.109 3.74226 1.62539 0
M  V30 10159 H 974.784 4.12404 0.538112 0
M  V30 10160 H 973.361 3.10737 2.06148 0
M  V30 10161 N 975.546 -0.211634 1.56173 0
M  V30 10162 C 976.962 -0.56177 1.49386 0
M  V30 10163 C 977.162 -1.86666 0.758813 0
M  V30 10164 O 976.218 -2.50681 0.302534 0
M  V30 10165 C 977.531 -0.631815 2.93987 0
M  V30 10166 C 979.079 -0.721773 3.04564 0
M  V30 10167 C 979.554 -0.823075 4.50544 0
M  V30 10168 N 981.045 -0.887038 4.54627 0
M  V30 10169 C 981.78 -0.985304 5.64871 0
M  V30 10170 N 981.276 -1.0469 6.84844 0
M  V30 10171 N 983.069 -1.02121 5.52746 0
M  V30 10172 H 975.22 0.64452 2.02385 0
M  V30 10173 H 977.483 0.227466 0.920306 0
M  V30 10174 H 977.189 0.257592 3.50755 0
M  V30 10175 H 977.063 -1.4921 3.46433 0
M  V30 10176 H 979.45 -1.60162 2.47855 0
M  V30 10177 H 979.531 0.164385 2.55271 0
M  V30 10178 H 979.175 0.0523511 5.07873 0
M  V30 10179 H 979.105 -1.72479 4.97552 0
M  V30 10180 H 981.596 -0.849352 3.68231 0
M  V30 10181 H 981.909 -1.12193 7.64613 0
M  V30 10182 H 980.254 -1.01586 6.87536 0
M  V30 10183 H 983.445 -0.969814 4.57943 0
M  V30 10184 H 983.618 -1.09434 6.38693 0
M  V30 10185 N 977.024 -1.50153 -0.478725 0
M  V30 10186 C 977.972 -1.68975 -1.59844 0
M  V30 10187 C 978.966 -0.555591 -1.6003 0
M  V30 10188 O 980.172 -0.735875 -1.64271 0
M  V30 10189 H 976.547 -0.533211 -0.530274 0
M  V30 10190 H 978.518 -2.62917 -1.41128 0
M  V30 10191 C 977.267 -1.79409 -2.97838 0
M  V30 10192 H 976.59 -2.66066 -2.98411 0
M  V30 10193 H 978.03 -1.96606 -3.75662 0
M  V30 10194 C 976.489 -0.543927 -3.3248 0
M  V30 10195 O 977.019 0.320376 -4.0042 0
M  V30 10196 N 975.225 -0.400217 -2.87831 0
M  V30 10197 H 974.772 -1.10458 -2.32716 0
M  V30 10198 H 974.73 0.435111 -3.11375 0
M  V30 10199 N 978.502 0.731368 -1.39602 0
M  V30 10200 C 979.727 1.52567 -1.40492 0
M  V30 10201 C 980.152 1.881 -0.00228828 0
M  V30 10202 O 979.51 1.52167 0.985643 0
M  V30 10203 C 979.558 2.78749 -2.2876 0
M  V30 10204 O 978.662 3.7482 -1.71999 0
M  V30 10205 H 978.003 0.460601 -0.478271 0
M  V30 10206 H 980.533 0.902042 -1.83642 0
M  V30 10207 H 980.543 3.27446 -2.43399 0
M  V30 10208 H 979.218 2.5222 -3.30693 0
M  V30 10209 H 977.795 3.33604 -1.66622 0
M  V30 10210 N 979.98 1.24838 0.961938 0
M  V30 10211 C 980.89 1.06304 2.09133 0
M  V30 10212 C 981.906 0.00221475 1.74 0
M  V30 10213 O 983.082 0.201611 2.00388 0
M  V30 10214 C 980.147 0.676117 3.40043 0
M  V30 10215 C 979.208 1.81407 3.89089 0
M  V30 10216 C 978.441 1.44551 5.13752 0
M  V30 10217 O 978.664 0.337894 5.69398 0
M  V30 10218 O 977.598 2.27316 5.57325 0
M  V30 10219 H 981.424 2.01001 2.27667 0
M  V30 10220 H 979.009 1.0371 1.07539 0
M  V30 10221 H 980.891 0.472124 4.18747 0
M  V30 10222 H 979.566 -0.241667 3.22797 0
M  V30 10223 H 978.473 2.07286 3.11421 0
M  V30 10224 H 979.806 2.71083 4.10822 0
M  V30 10225 N 981.458 -1.16348 1.06306 0
M  V30 10226 C 982.39 -2.20316 0.631929 0
M  V30 10227 C 983.403 -1.59819 -0.310133 0
M  V30 10228 O 984.592 -1.78213 -0.101103 0
M  V30 10229 C 981.692 -3.3877 -0.0937645 0
M  V30 10230 C 980.865 -4.28826 0.861816 0
M  V30 10231 C 979.924 -5.25908 0.175346 0
M  V30 10232 O 978.95 -5.63363 0.813039 0
M  V30 10233 N 980.152 -5.70307 -1.08305 0
M  V30 10234 H 982.917 -2.57925 1.52626 0
M  V30 10235 H 980.478 -1.31358 0.946392 0
M  V30 10236 H 982.47 -4.00759 -0.563412 0
M  V30 10237 H 981.04 -2.99666 -0.889904 0
M  V30 10238 H 980.26 -3.64098 1.51083 0
M  V30 10239 H 981.548 -4.85875 1.51007 0
M  V30 10240 H 980.946 -5.4197 -1.62127 0
M  V30 10241 H 979.503 -6.34387 -1.49656 0
M  V30 10242 N 982.937 -0.845659 -1.3299 0
M  V30 10243 C 983.87 -0.228695 -2.27051 0
M  V30 10244 C 984.848 0.62812 -1.49978 0
M  V30 10245 O 986.032 0.586897 -1.79131 0
M  V30 10246 C 983.159 0.678251 -3.31839 0
M  V30 10247 C 982.205 -0.103994 -4.26373 0
M  V30 10248 S 983.038 -1.46642 -5.1503 0
M  V30 10249 C 984.194 -0.564953 -6.23345 0
M  V30 10250 H 984.427 -1.02609 -2.79032 0
M  V30 10251 H 981.96 -0.642786 -1.40384 0
M  V30 10252 H 983.918 1.1959 -3.92694 0
M  V30 10253 H 982.579 1.44937 -2.78661 0
M  V30 10254 H 981.772 0.586406 -5.00577 0
M  V30 10255 H 981.374 -0.552927 -3.6989 0
M  V30 10256 H 983.666 0.234466 -6.77094 0
M  V30 10257 H 984.609 -1.27736 -6.96483 0
M  V30 10258 H 985.017 -0.143286 -5.64318 0
M  V30 10259 N 984.415 1.45619 -0.602734 0
M  V30 10260 C 985.378 2.28941 0.108962 0
M  V30 10261 C 986.378 1.39501 0.799762 0
M  V30 10262 O 987.568 1.61673 0.648663 0
M  V30 10263 C 984.7 3.204 1.16432 0
M  V30 10264 H 985.893 2.93346 -0.623534 0
M  V30 10265 H 983.446 1.52061 -0.361565 0
M  V30 10266 H 984.181 2.60785 1.92774 0
M  V30 10267 H 983.966 3.86277 0.673248 0
M  V30 10268 H 985.456 3.83063 1.6629 0
M  V30 10269 N 985.893 0.34162 1.53853 0
M  V30 10270 C 987.118 -0.259608 2.05769 0
M  V30 10271 C 987.543 -1.43588 1.21507 0
M  V30 10272 O 986.901 -1.79856 0.228364 0
M  V30 10273 C 986.949 -0.654455 3.54611 0
M  V30 10274 O 986.053 -1.75472 3.73207 0
M  V30 10275 H 985.394 -0.0434621 0.662576 0
M  V30 10276 H 987.924 0.495274 1.98515 0
M  V30 10277 H 987.934 -0.932142 3.97209 0
M  V30 10278 H 986.609 0.205779 4.15391 0
M  V30 10279 H 985.186 -1.47444 3.42512 0
M  V30 10280 N 987.371 -1.57444 0.0701946 0
M  V30 10281 C 988.321 -2.09154 -0.90767 0
M  V30 10282 C 989.305 -1.00087 -1.25982 0
M  V30 10283 O 990.497 -1.26397 -1.23906 0
M  V30 10284 C 987.626 -2.65544 -2.17581 0
M  V30 10285 C 986.712 -3.81613 -1.85021 0
M  V30 10286 N 987.103 -4.90641 -1.22904 0
M  V30 10287 C 985.401 -3.90878 -2.1478 0
M  V30 10288 C 986.102 -5.71511 -1.084 0
M  V30 10289 N 985.078 -5.1973 -1.59318 0
M  V30 10290 H 988.88 -2.90839 -0.423051 0
M  V30 10291 H 986.394 -1.61848 -0.13374 0
M  V30 10292 H 988.391 -3.00904 -2.88552 0
M  V30 10293 H 987.051 -1.85304 -2.66632 0
M  V30 10294 H 988.062 -5.1004 -0.898878 0
M  V30 10295 H 984.739 -3.21611 -2.66219 0
M  V30 10296 H 986.129 -6.69214 -0.600183 0
M  V30 10297 N 988.849 0.203349 -1.56283 0
M  V30 10298 C 990.074 0.945548 -1.84592 0
M  V30 10299 C 990.499 1.7641 -0.652772 0
M  V30 10300 O 989.857 1.76867 0.398468 0
M  V30 10301 C 989.905 1.82416 -3.11057 0
M  V30 10302 O 989.009 2.92191 -2.9103 0
M  V30 10303 H 988.35 0.266739 -0.608068 0
M  V30 10304 H 990.88 0.211158 -2.03507 0
M  V30 10305 H 990.89 2.23044 -3.41636 0
M  V30 10306 H 989.565 1.22267 -3.97522 0
M  V30 10307 H 988.142 2.55378 -2.71728 0
M  V30 10308 N 990.327 1.50405 0.470755 0
M  V30 10309 C 991.29 1.68741 1.5511 0
M  V30 10310 C 992.29 0.558116 1.50804 0
M  V30 10311 O 993.48 0.825149 1.53418 0
M  V30 10312 C 990.612 1.71295 2.94739 0
M  V30 10313 H 991.805 2.65127 1.40169 0
M  V30 10314 H 989.358 1.39891 0.697156 0
M  V30 10315 H 990.093 0.766029 3.15123 0
M  V30 10316 H 989.878 2.53336 2.99271 0
M  V30 10317 H 991.368 1.87434 3.73173 0
M  V30 10318 N 991.805 -0.723954 1.39988 0
M  V30 10319 C 993.051 -1.48591 1.38017 0
M  V30 10320 C 993.384 -1.94189 -0.0203522 0
M  V30 10321 O 992.659 -1.67572 -0.987422 0
M  V30 10322 C 992.942 -2.71786 2.36229 0
M  V30 10323 C 992.795 -2.32136 3.8527 0
M  V30 10324 C 994.114 -3.73921 2.32102 0
M  V30 10325 H 991.233 -0.538993 0.502648 0
M  V30 10326 H 993.875 -0.826908 1.71062 0
M  V30 10327 H 992.025 -3.28015 2.0818 0
M  V30 10328 H 993.697 -1.81454 4.24113 0
M  V30 10329 H 991.94 -1.64234 4.01509 0
M  V30 10330 H 992.611 -3.20406 4.49493 0
M  V30 10331 H 995.087 -3.27303 2.56928 0
M  V30 10332 H 993.963 -4.5777 3.02882 0
M  V30 10333 H 994.224 -4.21627 1.32979 0
M  V30 10334 N 993.283 -1.25346 -0.955304 0
M  V30 10335 C 994.213 -1.08152 -2.06943 0
M  V30 10336 C 995.194 0.00922598 -1.70097 0
M  V30 10337 O 996.379 -0.160181 -1.93538 0
M  V30 10338 C 993.509 -0.698745 -3.40198 0
M  V30 10339 C 992.463 -1.73965 -3.9105 0
M  V30 10340 C 991.789 -1.21158 -5.20792 0
M  V30 10341 C 993.089 -3.13829 -4.17503 0
M  V30 10342 H 994.783 -2.01345 -2.21586 0
M  V30 10343 H 992.329 -0.969459 -1.06478 0
M  V30 10344 H 994.282 -0.565394 -4.1759 0
M  V30 10345 H 993.006 0.268892 -3.25491 0
M  V30 10346 H 991.665 -1.86143 -3.15827 0
M  V30 10347 H 991.313 -0.234193 -5.02455 0
M  V30 10348 H 991.013 -1.90728 -5.55785 0
M  V30 10349 H 992.537 -1.09061 -6.00781 0
M  V30 10350 H 993.951 -3.04809 -4.85556 0
M  V30 10351 H 992.348 -3.80863 -4.63749 0
M  V30 10352 H 993.418 -3.6094 -3.23806 0
M  V30 10353 N 994.761 1.15782 -1.06922 0
M  V30 10354 C 995.671 2.24008 -0.696948 0
M  V30 10355 C 996.687 1.71569 0.289862 0
M  V30 10356 O 997.863 2.00929 0.137585 0
M  V30 10357 C 994.928 3.46568 -0.0957895 0
M  V30 10358 C 993.989 4.14017 -1.13528 0
M  V30 10359 C 993.222 5.30725 -0.562713 0
M  V30 10360 O 993.445 5.66992 0.62259 0
M  V30 10361 O 992.379 5.87572 -1.30549 0
M  V30 10362 H 996.205 2.58174 -1.59938 0
M  V30 10363 H 993.79 1.2342 -0.841889 0
M  V30 10364 H 995.672 4.20731 0.237407 0
M  V30 10365 H 994.347 3.14161 0.780027 0
M  V30 10366 H 993.254 3.41795 -1.52076 0
M  V30 10367 H 994.587 4.50493 -1.98285 0
M  V30 10368 N 996.239 0.8527 1.3254 0
M  V30 10369 C 997.202 0.300959 2.27215 0
M  V30 10370 C 998.202 -0.538235 1.51525 0
M  V30 10371 O 999.392 -0.350027 1.70647 0
M  V30 10372 C 996.524 -0.574428 3.36025 0
M  V30 10373 H 997.717 1.13655 2.77529 0
M  V30 10374 H 995.27 0.626878 1.43178 0
M  V30 10375 H 996.005 -1.43191 2.90976 0
M  V30 10376 H 995.79 0.0262265 3.92091 0
M  V30 10377 H 997.28 -0.9533 4.06573 0
M  V30 10378 N 997.718 -1.45297 0.610449 0
M  V30 10379 C 998.966 -2.01819 0.106548 0
M  V30 10380 C 999.287 -1.48102 -1.26849 0
M  V30 10381 O 998.557 -0.676411 -1.83852 0
M  V30 10382 H 997.137 -0.746113 0.0363982 0
M  V30 10383 H 999.799 -1.78061 0.792491 0
M  V30 10384 H 998.895 -3.12045 0.0585 0
M  V30 10385 N 999.196 -0.349774 -1.5367 0
M  V30 10386 C 1000.14 0.504121 -2.25227 0
M  V30 10387 C 1001.11 1.09048 -1.2529 0
M  V30 10388 O 1002.3 1.12594 -1.54037 0
M  V30 10389 C 999.438 1.64601 -3.03316 0
M  V30 10390 C 998.551 1.08635 -4.18118 0
M  V30 10391 C 997.686 2.19605 -4.83681 0
M  V30 10392 C 996.725 1.61023 -5.90541 0
M  V30 10393 N 995.862 2.6576 -6.49858 0
M  V30 10394 H 1000.7 -0.112621 -2.97787 0
M  V30 10395 H 998.239 -0.0673503 -1.46946 0
M  V30 10396 H 1000.2 2.31836 -3.46854 0
M  V30 10397 H 998.827 2.23364 -2.33041 0
M  V30 10398 H 997.879 0.304748 -3.79177 0
M  V30 10399 H 999.191 0.617911 -4.94958 0
M  V30 10400 H 998.345 2.94693 -5.30322 0
M  V30 10401 H 997.084 2.69795 -4.06278 0
M  V30 10402 H 996.089 0.844428 -5.43277 0
M  V30 10403 H 997.314 1.11677 -6.69855 0
M  V30 10404 H 995.26 3.15193 -5.75317 0
M  V30 10405 H 995.177 2.23557 -7.2219 0
M  V30 10406 H 996.445 3.40598 -7.01151 0
M  V30 10407 N 1000.67 1.57404 -0.0785433 0
M  V30 10408 C 1001.62 2.14316 0.903949 0
M  V30 10409 C 1002.62 1.08176 1.30362 0
M  V30 10410 O 1003.82 1.26546 1.28008 0
M  V30 10411 H 1000.2 0.685367 0.309477 0
M  V30 10412 H 1002.17 2.95719 0.399081 0
M  V30 10413 C 1000.92 2.72504 2.15956 0
M  V30 10414 H 1000.24 3.53853 1.86087 0
M  V30 10415 H 1001.68 3.15914 2.82798 0
M  V30 10416 C 1000.14 1.6759 2.92259 0
M  V30 10417 O 1000.67 1.10492 3.86205 0
M  V30 10418 N 998.875 1.38467 2.5549 0
M  V30 10419 H 998.422 1.85088 1.79166 0
M  V30 10420 H 998.38 0.685053 3.06846 0
M  V30 10421 N 1002.15 -0.195058 1.56388 0
M  V30 10422 C 1003.08 -1.24444 1.97575 0
M  V30 10423 C 1004.06 -1.47471 0.847717 0
M  V30 10424 O 1005.25 -1.59208 1.11205 0
M  V30 10425 C 1002.38 -2.58866 2.31529 0
M  V30 10426 C 1001.33 -2.50451 3.47071 0
M  V30 10427 C 1000.66 -3.89146 3.667 0
M  V30 10428 C 1001.96 -2.02953 4.81256 0
M  V30 10429 H 1003.65 -0.902178 2.85484 0
M  V30 10430 H 1001.2 -0.43254 1.3735 0
M  V30 10431 H 1003.15 -3.3246 2.58936 0
M  V30 10432 H 1001.87 -2.94833 1.40502 0
M  V30 10433 H 1000.53 -1.79313 3.19754 0
M  V30 10434 H 1000.18 -4.22466 2.73004 0
M  V30 10435 H 999.882 -3.84391 4.44429 0
M  V30 10436 H 1001.41 -4.64363 3.96484 0
M  V30 10437 H 1002.82 -2.66306 5.07695 0
M  V30 10438 H 1001.22 -2.092 5.62455 0
M  V30 10439 H 1002.29 -0.982757 4.74837 0
M  V30 10440 N 1003.63 -1.50653 -0.462772 0
M  V30 10441 C 1004.86 -1.65586 -1.23551 0
M  V30 10442 C 1005.27 -0.342012 -1.86083 0
M  V30 10443 O 1004.61 0.686893 -1.70374 0
M  V30 10444 C 1004.67 -2.69555 -2.37867 0
M  V30 10445 C 1004.34 -4.1288 -1.95906 0
M  V30 10446 C 1005.33 -4.98483 -1.47685 0
M  V30 10447 C 1003.02 -4.58843 -2.04373 0
M  V30 10448 C 1005.01 -6.281 -1.08484 0
M  V30 10449 C 1002.7 -5.88464 -1.64783 0
M  V30 10450 C 1003.7 -6.72918 -1.16918 0
M  V30 10451 O 1003.39 -8.00119 -0.778798 0
M  V30 10452 H 1003.12 -0.559438 -0.37948 0
M  V30 10453 H 1005.67 -1.9768 -0.557816 0
M  V30 10454 H 1003.9 -2.3272 -3.08834 0
M  V30 10455 H 1005.59 -2.73624 -2.99808 0
M  V30 10456 H 1006.36 -4.64186 -1.40558 0
M  V30 10457 H 1002.24 -3.93247 -2.40577 0
M  V30 10458 H 1005.78 -6.93972 -0.710524 0
M  V30 10459 H 1001.68 -6.22281 -1.71571 0
M  V30 10460 H 1002.44 -8.1346 -0.906911 0
M  V30 10461 N 1005.11 0.71652 -1.4037 0
M  V30 10462 C 1006.34 1.50563 -1.4191 0
M  V30 10463 C 1006.75 1.88791 -0.0185456 0
M  V30 10464 O 1006.11 1.55378 0.957289 0
M  V30 10465 C 1006.16 2.78155 -2.30894 0
M  V30 10466 O 1005.88 2.41543 -3.65497 0
M  V30 10467 C 1007.38 3.72057 -2.41016 0
M  V30 10468 H 1004.6 0.464679 -0.48406 0
M  V30 10469 H 1007.15 0.883927 -1.8441 0
M  V30 10470 H 1005.3 3.36611 -1.91759 0
M  V30 10471 H 1005.71 3.23636 -4.12747 0
M  V30 10472 H 1007.19 4.58426 -3.07489 0
M  V30 10473 H 1007.67 4.15098 -1.43492 0
M  V30 10474 H 1008.27 3.19512 -2.80699 0
M  V30 10475 N 1006.59 1.25851 0.948643 0
M  V30 10476 C 1007.83 1.10954 1.69397 0
M  V30 10477 C 1008.16 -0.348443 1.91353 0
M  V30 10478 O 1007.42 -1.27285 1.48651 0
M  V30 10479 C 1007.72 1.81565 3.07846 0
M  V30 10480 C 1007.38 3.31477 3.0567 0
M  V30 10481 C 1006.04 3.72371 3.04784 0
M  V30 10482 C 1008.4 4.27225 2.98543 0
M  V30 10483 C 1005.72 5.07416 2.94527 0
M  V30 10484 C 1008.08 5.62301 2.89828 0
M  V30 10485 C 1006.74 6.02516 2.87281 0
M  V30 10486 H 1006.01 0.406011 0.619868 0
M  V30 10487 H 1008.66 1.562 1.10787 0
M  V30 10488 H 1006.96 1.28767 3.70035 0
M  V30 10489 H 1008.66 1.67486 3.64348 0
M  V30 10490 H 1005.25 2.98941 3.07135 0
M  V30 10491 H 1009.43 3.96618 2.98342 0
M  V30 10492 H 1004.69 5.37746 2.90928 0
M  V30 10493 H 1008.86 6.36182 2.83276 0
M  V30 10494 H 1006.49 7.07116 2.79089 0
M  V30 10495 N 1008.06 -1.15214 1.07534 0
M  V30 10496 C 1009.3 -1.87708 0.809009 0
M  V30 10497 C 1009.67 -1.80552 -0.653066 0
M  V30 10498 O 1010.87 -2.48095 -1.03452 0
M  V30 10499 C 1009.14 -3.32703 1.30552 0
M  V30 10500 S 1010.7 -4.2291 1.17015 0
M  V30 10501 H 1007.52 -0.647767 0.293118 0
M  V30 10502 H 1010.12 -1.38992 1.37482 0
M  V30 10503 H 1008.82 -3.35456 2.36427 0
M  V30 10504 H 1008.35 -3.86473 0.734995 0
M  V30 10505 H 1010.37 -4.96081 0.108836 0
M  V30 10506 N 1009.54 -0.859717 -1.32086 0
M  V30 10507 C 1010.79 -0.466271 -1.97367 0
M  V30 10508 C 1011.12 0.976728 -1.6785 0
M  V30 10509 O 1010.4 1.68618 -0.969449 0
M  V30 10510 C 1010.68 -0.711851 -3.52994 0
M  V30 10511 C 1010.53 -2.20364 -3.92122 0
M  V30 10512 C 1011.85 -0.17156 -4.39765 0
M  V30 10513 H 1008.97 -0.170883 -0.716916 0
M  V30 10514 H 1011.61 -1.07907 -1.56384 0
M  V30 10515 H 1009.76 -0.190258 -3.88034 0
M  V30 10516 H 1011.43 -2.7917 -3.67236 0
M  V30 10517 H 1009.68 -2.68019 -3.41099 0
M  V30 10518 H 1010.35 -2.32615 -5.00594 0
M  V30 10519 H 1012.82 -0.617665 -4.1149 0
M  V30 10520 H 1011.7 -0.372921 -5.47632 0
M  V30 10521 H 1011.96 0.925959 -4.32294 0
M  V30 10522 N 1011.02 1.44971 -0.618145 0
M  V30 10523 C 1012.25 2.07039 -0.122395 0
M  V30 10524 C 1012.67 1.45793 1.18853 0
M  V30 10525 O 1012.03 0.55453 1.72611 0
M  V30 10526 C 1012.08 3.60599 -0.0073864 0
M  V30 10527 O 1011.18 3.99069 1.04007 0
M  V30 10528 H 1010.52 0.6593 -0.0788615 0
M  V30 10529 H 1013.05 1.86055 -0.851147 0
M  V30 10530 H 1013.06 4.07569 0.187417 0
M  V30 10531 H 1011.74 4.04561 -0.964544 0
M  V30 10532 H 1010.31 3.63753 0.820879 0
M  V30 10533 N 1012.5 0.357919 1.53482 0
M  V30 10534 C 1013.73 -0.234799 2.05261 0
M  V30 10535 C 1014.14 -1.43618 1.23169 0
M  V30 10536 O 1013.48 -1.81801 0.263435 0
M  V30 10537 C 1013.54 -0.699748 3.52624 0
M  V30 10538 C 1013.21 0.383905 4.55385 0
M  V30 10539 C 1014.2 1.23129 5.05109 0
M  V30 10540 C 1011.89 0.541953 4.99368 0
M  V30 10541 C 1013.88 2.22214 5.97411 0
M  V30 10542 C 1011.57 1.53618 5.91477 0
M  V30 10543 C 1012.57 2.37471 6.40388 0
M  V30 10544 O 1012.25 3.35199 7.30682 0
M  V30 10545 H 1011.99 -0.0465364 0.674396 0
M  V30 10546 H 1014.54 0.512355 1.98907 0
M  V30 10547 H 1012.77 -1.49838 3.5649 0
M  V30 10548 H 1014.46 -1.21461 3.87301 0
M  V30 10549 H 1015.23 1.12035 4.71883 0
M  V30 10550 H 1011.1 -0.100929 4.6089 0
M  V30 10551 H 1014.65 2.87702 6.35511 0
M  V30 10552 H 1010.55 1.64763 6.24118 0
M  V30 10553 H 1011.31 3.30838 7.48658 0
M  V30 10554 N 1013.98 -1.5736 0.0868897 0
M  V30 10555 C 1015.22 -1.94341 -0.579598 0
M  V30 10556 C 1015.56 -0.968238 -1.68341 0
M  V30 10557 O 1014.83 8.29649e-05 -1.945 0
M  V30 10558 C 1015.11 -3.41497 -1.14245 0
M  V30 10559 C 1014.97 -4.49778 -0.044255 0
M  V30 10560 C 1016.29 -3.89788 -2.04336 0
M  V30 10561 H 1013.4 -0.70668 -0.20922 0
M  V30 10562 H 1016.05 -1.89359 0.15593 0
M  V30 10563 H 1014.2 -3.45873 -1.76929 0
M  V30 10564 H 1015.87 -4.57517 0.58959 0
M  V30 10565 H 1014.11 -4.293 0.623207 0
M  V30 10566 H 1014.78 -5.4992 -0.478749 0
M  V30 10567 H 1017.26 -3.87513 -1.51569 0
M  V30 10568 H 1016.13 -4.93335 -2.40648 0
M  V30 10569 H 1016.4 -3.28603 -2.95757 0
M  V30 10570 N 1015.45 0.186762 -1.56489 0
M  V30 10571 C 1016.73 0.932229 -1.71956 0
M  V30 10572 C 1017.11 2.01037 -0.644006 0
M  V30 10573 O 1016.46 2.259 0.343694 0
M  V30 10574 C 1016.67 1.51106 -3.14592 0
M  V30 10575 C 1018.02 1.98997 -3.75081 0
M  V30 10576 O 1019.04 1.60931 -3.17773 0
M  V30 10577 O 1017.9 2.69067 -4.75673 0
M  V30 10578 H 1014.99 0.437736 -0.701652 0
M  V30 10579 H 1017.54 0.175803 -1.68787 0
M  V30 10580 H 1016.31 0.734327 -3.84348 0
M  V30 10581 H 1015.94 2.33209 -3.22024 0
M  V30 10582 N 1016.93 1.50896 0.454776 0
M  V30 10583 C 1018.16 1.66759 1.23313 0
M  V30 10584 C 1018.58 0.35722 1.84677 0
M  V30 10585 O 1017.94 -0.680771 1.68033 0
M  V30 10586 C 1017.99 2.77254 2.3057 0
M  V30 10587 O 1017.09 2.39642 3.35627 0
M  V30 10588 H 1016.43 0.556599 0.362068 0
M  V30 10589 H 1018.96 1.97365 0.539274 0
M  V30 10590 H 1018.97 3.0082 2.75629 0
M  V30 10591 H 1017.65 3.72349 1.85281 0
M  V30 10592 H 1016.23 2.26584 2.96165 0
M  V30 10593 N 1018.41 -0.709066 1.40748 0
M  V30 10594 C 1019.66 -1.4646 1.38681 0
M  V30 10595 C 1019.97 -1.95599 -0.0056209 0
M  V30 10596 O 1021.18 -2.71091 -0.148907 0
M  V30 10597 C 1019.63 -2.64771 2.43771 0
M  V30 10598 C 1019.24 -2.22474 3.88856 0
M  V30 10599 C 1020.99 -3.42475 2.50821 0
M  V30 10600 C 1018.89 -3.37663 4.85528 0
M  V30 10601 H 1017.82 -0.550084 0.515678 0
M  V30 10602 H 1020.47 -0.771074 1.66513 0
M  V30 10603 H 1018.86 -3.36325 2.09048 0
M  V30 10604 H 1020.03 -1.58297 4.32757 0
M  V30 10605 H 1018.35 -1.57798 3.85342 0
M  V30 10606 H 1020.94 -4.28201 3.20232 0
M  V30 10607 H 1021.29 -3.86738 1.54076 0
M  V30 10608 H 1021.82 -2.77969 2.84567 0
M  V30 10609 H 1018.56 -2.98426 5.83628 0
M  V30 10610 H 1018.08 -4.00734 4.46287 0
M  V30 10611 H 1019.76 -4.03636 5.05655 0
M  V30 10612 N 1019.89 -1.26353 -0.941956 0
M  V30 10613 C 1020.82 -1.03634 -2.04432 0
M  V30 10614 C 1021.83 0.00295864 -1.628 0
M  V30 10615 O 1023.02 -0.237029 -1.76919 0
M  V30 10616 C 1020.12 -0.547231 -3.34453 0
M  V30 10617 C 1019.3 -1.65559 -4.04857 0
M  V30 10618 C 1018.36 -1.16466 -5.13149 0
M  V30 10619 O 1017.38 -1.86158 -5.37898 0
M  V30 10620 N 1018.58 -0.0126703 -5.80499 0
M  V30 10621 H 1021.35 -1.98558 -2.24488 0
M  V30 10622 H 1018.91 -1.17728 -1.11138 0
M  V30 10623 H 1020.9 -0.203004 -4.04191 0
M  V30 10624 H 1019.47 0.308401 -3.11075 0
M  V30 10625 H 1018.69 -2.17079 -3.29044 0
M  V30 10626 H 1019.98 -2.39985 -4.48647 0
M  V30 10627 H 1019.38 0.569358 -5.62828 0
M  V30 10628 H 1017.93 0.272486 -6.5123 0
M  V30 10629 N 1021.37 1.14642 -1.08144 0
M  V30 10630 C 1022.3 2.19283 -0.6669 0
M  V30 10631 C 1023.31 1.60292 0.284668 0
M  V30 10632 O 1024.5 1.78352 0.0727383 0
M  V30 10633 C 1021.6 3.38877 0.0398572 0
M  V30 10634 C 1020.77 4.274 -0.929929 0
M  V30 10635 C 1019.83 5.25562 -0.258991 0
M  V30 10636 O 1018.86 5.61999 -0.902563 0
M  V30 10637 N 1020.06 5.71958 0.992177 0
M  V30 10638 H 1022.83 2.55464 -1.5671 0
M  V30 10639 H 1020.39 1.29836 -0.96717 0
M  V30 10640 H 1022.38 4.01605 0.499583 0
M  V30 10641 H 1020.95 3.01043 0.842118 0
M  V30 10642 H 1020.17 3.61649 -1.56857 0
M  V30 10643 H 1021.46 4.83411 -1.58717 0
M  V30 10644 H 1020.86 5.44481 1.53484 0
M  V30 10645 H 1019.41 6.36687 1.39544 0
M  V30 10646 N 1022.85 0.866709 1.31628 0
M  V30 10647 C 1023.78 0.264788 2.26659 0
M  V30 10648 C 1024.76 -0.604181 1.50958 0
M  V30 10649 O 1025.94 -0.558324 1.80042 0
M  V30 10650 C 1023.07 -0.625373 3.32877 0
M  V30 10651 C 1022.11 0.171813 4.26154 0
M  V30 10652 S 1022.95 1.54818 5.12632 0
M  V30 10653 C 1024.1 0.66405 6.22367 0
M  V30 10654 H 1024.34 1.07036 2.77364 0
M  V30 10655 H 1021.87 0.665038 1.39343 0
M  V30 10656 H 1023.83 -1.13327 3.94547 0
M  V30 10657 H 1022.49 -1.40486 2.80932 0
M  V30 10658 H 1021.68 -0.506694 5.01447 0
M  V30 10659 H 1021.28 0.611704 3.68964 0
M  V30 10660 H 1023.57 -0.126717 6.77381 0
M  V30 10661 H 1024.52 1.388 6.94363 0
M  V30 10662 H 1024.93 0.233046 5.64019 0
M  V30 10663 N 1024.32 -1.44642 0.625825 0
M  V30 10664 C 1025.74 -1.56925 0.290992 0
M  V30 10665 C 1025.94 -1.61424 -1.20601 0
M  V30 10666 O 1025 -1.55439 -1.98985 0
M  V30 10667 C 1026.31 -2.84343 0.978242 0
M  V30 10668 C 1027.86 -2.98047 0.955882 0
M  V30 10669 C 1028.33 -4.2826 1.62349 0
M  V30 10670 N 1029.82 -4.35062 1.58983 0
M  V30 10671 C 1030.56 -5.34524 2.07538 0
M  V30 10672 N 1030.05 -6.4042 2.6426 0
M  V30 10673 N 1031.85 -5.25998 1.98198 0
M  V30 10674 H 1024 -1.39965 1.59761 0
M  V30 10675 H 1026.26 -0.670368 0.670306 0
M  V30 10676 H 1025.97 -2.86985 2.03304 0
M  V30 10677 H 1025.84 -3.73699 0.512726 0
M  V30 10678 H 1028.23 -2.94961 -0.0904292 0
M  V30 10679 H 1028.31 -2.10053 1.45984 0
M  V30 10680 H 1027.95 -4.32105 2.66923 0
M  V30 10681 H 1027.88 -5.15102 1.09441 0
M  V30 10682 H 1030.37 -3.59147 1.17565 0
M  V30 10683 H 1030.69 -7.1259 2.99056 0
M  V30 10684 H 1029.03 -6.41121 2.68308 0
M  V30 10685 H 1032.22 -4.42178 1.5361 0
M  V30 10686 H 1032.4 -6.03359 2.3635 0
M  V30 10687 N 1025.8 -0.366053 -1.5329 0
M  V30 10688 C 1026.75 0.495319 -2.27265 0
M  V30 10689 C 1027.74 1.08298 -1.30261 0
M  V30 10690 O 1028.95 1.02613 -1.47887 0
M  V30 10691 H 1025.32 0.178454 -0.730519 0
M  V30 10692 H 1027.3 -0.150354 -2.98021 0
M  V30 10693 C 1026.04 1.62283 -3.07505 0
M  V30 10694 H 1025.37 1.17993 -3.81992 0
M  V30 10695 H 1026.81 2.20024 -3.62444 0
M  V30 10696 C 1025.27 2.56542 -2.18375 0
M  V30 10697 O 1025.8 3.59371 -1.79486 0
M  V30 10698 N 1024 2.25742 -1.82999 0
M  V30 10699 H 1023.55 1.42159 -2.14822 0
M  V30 10700 H 1023.51 2.89064 -1.2365 0
M  V30 10701 N 1027.28 1.57312 -0.0952337 0
M  V30 10702 C 1028.23 2.14032 0.863657 0
M  V30 10703 C 1029.2 1.0589 1.27971 0
M  V30 10704 O 1030.38 1.33678 1.36143 0
M  V30 10705 C 1027.52 2.72513 2.11733 0
M  V30 10706 C 1026.63 3.94887 1.7518 0
M  V30 10707 C 1025.77 4.41533 2.95334 0
M  V30 10708 C 1024.81 5.56496 2.54908 0
M  V30 10709 N 1023.95 5.97993 3.67897 0
M  V30 10710 H 1028.79 2.95655 0.373115 0
M  V30 10711 H 1026.32 1.46085 0.172497 0
M  V30 10712 H 1028.28 3.04539 2.85153 0
M  V30 10713 H 1026.91 1.93618 2.58287 0
M  V30 10714 H 1025.96 3.69175 0.917279 0
M  V30 10715 H 1027.27 4.78322 1.41455 0
M  V30 10716 H 1026.43 4.75343 3.77007 0
M  V30 10717 H 1025.17 3.56999 3.3227 0
M  V30 10718 H 1024.17 5.22314 1.71662 0
M  V30 10719 H 1025.4 6.42779 2.19117 0
M  V30 10720 H 1023.34 5.16405 4.04551 0
M  V30 10721 H 1023.26 6.76225 3.38018 0
M  V30 10722 H 1024.53 6.36434 4.5008 0
M  V30 10723 N 1028.76 -0.17846 1.56586 0
M  V30 10724 C 1030 -0.896235 1.81587 0
M  V30 10725 C 1030.33 -1.82553 0.671168 0
M  V30 10726 O 1029.59 -1.92688 -0.342046 0
M  V30 10727 C 1029.89 -1.73063 3.12704 0
M  V30 10728 C 1029.55 -0.950877 4.4076 0
M  V30 10729 C 1028.21 -0.735647 4.75544 0
M  V30 10730 C 1030.57 -0.403419 5.19636 0
M  V30 10731 C 1027.89 0.0382562 5.86688 0
M  V30 10732 C 1030.25 0.357359 6.3159 0
M  V30 10733 C 1028.91 0.583455 6.64945 0
M  V30 10734 H 1028.18 -0.327956 0.664474 0
M  V30 10735 H 1030.83 -0.161586 1.90817 0
M  V30 10736 H 1029.13 -2.53446 2.98785 0
M  V30 10737 H 1030.83 -2.28891 3.29257 0
M  V30 10738 H 1027.42 -1.12866 4.13472 0
M  V30 10739 H 1031.6 -0.557059 4.93164 0
M  V30 10740 H 1026.86 0.223237 6.10992 0
M  V30 10741 H 1031.03 0.788861 6.91918 0
M  V30 10742 H 1028.66 1.18502 7.50907 0
M  V30 10743 N 1030.24 -1.51135 -0.446768 0
M  V30 10744 C 1031.2 -1.71187 -1.52406 0
M  V30 10745 C 1032.2 -0.582037 -1.49897 0
M  V30 10746 O 1033.39 -0.849452 -1.52085 0
M  V30 10747 C 1030.52 -1.75962 -2.91976 0
M  V30 10748 H 1031.71 -2.67324 -1.35934 0
M  V30 10749 H 1029.27 -1.40982 -0.674813 0
M  V30 10750 H 1030 -0.816065 -3.13864 0
M  V30 10751 H 1029.79 -2.58065 -2.95203 0
M  V30 10752 H 1031.28 -1.93347 -3.70144 0
M  V30 10753 N 1031.71 0.701592 -1.41122 0
M  V30 10754 C 1032.96 1.4616 -1.40155 0
M  V30 10755 C 1033.29 1.94498 -0.00861553 0
M  V30 10756 O 1032.54 1.69484 0.978452 0
M  V30 10757 C 1032.84 2.693 -2.34973 0
M  V30 10758 C 1032.51 2.39652 -3.81939 0
M  V30 10759 C 1031.17 2.31277 -4.21977 0
M  V30 10760 C 1033.52 2.15076 -4.74755 0
M  V30 10761 C 1030.85 1.96413 -5.52846 0
M  V30 10762 C 1033.2 1.81722 -6.05937 0
M  V30 10763 C 1031.87 1.71838 -6.45002 0
M  V30 10764 H 1031.14 0.534837 -0.512865 0
M  V30 10765 H 1033.78 0.802425 -1.73878 0
M  V30 10766 H 1032.09 3.40123 -1.94484 0
M  V30 10767 H 1033.79 3.27427 -2.31501 0
M  V30 10768 H 1030.38 2.47063 -3.50226 0
M  V30 10769 H 1034.56 2.20495 -4.4463 0
M  V30 10770 H 1029.82 1.87308 -5.82001 0
M  V30 10771 H 1033.99 1.61723 -6.77362 0
M  V30 10772 H 1031.62 1.44591 -7.46323 0
M  V30 10773 N 1033.19 1.2685 0.935242 0
M  V30 10774 C 1034.61 1.04091 1.20984 0
M  V30 10775 C 1034.81 -0.230242 2.0018 0
M  V30 10776 O 1033.86 -0.93778 2.3444 0
M  V30 10777 C 1035.18 2.27586 1.96533 0
M  V30 10778 C 1036.72 2.32547 2.09501 0
M  V30 10779 C 1037.2 3.55751 2.88454 0
M  V30 10780 N 1038.69 3.56263 2.96025 0
M  V30 10781 C 1039.43 4.48262 3.57559 0
M  V30 10782 N 1038.92 5.50557 4.20546 0
M  V30 10783 N 1040.71 4.35901 3.5489 0
M  V30 10784 H 1032.87 2.08484 0.405954 0
M  V30 10785 H 1035.13 0.916548 0.242164 0
M  V30 10786 H 1034.83 3.20076 1.45753 0
M  V30 10787 H 1034.71 2.32305 2.97177 0
M  V30 10788 H 1037.1 1.40568 2.5947 0
M  V30 10789 H 1037.18 2.31836 1.08101 0
M  V30 10790 H 1036.82 4.48063 2.3917 0
M  V30 10791 H 1036.75 3.53711 3.90123 0
M  V30 10792 H 1039.24 2.82278 2.51252 0
M  V30 10793 H 1039.55 6.16935 4.65415 0
M  V30 10794 H 1037.9 5.54407 4.19115 0
M  V30 10795 H 1041.09 3.552 3.04879 0
M  V30 10796 H 1041.26 5.07792 4.02557 0
M  V30 10797 N 1034.67 -1.14067 1.0875 0
M  V30 10798 C 1035.58 -2.22871 0.732498 0
M  V30 10799 C 1036.6 -1.72008 -0.26253 0
M  V30 10800 O 1037.77 -2.01123 -0.105601 0
M  V30 10801 C 1034.84 -3.46371 0.150913 0
M  V30 10802 C 1033.9 -4.12158 1.201 0
M  V30 10803 C 1033.13 -5.29763 0.647075 0
M  V30 10804 O 1033.35 -5.67911 -0.532307 0
M  V30 10805 O 1032.29 -5.8542 1.3988 0
M  V30 10806 H 1036.11 -2.55596 1.64025 0
M  V30 10807 H 1033.7 -1.22065 0.861417 0
M  V30 10808 H 1035.58 -4.21055 -0.170442 0
M  V30 10809 H 1034.26 -3.15362 -0.729948 0
M  V30 10810 H 1033.16 -3.39332 1.57494 0
M  V30 10811 H 1034.5 -4.47282 2.05426 0
M  V30 10812 N 1036.15 -0.873678 -1.31166 0
M  V30 10813 C 1037.11 -0.337069 -2.26708 0
M  V30 10814 C 1038.11 0.51406 -1.52362 0
M  V30 10815 O 1039.3 0.322834 -1.71182 0
M  V30 10816 C 1036.43 0.520897 -3.36897 0
M  V30 10817 H 1037.63 -1.18056 -2.75686 0
M  V30 10818 H 1035.18 -0.649577 -1.42163 0
M  V30 10819 H 1035.91 1.38543 -2.93217 0
M  V30 10820 H 1035.7 -0.0886015 -3.92 0
M  V30 10821 H 1037.19 0.888497 -4.08039 0
M  V30 10822 N 1037.63 1.44308 -0.633487 0
M  V30 10823 C 1038.88 2.01239 -0.136356 0
M  V30 10824 C 1039.19 1.50438 1.25011 0
M  V30 10825 O 1040.39 1.99513 1.84138 0
M  V30 10826 C 1038.85 3.59382 -0.193011 0
M  V30 10827 C 1038.46 4.19178 -1.58093 0
M  V30 10828 C 1040.2 4.23778 0.247534 0
M  V30 10829 C 1038.11 5.69553 -1.59258 0
M  V30 10830 H 1037.04 0.752521 -0.0472109 0
M  V30 10831 H 1039.69 1.65498 -0.79263 0
M  V30 10832 H 1038.07 3.92432 0.530408 0
M  V30 10833 H 1039.25 3.97662 -2.32813 0
M  V30 10834 H 1037.56 3.67079 -1.96576 0
M  V30 10835 H 1040.16 5.34075 0.258401 0
M  V30 10836 H 1040.5 3.96285 1.27529 0
M  V30 10837 H 1041.03 3.9554 -0.423469 0
M  V30 10838 H 1037.77 6.01784 -2.59878 0
M  V30 10839 H 1037.29 5.93185 -0.888352 0
M  V30 10840 H 1038.97 6.33234 -1.32756 0
M  V30 10841 N 1039.1 0.374177 1.53094 0
M  V30 10842 C 1040.05 -0.48326 2.27524 0
M  V30 10843 C 1041.05 -1.07606 1.30833 0
M  V30 10844 O 1042.25 -1.01827 1.48429 0
M  V30 10845 H 1038.63 -0.174578 0.731455 0
M  V30 10846 H 1040.6 0.166156 2.97937 0
M  V30 10847 C 1039.35 -1.6065 3.08362 0
M  V30 10848 H 1038.67 -1.15966 3.82612 0
M  V30 10849 H 1040.11 -2.18099 3.63606 0
M  V30 10850 C 1038.57 -2.55381 2.19732 0
M  V30 10851 O 1039.1 -3.58414 1.8139 0
M  V30 10852 N 1037.31 -2.24769 1.84194 0
M  V30 10853 H 1036.85 -1.41018 2.15573 0
M  V30 10854 H 1036.81 -2.88404 1.25181 0
M  V30 10855 N 1040.58 -1.57259 0.103575 0
M  V30 10856 C 1041.53 -2.14487 -0.852295 0
M  V30 10857 C 1042.5 -1.06567 -1.27407 0
M  V30 10858 O 1043.68 -1.34398 -1.35432 0
M  V30 10859 C 1040.82 -2.73632 -2.10284 0
M  V30 10860 C 1039.94 -3.95811 -1.73083 0
M  V30 10861 C 1039.07 -4.43093 -2.92988 0
M  V30 10862 C 1038.11 -5.5784 -2.51953 0
M  V30 10863 N 1037.25 -5.99936 -3.64721 0
M  V30 10864 H 1042.09 -2.95849 -0.35743 0
M  V30 10865 H 1039.63 -1.46175 -0.164748 0
M  V30 10866 H 1041.58 -3.06046 -2.83534 0
M  V30 10867 H 1040.21 -1.94985 -2.57256 0
M  V30 10868 H 1039.27 -3.69656 -0.897688 0
M  V30 10869 H 1040.58 -4.79066 -1.38916 0
M  V30 10870 H 1039.73 -4.77335 -3.74481 0
M  V30 10871 H 1038.47 -3.58756 -3.30372 0
M  V30 10872 H 1037.48 -5.23217 -1.6889 0
M  V30 10873 H 1038.7 -6.43932 -2.15705 0
M  V30 10874 H 1036.65 -5.18543 -4.01807 0
M  V30 10875 H 1036.56 -6.78008 -3.34427 0
M  V30 10876 H 1037.83 -6.38812 -4.46699 0
M  V30 10877 N 1042.06 0.170153 -1.56679 0
M  V30 10878 C 1042.99 1.21285 -1.9953 0
M  V30 10879 C 1043.97 1.46104 -0.871071 0
M  V30 10880 O 1045.16 1.57419 -1.13724 0
M  V30 10881 C 1042.29 2.5515 -2.35618 0
M  V30 10882 C 1041.24 2.44898 -3.51011 0
M  V30 10883 C 1040.57 3.83263 -3.72845 0
M  V30 10884 C 1041.87 1.95271 -4.84424 0
M  V30 10885 H 1043.56 0.856646 -2.86883 0
M  V30 10886 H 1041.11 0.410634 -1.38021 0
M  V30 10887 H 1043.06 3.28299 -2.64193 0
M  V30 10888 H 1041.78 2.92561 -1.45175 0
M  V30 10889 H 1040.44 1.74203 -3.22566 0
M  V30 10890 H 1040.09 4.18069 -2.79691 0
M  V30 10891 H 1039.79 3.77272 -4.50488 0
M  V30 10892 H 1041.31 4.57996 -4.03822 0
M  V30 10893 H 1042.73 2.58195 -5.11867 0
M  V30 10894 H 1041.13 2.00225 -5.65712 0
M  V30 10895 H 1042.2 0.90709 -4.7634 0
M  V30 10896 N 1043.54 1.5137 0.438746 0
M  V30 10897 C 1044.45 1.75424 1.55768 0
M  V30 10898 C 1045.46 0.638409 1.61865 0
M  V30 10899 O 1046.64 0.9205 1.79133 0
M  V30 10900 C 1043.71 1.87288 2.9176 0
M  V30 10901 C 1042.77 3.11137 2.95791 0
M  V30 10902 C 1042 3.22425 4.25297 0
M  V30 10903 O 1042.22 2.39688 5.17596 0
M  V30 10904 O 1041.16 4.15393 4.35583 0
M  V30 10905 H 1044.98 2.70339 1.38386 0
M  V30 10906 H 1042.57 1.35854 0.621609 0
M  V30 10907 H 1044.45 1.97085 3.72472 0
M  V30 10908 H 1043.12 0.955599 3.09273 0
M  V30 10909 H 1042.03 3.06819 2.1404 0
M  V30 10910 H 1043.36 4.02549 2.83223 0
M  V30 10911 N 1045.02 -0.694098 1.41492 0
M  V30 10912 C 1046.24 -1.48789 1.44488 0
M  V30 10913 C 1046.67 -1.88028 0.0521588 0
M  V30 10914 O 1046.02 -1.54727 -0.944952 0
M  V30 10915 C 1046.07 -2.72586 2.3607 0
M  V30 10916 O 1045.18 -3.70128 1.81876 0
M  V30 10917 H 1044.52 -0.447758 0.490315 0
M  V30 10918 H 1047.05 -0.853036 1.85969 0
M  V30 10919 H 1047.06 -3.20877 2.51995 0
M  V30 10920 H 1045.73 -2.43363 3.37264 0
M  V30 10921 H 1044.31 -3.29069 1.75408 0
M  V30 10922 N 1046.49 -1.27344 -0.928501 0
M  V30 10923 C 1047.44 -1.09835 -2.05034 0
M  V30 10924 C 1048.44 -0.0216643 -1.69386 0
M  V30 10925 O 1049.64 -0.179323 -1.79105 0
M  V30 10926 H 1046.02 -0.338416 -0.671549 0
M  V30 10927 H 1047.99 -2.04879 -2.1695 0
M  V30 10928 C 1046.74 -0.761462 -3.3926 0
M  V30 10929 H 1046.06 -1.58186 -3.67175 0
M  V30 10930 H 1047.5 -0.678812 -4.18531 0
M  V30 10931 C 1045.96 0.534118 -3.32639 0
M  V30 10932 O 1046.49 1.56877 -3.69801 0
M  V30 10933 N 1044.7 0.529437 -2.85736 0
M  V30 10934 H 1044.24 -0.312954 -2.55692 0
M  V30 10935 H 1044.2 1.39637 -2.81689 0
M  V30 10936 N 1047.97 1.13488 -1.09353 0
M  V30 10937 C 1048.9 2.20988 -0.75409 0
M  V30 10938 C 1049.88 1.67977 0.267901 0
M  V30 10939 O 1051.07 1.93722 0.136128 0
M  V30 10940 C 1048.2 3.46869 -0.173042 0
M  V30 10941 C 1047.15 4.12965 -1.12446 0
M  V30 10942 C 1046.48 5.33163 -0.405157 0
M  V30 10943 C 1047.78 4.60388 -2.46658 0
M  V30 10944 H 1049.47 2.49639 -1.6529 0
M  V30 10945 H 1047.02 1.19987 -0.796182 0
M  V30 10946 H 1048.97 4.21331 0.0764988 0
M  V30 10947 H 1047.7 3.17611 0.760956 0
M  V30 10948 H 1046.35 3.40469 -1.35927 0
M  V30 10949 H 1046 5.00169 0.532955 0
M  V30 10950 H 1045.7 5.78332 -1.03952 0
M  V30 10951 H 1047.23 6.1038 -0.163899 0
M  V30 10952 H 1048.64 5.26276 -2.27389 0
M  V30 10953 H 1047.04 5.16294 -3.05876 0
M  V30 10954 H 1048.11 3.74949 -3.07476 0
M  V30 10955 N 1049.45 0.880621 1.30701 0
M  V30 10956 C 1050.87 0.574015 1.4892 0
M  V30 10957 C 1051.07 -0.889312 1.80813 0
M  V30 10958 O 1050.12 -1.67082 1.89314 0
M  V30 10959 C 1051.44 1.48341 2.61563 0
M  V30 10960 C 1052.98 1.48658 2.75445 0
M  V30 10961 C 1053.46 2.3818 3.91196 0
M  V30 10962 N 1054.95 2.36119 3.985 0
M  V30 10963 C 1055.69 3.02101 4.87363 0
M  V30 10964 N 1055.18 3.77293 5.81052 0
M  V30 10965 N 1056.97 2.91356 4.80696 0
M  V30 10966 H 1049.13 1.82732 1.08271 0
M  V30 10967 H 1051.39 0.781939 0.535981 0
M  V30 10968 H 1051.09 2.52515 2.44804 0
M  V30 10969 H 1050.97 1.18977 3.57944 0
M  V30 10970 H 1053.36 0.452374 2.91612 0
M  V30 10971 H 1053.44 1.8205 1.79698 0
M  V30 10972 H 1053.08 3.41683 3.75786 0
M  V30 10973 H 1053.01 2.02106 4.86272 0
M  V30 10974 H 1055.5 1.81474 3.31475 0
M  V30 10975 H 1055.81 4.24742 6.45612 0
M  V30 10976 H 1054.16 3.81401 5.80998 0
M  V30 10977 H 1057.35 2.32143 4.06481 0
M  V30 10978 H 1057.52 3.43056 5.49742 0
M  V30 10979 N 1050.93 -1.4397 0.641131 0
M  V30 10980 C 1051.84 -2.34526 -0.058742 0
M  V30 10981 C 1052.86 -1.53194 -0.825088 0
M  V30 10982 O 1054.03 -1.85888 -0.775081 0
M  V30 10983 C 1051.1 -3.31313 -1.02139 0
M  V30 10984 C 1050.16 -4.28552 -0.253319 0
M  V30 10985 C 1049.39 -5.20715 -1.17012 0
M  V30 10986 O 1049.61 -5.17028 -2.40911 0
M  V30 10987 O 1048.55 -5.9839 -0.649039 0
M  V30 10988 H 1052.37 -2.95843 0.686329 0
M  V30 10989 H 1049.96 -1.43909 0.401316 0
M  V30 10990 H 1051.84 -3.90862 -1.57496 0
M  V30 10991 H 1050.52 -2.72516 -1.7469 0
M  V30 10992 H 1049.42 -3.72519 0.343531 0
M  V30 10993 H 1050.76 -4.90297 0.432372 0
M  V30 10994 N 1052.41 -0.382291 -1.52893 0
M  V30 10995 C 1053.34 0.447829 -2.29165 0
M  V30 10996 C 1054.32 1.06956 -1.32267 0
M  V30 10997 O 1055.5 1.08365 -1.61154 0
M  V30 10998 C 1052.63 1.57902 -3.09329 0
M  V30 10999 C 1051.59 1.08369 -4.14053 0
M  V30 11000 C 1050.91 2.30641 -4.82399 0
M  V30 11001 C 1052.21 0.156591 -5.22065 0
M  V30 11002 H 1053.91 -0.188541 -2.98806 0
M  V30 11003 H 1051.45 -0.0921179 -1.43705 0
M  V30 11004 H 1053.41 2.16652 -3.61442 0
M  V30 11005 H 1052.13 2.24287 -2.37409 0
M  V30 11006 H 1050.79 0.518772 -3.62911 0
M  V30 11007 H 1050.44 2.9552 -4.07034 0
M  V30 11008 H 1050.14 1.98163 -5.53177 0
M  V30 11009 H 1051.66 2.90047 -5.37313 0
M  V30 11010 H 1053.08 0.652065 -5.6958 0
M  V30 11011 H 1051.47 -0.0780978 -6.00049 0
M  V30 11012 H 1052.54 -0.796529 -4.78313 0
M  V30 11013 N 1053.89 1.57202 -0.111913 0
M  V30 11014 C 1054.82 2.11995 0.871242 0
M  V30 11015 C 1055.83 1.06102 1.23475 0
M  V30 11016 O 1057.02 1.33497 1.18494 0
M  V30 11017 C 1054.12 2.59874 2.17528 0
M  V30 11018 C 1053.29 3.89788 1.98455 0
M  V30 11019 C 1052.35 4.23339 3.12523 0
M  V30 11020 O 1051.38 4.92277 2.85748 0
M  V30 11021 N 1052.58 3.80089 4.38762 0
M  V30 11022 H 1055.34 2.96976 0.403157 0
M  V30 11023 H 1052.91 1.61737 0.0727159 0
M  V30 11024 H 1054.9 2.79354 2.9282 0
M  V30 11025 H 1053.47 1.79812 2.55707 0
M  V30 11026 H 1052.69 3.79288 1.07396 0
M  V30 11027 H 1053.98 4.74748 1.83007 0
M  V30 11028 H 1053.37 3.24473 4.63394 0
M  V30 11029 H 1051.93 4.04691 5.10949 0
M  V30 11030 N 1055.36 -0.161842 1.56767 0
M  V30 11031 C 1056.61 -0.875278 1.81719 0
M  V30 11032 C 1056.93 -1.82998 0.690739 0
M  V30 11033 O 1058.13 -2.58648 0.82545 0
M  V30 11034 C 1056.59 -1.60703 3.22029 0
M  V30 11035 C 1056.2 -0.695486 4.42569 0
M  V30 11036 C 1057.94 -2.30813 3.56266 0
M  V30 11037 C 1055.85 -1.42801 5.73901 0
M  V30 11038 H 1054.78 -0.330591 0.677662 0
M  V30 11039 H 1057.43 -0.128112 1.83052 0
M  V30 11040 H 1055.81 -2.39929 3.1504 0
M  V30 11041 H 1056.98 0.0604882 4.6076 0
M  V30 11042 H 1055.3 -0.10356 4.16271 0
M  V30 11043 H 1057.9 -2.86229 4.51638 0
M  V30 11044 H 1058.24 -3.06603 2.81604 0
M  V30 11045 H 1058.77 -1.5852 3.64851 0
M  V30 11046 H 1055.51 -0.712253 6.51619 0
M  V30 11047 H 1055.03 -2.15707 5.5967 0
M  V30 11048 H 1056.71 -1.97295 6.16185 0
M  V30 11049 N 1056.84 -1.516 -0.430713 0
M  V30 11050 C 1058.08 -1.6626 -1.18899 0
M  V30 11051 C 1058.45 -0.373877 -1.88325 0
M  V30 11052 O 1059.65 -0.39632 -2.65862 0
M  V30 11053 C 1057.92 -2.83693 -2.17378 0
M  V30 11054 S 1059.48 -3.18717 -3.01604 0
M  V30 11055 H 1056.29 -0.585681 -0.403112 0
M  V30 11056 H 1058.9 -1.89528 -0.479538 0
M  V30 11057 H 1057.6 -3.75759 -1.65025 0
M  V30 11058 H 1057.13 -2.62634 -2.92894 0
M  V30 11059 H 1059.15 -2.65665 -4.1909 0
M  V30 11060 N 1058.32 0.686584 -1.41858 0
M  V30 11061 C 1059.73 1.26682 -1.37145 0
M  V30 11062 C 1060.08 1.96112 -0.058922 0
M  V30 11063 O 1059.21 1.99321 0.842629 0
M  V30 11064 C 1059.8 2.30383 -2.48413 0
M  V30 11065 C 1058.36 2.83961 -2.47069 0
M  V30 11066 C 1057.51 1.58119 -2.27802 0
M  V30 11067 H 1060.46 0.480742 -1.51243 0
M  V30 11068 H 1060.48 3.11868 -2.17987 0
M  V30 11069 H 1059.99 1.79822 -3.43927 0
M  V30 11070 H 1058.09 3.38675 -1.55338 0
M  V30 11071 H 1058.21 3.3378 -3.43697 0
M  V30 11072 H 1056.57 1.84258 -1.75844 0
M  V30 11073 H 1057.35 1.09541 -3.25355 0
M  V30 11074 N 1059.8 1.27835 0.921735 0
M  V30 11075 C 1060.76 1.11108 2.00469 0
M  V30 11076 C 1061.76 0.053203 1.60712 0
M  V30 11077 O 1062.95 0.298308 1.71627 0
M  V30 11078 C 1060.08 0.694269 3.33755 0
M  V30 11079 H 1061.28 2.07279 2.16738 0
M  V30 11080 H 1058.83 1.10708 1.10333 0
M  V30 11081 H 1059.56 -0.268561 3.23186 0
M  V30 11082 H 1059.35 1.45836 3.6397 0
M  V30 11083 H 1060.84 0.59965 4.13272 0
M  V30 11084 N 1061.28 -1.12907 1.09954 0
M  V30 11085 C 1062.5 -1.88138 0.860905 0
M  V30 11086 C 1062.92 -1.79402 -0.588256 0
M  V30 11087 O 1062.28 -1.16442 -1.40526 0
M  V30 11088 C 1062.33 -3.37537 1.29425 0
M  V30 11089 O 1062.05 -3.46056 2.68658 0
M  V30 11090 C 1063.55 -4.29721 1.08879 0
M  V30 11091 H 1060.77 -0.595437 0.309347 0
M  V30 11092 H 1063.31 -1.42894 1.46292 0
M  V30 11093 H 1061.47 -3.80344 0.736009 0
M  V30 11094 H 1061.88 -4.38969 2.87065 0
M  V30 11095 H 1063.36 -5.32854 1.4412 0
M  V30 11096 H 1063.83 -4.39192 0.0270053 0
M  V30 11097 H 1064.44 -3.9269 1.63325 0
M  V30 11098 N 1062.75 -0.88754 -1.30232 0
M  V30 11099 C 1063.72 -0.361095 -2.26338 0
M  V30 11100 C 1064.72 0.497871 -1.52898 0
M  V30 11101 O 1065.91 0.30466 -1.71515 0
M  V30 11102 C 1063.04 0.485135 -3.3743 0
M  V30 11103 H 1064.23 -1.20973 -2.74419 0
M  V30 11104 H 1061.78 -0.664619 -1.41466 0
M  V30 11105 H 1062.52 1.35425 -2.9467 0
M  V30 11106 H 1062.3 -0.130173 -3.91884 0
M  V30 11107 H 1063.79 0.845169 -4.08958 0
M  V30 11108 N 1064.23 1.43628 -0.648757 0
M  V30 11109 C 1065.46 2.06732 -0.166284 0
M  V30 11110 C 1065.88 1.48281 1.15734 0
M  V30 11111 O 1065.24 0.591018 1.71396 0
M  V30 11112 C 1065.29 3.60502 -0.0838732 0
M  V30 11113 O 1064.39 4.01186 0.955185 0
M  V30 11114 H 1063.73 0.657479 -0.0928285 0
M  V30 11115 H 1066.26 1.84208 -0.890421 0
M  V30 11116 H 1066.27 4.07875 0.100923 0
M  V30 11117 H 1064.95 4.02424 -1.05014 0
M  V30 11118 H 1063.53 3.65412 0.743537 0
M  V30 11119 N 1065.71 0.390394 1.52688 0
M  V30 11120 C 1066.94 -0.194013 2.06491 0
M  V30 11121 C 1067.36 -1.3965 1.26014 0
M  V30 11122 O 1066.72 -1.79038 0.285468 0
M  V30 11123 C 1066.77 -0.541306 3.56514 0
M  V30 11124 O 1065.87 -1.63509 3.78601 0
M  V30 11125 H 1065.21 -0.0223608 0.663623 0
M  V30 11126 H 1067.74 0.558179 1.96839 0
M  V30 11127 H 1067.75 -0.805301 3.99974 0
M  V30 11128 H 1066.43 0.337828 4.14526 0
M  V30 11129 H 1065 -1.36473 3.4703 0
M  V30 11130 N 1067.19 -1.57141 0.120249 0
M  V30 11131 C 1068.44 -1.94852 -0.536387 0
M  V30 11132 C 1068.76 -1.00452 -1.67136 0
M  V30 11133 O 1068.03 -0.061053 -1.95805 0
M  V30 11134 H 1066.61 -0.719411 -0.201138 0
M  V30 11135 H 1069.27 -1.93977 0.189482 0
M  V30 11136 H 1068.37 -2.97917 -0.930145 0
M  V30 11137 N 1068.67 0.153526 -1.5685 0
M  V30 11138 C 1070.08 0.714247 -1.72498 0
M  V30 11139 C 1070.43 1.81968 -0.733621 0
M  V30 11140 O 1069.55 2.16163 0.10118 0
M  V30 11141 C 1070.15 1.30238 -3.12767 0
M  V30 11142 C 1068.71 1.80974 -3.30038 0
M  V30 11143 C 1067.85 0.695638 -2.68433 0
M  V30 11144 H 1070.81 -0.0720733 -1.58536 0
M  V30 11145 H 1070.83 2.17217 -3.12405 0
M  V30 11146 H 1070.34 0.497605 -3.84897 0
M  V30 11147 H 1068.44 2.64039 -2.62895 0
M  V30 11148 H 1068.55 1.94294 -4.37934 0
M  V30 11149 H 1066.92 1.12061 -2.28723 0
M  V30 11150 H 1067.7 -0.0975885 -3.43161 0
M  V30 11151 N 1070.14 1.51827 0.422667 0
M  V30 11152 C 1071.11 1.7359 1.49663 0
M  V30 11153 C 1072.11 0.605811 1.48952 0
M  V30 11154 O 1073.3 0.87354 1.50715 0
M  V30 11155 C 1070.43 1.80585 2.8914 0
M  V30 11156 H 1071.62 2.69453 1.31664 0
M  V30 11157 H 1069.18 1.42038 0.652298 0
M  V30 11158 H 1069.91 0.865895 3.12526 0
M  V30 11159 H 1069.7 2.62729 2.9106 0
M  V30 11160 H 1071.19 1.99212 3.67021 0
M  V30 11161 N 1071.62 -0.679052 1.4222 0
M  V30 11162 C 1072.59 -1.77448 1.45069 0
M  V30 11163 C 1073.59 -1.57189 0.338882 0
M  V30 11164 O 1074.78 -1.63559 0.599519 0
M  V30 11165 C 1071.91 -3.1603 1.27819 0
M  V30 11166 H 1073.1 -1.7631 2.426 0
M  V30 11167 H 1070.65 -0.888277 1.28605 0
M  V30 11168 H 1071.39 -3.22796 0.311946 0
M  V30 11169 H 1071.17 -3.32138 2.08391 0
M  V30 11170 H 1072.66 -3.9596 1.32686 0
M  V30 11171 N 1073.1 -1.28322 -0.914942 0
M  V30 11172 C 1074.33 -1.18254 -1.69775 0
M  V30 11173 C 1074.74 0.258978 -1.87015 0
M  V30 11174 O 1074.1 1.17514 -1.3963 0
M  V30 11175 C 1074.15 -1.8753 -3.09054 0
M  V30 11176 O 1073.87 -3.26051 -2.92613 0
M  V30 11177 C 1075.37 -1.83749 -4.03424 0
M  V30 11178 H 1072.59 -0.41055 -0.530744 0
M  V30 11179 H 1075.14 -1.69425 -1.14523 0
M  V30 11180 H 1073.29 -1.40233 -3.61128 0
M  V30 11181 H 1073.71 -3.60729 -3.80756 0
M  V30 11182 H 1075.18 -2.36813 -4.98622 0
M  V30 11183 H 1075.66 -0.809601 -4.31674 0
M  V30 11184 H 1076.26 -2.3072 -3.57279 0
M  V30 11185 N 1074.58 1.12322 -1.10551 0
M  V30 11186 C 1075.51 2.17819 -0.713263 0
M  V30 11187 C 1076.52 1.6086 0.250604 0
M  V30 11188 O 1077.71 1.78466 0.0348909 0
M  V30 11189 C 1074.81 3.38885 -0.0320325 0
M  V30 11190 C 1073.99 4.25332 -1.02038 0
M  V30 11191 C 1073.04 5.24895 -0.370412 0
M  V30 11192 O 1072.07 5.59958 -1.02157 0
M  V30 11193 N 1073.27 5.73934 0.870633 0
M  V30 11194 H 1076.04 2.52083 -1.62094 0
M  V30 11195 H 1073.6 1.27755 -0.994492 0
M  V30 11196 H 1075.59 4.02574 0.414285 0
M  V30 11197 H 1074.16 3.02762 0.778072 0
M  V30 11198 H 1073.38 3.5824 -1.64492 0
M  V30 11199 H 1074.67 4.79936 -1.68936 0
M  V30 11200 H 1074.07 5.47614 1.419 0
M  V30 11201 H 1072.62 6.39504 1.26008 0
M  V30 11202 N 1076.06 0.894434 1.2976 0
M  V30 11203 C 1077.33 0.437365 1.90648 0
M  V30 11204 C 1077.71 -1.08261 1.81226 0
M  V30 11205 O 1077.06 -1.92213 1.23557 0
M  V30 11206 C 1077.27 0.946047 3.35933 0
M  V30 11207 C 1078.62 0.986621 4.12978 0
M  V30 11208 O 1079.64 0.893356 3.44815 0
M  V30 11209 O 1078.5 1.12591 5.34776 0
M  V30 11210 H 1075.6 0.135436 0.815835 0
M  V30 11211 H 1078.14 0.983955 1.38262 0
M  V30 11212 H 1076.91 1.98998 3.3692 0
M  V30 11213 H 1076.54 0.379164 3.95788 0
M  V30 11214 N 1077.53 -1.43282 0.656365 0
M  V30 11215 C 1078.78 -2.01776 0.171039 0
M  V30 11216 C 1079.11 -1.51795 -1.21609 0
M  V30 11217 O 1078.36 -0.702864 -1.82643 0
M  V30 11218 C 1078.66 -3.57148 0.134225 0
M  V30 11219 C 1078.33 -4.26488 1.46352 0
M  V30 11220 C 1076.99 -4.45146 1.82753 0
M  V30 11221 C 1079.34 -4.65728 2.33981 0
M  V30 11222 C 1076.67 -5.0031 3.06443 0
M  V30 11223 C 1079.02 -5.22263 3.56966 0
M  V30 11224 C 1077.69 -5.39136 3.93559 0
M  V30 11225 H 1076.96 -0.738352 0.0625878 0
M  V30 11226 H 1079.6 -1.71716 0.847697 0
M  V30 11227 H 1077.91 -3.86768 -0.625892 0
M  V30 11228 H 1079.61 -4.00168 -0.258207 0
M  V30 11229 H 1076.2 -4.12313 1.1703 0
M  V30 11230 H 1080.38 -4.51003 2.07148 0
M  V30 11231 H 1075.64 -5.11559 3.34839 0
M  V30 11232 H 1079.81 -5.51614 4.25082 0
M  V30 11233 H 1077.44 -5.81646 4.89481 0
M  V30 11234 N 1079.01 -0.398486 -1.52479 0
M  V30 11235 C 1080.24 0.183059 -2.06591 0
M  V30 11236 C 1080.66 1.3898 -1.26753 0
M  V30 11237 O 1080.02 1.78885 -0.294959 0
M  V30 11238 C 1080.07 0.522392 -3.56796 0
M  V30 11239 O 1079.17 1.61499 -3.79462 0
M  V30 11240 H 1078.51 0.0188411 -0.663733 0
M  V30 11241 H 1081.04 -0.56861 -1.9654 0
M  V30 11242 H 1081.05 0.784078 -4.00395 0
M  V30 11243 H 1079.73 -0.359807 -4.14341 0
M  V30 11244 H 1078.31 1.3463 -3.47749 0
M  V30 11245 N 1080.49 1.57075 -0.12858 0
M  V30 11246 C 1081.44 2.15816 0.818064 0
M  V30 11247 C 1082.41 1.08581 1.25696 0
M  V30 11248 O 1083.59 1.36535 1.33277 0
M  V30 11249 C 1080.73 2.76943 2.05905 0
M  V30 11250 C 1079.85 3.98514 1.66764 0
M  V30 11251 C 1078.98 4.47698 2.85902 0
M  V30 11252 C 1078.02 5.61778 2.43047 0
M  V30 11253 N 1077.16 6.05662 3.5513 0
M  V30 11254 H 1082 2.9638 0.310318 0
M  V30 11255 H 1079.53 1.46418 0.141472 0
M  V30 11256 H 1081.49 3.10519 2.78629 0
M  V30 11257 H 1080.12 1.99053 2.54122 0
M  V30 11258 H 1079.17 3.71038 0.838766 0
M  V30 11259 H 1080.49 4.81215 1.31277 0
M  V30 11260 H 1079.64 4.83233 3.66839 0
M  V30 11261 H 1078.38 3.63967 3.24622 0
M  V30 11262 H 1077.38 5.25838 1.60544 0
M  V30 11263 H 1078.61 6.47282 2.05433 0
M  V30 11264 H 1076.56 5.2487 3.93506 0
M  V30 11265 H 1076.47 6.83242 3.23598 0
M  V30 11266 H 1077.74 6.45838 4.36479 0
M  V30 11267 N 1081.97 -0.145205 1.5693 0
M  V30 11268 C 1082.9 -1.18096 2.01434 0
M  V30 11269 C 1083.88 -1.447 0.894204 0
M  V30 11270 O 1085.07 -1.55589 1.16214 0
M  V30 11271 C 1082.2 -2.51369 2.39647 0
M  V30 11272 C 1081.15 -2.39283 3.54863 0
M  V30 11273 C 1080.48 -3.77283 3.78895 0
M  V30 11274 C 1081.78 -1.8754 4.87469 0
M  V30 11275 H 1083.47 -0.810897 2.8821 0
M  V30 11276 H 1081.02 -0.388624 1.38657 0
M  V30 11277 H 1082.97 -3.24054 2.69382 0
M  V30 11278 H 1081.69 -2.90214 1.49811 0
M  V30 11279 H 1080.35 -1.6905 3.25296 0
M  V30 11280 H 1080 -4.13567 2.86307 0
M  V30 11281 H 1079.7 -3.70057 4.56433 0
M  V30 11282 H 1081.22 -4.51514 4.11057 0
M  V30 11283 H 1082.64 -2.50019 5.1591 0
M  V30 11284 H 1081.03 -1.912 5.68826 0
M  V30 11285 H 1082.1 -0.831194 4.77723 0
M  V30 11286 N 1083.45 -1.52049 -0.414609 0
M  V30 11287 C 1084.38 -1.77956 -1.51175 0
M  V30 11288 C 1085.36 -0.630282 -1.57992 0
M  V30 11289 O 1086.54 -0.875324 -1.73354 0
M  V30 11290 C 1083.67 -1.92527 -2.89051 0
M  V30 11291 C 1082.63 -3.08096 -2.97087 0
M  V30 11292 C 1081.95 -3.07882 -4.37164 0
M  V30 11293 C 1083.25 -4.47656 -2.69075 0
M  V30 11294 H 1084.95 -2.69827 -1.29746 0
M  V30 11295 H 1082.49 -1.29839 -0.62273 0
M  V30 11296 H 1084.45 -2.09234 -3.65786 0
M  V30 11297 H 1083.17 -0.973235 -3.11762 0
M  V30 11298 H 1081.83 -2.91131 -2.22797 0
M  V30 11299 H 1081.48 -2.10411 -4.56877 0
M  V30 11300 H 1081.18 -3.85501 -4.43467 0
M  V30 11301 H 1082.7 -3.26712 -5.15841 0
M  V30 11302 H 1084.12 -4.64855 -3.35534 0
M  V30 11303 H 1082.51 -5.27151 -2.8676 0
M  V30 11304 H 1083.58 -4.56129 -1.64544 0
M  V30 11305 N 1084.93 0.6715 -1.42579 0
M  V30 11306 C 1086.15 1.46471 -1.46836 0
M  V30 11307 C 1086.58 1.87921 -0.0820658 0
M  V30 11308 O 1085.93 1.5621 0.920217 0
M  V30 11309 C 1085.98 2.68796 -2.40377 0
M  V30 11310 O 1085.09 3.67188 -1.87741 0
M  V30 11311 H 1084.43 0.439901 -0.497376 0
M  V30 11312 H 1086.96 0.823342 -1.87303 0
M  V30 11313 H 1086.97 3.16828 -2.57068 0
M  V30 11314 H 1085.64 2.37967 -3.41093 0
M  V30 11315 H 1084.22 3.26237 -1.80621 0
M  V30 11316 N 1086.4 1.28806 0.908124 0
M  V30 11317 C 1087.63 1.19271 1.69674 0
M  V30 11318 C 1088.05 -0.244403 1.86505 0
M  V30 11319 O 1087.41 -1.17668 1.37927 0
M  V30 11320 C 1087.46 1.9023 3.06341 0
M  V30 11321 O 1086.56 1.2136 3.94139 0
M  V30 11322 H 1085.9 0.413738 0.519343 0
M  V30 11323 H 1088.43 1.70227 1.13508 0
M  V30 11324 H 1088.44 1.98356 3.56537 0
M  V30 11325 H 1087.12 2.94762 2.93408 0
M  V30 11326 H 1085.7 1.21435 3.52573 0
M  V30 11327 N 1087.88 -1.11734 1.11145 0
M  V30 11328 C 1089.13 -1.83677 0.859684 0
M  V30 11329 C 1089.46 -1.84265 -0.613182 0
M  V30 11330 O 1088.74 -1.29351 -1.45254 0
M  V30 11331 C 1089.02 -3.31003 1.41805 0
M  V30 11332 C 1088.87 -3.38827 2.95831 0
M  V30 11333 C 1090.19 -4.26984 1.06645 0
M  V30 11334 H 1087.31 -0.666879 0.313754 0
M  V30 11335 H 1089.95 -1.31038 1.37583 0
M  V30 11336 H 1088.1 -3.75961 0.979054 0
M  V30 11337 H 1089.77 -3.02451 3.48312 0
M  V30 11338 H 1088.02 -2.79143 3.32056 0
M  V30 11339 H 1088.69 -4.42508 3.29986 0
M  V30 11340 H 1091.16 -3.9019 1.44537 0
M  V30 11341 H 1090.04 -5.2846 1.48394 0
M  V30 11342 H 1090.3 -4.42094 -0.0231866 0
M  V30 11343 N 1089.36 -0.901303 -1.29284 0
M  V30 11344 C 1090.31 -0.378666 -2.27672 0
M  V30 11345 C 1091.28 0.540102 -1.57074 0
M  V30 11346 O 1092.46 0.464997 -1.85047 0
M  V30 11347 C 1089.6 0.38635 -3.42931 0
M  V30 11348 C 1088.71 -0.563496 -4.28309 0
M  V30 11349 C 1087.85 0.218731 -5.30749 0
M  V30 11350 C 1086.89 -0.725536 -6.07785 0
M  V30 11351 N 1086.03 0.0223854 -7.02096 0
M  V30 11352 H 1090.87 -1.22277 -2.71758 0
M  V30 11353 H 1088.4 -0.614302 -1.33659 0
M  V30 11354 H 1090.36 0.845967 -4.08533 0
M  V30 11355 H 1088.99 1.1949 -2.9987 0
M  V30 11356 H 1088.04 -1.14163 -3.62865 0
M  V30 11357 H 1089.35 -1.28623 -4.81931 0
M  V30 11358 H 1088.51 0.739473 -6.02177 0
M  V30 11359 H 1087.25 0.97459 -4.77863 0
M  V30 11360 H 1086.25 -1.25776 -5.3522 0
M  V30 11361 H 1087.48 -1.48075 -6.6276 0
M  V30 11362 H 1085.42 0.760482 -6.51577 0
M  V30 11363 H 1085.34 -0.640408 -7.53283 0
M  V30 11364 H 1086.61 0.523339 -7.77741 0
M  V30 11365 N 1090.84 1.42931 -0.663954 0
M  V30 11366 C 1091.75 2.3459 0.0214234 0
M  V30 11367 C 1092.76 1.54487 0.800611 0
M  V30 11368 O 1093.94 1.87098 0.74541 0
M  V30 11369 C 1091 3.32896 0.968556 0
M  V30 11370 C 1090.07 4.28901 0.185108 0
M  V30 11371 C 1089.3 5.2251 1.08713 0
M  V30 11372 O 1089.52 5.20795 2.32655 0
M  V30 11373 O 1088.46 5.99347 0.553758 0
M  V30 11374 H 1092.28 2.94714 -0.733308 0
M  V30 11375 H 1089.87 1.43252 -0.424159 0
M  V30 11376 H 1091.75 3.93318 1.51257 0
M  V30 11377 H 1090.42 2.75261 1.70333 0
M  V30 11378 H 1089.33 3.71926 -0.402752 0
M  V30 11379 H 1090.66 4.89547 -0.510319 0
M  V30 11380 N 1092.32 0.406567 1.52266 0
M  V30 11381 C 1093.56 -0.171391 2.00971 0
M  V30 11382 C 1093.88 -1.46443 1.29668 0
M  V30 11383 O 1095.08 -2.12348 1.69176 0
M  V30 11384 C 1093.54 -0.35599 3.58135 0
M  V30 11385 C 1093.15 0.924803 4.38351 0
M  V30 11386 C 1094.89 -0.889378 4.15079 0
M  V30 11387 C 1092.8 0.707534 5.87152 0
M  V30 11388 H 1091.73 -0.0678253 0.750943 0
M  V30 11389 H 1094.38 0.531619 1.7563 0
M  V30 11390 H 1092.76 -1.12127 3.79794 0
M  V30 11391 H 1093.94 1.69603 4.28452 0
M  V30 11392 H 1092.25 1.38442 3.92712 0
M  V30 11393 H 1094.85 -1.06792 5.23927 0
M  V30 11394 H 1095.19 -1.86334 3.7227 0
M  V30 11395 H 1095.72 -0.183224 3.97378 0
M  V30 11396 H 1092.46 1.65299 6.34316 0
M  V30 11397 H 1091.98 -0.024446 5.99795 0
M  V30 11398 H 1093.66 0.348721 6.4606 0
M  V30 11399 N 1093.79 -1.57004 0.136909 0
M  V30 11400 C 1095.02 -2.00587 -0.527209 0
M  V30 11401 C 1095.44 -1.01628 -1.58283 0
M  V30 11402 O 1094.8 0.00946934 -1.81298 0
M  V30 11403 C 1094.85 -3.42967 -1.11384 0
M  V30 11404 O 1093.95 -3.46973 -2.22898 0
M  V30 11405 H 1093.3 -0.651155 -0.129976 0
M  V30 11406 H 1095.83 -2.03296 0.230667 0
M  V30 11407 H 1095.84 -3.81555 -1.44499 0
M  V30 11408 H 1094.51 -4.14502 -0.340736 0
M  V30 11409 H 1093.09 -3.20219 -1.91087 0
M  V30 11410 N 1095.27 0.136881 -1.57004 0
M  V30 11411 C 1096.55 0.87705 -1.74835 0
M  V30 11412 C 1096.93 1.98886 -0.707639 0
M  V30 11413 O 1096.28 2.26879 0.271652 0
M  V30 11414 C 1096.49 1.41021 -3.1924 0
M  V30 11415 C 1097.84 1.86963 -3.81222 0
M  V30 11416 O 1098.86 1.5074 -3.22732 0
M  V30 11417 O 1097.72 2.53798 -4.83993 0
M  V30 11418 H 1094.81 0.415192 -0.715223 0
M  V30 11419 H 1097.36 0.122016 -1.69261 0
M  V30 11420 H 1096.13 0.611677 -3.8649 0
M  V30 11421 H 1095.75 2.22846 -3.2928 0
M  V30 11422 N 1096.75 1.52266 0.40654 0
M  V30 11423 C 1098 1.6568 1.15035 0
M  V30 11424 C 1098.31 0.394135 1.91588 0
M  V30 11425 O 1099.52 0.408113 2.68415 0
M  V30 11426 C 1097.97 2.92725 2.0938 0
M  V30 11427 C 1097.58 4.26108 1.38332 0
M  V30 11428 C 1099.33 3.15502 2.84004 0
M  V30 11429 C 1097.23 5.44275 2.3134 0
M  V30 11430 H 1096.16 0.61719 0.43312 0
M  V30 11431 H 1098.81 1.78755 0.414598 0
M  V30 11432 H 1097.2 2.73355 2.86519 0
M  V30 11433 H 1098.37 4.55971 0.665396 0
M  V30 11434 H 1096.69 4.09454 0.757384 0
M  V30 11435 H 1099.28 4.00964 3.5374 0
M  V30 11436 H 1099.63 2.29842 3.471 0
M  V30 11437 H 1100.16 3.35357 2.13964 0
M  V30 11438 H 1096.9 6.3229 1.72887 0
M  V30 11439 H 1096.42 5.18749 3.01098 0
M  V30 11440 H 1098.1 5.77457 2.91809 0
M  V30 11441 N 1098.23 -0.663929 1.42933 0
M  V30 11442 C 1099.47 -1.42603 1.44195 0
M  V30 11443 C 1099.81 -1.94101 0.0620284 0
M  V30 11444 O 1099.08 -1.71609 -0.91546 0
M  V30 11445 C 1099.37 -2.61522 2.47544 0
M  V30 11446 C 1099.22 -2.15587 3.94769 0
M  V30 11447 C 1100.54 -3.6374 2.47753 0
M  V30 11448 H 1097.66 -0.517189 0.525056 0
M  V30 11449 H 1100.3 -0.75361 1.74415 0
M  V30 11450 H 1098.45 -3.1889 2.21904 0
M  V30 11451 H 1100.12 -1.63303 4.31428 0
M  V30 11452 H 1098.36 -1.47057 4.08114 0
M  V30 11453 H 1099.03 -3.01053 4.62678 0
M  V30 11454 H 1101.51 -3.16111 2.70579 0
M  V30 11455 H 1100.39 -4.44512 3.22025 0
M  V30 11456 H 1100.65 -4.15607 1.50742 0
M  V30 11457 N 1099.71 -1.29285 -0.901281 0
M  V30 11458 C 1101.12 -1.07263 -1.18182 0
M  V30 11459 C 1101.32 0.177087 -2.0072 0
M  V30 11460 O 1100.38 0.875292 -2.36844 0
M  V30 11461 C 1101.69 -2.32717 -1.9043 0
M  V30 11462 C 1103.24 -2.3802 -2.03262 0
M  V30 11463 C 1103.71 -3.63273 -2.7892 0
M  V30 11464 N 1105.21 -3.63986 -2.86475 0
M  V30 11465 C 1105.94 -4.57585 -3.45549 0
M  V30 11466 N 1105.44 -5.61513 -4.05801 0
M  V30 11467 N 1107.23 -4.45157 -3.43208 0
M  V30 11468 H 1099.38 -2.09487 -0.350536 0
M  V30 11469 H 1101.64 -0.922647 -0.217778 0
M  V30 11470 H 1101.35 -3.23828 -1.37216 0
M  V30 11471 H 1101.22 -2.40102 -2.90913 0
M  V30 11472 H 1103.61 -1.47398 -2.55652 0
M  V30 11473 H 1103.69 -2.3462 -1.01916 0
M  V30 11474 H 1103.34 -4.54246 -2.27206 0
M  V30 11475 H 1103.27 -3.6393 -3.80608 0
M  V30 11476 H 1105.76 -2.8884 -2.43679 0
M  V30 11477 H 1106.07 -6.29058 -4.48894 0
M  V30 11478 H 1104.41 -5.65325 -4.04268 0
M  V30 11479 H 1107.61 -3.63158 -2.95354 0
M  V30 11480 H 1107.78 -5.18286 -3.88952 0
M  V30 11481 N 1101.18 1.11143 -1.11736 0
M  V30 11482 C 1102.6 1.34962 -0.851905 0
M  V30 11483 C 1102.8 1.94627 0.521797 0
M  V30 11484 O 1101.86 2.18121 1.27198 0
M  V30 11485 C 1103.17 2.27832 -1.96248 0
M  V30 11486 C 1104.72 2.41388 -1.9925 0
M  V30 11487 C 1105.19 3.37582 -3.09519 0
M  V30 11488 N 1106.68 3.45147 -3.08914 0
M  V30 11489 C 1107.42 4.19527 -3.90876 0
M  V30 11490 N 1106.91 4.96858 -4.82809 0
M  V30 11491 N 1108.71 4.15071 -3.79042 0
M  V30 11492 H 1100.86 0.707801 -2.0026 0
M  V30 11493 H 1103.12 0.374172 -0.871033 0
M  V30 11494 H 1102.83 1.91189 -2.95194 0
M  V30 11495 H 1102.7 3.28078 -1.86132 0
M  V30 11496 H 1105.09 2.77304 -1.00928 0
M  V30 11497 H 1105.17 1.40983 -2.13442 0
M  V30 11498 H 1104.81 3.02393 -4.0807 0
M  V30 11499 H 1104.74 4.37849 -2.92568 0
M  V30 11500 H 1107.23 2.89991 -2.42309 0
M  V30 11501 H 1107.55 5.5099 -5.41876 0
M  V30 11502 H 1105.89 4.96008 -4.86828 0
M  V30 11503 H 1109.08 3.53748 -3.06562 0
M  V30 11504 H 1109.26 4.72781 -4.4315 0
M  V30 11505 O 1102.7 1.04023 1.23537 0
M  V30 11506 H 1103.39 0.711011 1.80179 0
M  V30 END ATOM
M  V30 BEGIN BOND
M  V30 END BOND
M  V30 END CTAB
M  END
$$$$
