drugbank_target|P00587 Diphtheria toxin (DB01792)
 OpenBabel12092119533D

  0  0  0     0  0            999 V3000
M  V30 BEGIN CTAB
M  V30 COUNTS 8526 8612 0 0 0
M  V30 BEGIN ATOM
M  V30 1 H -0.908 1.98254 -0.117106 0
M  V30 2 N 0 1.576 0 0
M  V30 3 C 0.933 2.03868 1.02534 0
M  V30 4 C 1.911 0.928543 1.3348 0
M  V30 5 O 3.095 1.19667 1.45644 0
M  V30 6 C 0.222 2.43627 2.35294 0
M  V30 7 C -0.732 3.65373 2.2001 0
M  V30 8 S 0.101 5.13292 1.52614 0
M  V30 9 C 1.257 5.56322 2.86805 0
M  V30 10 H 1.49 2.90518 0.631377 0
M  V30 11 H -0.977 1.52953 0.210867 0
M  V30 12 H 0.981 2.67203 3.11629 0
M  V30 13 H -0.358 1.57376 2.7183 0
M  V30 14 H -1.165 3.90944 3.18086 0
M  V30 15 H -1.563 3.418 1.51819 0
M  V30 16 H 0.729 5.58782 3.83104 0
M  V30 17 H 1.672 6.56266 2.65933 0
M  V30 18 H 2.08 4.83886 2.90714 0
M  V30 19 N 1.4781 -0.272755 1.55222 0
M  V30 20 C 2.7031 -1.02683 1.80197 0
M  V30 21 C 3.1281 -1.79142 0.573551 0
M  V30 22 O 2.4861 -1.74917 -0.476849 0
M  V30 23 C 2.5341 -1.9609 3.02624 0
M  V30 24 O 1.6381 -3.04863 2.77727 0
M  V30 25 H 0.9791 -0.293557 0.595584 0
M  V30 26 H 3.5091 -0.30159 2.02365 0
M  V30 27 H 3.5191 -2.38039 3.31363 0
M  V30 28 H 2.1941 -1.39851 3.91682 0
M  V30 29 H 0.7711 -2.67228 2.60084 0
M  V30 30 N 2.9562 -1.48159 -0.537278 0
M  V30 31 C 4.3722 -1.34118 -0.865129 0
M  V30 32 C 4.5722 -0.346678 -1.98495 0
M  V30 33 O 3.6282 0.234715 -2.51407 0
M  V30 34 C 4.9412 -2.73963 -1.23954 0
M  V30 35 C 6.4892 -2.82397 -1.34984 0
M  V30 36 C 6.9642 -4.22928 -1.75772 0
M  V30 37 N 8.4552 -4.25566 -1.82887 0
M  V30 38 C 9.1902 -5.31235 -2.15817 0
M  V30 39 N 8.6862 -6.47189 -2.47222 0
M  V30 40 N 10.4792 -5.18624 -2.16761 0
M  V30 41 H 2.6302 -2.1144 0.201715 0
M  V30 42 H 4.8932 -0.947598 0.0275949 0
M  V30 43 H 4.5992 -3.48264 -0.490381 0
M  V30 44 H 4.4732 -3.0702 -2.19132 0
M  V30 45 H 6.8602 -2.08356 -2.08978 0
M  V30 46 H 6.9412 -2.5297 -0.379448 0
M  V30 47 H 6.5852 -4.97482 -1.02341 0
M  V30 48 H 6.5152 -4.49794 -2.73848 0
M  V30 49 H 9.0062 -3.41924 -1.60924 0
M  V30 50 H 9.3192 -7.23564 -2.71433 0
M  V30 51 H 7.6642 -6.50476 -2.44757 0
M  V30 52 H 10.8552 -4.27056 -1.91679 0
M  V30 53 H 11.0282 -6.01078 -2.42093 0
M  V30 54 N 4.4343 0.785586 -1.36625 0
M  V30 55 C 5.3813 1.89838 -1.31264 0
M  V30 56 C 6.3513 1.65115 -0.180633 0
M  V30 57 O 7.5363 1.87222 -0.36777 0
M  V30 58 C 4.6763 3.26706 -1.11163 0
M  V30 59 C 3.7893 3.63476 -2.33472 0
M  V30 60 C 2.9243 4.89481 -2.06353 0
M  V30 61 C 1.9633 5.18941 -3.24602 0
M  V30 62 N 1.1003 6.36131 -2.97123 0
M  V30 63 H 5.9403 1.93756 -2.26413 0
M  V30 64 H 3.4773 0.947454 -1.12524 0
M  V30 65 H 5.4353 4.05639 -0.975337 0
M  V30 66 H 4.0653 3.222 -0.196674 0
M  V30 67 H 3.1173 2.79636 -2.57891 0
M  V30 68 H 4.4293 3.81193 -3.21704 0
M  V30 69 H 3.5833 5.76288 -1.89675 0
M  V30 70 H 2.3223 4.73841 -1.15437 0
M  V30 71 H 1.3273 4.30615 -3.41834 0
M  V30 72 H 2.5523 5.36498 -4.16349 0
M  V30 73 H 0.4983 6.21875 -2.08823 0
M  V30 74 H 0.4153 6.54198 -3.78894 0
M  V30 75 H 1.6833 7.2591 -2.84033 0
M  V30 76 N 5.9124 1.20967 1.01018 0
M  V30 77 C 6.8424 0.988272 2.11555 0
M  V30 78 C 7.8234 -0.0849778 1.69888 0
M  V30 79 O 9.0084 0.0738202 1.9406 0
M  V30 80 C 6.1384 0.546528 3.42973 0
M  V30 81 C 5.0924 1.56375 3.9841 0
M  V30 82 C 4.4184 0.97842 5.25672 0
M  V30 83 C 5.7184 2.94922 4.31066 0
M  V30 84 H 7.4124 1.91276 2.30334 0
M  V30 85 H 4.9584 0.921073 1.1069 0
M  V30 86 H 6.9114 0.378839 4.19694 0
M  V30 87 H 5.6354 -0.413598 3.23971 0
M  V30 88 H 4.2944 1.71891 3.23804 0
M  V30 89 H 3.9424 0.0101688 5.02999 0
M  V30 90 H 3.6424 1.65784 5.63728 0
M  V30 91 H 5.1664 0.821939 6.05043 0
M  V30 92 H 6.5804 2.8288 4.9865 0
M  V30 93 H 4.9774 3.5983 4.80253 0
M  V30 94 H 6.0474 3.4616 3.39561 0
M  V30 95 N 7.3905 -1.2043 1.01659 0
M  V30 96 C 8.6375 -1.89797 0.705917 0
M  V30 97 C 8.9655 -1.78848 -0.764439 0
M  V30 98 O 8.2205 -1.16694 -1.57102 0
M  V30 99 C 8.5195 -3.40464 1.08714 0
M  V30 100 C 8.1855 -3.71614 2.5537 0
M  V30 101 C 6.8475 -3.79826 2.95441 0
M  V30 102 C 9.1995 -3.85915 3.50313 0
M  V30 103 C 6.5275 -3.99797 4.29394 0
M  V30 104 C 8.8795 -4.07396 4.83954 0
M  V30 105 C 7.5435 -4.13837 5.23732 0
M  V30 106 H 6.8135 -0.694518 0.258313 0
M  V30 107 H 9.4605 -1.42691 1.27717 0
M  V30 108 H 7.7655 -3.89385 0.434309 0
M  V30 109 H 9.4625 -3.92433 0.824461 0
M  V30 110 H 6.0525 -3.65822 2.23321 0
M  V30 111 H 10.2365 -3.78926 3.20513 0
M  V30 112 H 5.4925 -4.03018 4.59768 0
M  V30 113 H 9.6665 -4.17404 5.57447 0
M  V30 114 H 7.2935 -4.29064 6.27541 0
M  V30 115 N 8.8686 -0.792821 -1.36206 0
M  V30 116 C 9.8316 -0.199459 -2.2833 0
M  V30 117 C 10.8316 0.605189 -1.48977 0
M  V30 118 O 12.0216 0.425685 -1.68919 0
M  V30 119 C 9.1536 0.723523 -3.33134 0
M  V30 120 H 10.3466 -1.01181 -2.82316 0
M  V30 121 H 7.8996 -0.562485 -1.45828 0
M  V30 122 H 8.6346 1.56008 -2.84309 0
M  V30 123 H 8.4196 0.148436 -3.91819 0
M  V30 124 H 9.9096 1.13344 -4.01924 0
M  V30 125 N 10.3467 1.47872 -0.545128 0
M  V30 126 C 11.5717 2.07391 -0.0190611 0
M  V30 127 C 11.9967 1.39688 1.25971 0
M  V30 128 O 11.3547 0.467816 1.7516 0
M  V30 129 C 11.4027 3.60188 0.172335 0
M  V30 130 O 10.5067 3.9339 1.23766 0
M  V30 131 H 9.8477 0.662411 -0.0459059 0
M  V30 132 H 12.3777 1.90066 -0.757365 0
M  V30 133 H 12.3877 4.06129 0.390305 0
M  V30 134 H 11.0627 4.08865 -0.761725 0
M  V30 135 H 9.6397 3.5921 1.00114 0
M  V30 136 N 11.8248 0.280983 1.55075 0
M  V30 137 C 13.0738 -0.334784 1.98902 0
M  V30 138 C 13.3868 -1.56534 1.17288 0
M  V30 139 O 14.5928 -2.25443 1.51287 0
M  V30 140 C 13.0488 -0.646994 3.54037 0
M  V30 141 C 12.6568 0.564085 4.44435 0
M  V30 142 C 14.4008 -1.22506 4.06439 0
M  V30 143 C 12.3078 0.226137 5.90967 0
M  V30 144 H 11.2378 -0.128866 0.742906 0
M  V30 145 H 13.8888 0.386556 1.79382 0
M  V30 146 H 12.2708 -1.42739 3.6938 0
M  V30 147 H 13.4448 1.34082 4.40861 0
M  V30 148 H 11.7598 1.0594 4.02698 0
M  V30 149 H 14.3568 -1.49182 5.13468 0
M  V30 150 H 14.6998 -2.16085 3.55827 0
M  V30 151 H 15.2328 -0.50682 3.94558 0
M  V30 152 H 11.9718 1.12996 6.45687 0
M  V30 153 H 11.4918 -0.513717 5.97596 0
M  V30 154 H 13.1708 -0.179539 6.46751 0
M  V30 155 N 13.3029 -1.57598 0.00835791 0
M  V30 156 C 14.2329 -2.1198 -0.979113 0
M  V30 157 C 15.2139 -1.03091 -1.35301 0
M  V30 158 O 16.3989 -1.30818 -1.43528 0
M  V30 159 C 13.5289 -2.62995 -2.26828 0
M  V30 160 C 12.4829 -3.76485 -2.03576 0
M  V30 161 C 11.8089 -4.13846 -3.38579 0
M  V30 162 C 13.1089 -5.0342 -1.39161 0
M  V30 163 H 14.8029 -2.94738 -0.526281 0
M  V30 164 H 12.3489 -1.41783 -0.251704 0
M  V30 165 H 14.3019 -2.99669 -2.96271 0
M  V30 166 H 13.0259 -1.7737 -2.7424 0
M  V30 167 H 11.6849 -3.40217 -1.36557 0
M  V30 168 H 11.3329 -3.25232 -3.83709 0
M  V30 169 H 11.0329 -4.90312 -3.23834 0
M  V30 170 H 12.5569 -4.53086 -4.09323 0
M  V30 171 H 13.9709 -5.37812 -1.98573 0
M  V30 172 H 12.3679 -5.84746 -1.34878 0
M  V30 173 H 13.4379 -4.83548 -0.361868 0
M  V30 174 N 14.781 0.264519 -1.55364 0
M  V30 175 C 16.03 0.992812 -1.75574 0
M  V30 176 C 16.343 1.87142 -0.568979 0
M  V30 177 O 17.549 2.63513 -0.653682 0
M  V30 178 C 16.005 1.81519 -3.10771 0
M  V30 179 C 15.613 0.984839 -4.37041 0
M  V30 180 C 17.357 2.53727 -3.40327 0
M  V30 181 C 15.264 1.80209 -5.63275 0
M  V30 182 H 14.194 0.374412 -0.65447 0
M  V30 183 H 16.845 0.248138 -1.81815 0
M  V30 184 H 15.227 2.60115 -2.98591 0
M  V30 185 H 16.401 0.242455 -4.60162 0
M  V30 186 H 14.716 0.37691 -4.14691 0
M  V30 187 H 17.313 3.15292 -4.3185 0
M  V30 188 H 17.656 3.24447 -2.60845 0
M  V30 189 H 18.189 1.82156 -3.53644 0
M  V30 190 H 14.928 1.13896 -6.45529 0
M  V30 191 H 14.448 2.52022 -5.44284 0
M  V30 192 H 16.127 2.37364 -6.01887 0
M  V30 193 N 16.2591 1.48442 0.529413 0
M  V30 194 C 17.5071 1.56179 1.28267 0
M  V30 195 C 17.8281 0.237721 1.93546 0
M  V30 196 O 17.0981 -0.740779 1.81354 0
M  V30 197 H 15.6781 0.575367 0.476405 0
M  V30 198 H 18.3401 1.84909 0.61602 0
M  V30 199 H 17.4361 2.34312 2.06165 0
M  V30 200 N 17.7372 -0.778329 1.37039 0
M  V30 201 C 18.7002 -1.87301 1.32102 0
M  V30 202 C 19.7002 -1.59198 0.226405 0
M  V30 203 O 20.8902 -1.67403 0.481861 0
M  V30 204 C 18.0222 -3.24309 1.05055 0
M  V30 205 H 19.2152 -1.93093 2.29467 0
M  V30 206 H 16.7682 -0.977358 1.21973 0
M  V30 207 H 17.5032 -3.24196 0.0819373 0
M  V30 208 H 17.2882 -3.46098 1.84279 0
M  V30 209 H 18.7782 -4.04382 1.04234 0
M  V30 210 N 19.2153 -1.21501 -1.00376 0
M  V30 211 C 20.1453 -0.999478 -2.11028 0
M  V30 212 C 21.1263 0.0759671 -1.6993 0
M  V30 213 O 22.3113 -0.0841106 -1.94018 0
M  V30 214 C 19.4413 -0.564709 -3.42678 0
M  V30 215 C 18.3953 -1.58486 -3.97576 0
M  V30 216 C 17.7213 -1.00628 -5.25146 0
M  V30 217 C 19.0213 -2.97204 -4.29496 0
M  V30 218 H 20.7153 -1.92495 -2.29317 0
M  V30 219 H 18.2613 -0.92693 -1.102 0
M  V30 220 H 20.2143 -0.401091 -4.19487 0
M  V30 221 H 18.9383 0.396411 -3.24185 0
M  V30 222 H 17.5973 -1.73606 -3.22888 0
M  V30 223 H 17.2453 -0.0368439 -5.02987 0
M  V30 224 H 16.9453 -1.68771 -5.62841 0
M  V30 225 H 18.4693 -0.854015 -6.04598 0
M  V30 226 H 19.8833 -2.8552 -4.97143 0
M  V30 227 H 18.2803 -3.62372 -4.78338 0
M  V30 228 H 19.3503 -3.47956 -3.3772 0
M  V30 229 N 20.6934 1.19889 -1.02296 0
M  V30 230 C 21.6234 2.25141 -0.619174 0
M  V30 231 C 22.6044 1.66051 0.368915 0
M  V30 232 O 23.7894 1.92546 0.252941 0
M  V30 233 C 20.9194 3.4728 0.0368783 0
M  V30 234 C 19.8734 4.19005 -0.872865 0
M  V30 235 C 19.1994 5.34637 -0.0822402 0
M  V30 236 C 20.4994 4.74452 -2.18387 0
M  V30 237 H 22.1934 2.59171 -1.49903 0
M  V30 238 H 19.7394 1.24579 -0.722222 0
M  V30 239 H 21.6924 4.20098 0.330958 0
M  V30 240 H 20.4164 3.12433 0.95149 0
M  V30 241 H 19.0754 3.48061 -1.15105 0
M  V30 242 H 18.7234 4.96034 0.83422 0
M  V30 243 H 18.4234 5.83557 -0.688149 0
M  V30 244 H 19.9474 6.10255 0.205238 0
M  V30 245 H 21.3614 5.39055 -1.95172 0
M  V30 246 H 19.7584 5.33834 -2.74119 0
M  V30 247 H 20.8284 3.92844 -2.84257 0
M  V30 248 N 22.1715 0.800033 1.35784 0
M  V30 249 C 23.4195 0.376597 1.9856 0
M  V30 250 C 23.7405 -1.05812 1.63795 0
M  V30 251 O 23.0105 -1.73103 0.917171 0
M  V30 252 H 21.5905 0.136261 0.734467 0
M  V30 253 H 24.2525 1.02442 1.65806 0
M  V30 254 H 23.3485 0.477002 3.08433 0
M  V30 255 N 23.6496 -1.47581 0.552962 0
M  V30 256 C 24.8986 -2.01684 0.0251995 0
M  V30 257 C 25.2116 -1.43317 -1.33115 0
M  V30 258 O 26.4176 -1.89057 -1.94858 0
M  V30 259 C 24.8736 -3.599 -0.00542052 0
M  V30 260 C 24.4816 -4.27257 1.34742 0
M  V30 261 C 26.2256 -4.21768 -0.4808 0
M  V30 262 C 24.1326 -5.77467 1.27614 0
M  V30 263 H 23.0626 -0.753979 0.00565033 0
M  V30 264 H 25.7136 -1.69616 0.70018 0
M  V30 265 H 24.0956 -3.88911 -0.745961 0
M  V30 266 H 25.2696 -4.09893 2.10534 0
M  V30 267 H 23.5846 -3.77358 1.76039 0
M  V30 268 H 26.1816 -5.31838 -0.55246 0
M  V30 269 H 26.5246 -3.88651 -1.49184 0
M  V30 270 H 27.0576 -3.97273 0.204752 0
M  V30 271 H 23.7966 -6.15196 2.26304 0
M  V30 272 H 23.3166 -5.9718 0.55996 0
M  V30 273 H 24.9956 -6.3959 0.976421 0
M  V30 274 N 25.1277 -0.289203 -1.54924 0
M  V30 275 C 26.3757 0.322879 -1.99504 0
M  V30 276 C 26.6967 1.55313 -1.1791 0
M  V30 277 O 25.9667 1.94001 -0.272097 0
M  V30 278 H 24.5467 0.122291 -0.736922 0
M  V30 279 H 27.2087 -0.397802 -1.90797 0
M  V30 280 H 26.3047 0.603061 -3.06218 0
M  V30 281 N 26.6058 1.57591 -0.0167156 0
M  V30 282 C 27.5688 2.08393 0.954204 0
M  V30 283 C 28.5688 0.996531 1.26198 0
M  V30 284 O 29.7588 1.25858 1.20438 0
M  V30 285 C 26.8908 2.5394 2.27436 0
M  V30 286 H 28.0838 2.95455 0.514451 0
M  V30 287 H 25.6368 1.54582 0.231089 0
M  V30 288 H 26.3718 1.70171 2.76066 0
M  V30 289 H 26.1568 3.33371 2.06412 0
M  V30 290 H 27.6468 2.93512 2.97053 0
M  V30 291 N 28.0839 -0.256276 1.55502 0
M  V30 292 C 29.4949 -0.826068 1.67431 0
M  V30 293 C 29.8459 -1.86396 0.612446 0
M  V30 294 O 28.9709 -2.15031 -0.243025 0
M  V30 295 C 29.5659 -1.50512 3.03532 0
M  V30 296 C 28.1249 -2.02273 3.17431 0
M  V30 297 C 27.2719 -0.870548 2.63281 0
M  V30 298 H 30.2229 -0.0322728 1.58667 0
M  V30 299 H 30.2439 -2.37279 2.97454 0
M  V30 300 H 29.7559 -0.749484 3.80794 0
M  V30 301 H 27.8569 -2.80746 2.44974 0
M  V30 302 H 27.9699 -2.22655 4.24219 0
M  V30 303 H 26.3339 -1.26851 2.20864 0
M  V30 304 H 27.1169 -0.128149 3.43061 0
M  V30 305 N 29.562 -1.4872 -0.521534 0
M  V30 306 C 30.973 -1.50607 -1.10337 0
M  V30 307 C 31.324 -0.280612 -1.94183 0
M  V30 308 O 30.449 0.611507 -2.0758 0
M  V30 309 C 31.044 -2.72903 -2.00772 0
M  V30 310 C 29.603 -2.77634 -2.54158 0
M  V30 311 C 28.75 -2.44241 -1.31307 0
M  V30 312 H 31.701 -1.55714 -0.306388 0
M  V30 313 H 31.722 -2.519 -2.85178 0
M  V30 314 H 31.234 -3.62077 -1.39721 0
M  V30 315 H 29.335 -1.92689 -3.18907 0
M  V30 316 H 29.448 -3.79283 -2.92714 0
M  V30 317 H 27.812 -1.95577 -1.63161 0
M  V30 318 H 28.595 -3.35666 -0.719943 0
M  V30 319 N 31.0401 0.771051 -1.3745 0
M  V30 320 C 32.2651 1.56529 -1.36065 0
M  V30 321 C 32.6901 1.88029 0.0515859 0
M  V30 322 O 32.0481 1.49282 1.02882 0
M  V30 323 C 32.0961 2.85187 -2.20683 0
M  V30 324 O 31.2001 3.79593 -1.61193 0
M  V30 325 H 30.5411 0.47411 -0.464883 0
M  V30 326 H 33.0711 0.954269 -1.80983 0
M  V30 327 H 33.0811 3.34283 -2.33921 0
M  V30 328 H 31.7561 2.61588 -3.23334 0
M  V30 329 H 30.3331 3.38239 -1.56999 0
M  V30 330 N 32.5182 1.22032 0.997298 0
M  V30 331 C 33.4812 0.987909 2.06816 0
M  V30 332 C 34.4812 -0.0440084 1.6074 0
M  V30 333 O 35.6712 0.194053 1.73116 0
M  V30 334 C 32.8032 0.49132 3.37341 0
M  V30 335 H 33.9962 1.93803 2.28868 0
M  V30 336 H 31.5492 1.03838 1.16822 0
M  V30 337 H 32.2842 -0.463364 3.20973 0
M  V30 338 H 32.0692 1.23575 3.72118 0
M  V30 339 H 33.5592 0.348824 4.16141 0
M  V30 340 N 33.9963 -1.19345 1.0293 0
M  V30 341 C 34.9463 -2.20472 0.58104 0
M  V30 342 C 35.9303 -1.56578 -0.370442 0
M  V30 343 O 37.1223 -1.75963 -0.191344 0
M  V30 344 C 34.2513 -3.43236 -0.066306 0
M  V30 345 C 33.3373 -4.14274 0.907642 0
M  V30 346 N 33.7283 -4.61492 2.07023 0
M  V30 347 C 32.0263 -4.39966 0.731177 0
M  V30 348 C 32.7273 -5.1605 2.68454 0
M  V30 349 N 31.7033 -5.06875 1.96414 0
M  V30 350 H 35.5053 -2.54659 1.46717 0
M  V30 351 H 33.0193 -1.35423 0.896345 0
M  V30 352 H 35.0163 -4.14927 -0.405068 0
M  V30 353 H 33.6763 -3.10549 -0.948118 0
M  V30 354 H 34.6873 -4.56304 2.44963 0
M  V30 355 H 31.3643 -4.17377 -0.101507 0
M  V30 356 H 32.7543 -5.6287 3.66915 0
M  V30 357 N 35.4744 -0.807222 -1.35358 0
M  V30 358 C 36.4374 -0.223665 -2.28106 0
M  V30 359 C 37.4374 0.589354 -1.4961 0
M  V30 360 O 38.6274 0.407745 -1.69361 0
M  V30 361 C 35.7594 0.688149 -3.33882 0
M  V30 362 H 36.9524 -1.04169 -2.81227 0
M  V30 363 H 34.5054 -0.577921 -1.45223 0
M  V30 364 H 35.2404 1.52984 -2.85948 0
M  V30 365 H 35.0254 0.10687 -3.91954 0
M  V30 366 H 36.5154 1.09075 -4.03104 0
M  V30 367 N 36.9525 1.47285 -0.560781 0
M  V30 368 C 38.2005 2.02064 -0.0379868 0
M  V30 369 C 38.5215 1.43711 1.31803 0
M  V30 370 O 37.7915 0.61362 1.86042 0
M  V30 371 H 36.3715 0.746918 -0.0110531 0
M  V30 372 H 39.0335 1.80648 -0.731598 0
M  V30 373 H 38.1295 3.12064 0.0474463 0
M  V30 374 N 38.4306 0.297415 1.54768 0
M  V30 375 C 39.3936 -0.567375 2.22066 0
M  V30 376 C 40.3936 -1.06409 1.20556 0
M  V30 377 O 41.5836 -0.960691 1.45315 0
M  V30 378 C 38.7156 -1.78517 2.90421 0
M  V30 379 H 39.9086 0.0205534 2.99893 0
M  V30 380 H 37.4616 0.0482163 1.56226 0
M  V30 381 H 38.1966 -2.41303 2.16664 0
M  V30 382 H 37.9816 -1.43669 3.64831 0
M  V30 383 H 39.4716 -2.39964 3.41771 0
M  V30 384 N 39.9087 -1.5758 0.0250728 0
M  V30 385 C 41.1857 -1.82917 -0.692873 0
M  V30 386 C 41.5657 -0.908137 -1.90568 0
M  V30 387 O 40.9137 0.0372298 -2.2847 0
M  V30 388 C 41.1237 -3.32034 -1.07492 0
M  V30 389 C 42.4717 -3.98406 -1.46826 0
M  V30 390 O 43.4957 -3.36505 -1.16801 0
M  V30 391 O 42.3547 -5.07497 -2.02754 0
M  V30 392 H 39.4487 -0.754079 -0.33955 0
M  V30 393 H 41.9947 -1.69619 0.0524456 0
M  V30 394 H 40.7667 -3.90728 -0.211552 0
M  V30 395 H 40.3897 -3.50424 -1.87854 0
M  V30 396 N 41.3868 0.248026 -1.55636 0
M  V30 397 C 42.6638 0.998988 -1.68165 0
M  V30 398 C 43.0438 2.03409 -0.564621 0
M  V30 399 O 42.3918 2.24378 0.432076 0
M  V30 400 C 42.6018 1.63334 -3.0842 0
M  V30 401 C 43.9498 2.13562 -3.66983 0
M  V30 402 O 44.9738 1.73277 -3.11213 0
M  V30 403 O 43.8328 2.87526 -4.64749 0
M  V30 404 H 40.9268 0.464933 -0.683935 0
M  V30 405 H 43.4728 0.241902 -1.67967 0
M  V30 406 H 42.2448 0.884583 -3.8117 0
M  V30 407 H 41.8678 2.45666 -3.12624 0
M  V30 408 N 42.8649 1.48995 0.513639 0
M  V30 409 C 44.1109 1.58076 1.27042 0
M  V30 410 C 44.4439 0.261026 1.92438 0
M  V30 411 O 43.7189 -0.734393 1.80103 0
M  V30 412 C 44.0019 2.73091 2.34719 0
M  V30 413 C 43.8549 4.14821 1.73907 0
M  V30 414 C 45.1739 2.83796 3.36375 0
M  V30 415 H 42.2929 0.575391 0.460536 0
M  V30 416 H 44.9349 1.81232 0.570516 0
M  V30 417 H 43.0849 2.53479 2.94416 0
M  V30 418 H 44.7569 4.45917 1.18135 0
M  V30 419 H 42.9999 4.21058 1.0437 0
M  V30 420 H 43.6709 4.91147 2.51949 0
M  V30 421 H 46.1469 3.01611 2.86653 0
M  V30 422 H 45.0229 3.65971 4.09093 0
M  V30 423 H 45.2839 1.92624 3.9793 0
M  V30 424 N 44.343 -0.763751 1.37857 0
M  V30 425 C 45.589 -1.52483 1.33704 0
M  V30 426 C 45.922 -1.94051 -0.0759612 0
M  V30 427 O 45.197 -1.64675 -1.03501 0
M  V30 428 C 45.48 -2.78441 2.28348 0
M  V30 429 C 45.333 -2.43075 3.78463 0
M  V30 430 C 46.652 -3.80415 2.21298 0
M  V30 431 H 43.771 -0.553169 0.487005 0
M  V30 432 H 46.413 -0.875562 1.68624 0
M  V30 433 H 44.563 -3.33842 1.987 0
M  V30 434 H 46.235 -1.93527 4.18742 0
M  V30 435 H 44.478 -1.75666 3.96641 0
M  V30 436 H 45.149 -3.33149 4.40132 0
M  V30 437 H 47.625 -3.34527 2.47449 0
M  V30 438 H 46.501 -4.66257 2.89647 0
M  V30 439 H 46.762 -4.25262 1.20849 0
M  V30 440 N 45.8211 -1.22559 -0.990812 0
M  V30 441 C 47.0981 -0.959875 -1.70428 0
M  V30 442 C 47.4781 0.524455 -2.04481 0
M  V30 443 O 46.8261 1.49302 -1.72977 0
M  V30 444 C 47.0361 -1.85955 -2.95333 0
M  V30 445 C 48.3841 -2.11687 -3.68068 0
M  V30 446 O 49.4081 -1.8342 -3.05345 0
M  V30 447 O 48.2671 -2.59572 -4.80921 0
M  V30 448 H 45.3611 -0.361154 -0.743974 0
M  V30 449 H 47.9071 -1.33554 -1.04697 0
M  V30 450 H 46.6791 -2.86346 -2.66687 0
M  V30 451 H 46.3021 -1.4856 -3.68803 0
M  V30 452 N 47.2992 1.18797 -1.03562 0
M  V30 453 C 48.5242 1.9314 -0.755764 0
M  V30 454 C 48.9492 1.7537 0.68022 0
M  V30 455 O 48.3072 1.06046 1.47051 0
M  V30 456 C 48.3552 3.42747 -1.12058 0
M  V30 457 O 47.4592 4.11683 -0.243124 0
M  V30 458 H 46.8002 0.602724 -0.278604 0
M  V30 459 H 49.3302 1.50678 -1.3841 0
M  V30 460 H 49.3402 3.93437 -1.08035 0
M  V30 461 H 48.0152 3.55002 -2.16672 0
M  V30 462 H 46.5922 3.71323 -0.342539 0
M  V30 463 N 48.7773 0.814389 1.34928 0
M  V30 464 C 50.0023 0.410097 2.03305 0
M  V30 465 C 50.4273 -0.973464 1.60951 0
M  V30 466 O 49.7853 -1.63185 0.789964 0
M  V30 467 C 49.8333 0.51049 3.56968 0
M  V30 468 O 48.9373 -0.473035 4.09678 0
M  V30 469 H 48.2783 0.170088 0.641846 0
M  V30 470 H 50.8083 1.10244 1.72358 0
M  V30 471 H 50.8183 0.383135 4.06197 0
M  V30 472 H 49.4933 1.51963 3.87144 0
M  V30 473 H 48.0703 -0.305272 3.71648 0
M  V30 474 N 50.2554 -1.46986 0.568584 0
M  V30 475 C 51.2024 -2.30153 -0.172707 0
M  V30 476 C 52.1724 -1.39759 -0.897586 0
M  V30 477 O 53.3574 -1.68716 -0.891044 0
M  V30 478 C 50.4974 -3.23952 -1.1895 0
M  V30 479 C 49.6104 -4.29441 -0.469517 0
M  V30 480 C 48.7454 -5.1038 -1.47259 0
M  V30 481 C 47.7844 -6.07632 -0.738225 0
M  V30 482 N 46.9214 -6.8149 -1.68868 0
M  V30 483 H 51.7614 -2.93019 0.542596 0
M  V30 484 H 49.2984 -1.44422 0.279401 0
M  V30 485 H 51.2564 -3.76767 -1.79173 0
M  V30 486 H 49.8864 -2.62926 -1.87269 0
M  V30 487 H 48.9384 -3.79594 0.247467 0
M  V30 488 H 50.2504 -4.98689 0.105241 0
M  V30 489 H 49.4044 -5.67402 -2.14803 0
M  V30 490 H 48.1434 -4.4106 -2.08128 0
M  V30 491 H 47.1484 -5.49778 -0.0489293 0
M  V30 492 H 48.3734 -6.78966 -0.135129 0
M  V30 493 H 46.3194 -6.14891 -2.28573 0
M  V30 494 H 46.2364 -7.46948 -1.16636 0
M  V30 495 H 47.5044 -7.43078 -2.3549 0
M  V30 496 N 51.7335 -0.305618 -1.54608 0
M  V30 497 C 52.9585 0.307562 -2.05107 0
M  V30 498 C 53.3835 1.46385 -1.18123 0
M  V30 499 O 52.7415 1.8034 -0.186324 0
M  V30 500 C 52.7895 0.73704 -3.52987 0
M  V30 501 O 51.8935 1.84134 -3.6901 0
M  V30 502 H 51.2345 0.0589143 -0.661381 0
M  V30 503 H 53.7645 -0.448807 -1.99617 0
M  V30 504 H 53.7745 1.02459 -3.94925 0
M  V30 505 H 52.4495 -0.108773 -4.15758 0
M  V30 506 H 51.0265 1.55398 -3.38978 0
M  V30 507 N 53.2116 1.57565 -0.0334293 0
M  V30 508 C 54.4586 1.91978 0.644272 0
M  V30 509 C 54.7866 0.910231 1.71887 0
M  V30 510 O 54.0416 -0.0801961 1.95536 0
M  V30 511 C 54.3406 3.33112 1.29504 0
M  V30 512 C 54.0066 4.49537 0.350388 0
M  V30 513 C 52.6686 4.81115 0.0903974 0
M  V30 514 C 55.0206 5.20347 -0.298032 0
M  V30 515 C 52.3486 5.8086 -0.825746 0
M  V30 516 C 54.7006 6.2107 -1.20226 0
M  V30 517 C 53.3646 6.51088 -1.4711 0
M  V30 518 H 52.6346 0.702496 0.235756 0
M  V30 519 H 55.2816 1.91259 -0.0961176 0
M  V30 520 H 53.5866 3.30113 2.11028 0
M  V30 521 H 55.2836 3.57011 1.82603 0
M  V30 522 H 51.8736 4.24883 0.563205 0
M  V30 523 H 56.0576 4.96178 -0.110234 0
M  V30 524 H 51.3136 6.02461 -1.04169 0
M  V30 525 H 55.4876 6.75057 -1.71086 0
M  V30 526 H 53.1146 7.28193 -2.18264 0
M  V30 527 N 54.6897 -0.239769 1.55765 0
M  V30 528 C 55.9357 -0.968234 1.78194 0
M  V30 529 C 56.2687 -1.84701 0.599938 0
M  V30 530 O 55.5437 -1.9031 -0.401524 0
M  V30 531 C 55.8267 -1.8227 3.10564 0
M  V30 532 C 55.6797 -0.971633 4.3918 0
M  V30 533 C 56.9987 -2.80388 3.39221 0
M  V30 534 H 54.1177 -0.350572 0.648281 0
M  V30 535 H 56.7597 -0.238259 1.885 0
M  V30 536 H 54.9097 -2.44507 3.01908 0
M  V30 537 H 56.5817 -0.367408 4.59835 0
M  V30 538 H 54.8247 -0.276276 4.32919 0
M  V30 539 H 55.4957 -1.60346 5.28198 0
M  V30 540 H 57.9717 -2.28287 3.47885 0
M  V30 541 H 56.8477 -3.3729 4.33044 0
M  V30 542 H 57.1087 -3.57212 2.60484 0
M  V30 543 N 56.1678 -1.49265 -0.50573 0
M  V30 544 C 57.1008 -1.60183 -1.62532 0
M  V30 545 C 58.0788 -0.451107 -1.56217 0
M  V30 546 O 59.2628 -0.666016 -1.76342 0
M  V30 547 C 56.3898 -1.55238 -3.01029 0
M  V30 548 C 55.4358 -2.7545 -3.25621 0
M  V30 549 S 56.2688 -4.37174 -3.09256 0
M  V30 550 C 57.4248 -4.34866 -4.50158 0
M  V30 551 H 57.6578 -2.54894 -1.53025 0
M  V30 552 H 55.1908 -1.38098 -0.690535 0
M  V30 553 H 57.1488 -1.53071 -3.80893 0
M  V30 554 H 55.8098 -0.618238 -3.07956 0
M  V30 555 H 55.0028 -2.68197 -4.26716 0
M  V30 556 H 54.6048 -2.75005 -2.53472 0
M  V30 557 H 56.8968 -4.06295 -5.42154 0
M  V30 558 H 57.8398 -5.36223 -4.62462 0
M  V30 559 H 58.2478 -3.65007 -4.30616 0
M  V30 560 N 57.6459 0.756429 -1.3826 0
M  V30 561 C 58.5559 1.9009 -1.37488 0
M  V30 562 C 59.5719 1.71855 -0.272366 0
M  V30 563 O 60.7479 1.94827 -0.510318 0
M  V30 564 C 57.8129 3.25421 -1.19592 0
M  V30 565 C 56.8739 3.56202 -2.39622 0
M  V30 566 C 56.1069 4.85075 -2.2257 0
M  V30 567 O 56.3299 5.57246 -1.21793 0
M  V30 568 O 55.2639 5.15269 -3.11098 0
M  V30 569 H 59.0899 1.93695 -2.33914 0
M  V30 570 H 56.6749 0.901313 -1.1915 0
M  V30 571 H 58.5569 4.06337 -1.11661 0
M  V30 572 H 57.2319 3.22634 -0.262486 0
M  V30 573 H 56.1389 2.75458 -2.53128 0
M  V30 574 H 57.4719 3.63747 -3.31586 0
M  V30 575 N 59.124 1.23083 0.984299 0
M  V30 576 C 60.072 1.00593 2.09723 0
M  V30 577 C 61.066 -0.0538014 1.69315 0
M  V30 578 O 62.272 0.0993719 1.79725 0
M  V30 579 H 58.647 0.30817 0.685956 0
M  V30 580 H 60.618 1.95012 2.2586 0
M  V30 581 C 59.367 0.609601 3.42314 0
M  V30 582 H 58.69 1.41675 3.73856 0
M  V30 583 H 60.13 0.491726 4.21139 0
M  V30 584 C 58.589 -0.681745 3.2993 0
M  V30 585 O 59.119 -1.73192 3.62446 0
M  V30 586 N 57.325 -0.656178 2.83095 0
M  V30 587 H 56.872 0.198759 2.56832 0
M  V30 588 H 56.83 -1.52044 2.75191 0
M  V30 589 N 60.6021 -1.18246 1.0419 0
M  V30 590 C 61.8491 -1.88257 0.746017 0
M  V30 591 C 62.1771 -1.80429 -0.726331 0
M  V30 592 O 61.4321 -1.2 -1.54591 0
M  V30 593 C 61.7311 -3.38082 1.15911 0
M  V30 594 C 61.3971 -3.66114 2.63195 0
M  V30 595 C 60.0591 -3.73474 3.03432 0
M  V30 596 C 62.4111 -3.78398 3.5842 0
M  V30 597 C 59.7391 -3.90599 4.37778 0
M  V30 598 C 62.0911 -3.97039 4.92487 0
M  V30 599 C 60.7551 -4.02635 5.32392 0
M  V30 600 H 60.0251 -0.688883 0.272987 0
M  V30 601 H 62.6721 -1.3995 1.30715 0
M  V30 602 H 60.9771 -3.88377 0.516806 0
M  V30 603 H 62.6741 -3.90596 0.907516 0
M  V30 604 H 59.2641 -3.61003 2.3103 0
M  V30 605 H 63.4481 -3.72042 3.28479 0
M  V30 606 H 58.7041 -3.93175 4.68213 0
M  V30 607 H 62.8781 -4.05486 5.66175 0
M  V30 608 H 60.5051 -4.15657 6.36501 0
M  V30 609 N 62.0802 -0.821533 -1.34494 0
M  V30 610 C 63.3052 -0.420873 -2.03085 0
M  V30 611 C 63.7302 0.964915 -1.61465 0
M  V30 612 O 63.0882 1.62763 -0.798607 0
M  V30 613 C 63.1362 -0.529414 -3.56693 0
M  V30 614 O 62.2402 0.451302 -4.09923 0
M  V30 615 H 61.5812 -0.173489 -0.640935 0
M  V30 616 H 64.1112 -1.11157 -1.71771 0
M  V30 617 H 64.1212 -0.404671 -4.05988 0
M  V30 618 H 62.7962 -1.54014 -3.86332 0
M  V30 619 H 61.3732 0.285558 -3.71805 0
M  V30 620 N 63.5583 1.46682 -0.576371 0
M  V30 621 C 64.7833 2.07304 -0.0630475 0
M  V30 622 C 65.2083 1.42329 1.2298 0
M  V30 623 O 64.5663 0.504865 1.74129 0
M  V30 624 C 64.6143 3.60472 0.095895 0
M  V30 625 O 63.7183 3.95927 1.15394 0
M  V30 626 H 63.0593 0.661288 -0.0599463 0
M  V30 627 H 65.5893 1.88417 -0.797511 0
M  V30 628 H 65.5993 4.06865 0.304071 0
M  V30 629 H 64.2743 4.07157 -0.84828 0
M  V30 630 H 62.8513 3.61252 0.924724 0
M  V30 631 N 65.0364 0.313813 1.54444 0
M  V30 632 C 66.2664 -0.293491 2.04505 0
M  V30 633 C 66.6744 -1.47086 1.19005 0
M  V30 634 O 66.0174 -1.82481 0.211257 0
M  V30 635 C 66.0794 -0.800455 3.50475 0
M  V30 636 C 65.7434 0.253322 4.56297 0
M  V30 637 C 66.7404 1.08612 5.08428 0
M  V30 638 C 64.4254 0.398708 5.00715 0
M  V30 639 C 66.4194 2.05013 6.0353 0
M  V30 640 C 64.1064 1.36614 5.95634 0
M  V30 641 C 65.1044 2.19033 6.46926 0
M  V30 642 O 64.7924 3.14134 7.39983 0
M  V30 643 H 64.5244 -0.0658325 0.672787 0
M  V30 644 H 67.0784 0.455177 2.00293 0
M  V30 645 H 65.3084 -1.59987 3.52053 0
M  V30 646 H 66.9974 -1.32504 3.83663 0
M  V30 647 H 67.7634 0.984736 4.74898 0
M  V30 648 H 63.6424 -0.23289 4.60411 0
M  V30 649 H 67.1864 2.69382 6.4349 0
M  V30 650 H 63.0834 1.4682 6.28581 0
M  V30 651 H 63.8514 3.0926 7.57826 0
M  V30 652 N 66.5145 -1.57545 0.0417849 0
M  V30 653 C 67.4645 -2.07483 -0.945247 0
M  V30 654 C 68.4485 -0.977983 -1.27767 0
M  V30 655 O 69.6405 -1.24142 -1.26166 0
M  V30 656 C 66.7695 -2.61576 -2.22335 0
M  V30 657 C 65.8555 -3.78213 -1.91874 0
M  V30 658 N 66.2465 -4.88344 -1.31733 0
M  V30 659 C 64.5445 -3.8694 -2.21796 0
M  V30 660 C 65.2455 -5.69462 -1.1869 0
M  V30 661 N 64.2215 -5.16771 -1.68666 0
M  V30 662 H 68.0235 -2.90029 -0.475441 0
M  V30 663 H 65.5375 -1.61581 -0.162911 0
M  V30 664 H 67.5345 -2.95651 -2.93932 0
M  V30 665 H 66.1945 -1.80465 -2.69931 0
M  V30 666 H 67.2055 -5.08335 -0.990729 0
M  V30 667 H 63.8825 -3.16757 -2.71977 0
M  V30 668 H 65.2725 -6.68023 -0.720793 0
M  V30 669 N 67.9926 0.231505 -1.5589 0
M  V30 670 C 69.2406 0.955461 -1.78088 0
M  V30 671 C 69.5616 1.85262 -0.608533 0
M  V30 672 O 68.8316 1.92277 0.375035 0
M  V30 673 H 67.4116 0.355787 -0.656829 0
M  V30 674 H 70.0736 0.245751 -1.93344 0
M  V30 675 H 69.1696 1.56814 -2.69844 0
M  V30 676 N 69.4707 1.49531 0.497807 0
M  V30 677 C 70.6987 1.62893 1.27567 0
M  V30 678 C 71.1137 0.301585 1.86376 0
M  V30 679 O 70.4707 -0.713335 1.67982 0
M  V30 680 C 70.5217 2.70013 2.40364 0
M  V30 681 O 70.2427 3.976 1.83972 0
M  V30 682 C 71.7437 2.94109 3.31685 0
M  V30 683 H 68.9637 0.548298 0.386794 0
M  V30 684 H 71.5077 1.95584 0.597245 0
M  V30 685 H 69.6627 2.40092 3.04031 0
M  V30 686 H 70.0767 4.56631 2.58047 0
M  V30 687 H 71.5507 3.72788 4.07104 0
M  V30 688 H 72.0277 2.04147 3.88871 0
M  V30 689 H 72.6337 3.2546 2.73781 0
M  V30 690 N 70.9488 -0.749086 1.3866 0
M  V30 691 C 71.8958 -1.86291 1.36251 0
M  V30 692 C 72.8658 -1.64578 0.224347 0
M  V30 693 O 74.0508 -1.86181 0.417279 0
M  V30 694 C 71.1908 -3.23644 1.19786 0
M  V30 695 C 70.3038 -3.57158 2.43027 0
M  V30 696 C 69.4388 -4.83838 2.19258 0
M  V30 697 C 68.4778 -5.10152 3.38247 0
M  V30 698 N 67.6148 -6.28029 3.13884 0
M  V30 699 H 72.4548 -1.87685 2.3147 0
M  V30 700 H 69.9918 -0.917287 1.14997 0
M  V30 701 H 71.9498 -4.0291 1.08254 0
M  V30 702 H 70.5798 -3.21566 0.282031 0
M  V30 703 H 69.6318 -2.72701 2.65214 0
M  V30 704 H 70.9438 -3.7253 3.31697 0
M  V30 705 H 70.0978 -5.71057 2.04888 0
M  V30 706 H 68.8368 -4.70614 1.2796 0
M  V30 707 H 67.8418 -4.21401 3.53131 0
M  V30 708 H 69.0668 -5.25271 4.30427 0
M  V30 709 H 67.0128 -6.1612 2.25238 0
M  V30 710 H 66.9298 -6.43922 3.96106 0
M  V30 711 H 68.1978 -7.18124 3.03179 0
M  V30 712 N 72.4269 -1.23603 -0.977757 0
M  V30 713 C 73.8379 -1.06424 -1.53398 0
M  V30 714 C 74.1889 0.367578 -1.92726 0
M  V30 715 O 73.3139 1.25465 -1.76316 0
M  V30 716 C 73.9089 -1.92568 -2.78753 0
M  V30 717 C 72.4679 -1.79642 -3.30765 0
M  V30 718 C 71.6149 -1.88111 -2.03739 0
M  V30 719 H 74.5659 -1.37227 -0.797152 0
M  V30 720 H 74.5869 -1.45203 -3.51705 0
M  V30 721 H 74.0989 -2.96771 -2.50098 0
M  V30 722 H 72.1999 -0.782325 -3.64294 0
M  V30 723 H 72.3129 -2.63174 -4.00345 0
M  V30 724 H 70.6769 -1.31723 -2.17994 0
M  V30 725 H 71.4599 -2.93875 -1.77461 0
M  V30 726 N 73.905 1.17692 -1.04816 0
M  V30 727 C 75.153 1.87488 -0.754497 0
M  V30 728 C 75.474 1.81205 0.720407 0
M  V30 729 O 74.744 1.23544 1.52032 0
M  V30 730 H 73.324 0.694101 -0.276102 0
M  V30 731 H 75.986 1.42793 -1.32651 0
M  V30 732 H 75.082 2.93328 -1.06606 0
M  V30 733 N 75.3831 0.828654 1.34056 0
M  V30 734 C 76.6131 0.431993 2.02033 0
M  V30 735 C 77.0211 -0.96844 1.62536 0
M  V30 736 O 76.3641 -1.6391 0.829408 0
M  V30 737 C 76.4261 0.461224 3.56529 0
M  V30 738 C 76.0901 1.81599 4.1937 0
M  V30 739 C 77.0871 2.7777 4.39477 0
M  V30 740 C 74.7721 2.10604 4.56017 0
M  V30 741 C 76.7661 4.01115 4.95364 0
M  V30 742 C 74.4531 3.34207 5.11614 0
M  V30 743 C 75.4511 4.2928 5.31232 0
M  V30 744 O 75.1391 5.50699 5.8565 0
M  V30 745 H 74.8711 0.170943 0.654029 0
M  V30 746 H 77.4251 1.11988 1.72185 0
M  V30 747 H 75.6551 -0.283388 3.8566 0
M  V30 748 H 77.3441 0.0838149 4.05813 0
M  V30 749 H 78.1101 2.56659 4.11523 0
M  V30 750 H 73.9891 1.37402 4.40047 0
M  V30 751 H 77.5331 4.75333 5.10592 0
M  V30 752 H 73.4301 3.55179 5.38997 0
M  V30 753 H 74.1981 5.52298 6.04077 0
M  V30 754 N 76.8612 -1.46375 0.584142 0
M  V30 755 C 78.1072 -2.02678 0.0703716 0
M  V30 756 C 78.4402 -1.4545 -1.28678 0
M  V30 757 O 77.7152 -0.62014 -1.84349 0
M  V30 758 C 77.9982 -3.60099 0.00614674 0
M  V30 759 C 77.8512 -4.27709 1.3923 0
M  V30 760 C 79.1702 -4.34598 -0.693742 0
M  V30 761 H 76.2892 -0.736504 0.027047 0
M  V30 762 H 78.9312 -1.74501 0.751615 0
M  V30 763 H 77.0812 -3.84236 -0.574009 0
M  V30 764 H 78.7532 -4.14832 2.01773 0
M  V30 765 H 76.9962 -3.87016 1.95962 0
M  V30 766 H 77.6672 -5.36478 1.29982 0
M  V30 767 H 80.1432 -4.15615 -0.200869 0
M  V30 768 H 79.0192 -5.44318 -0.707714 0
M  V30 769 H 79.2802 -4.05759 -1.75533 0
M  V30 770 N 78.3393 -0.321999 -1.54275 0
M  V30 771 C 79.6163 0.335232 -1.92706 0
M  V30 772 C 79.9963 1.70006 -1.25145 0
M  V30 773 O 79.3443 2.25067 -0.394596 0
M  V30 774 C 79.5543 0.429008 -3.46353 0
M  V30 775 C 80.9023 0.690029 -4.18956 0
M  V30 776 O 81.9263 0.511992 -3.52501 0
M  V30 777 O 80.7853 1.03338 -5.36641 0
M  V30 778 H 77.8793 0.191143 -0.804608 0
M  V30 779 H 80.4253 -0.3716 -1.65581 0
M  V30 780 H 79.1973 -0.529611 -3.87699 0
M  V30 781 H 78.8203 1.18348 -3.79578 0
M  V30 782 N 79.8174 1.5752 -0.0501392 0
M  V30 783 C 81.0424 1.97376 0.636997 0
M  V30 784 C 81.4674 0.927466 1.63645 0
M  V30 785 O 80.8254 -0.10941 1.8097 0
M  V30 786 C 80.8734 3.36304 1.30123 0
M  V30 787 O 79.9774 3.34156 2.41689 0
M  V30 788 H 79.3184 0.642998 0.165679 0
M  V30 789 H 81.8484 2.04258 -0.118233 0
M  V30 790 H 81.8584 3.73008 1.65315 0
M  V30 791 H 80.5334 4.11993 0.568746 0
M  V30 792 H 79.1104 3.09196 2.08451 0
M  V30 793 N 81.2955 -0.223234 1.56011 0
M  V30 794 C 82.5445 -0.945912 1.78144 0
M  V30 795 C 82.8575 -1.85567 0.618396 0
M  V30 796 O 84.0635 -2.61688 0.723318 0
M  V30 797 C 82.5195 -1.73216 3.15475 0
M  V30 798 C 82.1275 -0.868619 4.39499 0
M  V30 799 C 83.8715 -2.44615 3.46935 0
M  V30 800 C 81.7785 -1.65212 5.67855 0
M  V30 801 H 80.7085 -0.356929 0.664167 0
M  V30 802 H 83.3595 -0.199845 1.82409 0
M  V30 803 H 81.7415 -2.52107 3.05382 0
M  V30 804 H 82.9155 -0.120366 4.60643 0
M  V30 805 H 81.2305 -0.26683 4.15544 0
M  V30 806 H 83.8275 -3.03732 4.40058 0
M  V30 807 H 84.1705 -3.17417 2.69355 0
M  V30 808 H 84.7035 -1.72715 3.58349 0
M  V30 809 H 81.4425 -0.967407 6.48322 0
M  V30 810 H 80.9625 -2.37503 5.50774 0
M  V30 811 H 82.6415 -2.21322 6.07968 0
M  V30 812 N 82.7736 -1.49793 -0.48987 0
M  V30 813 C 83.7056 -1.63413 -1.60713 0
M  V30 814 C 84.7186 -0.516329 -1.54395 0
M  V30 815 O 85.9076 -0.788812 -1.60125 0
M  V30 816 C 83.0076 -1.58516 -2.99543 0
M  V30 817 C 82.1806 -2.86016 -3.30928 0
M  V30 818 C 81.2396 -2.74018 -4.49222 0
M  V30 819 O 80.2656 -3.47964 -4.50455 0
M  V30 820 N 81.4676 -1.86309 -5.4979 0
M  V30 821 H 84.2326 -2.59777 -1.49452 0
M  V30 822 H 81.7936 -1.47022 -0.677955 0
M  V30 823 H 83.7856 -1.48128 -3.76617 0
M  V30 824 H 82.3556 -0.69965 -3.0467 0
M  V30 825 H 81.5756 -3.10672 -2.42645 0
M  V30 826 H 82.8636 -3.70521 -3.487 0
M  V30 827 H 82.2616 -1.2551 -5.51601 0
M  V30 828 H 80.8186 -1.81837 -6.25922 0
M  V30 829 N 84.2517 0.741722 -1.39055 0
M  V30 830 C 85.1987 1.85566 -1.37237 0
M  V30 831 C 86.1687 1.64457 -0.233072 0
M  V30 832 O 87.3537 1.85957 -0.427147 0
M  V30 833 C 84.4937 3.23004 -1.215 0
M  V30 834 C 83.6067 3.55864 -2.44918 0
M  V30 835 C 82.7417 4.82669 -2.21821 0
M  V30 836 C 81.7807 5.08351 -3.40948 0
M  V30 837 N 80.9177 6.26356 -3.17211 0
M  V30 838 H 85.7577 1.86455 -2.32462 0
M  V30 839 H 83.2947 0.911176 -1.15482 0
M  V30 840 H 85.2527 4.02331 -1.10389 0
M  V30 841 H 83.8827 3.21411 -0.29908 0
M  V30 842 H 82.9347 2.7129 -2.66657 0
M  V30 843 H 84.2467 3.70765 -3.33668 0
M  V30 844 H 83.4007 5.69962 -2.07914 0
M  V30 845 H 82.1397 4.69929 -1.30454 0
M  V30 846 H 81.1447 4.19522 -3.55361 0
M  V30 847 H 82.3697 5.22981 -4.33207 0
M  V30 848 H 80.3157 6.14917 -2.28502 0
M  V30 849 H 80.2327 6.41813 -3.99515 0
M  V30 850 H 81.5007 7.16506 -3.06984 0
M  V30 851 N 85.7298 1.2412 0.971189 0
M  V30 852 C 86.9778 1.07668 1.71032 0
M  V30 853 C 87.2988 -0.385797 1.91146 0
M  V30 854 O 86.5688 -1.27569 1.4867 0
M  V30 855 H 85.1488 0.395429 0.633755 0
M  V30 856 H 87.8108 1.55984 1.16855 0
M  V30 857 H 86.9068 1.57195 2.69622 0
M  V30 858 N 87.2079 -1.17134 1.05439 0
M  V30 859 C 88.4569 -1.86791 0.761049 0
M  V30 860 C 88.7699 -1.82072 -0.714795 0
M  V30 861 O 89.9759 -2.47223 -1.12218 0
M  V30 862 C 88.4319 -3.35166 1.31117 0
M  V30 863 C 88.0399 -3.48381 2.81664 0
M  V30 864 C 89.7839 -4.10134 1.09499 0
M  V30 865 C 87.6909 -4.90793 3.29964 0
M  V30 866 H 86.6209 -0.699681 0.281002 0
M  V30 867 H 89.2719 -1.3226 1.27199 0
M  V30 868 H 87.6539 -3.8925 0.72803 0
M  V30 869 H 88.8279 -3.04502 3.45855 0
M  V30 870 H 87.1429 -2.86836 3.01851 0
M  V30 871 H 89.7399 -5.152 1.43084 0
M  V30 872 H 90.0829 -4.16287 0.0328772 0
M  V30 873 H 90.6159 -3.62264 1.64346 0
M  V30 874 H 87.3549 -4.89816 4.35616 0
M  V30 875 H 86.8749 -5.35333 2.70516 0
M  V30 876 H 88.5539 -5.59573 3.24787 0
M  V30 877 N 88.686 -0.835752 -1.33615 0
M  V30 878 C 89.618 -0.224151 -2.28101 0
M  V30 879 C 90.631 0.593331 -1.51603 0
M  V30 880 O 91.82 0.420911 -1.73466 0
M  V30 881 C 88.92 0.703309 -3.31522 0
M  V30 882 C 88.093 -0.0741528 -4.37337 0
M  V30 883 C 87.152 0.776176 -5.20444 0
M  V30 884 O 86.178 0.216506 -5.68788 0
M  V30 885 N 87.38 2.09401 -5.41416 0
M  V30 886 H 90.145 -1.03598 -2.81225 0
M  V30 887 H 87.706 -0.69392 -1.46275 0
M  V30 888 H 89.698 1.27707 -3.84022 0
M  V30 889 H 88.268 1.41585 -2.78698 0
M  V30 890 H 87.488 -0.82928 -3.85378 0
M  V30 891 H 88.776 -0.608863 -5.05144 0
M  V30 892 H 88.174 2.57229 -5.03835 0
M  V30 893 H 86.731 2.61633 -5.96985 0
M  V30 894 N 90.1641 1.46063 -0.591896 0
M  V30 895 C 91.1111 2.30399 0.136069 0
M  V30 896 C 92.0811 1.41169 0.875238 0
M  V30 897 O 93.2661 1.70112 0.86409 0
M  V30 898 C 90.4061 3.25804 1.13781 0
M  V30 899 C 89.5191 4.30134 0.401137 0
M  V30 900 C 88.6541 5.12659 1.39121 0
M  V30 901 C 87.6931 6.0873 0.641462 0
M  V30 902 N 86.8301 6.8409 1.58004 0
M  V30 903 H 91.6701 2.92118 -0.589144 0
M  V30 904 H 89.2071 1.43959 -0.302342 0
M  V30 905 H 91.1651 3.79569 1.73156 0
M  V30 906 H 89.7951 2.65872 1.83062 0
M  V30 907 H 88.8471 3.79152 -0.307826 0
M  V30 908 H 90.1591 4.98458 -0.184565 0
M  V30 909 H 89.3131 5.70747 2.05749 0
M  V30 910 H 88.0521 4.44316 2.01084 0
M  V30 911 H 87.0571 5.49786 -0.0385419 0
M  V30 912 H 88.2821 6.79095 0.0270945 0
M  V30 913 H 86.2281 6.18449 2.18761 0
M  V30 914 H 86.1451 7.48709 1.04738 0
M  V30 915 H 87.4131 7.4673 2.23639 0
M  V30 916 N 91.6422 0.330177 1.54103 0
M  V30 917 C 93.0532 -0.15652 1.86043 0
M  V30 918 C 93.4042 -1.51086 1.2517 0
M  V30 919 O 92.5292 -2.09023 0.560217 0
M  V30 920 C 93.1242 -0.290784 3.3755 0
M  V30 921 C 91.6832 -0.721705 3.69416 0
M  V30 922 C 90.8302 0.152622 2.7688 0
M  V30 923 H 93.7812 0.550237 1.48856 0
M  V30 924 H 93.8022 -1.12058 3.63625 0
M  V30 925 H 93.3142 0.695068 3.81825 0
M  V30 926 H 91.4152 -1.71706 3.30678 0
M  V30 927 H 91.5282 -0.520869 4.7626 0
M  V30 928 H 89.8922 -0.372894 2.51956 0
M  V30 929 H 90.6752 1.13536 3.23982 0
M  V30 930 N 93.1203 -1.57491 0.0584922 0
M  V30 931 C 94.0673 -2.11958 -0.913376 0
M  V30 932 C 95.0373 -1.02875 -1.30407 0
M  V30 933 O 96.2223 -1.30464 -1.39226 0
M  V30 934 C 93.3623 -2.67497 -2.18035 0
M  V30 935 C 92.4753 -3.90691 -1.84349 0
M  V30 936 C 91.6103 -4.3452 -3.05559 0
M  V30 937 C 90.6493 -5.50395 -2.67827 0
M  V30 938 N 89.7863 -5.89244 -3.81754 0
M  V30 939 H 94.6263 -2.94704 -0.442017 0
M  V30 940 H 92.1633 -1.45643 -0.206545 0
M  V30 941 H 94.1213 -2.978 -2.92183 0
M  V30 942 H 92.7513 -1.87537 -2.62735 0
M  V30 943 H 91.8033 -3.66934 -1.00319 0
M  V30 944 H 93.1153 -4.7489 -1.5258 0
M  V30 945 H 92.2693 -4.66414 -3.87998 0
M  V30 946 H 91.0083 -3.49147 -3.40511 0
M  V30 947 H 90.0133 -5.18165 -1.83806 0
M  V30 948 H 91.2383 -6.3749 -2.34059 0
M  V30 949 H 89.1843 -5.06823 -4.16493 0
M  V30 950 H 89.1013 -6.68151 -3.53708 0
M  V30 951 H 90.3693 -6.25756 -4.64811 0
M  V30 952 N 94.5984 0.214957 -1.56127 0
M  V30 953 C 95.8234 0.95924 -1.83884 0
M  V30 954 C 96.2484 1.7689 -0.639644 0
M  V30 955 O 95.6064 1.76566 0.411601 0
M  V30 956 C 95.6544 1.84723 -3.09693 0
M  V30 957 O 94.7584 2.94346 -2.8885 0
M  V30 958 H 94.0994 0.27125 -0.606069 0
M  V30 959 H 96.6294 0.226276 -2.03345 0
M  V30 960 H 96.6394 2.25576 -3.39969 0
M  V30 961 H 95.3144 1.25218 -3.96602 0
M  V30 962 H 93.8914 2.57391 -2.69823 0
M  V30 963 N 96.0765 1.50051 0.48192 0
M  V30 964 C 97.3245 1.60181 1.23234 0
M  V30 965 C 97.6455 0.299176 1.92691 0
M  V30 966 O 96.9155 -0.682708 1.83619 0
M  V30 967 H 95.4955 0.590232 0.457859 0
M  V30 968 H 98.1575 1.86775 0.556881 0
M  V30 969 H 97.2535 2.40753 1.98607 0
M  V30 970 N 97.5546 -0.734337 1.39446 0
M  V30 971 C 98.7826 -1.52358 1.39981 0
M  V30 972 C 99.1976 -1.88799 -0.0054975 0
M  V30 973 O 98.5546 -1.54146 -0.976998 0
M  V30 974 C 98.6056 -2.81072 2.27333 0
M  V30 975 O 98.3266 -2.46178 3.62392 0
M  V30 976 C 99.8276 -3.75096 2.36259 0
M  V30 977 H 97.0476 -0.470806 0.478103 0
M  V30 978 H 99.5916 -0.907339 1.83269 0
M  V30 979 H 97.7466 -3.39026 1.87457 0
M  V30 980 H 98.1606 -3.28866 4.08592 0
M  V30 981 H 99.6346 -4.62305 3.01626 0
M  V30 982 H 100.112 -4.16892 1.38194 0
M  V30 983 H 100.718 -3.23061 2.76608 0
M  V30 984 N 99.0327 -1.24633 -0.964593 0
M  V30 985 C 99.9647 -0.999302 -2.06268 0
M  V30 986 C 100.978 0.0323226 -1.62768 0
M  V30 987 O 102.167 -0.205079 -1.77318 0
M  V30 988 C 99.2667 -0.486816 -3.35385 0
M  V30 989 C 98.4397 -1.5823 -4.07777 0
M  V30 990 C 97.4987 -1.07191 -5.15166 0
M  V30 991 O 96.5247 -1.76426 -5.41168 0
M  V30 992 N 97.7267 0.0920373 -5.80427 0
M  V30 993 H 100.492 -1.94477 -2.28033 0
M  V30 994 H 98.0527 -1.15704 -1.13244 0
M  V30 995 H 100.045 -0.130066 -4.04491 0
M  V30 996 H 98.6147 0.364459 -3.10468 0
M  V30 997 H 97.8347 -2.11109 -3.32906 0
M  V30 998 H 99.1227 -2.31854 -4.52903 0
M  V30 999 H 98.5207 0.670784 -5.61709 0
M  V30 1000 H 97.0777 0.389905 -6.50633 0
M  V30 1001 N 100.511 1.16574 -1.06058 0
M  V30 1002 C 101.759 1.86677 -0.77434 0
M  V30 1003 C 102.08 1.81959 0.701147 0
M  V30 1004 O 101.35 1.2515 1.50713 0
M  V30 1005 H 99.9298 0.691134 -0.283449 0
M  V30 1006 H 102.592 1.41378 -1.34158 0
M  V30 1007 H 101.688 2.92181 -1.09711 0
M  V30 1008 N 101.989 0.842826 1.3317 0
M  V30 1009 C 102.937 0.267495 2.31057 0
M  V30 1010 C 103.931 -0.602682 1.58316 0
M  V30 1011 O 105.137 -0.491803 1.73151 0
M  V30 1012 H 101.512 0.0677813 0.748939 0
M  V30 1013 H 103.483 1.10754 2.77085 0
M  V30 1014 C 102.232 -0.539331 3.43492 0
M  V30 1015 H 101.555 0.12095 3.99617 0
M  V30 1016 H 102.995 -0.90767 4.14171 0
M  V30 1017 C 101.454 -1.71981 2.89697 0
M  V30 1018 O 101.984 -2.81862 2.86211 0
M  V30 1019 N 100.19 -1.54299 2.46252 0
M  V30 1020 H 99.7369 -0.649143 2.49287 0
M  V30 1021 H 99.6949 -2.33431 2.10612 0
M  V30 1022 N 103.467 -1.45747 0.599634 0
M  V30 1023 C 104.697 -2.06369 0.0977132 0
M  V30 1024 C 105.105 -1.44624 -1.21985 0
M  V30 1025 O 104.448 -0.551831 -1.75216 0
M  V30 1026 C 104.51 -3.59284 -0.124673 0
M  V30 1027 C 104.174 -4.43318 1.10987 0
M  V30 1028 C 105.171 -4.78796 2.02609 0
M  V30 1029 C 102.856 -4.84194 1.33647 0
M  V30 1030 C 104.85 -5.53997 3.15224 0
M  V30 1031 C 102.537 -5.5915 2.46565 0
M  V30 1032 C 103.535 -5.93968 3.37182 0
M  V30 1033 O 103.223 -6.67405 4.48136 0
M  V30 1034 H 102.955 -0.673122 0.0623153 0
M  V30 1035 H 105.509 -1.88104 0.824981 0
M  V30 1036 H 103.739 -3.75919 -0.906745 0
M  V30 1037 H 105.428 -4.01775 -0.577201 0
M  V30 1038 H 106.194 -4.47781 1.86325 0
M  V30 1039 H 102.073 -4.56534 0.64016 0
M  V30 1040 H 105.617 -5.81091 3.85978 0
M  V30 1041 H 101.514 -5.89579 2.62805 0
M  V30 1042 H 102.282 -6.85847 4.46717 0
M  V30 1043 N 104.945 -0.338344 -1.53925 0
M  V30 1044 C 106.222 0.314774 -1.93051 0
M  V30 1045 C 106.602 1.68669 -1.26941 0
M  V30 1046 O 105.95 2.24636 -0.418445 0
M  V30 1047 C 106.16 0.392249 -3.46789 0
M  V30 1048 C 107.508 0.645554 -4.19664 0
M  V30 1049 O 108.532 0.474575 -3.53024 0
M  V30 1050 O 107.391 0.976408 -5.37707 0
M  V30 1051 H 104.485 0.182598 -0.80659 0
M  V30 1052 H 107.031 -0.389141 -1.65178 0
M  V30 1053 H 105.803 -0.570702 -3.87116 0
M  V30 1054 H 105.426 1.14316 -3.80812 0
M  V30 1055 N 106.423 1.57458 -0.0668435 0
M  V30 1056 C 107.7 1.8469 0.644132 0
M  V30 1057 C 108.08 0.958343 1.88093 0
M  V30 1058 O 107.428 0.0233579 2.28488 0
M  V30 1059 C 107.638 3.34767 0.986509 0
M  V30 1060 C 108.986 4.02159 1.36212 0
M  V30 1061 O 110.01 3.39484 1.07839 0
M  V30 1062 O 108.869 5.12694 1.89227 0
M  V30 1063 H 105.963 0.762816 0.319437 0
M  V30 1064 H 108.509 1.6942 -0.0973986 0
M  V30 1065 H 107.281 3.91151 0.107883 0
M  V30 1066 H 106.904 3.55281 1.78497 0
M  V30 1067 N 107.901 -0.206675 1.56239 0
M  V30 1068 C 109.178 -0.954051 1.70755 0
M  V30 1069 C 109.558 -2.01841 0.618353 0
M  V30 1070 O 108.906 -2.25444 -0.372434 0
M  V30 1071 C 109.116 -1.551 3.12642 0
M  V30 1072 C 110.464 -2.03757 3.72516 0
M  V30 1073 O 111.488 -1.64965 3.15698 0
M  V30 1074 O 110.347 -2.75103 4.72208 0
M  V30 1075 H 107.441 -0.446636 0.696021 0
M  V30 1076 H 109.987 -0.197283 1.68549 0
M  V30 1077 H 108.759 -0.783212 3.83382 0
M  V30 1078 H 108.382 -2.37291 3.19028 0
M  V30 1079 N 109.379 -1.50304 -0.473955 0
M  V30 1080 C 110.625 -1.62358 -1.22521 0
M  V30 1081 C 110.98 -0.318555 -1.89745 0
M  V30 1082 O 110.273 0.683315 -1.79001 0
M  V30 1083 C 110.467 -2.73938 -2.29549 0
M  V30 1084 C 110.296 -4.15165 -1.72825 0
M  V30 1085 C 109.066 -4.81604 -1.52924 0
M  V30 1086 C 111.264 -4.99503 -1.22481 0
M  V30 1087 N 109.246 -6.07056 -0.91413 0
M  V30 1088 C 110.617 -6.15655 -0.732743 0
M  V30 1089 C 112.672 -4.85299 -1.11308 0
M  V30 1090 C 111.375 -7.19164 -0.139976 0
M  V30 1091 C 113.401 -5.88982 -0.534258 0
M  V30 1092 C 112.763 -7.0438 -0.0525562 0
M  V30 1093 H 108.862 -0.648286 -0.437321 0
M  V30 1094 H 111.446 -1.87413 -0.527692 0
M  V30 1095 H 109.617 -2.50611 -2.9673 0
M  V30 1096 H 111.349 -2.75366 -2.96573 0
M  V30 1097 H 108.104 -4.3885 -1.78067 0
M  V30 1098 H 108.528 -6.74108 -0.625071 0
M  V30 1099 H 113.17 -3.96369 -1.47144 0
M  V30 1100 H 110.888 -8.07771 0.230591 0
M  V30 1101 H 114.474 -5.80055 -0.450219 0
M  V30 1102 H 113.354 -7.83238 0.388324 0
M  V30 1103 N 110.857 0.726932 -1.39834 0
M  V30 1104 C 111.804 1.841 -1.39197 0
M  V30 1105 C 112.774 1.642 -0.250502 0
M  V30 1106 O 113.959 1.85494 -0.446846 0
M  V30 1107 C 111.099 3.21697 -1.24919 0
M  V30 1108 C 110.212 3.53247 -2.48678 0
M  V30 1109 C 109.347 4.80289 -2.26928 0
M  V30 1110 C 108.386 5.04707 -3.4632 0
M  V30 1111 N 107.523 6.22956 -3.23836 0
M  V30 1112 H 112.363 1.83979 -2.34427 0
M  V30 1113 H 109.9 0.898876 -1.16442 0
M  V30 1114 H 111.858 4.01137 -1.1465 0
M  V30 1115 H 110.488 3.21076 -0.333153 0
M  V30 1116 H 109.54 2.68447 -2.69519 0
M  V30 1117 H 110.852 3.67205 -3.37582 0
M  V30 1118 H 110.006 5.67725 -2.13947 0
M  V30 1119 H 108.745 4.68519 -1.35431 0
M  V30 1120 H 107.75 4.1573 -3.5979 0
M  V30 1121 H 108.975 5.18357 -4.38729 0
M  V30 1122 H 106.921 6.12459 -2.35011 0
M  V30 1123 H 106.838 6.37539 -4.063 0
M  V30 1124 H 108.106 7.1321 -3.14566 0
M  V30 1125 N 112.336 1.25143 0.95797 0
M  V30 1126 C 113.584 1.09476 1.69881 0
M  V30 1127 C 113.905 -0.365502 1.91544 0
M  V30 1128 O 113.175 -1.25985 1.50015 0
M  V30 1129 H 111.755 0.402128 0.629525 0
M  V30 1130 H 114.417 1.57214 1.15194 0
M  V30 1131 H 113.513 1.60046 2.6794 0
M  V30 1132 N 113.814 -1.1601 1.06675 0
M  V30 1133 C 115.061 -1.86633 0.785781 0
M  V30 1134 C 115.389 -1.81929 -0.687896 0
M  V30 1135 O 114.644 -1.23253 -1.52011 0
M  V30 1136 C 114.943 -3.35547 1.23057 0
M  V30 1137 C 114.609 -3.60448 2.70902 0
M  V30 1138 C 113.271 -3.66954 3.11285 0
M  V30 1139 C 115.623 -3.7071 3.66365 0
M  V30 1140 C 112.951 -3.81225 4.45965 0
M  V30 1141 C 115.303 -3.86503 5.00797 0
M  V30 1142 C 113.967 -3.91252 5.40813 0
M  V30 1143 H 113.237 -0.682937 0.287538 0
M  V30 1144 H 115.884 -1.37146 1.33654 0
M  V30 1145 H 114.189 -3.87193 0.59907 0
M  V30 1146 H 115.886 -3.88583 0.990163 0
M  V30 1147 H 112.476 -3.56021 2.38636 0
M  V30 1148 H 116.66 -3.64991 3.36296 0
M  V30 1149 H 111.916 -3.83155 4.76447 0
M  V30 1150 H 116.09 -3.93385 5.74649 0
M  V30 1151 H 113.717 -4.02062 6.45174 0
M  V30 1152 N 115.292 -0.849877 -1.32721 0
M  V30 1153 C 116.522 -0.46408 -2.0132 0
M  V30 1154 C 116.93 0.94246 -1.64056 0
M  V30 1155 O 116.273 1.6257 -0.855379 0
M  V30 1156 C 116.335 -0.517887 -3.5575 0
M  V30 1157 C 115.999 -1.88248 -4.16427 0
M  V30 1158 C 116.996 -2.84726 -4.35002 0
M  V30 1159 C 114.681 -2.17832 -4.52609 0
M  V30 1160 C 116.675 -4.08945 -4.8892 0
M  V30 1161 C 114.362 -3.42304 -5.06232 0
M  V30 1162 C 115.36 -4.37677 -5.24335 0
M  V30 1163 O 115.048 -5.59946 -5.76815 0
M  V30 1164 H 114.78 -0.181327 -0.651227 0
M  V30 1165 H 117.334 -1.14713 -1.70382 0
M  V30 1166 H 115.564 0.221997 -3.86062 0
M  V30 1167 H 117.253 -0.148366 -4.05629 0
M  V30 1168 H 118.019 -2.63174 -4.07388 0
M  V30 1169 H 113.898 -1.44385 -4.37806 0
M  V30 1170 H 117.442 -4.83396 -5.02966 0
M  V30 1171 H 113.339 -3.63709 -5.33278 0
M  V30 1172 H 114.107 -5.61838 -5.95214 0
M  V30 1173 N 116.77 1.45427 -0.607355 0
M  V30 1174 C 117.995 2.07124 -0.107006 0
M  V30 1175 C 118.42 1.44906 1.19933 0
M  V30 1176 O 117.778 0.541687 1.73019 0
M  V30 1177 C 117.826 3.60595 0.0194119 0
M  V30 1178 O 116.93 3.98285 1.0697 0
M  V30 1179 H 116.271 0.659868 -0.0739597 0
M  V30 1180 H 118.801 1.86683 -0.837297 0
M  V30 1181 H 118.811 4.07419 0.2177 0
M  V30 1182 H 117.486 4.05266 -0.934453 0
M  V30 1183 H 116.063 3.63133 0.847889 0
M  V30 1184 N 118.248 0.346503 1.53744 0
M  V30 1185 C 119.476 -0.25041 2.05379 0
M  V30 1186 C 119.891 -1.43979 1.22129 0
M  V30 1187 O 119.248 -1.80677 0.257321 0
M  V30 1188 C 119.299 -0.662575 3.55376 0
M  V30 1189 O 119.02 0.479515 4.35468 0
M  V30 1190 C 120.521 -1.31989 4.23195 0
M  V30 1191 H 117.741 -0.0478198 0.669294 0
M  V30 1192 H 120.285 0.499346 1.9831 0
M  V30 1193 H 118.44 -1.36227 3.62658 0
M  V30 1194 H 118.854 0.15037 5.24284 0
M  V30 1195 H 120.328 -1.55902 5.29527 0
M  V30 1196 H 120.805 -2.27436 3.75725 0
M  V30 1197 H 121.411 -0.662154 4.20114 0
M  V30 1198 N 119.726 -1.57421 0.075193 0
M  V30 1199 C 121.003 -1.85029 -0.634329 0
M  V30 1200 C 121.383 -0.968305 -1.87582 0
M  V30 1201 O 120.731 -0.0354749 -2.28472 0
M  V30 1202 C 120.941 -3.35286 -0.968742 0
M  V30 1203 C 122.289 -4.02875 -1.34077 0
M  V30 1204 O 123.313 -3.40051 -1.06037 0
M  V30 1205 O 122.172 -5.13691 -1.86506 0
M  V30 1206 H 119.266 -0.7645 -0.315387 0
M  V30 1207 H 121.812 -1.69366 0.106382 0
M  V30 1208 H 120.584 -3.91203 -0.0871376 0
M  V30 1209 H 120.207 -3.56223 -1.7661 0
M  V30 1210 N 121.204 0.198386 -1.56346 0
M  V30 1211 C 122.152 1.26538 -1.95169 0
M  V30 1212 C 123.146 1.47295 -0.836685 0
M  V30 1213 O 124.352 1.48195 -1.02167 0
M  V30 1214 H 120.727 0.424744 -0.620561 0
M  V30 1215 H 122.698 0.910904 -2.84157 0
M  V30 1216 C 121.447 2.6035 -2.30463 0
M  V30 1217 H 120.77 2.45192 -3.15786 0
M  V30 1218 H 122.21 3.33762 -2.61494 0
M  V30 1219 C 120.669 3.17096 -1.13806 0
M  V30 1220 O 121.199 3.99588 -0.41135 0
M  V30 1221 N 119.405 2.75795 -0.915736 0
M  V30 1222 H 118.952 2.08816 -1.50843 0
M  V30 1223 H 118.91 3.14101 -0.136979 0
M  V30 1224 N 122.682 1.50554 0.465978 0
M  V30 1225 C 123.629 1.6979 1.56333 0
M  V30 1226 C 124.599 0.539239 1.57103 0
M  V30 1227 O 125.784 0.770401 1.74555 0
M  V30 1228 C 122.924 1.80273 2.94271 0
M  V30 1229 C 122.037 3.07674 3.0325 0
M  V30 1230 C 121.172 3.08922 4.32135 0
M  V30 1231 C 120.211 4.30755 4.34875 0
M  V30 1232 N 119.348 4.29714 5.55239 0
M  V30 1233 H 124.188 2.63472 1.39235 0
M  V30 1234 H 121.725 1.30602 0.676873 0
M  V30 1235 H 123.683 1.84332 3.74269 0
M  V30 1236 H 122.313 0.900258 3.09992 0
M  V30 1237 H 121.365 3.13062 2.16094 0
M  V30 1238 H 122.677 3.97642 3.01135 0
M  V30 1239 H 121.831 3.11738 5.20485 0
M  V30 1240 H 120.57 2.16792 4.36866 0
M  V30 1241 H 119.575 4.28146 3.44922 0
M  V30 1242 H 120.8 5.24117 4.31831 0
M  V30 1243 H 118.746 3.4044 5.60746 0
M  V30 1244 H 118.663 5.13456 5.54886 0
M  V30 1245 H 119.931 4.36683 6.457 0
M  V30 1246 N 124.16 -0.719506 1.40217 0
M  V30 1247 C 125.39 -1.50646 1.41384 0
M  V30 1248 C 125.798 -1.89197 0.0107743 0
M  V30 1249 O 125.141 -1.55709 -0.974708 0
M  V30 1250 C 125.203 -2.81405 2.23722 0
M  V30 1251 C 124.867 -2.65199 3.72181 0
M  V30 1252 C 125.864 -2.32717 4.64907 0
M  V30 1253 C 123.549 -2.81586 4.1595 0
M  V30 1254 C 125.543 -2.16827 5.99387 0
M  V30 1255 C 123.23 -2.65313 5.50502 0
M  V30 1256 C 124.228 -2.32981 6.42035 0
M  V30 1257 O 123.916 -2.16827 7.74107 0
M  V30 1258 H 123.648 -0.471606 0.484318 0
M  V30 1259 H 126.202 -0.895456 1.84853 0
M  V30 1260 H 124.432 -3.44823 1.75026 0
M  V30 1261 H 126.121 -3.43102 2.16878 0
M  V30 1262 H 126.887 -2.19694 4.32388 0
M  V30 1263 H 122.766 -3.0574 3.45027 0
M  V30 1264 H 126.31 -1.91513 6.70797 0
M  V30 1265 H 122.207 -2.7792 5.82607 0
M  V30 1266 H 122.975 -2.31778 7.84998 0
M  V30 1267 N 125.638 -1.25649 -0.95132 0
M  V30 1268 C 126.915 -1.01361 -1.67288 0
M  V30 1269 C 127.295 0.459135 -2.06046 0
M  V30 1270 O 126.643 1.43723 -1.7764 0
M  V30 1271 C 126.853 -1.95256 -2.89268 0
M  V30 1272 C 128.201 -2.23289 -3.61147 0
M  V30 1273 O 129.225 -1.93041 -2.99355 0
M  V30 1274 O 128.084 -2.74741 -4.72419 0
M  V30 1275 H 125.178 -0.38464 -0.732107 0
M  V30 1276 H 127.724 -1.36817 -1.00395 0
M  V30 1277 H 126.496 -2.94685 -2.57442 0
M  V30 1278 H 126.119 -1.60218 -3.6389 0
M  V30 1279 N 127.117 1.15442 -1.07289 0
M  V30 1280 C 128.08 2.18358 -0.696591 0
M  V30 1281 C 129.08 1.58637 0.262837 0
M  V30 1282 O 130.27 1.74145 0.0438809 0
M  V30 1283 C 127.402 3.4089 -0.0266151 0
M  V30 1284 H 128.595 2.53162 -1.60776 0
M  V30 1285 H 126.148 1.29893 -0.869342 0
M  V30 1286 H 126.883 3.11653 0.896822 0
M  V30 1287 H 126.668 3.85495 -0.716657 0
M  V30 1288 H 128.158 4.17009 0.222028 0
M  V30 1289 N 128.595 0.856903 1.32268 0
M  V30 1290 C 129.558 0.308171 2.27119 0
M  V30 1291 C 130.558 -0.533421 1.51695 0
M  V30 1292 O 131.748 -0.344607 1.70757 0
M  V30 1293 C 128.88 -0.563757 3.36206 0
M  V30 1294 H 130.073 1.14535 2.77167 0
M  V30 1295 H 127.626 0.631421 1.42978 0
M  V30 1296 H 128.361 -1.42266 2.91429 0
M  V30 1297 H 128.146 0.0386749 3.92081 0
M  V30 1298 H 129.636 -0.940386 4.06874 0
M  V30 1299 N 130.073 -1.45103 0.615059 0
M  V30 1300 C 131.321 -2.01784 0.112955 0
M  V30 1301 C 131.642 -1.48504 -1.26378 0
M  V30 1302 O 130.912 -0.682245 -1.83636 0
M  V30 1303 H 129.492 -0.745993 0.0387668 0
M  V30 1304 H 132.154 -1.77808 0.798141 0
M  V30 1305 H 131.25 -3.12025 0.0684069 0
M  V30 1306 N 131.551 -0.354651 -1.53558 0
M  V30 1307 C 132.781 0.239167 -2.05211 0
M  V30 1308 C 133.189 1.43879 -1.22863 0
M  V30 1309 O 132.532 1.81857 -0.259565 0
M  V30 1310 C 132.594 0.707251 -3.52474 0
M  V30 1311 C 132.258 -0.374212 -4.55465 0
M  V30 1312 C 133.255 -1.22054 -5.0537 0
M  V30 1313 C 130.94 -0.531323 -4.99482 0
M  V30 1314 C 132.934 -2.20942 -5.97882 0
M  V30 1315 C 130.621 -1.52358 -5.91802 0
M  V30 1316 C 131.619 -2.36108 -6.40892 0
M  V30 1317 O 131.307 -3.33643 -7.31394 0
M  V30 1318 H 131.039 0.0479716 -0.674296 0
M  V30 1319 H 133.593 -0.508121 -1.99016 0
M  V30 1320 H 131.823 1.50596 -3.56171 0
M  V30 1321 H 133.512 1.22285 -3.87042 0
M  V30 1322 H 134.278 -1.1103 -4.7212 0
M  V30 1323 H 130.157 0.110738 -4.60867 0
M  V30 1324 H 133.701 -2.86348 -6.36121 0
M  V30 1325 H 129.598 -1.63434 -6.24467 0
M  V30 1326 H 130.366 -3.29244 -7.4936 0
M  V30 1327 N 133.029 1.57378 -0.0835403 0
M  V30 1328 C 134.254 1.98682 0.594987 0
M  V30 1329 C 134.679 0.961969 1.61641 0
M  V30 1330 O 134.037 -0.0709989 1.81161 0
M  V30 1331 C 134.085 3.38988 1.2296 0
M  V30 1332 O 133.189 3.39208 2.34546 0
M  V30 1333 H 132.53 0.646368 0.152002 0
M  V30 1334 H 135.06 2.03961 -0.161533 0
M  V30 1335 H 135.07 3.76431 1.57366 0
M  V30 1336 H 133.745 4.13107 0.481228 0
M  V30 1337 H 132.322 3.13548 2.01846 0
M  V30 1338 N 134.507 -0.190092 1.56449 0
M  V30 1339 C 135.753 -0.911052 1.81184 0
M  V30 1340 C 136.086 -1.82699 0.658396 0
M  V30 1341 O 135.361 -1.91491 -0.340775 0
M  V30 1342 C 135.644 -1.72297 3.16205 0
M  V30 1343 C 135.497 -0.831419 4.42049 0
M  V30 1344 C 136.816 -2.69454 3.47969 0
M  V30 1345 H 133.935 -0.32977 0.659106 0
M  V30 1346 H 136.577 -0.178169 1.89163 0
M  V30 1347 H 134.727 -2.34778 3.09534 0
M  V30 1348 H 136.399 -0.220929 4.60771 0
M  V30 1349 H 134.642 -0.138406 4.33579 0
M  V30 1350 H 135.313 -1.43461 5.33032 0
M  V30 1351 H 137.789 -2.17104 3.54972 0
M  V30 1352 H 136.665 -3.23342 4.43555 0
M  V30 1353 H 136.926 -3.48744 2.71717 0
M  V30 1354 N 135.985 -1.50799 -0.457987 0
M  V30 1355 C 137.262 -1.52968 -1.21902 0
M  V30 1356 C 137.642 -0.281906 -2.09209 0
M  V30 1357 O 136.99 0.734076 -2.16388 0
M  V30 1358 C 137.2 -2.8326 -2.03875 0
M  V30 1359 C 138.548 -3.34425 -2.6162 0
M  V30 1360 O 139.572 -2.8467 -2.14106 0
M  V30 1361 O 138.431 -4.21188 -3.48228 0
M  V30 1362 H 135.525 -0.614129 -0.553873 0
M  V30 1363 H 138.071 -1.63098 -0.468739 0
M  V30 1364 H 136.843 -3.65543 -1.39621 0
M  V30 1365 H 136.466 -2.76195 -2.8601 0
M  V30 1366 N 137.463 0.71206 -1.40597 0
M  V30 1367 C 138.411 1.84746 -1.41321 0
M  V30 1368 C 139.405 1.66842 -0.293268 0
M  V30 1369 O 140.611 1.73904 -0.464481 0
M  V30 1370 H 136.986 0.608522 -0.441819 0
M  V30 1371 H 138.957 1.81252 -2.37045 0
M  V30 1372 C 137.706 3.22638 -1.29614 0
M  V30 1373 H 137.029 3.37023 -2.15071 0
M  V30 1374 H 138.469 4.02209 -1.3418 0
M  V30 1375 C 136.928 3.36899 -0.00673121 0
M  V30 1376 O 137.458 3.90186 0.954859 0
M  V30 1377 N 135.664 2.9053 0.0639327 0
M  V30 1378 H 135.211 2.47353 -0.719311 0
M  V30 1379 H 135.169 3.0045 0.926118 0
M  V30 1380 N 138.941 1.26152 0.944643 0
M  V30 1381 C 139.851 1.09176 2.07648 0
M  V30 1382 C 140.867 0.0261935 1.7398 0
M  V30 1383 O 142.043 0.229208 2.00091 0
M  V30 1384 C 139.108 0.722915 3.39079 0
M  V30 1385 C 138.169 1.86752 3.86552 0
M  V30 1386 C 137.402 1.51617 5.11711 0
M  V30 1387 O 137.625 0.416331 5.68879 0
M  V30 1388 O 136.559 2.34975 5.54139 0
M  V30 1389 H 140.385 2.0412 2.24875 0
M  V30 1390 H 137.97 1.05182 1.061 0
M  V30 1391 H 139.852 0.529787 4.18056 0
M  V30 1392 H 138.527 -0.197159 3.23099 0
M  V30 1393 H 137.434 2.11558 3.08535 0
M  V30 1394 H 138.767 2.76719 4.07047 0
M  V30 1395 N 140.419 -1.14872 1.07899 0
M  V30 1396 C 141.367 -2.21857 0.698727 0
M  V30 1397 C 142.361 -1.66845 -0.293086 0
M  V30 1398 O 143.567 -1.79321 -0.156204 0
M  V30 1399 H 139.942 -0.722691 0.207899 0
M  V30 1400 H 141.913 -2.51205 1.61054 0
M  V30 1401 C 140.662 -3.47498 0.11858 0
M  V30 1402 H 139.985 -3.90154 0.872914 0
M  V30 1403 H 141.425 -4.23858 -0.109759 0
M  V30 1404 C 139.884 -3.16947 -1.1422 0
M  V30 1405 O 140.414 -3.3426 -2.22785 0
M  V30 1406 N 138.62 -2.70946 -1.05055 0
M  V30 1407 H 138.167 -2.57058 -0.167038 0
M  V30 1408 H 138.125 -2.50879 -1.89491 0
M  V30 1409 N 141.898 -0.863906 -1.31812 0
M  V30 1410 C 143.309 -0.52522 -1.7916 0
M  V30 1411 C 143.66 0.957518 -1.71248 0
M  V30 1412 O 142.785 1.74734 -1.27659 0
M  V30 1413 C 143.38 -0.9466 -3.25307 0
M  V30 1414 C 141.939 -0.659668 -3.70574 0
M  V30 1415 C 141.086 -1.14126 -2.52726 0
M  V30 1416 H 144.037 -1.05022 -1.1898 0
M  V30 1417 H 144.058 -0.266766 -3.79564 0
M  V30 1418 H 143.57 -2.02579 -3.31034 0
M  V30 1419 H 141.671 0.408416 -3.70355 0
M  V30 1420 H 141.784 -1.23245 -4.62977 0
M  V30 1421 H 140.148 -0.561216 -2.4844 0
M  V30 1422 H 140.931 -2.22775 -2.61201 0
M  V30 1423 N 143.376 1.44774 -0.622745 0
M  V30 1424 C 144.306 2.33382 0.0741861 0
M  V30 1425 C 145.287 1.47719 0.843387 0
M  V30 1426 O 146.472 1.76458 0.810934 0
M  V30 1427 C 143.602 3.30663 1.06204 0
M  V30 1428 C 142.556 4.26079 0.405037 0
M  V30 1429 C 141.882 5.13165 1.5022 0
M  V30 1430 C 143.182 5.1781 -0.683414 0
M  V30 1431 H 144.876 2.91905 -0.665713 0
M  V30 1432 H 142.422 1.40363 -0.321587 0
M  V30 1433 H 144.375 3.9153 1.55827 0
M  V30 1434 H 143.099 2.70331 1.83272 0
M  V30 1435 H 141.758 3.66532 -0.0704683 0
M  V30 1436 H 141.406 4.49191 2.26355 0
M  V30 1437 H 141.106 5.77812 1.06803 0
M  V30 1438 H 142.63 5.76902 2.00041 0
M  V30 1439 H 144.044 5.72661 -0.270631 0
M  V30 1440 H 142.441 5.91015 -1.04023 0
M  V30 1441 H 143.511 4.59326 -1.55395 0
M  V30 1442 N 144.854 0.36279 1.53368 0
M  V30 1443 C 146.079 -0.231226 2.06107 0
M  V30 1444 C 146.504 -1.419 1.23474 0
M  V30 1445 O 145.862 -1.79524 0.253128 0
M  V30 1446 C 145.91 -0.605523 3.5548 0
M  V30 1447 O 145.014 -1.70312 3.7559 0
M  V30 1448 H 144.355 -0.034327 0.663112 0
M  V30 1449 H 146.885 0.522584 1.97814 0
M  V30 1450 H 146.895 -0.877314 3.98456 0
M  V30 1451 H 145.57 0.263004 4.15068 0
M  V30 1452 H 144.147 -1.4271 3.44512 0
M  V30 1453 N 146.332 -1.57332 0.0918853 0
M  V30 1454 C 147.58 -1.93853 -0.571446 0
M  V30 1455 C 147.901 -0.974212 -1.6892 0
M  V30 1456 O 147.171 -0.0257254 -1.95883 0
M  V30 1457 H 145.751 -0.715666 -0.214082 0
M  V30 1458 H 148.413 -1.94287 0.154464 0
M  V30 1459 H 147.509 -2.96191 -0.983729 0
M  V30 1460 N 147.81 0.181792 -1.56548 0
M  V30 1461 C 148.757 1.22521 -1.95595 0
M  V30 1462 C 149.727 1.4454 -0.818373 0
M  V30 1463 O 150.912 1.57454 -1.07763 0
M  V30 1464 C 148.052 2.56193 -2.31212 0
M  V30 1465 C 147.165 2.41641 -3.58097 0
M  V30 1466 C 146.3 3.68108 -3.82975 0
M  V30 1467 C 145.339 3.48445 -5.03242 0
M  V30 1468 N 144.476 4.66956 -5.24306 0
M  V30 1469 H 149.316 0.885226 -2.84548 0
M  V30 1470 H 146.853 0.425718 -1.40805 0
M  V30 1471 H 148.811 3.34088 -2.49882 0
M  V30 1472 H 147.441 2.88208 -1.45382 0
M  V30 1473 H 146.493 1.54976 -3.474 0
M  V30 1474 H 147.805 2.23052 -4.46149 0
M  V30 1475 H 146.959 4.54441 -4.01956 0
M  V30 1476 H 145.698 3.89666 -2.93278 0
M  V30 1477 H 144.703 2.60499 -4.8417 0
M  V30 1478 H 145.928 3.2832 -5.9446 0
M  V30 1479 H 143.874 4.88752 -4.37559 0
M  V30 1480 H 143.791 4.51242 -6.06561 0
M  V30 1481 H 145.059 5.54602 -5.47756 0
M  V30 1482 N 149.288 1.51039 0.449983 0
M  V30 1483 C 150.251 1.70863 1.5277 0
M  V30 1484 C 151.251 0.578846 1.5002 0
M  V30 1485 O 152.441 0.846213 1.52266 0
M  V30 1486 C 149.573 1.75341 2.9235 0
M  V30 1487 H 150.766 2.67034 1.36502 0
M  V30 1488 H 148.319 1.40838 0.677812 0
M  V30 1489 H 149.054 0.809383 3.14037 0
M  V30 1490 H 148.839 2.57436 2.95752 0
M  V30 1491 H 150.329 1.92559 3.70555 0
M  V30 1492 N 150.766 -0.704594 1.40972 0
M  V30 1493 C 152.014 -1.46169 1.39568 0
M  V30 1494 C 152.335 -1.95 0.00253745 0
M  V30 1495 O 151.605 -1.71095 -0.954114 0
M  V30 1496 H 150.185 -0.542326 0.513704 0
M  V30 1497 H 152.847 -0.834553 1.76128 0
M  V30 1498 H 151.943 -2.32922 2.07735 0
M  V30 1499 N 152.244 -1.26651 -0.937939 0
M  V30 1500 C 153.492 -1.12165 -1.68118 0
M  V30 1501 C 153.813 0.334983 -1.92101 0
M  V30 1502 O 153.083 1.23583 -1.52 0
M  V30 1503 H 151.663 -0.412093 -0.623048 0
M  V30 1504 H 154.325 -1.59027 -1.12678 0
M  V30 1505 H 153.421 -1.64289 -2.6536 0
M  V30 1506 N 153.722 1.14298 -1.08507 0
M  V30 1507 C 154.968 1.85633 -0.816581 0
M  V30 1508 C 155.301 1.82784 0.656021 0
M  V30 1509 O 154.576 1.25926 1.48233 0
M  V30 1510 C 154.859 3.34223 -1.34041 0
M  V30 1511 C 154.712 3.45639 -2.87843 0
M  V30 1512 C 156.031 4.29356 -0.9665 0
M  V30 1513 H 153.15 0.67402 -0.298104 0
M  V30 1514 H 155.792 1.34214 -1.34487 0
M  V30 1515 H 153.942 3.78144 -0.89104 0
M  V30 1516 H 155.614 3.10498 -3.41158 0
M  V30 1517 H 153.857 2.86817 -3.25451 0
M  V30 1518 H 154.528 4.50089 -3.19569 0
M  V30 1519 H 157.004 3.93457 -1.35391 0
M  V30 1520 H 155.88 5.3178 -1.3602 0
M  V30 1521 H 156.141 4.41919 0.126362 0
M  V30 1522 N 155.201 0.870884 1.31352 0
M  V30 1523 C 156.447 0.482987 1.96965 0
M  V30 1524 C 156.78 -0.962462 1.68672 0
M  V30 1525 O 156.055 -1.6779 0.98371 0
M  V30 1526 C 156.338 0.741752 3.52378 0
M  V30 1527 C 156.191 2.2368 3.9024 0
M  V30 1528 C 157.51 0.208838 4.39604 0
M  V30 1529 H 154.629 0.176955 0.715441 0
M  V30 1530 H 157.271 1.09229 1.55464 0
M  V30 1531 H 155.421 0.223149 3.87859 0
M  V30 1532 H 157.093 2.82273 3.64856 0
M  V30 1533 H 155.336 2.70901 3.38814 0
M  V30 1534 H 156.007 2.3685 4.98604 0
M  V30 1535 H 158.483 0.652529 4.10952 0
M  V30 1536 H 157.359 0.419336 5.47296 0
M  V30 1537 H 157.62 -0.889275 4.33064 0
M  V30 1538 N 156.679 -1.44442 0.630414 0
M  V30 1539 C 157.626 -2.30678 -0.0749355 0
M  V30 1540 C 158.596 -1.4344 -0.837502 0
M  V30 1541 O 159.781 -1.72343 -0.818684 0
M  V30 1542 C 156.921 -3.28706 -1.05103 0
M  V30 1543 C 156.034 -4.31046 -0.286954 0
M  V30 1544 C 155.169 -5.16167 -1.2548 0
M  V30 1545 C 154.208 -6.10216 -0.479843 0
M  V30 1546 N 153.345 -6.88039 -1.39811 0
M  V30 1547 H 158.185 -2.90454 0.666386 0
M  V30 1548 H 155.722 -1.43107 0.340404 0
M  V30 1549 H 157.68 -3.84027 -1.63031 0
M  V30 1550 H 156.31 -2.70632 -1.75949 0
M  V30 1551 H 155.362 -3.78203 0.408243 0
M  V30 1552 H 156.674 -4.97794 0.316657 0
M  V30 1553 H 155.828 -5.76002 -1.90544 0
M  V30 1554 H 154.567 -4.49491 -1.89233 0
M  V30 1555 H 153.572 -5.49491 0.184295 0
M  V30 1556 H 154.797 -6.78928 0.152965 0
M  V30 1557 H 152.743 -6.24032 -2.02287 0
M  V30 1558 H 152.66 -7.51223 -0.848508 0
M  V30 1559 H 153.928 -7.52397 -2.03762 0
M  V30 1560 N 158.157 -0.370918 -1.53173 0
M  V30 1561 C 159.403 0.217423 -2.01631 0
M  V30 1562 C 159.736 1.47983 -1.25756 0
M  V30 1563 O 159.011 1.91274 -0.352764 0
M  V30 1564 C 159.294 0.503982 -3.56556 0
M  V30 1565 C 159.147 -0.77243 -4.43118 0
M  V30 1566 C 160.466 1.30234 -4.20389 0
M  V30 1567 H 157.585 0.0775486 -0.732909 0
M  V30 1568 H 160.227 -0.496863 -1.83388 0
M  V30 1569 H 158.377 1.11248 -3.72231 0
M  V30 1570 H 160.049 -1.4098 -4.39229 0
M  V30 1571 H 158.292 -1.39167 -4.10871 0
M  V30 1572 H 158.963 -0.526815 -5.4948 0
M  V30 1573 H 161.439 0.787546 -4.08579 0
M  V30 1574 H 160.315 1.47158 -5.28806 0
M  V30 1575 H 160.576 2.31237 -3.76805 0
M  V30 1576 N 159.635 1.57281 -0.100228 0
M  V30 1577 C 160.863 1.98879 0.570509 0
M  V30 1578 C 161.278 0.979476 1.61405 0
M  V30 1579 O 160.635 -0.0302288 1.82475 0
M  V30 1580 C 160.686 3.4052 1.2136 0
M  V30 1581 O 160.407 4.37588 0.211786 0
M  V30 1582 C 161.908 3.97149 1.96945 0
M  V30 1583 H 159.128 0.653428 0.152555 0
M  V30 1584 H 161.672 2.03697 -0.18103 0
M  V30 1585 H 159.827 3.367 1.91603 0
M  V30 1586 H 160.241 5.20118 0.676607 0
M  V30 1587 H 161.715 4.98393 2.37294 0
M  V30 1588 H 162.192 3.3525 2.83733 0
M  V30 1589 H 162.798 4.04458 1.31506 0
M  V30 1590 N 161.113 -0.173488 1.56642 0
M  V30 1591 C 162.343 -0.904781 1.85734 0
M  V30 1592 C 162.751 -1.76431 0.68328 0
M  V30 1593 O 162.094 -1.802 -0.356865 0
M  V30 1594 C 162.156 -1.83382 3.09211 0
M  V30 1595 C 161.82 -1.15411 4.42187 0
M  V30 1596 C 162.817 -0.520609 5.17287 0
M  V30 1597 C 160.502 -1.15151 4.88923 0
M  V30 1598 C 162.496 0.106412 6.37311 0
M  V30 1599 C 160.183 -0.520664 6.08878 0
M  V30 1600 C 161.181 0.107196 6.82916 0
M  V30 1601 O 160.869 0.728102 8.00596 0
M  V30 1602 H 160.601 -0.268408 0.62043 0
M  V30 1603 H 163.155 -0.179096 2.04618 0
M  V30 1604 H 161.385 -2.59976 2.86268 0
M  V30 1605 H 163.074 -2.43476 3.24768 0
M  V30 1606 H 163.84 -0.514606 4.82262 0
M  V30 1607 H 159.719 -1.62961 4.31236 0
M  V30 1608 H 163.263 0.597081 6.9504 0
M  V30 1609 H 159.16 -0.524242 6.43368 0
M  V30 1610 H 159.928 0.627138 8.16094 0
M  V30 1611 N 162.591 -1.51276 -0.441967 0
M  V30 1612 C 164.002 -1.56244 -1.02199 0
M  V30 1613 C 164.353 -0.383149 -1.92422 0
M  V30 1614 O 163.478 0.500613 -2.1053 0
M  V30 1615 C 164.073 -2.83162 -1.86024 0
M  V30 1616 C 162.632 -2.90716 -2.39084 0
M  V30 1617 C 161.779 -2.50858 -1.18175 0
M  V30 1618 H 164.73 -1.5712 -0.223416 0
M  V30 1619 H 164.751 -2.66663 -2.71425 0
M  V30 1620 H 164.263 -3.68974 -1.20331 0
M  V30 1621 H 162.364 -2.09323 -3.08244 0
M  V30 1622 H 162.477 -3.94266 -2.72198 0
M  V30 1623 H 160.841 -2.03951 -1.52565 0
M  V30 1624 H 161.624 -3.3901 -0.541001 0
M  V30 1625 N 164.069 0.697108 -1.41344 0
M  V30 1626 C 165.317 1.45426 -1.40341 0
M  V30 1627 C 165.638 1.94996 -0.0128787 0
M  V30 1628 O 164.908 1.71599 0.945027 0
M  V30 1629 H 163.488 0.539594 -0.516573 0
M  V30 1630 H 166.15 0.825201 -1.76569 0
M  V30 1631 H 165.246 2.31817 -2.08967 0
M  V30 1632 N 165.547 1.27147 0.931209 0
M  V30 1633 C 166.477 1.12081 2.04842 0
M  V30 1634 C 167.458 0.0232364 1.70084 0
M  V30 1635 O 168.643 0.197085 1.93197 0
M  V30 1636 C 165.773 0.76354 3.38803 0
M  V30 1637 C 164.727 1.81396 3.87659 0
M  V30 1638 C 164.053 1.31075 5.18385 0
M  V30 1639 C 165.353 3.21739 4.11438 0
M  V30 1640 H 167.047 2.05537 2.17703 0
M  V30 1641 H 164.593 0.989603 1.04608 0
M  V30 1642 H 166.546 0.644982 4.16435 0
M  V30 1643 H 165.27 -0.206727 3.25945 0
M  V30 1644 H 163.929 1.92136 3.12217 0
M  V30 1645 H 163.577 0.330037 5.01916 0
M  V30 1646 H 163.277 2.013 5.52044 0
M  V30 1647 H 164.801 1.20506 5.98591 0
M  V30 1648 H 166.215 3.14019 4.79651 0
M  V30 1649 H 164.612 3.89644 4.56397 0
M  V30 1650 H 165.682 3.67054 3.16859 0
M  V30 1651 N 167.025 -1.13721 1.09112 0
M  V30 1652 C 168.253 -1.88773 0.846899 0
M  V30 1653 C 168.668 -1.7896 -0.601572 0
M  V30 1654 O 168.025 -1.15394 -1.41388 0
M  V30 1655 C 168.076 -3.3849 1.26913 0
M  V30 1656 O 167.797 -3.48043 2.66079 0
M  V30 1657 C 169.298 -4.30518 1.05682 0
M  V30 1658 H 166.518 -0.59772 0.304914 0
M  V30 1659 H 169.062 -1.43977 1.45227 0
M  V30 1660 H 167.217 -3.80881 0.707723 0
M  V30 1661 H 167.631 -4.4109 2.83795 0
M  V30 1662 H 169.105 -5.3391 1.40156 0
M  V30 1663 H 169.582 -4.392 -0.00563416 0
M  V30 1664 H 170.188 -3.93893 1.60402 0
M  V30 1665 N 168.503 -0.877838 -1.30888 0
M  V30 1666 C 169.45 -0.337538 -2.28318 0
M  V30 1667 C 170.42 0.568346 -1.56074 0
M  V30 1668 O 171.605 0.498298 -1.84178 0
M  V30 1669 C 168.745 0.448142 -3.42178 0
M  V30 1670 C 167.858 -0.48615 -4.29256 0
M  V30 1671 C 166.993 0.314427 -5.30269 0
M  V30 1672 C 166.032 -0.615791 -6.08995 0
M  V30 1673 N 165.169 0.14902 -7.01942 0
M  V30 1674 H 170.009 -1.17356 -2.73919 0
M  V30 1675 H 167.546 -0.590094 -1.34745 0
M  V30 1676 H 169.504 0.919517 -4.06941 0
M  V30 1677 H 168.134 1.24879 -2.97666 0
M  V30 1678 H 167.186 -1.076 -3.64865 0
M  V30 1679 H 168.498 -1.19909 -4.84173 0
M  V30 1680 H 167.652 0.847969 -6.00745 0
M  V30 1681 H 166.391 1.06062 -4.76027 0
M  V30 1682 H 165.396 -1.16102 -5.37401 0
M  V30 1683 H 166.621 -1.36097 -6.65323 0
M  V30 1684 H 164.567 0.877884 -6.50099 0
M  V30 1685 H 164.484 -0.504433 -7.54315 0
M  V30 1686 H 165.752 0.663537 -7.76671 0
M  V30 1687 N 169.982 1.44106 -0.638065 0
M  V30 1688 C 171.228 2.02277 -0.145546 0
M  V30 1689 C 171.561 1.50125 1.23191 0
M  V30 1690 O 170.836 0.688133 1.8192 0
M  V30 1691 C 171.119 3.59829 -0.139791 0
M  V30 1692 C 170.972 4.22247 -1.55008 0
M  V30 1693 C 172.291 4.36873 0.531966 0
M  V30 1694 H 169.41 0.734992 -0.0543632 0
M  V30 1695 H 172.052 1.71592 -0.815863 0
M  V30 1696 H 170.202 3.86102 0.431007 0
M  V30 1697 H 171.874 4.07057 -2.1703 0
M  V30 1698 H 170.117 3.79476 -2.10191 0
M  V30 1699 H 170.788 5.31284 -1.49804 0
M  V30 1700 H 173.264 4.16074 0.0464781 0
M  V30 1701 H 172.14 5.4657 0.505206 0
M  V30 1702 H 172.401 4.11995 1.60352 0
M  V30 1703 N 171.46 0.379036 1.52974 0
M  V30 1704 C 172.39 -0.452706 2.29069 0
M  V30 1705 C 173.371 -1.07237 1.32039 0
M  V30 1706 O 174.556 -1.08708 1.60923 0
M  V30 1707 C 171.686 -1.5856 3.08992 0
M  V30 1708 C 170.64 -1.0925 4.13822 0
M  V30 1709 C 169.966 -2.31668 4.81907 0
M  V30 1710 C 171.266 -0.167702 5.22031 0
M  V30 1711 H 172.96 0.182181 2.98845 0
M  V30 1712 H 170.506 0.0890592 1.43724 0
M  V30 1713 H 172.459 -2.1742 3.6098 0
M  V30 1714 H 171.183 -2.24792 2.36931 0
M  V30 1715 H 169.842 -0.526494 3.628 0
M  V30 1716 H 169.49 -2.96386 4.06404 0
M  V30 1717 H 169.19 -1.9934 5.52754 0
M  V30 1718 H 170.714 -2.91189 5.36695 0
M  V30 1719 H 172.128 -0.664186 5.6944 0
M  V30 1720 H 170.525 0.0653265 6.00064 0
M  V30 1721 H 171.595 0.786347 4.78482 0
M  V30 1722 N 172.938 -1.57226 0.108567 0
M  V30 1723 C 173.901 -2.13602 -0.831082 0
M  V30 1724 C 174.901 -1.06841 -1.20173 0
M  V30 1725 O 176.091 -1.32666 -1.12895 0
M  V30 1726 C 173.223 -2.66769 -2.12243 0
M  V30 1727 H 174.416 -2.97951 -0.341317 0
M  V30 1728 H 171.969 -1.55667 -0.14057 0
M  V30 1729 H 172.704 -1.85977 -2.65675 0
M  V30 1730 H 172.489 -3.44839 -1.86625 0
M  V30 1731 H 173.979 -3.10332 -2.79435 0
M  V30 1732 N 174.416 0.165178 -1.56732 0
M  V30 1733 C 175.346 1.20651 -1.99914 0
M  V30 1734 C 176.327 1.45827 -0.875705 0
M  V30 1735 O 177.512 1.57057 -1.14223 0
M  V30 1736 C 174.642 2.54401 -2.36427 0
M  V30 1737 C 173.596 2.43782 -3.51787 0
M  V30 1738 C 172.922 3.82078 -3.7406 0
M  V30 1739 C 174.222 1.93732 -4.85041 0
M  V30 1740 H 175.916 0.847534 -2.87154 0
M  V30 1741 H 173.462 0.40625 -1.38151 0
M  V30 1742 H 175.415 3.27458 -2.65234 0
M  V30 1743 H 174.139 2.92098 -1.46103 0
M  V30 1744 H 172.798 1.73178 -3.23117 0
M  V30 1745 H 172.446 4.17179 -2.81017 0
M  V30 1746 H 172.146 3.7584 -4.51684 0
M  V30 1747 H 173.67 4.56712 -4.05274 0
M  V30 1748 H 175.084 2.56569 -5.12684 0
M  V30 1749 H 173.481 1.98428 -5.66345 0
M  V30 1750 H 174.551 0.891962 -4.76626 0
M  V30 1751 N 175.894 1.51508 0.433938 0
M  V30 1752 C 176.841 1.73068 1.52696 0
M  V30 1753 C 177.811 0.572441 1.55924 0
M  V30 1754 O 178.996 0.807253 1.72882 0
M  V30 1755 C 176.136 1.86474 2.90381 0
M  V30 1756 C 175.249 3.14037 2.96656 0
M  V30 1757 C 174.384 3.18019 4.25485 0
M  V30 1758 C 173.423 4.39882 4.2564 0
M  V30 1759 N 172.56 4.41394 5.45999 0
M  V30 1760 H 177.4 2.66366 1.33615 0
M  V30 1761 H 174.937 1.32008 0.649018 0
M  V30 1762 H 176.895 1.92229 3.70275 0
M  V30 1763 H 175.525 0.965809 3.08013 0
M  V30 1764 H 174.577 3.17575 2.09404 0
M  V30 1765 H 175.889 4.0394 2.92633 0
M  V30 1766 H 175.043 3.22708 5.13755 0
M  V30 1767 H 173.782 2.2601 4.3217 0
M  V30 1768 H 172.787 4.35366 3.35763 0
M  V30 1769 H 174.012 5.33159 4.20617 0
M  V30 1770 H 171.958 3.52258 5.53399 0
M  V30 1771 H 171.875 5.25111 5.4387 0
M  V30 1772 H 173.143 4.50281 6.36292 0
M  V30 1773 N 177.372 -0.689602 1.41712 0
M  V30 1774 C 178.618 -1.45181 1.41599 0
M  V30 1775 C 178.951 -1.94181 0.0270081 0
M  V30 1776 O 178.226 -1.6993 -0.946265 0
M  V30 1777 C 178.509 -2.65945 2.42787 0
M  V30 1778 C 178.362 -2.22672 3.90816 0
M  V30 1779 C 179.681 -3.68149 2.41151 0
M  V30 1780 H 176.8 -0.526576 0.515642 0
M  V30 1781 H 179.442 -0.784947 1.73028 0
M  V30 1782 H 177.592 -3.2284 2.16116 0
M  V30 1783 H 179.264 -1.71058 4.28412 0
M  V30 1784 H 177.507 -1.54394 4.05395 0
M  V30 1785 H 178.178 -3.0935 4.57172 0
M  V30 1786 H 180.654 -3.2094 2.64834 0
M  V30 1787 H 179.53 -4.50248 3.13955 0
M  V30 1788 H 179.791 -4.18259 1.43221 0
M  V30 1789 N 178.85 -1.27639 -0.924453 0
M  V30 1790 C 180.127 -1.04887 -1.651 0
M  V30 1791 C 180.507 0.415327 -2.06974 0
M  V30 1792 O 179.855 1.39923 -1.80648 0
M  V30 1793 C 180.065 -2.01348 -2.85061 0
M  V30 1794 C 181.413 -2.30899 -3.56329 0
M  V30 1795 O 182.437 -1.99348 -2.95193 0
M  V30 1796 O 181.296 -2.84699 -4.66485 0
M  V30 1797 H 178.39 -0.400083 -0.723784 0
M  V30 1798 H 180.936 -1.38916 -0.974703 0
M  V30 1799 H 179.708 -3.0008 -2.51133 0
M  V30 1800 H 179.331 -1.679 -3.6041 0
M  V30 1801 N 180.328 1.1314 -1.09713 0
M  V30 1802 C 181.276 2.20717 -0.733934 0
M  V30 1803 C 182.27 1.6729 0.266506 0
M  V30 1804 O 183.476 1.79547 0.127656 0
M  V30 1805 H 179.851 0.719292 -0.21937 0
M  V30 1806 H 181.822 2.48611 -1.6503 0
M  V30 1807 C 180.571 3.47265 -0.173849 0
M  V30 1808 H 179.894 3.88716 -0.934873 0
M  V30 1809 H 181.334 4.23979 0.0423126 0
M  V30 1810 C 179.793 3.18724 1.09164 0
M  V30 1811 O 180.323 3.37762 2.17439 0
M  V30 1812 N 178.529 2.72583 1.00732 0
M  V30 1813 H 178.076 2.57291 0.126121 0
M  V30 1814 H 178.034 2.53862 1.85476 0
M  V30 1815 N 181.806 0.884767 1.30421 0
M  V30 1816 C 182.769 0.356277 2.26414 0
M  V30 1817 C 183.769 -0.501124 1.52792 0
M  V30 1818 O 184.959 -0.30831 1.7145 0
M  V30 1819 C 182.091 -0.492316 3.37326 0
M  V30 1820 H 183.284 1.20389 2.74675 0
M  V30 1821 H 180.837 0.661607 1.41607 0
M  V30 1822 H 181.572 -1.36052 2.94381 0
M  V30 1823 H 181.357 0.121832 3.91911 0
M  V30 1824 H 182.847 -0.853871 4.08777 0
M  V30 1825 N 183.284 -1.43765 0.645699 0
M  V30 1826 C 184.194 -2.34544 -0.0512957 0
M  V30 1827 C 185.21 -1.53455 -0.82022 0
M  V30 1828 O 186.386 -1.86133 -0.769176 0
M  V30 1829 C 183.451 -3.31636 -1.01087 0
M  V30 1830 C 182.512 -4.2863 -0.239712 0
M  V30 1831 C 181.745 -5.21084 -1.15358 0
M  V30 1832 O 181.968 -5.1779 -2.39269 0
M  V30 1833 O 180.902 -5.98593 -0.630038 0
M  V30 1834 H 184.728 -2.95624 0.695718 0
M  V30 1835 H 182.313 -1.43781 0.405882 0
M  V30 1836 H 184.195 -3.9136 -1.56254 0
M  V30 1837 H 182.87 -2.73069 -1.73824 0
M  V30 1838 H 181.777 -3.72408 0.355356 0
M  V30 1839 H 183.11 -4.90157 0.447936 0
M  V30 1840 N 184.763 -0.387143 -1.52771 0
M  V30 1841 C 185.991 0.195869 -2.05971 0
M  V30 1842 C 186.406 1.40691 -1.25903 0
M  V30 1843 O 185.763 1.79931 -0.305134 0
M  V30 1844 C 185.814 0.56812 -3.57008 0
M  V30 1845 O 185.535 -0.594803 -4.34043 0
M  V30 1846 C 187.036 1.20723 -4.26545 0
M  V30 1847 H 184.256 0.0300578 -0.670326 0
M  V30 1848 H 186.8 -0.551749 -1.96916 0
M  V30 1849 H 184.955 1.26564 -3.66143 0
M  V30 1850 H 185.369 -0.289322 -5.23701 0
M  V30 1851 H 186.843 1.41807 -5.33474 0
M  V30 1852 H 187.32 2.17395 -3.81623 0
M  V30 1853 H 187.926 0.550535 -4.21722 0
M  V30 1854 N 186.241 1.57166 -0.116904 0
M  V30 1855 C 187.49 1.94298 0.541407 0
M  V30 1856 C 187.803 1.00236 1.67964 0
M  V30 1857 O 189.009 1.26826 2.40057 0
M  V30 1858 C 187.465 3.45306 1.01449 0
M  V30 1859 C 187.073 4.47899 -0.0951738 0
M  V30 1860 C 188.817 3.91361 1.6443 0
M  V30 1861 C 186.724 5.90083 0.394491 0
M  V30 1862 H 185.654 0.725308 0.206019 0
M  V30 1863 H 188.305 1.82446 -0.196419 0
M  V30 1864 H 186.687 3.52385 1.80667 0
M  V30 1865 H 187.861 4.52486 -0.871374 0
M  V30 1866 H 186.176 4.11583 -0.631505 0
M  V30 1867 H 188.773 4.95004 2.02176 0
M  V30 1868 H 189.116 3.3122 2.52189 0
M  V30 1869 H 189.649 3.87073 0.917559 0
M  V30 1870 H 186.388 6.53974 -0.447004 0
M  V30 1871 H 185.908 5.88921 1.13722 0
M  V30 1872 H 187.587 6.41307 0.856399 0
M  V30 1873 N 187.719 -0.156864 1.56817 0
M  V30 1874 C 188.666 -1.19394 1.97519 0
M  V30 1875 C 189.636 -1.4322 0.841265 0
M  V30 1876 O 190.821 -1.55719 1.10255 0
M  V30 1877 C 187.961 -2.52483 2.35258 0
M  V30 1878 C 187.074 -2.35914 3.61896 0
M  V30 1879 C 186.209 -3.61969 3.88782 0
M  V30 1880 C 185.248 -3.40395 5.08722 0
M  V30 1881 N 184.385 -4.58556 5.31668 0
M  V30 1882 H 189.225 -0.839845 2.85921 0
M  V30 1883 H 186.762 -0.403264 1.41464 0
M  V30 1884 H 188.72 -3.30071 2.55165 0
M  V30 1885 H 187.35 -2.85859 1.49949 0
M  V30 1886 H 186.402 -1.49429 3.49821 0
M  V30 1887 H 187.714 -2.15926 4.49641 0
M  V30 1888 H 186.868 -4.47989 4.09135 0
M  V30 1889 H 185.607 -3.84951 2.9944 0
M  V30 1890 H 184.612 -2.52763 4.88253 0
M  V30 1891 H 185.837 -3.18822 5.99608 0
M  V30 1892 H 183.783 -4.81729 4.45279 0
M  V30 1893 H 183.7 -4.41535 6.13664 0
M  V30 1894 H 184.968 -5.45817 5.5651 0
M  V30 1895 N 189.197 -1.51736 -0.425897 0
M  V30 1896 C 190.144 -1.73875 -1.51776 0
M  V30 1897 C 191.114 -0.580702 -1.55618 0
M  V30 1898 O 192.299 -0.81641 -1.72451 0
M  V30 1899 C 189.439 -1.88012 -2.89388 0
M  V30 1900 C 188.552 -3.15606 -2.94986 0
M  V30 1901 C 187.687 -3.20271 -4.23793 0
M  V30 1902 C 186.726 -4.42134 -4.23302 0
M  V30 1903 N 185.863 -4.44284 -5.43651 0
M  V30 1904 H 190.703 -2.67071 -1.32201 0
M  V30 1905 H 188.24 -1.32351 -0.642008 0
M  V30 1906 H 190.198 -1.9419 -3.69251 0
M  V30 1907 H 188.828 -0.98213 -3.07496 0
M  V30 1908 H 187.88 -3.18681 -2.07717 0
M  V30 1909 H 189.192 -4.05486 -2.90486 0
M  V30 1910 H 188.346 -3.25428 -5.12036 0
M  V30 1911 H 187.085 -2.28299 -4.30965 0
M  V30 1912 H 186.09 -4.3714 -3.3345 0
M  V30 1913 H 187.315 -5.35382 -4.17783 0
M  V30 1914 H 185.261 -3.55188 -5.51523 0
M  V30 1915 H 185.178 -5.27988 -5.41078 0
M  V30 1916 H 186.446 -4.53649 -6.33895 0
M  V30 1917 N 190.675 0.682077 -1.42076 0
M  V30 1918 C 191.585 1.82535 -1.47371 0
M  V30 1919 C 192.601 1.7017 -0.363079 0
M  V30 1920 O 193.777 1.91848 -0.612875 0
M  V30 1921 C 190.842 3.18624 -1.36674 0
M  V30 1922 C 189.903 3.42999 -2.58167 0
M  V30 1923 C 189.136 4.72595 -2.4797 0
M  V30 1924 O 189.359 5.50006 -1.5116 0
M  V30 1925 O 188.293 4.98054 -3.37974 0
M  V30 1926 H 192.119 1.81023 -2.43853 0
M  V30 1927 H 189.704 0.836887 -1.2376 0
M  V30 1928 H 191.586 3.99847 -1.33043 0
M  V30 1929 H 190.261 3.20789 -0.433138 0
M  V30 1930 H 189.168 2.61653 -2.67373 0
M  V30 1931 H 190.501 3.45659 -3.50401 0
M  V30 1932 N 192.153 1.28127 0.917671 0
M  V30 1933 C 193.083 1.14248 2.03641 0
M  V30 1934 C 194.064 0.0412748 1.7005 0
M  V30 1935 O 195.249 0.217566 1.92977 0
M  V30 1936 C 192.379 0.799431 3.37974 0
M  V30 1937 C 191.333 1.85497 3.85713 0
M  V30 1938 C 190.659 1.36565 5.16966 0
M  V30 1939 C 191.959 3.26085 4.08002 0
M  V30 1940 H 193.653 2.07835 2.15511 0
M  V30 1941 H 191.199 1.00064 1.03553 0
M  V30 1942 H 193.152 0.689114 4.15727 0
M  V30 1943 H 191.876 -0.172145 3.26146 0
M  V30 1944 H 190.535 1.95437 3.10161 0
M  V30 1945 H 190.183 0.383253 5.01538 0
M  V30 1946 H 189.883 2.07143 5.49878 0
M  V30 1947 H 191.407 1.26848 5.97279 0
M  V30 1948 H 192.821 3.19089 4.76293 0
M  V30 1949 H 191.218 3.94462 4.52238 0
M  V30 1950 H 192.288 3.70394 3.12948 0
M  V30 1951 N 193.631 -1.12557 1.10312 0
M  V30 1952 C 194.879 -1.83675 0.843091 0
M  V30 1953 C 195.2 -1.84435 -0.633131 0
M  V30 1954 O 194.47 -1.30657 -1.45964 0
M  V30 1955 H 193.05 -0.680138 0.308904 0
M  V30 1956 H 195.712 -1.36301 1.39313 0
M  V30 1957 H 194.808 -2.87908 1.2048 0
M  V30 1958 N 195.109 -0.891671 -1.2995 0
M  V30 1959 C 196.039 -0.379797 -2.30391 0
M  V30 1960 C 197.02 0.540919 -1.6127 0
M  V30 1961 O 198.205 0.453352 -1.88834 0
M  V30 1962 C 195.335 0.400654 -3.44981 0
M  V30 1963 C 194.289 -0.428905 -4.25846 0
M  V30 1964 C 193.615 0.478557 -5.32554 0
M  V30 1965 C 194.915 -1.67458 -4.94727 0
M  V30 1966 H 196.609 -1.21914 -2.73454 0
M  V30 1967 H 194.155 -0.587675 -1.31462 0
M  V30 1968 H 196.108 0.769434 -4.14316 0
M  V30 1969 H 194.832 1.27371 -3.0074 0
M  V30 1970 H 193.491 -0.779911 -3.58208 0
M  V30 1971 H 193.139 1.34951 -4.84559 0
M  V30 1972 H 192.839 -0.0727433 -5.87555 0
M  V30 1973 H 194.363 0.843705 -6.04743 0
M  V30 1974 H 195.777 -1.376 -5.56542 0
M  V30 1975 H 194.174 -2.16659 -5.59624 0
M  V30 1976 H 195.244 -2.41518 -4.20473 0
M  V30 1977 N 196.587 1.43421 -0.653314 0
M  V30 1978 C 197.812 2.06678 -0.172846 0
M  V30 1979 C 198.237 1.48648 1.15262 0
M  V30 1980 O 197.595 0.596457 1.71208 0
M  V30 1981 C 197.643 3.60474 -0.0953184 0
M  V30 1982 O 196.747 4.01487 0.942442 0
M  V30 1983 H 196.088 0.657181 -0.0949155 0
M  V30 1984 H 198.618 1.83925 -0.896265 0
M  V30 1985 H 198.628 4.07905 0.0879728 0
M  V30 1986 H 197.303 4.02088 -1.06291 0
M  V30 1987 H 195.88 3.65646 0.731932 0
M  V30 1988 N 198.065 0.39524 1.52563 0
M  V30 1989 C 198.995 -0.428384 2.29537 0
M  V30 1990 C 199.976 -1.05831 1.33169 0
M  V30 1991 O 201.161 -1.06995 1.62067 0
M  V30 1992 C 198.291 -1.55274 3.10656 0
M  V30 1993 C 197.245 -1.04855 4.14957 0
M  V30 1994 C 196.571 -2.26543 4.84337 0
M  V30 1995 C 197.871 -0.112324 5.22179 0
M  V30 1996 H 199.565 0.213867 2.98635 0
M  V30 1997 H 197.111 0.104298 1.43622 0
M  V30 1998 H 199.064 -2.1358 3.63265 0
M  V30 1999 H 197.788 -2.22266 2.39302 0
M  V30 2000 H 196.447 -0.487985 3.63338 0
M  V30 2001 H 196.095 -2.92059 4.09525 0
M  V30 2002 H 195.795 -1.93466 5.54837 0
M  V30 2003 H 197.319 -2.85481 5.39753 0
M  V30 2004 H 198.733 -0.603752 5.70112 0
M  V30 2005 H 197.13 0.128968 5.99961 0
M  V30 2006 H 198.2 0.837052 4.77621 0
M  V30 2007 N 199.544 -1.57102 0.125237 0
M  V30 2008 C 200.772 -1.99761 -0.538797 0
M  V30 2009 C 201.187 -1.00503 -1.59827 0
M  V30 2010 O 200.544 0.00119474 -1.825 0
M  V30 2011 C 200.595 -3.42408 -1.15927 0
M  V30 2012 O 200.316 -4.37869 -0.142143 0
M  V30 2013 C 201.817 -4.00232 -1.90602 0
M  V30 2014 H 199.037 -0.655772 -0.14214 0
M  V30 2015 H 201.581 -2.03383 0.213413 0
M  V30 2016 H 199.736 -3.39706 -1.86223 0
M  V30 2017 H 200.15 -5.21128 -0.593775 0
M  V30 2018 H 201.624 -5.02105 -2.29335 0
M  V30 2019 H 202.101 -3.39721 -2.78363 0
M  V30 2020 H 202.707 -4.06499 -1.25055 0
M  V30 2021 N 201.022 0.148545 -1.56898 0
M  V30 2022 C 201.932 1.20293 -2.01412 0
M  V30 2023 C 202.948 1.47107 -0.929273 0
M  V30 2024 O 204.124 1.58807 -1.23863 0
M  V30 2025 C 201.189 2.51682 -2.38447 0
M  V30 2026 C 200.25 2.32529 -3.60872 0
M  V30 2027 C 199.483 3.57653 -3.96132 0
M  V30 2028 O 199.706 4.63771 -3.32073 0
M  V30 2029 O 198.64 3.50408 -4.89385 0
M  V30 2030 H 202.466 0.855025 -2.91416 0
M  V30 2031 H 200.051 0.357151 -1.45068 0
M  V30 2032 H 201.933 3.29147 -2.63135 0
M  V30 2033 H 200.608 2.86006 -1.51599 0
M  V30 2034 H 199.515 1.53019 -3.41373 0
M  V30 2035 H 200.848 2.03121 -4.48333 0
M  V30 2036 N 202.5 1.5196 0.417844 0
M  V30 2037 C 203.911 1.57851 0.997 0
M  V30 2038 C 204.262 0.413714 1.91789 0
M  V30 2039 O 203.387 -0.467057 2.113 0
M  V30 2040 C 203.982 2.86085 1.81496 0
M  V30 2041 C 202.541 2.94483 2.34428 0
M  V30 2042 C 201.688 2.52707 1.14169 0
M  V30 2043 H 204.639 1.57455 0.198392 0
M  V30 2044 H 204.66 2.70947 2.67148 0
M  V30 2045 H 204.172 3.70842 1.14446 0
M  V30 2046 H 202.273 2.142 3.04875 0
M  V30 2047 H 202.386 3.98546 2.65891 0
M  V30 2048 H 200.75 2.06353 1.49301 0
M  V30 2049 H 201.533 3.39828 0.486999 0
M  V30 2050 N 203.978 -0.674533 1.42435 0
M  V30 2051 C 204.908 -1.80009 1.48724 0
M  V30 2052 C 205.889 -1.6659 0.343793 0
M  V30 2053 O 207.074 -1.86007 0.558137 0
M  V30 2054 C 204.204 -3.18306 1.38919 0
M  V30 2055 C 203.158 -3.46461 2.51294 0
M  V30 2056 C 202.484 -4.84335 2.26547 0
M  V30 2057 C 203.784 -3.43328 3.93603 0
M  V30 2058 H 205.478 -1.75004 2.42928 0
M  V30 2059 H 203.024 -0.840533 1.16923 0
M  V30 2060 H 204.977 -3.9678 1.41927 0
M  V30 2061 H 203.701 -3.2399 0.412094 0
M  V30 2062 H 202.36 -2.70348 2.47604 0
M  V30 2063 H 202.008 -4.86669 1.2713 0
M  V30 2064 H 201.708 -5.04136 3.01861 0
M  V30 2065 H 203.232 -5.65094 2.31304 0
M  V30 2066 H 204.646 -4.11772 3.98894 0
M  V30 2067 H 203.043 -3.74664 4.68771 0
M  V30 2068 H 204.113 -2.41897 4.20255 0
M  V30 2069 N 205.456 -1.28612 -0.910864 0
M  V30 2070 C 206.389 -1.07109 -2.01502 0
M  V30 2071 C 207.367 0.013706 -1.62594 0
M  V30 2072 O 208.551 -0.134796 -1.88017 0
M  V30 2073 C 205.678 -0.628255 -3.32822 0
M  V30 2074 C 204.724 -1.71012 -3.90714 0
M  V30 2075 S 205.557 -3.30676 -4.21205 0
M  V30 2076 C 206.713 -2.88234 -5.55583 0
M  V30 2077 H 206.946 -2.00591 -2.19432 0
M  V30 2078 H 204.479 -1.12633 -1.05609 0
M  V30 2079 H 206.437 -0.37946 -4.08742 0
M  V30 2080 H 205.098 0.28678 -3.12788 0
M  V30 2081 H 204.291 -1.35195 -4.85529 0
M  V30 2082 H 203.893 -1.91186 -3.21441 0
M  V30 2083 H 206.185 -2.34584 -6.35591 0
M  V30 2084 H 207.128 -3.81857 -5.96314 0
M  V30 2085 H 207.536 -2.26862 -5.16908 0
M  V30 2086 N 206.934 1.1197 -1.10907 0
M  V30 2087 C 207.844 2.21433 -0.774896 0
M  V30 2088 C 208.86 1.72478 0.229657 0
M  V30 2089 O 210.036 2.01288 0.0672008 0
M  V30 2090 C 207.101 3.4602 -0.216986 0
M  V30 2091 C 206.162 4.09791 -1.27944 0
M  V30 2092 C 205.395 5.28431 -0.748055 0
M  V30 2093 O 205.618 5.68823 0.423833 0
M  V30 2094 O 204.552 5.82644 -1.51027 0
M  V30 2095 H 208.378 2.5242 -1.68873 0
M  V30 2096 H 205.963 1.20399 -0.884555 0
M  V30 2097 H 207.845 4.21304 0.090059 0
M  V30 2098 H 206.52 3.16698 0.669633 0
M  V30 2099 H 205.427 3.36265 -1.63941 0
M  V30 2100 H 206.76 4.4328 -2.13925 0
M  V30 2101 N 208.412 0.89855 1.29475 0
M  V30 2102 C 209.344 0.332726 2.26772 0
M  V30 2103 C 210.357 -0.520323 1.54261 0
M  V30 2104 O 211.546 -0.337668 1.75277 0
M  V30 2105 C 208.646 -0.544334 3.345 0
M  V30 2106 C 207.819 0.282728 4.36485 0
M  V30 2107 C 206.878 -0.526982 5.23555 0
M  V30 2108 O 205.904 0.0551165 5.69173 0
M  V30 2109 N 207.106 -1.83331 5.5079 0
M  V30 2110 H 209.871 1.16897 2.75962 0
M  V30 2111 H 207.432 0.762919 1.42798 0
M  V30 2112 H 209.424 -1.09239 3.89678 0
M  V30 2113 H 207.994 -1.28127 2.85136 0
M  V30 2114 H 207.214 1.01221 3.80983 0
M  V30 2115 H 208.502 0.84918 5.01664 0
M  V30 2116 H 207.9 -2.32898 5.15534 0
M  V30 2117 H 206.457 -2.32852 6.08788 0
M  V30 2118 N 209.89 -1.43072 0.660911 0
M  V30 2119 C 211.136 -2.0202 0.177708 0
M  V30 2120 C 211.469 -1.52066 -1.20787 0
M  V30 2121 O 210.744 -0.716987 -1.80802 0
M  V30 2122 C 211.027 -3.59561 0.197019 0
M  V30 2123 C 210.88 -4.19727 1.61706 0
M  V30 2124 C 212.199 -4.37664 -0.462396 0
M  V30 2125 H 209.318 -0.734034 0.0660494 0
M  V30 2126 H 211.96 -1.70272 0.843058 0
M  V30 2127 H 210.11 -3.86739 -0.369527 0
M  V30 2128 H 211.782 -4.03553 2.23479 0
M  V30 2129 H 210.025 -3.76084 2.16201 0
M  V30 2130 H 210.696 -5.28834 1.58237 0
M  V30 2131 H 213.172 -4.16095 0.0197215 0
M  V30 2132 H 212.048 -5.47305 -0.418188 0
M  V30 2133 H 212.309 -4.14493 -1.53778 0
M  V30 2134 N 211.368 -0.403325 -1.52352 0
M  V30 2135 C 212.616 0.174003 -2.0135 0
M  V30 2136 C 212.937 1.46139 -1.29106 0
M  V30 2137 O 212.207 1.91448 -0.415253 0
M  V30 2138 H 210.787 0.0672911 -0.743963 0
M  V30 2139 H 213.449 -0.538235 -1.87321 0
M  V30 2140 H 212.545 0.374254 -3.09848 0
M  V30 2141 N 212.846 1.57033 -0.133567 0
M  V30 2142 C 214.074 2.00044 0.528195 0
M  V30 2143 C 214.489 1.01349 1.59291 0
M  V30 2144 O 213.846 0.00848369 1.82498 0
M  V30 2145 C 213.897 3.43018 1.1411 0
M  V30 2146 O 213.618 4.37939 0.11892 0
M  V30 2147 C 215.119 4.01237 1.88477 0
M  V30 2148 H 212.339 0.656517 0.138661 0
M  V30 2149 H 214.883 2.03267 -0.224196 0
M  V30 2150 H 213.038 3.40688 1.84418 0
M  V30 2151 H 213.452 5.21436 0.56613 0
M  V30 2152 H 214.926 5.03314 2.26669 0
M  V30 2153 H 215.403 3.41193 2.76558 0
M  V30 2154 H 216.009 4.07156 1.22898 0
M  V30 2155 N 214.325 -0.140222 1.56975 0
M  V30 2156 C 215.235 -1.19223 2.02047 0
M  V30 2157 C 216.251 -1.46612 0.937062 0
M  V30 2158 O 217.427 -1.58148 1.24704 0
M  V30 2159 C 214.492 -2.50414 2.39778 0
M  V30 2160 C 213.553 -2.30612 3.621 0
M  V30 2161 C 212.786 -3.55547 3.98023 0
M  V30 2162 O 213.009 -4.62004 3.34528 0
M  V30 2163 O 211.943 -3.47808 4.91237 0
M  V30 2164 H 215.769 -0.839559 2.91865 0
M  V30 2165 H 213.354 -0.349453 1.45256 0
M  V30 2166 H 215.236 -3.27747 2.64877 0
M  V30 2167 H 213.911 -2.85198 1.53114 0
M  V30 2168 H 212.818 -1.51207 3.4218 0
M  V30 2169 H 214.151 -2.00741 4.49404 0
M  V30 2170 N 215.803 -1.52179 -0.40978 0
M  V30 2171 C 216.713 -1.78364 -1.52392 0
M  V30 2172 C 217.729 -0.669183 -1.60617 0
M  V30 2173 O 218.905 -0.954518 -1.77344 0
M  V30 2174 C 215.97 -1.92822 -2.88133 0
M  V30 2175 C 215.031 -3.16725 -2.898 0
M  V30 2176 C 214.264 -3.30483 -4.19067 0
M  V30 2177 O 214.487 -2.49522 -5.12928 0
M  V30 2178 O 213.421 -4.2363 -4.27576 0
M  V30 2179 H 217.247 -2.72931 -1.33201 0
M  V30 2180 H 214.832 -1.37016 -0.59557 0
M  V30 2181 H 216.714 -2.04157 -3.68643 0
M  V30 2182 H 215.389 -1.01444 -3.07393 0
M  V30 2183 H 214.296 -3.10848 -2.08146 0
M  V30 2184 H 215.629 -4.07881 -2.75489 0
M  V30 2185 N 217.281 0.66697 -1.42791 0
M  V30 2186 C 218.528 1.42699 -1.43678 0
M  V30 2187 C 218.856 1.94419 -0.0560425 0
M  V30 2188 O 218.111 1.7182 0.936831 0
M  V30 2189 C 218.41 2.6349 -2.4147 0
M  V30 2190 C 218.076 2.30267 -3.8767 0
M  V30 2191 C 216.738 2.20918 -4.27491 0
M  V30 2192 C 219.09 2.03435 -4.79858 0
M  V30 2193 C 216.418 1.82873 -5.57471 0
M  V30 2194 C 218.77 1.66892 -6.10188 0
M  V30 2195 C 217.434 1.56058 -6.49001 0
M  V30 2196 H 216.704 0.522171 -0.525755 0
M  V30 2197 H 219.351 0.759785 -1.75783 0
M  V30 2198 H 217.656 3.35279 -2.0272 0
M  V30 2199 H 219.353 3.21684 -2.39417 0
M  V30 2200 H 215.943 2.38449 -3.56146 0
M  V30 2201 H 220.127 2.09586 -4.49875 0
M  V30 2202 H 215.383 1.7306 -5.86396 0
M  V30 2203 H 219.557 1.45157 -6.81104 0
M  V30 2204 H 217.184 1.26348 -7.49627 0
M  V30 2205 N 218.759 1.29093 0.90403 0
M  V30 2206 C 220.008 1.16187 1.64874 0
M  V30 2207 C 220.321 -0.286742 1.93487 0
M  V30 2208 O 221.527 -0.537062 2.66135 0
M  V30 2209 C 219.983 2.03177 2.97064 0
M  V30 2210 C 219.591 3.52836 2.76062 0
M  V30 2211 C 221.335 1.98984 3.74974 0
M  V30 2212 C 219.242 4.31945 4.03952 0
M  V30 2213 H 218.172 0.431246 0.618501 0
M  V30 2214 H 220.823 1.53699 1.00243 0
M  V30 2215 H 219.205 1.5853 3.62883 0
M  V30 2216 H 220.379 4.05507 2.18863 0
M  V30 2217 H 218.694 3.58656 2.11553 0
M  V30 2218 H 221.291 2.55351 4.69787 0
M  V30 2219 H 221.634 0.968815 4.0487 0
M  V30 2220 H 222.167 2.41652 3.15989 0
M  V30 2221 H 218.906 5.34667 3.79225 0
M  V30 2222 H 218.426 3.84045 4.60727 0
M  V30 2223 H 220.105 4.42379 4.72133 0
M  V30 2224 N 220.237 -1.11381 1.11499 0
M  V30 2225 C 221.184 -2.17439 0.773887 0
M  V30 2226 C 222.154 -1.64132 -0.254899 0
M  V30 2227 O 223.339 -1.90345 -0.13168 0
M  V30 2228 C 220.479 -3.44373 0.223917 0
M  V30 2229 C 219.592 -4.1168 1.30934 0
M  V30 2230 C 218.727 -5.263 0.71984 0
M  V30 2231 C 217.766 -5.85493 1.78507 0
M  V30 2232 N 216.903 -6.91507 1.21502 0
M  V30 2233 H 221.743 -2.45962 1.68246 0
M  V30 2234 H 219.28 -1.20744 0.840191 0
M  V30 2235 H 221.238 -4.17047 -0.112921 0
M  V30 2236 H 219.868 -3.16232 -0.647851 0
M  V30 2237 H 218.92 -3.37073 1.76312 0
M  V30 2238 H 220.232 -4.51729 2.11524 0
M  V30 2239 H 219.386 -6.05785 0.333094 0
M  V30 2240 H 218.125 -4.87559 -0.117377 0
M  V30 2241 H 217.13 -5.04686 2.18111 0
M  V30 2242 H 218.355 -6.26301 2.62533 0
M  V30 2243 H 216.301 -6.54783 0.399455 0
M  V30 2244 H 216.218 -7.30214 1.95763 0
M  V30 2245 H 217.486 -7.74795 0.855181 0
M  V30 2246 N 221.715 -0.905404 -1.28997 0
M  V30 2247 C 223.131 -0.60233 -1.47798 0
M  V30 2248 C 223.331 0.854645 -1.82478 0
M  V30 2249 O 222.387 1.63439 -1.92468 0
M  V30 2250 C 223.7 -1.53306 -2.58685 0
M  V30 2251 C 225.248 -1.53887 -2.72558 0
M  V30 2252 C 225.723 -2.45602 -3.86579 0
M  V30 2253 N 227.214 -2.43681 -3.93921 0
M  V30 2254 C 227.949 -3.11347 -4.81509 0
M  V30 2255 N 227.445 -3.88313 -5.73746 0
M  V30 2256 N 229.238 -3.00476 -4.75048 0
M  V30 2257 H 221.389 -1.84765 -1.04764 0
M  V30 2258 H 223.652 -0.792025 -0.520961 0
M  V30 2259 H 223.358 -2.57141 -2.39941 0
M  V30 2260 H 223.232 -1.25787 -3.55609 0
M  V30 2261 H 225.619 -0.507941 -2.90696 0
M  V30 2262 H 225.7 -1.85447 -1.76191 0
M  V30 2263 H 225.344 -3.48792 -3.69197 0
M  V30 2264 H 225.274 -2.11349 -4.82327 0
M  V30 2265 H 227.765 -1.87767 -3.27951 0
M  V30 2266 H 228.078 -4.36985 -6.37389 0
M  V30 2267 H 226.423 -3.92419 -5.73614 0
M  V30 2268 H 229.614 -2.39858 -4.01977 0
M  V30 2269 H 229.787 -3.53485 -5.43095 0
M  V30 2270 N 223.193 1.4272 -0.668489 0
M  V30 2271 C 224.44 2.01624 -0.18814 0
M  V30 2272 C 224.768 1.5282 1.20317 0
M  V30 2273 O 224.023 0.718323 1.8204 0
M  V30 2274 C 224.322 3.57021 -0.164499 0
M  V30 2275 C 223.988 4.25232 -1.49962 0
M  V30 2276 C 222.65 4.4358 -1.8652 0
M  V30 2277 C 225.002 4.63727 -2.37921 0
M  V30 2278 C 222.33 4.97694 -3.10674 0
M  V30 2279 C 224.682 5.19218 -3.6138 0
M  V30 2280 C 223.346 5.3578 -3.98115 0
M  V30 2281 H 222.616 0.737795 -0.0688454 0
M  V30 2282 H 225.263 1.70991 -0.862225 0
M  V30 2283 H 223.568 3.87285 0.593079 0
M  V30 2284 H 225.265 4.00372 0.224271 0
M  V30 2285 H 221.855 4.11306 -1.20522 0
M  V30 2286 H 226.039 4.4923 -2.10964 0
M  V30 2287 H 221.295 5.08702 -3.39164 0
M  V30 2288 H 225.469 5.4799 -4.29743 0
M  V30 2289 H 223.096 5.77475 -4.94395 0
M  V30 2290 N 224.671 0.411399 1.52136 0
M  V30 2291 C 225.919 -0.163322 2.01439 0
M  V30 2292 C 226.24 -1.45453 1.29879 0
M  V30 2293 O 225.51 -1.91225 0.4254 0
M  V30 2294 H 224.09 -0.0633447 0.744309 0
M  V30 2295 H 226.752 0.548161 1.87033 0
M  V30 2296 H 225.848 -0.357817 3.10042 0
M  V30 2297 N 226.149 -1.5696 0.141893 0
M  V30 2298 C 227.426 -1.87553 -0.555281 0
M  V30 2299 C 227.806 -1.04699 -1.83306 0
M  V30 2300 O 227.154 -0.132346 -2.28116 0
M  V30 2301 C 227.364 -3.39093 -0.825664 0
M  V30 2302 C 228.712 -4.08199 -1.16869 0
M  V30 2303 O 229.736 -3.44242 -0.915185 0
M  V30 2304 O 228.595 -5.21139 -1.6455 0
M  V30 2305 H 225.689 -0.777188 -0.282679 0
M  V30 2306 H 228.235 -1.68763 0.17812 0
M  V30 2307 H 227.007 -3.91221 0.0788633 0
M  V30 2308 H 226.63 -3.63393 -1.61343 0
M  V30 2309 N 227.627 0.131896 -1.57047 0
M  V30 2310 C 228.875 0.840269 -1.83804 0
M  V30 2311 C 229.196 1.81017 -0.72512 0
M  V30 2312 O 228.466 1.94272 0.251995 0
M  V30 2313 H 227.046 0.313294 -0.678127 0
M  V30 2314 H 229.708 0.122294 -1.94516 0
M  V30 2315 H 228.804 1.39335 -2.79271 0
M  V30 2316 N 229.106 1.52395 0.401703 0
M  V30 2317 C 230.069 1.75636 1.47257 0
M  V30 2318 C 231.069 0.62628 1.48103 0
M  V30 2319 O 232.259 0.894227 1.49497 0
M  V30 2320 C 229.391 1.84553 2.86624 0
M  V30 2321 H 230.584 2.71241 1.27938 0
M  V30 2322 H 228.137 1.42923 0.632662 0
M  V30 2323 H 228.872 0.908882 3.11303 0
M  V30 2324 H 228.657 2.66715 2.87412 0
M  V30 2325 H 230.147 2.04251 3.64241 0
M  V30 2326 N 230.584 -0.659388 1.43143 0
M  V30 2327 C 231.809 -1.45221 1.48073 0
M  V30 2328 C 232.234 -1.87845 0.097995 0
M  V30 2329 O 231.592 -1.56985 -0.90694 0
M  V30 2330 C 231.64 -2.66748 2.42647 0
M  V30 2331 O 230.744 -3.65583 1.90848 0
M  V30 2332 H 230.085 -0.435669 0.501088 0
M  V30 2333 H 232.615 -0.807432 1.87994 0
M  V30 2334 H 232.625 -3.14637 2.59745 0
M  V30 2335 H 231.3 -2.35067 3.43098 0
M  V30 2336 H 229.877 -3.24693 1.83381 0
M  V30 2337 N 232.062 -1.29571 -0.897171 0
M  V30 2338 C 233.478 -1.07637 -1.17841 0
M  V30 2339 C 233.678 0.170713 -2.00776 0
M  V30 2340 O 232.734 0.867768 -2.3712 0
M  V30 2341 C 234.047 -2.3332 -1.8969 0
M  V30 2342 C 235.595 -2.38664 -2.02505 0
M  V30 2343 C 236.07 -3.64157 -2.77765 0
M  V30 2344 N 237.561 -3.64894 -2.85318 0
M  V30 2345 C 238.296 -4.58679 -3.44094 0
M  V30 2346 N 237.792 -5.62799 -4.04017 0
M  V30 2347 N 239.585 -4.46245 -3.41793 0
M  V30 2348 H 231.736 -2.09598 -0.343883 0
M  V30 2349 H 233.999 -0.923333 -0.214848 0
M  V30 2350 H 233.705 -3.24262 -1.36187 0
M  V30 2351 H 233.579 -2.41025 -2.9015 0
M  V30 2352 H 235.966 -1.48208 -2.55183 0
M  V30 2353 H 236.047 -2.34943 -1.01171 0
M  V30 2354 H 235.691 -4.54965 -2.25763 0
M  V30 2355 H 235.621 -3.65137 -3.7945 0
M  V30 2356 H 238.112 -2.89613 -2.42761 0
M  V30 2357 H 238.425 -6.3048 -4.46895 0
M  V30 2358 H 236.77 -5.66605 -4.02472 0
M  V30 2359 H 239.961 -3.64094 -2.94199 0
M  V30 2360 H 240.134 -5.19518 -3.87304 0
M  V30 2361 N 233.54 1.10788 -1.12088 0
M  V30 2362 C 234.786 1.82942 -0.875226 0
M  V30 2363 C 235.119 1.84779 0.597538 0
M  V30 2364 O 234.394 1.30578 1.44152 0
M  V30 2365 C 234.677 3.29789 -1.44606 0
M  V30 2366 C 234.53 3.36307 -2.98693 0
M  V30 2367 C 235.849 4.26064 -1.10261 0
M  V30 2368 H 232.968 0.664195 -0.319397 0
M  V30 2369 H 235.61 1.29867 -1.38689 0
M  V30 2370 H 233.76 3.75118 -1.01089 0
M  V30 2371 H 235.432 2.99487 -3.50864 0
M  V30 2372 H 233.675 2.76318 -3.34411 0
M  V30 2373 H 234.346 4.39694 -3.33726 0
M  V30 2374 H 236.822 3.88951 -1.4784 0
M  V30 2375 H 235.698 5.27183 -1.52869 0
M  V30 2376 H 235.959 4.42098 -0.0142953 0
M  V30 2377 N 235.018 0.912232 1.28515 0
M  V30 2378 C 236.264 0.545405 1.95328 0
M  V30 2379 C 236.597 -0.908313 1.71649 0
M  V30 2380 O 235.872 -1.64575 1.03659 0
M  V30 2381 C 236.155 0.853483 3.4984 0
M  V30 2382 C 236.008 2.35982 3.82926 0
M  V30 2383 C 237.327 0.348589 4.38717 0
M  V30 2384 H 234.446 0.199626 0.709449 0
M  V30 2385 H 237.088 1.1412 1.5191 0
M  V30 2386 H 235.238 0.34643 3.86952 0
M  V30 2387 H 236.91 2.93738 3.55691 0
M  V30 2388 H 235.153 2.81543 3.30024 0
M  V30 2389 H 235.824 2.52593 4.90816 0
M  V30 2390 H 238.3 0.78294 4.08668 0
M  V30 2391 H 237.176 0.593242 5.45685 0
M  V30 2392 H 237.437 -0.751049 4.35674 0
M  V30 2393 N 236.496 -1.42363 0.676048 0
M  V30 2394 C 237.426 -2.33497 0.0124832 0
M  V30 2395 C 238.407 -1.50748 -0.787981 0
M  V30 2396 O 239.592 -1.79346 -0.744884 0
M  V30 2397 C 236.722 -3.34377 -0.938582 0
M  V30 2398 C 235.676 -4.27289 -0.246622 0
M  V30 2399 C 235.002 -5.18386 -1.31071 0
M  V30 2400 C 236.302 -5.14916 0.875125 0
M  V30 2401 H 237.996 -2.89233 0.773593 0
M  V30 2402 H 235.542 -1.39073 0.37346 0
M  V30 2403 H 237.495 -3.97044 -1.41188 0
M  V30 2404 H 236.219 -2.76947 -1.73113 0
M  V30 2405 H 234.878 -3.66018 0.206456 0
M  V30 2406 H 234.526 -4.57282 -2.09528 0
M  V30 2407 H 234.226 -5.81378 -0.852839 0
M  V30 2408 H 235.75 -5.83929 -1.78492 0
M  V30 2409 H 237.164 -5.71262 0.482983 0
M  V30 2410 H 235.561 -5.86747 1.25887 0
M  V30 2411 H 236.631 -4.53242 1.72335 0
M  V30 2412 N 237.974 -0.419461 -1.51915 0
M  V30 2413 C 239.199 0.154572 -2.06823 0
M  V30 2414 C 239.624 1.3722 -1.28656 0
M  V30 2415 O 238.982 1.78461 -0.319583 0
M  V30 2416 C 239.03 0.473172 -3.57482 0
M  V30 2417 O 238.134 1.56255 -3.81652 0
M  V30 2418 H 237.475 0.0096924 -0.663929 0
M  V30 2419 H 240.005 -0.595642 -1.95738 0
M  V30 2420 H 240.015 0.728825 -4.01438 0
M  V30 2421 H 238.69 -0.416873 -4.13805 0
M  V30 2422 H 237.267 1.29825 -3.49571 0
M  V30 2423 N 239.452 1.56882 -0.150215 0
M  V30 2424 C 240.382 2.19935 0.784284 0
M  V30 2425 C 241.363 1.14854 1.25469 0
M  V30 2426 O 242.548 1.43209 1.31168 0
M  V30 2427 C 239.678 2.82349 2.02229 0
M  V30 2428 C 238.632 3.93285 1.68853 0
M  V30 2429 C 237.958 4.42649 2.99944 0
M  V30 2430 C 239.258 5.13904 0.932714 0
M  V30 2431 H 240.952 2.9828 0.258781 0
M  V30 2432 H 238.498 1.43473 0.123029 0
M  V30 2433 H 240.451 3.25126 2.68088 0
M  V30 2434 H 239.175 2.0134 2.57157 0
M  V30 2435 H 237.834 3.5113 1.05371 0
M  V30 2436 H 237.482 3.58458 3.52869 0
M  V30 2437 H 237.182 5.17476 2.78374 0
M  V30 2438 H 238.706 4.88099 3.66868 0
M  V30 2439 H 240.12 5.53506 1.49345 0
M  V30 2440 H 238.517 5.94515 0.81684 0
M  V30 2441 H 239.587 4.84842 -0.0749568 0
M  V30 2442 N 240.93 -0.123565 1.57115 0
M  V30 2443 C 242.341 -0.681198 1.73829 0
M  V30 2444 C 242.692 -1.80535 0.768214 0
M  V30 2445 O 241.817 -2.16317 -0.0599103 0
M  V30 2446 C 242.412 -1.24246 3.15196 0
M  V30 2447 C 240.971 -1.74643 3.33432 0
M  V30 2448 C 240.118 -0.644284 2.69711 0
M  V30 2449 H 243.069 0.102315 1.5837 0
M  V30 2450 H 243.09 -2.11216 3.16493 0
M  V30 2451 H 242.602 -0.424062 3.85776 0
M  V30 2452 H 240.703 -2.58974 2.67886 0
M  V30 2453 H 240.816 -1.85902 4.41562 0
M  V30 2454 H 239.18 -1.07676 2.3082 0
M  V30 2455 H 239.963 0.163058 3.42913 0
M  V30 2456 N 242.408 -1.52605 -0.393616 0
M  V30 2457 C 243.655 -1.67424 -1.1391 0
M  V30 2458 C 243.983 -0.411859 -1.90089 0
M  V30 2459 O 243.238 0.605626 -1.86093 0
M  V30 2460 C 243.537 -2.85721 -2.14705 0
M  V30 2461 C 243.203 -4.23342 -1.55218 0
M  V30 2462 C 241.865 -4.60771 -1.3872 0
M  V30 2463 C 244.217 -5.09041 -1.11924 0
M  V30 2464 C 241.545 -5.81563 -0.774689 0
M  V30 2465 C 243.897 -6.30452 -0.520853 0
M  V30 2466 C 242.561 -6.66617 -0.343134 0
M  V30 2467 H 241.831 -0.612648 -0.416826 0
M  V30 2468 H 244.478 -1.8674 -0.424315 0
M  V30 2469 H 242.783 -2.60803 -2.92385 0
M  V30 2470 H 244.48 -2.94382 -2.72288 0
M  V30 2471 H 241.07 -3.93855 -1.69045 0
M  V30 2472 H 245.254 -4.80695 -1.23473 0
M  V30 2473 H 240.51 -6.08196 -0.625154 0
M  V30 2474 H 244.684 -6.96175 -0.177065 0
M  V30 2475 H 242.311 -7.60083 0.133571 0
M  V30 2476 N 243.887 0.651787 -1.4349 0
M  V30 2477 C 244.85 1.74647 -1.48429 0
M  V30 2478 C 245.85 1.56513 -0.368817 0
M  V30 2479 O 247.04 1.62385 -0.630623 0
M  V30 2480 C 244.172 3.13533 -1.33827 0
M  V30 2481 H 245.365 1.71649 -2.4592 0
M  V30 2482 H 242.918 0.863573 -1.30277 0
M  V30 2483 H 243.653 3.22142 -0.37349 0
M  V30 2484 H 243.438 3.28101 -2.14691 0
M  V30 2485 H 244.928 3.93356 -1.40218 0
M  V30 2486 N 245.365 1.30045 0.890287 0
M  V30 2487 C 246.275 1.17885 2.02831 0
M  V30 2488 C 247.291 0.0999609 1.73713 0
M  V30 2489 O 248.467 0.313867 1.98939 0
M  V30 2490 C 245.532 0.866079 3.35708 0
M  V30 2491 C 244.593 2.02979 3.78283 0
M  V30 2492 C 243.826 1.73184 5.0482 0
M  V30 2493 O 244.049 0.657237 5.66601 0
M  V30 2494 O 242.983 2.58267 5.43674 0
M  V30 2495 H 246.809 2.13474 2.16015 0
M  V30 2496 H 244.394 1.09587 1.01543 0
M  V30 2497 H 246.276 0.706623 4.15433 0
M  V30 2498 H 244.951 -0.0599443 3.23644 0
M  V30 2499 H 243.858 2.24454 2.99285 0
M  V30 2500 H 245.191 2.93734 3.94944 0
M  V30 2501 N 246.843 -1.10192 1.12674 0
M  V30 2502 C 248.091 -1.81845 0.881861 0
M  V30 2503 C 248.412 -1.85737 -0.593867 0
M  V30 2504 O 247.682 -1.33724 -1.4316 0
M  V30 2505 H 246.262 -0.673432 0.323261 0
M  V30 2506 H 248.924 -1.33316 1.42172 0
M  V30 2507 H 248.02 -2.85288 1.2656 0
M  V30 2508 N 248.321 -0.919034 -1.28029 0
M  V30 2509 C 249.546 -0.570357 -1.99403 0
M  V30 2510 C 249.971 0.842486 -1.68178 0
M  V30 2511 O 249.329 1.56391 -0.917141 0
M  V30 2512 C 249.377 -0.792541 -3.51783 0
M  V30 2513 O 248.481 0.145988 -4.12142 0
M  V30 2514 H 247.822 -0.220555 -0.6263 0
M  V30 2515 H 250.352 -1.23592 -1.63053 0
M  V30 2516 H 250.362 -0.704708 -4.01868 0
M  V30 2517 H 249.037 -1.82247 -3.73844 0
M  V30 2518 H 247.614 0.00897528 -3.72899 0
M  V30 2519 N 249.799 1.42003 -0.683588 0
M  V30 2520 C 251.024 2.06265 -0.216647 0
M  V30 2521 C 251.449 1.51059 1.12083 0
M  V30 2522 O 250.807 0.632638 1.69904 0
M  V30 2523 C 250.855 3.60191 -0.171759 0
M  V30 2524 O 249.959 4.03396 0.857069 0
M  V30 2525 H 249.3 0.65502 -0.108834 0
M  V30 2526 H 251.83 1.81982 -0.935077 0
M  V30 2527 H 251.84 4.08 0.0014303 0
M  V30 2528 H 250.515 3.99743 -1.14796 0
M  V30 2529 H 249.092 3.67117 0.654208 0
M  V30 2530 N 251.277 0.427512 1.51691 0
M  V30 2531 C 252.502 -0.143601 2.06902 0
M  V30 2532 C 252.927 -1.36536 1.29382 0
M  V30 2533 O 252.285 -1.78289 0.329043 0
M  V30 2534 C 252.333 -0.454207 3.57728 0
M  V30 2535 O 251.437 -1.54228 3.82475 0
M  V30 2536 H 250.778 -0.00617128 0.663971 0
M  V30 2537 H 253.308 0.606014 1.95419 0
M  V30 2538 H 253.318 -0.707525 4.01818 0
M  V30 2539 H 251.993 0.438812 4.13579 0
M  V30 2540 H 250.57 -1.2797 3.50254 0
M  V30 2541 N 252.755 -1.56801 0.158532 0
M  V30 2542 C 254.001 -1.96781 -0.490405 0
M  V30 2543 C 254.334 -1.04397 -1.63753 0
M  V30 2544 O 253.609 -0.0885805 -1.94298 0
M  V30 2545 C 253.892 -3.4635 -0.985594 0
M  V30 2546 C 253.745 -4.49512 0.160824 0
M  V30 2547 C 255.064 -3.98697 -1.86355 0
M  V30 2548 H 252.183 -0.715482 -0.176788 0
M  V30 2549 H 254.825 -1.88451 0.242088 0
M  V30 2550 H 252.975 -3.53579 -1.60978 0
M  V30 2551 H 254.647 -4.54353 0.797537 0
M  V30 2552 H 252.89 -4.26013 0.818256 0
M  V30 2553 H 253.561 -5.51531 -0.227569 0
M  V30 2554 H 256.037 -3.94019 -1.33746 0
M  V30 2555 H 254.913 -5.03792 -2.17909 0
M  V30 2556 H 255.174 -3.41744 -2.8047 0
M  V30 2557 N 254.233 0.115231 -1.57178 0
M  V30 2558 C 255.143 1.15994 -2.03918 0
M  V30 2559 C 256.159 1.45103 -0.960268 0
M  V30 2560 O 257.335 1.56144 -1.27204 0
M  V30 2561 C 254.4 2.46568 -2.43732 0
M  V30 2562 C 253.461 2.24822 -3.65723 0
M  V30 2563 C 252.694 3.4917 -4.03629 0
M  V30 2564 O 252.917 4.56623 -3.41835 0
M  V30 2565 O 251.851 3.39949 -4.96708 0
M  V30 2566 H 255.677 0.793019 -2.93164 0
M  V30 2567 H 253.262 0.3263 -1.45793 0
M  V30 2568 H 255.144 3.23492 -2.70057 0
M  V30 2569 H 253.819 2.82726 -1.57631 0
M  V30 2570 H 252.726 1.45744 -3.44542 0
M  V30 2571 H 254.059 1.93566 -4.52541 0
M  V30 2572 N 255.711 1.52812 0.385517 0
M  V30 2573 C 256.941 1.71658 1.14966 0
M  V30 2574 C 257.349 0.436253 1.84102 0
M  V30 2575 O 256.692 -0.599313 1.73649 0
M  V30 2576 C 256.754 2.81309 2.23843 0
M  V30 2577 C 256.418 4.22313 1.74644 0
M  V30 2578 C 257.415 5.05352 1.22129 0
M  V30 2579 C 255.1 4.68648 1.80761 0
M  V30 2580 C 257.094 6.32807 0.763838 0
M  V30 2581 C 254.781 5.96086 1.34627 0
M  V30 2582 C 255.779 6.77996 0.825264 0
M  V30 2583 O 255.467 8.03045 0.370669 0
M  V30 2584 H 255.199 0.578022 0.350523 0
M  V30 2585 H 257.753 2.00263 0.456509 0
M  V30 2586 H 255.983 2.48133 2.96592 0
M  V30 2587 H 257.672 2.88524 2.85497 0
M  V30 2588 H 258.438 4.70736 1.16758 0
M  V30 2589 H 254.317 4.04979 2.20256 0
M  V30 2590 H 257.861 6.96689 0.356494 0
M  V30 2591 H 253.758 6.30205 1.39686 0
M  V30 2592 H 254.526 8.17021 0.491829 0
M  V30 2593 N 257.189 -0.644168 1.43834 0
M  V30 2594 C 258.438 -1.39985 1.45214 0
M  V30 2595 C 258.751 -1.95421 0.0835494 0
M  V30 2596 O 259.957 -2.71488 -0.0251748 0
M  V30 2597 C 258.413 -2.53384 2.55587 0
M  V30 2598 C 258.021 -2.04517 3.98594 0
M  V30 2599 C 259.765 -3.30685 2.66172 0
M  V30 2600 C 257.672 -3.1518 5.00416 0
M  V30 2601 H 256.602 -0.526005 0.540218 0
M  V30 2602 H 259.253 -0.694367 1.69855 0
M  V30 2603 H 257.635 -3.26446 2.24163 0
M  V30 2604 H 258.809 -1.38405 4.39523 0
M  V30 2605 H 257.124 -1.40068 3.92135 0
M  V30 2606 H 259.721 -4.13158 3.39418 0
M  V30 2607 H 260.064 -3.79312 1.71546 0
M  V30 2608 H 260.597 -2.64708 2.96942 0
M  V30 2609 H 257.336 -2.71511 5.96625 0
M  V30 2610 H 256.856 -3.79974 4.64091 0
M  V30 2611 H 258.535 -3.80166 5.23529 0
M  V30 2612 N 258.668 -1.30515 -0.883378 0
M  V30 2613 C 259.616 -1.16941 -2.01066 0
M  V30 2614 C 260.61 -0.0809148 -1.69207 0
M  V30 2615 O 261.816 -0.241877 -1.78367 0
M  V30 2616 H 258.191 -0.361705 -0.659298 0
M  V30 2617 H 260.162 -2.12344 -2.09649 0
M  V30 2618 C 258.911 -0.879694 -3.36388 0
M  V30 2619 H 258.234 -1.70936 -3.61415 0
M  V30 2620 H 259.674 -0.82483 -4.159 0
M  V30 2621 C 258.133 0.417409 -3.34304 0
M  V30 2622 O 258.663 1.43843 -3.75063 0
M  V30 2623 N 256.869 0.429141 -2.87414 0
M  V30 2624 H 256.416 -0.402222 -2.5444 0
M  V30 2625 H 256.374 1.29696 -2.86403 0
M  V30 2626 N 260.146 1.09593 -1.13257 0
M  V30 2627 C 261.094 2.18271 -0.803783 0
M  V30 2628 C 262.088 1.68054 0.213148 0
M  V30 2629 O 263.294 1.79862 0.0704699 0
M  V30 2630 H 259.669 0.711949 -0.242143 0
M  V30 2631 H 261.64 2.43235 -1.72856 0
M  V30 2632 C 260.389 3.46536 -0.28424 0
M  V30 2633 H 259.712 3.85545 -1.05807 0
M  V30 2634 H 261.152 4.23899 -0.0925945 0
M  V30 2635 C 259.611 3.22036 0.989684 0
M  V30 2636 O 260.141 3.44509 2.06584 0
M  V30 2637 N 258.347 2.7565 0.920086 0
M  V30 2638 H 257.894 2.57562 0.0442019 0
M  V30 2639 H 257.852 2.59635 1.77306 0
M  V30 2640 N 261.624 0.925811 1.2754 0
M  V30 2641 C 262.87 0.575575 1.95086 0
M  V30 2642 C 263.225 -0.873246 1.71441 0
M  V30 2643 O 262.518 -1.61443 1.03183 0
M  V30 2644 C 262.712 0.835296 3.47502 0
M  V30 2645 C 262.541 2.30781 3.85967 0
M  V30 2646 C 261.311 2.96017 4.09514 0
M  V30 2647 C 263.509 3.28519 3.95702 0
M  V30 2648 N 261.491 4.3344 4.34744 0
M  V30 2649 C 262.862 4.51146 4.25285 0
M  V30 2650 C 264.917 3.23753 3.7827 0
M  V30 2651 C 263.62 5.69606 4.39251 0
M  V30 2652 C 265.646 4.41523 3.9346 0
M  V30 2653 C 265.008 5.62928 4.23428 0
M  V30 2654 H 261.107 0.260711 0.737261 0
M  V30 2655 H 263.691 1.19204 1.53943 0
M  V30 2656 H 261.862 0.248005 3.87607 0
M  V30 2657 H 263.594 0.447878 4.02214 0
M  V30 2658 H 260.349 2.46695 4.04275 0
M  V30 2659 H 260.773 5.04528 4.5142 0
M  V30 2660 H 265.415 2.3096 3.54143 0
M  V30 2661 H 263.133 6.62866 4.62205 0
M  V30 2662 H 266.719 4.39351 3.81394 0
M  V30 2663 H 265.599 6.52538 4.34929 0
M  V30 2664 N 263.102 -1.41638 0.69111 0
M  V30 2665 C 264.012 -2.34588 0.0233487 0
M  V30 2666 C 265.028 -1.55987 -0.770984 0
M  V30 2667 O 266.204 -1.88486 -0.709569 0
M  V30 2668 C 263.269 -3.34684 -0.904851 0
M  V30 2669 C 262.33 -4.29176 -0.103225 0
M  V30 2670 C 261.563 -5.2449 -0.987216 0
M  V30 2671 O 261.786 -5.2514 -2.22674 0
M  V30 2672 O 260.72 -6.00295 -0.439281 0
M  V30 2673 H 264.546 -2.93261 0.789416 0
M  V30 2674 H 262.131 -1.42417 0.45142 0
M  V30 2675 H 264.013 -3.96133 -1.43724 0
M  V30 2676 H 262.688 -2.78461 -1.65049 0
M  V30 2677 H 261.595 -3.71089 0.473655 0
M  V30 2678 H 262.928 -4.88484 0.60365 0
M  V30 2679 N 264.58 -0.43555 -1.51462 0
M  V30 2680 C 265.512 0.41257 -2.25456 0
M  V30 2681 C 266.525 0.987822 -1.29406 0
M  V30 2682 O 267.714 0.882266 -1.55172 0
M  V30 2683 C 264.814 1.58894 -2.99342 0
M  V30 2684 C 263.987 1.13288 -4.22474 0
M  V30 2685 C 263.046 2.17917 -4.78956 0
M  V30 2686 O 262.072 1.77425 -5.40841 0
M  V30 2687 N 263.274 3.50382 -4.62832 0
M  V30 2688 H 266.039 -0.221603 -2.9888 0
M  V30 2689 H 263.6 -0.264342 -1.59727 0
M  V30 2690 H 265.592 2.28508 -3.34015 0
M  V30 2691 H 264.162 2.12849 -2.28941 0
M  V30 2692 H 263.382 0.263881 -3.93316 0
M  V30 2693 H 264.67 0.805542 -5.02383 0
M  V30 2694 H 264.068 3.86013 -4.13534 0
M  V30 2695 H 262.625 4.15895 -5.01871 0
M  V30 2696 N 266.058 1.56714 -0.166846 0
M  V30 2697 C 267.021 2.16539 0.751232 0
M  V30 2698 C 268.021 1.11228 1.16125 0
M  V30 2699 O 269.211 1.36765 1.07894 0
M  V30 2700 C 266.343 2.74462 2.02196 0
M  V30 2701 H 267.536 2.99013 0.230499 0
M  V30 2702 H 265.089 1.56081 0.0826982 0
M  V30 2703 H 265.824 1.95709 2.58589 0
M  V30 2704 H 265.609 3.51527 1.73698 0
M  V30 2705 H 267.099 3.20489 2.67725 0
M  V30 2706 N 267.536 -0.106894 1.57237 0
M  V30 2707 C 268.483 -1.13049 2.01217 0
M  V30 2708 C 269.453 -1.40471 0.886403 0
M  V30 2709 O 270.638 -1.52133 1.15153 0
M  V30 2710 C 267.778 -2.4487 2.43172 0
M  V30 2711 C 266.891 -2.24281 3.69218 0
M  V30 2712 C 266.026 -3.49417 4.00101 0
M  V30 2713 C 265.065 -3.24038 5.19294 0
M  V30 2714 N 264.202 -4.41409 5.45988 0
M  V30 2715 H 269.042 -0.748456 2.88448 0
M  V30 2716 H 266.579 -0.358054 1.42676 0
M  V30 2717 H 268.537 -3.21786 2.65537 0
M  V30 2718 H 267.167 -2.80944 1.58967 0
M  V30 2719 H 266.219 -1.38224 3.54398 0
M  V30 2720 H 267.531 -2.01512 4.56283 0
M  V30 2721 H 266.685 -4.34746 4.2318 0
M  V30 2722 H 265.424 -3.75229 3.11535 0
M  V30 2723 H 264.429 -2.37102 4.96047 0
M  V30 2724 H 265.654 -2.99584 6.09447 0
M  V30 2725 H 263.6 -4.67319 4.60379 0
M  V30 2726 H 263.517 -4.21788 6.274 0
M  V30 2727 H 264.785 -5.27836 5.73593 0
M  V30 2728 N 269.014 -1.53014 -0.377408 0
M  V30 2729 C 269.977 -1.77957 -1.44444 0
M  V30 2730 C 270.977 -0.649763 -1.47087 0
M  V30 2731 O 272.167 -0.917897 -1.48055 0
M  V30 2732 C 269.299 -1.89089 -2.83651 0
M  V30 2733 H 270.492 -2.73243 -1.23606 0
M  V30 2734 H 268.045 -1.43912 -0.609844 0
M  V30 2735 H 268.78 -0.958293 -3.09818 0
M  V30 2736 H 268.565 -2.71254 -2.83132 0
M  V30 2737 H 270.055 -2.1002 -3.60945 0
M  V30 2738 N 270.492 0.636531 -1.44174 0
M  V30 2739 C 271.422 1.76003 -1.53444 0
M  V30 2740 C 272.403 1.65619 -0.387841 0
M  V30 2741 O 273.588 1.84461 -0.607257 0
M  V30 2742 C 270.718 3.14511 -1.4731 0
M  V30 2743 C 269.672 3.39677 -2.60391 0
M  V30 2744 C 268.998 4.78159 -2.39308 0
M  V30 2745 C 270.298 3.32772 -4.02567 0
M  V30 2746 H 271.992 1.68501 -2.47483 0
M  V30 2747 H 269.538 0.809237 -1.19111 0
M  V30 2748 H 271.491 3.92878 -1.52397 0
M  V30 2749 H 270.215 3.22783 -0.49785 0
M  V30 2750 H 268.874 2.63688 -2.54684 0
M  V30 2751 H 268.522 4.83128 -1.39988 0
M  V30 2752 H 268.222 4.95956 -3.15122 0
M  V30 2753 H 269.746 5.58762 -2.46205 0
M  V30 2754 H 271.16 4.01051 -4.09672 0
M  V30 2755 H 269.557 3.62104 -4.7854 0
M  V30 2756 H 270.627 2.30669 -4.2652 0
M  V30 2757 N 271.97 1.30982 0.876444 0
M  V30 2758 C 273.195 1.23373 1.66715 0
M  V30 2759 C 273.62 -0.19885 1.87046 0
M  V30 2760 O 272.978 -1.1427 1.40756 0
M  V30 2761 C 273.026 1.97644 3.01611 0
M  V30 2762 O 272.13 1.30935 3.91062 0
M  V30 2763 H 271.471 0.426279 0.509099 0
M  V30 2764 H 274.001 1.72944 1.09323 0
M  V30 2765 H 274.011 2.06992 3.51594 0
M  V30 2766 H 272.686 3.01829 2.86133 0
M  V30 2767 H 271.263 1.29996 3.49507 0
M  V30 2768 N 273.449 -1.08991 1.13837 0
M  V30 2769 C 274.695 -1.81526 0.90422 0
M  V30 2770 C 275.028 -1.85706 -0.568066 0
M  V30 2771 O 274.303 -1.32855 -1.42056 0
M  V30 2772 C 274.586 -3.27447 1.49835 0
M  V30 2773 C 274.439 -3.31512 3.04006 0
M  V30 2774 C 275.758 -4.24256 1.17025 0
M  V30 2775 H 272.877 -0.659029 0.329923 0
M  V30 2776 H 275.519 -1.27644 1.40737 0
M  V30 2777 H 273.669 -3.73462 1.07044 0
M  V30 2778 H 275.341 -2.93867 3.55584 0
M  V30 2779 H 273.584 -2.70963 3.38765 0
M  V30 2780 H 274.255 -4.34329 3.40679 0
M  V30 2781 H 276.731 -3.86549 1.54009 0
M  V30 2782 H 275.607 -5.24684 1.61237 0
M  V30 2783 H 275.868 -4.42019 0.0846274 0
M  V30 2784 N 274.927 -0.932562 -1.27047 0
M  V30 2785 C 275.837 -0.441219 -2.30414 0
M  V30 2786 C 276.853 0.480525 -1.67233 0
M  V30 2787 O 278.029 0.362151 -1.98117 0
M  V30 2788 C 275.094 0.293651 -3.45454 0
M  V30 2789 C 274.155 -0.663601 -4.2414 0
M  V30 2790 C 273.388 0.0362932 -5.33688 0
M  V30 2791 O 273.611 1.2548 -5.56427 0
M  V30 2792 O 272.545 -0.638015 -5.98509 0
M  V30 2793 H 276.371 -1.29962 -2.74488 0
M  V30 2794 H 273.956 -0.6981 -1.32087 0
M  V30 2795 H 275.838 0.707951 -4.15411 0
M  V30 2796 H 274.513 1.12758 -3.03426 0
M  V30 2797 H 273.42 -1.12768 -3.56699 0
M  V30 2798 H 274.753 -1.46489 -4.69896 0
M  V30 2799 N 276.405 1.4127 -0.698611 0
M  V30 2800 C 277.335 2.33447 -0.049629 0
M  V30 2801 C 278.316 1.51982 0.763898 0
M  V30 2802 O 279.501 1.80509 0.716257 0
M  V30 2803 C 276.631 3.35828 0.885267 0
M  V30 2804 C 275.585 4.27627 0.178613 0
M  V30 2805 C 274.911 5.20406 1.22807 0
M  V30 2806 C 276.211 5.13459 -0.956933 0
M  V30 2807 H 277.905 2.87966 -0.81951 0
M  V30 2808 H 275.451 1.38461 -0.395538 0
M  V30 2809 H 277.404 3.9924 1.34854 0
M  V30 2810 H 276.128 2.79666 1.68685 0
M  V30 2811 H 274.787 3.65643 -0.26466 0
M  V30 2812 H 274.435 4.60558 2.02226 0
M  V30 2813 H 274.135 5.82661 0.760239 0
M  V30 2814 H 275.659 5.86695 1.69179 0
M  V30 2815 H 277.073 5.70421 -0.573805 0
M  V30 2816 H 275.47 5.8467 -1.35205 0
M  V30 2817 H 276.54 4.50443 -1.79524 0
M  V30 2818 N 277.883 0.443576 1.51229 0
M  V30 2819 C 278.793 -0.370721 2.31652 0
M  V30 2820 C 279.809 -1.02186 1.40833 0
M  V30 2821 O 280.985 -1.01586 1.73903 0
M  V30 2822 C 278.05 -1.45376 3.14749 0
M  V30 2823 C 277.111 -0.822099 4.21355 0
M  V30 2824 C 276.344 -1.85353 5.0048 0
M  V30 2825 O 276.567 -3.07656 4.80316 0
M  V30 2826 O 275.501 -1.4406 5.84406 0
M  V30 2827 H 279.327 0.286002 3.0235 0
M  V30 2828 H 276.912 0.20598 1.47973 0
M  V30 2829 H 278.794 -2.08173 3.66391 0
M  V30 2830 H 277.469 -2.09445 2.46809 0
M  V30 2831 H 276.376 -0.155909 3.73775 0
M  V30 2832 H 277.709 -0.224797 4.91686 0
M  V30 2833 N 279.361 -1.56624 0.175154 0
M  V30 2834 C 280.61 -1.96173 -0.468921 0
M  V30 2835 C 280.923 -1.06401 -1.64128 0
M  V30 2836 O 282.129 -1.35648 -2.35185 0
M  V30 2837 C 280.585 -3.48833 -0.885633 0
M  V30 2838 C 280.193 -4.47237 0.261343 0
M  V30 2839 C 281.937 -3.97194 -1.49791 0
M  V30 2840 C 279.844 -5.9114 -0.175214 0
M  V30 2841 H 278.774 -0.732455 -0.178958 0
M  V30 2842 H 281.425 -1.81591 0.263997 0
M  V30 2843 H 279.807 -3.58848 -1.67464 0
M  V30 2844 H 280.981 -4.4894 1.03871 0
M  V30 2845 H 279.296 -4.08956 0.783827 0
M  V30 2846 H 281.893 -5.02167 -1.83665 0
M  V30 2847 H 282.236 -3.40351 -2.39722 0
M  V30 2848 H 282.769 -3.90212 -0.773267 0
M  V30 2849 H 279.508 -6.51865 0.689414 0
M  V30 2850 H 279.028 -5.92735 -0.91786 0
M  V30 2851 H 280.707 -6.44044 -0.617792 0
M  V30 2852 N 280.839 0.0985539 -1.57292 0
M  V30 2853 C 281.787 1.1387 -2.02821 0
M  V30 2854 C 282.781 1.41676 -0.928666 0
M  V30 2855 O 283.987 1.41398 -1.11385 0
M  V30 2856 H 280.362 0.384419 -0.646317 0
M  V30 2857 H 282.333 0.728347 -2.89375 0
M  V30 2858 C 281.082 2.45166 -2.46554 0
M  V30 2859 H 280.405 2.24613 -3.3074 0
M  V30 2860 H 281.845 3.16456 -2.8219 0
M  V30 2861 C 280.304 3.09216 -1.33742 0
M  V30 2862 O 280.834 3.96163 -0.66464 0
M  V30 2863 N 279.04 2.69413 -1.08928 0
M  V30 2864 H 278.587 1.98801 -1.63817 0
M  V30 2865 H 278.545 3.12594 -0.336458 0
M  V30 2866 N 282.317 1.53212 0.369288 0
M  V30 2867 C 283.564 1.69215 1.11232 0
M  V30 2868 C 283.892 0.442048 1.8941 0
M  V30 2869 O 283.147 -0.575944 1.87033 0
M  V30 2870 C 283.446 2.89101 2.10132 0
M  V30 2871 C 283.112 4.25758 1.48463 0
M  V30 2872 C 281.774 4.6292 1.31372 0
M  V30 2873 C 284.126 5.10757 1.03811 0
M  V30 2874 C 281.454 5.82722 0.68207 0
M  V30 2875 C 283.806 6.31201 0.420487 0
M  V30 2876 C 282.47 6.67079 0.237038 0
M  V30 2877 H 281.74 0.619201 0.407027 0
M  V30 2878 H 284.387 1.87391 0.394552 0
M  V30 2879 H 282.692 2.65421 2.88199 0
M  V30 2880 H 284.389 2.98676 2.6757 0
M  V30 2881 H 280.979 3.96494 1.62758 0
M  V30 2882 H 285.163 4.82599 1.1581 0
M  V30 2883 H 280.419 6.09113 0.528316 0
M  V30 2884 H 284.593 6.96368 0.0662874 0
M  V30 2885 H 282.22 7.59774 -0.254477 0
M  V30 2886 N 283.795 -0.628877 1.44509 0
M  V30 2887 C 284.705 -1.7694 1.54044 0
M  V30 2888 C 285.721 -1.68705 0.425987 0
M  V30 2889 O 286.897 -1.89442 0.683656 0
M  V30 2890 C 283.962 -3.13332 1.48405 0
M  V30 2891 C 283.023 -3.33181 2.70719 0
M  V30 2892 C 282.256 -4.63067 2.6534 0
M  V30 2893 O 282.479 -5.44017 1.71469 0
M  V30 2894 O 281.413 -4.85167 3.56226 0
M  V30 2895 H 285.239 -1.71848 2.50403 0
M  V30 2896 H 282.824 -0.790378 1.26781 0
M  V30 2897 H 284.706 -3.94634 1.47791 0
M  V30 2898 H 283.381 -3.1896 0.551898 0
M  V30 2899 H 282.288 -2.51549 2.769 0
M  V30 2900 H 283.621 -3.32416 3.62988 0
M  V30 2901 N 285.273 -1.31445 -0.869486 0
M  V30 2902 C 286.501 -1.24122 -1.65534 0
M  V30 2903 C 286.916 0.193387 -1.87807 0
M  V30 2904 O 286.273 1.12557 -1.43656 0
M  V30 2905 C 286.324 -1.98229 -3.02304 0
M  V30 2906 O 286.045 -3.3609 -2.81026 0
M  V30 2907 C 287.546 -1.97751 -3.96749 0
M  V30 2908 H 284.766 -0.428868 -0.516055 0
M  V30 2909 H 287.31 -1.73328 -1.08525 0
M  V30 2910 H 285.465 -1.52782 -3.56001 0
M  V30 2911 H 285.879 -3.7383 -3.67902 0
M  V30 2912 H 287.353 -2.54114 -4.90031 0
M  V30 2913 H 287.83 -0.960137 -4.28577 0
M  V30 2914 H 288.436 -2.43079 -3.48988 0
M  V30 2915 N 286.751 1.08385 -1.14413 0
M  V30 2916 C 288.167 1.32844 -0.884563 0
M  V30 2917 C 288.367 1.95841 0.474181 0
M  V30 2918 O 287.423 2.21158 1.21842 0
M  V30 2919 C 288.736 2.22978 -2.01745 0
M  V30 2920 C 290.284 2.36458 -2.05077 0
M  V30 2921 C 290.759 3.29934 -3.1766 0
M  V30 2922 N 292.25 3.37511 -3.17239 0
M  V30 2923 C 292.985 4.09871 -4.0099 0
M  V30 2924 N 292.481 4.84936 -4.94781 0
M  V30 2925 N 294.274 4.05704 -3.89051 0
M  V30 2926 H 286.425 0.658756 -2.01926 0
M  V30 2927 H 288.688 0.352821 -0.879899 0
M  V30 2928 H 288.394 1.83934 -2.99769 0
M  V30 2929 H 288.268 3.23441 -1.94077 0
M  V30 2930 H 290.655 2.7476 -1.0766 0
M  V30 2931 H 290.736 1.35736 -2.16816 0
M  V30 2932 H 290.38 2.92352 -4.15322 0
M  V30 2933 H 290.31 4.30584 -3.03158 0
M  V30 2934 H 292.801 2.83996 -2.49308 0
M  V30 2935 H 293.114 5.37612 -5.55151 0
M  V30 2936 H 291.459 4.83988 -4.98779 0
M  V30 2937 H 294.65 3.46167 -3.15097 0
M  V30 2938 H 294.823 4.61834 -4.54547 0
M  V30 2939 N 288.23 0.939286 1.26551 0
M  V30 2940 C 289.478 0.58469 1.93457 0
M  V30 2941 C 289.799 -0.878774 1.74076 0
M  V30 2942 O 289.069 -1.62421 1.09528 0
M  V30 2943 H 287.649 0.21325 0.715914 0
M  V30 2944 H 290.311 1.1942 1.54029 0
M  V30 2945 H 289.407 0.800849 3.0165 0
M  V30 2946 N 289.708 -1.40897 0.706093 0
M  V30 2947 C 290.655 -2.30751 0.0474474 0
M  V30 2948 C 291.625 -1.47678 -0.76029 0
M  V30 2949 O 292.81 -1.76441 -0.726177 0
M  V30 2950 C 289.95 -3.33815 -0.875309 0
M  V30 2951 C 289.063 -4.31961 -0.0580623 0
M  V30 2952 C 288.198 -5.22093 -0.979425 0
M  V30 2953 C 287.237 -6.11902 -0.155706 0
M  V30 2954 N 286.374 -6.94482 -1.03144 0
M  V30 2955 H 291.214 -2.86513 0.819413 0
M  V30 2956 H 288.751 -1.41102 0.415783 0
M  V30 2957 H 290.709 -3.92129 -1.42446 0
M  V30 2958 H 289.339 -2.79579 -1.61356 0
M  V30 2959 H 288.391 -3.75507 0.608147 0
M  V30 2960 H 289.703 -4.95415 0.580082 0
M  V30 2961 H 288.857 -5.85292 -1.59744 0
M  V30 2962 H 287.596 -4.5889 -1.65141 0
M  V30 2963 H 286.601 -5.47742 0.475309 0
M  V30 2964 H 287.826 -6.77162 0.512635 0
M  V30 2965 H 285.772 -6.33877 -1.68924 0
M  V30 2966 H 285.689 -7.54665 -0.449108 0
M  V30 2967 H 286.957 -7.6214 -1.63593 0
M  V30 2968 N 291.186 -0.45159 -1.50991 0
M  V30 2969 C 292.602 -0.104647 -1.59257 0
M  V30 2970 C 292.802 1.38728 -1.4614 0
M  V30 2971 O 291.858 2.15866 -1.30989 0
M  V30 2972 C 293.171 -0.637468 -2.93865 0
M  V30 2973 C 294.719 -0.599166 -3.07212 0
M  V30 2974 C 295.194 -1.1092 -4.44366 0
M  V30 2975 N 296.685 -1.06778 -4.50725 0
M  V30 2976 C 297.42 -1.43314 -5.55201 0
M  V30 2977 N 296.916 -1.87204 -6.67028 0
M  V30 2978 N 298.709 -1.3504 -5.45638 0
M  V30 2979 H 290.86 -1.42214 -1.57762 0
M  V30 2980 H 293.123 -0.586921 -0.744465 0
M  V30 2981 H 292.829 -1.68187 -3.08879 0
M  V30 2982 H 292.703 -0.0702139 -3.77135 0
M  V30 2983 H 295.09 0.436277 -2.91857 0
M  V30 2984 H 295.171 -1.20299 -2.25747 0
M  V30 2985 H 294.815 -2.14318 -4.60467 0
M  V30 2986 H 294.745 -0.481773 -5.24392 0
M  V30 2987 H 297.236 -0.745643 -3.70471 0
M  V30 2988 H 297.549 -2.13282 -7.42786 0
M  V30 2989 H 295.894 -1.91142 -6.68199 0
M  V30 2990 H 299.085 -1.00607 -4.57161 0
M  V30 2991 H 299.258 -1.63841 -6.26945 0
M  V30 2992 N 292.664 1.56529 -0.183458 0
M  V30 2993 C 293.912 1.96855 0.457452 0
M  V30 2994 C 294.233 1.07104 1.62953 0
M  V30 2995 O 293.503 0.139887 1.954 0
M  V30 2996 H 292.083 0.72693 0.171992 0
M  V30 2997 H 294.745 1.93056 -0.267476 0
M  V30 2998 H 293.841 3.01423 0.809368 0
M  V30 2999 N 294.142 -0.090211 1.57342 0
M  V30 3000 C 295.074 -1.13541 1.99101 0
M  V30 3001 C 296.087 -1.3604 0.894258 0
M  V30 3002 O 297.276 -1.34606 1.17233 0
M  V30 3003 C 294.376 -2.49001 2.29895 0
M  V30 3004 C 293.549 -2.46712 3.61182 0
M  V30 3005 C 292.608 -3.64136 3.79857 0
M  V30 3006 O 291.634 -3.46405 4.51655 0
M  V30 3007 N 292.836 -4.83802 3.20806 0
M  V30 3008 H 295.601 -0.779942 2.89373 0
M  V30 3009 H 293.162 -0.279125 1.59476 0
M  V30 3010 H 295.154 -3.26166 2.39578 0
M  V30 3011 H 293.724 -2.76619 1.45605 0
M  V30 3012 H 292.944 -1.55058 3.62423 0
M  V30 3013 H 294.232 -2.42265 4.4742 0
M  V30 3014 H 293.63 -5.01112 2.62494 0
M  V30 3015 H 292.187 -5.58543 3.35966 0
M  V30 3016 N 295.62 -1.53406 -0.361157 0
M  V30 3017 C 296.897 -1.60411 -1.11927 0
M  V30 3018 C 297.277 -0.414385 -2.06993 0
M  V30 3019 O 296.625 0.594976 -2.20618 0
M  V30 3020 C 296.835 -2.95652 -1.85448 0
M  V30 3021 C 298.183 -3.50386 -2.39823 0
M  V30 3022 O 299.207 -2.97711 -1.95568 0
M  V30 3023 O 298.066 -4.42482 -3.20737 0
M  V30 3024 H 295.16 -0.64811 -0.513695 0
M  V30 3025 H 297.706 -1.65749 -0.364065 0
M  V30 3026 H 296.478 -3.73682 -1.16091 0
M  V30 3027 H 296.101 -2.93825 -2.67866 0
M  V30 3028 N 297.098 0.621204 -1.44841 0
M  V30 3029 C 298.061 1.71459 -1.521 0
M  V30 3030 C 299.061 1.55696 -0.401933 0
M  V30 3031 O 300.251 1.61011 -0.664925 0
M  V30 3032 C 297.383 3.10624 -1.40447 0
M  V30 3033 H 298.576 1.66394 -2.49506 0
M  V30 3034 H 296.129 0.835745 -1.3208 0
M  V30 3035 H 296.864 3.21277 -0.441737 0
M  V30 3036 H 296.649 3.23473 -2.21602 0
M  V30 3037 H 298.139 3.90293 -1.4853 0
M  V30 3038 N 298.576 1.31904 0.862503 0
M  V30 3039 C 299.509 1.14514 1.97388 0
M  V30 3040 C 300.487 0.0466493 1.62533 0
M  V30 3041 O 301.671 0.204484 1.87388 0
M  V30 3042 C 298.798 0.751347 3.30261 0
M  V30 3043 C 297.844 1.85395 3.84098 0
M  V30 3044 S 298.677 3.46081 4.08642 0
M  V30 3045 C 299.833 3.08655 5.44502 0
M  V30 3046 H 300.066 2.08597 2.11836 0
M  V30 3047 H 297.599 1.16475 1.01356 0
M  V30 3048 H 299.557 0.530901 4.07052 0
M  V30 3049 H 298.218 -0.170493 3.13637 0
M  V30 3050 H 297.411 1.53122 4.80177 0
M  V30 3051 H 297.013 2.02984 3.14123 0
M  V30 3052 H 299.305 2.58012 6.26447 0
M  V30 3053 H 300.248 4.03726 5.81731 0
M  V30 3054 H 300.656 2.45891 5.08132 0
M  V30 3055 N 300.054 -1.07777 1.14986 0
M  V30 3056 C 301.284 -1.83752 0.944402 0
M  V30 3057 C 301.692 -1.8218 -0.51058 0
M  V30 3058 O 301.035 -1.22852 -1.36576 0
M  V30 3059 C 301.097 -3.32128 1.37592 0
M  V30 3060 C 300.761 -3.57425 2.84775 0
M  V30 3061 C 301.758 -3.5173 3.8286 0
M  V30 3062 C 299.443 -3.8523 3.2234 0
M  V30 3063 C 301.437 -3.73482 5.16517 0
M  V30 3064 C 299.124 -4.06634 4.56171 0
M  V30 3065 C 300.122 -4.00754 5.53069 0
M  V30 3066 O 299.81 -4.2159 6.84483 0
M  V30 3067 H 299.542 -0.58673 0.335744 0
M  V30 3068 H 302.096 -1.36982 1.53052 0
M  V30 3069 H 300.326 -3.79686 0.733165 0
M  V30 3070 H 302.015 -3.89555 1.14024 0
M  V30 3071 H 302.781 -3.30256 3.55184 0
M  V30 3072 H 298.66 -3.88923 2.47508 0
M  V30 3073 H 302.204 -3.68808 5.92137 0
M  V30 3074 H 298.101 -4.27593 4.83564 0
M  V30 3075 H 298.869 -4.38961 6.90837 0
M  V30 3076 N 301.532 -0.945985 -1.26051 0
M  V30 3077 C 302.442 -0.465633 -2.29933 0
M  V30 3078 C 303.458 0.462761 -1.67733 0
M  V30 3079 O 304.634 0.341118 -1.9849 0
M  V30 3080 C 301.699 0.256994 -3.45746 0
M  V30 3081 C 300.76 -0.708549 -4.23412 0
M  V30 3082 C 299.993 -0.0203135 -5.33696 0
M  V30 3083 O 300.216 1.19571 -5.57726 0
M  V30 3084 O 299.15 -0.701459 -5.97799 0
M  V30 3085 H 302.976 -1.32866 -2.73094 0
M  V30 3086 H 300.561 -0.712071 -1.31339 0
M  V30 3087 H 302.443 0.663852 -4.16138 0
M  V30 3088 H 301.118 1.09533 -3.04605 0
M  V30 3089 H 300.025 -1.16545 -3.55483 0
M  V30 3090 H 301.358 -1.51465 -4.68315 0
M  V30 3091 N 303.011 1.40521 -0.713556 0
M  V30 3092 C 304.241 2.0494 -0.261395 0
M  V30 3093 C 304.649 1.53861 1.10107 0
M  V30 3094 O 303.992 0.689321 1.70276 0
M  V30 3095 C 304.054 3.59138 -0.161227 0
M  V30 3096 C 303.718 4.33096 -1.45865 0
M  V30 3097 C 304.715 4.61182 -2.40016 0
M  V30 3098 C 302.4 4.72043 -1.71701 0
M  V30 3099 C 304.394 5.27196 -3.58251 0
M  V30 3100 C 302.081 5.37789 -2.90218 0
M  V30 3101 C 303.079 5.65295 -3.83315 0
M  V30 3102 O 302.767 6.29683 -4.99754 0
M  V30 3103 H 302.499 0.666041 -0.115608 0
M  V30 3104 H 305.053 1.80954 -0.971849 0
M  V30 3105 H 303.283 3.81936 0.605153 0
M  V30 3106 H 304.972 4.05091 0.256105 0
M  V30 3107 H 305.738 4.31559 -2.21318 0
M  V30 3108 H 301.617 4.50003 -1.00092 0
M  V30 3109 H 305.161 5.48582 -4.30934 0
M  V30 3110 H 301.058 5.66831 -3.08825 0
M  V30 3111 H 301.826 6.4818 -4.99805 0
M  V30 3112 N 304.489 0.459591 1.5075 0
M  V30 3113 C 305.422 -0.386257 2.24907 0
M  V30 3114 C 306.4 -1.006 1.27744 0
M  V30 3115 O 307.584 -1.04416 1.56938 0
M  V30 3116 C 304.711 -1.54021 3.01654 0
M  V30 3117 C 303.757 -1.03898 4.13651 0
M  V30 3118 S 304.59 0.0370501 5.35487 0
M  V30 3119 C 305.746 -1.12105 6.15779 0
M  V30 3120 H 305.979 0.243272 2.96303 0
M  V30 3121 H 303.512 0.244339 1.52454 0
M  V30 3122 H 305.47 -2.20163 3.46466 0
M  V30 3123 H 304.131 -2.14121 2.29806 0
M  V30 3124 H 303.324 -1.90254 4.66711 0
M  V30 3125 H 302.926 -0.45545 3.71216 0
M  V30 3126 H 305.218 -2.03501 6.46215 0
M  V30 3127 H 306.161 -0.62995 7.05292 0
M  V30 3128 H 306.569 -1.36967 5.47631 0
M  V30 3129 N 305.967 -1.56429 0.191757 0
M  V30 3130 C 306.93 -2.17707 -0.716688 0
M  V30 3131 C 307.93 -1.13061 -1.14341 0
M  V30 3132 O 309.12 -1.38464 -1.05704 0
M  V30 3133 C 306.252 -2.77644 -1.97804 0
M  V30 3134 H 307.445 -2.99342 -0.1829 0
M  V30 3135 H 304.998 -1.56193 -0.0578566 0
M  V30 3136 H 305.733 -1.99799 -2.55443 0
M  V30 3137 H 305.518 -3.54246 -1.68083 0
M  V30 3138 H 307.008 -3.24708 -2.62592 0
M  V30 3139 N 307.445 0.0818655 -1.57387 0
M  V30 3140 C 308.377 1.12484 -1.997 0
M  V30 3141 C 309.39 1.35564 -0.90146 0
M  V30 3142 O 310.579 1.33982 -1.17945 0
M  V30 3143 C 307.679 2.47778 -2.31213 0
M  V30 3144 C 306.852 2.44793 -3.62485 0
M  V30 3145 C 305.911 3.62117 -3.81782 0
M  V30 3146 O 304.937 3.44005 -4.53486 0
M  V30 3147 N 306.139 4.82094 -3.23367 0
M  V30 3148 H 308.904 0.764585 -2.89783 0
M  V30 3149 H 306.465 0.270664 -1.59621 0
M  V30 3150 H 308.457 3.24891 -2.41304 0
M  V30 3151 H 307.027 2.75843 -1.4707 0
M  V30 3152 H 306.247 1.53134 -3.6324 0
M  V30 3153 H 307.535 2.39889 -4.48699 0
M  V30 3154 H 306.933 4.99713 -2.65148 0
M  V30 3155 H 305.49 5.56753 -3.38923 0
M  V30 3156 N 308.923 1.53595 0.353017 0
M  V30 3157 C 309.886 1.80232 1.41594 0
M  V30 3158 C 310.886 0.673081 1.46035 0
M  V30 3159 O 312.076 0.941335 1.46576 0
M  V30 3160 C 309.208 1.93578 2.80607 0
M  V30 3161 H 310.401 2.75174 1.19244 0
M  V30 3162 H 307.954 1.44864 0.586872 0
M  V30 3163 H 308.689 1.00746 3.08254 0
M  V30 3164 H 308.474 2.75724 2.78781 0
M  V30 3165 H 309.964 2.15735 3.57558 0
M  V30 3166 N 310.401 -0.613514 1.45168 0
M  V30 3167 C 311.641 -1.38405 1.5041 0
M  V30 3168 C 312.005 -1.91489 0.139922 0
M  V30 3169 O 313.206 -2.68716 0.067033 0
M  V30 3170 C 311.477 -2.50552 2.5487 0
M  V30 3171 S 313.036 -3.38439 2.79292 0
M  V30 3172 H 309.854 -0.471945 0.531779 0
M  V30 3173 H 312.456 -0.708518 1.82209 0
M  V30 3174 H 311.16 -2.09894 3.52665 0
M  V30 3175 H 310.691 -3.22913 2.24701 0
M  V30 3176 H 312.706 -4.48527 2.12222 0
M  V30 3177 N 311.879 -1.3236 -0.855495 0
M  V30 3178 C 312.842 -1.21164 -1.94556 0
M  V30 3179 C 313.842 -0.134908 -1.60233 0
M  V30 3180 O 315.032 -0.385249 -1.69887 0
M  V30 3181 C 312.164 -0.863192 -3.29791 0
M  V30 3182 H 313.357 -2.18038 -2.05911 0
M  V30 3183 H 310.91 -1.16179 -1.04557 0
M  V30 3184 H 311.645 0.103769 -3.24134 0
M  V30 3185 H 311.43 -1.64166 -3.56078 0
M  V30 3186 H 312.92 -0.809156 -4.09686 0
M  V30 3187 N 313.357 1.07166 -1.15556 0
M  V30 3188 C 314.605 1.79443 -0.929764 0
M  V30 3189 C 314.926 1.87246 0.544414 0
M  V30 3190 O 314.196 1.37473 1.39564 0
M  V30 3191 H 312.776 0.664625 -0.341003 0
M  V30 3192 H 315.438 1.29499 -1.45657 0
M  V30 3193 H 314.534 2.81832 -1.34079 0
M  V30 3194 N 314.835 0.952656 1.25548 0
M  V30 3195 C 315.783 0.462354 2.27958 0
M  V30 3196 C 316.777 -0.46634 1.62855 0
M  V30 3197 O 317.983 -0.343287 1.76696 0
M  V30 3198 H 314.358 0.13101 0.7405 0
M  V30 3199 H 316.329 1.33839 2.66702 0
M  V30 3200 C 315.078 -0.24628 3.46827 0
M  V30 3201 H 314.401 0.459192 3.97154 0
M  V30 3202 H 315.841 -0.553393 4.20373 0
M  V30 3203 C 314.3 -1.4681 3.0323 0
M  V30 3204 O 314.83 -2.56591 3.09069 0
M  V30 3205 N 313.036 -1.32874 2.58443 0
M  V30 3206 H 312.583 -0.435536 2.53891 0
M  V30 3207 H 312.541 -2.14742 2.29637 0
M  V30 3208 N 316.313 -1.40141 0.720998 0
M  V30 3209 C 317.729 -1.54632 0.395113 0
M  V30 3210 C 317.929 -1.69115 -1.09555 0
M  V30 3211 O 316.985 -1.68377 -1.88163 0
M  V30 3212 C 318.298 -2.77177 1.1659 0
M  V30 3213 C 319.846 -2.91 1.15274 0
M  V30 3214 C 320.321 -4.16465 1.90579 0
M  V30 3215 N 321.812 -4.23476 1.87675 0
M  V30 3216 C 322.547 -5.19475 2.42762 0
M  V30 3217 N 322.043 -6.21348 3.06428 0
M  V30 3218 N 323.836 -5.11592 2.32874 0
M  V30 3219 H 315.987 -1.28986 1.68749 0
M  V30 3220 H 318.25 -0.62412 0.713567 0
M  V30 3221 H 317.956 -2.72771 2.22011 0
M  V30 3222 H 317.83 -3.69442 0.76108 0
M  V30 3223 H 320.217 -2.94907 0.106702 0
M  V30 3224 H 320.298 -1.99838 1.59682 0
M  V30 3225 H 319.942 -4.1332 2.95176 0
M  V30 3226 H 319.872 -5.06646 1.43587 0
M  V30 3227 H 322.363 -3.50497 1.41281 0
M  V30 3228 H 322.676 -6.91034 3.45965 0
M  V30 3229 H 321.021 -6.21777 3.10514 0
M  V30 3230 H 324.212 -4.30936 1.82789 0
M  V30 3231 H 324.385 -5.86233 2.76106 0
M  V30 3232 N 317.792 -0.46758 -1.50504 0
M  V30 3233 C 319.038 0.0887532 -2.02606 0
M  V30 3234 C 319.371 1.39686 -1.34913 0
M  V30 3235 O 318.646 1.88644 -0.473694 0
M  V30 3236 C 318.929 0.276206 -3.59039 0
M  V30 3237 C 318.782 -1.05267 -4.37309 0
M  V30 3238 C 320.101 1.03235 -4.27821 0
M  V30 3239 H 317.22 0.0307814 -0.736357 0
M  V30 3240 H 319.862 -0.612485 -1.79857 0
M  V30 3241 H 318.012 0.8735 -3.78553 0
M  V30 3242 H 319.684 -1.68628 -4.29374 0
M  V30 3243 H 317.927 -1.65015 -4.01189 0
M  V30 3244 H 318.598 -0.875197 -5.45018 0
M  V30 3245 H 321.074 0.526111 -4.12761 0
M  V30 3246 H 319.95 1.1323 -5.37094 0
M  V30 3247 H 320.211 2.06806 -3.90748 0
M  V30 3248 N 319.27 1.56325 -0.20005 0
M  V30 3249 C 320.686 1.58839 0.155716 0
M  V30 3250 C 320.886 1.21636 1.60645 0
M  V30 3251 O 319.942 0.941437 2.34293 0
M  V30 3252 C 321.255 3.0032 -0.151124 0
M  V30 3253 C 322.803 3.12866 -0.0916284 0
M  V30 3254 C 323.278 4.56488 -0.371845 0
M  V30 3255 N 324.769 4.62089 -0.320641 0
M  V30 3256 C 325.504 5.71116 -0.511243 0
M  V30 3257 N 325 6.88592 -0.762461 0
M  V30 3258 N 326.793 5.60335 -0.445157 0
M  V30 3259 H 318.944 1.78788 -1.14668 0
M  V30 3260 H 321.207 0.829996 -0.458051 0
M  V30 3261 H 320.913 3.32117 -1.15721 0
M  V30 3262 H 320.787 3.73257 0.543986 0
M  V30 3263 H 323.174 2.80878 0.905065 0
M  V30 3264 H 323.255 2.42304 -0.81989 0
M  V30 3265 H 322.899 4.89189 -1.36588 0
M  V30 3266 H 322.829 5.25246 0.377362 0
M  V30 3267 H 325.32 3.77665 -0.13329 0
M  V30 3268 H 325.633 7.67581 -0.896576 0
M  V30 3269 H 323.978 6.90387 -0.799412 0
M  V30 3270 H 327.169 4.67436 -0.249278 0
M  V30 3271 H 327.342 6.45243 -0.597116 0
M  V30 3272 N 320.748 -0.0735177 1.57428 0
M  V30 3273 C 322.164 -0.428264 1.53747 0
M  V30 3274 C 322.364 -1.79272 0.91998 0
M  V30 3275 O 321.42 -2.47051 0.521745 0
M  V30 3276 C 322.733 -0.370914 2.98404 0
M  V30 3277 C 324.281 -0.451224 3.0973 0
M  V30 3278 C 324.756 -0.4238 4.56035 0
M  V30 3279 N 326.247 -0.483925 4.60665 0
M  V30 3280 C 326.982 -0.484891 5.71346 0
M  V30 3281 N 326.478 -0.440775 6.91396 0
M  V30 3282 N 328.271 -0.531319 5.59583 0
M  V30 3283 H 320.422 0.819949 1.95935 0
M  V30 3284 H 322.685 0.307493 0.896745 0
M  V30 3285 H 322.391 0.564956 3.47133 0
M  V30 3286 H 322.265 -1.18176 3.5821 0
M  V30 3287 H 324.652 -1.37752 2.60976 0
M  V30 3288 H 324.733 0.388167 2.52838 0
M  V30 3289 H 324.377 0.498638 5.05446 0
M  V30 3290 H 324.307 -1.2807 5.10789 0
M  V30 3291 H 326.798 -0.522338 3.74273 0
M  V30 3292 H 327.111 -0.44539 7.71515 0
M  V30 3293 H 325.456 -0.40749 6.93804 0
M  V30 3294 H 328.647 -0.563464 4.64696 0
M  V30 3295 H 328.82 -0.528603 6.4584 0
M  V30 3296 N 322.226 -1.5378 -0.344866 0
M  V30 3297 C 323.451 -1.75211 -1.10977 0
M  V30 3298 C 323.876 -0.48936 -1.81623 0
M  V30 3299 O 323.234 0.557925 -1.72502 0
M  V30 3300 C 323.282 -2.93147 -2.09993 0
M  V30 3301 O 322.386 -2.63203 -3.17487 0
M  V30 3302 H 321.727 -0.581241 -0.321021 0
M  V30 3303 H 324.257 -2.00738 -0.395661 0
M  V30 3304 H 324.267 -3.19898 -2.53237 0
M  V30 3305 H 322.942 -3.84731 -1.5797 0
M  V30 3306 H 321.519 -2.47336 -2.79069 0
M  V30 3307 N 323.704 0.605807 -1.45491 0
M  V30 3308 C 324.95 1.36679 -1.49823 0
M  V30 3309 C 325.283 1.93693 -0.140175 0
M  V30 3310 O 324.558 1.75158 0.845581 0
M  V30 3311 C 324.841 2.51337 -2.57879 0
M  V30 3312 C 324.694 1.99508 -4.03134 0
M  V30 3313 C 326.013 3.53463 -2.62205 0
M  V30 3314 H 323.132 0.495617 -0.545466 0
M  V30 3315 H 325.774 0.682732 -1.7731 0
M  V30 3316 H 323.924 3.09691 -2.34571 0
M  V30 3317 H 325.596 1.45789 -4.37656 0
M  V30 3318 H 323.839 1.30496 -4.13707 0
M  V30 3319 H 324.51 2.82169 -4.74431 0
M  V30 3320 H 326.986 3.04953 -2.83095 0
M  V30 3321 H 325.862 4.31178 -3.39672 0
M  V30 3322 H 326.123 4.09197 -1.67363 0
M  V30 3323 N 325.182 1.32811 0.848464 0
M  V30 3324 C 326.43 1.23479 1.59991 0
M  V30 3325 C 326.751 -0.201853 1.93952 0
M  V30 3326 O 326.021 -1.12818 1.60153 0
M  V30 3327 H 324.601 0.454034 0.593179 0
M  V30 3328 H 327.263 1.66412 1.01455 0
M  V30 3329 H 326.359 1.82178 2.53412 0
M  V30 3330 N 326.66 -1.06551 1.16123 0
M  V30 3331 C 327.885 -1.83544 0.965735 0
M  V30 3332 C 328.31 -1.81843 -0.481102 0
M  V30 3333 O 327.668 -1.21732 -1.34354 0
M  V30 3334 C 327.716 -3.28169 1.49457 0
M  V30 3335 O 326.82 -4.0643 0.699157 0
M  V30 3336 H 326.161 -0.568026 0.343864 0
M  V30 3337 H 328.691 -1.34362 1.54299 0
M  V30 3338 H 328.701 -3.78992 1.51092 0
M  V30 3339 H 327.376 -3.28722 2.54784 0
M  V30 3340 H 325.953 -3.65216 0.7531 0
M  V30 3341 N 328.138 -0.959301 -1.25041 0
M  V30 3342 C 329.363 -0.633507 -1.97488 0
M  V30 3343 C 329.788 0.788555 -1.70773 0
M  V30 3344 O 329.146 1.53394 -0.966431 0
M  V30 3345 C 329.194 -0.904057 -3.49083 0
M  V30 3346 O 328.298 0.0147939 -4.12397 0
M  V30 3347 H 327.639 -0.240368 -0.618966 0
M  V30 3348 H 330.169 -1.28717 -1.59038 0
M  V30 3349 H 330.179 -0.832203 -3.99423 0
M  V30 3350 H 328.854 -1.94048 -3.67856 0
M  V30 3351 H 327.431 -0.109664 -3.72739 0
M  V30 3352 N 329.616 1.39756 -0.72842 0
M  V30 3353 C 330.546 2.33289 -0.0991354 0
M  V30 3354 C 331.527 1.53568 0.731489 0
M  V30 3355 O 332.712 1.81987 0.677807 0
M  V30 3356 C 329.842 3.3763 0.813834 0
M  V30 3357 C 328.796 4.2791 0.0878663 0
M  V30 3358 C 328.122 5.22894 1.11741 0
M  V30 3359 C 329.422 5.11314 -1.06563 0
M  V30 3360 H 331.116 2.86163 -0.880408 0
M  V30 3361 H 328.662 1.37591 -0.424819 0
M  V30 3362 H 330.615 4.0201 1.26355 0
M  V30 3363 H 329.339 2.83181 1.62715 0
M  V30 3364 H 327.998 3.65 -0.342159 0
M  V30 3365 H 327.646 4.64744 1.92412 0
M  V30 3366 H 327.346 5.84143 0.636477 0
M  V30 3367 H 328.87 5.90151 1.56697 0
M  V30 3368 H 330.284 5.69076 -0.694671 0
M  V30 3369 H 328.681 5.81671 -1.47577 0
M  V30 3370 H 329.751 4.46534 -1.89038 0
M  V30 3371 N 331.094 0.475555 1.50254 0
M  V30 3372 C 332.319 -0.0777042 2.07254 0
M  V30 3373 C 332.744 -1.3235 1.3366 0
M  V30 3374 O 332.102 -1.77152 0.385597 0
M  V30 3375 C 332.15 -0.340169 3.58992 0
M  V30 3376 O 331.254 -1.41982 3.87188 0
M  V30 3377 H 330.595 0.0149556 0.663832 0
M  V30 3378 H 333.125 0.667878 1.93392 0
M  V30 3379 H 333.135 -0.579332 4.03866 0
M  V30 3380 H 331.81 0.570167 4.11973 0
M  V30 3381 H 330.387 -1.16762 3.54148 0
M  V30 3382 N 332.573 -1.56217 0.208337 0
M  V30 3383 C 333.813 -1.99849 -0.428927 0
M  V30 3384 C 334.177 -1.09262 -1.57879 0
M  V30 3385 O 335.378 -1.42185 -2.28116 0
M  V30 3386 C 333.649 -3.46777 -0.864879 0
M  V30 3387 S 335.208 -4.12434 -1.49811 0
M  V30 3388 H 332.026 -0.697742 -0.136665 0
M  V30 3389 H 334.628 -1.92953 0.314519 0
M  V30 3390 H 333.332 -4.10396 -0.0181326 0
M  V30 3391 H 332.863 -3.57518 -1.64147 0
M  V30 3392 H 334.878 -4.10532 -2.78707 0
M  V30 3393 N 334.051 0.0651679 -1.57465 0
M  V30 3394 C 335.3 0.761916 -1.86756 0
M  V30 3395 C 335.613 1.78406 -0.801925 0
M  V30 3396 O 336.819 2.53084 -0.982885 0
M  V30 3397 C 335.275 1.40603 -3.31299 0
M  V30 3398 C 334.883 0.422115 -4.46007 0
M  V30 3399 C 336.627 2.08476 -3.69781 0
M  V30 3400 C 334.534 1.07252 -5.81593 0
M  V30 3401 H 333.464 0.288308 -0.696702 0
M  V30 3402 H 336.115 0.015344 -1.83494 0
M  V30 3403 H 334.497 2.20109 -3.29193 0
M  V30 3404 H 335.671 -0.343613 -4.59517 0
M  V30 3405 H 333.986 -0.152527 -4.16121 0
M  V30 3406 H 336.583 2.57925 -4.68379 0
M  V30 3407 H 336.926 2.88712 -2.99919 0
M  V30 3408 H 337.459 1.35792 -3.73905 0
M  V30 3409 H 334.198 0.310342 -6.54765 0
M  V30 3410 H 333.718 1.80895 -5.71872 0
M  V30 3411 H 335.397 1.59043 -6.27148 0
M  V30 3412 N 335.529 1.53961 0.336706 0
M  V30 3413 C 336.477 1.83136 1.43401 0
M  V30 3414 C 337.471 0.702313 1.54156 0
M  V30 3415 O 338.677 0.885765 1.56698 0
M  V30 3416 H 335.052 0.580309 0.478273 0
M  V30 3417 H 337.023 2.74925 1.16012 0
M  V30 3418 C 335.772 2.06385 2.79822 0
M  V30 3419 H 335.095 2.92718 2.72316 0
M  V30 3420 H 336.535 2.30761 3.55704 0
M  V30 3421 C 334.994 0.851414 3.25964 0
M  V30 3422 O 335.524 0.0541904 4.01663 0
M  V30 3423 N 333.73 0.66672 2.82848 0
M  V30 3424 H 333.277 1.31665 2.21409 0
M  V30 3425 H 333.235 -0.143032 3.14074 0
M  V30 3426 N 337.007 -0.598083 1.45811 0
M  V30 3427 C 337.937 -1.71873 1.58057 0
M  V30 3428 C 338.918 -1.64533 0.431615 0
M  V30 3429 O 340.103 -1.82787 0.65595 0
M  V30 3430 C 337.233 -3.10495 1.55597 0
M  V30 3431 C 336.187 -3.32654 2.69305 0
M  V30 3432 C 335.513 -4.71646 2.51902 0
M  V30 3433 C 336.813 -3.21981 4.11248 0
M  V30 3434 H 338.507 -1.61881 2.51863 0
M  V30 3435 H 336.053 -0.777372 1.21214 0
M  V30 3436 H 338.006 -3.88699 1.6276 0
M  V30 3437 H 336.73 -3.2135 0.583255 0
M  V30 3438 H 335.389 -2.56843 2.61586 0
M  V30 3439 H 335.037 -4.79246 1.52748 0
M  V30 3440 H 334.737 -4.87426 3.2816 0
M  V30 3441 H 336.261 -5.52038 2.60933 0
M  V30 3442 H 337.675 -3.90049 4.20161 0
M  V30 3443 H 336.072 -3.49289 4.87972 0
M  V30 3444 H 337.142 -2.1928 4.32486 0
M  V30 3445 N 338.485 -1.33259 -0.841409 0
M  V30 3446 C 339.762 -1.15174 -1.58096 0
M  V30 3447 C 340.142 0.282858 -2.09196 0
M  V30 3448 O 339.49 1.28151 -1.89181 0
M  V30 3449 C 339.7 -2.1907 -2.71679 0
M  V30 3450 C 341.048 -2.53093 -3.40924 0
M  V30 3451 O 342.072 -2.17717 -2.81918 0
M  V30 3452 O 340.931 -3.1379 -4.47435 0
M  V30 3453 H 338.025 -0.445303 -0.696875 0
M  V30 3454 H 340.571 -1.44833 -0.884385 0
M  V30 3455 H 339.343 -3.15443 -2.31541 0
M  V30 3456 H 338.966 -1.90481 -3.49002 0
M  V30 3457 N 339.963 1.05934 -1.16686 0
M  V30 3458 C 341.209 1.79211 -0.962023 0
M  V30 3459 C 341.564 1.85667 0.504545 0
M  V30 3460 O 340.857 1.33991 1.36956 0
M  V30 3461 C 341.051 3.23105 -1.52767 0
M  V30 3462 C 340.88 3.30673 -3.04771 0
M  V30 3463 C 339.65 3.40395 -3.73442 0
M  V30 3464 C 341.848 3.20234 -4.02436 0
M  V30 3465 N 339.83 3.37015 -5.13122 0
M  V30 3466 C 341.201 3.24138 -5.28521 0
M  V30 3467 C 343.256 3.04143 -3.9421 0
M  V30 3468 C 341.959 3.13607 -6.47336 0
M  V30 3469 C 343.985 2.94951 -5.12599 0
M  V30 3470 C 343.347 2.99481 -6.37566 0
M  V30 3471 H 339.446 0.668442 -0.405844 0
M  V30 3472 H 342.03 1.26341 -1.48142 0
M  V30 3473 H 340.201 3.74364 -1.03471 0
M  V30 3474 H 341.933 3.84579 -1.26021 0
M  V30 3475 H 338.688 3.45344 -3.2409 0
M  V30 3476 H 339.112 3.38815 -5.86117 0
M  V30 3477 H 343.754 2.99484 -2.98445 0
M  V30 3478 H 341.472 3.17022 -7.43319 0
M  V30 3479 H 345.058 2.83583 -5.08008 0
M  V30 3480 H 343.938 2.92431 -7.27636 0
M  V30 3481 N 341.441 0.965919 1.2453 0
M  V30 3482 C 342.718 0.543777 1.87889 0
M  V30 3483 C 343.098 -0.97909 1.87021 0
M  V30 3484 O 342.446 -1.84969 1.3416 0
M  V30 3485 C 342.656 1.13327 3.30088 0
M  V30 3486 C 344.004 1.21707 4.06783 0
M  V30 3487 O 345.028 1.08566 3.39252 0
M  V30 3488 O 343.887 1.42456 5.27606 0
M  V30 3489 H 340.981 0.181054 0.806938 0
M  V30 3490 H 343.527 1.06007 1.32516 0
M  V30 3491 H 342.299 2.17612 3.25209 0
M  V30 3492 H 341.922 0.600911 3.93033 0
M  V30 3493 N 342.919 -1.39368 0.735821 0
M  V30 3494 C 344.165 -2.00794 0.284544 0
M  V30 3495 C 344.498 -1.58255 -1.12557 0
M  V30 3496 O 343.773 -0.811819 -1.76748 0
M  V30 3497 C 344.056 -3.58011 0.387337 0
M  V30 3498 C 343.909 -4.10566 1.83728 0
M  V30 3499 C 345.228 -4.395 -0.22975 0
M  V30 3500 H 342.347 -0.729501 0.104866 0
M  V30 3501 H 344.989 -1.65564 0.93213 0
M  V30 3502 H 343.139 -3.88154 -0.164006 0
M  V30 3503 H 344.811 -3.91139 2.44556 0
M  V30 3504 H 343.054 -3.64095 2.35833 0
M  V30 3505 H 343.725 -5.19702 1.86047 0
M  V30 3506 H 346.201 -4.15406 0.240257 0
M  V30 3507 H 345.077 -5.48752 -0.127485 0
M  V30 3508 H 345.338 -4.22062 -1.3159 0
M  V30 3509 N 344.397 -0.483516 -1.5 0
M  V30 3510 C 345.646 0.0689102 -2.01582 0
M  V30 3511 C 345.959 1.39655 -1.36952 0
M  V30 3512 O 347.165 2.03465 -1.79762 0
M  V30 3513 C 345.621 0.173302 -3.59483 0
M  V30 3514 C 345.229 -1.14665 -4.33077 0
M  V30 3515 C 346.973 0.677024 -4.19066 0
M  V30 3516 C 344.88 -1.00537 -5.82792 0
M  V30 3517 H 343.81 0.0295277 -0.753422 0
M  V30 3518 H 346.461 -0.620295 -1.72698 0
M  V30 3519 H 344.843 0.926569 -3.85007 0
M  V30 3520 H 346.017 -1.91184 -4.19268 0
M  V30 3521 H 344.332 -1.58244 -3.85159 0
M  V30 3522 H 346.929 0.799952 -5.28682 0
M  V30 3523 H 347.272 1.67151 -3.81269 0
M  V30 3524 H 347.805 -0.0192083 -3.97795 0
M  V30 3525 H 344.544 -1.9736 -6.25083 0
M  V30 3526 H 344.064 -0.280776 -5.99142 0
M  V30 3527 H 345.743 -0.677 -6.43448 0
M  V30 3528 N 345.875 1.56104 -0.216619 0
M  V30 3529 C 347.291 1.58995 0.13886 0
M  V30 3530 C 347.491 1.23333 1.59346 0
M  V30 3531 O 346.547 0.966234 2.33281 0
M  V30 3532 C 347.86 3.00143 -0.182968 0
M  V30 3533 C 349.408 3.12751 -0.124807 0
M  V30 3534 C 349.883 4.56068 -0.420241 0
M  V30 3535 N 351.374 4.61723 -0.369634 0
M  V30 3536 C 352.109 5.70542 -0.571789 0
M  V30 3537 N 351.605 6.87744 -0.835453 0
M  V30 3538 N 353.398 5.59831 -0.504563 0
M  V30 3539 H 345.549 1.77562 -1.16557 0
M  V30 3540 H 347.812 0.825091 -0.466828 0
M  V30 3541 H 347.518 3.30871 -1.19237 0
M  V30 3542 H 347.392 3.73813 0.504367 0
M  V30 3543 H 349.779 2.81822 0.875223 0
M  V30 3544 H 349.86 2.41421 -0.845544 0
M  V30 3545 H 349.504 4.87713 -1.41769 0
M  V30 3546 H 349.434 5.25617 0.321631 0
M  V30 3547 H 351.925 3.77502 -0.173338 0
M  V30 3548 H 352.238 7.66587 -0.977938 0
M  V30 3549 H 350.583 6.895 -0.872592 0
M  V30 3550 H 353.774 4.67145 -0.298842 0
M  V30 3551 H 353.947 6.44573 -0.665519 0
M  V30 3552 N 347.353 -0.0568162 1.57498 0
M  V30 3553 C 348.63 -0.786954 1.79071 0
M  V30 3554 C 349.01 -1.95028 0.80792 0
M  V30 3555 O 348.358 -2.27968 -0.155858 0
M  V30 3556 C 348.568 -1.24594 3.26002 0
M  V30 3557 C 349.916 -1.67323 3.90241 0
M  V30 3558 O 350.94 -1.34124 3.29984 0
M  V30 3559 O 349.799 -2.28842 4.9628 0
M  V30 3560 H 346.893 -0.378262 0.735423 0
M  V30 3561 H 349.439 -0.035734 1.69662 0
M  V30 3562 H 348.211 -0.41423 3.89101 0
M  V30 3563 H 347.834 -2.05803 3.40192 0
M  V30 3564 N 348.832 -1.54138 -0.328536 0
M  V30 3565 C 349.779 -1.83176 -1.40411 0
M  V30 3566 C 350.749 -0.678494 -1.5161 0
M  V30 3567 O 351.934 -0.92443 -1.6691 0
M  V30 3568 C 349.074 -2.06035 -2.76846 0
M  V30 3569 C 348.187 -3.33727 -2.74318 0
M  V30 3570 C 347.322 -3.46574 -4.02567 0
M  V30 3571 C 346.361 -4.68159 -3.94327 0
M  V30 3572 N 345.498 -4.77959 -5.14296 0
M  V30 3573 H 350.338 -2.74938 -1.14948 0
M  V30 3574 H 347.875 -1.36166 -0.556538 0
M  V30 3575 H 349.833 -2.1728 -3.56153 0
M  V30 3576 H 348.463 -1.1757 -3.00628 0
M  V30 3577 H 347.515 -3.31246 -1.8703 0
M  V30 3578 H 348.827 -4.23139 -2.64111 0
M  V30 3579 H 347.981 -3.57333 -4.90304 0
M  V30 3580 H 346.72 -2.55245 -4.15574 0
M  V30 3581 H 345.725 -4.57461 -3.04974 0
M  V30 3582 H 346.95 -5.60868 -3.82889 0
M  V30 3583 H 344.896 -3.89544 -5.27818 0
M  V30 3584 H 344.813 -5.6133 -5.06404 0
M  V30 3585 H 346.081 -4.93044 -6.03761 0
M  V30 3586 N 350.31 0.590341 -1.46126 0
M  V30 3587 C 351.538 1.37504 -1.54597 0
M  V30 3588 C 351.953 1.87897 -0.184447 0
M  V30 3589 O 351.31 1.63192 0.816984 0
M  V30 3590 C 351.361 2.56779 -2.54454 0
M  V30 3591 O 351.082 2.08476 -3.85317 0
M  V30 3592 C 352.583 3.49427 -2.72792 0
M  V30 3593 H 349.803 0.420325 -0.523037 0
M  V30 3594 H 352.347 0.718383 -1.91467 0
M  V30 3595 H 350.502 3.1845 -2.20609 0
M  V30 3596 H 350.916 2.86097 -4.396 0
M  V30 3597 H 352.39 4.29619 -3.466 0
M  V30 3598 H 352.867 4.00876 -1.79429 0
M  V30 3599 H 353.473 2.93598 -3.07702 0
M  V30 3600 N 351.788 1.33704 0.83433 0
M  V30 3601 C 352.735 1.24335 1.94447 0
M  V30 3602 C 353.705 0.120991 1.65659 0
M  V30 3603 O 354.89 0.300035 1.88426 0
M  V30 3604 C 352.03 0.993124 3.30501 0
M  V30 3605 C 351.143 2.20217 3.71657 0
M  V30 3606 C 350.278 1.88572 4.96602 0
M  V30 3607 C 349.317 3.05683 5.30306 0
M  V30 3608 N 348.454 2.73997 6.46429 0
M  V30 3609 H 353.294 2.1928 2.01792 0
M  V30 3610 H 350.831 1.09035 0.987404 0
M  V30 3611 H 352.789 0.828467 4.08892 0
M  V30 3612 H 351.419 0.0803902 3.227 0
M  V30 3613 H 350.471 2.47642 2.88752 0
M  V30 3614 H 351.783 3.07752 3.92543 0
M  V30 3615 H 350.937 1.68776 5.82752 0
M  V30 3616 H 349.676 0.982799 4.77695 0
M  V30 3617 H 348.681 3.26088 4.42659 0
M  V30 3618 H 349.906 3.96737 5.51159 0
M  V30 3619 H 347.852 1.86268 6.28999 0
M  V30 3620 H 347.769 3.55064 6.67432 0
M  V30 3621 H 349.037 2.57679 7.35678 0
M  V30 3622 N 353.266 -1.05314 1.17247 0
M  V30 3623 C 354.494 -1.81971 0.984593 0
M  V30 3624 C 354.909 -1.82929 -0.467166 0
M  V30 3625 O 354.266 -1.25564 -1.32438 0
M  V30 3626 C 354.317 -3.28143 1.51672 0
M  V30 3627 O 354.038 -3.27347 2.91163 0
M  V30 3628 C 355.539 -4.21493 1.37326 0
M  V30 3629 H 352.759 -0.573455 0.348411 0
M  V30 3630 H 355.303 -1.32808 1.55506 0
M  V30 3631 H 353.458 -3.74582 0.988302 0
M  V30 3632 H 353.872 -4.18824 3.15732 0
M  V30 3633 H 355.346 -5.22043 1.79375 0
M  V30 3634 H 355.823 -4.38031 0.320169 0
M  V30 3635 H 356.429 -3.80909 1.89178 0
M  V30 3636 N 354.744 -0.972509 -1.24016 0
M  V30 3637 C 355.691 -0.505969 -2.25186 0
M  V30 3638 C 356.661 0.451009 -1.5986 0
M  V30 3639 O 357.846 0.360307 -1.87367 0
M  V30 3640 C 354.986 0.193089 -3.44559 0
M  V30 3641 C 354.099 -0.803222 -4.24467 0
M  V30 3642 C 353.234 -0.0797793 -5.3114 0
M  V30 3643 C 352.273 -1.06583 -6.02749 0
M  V30 3644 N 351.41 -0.372074 -7.01113 0
M  V30 3645 H 356.25 -1.37351 -2.64459 0
M  V30 3646 H 353.787 -0.688419 -1.29997 0
M  V30 3647 H 355.745 0.615125 -4.1264 0
M  V30 3648 H 354.375 1.02455 -3.06109 0
M  V30 3649 H 353.427 -1.34368 -3.55878 0
M  V30 3650 H 354.739 -1.55494 -4.73944 0
M  V30 3651 H 353.893 0.400015 -6.0538 0
M  V30 3652 H 352.632 0.704597 -4.82583 0
M  V30 3653 H 351.637 -1.55645 -5.27309 0
M  V30 3654 H 352.862 -1.85074 -6.53395 0
M  V30 3655 H 350.808 0.393238 -6.5482 0
M  V30 3656 H 350.725 -1.06258 -7.48495 0
M  V30 3657 H 351.993 0.0855932 -7.79453 0
M  V30 3658 N 356.222 1.38976 -0.743202 0
M  V30 3659 C 357.471 1.99581 -0.291592 0
M  V30 3660 C 357.784 1.59656 1.13001 0
M  V30 3661 O 358.99 2.13157 1.68156 0
M  V30 3662 C 357.446 3.56813 -0.470391 0
M  V30 3663 C 357.054 4.05695 -1.90041 0
M  V30 3664 C 358.798 4.24423 -0.0809709 0
M  V30 3665 C 356.705 5.5553 -2.02832 0
M  V30 3666 H 355.635 0.746615 -0.105272 0
M  V30 3667 H 358.286 1.58872 -0.918258 0
M  V30 3668 H 356.668 3.95359 0.225299 0
M  V30 3669 H 357.842 3.78464 -2.62872 0
M  V30 3670 H 356.157 3.50775 -2.24379 0
M  V30 3671 H 358.754 5.34474 -0.155445 0
M  V30 3672 H 359.097 4.04962 0.96497 0
M  V30 3673 H 359.63 3.9108 -0.728124 0
M  V30 3674 H 356.369 5.79881 -3.05643 0
M  V30 3675 H 355.889 5.84537 -1.34448 0
M  V30 3676 H 357.568 6.21069 -1.81335 0
M  V30 3677 N 357.7 0.491464 1.49741 0
M  V30 3678 C 358.61 -0.296835 2.32715 0
M  V30 3679 C 359.626 -0.976536 1.44013 0
M  V30 3680 O 360.802 -0.960023 1.77047 0
M  V30 3681 C 357.867 -1.35288 3.19215 0
M  V30 3682 C 356.928 -0.687632 4.23757 0
M  V30 3683 C 356.161 -1.69336 5.06123 0
M  V30 3684 O 356.384 -2.92219 4.89861 0
M  V30 3685 O 355.318 -1.25394 5.88693 0
M  V30 3686 H 359.144 0.382048 3.01287 0
M  V30 3687 H 356.729 0.252953 1.47243 0
M  V30 3688 H 358.611 -1.96411 3.72828 0
M  V30 3689 H 357.286 -2.01487 2.53347 0
M  V30 3690 H 356.193 -0.0369159 3.74082 0
M  V30 3691 H 357.526 -0.0682566 4.92153 0
M  V30 3692 N 359.178 -1.55987 0.224894 0
M  V30 3693 C 360.403 -2.03232 -0.41369 0
M  V30 3694 C 360.828 -1.10359 -1.52323 0
M  V30 3695 O 360.186 -0.092395 -1.81064 0
M  V30 3696 C 360.234 -3.48682 -0.919405 0
M  V30 3697 O 359.338 -3.58947 -2.03054 0
M  V30 3698 H 358.679 -0.657428 -0.0931903 0
M  V30 3699 H 361.209 -2.01679 0.34451 0
M  V30 3700 H 361.219 -3.8907 -1.22835 0
M  V30 3701 H 359.894 -4.15761 -0.107339 0
M  V30 3702 H 358.471 -3.30448 -1.72796 0
M  V30 3703 N 360.656 0.0484629 -1.57525 0
M  V30 3704 C 361.586 1.0549 -2.08313 0
M  V30 3705 C 362.567 1.38929 -0.981463 0
M  V30 3706 O 363.752 1.48151 -1.25558 0
M  V30 3707 C 360.882 2.36162 -2.54646 0
M  V30 3708 C 359.836 2.17016 -3.68901 0
M  V30 3709 C 359.162 3.53278 -4.01371 0
M  V30 3710 C 360.462 1.57219 -4.98076 0
M  V30 3711 H 362.156 0.632195 -2.92649 0
M  V30 3712 H 359.702 0.302654 -1.40784 0
M  V30 3713 H 361.655 3.06882 -2.88793 0
M  V30 3714 H 360.379 2.80456 -1.67368 0
M  V30 3715 H 359.038 1.48733 -3.35073 0
M  V30 3716 H 358.686 3.95185 -3.11188 0
M  V30 3717 H 358.386 3.41299 -4.78318 0
M  V30 3718 H 359.91 4.25391 -4.38035 0
M  V30 3719 H 361.324 2.17832 -5.30304 0
M  V30 3720 H 359.721 1.55871 -5.79503 0
M  V30 3721 H 360.791 0.535956 -4.81929 0
M  V30 3722 N 362.134 1.5431 0.320358 0
M  V30 3723 C 363.081 1.83918 1.39438 0
M  V30 3724 C 364.051 0.686525 1.51248 0
M  V30 3725 O 365.236 0.933269 1.66417 0
M  V30 3726 C 362.376 2.075 2.75749 0
M  V30 3727 C 361.489 3.35177 2.72544 0
M  V30 3728 C 360.624 3.48704 4.00723 0
M  V30 3729 C 359.663 4.70244 3.91838 0
M  V30 3730 N 358.8 4.80679 5.11754 0
M  V30 3731 H 363.64 2.75544 1.13489 0
M  V30 3732 H 361.177 1.36459 0.549309 0
M  V30 3733 H 363.135 2.19166 3.54996 0
M  V30 3734 H 361.765 1.19163 3 0
M  V30 3735 H 360.817 3.32233 1.85271 0
M  V30 3736 H 362.129 4.24534 2.61863 0
M  V30 3737 H 361.283 3.59928 4.88402 0
M  V30 3738 H 360.022 2.57445 4.14214 0
M  V30 3739 H 359.027 4.59072 3.02544 0
M  V30 3740 H 360.252 5.6289 3.7991 0
M  V30 3741 H 358.198 3.92337 5.25745 0
M  V30 3742 H 358.115 5.64007 5.0342 0
M  V30 3743 H 359.383 4.96239 6.01138 0
M  V30 3744 N 363.613 -0.582584 1.46437 0
M  V30 3745 C 364.523 -1.71949 1.59595 0
M  V30 3746 C 365.539 -1.67264 0.479443 0
M  V30 3747 O 366.715 -1.87171 0.743579 0
M  V30 3748 C 363.78 -3.08452 1.58298 0
M  V30 3749 C 362.841 -3.244 2.81182 0
M  V30 3750 C 362.074 -4.54391 2.79937 0
M  V30 3751 O 362.297 -5.38287 1.8869 0
M  V30 3752 O 361.231 -4.73588 3.71481 0
M  V30 3753 H 365.057 -1.63795 2.55744 0
M  V30 3754 H 362.642 -0.749643 1.29231 0
M  V30 3755 H 364.524 -3.89732 1.60271 0
M  V30 3756 H 363.199 -3.17043 0.653094 0
M  V30 3757 H 362.106 -2.42613 2.84763 0
M  V30 3758 H 363.439 -3.20699 3.7338 0
M  V30 3759 N 365.091 -1.34144 -0.827227 0
M  V30 3760 C 366.041 -1.21923 -1.92663 0
M  V30 3761 C 367.025 -0.119294 -1.60457 0
M  V30 3762 O 368.217 -0.348539 -1.73534 0
M  V30 3763 C 365.346 -0.972492 -3.29238 0
M  V30 3764 C 364.432 -2.1154 -3.67576 0
M  V30 3765 N 364.823 -3.36627 -3.77512 0
M  V30 3766 C 363.121 -2.02468 -3.97395 0
M  V30 3767 C 363.822 -4.11658 -4.1099 0
M  V30 3768 N 362.798 -3.40207 -4.23981 0
M  V30 3769 H 366.6 -2.16721 -1.98517 0
M  V30 3770 H 364.114 -1.2632 -1.02064 0
M  V30 3771 H 366.111 -0.865847 -4.0781 0
M  V30 3772 H 364.771 -0.0331509 -3.24683 0
M  V30 3773 H 365.782 -3.71234 -3.61118 0
M  V30 3774 H 362.459 -1.16265 -4.00985 0
M  V30 3775 H 363.849 -5.19657 -4.25918 0
M  V30 3776 N 366.569 1.04691 -1.17803 0
M  V30 3777 C 367.817 1.7743 -0.967617 0
M  V30 3778 C 368.138 1.88359 0.504574 0
M  V30 3779 O 367.408 1.40402 1.36617 0
M  V30 3780 H 365.988 0.657242 -0.355024 0
M  V30 3781 H 368.65 1.2638 -1.48371 0
M  V30 3782 H 367.746 2.78924 -1.40027 0
M  V30 3783 N 368.047 0.979072 1.23499 0
M  V30 3784 C 369.458 0.684391 1.73704 0
M  V30 3785 C 369.809 -0.799448 1.79174 0
M  V30 3786 O 368.934 -1.62531 1.42873 0
M  V30 3787 C 369.529 1.23564 3.15464 0
M  V30 3788 C 368.088 0.99063 3.6313 0
M  V30 3789 C 367.235 1.36416 2.41425 0
M  V30 3790 H 370.186 1.15307 1.09041 0
M  V30 3791 H 370.207 0.607417 3.7562 0
M  V30 3792 H 369.719 2.31561 3.1145 0
M  V30 3793 H 367.82 -0.0733136 3.72528 0
M  V30 3794 H 367.933 1.64427 4.5 0
M  V30 3795 H 366.297 0.782616 2.42378 0
M  V30 3796 H 367.08 2.45387 2.40083 0
M  V30 3797 N 369.525 -1.3858 0.750561 0
M  V30 3798 C 370.774 -1.99424 0.302172 0
M  V30 3799 C 371.087 -1.60254 -1.12152 0
M  V30 3800 O 372.293 -2.14046 -1.67023 0
M  V30 3801 C 370.749 -3.56558 0.489307 0
M  V30 3802 C 370.357 -4.04682 1.92189 0
M  V30 3803 C 372.101 -4.24374 0.103478 0
M  V30 3804 C 370.008 -5.54446 2.05775 0
M  V30 3805 H 368.938 -0.746046 0.10923 0
M  V30 3806 H 371.589 -1.58383 0.92667 0
M  V30 3807 H 369.971 -3.95472 -0.204329 0
M  V30 3808 H 371.145 -3.77065 2.64875 0
M  V30 3809 H 369.46 -3.4958 2.26236 0
M  V30 3810 H 372.057 -5.34384 0.183787 0
M  V30 3811 H 372.4 -4.05468 -0.943481 0
M  V30 3812 H 372.933 -3.90688 0.748854 0
M  V30 3813 H 369.672 -5.78252 3.08714 0
M  V30 3814 H 369.192 -5.83816 1.37546 0
M  V30 3815 H 370.871 -6.20099 1.84626 0
M  V30 3816 N 371.003 -0.499398 -1.49478 0
M  V30 3817 C 371.95 0.279881 -2.29097 0
M  V30 3818 C 372.92 0.961805 -1.3542 0
M  V30 3819 O 374.105 0.968777 -1.64376 0
M  V30 3820 C 371.245 1.33932 -3.18051 0
M  V30 3821 C 370.358 0.669333 -4.26783 0
M  V30 3822 C 369.493 1.70907 -5.02955 0
M  V30 3823 C 368.532 1.02087 -6.03527 0
M  V30 3824 N 367.669 2.00474 -6.7287 0
M  V30 3825 H 372.509 -0.405317 -2.95231 0
M  V30 3826 H 370.046 -0.211726 -1.45568 0
M  V30 3827 H 372.004 1.96553 -3.67998 0
M  V30 3828 H 370.634 1.9933 -2.53904 0
M  V30 3829 H 369.686 -0.0701234 -3.80335 0
M  V30 3830 H 370.998 0.127503 -4.98637 0
M  V30 3831 H 370.152 2.41037 -5.56764 0
M  V30 3832 H 368.891 2.28476 -4.30871 0
M  V30 3833 H 367.896 0.305338 -5.48951 0
M  V30 3834 H 369.121 0.451708 -6.77596 0
M  V30 3835 H 367.067 2.57007 -6.03559 0
M  V30 3836 H 366.984 1.51353 -7.40694 0
M  V30 3837 H 368.252 2.69897 -7.31284 0
M  V30 3838 N 372.481 1.55866 -0.233164 0
M  V30 3839 C 373.429 2.22176 0.68851 0
M  V30 3840 C 374.423 1.20487 1.19076 0
M  V30 3841 O 375.629 1.38536 1.14925 0
M  V30 3842 H 372.004 0.712511 0.240483 0
M  V30 3843 H 373.975 2.98212 0.105935 0
M  V30 3844 C 372.724 2.92446 1.88071 0
M  V30 3845 H 372.047 3.70458 1.50337 0
M  V30 3846 H 373.487 3.42226 2.50314 0
M  V30 3847 C 371.946 1.95555 2.74335 0
M  V30 3848 O 372.476 1.47986 3.73447 0
M  V30 3849 N 370.682 1.62953 2.40613 0
M  V30 3850 H 370.229 2.01831 1.60069 0
M  V30 3851 H 370.187 0.983886 2.98609 0
M  V30 3852 N 373.959 -0.0401083 1.57549 0
M  V30 3853 C 374.906 -1.04413 2.05831 0
M  V30 3854 C 375.876 -1.36585 0.945184 0
M  V30 3855 O 377.061 -1.47112 1.21502 0
M  V30 3856 C 374.201 -2.34336 2.53339 0
M  V30 3857 C 373.314 -2.08419 3.78398 0
M  V30 3858 C 372.449 -3.32133 4.14561 0
M  V30 3859 C 371.488 -3.01721 5.3257 0
M  V30 3860 N 370.625 -4.17855 5.64218 0
M  V30 3861 H 375.465 -0.625442 2.91363 0
M  V30 3862 H 373.002 -0.297218 1.44066 0
M  V30 3863 H 374.96 -3.10234 2.78946 0
M  V30 3864 H 373.59 -2.73948 1.7074 0
M  V30 3865 H 372.642 -1.23069 3.59942 0
M  V30 3866 H 373.954 -1.81978 4.64419 0
M  V30 3867 H 373.108 -4.16406 4.41238 0
M  V30 3868 H 371.847 -3.61678 3.2717 0
M  V30 3869 H 370.852 -2.15849 5.05657 0
M  V30 3870 H 372.077 -2.73466 6.21605 0
M  V30 3871 H 370.023 -4.47372 4.79786 0
M  V30 3872 H 369.94 -3.94798 6.44725 0
M  V30 3873 H 371.208 -5.03033 5.95465 0
M  V30 3874 N 375.437 -1.54477 -0.31217 0
M  V30 3875 C 376.37 -1.79519 -1.40884 0
M  V30 3876 C 377.348 -0.645753 -1.49227 0
M  V30 3877 O 378.532 -0.884468 -1.66461 0
M  V30 3878 C 375.659 -1.92194 -2.78889 0
M  V30 3879 C 374.705 -3.14555 -2.88023 0
M  V30 3880 S 375.538 -4.72893 -2.51262 0
M  V30 3881 C 376.694 -4.8849 -3.91317 0
M  V30 3882 H 376.927 -2.72256 -1.19432 0
M  V30 3883 H 374.46 -1.45746 -0.509654 0
M  V30 3884 H 376.418 -2.00182 -3.58382 0
M  V30 3885 H 375.079 -1.00414 -2.97617 0
M  V30 3886 H 374.272 -3.20193 -3.89221 0
M  V30 3887 H 373.874 -3.04955 -2.16514 0
M  V30 3888 H 376.166 -4.71826 -4.86196 0
M  V30 3889 H 377.109 -5.90588 -3.90656 0
M  V30 3890 H 377.517 -4.16715 -3.80801 0
M  V30 3891 N 376.915 0.57481 -1.46744 0
M  V30 3892 C 378.14 1.36341 -1.56288 0
M  V30 3893 C 378.565 1.86954 -0.207347 0
M  V30 3894 O 377.923 1.62006 0.813871 0
M  V30 3895 C 377.971 2.52147 -2.57787 0
M  V30 3896 O 377.075 3.53834 -2.11838 0
M  V30 3897 H 376.416 0.405713 -0.525636 0
M  V30 3898 H 378.946 0.696453 -1.92382 0
M  V30 3899 H 378.956 2.98958 -2.77648 0
M  V30 3900 H 377.631 2.14663 -3.5622 0
M  V30 3901 H 376.208 3.1345 -2.01999 0
M  V30 3902 N 378.394 1.34581 0.820102 0
M  V30 3903 C 379.304 1.28471 1.96297 0
M  V30 3904 C 380.32 0.191902 1.72939 0
M  V30 3905 O 381.496 0.418879 1.96996 0
M  V30 3906 C 378.561 1.04281 3.30645 0
M  V30 3907 C 377.622 2.22745 3.66992 0
M  V30 3908 C 376.855 1.997 4.9493 0
M  V30 3909 O 377.078 0.956656 5.6232 0
M  V30 3910 O 376.012 2.86723 5.2922 0
M  V30 3911 H 379.838 2.24624 2.04396 0
M  V30 3912 H 377.423 1.14816 0.955913 0
M  V30 3913 H 379.305 0.925841 4.11104 0
M  V30 3914 H 377.98 0.111697 3.23507 0
M  V30 3915 H 376.887 2.40003 2.86966 0
M  V30 3916 H 378.22 3.14257 3.78819 0
M  V30 3917 N 379.872 -1.04064 1.18357 0
M  V30 3918 C 381.097 -1.81454 1.00445 0
M  V30 3919 C 381.522 -1.82823 -0.442423 0
M  V30 3920 O 380.88 -1.24555 -1.31741 0
M  V30 3921 C 380.928 -3.24925 1.56384 0
M  V30 3922 O 380.032 -4.04856 0.785209 0
M  V30 3923 H 379.373 -0.560604 0.355835 0
M  V30 3924 H 381.903 -1.31059 1.57114 0
M  V30 3925 H 381.913 -3.75702 1.59097 0
M  V30 3926 H 380.588 -3.23244 2.61699 0
M  V30 3927 H 379.165 -3.63537 0.830399 0
M  V30 3928 N 381.35 -0.985608 -1.22978 0
M  V30 3929 C 382.761 -0.693593 -1.73338 0
M  V30 3930 C 383.112 0.789935 -1.79595 0
M  V30 3931 O 382.237 1.61771 -1.43733 0
M  V30 3932 C 382.832 -1.25235 -3.14804 0
M  V30 3933 C 381.391 -1.00987 -3.626 0
M  V30 3934 C 380.538 -1.37695 -2.40698 0
M  V30 3935 H 383.489 -1.15884 -1.08428 0
M  V30 3936 H 383.51 -0.627329 -3.75293 0
M  V30 3937 H 383.022 -2.33209 -3.10218 0
M  V30 3938 H 381.123 0.0535565 -3.72562 0
M  V30 3939 H 381.236 -1.66812 -4.49122 0
M  V30 3940 H 379.6 -0.795459 -2.4196 0
M  V30 3941 H 380.383 -2.46657 -2.38779 0
M  V30 3942 N 382.828 1.3818 -0.7579 0
M  V30 3943 C 383.776 2.32277 -0.122482 0
M  V30 3944 C 384.77 1.54238 0.700505 0
M  V30 3945 O 385.976 1.69737 0.599119 0
M  V30 3946 H 382.351 0.751712 -0.0208143 0
M  V30 3947 H 384.322 2.83469 -0.932099 0
M  V30 3948 C 383.071 3.39447 0.753076 0
M  V30 3949 H 382.394 3.99591 0.129184 0
M  V30 3950 H 383.834 4.07684 1.16489 0
M  V30 3951 C 382.293 2.78375 1.8976 0
M  V30 3952 O 382.823 2.68025 2.99208 0
M  V30 3953 N 381.029 2.36121 1.69397 0
M  V30 3954 H 380.576 2.4474 0.803762 0
M  V30 3955 H 380.534 1.95602 2.46145 0
M  V30 3956 N 384.306 0.507319 1.49211 0
M  V30 3957 C 385.253 -0.267728 2.29242 0
M  V30 3958 C 386.223 -0.954609 1.35928 0
M  V30 3959 O 387.408 -0.960046 1.64887 0
M  V30 3960 C 384.548 -1.32243 3.18756 0
M  V30 3961 C 383.661 -0.64669 4.27132 0
M  V30 3962 C 382.796 -1.68238 5.03855 0
M  V30 3963 C 381.835 -0.98885 6.0406 0
M  V30 3964 N 380.972 -1.96903 6.73924 0
M  V30 3965 H 385.812 0.420968 2.95012 0
M  V30 3966 H 383.349 0.219443 1.45454 0
M  V30 3967 H 385.307 -1.94599 3.69036 0
M  V30 3968 H 383.937 -1.97981 2.54958 0
M  V30 3969 H 382.989 0.0902926 3.80293 0
M  V30 3970 H 384.301 -0.101058 4.98698 0
M  V30 3971 H 383.455 -2.38081 5.58034 0
M  V30 3972 H 382.194 -2.26187 4.32077 0
M  V30 3973 H 381.199 -0.276222 5.49106 0
M  V30 3974 H 382.424 -0.415767 6.77826 0
M  V30 3975 H 380.37 -2.53803 6.04913 0
M  V30 3976 H 380.287 -1.47423 7.41487 0
M  V30 3977 H 381.555 -2.66015 7.32705 0
M  V30 3978 N 385.784 -1.5574 0.241426 0
M  V30 3979 C 387.012 -2.03208 -0.389134 0
M  V30 3980 C 387.427 -1.12082 -1.51931 0
M  V30 3981 O 386.784 -0.134183 -1.82006 0
M  V30 3982 C 386.835 -3.50064 -0.902087 0
M  V30 3983 O 386.556 -4.37717 0.18305 0
M  V30 3984 C 388.057 -4.13268 -1.60389 0
M  V30 3985 H 385.277 -0.664509 -0.0931053 0
M  V30 3986 H 387.821 -2.0124 0.36369 0
M  V30 3987 H 385.976 -3.52583 -1.60511 0
M  V30 3988 H 386.39 -5.24097 -0.205579 0
M  V30 3989 H 387.864 -5.17733 -1.91458 0
M  V30 3990 H 388.341 -3.59434 -2.52397 0
M  V30 3991 H 388.947 -4.14655 -0.945576 0
M  V30 3992 N 387.262 0.0317525 -1.57568 0
M  V30 3993 C 388.508 0.724175 -1.8943 0
M  V30 3994 C 388.841 1.75149 -0.838836 0
M  V30 3995 O 388.116 1.93948 0.146422 0
M  V30 3996 C 388.399 1.39615 -3.31933 0
M  V30 3997 C 388.252 0.382537 -4.4817 0
M  V30 3998 C 389.571 2.33084 -3.73309 0
M  V30 3999 H 386.69 0.261797 -0.688935 0
M  V30 4000 H 389.332 -0.013017 -1.89996 0
M  V30 4001 H 387.482 2.02451 -3.31581 0
M  V30 4002 H 389.154 -0.243689 -4.60656 0
M  V30 4003 H 387.397 -0.29844 -4.32772 0
M  V30 4004 H 388.068 0.891145 -5.44759 0
M  V30 4005 H 390.544 1.80295 -3.7501 0
M  V30 4006 H 389.42 2.77084 -4.73831 0
M  V30 4007 H 389.681 3.19643 -3.05419 0
M  V30 4008 N 388.74 1.54641 0.303973 0
M  V30 4009 C 389.965 1.78092 1.06292 0
M  V30 4010 C 390.39 0.537342 1.80262 0
M  V30 4011 O 389.748 -0.511993 1.7392 0
M  V30 4012 C 389.796 2.98612 2.02147 0
M  V30 4013 O 388.9 2.71528 3.10397 0
M  V30 4014 H 388.241 0.589548 0.305497 0
M  V30 4015 H 390.771 2.01716 0.3423 0
M  V30 4016 H 390.781 3.265 2.44667 0
M  V30 4017 H 389.456 3.88785 1.47714 0
M  V30 4018 H 388.033 2.54648 2.72413 0
M  V30 4019 N 390.218 -0.567019 1.47046 0
M  V30 4020 C 391.128 -1.70247 1.6141 0
M  V30 4021 C 392.144 -1.66746 0.497157 0
M  V30 4022 O 393.32 -1.86371 0.763389 0
M  V30 4023 C 390.385 -3.06756 1.61561 0
M  V30 4024 C 389.446 -3.21399 2.84607 0
M  V30 4025 C 388.679 -4.51396 2.84741 0
M  V30 4026 O 388.902 -5.36255 1.94388 0
M  V30 4027 O 387.836 -4.69621 3.76483 0
M  V30 4028 H 391.662 -1.61073 2.57467 0
M  V30 4029 H 389.247 -0.735894 1.30019 0
M  V30 4030 H 391.129 -3.8801 1.64396 0
M  V30 4031 H 389.804 -3.16333 0.686684 0
M  V30 4032 H 388.711 -2.39579 2.8732 0
M  V30 4033 H 390.044 -3.16721 3.76761 0
M  V30 4034 N 391.696 -1.35014 -0.812953 0
M  V30 4035 C 392.606 -1.2951 -1.95613 0
M  V30 4036 C 393.622 -0.20107 -1.72834 0
M  V30 4037 O 394.798 -0.42932 -1.96771 0
M  V30 4038 C 391.863 -1.06033 -3.30088 0
M  V30 4039 C 390.924 -2.24688 -3.65805 0
M  V30 4040 C 390.157 -2.02322 -4.93864 0
M  V30 4041 O 390.38 -0.986464 -5.61805 0
M  V30 4042 O 389.314 -2.89525 -5.27692 0
M  V30 4043 H 393.14 -2.25705 -2.03202 0
M  V30 4044 H 390.725 -1.15321 -0.949811 0
M  V30 4045 H 392.607 -0.94763 -4.10607 0
M  V30 4046 H 391.282 -0.128852 -3.23443 0
M  V30 4047 H 390.189 -2.41521 -2.85689 0
M  V30 4048 H 391.522 -3.16261 -3.77147 0
M  V30 4049 N 393.175 1.03435 -1.18907 0
M  V30 4050 C 394.122 2.11591 -0.921837 0
M  V30 4051 C 395.092 1.65499 0.141226 0
M  V30 4052 O 396.277 1.908 0.000242829 0
M  V30 4053 C 393.417 3.42012 -0.460616 0
M  V30 4054 C 392.53 4.01682 -1.58982 0
M  V30 4055 C 391.665 5.20091 -1.08069 0
M  V30 4056 C 390.704 5.71805 -2.18416 0
M  V30 4057 N 389.841 6.81494 -1.68849 0
M  V30 4058 H 394.681 2.33787 -1.8479 0
M  V30 4059 H 392.218 1.1467 -0.921373 0
M  V30 4060 H 394.176 4.16834 -0.174642 0
M  V30 4061 H 392.806 3.19944 0.428467 0
M  V30 4062 H 391.858 3.24127 -1.99113 0
M  V30 4063 H 393.17 4.36084 -2.4214 0
M  V30 4064 H 392.324 6.02051 -0.749615 0
M  V30 4065 H 391.063 4.87209 -0.218771 0
M  V30 4066 H 390.068 4.88461 -2.5236 0
M  V30 4067 H 391.293 6.06728 -3.05054 0
M  V30 4068 H 389.239 6.50475 -0.849572 0
M  V30 4069 H 389.156 7.14994 -2.45601 0
M  V30 4070 H 390.424 7.67063 -1.38689 0
M  V30 4071 N 394.653 0.992116 1.22453 0
M  V30 4072 C 395.616 0.546883 2.2258 0
M  V30 4073 C 396.616 -0.369829 1.56489 0
M  V30 4074 O 397.806 -0.161896 1.73446 0
M  V30 4075 C 394.938 -0.204659 3.40285 0
M  V30 4076 H 396.131 1.43234 2.63484 0
M  V30 4077 H 393.684 0.779239 1.3549 0
M  V30 4078 H 394.419 -1.10614 3.04853 0
M  V30 4079 H 394.204 0.45354 3.89468 0
M  V30 4080 H 395.694 -0.504358 4.14543 0
M  V30 4081 N 396.131 -1.37776 0.765217 0
M  V30 4082 C 397.078 -2.30342 0.145274 0
M  V30 4083 C 398.048 -1.5077 -0.696971 0
M  V30 4084 O 399.233 -1.79362 -0.650689 0
M  V30 4085 C 396.373 -3.37227 -0.732939 0
M  V30 4086 C 395.486 -4.31819 0.125199 0
M  V30 4087 C 394.621 -5.25777 -0.757107 0
M  V30 4088 C 393.66 -6.12012 0.103963 0
M  V30 4089 N 392.797 -6.98232 -0.735953 0
M  V30 4090 H 397.637 -2.8278 0.940195 0
M  V30 4091 H 395.174 -1.39211 0.475255 0
M  V30 4092 H 397.132 -3.97818 -1.25686 0
M  V30 4093 H 395.762 -2.86171 -1.49353 0
M  V30 4094 H 394.814 -3.7259 0.766865 0
M  V30 4095 H 396.126 -4.92509 0.789683 0
M  V30 4096 H 395.28 -5.91541 -1.34776 0
M  V30 4097 H 394.019 -4.65481 -1.45529 0
M  V30 4098 H 393.024 -5.45233 0.707197 0
M  V30 4099 H 394.249 -6.74379 0.799381 0
M  V30 4100 H 392.195 -6.40472 -1.41887 0
M  V30 4101 H 392.112 -7.55891 -0.128624 0
M  V30 4102 H 393.38 -7.68393 -1.31121 0
M  V30 4103 N 397.609 -0.515225 -1.4894 0
M  V30 4104 C 398.541 0.292481 -2.27326 0
M  V30 4105 C 399.554 0.917838 -1.3446 0
M  V30 4106 O 400.743 0.798772 -1.5963 0
M  V30 4107 C 397.843 1.42803 -3.07344 0
M  V30 4108 C 397.016 0.907347 -4.27885 0
M  V30 4109 C 396.075 1.92222 -4.89834 0
M  V30 4110 O 395.101 1.48506 -5.49486 0
M  V30 4111 N 396.303 3.25355 -4.80754 0
M  V30 4112 H 399.068 -0.379721 -2.97285 0
M  V30 4113 H 396.629 -0.348638 -1.58102 0
M  V30 4114 H 398.621 2.10481 -3.45658 0
M  V30 4115 H 397.191 2.00414 -2.39902 0
M  V30 4116 H 396.411 0.0550218 -3.94162 0
M  V30 4117 H 397.699 0.538108 -5.05946 0
M  V30 4118 H 397.097 3.6355 -4.33414 0
M  V30 4119 H 395.654 3.88707 -5.23211 0
M  V30 4120 N 399.087 1.5561 -0.249682 0
M  V30 4121 C 400.317 2.03116 0.377803 0
M  V30 4122 C 400.725 1.12822 1.51881 0
M  V30 4123 O 400.068 0.13562 1.83199 0
M  V30 4124 C 400.13 3.46866 0.944693 0
M  V30 4125 C 399.794 4.56955 -0.0644259 0
M  V30 4126 C 400.791 5.12485 -0.874957 0
M  V30 4127 C 398.476 5.01936 -0.19132 0
M  V30 4128 C 400.47 6.11491 -1.79881 0
M  V30 4129 C 398.157 6.00773 -1.11868 0
M  V30 4130 C 399.155 6.5543 -1.92095 0
M  V30 4131 O 398.843 7.5234 -2.83267 0
M  V30 4132 H 398.575 0.669489 0.0935961 0
M  V30 4133 H 401.129 2.02004 -0.371966 0
M  V30 4134 H 399.359 3.45136 1.74407 0
M  V30 4135 H 401.048 3.77856 1.48255 0
M  V30 4136 H 401.814 4.78564 -0.787523 0
M  V30 4137 H 397.693 4.59055 0.423072 0
M  V30 4138 H 401.237 6.54078 -2.42543 0
M  V30 4139 H 397.134 6.34114 -1.20703 0
M  V30 4140 H 397.902 7.69966 -2.7766 0
M  V30 4141 N 400.565 -0.0233959 1.57583 0
M  V30 4142 C 401.495 -1.02162 2.09965 0
M  V30 4143 C 402.476 -1.3735 1.00344 0
M  V30 4144 O 403.661 -1.46135 1.27899 0
M  V30 4145 C 400.791 -2.32081 2.58371 0
M  V30 4146 C 399.745 -2.1112 3.72307 0
M  V30 4147 C 399.071 -3.46848 4.06941 0
M  V30 4148 C 400.371 -1.49276 5.00514 0
M  V30 4149 H 402.065 -0.585557 2.93618 0
M  V30 4150 H 399.611 -0.280218 1.41247 0
M  V30 4151 H 401.564 -3.02249 2.93639 0
M  V30 4152 H 400.288 -2.77758 1.71808 0
M  V30 4153 H 398.947 -1.43384 3.37397 0
M  V30 4154 H 398.595 -3.90184 3.17436 0
M  V30 4155 H 398.295 -3.33646 4.83688 0
M  V30 4156 H 399.819 -4.18369 4.44747 0
M  V30 4157 H 401.233 -2.09368 5.33702 0
M  V30 4158 H 399.63 -1.46632 5.8191 0
M  V30 4159 H 400.7 -0.459217 4.82721 0
M  V30 4160 N 402.043 -1.548 -0.295768 0
M  V30 4161 C 402.953 -1.89177 -1.38742 0
M  V30 4162 C 403.969 -0.786481 -1.55211 0
M  V30 4163 O 405.145 -1.08344 -1.69775 0
M  V30 4164 C 402.21 -2.13663 -2.73036 0
M  V30 4165 C 401.271 -3.37349 -2.65508 0
M  V30 4166 C 400.504 -3.60658 -3.93398 0
M  V30 4167 O 400.727 -2.86882 -4.93006 0
M  V30 4168 O 399.661 -4.54179 -3.94975 0
M  V30 4169 H 403.487 -2.82059 -1.12589 0
M  V30 4170 H 401.072 -1.41056 -0.492295 0
M  V30 4171 H 402.954 -2.3094 -3.52484 0
M  V30 4172 H 401.629 -1.23967 -2.99022 0
M  V30 4173 H 400.536 -3.25431 -1.84514 0
M  V30 4174 H 401.869 -4.27192 -2.44474 0
M  V30 4175 N 403.521 0.559213 -1.47345 0
M  V30 4176 C 404.431 1.69388 -1.62311 0
M  V30 4177 C 405.447 1.6648 -0.505993 0
M  V30 4178 O 406.623 1.85964 -0.773262 0
M  V30 4179 C 403.688 3.05894 -1.63185 0
M  V30 4180 C 402.749 3.19885 -2.86307 0
M  V30 4181 C 401.982 4.49879 -2.87131 0
M  V30 4182 O 402.205 5.35217 -1.97229 0
M  V30 4183 O 401.139 4.67618 -3.78968 0
M  V30 4184 H 404.965 1.59706 -2.58317 0
M  V30 4185 H 402.55 0.728989 -1.30407 0
M  V30 4186 H 404.432 3.87133 -1.66451 0
M  V30 4187 H 403.107 3.15964 -0.70345 0
M  V30 4188 H 402.014 2.38052 -2.88587 0
M  V30 4189 H 403.347 3.14718 -3.78435 0
M  V30 4190 N 404.999 1.35443 0.805782 0
M  V30 4191 C 406.246 1.28761 1.56291 0
M  V30 4192 C 406.574 -0.137747 1.94012 0
M  V30 4193 O 405.829 -1.1032 1.61642 0
M  V30 4194 C 406.128 2.14045 2.86216 0
M  V30 4195 C 405.794 3.62826 2.67709 0
M  V30 4196 C 404.456 4.0338 2.6237 0
M  V30 4197 C 406.808 4.57227 2.50186 0
M  V30 4198 C 404.136 5.36501 2.37451 0
M  V30 4199 C 406.488 5.90547 2.26797 0
M  V30 4200 C 405.152 6.30245 2.1988 0
M  V30 4201 H 404.422 0.471171 0.571908 0
M  V30 4202 H 407.069 1.67347 0.930974 0
M  V30 4203 H 405.374 1.68342 3.53791 0
M  V30 4204 H 407.071 2.0621 3.43917 0
M  V30 4205 H 403.661 3.30644 2.72713 0
M  V30 4206 H 407.845 4.2678 2.53323 0
M  V30 4207 H 403.101 5.66259 2.30567 0
M  V30 4208 H 407.275 6.63274 2.12228 0
M  V30 4209 H 404.902 7.33328 2.00333 0
M  V30 4210 N 406.477 -1.02803 1.19454 0
M  V30 4211 C 407.427 -2.0945 0.900827 0
M  V30 4212 C 408.411 -1.60335 -0.134715 0
M  V30 4213 O 409.603 -1.76857 0.0710924 0
M  V30 4214 C 406.732 -3.4044 0.442229 0
M  V30 4215 C 405.818 -3.96286 1.51056 0
M  V30 4216 N 406.209 -4.25785 2.73021 0
M  V30 4217 C 404.507 -4.24307 1.37404 0
M  V30 4218 C 405.208 -4.70654 3.41848 0
M  V30 4219 N 404.184 -4.72238 2.69243 0
M  V30 4220 H 407.986 -2.3015 1.82779 0
M  V30 4221 H 405.5 -1.20672 1.08683 0
M  V30 4222 H 407.497 -4.16354 0.21326 0
M  V30 4223 H 406.157 -3.21159 -0.478238 0
M  V30 4224 H 407.168 -4.15041 3.09776 0
M  V30 4225 H 403.845 -4.14285 0.517103 0
M  V30 4226 H 405.235 -5.02392 4.46152 0
M  V30 4227 N 407.956 -0.998596 -1.21925 0
M  V30 4228 C 408.888 -0.511879 -2.23411 0
M  V30 4229 C 409.901 0.396094 -1.57908 0
M  V30 4230 O 411.09 0.197316 -1.77406 0
M  V30 4231 C 408.19 0.276802 -3.37768 0
M  V30 4232 C 407.363 -0.628687 -4.32858 0
M  V30 4233 C 406.422 0.109272 -5.26087 0
M  V30 4234 O 405.448 -0.507237 -5.66935 0
M  V30 4235 N 406.65 1.38983 -5.63617 0
M  V30 4236 H 409.415 -1.38457 -2.658 0
M  V30 4237 H 406.976 -0.873981 -1.36283 0
M  V30 4238 H 408.968 0.77928 -3.97126 0
M  V30 4239 H 407.538 1.05063 -2.94415 0
M  V30 4240 H 406.758 -1.31175 -3.71735 0
M  V30 4241 H 408.046 -1.24514 -4.93329 0
M  V30 4242 H 407.444 1.91194 -5.32411 0
M  V30 4243 H 406.001 1.83739 -6.25367 0
M  V30 4244 N 409.434 1.37368 -0.772513 0
M  V30 4245 C 410.662 2.03942 -0.348588 0
M  V30 4246 C 411.077 1.58264 1.02947 0
M  V30 4247 O 410.434 0.764246 1.65727 0
M  V30 4248 C 410.485 3.5946 -0.38351 0
M  V30 4249 O 410.206 4.03468 -1.70721 0
M  V30 4250 C 411.707 4.4327 0.0519152 0
M  V30 4251 H 408.927 0.654931 -0.145966 0
M  V30 4252 H 411.471 1.75686 -1.04665 0
M  V30 4253 H 409.626 3.86486 0.265978 0
M  V30 4254 H 410.04 4.97991 -1.64636 0
M  V30 4255 H 411.514 5.51995 -0.0236733 0
M  V30 4256 H 411.991 4.2514 1.10238 0
M  V30 4257 H 412.597 4.21471 -0.569415 0
M  V30 4258 N 410.912 0.523116 1.48665 0
M  V30 4259 C 411.875 -0.232592 2.28017 0
M  V30 4260 C 412.875 -0.874021 1.34972 0
M  V30 4261 O 414.065 -0.735132 1.57929 0
M  V30 4262 C 411.197 -1.33586 3.13636 0
M  V30 4263 H 412.39 0.464008 2.96289 0
M  V30 4264 H 409.943 0.278816 1.53793 0
M  V30 4265 H 410.678 -2.06593 2.4998 0
M  V30 4266 H 410.463 -0.881125 3.82071 0
M  V30 4267 H 411.953 -1.86759 3.73511 0
M  V30 4268 N 412.39 -1.55475 0.257931 0
M  V30 4269 C 413.32 -2.24815 -0.630912 0
M  V30 4270 C 414.301 -1.23224 -1.17259 0
M  V30 4271 O 415.486 -1.51904 -1.20991 0
M  V30 4272 C 412.616 -2.95609 -1.82298 0
M  V30 4273 C 411.57 -4.03982 -1.41359 0
M  V30 4274 C 410.896 -4.6226 -2.68738 0
M  V30 4275 C 412.196 -5.19109 -0.57648 0
M  V30 4276 H 413.89 -2.99354 -0.0526878 0
M  V30 4277 H 411.436 -1.4398 -0.023901 0
M  V30 4278 H 413.389 -3.42822 -2.45054 0
M  V30 4279 H 412.113 -2.18577 -2.42676 0
M  V30 4280 H 410.772 -3.57555 -0.809324 0
M  V30 4281 H 410.42 -3.81915 -3.27338 0
M  V30 4282 H 410.12 -5.35424 -2.42065 0
M  V30 4283 H 411.644 -5.12212 -3.32372 0
M  V30 4284 H 413.058 -5.62479 -1.10861 0
M  V30 4285 H 411.455 -5.98729 -0.405351 0
M  V30 4286 H 412.525 -4.83174 0.408776 0
M  V30 4287 N 413.868 0.0150385 -1.57593 0
M  V30 4288 C 414.778 1.02791 -2.10882 0
M  V30 4289 C 415.794 1.38702 -1.0506 0
M  V30 4290 O 416.97 1.47739 -1.36877 0
M  V30 4291 C 414.035 2.30568 -2.58919 0
M  V30 4292 C 413.096 2.01108 -3.79281 0
M  V30 4293 C 412.329 3.22794 -4.25018 0
M  V30 4294 O 412.552 4.33959 -3.70183 0
M  V30 4295 O 411.486 3.07672 -5.17322 0
M  V30 4296 H 415.312 0.604973 -2.97613 0
M  V30 4297 H 412.897 0.23292 -1.47573 0
M  V30 4298 H 414.779 3.05662 -2.90084 0
M  V30 4299 H 413.454 2.72129 -1.75293 0
M  V30 4300 H 412.361 1.23537 -3.53114 0
M  V30 4301 H 413.694 1.64394 -4.63935 0
M  V30 4302 N 415.346 1.54954 0.287554 0
M  V30 4303 C 416.296 1.8322 1.357 0
M  V30 4304 C 417.28 0.690152 1.45347 0
M  V30 4305 O 418.472 0.951137 1.49273 0
M  V30 4306 C 415.601 2.09481 2.71979 0
M  V30 4307 C 414.687 3.29906 2.66502 0
M  V30 4308 N 415.078 4.50154 2.30641 0
M  V30 4309 C 413.376 3.32203 2.97585 0
M  V30 4310 C 414.077 5.32209 2.34794 0
M  V30 4311 N 413.053 4.70258 2.72688 0
M  V30 4312 H 416.855 2.73746 1.0696 0
M  V30 4313 H 414.369 1.54635 0.496167 0
M  V30 4314 H 416.366 2.27882 3.49107 0
M  V30 4315 H 415.026 1.2023 3.0162 0
M  V30 4316 H 416.037 4.76515 2.02865 0
M  V30 4317 H 412.714 2.53101 3.32034 0
M  V30 4318 H 414.104 6.38321 2.09753 0
M  V30 4319 N 416.824 -0.551391 1.4764 0
M  V30 4320 C 418.235 -1.13349 1.48354 0
M  V30 4321 C 418.586 -1.94709 0.241432 0
M  V30 4322 O 417.711 -2.06306 -0.653205 0
M  V30 4323 C 418.306 -2.0623 2.68802 0
M  V30 4324 C 416.865 -2.597 2.72457 0
M  V30 4325 C 416.012 -1.36201 2.41546 0
M  V30 4326 H 418.963 -0.337698 1.55065 0
M  V30 4327 H 418.984 -2.90196 2.46103 0
M  V30 4328 H 418.496 -1.46987 3.59188 0
M  V30 4329 H 416.597 -3.22724 1.86225 0
M  V30 4330 H 416.71 -3.00296 3.73308 0
M  V30 4331 H 415.074 -1.67068 1.9225 0
M  V30 4332 H 415.857 -0.787425 3.34147 0
M  V30 4333 N 418.302 -1.35869 -0.798587 0
M  V30 4334 C 419.212 -1.31578 -1.94228 0
M  V30 4335 C 420.228 -0.21939 -1.72611 0
M  V30 4336 O 421.404 -0.450167 -1.96305 0
M  V30 4337 C 418.469 -1.09528 -3.28944 0
M  V30 4338 C 417.53 -2.28556 -3.63402 0
M  V30 4339 C 416.763 -2.07549 -4.9169 0
M  V30 4340 O 416.986 -1.046 -5.60727 0
M  V30 4341 O 415.92 -2.95106 -5.24591 0
M  V30 4342 H 419.746 -2.27847 -2.00796 0
M  V30 4343 H 417.331 -1.16322 -0.937526 0
M  V30 4344 H 419.213 -0.991127 -4.09579 0
M  V30 4345 H 417.888 -0.16315 -3.23289 0
M  V30 4346 H 416.795 -2.44538 -2.83112 0
M  V30 4347 H 418.128 -3.20244 -3.73771 0
M  V30 4348 N 419.78 1.02168 -1.19998 0
M  V30 4349 C 420.71 2.12488 -0.96804 0
M  V30 4350 C 421.691 1.69799 0.101185 0
M  V30 4351 O 422.876 1.94121 -0.0552993 0
M  V30 4352 C 420.006 3.43479 -0.513776 0
M  V30 4353 C 418.96 3.99884 -1.52566 0
M  V30 4354 C 418.286 5.26582 -0.928214 0
M  V30 4355 C 419.586 4.33861 -2.90795 0
M  V30 4356 H 421.28 2.32149 -1.89069 0
M  V30 4357 H 418.826 1.11564 -0.910468 0
M  V30 4358 H 420.779 4.20036 -0.338774 0
M  V30 4359 H 419.503 3.23561 0.444493 0
M  V30 4360 H 418.162 3.25429 -1.68794 0
M  V30 4361 H 417.81 5.02986 0.0378289 0
M  V30 4362 H 417.51 5.65284 -1.60397 0
M  V30 4363 H 419.034 6.05799 -0.764167 0
M  V30 4364 H 420.448 5.01327 -2.78109 0
M  V30 4365 H 418.845 4.83664 -3.55231 0
M  V30 4366 H 419.915 3.42848 -3.42904 0
M  V30 4367 N 421.258 1.00505 1.21394 0
M  V30 4368 C 422.483 0.706367 1.95001 0
M  V30 4369 C 422.908 -0.72463 1.73582 0
M  V30 4370 O 422.266 -1.49702 1.0227 0
M  V30 4371 C 422.314 1.03299 3.45487 0
M  V30 4372 O 421.418 0.138275 4.12168 0
M  V30 4373 H 420.759 0.263175 0.609619 0
M  V30 4374 H 423.289 1.34531 1.54151 0
M  V30 4375 H 423.299 0.979872 3.96059 0
M  V30 4376 H 421.974 2.07567 3.60401 0
M  V30 4377 H 420.551 0.247928 3.72075 0
M  V30 4378 N 422.737 -1.36956 0.779787 0
M  V30 4379 C 423.647 -2.33965 0.172491 0
M  V30 4380 C 424.663 -1.60574 -0.670222 0
M  V30 4381 O 425.839 -1.92617 -0.588263 0
M  V30 4382 C 422.904 -3.39761 -0.690173 0
M  V30 4383 C 421.965 -4.28964 0.169924 0
M  V30 4384 C 421.198 -5.29707 -0.651662 0
M  V30 4385 O 421.421 -5.38238 -1.88827 0
M  V30 4386 O 420.355 -6.01873 -0.0566264 0
M  V30 4387 H 424.181 -2.87647 0.974321 0
M  V30 4388 H 421.766 -1.39258 0.541078 0
M  V30 4389 H 423.648 -4.04471 -1.1824 0
M  V30 4390 H 422.323 -2.88394 -1.47006 0
M  V30 4391 H 421.23 -3.67326 0.708696 0
M  V30 4392 H 422.563 -4.83656 0.913085 0
M  V30 4393 N 424.215 -0.530993 -1.48385 0
M  V30 4394 C 425.145 0.219985 -2.32461 0
M  V30 4395 C 426.126 0.934111 -1.42156 0
M  V30 4396 O 427.311 0.919694 -1.71042 0
M  V30 4397 C 424.441 1.26674 -3.23375 0
M  V30 4398 C 423.395 0.67069 -4.22712 0
M  V30 4399 C 422.721 1.82017 -5.02766 0
M  V30 4400 C 424.021 -0.358268 -5.2107 0
M  V30 4401 H 425.715 -0.48187 -2.95497 0
M  V30 4402 H 423.261 -0.233182 -1.42099 0
M  V30 4403 H 425.214 1.80006 -3.81019 0
M  V30 4404 H 423.938 1.99818 -2.58341 0
M  V30 4405 H 422.597 0.158878 -3.66256 0
M  V30 4406 H 422.245 2.54002 -4.34157 0
M  V30 4407 H 421.945 1.42727 -5.70003 0
M  V30 4408 H 423.469 2.35725 -5.63264 0
M  V30 4409 H 424.883 0.0880081 -5.73232 0
M  V30 4410 H 423.28 -0.66861 -5.96364 0
M  V30 4411 H 424.35 -1.26367 -4.68145 0
M  V30 4412 N 425.693 1.55336 -0.266172 0
M  V30 4413 C 426.64 2.22172 0.625165 0
M  V30 4414 C 427.61 1.19211 1.15663 0
M  V30 4415 O 428.795 1.47723 1.20758 0
M  V30 4416 C 425.935 2.93972 1.8076 0
M  V30 4417 C 425.048 4.11632 1.31084 0
M  V30 4418 C 424.183 4.71099 2.45436 0
M  V30 4419 C 423.222 5.8097 1.92718 0
M  V30 4420 N 422.359 6.34538 3.00509 0
M  V30 4421 H 427.199 2.9796 0.0485582 0
M  V30 4422 H 424.736 1.47095 0.0122024 0
M  V30 4423 H 426.694 3.33811 2.50251 0
M  V30 4424 H 425.324 2.20623 2.35638 0
M  V30 4425 H 424.376 3.76975 0.509326 0
M  V30 4426 H 425.688 4.90893 0.884633 0
M  V30 4427 H 424.842 5.13612 3.22936 0
M  V30 4428 H 423.581 3.91096 2.91368 0
M  V30 4429 H 422.586 5.37916 1.13695 0
M  V30 4430 H 423.811 6.62836 1.47733 0
M  V30 4431 H 421.757 5.57433 3.45839 0
M  V30 4432 H 421.674 7.09046 2.62279 0
M  V30 4433 H 422.942 6.81709 3.78011 0
M  V30 4434 N 427.171 -0.0066808 1.57599 0
M  V30 4435 C 428.399 -0.704087 1.94551 0
M  V30 4436 C 428.814 -1.67677 0.867746 0
M  V30 4437 O 428.171 -1.8185 -0.153925 0
M  V30 4438 C 428.222 -1.44177 3.31505 0
M  V30 4439 O 427.943 -0.508097 4.35144 0
M  V30 4440 C 429.444 -2.23429 3.82876 0
M  V30 4441 H 426.664 -0.196523 0.641576 0
M  V30 4442 H 429.208 0.042453 2.04456 0
M  V30 4443 H 427.363 -2.13999 3.22929 0
M  V30 4444 H 427.777 -1.02782 5.14331 0
M  V30 4445 H 429.251 -2.70552 4.8115 0
M  V30 4446 H 429.728 -3.05818 3.15233 0
M  V30 4447 H 430.334 -1.58636 3.94607 0
M  V30 4448 N 428.649 -1.55105 -0.279332 0
M  V30 4449 C 429.895 -1.75672 -1.01327 0
M  V30 4450 C 430.228 -0.552739 -1.86168 0
M  V30 4451 O 429.503 0.449827 -1.89227 0
M  V30 4452 C 429.786 -3.05825 -1.90114 0
M  V30 4453 C 429.639 -4.36565 -1.08309 0
M  V30 4454 C 430.958 -3.31975 -2.8893 0
M  V30 4455 H 428.077 -0.639149 -0.366957 0
M  V30 4456 H 430.719 -1.87833 -0.286154 0
M  V30 4457 H 428.869 -2.95588 -2.52111 0
M  V30 4458 H 430.541 -4.58751 -0.484314 0
M  V30 4459 H 428.784 -4.32076 -0.386362 0
M  V30 4460 H 429.455 -5.23946 -1.73737 0
M  V30 4461 H 431.931 -3.41963 -2.37067 0
M  V30 4462 H 430.807 -4.2432 -3.48201 0
M  V30 4463 H 431.068 -2.51309 -3.63725 0
M  V30 4464 N 430.127 0.543554 -1.4793 0
M  V30 4465 C 431.355 1.32516 -1.58894 0
M  V30 4466 C 431.77 1.87215 -0.244131 0
M  V30 4467 O 431.127 1.65709 0.764652 0
M  V30 4468 C 431.178 2.48554 -2.62494 0
M  V30 4469 O 430.899 1.96112 -3.91755 0
M  V30 4470 C 432.4 3.40572 -2.8377 0
M  V30 4471 H 429.62 0.403472 -0.536145 0
M  V30 4472 H 432.164 0.657106 -1.93655 0
M  V30 4473 H 430.319 3.1127 -2.30629 0
M  V30 4474 H 430.733 2.71967 -4.4848 0
M  V30 4475 H 432.207 4.18375 -3.60093 0
M  V30 4476 H 432.684 3.94965 -1.92092 0
M  V30 4477 H 433.29 2.8366 -3.16887 0
M  V30 4478 N 431.605 1.3629 0.791371 0
M  V30 4479 C 432.853 1.30154 1.5461 0
M  V30 4480 C 433.174 -0.119409 1.94634 0
M  V30 4481 O 432.444 -1.05924 1.64794 0
M  V30 4482 H 431.024 0.478784 0.573389 0
M  V30 4483 H 433.686 1.70565 0.94306 0
M  V30 4484 H 432.782 1.92762 2.45457 0
M  V30 4485 N 433.083 -1.0153 1.20538 0
M  V30 4486 C 434.311 -1.78746 1.04199 0
M  V30 4487 C 434.726 -1.84323 -0.408733 0
M  V30 4488 O 434.083 -1.29714 -1.28377 0
M  V30 4489 C 434.134 -3.23152 1.62035 0
M  V30 4490 O 433.855 -3.17918 3.0143 0
M  V30 4491 C 435.356 -4.16911 1.50666 0
M  V30 4492 H 432.576 -0.56208 0.366479 0
M  V30 4493 H 435.12 -1.27794 1.59653 0
M  V30 4494 H 433.275 -3.71248 1.10697 0
M  V30 4495 H 433.689 -4.08567 3.28897 0
M  V30 4496 H 435.163 -5.16072 1.95892 0
M  V30 4497 H 435.64 -4.36791 0.459363 0
M  V30 4498 H 436.246 -3.74698 2.01201 0
M  V30 4499 N 434.561 -1.01147 -1.20859 0
M  V30 4500 C 435.509 -0.57059 -2.25493 0
M  V30 4501 C 436.503 0.388109 -1.64894 0
M  V30 4502 O 437.709 0.258592 -1.78133 0
M  V30 4503 H 434.084 -0.166191 -0.733406 0
M  V30 4504 H 436.055 -1.46411 -2.60012 0
M  V30 4505 C 434.804 0.0805241 -3.47607 0
M  V30 4506 H 434.127 -0.648156 -3.94511 0
M  V30 4507 H 435.567 0.352197 -4.22535 0
M  V30 4508 C 434.026 1.32175 -3.09889 0
M  V30 4509 O 434.556 2.41553 -3.20959 0
M  V30 4510 N 432.762 1.20392 -2.64488 0
M  V30 4511 H 432.309 0.313905 -2.5568 0
M  V30 4512 H 432.267 2.03541 -2.39621 0
M  V30 4513 N 436.039 1.36541 -0.78704 0
M  V30 4514 C 437.45 1.81873 -0.421807 0
M  V30 4515 C 437.801 1.65487 1.05397 0
M  V30 4516 O 436.926 1.17448 1.81755 0
M  V30 4517 C 437.521 3.30192 -0.758841 0
M  V30 4518 C 436.08 3.73743 -0.446468 0
M  V30 4519 C 435.227 2.58844 -0.994728 0
M  V30 4520 H 438.178 1.24796 -0.98039 0
M  V30 4521 H 438.199 3.80468 -0.0490648 0
M  V30 4522 H 437.711 3.42087 -1.83299 0
M  V30 4523 H 435.812 3.6741 0.619739 0
M  V30 4524 H 435.925 4.69272 -0.965415 0
M  V30 4525 H 434.289 2.51245 -0.418087 0
M  V30 4526 H 435.072 2.73525 -2.07458 0
M  V30 4527 N 437.518 0.538854 1.48102 0
M  V30 4528 C 438.764 0.00801365 2.02798 0
M  V30 4529 C 439.097 -1.3309 1.41424 0
M  V30 4530 O 438.372 -1.86169 0.563158 0
M  V30 4531 C 438.655 -0.104589 3.59948 0
M  V30 4532 C 438.508 1.26012 4.31788 0
M  V30 4533 C 439.827 -0.827055 4.32259 0
M  V30 4534 H 436.946 0.00438624 0.736987 0
M  V30 4535 H 439.588 0.6976 1.7673 0
M  V30 4536 H 437.738 -0.691893 3.82289 0
M  V30 4537 H 439.41 1.88922 4.2084 0
M  V30 4538 H 437.653 1.83968 3.92859 0
M  V30 4539 H 438.324 1.13424 5.40221 0
M  V30 4540 H 440.8 -0.328578 4.14801 0
M  V30 4541 H 439.676 -0.87476 5.41885 0
M  V30 4542 H 439.937 -1.87927 4.0017 0
M  V30 4543 N 438.996 -1.55193 0.274407 0
M  V30 4544 C 440.243 -1.99581 -0.342579 0
M  V30 4545 C 440.571 -1.1628 -1.55914 0
M  V30 4546 O 439.826 -0.22029 -1.94456 0
M  V30 4547 C 440.125 -3.49019 -0.769458 0
M  V30 4548 C 439.791 -4.49598 0.342389 0
M  V30 4549 C 438.453 -4.76821 0.647686 0
M  V30 4550 C 440.805 -5.0964 1.09163 0
M  V30 4551 C 438.133 -5.61354 1.70581 0
M  V30 4552 C 440.485 -5.95323 2.13948 0
M  V30 4553 C 439.149 -6.20867 2.45113 0
M  V30 4554 H 438.419 -0.730319 -0.125358 0
M  V30 4555 H 441.066 -1.87529 0.387971 0
M  V30 4556 H 439.371 -3.58544 -1.57967 0
M  V30 4557 H 441.068 -3.8077 -1.25757 0
M  V30 4558 H 437.658 -4.28496 0.094318 0
M  V30 4559 H 441.842 -4.88632 0.869024 0
M  V30 4560 H 437.098 -5.79392 1.9523 0
M  V30 4561 H 441.272 -6.40881 2.72478 0
M  V30 4562 H 438.899 -6.86162 3.27239 0
M  V30 4563 N 440.474 -0.00167713 -1.576 0
M  V30 4564 C 441.437 0.974046 -2.07473 0
M  V30 4565 C 442.437 1.27143 -0.984444 0
M  V30 4566 O 443.627 1.21633 -1.24703 0
M  V30 4567 C 440.759 2.29849 -2.51759 0
M  V30 4568 H 441.952 0.54262 -2.9495 0
M  V30 4569 H 439.505 0.245829 -1.54355 0
M  V30 4570 H 440.24 2.77677 -1.67529 0
M  V30 4571 H 440.025 2.09584 -3.31386 0
M  V30 4572 H 441.515 2.9984 -2.90664 0
M  V30 4573 N 441.952 1.55251 0.271103 0
M  V30 4574 C 443.2 1.75599 1.00047 0
M  V30 4575 C 443.521 0.561188 1.8675 0
M  V30 4576 O 442.791 -0.423846 1.9126 0
M  V30 4577 H 441.371 0.647562 0.372387 0
M  V30 4578 H 444.033 1.92656 0.294876 0
M  V30 4579 H 443.129 2.65766 1.6363 0
M  V30 4580 N 443.43 -0.535701 1.48216 0
M  V30 4581 C 444.393 -1.623 1.61838 0
M  V30 4582 C 445.393 -1.53087 0.492024 0
M  V30 4583 O 446.583 -1.5686 0.757668 0
M  V30 4584 C 443.715 -3.01907 1.58319 0
M  V30 4585 H 444.908 -1.51564 2.58783 0
M  V30 4586 H 442.461 -0.757317 1.36727 0
M  V30 4587 H 443.196 -3.18155 0.628299 0
M  V30 4588 H 442.981 -3.10003 2.40085 0
M  V30 4589 H 444.471 -3.80969 1.71033 0
M  V30 4590 N 444.908 -1.36708 -0.784132 0
M  V30 4591 C 445.856 -1.31533 -1.91838 0
M  V30 4592 C 446.85 -0.206205 -1.6814 0
M  V30 4593 O 448.056 -0.373519 -1.76082 0
M  V30 4594 H 444.431 -0.409613 -0.630651 0
M  V30 4595 H 446.402 -2.2731 -1.9332 0
M  V30 4596 C 445.151 -1.12679 -3.28936 0
M  V30 4597 H 444.474 -1.97274 -3.4774 0
M  V30 4598 H 445.914 -1.13106 -4.08636 0
M  V30 4599 C 444.373 0.168281 -3.36479 0
M  V30 4600 O 444.903 1.15625 -3.84699 0
M  V30 4601 N 443.109 0.214762 -2.89805 0
M  V30 4602 H 442.656 -0.589852 -2.50756 0
M  V30 4603 H 442.614 1.08094 -2.95234 0
M  V30 4604 N 446.386 1.0089 -1.21074 0
M  V30 4605 C 447.616 1.77933 -1.04993 0
M  V30 4606 C 448.024 1.84847 0.403495 0
M  V30 4607 O 447.367 1.30606 1.29181 0
M  V30 4608 C 447.429 3.23541 -1.56722 0
M  V30 4609 C 447.093 3.40214 -3.05129 0
M  V30 4610 C 448.09 3.2881 -4.02716 0
M  V30 4611 C 445.775 3.65781 -3.44252 0
M  V30 4612 C 447.769 3.42732 -5.37414 0
M  V30 4613 C 445.456 3.79346 -4.79103 0
M  V30 4614 C 446.454 3.67827 -5.75493 0
M  V30 4615 O 446.142 3.80965 -7.07899 0
M  V30 4616 H 445.874 0.566157 -0.369381 0
M  V30 4617 H 448.428 1.27826 -1.60779 0
M  V30 4618 H 446.658 3.74766 -0.953285 0
M  V30 4619 H 448.347 3.82245 -1.36543 0
M  V30 4620 H 449.113 3.08986 -3.73835 0
M  V30 4621 H 444.992 3.73831 -2.69762 0
M  V30 4622 H 448.536 3.33658 -6.12632 0
M  V30 4623 H 444.433 3.98672 -5.07672 0
M  V30 4624 H 445.201 3.97937 -7.15254 0
M  V30 4625 N 447.864 1.01787 1.20321 0
M  V30 4626 C 448.827 0.593972 2.2137 0
M  V30 4627 C 449.827 -0.336553 1.57239 0
M  V30 4628 O 451.017 -0.125069 1.7375 0
M  V30 4629 C 448.149 -0.132433 3.40643 0
M  V30 4630 H 449.342 1.48791 2.60387 0
M  V30 4631 H 446.895 0.807803 1.33807 0
M  V30 4632 H 447.63 -1.04123 3.0713 0
M  V30 4633 H 447.415 0.53605 3.88418 0
M  V30 4634 H 448.905 -0.416314 4.1552 0
M  V30 4635 N 449.342 -1.36122 0.79427 0
M  V30 4636 C 450.305 -2.28309 0.201889 0
M  V30 4637 C 451.305 -1.49041 -0.603603 0
M  V30 4638 O 452.495 -1.68964 -0.423888 0
M  V30 4639 C 449.627 -3.3321 -0.719978 0
M  V30 4640 H 450.82 -2.82208 1.01481 0
M  V30 4641 H 448.373 -1.45768 0.564037 0
M  V30 4642 H 449.108 -2.84475 -1.55706 0
M  V30 4643 H 448.893 -3.91835 -0.144266 0
M  V30 4644 H 450.383 -4.02044 -1.12916 0
M  V30 4645 N 450.82 -0.546701 -1.47814 0
M  V30 4646 C 452.066 -0.0269594 -2.03382 0
M  V30 4647 C 452.421 1.30406 -1.41464 0
M  V30 4648 O 451.714 1.8332 -0.557151 0
M  V30 4649 C 451.908 0.134869 -3.57145 0
M  V30 4650 C 451.737 -1.17891 -4.33972 0
M  V30 4651 C 450.507 -1.74336 -4.74273 0
M  V30 4652 C 452.705 -2.09361 -4.69758 0
M  V30 4653 N 450.687 -2.99829 -5.35701 0
M  V30 4654 C 452.058 -3.19431 -5.31379 0
M  V30 4655 C 454.113 -2.09484 -4.51687 0
M  V30 4656 C 452.816 -4.2971 -5.76838 0
M  V30 4657 C 454.842 -3.18767 -4.98138 0
M  V30 4658 C 454.204 -4.27557 -5.59799 0
M  V30 4659 H 450.303 -0.0517733 -0.780284 0
M  V30 4660 H 452.887 -0.731673 -1.80429 0
M  V30 4661 H 451.058 0.80869 -3.79888 0
M  V30 4662 H 452.79 0.655726 -3.99352 0
M  V30 4663 H 449.545 -1.28265 -4.559 0
M  V30 4664 H 449.969 -3.63765 -5.70968 0
M  V30 4665 H 454.611 -1.26663 -4.03381 0
M  V30 4666 H 452.329 -5.13297 -6.24141 0
M  V30 4667 H 455.915 -3.19937 -4.85934 0
M  V30 4668 H 454.795 -5.10725 -5.95088 0
M  V30 4669 N 452.299 1.55045 -0.282633 0
M  V30 4670 C 453.262 2.21515 0.588539 0
M  V30 4671 C 454.262 1.19535 1.07554 0
M  V30 4672 O 455.452 1.44391 0.974514 0
M  V30 4673 C 452.584 2.88704 1.8128 0
M  V30 4674 H 453.777 2.99899 0.00806397 0
M  V30 4675 H 451.33 1.56265 -0.0333067 0
M  V30 4676 H 452.065 2.14352 2.43359 0
M  V30 4677 H 451.85 3.63443 1.47144 0
M  V30 4678 H 453.34 3.39465 2.43214 0
M  V30 4679 N 453.777 0.010035 1.57597 0
M  V30 4680 C 455.023 -0.673697 1.91283 0
M  V30 4681 C 455.356 -1.72863 0.884979 0
M  V30 4682 O 454.631 -1.94268 -0.0949487 0
M  V30 4683 C 454.914 -1.30766 3.35518 0
M  V30 4684 C 454.767 -0.263578 4.49027 0
M  V30 4685 C 456.086 -2.23105 3.79358 0
M  V30 4686 H 453.205 -0.243439 0.695634 0
M  V30 4687 H 455.847 0.0633864 1.89894 0
M  V30 4688 H 453.997 -1.93588 3.36832 0
M  V30 4689 H 455.669 0.365738 4.59848 0
M  V30 4690 H 453.912 0.413077 4.31829 0
M  V30 4691 H 454.583 -0.746398 5.4693 0
M  V30 4692 H 457.059 -1.70289 3.79659 0
M  V30 4693 H 455.935 -2.64424 4.81011 0
M  V30 4694 H 456.196 -3.11433 3.13787 0
M  V30 4695 N 455.255 -1.55392 -0.262866 0
M  V30 4696 C 456.203 -1.8977 -1.345 0
M  V30 4697 C 457.197 -0.775063 -1.50629 0
M  V30 4698 O 458.403 -0.959519 -1.52293 0
M  V30 4699 H 454.778 -0.602467 -0.450041 0
M  V30 4700 H 456.749 -2.80147 -1.02762 0
M  V30 4701 C 455.498 -2.19501 -2.69657 0
M  V30 4702 H 454.821 -3.05378 -2.5804 0
M  V30 4703 H 456.261 -2.47469 -3.44289 0
M  V30 4704 C 454.72 -1.00597 -3.21531 0
M  V30 4705 O 455.25 -0.245768 -4.00947 0
M  V30 4706 N 453.456 -0.800911 -2.79345 0
M  V30 4707 H 453.003 -1.42079 -2.14875 0
M  V30 4708 H 452.961 -0.00697996 -3.14399 0
M  V30 4709 N 456.733 0.527833 -1.48498 0
M  V30 4710 C 457.979 1.28545 -1.56857 0
M  V30 4711 C 458.312 1.92678 -0.242651 0
M  V30 4712 O 457.587 1.79394 0.751545 0
M  V30 4713 C 457.87 2.37314 -2.70839 0
M  V30 4714 C 457.723 1.77858 -4.13142 0
M  V30 4715 C 459.042 3.39068 -2.80573 0
M  V30 4716 H 456.161 0.466006 -0.570971 0
M  V30 4717 H 458.803 0.587784 -1.8068 0
M  V30 4718 H 456.953 2.96821 -2.50658 0
M  V30 4719 H 458.625 1.22385 -4.44769 0
M  V30 4720 H 456.868 1.08383 -4.20042 0
M  V30 4721 H 457.539 2.56624 -4.88721 0
M  V30 4722 H 460.015 2.89518 -2.98862 0
M  V30 4723 H 458.891 4.12566 -3.6205 0
M  V30 4724 H 459.152 3.9975 -1.88818 0
M  V30 4725 N 458.211 1.37122 0.776871 0
M  V30 4726 C 459.174 1.32301 1.8716 0
M  V30 4727 C 460.174 0.228099 1.59174 0
M  V30 4728 O 461.364 0.483642 1.67352 0
M  V30 4729 C 458.496 1.054 3.24197 0
M  V30 4730 H 459.689 2.29673 1.92848 0
M  V30 4731 H 457.242 1.22077 0.97606 0
M  V30 4732 H 457.977 0.0853872 3.24188 0
M  V30 4733 H 457.762 1.84648 3.45901 0
M  V30 4734 H 459.252 1.04664 4.04271 0
M  V30 4735 N 459.689 -1.00246 1.21608 0
M  V30 4736 C 460.621 -2.09244 0.935401 0
M  V30 4737 C 461.634 -1.62592 -0.0823594 0
M  V30 4738 O 462.823 -1.77865 0.150456 0
M  V30 4739 C 459.923 -3.36724 0.383453 0
M  V30 4740 C 459.096 -4.1245 1.45615 0
M  V30 4741 C 458.155 -5.18219 0.912991 0
M  V30 4742 O 457.181 -5.46337 1.59701 0
M  V30 4743 N 458.383 -5.7987 -0.270478 0
M  V30 4744 H 461.148 -2.33905 1.87373 0
M  V30 4745 H 458.709 -1.16748 1.12167 0
M  V30 4746 H 460.701 -4.047 0.00562157 0
M  V30 4747 H 459.271 -3.09201 -0.459758 0
M  V30 4748 H 458.491 -3.39241 2.00772 0
M  V30 4749 H 459.779 -4.59819 2.17817 0
M  V30 4750 H 459.177 -5.59381 -0.843195 0
M  V30 4751 H 457.734 -6.49126 -0.589794 0
M  V30 4752 N 461.167 -1.02423 -1.1978 0
M  V30 4753 C 462.413 -0.719051 -1.89625 0
M  V30 4754 C 462.746 0.750083 -1.7913 0
M  V30 4755 O 462.021 1.54574 -1.18056 0
M  V30 4756 C 462.304 -1.16499 -3.40735 0
M  V30 4757 C 462.157 -2.695 -3.60125 0
M  V30 4758 C 463.476 -0.742166 -4.33797 0
M  V30 4759 H 460.595 -0.26269 -0.688595 0
M  V30 4760 H 463.237 -1.27333 -1.41018 0
M  V30 4761 H 461.387 -0.69341 -3.82262 0
M  V30 4762 H 463.059 -3.24569 -3.278 0
M  V30 4763 H 461.302 -3.10113 -3.03336 0
M  V30 4764 H 461.973 -2.95757 -4.66081 0
M  V30 4765 H 464.449 -1.1477 -3.99959 0
M  V30 4766 H 463.325 -1.08213 -5.38127 0
M  V30 4767 H 463.586 0.355747 -4.40666 0
M  V30 4768 N 462.645 1.35699 -0.801477 0
M  V30 4769 C 463.894 1.98165 -0.375979 0
M  V30 4770 C 464.207 1.64306 1.06127 0
M  V30 4771 O 465.413 2.20097 1.58964 0
M  V30 4772 C 463.869 3.54497 -0.621305 0
M  V30 4773 C 463.477 3.9727 -2.07076 0
M  V30 4774 C 465.221 4.23697 -0.26091 0
M  V30 4775 C 463.128 5.46427 -2.26211 0
M  V30 4776 H 462.058 0.741478 -0.136844 0
M  V30 4777 H 464.709 1.54834 -0.984814 0
M  V30 4778 H 463.091 3.95958 0.0574112 0
M  V30 4779 H 464.265 3.66974 -2.78687 0
M  V30 4780 H 462.58 3.40943 -2.39054 0
M  V30 4781 H 465.177 5.33334 -0.381994 0
M  V30 4782 H 465.52 4.0869 0.792344 0
M  V30 4783 H 466.053 3.87639 -0.893339 0
M  V30 4784 H 462.792 5.66396 -3.29963 0
M  V30 4785 H 462.312 5.78309 -1.59119 0
M  V30 4786 H 463.991 6.12819 -2.07513 0
M  V30 4787 N 464.123 0.554532 1.47522 0
M  V30 4788 C 465.4 -0.0360704 1.95567 0
M  V30 4789 C 465.78 -1.48828 1.49711 0
M  V30 4790 O 465.128 -2.16366 0.734717 0
M  V30 4791 C 465.338 0.106631 3.48837 0
M  V30 4792 C 466.686 -0.0400899 4.24581 0
M  V30 4793 O 467.71 0.0340453 3.56184 0
M  V30 4794 O 466.569 -0.199111 5.46137 0
M  V30 4795 H 463.663 -0.0656294 0.824392 0
M  V30 4796 H 466.209 0.620867 1.57935 0
M  V30 4797 H 464.981 1.11727 3.7501 0
M  V30 4798 H 464.604 -0.58804 3.93227 0
M  V30 4799 N 465.601 -1.54893 0.290851 0
M  V30 4800 C 466.826 -2.04804 -0.32712 0
M  V30 4801 C 467.251 -1.16721 -1.47506 0
M  V30 4802 O 466.609 -0.169107 -1.8051 0
M  V30 4803 C 466.657 -3.52268 -0.770689 0
M  V30 4804 O 465.761 -3.67236 -1.87647 0
M  V30 4805 H 465.102 -0.660789 -0.0652227 0
M  V30 4806 H 467.632 -2.00036 0.429739 0
M  V30 4807 H 467.642 -3.9393 -1.06223 0
M  V30 4808 H 466.317 -4.15843 0.069096 0
M  V30 4809 H 464.894 -3.37479 -1.58626 0
M  V30 4810 N 467.08 -0.0183926 -1.57589 0
M  V30 4811 C 467.99 0.982943 -2.13015 0
M  V30 4812 C 469.006 1.36443 -1.07979 0
M  V30 4813 O 470.182 1.44802 -1.3998 0
M  V30 4814 C 467.247 2.25024 -2.63752 0
M  V30 4815 C 466.308 1.93018 -3.83461 0
M  V30 4816 C 465.541 3.13706 -4.31769 0
M  V30 4817 O 465.764 4.2601 -3.79305 0
M  V30 4818 O 464.698 2.96629 -5.23732 0
M  V30 4819 H 468.524 0.541709 -2.9883 0
M  V30 4820 H 466.109 0.201565 -1.48034 0
M  V30 4821 H 467.991 2.99441 -2.96502 0
M  V30 4822 H 466.666 2.68349 -1.81026 0
M  V30 4823 H 465.573 1.16019 -3.55655 0
M  V30 4824 H 466.906 1.54516 -4.67317 0
M  V30 4825 N 468.558 1.5553 0.254621 0
M  V30 4826 C 469.786 1.81046 1.00149 0
M  V30 4827 C 470.201 0.593047 1.79244 0
M  V30 4828 O 469.558 -0.438196 1.77161 0
M  V30 4829 C 469.609 3.04684 1.94551 0
M  V30 4830 O 469.33 4.21725 1.18658 0
M  V30 4831 C 470.831 3.42943 2.80901 0
M  V30 4832 H 468.051 0.602653 0.295044 0
M  V30 4833 H 470.595 2.02576 0.279842 0
M  V30 4834 H 468.75 2.85226 2.62154 0
M  V30 4835 H 469.164 4.91746 1.82445 0
M  V30 4836 H 470.638 4.32576 3.42902 0
M  V30 4837 H 471.115 2.63176 3.51617 0
M  V30 4838 H 471.721 3.64724 2.18762 0
M  V30 4839 N 470.036 -0.519951 1.48776 0
M  V30 4840 C 470.999 -1.60574 1.6355 0
M  V30 4841 C 471.999 -1.52557 0.508234 0
M  V30 4842 O 473.189 -1.56047 0.774262 0
M  V30 4843 C 470.321 -3.00211 1.61512 0
M  V30 4844 H 471.514 -1.4881 2.60376 0
M  V30 4845 H 469.067 -0.742772 1.37523 0
M  V30 4846 H 469.802 -3.17471 0.662009 0
M  V30 4847 H 469.587 -3.07439 2.43359 0
M  V30 4848 H 471.077 -3.79134 1.75064 0
M  V30 4849 N 471.514 -1.37532 -0.769588 0
M  V30 4850 C 472.791 -1.23392 -1.51768 0
M  V30 4851 C 473.171 0.17157 -2.10402 0
M  V30 4852 O 472.519 1.17943 -1.95708 0
M  V30 4853 C 472.729 -2.33163 -2.59685 0
M  V30 4854 C 474.077 -2.70809 -3.27028 0
M  V30 4855 O 475.101 -2.32355 -2.69981 0
M  V30 4856 O 473.96 -3.37066 -4.30173 0
M  V30 4857 H 471.054 -0.481617 -0.67229 0
M  V30 4858 H 473.6 -1.49318 -0.806368 0
M  V30 4859 H 472.372 -3.27273 -2.14494 0
M  V30 4860 H 471.995 -2.08713 -3.38415 0
M  V30 4861 N 472.992 0.995999 -1.22138 0
M  V30 4862 C 473.94 2.10673 -0.985876 0
M  V30 4863 C 474.934 1.69255 0.0699553 0
M  V30 4864 O 476.14 1.79812 -0.0822176 0
M  V30 4865 H 472.515 0.688865 -0.30161 0
M  V30 4866 H 474.486 2.27711 -1.92848 0
M  V30 4867 C 473.235 3.42881 -0.576909 0
M  V30 4868 H 472.558 3.75191 -1.38101 0
M  V30 4869 H 473.998 4.21589 -0.451518 0
M  V30 4870 C 472.457 3.29265 0.713196 0
M  V30 4871 O 472.987 3.60777 1.76643 0
M  V30 4872 N 471.193 2.82456 0.683162 0
M  V30 4873 H 470.74 2.5701 -0.174242 0
M  V30 4874 H 470.698 2.73727 1.54663 0
M  V30 4875 N 474.47 1.03057 1.19235 0
M  V30 4876 C 475.4 0.633497 2.24742 0
M  V30 4877 C 476.381 -0.358335 1.66283 0
M  V30 4878 O 477.566 -0.240676 1.92703 0
M  V30 4879 C 474.696 -0.0147648 3.47297 0
M  V30 4880 C 473.65 0.899527 4.18441 0
M  V30 4881 C 472.976 0.116281 5.34574 0
M  V30 4882 C 474.276 2.21404 4.73051 0
M  V30 4883 H 475.97 1.5155 2.58211 0
M  V30 4884 H 473.516 0.73014 1.24117 0
M  V30 4885 H 475.469 -0.304202 4.20301 0
M  V30 4886 H 474.193 -0.931577 3.13032 0
M  V30 4887 H 472.852 1.17319 3.47321 0
M  V30 4888 H 472.5 -0.802619 4.96555 0
M  V30 4889 H 472.2 0.725293 5.83107 0
M  V30 4890 H 473.724 -0.166376 6.10373 0
M  V30 4891 H 475.138 1.98601 5.37802 0
M  V30 4892 H 473.535 2.77512 5.32078 0
M  V30 4893 H 474.605 2.86752 3.91026 0
M  V30 4894 N 475.948 -1.35272 0.808662 0
M  V30 4895 C 476.858 -2.33546 0.222079 0
M  V30 4896 C 477.874 -1.6196 -0.636011 0
M  V30 4897 O 479.05 -1.93822 -0.547274 0
M  V30 4898 C 476.115 -3.41148 -0.61795 0
M  V30 4899 C 475.176 -4.28507 0.260875 0
M  V30 4900 C 474.409 -5.3097 -0.539156 0
M  V30 4901 O 474.632 -5.42123 -1.77367 0
M  V30 4902 O 473.566 -6.01858 0.0710526 0
M  V30 4903 H 477.392 -2.85515 1.03512 0
M  V30 4904 H 474.977 -1.38079 0.570495 0
M  V30 4905 H 476.859 -4.06889 -1.09634 0
M  V30 4906 H 475.534 -2.91447 -1.40855 0
M  V30 4907 H 474.441 -3.6574 0.786451 0
M  V30 4908 H 475.774 -4.81611 1.01547 0
M  V30 4909 N 477.426 -0.562348 -1.47226 0
M  V30 4910 C 478.373 0.182461 -2.30078 0
M  V30 4911 C 479.343 0.903503 -1.39377 0
M  V30 4912 O 480.528 0.898188 -1.68337 0
M  V30 4913 C 477.668 1.20322 -3.23445 0
M  V30 4914 C 476.781 0.487717 -4.29238 0
M  V30 4915 C 475.916 1.49422 -5.09752 0
M  V30 4916 C 474.955 0.763976 -6.07314 0
M  V30 4917 N 474.092 1.71755 -6.80768 0
M  V30 4918 H 478.932 -0.530169 -2.93246 0
M  V30 4919 H 476.469 -0.273276 -1.44539 0
M  V30 4920 H 478.427 1.80768 -3.76004 0
M  V30 4921 H 477.057 1.88382 -2.6213 0
M  V30 4922 H 476.109 -0.231374 -3.79696 0
M  V30 4923 H 477.421 -0.0841003 -4.98729 0
M  V30 4924 H 476.575 2.17206 -5.66486 0
M  V30 4925 H 475.314 2.09995 -4.40174 0
M  V30 4926 H 474.319 0.0722344 -5.49753 0
M  V30 4927 H 475.544 0.16391 -6.78902 0
M  V30 4928 H 473.49 2.31177 -6.13916 0
M  V30 4929 H 473.407 1.19802 -7.46447 0
M  V30 4930 H 474.675 2.38638 -7.42073 0
M  V30 4931 N 478.904 1.54736 -0.299062 0
M  V30 4932 C 480.132 2.04512 0.313447 0
M  V30 4933 C 480.547 1.17643 1.47667 0
M  V30 4934 O 479.904 0.20164 1.81383 0
M  V30 4935 C 479.955 3.53171 0.771542 0
M  V30 4936 O 479.676 4.36736 -0.345379 0
M  V30 4937 C 481.177 4.18936 1.4494 0
M  V30 4938 H 478.397 0.667507 0.0683784 0
M  V30 4939 H 480.941 1.99752 -0.438129 0
M  V30 4940 H 479.096 3.58298 1.47314 0
M  V30 4941 H 479.51 5.24499 0.0109219 0
M  V30 4942 H 480.984 5.24482 1.72111 0
M  V30 4943 H 481.461 3.68554 2.38883 0
M  V30 4944 H 482.067 4.17879 0.791028 0
M  V30 4945 N 480.382 0.0267497 1.57577 0
M  V30 4946 C 481.61 -0.662661 1.96001 0
M  V30 4947 C 482.025 -1.65799 0.903117 0
M  V30 4948 O 481.382 -1.82135 -0.115317 0
M  V30 4949 C 481.433 -1.37112 3.34488 0
M  V30 4950 O 481.154 -0.415683 4.36123 0
M  V30 4951 C 482.655 -2.15257 3.8753 0
M  V30 4952 H 479.875 -0.18287 0.6456 0
M  V30 4953 H 482.419 0.0858116 2.0432 0
M  V30 4954 H 480.574 -2.07101 3.27395 0
M  V30 4955 H 480.988 -0.918496 5.16395 0
M  V30 4956 H 482.462 -2.60285 4.86781 0
M  V30 4957 H 482.939 -2.99063 3.21649 0
M  V30 4958 H 483.545 -1.50231 3.97883 0
M  V30 4959 N 481.861 -1.55662 -0.24637 0
M  V30 4960 C 482.824 -1.89558 -1.28842 0
M  V30 4961 C 483.824 -0.772082 -1.41052 0
M  V30 4962 O 485.014 -1.04007 -1.39743 0
M  V30 4963 C 482.146 -2.12449 -2.66605 0
M  V30 4964 H 483.339 -2.82735 -1.00004 0
M  V30 4965 H 480.892 -1.48562 -0.485684 0
M  V30 4966 H 481.627 -1.21742 -3.00582 0
M  V30 4967 H 481.412 -2.94273 -2.59125 0
M  V30 4968 H 482.902 -2.39854 -3.41847 0
M  V30 4969 N 483.339 0.512053 -1.4905 0
M  V30 4970 C 484.302 1.59704 -1.64399 0
M  V30 4971 C 485.302 1.52285 -0.516317 0
M  V30 4972 O 486.492 1.55635 -0.782527 0
M  V30 4973 C 483.624 2.9935 -1.63102 0
M  V30 4974 H 484.817 1.47428 -2.61161 0
M  V30 4975 H 482.37 0.735469 -1.37915 0
M  V30 4976 H 483.105 3.17116 -0.678836 0
M  V30 4977 H 482.89 3.06144 -2.44986 0
M  V30 4978 H 484.38 3.782 -1.77072 0
M  V30 4979 N 484.817 1.37938 0.762283 0
M  V30 4980 C 485.747 1.37176 1.88958 0
M  V30 4981 C 486.728 0.238945 1.68413 0
M  V30 4982 O 487.913 0.440726 1.89133 0
M  V30 4983 C 485.043 1.18742 3.2637 0
M  V30 4984 C 483.997 2.29136 3.61498 0
M  V30 4985 C 483.323 1.95816 4.97554 0
M  V30 4986 C 484.623 3.71363 3.6727 0
M  V30 4987 H 486.317 2.31509 1.89853 0
M  V30 4988 H 483.863 1.11438 0.912005 0
M  V30 4989 H 485.816 1.16837 4.04879 0
M  V30 4990 H 484.54 0.208683 3.25933 0
M  V30 4991 H 483.199 2.30213 2.85303 0
M  V30 4992 H 482.847 0.964475 4.93667 0
M  V30 4993 H 482.547 2.69745 5.22026 0
M  V30 4994 H 484.071 1.95513 5.78452 0
M  V30 4995 H 485.485 3.72364 4.35911 0
M  V30 4996 H 483.882 4.44425 4.03245 0
M  V30 4997 H 484.952 4.04305 2.67704 0
M  V30 4998 N 486.295 -0.989507 1.22664 0
M  V30 4999 C 487.52 -1.77031 1.08051 0
M  V30 5000 C 487.945 -1.84535 -0.364483 0
M  V30 5001 O 487.303 -1.3003 -1.2634 0
M  V30 5002 C 487.351 -3.18 1.70024 0
M  V30 5003 O 486.455 -4.01161 0.956216 0
M  V30 5004 H 485.796 -0.545008 0.379292 0
M  V30 5005 H 488.326 -1.24277 1.62531 0
M  V30 5006 H 488.336 -3.68616 1.74888 0
M  V30 5007 H 487.011 -3.11853 2.75174 0
M  V30 5008 H 485.588 -3.59687 0.98384 0
M  V30 5009 N 487.773 -1.03688 -1.18687 0
M  V30 5010 C 489.022 -0.733235 -1.879 0
M  V30 5011 C 489.335 0.741745 -1.8099 0
M  V30 5012 O 490.541 1.15875 -2.4553 0
M  V30 5013 C 488.997 -1.26127 -3.37076 0
M  V30 5014 C 488.605 -2.76461 -3.52524 0
M  V30 5015 C 490.349 -1.03398 -4.11715 0
M  V30 5016 C 488.256 -3.22642 -4.95637 0
M  V30 5017 H 487.186 -0.270584 -0.703776 0
M  V30 5018 H 489.837 -1.25222 -1.34133 0
M  V30 5019 H 488.219 -0.670165 -3.90288 0
M  V30 5020 H 489.393 -3.41296 -3.09602 0
M  V30 5021 H 487.708 -2.97559 -2.91286 0
M  V30 5022 H 490.305 -1.3542 -5.17267 0
M  V30 5023 H 490.648 0.0289246 -4.1629 0
M  V30 5024 H 491.181 -1.5895 -3.64664 0
M  V30 5025 H 487.92 -4.28296 -4.96228 0
M  V30 5026 H 487.44 -2.62539 -5.39289 0
M  V30 5027 H 489.119 -3.16444 -5.64333 0
M  V30 5028 N 489.251 1.34841 -0.815825 0
M  V30 5029 C 490.181 2.32187 -0.247298 0
M  V30 5030 C 491.162 1.5791 0.632344 0
M  V30 5031 O 492.347 1.8593 0.560698 0
M  V30 5032 C 489.477 3.42122 0.597466 0
M  V30 5033 C 488.431 4.27602 -0.184446 0
M  V30 5034 C 487.757 5.28942 0.782609 0
M  V30 5035 C 489.057 5.03502 -1.38865 0
M  V30 5036 H 490.751 2.79985 -1.06061 0
M  V30 5037 H 488.297 1.34611 -0.511461 0
M  V30 5038 H 490.25 4.09232 1.00533 0
M  V30 5039 H 488.974 2.92956 1.44376 0
M  V30 5040 H 487.633 3.62085 -0.573592 0
M  V30 5041 H 487.281 4.7604 1.62466 0
M  V30 5042 H 486.981 5.87008 0.263695 0
M  V30 5043 H 488.505 5.98922 1.18848 0
M  V30 5044 H 489.919 5.63506 -1.05518 0
M  V30 5045 H 488.316 5.71108 -1.8427 0
M  V30 5046 H 489.386 4.33608 -2.17054 0
M  V30 5047 N 490.729 0.570148 1.46925 0
M  V30 5048 C 492.14 0.1402 1.86173 0
M  V30 5049 C 492.491 -1.29347 1.47526 0
M  V30 5050 O 491.616 -1.97508 0.884292 0
M  V30 5051 C 492.211 0.247661 3.37894 0
M  V30 5052 C 490.77 -0.127332 3.76185 0
M  V30 5053 C 489.917 0.589349 2.70965 0
M  V30 5054 H 492.868 0.779117 1.38259 0
M  V30 5055 H 492.889 -0.530341 3.76786 0
M  V30 5056 H 492.401 1.29121 3.65991 0
M  V30 5057 H 490.502 -1.17149 3.53704 0
M  V30 5058 H 490.615 0.240238 4.78497 0
M  V30 5059 H 488.979 0.0309824 2.54681 0
M  V30 5060 H 489.762 1.6343 3.01903 0
M  V30 5061 N 492.207 -1.54576 0.307264 0
M  V30 5062 C 493.455 -1.99867 -0.299574 0
M  V30 5063 C 493.776 -1.19714 -1.53927 0
M  V30 5064 O 493.046 -0.29472 -1.9367 0
M  V30 5065 H 491.626 -0.738299 -0.113683 0
M  V30 5066 H 494.288 -1.9032 0.420042 0
M  V30 5067 H 493.384 -3.06901 -0.567283 0
M  V30 5068 N 493.685 -0.035106 -1.57561 0
M  V30 5069 C 494.934 0.641604 -1.91223 0
M  V30 5070 C 495.247 1.72944 -0.913761 0
M  V30 5071 O 496.453 2.46321 -1.14185 0
M  V30 5072 C 494.909 1.19249 -3.3957 0
M  V30 5073 C 494.517 0.137616 -4.47789 0
M  V30 5074 C 496.261 1.84537 -3.82291 0
M  V30 5075 C 494.168 0.700478 -5.87237 0
M  V30 5076 H 493.098 0.243417 -0.713627 0
M  V30 5077 H 495.749 -0.101382 -1.8322 0
M  V30 5078 H 494.131 1.98728 -3.42525 0
M  V30 5079 H 495.305 -0.635153 -4.56402 0
M  V30 5080 H 493.62 -0.416855 -4.14308 0
M  V30 5081 H 496.217 2.27616 -4.83834 0
M  V30 5082 H 496.56 2.69054 -3.17672 0
M  V30 5083 H 497.093 1.11739 -3.81784 0
M  V30 5084 H 493.832 -0.106693 -6.55413 0
M  V30 5085 H 493.352 1.4416 -5.82218 0
M  V30 5086 H 495.031 1.18837 -6.35993 0
M  V30 5087 N 495.163 1.55791 0.238111 0
M  V30 5088 C 496.411 1.77681 0.963001 0
M  V30 5089 C 496.732 0.600674 1.85518 0
M  V30 5090 O 496.002 -0.383182 1.92116 0
M  V30 5091 H 494.582 0.655315 0.358568 0
M  V30 5092 H 497.244 1.93239 0.253945 0
M  V30 5093 H 496.34 2.69177 1.57956 0
M  V30 5094 N 496.642 -0.504142 1.49319 0
M  V30 5095 C 497.867 -1.28729 1.62615 0
M  V30 5096 C 498.292 -1.85752 0.296309 0
M  V30 5097 O 497.65 -1.65704 -0.735649 0
M  V30 5098 C 497.698 -2.39561 2.69524 0
M  V30 5099 O 496.802 -3.43324 2.28478 0
M  V30 5100 H 496.143 -0.380172 0.544395 0
M  V30 5101 H 498.673 -0.603872 1.95485 0
M  V30 5102 H 498.683 -2.8537 2.91595 0
M  V30 5103 H 497.358 -1.97423 3.66056 0
M  V30 5104 H 495.935 -3.03455 2.16725 0
M  V30 5105 N 498.12 -1.38341 -0.754957 0
M  V30 5106 C 499.366 -1.34672 -1.51628 0
M  V30 5107 C 499.699 0.0636036 -1.94096 0
M  V30 5108 O 498.974 1.0245 -1.6533 0
M  V30 5109 C 499.257 -2.30116 -2.76981 0
M  V30 5110 C 499.11 -3.80003 -2.4066 0
M  V30 5111 C 500.429 -2.23715 -3.78998 0
M  V30 5112 H 497.548 -0.490517 -0.550056 0
M  V30 5113 H 500.19 -1.69178 -0.864807 0
M  V30 5114 H 498.34 -2.00821 -3.3257 0
M  V30 5115 H 500.012 -4.19966 -1.90856 0
M  V30 5116 H 498.255 -3.97751 -1.73137 0
M  V30 5117 H 498.926 -4.42244 -3.30339 0
M  V30 5118 H 501.402 -2.49574 -3.32945 0
M  V30 5119 H 500.278 -2.9261 -4.64403 0
M  V30 5120 H 500.539 -1.23554 -4.24484 0
M  V30 5121 N 499.598 0.982988 -1.23187 0
M  V30 5122 C 500.531 2.07302 -0.953993 0
M  V30 5123 C 501.509 1.62249 0.106753 0
M  V30 5124 O 502.693 1.88481 -0.0269525 0
M  V30 5125 C 499.82 3.35873 -0.436716 0
M  V30 5126 C 498.866 3.99862 -1.48367 0
M  V30 5127 S 499.699 4.39443 -3.06023 0
M  V30 5128 C 500.855 5.7117 -2.55959 0
M  V30 5129 H 501.088 2.30554 -1.87702 0
M  V30 5130 H 498.621 1.11883 -1.06403 0
M  V30 5131 H 500.579 4.10244 -0.144872 0
M  V30 5132 H 499.24 3.10634 0.465351 0
M  V30 5133 H 498.433 4.92471 -1.07182 0
M  V30 5134 H 498.035 3.31857 -1.72473 0
M  V30 5135 H 500.327 6.47977 -1.97818 0
M  V30 5136 H 501.27 6.17194 -3.47098 0
M  V30 5137 H 501.678 5.29046 -1.96902 0
M  V30 5138 N 501.076 1.04316 1.18135 0
M  V30 5139 C 502.324 0.746542 1.87806 0
M  V30 5140 C 502.645 -0.728082 1.80898 0
M  V30 5141 O 501.915 -1.52554 1.22899 0
M  V30 5142 H 500.495 0.273157 0.695265 0
M  V30 5143 H 503.157 1.32044 1.43354 0
M  V30 5144 H 502.253 1.05362 2.93778 0
M  V30 5145 N 502.554 -1.34406 0.822964 0
M  V30 5146 C 503.803 -1.97542 0.407458 0
M  V30 5147 C 504.116 -1.65973 -1.035 0
M  V30 5148 O 505.322 -2.22598 -1.55442 0
M  V30 5149 C 503.778 -3.53463 0.677623 0
M  V30 5150 C 503.386 -3.93925 2.1337 0
M  V30 5151 C 505.13 -4.23229 0.328284 0
M  V30 5152 C 503.037 -5.42759 2.34876 0
M  V30 5153 H 501.967 -0.739207 0.148623 0
M  V30 5154 H 504.618 -1.53248 1.00932 0
M  V30 5155 H 503 -3.96 0.00558965 0
M  V30 5156 H 504.174 -3.62494 2.8449 0
M  V30 5157 H 502.489 -3.37097 2.44448 0
M  V30 5158 H 505.086 -5.32659 0.466794 0
M  V30 5159 H 505.429 -4.09899 -0.727224 0
M  V30 5160 H 505.962 -3.86169 0.954896 0
M  V30 5161 H 502.701 -5.61075 3.38932 0
M  V30 5162 H 502.221 -5.75704 1.68299 0
M  V30 5163 H 503.9 -6.0944 2.17236 0
M  V30 5164 N 504.032 -0.577932 -1.46621 0
M  V30 5165 C 504.995 0.147805 -2.28723 0
M  V30 5166 C 505.995 0.823325 -1.38123 0
M  V30 5167 O 507.185 0.676011 -1.60548 0
M  V30 5168 C 504.317 1.21853 -3.18378 0
M  V30 5169 H 505.51 -0.573654 -2.94362 0
M  V30 5170 H 503.063 -0.335703 -1.52652 0
M  V30 5171 H 503.798 1.97173 -2.57475 0
M  V30 5172 H 503.583 0.738714 -3.85078 0
M  V30 5173 H 505.073 1.72768 -3.80186 0
M  V30 5174 N 505.51 1.54411 -0.315457 0
M  V30 5175 C 506.787 1.92562 0.343398 0
M  V30 5176 C 507.167 1.24423 1.70535 0
M  V30 5177 O 506.515 0.385051 2.25232 0
M  V30 5178 C 506.725 3.46168 0.443687 0
M  V30 5179 C 508.073 4.18659 0.707783 0
M  V30 5180 O 509.097 3.52281 0.52693 0
M  V30 5181 O 507.956 5.36198 1.05612 0
M  V30 5182 H 505.05 0.80379 0.194552 0
M  V30 5183 H 507.596 1.65738 -0.364577 0
M  V30 5184 H 506.368 3.8792 -0.513172 0
M  V30 5185 H 505.991 3.79073 1.19956 0
M  V30 5186 N 506.988 0.0434614 1.5754 0
M  V30 5187 C 508.236 -0.630786 1.92004 0
M  V30 5188 C 508.557 -1.71836 0.921807 0
M  V30 5189 O 507.827 -1.9587 -0.034522 0
M  V30 5190 H 506.407 -0.235988 0.708745 0
M  V30 5191 H 509.069 0.0946462 1.9467 0
M  V30 5192 H 508.165 -1.07434 2.93026 0
M  V30 5193 N 508.466 -1.55915 -0.229846 0
M  V30 5194 C 509.429 -1.90914 -1.26824 0
M  V30 5195 C 510.429 -0.786999 -1.40225 0
M  V30 5196 O 511.619 -1.05484 -1.38632 0
M  V30 5197 C 508.751 -2.15264 -2.64337 0
M  V30 5198 H 509.944 -2.8378 -0.969998 0
M  V30 5199 H 507.497 -1.49069 -0.4699 0
M  V30 5200 H 508.232 -1.24923 -2.99274 0
M  V30 5201 H 508.017 -2.97005 -2.55989 0
M  V30 5202 H 509.507 -2.43467 -3.39284 0
M  V30 5203 N 509.944 0.496216 -1.49584 0
M  V30 5204 C 511.19 1.25189 -1.59548 0
M  V30 5205 C 511.523 1.9212 -0.283466 0
M  V30 5206 O 510.798 1.80947 0.713324 0
M  V30 5207 C 511.081 2.31516 -2.75812 0
M  V30 5208 C 510.934 1.69054 -4.16822 0
M  V30 5209 C 512.253 3.3304 -2.87702 0
M  V30 5210 H 509.372 0.45379 -0.580727 0
M  V30 5211 H 512.014 0.549327 -1.81886 0
M  V30 5212 H 510.164 2.91438 -2.56897 0
M  V30 5213 H 511.836 1.12923 -4.47265 0
M  V30 5214 H 510.079 0.994485 -4.22247 0
M  V30 5215 H 510.75 2.462 -4.94054 0
M  V30 5216 H 513.226 2.83114 -3.04936 0
M  V30 5217 H 512.102 4.04794 -3.7072 0
M  V30 5218 H 512.363 3.95655 -1.97255 0
M  V30 5219 N 511.423 1.38739 0.74761 0
M  V30 5220 C 512.373 1.32948 1.85226 0
M  V30 5221 C 513.357 0.212642 1.59489 0
M  V30 5222 O 514.549 0.449121 1.71207 0
M  V30 5223 C 511.678 1.16279 3.23008 0
M  V30 5224 C 510.764 2.32611 3.54617 0
M  V30 5225 N 511.155 3.58065 3.57244 0
M  V30 5226 C 509.453 2.25293 3.84914 0
M  V30 5227 C 510.154 4.34919 3.8629 0
M  V30 5228 N 509.13 3.64348 4.03425 0
M  V30 5229 H 512.932 2.27927 1.85544 0
M  V30 5230 H 510.446 1.32056 0.945253 0
M  V30 5231 H 512.443 1.10214 4.02068 0
M  V30 5232 H 511.103 0.222394 3.23937 0
M  V30 5233 H 512.114 3.91656 3.3886 0
M  V30 5234 H 508.791 1.39446 3.93524 0
M  V30 5235 H 510.181 5.43605 3.94896 0
M  V30 5236 N 512.901 -0.976442 1.23707 0
M  V30 5237 C 513.851 -2.0544 0.988851 0
M  V30 5238 C 514.835 -1.60762 -0.0665901 0
M  V30 5239 O 516.027 -1.76396 0.14604 0
M  V30 5240 C 513.156 -3.38258 0.586223 0
M  V30 5241 C 512.242 -3.89523 1.67728 0
M  V30 5242 N 512.633 -4.13823 2.90834 0
M  V30 5243 C 510.931 -4.18097 1.55277 0
M  V30 5244 C 511.632 -4.55731 3.61502 0
M  V30 5245 N 510.608 -4.60394 2.8903 0
M  V30 5246 H 514.41 -2.22191 1.92376 0
M  V30 5247 H 511.924 -1.15954 1.13704 0
M  V30 5248 H 513.921 -4.15075 0.389658 0
M  V30 5249 H 512.581 -3.22898 -0.341594 0
M  V30 5250 H 513.592 -4.01529 3.271 0
M  V30 5251 H 510.269 -4.11719 0.692351 0
M  V30 5252 H 511.659 -4.83018 4.67059 0
M  V30 5253 N 514.379 -1.04941 -1.1758 0
M  V30 5254 C 515.327 -0.64204 -2.23563 0
M  V30 5255 C 516.321 0.335453 -1.66045 0
M  V30 5256 O 517.527 0.20179 -1.78865 0
M  V30 5257 H 513.902 -0.18944 -0.727748 0
M  V30 5258 H 515.873 -1.54609 -2.55223 0
M  V30 5259 C 514.622 -0.0301051 -3.47687 0
M  V30 5260 H 513.945 -0.773339 -3.92249 0
M  V30 5261 H 515.385 0.217592 -4.23441 0
M  V30 5262 C 513.844 1.2225 -3.13937 0
M  V30 5263 O 514.374 2.3122 -3.28482 0
M  V30 5264 N 512.58 1.11917 -2.68185 0
M  V30 5265 H 512.127 0.232403 -2.5655 0
M  V30 5266 H 512.085 1.95814 -2.45976 0
M  V30 5267 N 515.857 1.33968 -0.830081 0
M  V30 5268 C 517.085 2.0228 -0.434773 0
M  V30 5269 C 517.5 1.62487 0.961419 0
M  V30 5270 O 516.857 0.833849 1.62337 0
M  V30 5271 C 516.908 3.5751 -0.535625 0
M  V30 5272 O 516.629 3.95864 -1.87679 0
M  V30 5273 C 518.13 4.43091 -0.136137 0
M  V30 5274 H 515.35 0.648151 -0.173613 0
M  V30 5275 H 517.894 1.71089 -1.12022 0
M  V30 5276 H 516.049 3.87266 0.101817 0
M  V30 5277 H 516.463 4.9056 -1.85609 0
M  V30 5278 H 517.937 5.51398 -0.257772 0
M  V30 5279 H 518.414 4.29433 0.921076 0
M  V30 5280 H 519.02 4.18677 -0.747662 0
M  V30 5281 N 517.335 0.585699 1.46312 0
M  V30 5282 C 518.245 -0.148236 2.34131 0
M  V30 5283 C 519.261 -0.882972 1.49932 0
M  V30 5284 O 520.437 -0.845484 1.82794 0
M  V30 5285 C 517.502 -1.14714 3.27172 0
M  V30 5286 C 516.563 -0.416746 4.27272 0
M  V30 5287 C 515.796 -1.36806 5.15868 0
M  V30 5288 O 516.019 -2.60475 5.07454 0
M  V30 5289 O 514.953 -0.877018 5.95476 0
M  V30 5290 H 518.779 0.572882 2.98248 0
M  V30 5291 H 516.364 0.346082 1.45336 0
M  V30 5292 H 518.246 -1.72303 3.84564 0
M  V30 5293 H 516.921 -1.84967 2.65648 0
M  V30 5294 H 515.828 0.201061 3.73559 0
M  V30 5295 H 517.161 0.244872 4.9159 0
M  V30 5296 N 518.813 -1.54241 0.323641 0
M  V30 5297 C 519.723 -2.28033 -0.551205 0
M  V30 5298 C 520.739 -1.32388 -1.12913 0
M  V30 5299 O 521.915 -1.65403 -1.14908 0
M  V30 5300 C 518.98 -3.02382 -1.69606 0
M  V30 5301 C 518.041 -4.13612 -1.14993 0
M  V30 5302 C 517.274 -4.84407 -2.24022 0
M  V30 5303 O 517.497 -4.54716 -3.44368 0
M  V30 5304 O 516.431 -5.71312 -1.89436 0
M  V30 5305 H 520.257 -3.03662 0.048066 0
M  V30 5306 H 517.842 -1.49133 0.0893289 0
M  V30 5307 H 519.724 -3.48941 -2.36259 0
M  V30 5308 H 518.399 -2.29628 -2.28151 0
M  V30 5309 H 517.306 -3.71402 -0.448484 0
M  V30 5310 H 518.639 -4.8841 -0.609608 0
M  V30 5311 N 520.291 -0.0518155 -1.57515 0
M  V30 5312 C 521.54 0.621286 -1.91893 0
M  V30 5313 C 521.853 1.71966 -0.932052 0
M  V30 5314 O 523.059 2.45096 -1.16791 0
M  V30 5315 C 521.515 1.15641 -3.40816 0
M  V30 5316 C 521.123 0.0901146 -4.47909 0
M  V30 5317 C 522.867 1.80472 -3.84227 0
M  V30 5318 C 520.774 0.638154 -5.87947 0
M  V30 5319 H 519.704 0.235835 -0.716169 0
M  V30 5320 H 522.355 -0.120809 -1.83102 0
M  V30 5321 H 520.737 1.95084 -3.44613 0
M  V30 5322 H 521.911 -0.683525 -4.55702 0
M  V30 5323 H 520.226 -0.460774 -4.13843 0
M  V30 5324 H 522.823 2.22471 -4.86221 0
M  V30 5325 H 523.166 2.65669 -3.20508 0
M  V30 5326 H 523.699 1.07683 -3.82948 0
M  V30 5327 H 520.438 -0.176202 -6.55263 0
M  V30 5328 H 519.958 1.37976 -5.83714 0
M  V30 5329 H 521.637 1.12085 -6.37217 0
M  V30 5330 N 521.769 1.56035 0.221574 0
M  V30 5331 C 523.015 1.79312 0.947372 0
M  V30 5332 C 523.348 0.621453 1.83988 0
M  V30 5333 O 522.623 -0.379287 1.90766 0
M  V30 5334 C 522.906 3.1267 1.78633 0
M  V30 5335 C 522.759 4.40284 0.920312 0
M  V30 5336 C 524.078 3.4247 2.7641 0
M  V30 5337 H 521.197 0.652328 0.342982 0
M  V30 5338 H 523.839 1.88765 0.216244 0
M  V30 5339 H 521.989 3.04741 2.40967 0
M  V30 5340 H 523.661 4.60232 0.313718 0
M  V30 5341 H 521.904 4.33212 0.225734 0
M  V30 5342 H 522.575 5.30033 1.54171 0
M  V30 5343 H 525.051 3.50526 2.24211 0
M  V30 5344 H 523.927 4.3695 3.32213 0
M  V30 5345 H 524.188 2.64635 3.54148 0
M  V30 5346 N 523.247 -0.488276 1.49845 0
M  V30 5347 C 524.21 -1.57069 1.66919 0
M  V30 5348 C 525.21 -1.51445 0.540479 0
M  V30 5349 O 526.4 -1.5437 0.807188 0
M  V30 5350 C 523.532 -2.96718 1.67844 0
M  V30 5351 H 524.725 -1.43254 2.63474 0
M  V30 5352 H 522.278 -0.713435 1.39068 0
M  V30 5353 H 523.013 -3.15996 0.7292 0
M  V30 5354 H 522.798 -3.02208 2.49826 0
M  V30 5355 H 524.288 -3.75335 1.83066 0
M  V30 5356 N 524.725 -1.39134 -0.740242 0
M  V30 5357 C 525.657 -1.33332 -1.86428 0
M  V30 5358 C 526.67 -0.243042 -1.60976 0
M  V30 5359 O 527.859 -0.501608 -1.71307 0
M  V30 5360 C 524.959 -1.04626 -3.22346 0
M  V30 5361 C 524.132 -2.24826 -3.75196 0
M  V30 5362 C 523.191 -1.92659 -4.89662 0
M  V30 5363 O 522.217 -2.6529 -5.03597 0
M  V30 5364 N 523.419 -0.889575 -5.73643 0
M  V30 5365 H 526.184 -2.30196 -1.91911 0
M  V30 5366 H 523.745 -1.33168 -0.920756 0
M  V30 5367 H 525.737 -0.811347 -3.96484 0
M  V30 5368 H 524.307 -0.165129 -3.12164 0
M  V30 5369 H 523.527 -2.64301 -2.9247 0
M  V30 5370 H 524.815 -3.05015 -4.07239 0
M  V30 5371 H 524.213 -0.287529 -5.64969 0
M  V30 5372 H 522.77 -0.714557 -6.47871 0
M  V30 5373 N 526.204 0.969867 -1.24223 0
M  V30 5374 C 527.429 1.75289 -1.10853 0
M  V30 5375 C 527.854 1.85091 0.335079 0
M  V30 5376 O 527.212 1.32024 1.24255 0
M  V30 5377 C 527.26 3.15255 -1.75062 0
M  V30 5378 O 526.364 3.99589 -1.01992 0
M  V30 5379 H 525.705 0.538904 -0.387915 0
M  V30 5380 H 528.235 1.21675 -1.64488 0
M  V30 5381 H 528.245 3.65787 -1.80731 0
M  V30 5382 H 526.92 3.07436 -2.801 0
M  V30 5383 H 525.497 3.58077 -1.04094 0
M  V30 5384 N 527.682 1.05563 1.17022 0
M  V30 5385 C 528.931 0.763036 1.8671 0
M  V30 5386 C 529.244 -0.712857 1.82147 0
M  V30 5387 O 530.45 -1.11955 2.47343 0
M  V30 5388 C 528.906 1.31474 3.35026 0
M  V30 5389 C 528.514 2.82034 3.48081 0
M  V30 5390 C 530.258 1.09935 4.10018 0
M  V30 5391 C 528.165 3.30486 4.90442 0
M  V30 5392 H 527.095 0.281747 0.699382 0
M  V30 5393 H 529.746 1.2734 1.32124 0
M  V30 5394 H 528.128 0.732171 3.89173 0
M  V30 5395 H 529.302 3.46178 3.04133 0
M  V30 5396 H 527.617 3.02156 2.86515 0
M  V30 5397 H 530.214 1.43632 5.15048 0
M  V30 5398 H 530.557 0.0373072 4.16283 0
M  V30 5399 H 531.09 1.64732 3.62089 0
M  V30 5400 H 527.829 4.36137 4.89352 0
M  V30 5401 H 527.349 2.71086 5.35044 0
M  V30 5402 H 529.028 3.25382 5.59227 0
M  V30 5403 N 529.16 -1.33526 0.837174 0
M  V30 5404 C 530.123 -2.27551 0.274421 0
M  V30 5405 C 531.123 -1.50886 -0.555881 0
M  V30 5406 O 532.313 -1.70227 -0.369918 0
M  V30 5407 C 529.445 -3.35332 -0.613605 0
M  V30 5408 H 530.638 -2.78837 1.10408 0
M  V30 5409 H 528.191 -1.439 0.610126 0
M  V30 5410 H 528.926 -2.89285 -1.46577 0
M  V30 5411 H 528.711 -3.92095 -0.0195341 0
M  V30 5412 H 530.201 -4.05433 -1.00068 0
M  V30 5413 N 530.638 -0.59345 -1.46 0
M  V30 5414 C 531.568 0.121192 -2.33185 0
M  V30 5415 C 532.549 0.872977 -1.4599 0
M  V30 5416 O 533.734 0.846321 -1.74789 0
M  V30 5417 C 530.864 1.12844 -3.28456 0
M  V30 5418 C 529.818 0.4908 -4.25177 0
M  V30 5419 C 529.144 1.60529 -5.10034 0
M  V30 5420 C 530.444 -0.578949 -5.19081 0
M  V30 5421 H 532.138 -0.606767 -2.93187 0
M  V30 5422 H 529.684 -0.293242 -1.40983 0
M  V30 5423 H 531.637 1.63684 -3.88311 0
M  V30 5424 H 530.361 1.88681 -2.66584 0
M  V30 5425 H 529.02 0.00339328 -3.666 0
M  V30 5426 H 528.668 2.35359 -4.44539 0
M  V30 5427 H 528.368 1.18422 -5.75543 0
M  V30 5428 H 529.892 2.11623 -5.72755 0
M  V30 5429 H 531.306 -0.155199 -5.7309 0
M  V30 5430 H 529.703 -0.920947 -5.92991 0
M  V30 5431 H 530.773 -1.46109 -4.62364 0
M  V30 5432 N 532.116 1.54067 -0.331816 0
M  V30 5433 C 533.341 2.05599 0.272705 0
M  V30 5434 C 533.766 1.2059 1.44359 0
M  V30 5435 O 533.124 0.216907 1.79998 0
M  V30 5436 C 533.172 3.54188 0.677021 0
M  V30 5437 O 532.276 3.72082 1.77844 0
M  V30 5438 H 531.617 0.662286 0.0476801 0
M  V30 5439 H 534.147 1.98826 -0.482624 0
M  V30 5440 H 534.157 3.96608 0.957415 0
M  V30 5441 H 532.832 4.15513 -0.179325 0
M  V30 5442 H 531.409 3.41566 1.49622 0
M  V30 5443 N 533.594 0.0601682 1.57485 0
M  V30 5444 C 534.819 -0.624416 1.97777 0
M  V30 5445 C 535.244 -1.63051 0.937867 0
M  V30 5446 O 534.602 -1.81036 -0.0978845 0
M  V30 5447 C 534.65 -1.27979 3.37126 0
M  V30 5448 O 533.754 -2.39556 3.35688 0
M  V30 5449 H 533.095 -0.161581 0.64404 0
M  V30 5450 H 535.625 0.131237 2.04179 0
M  V30 5451 H 535.635 -1.62937 3.74053 0
M  V30 5452 H 534.31 -0.542501 4.12347 0
M  V30 5453 H 532.887 -2.06478 3.10517 0
M  V30 5454 N 535.072 -1.5615 -0.213296 0
M  V30 5455 C 536.002 -1.96109 -1.26742 0
M  V30 5456 C 536.983 -0.830448 -1.48451 0
M  V30 5457 O 538.168 -1.09339 -1.60495 0
M  V30 5458 C 535.298 -2.28492 -2.61551 0
M  V30 5459 C 534.252 -3.44124 -2.54485 0
M  V30 5460 C 533.578 -3.62134 -3.93399 0
M  V30 5461 C 534.878 -4.78855 -2.08556 0
M  V30 5462 H 536.572 -2.84412 -0.935434 0
M  V30 5463 H 534.118 -1.36836 -0.44854 0
M  V30 5464 H 536.071 -2.55039 -3.3546 0
M  V30 5465 H 534.795 -1.37052 -2.96453 0
M  V30 5466 H 533.454 -3.17639 -1.83033 0
M  V30 5467 H 533.102 -2.68055 -4.25623 0
M  V30 5468 H 532.802 -4.39913 -3.89551 0
M  V30 5469 H 534.326 -3.91038 -4.68958 0
M  V30 5470 H 535.74 -5.04552 -2.72213 0
M  V30 5471 H 534.137 -5.59975 -2.1575 0
M  V30 5472 H 535.207 -4.73657 -1.03811 0
M  V30 5473 N 536.55 0.480323 -1.50102 0
M  V30 5474 C 537.483 1.59789 -1.62919 0
M  V30 5475 C 538.461 1.55429 -0.477557 0
M  V30 5476 O 539.645 1.75186 -0.695851 0
M  V30 5477 C 536.772 2.98351 -1.60325 0
M  V30 5478 C 535.818 3.20899 -2.80938 0
M  V30 5479 S 536.651 3.01791 -4.4236 0
M  V30 5480 C 537.807 4.42712 -4.42444 0
M  V30 5481 H 538.04 1.48676 -2.57454 0
M  V30 5482 H 535.573 0.666996 -1.3925 0
M  V30 5483 H 537.531 3.7824 -1.59514 0
M  V30 5484 H 536.192 3.06862 -0.670419 0
M  V30 5485 H 535.385 4.22102 -2.75401 0
M  V30 5486 H 534.987 2.48768 -2.79268 0
M  V30 5487 H 537.279 5.3518 -4.15438 0
M  V30 5488 H 538.222 4.53294 -5.43995 0
M  V30 5489 H 538.63 4.24359 -3.72263 0
M  V30 5490 N 538.028 1.39524 0.732853 0
M  V30 5491 C 539.274 1.37068 1.49467 0
M  V30 5492 C 539.607 -0.0327166 1.94172 0
M  V30 5493 O 538.882 -0.998071 1.66939 0
M  V30 5494 C 539.165 2.34494 2.73285 0
M  V30 5495 C 539.018 3.83784 2.34585 0
M  V30 5496 C 540.337 2.29717 3.75391 0
M  V30 5497 H 537.456 0.499206 0.542183 0
M  V30 5498 H 540.098 1.70532 0.837783 0
M  V30 5499 H 538.248 2.06087 3.29333 0
M  V30 5500 H 539.92 4.22949 1.84151 0
M  V30 5501 H 538.163 4.00455 1.66787 0
M  V30 5502 H 538.834 4.47444 3.23262 0
M  V30 5503 H 541.31 2.54839 3.28932 0
M  V30 5504 H 540.186 2.99962 4.59689 0
M  V30 5505 H 540.447 1.30291 4.22465 0
M  V30 5506 N 539.506 -0.963266 1.24736 0
M  V30 5507 C 540.469 -2.04013 1.04457 0
M  V30 5508 C 541.469 -1.608 0.000335555 0
M  V30 5509 O 542.659 -1.72515 0.241719 0
M  V30 5510 C 539.791 -3.35858 0.584162 0
M  V30 5511 H 540.984 -2.23436 2.00041 0
M  V30 5512 H 538.537 -1.13914 1.07021 0
M  V30 5513 H 539.272 -3.22128 -0.374673 0
M  V30 5514 H 539.057 -3.68568 1.3379 0
M  V30 5515 H 540.547 -4.1502 0.463451 0
M  V30 5516 N 540.985 -1.06182 -1.16461 0
M  V30 5517 C 541.917 -0.629584 -2.20383 0
M  V30 5518 C 542.93 0.311834 -1.59786 0
M  V30 5519 O 544.119 0.103 -1.78203 0
M  V30 5520 C 541.219 0.0973695 -3.3876 0
M  V30 5521 C 540.392 -0.857252 -4.28917 0
M  V30 5522 C 539.451 -0.169749 -5.25926 0
M  V30 5523 O 538.477 -0.807044 -5.6345 0
M  V30 5524 N 539.679 1.08911 -5.70192 0
M  V30 5525 H 542.444 -1.52352 -2.58087 0
M  V30 5526 H 540.005 -0.944993 -1.31459 0
M  V30 5527 H 541.997 0.567676 -4.00699 0
M  V30 5528 H 540.567 0.893093 -2.99571 0
M  V30 5529 H 539.787 -1.50696 -3.64259 0
M  V30 5530 H 541.075 -1.50489 -4.86035 0
M  V30 5531 H 540.473 1.62703 -5.41797 0
M  V30 5532 H 539.03 1.50331 -6.34227 0
M  V30 5533 N 542.463 1.3308 -0.844243 0
M  V30 5534 C 543.426 2.27403 -0.286485 0
M  V30 5535 C 544.426 1.51179 0.547872 0
M  V30 5536 O 545.616 1.70421 0.360886 0
M  V30 5537 C 542.748 3.35653 0.595813 0
M  V30 5538 H 543.941 2.78248 -1.11885 0
M  V30 5539 H 541.494 1.43574 -0.617749 0
M  V30 5540 H 542.229 2.90058 1.4504 0
M  V30 5541 H 542.014 3.921 -0.00125994 0
M  V30 5542 H 543.504 4.05958 0.979168 0
M  V30 5543 N 543.941 0.601185 1.45683 0
M  V30 5544 C 545.19 0.0914953 2.01492 0
M  V30 5545 C 545.503 -1.28331 1.47616 0
M  V30 5546 O 546.709 -1.88537 1.95362 0
M  V30 5547 C 545.165 0.11291 3.59723 0
M  V30 5548 C 544.773 1.48717 4.22596 0
M  V30 5549 C 546.517 -0.341871 4.23121 0
M  V30 5550 C 544.424 1.46531 5.7296 0
M  V30 5551 H 543.354 0.0304365 0.753385 0
M  V30 5552 H 546.005 0.755568 1.67223 0
M  V30 5553 H 544.387 -0.617692 3.91153 0
M  V30 5554 H 545.561 2.23897 4.02749 0
M  V30 5555 H 543.876 1.88351 3.71366 0
M  V30 5556 H 546.473 -0.377304 5.33367 0
M  V30 5557 H 546.816 -1.36325 3.93346 0
M  V30 5558 H 547.349 0.335256 3.96385 0
M  V30 5559 H 544.088 2.46408 6.07423 0
M  V30 5560 H 543.608 0.755997 5.95017 0
M  V30 5561 H 545.287 1.18618 6.36034 0
M  V30 5562 N 545.419 -1.53889 0.339982 0
M  V30 5563 C 546.83 -1.86139 -0.144671 0
M  V30 5564 C 547.181 -1.2613 -1.50285 0
M  V30 5565 O 546.306 -0.573515 -2.08662 0
M  V30 5566 C 546.901 -3.37728 -0.269285 0
M  V30 5567 C 545.46 -3.69868 -0.698168 0
M  V30 5568 C 544.607 -2.76777 0.170249 0
M  V30 5569 H 547.558 -1.48503 0.559704 0
M  V30 5570 H 547.579 -3.64331 -1.0974 0
M  V30 5571 H 547.091 -3.81375 0.719366 0
M  V30 5572 H 545.192 -3.31764 -1.69597 0
M  V30 5573 H 545.305 -4.76582 -0.490533 0
M  V30 5574 H 543.669 -2.52188 -0.356844 0
M  V30 5575 H 544.452 -3.23253 1.15597 0
M  V30 5576 N 546.897 -0.0685191 -1.57451 0
M  V30 5577 C 547.827 0.89747 -2.15564 0
M  V30 5578 C 548.808 1.31266 -1.08181 0
M  V30 5579 O 549.993 1.38429 -1.36202 0
M  V30 5580 C 547.123 2.16623 -2.71463 0
M  V30 5581 C 546.077 1.89054 -3.83982 0
M  V30 5582 C 545.403 3.22532 -4.26471 0
M  V30 5583 C 546.703 1.1984 -5.08366 0
M  V30 5584 H 548.397 0.413373 -2.96533 0
M  V30 5585 H 545.943 0.197391 -1.42641 0
M  V30 5586 H 547.896 2.84614 -3.10761 0
M  V30 5587 H 546.62 2.67269 -1.8771 0
M  V30 5588 H 545.279 1.23469 -3.45183 0
M  V30 5589 H 544.927 3.71013 -3.39644 0
M  V30 5590 H 544.627 3.04879 -5.02317 0
M  V30 5591 H 546.151 3.91727 -4.68383 0
M  V30 5592 H 547.565 1.77896 -5.45001 0
M  V30 5593 H 545.962 1.12456 -5.89469 0
M  V30 5594 H 547.032 0.176996 -4.84577 0
M  V30 5595 N 548.375 1.56261 0.205012 0
M  V30 5596 C 549.621 1.80306 0.9283 0
M  V30 5597 C 549.954 0.640932 1.83319 0
M  V30 5598 O 549.229 -0.359032 1.91158 0
M  V30 5599 C 549.512 3.14547 1.75306 0
M  V30 5600 C 549.365 4.41236 0.873562 0
M  V30 5601 C 550.684 3.45382 2.72762 0
M  V30 5602 H 547.803 0.655929 0.336044 0
M  V30 5603 H 550.445 1.88984 0.196211 0
M  V30 5604 H 548.595 3.0728 2.37721 0
M  V30 5605 H 550.267 4.60539 0.264887 0
M  V30 5606 H 548.51 4.33427 0.179773 0
M  V30 5607 H 549.181 5.31639 1.48541 0
M  V30 5608 H 551.657 3.52884 2.20481 0
M  V30 5609 H 550.533 4.40449 3.2756 0
M  V30 5610 H 550.794 2.68377 3.51321 0
M  V30 5611 N 549.853 -0.472356 1.50355 0
M  V30 5612 C 551.101 -1.22211 1.60962 0
M  V30 5613 C 551.422 -1.92497 0.311439 0
M  V30 5614 O 550.692 -1.8405 -0.671002 0
M  V30 5615 H 549.272 -0.454092 0.593135 0
M  V30 5616 H 551.934 -0.544977 1.87126 0
M  V30 5617 H 551.03 -1.9707 2.42012 0
M  V30 5618 N 551.331 -1.39911 -0.725443 0
M  V30 5619 C 552.241 -1.41688 -1.8698 0
M  V30 5620 C 553.257 -0.310579 -1.71206 0
M  V30 5621 O 554.433 -0.55359 -1.93642 0
M  V30 5622 C 551.498 -1.26811 -3.22676 0
M  V30 5623 C 550.559 -2.47497 -3.50776 0
M  V30 5624 C 549.792 -2.3332 -4.79997 0
M  V30 5625 O 550.015 -1.34175 -5.54394 0
M  V30 5626 O 548.949 -3.22498 -5.08211 0
M  V30 5627 H 552.775 -2.38171 -1.88436 0
M  V30 5628 H 550.36 -1.21128 -0.874548 0
M  V30 5629 H 552.242 -1.20684 -4.03749 0
M  V30 5630 H 550.917 -0.334289 -3.21969 0
M  V30 5631 H 549.824 -2.59201 -2.69751 0
M  V30 5632 H 551.157 -3.39606 -3.5627 0
M  V30 5633 N 552.809 0.956637 -1.25245 0
M  V30 5634 C 553.739 2.07058 -1.07931 0
M  V30 5635 C 554.72 1.70096 0.0110361 0
M  V30 5636 O 555.905 1.93555 -0.158121 0
M  V30 5637 C 553.035 3.40272 -0.695124 0
M  V30 5638 C 551.989 3.91235 -1.73549 0
M  V30 5639 C 551.315 5.20921 -1.20604 0
M  V30 5640 C 552.615 4.17837 -3.13385 0
M  V30 5641 H 554.309 2.218 -2.01109 0
M  V30 5642 H 551.855 1.06581 -0.968326 0
M  V30 5643 H 553.808 4.1765 -0.560949 0
M  V30 5644 H 552.532 3.25462 0.272355 0
M  V30 5645 H 551.191 3.16025 -1.85807 0
M  V30 5646 H 550.839 5.02479 -0.228846 0
M  V30 5647 H 550.539 5.55987 -1.90136 0
M  V30 5648 H 552.063 6.00897 -1.08421 0
M  V30 5649 H 553.477 4.8588 -3.04292 0
M  V30 5650 H 551.874 4.64154 -3.80369 0
M  V30 5651 H 552.944 3.2419 -3.60595 0
M  V30 5652 N 554.287 1.06798 1.15896 0
M  V30 5653 C 555.533 0.788934 1.86825 0
M  V30 5654 C 555.866 -0.683084 1.8179 0
M  V30 5655 O 555.141 -1.50086 1.23711 0
M  V30 5656 C 555.424 1.29065 3.36176 0
M  V30 5657 C 555.277 2.8268 3.49874 0
M  V30 5658 C 556.596 0.902655 4.30744 0
M  V30 5659 H 553.715 0.288066 0.678371 0
M  V30 5660 H 556.357 1.32479 1.36195 0
M  V30 5661 H 554.507 0.834806 3.79425 0
M  V30 5662 H 556.179 3.36511 3.15528 0
M  V30 5663 H 554.422 3.21157 2.91617 0
M  V30 5664 H 555.093 3.12852 4.54783 0
M  V30 5665 H 557.569 1.29535 3.95424 0
M  V30 5666 H 556.445 1.28111 5.3374 0
M  V30 5667 H 556.706 -0.191951 4.41683 0
M  V30 5668 N 555.766 -1.3263 0.851289 0
M  V30 5669 C 557.043 -1.91982 0.374448 0
M  V30 5670 C 557.423 -1.77568 -1.14161 0
M  V30 5671 O 556.771 -1.1717 -1.96172 0
M  V30 5672 C 556.981 -3.38862 0.835088 0
M  V30 5673 C 558.329 -4.15999 0.850309 0
M  V30 5674 O 559.353 -3.47566 0.779505 0
M  V30 5675 O 558.212 -5.38189 0.949481 0
M  V30 5676 H 555.306 -0.819846 0.10854 0
M  V30 5677 H 557.852 -1.41422 0.937966 0
M  V30 5678 H 556.624 -3.43281 1.87814 0
M  V30 5679 H 556.247 -3.96821 0.248833 0
M  V30 5680 N 557.244 -0.608902 -1.45362 0
M  V30 5681 C 558.493 -0.10218 -2.01441 0
M  V30 5682 C 558.806 1.27546 -1.48295 0
M  V30 5683 O 560.012 1.87498 -1.96359 0
M  V30 5684 C 558.468 -0.131985 -3.59658 0
M  V30 5685 C 558.076 -1.50956 -4.21801 0
M  V30 5686 C 559.82 0.319427 -4.23296 0
M  V30 5687 C 557.727 -1.49568 -5.72174 0
M  V30 5688 H 556.657 -0.0344314 -0.753213 0
M  V30 5689 H 559.308 -0.764426 -1.6682 0
M  V30 5690 H 557.69 0.596939 -3.91475 0
M  V30 5691 H 558.864 -2.26029 -4.01556 0
M  V30 5692 H 557.179 -1.90318 -3.70362 0
M  V30 5693 H 559.776 0.349013 -5.3356 0
M  V30 5694 H 560.119 1.34237 -3.94064 0
M  V30 5695 H 560.652 -0.356273 -3.96201 0
M  V30 5696 H 557.391 -2.49626 -6.06108 0
M  V30 5697 H 556.911 -0.787542 -5.94607 0
M  V30 5698 H 558.59 -1.21989 -6.35396 0
M  V30 5699 N 558.722 1.53707 -0.348139 0
M  V30 5700 C 559.97 2.00591 0.246478 0
M  V30 5701 C 560.291 1.23753 1.50699 0
M  V30 5702 O 559.561 0.345964 1.92821 0
M  V30 5703 H 558.141 0.741053 0.0940679 0
M  V30 5704 H 560.803 1.89139 -0.470354 0
M  V30 5705 H 559.899 3.08297 0.485714 0
M  V30 5706 N 560.2 0.0768682 1.57412 0
M  V30 5707 C 561.447 -0.591085 1.93681 0
M  V30 5708 C 561.775 -1.69311 0.957286 0
M  V30 5709 O 561.03 -1.95682 -0.0262428 0
M  V30 5710 C 561.329 -1.20268 3.36557 0
M  V30 5711 C 560.995 -0.226286 4.50332 0
M  V30 5712 C 559.657 0.0423142 4.81181 0
M  V30 5713 C 562.009 0.441415 5.19327 0
M  V30 5714 C 559.337 0.985616 5.78362 0
M  V30 5715 C 561.689 1.37307 6.17519 0
M  V30 5716 C 560.353 1.65009 6.46783 0
M  V30 5717 H 559.623 -0.216293 0.70873 0
M  V30 5718 H 562.27 0.148824 1.90921 0
M  V30 5719 H 560.575 -2.01844 3.35807 0
M  V30 5720 H 562.272 -1.72688 3.61911 0
M  V30 5721 H 558.862 -0.445821 4.26275 0
M  V30 5722 H 563.046 0.247023 4.95685 0
M  V30 5723 H 558.302 1.20743 5.99359 0
M  V30 5724 H 562.476 1.89637 6.70083 0
M  V30 5725 H 560.103 2.38263 7.21897 0
M  V30 5726 N 561.678 -1.56367 -0.196722 0
M  V30 5727 C 562.641 -1.93561 -1.22746 0
M  V30 5728 C 563.641 -0.816566 -1.38524 0
M  V30 5729 O 564.831 -1.084 -1.36363 0
M  V30 5730 C 561.963 -2.20823 -2.59712 0
M  V30 5731 H 563.156 -2.85774 -0.909586 0
M  V30 5732 H 560.709 -1.50032 -0.438174 0
M  V30 5733 H 561.444 -1.31243 -2.96557 0
M  V30 5734 H 561.229 -3.02368 -2.49632 0
M  V30 5735 H 562.719 -2.50608 -3.34044 0
M  V30 5736 N 563.156 0.464375 -1.50603 0
M  V30 5737 C 564.119 1.54393 -1.69397 0
M  V30 5738 C 565.119 1.50566 -0.564504 0
M  V30 5739 O 566.309 1.53066 -0.831645 0
M  V30 5740 C 563.441 2.9401 -1.72543 0
M  V30 5741 H 564.634 1.39044 -2.65719 0
M  V30 5742 H 562.187 0.69122 -1.40185 0
M  V30 5743 H 562.922 3.14795 -0.77938 0
M  V30 5744 H 562.707 2.98195 -2.54602 0
M  V30 5745 H 564.197 3.72375 -1.89015 0
M  V30 5746 N 564.634 1.40294 0.718013 0
M  V30 5747 C 565.864 1.41544 1.50495 0
M  V30 5748 C 566.272 0.0127877 1.89196 0
M  V30 5749 O 565.615 -0.97305 1.55812 0
M  V30 5750 C 565.677 2.24021 2.81167 0
M  V30 5751 C 565.341 3.72463 2.64803 0
M  V30 5752 C 566.338 4.65154 2.32223 0
M  V30 5753 C 564.023 4.1625 2.81143 0
M  V30 5754 C 566.017 5.99618 2.16189 0
M  V30 5755 C 563.704 5.50784 2.64727 0
M  V30 5756 C 564.702 6.42283 2.32297 0
M  V30 5757 O 564.39 7.74337 2.16004 0
M  V30 5758 H 564.122 0.484819 0.471091 0
M  V30 5759 H 566.676 1.84948 0.893488 0
M  V30 5760 H 564.906 1.75393 3.44636 0
M  V30 5761 H 566.595 2.17243 3.42871 0
M  V30 5762 H 567.361 4.32622 2.19234 0
M  V30 5763 H 563.24 3.45352 3.05373 0
M  V30 5764 H 566.784 6.71 1.90799 0
M  V30 5765 H 562.681 5.82902 2.773 0
M  V30 5766 H 563.449 7.85244 2.30942 0
M  V30 5767 N 566.112 -0.949982 1.2575 0
M  V30 5768 C 567.06 -2.06869 1.06339 0
M  V30 5769 C 568.054 -1.69399 -0.00708901 0
M  V30 5770 O 569.26 -1.79383 0.148897 0
M  V30 5771 H 565.635 -0.677197 0.326969 0
M  V30 5772 H 567.606 -2.20396 2.01167 0
M  V30 5773 C 566.355 -3.40503 0.703769 0
M  V30 5774 H 565.678 -3.69807 1.51931 0
M  V30 5775 H 567.118 -4.19623 0.607677 0
M  V30 5776 C 565.577 -3.31685 -0.5905 0
M  V30 5777 O 566.107 -3.67085 -1.63131 0
M  V30 5778 N 564.313 -2.84797 -0.577859 0
M  V30 5779 H 563.86 -2.56186 0.26951 0
M  V30 5780 H 563.818 -2.79279 -1.44398 0
M  V30 5781 N 567.59 -1.07411 -1.15328 0
M  V30 5782 C 568.837 -0.797649 -1.86128 0
M  V30 5783 C 569.165 0.676298 -1.82364 0
M  V30 5784 O 568.42 1.51223 -1.24218 0
M  V30 5785 C 568.719 -1.25191 -3.34757 0
M  V30 5786 C 568.385 -2.73191 -3.58716 0
M  V30 5787 C 567.047 -3.13616 -3.64964 0
M  V30 5788 C 569.399 -3.68718 -3.6837 0
M  V30 5789 C 566.727 -4.48383 -3.78377 0
M  V30 5790 C 569.079 -5.03248 -3.83306 0
M  V30 5791 C 567.743 -5.43293 -3.878 0
M  V30 5792 H 567.013 -0.29188 -0.681092 0
M  V30 5793 H 569.66 -1.34524 -1.36292 0
M  V30 5794 H 567.965 -0.623712 -3.86804 0
M  V30 5795 H 569.662 -1.01489 -3.87945 0
M  V30 5796 H 566.252 -2.40898 -3.54494 0
M  V30 5797 H 570.436 -3.38614 -3.62842 0
M  V30 5798 H 565.692 -4.78877 -3.80114 0
M  V30 5799 H 569.866 -5.77142 -3.89718 0
M  V30 5800 H 567.493 -6.47721 -3.97946 0
M  V30 5801 N 569.068 1.32177 -0.85831 0
M  V30 5802 C 570.314 1.97417 -0.46417 0
M  V30 5803 C 570.647 1.67746 0.978514 0
M  V30 5804 O 569.922 0.967654 1.68721 0
M  V30 5805 C 570.205 3.53069 -0.708094 0
M  V30 5806 C 570.058 3.92357 -2.19946 0
M  V30 5807 C 571.377 4.39783 -0.166881 0
M  V30 5808 H 568.496 0.717097 -0.17012 0
M  V30 5809 H 571.138 1.56499 -1.07741 0
M  V30 5810 H 569.288 3.88054 -0.186128 0
M  V30 5811 H 570.96 3.67533 -2.78779 0
M  V30 5812 H 569.203 3.41384 -2.67656 0
M  V30 5813 H 569.874 5.00841 -2.32082 0
M  V30 5814 H 572.35 4.11556 -0.613285 0
M  V30 5815 H 571.226 5.47671 -0.367093 0
M  V30 5816 H 571.487 4.32196 0.930559 0
M  V30 5817 N 570.547 0.616602 1.45037 0
M  V30 5818 C 571.457 -0.0985401 2.34393 0
M  V30 5819 C 572.473 -0.850971 1.51771 0
M  V30 5820 O 573.649 -0.806521 1.84546 0
M  V30 5821 C 570.714 -1.07748 3.29532 0
M  V30 5822 C 569.775 -0.326022 4.2806 0
M  V30 5823 C 569.008 -1.25833 5.18654 0
M  V30 5824 O 569.231 -2.49652 5.12864 0
M  V30 5825 O 568.165 -0.750512 5.97203 0
M  V30 5826 H 571.991 0.636016 2.96966 0
M  V30 5827 H 569.576 0.376832 1.44569 0
M  V30 5828 H 571.458 -1.64107 3.88133 0
M  V30 5829 H 570.133 -1.79291 2.69512 0
M  V30 5830 H 569.04 0.280253 3.73049 0
M  V30 5831 H 570.373 0.349091 4.9096 0
M  V30 5832 N 572.025 -1.5352 0.356285 0
M  V30 5833 C 573.25 -2.06007 -0.239961 0
M  V30 5834 C 573.675 -1.22872 -1.42422 0
M  V30 5835 O 573.033 -0.245516 -1.7963 0
M  V30 5836 C 573.081 -3.5522 -0.620587 0
M  V30 5837 O 572.185 -3.74864 -1.71902 0
M  V30 5838 H 571.526 -0.662961 -0.0371377 0
M  V30 5839 H 574.056 -1.98033 0.514194 0
M  V30 5840 H 574.066 -3.98081 -0.894197 0
M  V30 5841 H 572.741 -4.15175 0.245407 0
M  V30 5842 H 571.318 -3.43904 -1.44169 0
M  V30 5843 N 573.503 -0.0852151 -1.57369 0
M  V30 5844 C 574.752 0.580443 -1.93168 0
M  V30 5845 C 575.065 1.6995 -0.968319 0
M  V30 5846 O 576.271 2.42564 -1.21963 0
M  V30 5847 C 574.727 1.08386 -3.43192 0
M  V30 5848 C 574.335 -0.00491388 -4.48 0
M  V30 5849 C 576.079 1.72281 -3.87968 0
M  V30 5850 C 573.986 0.513299 -5.89168 0
M  V30 5851 H 572.916 0.22059 -0.72101 0
M  V30 5852 H 575.567 -0.159621 -1.82804 0
M  V30 5853 H 573.949 1.8773 -3.48674 0
M  V30 5854 H 575.123 -0.780032 -4.5415 0
M  V30 5855 H 573.438 -0.548453 -4.12772 0
M  V30 5856 H 576.035 2.12108 -4.9083 0
M  V30 5857 H 576.378 2.58811 -3.26071 0
M  V30 5858 H 576.911 0.995359 -3.85146 0
M  V30 5859 H 573.65 -0.315153 -6.54742 0
M  V30 5860 H 573.17 1.25564 -5.8651 0
M  V30 5861 H 574.849 0.985433 -6.39451 0
M  V30 5862 N 574.981 1.5647 0.188427 0
M  V30 5863 C 576.23 1.80207 0.905995 0
M  V30 5864 C 576.543 0.659579 1.84144 0
M  V30 5865 O 577.749 0.781431 2.60011 0
M  V30 5866 C 576.205 3.19255 1.66145 0
M  V30 5867 C 575.813 4.41324 0.770504 0
M  V30 5868 C 577.557 3.52298 2.36826 0
M  V30 5869 C 575.464 5.71394 1.52521 0
M  V30 5870 H 574.394 0.671953 0.342045 0
M  V30 5871 H 577.045 1.82808 0.159164 0
M  V30 5872 H 575.427 3.10922 2.45242 0
M  V30 5873 H 576.601 4.60797 0.0177261 0
M  V30 5874 H 574.916 4.16035 0.174199 0
M  V30 5875 H 577.513 4.46715 2.93854 0
M  V30 5876 H 577.856 2.76359 3.11338 0
M  V30 5877 H 578.389 3.62108 1.6469 0
M  V30 5878 H 575.128 6.50316 0.82275 0
M  V30 5879 H 574.648 5.55928 2.25175 0
M  V30 5880 H 576.327 6.12747 2.07725 0
M  V30 5881 N 576.459 -0.456382 1.50847 0
M  V30 5882 C 577.407 -1.57318 1.71329 0
M  V30 5883 C 578.401 -1.59187 0.579287 0
M  V30 5884 O 579.607 -1.6316 0.76018 0
M  V30 5885 H 575.982 -0.5223 0.541024 0
M  V30 5886 H 577.953 -1.3721 2.64983 0
M  V30 5887 C 576.702 -2.95142 1.83811 0
M  V30 5888 H 576.025 -2.94428 2.70467 0
M  V30 5889 H 577.465 -3.72702 2.02161 0
M  V30 5890 C 575.924 -3.31636 0.593224 0
M  V30 5891 O 576.454 -4.00852 -0.260898 0
M  V30 5892 N 574.66 -2.87205 0.442902 0
M  V30 5893 H 574.207 -2.31051 1.13901 0
M  V30 5894 H 574.165 -3.11986 -0.38884 0
M  V30 5895 N 577.937 -1.40673 -0.710563 0
M  V30 5896 C 578.867 -1.44095 -1.83736 0
M  V30 5897 C 579.848 -0.301286 -1.67411 0
M  V30 5898 O 581.033 -0.510618 -1.87367 0
M  V30 5899 C 578.163 -1.30773 -3.21738 0
M  V30 5900 C 577.117 -2.42395 -3.52745 0
M  V30 5901 C 576.443 -2.14147 -4.89944 0
M  V30 5902 C 577.743 -3.84738 -3.53234 0
M  V30 5903 H 579.437 -2.38396 -1.81129 0
M  V30 5904 H 576.983 -1.14746 -0.870017 0
M  V30 5905 H 578.936 -1.31783 -4.00264 0
M  V30 5906 H 577.66 -0.329507 -3.24934 0
M  V30 5907 H 576.319 -2.40643 -2.76562 0
M  V30 5908 H 575.967 -1.14703 -4.89747 0
M  V30 5909 H 575.667 -2.88934 -5.11655 0
M  V30 5910 H 577.191 -2.16848 -5.70797 0
M  V30 5911 H 578.605 -3.88286 -4.2179 0
M  V30 5912 H 577.002 -4.59085 -3.86473 0
M  V30 5913 H 578.072 -4.13962 -2.52514 0
M  V30 5914 N 579.415 0.9433 -1.26252 0
M  V30 5915 C 580.662 1.68925 -1.11672 0
M  V30 5916 C 580.99 1.91499 0.340329 0
M  V30 5917 O 580.245 1.49189 1.26653 0
M  V30 5918 C 580.544 3.07073 -1.82868 0
M  V30 5919 C 580.21 3.04262 -3.32769 0
M  V30 5920 C 578.872 3.03203 -3.7366 0
M  V30 5921 C 581.224 2.96729 -4.28487 0
M  V30 5922 C 578.552 2.92373 -5.0866 0
M  V30 5923 C 580.904 2.87442 -5.63525 0
M  V30 5924 C 579.568 2.84724 -6.03729 0
M  V30 5925 H 578.838 0.618141 -0.408635 0
M  V30 5926 H 581.485 1.10124 -1.56668 0
M  V30 5927 H 579.79 3.69486 -1.30335 0
M  V30 5928 H 581.487 3.63635 -1.69029 0
M  V30 5929 H 578.077 3.05865 -3.00241 0
M  V30 5930 H 582.261 2.96658 -3.97879 0
M  V30 5931 H 577.517 2.88645 -5.38975 0
M  V30 5932 H 581.691 2.80576 -6.37377 0
M  V30 5933 H 579.318 2.76089 -7.08293 0
M  V30 5934 N 580.893 1.08022 1.14757 0
M  V30 5935 C 581.825 0.664566 2.19354 0
M  V30 5936 C 582.838 -0.286374 1.60261 0
M  V30 5937 O 584.027 -0.0746362 1.78344 0
M  V30 5938 C 581.127 -0.0434634 3.38872 0
M  V30 5939 C 580.3 0.925381 4.27499 0
M  V30 5940 C 579.359 0.253398 5.2559 0
M  V30 5941 O 578.385 0.896581 5.62094 0
M  V30 5942 N 579.587 -0.998263 5.71852 0
M  V30 5943 H 582.352 1.56438 2.55631 0
M  V30 5944 H 579.913 0.965788 1.29939 0
M  V30 5945 H 581.905 -0.503857 4.01551 0
M  V30 5946 H 580.475 -0.845321 3.00954 0
M  V30 5947 H 579.695 1.56472 3.61815 0
M  V30 5948 H 580.983 1.58203 4.8358 0
M  V30 5949 H 580.381 -1.54063 5.44317 0
M  V30 5950 H 578.938 -1.40222 6.36538 0
M  V30 5951 N 582.371 -1.3172 0.865308 0
M  V30 5952 C 583.617 -1.97168 0.474633 0
M  V30 5953 C 583.95 -1.68263 -0.969604 0
M  V30 5954 O 583.225 -0.976588 -1.68205 0
M  V30 5955 C 583.508 -3.52689 0.726808 0
M  V30 5956 C 583.361 -3.91185 2.22024 0
M  V30 5957 C 584.68 -4.39689 0.190201 0
M  V30 5958 H 581.799 -0.716185 0.17392 0
M  V30 5959 H 584.441 -1.55925 1.08569 0
M  V30 5960 H 582.591 -3.8795 0.206705 0
M  V30 5961 H 584.263 -3.66049 2.80724 0
M  V30 5962 H 582.506 -3.3996 2.69462 0
M  V30 5963 H 583.177 -4.99604 2.34735 0
M  V30 5964 H 585.653 -4.11225 0.635103 0
M  V30 5965 H 584.529 -5.47469 0.396132 0
M  V30 5966 H 584.79 -4.32683 -0.907625 0
M  V30 5967 N 583.85 -0.624285 -1.44708 0
M  V30 5968 C 585.096 -0.126237 -2.02407 0
M  V30 5969 C 585.428 1.24618 -1.48943 0
M  V30 5970 O 584.704 1.82569 -0.670742 0
M  V30 5971 C 584.986 -0.105449 -3.59946 0
M  V30 5972 C 584.84 -1.50972 -4.23707 0
M  V30 5973 C 586.159 0.573629 -4.36346 0
M  V30 5974 H 583.278 -0.0473472 -0.735478 0
M  V30 5975 H 585.92 -0.799452 -1.72362 0
M  V30 5976 H 584.07 0.46783 -3.85673 0
M  V30 5977 H 585.742 -2.13136 -4.0911 0
M  V30 5978 H 583.985 -2.0656 -3.81465 0
M  V30 5979 H 584.656 -1.44727 -5.32689 0
M  V30 5980 H 587.132 0.0861787 -4.16011 0
M  V30 5981 H 586.008 0.557338 -5.46063 0
M  V30 5982 H 586.269 1.64276 -4.10446 0
M  V30 5983 N 585.328 1.53329 -0.364422 0
M  V30 5984 C 586.278 2.22472 0.499024 0
M  V30 5985 C 587.262 1.21952 1.0496 0
M  V30 5986 O 588.454 1.47405 0.979836 0
M  V30 5987 C 585.583 3.01659 1.6388 0
M  V30 5988 C 584.669 4.09555 1.10116 0
M  V30 5989 N 585.06 5.04988 0.286414 0
M  V30 5990 C 583.358 4.2424 1.37608 0
M  V30 5991 C 584.059 5.81699 -0.00781682 0
M  V30 5992 N 583.035 5.40394 0.589494 0
M  V30 5993 H 586.837 2.93611 -0.130284 0
M  V30 5994 H 584.351 1.61483 -0.172377 0
M  V30 5995 H 586.348 3.4971 2.26954 0
M  V30 5996 H 585.008 2.32051 2.27118 0
M  V30 5997 H 586.019 5.17847 -0.0742839 0
M  V30 5998 H 582.696 3.65858 2.01133 0
M  V30 5999 H 584.086 6.68587 -0.666394 0
M  V30 6000 N 586.806 0.0935595 1.57322 0
M  V30 6001 C 587.754 -0.883457 2.15169 0
M  V30 6002 C 588.748 -1.29324 1.09415 0
M  V30 6003 O 589.954 -1.26795 1.27762 0
M  V30 6004 H 586.329 -0.302923 0.688289 0
M  V30 6005 H 588.3 -0.370845 2.96087 0
M  V30 6006 C 587.049 -2.13345 2.74552 0
M  V30 6007 H 586.372 -1.82702 3.55612 0
M  V30 6008 H 587.812 -2.7977 3.18598 0
M  V30 6009 C 586.271 -2.90646 1.70371 0
M  V30 6010 O 586.801 -3.85133 1.14173 0
M  V30 6011 N 585.007 -2.54157 1.40899 0
M  V30 6012 H 584.554 -1.77391 1.86789 0
M  V30 6013 H 584.512 -3.06178 0.714301 0
M  V30 6014 N 588.284 -1.56567 -0.180126 0
M  V30 6015 C 589.509 -1.85975 -0.918041 0
M  V30 6016 C 589.934 -0.678888 -1.75422 0
M  V30 6017 O 589.292 0.372168 -1.77439 0
M  V30 6018 C 589.34 -3.13731 -1.77779 0
M  V30 6019 O 588.444 -2.95335 -2.87838 0
M  V30 6020 H 587.785 -0.61196 -0.257683 0
M  V30 6021 H 590.315 -2.03798 -0.180923 0
M  V30 6022 H 590.325 -3.4491 -2.17948 0
M  V30 6023 H 589 -3.99293 -1.16352 0
M  V30 6024 H 587.577 -2.7549 -2.51316 0
M  V30 6025 N 589.762 0.448376 -1.51087 0
M  V30 6026 C 590.992 1.21965 -1.66757 0
M  V30 6027 C 591.4 1.85748 -0.359753 0
M  V30 6028 O 590.743 1.71022 0.670604 0
M  V30 6029 C 590.805 2.35284 -2.71812 0
M  V30 6030 C 590.469 1.91957 -4.1473 0
M  V30 6031 C 591.466 1.42921 -4.9987 0
M  V30 6032 C 589.151 1.99985 -4.60772 0
M  V30 6033 C 591.145 1.02485 -6.29107 0
M  V30 6034 C 588.832 1.5916 -5.90009 0
M  V30 6035 C 589.83 1.10491 -6.74004 0
M  V30 6036 O 589.518 0.702413 -8.00825 0
M  V30 6037 H 589.25 0.374125 -0.563034 0
M  V30 6038 H 591.804 0.538927 -1.98204 0
M  V30 6039 H 590.034 3.06599 -2.35657 0
M  V30 6040 H 591.723 2.97184 -2.76472 0
M  V30 6041 H 592.489 1.36123 -4.65506 0
M  V30 6042 H 588.368 2.36814 -3.95525 0
M  V30 6043 H 591.912 0.644271 -6.94619 0
M  V30 6044 H 587.809 1.65626 -6.2389 0
M  V30 6045 H 588.577 0.829248 -8.14288 0
M  V30 6046 N 591.24 1.41047 0.703093 0
M  V30 6047 C 592.188 1.42494 1.83843 0
M  V30 6048 C 593.182 0.303885 1.66652 0
M  V30 6049 O 594.388 0.475544 1.73605 0
M  V30 6050 H 590.763 0.445685 0.605697 0
M  V30 6051 H 592.734 2.38194 1.79739 0
M  V30 6052 C 591.483 1.31666 3.21807 0
M  V30 6053 H 590.806 2.17212 3.35647 0
M  V30 6054 H 592.246 1.36738 4.01346 0
M  V30 6055 C 590.705 0.0281828 3.36888 0
M  V30 6056 O 591.235 -0.929995 3.90786 0
M  V30 6057 N 589.441 -0.0454322 2.90564 0
M  V30 6058 H 588.988 0.735046 2.4689 0
M  V30 6059 H 588.946 -0.906968 3.01034 0
M  V30 6060 N 592.718 -0.936591 1.26751 0
M  V30 6061 C 594.134 -1.21095 1.03963 0
M  V30 6062 C 594.334 -2.00156 -0.232372 0
M  V30 6063 O 593.39 -2.3434 -0.940274 0
M  V30 6064 C 594.703 -1.96775 2.27377 0
M  V30 6065 C 596.251 -2.09749 2.32324 0
M  V30 6066 C 596.726 -2.88832 3.55443 0
M  V30 6067 N 598.217 -2.96404 3.55948 0
M  V30 6068 C 598.952 -3.58036 4.47881 0
M  V30 6069 N 598.448 -4.21132 5.50109 0
M  V30 6070 N 600.241 -3.55353 4.35523 0
M  V30 6071 H 592.392 -0.408173 2.08441 0
M  V30 6072 H 594.655 -0.243139 0.91629 0
M  V30 6073 H 594.361 -1.46094 3.19921 0
M  V30 6074 H 594.235 -2.97424 2.31989 0
M  V30 6075 H 596.622 -2.5962 1.40291 0
M  V30 6076 H 596.703 -1.08347 2.31721 0
M  V30 6077 H 596.347 -2.39647 4.47808 0
M  V30 6078 H 596.277 -3.90499 3.53296 0
M  V30 6079 H 598.768 -2.51552 2.82011 0
M  V30 6080 H 599.081 -4.66071 6.16439 0
M  V30 6081 H 597.426 -4.19705 5.53961 0
M  V30 6082 H 600.617 -3.05256 3.54875 0
M  V30 6083 H 600.79 -4.03097 5.07363 0
M  V30 6084 N 594.196 -1.08629 -1.14182 0
M  V30 6085 C 595.607 -0.838003 -1.66836 0
M  V30 6086 C 595.958 0.634885 -1.85644 0
M  V30 6087 O 595.083 1.49008 -1.56926 0
M  V30 6088 C 595.678 -1.51465 -3.03058 0
M  V30 6089 C 594.237 -1.31355 -3.52736 0
M  V30 6090 C 593.384 -1.57599 -2.28162 0
M  V30 6091 H 596.335 -1.24656 -0.982165 0
M  V30 6092 H 596.356 -0.943134 -3.68626 0
M  V30 6093 H 595.868 -2.58661 -2.89337 0
M  V30 6094 H 593.969 -0.262384 -3.71675 0
M  V30 6095 H 594.082 -2.04275 -4.33369 0
M  V30 6096 H 592.446 -0.997659 -2.34348 0
M  V30 6097 H 593.229 -2.66006 -2.17015 0
M  V30 6098 N 595.674 1.31259 -0.872281 0
M  V30 6099 C 596.637 2.26744 -0.334656 0
M  V30 6100 C 597.637 1.52307 0.515681 0
M  V30 6101 O 598.827 1.71148 0.324656 0
M  V30 6102 C 595.959 3.36841 0.524482 0
M  V30 6103 H 597.152 2.75812 -1.17762 0
M  V30 6104 H 594.705 1.42232 -0.648064 0
M  V30 6105 H 595.44 2.93069 1.38855 0
M  V30 6106 H 595.225 3.92009 -0.0844299 0
M  V30 6107 H 596.715 4.07944 0.892838 0
M  V30 6108 N 597.152 0.631951 1.44375 0
M  V30 6109 C 598.382 0.143658 2.061 0
M  V30 6110 C 598.79 -1.18733 1.47306 0
M  V30 6111 O 598.133 -1.73943 0.590724 0
M  V30 6112 C 598.195 -0.0446102 3.59472 0
M  V30 6113 C 597.859 1.20835 4.40736 0
M  V30 6114 C 598.856 2.13224 4.74164 0
M  V30 6115 C 596.541 1.44399 4.81097 0
M  V30 6116 C 598.535 3.27487 5.46838 0
M  V30 6117 C 596.222 2.58959 5.53519 0
M  V30 6118 C 597.22 3.50329 5.86309 0
M  V30 6119 O 596.908 4.62891 6.57257 0
M  V30 6120 H 596.64 0.0772939 0.671567 0
M  V30 6121 H 599.194 0.866677 1.8622 0
M  V30 6122 H 597.424 -0.822783 3.77845 0
M  V30 6123 H 599.113 -0.487561 4.02961 0
M  V30 6124 H 599.879 1.96253 4.4352 0
M  V30 6125 H 595.758 0.741696 4.54994 0
M  V30 6126 H 599.302 3.98826 5.72349 0
M  V30 6127 H 595.199 2.75873 5.83579 0
M  V30 6128 H 595.967 4.61883 6.75726 0
M  V30 6129 N 598.631 -1.53133 0.372548 0
M  V30 6130 C 599.856 -2.0625 -0.218098 0
M  V30 6131 C 600.281 -1.24375 -1.41111 0
M  V30 6132 O 599.639 -0.264554 -1.79359 0
M  V30 6133 C 599.687 -3.55858 -0.582876 0
M  V30 6134 O 598.791 -3.76667 -1.67917 0
M  V30 6135 H 598.132 -0.663317 -0.030104 0
M  V30 6136 H 600.662 -1.97477 0.535169 0
M  V30 6137 H 600.672 -3.99007 -0.851925 0
M  V30 6138 H 599.347 -4.14892 0.289428 0
M  V30 6139 H 597.924 -3.45413 -1.40513 0
M  V30 6140 N 600.109 -0.101901 -1.5727 0
M  V30 6141 C 601.52 0.426173 -1.81771 0
M  V30 6142 C 601.871 1.67725 -1.01797 0
M  V30 6143 O 600.996 2.14958 -0.249386 0
M  V30 6144 C 601.591 0.779962 -3.297 0
M  V30 6145 C 600.15 1.25275 -3.54941 0
M  V30 6146 C 599.297 0.252814 -2.76145 0
M  V30 6147 H 602.248 -0.32726 -1.55289 0
M  V30 6148 H 602.269 1.63891 -3.43395 0
M  V30 6149 H 601.781 -0.130778 -3.8788 0
M  V30 6150 H 599.882 2.18097 -3.021 0
M  V30 6151 H 599.995 1.20988 -4.63572 0
M  V30 6152 H 598.359 0.736362 -2.43823 0
M  V30 6153 H 599.142 -0.650724 -3.37076 0
M  V30 6154 N 601.587 1.56661 0.17182 0
M  V30 6155 C 602.835 1.81606 0.886774 0
M  V30 6156 C 603.156 0.678818 1.82803 0
M  V30 6157 O 602.426 -0.301354 1.93568 0
M  V30 6158 H 601.006 0.669934 0.330451 0
M  V30 6159 H 603.668 1.94142 0.171757 0
M  V30 6160 H 602.764 2.75634 1.46398 0
M  V30 6161 N 603.065 -0.440357 1.51323 0
M  V30 6162 C 604.015 -1.53263 1.68803 0
M  V30 6163 C 604.999 -1.51494 0.542057 0
M  V30 6164 O 606.191 -1.57999 0.797839 0
M  V30 6165 C 603.32 -2.91479 1.8137 0
M  V30 6166 C 602.406 -2.98015 3.01742 0
M  V30 6167 N 602.797 -2.743 4.24962 0
M  V30 6168 C 601.095 -3.29173 3.00934 0
M  V30 6169 C 601.796 -2.86601 5.06197 0
M  V30 6170 N 600.772 -3.1814 4.40781 0
M  V30 6171 H 604.574 -1.33675 2.61741 0
M  V30 6172 H 602.088 -0.647616 1.48929 0
M  V30 6173 H 604.085 -3.70055 1.92002 0
M  V30 6174 H 602.745 -3.12089 0.896117 0
M  V30 6175 H 603.756 -2.49287 4.53957 0
M  V30 6176 H 600.433 -3.55577 2.18796 0
M  V30 6177 H 601.823 -2.72246 6.14274 0
M  V30 6178 N 604.543 -1.41418 -0.695603 0
M  V30 6179 C 605.49 -1.43264 -1.80954 0
M  V30 6180 C 606.46 -0.287016 -1.63601 0
M  V30 6181 O 607.645 -0.488054 -1.84452 0
M  V30 6182 C 604.785 -1.32054 -3.18835 0
M  V30 6183 C 603.898 -2.56485 -3.4762 0
M  V30 6184 C 603.033 -2.3757 -4.75115 0
M  V30 6185 C 602.072 -3.57477 -4.96867 0
M  V30 6186 N 601.209 -3.37632 -6.15588 0
M  V30 6187 H 606.049 -2.38467 -1.78711 0
M  V30 6188 H 603.586 -1.18415 -0.872715 0
M  V30 6189 H 605.544 -1.23558 -3.98484 0
M  V30 6190 H 604.174 -0.404592 -3.20254 0
M  V30 6191 H 603.226 -2.75432 -2.62376 0
M  V30 6192 H 604.538 -3.45678 -3.59594 0
M  V30 6193 H 603.692 -2.2654 -5.62818 0
M  V30 6194 H 602.431 -1.45834 -4.65386 0
M  V30 6195 H 601.436 -3.68961 -4.07612 0
M  V30 6196 H 602.661 -4.50167 -5.08455 0
M  V30 6197 H 600.607 -2.48596 -6.07072 0
M  V30 6198 H 600.524 -4.20401 -6.2833 0
M  V30 6199 H 601.792 -3.30375 -7.06026 0
M  V30 6200 N 606.021 0.929856 -1.27246 0
M  V30 6201 C 607.249 1.71144 -1.16265 0
M  V30 6202 C 607.664 1.867 0.280786 0
M  V30 6203 O 607.021 1.38249 1.19136 0
M  V30 6204 C 607.072 3.11222 -1.83911 0
M  V30 6205 O 606.793 2.96398 -3.22614 0
M  V30 6206 C 608.294 4.05541 -1.79028 0
M  V30 6207 H 605.514 0.535499 -0.404328 0
M  V30 6208 H 608.058 1.16492 -1.68077 0
M  V30 6209 H 606.213 3.6274 -1.36009 0
M  V30 6210 H 606.627 3.8494 -3.56261 0
M  V30 6211 H 608.101 5.01351 -2.30978 0
M  V30 6212 H 608.578 4.32589 -0.759168 0
M  V30 6213 H 609.184 3.59947 -2.26535 0
M  V30 6214 N 607.499 1.09233 1.13605 0
M  V30 6215 C 608.431 0.687794 2.18637 0
M  V30 6216 C 609.444 -0.26936 1.60556 0
M  V30 6217 O 610.633 -0.0557162 1.78413 0
M  V30 6218 C 607.733 -0.00751901 3.38899 0
M  V30 6219 C 606.906 0.97067 4.26494 0
M  V30 6220 C 605.965 0.309129 5.25291 0
M  V30 6221 O 604.991 0.956149 5.61112 0
M  V30 6222 N 606.193 -0.937555 5.72879 0
M  V30 6223 H 608.958 1.59141 2.53957 0
M  V30 6224 H 606.519 0.979515 1.28907 0
M  V30 6225 H 608.511 -0.461238 4.02063 0
M  V30 6226 H 607.081 -0.813353 3.01833 0
M  V30 6227 H 606.301 1.603 3.60135 0
M  V30 6228 H 607.589 1.63323 4.81875 0
M  V30 6229 H 606.987 -1.48281 5.4592 0
M  V30 6230 H 605.544 -1.33463 6.3799 0
M  V30 6231 N 608.977 -1.30795 0.87923 0
M  V30 6232 C 610.388 -1.78535 0.546093 0
M  V30 6233 C 610.739 -1.72354 -0.937467 0
M  V30 6234 O 609.864 -1.2969 -1.73233 0
M  V30 6235 C 610.459 -3.24181 0.9845 0
M  V30 6236 C 609.018 -3.69779 0.702871 0
M  V30 6237 C 608.165 -2.51377 1.17068 0
M  V30 6238 H 611.116 -1.17746 1.06403 0
M  V30 6239 H 611.137 -3.79227 0.311045 0
M  V30 6240 H 610.649 -3.28647 2.06429 0
M  V30 6241 H 608.75 -3.70806 -0.365166 0
M  V30 6242 H 608.863 -4.61507 1.28639 0
M  V30 6243 H 607.227 -2.47768 0.590172 0
M  V30 6244 H 608.01 -2.58584 2.25808 0
M  V30 6245 N 610.455 -0.639598 -1.44038 0
M  V30 6246 C 611.702 -0.14748 -2.01962 0
M  V30 6247 C 612.03 1.23372 -1.50365 0
M  V30 6248 O 611.285 1.8345 -0.681501 0
M  V30 6249 C 611.584 -0.0925348 -3.5728 0
M  V30 6250 C 611.25 -1.41365 -4.28167 0
M  V30 6251 C 609.912 -1.77545 -4.47248 0
M  V30 6252 C 612.264 -2.2853 -4.68427 0
M  V30 6253 C 609.592 -3.00583 -5.03852 0
M  V30 6254 C 611.944 -3.50846 -5.26393 0
M  V30 6255 C 610.608 -3.8724 -5.43692 0
M  V30 6256 H 609.878 -0.0539666 -0.739032 0
M  V30 6257 H 612.525 -0.827599 -1.72694 0
M  V30 6258 H 610.83 0.670987 -3.86012 0
M  V30 6259 H 612.527 0.304891 -3.99839 0
M  V30 6260 H 609.117 -1.1221 -4.13651 0
M  V30 6261 H 613.301 -2.0187 -4.5339 0
M  V30 6262 H 608.557 -3.28846 -5.15432 0
M  V30 6263 H 612.731 -4.18616 -5.56537 0
M  V30 6264 H 610.358 -4.8266 -5.87319 0
M  V30 6265 N 611.933 1.52934 -0.380664 0
M  V30 6266 C 612.863 2.29118 0.450268 0
M  V30 6267 C 613.844 1.32153 1.07096 0
M  V30 6268 O 615.029 1.61038 1.08537 0
M  V30 6269 C 612.159 3.09161 1.58231 0
M  V30 6270 C 611.113 4.13938 1.0881 0
M  V30 6271 C 610.439 4.82153 2.31155 0
M  V30 6272 C 611.739 5.22048 0.162146 0
M  V30 6273 H 613.433 2.98826 -0.185361 0
M  V30 6274 H 610.979 1.43715 -0.0905886 0
M  V30 6275 H 612.932 3.61211 2.17036 0
M  V30 6276 H 611.656 2.3717 2.2454 0
M  V30 6277 H 610.315 3.62855 0.522633 0
M  V30 6278 H 609.963 4.06719 2.95953 0
M  V30 6279 H 609.663 5.52966 1.98752 0
M  V30 6280 H 611.187 5.37004 2.90618 0
M  V30 6281 H 612.601 5.6951 0.658126 0
M  V30 6282 H 610.998 6.00057 -0.0717122 0
M  V30 6283 H 612.068 4.78398 -0.791438 0
M  V30 6284 N 613.412 0.11024 1.57214 0
M  V30 6285 C 614.362 -0.854147 2.11396 0
M  V30 6286 C 615.346 -1.23394 1.03261 0
M  V30 6287 O 616.538 -1.20649 1.2951 0
M  V30 6288 C 613.667 -2.10752 2.70995 0
M  V30 6289 C 612.753 -1.75249 3.86198 0
M  V30 6290 N 613.144 -1.10377 4.9361 0
M  V30 6291 C 611.442 -2.04763 3.96217 0
M  V30 6292 C 612.143 -0.938199 5.74084 0
M  V30 6293 N 611.119 -1.46039 5.23616 0
M  V30 6294 H 614.921 -0.348897 2.91822 0
M  V30 6295 H 612.435 -0.0925071 1.62136 0
M  V30 6296 H 614.432 -2.80801 3.0815 0
M  V30 6297 H 613.092 -2.61829 1.9203 0
M  V30 6298 H 614.103 -0.768785 5.12162 0
M  V30 6299 H 610.78 -2.57948 3.28282 0
M  V30 6300 H 612.17 -0.429678 6.70525 0
M  V30 6301 N 614.89 -1.56749 -0.16351 0
M  V30 6302 C 616.167 -1.73321 -0.906599 0
M  V30 6303 C 616.547 -0.673779 -2.00059 0
M  V30 6304 O 615.895 0.310121 -2.26386 0
M  V30 6305 C 616.105 -3.168 -1.46419 0
M  V30 6306 C 617.453 -3.77993 -1.93407 0
M  V30 6307 O 618.477 -3.20127 -1.56196 0
M  V30 6308 O 617.336 -4.79615 -2.61976 0
M  V30 6309 H 614.43 -0.708073 -0.427272 0
M  V30 6310 H 616.976 -1.69029 -0.150727 0
M  V30 6311 H 615.748 -3.85396 -0.677189 0
M  V30 6312 H 615.371 -3.2545 -2.28403 0
M  V30 6313 N 616.368 0.432326 -1.51554 0
M  V30 6314 C 617.616 1.17901 -1.64146 0
M  V30 6315 C 617.937 1.91604 -0.362367 0
M  V30 6316 O 617.207 1.85764 0.621968 0
M  V30 6317 H 615.787 0.438206 -0.604966 0
M  V30 6318 H 618.449 0.495172 -1.88505 0
M  V30 6319 H 617.545 1.90584 -2.47152 0
M  V30 6320 N 617.846 1.41785 0.688094 0
M  V30 6321 C 619.076 1.44705 1.47459 0
M  V30 6322 C 619.484 0.052916 1.89126 0
M  V30 6323 O 618.827 -0.939781 1.57841 0
M  V30 6324 C 618.889 2.29935 2.76352 0
M  V30 6325 C 618.553 3.77996 2.56843 0
M  V30 6326 C 619.55 4.69976 2.22304 0
M  V30 6327 C 617.235 4.2212 2.7225 0
M  V30 6328 C 619.229 6.04068 2.03421 0
M  V30 6329 C 616.916 5.56275 2.52985 0
M  V30 6330 C 617.914 6.47065 2.18621 0
M  V30 6331 O 617.602 7.78744 1.9953 0
M  V30 6332 H 617.334 0.494703 0.460701 0
M  V30 6333 H 619.888 1.86802 0.854057 0
M  V30 6334 H 618.118 1.82664 3.40839 0
M  V30 6335 H 619.807 2.24467 3.38186 0
M  V30 6336 H 620.573 4.37175 2.10008 0
M  V30 6337 H 616.452 3.51752 2.97979 0
M  V30 6338 H 619.996 6.74897 1.76523 0
M  V30 6339 H 615.893 5.88653 2.64873 0
M  V30 6340 H 616.661 7.89966 2.14234 0
M  V30 6341 N 619.324 -0.923095 1.27737 0
M  V30 6342 C 620.287 -2.00587 1.10894 0
M  V30 6343 C 621.287 -1.60718 0.0514927 0
M  V30 6344 O 622.477 -1.71658 0.296481 0
M  V30 6345 C 619.609 -3.33829 0.690717 0
M  V30 6346 H 620.802 -2.16959 2.07048 0
M  V30 6347 H 618.355 -1.10451 1.1059 0
M  V30 6348 H 619.09 -3.23157 -0.272 0
M  V30 6349 H 618.875 -3.64125 1.45448 0
M  V30 6350 H 620.365 -4.13336 0.595252 0
M  V30 6351 N 620.802 -1.09834 -1.13024 0
M  V30 6352 C 622.048 -0.83819 -1.84668 0
M  V30 6353 C 622.381 0.634645 -1.83537 0
M  V30 6354 O 621.656 1.46753 -1.27647 0
M  V30 6355 C 621.939 -1.37933 -3.32636 0
M  V30 6356 C 621.792 -2.91857 -3.42257 0
M  V30 6357 C 623.111 -1.01654 -4.28199 0
M  V30 6358 H 620.23 -0.30595 -0.670495 0
M  V30 6359 H 622.872 -1.36044 -1.32635 0
M  V30 6360 H 621.022 -0.935111 -3.77078 0
M  V30 6361 H 622.694 -3.44759 -3.06495 0
M  V30 6362 H 620.937 -3.28776 -2.83 0
M  V30 6363 H 621.608 -3.24799 -4.46329 0
M  V30 6364 H 624.084 -1.39973 -3.9185 0
M  V30 6365 H 622.96 -1.42217 -5.30156 0
M  V30 6366 H 623.221 0.0747794 -4.42037 0
M  V30 6367 N 622.28 1.30327 -0.886154 0
M  V30 6368 C 623.505 2.0079 -0.519425 0
M  V30 6369 C 623.93 1.65979 0.885013 0
M  V30 6370 O 623.288 0.877043 1.58675 0
M  V30 6371 C 623.336 3.53686 -0.702758 0
M  V30 6372 O 622.44 4.11637 0.250828 0
M  V30 6373 H 621.781 0.63171 -0.204544 0
M  V30 6374 H 624.311 1.66145 -1.19402 0
M  V30 6375 H 624.321 4.03531 -0.602207 0
M  V30 6376 H 622.996 3.78361 -1.72673 0
M  V30 6377 H 621.573 3.72755 0.103873 0
M  V30 6378 N 623.758 0.647228 1.43697 0
M  V30 6379 C 625.004 0.167001 2.02713 0
M  V30 6380 C 625.359 -1.20351 1.50111 0
M  V30 6381 O 624.652 -1.79047 0.682113 0
M  V30 6382 C 624.846 0.111481 3.57226 0
M  V30 6383 C 624.675 1.47507 4.2482 0
M  V30 6384 C 623.445 2.06594 4.61137 0
M  V30 6385 C 625.643 2.41224 4.54219 0
M  V30 6386 N 623.625 3.3602 5.13774 0
M  V30 6387 C 624.996 3.55278 5.08112 0
M  V30 6388 C 627.051 2.40102 4.36183 0
M  V30 6389 C 625.754 4.68426 5.45866 0
M  V30 6390 C 627.78 3.52326 4.74995 0
M  V30 6391 C 627.142 4.65104 5.29015 0
M  V30 6392 H 623.241 0.105402 0.774864 0
M  V30 6393 H 625.825 0.854229 1.7496 0
M  V30 6394 H 623.996 -0.545073 3.84556 0
M  V30 6395 H 625.728 -0.379063 4.02921 0
M  V30 6396 H 622.483 1.59366 4.45981 0
M  V30 6397 H 622.907 4.02233 5.44552 0
M  V30 6398 H 627.549 1.54151 3.93697 0
M  V30 6399 H 625.267 5.55074 5.87298 0
M  V30 6400 H 628.853 3.52652 4.6274 0
M  V30 6401 H 627.733 5.50506 5.58492 0
M  V30 6402 N 625.236 -1.5273 0.388769 0
M  V30 6403 C 626.184 -2.27975 -0.461527 0
M  V30 6404 C 627.178 -1.31854 -1.06352 0
M  V30 6405 O 628.384 -1.49394 -1.00406 0
M  V30 6406 H 624.759 -0.733088 -0.16759 0
M  V30 6407 H 626.73 -2.97765 0.194579 0
M  V30 6408 C 625.479 -3.09881 -1.577 0
M  V30 6409 H 624.802 -3.83701 -1.12309 0
M  V30 6410 H 626.242 -3.6567 -2.14619 0
M  V30 6411 C 624.701 -2.22159 -2.53272 0
M  V30 6412 O 625.231 -1.84802 -3.56667 0
M  V30 6413 N 623.437 -1.8633 -2.23001 0
M  V30 6414 H 622.984 -2.16909 -1.38954 0
M  V30 6415 H 622.942 -1.27927 -2.87197 0
M  V30 6416 N 626.714 -0.118576 -1.57153 0
M  V30 6417 C 627.942 0.54726 -1.99531 0
M  V30 6418 C 628.357 1.60251 -0.998246 0
M  V30 6419 O 627.714 1.82498 0.00893106 0
M  V30 6420 C 627.765 1.17378 -3.41913 0
M  V30 6421 O 627.486 0.160703 -4.37805 0
M  V30 6422 C 628.987 1.92297 -3.9942 0
M  V30 6423 H 626.207 0.144919 -0.655164 0
M  V30 6424 H 628.751 -0.20479 -2.03472 0
M  V30 6425 H 626.906 1.87661 -3.38913 0
M  V30 6426 H 627.32 0.61586 -5.20872 0
M  V30 6427 H 628.794 2.31462 -5.01128 0
M  V30 6428 H 629.271 2.79801 -3.38538 0
M  V30 6429 H 629.877 1.26777 -4.05965 0
M  V30 6430 N 628.193 1.56834 0.155195 0
M  V30 6431 C 629.439 1.83169 0.870467 0
M  V30 6432 C 629.772 0.698929 1.81187 0
M  V30 6433 O 629.047 -0.298035 1.92203 0
M  V30 6434 C 629.33 3.19965 1.65211 0
M  V30 6435 C 629.183 4.43792 0.732744 0
M  V30 6436 C 630.502 3.53885 2.61636 0
M  V30 6437 H 627.621 0.666288 0.315006 0
M  V30 6438 H 630.263 1.89513 0.135988 0
M  V30 6439 H 628.413 3.14687 2.27825 0
M  V30 6440 H 630.085 4.61148 0.118236 0
M  V30 6441 H 628.328 4.3378 0.0417906 0
M  V30 6442 H 628.999 5.36095 1.31552 0
M  V30 6443 H 631.475 3.5972 2.09143 0
M  V30 6444 H 630.351 4.50648 3.13381 0
M  V30 6445 H 630.612 2.79418 3.42605 0
M  V30 6446 N 629.671 -0.424282 1.51781 0
M  V30 6447 C 630.581 -1.54087 1.76902 0
M  V30 6448 C 631.597 -1.61249 0.653826 0
M  V30 6449 O 632.773 -1.78247 0.937552 0
M  V30 6450 C 629.838 -2.8996 1.90063 0
M  V30 6451 C 628.899 -2.92809 3.13945 0
M  V30 6452 C 628.132 -4.22201 3.26469 0
M  V30 6453 O 628.355 -5.15286 2.44616 0
M  V30 6454 O 627.289 -4.31599 4.1953 0
M  V30 6455 H 631.115 -1.358 2.71647 0
M  V30 6456 H 628.7 -0.608618 1.36441 0
M  V30 6457 H 630.582 -3.70575 2.0063 0
M  V30 6458 H 629.257 -3.08347 0.985067 0
M  V30 6459 H 628.164 -2.11102 3.08847 0
M  V30 6460 H 629.497 -2.79369 4.05233 0
M  V30 6461 N 631.149 -1.42148 -0.680565 0
M  V30 6462 C 632.426 -1.32795 -1.43614 0
M  V30 6463 C 632.806 0.037415 -2.11067 0
M  V30 6464 O 632.154 1.05258 -2.02813 0
M  V30 6465 C 632.364 -2.49206 -2.44331 0
M  V30 6466 C 633.712 -2.91059 -3.09144 0
M  V30 6467 O 634.736 -2.49054 -2.54657 0
M  V30 6468 O 633.595 -3.63741 -4.07866 0
M  V30 6469 H 630.689 -0.523397 -0.640301 0
M  V30 6470 H 633.235 -1.54144 -0.709775 0
M  V30 6471 H 632.007 -3.40252 -1.93247 0
M  V30 6472 H 631.63 -2.29813 -3.24456 0
M  V30 6473 N 632.627 0.916307 -1.28225 0
M  V30 6474 C 633.852 1.7043 -1.18188 0
M  V30 6475 C 634.277 1.86346 0.256274 0
M  V30 6476 O 633.635 1.37175 1.18544 0
M  V30 6477 C 633.683 3.07546 -1.88275 0
M  V30 6478 O 632.787 3.94904 -1.18848 0
M  V30 6479 H 632.128 0.521967 -0.410423 0
M  V30 6480 H 634.658 1.14589 -1.69501 0
M  V30 6481 H 634.668 3.57793 -1.96082 0
M  V30 6482 H 633.343 2.95279 -2.92887 0
M  V30 6483 H 631.92 3.53339 -1.19187 0
M  V30 6484 N 634.105 1.10431 1.1244 0
M  V30 6485 C 635.354 0.841539 1.83306 0
M  V30 6486 C 635.667 -0.634961 1.85007 0
M  V30 6487 O 636.873 -1.01363 2.51869 0
M  V30 6488 C 635.329 1.45565 3.29149 0
M  V30 6489 C 634.937 2.96544 3.35806 0
M  V30 6490 C 636.681 1.27227 4.04986 0
M  V30 6491 C 634.588 3.5099 4.75983 0
M  V30 6492 H 633.518 0.311156 0.686803 0
M  V30 6493 H 636.169 1.32829 1.26604 0
M  V30 6494 H 634.551 0.896574 3.85717 0
M  V30 6495 H 635.725 3.58766 2.89177 0
M  V30 6496 H 634.04 3.14036 2.73442 0
M  V30 6497 H 636.637 1.65348 5.08492 0
M  V30 6498 H 636.98 0.213834 4.1575 0
M  V30 6499 H 637.513 1.79941 3.54776 0
M  V30 6500 H 634.252 4.56499 4.70413 0
M  V30 6501 H 633.772 2.93535 5.23065 0
M  V30 6502 H 635.451 3.48808 5.44924 0
M  V30 6503 N 635.583 -1.29855 0.893053 0
M  V30 6504 C 636.832 -1.95104 0.511597 0
M  V30 6505 C 637.145 -1.71226 -0.945567 0
M  V30 6506 O 638.351 -2.30525 -1.43424 0
M  V30 6507 C 636.807 -3.49374 0.864034 0
M  V30 6508 C 636.415 -3.82061 2.33952 0
M  V30 6509 C 638.159 -4.20894 0.552167 0
M  V30 6510 C 636.066 -5.29546 2.63316 0
M  V30 6511 H 634.996 -0.73029 0.187597 0
M  V30 6512 H 637.647 -1.47682 1.08914 0
M  V30 6513 H 636.029 -3.95413 0.215493 0
M  V30 6514 H 637.203 -3.46904 3.03305 0
M  V30 6515 H 635.518 -3.23665 2.61973 0
M  V30 6516 H 638.115 -5.29435 0.748489 0
M  V30 6517 H 638.458 -4.13178 -0.508924 0
M  V30 6518 H 638.991 -3.80564 1.15825 0
M  V30 6519 H 635.73 -5.4232 3.68197 0
M  V30 6520 H 635.25 -5.65974 1.9858 0
M  V30 6521 H 636.929 -5.97068 2.49236 0
M  V30 6522 N 637.061 -0.65484 -1.43351 0
M  V30 6523 C 638.477 -0.32255 -1.56307 0
M  V30 6524 C 638.677 1.17324 -1.63821 0
M  V30 6525 O 637.733 1.95813 -1.59417 0
M  V30 6526 C 639.046 -1.03533 -2.82314 0
M  V30 6527 C 640.594 -1.01574 -2.9606 0
M  V30 6528 C 641.069 -1.70945 -4.24902 0
M  V30 6529 N 642.56 -1.67716 -4.3177 0
M  V30 6530 C 643.295 -2.18265 -5.30234 0
M  V30 6531 N 642.791 -2.7711 -6.34966 0
M  V30 6532 N 644.584 -2.08756 -5.21898 0
M  V30 6533 H 636.735 -1.62549 -1.36717 0
M  V30 6534 H 638.998 -0.683676 -0.656727 0
M  V30 6535 H 638.704 -2.09045 -2.8283 0
M  V30 6536 H 638.578 -0.587913 -3.7259 0
M  V30 6537 H 640.965 0.0309834 -2.95084 0
M  V30 6538 H 641.046 -1.50186 -2.07069 0
M  V30 6539 H 640.69 -2.75574 -4.26639 0
M  V30 6540 H 640.62 -1.19797 -5.12793 0
M  V30 6541 H 643.111 -1.24777 -3.56706 0
M  V30 6542 H 643.424 -3.13353 -7.06421 0
M  V30 6543 H 641.769 -2.81171 -6.35585 0
M  V30 6544 H 644.96 -1.62488 -4.38994 0
M  V30 6545 H 645.133 -2.48459 -5.98475 0
M  V30 6546 N 638.539 1.52521 -0.396863 0
M  V30 6547 C 639.767 2.06091 0.18275 0
M  V30 6548 C 640.182 1.26796 1.39886 0
M  V30 6549 O 639.539 0.316585 1.79733 0
M  V30 6550 C 639.59 3.57362 0.545377 0
M  V30 6551 O 639.311 4.33656 -0.622428 0
M  V30 6552 C 640.812 4.27305 1.18004 0
M  V30 6553 H 638.032 0.670504 0.025789 0
M  V30 6554 H 640.576 1.96561 -0.564276 0
M  V30 6555 H 638.731 3.66941 1.2423 0
M  V30 6556 H 639.145 5.23507 -0.322662 0
M  V30 6557 H 640.619 5.34366 1.38408 0
M  V30 6558 H 641.096 3.83 2.1496 0
M  V30 6559 H 641.702 4.22064 0.523671 0
M  V30 6560 N 640.017 0.126909 1.57088 0
M  V30 6561 C 641.265 -0.528123 1.95078 0
M  V30 6562 C 641.586 -1.66708 1.0116 0
M  V30 6563 O 640.856 -1.95777 0.0693527 0
M  V30 6564 H 639.436 -0.198087 0.720257 0
M  V30 6565 H 642.098 0.197703 1.93895 0
M  V30 6566 H 641.194 -0.917507 2.98309 0
M  V30 6567 N 641.495 -1.56914 -0.146875 0
M  V30 6568 C 642.742 -1.83356 -0.859467 0
M  V30 6569 C 643.07 -0.707811 -1.81164 0
M  V30 6570 O 642.325 0.303155 -1.93338 0
M  V30 6571 C 642.624 -3.16128 -1.66727 0
M  V30 6572 C 642.29 -4.42586 -0.861881 0
M  V30 6573 C 640.952 -4.76929 -0.639687 0
M  V30 6574 C 643.304 -5.20344 -0.298643 0
M  V30 6575 C 640.632 -5.86491 0.156451 0
M  V30 6576 C 642.984 -6.30742 0.484536 0
M  V30 6577 C 641.648 -6.63635 0.717306 0
M  V30 6578 H 640.918 -0.670947 -0.314501 0
M  V30 6579 H 643.565 -1.91104 -0.123108 0
M  V30 6580 H 641.87 -3.03831 -2.47374 0
M  V30 6581 H 643.567 -3.33802 -2.2221 0
M  V30 6582 H 640.157 -4.15662 -1.04513 0
M  V30 6583 H 644.341 -4.94186 -0.457585 0
M  V30 6584 H 639.597 -6.10419 0.346292 0
M  V30 6585 H 643.771 -6.90188 0.928105 0
M  V30 6586 H 641.398 -7.48367 1.33607 0
M  V30 6587 N 642.974 0.416227 -1.52004 0
M  V30 6588 C 643.906 1.52552 -1.71058 0
M  V30 6589 C 644.919 1.51693 -0.59102 0
M  V30 6590 O 646.108 1.56087 -0.865973 0
M  V30 6591 C 643.208 2.91455 -1.72937 0
M  V30 6592 C 642.381 3.16584 -3.01816 0
M  V30 6593 C 641.44 4.35322 -2.95603 0
M  V30 6594 O 640.466 4.32947 -3.6952 0
M  V30 6595 N 641.668 5.40049 -2.12903 0
M  V30 6596 H 644.433 1.36604 -2.66757 0
M  V30 6597 H 641.994 0.60544 -1.50153 0
M  V30 6598 H 643.986 3.68944 -1.66321 0
M  V30 6599 H 642.556 3.00895 -0.847418 0
M  V30 6600 H 641.776 2.27203 -3.22137 0
M  V30 6601 H 643.064 3.30213 -3.87088 0
M  V30 6602 H 642.462 5.44823 -1.52265 0
M  V30 6603 H 641.019 6.16308 -2.1215 0
M  V30 6604 N 644.452 1.42507 0.673017 0
M  V30 6605 C 645.7 1.42789 1.43023 0
M  V30 6606 C 646.021 0.0459738 1.94946 0
M  V30 6607 O 645.291 -0.915765 1.73178 0
M  V30 6608 H 643.871 0.525657 0.530748 0
M  V30 6609 H 646.533 1.77944 0.795113 0
M  V30 6610 H 645.629 2.12872 2.28237 0
M  V30 6611 N 645.93 -0.909495 1.28709 0
M  V30 6612 C 646.84 -2.04558 1.14861 0
M  V30 6613 C 647.856 -1.73842 0.0741621 0
M  V30 6614 O 649.032 -1.99383 0.2843 0
M  V30 6615 C 646.097 -3.36957 0.816148 0
M  V30 6616 C 645.158 -3.81255 1.97341 0
M  V30 6617 C 644.391 -5.07335 1.65671 0
M  V30 6618 O 644.614 -5.67514 0.573053 0
M  V30 6619 O 643.548 -5.47449 2.50167 0
M  V30 6620 H 647.374 -2.19161 2.10243 0
M  V30 6621 H 644.959 -1.03159 1.08068 0
M  V30 6622 H 646.841 -4.16436 0.644873 0
M  V30 6623 H 645.516 -3.2352 -0.107983 0
M  V30 6624 H 644.423 -3.02584 2.19986 0
M  V30 6625 H 645.756 -3.99261 2.87839 0
M  V30 6626 N 647.408 -1.11026 -1.11852 0
M  V30 6627 C 648.633 -0.879064 -1.87849 0
M  V30 6628 C 649.058 0.565406 -1.79401 0
M  V30 6629 O 648.416 1.39886 -1.15333 0
M  V30 6630 C 648.464 -1.33985 -3.34784 0
M  V30 6631 O 647.568 -0.508803 -4.09249 0
M  V30 6632 H 646.909 -0.316992 -0.583448 0
M  V30 6633 H 649.439 -1.47863 -1.41413 0
M  V30 6634 H 649.449 -1.33248 -3.85628 0
M  V30 6635 H 648.124 -2.39172 -3.40249 0
M  V30 6636 H 646.701 -0.581913 -3.68332 0
M  V30 6637 N 648.886 1.2938 -0.899927 0
M  V30 6638 C 650.134 1.95164 -0.524924 0
M  V30 6639 C 650.455 1.71292 0.931888 0
M  V30 6640 O 649.725 1.04481 1.65712 0
M  V30 6641 H 648.305 0.722133 -0.191135 0
M  V30 6642 H 650.967 1.57628 -1.14627 0
M  V30 6643 H 650.063 3.0397 -0.707711 0
M  V30 6644 N 650.364 0.662433 1.43002 0
M  V30 6645 C 651.314 -0.0460442 2.27954 0
M  V30 6646 C 652.298 -0.785753 1.40409 0
M  V30 6647 O 653.49 -0.666701 1.63964 0
M  V30 6648 C 650.619 -1.00532 3.2825 0
M  V30 6649 C 649.705 -0.263604 4.2328 0
M  V30 6650 N 650.096 0.724855 5.00579 0
M  V30 6651 C 648.394 -0.503778 4.43146 0
M  V30 6652 C 649.095 1.16594 5.69895 0
M  V30 6653 N 648.071 0.498345 5.41311 0
M  V30 6654 H 651.873 0.712314 2.85137 0
M  V30 6655 H 649.387 0.490469 1.54817 0
M  V30 6656 H 651.384 -1.52775 3.87899 0
M  V30 6657 H 650.044 -1.76364 2.72628 0
M  V30 6658 H 651.055 1.10393 5.05998 0
M  V30 6659 H 647.732 -1.24255 3.98581 0
M  V30 6660 H 649.122 1.98434 6.4193 0
M  V30 6661 N 651.842 -1.52309 0.404946 0
M  V30 6662 C 653.119 -1.94237 -0.230544 0
M  V30 6663 C 653.499 -1.34154 -1.6299 0
M  V30 6664 O 652.847 -0.515713 -2.22604 0
M  V30 6665 C 653.057 -3.48166 -0.241106 0
M  V30 6666 C 654.405 -4.22074 -0.462488 0
M  V30 6667 O 655.429 -3.54754 -0.320644 0
M  V30 6668 O 654.288 -5.41443 -0.741708 0
M  V30 6669 H 651.382 -0.813766 -0.147358 0
M  V30 6670 H 653.928 -1.6333 0.460587 0
M  V30 6671 H 652.7 -3.84269 0.738467 0
M  V30 6672 H 652.323 -3.85422 -0.97651 0
M  V30 6673 N 653.32 -0.135238 -1.57019 0
M  V30 6674 C 654.569 0.518694 -1.94917 0
M  V30 6675 C 654.882 1.66783 -1.0219 0
M  V30 6676 O 656.088 2.38561 -1.29619 0
M  V30 6677 C 654.544 0.974123 -3.46466 0
M  V30 6678 C 654.152 -0.147439 -4.47757 0
M  V30 6679 C 655.896 1.59851 -3.93253 0
M  V30 6680 C 653.803 0.325599 -5.90503 0
M  V30 6681 H 652.733 0.19754 -0.727663 0
M  V30 6682 H 655.384 -0.217698 -1.82204 0
M  V30 6683 H 653.766 1.76542 -3.5447 0
M  V30 6684 H 654.94 -0.924122 -4.51438 0
M  V30 6685 H 653.255 -0.679496 -4.10818 0
M  V30 6686 H 655.852 1.96385 -4.9733 0
M  V30 6687 H 656.195 2.48306 -3.3414 0
M  V30 6688 H 656.728 0.872323 -3.88118 0
M  V30 6689 H 653.467 -0.523295 -6.53408 0
M  V30 6690 H 652.987 1.06841 -5.90208 0
M  V30 6691 H 654.666 0.781498 -6.42263 0
M  V30 6692 N 654.798 1.5699 0.138552 0
M  V30 6693 C 655.745 1.98899 1.17081 0
M  V30 6694 C 656.715 0.857922 1.42228 0
M  V30 6695 O 657.9 1.12065 1.54422 0
M  V30 6696 C 655.04 2.38189 2.4972 0
M  V30 6697 C 654.153 3.64624 2.31674 0
M  V30 6698 C 653.288 3.9298 3.57407 0
M  V30 6699 C 652.327 5.1266 3.34435 0
M  V30 6700 N 651.464 5.36983 4.5232 0
M  V30 6701 H 656.304 2.86881 0.80642 0
M  V30 6702 H 653.841 1.41925 0.386727 0
M  V30 6703 H 655.799 2.59 3.2707 0
M  V30 6704 H 654.429 1.53275 2.84089 0
M  V30 6705 H 653.481 3.51542 1.45337 0
M  V30 6706 H 654.793 4.52131 2.10664 0
M  V30 6707 H 653.947 4.14335 4.43183 0
M  V30 6708 H 652.686 3.03912 3.8143 0
M  V30 6709 H 651.691 4.9117 2.47048 0
M  V30 6710 H 652.916 6.03288 3.11802 0
M  V30 6711 H 650.862 4.50871 4.76499 0
M  V30 6712 H 650.779 6.18775 4.34343 0
M  V30 6713 H 652.047 5.62842 5.39285 0
M  V30 6714 N 656.276 -0.40816 1.52223 0
M  V30 6715 C 657.525 -1.15212 1.65557 0
M  V30 6716 C 657.838 -1.9163 0.392096 0
M  V30 6717 O 659.044 -2.68458 0.405256 0
M  V30 6718 C 657.5 -2.09691 2.92502 0
M  V30 6719 C 657.108 -1.38785 4.25961 0
M  V30 6720 C 658.852 -2.8434 3.152 0
M  V30 6721 C 656.759 -2.31919 5.44029 0
M  V30 6722 H 655.689 -0.433776 0.616729 0
M  V30 6723 H 658.34 -0.4165 1.78711 0
M  V30 6724 H 656.722 -2.8681 2.7305 0
M  V30 6725 H 657.896 -0.670248 4.55899 0
M  V30 6726 H 656.211 -0.761741 4.09373 0
M  V30 6727 H 658.808 -3.54166 4.00587 0
M  V30 6728 H 659.151 -3.47344 2.29473 0
M  V30 6729 H 659.684 -2.14321 3.35129 0
M  V30 6730 H 656.423 -1.7356 6.32105 0
M  V30 6731 H 655.943 -3.0165 5.18428 0
M  V30 6732 H 657.622 -2.92424 5.77146 0
M  V30 6733 N 657.755 -1.42862 -0.66545 0
M  V30 6734 C 658.983 -1.47246 -1.45349 0
M  V30 6735 C 659.398 -0.0865944 -1.88601 0
M  V30 6736 O 658.755 0.900652 -1.58728 0
M  V30 6737 C 658.806 -2.40772 -2.6965 0
M  V30 6738 O 658.527 -3.73968 -2.2821 0
M  V30 6739 C 660.028 -2.54272 -3.63126 0
M  V30 6740 H 657.248 -0.500497 -0.446927 0
M  V30 6741 H 659.792 -1.87477 -0.816871 0
M  V30 6742 H 657.947 -2.0377 -3.29479 0
M  V30 6743 H 658.361 -4.24146 -3.08546 0
M  V30 6744 H 659.835 -3.23815 -4.47043 0
M  V30 6745 H 660.312 -1.58364 -4.09656 0
M  V30 6746 H 660.918 -2.92036 -3.09185 0
M  V30 6747 N 659.233 0.902656 -1.29189 0
M  V30 6748 C 660.196 1.98797 -1.14071 0
M  V30 6749 C 661.196 1.60615 -0.0770549 0
M  V30 6750 O 662.386 1.71165 -0.323753 0
M  V30 6751 C 659.518 3.32688 -0.743739 0
M  V30 6752 H 660.711 2.13637 -2.10473 0
M  V30 6753 H 658.264 1.08678 -1.12334 0
M  V30 6754 H 658.999 3.23549 0.220554 0
M  V30 6755 H 658.784 3.61765 -1.51223 0
M  V30 6756 H 660.274 4.12337 -0.660935 0
M  V30 6757 N 660.711 1.11618 1.11262 0
M  V30 6758 C 661.621 0.78898 2.20935 0
M  V30 6759 C 662.637 -0.21867 1.7262 0
M  V30 6760 O 663.813 -0.0543826 2.01327 0
M  V30 6761 C 660.878 0.239014 3.45875 0
M  V30 6762 C 659.939 1.3055 4.08968 0
M  V30 6763 C 659.172 0.781687 5.27944 0
M  V30 6764 O 659.395 -0.387605 5.69082 0
M  V30 6765 O 658.329 1.54734 5.81671 0
M  V30 6766 H 662.155 1.70477 2.51339 0
M  V30 6767 H 659.74 0.892203 1.19834 0
M  V30 6768 H 661.622 -0.0632312 4.21353 0
M  V30 6769 H 660.297 -0.649454 3.17118 0
M  V30 6770 H 659.204 1.66079 3.35214 0
M  V30 6771 H 660.537 2.16743 4.41909 0
M  V30 6772 N 662.189 -1.289 0.906776 0
M  V30 6773 C 663.137 -2.29477 0.379873 0
M  V30 6774 C 664.131 -1.61068 -0.524747 0
M  V30 6775 O 665.337 -1.75344 -0.406765 0
M  V30 6776 H 661.712 -0.744742 0.10423 0
M  V30 6777 H 663.683 -2.71353 1.24137 0
M  V30 6778 C 662.432 -3.45713 -0.371154 0
M  V30 6779 H 661.755 -3.98551 0.315716 0
M  V30 6780 H 663.195 -4.18105 -0.704581 0
M  V30 6781 C 661.654 -2.9774 -1.57646 0
M  V30 6782 O 662.184 -2.99618 -2.67567 0
M  V30 6783 N 660.39 -2.53485 -1.42105 0
M  V30 6784 H 659.937 -2.52156 -0.526783 0
M  V30 6785 H 659.895 -2.21747 -2.22881 0
M  V30 6786 N 663.667 -0.670007 -1.42649 0
M  V30 6787 C 664.895 -0.19854 -2.05945 0
M  V30 6788 C 665.31 1.14243 -1.50313 0
M  V30 6789 O 664.667 1.70872 -0.641027 0
M  V30 6790 C 664.718 -0.11966 -3.61302 0
M  V30 6791 O 664.439 -1.40764 -4.1487 0
M  V30 6792 C 665.94 0.375878 -4.41704 0
M  V30 6793 H 663.16 -0.0976894 -0.663851 0
M  V30 6794 H 665.704 -0.915392 -1.82868 0
M  V30 6795 H 663.859 0.547851 -3.83507 0
M  V30 6796 H 664.273 -1.27784 -5.08696 0
M  V30 6797 H 665.747 0.379988 -5.50691 0
M  V30 6798 H 666.224 1.41028 -4.15942 0
M  V30 6799 H 666.83 -0.259727 -4.24506 0
M  V30 6800 N 665.145 1.52092 -0.413018 0
M  V30 6801 C 666.556 1.86617 0.0556967 0
M  V30 6802 C 666.907 1.33156 1.44097 0
M  V30 6803 O 666.032 0.672417 2.05688 0
M  V30 6804 C 666.627 3.38628 0.107844 0
M  V30 6805 C 665.186 3.72778 0.520904 0
M  V30 6806 C 664.333 2.75649 -0.302109 0
M  V30 6807 H 667.284 1.45663 -0.629919 0
M  V30 6808 H 667.305 3.69152 0.922324 0
M  V30 6809 H 666.817 3.77508 -0.900506 0
M  V30 6810 H 664.918 3.39478 1.53575 0
M  V30 6811 H 665.031 4.7838 0.262591 0
M  V30 6812 H 663.395 2.53603 0.236115 0
M  V30 6813 H 664.178 3.17369 -1.30888 0
M  V30 6814 N 666.623 0.143563 1.56945 0
M  V30 6815 C 667.553 -0.7936 2.196 0
M  V30 6816 C 668.534 -1.25955 1.14321 0
M  V30 6817 O 669.719 -1.31773 1.42651 0
M  V30 6818 C 666.849 -2.03424 2.81489 0
M  V30 6819 C 665.803 -1.70519 3.92565 0
M  V30 6820 C 665.129 -3.01817 4.41373 0
M  V30 6821 C 666.429 -0.95449 5.13504 0
M  V30 6822 H 668.123 -0.271423 2.98167 0
M  V30 6823 H 665.669 -0.12911 1.4342 0
M  V30 6824 H 667.622 -2.69463 3.23987 0
M  V30 6825 H 666.346 -2.58008 2.00248 0
M  V30 6826 H 665.005 -1.06859 3.5068 0
M  V30 6827 H 664.653 -3.54386 3.56959 0
M  V30 6828 H 664.353 -2.80565 5.16292 0
M  V30 6829 H 665.877 -3.68934 4.86539 0
M  V30 6830 H 667.291 -1.5169 5.52868 0
M  V30 6831 H 665.688 -0.842035 5.94163 0
M  V30 6832 H 666.758 0.0544033 4.84869 0
M  V30 6833 N 668.101 -1.57061 -0.130224 0
M  V30 6834 C 669.512 -1.73539 -0.68856 0
M  V30 6835 C 669.863 -0.760554 -1.80859 0
M  V30 6836 O 668.988 0.0690796 -2.1629 0
M  V30 6837 C 669.583 -3.14666 -1.25581 0
M  V30 6838 C 668.142 -3.32689 -1.76055 0
M  V30 6839 C 667.289 -2.69436 -0.655712 0
M  V30 6840 H 670.24 -1.58412 0.0956002 0
M  V30 6841 H 670.261 -3.15595 -2.12556 0
M  V30 6842 H 669.773 -3.85593 -0.440412 0
M  V30 6843 H 667.874 -2.66786 -2.60108 0
M  V30 6844 H 667.987 -4.4077 -1.87772 0
M  V30 6845 H 666.351 -2.30362 -1.08654 0
M  V30 6846 H 667.134 -3.42979 0.14852 0
M  V30 6847 N 669.579 0.400081 -1.52437 0
M  V30 6848 C 670.828 1.14332 -1.66166 0
M  V30 6849 C 671.141 1.91419 -0.402253 0
M  V30 6850 O 672.347 2.6824 -0.419487 0
M  V30 6851 C 670.803 2.08137 -2.9361 0
M  V30 6852 C 670.411 1.36524 -4.26691 0
M  V30 6853 C 672.155 2.82664 -3.16703 0
M  V30 6854 C 670.062 2.29031 -5.45251 0
M  V30 6855 H 668.992 0.430499 -0.61902 0
M  V30 6856 H 671.643 0.407017 -1.78929 0
M  V30 6857 H 670.025 2.85358 -2.74567 0
M  V30 6858 H 671.199 0.646061 -4.56249 0
M  V30 6859 H 669.514 0.74002 -4.09771 0
M  V30 6860 H 672.111 3.52037 -4.0246 0
M  V30 6861 H 672.454 3.46122 -2.31312 0
M  V30 6862 H 672.987 2.12541 -3.36261 0
M  V30 6863 H 669.726 1.70206 -6.33017 0
M  V30 6864 H 669.246 2.98896 -5.2002 0
M  V30 6865 H 670.925 2.89359 -5.78689 0
M  V30 6866 N 671.057 1.43213 0.657864 0
M  V30 6867 C 672.02 1.47687 1.75275 0
M  V30 6868 C 673.02 0.362179 1.56668 0
M  V30 6869 O 674.21 0.623734 1.62651 0
M  V30 6870 C 671.342 1.32497 3.14098 0
M  V30 6871 H 672.535 2.4519 1.7269 0
M  V30 6872 H 670.088 1.2991 0.869087 0
M  V30 6873 H 670.823 0.359831 3.22298 0
M  V30 6874 H 670.608 2.13299 3.29008 0
M  V30 6875 H 672.098 1.38549 3.93946 0
M  V30 6876 N 672.536 -0.895792 1.29666 0
M  V30 6877 C 673.784 -1.64339 1.17631 0
M  V30 6878 C 674.105 -1.93099 -0.271643 0
M  V30 6879 O 673.375 -1.55981 -1.18518 0
M  V30 6880 H 671.955 -0.609162 0.432354 0
M  V30 6881 H 674.617 -1.07389 1.62646 0
M  V30 6882 H 673.713 -2.59815 1.72924 0
M  V30 6883 N 674.014 -1.12206 -1.10668 0
M  V30 6884 C 675.26 -0.877172 -1.82848 0
M  V30 6885 C 675.593 0.595571 -1.84842 0
M  V30 6886 O 674.868 1.44013 -1.30731 0
M  V30 6887 C 675.151 -1.44957 -3.29635 0
M  V30 6888 C 675.004 -2.99051 -3.35989 0
M  V30 6889 C 676.323 -1.10714 -4.25946 0
M  V30 6890 H 673.442 -0.320103 -0.663854 0
M  V30 6891 H 676.084 -1.38827 -1.2972 0
M  V30 6892 H 674.234 -1.01488 -3.7501 0
M  V30 6893 H 675.906 -3.51182 -2.99113 0
M  V30 6894 H 674.149 -3.34705 -2.75962 0
M  V30 6895 H 674.82 -3.34194 -4.39339 0
M  V30 6896 H 677.296 -1.48254 -3.88793 0
M  V30 6897 H 676.172 -1.5343 -5.2702 0
M  V30 6898 H 676.433 -0.019 -4.42096 0
M  V30 6899 N 675.492 1.28418 -0.913599 0
M  V30 6900 C 676.422 2.29713 -0.418847 0
M  V30 6901 C 677.403 1.62165 0.513469 0
M  V30 6902 O 678.588 1.89576 0.421235 0
M  V30 6903 C 675.718 3.45612 0.342042 0
M  V30 6904 C 674.672 4.25056 -0.501123 0
M  V30 6905 C 673.998 5.3329 0.388097 0
M  V30 6906 C 675.298 4.91814 -1.75831 0
M  V30 6907 H 676.992 2.71346 -1.26538 0
M  V30 6908 H 674.538 1.30446 -0.609903 0
M  V30 6909 H 676.491 4.15562 0.699 0
M  V30 6910 H 675.215 3.02858 1.22248 0
M  V30 6911 H 673.874 3.56833 -0.840598 0
M  V30 6912 H 673.522 4.8678 1.26707 0
M  V30 6913 H 673.222 5.87347 -0.172459 0
M  V30 6914 H 674.746 6.06088 0.74094 0
M  V30 6915 H 676.16 5.54126 -1.47026 0
M  V30 6916 H 674.557 5.55866 -2.26126 0
M  V30 6917 H 675.627 4.16313 -2.4862 0
M  V30 6918 N 676.97 0.677563 1.42291 0
M  V30 6919 C 677.9 0.014968 2.33495 0
M  V30 6920 C 678.881 -0.786376 1.50831 0
M  V30 6921 O 680.066 -0.742975 1.79426 0
M  V30 6922 C 677.196 -0.935023 3.34477 0
M  V30 6923 C 676.15 -0.242074 4.27315 0
M  V30 6924 C 675.476 -1.30519 5.18526 0
M  V30 6925 C 676.776 0.880604 5.14823 0
M  V30 6926 H 678.47 0.776671 2.89151 0
M  V30 6927 H 676.016 0.37494 1.39033 0
M  V30 6928 H 677.969 -1.40766 3.97194 0
M  V30 6929 H 676.693 -1.72818 2.77131 0
M  V30 6930 H 675.352 0.210351 3.65996 0
M  V30 6931 H 675 -2.09041 4.57505 0
M  V30 6932 H 674.7 -0.846652 5.81468 0
M  V30 6933 H 676.224 -1.7787 5.84119 0
M  V30 6934 H 677.638 0.489062 5.7121 0
M  V30 6935 H 676.035 1.26511 5.86613 0
M  V30 6936 H 677.105 1.72818 4.53059 0
M  V30 6937 N 678.448 -1.51871 0.421078 0
M  V30 6938 C 679.859 -1.86644 -0.0457991 0
M  V30 6939 C 680.21 -1.33919 -1.43388 0
M  V30 6940 O 679.335 -0.683316 -2.05328 0
M  V30 6941 C 679.93 -3.38681 -0.0898844 0
M  V30 6942 C 678.489 -3.73049 -0.501127 0
M  V30 6943 C 677.636 -2.75485 0.316723 0
M  V30 6944 H 680.587 -1.45327 0.637635 0
M  V30 6945 H 680.608 -3.69636 -0.902734 0
M  V30 6946 H 680.12 -3.77025 0.920513 0
M  V30 6947 H 678.221 -3.40288 -1.51773 0
M  V30 6948 H 678.334 -4.78512 -0.237217 0
M  V30 6949 H 676.698 -2.53725 -0.222663 0
M  V30 6950 H 677.481 -3.16671 1.32569 0
M  V30 6951 N 679.926 -0.151884 -1.56866 0
M  V30 6952 C 681.154 0.504813 -2.00647 0
M  V30 6953 C 681.569 1.58098 -1.03201 0
M  V30 6954 O 680.926 1.82476 -0.0297814 0
M  V30 6955 C 680.977 1.10099 -3.44326 0
M  V30 6956 O 680.698 0.0678021 -4.38048 0
M  V30 6957 C 682.199 1.83782 -4.03409 0
M  V30 6958 H 679.419 0.130989 -0.65809 0
M  V30 6959 H 681.963 -0.247903 -2.02992 0
M  V30 6960 H 680.118 1.8043 -3.42817 0
M  V30 6961 H 680.532 0.505237 -5.22061 0
M  V30 6962 H 682.006 2.2078 -5.05925 0
M  V30 6963 H 682.483 2.72557 -3.44397 0
M  V30 6964 H 683.089 1.18138 -4.08563 0
M  V30 6965 N 681.404 1.57128 0.121893 0
M  V30 6966 C 682.653 1.83888 0.828748 0
M  V30 6967 C 682.966 0.737087 1.81181 0
M  V30 6968 O 684.172 0.891007 2.56463 0
M  V30 6969 C 682.628 3.26014 1.52455 0
M  V30 6970 C 682.236 4.44195 0.58263 0
M  V30 6971 C 683.98 3.62025 2.21671 0
M  V30 6972 C 681.887 5.77349 1.28149 0
M  V30 6973 H 680.817 0.685856 0.313238 0
M  V30 6974 H 683.468 1.83319 0.0814851 0
M  V30 6975 H 681.85 3.21044 2.31834 0
M  V30 6976 H 683.024 4.60457 -0.177729 0
M  V30 6977 H 681.339 4.164 -0.00241228 0
M  V30 6978 H 683.936 4.58776 2.74643 0
M  V30 6979 H 684.279 2.89315 2.99337 0
M  V30 6980 H 684.812 3.68767 1.49184 0
M  V30 6981 H 681.551 6.53221 0.546189 0
M  V30 6982 H 681.071 5.64978 2.01394 0
M  V30 6983 H 682.75 6.21006 1.81549 0
M  V30 6984 N 682.882 -0.391992 1.52647 0
M  V30 6985 C 684.293 -0.970064 1.5952 0
M  V30 6986 C 684.644 -1.91059 0.446207 0
M  V30 6987 O 683.769 -2.12062 -0.431125 0
M  V30 6988 C 684.364 -1.76614 2.89125 0
M  V30 6989 C 682.923 -2.29396 2.9842 0
M  V30 6990 C 682.07 -1.09864 2.54608 0
M  V30 6991 H 685.021 -0.171638 1.57769 0
M  V30 6992 H 685.042 -2.62511 2.75442 0
M  V30 6993 H 684.554 -1.08135 3.72731 0
M  V30 6994 H 682.655 -3.01196 2.19344 0
M  V30 6995 H 682.768 -2.59088 4.03002 0
M  V30 6996 H 681.132 -1.45777 2.08857 0
M  V30 6997 H 681.915 -0.429249 3.40606 0
M  V30 6998 N 684.36 -1.4356 -0.65026 0
M  V30 6999 C 685.608 -1.45046 -1.40734 0
M  V30 7000 C 685.929 -0.0769822 -1.94848 0
M  V30 7001 O 685.199 0.888098 -1.74613 0
M  V30 7002 H 683.779 -0.534034 -0.522318 0
M  V30 7003 H 686.441 -1.79186 -0.766703 0
M  V30 7004 H 685.537 -2.16476 -2.24822 0
M  V30 7005 N 685.838 0.888903 -1.30139 0
M  V30 7006 C 686.785 1.99422 -1.16188 0
M  V30 7007 C 687.755 1.66017 -0.0523869 0
M  V30 7008 O 688.94 1.89506 -0.221864 0
M  V30 7009 C 686.08 3.34325 -0.855612 0
M  V30 7010 C 685.193 3.80445 -2.0466 0
M  V30 7011 C 684.328 5.03975 -1.67876 0
M  V30 7012 C 683.367 5.42492 -2.83493 0
M  V30 7013 N 682.504 6.57206 -2.47032 0
M  V30 7014 H 687.344 2.10687 -2.10749 0
M  V30 7015 H 684.881 1.03165 -1.04859 0
M  V30 7016 H 686.839 4.11968 -0.658681 0
M  V30 7017 H 685.469 3.22756 0.0531155 0
M  V30 7018 H 684.521 2.98745 -2.3549 0
M  V30 7019 H 685.833 4.04933 -2.91257 0
M  V30 7020 H 684.987 5.89232 -1.44535 0
M  V30 7021 H 683.726 4.8135 -0.784431 0
M  V30 7022 H 682.731 4.55764 -3.07505 0
M  V30 7023 H 683.956 5.67093 -3.73607 0
M  V30 7024 H 681.902 6.36164 -1.601 0
M  V30 7025 H 681.819 6.81543 -3.27161 0
M  V30 7026 H 683.087 7.45704 -2.27038 0
M  V30 7027 N 687.317 1.12792 1.10072 0
M  V30 7028 C 688.247 0.821688 2.18565 0
M  V30 7029 C 689.228 -0.21612 1.68721 0
M  V30 7030 O 690.413 -0.0764932 1.94049 0
M  V30 7031 C 687.543 0.279624 3.46172 0
M  V30 7032 C 686.497 1.25092 4.09312 0
M  V30 7033 C 685.823 0.568916 5.31665 0
M  V30 7034 C 687.123 2.60699 4.52585 0
M  V30 7035 H 688.817 1.72888 2.44438 0
M  V30 7036 H 686.363 0.832702 1.17482 0
M  V30 7037 H 688.316 0.053099 4.21367 0
M  V30 7038 H 687.04 -0.662929 3.19801 0
M  V30 7039 H 685.699 1.46332 3.36129 0
M  V30 7040 H 685.347 -0.378898 5.01571 0
M  V30 7041 H 685.047 1.21687 5.74862 0
M  V30 7042 H 686.571 0.351517 6.09587 0
M  V30 7043 H 687.985 2.43465 5.19035 0
M  V30 7044 H 686.382 3.21608 5.06644 0
M  V30 7045 H 687.452 3.1886 3.65317 0
M  V30 7046 N 688.795 -1.27931 0.920396 0
M  V30 7047 C 690.072 -1.89728 0.475687 0
M  V30 7048 C 690.452 -1.8337 -1.04588 0
M  V30 7049 O 689.8 -1.27404 -1.89685 0
M  V30 7050 C 690.01 -3.33959 1.01354 0
M  V30 7051 C 691.358 -4.10907 1.06963 0
M  V30 7052 O 692.382 -3.42945 0.962646 0
M  V30 7053 O 691.241 -5.32399 1.23343 0
M  V30 7054 H 688.335 -0.81294 0.151845 0
M  V30 7055 H 690.881 -1.36252 1.01161 0
M  V30 7056 H 689.653 -3.32843 2.05746 0
M  V30 7057 H 689.276 -3.94944 0.458829 0
M  V30 7058 N 690.273 -0.685099 -1.4193 0
M  V30 7059 C 691.519 -0.211971 -2.01689 0
M  V30 7060 C 691.852 1.18189 -1.54094 0
M  V30 7061 O 691.127 1.79559 -0.747572 0
M  V30 7062 C 691.41 -0.258019 -3.59174 0
M  V30 7063 C 691.263 -1.68807 -4.16922 0
M  V30 7064 C 692.582 0.388044 -4.38386 0
M  V30 7065 H 689.701 -0.0784987 -0.732808 0
M  V30 7066 H 692.343 -0.871837 -1.68816 0
M  V30 7067 H 690.493 0.303832 -3.8731 0
M  V30 7068 H 692.165 -2.30296 -3.99702 0
M  V30 7069 H 690.408 -2.22553 -3.72361 0
M  V30 7070 H 691.079 -1.6719 -5.26072 0
M  V30 7071 H 693.555 -0.0903432 -4.16002 0
M  V30 7072 H 692.431 0.325232 -5.47936 0
M  V30 7073 H 692.692 1.4672 -4.17044 0
M  V30 7074 N 691.751 1.51645 -0.429126 0
M  V30 7075 C 692.699 2.29119 0.400921 0
M  V30 7076 C 693.693 1.34628 1.02819 0
M  V30 7077 O 694.899 1.52004 0.964098 0
M  V30 7078 H 691.274 0.737273 0.148095 0
M  V30 7079 H 693.245 2.97144 -0.273457 0
M  V30 7080 C 691.994 3.13953 1.49429 0
M  V30 7081 H 691.317 3.86544 1.02097 0
M  V30 7082 H 692.757 3.71232 2.04849 0
M  V30 7083 C 691.216 2.28796 2.47293 0
M  V30 7084 O 691.746 1.94193 3.51642 0
M  V30 7085 N 689.952 1.92177 2.17982 0
M  V30 7086 H 689.499 2.20517 1.33154 0
M  V30 7087 H 689.457 1.35497 2.83704 0
M  V30 7088 N 693.229 0.160201 1.56784 0
M  V30 7089 C 694.176 -0.774416 2.1742 0
M  V30 7090 C 695.146 -1.23483 1.11091 0
M  V30 7091 O 696.331 -1.30499 1.39193 0
M  V30 7092 C 693.471 -2.00283 2.81035 0
M  V30 7093 C 692.584 -1.58701 4.01793 0
M  V30 7094 C 691.719 -2.76824 4.53367 0
M  V30 7095 C 690.758 -2.31679 5.66561 0
M  V30 7096 N 689.895 -3.42856 6.12694 0
M  V30 7097 H 694.735 -0.250542 2.96945 0
M  V30 7098 H 692.272 -0.111943 1.46673 0
M  V30 7099 H 694.23 -2.72316 3.16069 0
M  V30 7100 H 692.86 -2.5006 2.04132 0
M  V30 7101 H 691.912 -0.76384 3.72652 0
M  V30 7102 H 693.224 -1.21555 4.83762 0
M  V30 7103 H 692.378 -3.57029 4.90525 0
M  V30 7104 H 691.117 -3.17223 3.70433 0
M  V30 7105 H 690.122 -1.49917 5.28966 0
M  V30 7106 H 691.347 -1.9235 6.5129 0
M  V30 7107 H 689.293 -3.82852 5.32692 0
M  V30 7108 H 689.21 -3.09767 6.89624 0
M  V30 7109 H 690.478 -4.23379 6.545 0
M  V30 7110 N 694.707 -1.5719 -0.113559 0
M  V30 7111 C 695.932 -1.89702 -0.838336 0
M  V30 7112 C 696.357 -0.752679 -1.72384 0
M  V30 7113 O 695.715 0.296575 -1.78858 0
M  V30 7114 C 695.763 -3.20989 -1.64312 0
M  V30 7115 O 694.867 -3.07278 -2.75053 0
M  V30 7116 H 694.208 -0.622339 -0.231496 0
M  V30 7117 H 696.738 -2.04382 -0.0943228 0
M  V30 7118 H 696.748 -3.53843 -2.03123 0
M  V30 7119 H 695.423 -4.03869 -0.993119 0
M  V30 7120 H 694 -2.85901 -2.39406 0
M  V30 7121 N 696.185 0.383891 -1.52853 0
M  V30 7122 C 697.132 1.46924 -1.77995 0
M  V30 7123 C 698.102 1.53958 -0.623396 0
M  V30 7124 O 699.287 1.70134 -0.863657 0
M  V30 7125 C 696.427 2.84093 -1.95921 0
M  V30 7126 C 695.54 2.86171 -3.23621 0
M  V30 7127 C 694.675 4.14799 -3.31836 0
M  V30 7128 C 693.714 4.10948 -4.53639 0
M  V30 7129 N 692.851 5.31192 -4.59107 0
M  V30 7130 H 697.691 1.24786 -2.70615 0
M  V30 7131 H 695.228 0.605265 -1.34071 0
M  V30 7132 H 697.186 3.63755 -2.04299 0
M  V30 7133 H 695.816 3.04671 -1.06656 0
M  V30 7134 H 694.868 1.9885 -3.24288 0
M  V30 7135 H 696.18 2.79194 -4.13343 0
M  V30 7136 H 695.334 5.02867 -3.39425 0
M  V30 7137 H 694.073 4.24505 -2.40097 0
M  V30 7138 H 693.078 3.21268 -4.46169 0
M  V30 7139 H 694.303 4.0286 -5.467 0
M  V30 7140 H 692.249 5.41518 -3.70262 0
M  V30 7141 H 692.166 5.26311 -5.42708 0
M  V30 7142 H 693.434 6.21143 -4.70958 0
M  V30 7143 N 697.663 1.43903 0.642637 0
M  V30 7144 C 698.891 1.4954 1.42988 0
M  V30 7145 C 699.306 0.116588 1.8844 0
M  V30 7146 O 698.663 -0.875285 1.60141 0
M  V30 7147 C 698.714 2.45031 2.65785 0
M  V30 7148 O 698.435 3.77551 2.22232 0
M  V30 7149 C 699.936 2.60017 3.59035 0
M  V30 7150 H 697.156 0.507544 0.438907 0
M  V30 7151 H 699.7 1.88752 0.786942 0
M  V30 7152 H 697.855 2.08985 3.26196 0
M  V30 7153 H 698.269 4.29001 3.01759 0
M  V30 7154 H 699.743 3.30887 4.41835 0
M  V30 7155 H 700.22 1.64861 4.07084 0
M  V30 7156 H 700.826 2.96918 3.045 0
M  V30 7157 N 699.141 -0.881989 1.30609 0
M  V30 7158 C 700.091 -1.97539 1.13852 0
M  V30 7159 C 701.075 -1.60813 0.0528428 0
M  V30 7160 O 702.267 -1.74827 0.276484 0
M  V30 7161 C 699.396 -3.32977 0.835519 0
M  V30 7162 C 698.482 -3.76008 1.96159 0
M  V30 7163 N 698.873 -3.91109 3.20729 0
M  V30 7164 C 697.171 -4.05427 1.85863 0
M  V30 7165 C 697.872 -4.27661 3.94311 0
M  V30 7166 N 696.848 -4.37686 3.22385 0
M  V30 7167 H 700.65 -2.07309 2.08327 0
M  V30 7168 H 698.164 -1.072 1.21992 0
M  V30 7169 H 700.161 -4.11041 0.696477 0
M  V30 7170 H 698.821 -3.24542 -0.101135 0
M  V30 7171 H 699.832 -3.7616 3.55984 0
M  V30 7172 H 696.509 -4.05449 0.995847 0
M  V30 7173 H 697.899 -4.47042 5.01601 0
M  V30 7174 N 700.619 -1.13374 -1.09472 0
M  V30 7175 C 701.868 -0.889844 -1.8101 0
M  V30 7176 C 702.181 0.585686 -1.86625 0
M  V30 7177 O 703.387 0.946497 -2.54467 0
M  V30 7178 C 701.843 -1.54241 -3.25174 0
M  V30 7179 C 701.451 -3.05343 -3.27826 0
M  V30 7180 C 703.195 -1.37919 -4.0147 0
M  V30 7181 C 701.102 -3.63486 -4.6651 0
M  V30 7182 H 700.032 -0.329256 -0.678311 0
M  V30 7183 H 702.683 -1.36139 -1.23038 0
M  V30 7184 H 701.065 -0.998525 -3.83204 0
M  V30 7185 H 702.239 -3.66307 -2.79563 0
M  V30 7186 H 700.554 -3.21175 -2.65019 0
M  V30 7187 H 703.151 -1.78771 -5.03929 0
M  V30 7188 H 703.494 -0.323987 -4.15037 0
M  V30 7189 H 704.027 -1.89284 -3.49881 0
M  V30 7190 H 700.766 -4.68811 -4.58145 0
M  V30 7191 H 700.286 -3.073 -5.15099 0
M  V30 7192 H 701.965 -3.63134 -5.35484 0
M  V30 7193 N 702.098 1.27442 -0.927168 0
M  V30 7194 C 703.323 1.99036 -0.583042 0
M  V30 7195 C 703.748 1.68711 0.83176 0
M  V30 7196 O 703.106 0.927081 1.55804 0
M  V30 7197 C 703.154 3.51271 -0.814925 0
M  V30 7198 O 702.258 4.12226 0.119742 0
M  V30 7199 H 701.599 0.624883 -0.224538 0
M  V30 7200 H 704.129 1.62263 -1.24628 0
M  V30 7201 H 704.139 4.01411 -0.730282 0
M  V30 7202 H 702.814 3.72676 -1.84623 0
M  V30 7203 H 701.391 3.72897 -0.0147688 0
M  V30 7204 N 703.576 0.692616 1.41565 0
M  V30 7205 C 704.822 0.222664 2.01574 0
M  V30 7206 C 705.155 -1.1737 1.54719 0
M  V30 7207 O 704.43 -1.79161 0.757084 0
M  V30 7208 C 704.713 0.277064 3.59033 0
M  V30 7209 C 704.566 1.71016 4.16021 0
M  V30 7210 C 705.885 -0.36479 4.38586 0
M  V30 7211 H 703.004 0.0823839 0.732381 0
M  V30 7212 H 705.646 0.880778 1.68352 0
M  V30 7213 H 703.796 -0.283288 3.87466 0
M  V30 7214 H 705.468 2.32413 3.98475 0
M  V30 7215 H 703.711 2.24525 3.71175 0
M  V30 7216 H 704.382 1.69978 5.25178 0
M  V30 7217 H 706.858 0.112404 4.15948 0
M  V30 7218 H 705.734 -0.296169 5.481 0
M  V30 7219 H 705.995 -1.44506 4.17816 0
M  V30 7220 N 705.054 -1.51416 0.437162 0
M  V30 7221 C 706.002 -2.29328 -0.388765 0
M  V30 7222 C 706.996 -1.35171 -1.02104 0
M  V30 7223 O 708.202 -1.52513 -0.956024 0
M  V30 7224 H 704.577 -0.738048 -0.144183 0
M  V30 7225 H 706.548 -2.96995 0.289212 0
M  V30 7226 C 705.297 -3.14741 -1.47761 0
M  V30 7227 H 704.62 -3.8708 -1.00045 0
M  V30 7228 H 706.06 -3.72313 -2.02877 0
M  V30 7229 C 704.519 -2.30105 -2.46076 0
M  V30 7230 O 705.049 -1.96055 -3.50607 0
M  V30 7231 N 703.255 -1.93331 -2.1696 0
M  V30 7232 H 702.802 -2.2122 -1.31983 0
M  V30 7233 H 702.76 -1.36999 -2.82982 0
M  V30 7234 N 706.532 -0.168513 -1.56696 0
M  V30 7235 C 707.78 0.476216 -1.96409 0
M  V30 7236 C 708.101 1.63968 -1.05544 0
M  V30 7237 O 707.371 1.95525 -0.121235 0
M  V30 7238 H 705.951 0.178921 -0.725256 0
M  V30 7239 H 708.613 -0.249042 -1.93302 0
M  V30 7240 H 707.709 0.838094 -3.00637 0
M  V30 7241 N 708.01 1.57248 0.105221 0
M  V30 7242 C 709.426 1.52853 0.459153 0
M  V30 7243 C 709.626 0.883674 1.8109 0
M  V30 7244 O 708.682 0.471864 2.48052 0
M  V30 7245 C 709.995 2.97596 0.43096 0
M  V30 7246 C 711.543 3.08758 0.513536 0
M  V30 7247 C 712.018 4.55089 0.515593 0
M  V30 7248 N 713.509 4.59597 0.576639 0
M  V30 7249 C 714.244 5.70253 0.599904 0
M  V30 7250 N 713.74 6.90368 0.579985 0
M  V30 7251 N 715.533 5.58399 0.643953 0
M  V30 7252 H 707.684 1.97547 -0.780306 0
M  V30 7253 H 709.947 0.902758 -0.289363 0
M  V30 7254 H 709.653 3.48201 -0.494903 0
M  V30 7255 H 709.527 3.55756 1.2537 0
M  V30 7256 H 711.914 2.58148 1.42982 0
M  V30 7257 H 711.995 2.53568 -0.337148 0
M  V30 7258 H 711.639 5.06348 -0.396701 0
M  V30 7259 H 711.569 5.08105 1.38335 0
M  V30 7260 H 714.06 3.73144 0.597639 0
M  V30 7261 H 714.373 7.70462 0.600741 0
M  V30 7262 H 712.718 6.92843 0.547191 0
M  V30 7263 H 715.909 4.63467 0.656975 0
M  V30 7264 H 716.082 6.44644 0.658616 0
M  V30 7265 N 709.488 -0.375779 1.53054 0
M  V30 7266 C 710.435 -1.45978 1.78771 0
M  V30 7267 C 711.405 -1.53625 0.631552 0
M  V30 7268 O 712.59 -1.69674 0.872667 0
M  V30 7269 C 709.73 -2.8305 1.97425 0
M  V30 7270 C 708.843 -2.84451 3.25134 0
M  V30 7271 C 707.978 -4.13034 3.34031 0
M  V30 7272 C 707.017 -4.08536 4.55812 0
M  V30 7273 N 706.154 -5.2875 4.61918 0
M  V30 7274 H 710.994 -1.23349 2.71273 0
M  V30 7275 H 708.531 -0.598147 1.3439 0
M  V30 7276 H 710.489 -3.62666 2.06225 0
M  V30 7277 H 709.119 -3.04101 1.0827 0
M  V30 7278 H 708.171 -1.97127 3.25338 0
M  V30 7279 H 709.483 -2.76998 4.14818 0
M  V30 7280 H 708.637 -5.0106 3.42087 0
M  V30 7281 H 707.376 -4.23226 2.42345 0
M  V30 7282 H 706.381 -3.18897 4.47867 0
M  V30 7283 H 707.606 -3.99955 5.48828 0
M  V30 7284 H 705.552 -5.39547 3.73129 0
M  V30 7285 H 705.469 -5.23426 5.45492 0
M  V30 7286 H 706.737 -6.18637 4.74245 0
M  V30 7287 N 710.966 -1.44241 -0.634997 0
M  V30 7288 C 712.215 -1.46102 -1.39058 0
M  V30 7289 C 712.528 -0.0959909 -1.95364 0
M  V30 7290 O 713.734 0.00788751 -2.71499 0
M  V30 7291 C 712.19 -2.57195 -2.51751 0
M  V30 7292 C 711.798 -3.99888 -2.01974 0
M  V30 7293 C 713.542 -2.68272 -3.28984 0
M  V30 7294 C 711.449 -5.02412 -3.11987 0
M  V30 7295 H 710.379 -0.543556 -0.522554 0
M  V30 7296 H 713.03 -1.70294 -0.683538 0
M  V30 7297 H 711.412 -2.26237 -3.25012 0
M  V30 7298 H 712.586 -4.40396 -1.35604 0
M  V30 7299 H 710.901 -3.93019 -1.37568 0
M  V30 7300 H 713.498 -3.42042 -4.10988 0
M  V30 7301 H 713.841 -1.73957 -3.78212 0
M  V30 7302 H 714.374 -2.98622 -2.62812 0
M  V30 7303 H 711.113 -5.98342 -2.67707 0
M  V30 7304 H 710.633 -4.66501 -3.77011 0
M  V30 7305 H 712.312 -5.25939 -3.76825 0
M  V30 7306 N 712.444 0.87505 -1.31075 0
M  V30 7307 C 713.86 1.15997 -1.09622 0
M  V30 7308 C 714.06 2.01036 0.136611 0
M  V30 7309 O 713.116 2.38559 0.827397 0
M  V30 7310 C 714.429 1.85702 -2.36506 0
M  V30 7311 C 715.977 1.98425 -2.42067 0
M  V30 7312 C 716.452 2.71544 -3.68819 0
M  V30 7313 N 717.943 2.79084 -3.69684 0
M  V30 7314 C 718.678 3.36259 -4.64454 0
M  V30 7315 N 718.174 3.94406 -5.69575 0
M  V30 7316 N 719.967 3.34169 -4.51982 0
M  V30 7317 H 712.118 0.308258 -2.10151 0
M  V30 7318 H 714.381 0.199145 -0.926847 0
M  V30 7319 H 714.087 1.30663 -3.26527 0
M  V30 7320 H 713.961 2.86017 -2.45915 0
M  V30 7321 H 716.348 2.5263 -1.52518 0
M  V30 7322 H 716.429 0.971682 -2.36626 0
M  V30 7323 H 716.073 2.18008 -4.58732 0
M  V30 7324 H 716.003 3.73198 -3.71525 0
M  V30 7325 H 718.494 2.3781 -2.93691 0
M  V30 7326 H 718.807 4.36129 -6.37974 0
M  V30 7327 H 717.152 3.92797 -5.73355 0
M  V30 7328 H 720.343 2.87977 -3.69035 0
M  V30 7329 H 720.516 3.78431 -5.26017 0
M  V30 7330 N 713.922 1.13953 1.08869 0
M  V30 7331 C 714.855 0.765765 2.14968 0
M  V30 7332 C 715.833 -0.250689 1.60656 0
M  V30 7333 O 717.017 -0.140852 1.87973 0
M  V30 7334 C 714.144 0.136146 3.38426 0
M  V30 7335 C 713.19 1.12201 4.11477 0
M  V30 7336 S 714.023 2.65711 4.64928 0
M  V30 7337 C 715.179 2.04125 5.91679 0
M  V30 7338 H 715.412 1.66444 2.46341 0
M  V30 7339 H 712.945 0.960263 1.20906 0
M  V30 7340 H 714.903 -0.220712 4.09906 0
M  V30 7341 H 713.564 -0.739887 3.05261 0
M  V30 7342 H 712.757 0.629398 5.00055 0
M  V30 7343 H 712.359 1.42262 3.45886 0
M  V30 7344 H 714.651 1.39381 6.63008 0
M  V30 7345 H 715.594 2.90808 6.45629 0
M  V30 7346 H 716.002 1.4905 5.44467 0
M  V30 7347 N 715.4 -1.26948 0.933913 0
M  V30 7348 C 716.816 -1.46419 0.635103 0
M  V30 7349 C 717.016 -1.84336 -0.813785 0
M  V30 7350 O 716.072 -1.96061 -1.59111 0
M  V30 7351 C 717.385 -2.55206 1.5903 0
M  V30 7352 C 718.933 -2.69062 1.5992 0
M  V30 7353 C 719.408 -3.81013 2.54152 0
M  V30 7354 N 720.899 -3.88395 2.52395 0
M  V30 7355 C 721.634 -4.74454 3.21996 0
M  V30 7356 N 721.13 -5.64954 4.00997 0
M  V30 7357 N 722.923 -4.68237 3.10983 0
M  V30 7358 H 715.074 -1.00622 1.87053 0
M  V30 7359 H 717.337 -0.503189 0.803433 0
M  V30 7360 H 717.043 -2.34153 2.62422 0
M  V30 7361 H 716.917 -3.52719 1.33677 0
M  V30 7362 H 719.304 -2.89492 0.572569 0
M  V30 7363 H 719.385 -1.72016 1.89325 0
M  V30 7364 H 719.029 -3.61336 3.5693 0
M  V30 7365 H 718.959 -4.77499 2.22041 0
M  V30 7366 H 721.45 -3.23687 1.95025 0
M  V30 7367 H 721.763 -6.27496 4.51074 0
M  V30 7368 H 720.108 -5.6473 4.05099 0
M  V30 7369 H 723.299 -3.96535 2.48753 0
M  V30 7370 H 723.472 -5.35087 3.65494 0
M  V30 7371 N 716.879 -0.700114 -1.41195 0
M  V30 7372 C 718.119 -0.237223 -2.03019 0
M  V30 7373 C 718.483 1.14304 -1.54268 0
M  V30 7374 O 719.684 1.70204 -2.08048 0
M  V30 7375 C 717.955 -0.297442 -3.5616 0
M  V30 7376 S 719.514 0.0907367 -4.38706 0
M  V30 7377 H 716.332 -0.0952147 -0.704596 0
M  V30 7378 H 718.934 -0.918901 -1.72559 0
M  V30 7379 H 717.638 -1.30391 -3.89135 0
M  V30 7380 H 717.169 0.403233 -3.91328 0
M  V30 7381 H 719.184 1.31721 -4.78397 0
M  V30 7382 N 718.357 1.51182 -0.445186 0
M  V30 7383 C 719.773 1.59299 -0.0978954 0
M  V30 7384 C 719.973 1.4555 1.39346 0
M  V30 7385 O 719.029 1.30073 2.16419 0
M  V30 7386 C 720.342 2.94133 -0.625005 0
M  V30 7387 C 721.89 3.07463 -0.586137 0
M  V30 7388 C 722.365 4.44832 -1.09035 0
M  V30 7389 N 723.856 4.51173 -1.04867 0
M  V30 7390 C 724.591 5.55804 -1.40959 0
M  V30 7391 N 724.087 6.67816 -1.84375 0
M  V30 7392 N 725.88 5.46205 -1.32726 0
M  V30 7393 H 718.031 1.58363 -1.41544 0
M  V30 7394 H 720.294 0.746946 -0.58376 0
M  V30 7395 H 720 3.09589 -1.66876 0
M  V30 7396 H 719.874 3.77161 -0.0542262 0
M  V30 7397 H 722.261 2.9167 0.448646 0
M  V30 7398 H 722.342 2.26255 -1.19341 0
M  V30 7399 H 721.986 4.61372 -2.12364 0
M  V30 7400 H 721.916 5.24591 -0.459539 0
M  V30 7401 H 724.407 3.70783 -0.729932 0
M  V30 7402 H 724.72 7.43683 -2.10131 0
M  V30 7403 H 723.065 6.69003 -1.88308 0
M  V30 7404 H 726.256 4.57583 -0.986678 0
M  V30 7405 H 726.429 6.27634 -1.61182 0
M  V30 7406 N 719.835 0.176821 1.56605 0
M  V30 7407 C 720.798 -0.737429 2.17013 0
M  V30 7408 C 721.798 -1.15414 1.11965 0
M  V30 7409 O 722.988 -1.0702 1.37449 0
M  V30 7410 C 720.12 -2.00445 2.75744 0
M  V30 7411 H 721.313 -0.211455 2.99154 0
M  V30 7412 H 718.866 -0.0727582 1.56131 0
M  V30 7413 H 719.601 -2.57338 1.97352 0
M  V30 7414 H 719.386 -1.71456 3.52626 0
M  V30 7415 H 720.876 -2.65679 3.22187 0
M  V30 7416 N 721.313 -1.57302 -0.09688 0
M  V30 7417 C 722.562 -1.85183 -0.799388 0
M  V30 7418 C 722.875 -0.765818 -1.79985 0
M  V30 7419 O 724.081 -0.931696 -2.55013 0
M  V30 7420 C 722.537 -3.28399 -1.47249 0
M  V30 7421 C 722.145 -4.45066 -0.511888 0
M  V30 7422 C 723.889 -3.65506 -2.15883 0
M  V30 7423 C 721.796 -5.79315 -1.18948 0
M  V30 7424 H 720.726 -0.690752 -0.302287 0
M  V30 7425 H 723.377 -1.83425 -0.0523104 0
M  V30 7426 H 721.759 -3.24692 -2.26697 0
M  V30 7427 H 722.933 -4.60116 0.250962 0
M  V30 7428 H 721.248 -4.16343 0.0686576 0
M  V30 7429 H 723.845 -4.63087 -2.67309 0
M  V30 7430 H 724.188 -2.94041 -2.94696 0
M  V30 7431 H 724.721 -3.71094 -1.43298 0
M  V30 7432 H 721.46 -6.54007 -0.442198 0
M  V30 7433 H 720.98 -5.68111 -1.9238 0
M  V30 7434 H 722.659 -6.23816 -1.71646 0
M  V30 7435 N 722.791 0.367657 -1.53252 0
M  V30 7436 C 724.068 1.12606 -1.59935 0
M  V30 7437 C 724.448 2.07167 -0.405606 0
M  V30 7438 O 723.796 2.20364 0.604323 0
M  V30 7439 C 724.006 1.86699 -2.94863 0
M  V30 7440 C 725.354 2.41306 -3.49366 0
M  V30 7441 O 726.378 1.96828 -2.96879 0
M  V30 7442 O 725.237 3.2261 -4.41118 0
M  V30 7443 H 722.331 0.516438 -0.645926 0
M  V30 7444 H 724.877 0.371088 -1.65593 0
M  V30 7445 H 723.649 1.17674 -3.73187 0
M  V30 7446 H 723.272 2.6911 -2.92687 0
M  V30 7447 N 724.269 1.44576 0.627338 0
M  V30 7448 C 725.517 1.47267 1.38408 0
M  V30 7449 C 725.838 0.107971 1.94701 0
M  V30 7450 O 725.108 -0.860206 1.76004 0
M  V30 7451 H 723.688 0.542276 0.513756 0
M  V30 7452 H 726.35 1.80383 0.738099 0
M  V30 7453 H 725.446 2.20025 2.21349 0
M  V30 7454 N 725.747 -0.868086 1.31537 0
M  V30 7455 C 727.024 -1.60384 1.11965 0
M  V30 7456 C 727.404 -2.08584 -0.324949 0
M  V30 7457 O 726.752 -1.86561 -1.31937 0
M  V30 7458 C 726.962 -2.76038 2.13551 0
M  V30 7459 C 728.31 -3.45954 2.46173 0
M  V30 7460 O 729.334 -2.86247 2.11993 0
M  V30 7461 O 728.193 -4.53666 3.04711 0
M  V30 7462 H 725.287 -0.705705 0.431172 0
M  V30 7463 H 727.833 -0.913385 1.43022 0
M  V30 7464 H 726.605 -2.37849 3.10714 0
M  V30 7465 H 726.228 -3.52769 1.83411 0
M  V30 7466 N 727.225 -1.14528 -1.08264 0
M  V30 7467 C 728.471 -0.91576 -1.80947 0
M  V30 7468 C 728.804 0.55623 -1.86064 0
M  V30 7469 O 728.079 1.41207 -1.33756 0
M  V30 7470 C 728.362 -1.51917 -3.26486 0
M  V30 7471 C 728.215 -3.06111 -3.2957 0
M  V30 7472 C 729.534 -1.19724 -4.23502 0
M  V30 7473 H 726.653 -0.334113 -0.656915 0
M  V30 7474 H 729.295 -1.41547 -1.26746 0
M  V30 7475 H 727.445 -1.0942 -3.72773 0
M  V30 7476 H 729.117 -3.57448 -2.91597 0
M  V30 7477 H 727.36 -3.40483 -2.688 0
M  V30 7478 H 728.031 -3.43438 -4.32151 0
M  V30 7479 H 730.507 -1.56467 -3.85561 0
M  V30 7480 H 729.383 -1.64575 -5.23647 0
M  V30 7481 H 729.644 -0.112771 -4.41956 0
M  V30 7482 N 728.703 1.26451 -0.940633 0
M  V30 7483 C 729.931 1.97868 -0.604642 0
M  V30 7484 C 730.346 1.70051 0.820251 0
M  V30 7485 O 729.703 0.96843 1.54686 0
M  V30 7486 C 729.754 3.51684 -0.836689 0
M  V30 7487 O 729.475 3.78533 -2.20554 0
M  V30 7488 C 730.976 4.40343 -0.511169 0
M  V30 7489 H 728.196 0.631105 -0.227919 0
M  V30 7490 H 730.74 1.60979 -1.26119 0
M  V30 7491 H 728.895 3.86736 -0.226759 0
M  V30 7492 H 729.309 4.73065 -2.26517 0
M  V30 7493 H 730.783 5.47229 -0.724157 0
M  V30 7494 H 731.26 4.35694 0.553815 0
M  V30 7495 H 731.866 4.10834 -1.0998 0
M  V30 7496 N 730.181 0.707592 1.40822 0
M  V30 7497 C 731.428 0.243671 2.01029 0
M  V30 7498 C 731.756 -1.16057 1.5608 0
M  V30 7499 O 731.011 -1.7999 0.768251 0
M  V30 7500 C 731.31 0.262892 3.56432 0
M  V30 7501 C 730.976 1.61632 4.20935 0
M  V30 7502 C 729.638 1.98682 4.38268 0
M  V30 7503 C 731.99 2.50619 4.5699 0
M  V30 7504 C 729.318 3.2428 4.88937 0
M  V30 7505 C 731.67 3.75562 5.09054 0
M  V30 7506 C 730.334 4.12739 5.24598 0
M  V30 7507 H 729.604 0.0891654 0.735616 0
M  V30 7508 H 732.251 0.909051 1.68548 0
M  V30 7509 H 730.556 -0.486052 3.88773 0
M  V30 7510 H 732.253 -0.113775 4.00839 0
M  V30 7511 H 728.843 1.31818 4.07826 0
M  V30 7512 H 733.027 2.23272 4.43242 0
M  V30 7513 H 728.283 3.53064 4.99155 0
M  V30 7514 H 732.457 4.44692 5.35931 0
M  V30 7515 H 730.084 5.10132 5.63622 0
M  V30 7516 N 731.66 -1.50943 0.453197 0
M  V30 7517 C 732.9 -2.0412 -0.106894 0
M  V30 7518 C 733.264 -1.32895 -1.38575 0
M  V30 7519 O 734.465 -1.76529 -2.02709 0
M  V30 7520 C 732.736 -3.561 -0.304565 0
M  V30 7521 S 734.295 -4.3096 -0.825784 0
M  V30 7522 H 731.113 -0.710581 -0.0243969 0
M  V30 7523 H 733.715 -1.85534 0.616239 0
M  V30 7524 H 732.419 -4.055 0.632277 0
M  V30 7525 H 731.95 -3.79009 -1.05433 0
M  V30 7526 H 733.965 -4.49503 -2.10147 0
M  V30 7527 N 733.138 -0.185124 -1.56509 0
M  V30 7528 C 734.554 0.170865 -1.58683 0
M  V30 7529 C 734.754 1.61799 -1.20098 0
M  V30 7530 O 733.81 2.35181 -0.919038 0
M  V30 7531 C 735.123 -0.122459 -3.00451 0
M  V30 7532 C 736.671 -0.0617699 -3.12939 0
M  V30 7533 C 737.146 -0.328269 -4.56822 0
M  V30 7534 N 738.637 -0.276533 -4.62374 0
M  V30 7535 C 739.372 -0.456722 -5.71578 0
M  V30 7536 N 738.868 -0.69672 -6.89288 0
M  V30 7537 N 740.661 -0.391669 -5.60734 0
M  V30 7538 H 732.812 -1.12956 -1.79874 0
M  V30 7539 H 735.075 -0.45011 -0.834329 0
M  V30 7540 H 734.781 -1.12546 -3.33206 0
M  V30 7541 H 734.655 0.579578 -3.72721 0
M  V30 7542 H 737.042 0.931826 -2.80002 0
M  V30 7543 H 737.123 -0.796732 -2.43076 0
M  V30 7544 H 736.767 -1.31914 -4.9047 0
M  V30 7545 H 736.697 0.427465 -5.24862 0
M  V30 7546 H 739.188 -0.0972458 -3.77775 0
M  V30 7547 H 739.501 -0.823291 -7.68402 0
M  V30 7548 H 737.846 -0.733497 -6.91119 0
M  V30 7549 H 741.037 -0.204663 -4.67652 0
M  V30 7550 H 741.21 -0.535518 -6.45783 0
M  V30 7551 N 734.616 1.57351 0.0885366 0
M  V30 7552 C 736.027 1.75303 0.642308 0
M  V30 7553 C 736.378 0.808238 1.78779 0
M  V30 7554 O 735.503 -0.01171 2.16397 0
M  V30 7555 C 736.098 3.17885 1.17194 0
M  V30 7556 C 734.657 3.37239 1.67172 0
M  V30 7557 C 733.804 2.7108 0.584045 0
M  V30 7558 H 736.755 1.58103 -0.137567 0
M  V30 7559 H 736.776 3.2112 2.04114 0
M  V30 7560 H 736.288 3.86625 0.338024 0
M  V30 7561 H 734.389 2.73588 2.52943 0
M  V30 7562 H 734.502 4.45594 1.76019 0
M  V30 7563 H 732.866 2.33161 1.02508 0
M  V30 7564 H 733.649 3.42464 -0.239403 0
M  V30 7565 N 736.094 -0.359525 1.53444 0
M  V30 7566 C 737.041 -1.44073 1.8031 0
M  V30 7567 C 738.011 -1.52946 0.647811 0
M  V30 7568 O 739.196 -1.68739 0.890614 0
M  V30 7569 C 736.336 -2.80941 2.00416 0
M  V30 7570 C 735.449 -2.80986 3.28132 0
M  V30 7571 C 734.584 -4.09468 3.38393 0
M  V30 7572 C 733.623 -4.03679 4.60119 0
M  V30 7573 N 732.76 -5.23821 4.675 0
M  V30 7574 H 737.6 -1.20464 2.72566 0
M  V30 7575 H 735.137 -0.583859 1.35017 0
M  V30 7576 H 737.095 -3.60459 2.1006 0
M  V30 7577 H 735.725 -3.02936 1.11489 0
M  V30 7578 H 734.777 -1.93666 3.27411 0
M  V30 7579 H 736.089 -2.72583 4.17732 0
M  V30 7580 H 735.243 -4.97404 3.47382 0
M  V30 7581 H 733.982 -4.20632 2.4682 0
M  V30 7582 H 732.987 -3.14129 4.51224 0
M  V30 7583 H 734.212 -3.94112 5.5304 0
M  V30 7584 H 732.158 -5.35559 3.7883 0
M  V30 7585 H 732.075 -5.17611 5.51013 0
M  V30 7586 H 733.343 -6.13572 4.8078 0
M  V30 7587 N 737.572 -1.44907 -0.619662 0
M  V30 7588 C 738.797 -1.52021 -1.41083 0
M  V30 7589 C 739.222 -0.14976 -1.87503 0
M  V30 7590 O 738.58 0.863303 -1.59426 0
M  V30 7591 C 738.628 -2.49911 -2.59955 0
M  V30 7592 O 737.732 -2.00857 -3.60181 0
M  V30 7593 H 737.073 -0.512912 -0.421684 0
M  V30 7594 H 739.603 -1.90149 -0.755282 0
M  V30 7595 H 739.613 -2.68323 -3.07354 0
M  V30 7596 H 738.288 -3.4945 -2.25516 0
M  V30 7597 H 736.865 -1.92265 -3.19513 0
M  V30 7598 N 739.05 0.861098 -1.31996 0
M  V30 7599 C 740.461 1.43065 -1.19955 0
M  V30 7600 C 740.812 1.95273 0.190489 0
M  V30 7601 O 739.937 1.87012 1.08882 0
M  V30 7602 C 740.532 2.60052 -2.1716 0
M  V30 7603 C 739.091 3.13026 -2.09026 0
M  V30 7604 C 738.238 1.85756 -2.05888 0
M  V30 7605 H 741.189 0.668834 -1.43918 0
M  V30 7606 H 741.21 3.37016 -1.76637 0
M  V30 7607 H 740.722 2.22024 -3.18319 0
M  V30 7608 H 738.823 3.55653 -1.11092 0
M  V30 7609 H 738.936 3.74707 -2.98549 0
M  V30 7610 H 737.3 2.05088 -1.51033 0
M  V30 7611 H 738.083 1.49954 -3.08818 0
M  V30 7612 N 740.528 1.15101 1.07655 0
M  V30 7613 C 741.774 0.925343 1.80458 0
M  V30 7614 C 742.107 -0.546354 1.86356 0
M  V30 7615 O 741.382 -1.40496 1.34503 0
M  V30 7616 C 741.665 1.53646 3.25676 0
M  V30 7617 C 741.518 3.07854 3.27942 0
M  V30 7618 C 742.837 1.21968 4.22861 0
M  V30 7619 H 739.956 0.337592 0.655134 0
M  V30 7620 H 742.598 1.42217 1.25993 0
M  V30 7621 H 740.748 1.11395 3.72187 0
M  V30 7622 H 742.42 3.58989 2.89697 0
M  V30 7623 H 740.663 3.41904 2.66991 0
M  V30 7624 H 741.334 3.45725 4.30324 0
M  V30 7625 H 743.81 1.5851 3.84726 0
M  V30 7626 H 742.686 1.67349 5.22767 0
M  V30 7627 H 742.947 0.136207 4.4189 0
M  V30 7628 N 742.006 -1.2595 0.947325 0
M  V30 7629 C 743.236 -1.97258 0.614235 0
M  V30 7630 C 743.644 -1.70682 -0.816355 0
M  V30 7631 O 742.987 -0.97527 -1.55673 0
M  V30 7632 C 743.049 -3.50845 0.784081 0
M  V30 7633 C 742.713 -4.01084 2.19045 0
M  V30 7634 C 743.71 -4.12347 3.16648 0
M  V30 7635 C 741.395 -4.34936 2.51268 0
M  V30 7636 C 743.389 -4.56766 4.44572 0
M  V30 7637 C 741.076 -4.79043 3.79422 0
M  V30 7638 C 742.074 -4.89919 4.75887 0
M  V30 7639 O 741.762 -5.3305 6.01758 0
M  V30 7640 H 741.494 -0.635738 0.22981 0
M  V30 7641 H 744.048 -1.61268 1.27207 0
M  V30 7642 H 742.278 -3.86638 0.069101 0
M  V30 7643 H 743.967 -4.03363 0.453135 0
M  V30 7644 H 744.733 -3.86432 2.93079 0
M  V30 7645 H 740.612 -4.25702 1.76916 0
M  V30 7646 H 744.156 -4.6517 5.19868 0
M  V30 7647 H 740.053 -5.04402 4.02802 0
M  V30 7648 H 740.821 -5.51255 6.05029 0
M  V30 7649 N 743.484 -0.715051 -1.40445 0
M  V30 7650 C 744.73 -0.254705 -2.01194 0
M  V30 7651 C 745.063 1.14894 -1.56567 0
M  V30 7652 O 744.338 1.77933 -0.785491 0
M  V30 7653 C 744.621 -0.334148 -3.58546 0
M  V30 7654 C 744.474 -1.77613 -4.13248 0
M  V30 7655 C 745.793 0.294968 -4.3911 0
M  V30 7656 H 742.912 -0.094025 -0.730978 0
M  V30 7657 H 745.554 -0.907449 -1.66929 0
M  V30 7658 H 743.704 0.221609 -3.87867 0
M  V30 7659 H 745.376 -2.38723 -3.94727 0
M  V30 7660 H 743.619 -2.30402 -3.67556 0
M  V30 7661 H 744.29 -1.78311 -5.22407 0
M  V30 7662 H 746.766 -0.178563 -4.15717 0
M  V30 7663 H 745.642 0.208934 -5.48502 0
M  V30 7664 H 745.903 1.37841 -4.20062 0
M  V30 7665 N 744.962 1.50701 -0.461195 0
M  V30 7666 C 746.21 2.01867 0.0970051 0
M  V30 7667 C 746.531 1.34591 1.41104 0
M  V30 7668 O 745.801 0.488041 1.89723 0
M  V30 7669 H 744.381 0.74599 0.0388392 0
M  V30 7670 H 747.043 1.85129 -0.609357 0
M  V30 7671 H 746.139 3.11051 0.255688 0
M  V30 7672 N 746.441 0.193421 1.56409 0
M  V30 7673 C 747.389 -0.744829 2.20352 0
M  V30 7674 C 748.383 -1.22104 1.17418 0
M  V30 7675 O 749.589 -1.18413 1.35567 0
M  V30 7676 H 745.964 -0.258538 0.70616 0
M  V30 7677 H 747.935 -0.181794 2.97846 0
M  V30 7678 C 746.684 -1.95453 2.87565 0
M  V30 7679 H 746.007 -1.59716 3.66512 0
M  V30 7680 H 747.447 -2.58942 3.35745 0
M  V30 7681 C 745.906 -2.79223 1.8851 0
M  V30 7682 O 746.436 -3.77093 1.38434 0
M  V30 7683 N 744.642 -2.44682 1.56777 0
M  V30 7684 H 744.189 -1.65153 1.97692 0
M  V30 7685 H 744.147 -3.01016 0.907573 0
M  V30 7686 N 747.919 -1.57396 -0.0801906 0
M  V30 7687 C 749.167 -1.86467 -0.779384 0
M  V30 7688 C 749.488 -0.784243 -1.78535 0
M  V30 7689 O 748.758 0.187986 -1.94996 0
M  V30 7690 H 747.338 -0.68806 -0.29083 0
M  V30 7691 H 750 -1.94813 -0.0582749 0
M  V30 7692 H 749.096 -2.83701 -1.30078 0
M  V30 7693 N 749.397 0.351382 -1.53633 0
M  V30 7694 C 750.643 1.09411 -1.70754 0
M  V30 7695 C 750.976 1.88544 -0.465293 0
M  V30 7696 O 750.251 1.86923 0.537608 0
M  V30 7697 C 750.534 2.04173 -2.96623 0
M  V30 7698 C 750.387 1.28556 -4.31038 0
M  V30 7699 C 751.706 3.04102 -3.18136 0
M  V30 7700 H 748.825 0.396373 -0.621335 0
M  V30 7701 H 751.467 0.373464 -1.86293 0
M  V30 7702 H 749.617 2.65625 -2.83506 0
M  V30 7703 H 751.289 0.697786 -4.55992 0
M  V30 7704 H 749.532 0.587498 -4.29803 0
M  V30 7705 H 750.203 1.97989 -5.15271 0
M  V30 7706 H 752.679 2.5276 -3.30532 0
M  V30 7707 H 751.555 3.67616 -4.07615 0
M  V30 7708 H 751.816 3.75053 -2.34068 0
M  V30 7709 N 750.875 1.45233 0.611969 0
M  V30 7710 C 751.825 1.49997 1.71711 0
M  V30 7711 C 752.809 0.363689 1.56736 0
M  V30 7712 O 754.001 0.610261 1.66147 0
M  V30 7713 C 751.13 1.46537 3.10454 0
M  V30 7714 C 750.216 2.65351 3.30831 0
M  V30 7715 N 750.607 3.90485 3.21489 0
M  V30 7716 C 748.905 2.60955 3.61688 0
M  V30 7717 C 749.606 4.69758 3.43078 0
M  V30 7718 N 748.582 4.01141 3.66861 0
M  V30 7719 H 752.384 2.44574 1.62975 0
M  V30 7720 H 749.898 1.40464 0.815082 0
M  V30 7721 H 751.895 1.48035 3.89732 0
M  V30 7722 H 750.555 0.530139 3.20343 0
M  V30 7723 H 751.566 4.22171 2.99987 0
M  V30 7724 H 748.243 1.76319 3.78441 0
M  V30 7725 H 749.633 5.7877 3.41285 0
M  V30 7726 N 752.353 -0.854086 1.3245 0
M  V30 7727 C 753.316 -1.94427 1.21371 0
M  V30 7728 C 754.316 -1.60219 0.136613 0
M  V30 7729 O 755.506 -1.69846 0.387057 0
M  V30 7730 C 752.638 -3.29698 0.866701 0
M  V30 7731 H 753.831 -2.05679 2.18257 0
M  V30 7732 H 751.384 -1.04434 1.1629 0
M  V30 7733 H 752.119 -3.24145 -0.100319 0
M  V30 7734 H 751.904 -3.55903 1.64545 0
M  V30 7735 H 753.394 -4.09599 0.813515 0
M  V30 7736 N 753.831 -1.1567 -1.07043 0
M  V30 7737 C 754.779 -0.852204 -2.16426 0
M  V30 7738 C 755.773 0.175661 -1.68487 0
M  V30 7739 O 756.979 0.0303874 -1.79974 0
M  V30 7740 H 753.354 -0.257942 -0.706378 0
M  V30 7741 H 755.325 -1.78231 -2.39324 0
M  V30 7742 C 754.074 -0.361362 -3.45817 0
M  V30 7743 H 753.397 -1.14369 -3.83092 0
M  V30 7744 H 754.837 -0.186997 -4.23587 0
M  V30 7745 C 753.296 0.917703 -3.2416 0
M  V30 7746 O 753.826 1.98858 -3.49025 0
M  V30 7747 N 752.032 0.858456 -2.77631 0
M  V30 7748 H 751.579 -0.0131821 -2.57597 0
M  V30 7749 H 751.537 1.71478 -2.6352 0
M  V30 7750 N 755.309 1.25446 -0.953992 0
M  V30 7751 C 756.239 2.28264 -0.491717 0
M  V30 7752 C 757.22 1.63717 0.461617 0
M  V30 7753 O 758.405 1.90821 0.36071 0
M  V30 7754 C 755.535 3.46525 0.231915 0
M  V30 7755 C 754.489 4.23247 -0.636098 0
M  V30 7756 C 753.815 5.34254 0.218238 0
M  V30 7757 C 755.115 4.85971 -1.91389 0
M  V30 7758 H 756.809 2.67183 -1.35106 0
M  V30 7759 H 754.355 1.2844 -0.651095 0
M  V30 7760 H 756.308 4.17576 0.566439 0
M  V30 7761 H 755.032 3.06594 1.12551 0
M  V30 7762 H 753.691 3.53978 -0.953696 0
M  V30 7763 H 753.339 4.90564 1.11156 0
M  V30 7764 H 753.039 5.86501 -0.359232 0
M  V30 7765 H 754.563 6.08138 0.547743 0
M  V30 7766 H 755.977 5.49168 -1.64581 0
M  V30 7767 H 754.374 5.48391 -2.43696 0
M  V30 7768 H 755.444 4.08192 -2.61738 0
M  V30 7769 N 756.787 0.722489 1.40064 0
M  V30 7770 C 757.737 0.0506801 2.27944 0
M  V30 7771 C 758.721 -0.725493 1.43615 0
M  V30 7772 O 759.913 -0.596559 1.66644 0
M  V30 7773 C 757.042 -0.865195 3.32219 0
M  V30 7774 C 756.128 -0.0838393 4.24017 0
M  V30 7775 N 756.519 0.936516 4.97054 0
M  V30 7776 C 754.817 -0.315371 4.44884 0
M  V30 7777 C 755.518 1.4066 5.64437 0
M  V30 7778 N 754.494 0.727485 5.3871 0
M  V30 7779 H 758.296 0.832609 2.8186 0
M  V30 7780 H 755.81 0.555691 1.52597 0
M  V30 7781 H 757.807 -1.36186 3.94029 0
M  V30 7782 H 756.467 -1.64642 2.79862 0
M  V30 7783 H 757.478 1.31755 5.0086 0
M  V30 7784 H 754.155 -1.07238 4.03492 0
M  V30 7785 H 755.545 2.25482 6.32936 0
M  V30 7786 N 758.265 -1.50454 0.469181 0
M  V30 7787 C 759.511 -2.02615 -0.0865971 0
M  V30 7788 C 759.844 -1.35062 -1.39542 0
M  V30 7789 O 759.119 -0.475701 -1.88593 0
M  V30 7790 C 759.402 -3.59068 -0.272385 0
M  V30 7791 C 759.255 -4.37196 1.05733 0
M  V30 7792 C 760.574 -4.2793 -1.0278 0
M  V30 7793 H 757.693 -0.736389 -0.0299977 0
M  V30 7794 H 760.335 -1.79792 0.614399 0
M  V30 7795 H 758.485 -3.78646 -0.869471 0
M  V30 7796 H 760.157 -4.29195 1.69084 0
M  V30 7797 H 758.4 -4.01013 1.65442 0
M  V30 7798 H 759.071 -5.44924 0.880997 0
M  V30 7799 H 761.547 -4.12816 -0.521718 0
M  V30 7800 H 760.423 -5.37214 -1.12659 0
M  V30 7801 H 760.684 -3.90968 -2.0639 0
M  V30 7802 N 759.743 -0.201713 -1.56304 0
M  V30 7803 C 760.706 0.702811 -2.18159 0
M  V30 7804 C 761.706 1.13619 -1.13787 0
M  V30 7805 O 762.896 1.0482 -1.39134 0
M  V30 7806 C 760.028 1.96032 -2.78898 0
M  V30 7807 H 761.221 0.163836 -2.99452 0
M  V30 7808 H 758.774 0.04791 -1.56227 0
M  V30 7809 H 759.509 2.54165 -2.01421 0
M  V30 7810 H 759.294 1.65824 -3.55309 0
M  V30 7811 H 760.784 2.60519 -3.26373 0
M  V30 7812 N 761.222 1.57436 0.0718424 0
M  V30 7813 C 762.469 1.87248 0.771007 0
M  V30 7814 C 762.797 0.793441 1.7758 0
M  V30 7815 O 762.052 -0.210565 1.94564 0
M  V30 7816 C 762.351 3.23723 1.51455 0
M  V30 7817 C 762.017 4.46194 0.649736 0
M  V30 7818 C 760.679 4.79438 0.411409 0
M  V30 7819 C 763.031 5.21176 0.05004 0
M  V30 7820 C 760.359 5.85077 -0.436096 0
M  V30 7821 C 762.711 6.27712 -0.784919 0
M  V30 7822 C 761.375 6.59457 -1.03312 0
M  V30 7823 H 760.645 0.685188 0.282132 0
M  V30 7824 H 763.292 1.91474 0.0317896 0
M  V30 7825 H 761.597 3.15287 2.32597 0
M  V30 7826 H 763.294 3.44023 2.06031 0
M  V30 7827 H 759.884 4.20175 0.84562 0
M  V30 7828 H 764.068 4.95806 0.221282 0
M  V30 7829 H 759.324 6.08071 -0.637136 0
M  V30 7830 H 763.498 6.84974 -1.25635 0
M  V30 7831 H 761.125 7.4114 -1.6916 0
M  V30 7832 N 762.7 -0.34323 1.53817 0
M  V30 7833 C 763.65 -1.42217 1.78208 0
M  V30 7834 C 764.634 -1.4774 0.637304 0
M  V30 7835 O 765.826 -1.52605 0.896705 0
M  V30 7836 C 762.955 -2.79354 1.9954 0
M  V30 7837 C 762.041 -2.78222 3.20084 0
M  V30 7838 N 762.432 -2.46719 4.41547 0
M  V30 7839 C 760.73 -3.09368 3.21259 0
M  V30 7840 C 761.431 -2.53828 5.23399 0
M  V30 7841 N 760.407 -2.89464 4.60121 0
M  V30 7842 H 764.209 -1.16759 2.69712 0
M  V30 7843 H 761.723 -0.551592 1.52746 0
M  V30 7844 H 763.72 -3.57095 2.15148 0
M  V30 7845 H 762.38 -3.05759 1.09278 0
M  V30 7846 H 763.391 -2.19912 4.68891 0
M  V30 7847 H 760.068 -3.40942 2.40966 0
M  V30 7848 H 761.458 -2.32629 6.30344 0
M  V30 7849 N 764.178 -1.45556 -0.604258 0
M  V30 7850 C 765.594 -1.30035 -0.925368 0
M  V30 7851 C 765.794 -0.255833 -1.99869 0
M  V30 7852 O 764.85 0.349076 -2.50075 0
M  V30 7853 C 766.163 -2.68028 -1.36314 0
M  V30 7854 C 767.711 -2.75951 -1.47717 0
M  V30 7855 C 768.186 -4.14476 -1.94868 0
M  V30 7856 N 769.677 -4.16787 -2.02097 0
M  V30 7857 C 770.412 -5.20845 -2.39809 0
M  V30 7858 N 769.908 -6.35246 -2.76467 0
M  V30 7859 N 771.701 -5.08204 -2.40177 0
M  V30 7860 H 763.852 -2.1214 0.10512 0
M  V30 7861 H 766.115 -0.947871 -0.0156303 0
M  V30 7862 H 765.821 -3.45667 -0.648628 0
M  V30 7863 H 765.695 -2.96711 -2.329 0
M  V30 7864 H 768.082 -1.98613 -2.18258 0
M  V30 7865 H 768.163 -2.50977 -0.494371 0
M  V30 7866 H 767.807 -4.923 -1.24912 0
M  V30 7867 H 767.737 -4.36843 -2.94068 0
M  V30 7868 H 770.228 -3.34233 -1.76343 0
M  V30 7869 H 770.541 -7.10438 -3.04134 0
M  V30 7870 H 768.886 -6.38642 -2.74155 0
M  V30 7871 H 772.077 -4.17874 -2.10947 0
M  V30 7872 H 772.25 -5.89417 -2.69242 0
M  V30 7873 N 765.656 0.84705 -1.32902 0
M  V30 7874 C 766.881 1.63925 -1.27056 0
M  V30 7875 C 767.306 1.87443 0.157136 0
M  V30 7876 O 766.664 1.43266 1.11106 0
M  V30 7877 C 766.712 2.97134 -2.04313 0
M  V30 7878 O 765.816 3.88049 -1.39614 0
M  V30 7879 H 765.157 0.499477 -0.437514 0
M  V30 7880 H 767.687 1.05443 -1.75336 0
M  V30 7881 H 767.697 3.46896 -2.14772 0
M  V30 7882 H 766.372 2.79339 -3.08128 0
M  V30 7883 H 764.949 3.46525 -1.3775 0
M  V30 7884 N 767.134 1.16236 1.06428 0
M  V30 7885 C 768.359 0.967688 1.83441 0
M  V30 7886 C 768.784 -0.479167 1.81894 0
M  V30 7887 O 768.142 -1.34224 1.21875 0
M  V30 7888 C 768.19 1.49806 3.2801 0
M  V30 7889 O 767.294 0.703481 4.06356 0
M  V30 7890 H 766.635 0.344468 0.56766 0
M  V30 7891 H 769.165 1.54442 1.34197 0
M  V30 7892 H 769.175 1.51495 3.78831 0
M  V30 7893 H 767.85 2.55133 3.2845 0
M  V30 7894 H 766.427 0.756986 3.65136 0
M  V30 7895 N 768.612 -1.24939 0.960631 0
M  V30 7896 C 769.837 -1.9742 0.635608 0
M  V30 7897 C 770.262 -1.70857 -0.786737 0
M  V30 7898 O 769.62 -0.968063 -1.53291 0
M  V30 7899 C 769.668 -3.48987 0.907771 0
M  V30 7900 O 768.772 -4.12399 -0.0104053 0
M  V30 7901 H 768.113 -0.61871 0.241027 0
M  V30 7902 H 770.643 -1.58901 1.28886 0
M  V30 7903 H 770.653 -3.99334 0.836453 0
M  V30 7904 H 769.328 -3.6765 1.94439 0
M  V30 7905 H 767.905 -3.72727 0.113631 0
M  V30 7906 N 770.09 -0.729906 -1.39679 0
M  V30 7907 C 771 -0.0880322 -2.34435 0
M  V30 7908 C 772.016 0.727674 -1.58053 0
M  V30 7909 O 773.192 0.657321 -1.90371 0
M  V30 7910 C 770.257 0.812211 -3.37052 0
M  V30 7911 C 769.318 -0.0151681 -4.29297 0
M  V30 7912 C 768.551 0.842202 -5.27013 0
M  V30 7913 O 768.774 2.08108 -5.31081 0
M  V30 7914 O 767.708 0.27357 -6.01278 0
M  V30 7915 H 771.534 -0.869989 -2.90972 0
M  V30 7916 H 769.119 -0.490522 -1.41118 0
M  V30 7917 H 771.001 1.32745 -3.99946 0
M  V30 7918 H 769.676 1.57307 -2.82907 0
M  V30 7919 H 768.583 -0.575811 -3.69642 0
M  V30 7920 H 769.916 -0.738129 -4.86634 0
M  V30 7921 N 771.568 1.50203 -0.477153 0
M  V30 7922 C 772.515 2.28656 0.31386 0
M  V30 7923 C 773.485 1.33977 0.981802 0
M  V30 7924 O 774.67 1.62919 0.993072 0
M  V30 7925 C 771.81 3.16027 1.38639 0
M  V30 7926 C 770.923 4.25743 0.732615 0
M  V30 7927 C 770.058 5.00363 1.78355 0
M  V30 7928 C 769.097 6.01945 1.11035 0
M  V30 7929 N 768.234 6.6982 2.10441 0
M  V30 7930 H 773.074 2.958 -0.361445 0
M  V30 7931 H 770.611 1.45867 -0.190093 0
M  V30 7932 H 772.569 3.6504 2.01994 0
M  V30 7933 H 771.199 2.50917 2.03077 0
M  V30 7934 H 770.251 3.80398 -0.0136546 0
M  V30 7935 H 771.563 4.98393 0.201513 0
M  V30 7936 H 770.717 5.53124 2.49276 0
M  V30 7937 H 769.456 4.27432 2.34847 0
M  V30 7938 H 768.461 5.48438 0.386797 0
M  V30 7939 H 769.686 6.76851 0.552248 0
M  V30 7940 H 767.632 5.99677 2.65939 0
M  V30 7941 H 767.549 7.38366 1.62332 0
M  V30 7942 H 768.817 7.27196 2.80724 0
M  V30 7943 N 773.046 0.209999 1.56195 0
M  V30 7944 C 774.295 -0.425106 1.97169 0
M  V30 7945 C 774.608 -1.61718 1.10031 0
M  V30 7946 O 775.814 -2.32105 1.40853 0
M  V30 7947 C 774.27 -0.80771 3.50719 0
M  V30 7948 C 773.878 0.360902 4.46544 0
M  V30 7949 C 775.622 -1.40906 4.00432 0
M  V30 7950 C 773.529 -0.0434919 5.91384 0
M  V30 7951 H 772.459 -0.162598 0.736259 0
M  V30 7952 H 775.11 0.304382 1.80958 0
M  V30 7953 H 773.492 -1.59429 3.62489 0
M  V30 7954 H 774.666 1.13846 4.46515 0
M  V30 7955 H 772.981 0.874729 4.07109 0
M  V30 7956 H 775.578 -1.72433 5.06133 0
M  V30 7957 H 775.921 -2.32081 3.45607 0
M  V30 7958 H 776.454 -0.686154 3.91838 0
M  V30 7959 H 773.193 0.834448 6.50167 0
M  V30 7960 H 772.713 -0.785598 5.94633 0
M  V30 7961 H 774.392 -0.474176 6.4526 0
M  V30 7962 N 774.524 -1.57472 -0.0634922 0
M  V30 7963 C 775.474 -2.00709 -1.08166 0
M  V30 7964 C 776.458 -0.890498 -1.34011 0
M  V30 7965 O 777.65 -1.15441 -1.34173 0
M  V30 7966 C 774.779 -2.46148 -2.39303 0
M  V30 7967 C 773.865 -3.64559 -2.16697 0
M  V30 7968 N 774.256 -4.78459 -1.64043 0
M  V30 7969 C 772.554 -3.71269 -2.47135 0
M  V30 7970 C 773.255 -5.60268 -1.56445 0
M  V30 7971 N 772.231 -5.04357 -2.02792 0
M  V30 7972 H 776.033 -2.86208 -0.668016 0
M  V30 7973 H 773.547 -1.60133 -0.270426 0
M  V30 7974 H 775.544 -2.75367 -3.13016 0
M  V30 7975 H 774.204 -1.62041 -2.81377 0
M  V30 7976 H 775.215 -5.00587 -1.32791 0
M  V30 7977 H 771.892 -2.97891 -2.92518 0
M  V30 7978 H 773.282 -6.6172 -1.16519 0
M  V30 7979 N 776.003 0.335068 -1.53997 0
M  V30 7980 C 777.228 1.09859 -1.75914 0
M  V30 7981 C 777.653 1.81308 -0.500915 0
M  V30 7982 O 777.011 1.72854 0.54693 0
M  V30 7983 C 777.059 2.08122 -2.94478 0
M  V30 7984 O 776.163 3.15805 -2.65219 0
M  V30 7985 H 775.504 0.317313 -0.583274 0
M  V30 7986 H 778.034 0.382872 -2.00986 0
M  V30 7987 H 778.044 2.51195 -3.21504 0
M  V30 7988 H 776.719 1.55517 -3.8573 0
M  V30 7989 H 775.296 2.77489 -2.49107 0
M  V30 7990 N 777.481 1.45874 0.596531 0
M  V30 7991 C 778.429 1.55739 1.72766 0
M  V30 7992 C 779.423 0.426666 1.63939 0
M  V30 7993 O 780.629 0.60301 1.69599 0
M  V30 7994 H 777.004 0.489386 0.570968 0
M  V30 7995 H 778.975 2.50871 1.61575 0
M  V30 7996 C 777.724 1.55174 3.11153 0
M  V30 7997 H 777.047 2.41511 3.1861 0
M  V30 7998 H 778.487 1.66133 3.90097 0
M  V30 7999 C 776.946 0.278001 3.35751 0
M  V30 8000 O 777.476 -0.637557 3.96608 0
M  V30 8001 N 775.682 0.170227 2.90101 0
M  V30 8002 H 775.229 0.916159 2.40758 0
M  V30 8003 H 775.187 -0.68117 3.06932 0
M  V30 8004 N 778.959 -0.83999 1.33349 0
M  V30 8005 C 779.869 -1.98182 1.25543 0
M  V30 8006 C 780.885 -1.73204 0.166208 0
M  V30 8007 O 782.061 -1.97596 0.389589 0
M  V30 8008 C 779.126 -3.32157 0.993614 0
M  V30 8009 C 778.187 -3.70258 2.17273 0
M  V30 8010 C 777.42 -4.9784 1.92331 0
M  V30 8011 O 777.643 -5.63679 0.873074 0
M  V30 8012 O 776.577 -5.33418 2.78835 0
M  V30 8013 H 780.403 -2.07708 2.21565 0
M  V30 8014 H 777.988 -0.972852 1.13384 0
M  V30 8015 H 779.87 -4.12433 0.864711 0
M  V30 8016 H 778.545 -3.23637 0.0636596 0
M  V30 8017 H 777.452 -2.90497 2.35716 0
M  V30 8018 H 778.785 -3.83442 3.08598 0
M  V30 8019 N 780.437 -1.16799 -1.0581 0
M  V30 8020 C 781.686 -0.94698 -1.78088 0
M  V30 8021 C 781.999 0.526016 -1.88394 0
M  V30 8022 O 783.205 0.865061 -2.5735 0
M  V30 8023 C 781.661 -1.64508 -3.20102 0
M  V30 8024 C 781.269 -3.15618 -3.17946 0
M  V30 8025 C 783.013 -1.50622 -3.96879 0
M  V30 8026 C 780.92 -3.78144 -4.5471 0
M  V30 8027 H 779.85 -0.35067 -0.667493 0
M  V30 8028 H 782.501 -1.39985 -1.18645 0
M  V30 8029 H 780.883 -1.11993 -3.79834 0
M  V30 8030 H 782.057 -3.75016 -2.67768 0
M  V30 8031 H 780.372 -3.29444 -2.54667 0
M  V30 8032 H 782.969 -1.94713 -4.97987 0
M  V30 8033 H 783.312 -0.455864 -4.13797 0
M  V30 8034 H 783.845 -2.00319 -3.43682 0
M  V30 8035 H 780.584 -4.83149 -4.42998 0
M  V30 8036 H 780.104 -3.23532 -5.05062 0
M  V30 8037 H 781.783 -3.79986 -5.2366 0
M  V30 8038 N 781.915 1.24427 -0.967243 0
M  V30 8039 C 783.14 1.9708 -0.646069 0
M  V30 8040 C 783.565 1.71272 0.777665 0
M  V30 8041 O 782.923 0.976179 1.52776 0
M  V30 8042 C 782.971 3.48501 -0.926266 0
M  V30 8043 O 782.075 4.12398 -0.0114653 0
M  V30 8044 H 781.416 0.617423 -0.244304 0
M  V30 8045 H 783.946 1.58215 -1.29727 0
M  V30 8046 H 783.956 3.98885 -0.857619 0
M  V30 8047 H 782.631 3.66613 -1.96386 0
M  V30 8048 H 781.208 3.72661 -0.133396 0
M  V30 8049 N 783.393 0.737304 1.3929 0
M  V30 8050 C 784.618 0.295237 2.05288 0
M  V30 8051 C 785.043 -1.06235 1.55228 0
M  V30 8052 O 784.401 -1.67365 0.697043 0
M  V30 8053 C 784.449 0.309146 3.59272 0
M  V30 8054 O 783.553 -0.702437 4.06374 0
M  V30 8055 H 782.894 0.133762 0.650387 0
M  V30 8056 H 785.424 1.00387 1.78279 0
M  V30 8057 H 785.434 0.154336 4.07708 0
M  V30 8058 H 784.109 1.29974 3.95069 0
M  V30 8059 H 782.686 -0.513574 3.69346 0
M  V30 8060 N 784.871 -1.49948 0.485112 0
M  V30 8061 C 786.148 -1.95186 -0.12726 0
M  V30 8062 C 786.528 -1.42605 -1.5565 0
M  V30 8063 O 785.876 -0.632986 -2.19558 0
M  V30 8064 C 786.086 -3.48955 -0.0562117 0
M  V30 8065 C 787.434 -4.23932 -0.238106 0
M  V30 8066 O 788.458 -3.55955 -0.132145 0
M  V30 8067 O 787.317 -5.44614 -0.453658 0
M  V30 8068 H 784.411 -0.820433 -0.104014 0
M  V30 8069 H 786.957 -1.60659 0.546517 0
M  V30 8070 H 785.729 -3.79814 0.941122 0
M  V30 8071 H 785.352 -3.90056 -0.770834 0
M  V30 8072 N 786.349 -0.21828 -1.56081 0
M  V30 8073 C 787.574 0.422302 -2.03055 0
M  V30 8074 C 787.999 1.5279 -1.09713 0
M  V30 8075 O 787.357 1.81102 -0.0847187 0
M  V30 8076 C 787.405 0.934177 -3.48289 0
M  V30 8077 O 786.509 2.04574 -3.58083 0
M  V30 8078 H 785.85 0.0959764 -0.657027 0
M  V30 8079 H 788.38 -0.335958 -2.01823 0
M  V30 8080 H 788.39 1.24484 -3.88546 0
M  V30 8081 H 787.065 0.124963 -4.15712 0
M  V30 8082 H 785.642 1.74196 -3.29712 0
M  V30 8083 N 787.827 1.57504 0.0551401 0
M  V30 8084 C 789.076 1.87237 0.750009 0
M  V30 8085 C 789.389 0.813268 1.77891 0
M  V30 8086 O 790.595 0.99898 2.52453 0
M  V30 8087 C 789.051 3.32187 1.38491 0
M  V30 8088 C 788.659 4.46267 0.393707 0
M  V30 8089 C 790.403 3.71101 2.06117 0
M  V30 8090 C 788.31 5.82265 1.03547 0
M  V30 8091 H 787.24 0.698524 0.283866 0
M  V30 8092 H 789.891 1.835 0.00365997 0
M  V30 8093 H 788.273 3.30588 2.18008 0
M  V30 8094 H 789.447 4.59289 -0.372865 0
M  V30 8095 H 787.762 4.16015 -0.17902 0
M  V30 8096 H 790.359 4.70012 2.54937 0
M  V30 8097 H 790.702 3.01751 2.86796 0
M  V30 8098 H 791.235 3.74762 1.33409 0
M  V30 8099 H 787.974 6.54949 0.268644 0
M  V30 8100 H 787.494 5.73012 1.7725 0
M  V30 8101 H 789.173 6.28148 1.55047 0
M  V30 8102 N 789.305 -0.326896 1.54172 0
M  V30 8103 C 790.553 -1.06313 1.71878 0
M  V30 8104 C 790.874 -1.88652 0.493498 0
M  V30 8105 O 790.144 -1.89608 -0.492522 0
M  V30 8106 H 788.724 -0.39549 0.633716 0
M  V30 8107 H 791.386 -0.364139 1.91468 0
M  V30 8108 H 790.482 -1.73105 2.59694 0
M  V30 8109 N 790.784 -1.46188 -0.588786 0
M  V30 8110 C 792.03 -1.51407 -1.34921 0
M  V30 8111 C 792.363 -0.162771 -1.93517 0
M  V30 8112 O 791.638 0.825082 -1.76132 0
M  V30 8113 C 791.921 -2.60795 -2.48311 0
M  V30 8114 C 791.774 -4.05435 -1.94789 0
M  V30 8115 C 793.093 -2.66313 -3.50379 0
M  V30 8116 H 790.212 -0.551213 -0.489217 0
M  V30 8117 H 792.854 -1.78095 -0.661993 0
M  V30 8118 H 791.004 -2.3817 -3.06932 0
M  V30 8119 H 792.676 -4.39328 -1.40672 0
M  V30 8120 H 790.919 -4.15202 -1.25659 0
M  V30 8121 H 791.59 -4.77691 -2.76613 0
M  V30 8122 H 794.066 -2.86634 -3.01629 0
M  V30 8123 H 792.942 -3.44681 -4.27184 0
M  V30 8124 H 793.203 -1.72127 -4.07216 0
M  V30 8125 N 792.262 0.832906 -1.33792 0
M  V30 8126 C 793.192 1.95828 -1.27176 0
M  V30 8127 C 794.173 1.69427 -0.15114 0
M  V30 8128 O 795.358 1.91167 -0.341886 0
M  V30 8129 C 792.488 3.32098 -1.01629 0
M  V30 8130 C 791.442 3.72912 -2.10049 0
M  V30 8131 C 790.768 5.07054 -1.69706 0
M  V30 8132 C 792.068 3.86064 -3.51783 0
M  V30 8133 H 793.762 2.01622 -2.21334 0
M  V30 8134 H 791.308 0.96866 -1.0655 0
M  V30 8135 H 793.261 4.10402 -0.956474 0
M  V30 8136 H 791.985 3.26577 -0.0390956 0
M  V30 8137 H 790.644 2.96876 -2.15082 0
M  V30 8138 H 790.292 4.9801 -0.706737 0
M  V30 8139 H 789.992 5.35333 -2.42264 0
M  V30 8140 H 791.516 5.87827 -1.65202 0
M  V30 8141 H 792.93 4.54665 -3.49218 0
M  V30 8142 H 791.327 4.25787 -4.22878 0
M  V30 8143 H 792.397 2.88344 -3.89854 0
M  V30 8144 N 793.74 1.17359 1.05189 0
M  V30 8145 C 794.988 0.960087 1.77839 0
M  V30 8146 C 795.309 -0.512554 1.88143 0
M  V30 8147 O 794.579 -1.3721 1.39822 0
M  V30 8148 H 793.159 0.352234 0.658741 0
M  V30 8149 H 795.821 1.47834 1.27008 0
M  V30 8150 H 794.917 1.38843 2.79516 0
M  V30 8151 N 795.218 -1.23913 0.973828 0
M  V30 8152 C 796.448 -1.95911 0.655938 0
M  V30 8153 C 796.856 -1.72375 -0.779967 0
M  V30 8154 O 796.199 -1.00807 -1.5357 0
M  V30 8155 C 796.261 -3.49103 0.858324 0
M  V30 8156 C 795.925 -3.96347 2.27504 0
M  V30 8157 C 796.922 -4.05537 3.25324 0
M  V30 8158 C 794.607 -4.29509 2.60437 0
M  V30 8159 C 796.601 -4.47233 4.5416 0
M  V30 8160 C 794.288 -4.70887 3.89498 0
M  V30 8161 C 795.286 -4.79714 4.86172 0
M  V30 8162 O 794.974 -5.20166 6.1293 0
M  V30 8163 H 794.706 -0.630721 0.243244 0
M  V30 8164 H 797.26 -1.58534 1.30599 0
M  V30 8165 H 795.49 -3.86405 0.151097 0
M  V30 8166 H 797.179 -4.02311 0.538592 0
M  V30 8167 H 797.945 -3.80128 3.0121 0
M  V30 8168 H 793.824 -4.21853 1.85906 0
M  V30 8169 H 797.368 -4.54038 5.29618 0
M  V30 8170 H 793.265 -4.95744 4.1341 0
M  V30 8171 H 794.033 -5.38298 6.16586 0
M  V30 8172 N 796.696 -0.74468 -1.38897 0
M  V30 8173 C 797.628 -0.0713608 -2.29089 0
M  V30 8174 C 798.641 0.693224 -1.47303 0
M  V30 8175 O 799.83 0.535785 -1.70269 0
M  V30 8176 C 796.93 0.923078 -3.26087 0
M  V30 8177 C 796.103 0.217998 -4.36856 0
M  V30 8178 C 795.162 1.12192 -5.14101 0
M  V30 8179 O 794.188 0.595771 -5.66073 0
M  V30 8180 N 795.39 2.45082 -5.26227 0
M  V30 8181 H 798.155 -0.845906 -2.87514 0
M  V30 8182 H 795.716 -0.594712 -1.50581 0
M  V30 8183 H 797.708 1.53061 -3.74639 0
M  V30 8184 H 796.278 1.59876 -2.68623 0
M  V30 8185 H 795.498 -0.570134 -3.90055 0
M  V30 8186 H 796.786 -0.270248 -5.08082 0
M  V30 8187 H 796.184 2.90294 -4.85537 0
M  V30 8188 H 794.741 3.00907 -5.78185 0
M  V30 8189 N 798.174 1.49689 -0.493057 0
M  V30 8190 C 799.121 2.28976 0.28959 0
M  V30 8191 C 800.091 1.35011 0.967536 0
M  V30 8192 O 801.276 1.63964 0.975736 0
M  V30 8193 C 798.416 3.1748 1.35279 0
M  V30 8194 C 797.529 4.26496 0.687418 0
M  V30 8195 C 796.664 5.02226 1.73038 0
M  V30 8196 C 795.703 6.03089 1.04645 0
M  V30 8197 N 794.84 6.72014 2.03325 0
M  V30 8198 H 799.68 2.954 -0.392798 0
M  V30 8199 H 797.217 1.45657 -0.205554 0
M  V30 8200 H 799.175 3.67162 1.98111 0
M  V30 8201 H 797.805 2.53057 2.00405 0
M  V30 8202 H 796.857 3.80362 -0.0540001 0
M  V30 8203 H 798.169 4.98578 0.14864 0
M  V30 8204 H 797.323 5.55737 2.43395 0
M  V30 8205 H 796.062 4.29899 2.303 0
M  V30 8206 H 795.067 5.48817 0.328606 0
M  V30 8207 H 796.292 6.77398 0.480428 0
M  V30 8208 H 794.238 6.02464 2.59564 0
M  V30 8209 H 794.155 7.40046 1.54492 0
M  V30 8210 H 795.423 7.30133 2.72995 0
M  V30 8211 N 799.652 0.226554 1.55963 0
M  V30 8212 C 800.88 -0.408507 2.02827 0
M  V30 8213 C 801.295 -1.52994 1.10627 0
M  V30 8214 O 800.652 -1.82126 0.116809 0
M  V30 8215 C 800.703 -0.93545 3.49187 0
M  V30 8216 O 800.424 0.141273 4.37872 0
M  V30 8217 C 801.925 -1.64325 4.11719 0
M  V30 8218 H 799.145 -0.099442 0.66359 0
M  V30 8219 H 801.689 0.344471 2.01578 0
M  V30 8220 H 799.844 -1.63868 3.51036 0
M  V30 8221 H 800.258 -0.25558 5.23877 0
M  V30 8222 H 801.732 -1.9639 5.15883 0
M  V30 8223 H 802.209 -2.55815 3.57009 0
M  V30 8224 H 802.815 -0.9851 4.13734 0
M  V30 8225 N 801.13 -1.57531 -0.0467866 0
M  V30 8226 C 802.376 -1.8873 -0.742218 0
M  V30 8227 C 802.709 -0.822084 -1.75941 0
M  V30 8228 O 801.984 0.164922 -1.938 0
M  V30 8229 C 802.267 -3.30586 -1.42776 0
M  V30 8230 C 802.12 -4.47785 -0.425285 0
M  V30 8231 C 803.439 -3.71068 -2.36636 0
M  V30 8232 H 800.558 -0.686406 -0.268359 0
M  V30 8233 H 803.2 -1.89999 -0.00511341 0
M  V30 8234 H 801.35 -3.29634 -2.05605 0
M  V30 8235 H 803.022 -4.60867 0.199721 0
M  V30 8236 H 801.265 -4.33037 0.25713 0
M  V30 8237 H 801.936 -5.43884 -0.943086 0
M  V30 8238 H 804.412 -3.73273 -1.83866 0
M  V30 8239 H 803.288 -4.71165 -2.81593 0
M  V30 8240 H 803.549 -3.02355 -3.22542 0
M  V30 8241 N 802.608 0.318715 -1.54344 0
M  V30 8242 C 803.885 1.07461 -1.63437 0
M  V30 8243 C 804.265 2.05771 -0.47131 0
M  V30 8244 O 803.613 2.22175 0.53391 0
M  V30 8245 C 803.823 1.77224 -3.00654 0
M  V30 8246 C 805.171 2.30069 -3.56866 0
M  V30 8247 O 806.195 1.87284 -3.0299 0
M  V30 8248 O 805.054 3.08412 -4.51159 0
M  V30 8249 H 802.148 0.495627 -0.66203 0
M  V30 8250 H 804.694 0.318218 -1.6669 0
M  V30 8251 H 803.466 1.05742 -3.76742 0
M  V30 8252 H 803.089 2.59662 -3.01101 0
M  V30 8253 N 804.086 1.46499 0.581025 0
M  V30 8254 C 805.036 1.53606 1.68491 0
M  V30 8255 C 806.02 0.396853 1.55929 0
M  V30 8256 O 807.212 0.645366 1.64815 0
M  V30 8257 C 804.341 1.53089 3.07276 0
M  V30 8258 C 803.427 2.72309 3.25128 0
M  V30 8259 N 803.818 3.97216 3.13134 0
M  V30 8260 C 802.116 2.68568 3.56072 0
M  V30 8261 C 802.817 4.7693 3.33036 0
M  V30 8262 N 801.793 4.08833 3.58269 0
M  V30 8263 H 805.595 2.47976 1.5775 0
M  V30 8264 H 803.109 1.42161 0.785104 0
M  V30 8265 H 805.106 1.56268 3.86505 0
M  V30 8266 H 803.766 0.597969 3.19146 0
M  V30 8267 H 804.777 4.28439 2.90964 0
M  V30 8268 H 801.454 1.84307 3.74616 0
M  V30 8269 H 802.844 5.85879 3.28932 0
M  V30 8270 N 805.565 -0.825799 1.34232 0
M  V30 8271 C 806.793 -1.61363 1.29497 0
M  V30 8272 C 807.208 -1.88341 -0.131536 0
M  V30 8273 O 806.565 -1.47279 -1.07773 0
M  V30 8274 C 806.616 -2.95623 2.08061 0
M  V30 8275 O 806.337 -2.69824 3.45147 0
M  V30 8276 C 807.838 -3.90032 2.10688 0
M  V30 8277 H 805.058 -0.501676 0.445603 0
M  V30 8278 H 807.602 -1.02767 1.76803 0
M  V30 8279 H 805.757 -3.50785 1.64404 0
M  V30 8280 H 806.171 -3.55412 3.85723 0
M  V30 8281 H 807.645 -4.81411 2.70087 0
M  V30 8282 H 808.122 -4.25188 1.10052 0
M  V30 8283 H 808.728 -3.40807 2.54422 0
M  V30 8284 N 807.043 -1.17915 -1.04565 0
M  V30 8285 C 807.99 -0.901605 -2.12461 0
M  V30 8286 C 808.96 0.157011 -1.65356 0
M  V30 8287 O 810.145 0.0184494 -1.90791 0
M  V30 8288 C 807.285 -0.42796 -3.42436 0
M  V30 8289 C 806.398 -1.55142 -4.03181 0
M  V30 8290 C 805.533 -1.03101 -5.21098 0
M  V30 8291 C 804.572 -2.1295 -5.73863 0
M  V30 8292 N 803.709 -1.62339 -6.83074 0
M  V30 8293 H 808.549 -1.82551 -2.3554 0
M  V30 8294 H 806.086 -0.910389 -1.15544 0
M  V30 8295 H 808.044 -0.134859 -4.16982 0
M  V30 8296 H 806.674 0.458977 -3.1952 0
M  V30 8297 H 805.726 -1.96011 -3.26012 0
M  V30 8298 H 807.038 -2.37968 -4.38375 0
M  V30 8299 H 806.192 -0.692132 -6.02739 0
M  V30 8300 H 804.931 -0.17227 -4.87396 0
M  V30 8301 H 803.936 -2.47687 -4.90847 0
M  V30 8302 H 805.161 -2.9925 -6.09611 0
M  V30 8303 H 803.107 -0.787464 -6.51256 0
M  V30 8304 H 803.024 -2.38767 -7.17305 0
M  V30 8305 H 804.292 -1.31363 -7.68351 0
M  V30 8306 N 808.521 1.23394 -0.980386 0
M  V30 8307 C 809.767 1.92094 -0.650223 0
M  V30 8308 C 810.1 1.76309 0.814173 0
M  V30 8309 O 809.375 1.12406 1.5873 0
M  V30 8310 C 809.658 3.44713 -1.04139 0
M  V30 8311 C 809.511 3.69606 -2.56342 0
M  V30 8312 C 810.83 4.36191 -0.585296 0
M  V30 8313 H 807.949 0.697618 -0.237695 0
M  V30 8314 H 810.591 1.45517 -1.22167 0
M  V30 8315 H 808.741 3.84513 -0.55515 0
M  V30 8316 H 810.413 3.39288 -3.1254 0
M  V30 8317 H 808.656 3.14318 -2.98976 0
M  V30 8318 H 809.327 4.76441 -2.78762 0
M  V30 8319 H 811.803 4.03836 -1.00276 0
M  V30 8320 H 810.679 5.41679 -0.887428 0
M  V30 8321 H 810.94 4.39097 0.51438 0
M  V30 8322 N 809.999 0.752036 1.385 0
M  V30 8323 C 810.947 0.112634 2.32327 0
M  V30 8324 C 811.941 -0.707037 1.53939 0
M  V30 8325 O 813.147 -0.606309 1.69481 0
M  V30 8326 H 809.522 0.0176275 0.751793 0
M  V30 8327 H 811.493 0.920074 2.83861 0
M  V30 8328 C 810.242 -0.767458 3.39124 0
M  V30 8329 H 809.565 -0.146122 3.99533 0
M  V30 8330 H 811.005 -1.18216 4.07187 0
M  V30 8331 C 809.464 -1.90938 2.77568 0
M  V30 8332 O 809.994 -3.00342 2.66754 0
M  V30 8333 N 808.2 -1.70396 2.35401 0
M  V30 8334 H 807.747 -0.81413 2.44397 0
M  V30 8335 H 807.705 -2.46972 1.94557 0
M  V30 8336 N 811.477 -1.49425 0.500989 0
M  V30 8337 C 812.702 -2.07356 -0.0425154 0
M  V30 8338 C 813.127 -1.35887 -1.30063 0
M  V30 8339 O 812.485 -0.41561 -1.76472 0
M  V30 8340 C 812.533 -3.59518 -0.279188 0
M  V30 8341 O 811.637 -3.89542 -1.3539 0
M  V30 8342 H 810.978 -0.663482 0.0262207 0
M  V30 8343 H 813.508 -1.92231 0.700607 0
M  V30 8344 H 813.518 -4.04791 -0.5107 0
M  V30 8345 H 812.193 -4.10946 0.640009 0
M  V30 8346 H 810.77 -3.56079 -1.10734 0
M  V30 8347 N 812.955 -0.234822 -1.55841 0
M  V30 8348 C 813.902 0.6698 -2.20867 0
M  V30 8349 C 814.872 1.18042 -1.16856 0
M  V30 8350 O 816.057 1.23709 -1.45261 0
M  V30 8351 C 813.197 1.86646 -2.90271 0
M  V30 8352 C 812.31 1.39351 -4.08908 0
M  V30 8353 C 811.445 2.54878 -4.66059 0
M  V30 8354 C 810.484 2.04384 -5.76969 0
M  V30 8355 N 809.621 3.13233 -6.28355 0
M  V30 8356 H 814.461 0.10858 -2.97802 0
M  V30 8357 H 811.998 0.041836 -1.4704 0
M  V30 8358 H 813.956 2.56926 -3.28702 0
M  V30 8359 H 812.586 2.40035 -2.15831 0
M  V30 8360 H 811.638 0.585173 -3.75872 0
M  V30 8361 H 812.95 0.983356 -4.89011 0
M  V30 8362 H 812.104 3.33219 -5.07001 0
M  V30 8363 H 810.843 2.99188 -3.85146 0
M  V30 8364 H 809.848 1.24509 -5.35516 0
M  V30 8365 H 811.073 1.61057 -6.59725 0
M  V30 8366 H 809.019 3.57 -5.50352 0
M  V30 8367 H 808.936 2.76511 -7.03618 0
M  V30 8368 H 810.204 3.91669 -6.73955 0
M  V30 8369 N 814.433 1.57553 0.0384317 0
M  V30 8370 C 815.363 2.0898 1.04161 0
M  V30 8371 C 816.344 0.99029 1.38301 0
M  V30 8372 O 817.529 1.26499 1.47349 0
M  V30 8373 C 814.659 2.56145 2.34536 0
M  V30 8374 C 813.613 3.70275 2.14663 0
M  V30 8375 C 812.939 4.03612 3.50715 0
M  V30 8376 C 814.239 4.99067 1.54045 0
M  V30 8377 H 815.933 2.93046 0.613548 0
M  V30 8378 H 813.479 1.40973 0.293684 0
M  V30 8379 H 815.432 2.90741 3.05037 0
M  V30 8380 H 814.156 1.6915 2.79385 0
M  V30 8381 H 812.815 3.36013 1.46597 0
M  V30 8382 H 812.463 3.13698 3.93195 0
M  V30 8383 H 812.163 4.80482 3.38247 0
M  V30 8384 H 813.687 4.40735 4.22593 0
M  V30 8385 H 815.101 5.3168 2.14451 0
M  V30 8386 H 813.498 5.80484 1.52178 0
M  V30 8387 H 814.568 4.8226 0.505259 0
M  V30 8388 N 815.911 -0.310526 1.54511 0
M  V30 8389 C 817.136 -1.07046 1.7764 0
M  V30 8390 C 817.561 -1.80488 0.529696 0
M  V30 8391 O 816.919 -1.73702 -0.519361 0
M  V30 8392 C 816.967 -2.03411 2.97752 0
M  V30 8393 O 816.071 -3.11545 2.7021 0
M  V30 8394 H 815.412 -0.307994 0.588248 0
M  V30 8395 H 817.942 -0.350848 2.01569 0
M  V30 8396 H 817.952 -2.46048 3.2546 0
M  V30 8397 H 816.627 -1.49361 3.88155 0
M  V30 8398 H 815.204 -2.7349 2.53491 0
M  V30 8399 N 817.389 -1.46805 -0.573248 0
M  V30 8400 C 818.319 -1.60951 -1.69165 0
M  V30 8401 C 819.3 -0.45948 -1.63777 0
M  V30 8402 O 820.485 -0.68688 -1.81647 0
M  V30 8403 C 817.615 -1.60844 -3.07809 0
M  V30 8404 C 816.569 -2.74913 -3.28035 0
M  V30 8405 C 815.895 -2.59871 -4.67302 0
M  V30 8406 C 817.195 -4.16654 -3.14955 0
M  V30 8407 H 818.889 -2.54574 -1.57582 0
M  V30 8408 H 816.435 -1.22516 -0.756686 0
M  V30 8409 H 818.388 -1.69334 -3.85881 0
M  V30 8410 H 817.112 -0.637714 -3.20314 0
M  V30 8411 H 815.771 -2.65908 -2.52366 0
M  V30 8412 H 815.419 -1.60861 -4.76585 0
M  V30 8413 H 815.119 -3.36386 -4.81786 0
M  V30 8414 H 816.643 -2.70265 -5.4753 0
M  V30 8415 H 818.057 -4.26721 -3.82861 0
M  V30 8416 H 816.454 -4.93831 -3.40956 0
M  V30 8417 H 817.524 -4.36146 -2.11908 0
M  V30 8418 N 818.867 0.818669 -1.34668 0
M  V30 8419 C 820.114 1.57512 -1.27264 0
M  V30 8420 C 820.442 1.93871 0.156254 0
M  V30 8421 O 819.697 1.60582 1.11857 0
M  V30 8422 C 819.996 2.88245 -2.11304 0
M  V30 8423 C 819.662 2.71159 -3.60255 0
M  V30 8424 C 818.324 2.66207 -4.00858 0
M  V30 8425 C 820.676 2.54538 -4.54819 0
M  V30 8426 C 818.004 2.4256 -5.34211 0
M  V30 8427 C 820.356 2.32421 -5.88356 0
M  V30 8428 C 819.02 2.25884 -6.28118 0
M  V30 8429 H 818.29 0.576378 -0.465692 0
M  V30 8430 H 820.937 0.9469 -1.66451 0
M  V30 8431 H 819.242 3.55381 -1.64958 0
M  V30 8432 H 820.939 3.45869 -2.02919 0
M  V30 8433 H 817.529 2.75856 -3.28027 0
M  V30 8434 H 821.713 2.57384 -4.24343 0
M  V30 8435 H 816.969 2.35959 -5.64033 0
M  V30 8436 H 821.143 2.18548 -6.61218 0
M  V30 8437 H 818.77 2.07322 -7.31383 0
M  V30 8438 N 820.346 1.18468 1.03938 0
M  V30 8439 C 821.593 0.980833 1.77161 0
M  V30 8440 C 821.921 -0.489425 1.88242 0
M  V30 8441 O 821.176 -1.37961 1.388 0
M  V30 8442 C 821.475 1.58229 3.20466 0
M  V30 8443 C 821.141 3.07889 3.29416 0
M  V30 8444 C 819.803 3.48737 3.31566 0
M  V30 8445 C 822.155 4.03903 3.29411 0
M  V30 8446 C 819.483 4.84171 3.31355 0
M  V30 8447 C 821.835 5.39253 3.3074 0
M  V30 8448 C 820.499 5.79547 3.31182 0
M  V30 8449 H 819.769 0.358912 0.648277 0
M  V30 8450 H 822.416 1.47552 1.22069 0
M  V30 8451 H 820.721 1.00964 3.78568 0
M  V30 8452 H 822.418 1.39998 3.75768 0
M  V30 8453 H 819.008 2.75335 3.28464 0
M  V30 8454 H 823.192 3.73395 3.2694 0
M  V30 8455 H 818.448 5.14685 3.30015 0
M  V30 8456 H 822.622 6.13417 3.29686 0
M  V30 8457 H 820.249 6.84466 3.30772 0
M  V30 8458 N 821.824 -1.22873 0.986916 0
M  V30 8459 C 822.734 -2.28277 0.540978 0
M  V30 8460 C 823.75 -1.69164 -0.407363 0
M  V30 8461 O 824.926 -1.99504 -0.275674 0
M  V30 8462 C 821.991 -3.46404 -0.143181 0
M  V30 8463 C 821.052 -4.20854 0.847375 0
M  V30 8464 C 820.285 -5.33341 0.19577 0
M  V30 8465 O 820.508 -5.61356 -1.0117 0
M  V30 8466 O 819.442 -5.95169 0.897623 0
M  V30 8467 H 823.268 -2.68578 1.41773 0
M  V30 8468 H 820.853 -1.28927 0.754867 0
M  V30 8469 H 822.735 -4.18096 -0.526676 0
M  V30 8470 H 821.41 -3.08041 -0.994593 0
M  V30 8471 H 820.317 -3.51459 1.28169 0
M  V30 8472 H 821.65 -4.63082 1.6678 0
M  V30 8473 N 823.302 -0.75937 -1.38099 0
M  V30 8474 C 824.551 -0.314864 -1.99227 0
M  V30 8475 C 824.864 1.1113 -1.60964 0
M  V30 8476 O 826.07 1.65657 -2.15105 0
M  V30 8477 C 824.526 -0.512001 -3.56239 0
M  V30 8478 C 824.134 -1.94762 -4.0345 0
M  V30 8479 C 825.878 -0.130497 -4.24299 0
M  V30 8480 C 823.785 -2.09301 -5.53125 0
M  V30 8481 H 822.715 -0.113978 -0.745335 0
M  V30 8482 H 825.366 -0.936736 -1.57789 0
M  V30 8483 H 823.748 0.179144 -3.95595 0
M  V30 8484 H 824.922 -2.67271 -3.75371 0
M  V30 8485 H 823.237 -2.28457 -3.48133 0
M  V30 8486 H 825.834 -0.21781 -5.34256 0
M  V30 8487 H 826.177 0.917644 -4.0606 0
M  V30 8488 H 826.71 -0.773716 -3.90203 0
M  V30 8489 H 823.449 -3.1239 -5.76275 0
M  V30 8490 H 822.969 -1.41261 -5.82928 0
M  V30 8491 H 824.648 -1.88571 -6.1891 0
M  V30 8492 N 824.78 1.49157 -0.508906 0
M  V30 8493 C 825.727 2.2927 0.265288 0
M  V30 8494 C 826.697 1.3603 0.953162 0
M  V30 8495 O 827.882 1.64989 0.958291 0
M  V30 8496 C 825.022 3.18897 1.31904 0
M  V30 8497 C 824.135 4.27201 0.642144 0
M  V30 8498 C 823.27 5.04033 1.67701 0
M  V30 8499 C 822.309 6.04165 0.982422 0
M  V30 8500 N 821.446 6.74133 1.96186 0
M  V30 8501 H 826.286 2.94967 -0.424107 0
M  V30 8502 H 823.823 1.45431 -0.220991 0
M  V30 8503 H 825.781 3.69242 1.94206 0
M  V30 8504 H 824.411 2.55168 1.97709 0
M  V30 8505 H 823.463 3.80283 -0.0943395 0
M  V30 8506 H 824.775 4.98708 0.0957507 0
M  V30 8507 H 823.929 5.58287 2.37487 0
M  V30 8508 H 822.668 4.32317 2.25728 0
M  V30 8509 H 821.673 5.49135 0.270378 0
M  V30 8510 H 822.898 6.7787 0.408554 0
M  V30 8511 H 820.844 6.05183 2.53159 0
M  V30 8512 H 820.761 7.41643 1.46634 0
M  V30 8513 H 822.029 7.32987 2.65236 0
M  V30 8514 N 826.258 0.243083 1.55714 0
M  V30 8515 C 827.483 -0.389944 2.03701 0
M  V30 8516 C 827.908 -1.51025 1.12129 0
M  V30 8517 O 827.266 -1.80944 0.11352 0
M  V30 8518 C 827.314 -0.878649 3.49731 0
M  V30 8519 O 826.418 -1.98851 3.61292 0
M  V30 8520 H 825.759 -0.0855115 0.658471 0
M  V30 8521 H 828.289 0.368023 2.01263 0
M  V30 8522 H 828.299 -1.18287 3.90477 0
M  V30 8523 H 826.974 -0.0588107 4.15858 0
M  V30 8524 H 825.551 -1.68928 3.32442 0
M  V30 8525 O 827.775 -1.61141 0.107569 0
M  V30 8526 H 828.466 -1.87321 -0.492993 0
M  V30 END ATOM
M  V30 BEGIN BOND
M  V30 END BOND
M  V30 END CTAB
M  END
$$$$
