drugbank_target|P00568 Adenylate kinase isoenzyme 1 (DB01717)
 OpenBabel12092119513D

  0  0  0     0  0            999 V3000
M  V30 BEGIN CTAB
M  V30 COUNTS 3078 3097 0 0 0
M  V30 BEGIN ATOM
M  V30 1 H -0.908 1.98254 -0.117106 0
M  V30 2 N 0 1.576 0 0
M  V30 3 C 0.933 2.03868 1.02534 0
M  V30 4 C 1.911 0.928543 1.3348 0
M  V30 5 O 3.095 1.19667 1.45644 0
M  V30 6 C 0.222 2.43627 2.35294 0
M  V30 7 C -0.732 3.65373 2.2001 0
M  V30 8 S 0.101 5.13292 1.52614 0
M  V30 9 C 1.257 5.56322 2.86805 0
M  V30 10 H 1.49 2.90518 0.631377 0
M  V30 11 H -0.977 1.52953 0.210867 0
M  V30 12 H 0.981 2.67203 3.11629 0
M  V30 13 H -0.358 1.57376 2.7183 0
M  V30 14 H -1.165 3.90944 3.18086 0
M  V30 15 H -1.563 3.418 1.51819 0
M  V30 16 H 0.729 5.58782 3.83104 0
M  V30 17 H 1.672 6.56266 2.65933 0
M  V30 18 H 2.08 4.83886 2.90714 0
M  V30 19 N 1.4781 -0.272755 1.55222 0
M  V30 20 C 2.3881 -1.35918 1.91216 0
M  V30 21 C 3.4041 -1.54026 0.809436 0
M  V30 22 O 4.5801 -1.68148 1.10852 0
M  V30 23 C 1.6451 -2.69834 2.17693 0
M  V30 24 C 0.7061 -2.6047 3.41253 0
M  V30 25 C -0.0609 -3.88 3.66458 0
M  V30 26 O 0.1621 -4.88693 2.94169 0
M  V30 27 O -0.9039 -3.88189 4.59992 0
M  V30 28 H 2.9221 -1.0839 2.83699 0
M  V30 29 H 0.5071 -0.471301 1.41771 0
M  V30 30 H 2.3891 -3.49017 2.36147 0
M  V30 31 H 1.0641 -2.97148 1.28392 0
M  V30 32 H -0.0289 -1.79663 3.28134 0
M  V30 33 H 1.3041 -2.38106 4.30774 0
M  V30 34 N 2.9562 -1.48159 -0.537278 0
M  V30 35 C 3.8662 -1.64807 -1.6696 0
M  V30 36 C 4.8822 -0.530651 -1.65711 0
M  V30 37 O 6.0582 -0.800784 -1.84796 0
M  V30 38 C 3.1232 -1.67708 -3.03438 0
M  V30 39 C 2.1842 -2.91025 -3.156 0
M  V30 40 C 1.4172 -2.93778 -4.45567 0
M  V30 41 O 1.6402 -2.05153 -5.3223 0
M  V30 42 O 0.5742 -3.85868 -4.61941 0
M  V30 43 H 4.4002 -2.6066 -1.55853 0
M  V30 44 H 1.9852 -1.31475 -0.709549 0
M  V30 45 H 3.8672 -1.7218 -3.84619 0
M  V30 46 H 2.5422 -0.750278 -3.14885 0
M  V30 47 H 1.4492 -2.92089 -2.33741 0
M  V30 48 H 2.7822 -3.83065 -3.09066 0
M  V30 49 N 4.4343 0.785586 -1.36625 0
M  V30 50 C 5.3813 1.89838 -1.31264 0
M  V30 51 C 6.3513 1.65115 -0.180633 0
M  V30 52 O 7.5363 1.87222 -0.36777 0
M  V30 53 C 4.6763 3.26706 -1.11163 0
M  V30 54 C 3.7893 3.63476 -2.33472 0
M  V30 55 C 2.9243 4.89481 -2.06353 0
M  V30 56 C 1.9633 5.18941 -3.24602 0
M  V30 57 N 1.1003 6.36131 -2.97123 0
M  V30 58 H 5.9403 1.93756 -2.26413 0
M  V30 59 H 3.4773 0.947454 -1.12524 0
M  V30 60 H 5.4353 4.05639 -0.975337 0
M  V30 61 H 4.0653 3.222 -0.196674 0
M  V30 62 H 3.1173 2.79636 -2.57891 0
M  V30 63 H 4.4293 3.81193 -3.21704 0
M  V30 64 H 3.5833 5.76288 -1.89675 0
M  V30 65 H 2.3223 4.73841 -1.15437 0
M  V30 66 H 1.3273 4.30615 -3.41834 0
M  V30 67 H 2.5523 5.36498 -4.16349 0
M  V30 68 H 0.4983 6.21875 -2.08823 0
M  V30 69 H 0.4153 6.54198 -3.78894 0
M  V30 70 H 1.6833 7.2591 -2.84033 0
M  V30 71 N 5.9124 1.20967 1.01018 0
M  V30 72 C 6.8424 0.988272 2.11555 0
M  V30 73 C 7.8234 -0.0849778 1.69888 0
M  V30 74 O 9.0084 0.0738202 1.9406 0
M  V30 75 C 6.1384 0.546528 3.42973 0
M  V30 76 C 5.0924 1.56375 3.9841 0
M  V30 77 C 4.4184 0.97842 5.25672 0
M  V30 78 C 5.7184 2.94922 4.31066 0
M  V30 79 H 7.4124 1.91276 2.30334 0
M  V30 80 H 4.9584 0.921073 1.1069 0
M  V30 81 H 6.9114 0.378839 4.19694 0
M  V30 82 H 5.6354 -0.413598 3.23971 0
M  V30 83 H 4.2944 1.71891 3.23804 0
M  V30 84 H 3.9424 0.0101688 5.02999 0
M  V30 85 H 3.6424 1.65784 5.63728 0
M  V30 86 H 5.1664 0.821939 6.05043 0
M  V30 87 H 6.5804 2.8288 4.9865 0
M  V30 88 H 4.9774 3.5983 4.80253 0
M  V30 89 H 6.0474 3.4616 3.39561 0
M  V30 90 N 7.3905 -1.2043 1.01659 0
M  V30 91 C 8.3375 -2.23215 0.586822 0
M  V30 92 C 9.3075 -1.61382 -0.393085 0
M  V30 93 O 10.4925 -1.88544 -0.292525 0
M  V30 94 C 7.6325 -3.45032 -0.0687464 0
M  V30 95 C 6.7455 -4.21296 0.955724 0
M  V30 96 C 5.8805 -5.30507 0.271208 0
M  V30 97 C 4.9195 -5.98515 1.28244 0
M  V30 98 N 4.0565 -6.99316 0.62459 0
M  V30 99 H 8.8965 -2.59336 1.46796 0
M  V30 100 H 6.4335 -1.27431 0.734836 0
M  V30 101 H 8.3915 -4.1459 -0.465965 0
M  V30 102 H 7.0215 -3.09604 -0.913529 0
M  V30 103 H 6.0735 -3.50803 1.4711 0
M  V30 104 H 7.3855 -4.6803 1.72479 0
M  V30 105 H 6.5395 -6.06428 -0.18151 0
M  V30 106 H 5.2785 -4.8481 -0.530163 0
M  V30 107 H 4.2835 -5.21355 1.74554 0
M  V30 108 H 5.5085 -6.46298 2.08509 0
M  V30 109 H 3.4545 -6.55812 -0.156914 0
M  V30 110 H 3.3715 -7.44178 1.33172 0
M  V30 111 H 4.6395 -7.79255 0.195462 0
M  V30 112 N 8.8686 -0.792821 -1.36206 0
M  V30 113 C 9.8156 -0.191653 -2.30003 0
M  V30 114 C 10.7856 0.666453 -1.52143 0
M  V30 115 O 11.9706 0.61442 -1.80636 0
M  V30 116 C 9.1106 0.664848 -3.38635 0
M  V30 117 C 8.2236 -0.212175 -4.31479 0
M  V30 118 C 7.3586 0.651022 -5.27196 0
M  V30 119 C 6.3976 -0.227247 -6.11678 0
M  V30 120 N 5.5346 0.595127 -6.99573 0
M  V30 121 H 10.3746 -0.996978 -2.80828 0
M  V30 122 H 7.9116 -0.503206 -1.38225 0
M  V30 123 H 9.8696 1.17645 -4.00269 0
M  V30 124 H 8.4996 1.43557 -2.89122 0
M  V30 125 H 7.5516 -0.841777 -3.70969 0
M  V30 126 H 8.8636 -0.888751 -4.90818 0
M  V30 127 H 8.0176 1.2283 -5.94136 0
M  V30 128 H 6.7566 1.36121 -4.68319 0
M  V30 129 H 5.7616 -0.816904 -5.43697 0
M  V30 130 H 6.9866 -0.93509 -6.72631 0
M  V30 131 H 4.9326 1.28955 -6.432 0
M  V30 132 H 4.8496 -0.0236952 -7.55996 0
M  V30 133 H 6.1176 1.15613 -7.70879 0
M  V30 134 N 10.3467 1.47872 -0.545128 0
M  V30 135 C 11.5747 2.06889 -0.021084 0
M  V30 136 C 11.9897 1.39955 1.2672 0
M  V30 137 O 11.3467 0.492036 1.75742 0
M  V30 138 C 11.3977 3.60996 0.190817 0
M  V30 139 O 11.1187 4.25419 -1.04644 0
M  V30 140 C 12.6197 4.36849 0.753521 0
M  V30 141 H 9.8397 0.669785 -0.0403635 0
M  V30 142 H 12.3837 1.90049 -0.755095 0
M  V30 143 H 10.5387 3.77391 0.87492 0
M  V30 144 H 10.9527 5.17785 -0.836611 0
M  V30 145 H 12.4267 5.45399 0.851139 0
M  V30 146 H 12.9037 4.02306 1.762 0
M  V30 147 H 13.5097 4.25169 0.105503 0
M  V30 148 N 11.8248 0.280983 1.55075 0
M  V30 149 C 12.7718 -0.603937 2.22758 0
M  V30 150 C 13.7418 -1.1452 1.20309 0
M  V30 151 O 14.9268 -1.19343 1.48869 0
M  V30 152 C 12.0668 -1.77947 2.95684 0
M  V30 153 C 11.1798 -1.2715 4.12864 0
M  V30 154 C 10.3148 -2.4093 4.7342 0
M  V30 155 C 9.3538 -1.87165 5.82783 0
M  V30 156 N 8.4908 -2.94441 6.37377 0
M  V30 157 H 13.3308 -0.020124 2.97993 0
M  V30 158 H 10.8678 0.00183425 1.471 0
M  V30 159 H 12.8258 -2.47055 3.36184 0
M  V30 160 H 11.4558 -2.33522 2.22861 0
M  V30 161 H 10.5078 -0.473331 3.77444 0
M  V30 162 H 11.8198 -0.837751 4.91715 0
M  V30 163 H 10.9738 -3.18021 5.1667 0
M  V30 164 H 9.7128 -2.87623 3.93859 0
M  V30 165 H 8.7178 -1.08556 5.38976 0
M  V30 166 H 9.9428 -1.41401 6.64216 0
M  V30 167 H 7.8888 -3.40505 5.60707 0
M  V30 168 H 7.8058 -2.55501 7.11516 0
M  V30 169 H 9.0738 -3.71489 6.85285 0
M  V30 170 N 13.3029 -1.57598 0.00835791 0
M  V30 171 C 14.5519 -1.90107 -0.673968 0
M  V30 172 C 14.8649 -0.884275 -1.7447 0
M  V30 173 O 16.0709 -1.09987 -2.48224 0
M  V30 174 C 14.5269 -3.37497 -1.24995 0
M  V30 175 C 14.1349 -4.47491 -0.2136 0
M  V30 176 C 15.8789 -3.79104 -1.90999 0
M  V30 177 C 13.7859 -5.85963 -0.80005 0
M  V30 178 H 12.7159 -0.709393 -0.255495 0
M  V30 179 H 15.3669 -1.83365 0.0702693 0
M  V30 180 H 13.7489 -3.39102 -2.04513 0
M  V30 181 H 14.9229 -4.57414 0.557596 0
M  V30 182 H 13.2379 -4.14956 0.346474 0
M  V30 183 H 15.8349 -4.79901 -2.35795 0
M  V30 184 H 16.1779 -3.1306 -2.74407 0
M  V30 185 H 16.7109 -3.79833 -1.18203 0
M  V30 186 H 13.4499 -6.555 -0.00456708 0
M  V30 187 H 12.9699 -5.79687 -1.54021 0
M  V30 188 H 14.6489 -6.33884 -1.29615 0
M  V30 189 N 14.781 0.264519 -1.55364 0
M  V30 190 C 16.03 0.992812 -1.75574 0
M  V30 191 C 16.343 1.87142 -0.568979 0
M  V30 192 O 17.549 2.63513 -0.653682 0
M  V30 193 C 16.005 1.81519 -3.10771 0
M  V30 194 C 15.613 0.984839 -4.37041 0
M  V30 195 C 17.357 2.53727 -3.40327 0
M  V30 196 C 15.264 1.80209 -5.63275 0
M  V30 197 H 14.194 0.374412 -0.65447 0
M  V30 198 H 16.845 0.248138 -1.81815 0
M  V30 199 H 15.227 2.60115 -2.98591 0
M  V30 200 H 16.401 0.242455 -4.60162 0
M  V30 201 H 14.716 0.37691 -4.14691 0
M  V30 202 H 17.313 3.15292 -4.3185 0
M  V30 203 H 17.656 3.24447 -2.60845 0
M  V30 204 H 18.189 1.82156 -3.53644 0
M  V30 205 H 14.928 1.13896 -6.45529 0
M  V30 206 H 14.448 2.52022 -5.44284 0
M  V30 207 H 16.127 2.37364 -6.01887 0
M  V30 208 N 16.2591 1.48442 0.529413 0
M  V30 209 C 17.5061 1.56488 1.28521 0
M  V30 210 C 17.8341 0.239042 1.93025 0
M  V30 211 O 17.0891 -0.770713 1.79885 0
M  V30 212 C 17.3881 2.6523 2.39558 0
M  V30 213 C 17.0541 4.07648 1.92702 0
M  V30 214 C 15.7161 4.46411 1.79641 0
M  V30 215 C 18.0681 4.96896 1.573 0
M  V30 216 C 15.3961 5.72226 1.29514 0
M  V30 217 C 17.7481 6.23202 1.08636 0
M  V30 218 C 16.4121 6.60821 0.941919 0
M  V30 219 H 15.6821 0.572631 0.470292 0
M  V30 220 H 18.3291 1.82161 0.59072 0
M  V30 221 H 16.6341 2.33419 3.14679 0
M  V30 222 H 18.3311 2.68671 2.97686 0
M  V30 223 H 14.9211 3.77036 2.03819 0
M  V30 224 H 19.1051 4.67626 1.66251 0
M  V30 225 H 14.3611 6.00097 1.17019 0
M  V30 226 H 18.5351 6.91753 0.803136 0
M  V30 227 H 16.1621 7.58198 0.5513 0
M  V30 228 N 17.7372 -0.778329 1.37039 0
M  V30 229 C 18.9832 -1.53892 1.32079 0
M  V30 230 C 19.3162 -1.9396 -0.0965386 0
M  V30 231 O 18.5912 -1.63568 -1.05242 0
M  V30 232 C 18.8742 -2.80847 2.25382 0
M  V30 233 C 18.7272 -2.47076 3.75864 0
M  V30 234 C 20.0462 -3.82741 2.1725 0
M  V30 235 H 17.1652 -0.558303 0.48111 0
M  V30 236 H 19.8072 -0.893397 1.67685 0
M  V30 237 H 17.9572 -3.35931 1.95148 0
M  V30 238 H 19.6292 -1.97957 4.16666 0
M  V30 239 H 17.8722 -1.79863 3.94755 0
M  V30 240 H 18.5432 -3.37798 4.36574 0
M  V30 241 H 21.0192 -3.37133 2.43887 0
M  V30 242 H 19.8952 -4.69303 2.84686 0
M  V30 243 H 20.1562 -4.2652 1.16331 0
M  V30 244 N 19.2153 -1.21501 -1.00376 0
M  V30 245 C 20.4613 -1.03452 -1.74429 0
M  V30 246 C 20.7943 0.430764 -1.89362 0
M  V30 247 O 20.0693 1.31962 -1.42886 0
M  V30 248 C 20.3523 -1.73375 -3.15615 0
M  V30 249 C 20.2053 -3.27431 -3.08397 0
M  V30 250 C 21.5243 -1.47732 -4.14564 0
M  V30 251 H 18.6433 -0.377226 -0.633143 0
M  V30 252 H 21.2853 -1.49693 -1.17013 0
M  V30 253 H 19.4353 -1.34064 -3.64636 0
M  V30 254 H 21.1073 -3.76119 -2.67081 0
M  V30 255 H 19.3503 -3.5767 -2.45468 0
M  V30 256 H 20.0213 -3.71524 -4.08258 0
M  V30 257 H 22.4973 -1.8186 -3.74254 0
M  V30 258 H 21.3733 -1.99169 -5.11491 0
M  V30 259 H 21.6343 -0.407589 -4.40217 0
M  V30 260 N 20.6934 1.19889 -1.02296 0
M  V30 261 C 21.9414 1.89046 -0.714558 0
M  V30 262 C 22.2624 1.79636 0.758681 0
M  V30 263 O 21.5324 1.20292 1.54618 0
M  V30 264 H 20.1124 0.699802 -0.261317 0
M  V30 265 H 22.7744 1.45574 -1.29592 0
M  V30 266 H 21.8704 2.95524 -1.0036 0
M  V30 267 N 22.1715 0.800033 1.35784 0
M  V30 268 C 23.4195 0.376597 1.9856 0
M  V30 269 C 23.7405 -1.05812 1.63795 0
M  V30 270 O 23.0105 -1.73103 0.917171 0
M  V30 271 H 21.5905 0.136261 0.734467 0
M  V30 272 H 24.2525 1.02442 1.65806 0
M  V30 273 H 23.3485 0.477002 3.08433 0
M  V30 274 N 23.6496 -1.47581 0.552962 0
M  V30 275 C 25.0606 -1.86324 0.118463 0
M  V30 276 C 25.4116 -1.46006 -1.3106 0
M  V30 277 O 24.5366 -0.861182 -1.98526 0
M  V30 278 C 25.1316 -3.3816 0.20821 0
M  V30 279 C 23.6906 -3.7601 -0.171226 0
M  V30 280 C 22.8376 -2.71634 0.557686 0
M  V30 281 H 25.7886 -1.39159 0.762928 0
M  V30 282 H 25.8096 -3.76141 -0.574278 0
M  V30 283 H 25.3216 -3.67473 1.24841 0
M  V30 284 H 23.4226 -3.52313 -1.21269 0
M  V30 285 H 23.5356 -4.78745 0.184379 0
M  V30 286 H 21.8996 -2.547 0.00125792 0
M  V30 287 H 22.6826 -3.0379 1.59896 0
M  V30 288 N 25.1277 -0.289203 -1.54924 0
M  V30 289 C 26.3757 0.322879 -1.99504 0
M  V30 290 C 26.6967 1.55313 -1.1791 0
M  V30 291 O 25.9667 1.94001 -0.272097 0
M  V30 292 H 24.5467 0.122291 -0.736922 0
M  V30 293 H 27.2087 -0.397802 -1.90797 0
M  V30 294 H 26.3047 0.603061 -3.06218 0
M  V30 295 N 26.6058 1.57591 -0.0167156 0
M  V30 296 C 27.8308 1.9598 0.67872 0
M  V30 297 C 28.2558 0.892546 1.65575 0
M  V30 298 O 27.6138 -0.147772 1.80697 0
M  V30 299 C 27.6618 3.33468 1.37227 0
M  V30 300 O 26.7658 3.28954 2.48722 0
M  V30 301 H 26.1068 0.639339 0.17928 0
M  V30 302 H 28.6368 2.04463 -0.0748802 0
M  V30 303 H 28.6468 3.69417 1.7319 0
M  V30 304 H 27.3218 4.10694 0.656007 0
M  V30 305 H 25.8988 3.04705 2.14963 0
M  V30 306 N 28.0839 -0.256276 1.55502 0
M  V30 307 C 29.3319 -0.983672 1.76545 0
M  V30 308 C 29.6529 -1.86206 0.578982 0
M  V30 309 O 28.9229 -1.91656 -0.405577 0
M  V30 310 H 27.5029 -0.366191 0.651086 0
M  V30 311 H 30.1649 -0.276479 1.92929 0
M  V30 312 H 29.2609 -1.61087 2.67315 0
M  V30 313 N 29.562 -1.4872 -0.521534 0
M  V30 314 C 30.509 -1.63871 -1.62527 0
M  V30 315 C 31.479 -0.480559 -1.58996 0
M  V30 316 O 32.664 -0.705085 -1.77294 0
M  V30 317 C 29.804 -1.69227 -3.00759 0
M  V30 318 C 28.917 -2.96207 -3.14461 0
M  V30 319 C 28.052 -2.92671 -4.43303 0
M  V30 320 C 27.091 -4.14318 -4.50563 0
M  V30 321 N 26.228 -4.0881 -5.70805 0
M  V30 322 H 31.068 -2.58123 -1.48918 0
M  V30 323 H 28.605 -1.28 -0.724878 0
M  V30 324 H 30.563 -1.70314 -3.80853 0
M  V30 325 H 29.193 -0.784586 -3.1312 0
M  V30 326 H 28.245 -3.04826 -2.27564 0
M  V30 327 H 29.557 -3.86192 -3.15686 0
M  V30 328 H 28.711 -2.92206 -5.31696 0
M  V30 329 H 27.45 -2.00429 -4.44612 0
M  V30 330 H 26.455 -4.15049 -3.60575 0
M  V30 331 H 27.68 -5.07729 -4.50986 0
M  V30 332 H 25.626 -3.19394 -5.72995 0
M  V30 333 H 25.543 -4.92509 -5.7356 0
M  V30 334 H 26.811 -4.12418 -6.61462 0
M  V30 335 N 31.0401 0.771051 -1.3745 0
M  V30 336 C 32.2881 1.52661 -1.32435 0
M  V30 337 C 32.6091 1.9479 0.0905024 0
M  V30 338 O 31.8791 1.66348 1.03466 0
M  V30 339 H 30.4591 0.566218 -0.487244 0
M  V30 340 H 33.1211 0.917636 -1.71946 0
M  V30 341 H 32.2171 2.42568 -1.96385 0
M  V30 342 N 32.5182 1.22032 0.997298 0
M  V30 343 C 33.7462 1.06841 1.7718 0
M  V30 344 C 34.1612 -0.381325 1.84909 0
M  V30 345 O 33.5182 -1.26437 1.31605 0
M  V30 346 C 33.5692 1.66814 3.20711 0
M  V30 347 O 33.2902 3.06116 3.13408 0
M  V30 348 C 34.7912 1.56838 4.14628 0
M  V30 349 H 32.0112 0.374782 0.556578 0
M  V30 350 H 34.5552 1.61532 1.2541 0
M  V30 351 H 32.7102 1.16196 3.69564 0
M  V30 352 H 33.1242 3.34926 4.0364 0
M  V30 353 H 34.5982 2.03532 5.13107 0
M  V30 354 H 35.0752 0.524155 4.36061 0
M  V30 355 H 35.6812 2.06741 3.7167 0
M  V30 356 N 33.9963 -1.19345 1.0293 0
M  V30 357 C 34.9283 -2.22036 0.56857 0
M  V30 358 C 35.9413 -1.58865 -0.355779 0
M  V30 359 O 37.1303 -1.77851 -0.152103 0
M  V30 360 C 34.2303 -3.38363 -0.190752 0
M  V30 361 C 33.4033 -4.31118 0.738643 0
M  V30 362 C 32.4623 -5.26194 0.0246497 0
M  V30 363 O 31.4883 -5.65461 0.651354 0
M  V30 364 N 32.6903 -5.66971 -1.24594 0
M  V30 365 H 35.4553 -2.6219 1.45177 0
M  V30 366 H 33.0163 -1.34015 0.908381 0
M  V30 367 H 35.0083 -3.98981 -0.677961 0
M  V30 368 H 33.5783 -2.96994 -0.975366 0
M  V30 369 H 32.7983 -3.68276 1.40593 0
M  V30 370 H 34.0863 -4.90001 1.37029 0
M  V30 371 H 33.4843 -5.37104 -1.77583 0
M  V30 372 H 32.0413 -6.2984 -1.67764 0
M  V30 373 N 35.4744 -0.807222 -1.35358 0
M  V30 374 C 36.7144 -0.393534 -2.00576 0
M  V30 375 C 37.0784 1.0203 -1.62647 0
M  V30 376 O 38.2794 1.53603 -2.20589 0
M  V30 377 C 36.5504 -0.572017 -3.52793 0
M  V30 378 S 38.1094 -0.248845 -4.38094 0
M  V30 379 H 34.9274 -0.149425 -0.695121 0
M  V30 380 H 37.5294 -1.04961 -1.64935 0
M  V30 381 H 36.2334 -1.60097 -3.77885 0
M  V30 382 H 35.7644 0.099359 -3.93275 0
M  V30 383 H 37.7794 0.943253 -4.87152 0
M  V30 384 N 36.9525 1.47285 -0.560781 0
M  V30 385 C 37.8625 2.33846 0.187954 0
M  V30 386 C 38.8785 1.48412 0.908293 0
M  V30 387 O 40.0545 1.81332 0.876388 0
M  V30 388 C 37.1195 3.25178 1.2025 0
M  V30 389 C 36.1805 4.26504 0.489208 0
M  V30 390 C 35.4135 5.13472 1.45542 0
M  V30 391 O 35.6365 5.02959 2.6905 0
M  V30 392 O 34.5705 5.93902 0.977963 0
M  V30 393 H 38.3965 2.99177 -0.522177 0
M  V30 394 H 35.9815 1.45903 -0.321364 0
M  V30 395 H 37.8635 3.81584 1.78805 0
M  V30 396 H 36.5385 2.6247 1.89449 0
M  V30 397 H 35.4455 3.73847 -0.137627 0
M  V30 398 H 36.7785 4.91935 -0.161399 0
M  V30 399 N 38.4306 0.297415 1.54768 0
M  V30 400 C 39.3776 -0.580276 2.23386 0
M  V30 401 C 40.3476 -1.13238 1.21517 0
M  V30 402 O 41.5326 -1.17757 1.50126 0
M  V30 403 C 38.6726 -1.74801 2.97555 0
M  V30 404 C 37.7856 -1.22764 4.1419 0
M  V30 405 C 36.9206 -2.35895 4.75949 0
M  V30 406 C 35.9596 -1.80974 5.84735 0
M  V30 407 N 35.0966 -2.87664 6.40464 0
M  V30 408 H 39.9366 0.0114833 2.97998 0
M  V30 409 H 37.4736 0.0174361 1.4709 0
M  V30 410 H 39.4316 -2.43475 3.38786 0
M  V30 411 H 38.0616 -2.31145 2.25326 0
M  V30 412 H 37.1136 -0.433271 3.77924 0
M  V30 413 H 38.4256 -0.785551 4.92575 0
M  V30 414 H 37.5796 -3.12523 5.20014 0
M  V30 415 H 36.3186 -2.83429 3.96887 0
M  V30 416 H 35.3236 -1.02834 5.40097 0
M  V30 417 H 36.5486 -1.34348 6.65678 0
M  V30 418 H 34.4946 -3.34538 5.64287 0
M  V30 419 H 34.4116 -2.4794 7.14186 0
M  V30 420 H 35.6796 -3.642 6.89187 0
M  V30 421 N 39.9087 -1.5758 0.0250728 0
M  V30 422 C 41.1577 -1.90811 -0.653767 0
M  V30 423 C 41.4707 -0.90273 -1.73523 0
M  V30 424 O 42.6767 -1.12614 -2.47043 0
M  V30 425 C 41.1327 -3.38804 -1.21409 0
M  V30 426 C 40.7407 -4.47692 -0.166126 0
M  V30 427 C 42.4847 -3.81108 -1.86967 0
M  V30 428 C 40.3917 -5.86779 -0.737856 0
M  V30 429 H 39.3217 -0.712063 -0.247956 0
M  V30 430 H 41.9727 -1.83281 0.0897137 0
M  V30 431 H 40.3547 -3.41252 -2.00905 0
M  V30 432 H 41.5287 -4.56797 0.606079 0
M  V30 433 H 39.8437 -4.14565 0.390466 0
M  V30 434 H 42.4407 -4.82375 -2.30692 0
M  V30 435 H 42.7837 -3.15953 -2.71071 0
M  V30 436 H 43.3167 -3.81065 -1.14167 0
M  V30 437 H 40.0557 -6.55468 0.0649577 0
M  V30 438 H 39.5757 -5.81288 -1.47864 0
M  V30 439 H 41.2547 -6.35223 -1.22884 0
M  V30 440 N 41.3868 0.248026 -1.55636 0
M  V30 441 C 42.6328 0.97767 -1.77678 0
M  V30 442 C 42.9658 1.85016 -0.590135 0
M  V30 443 O 42.2408 1.90095 0.411611 0
M  V30 444 C 42.5238 1.83914 -3.09593 0
M  V30 445 C 42.3768 0.99491 -4.38659 0
M  V30 446 C 43.6958 2.82183 -3.37729 0
M  V30 447 H 40.8148 0.354005 -0.646413 0
M  V30 448 H 43.4568 0.248253 -1.88371 0
M  V30 449 H 41.6068 2.46104 -3.00608 0
M  V30 450 H 43.2788 0.391789 -4.59633 0
M  V30 451 H 41.5218 0.299231 -4.32767 0
M  V30 452 H 42.1928 1.63145 -5.2734 0
M  V30 453 H 44.6688 2.30129 -3.4667 0
M  V30 454 H 43.5448 3.39582 -4.31249 0
M  V30 455 H 43.8058 3.58588 -2.58586 0
M  V30 456 N 42.8649 1.48995 0.513639 0
M  V30 457 C 43.7969 1.60836 1.63293 0
M  V30 458 C 44.8099 0.491701 1.55197 0
M  V30 459 O 45.9989 0.763238 1.6136 0
M  V30 460 C 43.0989 1.53731 3.02027 0
M  V30 461 C 42.2719 2.80715 3.35437 0
M  V30 462 C 41.3309 2.66837 4.53525 0
M  V30 463 O 40.3569 3.40753 4.55934 0
M  V30 464 N 41.5589 1.77539 5.52684 0
M  V30 465 H 44.3239 2.57366 1.53566 0
M  V30 466 H 41.8849 1.45925 0.701259 0
M  V30 467 H 43.8769 1.42118 3.78926 0
M  V30 468 H 42.4469 0.651092 3.05744 0
M  V30 469 H 41.6669 3.06772 2.47557 0
M  V30 470 H 42.9549 3.64927 3.54551 0
M  V30 471 H 42.3529 1.16719 5.53528 0
M  V30 472 H 40.9099 1.71856 6.28736 0
M  V30 473 N 44.343 -0.763751 1.37857 0
M  V30 474 C 45.29 -1.87726 1.34267 0
M  V30 475 C 46.26 -1.64807 0.206879 0
M  V30 476 O 47.445 -1.86613 0.397508 0
M  V30 477 C 44.585 -3.24896 1.16346 0
M  V30 478 C 43.698 -3.59716 2.39225 0
M  V30 479 C 42.833 -4.86137 2.14114 0
M  V30 480 C 41.872 -5.13711 3.32817 0
M  V30 481 N 41.009 -6.31323 3.07206 0
M  V30 482 H 45.849 -1.90129 2.29466 0
M  V30 483 H 43.386 -0.929433 1.14017 0
M  V30 484 H 45.344 -4.04036 1.03975 0
M  V30 485 H 43.974 -3.21847 0.247909 0
M  V30 486 H 43.026 -2.75498 2.62307 0
M  V30 487 H 44.338 -3.76027 3.27728 0
M  V30 488 H 43.492 -5.73198 1.9882 0
M  V30 489 H 42.231 -4.71945 1.22961 0
M  V30 490 H 41.236 -4.25123 3.48641 0
M  V30 491 H 42.461 -5.29807 4.24832 0
M  V30 492 H 40.407 -6.18474 2.1869 0
M  V30 493 H 40.324 -6.48087 3.89254 0
M  V30 494 H 41.592 -7.213 2.95546 0
M  V30 495 N 45.8211 -1.22559 -0.990812 0
M  V30 496 C 47.0511 -1.07623 -1.76355 0
M  V30 497 C 47.4591 0.37601 -1.85426 0
M  V30 498 O 46.8021 1.27228 -1.32509 0
M  V30 499 C 46.8641 -1.61507 -3.21179 0
M  V30 500 C 46.5281 -3.10146 -3.35646 0
M  V30 501 C 47.5251 -4.07553 -3.22796 0
M  V30 502 C 45.2101 -3.49644 -3.60631 0
M  V30 503 C 47.2041 -5.42442 -3.34716 0
M  V30 504 C 44.8911 -4.84682 -3.72192 0
M  V30 505 C 45.8891 -5.8089 -3.59243 0
M  V30 506 O 45.5771 -7.13476 -3.70415 0
M  V30 507 H 45.3091 -0.377745 -0.560611 0
M  V30 508 H 47.8631 -1.62658 -1.25425 0
M  V30 509 H 46.0931 -1.00881 -3.73309 0
M  V30 510 H 47.7821 -1.42202 -3.80175 0
M  V30 511 H 48.5481 -3.78381 -3.03403 0
M  V30 512 H 44.4271 -2.75282 -3.69785 0
M  V30 513 H 47.9711 -6.17518 -3.24526 0
M  V30 514 H 43.8681 -5.13534 -3.91092 0
M  V30 515 H 44.6361 -7.21083 -3.87275 0
M  V30 516 N 47.2992 1.18797 -1.03562 0
M  V30 517 C 48.5472 1.88278 -0.734569 0
M  V30 518 C 48.8682 1.8043 0.739586 0
M  V30 519 O 48.1382 1.21925 1.53333 0
M  V30 520 H 46.7182 0.696991 -0.268725 0
M  V30 521 H 49.3802 1.44192 -1.31129 0
M  V30 522 H 48.4762 2.94443 -1.03489 0
M  V30 523 N 48.7773 0.814389 1.34928 0
M  V30 524 C 50.0073 0.41054 2.0248 0
M  V30 525 C 50.4153 -0.985625 1.61499 0
M  V30 526 O 49.7583 -1.64781 0.811976 0
M  V30 527 C 49.8203 0.423384 3.56998 0
M  V30 528 C 49.4843 1.77141 4.21272 0
M  V30 529 C 50.4813 2.73093 4.42398 0
M  V30 530 C 48.1663 2.05755 4.58225 0
M  V30 531 C 50.1603 3.95838 4.9959 0
M  V30 532 C 47.8473 3.28762 5.1513 0
M  V30 533 C 48.8453 4.23621 5.35755 0
M  V30 534 O 48.5333 5.44456 5.91458 0
M  V30 535 H 48.2653 0.163997 0.655806 0
M  V30 536 H 50.8193 1.10155 1.73364 0
M  V30 537 H 49.0493 -0.324276 3.85338 0
M  V30 538 H 50.7383 0.0407683 4.0588 0
M  V30 539 H 51.5043 2.5228 4.14222 0
M  V30 540 H 47.3833 1.32727 4.4148 0
M  V30 541 H 50.9273 4.69891 5.15605 0
M  V30 542 H 46.8243 3.49443 5.42734 0
M  V30 543 H 47.5923 5.4586 6.09901 0
M  V30 544 N 50.2554 -1.46986 0.568584 0
M  V30 545 C 51.4834 -2.0683 0.0539956 0
M  V30 546 C 51.8984 -1.41953 -1.24478 0
M  V30 547 O 51.2554 -0.519933 -1.74937 0
M  V30 548 C 51.3064 -3.61254 -0.133362 0
M  V30 549 O 51.0274 -4.237 1.11399 0
M  V30 550 C 52.5284 -4.37992 -0.683927 0
M  V30 551 H 49.7484 -0.669058 0.0510141 0
M  V30 552 H 52.2924 -1.88824 0.785234 0
M  V30 553 H 50.4474 -3.78735 -0.81477 0
M  V30 554 H 50.8614 -5.16388 0.91888 0
M  V30 555 H 52.3354 -5.46684 -0.764263 0
M  V30 556 H 52.8124 -4.05058 -1.69778 0
M  V30 557 H 53.4184 -4.25283 -0.0378494 0
M  V30 558 N 51.7335 -0.305618 -1.54608 0
M  V30 559 C 52.6835 0.583595 -2.20405 0
M  V30 560 C 53.6675 1.09539 -1.17856 0
M  V30 561 O 54.8595 1.0354 -1.43557 0
M  V30 562 C 51.9885 1.75277 -2.95183 0
M  V30 563 C 51.0745 1.25672 -4.05052 0
M  V30 564 N 51.4655 0.478998 -5.03527 0
M  V30 565 C 49.7635 1.53704 -4.18678 0
M  V30 566 C 50.4645 0.214269 -5.81305 0
M  V30 567 N 49.4405 0.795374 -5.3775 0
M  V30 568 H 53.2425 -0.0180946 -2.93894 0
M  V30 569 H 50.7565 -0.110601 -1.62023 0
M  V30 570 H 52.7535 2.4014 -3.40791 0
M  V30 571 H 51.4135 2.35812 -2.23211 0
M  V30 572 H 52.4245 0.123473 -5.17753 0
M  V30 573 H 49.1015 2.14954 -3.57912 0
M  V30 574 H 50.4915 -0.410656 -6.70644 0
M  V30 575 N 53.2116 1.57565 -0.0334293 0
M  V30 576 C 54.1416 2.13511 0.945265 0
M  V30 577 C 55.1226 1.05231 1.33643 0
M  V30 578 O 56.3076 1.33084 1.41429 0
M  V30 579 C 53.4376 2.6657 2.22616 0
M  V30 580 C 52.3916 3.79676 1.97561 0
M  V30 581 C 51.7176 4.1918 3.31952 0
M  V30 582 C 53.0176 5.0557 1.31135 0
M  V30 583 H 54.7116 2.95538 0.479325 0
M  V30 584 H 52.2576 1.42166 0.229115 0
M  V30 585 H 54.2106 3.04344 2.91466 0
M  V30 586 H 52.9346 1.8171 2.71384 0
M  V30 587 H 51.5936 3.42347 1.31127 0
M  V30 588 H 51.2416 3.31296 3.78487 0
M  V30 589 H 50.9416 4.95402 3.15992 0
M  V30 590 H 52.4656 4.59541 4.02063 0
M  V30 591 H 53.8796 5.40903 1.89992 0
M  V30 592 H 52.2766 5.86818 1.25559 0
M  V30 593 H 53.3466 4.84062 0.284894 0
M  V30 594 N 54.6897 -0.239769 1.55765 0
M  V30 595 C 55.9147 -0.988373 1.82335 0
M  V30 596 C 56.3397 -1.77886 0.611421 0
M  V30 597 O 55.6977 -1.75889 -0.439639 0
M  V30 598 C 55.7457 -1.89627 3.06715 0
M  V30 599 O 54.8497 -2.98904 2.84131 0
M  V30 600 H 54.1907 -0.280858 0.601677 0
M  V30 601 H 56.7207 -0.258597 2.02959 0
M  V30 602 H 56.7307 -2.30957 3.36338 0
M  V30 603 H 55.4057 -1.31511 3.9456 0
M  V30 604 H 53.9827 -2.61651 2.65694 0
M  V30 605 N 56.1678 -1.49265 -0.50573 0
M  V30 606 C 57.3958 -1.62215 -1.28429 0
M  V30 607 C 57.8108 -0.291697 -1.86533 0
M  V30 608 O 57.1678 0.722233 -1.67601 0
M  V30 609 C 57.2188 -2.68735 -2.41793 0
M  V30 610 O 56.9398 -3.96619 -1.86078 0
M  V30 611 C 58.4408 -2.92346 -3.3324 0
M  V30 612 H 55.6608 -0.546239 -0.389697 0
M  V30 613 H 58.2048 -1.95265 -0.607609 0
M  V30 614 H 56.3598 -2.38476 -3.053 0
M  V30 615 H 56.7738 -4.55256 -2.60465 0
M  V30 616 H 58.2478 -3.70623 -4.09075 0
M  V30 617 H 58.7248 -2.02081 -3.89948 0
M  V30 618 H 59.3308 -3.24003 -2.75503 0
M  V30 619 N 57.6459 0.756429 -1.3826 0
M  V30 620 C 58.8939 1.51248 -1.34047 0
M  V30 621 C 59.2149 1.94875 0.0698372 0
M  V30 622 O 58.4849 1.67436 1.01696 0
M  V30 623 H 57.0649 0.561018 -0.493222 0
M  V30 624 H 59.7269 0.899347 -1.7291 0
M  V30 625 H 58.8229 2.40472 -1.98947 0
M  V30 626 N 59.124 1.23083 0.984299 0
M  V30 627 C 60.401 0.9689 1.69917 0
M  V30 628 C 60.781 -0.513604 2.04757 0
M  V30 629 O 60.129 -1.48383 1.73767 0
M  V30 630 C 60.339 1.87518 2.94343 0
M  V30 631 C 61.687 2.13636 3.6694 0
M  V30 632 O 62.711 1.85036 3.04368 0
M  V30 633 O 61.57 2.62119 4.79537 0
M  V30 634 H 58.664 0.365095 0.742048 0
M  V30 635 H 61.21 1.34107 1.03987 0
M  V30 636 H 59.982 2.87756 2.65164 0
M  V30 637 H 59.605 1.50514 3.6801 0
M  V30 638 N 60.6021 -1.18246 1.0419 0
M  V30 639 C 61.5321 -2.24127 0.654914 0
M  V30 640 C 62.5131 -1.66617 -0.342451 0
M  V30 641 O 63.6981 -1.92924 -0.222277 0
M  V30 642 C 60.8281 -3.47295 0.0183757 0
M  V30 643 C 59.7821 -4.17563 0.939414 0
M  V30 644 C 59.1081 -5.34438 0.167286 0
M  V30 645 C 60.4081 -4.70917 2.25908 0
M  V30 646 H 62.1021 -2.56753 1.54007 0
M  V30 647 H 59.6481 -1.23414 0.74195 0
M  V30 648 H 61.6011 -4.20572 -0.264082 0
M  V30 649 H 60.3251 -3.13907 -0.901664 0
M  V30 650 H 58.9841 -3.46186 1.20628 0
M  V30 651 H 58.6321 -4.97298 -0.7552 0
M  V30 652 H 58.3321 -5.82388 0.780901 0
M  V30 653 H 59.8561 -6.10504 -0.108125 0
M  V30 654 H 61.2701 -5.35882 2.03724 0
M  V30 655 H 59.6671 -5.29406 2.82577 0
M  V30 656 H 60.7371 -3.88272 2.9047 0
M  V30 657 N 62.0802 -0.821533 -1.34494 0
M  V30 658 C 63.0102 -0.257138 -2.3208 0
M  V30 659 C 63.9912 0.625645 -1.58176 0
M  V30 660 O 65.1762 0.552811 -1.86166 0
M  V30 661 C 62.3062 0.582958 -3.42372 0
M  V30 662 C 61.2602 -0.202571 -4.2752 0
M  V30 663 C 60.5862 0.760179 -5.29269 0
M  V30 664 C 61.8862 -1.40998 -5.02908 0
M  V30 665 H 63.5802 -1.07247 -2.79532 0
M  V30 666 H 61.1262 -0.517163 -1.34393 0
M  V30 667 H 63.0792 0.987972 -4.09655 0
M  V30 668 H 61.8032 1.43133 -2.93565 0
M  V30 669 H 60.4622 -0.588936 -3.61838 0
M  V30 670 H 60.1102 1.60447 -4.76724 0
M  V30 671 H 59.8102 0.238809 -5.87115 0
M  V30 672 H 61.3342 1.16308 -5.9942 0
M  V30 673 H 62.7482 -1.07905 -5.63054 0
M  V30 674 H 61.1452 -1.86689 -5.70322 0
M  V30 675 H 62.2152 -2.1889 -4.32684 0
M  V30 676 N 63.5583 1.46682 -0.576371 0
M  V30 677 C 64.9743 1.57822 -0.237562 0
M  V30 678 C 65.1743 1.57237 1.26011 0
M  V30 679 O 64.2303 1.48596 2.04146 0
M  V30 680 C 65.5433 2.87499 -0.881168 0
M  V30 681 C 67.0913 3.01119 -0.85417 0
M  V30 682 C 67.5663 4.33524 -1.4772 0
M  V30 683 N 69.0573 4.40207 -1.44125 0
M  V30 684 C 69.7923 5.4126 -1.89276 0
M  V30 685 N 69.2883 6.49021 -2.42371 0
M  V30 686 N 71.0813 5.32422 -1.80231 0
M  V30 687 H 63.2323 1.45306 -1.54919 0
M  V30 688 H 65.4953 0.692733 -0.647167 0
M  V30 689 H 65.2013 2.9372 -1.93447 0
M  V30 690 H 65.0753 3.75224 -0.385592 0
M  V30 691 H 67.4623 2.94485 0.190491 0
M  V30 692 H 67.5433 2.14887 -1.3877 0
M  V30 693 H 67.1873 4.40916 -2.52103 0
M  V30 694 H 67.1173 5.1852 -0.918947 0
M  V30 695 H 69.6083 3.62931 -1.05307 0
M  V30 696 H 69.9213 7.2233 -2.74698 0
M  V30 697 H 68.2663 6.49858 -2.46393 0
M  V30 698 H 71.4573 4.47137 -1.38514 0
M  V30 699 H 71.6303 6.11034 -2.15735 0
M  V30 700 N 65.0364 0.313813 1.54444 0
M  V30 701 C 66.2614 -0.296681 2.05267 0
M  V30 702 C 66.6864 -1.45757 1.18897 0
M  V30 703 O 66.0444 -1.80239 0.195886 0
M  V30 704 C 66.0924 -0.71831 3.53373 0
M  V30 705 O 65.1964 -1.82175 3.69981 0
M  V30 706 H 64.5374 -0.0554061 0.661684 0
M  V30 707 H 67.0674 0.459387 1.99376 0
M  V30 708 H 67.0774 -1.00364 3.95463 0
M  V30 709 H 65.7524 0.130821 4.15694 0
M  V30 710 H 64.3294 -1.53598 3.39797 0
M  V30 711 N 66.5145 -1.57545 0.0417849 0
M  V30 712 C 67.4245 -2.14451 -0.951213 0
M  V30 713 C 68.4405 -1.09992 -1.34825 0
M  V30 714 O 69.6165 -1.42114 -1.42708 0
M  V30 715 C 66.6815 -2.67063 -2.21084 0
M  V30 716 C 65.7425 -3.86284 -1.87304 0
M  V30 717 C 64.9755 -4.36378 -3.07261 0
M  V30 718 O 65.1985 -3.85587 -4.20332 0
M  V30 719 O 64.1325 -5.28077 -2.88822 0
M  V30 720 H 67.9585 -2.99601 -0.497287 0
M  V30 721 H 65.5435 -1.48317 -0.179567 0
M  V30 722 H 67.4255 -3.00914 -2.95006 0
M  V30 723 H 66.1005 -1.84989 -2.65633 0
M  V30 724 H 65.0075 -3.57338 -1.10727 0
M  V30 725 H 66.3405 -4.6956 -1.47562 0
M  V30 726 N 67.9926 0.231505 -1.5589 0
M  V30 727 C 69.2386 0.95877 -1.78705 0
M  V30 728 C 69.5716 1.8438 -0.609725 0
M  V30 729 O 68.8466 1.90521 0.391426 0
M  V30 730 C 69.1296 1.8062 -3.11526 0
M  V30 731 C 68.9826 0.948328 -4.39689 0
M  V30 732 C 70.3016 2.78585 -3.40703 0
M  V30 733 H 67.4206 0.347129 -0.650131 0
M  V30 734 H 70.0626 0.228259 -1.88624 0
M  V30 735 H 68.2126 2.42902 -3.03201 0
M  V30 736 H 69.8846 0.343016 -4.60023 0
M  V30 737 H 68.1276 0.253314 -4.3306 0
M  V30 738 H 68.7986 1.57543 -5.29041 0
M  V30 739 H 71.2746 2.26439 -3.49091 0
M  V30 740 H 70.1506 3.34988 -4.34826 0
M  V30 741 H 70.4116 3.55825 -2.62375 0
M  V30 742 N 69.4707 1.49531 0.497807 0
M  V30 743 C 70.6957 1.63159 1.28039 0
M  V30 744 C 71.1207 0.30418 1.85624 0
M  V30 745 O 70.4787 -0.728618 1.66015 0
M  V30 746 C 70.5267 2.70537 2.38416 0
M  V30 747 O 69.6307 2.29931 3.42353 0
M  V30 748 H 68.9717 0.546001 0.377861 0
M  V30 749 H 71.5017 1.9574 0.59558 0
M  V30 750 H 71.5117 2.92802 2.84132 0
M  V30 751 H 70.1867 3.6689 1.95869 0
M  V30 752 H 68.7637 2.18009 3.02533 0
M  V30 753 N 70.9488 -0.749086 1.3866 0
M  V30 754 C 72.1738 -1.54344 1.38538 0
M  V30 755 C 72.5988 -1.88088 -0.0216655 0
M  V30 756 O 71.9568 -1.50899 -1.00494 0
M  V30 757 C 72.0048 -2.8164 2.25192 0
M  V30 758 O 71.1088 -3.7698 1.67212 0
M  V30 759 H 70.4498 -0.466654 0.472367 0
M  V30 760 H 72.9798 -0.925355 1.82478 0
M  V30 761 H 72.9898 -3.30519 2.3921 0
M  V30 762 H 71.6648 -2.56411 3.27454 0
M  V30 763 H 70.2418 -3.35699 1.6236 0
M  V30 764 N 72.4269 -1.23603 -0.977757 0
M  V30 765 C 73.6749 -1.06759 -1.71601 0
M  V30 766 C 73.9959 0.395929 -1.90938 0
M  V30 767 O 73.2659 1.28356 -1.47992 0
M  V30 768 H 71.8459 -0.392062 -0.635843 0
M  V30 769 H 74.5079 -1.55362 -1.1768 0
M  V30 770 H 73.6039 -1.55763 -2.70452 0
M  V30 771 N 73.905 1.17692 -1.04816 0
M  V30 772 C 75.13 1.92327 -0.776207 0
M  V30 773 C 75.555 1.76082 0.661581 0
M  V30 774 O 74.913 1.076 1.45917 0
M  V30 775 C 74.961 3.41539 -1.15687 0
M  V30 776 O 74.065 4.11402 -0.286775 0
M  V30 777 H 73.406 0.599735 -0.284981 0
M  V30 778 H 75.936 1.49201 -1.4 0
M  V30 779 H 75.946 3.92269 -1.12202 0
M  V30 780 H 74.621 3.52684 -2.20425 0
M  V30 781 H 73.198 3.70939 -0.381903 0
M  V30 782 N 75.3831 0.828654 1.34056 0
M  V30 783 C 76.3461 0.259927 2.27721 0
M  V30 784 C 77.3461 -0.565478 1.50529 0
M  V30 785 O 78.5361 -0.38075 1.69988 0
M  V30 786 C 75.6681 -0.634944 3.34935 0
M  V30 787 H 76.8611 1.0863 2.79534 0
M  V30 788 H 74.4141 0.600951 1.44285 0
M  V30 789 H 75.1491 -1.48416 2.88346 0
M  V30 790 H 74.9341 -0.0444999 3.92075 0
M  V30 791 H 76.4241 -1.02648 4.04788 0
M  V30 792 N 76.8612 -1.46375 0.584142 0
M  V30 793 C 78.2772 -1.57694 0.245929 0
M  V30 794 C 78.4772 -1.57903 -1.25175 0
M  V30 795 O 77.5332 -1.49676 -2.03355 0
M  V30 796 C 78.8462 -2.87028 0.896402 0
M  V30 797 C 80.3942 -3.00662 0.870127 0
M  V30 798 C 80.8692 -4.32734 1.50017 0
M  V30 799 N 82.3602 -4.39436 1.46458 0
M  V30 800 C 83.0952 -5.40248 1.92144 0
M  V30 801 N 82.5912 -6.47726 2.4581 0
M  V30 802 N 84.3842 -5.31459 1.83052 0
M  V30 803 H 76.5352 -1.44483 1.55687 0
M  V30 804 H 78.7982 -0.689291 0.650831 0
M  V30 805 H 78.5042 -2.9269 1.95002 0
M  V30 806 H 78.3782 -3.75014 0.405486 0
M  V30 807 H 80.7652 -2.94581 -0.174871 0
M  V30 808 H 80.8462 -2.14148 1.39908 0
M  V30 809 H 80.4902 -4.39573 2.54437 0
M  V30 810 H 80.4202 -5.18025 0.946432 0
M  V30 811 H 82.9112 -3.62367 1.07231 0
M  V30 812 H 83.2242 -7.20863 2.78525 0
M  V30 813 H 81.5692 -6.48542 2.49836 0
M  V30 814 H 84.7602 -4.46396 1.40883 0
M  V30 815 H 84.9332 -6.09881 2.18973 0
M  V30 816 N 78.3393 -0.321999 -1.54275 0
M  V30 817 C 79.5873 0.280489 -2.00144 0
M  V30 818 C 79.9083 1.52777 -1.21178 0
M  V30 819 O 79.1783 1.9338 -0.313187 0
M  V30 820 H 77.7583 0.106632 -0.73935 0
M  V30 821 H 80.4203 -0.438184 -1.8991 0
M  V30 822 H 79.5163 0.537972 -3.07428 0
M  V30 823 N 79.8174 1.5752 -0.0501392 0
M  V30 824 C 80.7644 2.1147 0.924603 0
M  V30 825 C 81.7344 1.02182 1.30951 0
M  V30 826 O 82.9194 1.29723 1.39916 0
M  V30 827 C 80.0594 2.66337 2.19451 0
M  V30 828 C 79.1724 3.89708 1.86418 0
M  V30 829 C 78.3074 4.32893 3.07859 0
M  V30 830 C 77.3464 5.48967 2.70742 0
M  V30 831 N 76.4834 5.87211 3.84874 0
M  V30 832 H 81.3234 2.94465 0.457639 0
M  V30 833 H 78.8604 1.45531 0.214266 0
M  V30 834 H 80.8184 2.96247 2.93758 0
M  V30 835 H 79.4484 1.86141 2.63726 0
M  V30 836 H 78.5004 3.66396 1.02264 0
M  V30 837 H 79.8124 4.74074 1.55096 0
M  V30 838 H 78.9664 4.6435 3.90466 0
M  V30 839 H 77.7054 3.47336 3.42358 0
M  V30 840 H 76.7104 5.17183 1.86551 0
M  V30 841 H 77.9354 6.3624 2.37436 0
M  V30 842 H 75.8814 5.04607 4.19175 0
M  V30 843 H 75.7984 6.66266 3.57247 0
M  V30 844 H 77.0664 6.23282 4.68123 0
M  V30 845 N 81.2955 -0.223234 1.56011 0
M  V30 846 C 82.2425 -1.27664 1.92277 0
M  V30 847 C 83.2125 -1.46659 0.779763 0
M  V30 848 O 84.3975 -1.60256 1.03551 0
M  V30 849 C 81.5375 -2.62234 2.24338 0
M  V30 850 C 80.6505 -2.51051 3.51564 0
M  V30 851 C 79.7855 -3.78133 3.7308 0
M  V30 852 C 78.8245 -3.61665 4.93827 0
M  V30 853 N 77.9615 -4.80693 5.11741 0
M  V30 854 H 82.8015 -0.960358 2.82101 0
M  V30 855 H 80.3385 -0.462901 1.39627 0
M  V30 856 H 82.2965 -3.40596 2.40936 0
M  V30 857 H 80.9265 -2.91961 1.3769 0
M  V30 858 H 79.9785 -1.64132 3.43169 0
M  V30 859 H 81.2905 -2.34803 4.40079 0
M  V30 860 H 80.4445 -4.64938 3.89766 0
M  V30 861 H 79.1835 -3.97304 2.82844 0
M  V30 862 H 78.1885 -2.73244 4.77093 0
M  V30 863 H 79.4135 -3.43966 5.85546 0
M  V30 864 H 77.3595 -5.00181 4.24446 0
M  V30 865 H 77.2765 -4.67165 5.94384 0
M  V30 866 H 78.5445 -5.6893 5.3286 0
M  V30 867 N 82.7736 -1.49793 -0.48987 0
M  V30 868 C 83.7036 -1.70201 -1.59856 0
M  V30 869 C 84.6846 -0.55076 -1.60937 0
M  V30 870 O 85.8696 -0.787841 -1.77501 0
M  V30 871 C 82.9996 -1.77882 -2.98287 0
M  V30 872 C 81.9536 -2.92907 -3.12073 0
M  V30 873 C 81.2796 -2.85712 -4.51965 0
M  V30 874 C 82.5796 -4.3369 -2.91051 0
M  V30 875 H 84.2736 -2.63025 -1.43032 0
M  V30 876 H 81.8196 -1.26574 -0.686664 0
M  V30 877 H 83.7726 -1.90744 -3.75759 0
M  V30 878 H 82.4966 -0.816653 -3.16225 0
M  V30 879 H 81.1556 -2.79665 -2.37029 0
M  V30 880 H 80.8036 -1.8738 -4.66795 0
M  V30 881 H 80.5036 -3.62921 -4.62128 0
M  V30 882 H 82.0276 -3.00598 -5.31482 0
M  V30 883 H 83.4416 -4.47555 -3.58284 0
M  V30 884 H 81.8386 -5.12205 -3.12675 0
M  V30 885 H 82.9086 -4.47362 -1.87071 0
M  V30 886 N 84.2517 0.741722 -1.39055 0
M  V30 887 C 85.4767 1.53607 -1.39354 0
M  V30 888 C 85.9017 1.88096 0.0116905 0
M  V30 889 O 85.2597 1.5143 0.996924 0
M  V30 890 C 85.3077 2.80441 -2.26682 0
M  V30 891 O 84.4117 3.76088 -1.69208 0
M  V30 892 H 83.7527 0.464142 -0.474835 0
M  V30 893 H 86.2827 0.915665 -1.82967 0
M  V30 894 H 86.2927 3.29246 -2.40959 0
M  V30 895 H 84.9677 2.5467 -3.2881 0
M  V30 896 H 83.5447 3.34833 -1.64138 0
M  V30 897 N 85.7298 1.2412 0.971189 0
M  V30 898 C 86.6398 1.04747 2.09917 0
M  V30 899 C 87.6558 -0.0107162 1.73997 0
M  V30 900 O 88.8318 0.186714 2.00533 0
M  V30 901 C 85.8968 0.650828 3.40537 0
M  V30 902 C 84.9578 1.7851 3.90426 0
M  V30 903 C 84.1908 1.40729 5.14812 0
M  V30 904 O 84.4138 0.29557 5.69634 0
M  V30 905 O 83.3478 2.23168 5.58999 0
M  V30 906 H 87.1738 1.99304 2.29154 0
M  V30 907 H 84.7588 1.02908 1.08307 0
M  V30 908 H 86.6408 0.440992 4.19086 0
M  V30 909 H 85.3158 -0.265649 3.22608 0
M  V30 910 H 84.2228 2.04966 3.12953 0
M  V30 911 H 85.5558 2.68023 4.12825 0
M  V30 912 N 87.2079 -1.17134 1.05439 0
M  V30 913 C 88.4569 -1.86791 0.761049 0
M  V30 914 C 88.7699 -1.82072 -0.714795 0
M  V30 915 O 89.9759 -2.47223 -1.12218 0
M  V30 916 C 88.4319 -3.35166 1.31117 0
M  V30 917 C 88.0399 -3.48381 2.81664 0
M  V30 918 C 89.7839 -4.10134 1.09499 0
M  V30 919 C 87.6909 -4.90793 3.29964 0
M  V30 920 H 86.6209 -0.699681 0.281002 0
M  V30 921 H 89.2719 -1.3226 1.27199 0
M  V30 922 H 87.6539 -3.8925 0.72803 0
M  V30 923 H 88.8279 -3.04502 3.45855 0
M  V30 924 H 87.1429 -2.86836 3.01851 0
M  V30 925 H 89.7399 -5.152 1.43084 0
M  V30 926 H 90.0829 -4.16287 0.0328772 0
M  V30 927 H 90.6159 -3.62264 1.64346 0
M  V30 928 H 87.3549 -4.89816 4.35616 0
M  V30 929 H 86.8749 -5.35333 2.70516 0
M  V30 930 H 88.5539 -5.59573 3.24787 0
M  V30 931 N 88.686 -0.835752 -1.33615 0
M  V30 932 C 89.619 -0.211815 -2.27215 0
M  V30 933 C 90.597 0.639249 -1.49507 0
M  V30 934 O 91.781 0.600193 -1.78689 0
M  V30 935 C 88.908 0.702893 -3.31326 0
M  V30 936 C 87.954 -0.0723049 -4.26439 0
M  V30 937 S 88.787 -1.42811 -5.16106 0
M  V30 938 C 89.943 -0.518613 -6.23748 0
M  V30 939 H 90.176 -1.00533 -2.79786 0
M  V30 940 H 87.709 -0.632336 -1.40858 0
M  V30 941 H 89.667 1.22505 -3.91794 0
M  V30 942 H 88.328 1.47004 -2.77576 0
M  V30 943 H 87.521 0.62359 -5.00127 0
M  V30 944 H 87.123 -0.525424 -3.70291 0
M  V30 945 H 89.415 0.284778 -6.76901 0
M  V30 946 H 90.358 -1.22556 -6.97413 0
M  V30 947 H 90.766 -0.101344 -5.64409 0
M  V30 948 N 90.1641 1.46063 -0.591896 0
M  V30 949 C 91.0741 2.34192 0.13831 0
M  V30 950 C 92.0901 1.50305 0.876608 0
M  V30 951 O 93.2661 1.8315 0.837728 0
M  V30 952 C 90.3311 3.27656 1.13326 0
M  V30 953 C 89.3921 4.27445 0.39863 0
M  V30 954 C 88.6251 5.16443 1.34618 0
M  V30 955 O 88.8481 5.08553 2.58321 0
M  V30 956 O 87.7821 5.95843 0.851768 0
M  V30 957 H 91.6081 2.98002 -0.58552 0
M  V30 958 H 89.1931 1.45188 -0.352239 0
M  V30 959 H 91.0751 3.85291 1.70671 0
M  V30 960 H 89.7501 2.6643 1.83839 0
M  V30 961 H 88.6571 3.73471 -0.216895 0
M  V30 962 H 89.9901 4.91482 -0.265709 0
M  V30 963 N 91.6422 0.330177 1.54103 0
M  V30 964 C 92.5892 -0.532762 2.24567 0
M  V30 965 C 93.5592 -1.10635 1.23892 0
M  V30 966 O 94.7442 -1.14546 1.5259 0
M  V30 967 C 91.8842 -1.6845 3.01195 0
M  V30 968 C 90.9972 -1.13951 4.167 0
M  V30 969 C 90.1322 -2.25746 4.80845 0
M  V30 970 C 89.1712 -1.6853 5.88442 0
M  V30 971 N 88.3082 -2.74014 6.46421 0
M  V30 972 H 93.1482 0.0746905 2.97906 0
M  V30 973 H 90.6852 0.048632 1.4702 0
M  V30 974 H 92.6432 -2.36234 3.43874 0
M  V30 975 H 91.2732 -2.26314 2.30178 0
M  V30 976 H 90.3252 -0.35301 3.78758 0
M  V30 977 H 91.6372 -0.680892 4.94131 0
M  V30 978 H 90.7912 -3.01422 5.26526 0
M  V30 979 H 89.5302 -2.74947 4.0281 0
M  V30 980 H 88.5352 -0.913543 5.42157 0
M  V30 981 H 89.7602 -1.20198 6.68378 0
M  V30 982 H 87.7062 -3.22494 5.71256 0
M  V30 983 H 87.6232 -2.32735 7.19285 0
M  V30 984 H 88.8912 -3.49499 6.96757 0
M  V30 985 N 93.1203 -1.57491 0.0584922 0
M  V30 986 C 94.3683 -1.92597 -0.612436 0
M  V30 987 C 94.6893 -0.938162 -1.70949 0
M  V30 988 O 93.9593 0.0158301 -1.95894 0
M  V30 989 H 92.5393 -0.710964 -0.229214 0
M  V30 990 H 95.2013 -1.94571 0.113218 0
M  V30 991 H 94.2973 -2.94038 -1.04633 0
M  V30 992 N 94.5984 0.214957 -1.56127 0
M  V30 993 C 95.5304 1.29004 -1.89448 0
M  V30 994 C 96.5434 1.42716 -0.783326 0
M  V30 995 O 97.7324 1.43496 -1.06166 0
M  V30 996 C 94.8324 2.66482 -2.09381 0
M  V30 997 C 94.0054 2.74633 -3.40434 0
M  V30 998 C 93.0644 3.9317 -3.49719 0
M  V30 999 O 92.0904 3.812 -4.227 0
M  V30 1000 N 93.2924 5.07765 -2.81346 0
M  V30 1001 H 96.0574 1.00743 -2.82261 0
M  V30 1002 H 93.6184 0.40497 -1.56753 0
M  V30 1003 H 95.6104 3.44173 -2.12901 0
M  V30 1004 H 94.1804 2.87314 -1.23163 0
M  V30 1005 H 93.4004 1.83368 -3.48955 0
M  V30 1006 H 94.6884 2.77054 -4.26754 0
M  V30 1007 H 94.0864 5.20386 -2.21843 0
M  V30 1008 H 92.6434 5.83474 -2.90519 0
M  V30 1009 N 96.0765 1.50051 0.48192 0
M  V30 1010 C 97.0065 1.71046 1.58951 0
M  V30 1011 C 97.9875 0.559288 1.60642 0
M  V30 1012 O 99.1725 0.797243 1.77081 0
M  V30 1013 C 96.3025 1.79462 2.97339 0
M  V30 1014 C 95.2565 2.94558 3.10515 0
M  V30 1015 C 94.5825 2.88105 4.50444 0
M  V30 1016 C 95.8825 4.35227 2.88747 0
M  V30 1017 H 97.5765 2.6378 1.41635 0
M  V30 1018 H 95.1225 1.26936 0.679942 0
M  V30 1019 H 97.0755 1.92734 3.74742 0
M  V30 1020 H 95.7995 0.833412 3.15788 0
M  V30 1021 H 94.4585 2.80918 2.35543 0
M  V30 1022 H 94.1065 1.89853 4.65795 0
M  V30 1023 H 93.8065 3.65366 4.60197 0
M  V30 1024 H 95.3305 3.03412 5.29881 0
M  V30 1025 H 96.7445 4.49449 3.55905 0
M  V30 1026 H 95.1415 5.13856 3.09955 0
M  V30 1027 H 96.2115 4.48347 1.84696 0
M  V30 1028 N 97.5546 -0.734337 1.39446 0
M  V30 1029 C 98.8006 -1.49613 1.36908 0
M  V30 1030 C 99.1336 -1.94169 -0.0347829 0
M  V30 1031 O 98.4086 -1.66833 -0.999847 0
M  V30 1032 C 98.6916 -2.73534 2.34203 0
M  V30 1033 C 98.5446 -2.34993 3.83534 0
M  V30 1034 C 99.8636 -3.75635 2.29317 0
M  V30 1035 H 96.9826 -0.542714 0.498629 0
M  V30 1036 H 99.6246 -0.839597 1.70443 0
M  V30 1037 H 97.7746 -3.29553 2.05736 0
M  V30 1038 H 99.4466 -1.84601 4.22753 0
M  V30 1039 H 97.6896 -1.67213 4.00278 0
M  V30 1040 H 98.3606 -3.23738 4.47099 0
M  V30 1041 H 100.837 -3.29203 2.54489 0
M  V30 1042 H 99.7126 -4.60008 2.99472 0
M  V30 1043 H 99.9736 -4.22603 1.29842 0
M  V30 1044 N 99.0327 -1.24633 -0.964593 0
M  V30 1045 C 100.444 -1.08045 -1.5226 0
M  V30 1046 C 100.795 0.347116 -1.93105 0
M  V30 1047 O 99.9197 1.23588 -1.77637 0
M  V30 1048 C 100.515 -1.95514 -2.76695 0
M  V30 1049 C 99.0737 -1.8314 -3.28841 0
M  V30 1050 C 98.2207 -1.90262 -2.01732 0
M  V30 1051 H 101.172 -1.38064 -0.782553 0
M  V30 1052 H 101.193 -1.48925 -3.50145 0
M  V30 1053 H 100.705 -2.99407 -2.46936 0
M  V30 1054 H 98.8057 -0.82092 -3.63444 0
M  V30 1055 H 98.9187 -2.67406 -3.97531 0
M  V30 1056 H 97.2827 -1.34027 -2.16584 0
M  V30 1057 H 98.0657 -2.9574 -1.74334 0
M  V30 1058 N 100.511 1.16574 -1.06058 0
M  V30 1059 C 101.441 2.23057 -0.690488 0
M  V30 1060 C 102.422 1.67141 0.315901 0
M  V30 1061 O 103.607 1.93253 0.191556 0
M  V30 1062 C 100.737 3.47222 -0.073625 0
M  V30 1063 C 99.6908 4.16016 -1.00573 0
M  V30 1064 C 99.0168 5.34104 -0.252289 0
M  V30 1065 C 100.317 4.67264 -2.33371 0
M  V30 1066 H 102.011 2.54271 -1.58072 0
M  V30 1067 H 99.5568 1.22218 -0.76149 0
M  V30 1068 H 101.51 4.20939 0.19714 0
M  V30 1069 H 100.234 3.15302 0.85161 0
M  V30 1070 H 98.8928 3.44223 -1.2612 0
M  V30 1071 H 98.5408 4.98437 0.675988 0
M  V30 1072 H 98.2408 5.81072 -0.873455 0
M  V30 1073 H 99.7648 6.10599 0.0109857 0
M  V30 1074 H 101.179 5.32573 -2.12223 0
M  V30 1075 H 99.5758 5.24843 -2.90963 0
M  V30 1076 H 100.646 3.83602 -2.96611 0
M  V30 1077 N 101.989 0.842826 1.3317 0
M  V30 1078 C 102.899 0.281444 2.32906 0
M  V30 1079 C 103.915 -0.594587 1.63526 0
M  V30 1080 O 105.091 -0.49777 1.95152 0
M  V30 1081 C 102.156 -0.530929 3.42611 0
M  V30 1082 C 101.217 0.369843 4.27704 0
M  V30 1083 C 100.45 -0.403853 5.3217 0
M  V30 1084 O 100.673 -1.63513 5.46461 0
M  V30 1085 O 99.6069 0.224199 6.01482 0
M  V30 1086 H 103.433 1.10744 2.82789 0
M  V30 1087 H 101.018 0.60545 1.36582 0
M  V30 1088 H 102.9 -0.992437 4.09547 0
M  V30 1089 H 101.575 -1.33392 2.94938 0
M  V30 1090 H 100.482 0.879275 3.6362 0
M  V30 1091 H 101.815 1.13771 4.78871 0
M  V30 1092 N 103.467 -1.45747 0.599634 0
M  V30 1093 C 104.695 -2.06668 0.0978551 0
M  V30 1094 C 105.11 -1.44562 -1.21439 0
M  V30 1095 O 104.467 -0.556923 -1.73795 0
M  V30 1096 C 104.518 -3.61456 -0.0567044 0
M  V30 1097 O 104.239 -4.21242 1.20361 0
M  V30 1098 C 105.74 -4.39345 -0.590869 0
M  V30 1099 H 102.96 -0.667825 0.0651943 0
M  V30 1100 H 105.504 -1.87115 0.82511 0
M  V30 1101 H 103.659 -3.80378 -0.734251 0
M  V30 1102 H 104.073 -5.14323 1.02821 0
M  V30 1103 H 105.547 -5.48182 -0.648131 0
M  V30 1104 H 106.024 -4.08568 -1.61147 0
M  V30 1105 H 106.63 -4.25268 0.0523679 0
M  V30 1106 N 104.945 -0.338344 -1.53925 0
M  V30 1107 C 106.191 0.260143 -2.01125 0
M  V30 1108 C 106.524 1.50617 -1.22589 0
M  V30 1109 O 105.799 1.91979 -0.312113 0
M  V30 1110 C 106.082 0.579499 -3.55407 0
M  V30 1111 C 105.935 -0.678264 -4.44657 0
M  V30 1112 C 107.254 1.39122 -4.17532 0
M  V30 1113 H 104.373 0.0930772 -0.731099 0
M  V30 1114 H 107.015 -0.457852 -1.84401 0
M  V30 1115 H 105.165 1.19118 -3.69788 0
M  V30 1116 H 106.837 -1.31631 -4.42121 0
M  V30 1117 H 105.08 -1.3042 -4.13731 0
M  V30 1118 H 105.751 -0.410143 -5.50474 0
M  V30 1119 H 108.227 0.874035 -4.06817 0
M  V30 1120 H 107.103 1.58342 -5.25565 0
M  V30 1121 H 107.364 2.39178 -3.71815 0
M  V30 1122 N 106.423 1.57458 -0.0668435 0
M  V30 1123 C 107.353 2.15468 0.899764 0
M  V30 1124 C 108.334 1.08042 1.31381 0
M  V30 1125 O 109.519 1.36054 1.38574 0
M  V30 1126 C 106.649 2.71232 2.16911 0
M  V30 1127 C 105.603 3.83781 1.89463 0
M  V30 1128 C 104.929 4.26127 3.22986 0
M  V30 1129 C 106.229 5.08238 1.20381 0
M  V30 1130 H 107.923 2.96488 0.416529 0
M  V30 1131 H 105.469 1.4262 0.198908 0
M  V30 1132 H 107.422 3.10458 2.84945 0
M  V30 1133 H 106.146 1.87426 2.67468 0
M  V30 1134 H 104.805 3.45051 1.23836 0
M  V30 1135 H 104.453 3.39249 3.71374 0
M  V30 1136 H 104.153 5.01993 3.05413 0
M  V30 1137 H 105.677 4.67966 3.92225 0
M  V30 1138 H 107.091 5.44811 1.78475 0
M  V30 1139 H 105.488 5.89349 1.13083 0
M  V30 1140 H 106.558 4.84558 0.182153 0
M  V30 1141 N 107.901 -0.206675 1.56239 0
M  V30 1142 C 109.178 -0.954051 1.70755 0
M  V30 1143 C 109.558 -2.01841 0.618353 0
M  V30 1144 O 108.906 -2.25444 -0.372434 0
M  V30 1145 C 109.116 -1.551 3.12642 0
M  V30 1146 C 110.464 -2.03757 3.72516 0
M  V30 1147 O 111.488 -1.64965 3.15698 0
M  V30 1148 O 110.347 -2.75103 4.72208 0
M  V30 1149 H 107.441 -0.446636 0.696021 0
M  V30 1150 H 109.987 -0.197283 1.68549 0
M  V30 1151 H 108.759 -0.783212 3.83382 0
M  V30 1152 H 108.382 -2.37291 3.19028 0
M  V30 1153 N 109.379 -1.50304 -0.473955 0
M  V30 1154 C 110.312 -1.63595 -1.59097 0
M  V30 1155 C 111.29 -0.484142 -1.55225 0
M  V30 1156 O 112.474 -0.703271 -1.7489 0
M  V30 1157 C 109.601 -1.61589 -2.97669 0
M  V30 1158 C 108.647 -2.82295 -3.19705 0
M  V30 1159 S 109.48 -4.43635 -2.99913 0
M  V30 1160 C 110.636 -4.44317 -4.40832 0
M  V30 1161 H 110.869 -2.58082 -1.47583 0
M  V30 1162 H 108.402 -1.39531 -0.661087 0
M  V30 1163 H 110.36 -1.61116 -3.7756 0
M  V30 1164 H 109.021 -0.683421 -3.06575 0
M  V30 1165 H 108.214 -2.77188 -4.20931 0
M  V30 1166 H 107.816 -2.8032 -2.47582 0
M  V30 1167 H 110.108 -4.17703 -5.33414 0
M  V30 1168 H 111.051 -5.45911 -4.50984 0
M  V30 1169 H 111.459 -3.74059 -4.22777 0
M  V30 1170 N 110.857 0.726932 -1.39834 0
M  V30 1171 C 111.787 1.85405 -1.41941 0
M  V30 1172 C 112.768 1.67751 -0.281728 0
M  V30 1173 O 113.953 1.8795 -0.488717 0
M  V30 1174 C 111.083 3.23243 -1.2701 0
M  V30 1175 C 110.037 3.55549 -2.38262 0
M  V30 1176 C 109.363 4.9241 -2.08415 0
M  V30 1177 C 110.663 3.577 -3.80589 0
M  V30 1178 H 112.357 1.83899 -2.36266 0
M  V30 1179 H 109.903 0.883349 -1.13723 0
M  V30 1180 H 111.856 4.01775 -1.27103 0
M  V30 1181 H 110.58 3.25296 -0.291564 0
M  V30 1182 H 109.239 2.79351 -2.37399 0
M  V30 1183 H 108.887 4.91052 -1.0898 0
M  V30 1184 H 108.587 5.14992 -2.82943 0
M  V30 1185 H 110.111 5.73289 -2.10171 0
M  V30 1186 H 111.525 4.26293 -3.83337 0
M  V30 1187 H 109.922 3.91804 -4.54543 0
M  V30 1188 H 110.992 2.57328 -4.10987 0
M  V30 1189 N 112.336 1.25143 0.95797 0
M  V30 1190 C 113.752 1.01892 1.22842 0
M  V30 1191 C 113.952 -0.266311 1.99732 0
M  V30 1192 O 113.008 -0.979913 2.3271 0
M  V30 1193 C 114.321 2.24004 2.00606 0
M  V30 1194 C 115.869 2.28731 2.13662 0
M  V30 1195 C 116.344 3.5049 2.94823 0
M  V30 1196 N 117.835 3.50866 3.02403 0
M  V30 1197 C 118.57 4.4174 3.65586 0
M  V30 1198 N 118.066 5.42882 4.30408 0
M  V30 1199 N 119.859 4.29429 3.62694 0
M  V30 1200 H 112.01 2.07718 0.443493 0
M  V30 1201 H 114.273 0.912031 0.258657 0
M  V30 1202 H 113.979 3.17395 1.51503 0
M  V30 1203 H 113.853 2.26907 3.01319 0
M  V30 1204 H 116.24 1.35865 2.61963 0
M  V30 1205 H 116.321 2.29848 1.12265 0
M  V30 1206 H 115.965 4.43676 2.47213 0
M  V30 1207 H 115.895 3.46617 3.96439 0
M  V30 1208 H 118.386 2.777 2.56302 0
M  V30 1209 H 118.699 6.0844 4.76467 0
M  V30 1210 H 117.044 5.46758 4.29047 0
M  V30 1211 H 120.235 3.49643 3.11236 0
M  V30 1212 H 120.408 5.00448 4.1165 0
M  V30 1213 N 113.814 -1.1601 1.06675 0
M  V30 1214 C 115.091 -1.82679 0.699114 0
M  V30 1215 C 115.471 -1.94559 -0.819137 0
M  V30 1216 O 114.819 -1.49169 -1.73092 0
M  V30 1217 C 115.029 -3.19445 1.40555 0
M  V30 1218 C 116.377 -3.95171 1.55323 0
M  V30 1219 O 117.401 -3.28976 1.36577 0
M  V30 1220 O 116.26 -5.13833 1.86112 0
M  V30 1221 H 113.354 -0.788954 0.247951 0
M  V30 1222 H 115.9 -1.23179 1.16726 0
M  V30 1223 H 114.672 -3.05856 2.44065 0
M  V30 1224 H 114.295 -3.86625 0.927733 0
M  V30 1225 N 115.292 -0.849877 -1.32721 0
M  V30 1226 C 116.255 -0.296122 -2.27279 0
M  V30 1227 C 117.255 0.541458 -1.5141 0
M  V30 1228 O 118.445 0.353658 -1.70572 0
M  V30 1229 C 115.577 0.581579 -3.35902 0
M  V30 1230 H 116.77 -1.13064 -2.77771 0
M  V30 1231 H 114.323 -0.62383 -1.43311 0
M  V30 1232 H 115.058 1.43809 -2.9067 0
M  V30 1233 H 114.843 -0.0178814 -3.92096 0
M  V30 1234 H 116.333 0.961951 -4.0637 0
M  V30 1235 N 116.77 1.45427 -0.607355 0
M  V30 1236 C 117.703 2.27635 0.160482 0
M  V30 1237 C 118.681 1.37122 0.873857 0
M  V30 1238 O 119.865 1.66551 0.882775 0
M  V30 1239 C 116.992 3.15486 1.23231 0
M  V30 1240 C 116.038 4.21939 0.622097 0
M  V30 1241 S 116.871 5.32459 -0.569852 0
M  V30 1242 C 118.027 6.23879 0.502577 0
M  V30 1243 H 118.26 2.9241 -0.536983 0
M  V30 1244 H 115.793 1.49265 -0.394868 0
M  V30 1245 H 117.751 3.66659 1.84585 0
M  V30 1246 H 116.412 2.49977 1.90185 0
M  V30 1247 H 115.605 4.8333 1.42856 0
M  V30 1248 H 115.207 3.73906 0.0837063 0
M  V30 1249 H 117.499 6.63261 1.38171 0
M  V30 1250 H 118.442 7.0806 -0.0751759 0
M  V30 1251 H 118.85 5.58545 0.8178 0
M  V30 1252 N 118.248 0.346503 1.53744 0
M  V30 1253 C 119.494 -0.249473 2.0126 0
M  V30 1254 C 119.827 -1.49965 1.23386 0
M  V30 1255 O 119.102 -1.91811 0.32229 0
M  V30 1256 C 119.385 -0.560643 3.55709 0
M  V30 1257 C 119.238 0.701836 4.44291 0
M  V30 1258 C 120.557 -1.36905 4.18264 0
M  V30 1259 H 117.676 -0.0891987 0.731582 0
M  V30 1260 H 120.318 0.467624 1.84156 0
M  V30 1261 H 118.468 -1.17156 3.70414 0
M  V30 1262 H 120.14 1.33974 4.41417 0
M  V30 1263 H 118.383 1.32612 4.13033 0
M  V30 1264 H 119.054 0.43933 5.50249 0
M  V30 1265 H 121.53 -0.852448 4.07275 0
M  V30 1266 H 120.406 -1.55553 5.26398 0
M  V30 1267 H 120.667 -2.37203 3.73078 0
M  V30 1268 N 119.726 -1.57421 0.075193 0
M  V30 1269 C 120.689 -2.11791 -0.876203 0
M  V30 1270 C 121.689 -1.04268 -1.22412 0
M  V30 1271 O 122.879 -1.30242 -1.15684 0
M  V30 1272 C 120.011 -2.62207 -2.17854 0
M  V30 1273 H 121.204 -2.9716 -0.40444 0
M  V30 1274 H 118.757 -1.55333 -0.173557 0
M  V30 1275 H 119.492 -1.803 -2.6956 0
M  V30 1276 H 119.277 -3.40802 -1.93897 0
M  V30 1277 H 120.767 -3.04335 -2.85955 0
M  V30 1278 N 121.204 0.198386 -1.56346 0
M  V30 1279 C 122.151 1.24589 -1.94284 0
M  V30 1280 C 123.121 1.454 -0.802997 0
M  V30 1281 O 124.306 1.58588 -1.06087 0
M  V30 1282 C 121.446 2.58631 -2.28482 0
M  V30 1283 C 120.559 2.45426 -3.55514 0
M  V30 1284 C 119.694 3.7215 -3.79049 0
M  V30 1285 C 118.733 3.53763 -4.99518 0
M  V30 1286 N 117.87 4.72491 -5.19323 0
M  V30 1287 H 122.71 0.915356 -2.83593 0
M  V30 1288 H 120.247 0.440629 -1.40346 0
M  V30 1289 H 122.205 3.3672 -2.46324 0
M  V30 1290 H 120.835 2.89734 -1.42317 0
M  V30 1291 H 119.887 1.58652 -3.45737 0
M  V30 1292 H 121.199 2.27772 -4.43758 0
M  V30 1293 H 120.353 4.58679 -3.97113 0
M  V30 1294 H 119.092 3.92754 -2.89129 0
M  V30 1295 H 118.097 2.65619 -4.8138 0
M  V30 1296 H 119.322 3.34607 -5.90944 0
M  V30 1297 H 117.268 4.93365 -4.3235 0
M  V30 1298 H 117.185 4.5765 -6.01741 0
M  V30 1299 H 118.453 5.6038 -5.41843 0
M  V30 1300 N 122.682 1.50554 0.465978 0
M  V30 1301 C 123.928 1.62038 1.21949 0
M  V30 1302 C 124.261 0.322116 1.9151 0
M  V30 1303 O 123.536 -0.676723 1.82348 0
M  V30 1304 C 123.819 2.80421 2.25912 0
M  V30 1305 C 123.672 4.20144 1.60622 0
M  V30 1306 C 124.991 2.94354 3.27176 0
M  V30 1307 H 122.11 0.589752 0.441998 0
M  V30 1308 H 124.752 1.82956 0.51257 0
M  V30 1309 H 122.902 2.62717 2.86203 0
M  V30 1310 H 124.574 4.49449 1.03889 0
M  V30 1311 H 122.817 4.24165 0.909211 0
M  V30 1312 H 123.488 4.98914 2.36196 0
M  V30 1313 H 125.964 3.10578 2.76913 0
M  V30 1314 H 124.84 3.788 3.97242 0
M  V30 1315 H 125.101 2.05186 3.916 0
M  V30 1316 N 124.16 -0.719506 1.40217 0
M  V30 1317 C 125.108 -1.85493 1.40339 0
M  V30 1318 C 126.102 -1.66995 0.284415 0
M  V30 1319 O 127.308 -1.74148 0.455252 0
M  V30 1320 H 123.683 -0.610857 0.438586 0
M  V30 1321 H 125.654 -1.82506 2.36081 0
M  V30 1322 C 124.403 -3.23321 1.27901 0
M  V30 1323 H 123.726 -3.38159 2.1328 0
M  V30 1324 H 125.166 -4.02914 1.32045 0
M  V30 1325 C 123.625 -3.36898 -0.0111355 0
M  V30 1326 O 124.155 -3.89674 -0.975538 0
M  V30 1327 N 122.361 -2.90492 -0.0793393 0
M  V30 1328 H 121.908 -2.47731 0.706183 0
M  V30 1329 H 121.866 -2.99955 -0.942038 0
M  V30 1330 N 125.638 -1.25649 -0.95132 0
M  V30 1331 C 126.866 -1.13343 -1.73092 0
M  V30 1332 C 127.281 0.312434 -1.86197 0
M  V30 1333 O 126.638 1.21465 -1.36207 0
M  V30 1334 C 126.689 -1.78602 -3.14299 0
M  V30 1335 O 126.41 -3.17537 -3.01831 0
M  V30 1336 C 127.911 -1.72119 -4.08522 0
M  V30 1337 H 125.131 -0.395181 -0.542285 0
M  V30 1338 H 127.675 -1.66076 -1.19328 0
M  V30 1339 H 125.83 -1.29832 -3.64996 0
M  V30 1340 H 126.244 -3.49676 -3.90931 0
M  V30 1341 H 127.718 -2.22435 -5.052 0
M  V30 1342 H 128.195 -0.685635 -4.33815 0
M  V30 1343 H 128.801 -2.20393 -3.63741 0
M  V30 1344 N 127.117 1.15442 -1.07289 0
M  V30 1345 C 128.342 1.90638 -0.816828 0
M  V30 1346 C 128.767 1.77445 0.624083 0
M  V30 1347 O 128.125 1.10671 1.43602 0
M  V30 1348 C 128.173 3.39008 -1.22906 0
M  V30 1349 O 127.277 4.10701 -0.373975 0
M  V30 1350 H 126.618 0.593555 -0.297638 0
M  V30 1351 H 129.148 1.46198 -1.43134 0
M  V30 1352 H 129.158 3.89801 -1.20497 0
M  V30 1353 H 127.833 3.47929 -2.27856 0
M  V30 1354 H 126.41 3.70046 -0.460499 0
M  V30 1355 N 128.595 0.856903 1.32268 0
M  V30 1356 C 129.542 0.301172 2.28827 0
M  V30 1357 C 130.512 -0.593104 1.5515 0
M  V30 1358 O 131.697 -0.527537 1.83362 0
M  V30 1359 C 128.837 -0.502523 3.41422 0
M  V30 1360 C 127.95 0.417797 4.29975 0
M  V30 1361 C 127.085 -0.398749 5.29701 0
M  V30 1362 C 126.124 0.518827 6.09897 0
M  V30 1363 N 125.261 -0.260674 7.01616 0
M  V30 1364 H 130.101 1.12983 2.75751 0
M  V30 1365 H 127.638 0.568582 1.35667 0
M  V30 1366 H 129.596 -0.984141 4.05426 0
M  V30 1367 H 128.226 -1.29599 2.95642 0
M  V30 1368 H 127.278 1.01781 3.66531 0
M  V30 1369 H 128.59 1.12191 4.86019 0
M  V30 1370 H 127.744 -0.943435 5.9932 0
M  V30 1371 H 126.483 -1.13622 4.7428 0
M  V30 1372 H 125.488 1.07538 5.39181 0
M  V30 1373 H 126.713 1.25495 6.67404 0
M  V30 1374 H 124.659 -0.981198 6.4862 0
M  V30 1375 H 124.576 0.384364 7.55022 0
M  V30 1376 H 125.844 -0.787014 7.75517 0
M  V30 1377 N 130.073 -1.45103 0.615059 0
M  V30 1378 C 131.321 -2.01784 0.112955 0
M  V30 1379 C 131.642 -1.48504 -1.26378 0
M  V30 1380 O 130.912 -0.682245 -1.83636 0
M  V30 1381 H 129.492 -0.745993 0.0387668 0
M  V30 1382 H 132.154 -1.77808 0.798141 0
M  V30 1383 H 131.25 -3.12025 0.0684069 0
M  V30 1384 N 131.551 -0.354651 -1.53558 0
M  V30 1385 C 132.798 0.238443 -2.01091 0
M  V30 1386 C 133.126 1.49663 -1.24222 0
M  V30 1387 O 132.381 1.93049 -0.321003 0
M  V30 1388 C 132.68 0.587121 -3.52545 0
M  V30 1389 C 132.346 -0.575472 -4.47213 0
M  V30 1390 C 131.008 -0.894497 -4.72813 0
M  V30 1391 C 133.36 -1.35489 -5.03281 0
M  V30 1392 C 130.688 -1.99511 -5.51736 0
M  V30 1393 C 133.04 -2.44583 -5.83405 0
M  V30 1394 C 131.704 -2.77033 -6.07296 0
M  V30 1395 H 130.974 0.0872526 -0.735845 0
M  V30 1396 H 133.621 -0.484859 -1.8526 0
M  V30 1397 H 131.926 1.39129 -3.66265 0
M  V30 1398 H 133.623 1.05809 -3.86789 0
M  V30 1399 H 130.213 -0.316774 -4.27428 0
M  V30 1400 H 134.397 -1.12167 -4.83459 0
M  V30 1401 H 129.653 -2.25063 -5.68469 0
M  V30 1402 H 133.827 -3.05401 -6.25862 0
M  V30 1403 H 131.454 -3.6244 -6.68237 0
M  V30 1404 N 133.029 1.57378 -0.0835403 0
M  V30 1405 C 133.959 2.1641 0.87686 0
M  V30 1406 C 134.94 1.09429 1.30228 0
M  V30 1407 O 136.125 1.37516 1.37124 0
M  V30 1408 C 133.255 2.73517 2.14022 0
M  V30 1409 C 132.209 3.85769 1.85381 0
M  V30 1410 C 131.535 4.29529 3.18448 0
M  V30 1411 C 132.835 5.09486 1.14984 0
M  V30 1412 H 134.529 2.96914 0.385059 0
M  V30 1413 H 132.075 1.42823 0.18377 0
M  V30 1414 H 134.028 3.13463 2.81636 0
M  V30 1415 H 132.752 1.90252 2.65465 0
M  V30 1416 H 131.411 3.46345 1.20169 0
M  V30 1417 H 131.059 3.43169 3.67755 0
M  V30 1418 H 130.759 5.05204 3.00071 0
M  V30 1419 H 132.283 4.72099 3.8724 0
M  V30 1420 H 133.697 5.46674 1.72687 0
M  V30 1421 H 132.094 5.90515 1.06826 0
M  V30 1422 H 133.164 4.84724 0.130749 0
M  V30 1423 N 134.507 -0.190092 1.56449 0
M  V30 1424 C 135.756 -0.907912 1.80111 0
M  V30 1425 C 136.069 -1.84214 0.657619 0
M  V30 1426 O 137.275 -2.60094 0.778663 0
M  V30 1427 C 135.731 -1.66485 3.19078 0
M  V30 1428 C 135.339 -0.7752 4.41242 0
M  V30 1429 C 137.083 -2.37201 3.52045 0
M  V30 1430 C 134.99 -1.53129 5.71231 0
M  V30 1431 H 133.92 -0.34276 0.671589 0
M  V30 1432 H 136.571 -0.161109 1.82791 0
M  V30 1433 H 134.953 -2.45572 3.10661 0
M  V30 1434 H 136.127 -0.0226298 4.60794 0
M  V30 1435 H 134.442 -0.178627 4.16017 0
M  V30 1436 H 137.039 -2.94329 4.46402 0
M  V30 1437 H 137.382 -3.11632 2.76028 0
M  V30 1438 H 137.915 -1.65075 3.61932 0
M  V30 1439 H 134.654 -0.82967 6.50228 0
M  V30 1440 H 134.174 -2.25767 5.55688 0
M  V30 1441 H 135.853 -2.08377 6.12526 0
M  V30 1442 N 135.985 -1.50799 -0.457987 0
M  V30 1443 C 137.262 -1.52968 -1.21902 0
M  V30 1444 C 137.642 -0.281906 -2.09209 0
M  V30 1445 O 136.99 0.734076 -2.16388 0
M  V30 1446 C 137.2 -2.8326 -2.03875 0
M  V30 1447 C 138.548 -3.34425 -2.6162 0
M  V30 1448 O 139.572 -2.8467 -2.14106 0
M  V30 1449 O 138.431 -4.21188 -3.48228 0
M  V30 1450 H 135.525 -0.614129 -0.553873 0
M  V30 1451 H 138.071 -1.63098 -0.468739 0
M  V30 1452 H 136.843 -3.65543 -1.39621 0
M  V30 1453 H 136.466 -2.76195 -2.8601 0
M  V30 1454 N 137.463 0.71206 -1.40597 0
M  V30 1455 C 138.711 1.46907 -1.38791 0
M  V30 1456 C 139.032 1.94998 0.00780391 0
M  V30 1457 O 138.302 1.70587 0.963174 0
M  V30 1458 H 136.882 0.545043 -0.51082 0
M  V30 1459 H 139.544 0.843882 -1.75683 0
M  V30 1460 H 138.64 2.34021 -2.06496 0
M  V30 1461 N 138.941 1.26152 0.944643 0
M  V30 1462 C 140.171 1.14094 1.72239 0
M  V30 1463 C 140.579 -0.306931 1.86694 0
M  V30 1464 O 139.922 -1.22222 1.3714 0
M  V30 1465 C 139.984 1.73316 3.14963 0
M  V30 1466 C 139.648 3.2239 3.23904 0
M  V30 1467 C 140.645 4.19252 3.07447 0
M  V30 1468 C 138.33 3.62788 3.47405 0
M  V30 1469 C 140.324 5.54491 3.14353 0
M  V30 1470 C 138.011 4.98162 3.53947 0
M  V30 1471 C 139.009 5.93823 3.37436 0
M  V30 1472 O 138.697 7.26732 3.43679 0
M  V30 1473 H 138.429 0.398292 0.546205 0
M  V30 1474 H 140.983 1.67201 1.19301 0
M  V30 1475 H 139.213 1.14667 3.69308 0
M  V30 1476 H 140.902 1.56214 3.74636 0
M  V30 1477 H 141.668 3.8938 2.8915 0
M  V30 1478 H 137.547 2.88816 3.59313 0
M  V30 1479 H 141.091 6.29137 3.01384 0
M  V30 1480 H 136.988 5.27695 3.71763 0
M  V30 1481 H 137.756 7.3496 3.60245 0
M  V30 1482 N 140.419 -1.14872 1.07899 0
M  V30 1483 C 141.83 -1.67367 0.827363 0
M  V30 1484 C 142.181 -1.85236 -0.646693 0
M  V30 1485 O 141.306 -1.55974 -1.50004 0
M  V30 1486 C 141.901 -3.04016 1.49532 0
M  V30 1487 C 140.46 -3.53566 1.29106 0
M  V30 1488 C 139.607 -2.29161 1.56143 0
M  V30 1489 H 142.558 -0.990083 1.24028 0
M  V30 1490 H 142.579 -3.69219 0.919643 0
M  V30 1491 H 142.091 -2.90978 2.56814 0
M  V30 1492 H 140.192 -3.71835 0.238713 0
M  V30 1493 H 140.305 -4.34661 2.01511 0
M  V30 1494 H 138.669 -2.34978 0.982717 0
M  V30 1495 H 139.452 -2.18705 2.64619 0
M  V30 1496 N 141.898 -0.863906 -1.31812 0
M  V30 1497 C 143.314 -0.555004 -1.49639 0
M  V30 1498 C 143.514 0.912266 -1.79666 0
M  V30 1499 O 142.57 1.69479 -1.87171 0
M  V30 1500 C 143.883 -1.44998 -2.63431 0
M  V30 1501 C 145.431 -1.45138 -2.77316 0
M  V30 1502 C 145.906 -2.33179 -3.94197 0
M  V30 1503 N 147.397 -2.31025 -4.01474 0
M  V30 1504 C 148.132 -2.95871 -4.9117 0
M  V30 1505 N 147.628 -3.69863 -5.8581 0
M  V30 1506 N 149.421 -2.85211 -4.84367 0
M  V30 1507 H 141.572 -1.81339 -1.10589 0
M  V30 1508 H 143.835 -0.77505 -0.545895 0
M  V30 1509 H 143.541 -2.49377 -2.48 0
M  V30 1510 H 143.415 -1.14409 -3.59431 0
M  V30 1511 H 145.802 -0.415201 -2.92164 0
M  V30 1512 H 145.883 -1.79747 -1.82001 0
M  V30 1513 H 145.527 -3.3687 -3.80107 0
M  V30 1514 H 145.457 -1.95897 -4.88807 0
M  V30 1515 H 147.948 -1.77238 -3.33759 0
M  V30 1516 H 148.261 -4.16486 -6.50968 0
M  V30 1517 H 146.606 -3.73971 -5.85808 0
M  V30 1518 H 149.797 -2.26948 -4.09405 0
M  V30 1519 H 149.97 -3.36027 -5.54066 0
M  V30 1520 N 143.376 1.44774 -0.622745 0
M  V30 1521 C 144.286 2.34433 0.0886031 0
M  V30 1522 C 145.302 1.52131 0.844529 0
M  V30 1523 O 146.478 1.84886 0.798691 0
M  V30 1524 C 143.543 3.29986 1.0635 0
M  V30 1525 C 142.604 4.28195 0.307873 0
M  V30 1526 C 141.837 5.19183 1.23633 0
M  V30 1527 O 142.06 5.13918 2.47476 0
M  V30 1528 O 140.994 5.97515 0.725189 0
M  V30 1529 H 144.82 2.96693 -0.648599 0
M  V30 1530 H 142.405 1.44408 -0.382957 0
M  V30 1531 H 144.287 3.88825 1.6246 0
M  V30 1532 H 142.962 2.70269 1.78146 0
M  V30 1533 H 141.869 3.72927 -0.296064 0
M  V30 1534 H 143.202 4.90808 -0.3699 0
M  V30 1535 N 144.854 0.36279 1.53368 0
M  V30 1536 C 146.1 -0.228113 2.01513 0
M  V30 1537 C 146.433 -1.48648 1.2497 0
M  V30 1538 O 145.708 -1.91459 0.342616 0
M  V30 1539 C 145.991 -0.522884 3.56284 0
M  V30 1540 C 145.844 0.74892 4.43521 0
M  V30 1541 C 147.163 -1.32461 4.19693 0
M  V30 1542 H 144.282 -0.0814343 0.732487 0
M  V30 1543 H 146.924 0.48713 1.83649 0
M  V30 1544 H 145.074 -1.1322 3.71636 0
M  V30 1545 H 146.746 1.38648 4.39971 0
M  V30 1546 H 144.989 1.36986 4.11603 0
M  V30 1547 H 145.66 0.497667 5.49752 0
M  V30 1548 H 148.136 -0.809203 4.08156 0
M  V30 1549 H 147.012 -1.49961 5.28018 0
M  V30 1550 H 147.273 -2.33232 3.75573 0
M  V30 1551 N 146.332 -1.57332 0.0918853 0
M  V30 1552 C 147.264 -2.10869 -0.898168 0
M  V30 1553 C 148.277 -1.04521 -1.24817 0
M  V30 1554 O 149.466 -1.31977 -1.20184 0
M  V30 1555 C 146.566 -2.57083 -2.2082 0
M  V30 1556 C 145.739 -3.87229 -2.03402 0
M  V30 1557 C 144.798 -4.19324 -3.17889 0
M  V30 1558 O 143.824 -4.88598 -2.91994 0
M  V30 1559 N 145.026 -3.74471 -4.43567 0
M  V30 1560 H 147.791 -2.96439 -0.440943 0
M  V30 1561 H 145.352 -1.61631 -0.0933064 0
M  V30 1562 H 147.344 -2.75602 -2.96354 0
M  V30 1563 H 145.914 -1.76541 -2.57977 0
M  V30 1564 H 145.134 -3.7789 -1.12218 0
M  V30 1565 H 146.422 -4.72379 -1.89038 0
M  V30 1566 H 145.82 -3.18546 -4.67488 0
M  V30 1567 H 144.377 -3.98151 -5.16061 0
M  V30 1568 N 147.81 0.181792 -1.56548 0
M  V30 1569 C 148.742 1.24956 -1.92142 0
M  V30 1570 C 149.755 1.41022 -0.813422 0
M  V30 1571 O 150.944 1.41212 -1.09186 0
M  V30 1572 C 148.044 2.61981 -2.14987 0
M  V30 1573 C 147.217 2.6735 -3.46183 0
M  V30 1574 C 146.276 3.85664 -3.5798 0
M  V30 1575 O 145.302 3.72148 -4.30691 0
M  V30 1576 N 146.504 5.01683 -2.92053 0
M  V30 1577 H 149.269 0.947329 -2.84334 0
M  V30 1578 H 146.83 0.371629 -1.57577 0
M  V30 1579 H 148.822 3.3958 -2.20154 0
M  V30 1580 H 147.392 2.84637 -1.2923 0
M  V30 1581 H 146.612 1.75925 -3.52766 0
M  V30 1582 H 147.9 2.67939 -4.32534 0
M  V30 1583 H 147.298 5.15564 -2.32832 0
M  V30 1584 H 145.855 5.77181 -3.0283 0
M  V30 1585 N 149.288 1.51039 0.449983 0
M  V30 1586 C 150.536 1.62759 1.19808 0
M  V30 1587 C 150.857 0.339981 1.92013 0
M  V30 1588 O 150.127 -0.643606 1.85026 0
M  V30 1589 H 148.707 0.599811 0.445237 0
M  V30 1590 H 151.369 1.87914 0.517138 0
M  V30 1591 H 150.465 2.44911 1.93455 0
M  V30 1592 N 150.766 -0.704594 1.40972 0
M  V30 1593 C 151.676 -1.84856 1.44448 0
M  V30 1594 C 152.692 -1.70726 0.335961 0
M  V30 1595 O 153.868 -1.92799 0.582276 0
M  V30 1596 C 150.933 -3.20758 1.31587 0
M  V30 1597 C 149.994 -3.47063 2.52677 0
M  V30 1598 C 149.227 -4.76481 2.4042 0
M  V30 1599 O 149.45 -5.52341 1.42391 0
M  V30 1600 O 148.384 -5.03367 3.30007 0
M  V30 1601 H 152.21 -1.8488 2.40942 0
M  V30 1602 H 149.795 -0.85647 1.22413 0
M  V30 1603 H 151.677 -4.01913 1.26665 0
M  V30 1604 H 150.352 -3.21438 0.382049 0
M  V30 1605 H 149.259 -2.65873 2.63177 0
M  V30 1606 H 150.592 -3.5119 3.44858 0
M  V30 1607 N 152.244 -1.26651 -0.937939 0
M  V30 1608 C 153.154 -1.10276 -2.07066 0
M  V30 1609 C 154.17 -0.0354197 -1.73964 0
M  V30 1610 O 155.346 -0.239816 -1.99967 0
M  V30 1611 C 152.411 -0.740887 -3.38691 0
M  V30 1612 C 151.472 -1.88799 -3.85556 0
M  V30 1613 C 150.705 -1.54329 -5.10899 0
M  V30 1614 O 150.928 -0.446494 -5.6865 0
M  V30 1615 O 149.862 -2.37911 -5.52885 0
M  V30 1616 H 153.688 -2.05309 -2.23789 0
M  V30 1617 H 151.273 -1.05743 -1.0554 0
M  V30 1618 H 153.155 -0.55195 -4.1777 0
M  V30 1619 H 151.83 0.180022 -3.23199 0
M  V30 1620 H 150.737 -2.13191 -3.07409 0
M  V30 1621 H 152.07 -2.78874 -4.05574 0
M  V30 1622 N 153.722 1.14298 -1.08507 0
M  V30 1623 C 154.969 1.85359 -0.815373 0
M  V30 1624 C 155.297 1.83001 0.658865 0
M  V30 1625 O 154.552 1.25655 1.50031 0
M  V30 1626 C 154.851 3.33547 -1.28379 0
M  V30 1627 C 154.517 3.56093 -2.76602 0
M  V30 1628 C 153.179 3.61955 -3.17084 0
M  V30 1629 C 155.531 3.64834 -3.72217 0
M  V30 1630 C 152.859 3.74082 -4.51973 0
M  V30 1631 C 155.211 3.78487 -5.06883 0
M  V30 1632 C 153.875 3.82598 -5.46969 0
M  V30 1633 H 153.145 0.678276 -0.298366 0
M  V30 1634 H 155.792 1.35002 -1.35819 0
M  V30 1635 H 154.097 3.86191 -0.660593 0
M  V30 1636 H 155.794 3.86959 -1.05186 0
M  V30 1637 H 152.384 3.52179 -2.4427 0
M  V30 1638 H 156.568 3.59595 -3.42061 0
M  V30 1639 H 151.824 3.75527 -4.82483 0
M  V30 1640 H 155.998 3.84193 -5.80834 0
M  V30 1641 H 153.625 3.91747 -6.51489 0
M  V30 1642 N 155.201 0.870884 1.31352 0
M  V30 1643 C 156.111 0.330783 2.32256 0
M  V30 1644 C 157.127 -0.559767 1.6475 0
M  V30 1645 O 158.303 -0.456263 1.96164 0
M  V30 1646 C 155.368 -0.458137 3.4366 0
M  V30 1647 C 154.429 0.460482 4.26823 0
M  V30 1648 C 153.662 -0.290881 5.32907 0
M  V30 1649 O 153.885 -1.51885 5.49806 0
M  V30 1650 O 152.819 0.351732 6.00871 0
M  V30 1651 H 156.645 1.16718 2.80376 0
M  V30 1652 H 154.23 0.634285 1.35267 0
M  V30 1653 H 156.112 -0.905343 4.1156 0
M  V30 1654 H 154.787 -1.27106 2.97701 0
M  V30 1655 H 153.694 0.956207 3.61673 0
M  V30 1656 H 155.027 1.23903 4.7635 0
M  V30 1657 N 156.679 -1.44442 0.630414 0
M  V30 1658 C 158.095 -1.56832 0.295973 0
M  V30 1659 C 158.295 -1.61806 -1.20088 0
M  V30 1660 O 157.351 -1.5607 -1.9849 0
M  V30 1661 C 158.664 -2.84031 0.987264 0
M  V30 1662 C 160.212 -2.97742 0.96534 0
M  V30 1663 C 160.687 -4.27743 1.63708 0
M  V30 1664 N 162.178 -4.34555 1.60364 0
M  V30 1665 C 162.913 -5.33862 2.09234 0
M  V30 1666 N 162.409 -6.39578 2.66292 0
M  V30 1667 N 164.202 -5.25366 1.99867 0
M  V30 1668 H 156.353 -1.39457 1.60205 0
M  V30 1669 H 158.616 -0.668237 0.672431 0
M  V30 1670 H 158.322 -2.86338 2.04215 0
M  V30 1671 H 158.196 -3.73534 0.524588 0
M  V30 1672 H 160.583 -2.94989 -0.0810639 0
M  V30 1673 H 160.664 -2.09589 1.4665 0
M  V30 1674 H 160.308 -4.31255 2.68293 0
M  V30 1675 H 160.238 -5.14752 1.11076 0
M  V30 1676 H 162.729 -3.58772 1.18705 0
M  V30 1677 H 163.042 -7.11637 3.01317 0
M  V30 1678 H 161.387 -6.40265 2.70343 0
M  V30 1679 H 164.578 -4.41688 1.55013 0
M  V30 1680 H 164.751 -6.02606 2.38265 0
M  V30 1681 N 158.157 -0.370918 -1.53173 0
M  V30 1682 C 159.573 -0.0200818 -1.59587 0
M  V30 1683 C 159.773 1.46279 -1.38581 0
M  V30 1684 O 158.829 2.22506 -1.19363 0
M  V30 1685 C 160.142 -0.4808 -2.96831 0
M  V30 1686 C 161.69 -0.435477 -3.09956 0
M  V30 1687 C 162.165 -0.872092 -4.4962 0
M  V30 1688 N 163.656 -0.827364 -4.55751 0
M  V30 1689 C 164.391 -1.13683 -5.62018 0
M  V30 1690 N 163.887 -1.51584 -6.76014 0
M  V30 1691 N 165.68 -1.05927 -5.52029 0
M  V30 1692 H 157.831 -1.33652 -1.65079 0
M  V30 1693 H 160.094 -0.546634 -0.774529 0
M  V30 1694 H 159.8 -1.51577 -3.1736 0
M  V30 1695 H 159.674 0.129796 -3.76977 0
M  V30 1696 H 162.061 0.590371 -2.89134 0
M  V30 1697 H 162.142 -1.08164 -2.31806 0
M  V30 1698 H 161.786 -1.89608 -4.71181 0
M  V30 1699 H 161.716 -0.203127 -5.26208 0
M  V30 1700 H 164.207 -0.548216 -3.73902 0
M  V30 1701 H 164.52 -1.73609 -7.53047 0
M  V30 1702 H 162.865 -1.55454 -6.77391 0
M  V30 1703 H 166.056 -0.762321 -4.61851 0
M  V30 1704 H 166.229 -1.30378 -6.34749 0
M  V30 1705 N 159.635 1.57281 -0.100228 0
M  V30 1706 C 160.884 1.93713 0.561984 0
M  V30 1707 C 161.197 0.984492 1.69018 0
M  V30 1708 O 162.403 1.24273 2.41389 0
M  V30 1709 C 160.859 3.4421 1.05106 0
M  V30 1710 C 160.467 4.47975 -0.0476628 0
M  V30 1711 C 162.211 3.89595 1.68571 0
M  V30 1712 C 160.118 5.89631 0.457055 0
M  V30 1713 H 159.048 0.723082 0.2137 0
M  V30 1714 H 161.699 1.82644 -0.177057 0
M  V30 1715 H 160.081 3.50449 1.84395 0
M  V30 1716 H 161.255 4.53385 -0.823333 0
M  V30 1717 H 159.57 4.1223 -0.587816 0
M  V30 1718 H 162.167 4.92832 2.07414 0
M  V30 1719 H 162.51 3.28526 2.55688 0
M  V30 1720 H 163.043 3.86078 0.958562 0
M  V30 1721 H 159.782 6.54411 -0.377616 0
M  V30 1722 H 159.302 5.87681 1.19962 0
M  V30 1723 H 160.981 6.40363 0.92437 0
M  V30 1724 N 161.113 -0.173488 1.56642 0
M  V30 1725 C 162.361 -0.888706 1.81512 0
M  V30 1726 C 162.682 -1.82875 0.676872 0
M  V30 1727 O 161.952 -1.93536 -0.303414 0
M  V30 1728 H 160.532 -0.331164 0.669582 0
M  V30 1729 H 163.194 -0.173823 1.94123 0
M  V30 1730 H 162.29 -1.46691 2.75478 0
M  V30 1731 N 162.591 -1.51276 -0.441967 0
M  V30 1732 C 163.523 -1.68444 -1.55433 0
M  V30 1733 C 164.536 -0.565187 -1.52674 0
M  V30 1734 O 165.725 -0.839356 -1.57534 0
M  V30 1735 C 162.825 -1.67966 -2.94348 0
M  V30 1736 C 161.998 -2.964 -3.21661 0
M  V30 1737 C 161.057 -2.88171 -4.40277 0
M  V30 1738 O 160.083 -3.62119 -4.39157 0
M  V30 1739 N 161.285 -2.03706 -5.43584 0
M  V30 1740 H 164.05 -2.644 -1.41112 0
M  V30 1741 H 161.611 -1.49104 -0.630838 0
M  V30 1742 H 163.603 -1.60035 -3.71713 0
M  V30 1743 H 162.173 -0.796225 -3.0229 0
M  V30 1744 H 161.393 -3.18234 -2.32638 0
M  V30 1745 H 162.681 -3.81427 -3.36736 0
M  V30 1746 H 162.079 -1.42995 -5.47329 0
M  V30 1747 H 160.636 -2.01658 -6.1982 0
M  V30 1748 N 164.069 0.697108 -1.41344 0
M  V30 1749 C 165.48 1.27697 -1.36199 0
M  V30 1750 C 165.831 1.9615 -0.0443463 0
M  V30 1751 O 164.956 1.98689 0.857419 0
M  V30 1752 C 165.551 2.32223 -2.46694 0
M  V30 1753 C 164.11 2.8579 -2.44952 0
M  V30 1754 C 163.257 1.59807 -2.26621 0
M  V30 1755 H 166.208 0.491968 -1.50882 0
M  V30 1756 H 166.229 3.1348 -2.15664 0
M  V30 1757 H 165.741 1.82373 -3.42581 0
M  V30 1758 H 163.842 3.3982 -1.52817 0
M  V30 1759 H 163.955 3.36325 -3.41207 0
M  V30 1760 H 162.319 1.8556 -1.7447 0
M  V30 1761 H 163.102 1.11956 -3.24532 0
M  V30 1762 N 165.547 1.27147 0.931209 0
M  V30 1763 C 166.775 1.16082 1.71267 0
M  V30 1764 C 167.19 -0.282772 1.8667 0
M  V30 1765 O 166.547 -1.19283 1.38122 0
M  V30 1766 C 166.598 1.8358 3.11417 0
M  V30 1767 O 166.319 3.22299 2.96741 0
M  V30 1768 C 167.82 1.78597 4.05732 0
M  V30 1769 H 165.04 0.403758 0.535929 0
M  V30 1770 H 167.584 1.67953 1.16671 0
M  V30 1771 H 165.739 1.35623 3.62885 0
M  V30 1772 H 166.153 3.55851 3.85319 0
M  V30 1773 H 167.627 2.30444 5.01597 0
M  V30 1774 H 168.104 0.754564 4.3267 0
M  V30 1775 H 168.71 2.26152 3.60188 0
M  V30 1776 N 167.025 -1.13721 1.09112 0
M  V30 1777 C 167.955 -2.21148 0.749385 0
M  V30 1778 C 168.936 -1.6792 -0.271475 0
M  V30 1779 O 170.121 -1.93693 -0.140251 0
M  V30 1780 C 167.251 -3.46905 0.165659 0
M  V30 1781 C 166.205 -4.13203 1.11567 0
M  V30 1782 C 165.531 -5.33248 0.393809 0
M  V30 1783 C 166.831 -4.60912 2.45678 0
M  V30 1784 H 168.525 -2.4999 1.64758 0
M  V30 1785 H 166.071 -1.20156 0.793626 0
M  V30 1786 H 168.024 -4.21313 -0.085466 0
M  V30 1787 H 166.748 -3.17449 -0.767714 0
M  V30 1788 H 165.407 -3.40758 1.35202 0
M  V30 1789 H 165.055 -5.00054 -0.543599 0
M  V30 1790 H 164.755 -5.78552 1.02721 0
M  V30 1791 H 166.279 -6.10413 0.150908 0
M  V30 1792 H 167.693 -5.26759 2.26269 0
M  V30 1793 H 166.09 -5.16944 3.04776 0
M  V30 1794 H 167.16 -3.75603 3.06677 0
M  V30 1795 N 168.503 -0.877838 -1.30888 0
M  V30 1796 C 169.433 -0.35534 -2.3078 0
M  V30 1797 C 170.414 0.557994 -1.60687 0
M  V30 1798 O 171.599 0.473355 -1.88343 0
M  V30 1799 C 168.729 0.437221 -3.44537 0
M  V30 1800 C 167.683 -0.383715 -4.26276 0
M  V30 1801 C 167.009 0.535014 -5.32017 0
M  V30 1802 C 168.309 -1.62201 -4.96476 0
M  V30 1803 H 170.003 -1.19007 -2.74732 0
M  V30 1804 H 167.549 -0.573698 -1.32078 0
M  V30 1805 H 169.502 0.813334 -4.13477 0
M  V30 1806 H 168.226 1.30553 -2.99372 0
M  V30 1807 H 166.885 -0.741874 -3.59015 0
M  V30 1808 H 166.533 1.40083 -4.831 0
M  V30 1809 H 166.233 -0.0104211 -5.87599 0
M  V30 1810 H 167.757 0.907799 -6.03814 0
M  V30 1811 H 169.171 -1.31689 -5.5797 0
M  V30 1812 H 167.568 -2.10711 -5.61891 0
M  V30 1813 H 168.638 -2.37044 -4.23011 0
M  V30 1814 N 169.982 1.44106 -0.638065 0
M  V30 1815 C 170.912 2.33448 0.0494287 0
M  V30 1816 C 171.893 1.48606 0.827672 0
M  V30 1817 O 173.078 1.77308 0.792173 0
M  V30 1818 C 170.208 3.31771 1.02691 0
M  V30 1819 C 169.162 4.26485 0.359823 0
M  V30 1820 C 168.488 5.14729 1.44769 0
M  V30 1821 C 169.788 5.17056 -0.738296 0
M  V30 1822 H 171.482 2.91183 -0.696636 0
M  V30 1823 H 169.028 1.40014 -0.336456 0
M  V30 1824 H 170.981 3.93161 1.51666 0
M  V30 1825 H 169.705 2.7226 1.80395 0
M  V30 1826 H 168.364 3.66437 -0.10934 0
M  V30 1827 H 168.012 4.51566 2.21578 0
M  V30 1828 H 167.712 5.78913 1.00668 0
M  V30 1829 H 169.236 5.78991 1.93911 0
M  V30 1830 H 170.65 5.72342 -0.331354 0
M  V30 1831 H 169.047 5.89879 -1.10286 0
M  V30 1832 H 170.117 4.57652 -1.60258 0
M  V30 1833 N 171.46 0.379036 1.52974 0
M  V30 1834 C 172.69 -0.20649 2.05566 0
M  V30 1835 C 173.098 -1.41906 1.25137 0
M  V30 1836 O 172.441 -1.81421 0.288464 0
M  V30 1837 C 172.503 -0.651086 3.53555 0
M  V30 1838 C 172.167 0.446626 4.54812 0
M  V30 1839 C 173.164 1.30079 5.03364 0
M  V30 1840 C 170.849 0.610719 4.98573 0
M  V30 1841 C 172.843 2.30426 5.94292 0
M  V30 1842 C 170.53 1.61754 5.89304 0
M  V30 1843 C 171.528 2.46274 6.37054 0
M  V30 1844 O 171.216 3.45237 7.25994 0
M  V30 1845 H 170.948 -0.0372381 0.674974 0
M  V30 1846 H 173.502 0.539718 1.98182 0
M  V30 1847 H 171.732 -1.44911 3.58522 0
M  V30 1848 H 173.421 -1.16112 3.88938 0
M  V30 1849 H 174.187 1.18527 4.70294 0
M  V30 1850 H 170.066 -0.0374044 4.60985 0
M  V30 1851 H 173.61 2.96432 6.31485 0
M  V30 1852 H 169.507 1.73348 6.21788 0
M  V30 1853 H 170.275 3.41124 7.44027 0
M  V30 1854 N 172.938 -1.57226 0.108567 0
M  V30 1855 C 174.184 -1.95121 -0.552761 0
M  V30 1856 C 174.517 -0.991345 -1.66991 0
M  V30 1857 O 173.792 -0.0267211 -1.94482 0
M  V30 1858 C 174.075 -3.43039 -1.09528 0
M  V30 1859 C 173.928 -4.49797 0.0177332 0
M  V30 1860 C 175.247 -3.92567 -1.98945 0
M  V30 1861 H 172.366 -0.709496 -0.199461 0
M  V30 1862 H 175.008 -1.89126 0.182011 0
M  V30 1863 H 173.158 -3.48279 -1.72146 0
M  V30 1864 H 174.83 -4.56661 0.652584 0
M  V30 1865 H 173.073 -4.284 0.682309 0
M  V30 1866 H 173.744 -5.50528 -0.402919 0
M  V30 1867 H 176.22 -3.89565 -1.46214 0
M  V30 1868 H 175.096 -4.96605 -2.33827 0
M  V30 1869 H 175.357 -3.32648 -2.91201 0
M  V30 1870 N 174.416 0.165178 -1.56732 0
M  V30 1871 C 175.693 0.908443 -1.73224 0
M  V30 1872 C 176.073 2.0013 -0.67165 0
M  V30 1873 O 175.421 2.26353 0.31253 0
M  V30 1874 C 175.631 1.46756 -3.16644 0
M  V30 1875 C 176.979 1.93809 -3.77787 0
M  V30 1876 O 178.003 1.56537 -3.1996 0
M  V30 1877 O 176.862 2.62486 -4.79336 0
M  V30 1878 H 173.956 0.428025 -0.707618 0
M  V30 1879 H 176.502 0.152526 -1.69013 0
M  V30 1880 H 175.274 0.68129 -3.85323 0
M  V30 1881 H 174.897 2.28749 -3.25207 0
M  V30 1882 N 175.894 1.51508 0.433938 0
M  V30 1883 C 176.857 1.72473 1.50949 0
M  V30 1884 C 177.857 0.594725 1.49398 0
M  V30 1885 O 179.047 0.862315 1.5136 0
M  V30 1886 C 176.179 1.78431 2.90474 0
M  V30 1887 H 177.372 2.68467 1.33662 0
M  V30 1888 H 174.925 1.41549 0.662836 0
M  V30 1889 H 175.66 0.842645 3.13161 0
M  V30 1890 H 175.445 2.60558 2.93005 0
M  V30 1891 H 176.935 1.96479 3.68491 0
M  V30 1892 N 177.372 -0.689602 1.41712 0
M  V30 1893 C 178.62 -1.4468 1.4111 0
M  V30 1894 C 178.941 -1.94986 0.0232196 0
M  V30 1895 O 178.211 -1.72097 -0.935913 0
M  V30 1896 H 176.791 -0.536847 0.519427 0
M  V30 1897 H 179.453 -0.815825 1.77004 0
M  V30 1898 H 178.549 -2.30706 2.10193 0
M  V30 1899 N 178.85 -1.27639 -0.924453 0
M  V30 1900 C 180.261 -1.12834 -1.48746 0
M  V30 1901 C 180.612 0.285505 -1.94112 0
M  V30 1902 O 179.737 1.17874 -1.81479 0
M  V30 1903 C 180.332 -2.04217 -2.70334 0
M  V30 1904 C 178.891 -1.93509 -3.22848 0
M  V30 1905 C 178.038 -1.96583 -1.95577 0
M  V30 1906 H 180.989 -1.40484 -0.738233 0
M  V30 1907 H 181.01 -1.59989 -3.4523 0
M  V30 1908 H 180.522 -3.07111 -2.37285 0
M  V30 1909 H 178.623 -0.936131 -3.60649 0
M  V30 1910 H 178.736 -2.79917 -3.88823 0
M  V30 1911 H 177.1 -1.4085 -2.12211 0
M  V30 1912 H 177.883 -3.01137 -1.64837 0
M  V30 1913 N 180.328 1.1314 -1.09713 0
M  V30 1914 C 181.238 2.22242 -0.751367 0
M  V30 1915 C 182.254 1.72224 0.247938 0
M  V30 1916 O 183.43 2.01205 0.0885463 0
M  V30 1917 C 180.495 3.46231 -0.180274 0
M  V30 1918 C 179.556 4.11125 -1.2359 0
M  V30 1919 C 178.789 5.29195 -0.691966 0
M  V30 1920 O 179.012 5.68342 0.48414 0
M  V30 1921 O 177.946 5.84214 -1.44838 0
M  V30 1922 H 181.772 2.54197 -1.66186 0
M  V30 1923 H 179.357 1.21331 -0.871735 0
M  V30 1924 H 181.239 4.21185 0.134739 0
M  V30 1925 H 179.914 3.1597 0.703185 0
M  V30 1926 H 178.821 3.37985 -1.60366 0
M  V30 1927 H 180.154 4.45524 -2.09211 0
M  V30 1928 N 181.806 0.884767 1.30421 0
M  V30 1929 C 183.034 0.518044 2.0031 0
M  V30 1930 C 183.449 -0.893408 1.66324 0
M  V30 1931 O 182.806 -1.5875 0.900262 0
M  V30 1932 C 182.857 0.682997 3.54989 0
M  V30 1933 O 182.578 2.03888 3.87764 0
M  V30 1934 C 184.079 0.31924 4.42149 0
M  V30 1935 H 181.299 0.200265 0.640418 0
M  V30 1936 H 183.843 1.19001 1.6631 0
M  V30 1937 H 181.998 0.0584052 3.87356 0
M  V30 1938 H 182.412 2.05735 4.82466 0
M  V30 1939 H 183.886 0.485555 5.4986 0
M  V30 1940 H 184.363 -0.742717 4.32875 0
M  V30 1941 H 184.969 0.920147 4.15227 0
M  V30 1942 N 183.284 -1.43765 0.645699 0
M  V30 1943 C 184.217 -2.2798 -0.100072 0
M  V30 1944 C 185.195 -1.39391 -0.837194 0
M  V30 1945 O 186.379 -1.68833 -0.838306 0
M  V30 1946 C 183.506 -3.18643 -1.14823 0
M  V30 1947 C 182.552 -4.2344 -0.510009 0
M  V30 1948 S 183.385 -5.30761 0.710824 0
M  V30 1949 C 184.541 -6.24992 -0.33699 0
M  V30 1950 H 184.774 -2.90884 0.614322 0
M  V30 1951 H 182.307 -1.48166 0.434304 0
M  V30 1952 H 184.265 -3.71424 -1.74799 0
M  V30 1953 H 182.926 -2.54932 -1.8349 0
M  V30 1954 H 182.119 -4.86948 -1.29991 0
M  V30 1955 H 181.721 -3.73997 0.0154577 0
M  V30 1956 H 184.013 -6.66691 -1.20537 0
M  V30 1957 H 184.956 -7.07612 0.262879 0
M  V30 1958 H 185.364 -5.60517 -0.669425 0
M  V30 1959 N 184.763 -0.387143 -1.52771 0
M  V30 1960 C 185.991 0.195869 -2.05971 0
M  V30 1961 C 186.406 1.40691 -1.25903 0
M  V30 1962 O 185.763 1.79931 -0.305134 0
M  V30 1963 C 185.814 0.56812 -3.57008 0
M  V30 1964 O 185.535 -0.594803 -4.34043 0
M  V30 1965 C 187.036 1.20723 -4.26545 0
M  V30 1966 H 184.256 0.0300578 -0.670326 0
M  V30 1967 H 186.8 -0.551749 -1.96916 0
M  V30 1968 H 184.955 1.26564 -3.66143 0
M  V30 1969 H 185.369 -0.289322 -5.23701 0
M  V30 1970 H 186.843 1.41807 -5.33474 0
M  V30 1971 H 187.32 2.17395 -3.81623 0
M  V30 1972 H 187.926 0.550535 -4.21722 0
M  V30 1973 N 186.241 1.57166 -0.116904 0
M  V30 1974 C 187.173 2.12271 0.864507 0
M  V30 1975 C 188.186 1.06494 1.23138 0
M  V30 1976 O 189.375 1.33873 1.18069 0
M  V30 1977 C 186.475 2.60564 2.16702 0
M  V30 1978 C 185.648 3.90416 1.97216 0
M  V30 1979 C 184.707 4.24329 3.11178 0
M  V30 1980 O 183.733 4.93182 2.84184 0
M  V30 1981 N 184.935 3.8148 4.37554 0
M  V30 1982 H 187.7 2.97102 0.393726 0
M  V30 1983 H 185.261 1.61759 0.0675805 0
M  V30 1984 H 187.253 2.80282 2.91932 0
M  V30 1985 H 185.823 1.80623 2.55135 0
M  V30 1986 H 185.043 3.79627 1.06192 0
M  V30 1987 H 186.331 4.75327 1.81499 0
M  V30 1988 H 185.729 3.25943 4.62361 0
M  V30 1989 H 184.286 4.06311 5.09661 0
M  V30 1990 N 187.719 -0.156864 1.56817 0
M  V30 1991 C 189.135 -0.50916 1.5126 0
M  V30 1992 C 189.335 -1.83897 0.823658 0
M  V30 1993 O 188.391 -2.49469 0.390055 0
M  V30 1994 C 189.704 -0.52857 2.96018 0
M  V30 1995 C 191.252 -0.614771 3.06903 0
M  V30 1996 C 191.727 -0.664938 4.53147 0
M  V30 1997 N 193.218 -0.727433 4.57452 0
M  V30 1998 C 193.953 -0.787067 5.67973 0
M  V30 1999 N 193.449 -0.806649 6.88088 0
M  V30 2000 N 195.242 -0.827195 5.5598 0
M  V30 2001 H 187.393 0.714935 2.00006 0
M  V30 2002 H 189.656 0.259526 0.911784 0
M  V30 2003 H 189.362 0.380154 3.49639 0
M  V30 2004 H 189.236 -1.36998 3.51442 0
M  V30 2005 H 191.623 -1.51392 2.53307 0
M  V30 2006 H 191.704 0.253597 2.5454 0
M  V30 2007 H 191.348 0.230011 5.07379 0
M  V30 2008 H 191.278 -1.54966 5.03282 0
M  V30 2009 H 193.769 -0.719998 3.70978 0
M  V30 2010 H 194.082 -0.853727 7.6807 0
M  V30 2011 H 192.427 -0.774687 6.90669 0
M  V30 2012 H 195.618 -0.808998 4.61056 0
M  V30 2013 H 195.791 -0.870206 6.4213 0
M  V30 2014 N 189.197 -1.51736 -0.425897 0
M  V30 2015 C 190.127 -1.76827 -1.52494 0
M  V30 2016 C 191.108 -0.618524 -1.58456 0
M  V30 2017 O 192.293 -0.862416 -1.74 0
M  V30 2018 C 189.423 -1.90374 -2.90474 0
M  V30 2019 C 188.377 -3.0588 -2.99369 0
M  V30 2020 C 187.703 -3.04625 -4.3944 0
M  V30 2021 C 189.003 -4.45644 -2.72394 0
M  V30 2022 H 190.697 -2.68855 -1.31748 0
M  V30 2023 H 188.243 -1.29372 -0.632362 0
M  V30 2024 H 190.196 -2.0651 -3.6733 0
M  V30 2025 H 188.92 -0.95004 -3.12477 0
M  V30 2026 H 187.579 -2.89467 -2.24954 0
M  V30 2027 H 187.227 -2.0701 -4.58428 0
M  V30 2028 H 186.927 -3.82195 -4.46319 0
M  V30 2029 H 188.451 -3.22869 -5.18255 0
M  V30 2030 H 189.865 -4.62348 -3.38979 0
M  V30 2031 H 188.262 -5.25006 -2.9067 0
M  V30 2032 H 189.332 -4.54893 -1.67929 0
M  V30 2033 N 190.675 0.682077 -1.42076 0
M  V30 2034 C 191.605 1.80796 -1.47767 0
M  V30 2035 C 192.586 1.6677 -0.334954 0
M  V30 2036 O 193.771 1.863 -0.548264 0
M  V30 2037 C 190.901 3.19038 -1.37229 0
M  V30 2038 C 189.855 3.47789 -2.49453 0
M  V30 2039 C 189.181 4.8553 -2.23975 0
M  V30 2040 C 190.481 3.45411 -3.91776 0
M  V30 2041 H 192.175 1.7629 -2.41997 0
M  V30 2042 H 189.721 0.846721 -1.16476 0
M  V30 2043 H 191.674 3.97528 -1.39821 0
M  V30 2044 H 190.398 3.24204 -0.394907 0
M  V30 2045 H 189.057 2.71657 -2.46166 0
M  V30 2046 H 188.705 4.87337 -1.24547 0
M  V30 2047 H 188.405 5.0573 -2.99184 0
M  V30 2048 H 189.929 5.66312 -2.28304 0
M  V30 2049 H 191.343 4.13882 -3.96705 0
M  V30 2050 H 189.74 3.77145 -4.66778 0
M  V30 2051 H 190.81 2.44122 -4.18966 0
M  V30 2052 N 192.153 1.28127 0.917671 0
M  V30 2053 C 193.1 1.11717 2.0196 0
M  V30 2054 C 194.07 0.0153929 1.66093 0
M  V30 2055 O 195.255 0.179596 1.89953 0
M  V30 2056 C 192.395 0.780927 3.36148 0
M  V30 2057 C 191.508 1.96135 3.84909 0
M  V30 2058 C 190.643 1.56609 5.0759 0
M  V30 2059 C 189.682 2.71339 5.48673 0
M  V30 2060 N 188.819 2.32332 6.62545 0
M  V30 2061 H 193.659 2.06003 2.15329 0
M  V30 2062 H 191.196 1.02535 1.05475 0
M  V30 2063 H 193.154 0.56675 4.13333 0
M  V30 2064 H 191.784 -0.124998 3.22558 0
M  V30 2065 H 190.836 2.28777 3.03916 0
M  V30 2066 H 192.148 2.82165 4.1132 0
M  V30 2067 H 191.302 1.31374 5.92305 0
M  V30 2068 H 190.041 0.677014 4.82978 0
M  V30 2069 H 189.046 2.97276 4.62501 0
M  V30 2070 H 190.271 3.60882 5.75274 0
M  V30 2071 H 188.217 1.45889 6.39572 0
M  V30 2072 H 188.134 3.11899 6.88662 0
M  V30 2073 H 189.402 2.10371 7.50576 0
M  V30 2074 N 193.631 -1.12557 1.10312 0
M  V30 2075 C 195.047 -1.36036 0.834649 0
M  V30 2076 C 195.247 -1.93946 -0.546539 0
M  V30 2077 O 194.303 -2.16484 -1.29966 0
M  V30 2078 C 195.616 -2.30312 1.9333 0
M  V30 2079 C 197.164 -2.43906 1.9616 0
M  V30 2080 C 197.639 -3.41496 3.05195 0
M  V30 2081 N 199.13 -3.49053 3.04494 0
M  V30 2082 C 199.865 -4.24471 3.85502 0
M  V30 2083 N 199.361 -5.02966 4.76442 0
M  V30 2084 N 201.154 -4.19864 3.73725 0
M  V30 2085 H 193.305 -0.733246 1.99342 0
M  V30 2086 H 195.568 -0.385234 0.866198 0
M  V30 2087 H 195.274 -1.94933 2.92735 0
M  V30 2088 H 195.148 -3.30421 1.81939 0
M  V30 2089 H 197.535 -2.78567 0.973886 0
M  V30 2090 H 197.616 -1.4369 2.11629 0
M  V30 2091 H 197.26 -3.07565 4.04186 0
M  V30 2092 H 197.19 -4.41539 2.86968 0
M  V30 2093 H 199.681 -2.93053 2.38596 0
M  V30 2094 H 199.994 -5.57846 5.34815 0
M  V30 2095 H 198.339 -5.02167 4.80472 0
M  V30 2096 H 201.53 -3.57623 3.02032 0
M  V30 2097 H 201.703 -4.78386 4.37093 0
M  V30 2098 N 195.109 -0.891671 -1.2995 0
M  V30 2099 C 196.357 -0.512486 -1.95494 0
M  V30 2100 C 196.678 0.942776 -1.70695 0
M  V30 2101 O 195.948 1.66374 -1.03424 0
M  V30 2102 H 194.528 -0.186533 -0.723336 0
M  V30 2103 H 197.19 -1.13621 -1.58355 0
M  V30 2104 H 196.286 -0.688342 -3.04415 0
M  V30 2105 N 196.587 1.43421 -0.653314 0
M  V30 2106 C 197.497 2.34568 0.0388565 0
M  V30 2107 C 198.513 1.53888 0.81207 0
M  V30 2108 O 199.689 1.86539 0.759294 0
M  V30 2109 C 196.754 3.32167 0.993269 0
M  V30 2110 C 195.815 4.28751 0.216977 0
M  V30 2111 C 195.048 5.21688 1.12593 0
M  V30 2112 O 195.271 5.19052 2.36519 0
M  V30 2113 O 194.205 5.98919 0.598284 0
M  V30 2114 H 198.031 2.95251 -0.711386 0
M  V30 2115 H 195.616 1.43564 -0.413502 0
M  V30 2116 H 197.498 3.92183 1.54176 0
M  V30 2117 H 196.173 2.73987 1.72374 0
M  V30 2118 H 195.08 3.72215 -0.375101 0
M  V30 2119 H 196.413 4.89913 -0.473924 0
M  V30 2120 N 198.065 0.39524 1.52563 0
M  V30 2121 C 199.293 -0.184943 2.06072 0
M  V30 2122 C 199.708 -1.40021 1.26647 0
M  V30 2123 O 199.065 -1.79767 0.314672 0
M  V30 2124 C 199.116 -0.549179 3.57304 0
M  V30 2125 O 198.837 0.617813 4.33722 0
M  V30 2126 C 200.338 -1.18459 4.2718 0
M  V30 2127 H 197.558 -0.0265025 0.670476 0
M  V30 2128 H 200.102 0.562184 1.96621 0
M  V30 2129 H 198.257 -1.2462 3.66809 0
M  V30 2130 H 198.671 0.317091 5.23541 0
M  V30 2131 H 200.145 -1.38976 5.34219 0
M  V30 2132 H 200.622 -2.15368 3.82771 0
M  V30 2133 H 201.228 -0.528163 4.22008 0
M  V30 2134 N 199.544 -1.57102 0.125237 0
M  V30 2135 C 200.769 -2.0019 -0.542101 0
M  V30 2136 C 201.194 -1.00449 -1.59034 0
M  V30 2137 O 200.552 0.0229423 -1.81285 0
M  V30 2138 C 200.6 -3.42129 -1.13929 0
M  V30 2139 O 199.704 -3.45307 -2.2547 0
M  V30 2140 H 199.045 -0.650171 -0.134812 0
M  V30 2141 H 201.575 -2.03461 0.215553 0
M  V30 2142 H 201.585 -3.80471 -1.4733 0
M  V30 2143 H 200.26 -4.14237 -0.371531 0
M  V30 2144 H 198.837 -3.1879 -1.93462 0
M  V30 2145 N 201.022 0.148545 -1.56898 0
M  V30 2146 C 202.27 0.859717 -1.82902 0
M  V30 2147 C 202.591 1.81775 -0.70588 0
M  V30 2148 O 201.861 1.93994 0.272586 0
M  V30 2149 H 200.441 0.320469 -0.674766 0
M  V30 2150 H 203.103 0.142918 -1.94375 0
M  V30 2151 H 202.199 1.4229 -2.77777 0
M  V30 2152 N 202.5 1.5196 0.417844 0
M  V30 2153 C 203.916 1.40569 0.755816 0
M  V30 2154 C 204.116 0.503316 1.95113 0
M  V30 2155 O 203.172 -0.0341925 2.52477 0
M  V30 2156 C 204.485 2.82947 1.01791 0
M  V30 2157 C 206.033 2.92231 1.12116 0
M  V30 2158 C 206.508 4.35559 1.41608 0
M  V30 2159 N 207.999 4.38753 1.48491 0
M  V30 2160 C 208.734 5.46705 1.7292 0
M  V30 2161 N 208.23 6.64788 1.95011 0
M  V30 2162 N 210.023 5.34209 1.74863 0
M  V30 2163 H 202.174 2.09168 -0.369098 0
M  V30 2164 H 204.437 0.942409 -0.102809 0
M  V30 2165 H 204.143 3.5106 0.212081 0
M  V30 2166 H 204.017 3.23462 1.94042 0
M  V30 2167 H 206.404 2.24304 1.9176 0
M  V30 2168 H 206.485 2.55185 0.177225 0
M  V30 2169 H 206.129 5.04042 0.624848 0
M  V30 2170 H 206.059 4.70133 2.37239 0
M  V30 2171 H 208.55 3.5363 1.33244 0
M  V30 2172 H 208.863 7.42845 2.13076 0
M  V30 2173 H 207.208 6.67869 1.92293 0
M  V30 2174 H 210.399 4.40937 1.57137 0
M  V30 2175 H 210.572 6.18415 1.93563 0
M  V30 2176 N 203.978 -0.674533 1.42435 0
M  V30 2177 C 205.224 -1.43671 1.43131 0
M  V30 2178 C 205.557 -1.94142 0.0476021 0
M  V30 2179 O 204.832 -1.70924 -0.928188 0
M  V30 2180 C 205.115 -2.63355 2.45594 0
M  V30 2181 C 204.968 -2.18514 3.93156 0
M  V30 2182 C 206.287 -3.65571 2.45043 0
M  V30 2183 H 203.406 -0.521077 0.521198 0
M  V30 2184 H 206.048 -0.766551 1.7385 0
M  V30 2185 H 204.198 -3.2053 2.19528 0
M  V30 2186 H 205.87 -1.66504 4.30202 0
M  V30 2187 H 204.113 -1.50086 4.07009 0
M  V30 2188 H 204.784 -3.04484 4.60428 0
M  V30 2189 H 207.26 -3.18113 2.68223 0
M  V30 2190 H 206.136 -4.46893 3.18713 0
M  V30 2191 H 206.397 -4.16716 1.47649 0
M  V30 2192 N 205.456 -1.28612 -0.910864 0
M  V30 2193 C 206.733 -1.06632 -1.63979 0
M  V30 2194 C 207.113 0.393351 -2.07403 0
M  V30 2195 O 206.461 1.37999 -1.82122 0
M  V30 2196 C 206.671 -2.0436 -2.8291 0
M  V30 2197 C 208.019 -2.34666 -3.5386 0
M  V30 2198 O 209.043 -2.02467 -2.93062 0
M  V30 2199 O 207.902 -2.89631 -4.63439 0
M  V30 2200 H 204.996 -0.407737 -0.7195 0
M  V30 2201 H 207.542 -1.39942 -0.959914 0
M  V30 2202 H 206.314 -3.02727 -2.47936 0
M  V30 2203 H 205.937 -1.71714 -3.58609 0
M  V30 2204 N 206.934 1.1197 -1.10907 0
M  V30 2205 C 208.211 1.79959 -0.766432 0
M  V30 2206 C 208.591 1.97466 0.746363 0
M  V30 2207 O 207.939 1.55491 1.67436 0
M  V30 2208 C 208.149 3.14009 -1.52314 0
M  V30 2209 C 209.497 3.89134 -1.69883 0
M  V30 2210 O 210.521 3.2368 -1.48692 0
M  V30 2211 O 209.38 5.06572 -2.05054 0
M  V30 2212 H 206.474 0.779208 -0.277062 0
M  V30 2213 H 209.02 1.18762 -1.21217 0
M  V30 2214 H 207.792 2.96587 -2.55249 0
M  V30 2215 H 207.415 3.82915 -1.07059 0
M  V30 2216 N 208.412 0.89855 1.29475 0
M  V30 2217 C 209.36 0.365253 2.29714 0
M  V30 2218 C 210.354 -0.534993 1.6073 0
M  V30 2219 O 211.56 -0.417921 1.75081 0
M  V30 2220 H 207.935 0.0994853 0.74539 0
M  V30 2221 H 209.906 1.22406 2.72138 0
M  V30 2222 C 208.655 -0.393159 3.4547 0
M  V30 2223 H 207.978 0.290332 3.98744 0
M  V30 2224 H 209.418 -0.731189 4.17648 0
M  V30 2225 C 207.877 -1.59539 2.9673 0
M  V30 2226 O 208.407 -2.69469 2.97908 0
M  V30 2227 N 206.613 -1.43716 2.52575 0
M  V30 2228 H 206.16 -0.542828 2.51816 0
M  V30 2229 H 206.118 -2.24288 2.20323 0
M  V30 2230 N 209.89 -1.43072 0.660911 0
M  V30 2231 C 210.8 -2.34585 -0.0264163 0
M  V30 2232 C 211.816 -1.54316 -0.803898 0
M  V30 2233 O 212.992 -1.86939 -0.749391 0
M  V30 2234 C 210.057 -3.32689 -0.975639 0
M  V30 2235 C 209.118 -4.2886 -0.194236 0
M  V30 2236 C 208.351 -5.22278 -1.09825 0
M  V30 2237 O 208.574 -5.20299 -2.33763 0
M  V30 2238 O 207.508 -5.99228 -0.566513 0
M  V30 2239 H 211.334 -2.94869 0.727034 0
M  V30 2240 H 208.919 -1.43342 0.42111 0
M  V30 2241 H 210.801 -3.92995 -1.52094 0
M  V30 2242 H 209.476 -2.74898 -1.70918 0
M  V30 2243 H 208.383 -3.72011 0.394835 0
M  V30 2244 H 209.716 -4.89655 0.499899 0
M  V30 2245 N 211.368 -0.403325 -1.52352 0
M  V30 2246 C 212.278 0.432009 -2.30588 0
M  V30 2247 C 213.294 1.05884 -1.38075 0
M  V30 2248 O 214.47 1.06161 -1.71148 0
M  V30 2249 C 211.535 1.53669 -3.10784 0
M  V30 2250 C 210.596 0.933525 -4.19027 0
M  V30 2251 C 209.829 1.98557 -4.9539 0
M  V30 2252 O 210.052 3.20283 -4.71991 0
M  V30 2253 O 208.986 1.59504 -5.80381 0
M  V30 2254 H 212.812 -0.205739 -3.03002 0
M  V30 2255 H 210.397 -0.166675 -1.48467 0
M  V30 2256 H 212.279 2.17814 -3.60742 0
M  V30 2257 H 210.954 2.15915 -2.41169 0
M  V30 2258 H 209.861 0.254954 -3.7323 0
M  V30 2259 H 211.194 0.35508 -4.90918 0
M  V30 2260 N 212.846 1.57033 -0.133567 0
M  V30 2261 C 214.074 2.00044 0.528195 0
M  V30 2262 C 214.489 1.01349 1.59291 0
M  V30 2263 O 213.846 0.00848369 1.82498 0
M  V30 2264 C 213.897 3.43018 1.1411 0
M  V30 2265 O 213.618 4.37939 0.11892 0
M  V30 2266 C 215.119 4.01237 1.88477 0
M  V30 2267 H 212.339 0.656517 0.138661 0
M  V30 2268 H 214.883 2.03267 -0.224196 0
M  V30 2269 H 213.038 3.40688 1.84418 0
M  V30 2270 H 213.452 5.21436 0.56613 0
M  V30 2271 H 214.926 5.03314 2.26669 0
M  V30 2272 H 215.403 3.41193 2.76558 0
M  V30 2273 H 216.009 4.07156 1.22898 0
M  V30 2274 N 214.325 -0.140222 1.56975 0
M  V30 2275 C 215.574 -0.850152 1.82908 0
M  V30 2276 C 215.887 -1.82028 0.715892 0
M  V30 2277 O 217.093 -2.57485 0.861016 0
M  V30 2278 C 215.549 -1.5625 3.24213 0
M  V30 2279 C 215.157 -0.63443 4.43485 0
M  V30 2280 C 216.901 -2.25881 3.59413 0
M  V30 2281 C 214.808 -1.34879 5.75814 0
M  V30 2282 H 213.738 -0.321221 0.682153 0
M  V30 2283 H 216.389 -0.102874 1.83211 0
M  V30 2284 H 214.771 -2.35565 3.18316 0
M  V30 2285 H 215.945 0.12398 4.60633 0
M  V30 2286 H 214.26 -0.0461836 4.16374 0
M  V30 2287 H 216.857 -2.79978 4.5554 0
M  V30 2288 H 217.2 -3.02693 2.85802 0
M  V30 2289 H 217.733 -1.53477 3.67001 0
M  V30 2290 H 214.472 -0.622385 6.52539 0
M  V30 2291 H 213.992 -2.07974 5.6259 0
M  V30 2292 H 215.671 -1.88784 6.18845 0
M  V30 2293 N 215.803 -1.52179 -0.40978 0
M  V30 2294 C 216.75 -1.75475 -1.49924 0
M  V30 2295 C 217.72 -0.597175 -1.54994 0
M  V30 2296 O 218.905 -0.834655 -1.71575 0
M  V30 2297 C 216.045 -1.9107 -2.87378 0
M  V30 2298 C 215.158 -3.18717 -2.91622 0
M  V30 2299 C 214.293 -3.24747 -4.20372 0
M  V30 2300 C 213.332 -4.46598 -4.18588 0
M  V30 2301 N 212.469 -4.50025 -5.38908 0
M  V30 2302 H 217.309 -2.68458 -1.29361 0
M  V30 2303 H 214.846 -1.33024 -0.627934 0
M  V30 2304 H 216.804 -1.98096 -3.6717 0
M  V30 2305 H 215.434 -1.01469 -3.06437 0
M  V30 2306 H 214.486 -3.20866 -2.04326 0
M  V30 2307 H 215.798 -4.08544 -2.86169 0
M  V30 2308 H 214.952 -3.30841 -5.08556 0
M  V30 2309 H 213.691 -2.32857 -4.28519 0
M  V30 2310 H 212.696 -4.40652 -3.28794 0
M  V30 2311 H 213.921 -5.39783 -4.12081 0
M  V30 2312 H 211.867 -3.61017 -5.47725 0
M  V30 2313 H 211.784 -5.33697 -5.35447 0
M  V30 2314 H 213.052 -4.60347 -6.29048 0
M  V30 2315 N 217.281 0.66697 -1.42791 0
M  V30 2316 C 218.228 1.7803 -1.4688 0
M  V30 2317 C 219.198 1.6299 -0.319919 0
M  V30 2318 O 220.383 1.83432 -0.525118 0
M  V30 2319 C 217.523 3.1611 -1.38451 0
M  V30 2320 C 216.636 3.42381 -2.63437 0
M  V30 2321 C 215.771 4.70232 -2.47094 0
M  V30 2322 C 214.81 4.89564 -3.67415 0
M  V30 2323 N 213.947 6.08661 -3.49966 0
M  V30 2324 H 218.787 1.7387 -2.42019 0
M  V30 2325 H 216.324 0.84868 -1.20149 0
M  V30 2326 H 218.282 3.95914 -1.31561 0
M  V30 2327 H 216.912 3.19374 -0.469033 0
M  V30 2328 H 215.964 2.56774 -2.80662 0
M  V30 2329 H 217.276 3.52557 -3.52853 0
M  V30 2330 H 216.43 5.5814 -2.37834 0
M  V30 2331 H 215.169 4.62353 -1.5518 0
M  V30 2332 H 214.174 4.00096 -3.77099 0
M  V30 2333 H 215.399 4.99282 -4.6032 0
M  V30 2334 H 213.345 6.0194 -2.60776 0
M  V30 2335 H 213.262 6.19733 -4.32975 0
M  V30 2336 H 214.53 6.99226 -3.44532 0
M  V30 2337 N 218.759 1.29093 0.90403 0
M  V30 2338 C 220.175 1.07011 1.1841 0
M  V30 2339 C 220.375 -0.181358 2.00682 0
M  V30 2340 O 219.431 -0.880331 2.36657 0
M  V30 2341 C 220.744 2.32311 1.90924 0
M  V30 2342 C 222.292 2.37587 2.03768 0
M  V30 2343 C 222.767 3.62679 2.79693 0
M  V30 2344 N 224.258 3.63376 2.87249 0
M  V30 2345 C 224.993 4.56848 3.46522 0
M  V30 2346 N 224.489 5.60648 4.06996 0
M  V30 2347 N 226.282 4.44426 3.44154 0
M  V30 2348 H 218.433 2.09412 0.354993 0
M  V30 2349 H 220.696 0.922181 0.219742 0
M  V30 2350 H 220.402 3.23536 1.37905 0
M  V30 2351 H 220.276 2.39483 2.91424 0
M  V30 2352 H 222.663 1.46853 2.55965 0
M  V30 2353 H 222.744 2.34403 1.02415 0
M  V30 2354 H 222.388 4.53762 2.28173 0
M  V30 2355 H 222.318 3.63119 3.81381 0
M  V30 2356 H 224.809 2.88321 2.44293 0
M  V30 2357 H 225.122 6.28101 4.50232 0
M  V30 2358 H 223.467 5.64463 4.05471 0
M  V30 2359 H 226.658 3.62529 2.96126 0
M  V30 2360 H 226.831 5.17457 3.90054 0
M  V30 2361 N 220.237 -1.11381 1.11499 0
M  V30 2362 C 221.167 -2.19509 0.796125 0
M  V30 2363 C 222.148 -1.68458 -0.235796 0
M  V30 2364 O 223.333 -1.93947 -0.0991344 0
M  V30 2365 C 220.463 -3.46475 0.239205 0
M  V30 2366 C 219.417 -4.10744 1.20307 0
M  V30 2367 C 218.743 -5.32293 0.50683 0
M  V30 2368 C 220.043 -4.55597 2.55399 0
M  V30 2369 H 221.737 -2.46439 1.70024 0
M  V30 2370 H 219.283 -1.18446 0.818935 0
M  V30 2371 H 221.236 -4.214 0.00392006 0
M  V30 2372 H 219.96 -3.19006 -0.700206 0
M  V30 2373 H 218.619 -3.37813 1.42399 0
M  V30 2374 H 218.267 -5.01095 -0.437408 0
M  V30 2375 H 217.967 -5.76243 1.1497 0
M  V30 2376 H 219.491 -6.09956 0.280351 0
M  V30 2377 H 220.905 -5.21841 2.37391 0
M  V30 2378 H 219.302 -5.10363 3.15673 0
M  V30 2379 H 220.372 -3.69013 3.14575 0
M  V30 2380 N 221.715 -0.905404 -1.28997 0
M  V30 2381 C 222.625 -0.392246 -2.31298 0
M  V30 2382 C 223.641 0.515889 -1.66176 0
M  V30 2383 O 224.817 0.404093 -1.97304 0
M  V30 2384 C 221.882 0.36686 -3.44754 0
M  V30 2385 C 220.943 -0.573485 -4.25452 0
M  V30 2386 C 220.176 0.149488 -5.33491 0
M  V30 2387 O 220.399 1.37255 -5.5364 0
M  V30 2388 O 219.333 -0.510919 -5.99728 0
M  V30 2389 H 223.159 -1.2411 -2.77183 0
M  V30 2390 H 220.744 -0.669926 -1.33538 0
M  V30 2391 H 222.626 0.795907 -4.13816 0
M  V30 2392 H 221.301 1.19169 -3.00966 0
M  V30 2393 H 220.208 -1.05176 -3.59011 0
M  V30 2394 H 221.541 -1.36489 -4.72897 0
M  V30 2395 N 223.193 1.4272 -0.668489 0
M  V30 2396 C 224.421 2.05966 -0.196348 0
M  V30 2397 C 224.836 1.50191 1.14403 0
M  V30 2398 O 224.193 0.639208 1.7094 0
M  V30 2399 C 224.244 3.61314 -0.115815 0
M  V30 2400 O 223.965 4.1502 -1.40322 0
M  V30 2401 C 225.466 4.41663 0.380579 0
M  V30 2402 H 222.686 0.663954 -0.0969829 0
M  V30 2403 H 225.23 1.82966 -0.913446 0
M  V30 2404 H 223.385 3.83448 0.551931 0
M  V30 2405 H 223.799 5.08832 -1.27243 0
M  V30 2406 H 225.273 5.5065 0.385848 0
M  V30 2407 H 225.75 4.15792 1.41471 0
M  V30 2408 H 226.356 4.24534 -0.255209 0
M  V30 2409 N 224.671 0.411399 1.52136 0
M  V30 2410 C 225.901 -0.16284 2.05957 0
M  V30 2411 C 226.309 -1.3922 1.28119 0
M  V30 2412 O 225.652 -1.80768 0.326881 0
M  V30 2413 C 225.714 -0.575946 3.54856 0
M  V30 2414 C 225.378 0.542998 4.53763 0
M  V30 2415 C 226.375 1.40726 5.00492 0
M  V30 2416 C 224.06 0.716337 4.97166 0
M  V30 2417 C 226.054 2.4298 5.8927 0
M  V30 2418 C 223.741 1.74218 5.8574 0
M  V30 2419 C 224.739 2.59731 6.31687 0
M  V30 2420 O 224.427 3.60558 7.18507 0
M  V30 2421 H 224.159 -0.0229125 0.675612 0
M  V30 2422 H 226.713 0.581634 1.96993 0
M  V30 2423 H 224.943 -1.37274 3.61515 0
M  V30 2424 H 226.632 -1.07836 3.91313 0
M  V30 2425 H 227.398 1.28476 4.67674 0
M  V30 2426 H 223.277 0.0603857 4.6096 0
M  V30 2427 H 226.821 3.0976 6.25055 0
M  V30 2428 H 222.718 1.86498 6.17971 0
M  V30 2429 H 223.486 3.56829 7.36624 0
M  V30 2430 N 226.149 -1.5696 0.141893 0
M  V30 2431 C 227.379 -2.00031 -0.516828 0
M  V30 2432 C 227.787 -1.02091 -1.59293 0
M  V30 2433 O 227.13 -0.00909657 -1.83698 0
M  V30 2434 C 227.192 -3.39534 -1.1814 0
M  V30 2435 C 226.856 -4.56313 -0.250513 0
M  V30 2436 C 227.853 -5.17295 0.519839 0
M  V30 2437 C 225.538 -5.02061 -0.154907 0
M  V30 2438 C 227.532 -6.2243 1.3733 0
M  V30 2439 C 225.219 -6.07053 0.702161 0
M  V30 2440 C 226.217 -6.67106 1.46487 0
M  V30 2441 O 225.905 -7.70066 2.30767 0
M  V30 2442 H 225.637 -0.661451 -0.139493 0
M  V30 2443 H 228.191 -2.04086 0.231926 0
M  V30 2444 H 226.421 -3.32302 -1.97769 0
M  V30 2445 H 228.11 -3.66745 -1.73933 0
M  V30 2446 H 228.876 -4.82852 0.45598 0
M  V30 2447 H 224.755 -4.5505 -0.7383 0
M  V30 2448 H 228.299 -6.69233 1.96909 0
M  V30 2449 H 224.196 -6.40923 0.76733 0
M  V30 2450 H 224.964 -7.87264 2.23959 0
M  V30 2451 N 227.627 0.131896 -1.57047 0
M  V30 2452 C 228.574 1.16236 -1.99393 0
M  V30 2453 C 229.544 1.41863 -0.863943 0
M  V30 2454 O 230.729 1.53946 -1.12718 0
M  V30 2455 C 227.869 2.48708 -2.39245 0
M  V30 2456 C 226.982 2.30127 -3.65603 0
M  V30 2457 C 226.117 3.55738 -3.94492 0
M  V30 2458 C 225.156 3.32259 -5.14073 0
M  V30 2459 N 224.293 4.50039 -5.38896 0
M  V30 2460 H 229.133 0.794251 -2.87221 0
M  V30 2461 H 226.67 0.380707 -1.42088 0
M  V30 2462 H 228.628 3.25969 -2.60384 0
M  V30 2463 H 227.258 2.83437 -1.54478 0
M  V30 2464 H 226.31 1.43845 -3.52154 0
M  V30 2465 H 227.622 2.08746 -4.5302 0
M  V30 2466 H 226.776 4.41423 -4.1621 0
M  V30 2467 H 225.515 3.80138 -3.05526 0
M  V30 2468 H 224.52 2.44963 -4.92212 0
M  V30 2469 H 225.745 3.09242 -6.04604 0
M  V30 2470 H 223.691 4.74584 -4.52886 0
M  V30 2471 H 223.608 4.31716 -6.2061 0
M  V30 2472 H 224.876 5.36895 -5.65123 0
M  V30 2473 N 229.106 1.52395 0.401703 0
M  V30 2474 C 230.069 1.75636 1.47257 0
M  V30 2475 C 231.069 0.62628 1.48103 0
M  V30 2476 O 232.259 0.894227 1.49497 0
M  V30 2477 C 229.391 1.84553 2.86624 0
M  V30 2478 H 230.584 2.71241 1.27938 0
M  V30 2479 H 228.137 1.42923 0.632662 0
M  V30 2480 H 228.872 0.908882 3.11303 0
M  V30 2481 H 228.657 2.66715 2.87412 0
M  V30 2482 H 230.147 2.04251 3.64241 0
M  V30 2483 N 230.584 -0.659388 1.43143 0
M  V30 2484 C 231.812 -1.44723 1.47861 0
M  V30 2485 C 232.227 -1.88563 0.0945886 0
M  V30 2486 O 231.584 -1.59108 -0.893915 0
M  V30 2487 C 231.635 -2.68627 2.41913 0
M  V30 2488 O 231.356 -2.26623 3.74932 0
M  V30 2489 C 232.857 -3.62045 2.55809 0
M  V30 2490 H 230.077 -0.444801 0.502387 0
M  V30 2491 H 232.621 -0.808916 1.87821 0
M  V30 2492 H 230.776 -3.28613 2.05164 0
M  V30 2493 H 231.19 -3.06745 4.2545 0
M  V30 2494 H 232.664 -4.45666 3.25708 0
M  V30 2495 H 233.141 -4.08981 1.60099 0
M  V30 2496 H 233.747 -3.07944 2.93344 0
M  V30 2497 N 232.062 -1.29571 -0.897171 0
M  V30 2498 C 232.972 -1.16808 -2.03453 0
M  V30 2499 C 233.988 -0.0907471 -1.73763 0
M  V30 2500 O 235.164 -0.303312 -1.99103 0
M  V30 2501 C 232.229 -0.848264 -3.36163 0
M  V30 2502 C 231.29 -2.0097 -3.79354 0
M  V30 2503 C 230.523 -1.70505 -5.05731 0
M  V30 2504 O 230.746 -0.62718 -5.66941 0
M  V30 2505 O 229.68 -2.5538 -5.45036 0
M  V30 2506 H 233.506 -2.12325 -2.17144 0
M  V30 2507 H 231.091 -1.09047 -1.02123 0
M  V30 2508 H 232.973 -0.684581 -4.15802 0
M  V30 2509 H 231.648 0.0771071 -3.23608 0
M  V30 2510 H 230.555 -2.22863 -3.00471 0
M  V30 2511 H 231.888 -2.91636 -3.96496 0
M  V30 2512 N 233.54 1.10788 -1.12088 0
M  V30 2513 C 234.951 1.64181 -0.88891 0
M  V30 2514 C 235.302 1.87508 0.577498 0
M  V30 2515 O 234.427 1.61434 1.44112 0
M  V30 2516 C 235.022 2.98257 -1.60712 0
M  V30 2517 C 233.581 3.4853 -1.42139 0
M  V30 2518 C 232.728 2.23208 -1.6454 0
M  V30 2519 H 235.679 0.943368 -1.27618 0
M  V30 2520 H 235.7 3.65552 -1.05604 0
M  V30 2521 H 235.212 2.81246 -2.67436 0
M  V30 2522 H 233.313 3.70692 -0.376552 0
M  V30 2523 H 233.426 4.26882 -2.17505 0
M  V30 2524 H 231.79 2.31169 -1.06925 0
M  V30 2525 H 232.573 2.08733 -2.72554 0
M  V30 2526 N 235.018 0.912232 1.28515 0
M  V30 2527 C 236.264 0.545405 1.95328 0
M  V30 2528 C 236.597 -0.908313 1.71649 0
M  V30 2529 O 235.872 -1.64575 1.03659 0
M  V30 2530 C 236.155 0.853483 3.4984 0
M  V30 2531 C 236.008 2.35982 3.82926 0
M  V30 2532 C 237.327 0.348589 4.38717 0
M  V30 2533 H 234.446 0.199626 0.709449 0
M  V30 2534 H 237.088 1.1412 1.5191 0
M  V30 2535 H 235.238 0.34643 3.86952 0
M  V30 2536 H 236.91 2.93738 3.55691 0
M  V30 2537 H 235.153 2.81543 3.30024 0
M  V30 2538 H 235.824 2.52593 4.90816 0
M  V30 2539 H 238.3 0.78294 4.08668 0
M  V30 2540 H 237.176 0.593242 5.45685 0
M  V30 2541 H 237.437 -0.751049 4.35674 0
M  V30 2542 N 236.496 -1.42363 0.676048 0
M  V30 2543 C 237.745 -2.00745 0.196037 0
M  V30 2544 C 238.058 -1.54083 -1.20489 0
M  V30 2545 O 239.264 -2.04891 -1.78134 0
M  V30 2546 C 237.72 -3.58651 0.299616 0
M  V30 2547 C 237.328 -4.143 1.70468 0
M  V30 2548 C 239.072 -4.24326 -0.121619 0
M  V30 2549 C 236.979 -5.64574 1.76096 0
M  V30 2550 H 235.909 -0.750787 0.0695301 0
M  V30 2551 H 238.56 -1.63072 0.841412 0
M  V30 2552 H 236.942 -3.93833 -0.413673 0
M  V30 2553 H 238.116 -3.90575 2.44515 0
M  V30 2554 H 236.431 -3.61081 2.07387 0
M  V30 2555 H 239.028 -5.34607 -0.0997362 0
M  V30 2556 H 239.371 -3.99897 -1.15708 0
M  V30 2557 H 239.904 -3.94108 0.540706 0
M  V30 2558 H 236.643 -5.93804 2.77628 0
M  V30 2559 H 236.163 -5.90286 1.06406 0
M  V30 2560 H 237.842 -6.29013 1.51496 0
M  V30 2561 N 237.974 -0.419461 -1.51915 0
M  V30 2562 C 238.937 0.389116 -2.25873 0
M  V30 2563 C 239.937 0.964924 -1.28631 0
M  V30 2564 O 241.127 0.842179 -1.52489 0
M  V30 2565 C 238.259 1.54874 -3.03689 0
M  V30 2566 H 239.452 -0.258799 -2.98781 0
M  V30 2567 H 237.005 -0.172209 -1.55348 0
M  V30 2568 H 237.74 2.23323 -2.35154 0
M  V30 2569 H 237.525 1.14223 -3.75094 0
M  V30 2570 H 239.015 2.12046 -3.59759 0
M  V30 2571 N 239.452 1.56882 -0.150215 0
M  V30 2572 C 240.699 1.96228 0.500093 0
M  V30 2573 C 241.027 1.03522 1.64661 0
M  V30 2574 O 240.282 0.0650683 1.95592 0
M  V30 2575 C 240.581 3.41801 1.04437 0
M  V30 2576 C 240.247 4.50897 0.0159671 0
M  V30 2577 C 238.909 4.8046 -0.266731 0
M  V30 2578 C 241.261 5.16703 -0.683192 0
M  V30 2579 C 238.589 5.73135 -1.25434 0
M  V30 2580 C 240.941 6.10441 -1.65964 0
M  V30 2581 C 239.605 6.38382 -1.95 0
M  V30 2582 H 238.875 0.718048 0.182997 0
M  V30 2583 H 241.522 1.90019 -0.237724 0
M  V30 2584 H 239.827 3.44857 1.85959 0
M  V30 2585 H 241.524 3.69573 1.55618 0
M  V30 2586 H 238.114 4.27891 0.246485 0
M  V30 2587 H 242.298 4.93993 -0.477983 0
M  V30 2588 H 237.554 5.93074 -1.48571 0
M  V30 2589 H 241.728 6.60507 -2.20689 0
M  V30 2590 H 239.355 7.09996 -2.71679 0
M  V30 2591 N 240.93 -0.123565 1.57115 0
M  V30 2592 C 242.16 -0.845233 1.88519 0
M  V30 2593 C 242.568 -1.74168 0.739064 0
M  V30 2594 O 241.911 -1.81244 -0.299355 0
M  V30 2595 C 241.973 -1.73452 3.14888 0
M  V30 2596 C 241.637 -1.01285 4.45635 0
M  V30 2597 C 242.634 -0.355774 5.18681 0
M  V30 2598 C 240.319 -0.99538 4.92339 0
M  V30 2599 C 242.313 0.309114 6.3665 0
M  V30 2600 C 240 -0.32669 6.10226 0
M  V30 2601 C 240.998 0.324406 6.82229 0
M  V30 2602 O 240.686 0.982437 7.97874 0
M  V30 2603 H 240.418 -0.248534 0.628655 0
M  V30 2604 H 242.972 -0.113907 2.05084 0
M  V30 2605 H 241.202 -2.50737 2.94394 0
M  V30 2606 H 242.891 -2.33021 3.32349 0
M  V30 2607 H 243.657 -0.360918 4.83655 0
M  V30 2608 H 239.536 -1.49159 4.36202 0
M  V30 2609 H 243.08 0.8179 6.92789 0
M  V30 2610 H 238.977 -0.319294 6.4471 0
M  V30 2611 H 239.745 0.886454 8.13686 0
M  V30 2612 N 242.408 -1.52605 -0.393616 0
M  V30 2613 C 243.318 -1.79971 -1.50492 0
M  V30 2614 C 244.334 -0.686181 -1.59899 0
M  V30 2615 O 245.51 -0.973274 -1.76322 0
M  V30 2616 C 242.575 -1.95867 -2.86072 0
M  V30 2617 C 241.636 -3.19781 -2.86424 0
M  V30 2618 C 240.869 -3.34909 -4.15538 0
M  V30 2619 O 241.092 -2.54948 -5.10253 0
M  V30 2620 O 240.026 -4.28141 -4.23059 0
M  V30 2621 H 243.852 -2.74328 -1.30299 0
M  V30 2622 H 241.437 -1.3764 -0.581005 0
M  V30 2623 H 243.319 -2.08056 -3.66457 0
M  V30 2624 H 241.994 -1.04699 -3.063 0
M  V30 2625 H 240.901 -3.13038 -2.04837 0
M  V30 2626 H 242.234 -4.1078 -2.71147 0
M  V30 2627 N 243.887 0.651787 -1.4349 0
M  V30 2628 C 244.834 1.76462 -1.4876 0
M  V30 2629 C 245.804 1.62641 -0.337189 0
M  V30 2630 O 246.989 1.82864 -0.544544 0
M  V30 2631 C 244.129 3.14623 -1.41796 0
M  V30 2632 C 243.242 3.39568 -2.67053 0
M  V30 2633 C 242.377 4.67585 -2.52068 0
M  V30 2634 C 241.416 4.85639 -3.72587 0
M  V30 2635 N 240.553 6.04915 -3.56402 0
M  V30 2636 H 245.393 1.71293 -2.43849 0
M  V30 2637 H 242.93 0.835889 -1.21043 0
M  V30 2638 H 244.888 3.94496 -1.35753 0
M  V30 2639 H 243.518 3.18859 -0.50288 0
M  V30 2640 H 242.57 2.53783 -2.8337 0
M  V30 2641 H 243.882 3.48795 -3.56572 0
M  V30 2642 H 243.036 5.55586 -2.4374 0
M  V30 2643 H 241.775 4.60681 -1.60075 0
M  V30 2644 H 240.78 3.96073 -3.81321 0
M  V30 2645 H 242.005 4.94372 -4.65589 0
M  V30 2646 H 239.951 5.9914 -2.67146 0
M  V30 2647 H 239.868 6.15106 -4.39524 0
M  V30 2648 H 241.136 6.95533 -3.51929 0
M  V30 2649 N 245.365 1.30045 0.890287 0
M  V30 2650 C 246.781 1.08261 1.17268 0
M  V30 2651 C 246.981 -0.160063 2.00863 0
M  V30 2652 O 246.037 -0.855181 2.37577 0
M  V30 2653 C 247.35 2.34323 1.8845 0
M  V30 2654 C 248.898 2.39735 2.01237 0
M  V30 2655 C 249.373 3.65625 2.7583 0
M  V30 2656 N 250.864 3.66402 2.83379 0
M  V30 2657 C 251.599 4.60498 3.41657 0
M  V30 2658 N 251.095 5.64933 4.01026 0
M  V30 2659 N 252.888 4.48051 3.39421 0
M  V30 2660 H 245.039 2.09777 0.332762 0
M  V30 2661 H 247.302 0.92446 0.209948 0
M  V30 2662 H 247.008 3.2498 1.34465 0
M  V30 2663 H 246.882 2.4256 2.88867 0
M  V30 2664 H 249.269 1.4956 2.54393 0
M  V30 2665 H 249.35 2.35476 0.999232 0
M  V30 2666 H 248.994 4.56156 2.23347 0
M  V30 2667 H 248.924 3.67144 3.77509 0
M  V30 2668 H 251.415 2.90896 2.41222 0
M  V30 2669 H 251.728 6.32841 4.43545 0
M  V30 2670 H 250.073 5.68732 3.99461 0
M  V30 2671 H 253.264 3.65649 2.92264 0
M  V30 2672 H 253.437 5.21565 3.84544 0
M  V30 2673 N 246.843 -1.10192 1.12674 0
M  V30 2674 C 248.091 -1.81845 0.881861 0
M  V30 2675 C 248.412 -1.85737 -0.593867 0
M  V30 2676 O 247.682 -1.33724 -1.4316 0
M  V30 2677 H 246.262 -0.673432 0.323261 0
M  V30 2678 H 248.924 -1.33316 1.42172 0
M  V30 2679 H 248.02 -2.85288 1.2656 0
M  V30 2680 N 248.321 -0.919034 -1.28029 0
M  V30 2681 C 249.57 -0.550802 -1.94034 0
M  V30 2682 C 249.883 0.910877 -1.73096 0
M  V30 2683 O 251.089 1.3875 -2.33368 0
M  V30 2684 C 249.545 -0.934249 -3.47563 0
M  V30 2685 C 249.153 -2.41602 -3.7727 0
M  V30 2686 C 250.897 -0.636854 -4.19696 0
M  V30 2687 C 248.804 -2.73932 -5.24133 0
M  V30 2688 H 247.734 -0.202273 -0.726362 0
M  V30 2689 H 250.385 -1.11867 -1.45458 0
M  V30 2690 H 248.767 -0.295115 -3.94899 0
M  V30 2691 H 249.941 -3.10233 -3.40723 0
M  V30 2692 H 248.256 -2.68441 -3.18321 0
M  V30 2693 H 250.853 -0.855005 -5.2782 0
M  V30 2694 H 251.196 0.425575 -4.14119 0
M  V30 2695 H 251.729 -1.23469 -3.78154 0
M  V30 2696 H 248.468 -3.79049 -5.34792 0
M  V30 2697 H 247.988 -2.09942 -5.61858 0
M  V30 2698 H 249.667 -2.61215 -5.91925 0
M  V30 2699 N 249.799 1.42003 -0.683588 0
M  V30 2700 C 251.045 2.01712 -0.209825 0
M  V30 2701 C 251.378 1.53968 1.18353 0
M  V30 2702 O 250.653 0.745661 1.79639 0
M  V30 2703 C 250.936 3.59202 -0.254197 0
M  V30 2704 C 250.789 4.17102 -1.68363 0
M  V30 2705 C 252.108 4.38344 0.392709 0
M  V30 2706 H 249.227 0.732891 -0.0777189 0
M  V30 2707 H 251.869 1.68909 -0.87004 0
M  V30 2708 H 250.019 3.87278 0.307954 0
M  V30 2709 H 251.691 3.99946 -2.29871 0
M  V30 2710 H 249.934 3.72597 -2.22157 0
M  V30 2711 H 250.605 5.26249 -1.6663 0
M  V30 2712 H 253.081 4.16011 -0.0859162 0
M  V30 2713 H 251.957 5.47901 0.331063 0
M  V30 2714 H 252.218 4.16887 1.47164 0
M  V30 2715 N 251.277 0.427512 1.51691 0
M  V30 2716 C 252.693 0.0792977 1.59403 0
M  V30 2717 C 252.893 -1.41035 1.43914 0
M  V30 2718 O 251.949 -2.17922 1.27539 0
M  V30 2719 C 253.262 0.590636 2.94842 0
M  V30 2720 C 254.81 0.550215 3.08126 0
M  V30 2721 C 255.285 1.03836 4.46074 0
M  V30 2722 N 256.776 0.995943 4.52366 0
M  V30 2723 C 257.511 1.34463 5.57411 0
M  V30 2724 N 257.007 1.76569 6.69922 0
M  V30 2725 N 258.8 1.26343 5.47717 0
M  V30 2726 H 250.951 1.39687 1.60004 0
M  V30 2727 H 253.214 0.575003 0.753708 0
M  V30 2728 H 252.92 1.63251 3.11516 0
M  V30 2729 H 252.794 0.0102061 3.77199 0
M  V30 2730 H 255.181 -0.482654 2.91126 0
M  V30 2731 H 255.262 1.16693 2.27632 0
M  V30 2732 H 254.906 2.06965 4.63819 0
M  V30 2733 H 254.836 0.398286 5.25092 0
M  V30 2734 H 257.327 0.68661 3.7161 0
M  V30 2735 H 257.64 2.01438 7.46085 0
M  V30 2736 H 255.985 1.80488 6.71155 0
M  V30 2737 H 259.176 0.933209 4.58703 0
M  V30 2738 H 259.349 1.53846 6.29472 0
M  V30 2739 N 252.755 -1.56801 0.158532 0
M  V30 2740 C 253.702 -2.17337 -0.776729 0
M  V30 2741 C 254.672 -1.1096 -1.23601 0
M  V30 2742 O 255.857 -1.39054 -1.30647 0
M  V30 2743 C 252.997 -2.80822 -2.00582 0
M  V30 2744 C 252.11 -4.01624 -1.59129 0
M  V30 2745 C 251.245 -4.53072 -2.77306 0
M  V30 2746 C 250.284 -5.66314 -2.32282 0
M  V30 2747 N 249.421 -6.12329 -3.43508 0
M  V30 2748 H 254.261 -2.96918 -0.253701 0
M  V30 2749 H 251.798 -1.46661 -0.113504 0
M  V30 2750 H 253.756 -3.15779 -2.72652 0
M  V30 2751 H 252.386 -2.03866 -2.50277 0
M  V30 2752 H 251.438 -3.72571 -0.767806 0
M  V30 2753 H 252.75 -4.83633 -1.2207 0
M  V30 2754 H 251.904 -4.90145 -3.57551 0
M  V30 2755 H 250.643 -3.70095 -3.17617 0
M  V30 2756 H 249.648 -5.28806 -1.5048 0
M  V30 2757 H 250.873 -6.51085 -1.93043 0
M  V30 2758 H 248.819 -5.32284 -3.83418 0
M  V30 2759 H 248.736 -6.89293 -3.105 0
M  V30 2760 H 250.004 -6.5405 -4.24075 0
M  V30 2761 N 254.233 0.115231 -1.57178 0
M  V30 2762 C 255.479 0.82357 -1.85325 0
M  V30 2763 C 255.812 1.79349 -0.744814 0
M  V30 2764 O 255.087 1.92899 0.249024 0
M  V30 2765 C 255.37 1.57014 -3.24066 0
M  V30 2766 C 255.223 0.619565 -4.45513 0
M  V30 2767 C 256.542 2.52545 -3.60429 0
M  V30 2768 H 253.661 0.297948 -0.674089 0
M  V30 2769 H 256.303 0.0877138 -1.89797 0
M  V30 2770 H 254.453 2.19742 -3.20383 0
M  V30 2771 H 256.125 0.000837639 -4.613 0
M  V30 2772 H 254.368 -0.0686174 -4.33746 0
M  V30 2773 H 255.039 1.17866 -5.3927 0
M  V30 2774 H 257.515 1.9992 -3.64926 0
M  V30 2775 H 256.391 3.01811 -4.58477 0
M  V30 2776 H 256.652 3.35383 -2.88047 0
M  V30 2777 N 255.711 1.52812 0.385517 0
M  V30 2778 C 256.659 1.78482 1.49155 0
M  V30 2779 C 257.653 0.652914 1.56312 0
M  V30 2780 O 258.859 0.835464 1.59436 0
M  V30 2781 H 255.234 0.5648 0.496493 0
M  V30 2782 H 257.205 2.71095 1.24699 0
M  V30 2783 C 255.954 1.97378 2.86247 0
M  V30 2784 H 255.277 2.83907 2.81491 0
M  V30 2785 H 256.717 2.19327 3.62866 0
M  V30 2786 C 255.176 0.74728 3.28508 0
M  V30 2787 O 255.706 -0.0736232 4.01633 0
M  V30 2788 N 253.912 0.576396 2.84826 0
M  V30 2789 H 253.459 1.24555 2.25486 0
M  V30 2790 H 253.417 -0.24288 3.1346 0
M  V30 2791 N 257.189 -0.644168 1.43834 0
M  V30 2792 C 258.152 -1.73857 1.49353 0
M  V30 2793 C 259.152 -1.56315 0.377112 0
M  V30 2794 O 260.342 -1.62048 0.639226 0
M  V30 2795 C 257.474 -3.12819 1.35488 0
M  V30 2796 H 258.667 -1.70342 2.46827 0
M  V30 2797 H 256.22 -0.856652 1.30733 0
M  V30 2798 H 256.955 -3.2194 0.390569 0
M  V30 2799 H 256.74 -3.26958 2.16428 0
M  V30 2800 H 258.23 -3.92606 1.42302 0
M  V30 2801 N 258.668 -1.30515 -0.883378 0
M  V30 2802 C 259.578 -1.18959 -2.02203 0
M  V30 2803 C 260.594 -0.109172 -1.73657 0
M  V30 2804 O 261.77 -0.324413 -1.9877 0
M  V30 2805 C 258.835 -0.883871 -3.35244 0
M  V30 2806 C 257.896 -2.04982 -3.77201 0
M  V30 2807 C 257.129 -1.75859 -5.03894 0
M  V30 2808 O 257.352 -0.687276 -5.66244 0
M  V30 2809 O 256.286 -2.61146 -5.42297 0
M  V30 2810 H 260.112 -2.14616 -2.1488 0
M  V30 2811 H 257.697 -1.10124 -1.0096 0
M  V30 2812 H 259.579 -0.728644 -4.15053 0
M  V30 2813 H 258.254 0.0427798 -3.23672 0
M  V30 2814 H 257.161 -2.26038 -2.9809 0
M  V30 2815 H 258.494 -2.95825 -3.93381 0
M  V30 2816 N 260.146 1.09593 -1.13257 0
M  V30 2817 C 261.394 1.81375 -0.891492 0
M  V30 2818 C 261.715 1.86049 0.584009 0
M  V30 2819 O 260.985 1.34481 1.42449 0
M  V30 2820 H 259.565 0.671708 -0.326828 0
M  V30 2821 H 262.227 1.3256 -1.42877 0
M  V30 2822 H 261.323 2.84612 -1.28071 0
M  V30 2823 N 261.624 0.925811 1.2754 0
M  V30 2824 C 262.849 0.580924 1.99098 0
M  V30 2825 C 263.274 -0.833555 1.68622 0
M  V30 2826 O 262.632 -1.55903 0.925422 0
M  V30 2827 C 262.68 0.811186 3.51358 0
M  V30 2828 O 261.784 -0.124129 4.12213 0
M  V30 2829 H 261.125 0.223873 0.625122 0
M  V30 2830 H 263.655 1.24455 1.62395 0
M  V30 2831 H 263.665 0.72601 4.01489 0
M  V30 2832 H 262.34 1.84227 3.72872 0
M  V30 2833 H 260.917 0.0108006 3.72898 0
M  V30 2834 N 263.102 -1.41638 0.69111 0
M  V30 2835 C 264.348 -2.01598 0.220519 0
M  V30 2836 C 264.681 -1.54594 -1.17535 0
M  V30 2837 O 263.956 -0.755177 -1.79241 0
M  V30 2838 C 264.239 -3.59062 0.273243 0
M  V30 2839 C 264.092 -4.16203 1.70573 0
M  V30 2840 C 265.411 -4.38546 -0.369457 0
M  V30 2841 H 262.53 -0.732468 0.0816045 0
M  V30 2842 H 265.172 -1.68445 0.878986 0
M  V30 2843 H 263.322 -3.87435 -0.287411 0
M  V30 2844 H 264.994 -3.98722 2.31989 0
M  V30 2845 H 263.237 -3.71414 2.2413 0
M  V30 2846 H 263.908 -5.25358 1.69419 0
M  V30 2847 H 266.384 -4.1596 0.107977 0
M  V30 2848 H 265.26 -5.48069 -0.302002 0
M  V30 2849 H 265.521 -4.17662 -1.44951 0
M  V30 2850 N 264.58 -0.43555 -1.51462 0
M  V30 2851 C 265.857 0.191364 -1.94662 0
M  V30 2852 C 266.237 1.60254 -1.37411 0
M  V30 2853 O 265.585 2.2152 -0.560458 0
M  V30 2854 C 265.795 0.17091 -3.48581 0
M  V30 2855 C 267.143 0.377357 -4.2292 0
M  V30 2856 O 268.167 0.249104 -3.55328 0
M  V30 2857 O 267.026 0.63247 -5.42828 0
M  V30 2858 H 264.12 0.130932 -0.816569 0
M  V30 2859 H 266.666 -0.4934 -1.62369 0
M  V30 2860 H 265.438 -0.815738 -3.82703 0
M  V30 2861 H 265.061 0.898659 -3.87311 0
M  V30 2862 N 266.058 1.56714 -0.166846 0
M  V30 2863 C 267.283 2.01557 0.488833 0
M  V30 2864 C 267.708 1.0463 1.56314 0
M  V30 2865 O 267.066 0.0251304 1.81283 0
M  V30 2866 C 267.114 3.4503 1.04818 0
M  V30 2867 O 266.218 3.51163 2.16236 0
M  V30 2868 H 265.559 0.653516 0.117526 0
M  V30 2869 H 268.089 2.02818 -0.269421 0
M  V30 2870 H 268.099 3.84243 1.37191 0
M  V30 2871 H 266.774 4.15077 0.261572 0
M  V30 2872 H 265.351 3.23807 1.84942 0
M  V30 2873 N 267.536 -0.106894 1.57237 0
M  V30 2874 C 268.782 -0.81373 1.85759 0
M  V30 2875 C 269.115 -1.78952 0.754315 0
M  V30 2876 O 268.39 -1.93029 -0.23879 0
M  V30 2877 C 268.673 -1.55293 3.24894 0
M  V30 2878 C 268.526 -0.595929 4.45835 0
M  V30 2879 C 269.845 -2.5063 3.61763 0
M  V30 2880 H 266.964 -0.294369 0.67566 0
M  V30 2881 H 269.606 -0.0776472 1.89841 0
M  V30 2882 H 267.756 -2.1804 3.21544 0
M  V30 2883 H 269.428 0.0236262 4.61294 0
M  V30 2884 H 267.671 0.0916191 4.33703 0
M  V30 2885 H 268.342 -1.15004 5.39887 0
M  V30 2886 H 270.818 -1.97982 3.65981 0
M  V30 2887 H 269.694 -2.99376 4.60071 0
M  V30 2888 H 269.955 -3.3385 2.89821 0
M  V30 2889 N 269.014 -1.53014 -0.377408 0
M  V30 2890 C 270.261 -1.68623 -1.12128 0
M  V30 2891 C 270.589 -0.431997 -1.89642 0
M  V30 2892 O 269.844 0.585855 -1.86725 0
M  V30 2893 C 270.143 -2.87982 -2.11663 0
M  V30 2894 C 269.809 -4.24964 -1.50719 0
M  V30 2895 C 268.471 -4.62217 -1.33825 0
M  V30 2896 C 270.823 -5.10199 -1.06519 0
M  V30 2897 C 268.151 -5.82352 -0.712963 0
M  V30 2898 C 270.503 -6.30969 -0.453955 0
M  V30 2899 C 269.167 -6.66944 -0.272411 0
M  V30 2900 H 268.437 -0.617034 -0.410305 0
M  V30 2901 H 271.084 -1.8718 -0.404484 0
M  V30 2902 H 269.389 -2.63889 -2.89603 0
M  V30 2903 H 271.086 -2.97253 -2.6915 0
M  V30 2904 H 267.676 -3.95626 -1.64858 0
M  V30 2905 H 271.86 -4.81978 -1.18368 0
M  V30 2906 H 267.116 -6.08824 -0.560611 0
M  V30 2907 H 271.29 -6.96324 -0.103217 0
M  V30 2908 H 268.917 -7.59898 0.214181 0
M  V30 2909 N 270.492 0.636531 -1.44174 0
M  V30 2910 C 271.717 1.42847 -1.50364 0
M  V30 2911 C 272.142 1.87665 -0.127867 0
M  V30 2912 O 271.5 1.58408 0.88185 0
M  V30 2913 C 271.548 2.62854 -2.4686 0
M  V30 2914 O 270.652 3.62501 -1.9664 0
M  V30 2915 H 269.993 0.427642 -0.507955 0
M  V30 2916 H 272.523 0.777422 -1.89255 0
M  V30 2917 H 272.533 3.10465 -2.64718 0
M  V30 2918 H 271.208 2.29578 -3.46795 0
M  V30 2919 H 269.785 3.21735 -1.88523 0
M  V30 2920 N 271.97 1.30982 0.876444 0
M  V30 2921 C 272.902 1.13902 1.98894 0
M  V30 2922 C 273.915 0.0798815 1.62604 0
M  V30 2923 O 275.104 0.326743 1.75484 0
M  V30 2924 C 272.204 0.716699 3.31235 0
M  V30 2925 C 271.377 1.85945 3.95908 0
M  V30 2926 C 270.436 1.42426 5.06558 0
M  V30 2927 O 269.462 2.13287 5.27729 0
M  V30 2928 N 270.664 0.308025 5.79682 0
M  V30 2929 H 273.429 2.09724 2.14094 0
M  V30 2930 H 270.99 1.2323 1.05004 0
M  V30 2931 H 272.982 0.408403 4.02634 0
M  V30 2932 H 271.552 -0.149719 3.12241 0
M  V30 2933 H 270.772 2.33541 3.17573 0
M  V30 2934 H 272.06 2.62503 4.35855 0
M  V30 2935 H 271.458 -0.282241 5.64995 0
M  V30 2936 H 270.015 0.0592282 6.51773 0
M  V30 2937 N 273.449 -1.08991 1.13837 0
M  V30 2938 C 274.695 -1.81526 0.90422 0
M  V30 2939 C 275.028 -1.85706 -0.568066 0
M  V30 2940 O 274.303 -1.32855 -1.42056 0
M  V30 2941 C 274.586 -3.27447 1.49835 0
M  V30 2942 C 274.439 -3.31512 3.04006 0
M  V30 2943 C 275.758 -4.24256 1.17025 0
M  V30 2944 H 272.877 -0.659029 0.329923 0
M  V30 2945 H 275.519 -1.27644 1.40737 0
M  V30 2946 H 273.669 -3.73462 1.07044 0
M  V30 2947 H 275.341 -2.93867 3.55584 0
M  V30 2948 H 273.584 -2.70963 3.38765 0
M  V30 2949 H 274.255 -4.34329 3.40679 0
M  V30 2950 H 276.731 -3.86549 1.54009 0
M  V30 2951 H 275.607 -5.24684 1.61237 0
M  V30 2952 H 275.868 -4.42019 0.0846274 0
M  V30 2953 N 274.927 -0.932562 -1.27047 0
M  V30 2954 C 276.167 -0.582919 -1.95912 0
M  V30 2955 C 276.531 0.860629 -1.71631 0
M  V30 2956 O 277.732 1.31878 -2.34225 0
M  V30 2957 C 276.003 -0.905673 -3.45734 0
M  V30 2958 S 277.562 -0.665277 -4.33727 0
M  V30 2959 H 274.38 -0.215 -0.677714 0
M  V30 2960 H 276.982 -1.20204 -1.54179 0
M  V30 2961 H 275.686 -1.95386 -3.60905 0
M  V30 2962 H 275.217 -0.275939 -3.92431 0
M  V30 2963 H 277.232 0.474635 -4.93925 0
M  V30 2964 N 276.405 1.4127 -0.698611 0
M  V30 2965 C 277.633 2.05503 -0.239992 0
M  V30 2966 C 278.048 1.52584 1.11191 0
M  V30 2967 O 277.405 0.675323 1.69545 0
M  V30 2968 C 277.456 3.60987 -0.192429 0
M  V30 2969 O 277.177 4.1195 -1.49094 0
M  V30 2970 C 278.678 4.42371 0.28681 0
M  V30 2971 H 275.898 0.661748 -0.111045 0
M  V30 2972 H 278.442 1.80987 -0.95205 0
M  V30 2973 H 276.597 3.84533 0.470472 0
M  V30 2974 H 277.011 5.06018 -1.38007 0
M  V30 2975 H 278.485 5.51344 0.26896 0
M  V30 2976 H 278.962 4.18699 1.32619 0
M  V30 2977 H 279.568 4.23897 -0.345201 0
M  V30 2978 N 277.883 0.443576 1.51229 0
M  V30 2979 C 278.833 -0.382787 2.24764 0
M  V30 2980 C 279.817 -0.984836 1.27239 0
M  V30 2981 O 281.009 -0.901943 1.52296 0
M  V30 2982 C 278.138 -1.47989 3.09765 0
M  V30 2983 C 277.224 -0.886931 4.14722 0
M  V30 2984 N 277.615 -0.0237103 5.05794 0
M  V30 2985 C 275.913 -1.15385 4.30816 0
M  V30 2986 C 276.614 0.309971 5.80874 0
M  V30 2987 N 275.59 -0.307989 5.42727 0
M  V30 2988 H 279.392 0.282624 2.92538 0
M  V30 2989 H 276.906 0.256027 1.60369 0
M  V30 2990 H 278.903 -2.08482 3.61027 0
M  V30 2991 H 277.563 -2.14758 2.43535 0
M  V30 2992 H 278.574 0.34318 5.16762 0
M  V30 2993 H 275.251 -1.81857 3.75812 0
M  V30 2994 H 276.641 1.01279 6.64223 0
M  V30 2995 N 279.361 -1.56624 0.175154 0
M  V30 2996 C 280.291 -2.21155 -0.749195 0
M  V30 2997 C 281.272 -1.16836 -1.23626 0
M  V30 2998 O 282.457 -1.45277 -1.28873 0
M  V30 2999 C 279.587 -2.8553 -1.97711 0
M  V30 3000 C 278.541 -3.95921 -1.62575 0
M  V30 3001 C 277.867 -4.47365 -2.92864 0
M  V30 3002 C 279.167 -5.15323 -0.850838 0
M  V30 3003 H 280.861 -2.98653 -0.211295 0
M  V30 3004 H 278.407 -1.43651 -0.100188 0
M  V30 3005 H 280.36 -3.2935 -2.62881 0
M  V30 3006 H 279.084 -2.05406 -2.53921 0
M  V30 3007 H 277.743 -3.52762 -0.997719 0
M  V30 3008 H 277.391 -3.64027 -3.47122 0
M  V30 3009 H 277.091 -5.21839 -2.70106 0
M  V30 3010 H 278.615 -4.93873 -3.59056 0
M  V30 3011 H 280.029 -5.55812 -1.40521 0
M  V30 3012 H 278.426 -5.95739 -0.722154 0
M  V30 3013 H 279.496 -4.84661 0.152082 0
M  V30 3014 N 280.839 0.0985539 -1.57292 0
M  V30 3015 C 282.116 0.834155 -1.76921 0
M  V30 3016 C 282.496 1.97101 -0.755928 0
M  V30 3017 O 281.844 2.27474 0.216245 0
M  V30 3018 C 282.054 1.33194 -3.22584 0
M  V30 3019 C 283.402 1.77611 -3.85668 0
M  V30 3020 O 284.426 1.42825 -3.26312 0
M  V30 3021 O 283.285 2.4192 -4.90038 0
M  V30 3022 H 280.379 0.397628 -0.725135 0
M  V30 3023 H 282.925 0.0807044 -1.69508 0
M  V30 3024 H 281.697 0.517248 -3.87866 0
M  V30 3025 H 281.32 2.1475 -3.34616 0
M  V30 3026 N 282.317 1.53212 0.369288 0
M  V30 3027 C 283.28 1.7872 1.43498 0
M  V30 3028 C 284.28 0.657554 1.46741 0
M  V30 3029 O 285.47 0.925736 1.47566 0
M  V30 3030 C 282.602 1.90591 2.82645 0
M  V30 3031 H 283.795 2.73894 1.22156 0
M  V30 3032 H 281.348 1.44233 0.602203 0
M  V30 3033 H 282.083 0.974709 3.09306 0
M  V30 3034 H 281.868 2.72751 2.8169 0
M  V30 3035 H 283.358 2.11931 3.59826 0
M  V30 3036 N 283.795 -0.628877 1.44509 0
M  V30 3037 C 284.725 -1.75187 1.54376 0
M  V30 3038 C 285.706 -1.65411 0.396618 0
M  V30 3039 O 286.891 -1.84137 0.617031 0
M  V30 3040 C 284.021 -3.13725 1.48976 0
M  V30 3041 C 282.975 -3.38291 2.62189 0
M  V30 3042 C 282.301 -4.76883 2.41841 0
M  V30 3043 C 283.601 -3.30632 4.04326 0
M  V30 3044 H 285.295 -1.67187 2.48373 0
M  V30 3045 H 282.841 -0.802909 1.19538 0
M  V30 3046 H 284.794 -3.92064 1.54478 0
M  V30 3047 H 283.518 -3.22515 0.514961 0
M  V30 3048 H 282.177 -2.62334 2.56079 0
M  V30 3049 H 281.825 -4.82378 1.42548 0
M  V30 3050 H 281.525 -4.94278 3.17747 0
M  V30 3051 H 283.049 -5.57449 2.49165 0
M  V30 3052 H 284.463 -3.98873 4.11793 0
M  V30 3053 H 282.86 -3.59561 4.80454 0
M  V30 3054 H 283.93 -2.28404 4.27738 0
M  V30 3055 N 285.273 -1.31445 -0.869486 0
M  V30 3056 C 286.22 -1.19135 -1.97675 0
M  V30 3057 C 287.19 -0.0770266 -1.65921 0
M  V30 3058 O 288.375 -0.249972 -1.89155 0
M  V30 3059 C 285.515 -0.905149 -3.33018 0
M  V30 3060 C 284.628 -2.10285 -3.77365 0
M  V30 3061 C 283.763 -1.75339 -5.01427 0
M  V30 3062 C 282.802 -2.91515 -5.38224 0
M  V30 3063 N 281.939 -2.56762 -6.53466 0
M  V30 3064 H 286.779 -2.13853 -2.07535 0
M  V30 3065 H 284.316 -1.06379 -1.01597 0
M  V30 3066 H 286.274 -0.719765 -4.10944 0
M  V30 3067 H 284.904 0.00519624 -3.228 0
M  V30 3068 H 283.956 -2.39899 -2.95216 0
M  V30 3069 H 285.268 -2.97237 -4.00564 0
M  V30 3070 H 284.422 -1.53266 -5.87022 0
M  V30 3071 H 283.161 -0.855801 -4.80133 0
M  V30 3072 H 282.166 -3.14237 -4.51149 0
M  V30 3073 H 283.391 -3.81985 -5.61484 0
M  V30 3074 H 281.337 -1.69526 -6.33717 0
M  V30 3075 H 281.254 -3.37243 -6.76612 0
M  V30 3076 H 282.522 -2.38083 -7.42251 0
M  V30 3077 O 286.79 1.00619 -1.26325 0
M  V30 3078 H 287.481 1.62637 -1.05209 0
M  V30 END ATOM
M  V30 BEGIN BOND
M  V30 END BOND
M  V30 END CTAB
M  END
$$$$
