drugbank_target|P00509 Aspartate aminotransferase (DB01639; DB02024; DB02758; DB02981; DB03553; DB03629; DB03662; DB03750; DB04083; DB04299; DB04467; DB04762; DB04765; DB08845)
 OpenBabel12092119503D

  0  0  0     0  0            999 V3000
M  V30 BEGIN CTAB
M  V30 COUNTS 6090 6151 0 0 0
M  V30 BEGIN ATOM
M  V30 1 H -0.908 1.98254 -0.117106 0
M  V30 2 N 0 1.576 0 0
M  V30 3 C 0.933 2.03868 1.02534 0
M  V30 4 C 1.911 0.928543 1.3348 0
M  V30 5 O 3.095 1.19667 1.45644 0
M  V30 6 C 0.222 2.43627 2.35294 0
M  V30 7 C -0.732 3.65373 2.2001 0
M  V30 8 S 0.101 5.13292 1.52614 0
M  V30 9 C 1.257 5.56322 2.86805 0
M  V30 10 H 1.49 2.90518 0.631377 0
M  V30 11 H -0.977 1.52953 0.210867 0
M  V30 12 H 0.981 2.67203 3.11629 0
M  V30 13 H -0.358 1.57376 2.7183 0
M  V30 14 H -1.165 3.90944 3.18086 0
M  V30 15 H -1.563 3.418 1.51819 0
M  V30 16 H 0.729 5.58782 3.83104 0
M  V30 17 H 1.672 6.56266 2.65933 0
M  V30 18 H 2.08 4.83886 2.90714 0
M  V30 19 N 1.4781 -0.272755 1.55222 0
M  V30 20 C 2.7251 -1.00433 1.7584 0
M  V30 21 C 3.0531 -1.86275 0.559629 0
M  V30 22 O 2.3081 -1.90269 -0.457857 0
M  V30 23 C 2.6071 -1.91642 3.01675 0
M  V30 24 C 2.2731 -1.21548 4.34208 0
M  V30 25 C 0.9351 -1.02166 4.70229 0
M  V30 26 C 3.2871 -0.716684 5.16249 0
M  V30 27 C 0.6151 -0.316334 5.85847 0
M  V30 28 C 2.9671 -0.0249476 6.32595 0
M  V30 29 C 1.6311 0.180579 6.67256 0
M  V30 30 H 0.9011 -0.367509 0.643443 0
M  V30 31 H 3.5481 -0.276596 1.89492 0
M  V30 32 H 1.8531 -2.71037 2.82924 0
M  V30 33 H 3.5501 -2.48369 3.14824 0
M  V30 34 H 0.1401 -1.37645 4.05896 0
M  V30 35 H 4.3241 -0.854047 4.88896 0
M  V30 36 H -0.4199 -0.146378 6.11225 0
M  V30 37 H 3.7541 0.369311 6.9542 0
M  V30 38 H 1.3811 0.729098 7.56696 0
M  V30 39 N 2.9562 -1.48159 -0.537278 0
M  V30 40 C 3.8662 -1.64807 -1.6696 0
M  V30 41 C 4.8822 -0.530651 -1.65711 0
M  V30 42 O 6.0582 -0.800784 -1.84796 0
M  V30 43 C 3.1232 -1.67708 -3.03438 0
M  V30 44 C 2.1842 -2.91025 -3.156 0
M  V30 45 C 1.4172 -2.93778 -4.45567 0
M  V30 46 O 1.6402 -2.05153 -5.3223 0
M  V30 47 O 0.5742 -3.85868 -4.61941 0
M  V30 48 H 4.4002 -2.6066 -1.55853 0
M  V30 49 H 1.9852 -1.31475 -0.709549 0
M  V30 50 H 3.8672 -1.7218 -3.84619 0
M  V30 51 H 2.5422 -0.750278 -3.14885 0
M  V30 52 H 1.4492 -2.92089 -2.33741 0
M  V30 53 H 2.7822 -3.83065 -3.09066 0
M  V30 54 N 4.4343 0.785586 -1.36625 0
M  V30 55 C 5.3823 1.91978 -1.31329 0
M  V30 56 C 6.3763 1.68162 -0.204416 0
M  V30 57 O 7.5823 1.76122 -0.371645 0
M  V30 58 H 3.9573 0.631087 -0.408942 0
M  V30 59 H 5.9283 1.93562 -2.27104 0
M  V30 60 C 4.6773 3.29055 -1.12329 0
M  V30 61 H 4.0003 3.4795 -1.96903 0
M  V30 62 H 5.4403 4.08756 -1.12671 0
M  V30 63 C 3.8993 3.36461 0.171861 0
M  V30 64 O 4.4293 3.84576 1.16035 0
M  V30 65 N 2.6353 2.89782 0.217846 0
M  V30 66 H 2.1823 2.50819 -0.587183 0
M  V30 67 H 2.1403 2.95119 1.08408 0
M  V30 68 N 5.9124 1.20967 1.01018 0
M  V30 69 C 7.1614 1.01796 1.74128 0
M  V30 70 C 7.4744 -0.449691 1.90361 0
M  V30 71 O 8.6804 -0.76068 2.60626 0
M  V30 72 C 7.1364 1.7727 3.13215 0
M  V30 73 C 6.7444 3.28171 3.04972 0
M  V30 74 C 8.4884 1.66489 3.90489 0
M  V30 75 C 6.3954 3.96156 4.39107 0
M  V30 76 H 5.3254 0.377276 0.652824 0
M  V30 77 H 7.9764 1.44651 1.12909 0
M  V30 78 H 6.3584 1.27205 3.75013 0
M  V30 79 H 7.5324 3.85499 2.52443 0
M  V30 80 H 5.8474 3.39437 2.41188 0
M  V30 81 H 8.4444 2.14617 4.89738 0
M  V30 82 H 8.7874 0.6222 4.11624 0
M  V30 83 H 9.3204 2.14003 3.35332 0
M  V30 84 H 6.0594 5.00604 4.23174 0
M  V30 85 H 5.5794 3.43617 4.91617 0
M  V30 86 H 7.2584 4.00774 5.07926 0
M  V30 87 N 7.3905 -1.2043 1.01659 0
M  V30 88 C 8.6185 -1.93777 0.725132 0
M  V30 89 C 9.0335 -1.74772 -0.714166 0
M  V30 90 O 8.3905 -1.06169 -1.4844 0
M  V30 91 C 8.4415 -3.45876 1.05129 0
M  V30 92 O 8.1625 -3.6426 2.43406 0
M  V30 93 C 9.6635 -4.36368 0.780891 0
M  V30 94 H 6.8835 -0.615901 0.266284 0
M  V30 95 H 9.4275 -1.52922 1.35776 0
M  V30 96 H 7.5825 -3.8461 0.464065 0
M  V30 97 H 7.9965 -4.58246 2.55169 0
M  V30 98 H 9.4705 -5.41743 1.05918 0
M  V30 99 H 9.9475 -4.38275 -0.284937 0
M  V30 100 H 10.5535 -4.03296 1.35027 0
M  V30 101 N 8.8686 -0.792821 -1.36206 0
M  V30 102 C 9.8316 -0.199459 -2.2833 0
M  V30 103 C 10.8316 0.605189 -1.48977 0
M  V30 104 O 12.0216 0.425685 -1.68919 0
M  V30 105 C 9.1536 0.723523 -3.33134 0
M  V30 106 H 10.3466 -1.01181 -2.82316 0
M  V30 107 H 7.8996 -0.562485 -1.45828 0
M  V30 108 H 8.6346 1.56008 -2.84309 0
M  V30 109 H 8.4196 0.148436 -3.91819 0
M  V30 110 H 9.9096 1.13344 -4.01924 0
M  V30 111 N 10.3467 1.47872 -0.545128 0
M  V30 112 C 11.3097 2.28337 0.198717 0
M  V30 113 C 12.3097 1.36255 0.853888 0
M  V30 114 O 13.4997 1.59003 0.711606 0
M  V30 115 C 10.6317 3.15585 1.28915 0
M  V30 116 H 11.8247 2.95567 -0.507941 0
M  V30 117 H 9.3777 1.53362 -0.301616 0
M  V30 118 H 10.1127 2.53019 2.02859 0
M  V30 119 H 9.8977 3.83337 0.824309 0
M  V30 120 H 11.3877 3.76243 1.81194 0
M  V30 121 N 11.8248 0.280983 1.55075 0
M  V30 122 C 13.2358 -0.215629 1.85451 0
M  V30 123 C 13.5868 -1.54991 1.203 0
M  V30 124 O 12.7118 -2.10699 0.493435 0
M  V30 125 C 13.3068 -0.398026 3.36454 0
M  V30 126 C 11.8658 -0.838866 3.66933 0
M  V30 127 C 11.0128 0.064458 2.77225 0
M  V30 128 H 13.9638 0.502601 1.50531 0
M  V30 129 H 13.9848 -1.23569 3.59876 0
M  V30 130 H 13.4968 0.573241 3.83843 0
M  V30 131 H 11.5978 -1.8214 3.25048 0
M  V30 132 H 11.7108 -0.672123 4.74362 0
M  V30 133 H 10.0748 -0.452863 2.50642 0
M  V30 134 H 10.8578 1.03172 3.2743 0
M  V30 135 N 13.3029 -1.57598 0.00835791 0
M  V30 136 C 14.2659 -2.07884 -0.965242 0
M  V30 137 C 15.2659 -0.989825 -1.26725 0
M  V30 138 O 16.4559 -1.25218 -1.21104 0
M  V30 139 C 13.5879 -2.52731 -2.28779 0
M  V30 140 H 14.7809 -2.95178 -0.530112 0
M  V30 141 H 12.3339 -1.54458 -0.239283 0
M  V30 142 H 13.0689 -1.68705 -2.76964 0
M  V30 143 H 12.8539 -3.32272 -2.08177 0
M  V30 144 H 14.3439 -2.91933 -2.98605 0
M  V30 145 N 14.781 0.264519 -1.55364 0
M  V30 146 C 16.058 1.01677 -1.67096 0
M  V30 147 C 16.438 2.03996 -0.543015 0
M  V30 148 O 15.786 2.23907 0.45585 0
M  V30 149 C 15.996 1.66596 -3.0667 0
M  V30 150 C 17.344 2.17442 -3.64697 0
M  V30 151 O 18.368 1.76568 -3.09358 0
M  V30 152 O 17.227 2.92439 -4.61673 0
M  V30 153 H 14.321 0.472161 -0.678965 0
M  V30 154 H 16.867 0.259703 -1.67701 0
M  V30 155 H 15.639 0.924962 -3.80211 0
M  V30 156 H 15.262 2.48968 -3.10001 0
M  V30 157 N 16.2591 1.48442 0.529413 0
M  V30 158 C 17.6701 1.5002 1.11134 0
M  V30 159 C 18.0211 0.27031 1.94329 0
M  V30 160 O 17.1461 -0.622507 2.07253 0
M  V30 161 C 17.7411 2.71834 2.02217 0
M  V30 162 C 16.3001 2.76283 2.55627 0
M  V30 163 C 15.4471 2.43542 1.326 0
M  V30 164 H 18.3981 1.5555 0.314641 0
M  V30 165 H 18.4191 2.50384 2.8651 0
M  V30 166 H 17.9311 3.61331 1.41639 0
M  V30 167 H 16.0321 1.90995 3.19924 0
M  V30 168 H 16.1451 3.77725 2.94721 0
M  V30 169 H 14.5091 1.94709 1.64196 0
M  V30 170 H 15.2921 3.3528 0.737734 0
M  V30 171 N 17.7372 -0.778329 1.37039 0
M  V30 172 C 18.9862 -1.53189 1.3121 0
M  V30 173 C 19.2992 -1.95328 -0.103095 0
M  V30 174 O 20.5052 -2.70012 -0.283826 0
M  V30 175 C 18.9612 -2.76591 2.30272 0
M  V30 176 C 18.5692 -2.41577 3.77286 0
M  V30 177 C 20.3132 -3.5455 2.33441 0
M  V30 178 C 18.2202 -3.61441 4.68096 0
M  V30 179 H 17.1502 -0.5751 0.487622 0
M  V30 180 H 19.8012 -0.853101 1.62464 0
M  V30 181 H 18.1832 -3.46326 1.92027 0
M  V30 182 H 19.3572 -1.79668 4.2433 0
M  V30 183 H 17.6722 -1.76806 3.76999 0
M  V30 184 H 20.2692 -4.43628 2.98493 0
M  V30 185 H 20.6122 -3.93936 1.34611 0
M  V30 186 H 21.1452 -2.91805 2.7036 0
M  V30 187 H 17.8842 -3.27142 5.6803 0
M  V30 188 H 17.4042 -4.22478 4.25761 0
M  V30 189 H 19.0832 -4.28335 4.8491 0
M  V30 190 N 19.2153 -1.21501 -1.00376 0
M  V30 191 C 20.1453 -0.999478 -2.11028 0
M  V30 192 C 21.1263 0.0759671 -1.6993 0
M  V30 193 O 22.3113 -0.0841106 -1.94018 0
M  V30 194 C 19.4413 -0.564709 -3.42678 0
M  V30 195 C 18.3953 -1.58486 -3.97576 0
M  V30 196 C 17.7213 -1.00628 -5.25146 0
M  V30 197 C 19.0213 -2.97204 -4.29496 0
M  V30 198 H 20.7153 -1.92495 -2.29317 0
M  V30 199 H 18.2613 -0.92693 -1.102 0
M  V30 200 H 20.2143 -0.401091 -4.19487 0
M  V30 201 H 18.9383 0.396411 -3.24185 0
M  V30 202 H 17.5973 -1.73606 -3.22888 0
M  V30 203 H 17.2453 -0.0368439 -5.02987 0
M  V30 204 H 16.9453 -1.68771 -5.62841 0
M  V30 205 H 18.4693 -0.854015 -6.04598 0
M  V30 206 H 19.8833 -2.8552 -4.97143 0
M  V30 207 H 18.2803 -3.62372 -4.78338 0
M  V30 208 H 19.3503 -3.47956 -3.3772 0
M  V30 209 N 20.6934 1.19889 -1.02296 0
M  V30 210 C 21.9414 1.89046 -0.714558 0
M  V30 211 C 22.2624 1.79636 0.758681 0
M  V30 212 O 21.5324 1.20292 1.54618 0
M  V30 213 H 20.1124 0.699802 -0.261317 0
M  V30 214 H 22.7744 1.45574 -1.29592 0
M  V30 215 H 21.8704 2.95524 -1.0036 0
M  V30 216 N 22.1715 0.800033 1.35784 0
M  V30 217 C 23.1015 0.220184 2.3246 0
M  V30 218 C 24.0825 -0.65073 1.57161 0
M  V30 219 O 25.2675 -0.582359 1.85263 0
M  V30 220 C 22.3975 -0.637353 3.41402 0
M  V30 221 C 21.3515 0.134531 4.27789 0
M  V30 222 C 20.6775 -0.844285 5.27992 0
M  V30 223 C 21.9775 1.32979 5.05088 0
M  V30 224 H 23.6715 1.02787 2.81203 0
M  V30 225 H 21.2175 0.495717 1.35199 0
M  V30 226 H 23.1705 -1.05302 4.08031 0
M  V30 227 H 21.8945 -1.47785 2.91251 0
M  V30 228 H 20.5535 0.531296 3.6273 0
M  V30 229 H 20.2015 -1.68011 4.74111 0
M  V30 230 H 19.9015 -0.332184 5.8666 0
M  V30 231 H 21.4255 -1.2583 5.97494 0
M  V30 232 H 22.8395 0.98934 5.64699 0
M  V30 233 H 21.2365 1.77593 5.7322 0
M  V30 234 H 22.3065 2.11978 4.36111 0
M  V30 235 N 23.6496 -1.47581 0.552962 0
M  V30 236 C 24.6126 -2.28439 -0.186605 0
M  V30 237 C 25.6126 -1.36706 -0.84665 0
M  V30 238 O 26.8026 -1.59378 -0.703164 0
M  V30 239 C 23.9346 -3.16264 -1.2724 0
M  V30 240 H 25.1276 -2.95294 0.523609 0
M  V30 241 H 22.6806 -1.532 0.309745 0
M  V30 242 H 23.4156 -2.54091 -2.01514 0
M  V30 243 H 23.2006 -3.83769 -0.803968 0
M  V30 244 H 24.6906 -3.77198 -1.79196 0
M  V30 245 N 25.1277 -0.289203 -1.54924 0
M  V30 246 C 26.4047 0.376032 -1.91951 0
M  V30 247 C 26.7847 1.72622 -1.21511 0
M  V30 248 O 26.1327 2.25853 -0.346767 0
M  V30 249 C 26.3427 0.502378 -3.45365 0
M  V30 250 C 27.6907 0.778741 -4.17398 0
M  V30 251 O 28.7147 0.586647 -3.51336 0
M  V30 252 O 27.5737 1.14698 -5.34328 0
M  V30 253 H 24.6677 0.208167 -0.800372 0
M  V30 254 H 27.2137 -0.336394 -1.66332 0
M  V30 255 H 25.9857 -0.447255 -3.88736 0
M  V30 256 H 25.6087 1.26373 -3.76982 0
M  V30 257 N 26.6058 1.57591 -0.0167156 0
M  V30 258 C 27.5358 2.12496 0.967858 0
M  V30 259 C 28.5168 1.03807 1.34752 0
M  V30 260 O 29.7018 1.31577 1.42833 0
M  V30 261 C 26.8318 2.64194 2.25431 0
M  V30 262 C 25.7858 3.77559 2.01576 0
M  V30 263 C 25.1118 4.15636 3.36379 0
M  V30 264 C 26.4118 5.04151 1.36489 0
M  V30 265 H 28.1058 2.95013 0.510643 0
M  V30 266 H 25.6518 1.41915 0.244181 0
M  V30 267 H 27.6048 3.01236 2.94678 0
M  V30 268 H 26.3288 1.78821 2.73296 0
M  V30 269 H 24.9878 3.40937 1.34751 0
M  V30 270 H 24.6358 3.27263 3.81979 0
M  V30 271 H 24.3358 4.92022 3.21229 0
M  V30 272 H 25.8598 4.5525 4.06915 0
M  V30 273 H 27.2738 5.38857 1.95718 0
M  V30 274 H 25.6708 5.85453 1.31776 0
M  V30 275 H 26.7408 4.83733 0.336219 0
M  V30 276 N 28.0839 -0.256276 1.55502 0
M  V30 277 C 29.3309 -0.985619 1.76895 0
M  V30 278 C 29.6589 -1.85671 0.579355 0
M  V30 279 O 28.9139 -1.90744 -0.437651 0
M  V30 280 C 29.2129 -1.88432 3.03691 0
M  V30 281 C 28.8789 -1.16936 4.35473 0
M  V30 282 C 27.5409 -0.97173 4.71286 0
M  V30 283 C 29.8929 -0.661889 5.1698 0
M  V30 284 C 27.2209 -0.254179 5.86149 0
M  V30 285 C 29.5729 0.042149 6.32586 0
M  V30 286 C 28.2369 0.25134 6.67027 0
M  V30 287 H 27.5069 -0.360663 0.647304 0
M  V30 288 H 30.1539 -0.256483 1.89775 0
M  V30 289 H 28.4589 -2.68021 2.85783 0
M  V30 290 H 30.1559 -2.45015 3.1744 0
M  V30 291 H 26.7459 -1.33332 4.07333 0
M  V30 292 H 30.9299 -0.802145 4.89775 0
M  V30 293 H 26.1859 -0.0815408 6.11346 0
M  V30 294 H 30.3599 0.443049 6.94989 0
M  V30 295 H 27.9869 0.809314 7.5588 0
M  V30 296 N 29.562 -1.4872 -0.521534 0
M  V30 297 C 30.978 -1.35028 -0.850855 0
M  V30 298 C 31.178 -0.367712 -1.98116 0
M  V30 299 O 30.234 0.208037 -2.51642 0
M  V30 300 C 31.547 -2.75263 -1.21041 0
M  V30 301 C 33.095 -2.83813 -1.31981 0
M  V30 302 C 33.57 -4.24769 -1.71276 0
M  V30 303 N 35.061 -4.27482 -1.78363 0
M  V30 304 C 35.796 -5.33494 -2.1017 0
M  V30 305 N 35.292 -6.49775 -2.40343 0
M  V30 306 N 37.085 -5.20894 -2.11248 0
M  V30 307 H 29.236 -2.11214 0.22413 0
M  V30 308 H 31.499 -0.947252 0.0376439 0
M  V30 309 H 31.205 -3.48765 -0.453415 0
M  V30 310 H 31.079 -3.09327 -2.15863 0
M  V30 311 H 33.466 -2.10561 -2.06756 0
M  V30 312 H 33.547 -2.53358 -0.352596 0
M  V30 313 H 33.191 -4.9854 -0.970588 0
M  V30 314 H 33.121 -4.52673 -2.69062 0
M  V30 315 H 35.612 -3.43611 -1.57288 0
M  V30 316 H 35.925 -7.26402 -2.63743 0
M  V30 317 H 34.27 -6.53035 -2.37844 0
M  V30 318 H 37.461 -4.29065 -1.87139 0
M  V30 319 H 37.634 -6.03612 -2.35704 0
M  V30 320 N 31.0401 0.771051 -1.3745 0
M  V30 321 C 32.0031 1.86598 -1.33093 0
M  V30 322 C 33.0031 1.59076 -0.234845 0
M  V30 323 O 34.1931 1.67145 -0.490732 0
M  V30 324 C 31.3251 3.23747 -1.06773 0
M  V30 325 H 32.5181 1.91873 -2.30488 0
M  V30 326 H 30.0711 0.970876 -1.2249 0
M  V30 327 H 30.8061 3.24148 -0.099129 0
M  V30 328 H 30.5911 3.45115 -1.86112 0
M  V30 329 H 32.0811 4.03824 -1.06377 0
M  V30 330 N 32.5182 1.22032 0.997298 0
M  V30 331 C 33.7952 0.950823 1.70935 0
M  V30 332 C 34.1752 -0.535292 2.042 0
M  V30 333 O 33.5232 -1.50217 1.72183 0
M  V30 334 C 33.7332 1.84386 2.96315 0
M  V30 335 C 35.0812 2.09732 3.69185 0
M  V30 336 O 36.1052 1.81798 3.06314 0
M  V30 337 O 34.9642 2.57018 4.82291 0
M  V30 338 H 32.0582 0.357204 0.745878 0
M  V30 339 H 34.6042 1.32997 1.05404 0
M  V30 340 H 33.3762 2.84928 2.68201 0
M  V30 341 H 32.9992 1.46602 3.69586 0
M  V30 342 N 33.9963 -1.19345 1.0293 0
M  V30 343 C 34.9063 -2.26245 0.620515 0
M  V30 344 C 35.9223 -1.70486 -0.347928 0
M  V30 345 O 37.0983 -2.00347 -0.205704 0
M  V30 346 C 34.1633 -3.46693 -0.0218957 0
M  V30 347 C 33.2243 -4.17632 0.994102 0
M  V30 348 C 32.4573 -5.32329 0.382253 0
M  V30 349 O 32.6803 -5.64552 -0.814676 0
M  V30 350 O 31.6143 -5.91664 1.10531 0
M  V30 351 H 35.4403 -2.63453 1.51083 0
M  V30 352 H 33.0253 -1.26207 0.799513 0
M  V30 353 H 34.9073 -4.19683 -0.380072 0
M  V30 354 H 33.5823 -3.11333 -0.886209 0
M  V30 355 H 32.4893 -3.4676 1.40387 0
M  V30 356 H 33.8223 -4.56964 1.8288 0
M  V30 357 N 35.4744 -0.807222 -1.35358 0
M  V30 358 C 36.8904 -0.491038 -1.51858 0
M  V30 359 C 37.0904 0.987648 -1.75635 0
M  V30 360 O 36.1464 1.77265 -1.79815 0
M  V30 361 C 37.4594 -1.33695 -2.69344 0
M  V30 362 C 39.0074 -1.33246 -2.83222 0
M  V30 363 C 39.4824 -2.1625 -4.03733 0
M  V30 364 N 40.9734 -2.1379 -4.10911 0
M  V30 365 C 41.7084 -2.74772 -5.03277 0
M  V30 366 N 41.2044 -3.44684 -6.0097 0
M  V30 367 N 42.9974 -2.6441 -4.96028 0
M  V30 368 H 35.1484 -1.76485 -1.18181 0
M  V30 369 H 37.4114 -0.751199 -0.578276 0
M  V30 370 H 37.1174 -2.38634 -2.58354 0
M  V30 371 H 36.9914 -0.990618 -3.6396 0
M  V30 372 H 39.3784 -0.290911 -2.93663 0
M  V30 373 H 39.4594 -1.71866 -1.89461 0
M  V30 374 H 39.1034 -3.20445 -3.94052 0
M  V30 375 H 39.0334 -1.74989 -4.96675 0
M  V30 376 H 41.5244 -1.62923 -3.40976 0
M  V30 377 H 41.8374 -3.88501 -6.68047 0
M  V30 378 H 40.1824 -3.48788 -6.01142 0
M  V30 379 H 43.3734 -2.0938 -4.18662 0
M  V30 380 H 43.5464 -3.12225 -5.6782 0
M  V30 381 N 36.9525 1.47285 -0.560781 0
M  V30 382 C 38.3635 1.86258 -0.128343 0
M  V30 383 C 38.7145 1.46699 1.30284 0
M  V30 384 O 37.8395 0.871698 1.98067 0
M  V30 385 C 38.4345 3.38044 -0.22614 0
M  V30 386 C 36.9935 3.76096 0.151283 0
M  V30 387 C 36.1405 2.71335 -0.572084 0
M  V30 388 H 39.0915 1.38752 -0.770297 0
M  V30 389 H 39.1125 3.76441 0.554322 0
M  V30 390 H 38.6245 3.66806 -1.26788 0
M  V30 391 H 36.7255 3.52951 1.19399 0
M  V30 392 H 36.8385 4.78641 -0.209765 0
M  V30 393 H 35.2025 2.54696 -0.0147653 0
M  V30 394 H 35.9855 3.02938 -1.61504 0
M  V30 395 N 38.4306 0.297415 1.54768 0
M  V30 396 C 39.6786 -0.312295 1.99673 0
M  V30 397 C 39.9996 -1.54686 1.18732 0
M  V30 398 O 39.2696 -1.93854 0.282382 0
M  V30 399 H 37.8496 -0.118381 0.73756 0
M  V30 400 H 40.5116 0.407915 1.90583 0
M  V30 401 H 39.6076 -0.586813 3.06534 0
M  V30 402 N 39.9087 -1.5758 0.0250728 0
M  V30 403 C 40.8557 -2.09973 -0.958129 0
M  V30 404 C 41.8257 -1.00085 -1.3256 0
M  V30 405 O 43.0107 -1.27481 -1.41962 0
M  V30 406 C 40.1507 -2.62812 -2.2366 0
M  V30 407 C 39.2637 -3.86693 -1.92594 0
M  V30 408 C 38.3987 -4.27941 -3.14707 0
M  V30 409 C 37.4377 -5.44591 -2.79442 0
M  V30 410 N 36.5747 -5.81014 -3.94167 0
M  V30 411 H 41.4147 -2.937 -0.504428 0
M  V30 412 H 38.9517 -1.45172 -0.237392 0
M  V30 413 H 40.9097 -2.91536 -2.98434 0
M  V30 414 H 39.5397 -1.81922 -2.66654 0
M  V30 415 H 38.5917 -3.64723 -1.0808 0
M  V30 416 H 39.9037 -4.71547 -1.62619 0
M  V30 417 H 39.0577 -4.58079 -3.97804 0
M  V30 418 H 37.7967 -3.41845 -3.4784 0
M  V30 419 H 36.8017 -5.1415 -1.94755 0
M  V30 420 H 38.0267 -6.32382 -2.47528 0
M  V30 421 H 35.9727 -4.97874 -4.2715 0
M  V30 422 H 35.8897 -6.60498 -3.67801 0
M  V30 423 H 37.1577 -6.15756 -4.7798 0
M  V30 424 N 41.3868 0.248026 -1.55636 0
M  V30 425 C 42.6358 0.974134 -1.76617 0
M  V30 426 C 42.9488 1.86528 -0.588796 0
M  V30 427 O 44.1548 2.62805 -0.681594 0
M  V30 428 C 42.6108 1.78213 -3.12679 0
M  V30 429 C 42.2188 0.93843 -4.38061 0
M  V30 430 C 43.9628 2.50104 -3.42999 0
M  V30 431 C 41.8698 1.74225 -5.65155 0
M  V30 432 H 40.7998 0.36745 -0.658405 0
M  V30 433 H 43.4508 0.22884 -1.82067 0
M  V30 434 H 41.8328 2.56933 -3.01333 0
M  V30 435 H 43.0068 0.193635 -4.60393 0
M  V30 436 H 41.3218 0.332905 -4.15067 0
M  V30 437 H 43.9188 3.10694 -4.3517 0
M  V30 438 H 44.2618 3.21662 -2.64271 0
M  V30 439 H 44.7948 1.78395 -3.55556 0
M  V30 440 H 41.5338 1.07043 -6.46701 0
M  V30 441 H 41.0538 2.46235 -5.46926 0
M  V30 442 H 42.7328 2.30967 -6.0437 0
M  V30 443 N 42.8649 1.48995 0.513639 0
M  V30 444 C 43.8129 1.65199 1.63744 0
M  V30 445 C 44.8069 0.51809 1.61283 0
M  V30 446 O 46.0129 0.697335 1.65943 0
M  V30 447 H 42.3879 0.52069 0.542574 0
M  V30 448 H 44.3589 2.59552 1.47226 0
M  V30 449 C 43.1079 1.72409 3.01945 0
M  V30 450 H 42.4309 2.59029 3.04539 0
M  V30 451 H 43.8709 1.87785 3.80148 0
M  V30 452 C 42.3299 0.46618 3.33659 0
M  V30 453 O 42.8599 -0.413744 3.99564 0
M  V30 454 N 41.0659 0.332931 2.88687 0
M  V30 455 H 40.6129 1.04996 2.35231 0
M  V30 456 H 40.5709 -0.507665 3.10274 0
M  V30 457 N 44.343 -0.763751 1.37857 0
M  V30 458 C 45.273 -1.89103 1.36975 0
M  V30 459 C 46.254 -1.68439 0.237152 0
M  V30 460 O 47.439 -1.8918 0.438713 0
M  V30 461 C 44.569 -3.26496 1.18395 0
M  V30 462 C 43.523 -3.61741 2.28751 0
M  V30 463 C 42.849 -4.97762 1.95286 0
M  V30 464 C 44.149 -3.67665 3.70972 0
M  V30 465 H 45.843 -1.90099 2.31307 0
M  V30 466 H 43.389 -0.91319 1.11341 0
M  V30 467 H 45.342 -4.05003 1.16406 0
M  V30 468 H 44.066 -3.25955 0.205215 0
M  V30 469 H 42.725 -2.85547 2.29909 0
M  V30 470 H 42.373 -4.93769 0.959221 0
M  V30 471 H 42.073 -5.22313 2.69189 0
M  V30 472 H 43.597 -5.7866 1.94898 0
M  V30 473 H 45.011 -4.36307 3.719 0
M  V30 474 H 43.408 -4.03718 4.43995 0
M  V30 475 H 44.478 -2.68134 4.0402 0
M  V30 476 N 45.8211 -1.22559 -0.990812 0
M  V30 477 C 47.0691 -1.04933 -1.72724 0
M  V30 478 C 47.3901 0.416158 -1.90508 0
M  V30 479 O 46.6601 1.29918 -1.46622 0
M  V30 480 H 45.2401 -0.385296 -0.639965 0
M  V30 481 H 47.9021 -1.54105 -1.19322 0
M  V30 482 H 46.9981 -1.52886 -2.72089 0
M  V30 483 N 47.2992 1.18797 -1.03562 0
M  V30 484 C 48.5482 1.87978 -0.731235 0
M  V30 485 C 48.8612 1.80911 0.743671 0
M  V30 486 O 50.0672 2.45407 1.16137 0
M  V30 487 C 48.5232 3.3721 -1.25768 0
M  V30 488 C 48.1312 3.52818 -2.76085 0
M  V30 489 C 49.8752 4.11825 -1.0296 0
M  V30 490 C 47.7822 4.9598 -3.22114 0
M  V30 491 H 46.7122 0.704063 -0.269835 0
M  V30 492 H 49.3632 1.34266 -1.25079 0
M  V30 493 H 47.7452 3.90359 -0.666011 0
M  V30 494 H 48.9192 3.09965 -3.40966 0
M  V30 495 H 47.2342 2.91602 -2.97249 0
M  V30 496 H 49.8312 5.17411 -1.34869 0
M  V30 497 H 50.1742 4.16287 0.0333546 0
M  V30 498 H 50.7072 3.64833 -1.58562 0
M  V30 499 H 47.4462 4.96684 -4.27768 0
M  V30 500 H 46.9662 5.39569 -2.61965 0
M  V30 501 H 48.6452 5.6467 -3.15844 0
M  V30 502 N 48.7773 0.814389 1.34928 0
M  V30 503 C 50.0253 0.397636 1.9815 0
M  V30 504 C 50.3463 -1.04069 1.64908 0
M  V30 505 O 49.6163 -1.72121 0.93548 0
M  V30 506 H 48.1963 0.144043 0.732981 0
M  V30 507 H 50.8583 1.04195 1.6471 0
M  V30 508 H 49.9543 0.509688 3.0791 0
M  V30 509 N 50.2554 -1.46986 0.568584 0
M  V30 510 C 51.5014 -2.02741 0.0488709 0
M  V30 511 C 51.8344 -1.44077 -1.30214 0
M  V30 512 O 51.1094 -0.600552 -1.84996 0
M  V30 513 C 51.3924 -3.60086 -0.032047 0
M  V30 514 C 51.2454 -4.29162 1.34686 0
M  V30 515 C 52.5644 -4.33838 -0.739798 0
M  V30 516 H 49.6834 -0.736749 0.0192338 0
M  V30 517 H 52.3254 -1.75289 0.733065 0
M  V30 518 H 50.4754 -3.83606 -0.61473 0
M  V30 519 H 52.1474 -4.16948 1.97362 0
M  V30 520 H 50.3904 -3.89073 1.91846 0
M  V30 521 H 51.0614 -5.37826 1.24285 0
M  V30 522 H 53.5374 -4.15378 -0.244939 0
M  V30 523 H 52.4134 -5.43537 -0.765406 0
M  V30 524 H 52.6744 -4.03875 -1.79827 0
M  V30 525 N 51.7335 -0.305618 -1.54608 0
M  V30 526 C 52.9635 0.304333 -2.04346 0
M  V30 527 C 53.3715 1.47715 -1.18224 0
M  V30 528 O 52.7145 1.82591 -0.201577 0
M  V30 529 C 52.7765 0.819031 -3.50046 0
M  V30 530 C 52.4405 -0.22912 -4.56425 0
M  V30 531 C 53.4375 -1.05914 -5.08997 0
M  V30 532 C 51.1225 -0.372148 -5.0092 0
M  V30 533 C 53.1165 -2.01809 -6.04609 0
M  V30 534 C 50.8035 -1.33454 -5.9635 0
M  V30 535 C 51.8015 -2.15599 -6.48079 0
M  V30 536 O 51.4895 -3.10205 -7.41639 0
M  V30 537 H 51.2215 0.0693996 -0.672428 0
M  V30 538 H 53.7755 -0.444548 -2.00532 0
M  V30 539 H 52.0055 1.61852 -3.51199 0
M  V30 540 H 53.6945 1.34537 -3.82955 0
M  V30 541 H 54.4605 -0.959538 -4.75413 0
M  V30 542 H 50.3395 0.257304 -4.60281 0
M  V30 543 H 53.8835 -2.65966 -6.44909 0
M  V30 544 H 49.7805 -1.43485 -6.29351 0
M  V30 545 H 50.5485 -3.05237 -7.59455 0
M  V30 546 N 53.2116 1.57565 -0.0334293 0
M  V30 547 C 54.1586 2.10478 0.946981 0
M  V30 548 C 55.1286 1.00787 1.32027 0
M  V30 549 O 56.3136 1.28232 1.41284 0
M  V30 550 C 53.4536 2.63994 2.22263 0
M  V30 551 C 52.5666 3.87709 1.90541 0
M  V30 552 C 51.7016 4.29604 3.12433 0
M  V30 553 C 50.7406 5.46065 2.76549 0
M  V30 554 N 49.8776 5.83096 3.9108 0
M  V30 555 H 54.7176 2.93963 0.488846 0
M  V30 556 H 52.2546 1.45296 0.22969 0
M  V30 557 H 54.2126 2.93114 2.96884 0
M  V30 558 H 52.8426 1.83333 2.65685 0
M  V30 559 H 51.8946 3.65291 1.06144 0
M  V30 560 H 53.2066 4.72403 1.60116 0
M  V30 561 H 52.3606 4.60182 3.9537 0
M  V30 562 H 51.0996 3.43685 3.46023 0
M  V30 563 H 50.1046 5.15176 1.92026 0
M  V30 564 H 51.3296 6.33685 2.44171 0
M  V30 565 H 49.2756 5.00132 4.24504 0
M  V30 566 H 49.1926 6.6244 3.64293 0
M  V30 567 H 50.4606 6.18282 4.74708 0
M  V30 568 N 54.6897 -0.239769 1.55765 0
M  V30 569 C 55.9667 -0.990056 1.68693 0
M  V30 570 C 56.3467 -2.03107 0.5754 0
M  V30 571 O 55.6947 -2.24604 -0.42017 0
M  V30 572 C 55.9047 -1.61696 3.09282 0
M  V30 573 C 57.2527 -2.11613 3.6811 0
M  V30 574 O 58.2767 -1.71624 3.12127 0
M  V30 575 O 57.1357 -2.85057 4.66267 0
M  V30 576 H 54.2297 -0.461299 0.686391 0
M  V30 577 H 56.7757 -0.232991 1.68093 0
M  V30 578 H 55.5477 -0.864357 3.81634 0
M  V30 579 H 55.1707 -2.44005 3.13923 0
M  V30 580 N 56.1678 -1.49265 -0.50573 0
M  V30 581 C 57.0778 -1.68312 -1.63427 0
M  V30 582 C 58.0938 -0.565682 -1.64548 0
M  V30 583 O 59.2698 -0.839801 -1.83055 0
M  V30 584 C 56.3348 -1.74107 -2.99813 0
M  V30 585 C 55.3958 -2.97653 -3.09356 0
M  V30 586 C 54.6288 -3.03163 -4.39236 0
M  V30 587 O 54.8518 -2.16396 -5.27758 0
M  V30 588 O 53.7858 -3.9558 -4.53652 0
M  V30 589 H 57.6118 -2.63907 -1.50289 0
M  V30 590 H 55.1968 -1.32951 -0.681502 0
M  V30 591 H 57.0788 -1.803 -3.80881 0
M  V30 592 H 55.7538 -0.816901 -3.13223 0
M  V30 593 H 54.6608 -2.96981 -2.27493 0
M  V30 594 H 55.9938 -3.89535 -3.00871 0
M  V30 595 N 57.6459 0.756429 -1.3826 0
M  V30 596 C 58.8739 1.54565 -1.3754 0
M  V30 597 C 59.2889 1.88767 0.0355331 0
M  V30 598 O 58.6459 1.52572 1.0014 0
M  V30 599 C 58.6969 2.84654 -2.22833 0
M  V30 600 O 58.4179 2.51912 -3.5843 0
M  V30 601 C 59.9189 3.78807 -2.30261 0
M  V30 602 H 57.1389 0.478353 -0.470553 0
M  V30 603 H 59.6829 0.936381 -1.81803 0
M  V30 604 H 57.8379 3.41965 -1.8204 0
M  V30 605 H 58.2519 3.35325 -4.03308 0
M  V30 606 H 59.7259 4.67045 -2.94233 0
M  V30 607 H 60.2029 4.19038 -1.31545 0
M  V30 608 H 60.8089 3.2742 -2.71433 0
M  V30 609 N 59.124 1.23083 0.984299 0
M  V30 610 C 60.372 1.05848 1.72165 0
M  V30 611 C 60.693 -0.406049 1.90726 0
M  V30 612 O 59.963 -1.29139 1.47309 0
M  V30 613 H 58.543 0.388685 0.637913 0
M  V30 614 H 61.205 1.54736 1.18503 0
M  V30 615 H 60.301 1.54327 2.71274 0
M  V30 616 N 60.6021 -1.18246 1.0419 0
M  V30 617 C 61.5491 -2.2192 0.634037 0
M  V30 618 C 62.5191 -1.62179 -0.358765 0
M  V30 619 O 63.7041 -1.89122 -0.252466 0
M  V30 620 C 60.8441 -3.451 0.00445535 0
M  V30 621 C 59.9571 -4.19174 1.04487 0
M  V30 622 C 59.0921 -5.29813 0.383676 0
M  V30 623 C 58.1311 -5.9566 1.4091 0
M  V30 624 N 57.2681 -6.97834 0.772784 0
M  V30 625 H 62.1081 -2.56164 1.52263 0
M  V30 626 H 59.6451 -1.25843 0.761701 0
M  V30 627 H 61.6031 -4.15485 -0.377919 0
M  V30 628 H 60.2331 -3.11472 -0.847652 0
M  V30 629 H 59.2851 -3.47604 1.54518 0
M  V30 630 H 60.5971 -4.64267 1.82368 0
M  V30 631 H 59.7511 -6.06677 -0.0528366 0
M  V30 632 H 58.4901 -4.85825 -0.427208 0
M  V30 633 H 57.4951 -5.17535 1.85574 0
M  V30 634 H 58.7201 -6.4173 2.22171 0
M  V30 635 H 56.6661 -6.55998 -0.0177708 0
M  V30 636 H 56.5831 -7.41186 1.48928 0
M  V30 637 H 57.8511 -7.78665 0.36071 0
M  V30 638 N 62.0802 -0.821533 -1.34494 0
M  V30 639 C 63.3082 -0.421884 -2.02553 0
M  V30 640 C 63.7232 0.971745 -1.61872 0
M  V30 641 O 63.0802 1.62864 -0.823496 0
M  V30 642 C 63.1312 -0.51285 -3.57844 0
M  V30 643 O 62.8522 -1.85155 -3.97051 0
M  V30 644 C 64.3532 -0.107921 -4.43169 0
M  V30 645 H 61.5732 -0.169482 -0.649243 0
M  V30 646 H 64.1172 -1.1093 -1.71798 0
M  V30 647 H 62.2722 0.126474 -3.87193 0
M  V30 648 H 62.6862 -1.82482 -4.91732 0
M  V30 649 H 64.1602 -0.222657 -5.51551 0
M  V30 650 H 64.6372 0.948401 -4.28838 0
M  V30 651 H 65.2432 -0.720989 -4.19144 0
M  V30 652 N 63.5583 1.46682 -0.576371 0
M  V30 653 C 64.9693 1.86112 -0.148091 0
M  V30 654 C 65.3203 1.48073 1.2872 0
M  V30 655 O 64.4453 0.892656 1.97131 0
M  V30 656 C 65.0403 3.37786 -0.261982 0
M  V30 657 C 63.5993 3.76235 0.111384 0
M  V30 658 C 62.7463 2.70713 -0.60083 0
M  V30 659 H 65.6973 1.37927 -0.78497 0
M  V30 660 H 65.7183 3.77007 0.514364 0
M  V30 661 H 65.2303 3.6544 -1.30671 0
M  V30 662 H 63.3313 3.54198 1.15649 0
M  V30 663 H 63.4443 4.78391 -0.26052 0
M  V30 664 H 61.8083 2.54666 -0.0417783 0
M  V30 665 H 62.5913 3.01208 -1.64708 0
M  V30 666 N 65.0364 0.313813 1.54444 0
M  V30 667 C 66.2824 -0.292108 2.00685 0
M  V30 668 C 66.6154 -1.52548 1.20177 0
M  V30 669 O 65.8904 -1.92452 0.281531 0
M  V30 670 C 66.1734 -0.635968 3.5444 0
M  V30 671 C 66.0264 0.607437 4.4568 0
M  V30 672 C 67.3454 -1.45747 4.15266 0
M  V30 673 H 64.4644 -0.104697 0.729526 0
M  V30 674 H 67.1064 0.428457 1.85106 0
M  V30 675 H 65.2564 -1.24986 3.67846 0
M  V30 676 H 66.9284 1.24581 4.44159 0
M  V30 677 H 65.1714 1.23822 4.15753 0
M  V30 678 H 65.8424 0.322515 5.51057 0
M  V30 679 H 68.3184 -0.938645 4.05375 0
M  V30 680 H 67.1944 -1.66683 5.2298 0
M  V30 681 H 67.4554 -2.45063 3.67963 0
M  V30 682 N 66.5145 -1.57545 0.0417849 0
M  V30 683 C 67.4445 -2.14009 -0.933929 0
M  V30 684 C 68.4255 -1.05938 -1.33083 0
M  V30 685 O 69.6105 -1.33833 -1.40721 0
M  V30 686 C 66.7405 -2.67747 -2.21199 0
M  V30 687 C 65.6945 -3.80718 -1.95544 0
M  V30 688 C 65.0205 -4.20935 -3.29724 0
M  V30 689 C 66.3205 -5.06258 -1.28452 0
M  V30 690 H 68.0145 -2.95788 -0.463645 0
M  V30 691 H 65.5605 -1.42285 -0.221573 0
M  V30 692 H 67.5135 -3.05886 -2.89848 0
M  V30 693 H 66.2375 -1.83147 -2.70416 0
M  V30 694 H 64.8965 -3.43037 -1.2931 0
M  V30 695 H 64.5445 -3.33298 -3.76724 0
M  V30 696 H 64.2445 -4.9707 -3.13361 0
M  V30 697 H 65.7685 -4.61666 -3.9962 0
M  V30 698 H 67.1825 -5.41903 -1.8712 0
M  V30 699 H 65.5795 -5.87475 -1.22445 0
M  V30 700 H 66.6495 -4.84207 -0.259219 0
M  V30 701 N 67.9926 0.231505 -1.5589 0
M  V30 702 C 69.2206 0.974505 -1.82513 0
M  V30 703 C 69.6356 1.78344 -0.619591 0
M  V30 704 O 68.9926 1.77792 0.411848 0
M  V30 705 C 69.0436 1.90007 -3.07538 0
M  V30 706 O 68.7646 1.12385 -4.2344 0
M  V30 707 C 70.2656 2.75779 -3.47075 0
M  V30 708 H 67.4856 0.286065 -0.606966 0
M  V30 709 H 70.0296 0.249739 -2.02969 0
M  V30 710 H 68.1846 2.57891 -2.89086 0
M  V30 711 H 68.5986 1.75125 -4.944 0
M  V30 712 H 70.0726 3.36443 -4.37619 0
M  V30 713 H 70.5496 3.47672 -2.68367 0
M  V30 714 H 71.1556 2.13323 -3.67931 0
M  V30 715 N 69.4707 1.49531 0.497807 0
M  V30 716 C 70.6957 1.63159 1.28039 0
M  V30 717 C 71.1207 0.30418 1.85624 0
M  V30 718 O 70.4787 -0.728618 1.66015 0
M  V30 719 C 70.5267 2.70537 2.38416 0
M  V30 720 O 69.6307 2.29931 3.42353 0
M  V30 721 H 68.9717 0.546001 0.377861 0
M  V30 722 H 71.5017 1.9574 0.59558 0
M  V30 723 H 71.5117 2.92802 2.84132 0
M  V30 724 H 70.1867 3.6689 1.95869 0
M  V30 725 H 68.7637 2.18009 3.02533 0
M  V30 726 N 70.9488 -0.749086 1.3866 0
M  V30 727 C 72.1948 -1.51056 1.35314 0
M  V30 728 C 72.5278 -1.94121 -0.0553751 0
M  V30 729 O 71.8028 -1.65763 -1.01749 0
M  V30 730 C 72.0858 -2.76003 2.31288 0
M  V30 731 C 71.9388 -2.39047 3.8102 0
M  V30 732 C 73.2578 -3.78046 2.2532 0
M  V30 733 H 70.3768 -0.547972 0.492844 0
M  V30 734 H 73.0188 -0.857628 1.69543 0
M  V30 735 H 71.1688 -3.31716 2.02229 0
M  V30 736 H 72.8408 -1.89074 4.20771 0
M  V30 737 H 71.0838 -1.71449 3.98482 0
M  V30 738 H 71.7548 -3.28462 4.4364 0
M  V30 739 H 74.2308 -3.31884 2.50983 0
M  V30 740 H 73.1068 -4.63159 2.94576 0
M  V30 741 H 73.3678 -4.23957 1.25352 0
M  V30 742 N 72.4269 -1.23603 -0.977757 0
M  V30 743 C 73.3739 -1.01954 -2.07061 0
M  V30 744 C 74.3439 0.0638697 -1.65977 0
M  V30 745 O 75.5289 -0.0887624 -1.90593 0
M  V30 746 C 72.6689 -0.619658 -3.39491 0
M  V30 747 C 71.7819 -1.77547 -3.93829 0
M  V30 748 C 70.9169 -1.32212 -5.14484 0
M  V30 749 C 69.9559 -2.44852 -5.60994 0
M  V30 750 N 69.0929 -2.00456 -6.72876 0
M  V30 751 H 73.9329 -1.95495 -2.24913 0
M  V30 752 H 71.4699 -0.973861 -1.10247 0
M  V30 753 H 73.4279 -0.368898 -4.15566 0
M  V30 754 H 72.0579 0.278752 -3.21594 0
M  V30 755 H 71.1099 -2.14016 -3.14486 0
M  V30 756 H 72.4219 -2.62219 -4.24314 0
M  V30 757 H 71.5759 -1.02965 -5.97899 0
M  V30 758 H 70.3149 -0.445808 -4.85658 0
M  V30 759 H 69.3199 -2.74871 -4.76157 0
M  V30 760 H 70.5449 -3.33024 -5.91837 0
M  V30 761 H 68.4909 -1.15208 -6.45804 0
M  V30 762 H 68.4079 -2.78687 -7.02759 0
M  V30 763 H 69.6759 -1.7432 -7.59758 0
M  V30 764 N 73.905 1.17692 -1.04816 0
M  V30 765 C 74.852 2.21581 -0.645797 0
M  V30 766 C 75.822 1.62367 0.350159 0
M  V30 767 O 77.007 1.89254 0.242433 0
M  V30 768 C 74.147 3.45092 -0.0227568 0
M  V30 769 C 73.26 4.18613 -1.06709 0
M  V30 770 C 72.395 5.29602 -0.411767 0
M  V30 771 C 71.434 5.94904 -1.44067 0
M  V30 772 N 70.571 6.97414 -0.809781 0
M  V30 773 H 75.411 2.55353 -1.5362 0
M  V30 774 H 72.948 1.25438 -0.768364 0
M  V30 775 H 74.906 4.15679 0.35588 0
M  V30 776 H 73.536 3.11917 0.831122 0
M  V30 777 H 72.588 3.46779 -1.5636 0
M  V30 778 H 73.9 4.63293 -1.84827 0
M  V30 779 H 73.054 6.06696 0.0206623 0
M  V30 780 H 71.793 4.86045 0.401438 0
M  V30 781 H 70.798 5.16544 -1.88316 0
M  V30 782 H 72.023 6.40542 -2.25571 0
M  V30 783 H 69.969 6.55998 -0.0170186 0
M  V30 784 H 69.886 7.40386 -1.52856 0
M  V30 785 H 71.154 7.78463 -0.401999 0
M  V30 786 N 75.3831 0.828654 1.34056 0
M  V30 787 C 76.3461 0.259927 2.27721 0
M  V30 788 C 77.3461 -0.565478 1.50529 0
M  V30 789 O 78.5361 -0.38075 1.69988 0
M  V30 790 C 75.6681 -0.634944 3.34935 0
M  V30 791 H 76.8611 1.0863 2.79534 0
M  V30 792 H 74.4141 0.600951 1.44285 0
M  V30 793 H 75.1491 -1.48416 2.88346 0
M  V30 794 H 74.9341 -0.0444999 3.92075 0
M  V30 795 H 76.4241 -1.02648 4.04788 0
M  V30 796 N 76.8612 -1.46375 0.584142 0
M  V30 797 C 77.7712 -2.34115 -0.150728 0
M  V30 798 C 78.7872 -1.49838 -0.884567 0
M  V30 799 O 79.9632 -1.82704 -0.847429 0
M  V30 800 C 77.0282 -3.2705 -1.15062 0
M  V30 801 C 76.0892 -4.27228 -0.421293 0
M  V30 802 C 75.3222 -5.15722 -1.37355 0
M  V30 803 O 75.5452 -5.07176 -2.61014 0
M  V30 804 O 74.4792 -5.95383 -0.883355 0
M  V30 805 H 78.3052 -2.98309 0.569708 0
M  V30 806 H 75.8902 -1.45373 0.344535 0
M  V30 807 H 77.7722 -3.84381 -1.72712 0
M  V30 808 H 76.4472 -2.65451 -1.8525 0
M  V30 809 H 75.3542 -3.7358 0.197085 0
M  V30 810 H 76.6872 -4.91616 0.239641 0
M  V30 811 N 78.3393 -0.321999 -1.54275 0
M  V30 812 C 79.2713 0.578671 -2.21775 0
M  V30 813 C 80.2843 1.08109 -1.21722 0
M  V30 814 O 81.4733 0.994938 -1.482 0
M  V30 815 C 78.5733 1.80661 -2.86731 0
M  V30 816 C 77.7463 1.44314 -4.12907 0
M  V30 817 C 76.8053 2.52845 -4.61472 0
M  V30 818 O 75.8313 2.17054 -5.2619 0
M  V30 819 N 77.0333 3.83748 -4.35566 0
M  V30 820 H 79.7983 0.000709447 -2.997 0
M  V30 821 H 77.3593 -0.145132 -1.61248 0
M  V30 822 H 79.3513 2.52655 -3.16145 0
M  V30 823 H 77.9213 2.29245 -2.12521 0
M  V30 824 H 77.1413 0.554906 -3.90275 0
M  V30 825 H 78.4293 1.17598 -4.95023 0
M  V30 826 H 77.8273 4.15625 -3.83761 0
M  V30 827 H 76.3843 4.51977 -4.69638 0
M  V30 828 N 79.8174 1.5752 -0.0501392 0
M  V30 829 C 81.0474 1.96678 0.632573 0
M  V30 830 C 81.4554 0.926298 1.64974 0
M  V30 831 O 80.7984 -0.09802 1.83438 0
M  V30 832 C 80.8604 3.32068 1.37735 0
M  V30 833 C 80.5244 4.54076 0.516131 0
M  V30 834 C 81.5214 5.19445 -0.217357 0
M  V30 835 C 79.2064 5.00304 0.44736 0
M  V30 836 C 81.2004 6.29378 -1.00807 0
M  V30 837 C 78.8874 6.10114 -0.347038 0
M  V30 838 C 79.8854 6.74512 -1.07344 0
M  V30 839 O 79.5734 7.82211 -1.85477 0
M  V30 840 H 79.3054 0.652193 0.177821 0
M  V30 841 H 81.8594 2.05091 -0.112543 0
M  V30 842 H 80.0894 3.20206 2.16807 0
M  V30 843 H 81.7784 3.55981 1.95019 0
M  V30 844 H 82.5444 4.84689 -0.173688 0
M  V30 845 H 78.4234 4.49971 1.00235 0
M  V30 846 H 81.9674 6.79575 -1.57556 0
M  V30 847 H 77.8644 6.44307 -0.392349 0
M  V30 848 H 78.6324 7.98982 -1.77678 0
M  V30 849 N 81.2955 -0.223234 1.56011 0
M  V30 850 C 82.2255 -1.27988 1.95298 0
M  V30 851 C 83.2065 -1.48976 0.820979 0
M  V30 852 O 84.3915 -1.61188 1.08315 0
M  V30 853 C 81.5215 -2.63 2.26822 0
M  V30 854 C 80.4755 -2.56671 3.42497 0
M  V30 855 C 79.8015 -3.95697 3.59622 0
M  V30 856 C 81.1015 -2.11601 4.77517 0
M  V30 857 H 82.7955 -0.953525 2.8381 0
M  V30 858 H 80.3415 -0.457244 1.36548 0
M  V30 859 H 82.2945 -3.37077 2.52898 0
M  V30 860 H 81.0185 -2.9732 1.35161 0
M  V30 861 H 79.6775 -1.85051 3.16467 0
M  V30 862 H 79.3255 -4.27322 2.6534 0
M  V30 863 H 79.0255 -3.92345 4.37424 0
M  V30 864 H 80.5495 -4.71438 3.88044 0
M  V30 865 H 81.9635 -2.7542 5.02809 0
M  V30 866 H 80.3605 -2.19311 5.5859 0
M  V30 867 H 81.4305 -1.06824 4.72987 0
M  V30 868 N 82.7736 -1.49793 -0.48987 0
M  V30 869 C 83.7036 -1.70201 -1.59856 0
M  V30 870 C 84.6846 -0.55076 -1.60937 0
M  V30 871 O 85.8696 -0.787841 -1.77501 0
M  V30 872 C 82.9996 -1.77882 -2.98287 0
M  V30 873 C 81.9536 -2.92907 -3.12073 0
M  V30 874 C 81.2796 -2.85712 -4.51965 0
M  V30 875 C 82.5796 -4.3369 -2.91051 0
M  V30 876 H 84.2736 -2.63025 -1.43032 0
M  V30 877 H 81.8196 -1.26574 -0.686664 0
M  V30 878 H 83.7726 -1.90744 -3.75759 0
M  V30 879 H 82.4966 -0.816653 -3.16225 0
M  V30 880 H 81.1556 -2.79665 -2.37029 0
M  V30 881 H 80.8036 -1.8738 -4.66795 0
M  V30 882 H 80.5036 -3.62921 -4.62128 0
M  V30 883 H 82.0276 -3.00598 -5.31482 0
M  V30 884 H 83.4416 -4.47555 -3.58284 0
M  V30 885 H 81.8386 -5.12205 -3.12675 0
M  V30 886 H 82.9086 -4.47362 -1.87071 0
M  V30 887 N 84.2517 0.741722 -1.39055 0
M  V30 888 C 85.1617 1.88621 -1.39496 0
M  V30 889 C 86.1777 1.71557 -0.290578 0
M  V30 890 O 87.3537 1.94275 -0.530954 0
M  V30 891 C 84.4187 3.24134 -1.23037 0
M  V30 892 C 83.4797 3.5364 -2.43387 0
M  V30 893 C 82.7127 4.82687 -2.27703 0
M  V30 894 O 82.9357 5.55922 -1.27696 0
M  V30 895 O 81.8697 5.1194 -3.16545 0
M  V30 896 H 85.6957 1.91203 -2.35956 0
M  V30 897 H 83.2807 0.888625 -1.20099 0
M  V30 898 H 85.1627 4.0513 -1.15964 0
M  V30 899 H 83.8377 3.22337 -0.296691 0
M  V30 900 H 82.7447 2.72758 -2.56035 0
M  V30 901 H 84.0777 3.60209 -3.35425 0
M  V30 902 N 85.7298 1.2412 0.971189 0
M  V30 903 C 86.6778 1.02812 2.08644 0
M  V30 904 C 87.6718 -0.0358403 1.69362 0
M  V30 905 O 88.8778 0.118429 1.7961 0
M  V30 906 H 85.2528 0.315428 0.682649 0
M  V30 907 H 87.2238 1.97397 2.23779 0
M  V30 908 C 85.9728 0.645874 3.41649 0
M  V30 909 H 85.2958 1.45632 3.72332 0
M  V30 910 H 86.7358 0.536366 4.20594 0
M  V30 911 C 85.1948 -0.646713 3.30635 0
M  V30 912 O 85.7248 -1.69338 3.64263 0
M  V30 913 N 83.9308 -0.626115 2.83775 0
M  V30 914 H 83.4778 0.225988 2.56607 0
M  V30 915 H 83.4358 -1.49117 2.76788 0
M  V30 916 N 87.2079 -1.17134 1.05439 0
M  V30 917 C 88.1179 -2.24878 0.668365 0
M  V30 918 C 89.1339 -1.71186 -0.311687 0
M  V30 919 O 90.3099 -2.00738 -0.163161 0
M  V30 920 C 87.3749 -3.46662 0.051648 0
M  V30 921 C 86.4359 -4.15429 1.08246 0
M  V30 922 C 85.6689 -5.31399 0.495082 0
M  V30 923 O 85.8919 -5.66153 -0.694743 0
M  V30 924 O 84.8259 -5.89187 1.23056 0
M  V30 925 H 88.6519 -2.60189 1.56637 0
M  V30 926 H 86.2369 -1.24482 0.826104 0
M  V30 927 H 88.1189 -4.20394 -0.290966 0
M  V30 928 H 86.7939 -3.13142 -0.819971 0
M  V30 929 H 85.7009 -3.43704 1.47711 0
M  V30 930 H 87.0339 -4.52982 1.92532 0
M  V30 931 N 88.686 -0.835752 -1.33615 0
M  V30 932 C 89.914 -0.443344 -2.02094 0
M  V30 933 C 90.329 0.954522 -1.62894 0
M  V30 934 O 89.686 1.61982 -0.840723 0
M  V30 935 C 89.737 -0.550775 -3.5728 0
M  V30 936 O 89.458 -1.89356 -3.95065 0
M  V30 937 C 90.959 -0.154919 -4.43029 0
M  V30 938 H 88.179 -0.176359 -0.647409 0
M  V30 939 H 90.723 -1.12746 -1.70612 0
M  V30 940 H 88.878 0.0853997 -3.87306 0
M  V30 941 H 89.292 -1.87687 -4.89769 0
M  V30 942 H 90.766 -0.281144 -5.51284 0
M  V30 943 H 91.243 0.902863 -4.2982 0
M  V30 944 H 91.849 -0.765404 -4.18356 0
M  V30 945 N 90.1641 1.46063 -0.591896 0
M  V30 946 C 91.3921 2.06717 -0.0868936 0
M  V30 947 C 91.8071 1.43916 1.22203 0
M  V30 948 O 91.1641 0.547698 1.74088 0
M  V30 949 C 91.2151 3.6142 0.0758725 0
M  V30 950 O 90.9361 4.21874 -1.18126 0
M  V30 951 C 92.4371 4.39025 0.61416 0
M  V30 952 H 89.6571 0.668162 -0.0616518 0
M  V30 953 H 92.2011 1.8755 -0.815175 0
M  V30 954 H 90.3561 3.79983 0.754413 0
M  V30 955 H 90.7701 5.14861 -1.00092 0
M  V30 956 H 92.2441 5.4783 0.677193 0
M  V30 957 H 92.7211 4.07708 1.63312 0
M  V30 958 H 93.3271 4.2529 -0.0298142 0
M  V30 959 N 91.6422 0.330177 1.54103 0
M  V30 960 C 92.5892 -0.532762 2.24567 0
M  V30 961 C 93.5592 -1.10635 1.23892 0
M  V30 962 O 94.7442 -1.14546 1.5259 0
M  V30 963 C 91.8842 -1.6845 3.01195 0
M  V30 964 C 90.9972 -1.13951 4.167 0
M  V30 965 C 90.1322 -2.25746 4.80845 0
M  V30 966 C 89.1712 -1.6853 5.88442 0
M  V30 967 N 88.3082 -2.74014 6.46421 0
M  V30 968 H 93.1482 0.0746905 2.97906 0
M  V30 969 H 90.6852 0.048632 1.4702 0
M  V30 970 H 92.6432 -2.36234 3.43874 0
M  V30 971 H 91.2732 -2.26314 2.30178 0
M  V30 972 H 90.3252 -0.35301 3.78758 0
M  V30 973 H 91.6372 -0.680892 4.94131 0
M  V30 974 H 90.7912 -3.01422 5.26526 0
M  V30 975 H 89.5302 -2.74947 4.0281 0
M  V30 976 H 88.5352 -0.913543 5.42157 0
M  V30 977 H 89.7602 -1.20198 6.68378 0
M  V30 978 H 87.7062 -3.22494 5.71256 0
M  V30 979 H 87.6232 -2.32735 7.19285 0
M  V30 980 H 88.8912 -3.49499 6.96757 0
M  V30 981 N 93.1203 -1.57491 0.0584922 0
M  V30 982 C 94.0683 -2.13148 -0.931168 0
M  V30 983 C 95.0623 -1.06507 -1.31729 0
M  V30 984 O 96.2683 -1.24906 -1.29609 0
M  V30 985 H 92.6433 -0.68137 -0.31818 0
M  V30 986 H 94.6143 -2.95187 -0.436707 0
M  V30 987 C 93.3633 -2.69732 -2.19408 0
M  V30 988 H 92.6863 -3.51454 -1.90578 0
M  V30 989 H 94.1263 -3.12287 -2.86798 0
M  V30 990 C 92.5853 -1.63855 -2.94369 0
M  V30 991 O 93.1153 -1.05565 -3.87581 0
M  V30 992 N 91.3213 -1.35202 -2.57233 0
M  V30 993 H 90.8683 -1.82791 -1.81508 0
M  V30 994 H 90.8263 -0.645922 -3.07693 0
M  V30 995 N 94.5984 0.214957 -1.56127 0
M  V30 996 C 95.8284 0.953707 -1.8327 0
M  V30 997 C 96.2364 1.78181 -0.636262 0
M  V30 998 O 95.5794 1.79191 0.404516 0
M  V30 999 C 95.6414 1.91516 -3.0424 0
M  V30 1000 C 95.3054 1.27094 -4.38972 0
M  V30 1001 C 96.3024 0.657575 -5.15725 0
M  V30 1002 C 93.9874 1.28073 -4.85698 0
M  V30 1003 C 95.9814 0.0625968 -6.37369 0
M  V30 1004 C 93.6684 0.681914 -6.07283 0
M  V30 1005 C 94.6664 0.0739046 -6.8296 0
M  V30 1006 O 94.3544 -0.515582 -8.02245 0
M  V30 1007 H 94.0864 0.284764 -0.613095 0
M  V30 1008 H 96.6404 0.233283 -2.04071 0
M  V30 1009 H 94.8704 2.67475 -2.79274 0
M  V30 1010 H 96.5594 2.52001 -3.18198 0
M  V30 1011 H 97.3254 0.642288 -4.80728 0
M  V30 1012 H 93.2044 1.74337 -4.26764 0
M  V30 1013 H 96.7484 -0.412593 -6.96379 0
M  V30 1014 H 92.6454 0.694636 -6.41752 0
M  V30 1015 H 93.4134 -0.410544 -8.1747 0
M  V30 1016 N 96.0765 1.50051 0.48192 0
M  V30 1017 C 97.0065 1.71046 1.58951 0
M  V30 1018 C 97.9875 0.559288 1.60642 0
M  V30 1019 O 99.1725 0.797243 1.77081 0
M  V30 1020 C 96.3025 1.79462 2.97339 0
M  V30 1021 C 95.2565 2.94558 3.10515 0
M  V30 1022 C 94.5825 2.88105 4.50444 0
M  V30 1023 C 95.8825 4.35227 2.88747 0
M  V30 1024 H 97.5765 2.6378 1.41635 0
M  V30 1025 H 95.1225 1.26936 0.679942 0
M  V30 1026 H 97.0755 1.92734 3.74742 0
M  V30 1027 H 95.7995 0.833412 3.15788 0
M  V30 1028 H 94.4585 2.80918 2.35543 0
M  V30 1029 H 94.1065 1.89853 4.65795 0
M  V30 1030 H 93.8065 3.65366 4.60197 0
M  V30 1031 H 95.3305 3.03412 5.29881 0
M  V30 1032 H 96.7445 4.49449 3.55905 0
M  V30 1033 H 95.1415 5.13856 3.09955 0
M  V30 1034 H 96.2115 4.48347 1.84696 0
M  V30 1035 N 97.5546 -0.734337 1.39446 0
M  V30 1036 C 98.8026 -1.49096 1.36436 0
M  V30 1037 C 99.1236 -1.94961 -0.0388255 0
M  V30 1038 O 98.3936 -1.69033 -0.990191 0
M  V30 1039 H 96.9736 -0.5531 0.502085 0
M  V30 1040 H 99.6356 -0.871725 1.74319 0
M  V30 1041 H 98.7316 -2.37276 2.02747 0
M  V30 1042 N 99.0327 -1.24633 -0.964593 0
M  V30 1043 C 100.282 -1.08188 -1.7023 0
M  V30 1044 C 100.595 0.37873 -1.91898 0
M  V30 1045 O 101.801 0.663427 -2.6327 0
M  V30 1046 C 100.257 -1.88773 -3.06419 0
M  V30 1047 C 99.8647 -3.39263 -2.92582 0
M  V30 1048 C 101.609 -1.80867 -3.84041 0
M  V30 1049 C 99.5157 -4.1218 -4.24101 0
M  V30 1050 H 98.4457 -0.401245 -0.638372 0
M  V30 1051 H 101.097 -1.48742 -1.07462 0
M  V30 1052 H 99.4787 -1.41035 -3.70034 0
M  V30 1053 H 100.653 -3.94603 -2.37961 0
M  V30 1054 H 98.9677 -3.48154 -2.28424 0
M  V30 1055 H 101.565 -2.32646 -4.81435 0
M  V30 1056 H 101.908 -0.774543 -4.09031 0
M  V30 1057 H 102.441 -2.26301 -3.27159 0
M  V30 1058 H 99.1797 -5.15965 -4.04303 0
M  V30 1059 H 98.6997 -3.61626 -4.78526 0
M  V30 1060 H 100.379 -4.19349 -4.92702 0
M  V30 1061 N 100.511 1.16574 -1.06058 0
M  V30 1062 C 101.788 1.83048 -0.689416 0
M  V30 1063 C 102.168 1.94122 0.829443 0
M  V30 1064 O 101.516 1.48249 1.7388 0
M  V30 1065 C 101.726 3.20186 -1.38859 0
M  V30 1066 C 103.074 3.95989 -1.53226 0
M  V30 1067 O 104.098 3.29696 -1.3483 0
M  V30 1068 O 102.957 5.14813 -1.83384 0
M  V30 1069 H 100.051 0.790258 -0.243764 0
M  V30 1070 H 102.597 1.23797 -1.16071 0
M  V30 1071 H 101.369 3.07146 -2.4244 0
M  V30 1072 H 100.992 3.87112 -0.907216 0
M  V30 1073 N 101.989 0.842826 1.3317 0
M  V30 1074 C 103.237 0.439577 1.97262 0
M  V30 1075 C 103.558 -1.00548 1.67078 0
M  V30 1076 O 102.828 -1.70098 0.971779 0
M  V30 1077 H 101.408 0.159558 0.72976 0
M  V30 1078 H 104.07 1.07665 1.62463 0
M  V30 1079 H 103.166 0.574886 3.0676 0
M  V30 1080 N 103.467 -1.45747 0.599634 0
M  V30 1081 C 104.716 -2.01502 0.0893511 0
M  V30 1082 C 105.029 -1.4748 -1.28488 0
M  V30 1083 O 106.235 -1.95161 -1.88745 0
M  V30 1084 C 104.691 -3.59735 0.109082 0
M  V30 1085 C 104.299 -4.22754 1.48267 0
M  V30 1086 C 106.043 -4.23085 -0.346374 0
M  V30 1087 C 103.95 -5.73115 1.45921 0
M  V30 1088 H 102.88 -0.753417 0.0296347 0
M  V30 1089 H 105.531 -1.67303 0.753788 0
M  V30 1090 H 103.913 -3.91087 -0.621854 0
M  V30 1091 H 105.087 -4.02987 2.23468 0
M  V30 1092 H 103.402 -3.71567 1.87955 0
M  V30 1093 H 105.999 -5.33327 -0.38298 0
M  V30 1094 H 106.342 -3.93201 -1.36743 0
M  V30 1095 H 106.875 -3.9642 0.331038 0
M  V30 1096 H 103.614 -6.07685 2.45762 0
M  V30 1097 H 103.134 -5.95097 0.749665 0
M  V30 1098 H 104.813 -6.3616 1.17941 0
M  V30 1099 N 104.945 -0.338344 -1.53925 0
M  V30 1100 C 106.356 0.146651 -1.86123 0
M  V30 1101 C 106.707 1.5042 -1.2597 0
M  V30 1102 O 105.832 2.08723 -0.571294 0
M  V30 1103 C 106.427 0.272879 -3.37699 0
M  V30 1104 C 104.986 0.702103 -3.69794 0
M  V30 1105 C 104.133 -0.167304 -2.76795 0
M  V30 1106 H 107.084 -0.558123 -1.48562 0
M  V30 1107 H 107.105 1.10128 -3.64214 0
M  V30 1108 H 106.617 -0.715307 -3.81451 0
M  V30 1109 H 104.718 1.6995 -3.31584 0
M  V30 1110 H 104.831 0.495604 -4.7653 0
M  V30 1111 H 103.195 0.359527 -2.5215 0
M  V30 1112 H 103.978 -1.15253 -3.23375 0
M  V30 1113 N 106.423 1.57458 -0.0668435 0
M  V30 1114 C 107.333 2.15937 0.916975 0
M  V30 1115 C 108.349 1.12123 1.33058 0
M  V30 1116 O 109.525 1.44366 1.40429 0
M  V30 1117 C 106.59 2.70547 2.16807 0
M  V30 1118 C 105.651 3.89215 1.81135 0
M  V30 1119 C 104.884 4.41211 3.0028 0
M  V30 1120 O 105.107 3.92225 4.14144 0
M  V30 1121 O 104.041 5.32605 2.80384 0
M  V30 1122 H 107.867 3.00354 0.449561 0
M  V30 1123 H 105.452 1.48584 0.155949 0
M  V30 1124 H 107.334 3.0557 2.90181 0
M  V30 1125 H 106.009 1.89192 2.62656 0
M  V30 1126 H 104.916 3.59054 1.05028 0
M  V30 1127 H 106.249 4.71848 1.40073 0
M  V30 1128 N 107.901 -0.206675 1.56239 0
M  V30 1129 C 109.148 -0.928842 1.79941 0
M  V30 1130 C 109.476 -1.83734 0.638131 0
M  V30 1131 O 108.731 -1.92039 -0.376746 0
M  V30 1132 C 109.03 -1.78675 3.09532 0
M  V30 1133 C 108.696 -1.03022 4.38973 0
M  V30 1134 C 107.358 -0.821302 4.74139 0
M  V30 1135 C 109.71 -0.497081 5.18824 0
M  V30 1136 C 107.038 -0.0675719 5.86661 0
M  V30 1137 C 109.39 0.24338 6.32132 0
M  V30 1138 C 108.054 0.463422 6.65889 0
M  V30 1139 H 107.324 -0.339887 0.658451 0
M  V30 1140 H 109.971 -0.195977 1.90495 0
M  V30 1141 H 108.276 -2.58794 2.94165 0
M  V30 1142 H 109.973 -2.34792 3.25075 0
M  V30 1143 H 106.563 -1.20306 4.11369 0
M  V30 1144 H 110.747 -0.645921 4.92079 0
M  V30 1145 H 106.003 0.112995 6.11296 0
M  V30 1146 H 110.177 0.66393 6.93228 0
M  V30 1147 H 107.804 1.04938 7.52922 0
M  V30 1148 N 109.379 -1.50304 -0.473955 0
M  V30 1149 C 110.627 -1.60832 -1.22382 0
M  V30 1150 C 110.948 -0.30939 -1.9253 0
M  V30 1151 O 110.218 0.67296 -1.83978 0
M  V30 1152 H 108.798 -0.592652 -0.454723 0
M  V30 1153 H 111.46 -1.87068 -0.546968 0
M  V30 1154 H 110.556 -2.41803 -1.97327 0
M  V30 1155 N 110.857 0.726932 -1.39834 0
M  V30 1156 C 112.273 1.03354 -1.21615 0
M  V30 1157 C 112.473 2.01327 -0.08338 0
M  V30 1158 O 111.529 2.46158 0.56238 0
M  V30 1159 C 112.842 1.58811 -2.55342 0
M  V30 1160 C 114.39 1.70851 -2.62257 0
M  V30 1161 C 114.865 2.29716 -3.96225 0
M  V30 1162 N 116.356 2.37116 -3.97907 0
M  V30 1163 C 117.091 2.83619 -4.98345 0
M  V30 1164 N 116.587 3.29958 -6.09179 0
M  V30 1165 N 118.38 2.82901 -4.8572 0
M  V30 1166 H 110.531 0.0773069 -2.12259 0
M  V30 1167 H 112.794 0.0969102 -0.943034 0
M  V30 1168 H 112.5 0.942855 -3.38826 0
M  V30 1169 H 112.374 2.57502 -2.75632 0
M  V30 1170 H 114.761 2.34497 -1.79152 0
M  V30 1171 H 114.842 0.707913 -2.45809 0
M  V30 1172 H 114.486 1.66696 -4.79765 0
M  V30 1173 H 114.416 3.30469 -4.09997 0
M  V30 1174 H 116.907 2.04374 -3.17868 0
M  V30 1175 H 117.22 3.63976 -6.8172 0
M  V30 1176 H 115.565 3.27946 -6.12761 0
M  V30 1177 H 118.756 2.46027 -3.98231 0
M  V30 1178 H 118.929 3.18827 -5.6414 0
M  V30 1179 N 112.336 1.25143 0.95797 0
M  V30 1180 C 113.576 1.10893 1.71703 0
M  V30 1181 C 113.94 -0.34478 1.88879 0
M  V30 1182 O 115.141 -0.609014 2.6181 0
M  V30 1183 C 113.412 1.83889 3.06463 0
M  V30 1184 S 114.971 1.85491 3.97666 0
M  V30 1185 H 111.789 0.396428 0.590226 0
M  V30 1186 H 114.391 1.58618 1.14283 0
M  V30 1187 H 113.095 2.88756 2.9163 0
M  V30 1188 H 112.626 1.36538 3.68946 0
M  V30 1189 H 114.641 0.929553 4.87415 0
M  V30 1190 N 113.814 -1.1601 1.06675 0
M  V30 1191 C 115.042 -1.90527 0.806667 0
M  V30 1192 C 115.457 -1.77643 -0.639396 0
M  V30 1193 O 114.814 -1.12369 -1.43803 0
M  V30 1194 C 114.865 -3.41106 1.19705 0
M  V30 1195 O 114.586 -3.53608 2.58636 0
M  V30 1196 C 116.087 -4.32663 0.965266 0
M  V30 1197 H 113.307 -0.604053 0.292166 0
M  V30 1198 H 115.851 -1.47026 1.4214 0
M  V30 1199 H 114.006 -3.82296 0.626774 0
M  V30 1200 H 114.42 -4.47011 2.74375 0
M  V30 1201 H 115.894 -5.36763 1.288 0
M  V30 1202 H 116.371 -4.39089 -0.0987936 0
M  V30 1203 H 116.977 -3.97206 1.52011 0
M  V30 1204 N 115.292 -0.849877 -1.32721 0
M  V30 1205 C 116.224 -0.248332 -2.27851 0
M  V30 1206 C 117.237 0.577218 -1.52224 0
M  V30 1207 O 118.426 0.402489 -1.73903 0
M  V30 1208 C 115.526 0.668107 -3.32249 0
M  V30 1209 C 114.699 -0.120534 -4.37234 0
M  V30 1210 C 113.758 0.720932 -5.21238 0
M  V30 1211 O 112.784 0.156166 -5.68986 0
M  V30 1212 N 113.986 2.03647 -5.43607 0
M  V30 1213 H 116.751 -1.06575 -2.80111 0
M  V30 1214 H 114.312 -0.709395 -1.45531 0
M  V30 1215 H 116.304 1.23627 -3.85355 0
M  V30 1216 H 114.874 1.38621 -2.80184 0
M  V30 1217 H 114.094 -0.870108 -3.84477 0
M  V30 1218 H 115.382 -0.662406 -5.0447 0
M  V30 1219 H 114.78 2.51871 -5.06535 0
M  V30 1220 H 113.337 2.55287 -5.99727 0
M  V30 1221 N 116.77 1.45427 -0.607355 0
M  V30 1222 C 117.68 2.34325 0.113463 0
M  V30 1223 C 118.696 1.51226 0.860617 0
M  V30 1224 O 119.872 1.84029 0.818255 0
M  V30 1225 C 116.937 3.28839 1.09844 0
M  V30 1226 C 115.998 4.27844 0.353271 0
M  V30 1227 C 115.231 5.17842 1.29133 0
M  V30 1228 O 115.454 5.11264 2.52913 0
M  V30 1229 O 114.388 5.96713 0.788523 0
M  V30 1230 H 118.214 2.97364 -0.617094 0
M  V30 1231 H 115.799 1.44807 -0.367619 0
M  V30 1232 H 117.681 3.8708 1.66575 0
M  V30 1233 H 116.356 2.68365 1.81003 0
M  V30 1234 H 115.263 3.7322 -0.256494 0
M  V30 1235 H 116.596 4.91173 -0.317822 0
M  V30 1236 N 118.248 0.346503 1.53744 0
M  V30 1237 C 119.178 -0.501193 2.28058 0
M  V30 1238 C 120.159 -1.10014 1.29734 0
M  V30 1239 O 121.344 -1.12097 1.58581 0
M  V30 1240 C 118.474 -1.65078 3.05559 0
M  V30 1241 C 117.428 -1.18003 4.11411 0
M  V30 1242 C 116.754 -2.41837 4.76884 0
M  V30 1243 C 118.054 -0.278394 5.21558 0
M  V30 1244 H 119.748 0.11875 2.99164 0
M  V30 1245 H 117.294 0.0585531 1.43881 0
M  V30 1246 H 119.247 -2.25028 3.56287 0
M  V30 1247 H 117.971 -2.29767 2.32109 0
M  V30 1248 H 116.63 -0.603331 3.61601 0
M  V30 1249 H 116.278 -3.0494 4.00026 0
M  V30 1250 H 115.978 -2.1102 5.48402 0
M  V30 1251 H 117.502 -3.02508 5.30397 0
M  V30 1252 H 118.916 -0.784823 5.67903 0
M  V30 1253 H 117.313 -0.0619707 6.00068 0
M  V30 1254 H 118.383 0.684677 4.80042 0
M  V30 1255 N 119.726 -1.57421 0.075193 0
M  V30 1256 C 120.656 -2.15942 -0.888324 0
M  V30 1257 C 121.637 -1.08737 -1.30806 0
M  V30 1258 O 122.822 -1.36787 -1.37851 0
M  V30 1259 C 119.952 -2.72379 -2.1547 0
M  V30 1260 C 118.906 -3.8478 -1.87425 0
M  V30 1261 C 118.232 -4.27834 -3.20721 0
M  V30 1262 C 119.532 -5.08869 -1.17684 0
M  V30 1263 H 121.226 -2.96705 -0.400799 0
M  V30 1264 H 118.772 -1.42723 -0.191342 0
M  V30 1265 H 120.725 -3.11965 -2.83295 0
M  V30 1266 H 119.449 -1.88841 -2.6647 0
M  V30 1267 H 118.108 -3.45703 -1.22004 0
M  V30 1268 H 117.756 -3.41214 -3.6957 0
M  V30 1269 H 117.456 -5.03605 -3.02746 0
M  V30 1270 H 118.98 -4.70039 -3.89738 0
M  V30 1271 H 120.394 -5.4575 -1.75584 0
M  V30 1272 H 118.791 -5.8994 -1.09956 0
M  V30 1273 H 119.861 -4.84648 -0.156453 0
M  V30 1274 N 121.204 0.198386 -1.56346 0
M  V30 1275 C 122.451 0.919286 -1.80431 0
M  V30 1276 C 122.779 1.83393 -0.647866 0
M  V30 1277 O 122.034 1.92236 0.366556 0
M  V30 1278 C 122.333 1.77031 -3.10475 0
M  V30 1279 C 121.999 1.00693 -4.39513 0
M  V30 1280 C 120.661 0.796145 -4.74568 0
M  V30 1281 C 123.013 0.469559 -5.19081 0
M  V30 1282 C 120.341 0.0364588 -5.86689 0
M  V30 1283 C 122.693 -0.2769 -6.31994 0
M  V30 1284 C 121.357 -0.49873 -6.65634 0
M  V30 1285 H 120.627 0.336391 -0.660244 0
M  V30 1286 H 123.274 0.185872 -1.90596 0
M  V30 1287 H 121.579 2.5723 -2.95533 0
M  V30 1288 H 123.276 2.33065 -3.26315 0
M  V30 1289 H 119.866 1.18122 -4.12001 0
M  V30 1290 H 124.05 0.619816 -4.92414 0
M  V30 1291 H 119.306 -0.145412 -6.11227 0
M  V30 1292 H 123.48 -0.700684 -6.92866 0
M  V30 1293 H 121.107 -1.0893 -7.52355 0
M  V30 1294 N 122.682 1.50554 0.465978 0
M  V30 1295 C 123.93 1.61479 1.21528 0
M  V30 1296 C 124.251 0.319596 1.92363 0
M  V30 1297 O 123.521 -0.663194 1.84333 0
M  V30 1298 H 122.101 0.595055 0.451573 0
M  V30 1299 H 124.763 1.87355 0.53704 0
M  V30 1300 H 123.859 2.42846 1.96042 0
M  V30 1301 N 124.16 -0.719506 1.40217 0
M  V30 1302 C 125.107 -1.83359 1.40172 0
M  V30 1303 C 126.077 -1.64065 0.259206 0
M  V30 1304 O 127.262 -1.85254 0.456677 0
M  V30 1305 C 124.402 -3.2103 1.26624 0
M  V30 1306 C 123.515 -3.51923 2.50548 0
M  V30 1307 C 122.65 -4.79079 2.29471 0
M  V30 1308 C 121.689 -5.02863 3.48992 0
M  V30 1309 N 120.826 -6.2123 3.27135 0
M  V30 1310 H 125.666 -1.82733 2.35399 0
M  V30 1311 H 123.203 -0.892688 1.16917 0
M  V30 1312 H 125.161 -4.00524 1.16776 0
M  V30 1313 H 123.791 -3.20895 0.350176 0
M  V30 1314 H 122.843 -2.67014 2.70939 0
M  V30 1315 H 124.155 -3.6541 3.39525 0
M  V30 1316 H 123.309 -5.66582 2.16955 0
M  V30 1317 H 122.048 -4.67794 1.37913 0
M  V30 1318 H 121.053 -4.13816 3.6199 0
M  V30 1319 H 122.278 -5.16023 4.41472 0
M  V30 1320 H 120.224 -6.11204 2.38256 0
M  V30 1321 H 120.141 -6.35375 4.09675 0
M  V30 1322 H 121.409 -7.11532 3.18344 0
M  V30 1323 N 125.638 -1.25649 -0.95132 0
M  V30 1324 C 126.886 -1.10375 -1.69298 0
M  V30 1325 C 127.207 0.355339 -1.91735 0
M  V30 1326 O 126.477 1.25188 -1.50681 0
M  V30 1327 H 125.057 -0.405461 -0.627384 0
M  V30 1328 H 127.719 -1.57823 -1.14358 0
M  V30 1329 H 126.815 -1.61465 -2.67087 0
M  V30 1330 N 127.117 1.15442 -1.07289 0
M  V30 1331 C 128.342 1.90638 -0.816828 0
M  V30 1332 C 128.767 1.77445 0.624083 0
M  V30 1333 O 128.125 1.10671 1.43602 0
M  V30 1334 C 128.173 3.39008 -1.22906 0
M  V30 1335 O 127.277 4.10701 -0.373975 0
M  V30 1336 H 126.618 0.593555 -0.297638 0
M  V30 1337 H 129.148 1.46198 -1.43134 0
M  V30 1338 H 129.158 3.89801 -1.20497 0
M  V30 1339 H 127.833 3.47929 -2.27856 0
M  V30 1340 H 126.41 3.70046 -0.460499 0
M  V30 1341 N 128.595 0.856903 1.32268 0
M  V30 1342 C 129.558 0.308171 2.27119 0
M  V30 1343 C 130.558 -0.533421 1.51695 0
M  V30 1344 O 131.748 -0.344607 1.70757 0
M  V30 1345 C 128.88 -0.563757 3.36206 0
M  V30 1346 H 130.073 1.14535 2.77167 0
M  V30 1347 H 127.626 0.631421 1.42978 0
M  V30 1348 H 128.361 -1.42266 2.91429 0
M  V30 1349 H 128.146 0.0386749 3.92081 0
M  V30 1350 H 129.636 -0.940386 4.06874 0
M  V30 1351 N 130.073 -1.45103 0.615059 0
M  V30 1352 C 131.003 -2.33339 -0.0865619 0
M  V30 1353 C 131.984 -1.4727 -0.851209 0
M  V30 1354 O 133.169 -1.76026 -0.820281 0
M  V30 1355 C 130.299 -3.30095 -1.07956 0
M  V30 1356 C 129.253 -4.25858 -0.427628 0
M  V30 1357 C 128.579 -5.12361 -1.5294 0
M  V30 1358 C 129.879 -5.18165 0.655944 0
M  V30 1359 H 131.573 -2.92254 0.650224 0
M  V30 1360 H 129.119 -1.40532 0.314138 0
M  V30 1361 H 131.072 -3.90698 -1.57901 0
M  V30 1362 H 129.796 -2.69355 -1.84703 0
M  V30 1363 H 128.455 -3.66564 0.0510292 0
M  V30 1364 H 128.103 -4.47984 -2.28734 0
M  V30 1365 H 127.803 -5.77238 -1.09865 0
M  V30 1366 H 129.327 -5.75833 -2.03098 0
M  V30 1367 H 130.741 -5.72796 0.240257 0
M  V30 1368 H 129.138 -5.91559 1.00888 0
M  V30 1369 H 130.208 -4.60144 1.52957 0
M  V30 1370 N 131.551 -0.354651 -1.53558 0
M  V30 1371 C 132.8 0.239504 -2.00273 0
M  V30 1372 C 133.113 1.50759 -1.24623 0
M  V30 1373 O 134.319 2.17968 -1.61871 0
M  V30 1374 C 132.775 0.477341 -3.5672 0
M  V30 1375 C 132.383 -0.775488 -4.41237 0
M  V30 1376 C 134.127 1.02975 -4.11821 0
M  V30 1377 C 132.034 -0.507838 -5.89216 0
M  V30 1378 H 130.964 0.0932743 -0.748208 0
M  V30 1379 H 133.615 -0.471701 -1.77334 0
M  V30 1380 H 131.997 1.24953 -3.7577 0
M  V30 1381 H 133.171 -1.54963 -4.33962 0
M  V30 1382 H 131.486 -1.25033 -3.97185 0
M  V30 1383 H 134.083 1.24513 -5.2 0
M  V30 1384 H 134.426 1.98862 -3.65731 0
M  V30 1385 H 134.959 0.317994 -3.96527 0
M  V30 1386 H 131.698 -1.43674 -6.39561 0
M  V30 1387 H 131.218 0.228011 -5.99366 0
M  V30 1388 H 132.897 -0.129238 -6.46871 0
M  V30 1389 N 133.029 1.57378 -0.0835403 0
M  V30 1390 C 133.977 2.14602 0.89714 0
M  V30 1391 C 134.971 1.08589 1.30018 0
M  V30 1392 O 136.177 1.26952 1.27606 0
M  V30 1393 H 132.552 0.686346 0.3073 0
M  V30 1394 H 134.523 2.95845 0.38969 0
M  V30 1395 C 133.272 2.73188 2.15089 0
M  V30 1396 H 132.595 3.54442 1.84962 0
M  V30 1397 H 134.035 3.1681 2.81793 0
M  V30 1398 C 132.494 1.68517 2.91725 0
M  V30 1399 O 133.024 1.11718 3.85852 0
M  V30 1400 N 131.23 1.39277 2.55049 0
M  V30 1401 H 130.777 1.85655 1.78577 0
M  V30 1402 H 130.735 0.694791 3.06627 0
M  V30 1403 N 134.507 -0.190092 1.56449 0
M  V30 1404 C 135.784 -0.935886 1.71757 0
M  V30 1405 C 136.164 -2.01173 0.639726 0
M  V30 1406 O 135.512 -2.25827 -0.348502 0
M  V30 1407 C 135.722 -1.51775 3.1427 0
M  V30 1408 C 137.07 -1.99794 3.74656 0
M  V30 1409 O 138.094 -1.61607 3.1743 0
M  V30 1410 O 136.953 -2.70079 4.751 0
M  V30 1411 H 134.047 -0.439229 0.700719 0
M  V30 1412 H 136.593 -0.179395 1.68749 0
M  V30 1413 H 135.365 -0.742505 3.84191 0
M  V30 1414 H 134.988 -2.33894 3.21527 0
M  V30 1415 N 135.985 -1.50799 -0.457987 0
M  V30 1416 C 136.932 -1.70617 -1.5543 0
M  V30 1417 C 137.902 -0.547562 -1.56815 0
M  V30 1418 O 139.087 -0.779647 -1.74144 0
M  V30 1419 C 136.227 -1.81831 -2.93311 0
M  V30 1420 C 135.34 -3.09278 -3.01615 0
M  V30 1421 C 134.475 -3.11209 -4.30491 0
M  V30 1422 C 133.514 -4.33055 -4.32585 0
M  V30 1423 N 132.651 -4.32652 -5.52952 0
M  V30 1424 H 137.491 -2.64207 -1.37836 0
M  V30 1425 H 135.028 -1.30959 -0.669937 0
M  V30 1426 H 136.986 -1.86314 -3.73287 0
M  V30 1427 H 135.616 -0.916685 -3.0951 0
M  V30 1428 H 134.668 -3.14203 -2.1443 0
M  V30 1429 H 135.98 -3.99233 -2.99022 0
M  V30 1430 H 135.134 -3.14494 -5.18824 0
M  V30 1431 H 133.873 -2.19106 -4.35711 0
M  V30 1432 H 132.878 -4.29969 -3.42647 0
M  V30 1433 H 134.103 -5.264 -4.29046 0
M  V30 1434 H 132.049 -3.43409 -5.58933 0
M  V30 1435 H 131.966 -5.16392 -5.52155 0
M  V30 1436 H 133.234 -4.40101 -6.43375 0
M  V30 1437 N 137.463 0.71206 -1.40597 0
M  V30 1438 C 138.879 1.02058 -1.22704 0
M  V30 1439 C 139.079 2.01228 -0.104729 0
M  V30 1440 O 138.135 2.4674 0.53624 0
M  V30 1441 C 139.448 1.56094 -2.57012 0
M  V30 1442 C 140.996 1.6806 -2.64054 0
M  V30 1443 C 141.471 2.25501 -3.9864 0
M  V30 1444 N 142.962 2.32882 -4.004 0
M  V30 1445 C 143.697 2.78317 -5.01325 0
M  V30 1446 N 143.193 3.23478 -6.12645 0
M  V30 1447 N 144.986 2.77733 -4.88693 0
M  V30 1448 H 137.137 0.0547896 -2.12329 0
M  V30 1449 H 139.4 0.0869027 -0.944008 0
M  V30 1450 H 139.106 0.906865 -3.39807 0
M  V30 1451 H 138.98 2.54564 -2.78347 0
M  V30 1452 H 141.367 2.32583 -1.81629 0
M  V30 1453 H 141.448 0.681802 -2.46546 0
M  V30 1454 H 141.092 1.61598 -4.81506 0
M  V30 1455 H 141.022 3.26102 -4.13479 0
M  V30 1456 H 143.513 2.00991 -3.20017 0
M  V30 1457 H 143.826 3.56725 -6.85542 0
M  V30 1458 H 142.171 3.21429 -6.16205 0
M  V30 1459 H 145.362 2.4179 -4.00818 0
M  V30 1460 H 145.535 3.12826 -5.67489 0
M  V30 1461 N 138.941 1.26152 0.944643 0
M  V30 1462 C 139.904 1.07474 2.0244 0
M  V30 1463 C 140.904 0.0242064 1.60782 0
M  V30 1464 O 142.094 0.267302 1.72137 0
M  V30 1465 C 139.226 0.633956 3.34953 0
M  V30 1466 H 140.419 2.03336 2.20442 0
M  V30 1467 H 137.972 1.087 1.12312 0
M  V30 1468 H 138.707 -0.326811 3.22649 0
M  V30 1469 H 138.492 1.39247 3.66542 0
M  V30 1470 H 139.982 0.52501 4.14287 0
M  V30 1471 N 140.419 -1.14872 1.07899 0
M  V30 1472 C 141.835 -1.37776 0.805606 0
M  V30 1473 C 142.035 -1.92743 -0.587555 0
M  V30 1474 O 141.091 -2.13678 -1.34528 0
M  V30 1475 C 142.404 -2.34361 1.88402 0
M  V30 1476 C 143.952 -2.48012 1.90942 0
M  V30 1477 C 144.427 -3.47893 2.97883 0
M  V30 1478 N 145.918 -3.55433 2.97021 0
M  V30 1479 C 146.653 -4.32553 3.76412 0
M  V30 1480 N 146.149 -5.12959 4.65666 0
M  V30 1481 N 147.942 -4.27697 3.64735 0
M  V30 1482 H 140.093 -0.775365 1.97742 0
M  V30 1483 H 142.356 -0.403521 0.857831 0
M  V30 1484 H 142.062 -2.01098 2.88535 0
M  V30 1485 H 141.936 -3.34206 1.74889 0
M  V30 1486 H 144.323 -2.8057 0.914579 0
M  V30 1487 H 144.404 -1.48147 2.08534 0
M  V30 1488 H 144.048 -3.16069 3.97571 0
M  V30 1489 H 143.978 -4.47527 2.77538 0
M  V30 1490 H 146.469 -2.98048 2.32326 0
M  V30 1491 H 146.782 -5.69065 5.22862 0
M  V30 1492 H 145.127 -5.12245 4.69712 0
M  V30 1493 H 148.318 -3.63949 2.94378 0
M  V30 1494 H 148.491 -4.8755 4.26848 0
M  V30 1495 N 141.898 -0.863906 -1.31812 0
M  V30 1496 C 143.126 -0.486111 -2.01108 0
M  V30 1497 C 143.541 0.919755 -1.64882 0
M  V30 1498 O 142.898 1.60162 -0.874893 0
M  V30 1499 C 142.949 -0.626435 -3.56031 0
M  V30 1500 O 142.67 -1.97693 -3.90959 0
M  V30 1501 C 144.171 -0.248857 -4.42601 0
M  V30 1502 H 141.391 -0.190052 -0.643523 0
M  V30 1503 H 143.935 -1.1634 -1.68182 0
M  V30 1504 H 142.09 0.00322717 -3.874 0
M  V30 1505 H 142.504 -1.98034 -4.85678 0
M  V30 1506 H 143.978 -0.398016 -5.50563 0
M  V30 1507 H 144.455 0.811489 -4.31638 0
M  V30 1508 H 145.061 -0.853971 -4.16638 0
M  V30 1509 N 143.376 1.44774 -0.622745 0
M  V30 1510 C 144.339 2.29069 0.0774015 0
M  V30 1511 C 145.339 1.4059 0.780461 0
M  V30 1512 O 146.529 1.62551 0.626322 0
M  V30 1513 C 143.661 3.21974 1.12006 0
M  V30 1514 H 144.854 2.92459 -0.663901 0
M  V30 1515 H 142.407 1.51548 -0.382486 0
M  V30 1516 H 143.142 2.63417 1.89162 0
M  V30 1517 H 142.927 3.87168 0.619951 0
M  V30 1518 H 144.417 3.85318 1.60995 0
M  V30 1519 N 144.854 0.36279 1.53368 0
M  V30 1520 C 145.786 -0.519668 2.23231 0
M  V30 1521 C 146.799 -1.04844 1.24546 0
M  V30 1522 O 147.988 -0.955296 1.50786 0
M  V30 1523 C 145.088 -1.72995 2.9142 0
M  V30 1524 C 144.261 -1.33316 4.16588 0
M  V30 1525 C 143.32 -2.40521 4.68013 0
M  V30 1526 O 142.346 -2.03027 5.3176 0
M  V30 1527 N 143.548 -3.72065 4.45587 0
M  V30 1528 H 146.313 0.078751 2.99597 0
M  V30 1529 H 143.874 0.187833 1.60807 0
M  V30 1530 H 145.866 -2.44184 3.22733 0
M  V30 1531 H 144.436 -2.2353 2.18525 0
M  V30 1532 H 143.656 -0.451236 3.91609 0
M  V30 1533 H 144.944 -1.04432 4.97967 0
M  V30 1534 H 144.342 -4.05304 3.94646 0
M  V30 1535 H 142.899 -4.39366 4.81457 0
M  V30 1536 N 146.332 -1.57332 0.0918853 0
M  V30 1537 C 147.56 -1.98574 -0.581048 0
M  V30 1538 C 147.975 -0.970903 -1.61923 0
M  V30 1539 O 147.332 0.0399054 -1.82456 0
M  V30 1540 C 147.383 -3.39872 -1.23164 0
M  V30 1541 O 147.104 -4.37469 -0.234989 0
M  V30 1542 C 148.605 -3.96099 -1.99049 0
M  V30 1543 H 145.825 -0.65261 -0.156018 0
M  V30 1544 H 148.369 -2.0379 0.170225 0
M  V30 1545 H 146.524 -3.35679 -1.93386 0
M  V30 1546 H 146.938 -5.19751 -0.70418 0
M  V30 1547 H 148.412 -4.97127 -2.39934 0
M  V30 1548 H 148.889 -3.3374 -2.85507 0
M  V30 1549 H 149.495 -4.03755 -1.3365 0
M  V30 1550 N 147.81 0.181792 -1.56548 0
M  V30 1551 C 149.221 0.745244 -1.71181 0
M  V30 1552 C 149.572 1.83262 -0.70068 0
M  V30 1553 O 148.697 2.15946 0.140154 0
M  V30 1554 C 149.292 1.35859 -3.10367 0
M  V30 1555 C 147.851 1.86898 -3.2672 0
M  V30 1556 C 146.998 0.743942 -2.67134 0
M  V30 1557 H 149.949 -0.0434661 -1.5864 0
M  V30 1558 H 149.97 2.22817 -3.08436 0
M  V30 1559 H 149.482 0.566948 -3.83937 0
M  V30 1560 H 147.583 2.68738 -2.5809 0
M  V30 1561 H 147.696 2.02162 -4.34359 0
M  V30 1562 H 146.06 1.16169 -2.26665 0
M  V30 1563 H 146.843 -0.035676 -3.43281 0
M  V30 1564 N 149.288 1.51039 0.449983 0
M  V30 1565 C 150.536 1.62759 1.19808 0
M  V30 1566 C 150.857 0.339981 1.92013 0
M  V30 1567 O 150.127 -0.643606 1.85026 0
M  V30 1568 H 148.707 0.599811 0.445237 0
M  V30 1569 H 151.369 1.87914 0.517138 0
M  V30 1570 H 150.465 2.44911 1.93455 0
M  V30 1571 N 150.766 -0.704594 1.40972 0
M  V30 1572 C 152.014 -1.46169 1.39568 0
M  V30 1573 C 152.335 -1.95 0.00253745 0
M  V30 1574 O 151.605 -1.71095 -0.954114 0
M  V30 1575 H 150.185 -0.542326 0.513704 0
M  V30 1576 H 152.847 -0.834553 1.76128 0
M  V30 1577 H 151.943 -2.32922 2.07735 0
M  V30 1578 N 152.244 -1.26651 -0.937939 0
M  V30 1579 C 153.472 -1.15173 -1.7188 0
M  V30 1580 C 153.887 0.292668 -1.86518 0
M  V30 1581 O 153.244 1.20014 -1.37488 0
M  V30 1582 C 153.295 -1.81925 -3.12387 0
M  V30 1583 O 153.016 -3.2072 -2.98446 0
M  V30 1584 C 154.517 -1.76442 -4.06673 0
M  V30 1585 H 151.737 -0.400911 -0.538063 0
M  V30 1586 H 154.281 -1.67332 -1.1756 0
M  V30 1587 H 152.436 -1.33696 -3.63599 0
M  V30 1588 H 152.85 -3.53802 -3.872 0
M  V30 1589 H 154.324 -2.27781 -5.02812 0
M  V30 1590 H 154.801 -0.731608 -4.33064 0
M  V30 1591 H 155.407 -2.24238 -3.61382 0
M  V30 1592 N 153.722 1.14298 -1.08507 0
M  V30 1593 C 154.97 1.84993 -0.813763 0
M  V30 1594 C 155.291 1.83405 0.662393 0
M  V30 1595 O 154.561 1.28319 1.48024 0
M  V30 1596 H 153.141 0.684966 -0.298045 0
M  V30 1597 H 155.803 1.385 -1.37126 0
M  V30 1598 H 154.899 2.89788 -1.15884 0
M  V30 1599 N 155.201 0.870884 1.31352 0
M  V30 1600 C 156.164 0.332243 2.26779 0
M  V30 1601 C 157.164 -0.517302 1.52252 0
M  V30 1602 O 158.354 -0.326477 1.71113 0
M  V30 1603 C 155.486 -0.528066 3.36785 0
M  V30 1604 H 156.679 1.17469 2.75937 0
M  V30 1605 H 154.232 0.64655 1.423 0
M  V30 1606 H 154.967 -1.39167 2.92922 0
M  V30 1607 H 154.752 0.0802582 3.92018 0
M  V30 1608 H 156.242 -0.897179 4.07849 0
M  V30 1609 N 156.679 -1.44442 0.630414 0
M  V30 1610 C 157.609 -2.33418 -0.0618083 0
M  V30 1611 C 158.59 -1.48165 -0.835541 0
M  V30 1612 O 159.775 -1.76886 -0.801564 0
M  V30 1613 C 156.905 -3.31222 -1.04449 0
M  V30 1614 C 155.859 -4.26288 -0.382436 0
M  V30 1615 C 155.185 -5.13954 -1.47497 0
M  V30 1616 C 156.485 -5.1744 0.710865 0
M  V30 1617 H 158.179 -2.91548 0.681184 0
M  V30 1618 H 155.725 -1.40191 0.329026 0
M  V30 1619 H 157.678 -3.92351 -1.53748 0
M  V30 1620 H 156.402 -2.71299 -1.81836 0
M  V30 1621 H 155.061 -3.6649 0.0899054 0
M  V30 1622 H 154.709 -4.50385 -2.2397 0
M  V30 1623 H 154.409 -5.7837 -1.03737 0
M  V30 1624 H 155.933 -5.77955 -1.96979 0
M  V30 1625 H 157.347 -5.72509 0.300996 0
M  V30 1626 H 155.744 -5.90455 1.07156 0
M  V30 1627 H 156.814 -4.58496 1.57829 0
M  V30 1628 N 158.157 -0.370918 -1.53173 0
M  V30 1629 C 159.573 -0.0200818 -1.59587 0
M  V30 1630 C 159.773 1.46279 -1.38581 0
M  V30 1631 O 158.829 2.22506 -1.19363 0
M  V30 1632 C 160.142 -0.4808 -2.96831 0
M  V30 1633 C 161.69 -0.435477 -3.09956 0
M  V30 1634 C 162.165 -0.872092 -4.4962 0
M  V30 1635 N 163.656 -0.827364 -4.55751 0
M  V30 1636 C 164.391 -1.13683 -5.62018 0
M  V30 1637 N 163.887 -1.51584 -6.76014 0
M  V30 1638 N 165.68 -1.05927 -5.52029 0
M  V30 1639 H 157.831 -1.33652 -1.65079 0
M  V30 1640 H 160.094 -0.546634 -0.774529 0
M  V30 1641 H 159.8 -1.51577 -3.1736 0
M  V30 1642 H 159.674 0.129796 -3.76977 0
M  V30 1643 H 162.061 0.590371 -2.89134 0
M  V30 1644 H 162.142 -1.08164 -2.31806 0
M  V30 1645 H 161.786 -1.89608 -4.71181 0
M  V30 1646 H 161.716 -0.203127 -5.26208 0
M  V30 1647 H 164.207 -0.548216 -3.73902 0
M  V30 1648 H 164.52 -1.73609 -7.53047 0
M  V30 1649 H 162.865 -1.55454 -6.77391 0
M  V30 1650 H 166.056 -0.762321 -4.61851 0
M  V30 1651 H 166.229 -1.30378 -6.34749 0
M  V30 1652 N 159.635 1.57281 -0.100228 0
M  V30 1653 C 160.881 1.94826 0.563101 0
M  V30 1654 C 161.214 0.982475 1.67514 0
M  V30 1655 O 160.489 0.0164069 1.94493 0
M  V30 1656 C 160.772 3.42453 1.11346 0
M  V30 1657 C 160.625 4.498 0.00612081 0
M  V30 1658 C 161.944 3.91506 2.01024 0
M  V30 1659 H 159.063 0.708428 0.203221 0
M  V30 1660 H 161.705 1.8922 -0.171979 0
M  V30 1661 H 159.855 3.47361 1.7399 0
M  V30 1662 H 161.527 4.57 -0.628357 0
M  V30 1663 H 159.77 4.28756 -0.659581 0
M  V30 1664 H 160.441 5.50306 0.432109 0
M  V30 1665 H 162.917 3.88784 1.48278 0
M  V30 1666 H 161.793 4.95358 2.36457 0
M  V30 1667 H 162.054 3.31099 2.92961 0
M  V30 1668 N 161.113 -0.173488 1.56642 0
M  V30 1669 C 162.076 -1.19859 1.95362 0
M  V30 1670 C 163.076 -1.37296 0.83704 0
M  V30 1671 O 164.266 -1.34739 1.10413 0
M  V30 1672 C 161.398 -2.56405 2.24654 0
M  V30 1673 H 162.591 -0.867062 2.87092 0
M  V30 1674 H 160.144 -0.415853 1.50666 0
M  V30 1675 H 160.879 -2.94576 1.35631 0
M  V30 1676 H 160.664 -2.45115 3.06041 0
M  V30 1677 H 162.154 -3.30287 2.5554 0
M  V30 1678 N 162.591 -1.51276 -0.441967 0
M  V30 1679 C 163.554 -1.7167 -1.51862 0
M  V30 1680 C 164.554 -0.586793 -1.49711 0
M  V30 1681 O 165.744 -0.854276 -1.51815 0
M  V30 1682 C 162.876 -1.76889 -2.91416 0
M  V30 1683 H 164.069 -2.67754 -1.35084 0
M  V30 1684 H 161.622 -1.41196 -0.670333 0
M  V30 1685 H 162.357 -0.826026 -3.13604 0
M  V30 1686 H 162.142 -2.59001 -2.94382 0
M  V30 1687 H 163.632 -1.94522 -3.69528 0
M  V30 1688 N 164.069 0.697108 -1.41344 0
M  V30 1689 C 165.346 1.45154 -1.31109 0
M  V30 1690 C 165.726 2.11009 0.0620449 0
M  V30 1691 O 165.074 2.01571 1.07618 0
M  V30 1692 C 165.284 2.47223 -2.46337 0
M  V30 1693 C 166.632 3.1252 -2.87431 0
M  V30 1694 O 167.656 2.57547 -2.46065 0
M  V30 1695 O 166.515 4.12083 -3.58957 0
M  V30 1696 H 163.609 0.646365 -0.515889 0
M  V30 1697 H 166.155 0.727716 -1.53305 0
M  V30 1698 H 164.927 1.97204 -3.37974 0
M  V30 1699 H 164.55 3.27116 -2.2601 0
M  V30 1700 N 165.547 1.27147 0.931209 0
M  V30 1701 C 166.794 1.13278 1.67852 0
M  V30 1702 C 167.122 -0.32204 1.91815 0
M  V30 1703 O 166.377 -1.25224 1.50391 0
M  V30 1704 C 166.676 1.8579 3.05314 0
M  V30 1705 C 166.342 3.35657 3.01073 0
M  V30 1706 C 165.004 3.76536 2.99623 0
M  V30 1707 C 167.356 4.31299 2.92627 0
M  V30 1708 C 164.684 5.11426 2.87506 0
M  V30 1709 C 167.036 5.66242 2.82051 0
M  V30 1710 C 165.7 6.06418 2.7895 0
M  V30 1711 H 164.97 0.414515 0.614214 0
M  V30 1712 H 167.617 1.57712 1.08624 0
M  V30 1713 H 165.922 1.33854 3.68226 0
M  V30 1714 H 167.619 1.72491 3.62005 0
M  V30 1715 H 164.209 3.03146 3.02986 0
M  V30 1716 H 168.393 4.00692 2.92848 0
M  V30 1717 H 163.649 5.41705 2.83489 0
M  V30 1718 H 167.823 6.40026 2.74481 0
M  V30 1719 H 165.45 7.10895 2.69318 0
M  V30 1720 N 167.025 -1.13721 1.09112 0
M  V30 1721 C 167.955 -2.21148 0.749385 0
M  V30 1722 C 168.936 -1.6792 -0.271475 0
M  V30 1723 O 170.121 -1.93693 -0.140251 0
M  V30 1724 C 167.251 -3.46905 0.165659 0
M  V30 1725 C 166.205 -4.13203 1.11567 0
M  V30 1726 C 165.531 -5.33248 0.393809 0
M  V30 1727 C 166.831 -4.60912 2.45678 0
M  V30 1728 H 168.525 -2.4999 1.64758 0
M  V30 1729 H 166.071 -1.20156 0.793626 0
M  V30 1730 H 168.024 -4.21313 -0.085466 0
M  V30 1731 H 166.748 -3.17449 -0.767714 0
M  V30 1732 H 165.407 -3.40758 1.35202 0
M  V30 1733 H 165.055 -5.00054 -0.543599 0
M  V30 1734 H 164.755 -5.78552 1.02721 0
M  V30 1735 H 166.279 -6.10413 0.150908 0
M  V30 1736 H 167.693 -5.26759 2.26269 0
M  V30 1737 H 166.09 -5.16944 3.04776 0
M  V30 1738 H 167.16 -3.75603 3.06677 0
M  V30 1739 N 168.503 -0.877838 -1.30888 0
M  V30 1740 C 169.466 -0.344265 -2.266 0
M  V30 1741 C 170.466 0.50922 -1.52524 0
M  V30 1742 O 171.656 0.317398 -1.71284 0
M  V30 1743 C 168.788 0.510198 -3.37061 0
M  V30 1744 H 169.981 -1.1893 -2.7531 0
M  V30 1745 H 167.534 -0.654088 -1.41956 0
M  V30 1746 H 168.269 1.37612 -2.93655 0
M  V30 1747 H 168.054 -0.101047 -3.9197 0
M  V30 1748 H 169.544 0.875537 -4.08319 0
M  V30 1749 N 169.982 1.44106 -0.638065 0
M  V30 1750 C 170.929 2.30715 0.062701 0
M  V30 1751 C 171.899 1.43882 0.829883 0
M  V30 1752 O 173.084 1.72775 0.809532 0
M  V30 1753 C 170.224 3.29258 1.03358 0
M  V30 1754 C 169.337 4.31192 0.26409 0
M  V30 1755 C 168.472 5.16825 1.22741 0
M  V30 1756 C 167.511 6.10462 0.447475 0
M  V30 1757 N 166.648 6.8877 1.36161 0
M  V30 1758 H 171.488 2.90096 -0.681781 0
M  V30 1759 H 169.025 1.42925 -0.347988 0
M  V30 1760 H 170.983 3.84886 1.60992 0
M  V30 1761 H 169.613 2.71562 1.74511 0
M  V30 1762 H 168.665 3.77981 -0.428295 0
M  V30 1763 H 169.977 4.97619 -0.343052 0
M  V30 1764 H 169.131 5.77004 1.87487 0
M  V30 1765 H 167.87 4.50488 1.86847 0
M  V30 1766 H 166.875 5.49386 -0.213433 0
M  V30 1767 H 168.1 6.78837 -0.188968 0
M  V30 1768 H 166.046 6.25096 1.98975 0
M  V30 1769 H 165.963 7.51663 0.808656 0
M  V30 1770 H 167.231 7.53467 1.99769 0
M  V30 1771 N 171.46 0.379036 1.52974 0
M  V30 1772 C 172.408 -0.476033 2.27677 0
M  V30 1773 C 173.402 -1.0719 1.31174 0
M  V30 1774 O 174.608 -1.01355 1.48752 0
M  V30 1775 H 170.983 -0.172255 0.732006 0
M  V30 1776 H 172.954 0.175615 2.97883 0
M  V30 1777 C 171.703 -1.5967 3.0887 0
M  V30 1778 H 171.026 -1.1475 3.82978 0
M  V30 1779 H 172.466 -2.16943 3.64296 0
M  V30 1780 C 170.925 -2.54682 2.20542 0
M  V30 1781 O 171.455 -3.57836 1.82527 0
M  V30 1782 N 169.661 -2.24183 1.84907 0
M  V30 1783 H 169.208 -1.40333 2.1602 0
M  V30 1784 H 169.166 -2.88006 1.26096 0
M  V30 1785 N 172.938 -1.57226 0.108567 0
M  V30 1786 C 174.166 -1.99179 -0.559954 0
M  V30 1787 C 174.581 -0.988022 -1.60884 0
M  V30 1788 O 173.938 0.0205512 -1.82488 0
M  V30 1789 C 173.989 -3.41159 -1.19552 0
M  V30 1790 O 173.71 -4.37694 -0.188577 0
M  V30 1791 C 175.211 -3.98188 -1.94837 0
M  V30 1792 H 172.431 -0.654228 -0.149088 0
M  V30 1793 H 174.975 -2.03598 0.19183 0
M  V30 1794 H 173.13 -3.37711 -1.89815 0
M  V30 1795 H 173.544 -5.20469 -0.649014 0
M  V30 1796 H 175.018 -4.99644 -2.34648 0
M  V30 1797 H 175.495 -3.3675 -2.81951 0
M  V30 1798 H 176.101 -4.0515 -1.2936 0
M  V30 1799 N 174.416 0.165178 -1.56732 0
M  V30 1800 C 175.641 0.900253 -1.86843 0
M  V30 1801 C 176.066 1.74766 -0.695596 0
M  V30 1802 O 175.424 1.77786 0.35522 0
M  V30 1803 C 175.472 1.74777 -3.15413 0
M  V30 1804 O 174.576 2.85007 -2.98068 0
M  V30 1805 H 173.917 0.251832 -0.614391 0
M  V30 1806 H 176.447 0.161468 -2.03962 0
M  V30 1807 H 176.457 2.14646 -3.46974 0
M  V30 1808 H 175.132 1.12537 -4.00385 0
M  V30 1809 H 173.709 2.48676 -2.77875 0
M  V30 1810 N 175.894 1.51508 0.433938 0
M  V30 1811 C 177.14 1.64588 1.18484 0
M  V30 1812 C 177.473 0.362666 1.90784 0
M  V30 1813 O 176.748 -0.637892 1.83742 0
M  V30 1814 C 177.031 2.85149 2.19913 0
M  V30 1815 C 176.884 4.23456 1.51674 0
M  V30 1816 C 178.203 3.01227 3.20858 0
M  V30 1817 H 175.322 0.598994 0.429389 0
M  V30 1818 H 177.964 1.84002 0.473647 0
M  V30 1819 H 176.114 2.68729 2.80566 0
M  V30 1820 H 177.786 4.51552 0.943322 0
M  V30 1821 H 176.029 4.25998 0.819035 0
M  V30 1822 H 176.7 5.03812 2.2556 0
M  V30 1823 H 179.176 3.16382 2.70263 0
M  V30 1824 H 178.052 3.87141 3.89118 0
M  V30 1825 H 178.313 2.13447 3.8716 0
M  V30 1826 N 177.372 -0.689602 1.41712 0
M  V30 1827 C 178.319 -1.80345 1.44029 0
M  V30 1828 C 179.289 -1.63478 0.293948 0
M  V30 1829 O 180.474 -1.84244 0.495869 0
M  V30 1830 C 177.614 -3.18272 1.33405 0
M  V30 1831 C 176.727 -3.46529 2.57956 0
M  V30 1832 C 175.862 -4.74103 2.39582 0
M  V30 1833 C 174.901 -4.95347 3.5958 0
M  V30 1834 N 174.038 -6.14151 3.40239 0
M  V30 1835 H 178.878 -1.77698 2.39222 0
M  V30 1836 H 176.415 -0.867688 1.18784 0
M  V30 1837 H 178.373 -3.97956 1.25246 0
M  V30 1838 H 177.003 -3.2008 0.418164 0
M  V30 1839 H 176.055 -2.61207 2.76542 0
M  V30 1840 H 177.367 -3.58126 3.47199 0
M  V30 1841 H 176.521 -5.61853 2.28924 0
M  V30 1842 H 175.26 -4.64763 1.47805 0
M  V30 1843 H 174.265 -4.06044 3.70686 0
M  V30 1844 H 175.49 -5.06542 4.52318 0
M  V30 1845 H 173.436 -6.06013 2.51167 0
M  V30 1846 H 173.353 -6.26543 4.23061 0
M  V30 1847 H 174.621 -7.04619 3.33365 0
M  V30 1848 N 178.85 -1.27639 -0.924453 0
M  V30 1849 C 180.266 -1.05113 -1.20097 0
M  V30 1850 C 180.466 0.213262 -2.00368 0
M  V30 1851 O 179.522 0.91787 -2.35226 0
M  V30 1852 C 180.835 -2.29244 -1.94596 0
M  V30 1853 C 182.383 -2.34315 -2.07522 0
M  V30 1854 C 182.858 -3.58183 -2.85427 0
M  V30 1855 N 184.349 -3.5876 -2.92994 0
M  V30 1856 C 185.084 -4.51277 -3.53746 0
M  V30 1857 N 184.58 -5.54102 -4.15863 0
M  V30 1858 N 186.373 -4.38894 -3.51181 0
M  V30 1859 H 178.524 -2.08821 -0.388264 0
M  V30 1860 H 180.787 -0.918568 -0.234385 0
M  V30 1861 H 180.493 -3.21301 -1.43034 0
M  V30 1862 H 180.367 -2.34816 -2.95197 0
M  V30 1863 H 182.754 -1.42762 -2.58269 0
M  V30 1864 H 182.835 -2.32744 -1.06131 0
M  V30 1865 H 182.479 -4.50074 -2.35363 0
M  V30 1866 H 182.409 -3.57006 -3.8711 0
M  V30 1867 H 184.9 -2.84398 -2.4885 0
M  V30 1868 H 185.213 -6.20859 -4.60168 0
M  V30 1869 H 183.558 -5.57941 -4.144 0
M  V30 1870 H 186.749 -3.57772 -3.01856 0
M  V30 1871 H 186.922 -5.11186 -3.98237 0
M  V30 1872 N 180.328 1.1314 -1.09713 0
M  V30 1873 C 181.574 1.84757 -0.836224 0
M  V30 1874 C 181.907 1.8347 0.636598 0
M  V30 1875 O 181.182 1.27491 1.46889 0
M  V30 1876 C 181.465 3.32782 -1.37578 0
M  V30 1877 C 181.318 3.42567 -2.91493 0
M  V30 1878 C 182.637 4.28307 -1.01198 0
M  V30 1879 H 179.756 0.67082 -0.305236 0
M  V30 1880 H 182.398 1.3278 -1.35903 0
M  V30 1881 H 180.548 3.77177 -0.931097 0
M  V30 1882 H 182.22 3.06862 -3.44432 0
M  V30 1883 H 180.463 2.83349 -3.28475 0
M  V30 1884 H 181.134 4.46674 -3.24324 0
M  V30 1885 H 183.61 3.91999 -1.39556 0
M  V30 1886 H 182.486 5.30307 -1.41653 0
M  V30 1887 H 182.747 4.42029 0.0794833 0
M  V30 1888 N 181.806 0.884767 1.30421 0
M  V30 1889 C 183.052 0.513218 1.96819 0
M  V30 1890 C 183.407 -0.927347 1.68577 0
M  V30 1891 O 182.7 -1.64644 0.979941 0
M  V30 1892 C 182.894 0.724318 3.49983 0
M  V30 1893 C 182.723 2.18385 3.93113 0
M  V30 1894 C 181.493 2.82839 4.18725 0
M  V30 1895 C 183.691 3.15763 4.05953 0
M  V30 1896 N 181.673 4.1939 4.48314 0
M  V30 1897 C 183.044 4.37387 4.39423 0
M  V30 1898 C 185.099 3.11555 3.88379 0
M  V30 1899 C 183.802 5.55343 4.5715 0
M  V30 1900 C 185.828 4.28782 4.07308 0
M  V30 1901 C 185.19 5.49172 4.41123 0
M  V30 1902 H 181.289 0.237123 0.745182 0
M  V30 1903 H 183.873 1.14246 1.57658 0
M  V30 1904 H 182.044 0.124565 3.882 0
M  V30 1905 H 183.776 0.31969 4.03435 0
M  V30 1906 H 180.531 2.33708 4.11919 0
M  V30 1907 H 180.955 4.89911 4.67243 0
M  V30 1908 H 185.597 2.19576 3.61312 0
M  V30 1909 H 183.315 6.47826 4.8306 0
M  V30 1910 H 186.901 4.26995 3.95179 0
M  V30 1911 H 185.781 6.38371 4.55469 0
M  V30 1912 N 183.284 -1.43765 0.645699 0
M  V30 1913 C 184.53 -2.02197 0.156271 0
M  V30 1914 C 184.863 -1.50776 -1.22393 0
M  V30 1915 O 184.138 -0.697771 -1.81553 0
M  V30 1916 C 184.421 -3.59749 0.158872 0
M  V30 1917 C 184.274 -4.21419 1.57245 0
M  V30 1918 C 185.593 -4.37149 -0.50879 0
M  V30 1919 H 182.712 -0.734694 0.0582602 0
M  V30 1920 H 185.354 -1.71157 0.824951 0
M  V30 1921 H 183.504 -3.86325 -0.410525 0
M  V30 1922 H 185.176 -4.059 2.19186 0
M  V30 1923 H 183.419 -3.78356 2.122 0
M  V30 1924 H 184.09 -5.30482 1.52619 0
M  V30 1925 H 186.566 -4.16093 -0.024412 0
M  V30 1926 H 185.442 -5.4683 -0.476213 0
M  V30 1927 H 185.703 -4.12839 -1.58165 0
M  V30 1928 N 184.763 -0.387143 -1.52771 0
M  V30 1929 C 185.988 0.198407 -2.06449 0
M  V30 1930 C 186.413 1.39918 -1.25716 0
M  V30 1931 O 185.771 1.79099 -0.281657 0
M  V30 1932 C 185.819 0.548893 -3.56398 0
M  V30 1933 O 184.923 1.64315 -3.78252 0
M  V30 1934 H 184.264 0.0237731 -0.663574 0
M  V30 1935 H 186.794 -0.553989 -1.96957 0
M  V30 1936 H 186.804 0.813812 -3.99801 0
M  V30 1937 H 185.479 -0.329005 -4.14597 0
M  V30 1938 H 184.056 1.37211 -3.46738 0
M  V30 1939 N 186.241 1.57166 -0.116904 0
M  V30 1940 C 187.189 2.16457 0.851418 0
M  V30 1941 C 188.183 1.11323 1.27686 0
M  V30 1942 O 189.389 1.2963 1.24884 0
M  V30 1943 H 185.764 0.69271 0.292672 0
M  V30 1944 H 187.735 2.96605 0.32685 0
M  V30 1945 C 186.484 2.77689 2.09246 0
M  V30 1946 H 185.807 3.58285 1.77402 0
M  V30 1947 H 187.247 3.22716 2.7501 0
M  V30 1948 C 185.706 1.74667 2.88085 0
M  V30 1949 O 186.236 1.19877 3.83396 0
M  V30 1950 N 184.442 1.44656 2.52038 0
M  V30 1951 H 183.989 1.89402 1.74599 0
M  V30 1952 H 183.947 0.759675 3.05084 0
M  V30 1953 N 187.719 -0.156864 1.56817 0
M  V30 1954 C 189.13 -0.717916 1.72345 0
M  V30 1955 C 189.481 -1.82124 0.729747 0
M  V30 1956 O 188.606 -2.16141 -0.105781 0
M  V30 1957 C 189.201 -1.30904 3.12489 0
M  V30 1958 C 187.76 -1.81676 3.29653 0
M  V30 1959 C 186.907 -0.701349 2.68284 0
M  V30 1960 H 189.858 0.0686989 1.58551 0
M  V30 1961 H 189.879 -2.17882 3.11942 0
M  V30 1962 H 189.391 -0.505796 3.8479 0
M  V30 1963 H 187.492 -2.64598 2.62333 0
M  V30 1964 H 187.605 -1.95226 4.3752 0
M  V30 1965 H 185.969 -1.12548 2.28484 0
M  V30 1966 H 186.752 0.0902846 3.43181 0
M  V30 1967 N 189.197 -1.51736 -0.425897 0
M  V30 1968 C 190.422 -1.69082 -1.20108 0
M  V30 1969 C 190.847 -0.392398 -1.83962 0
M  V30 1970 O 190.205 0.64858 -1.69302 0
M  V30 1971 C 190.253 -2.81604 -2.25237 0
M  V30 1972 O 189.357 -2.46004 -3.30992 0
M  V30 1973 H 188.698 -0.563408 -0.35138 0
M  V30 1974 H 191.228 -1.98358 -0.501512 0
M  V30 1975 H 191.238 -3.06025 -2.69838 0
M  V30 1976 H 189.913 -3.75817 -1.78142 0
M  V30 1977 H 188.49 -2.32195 -2.91787 0
M  V30 1978 N 190.675 0.682077 -1.42076 0
M  V30 1979 C 191.921 1.44283 -1.43366 0
M  V30 1980 C 192.276 1.92344 -0.0465775 0
M  V30 1981 O 191.569 1.67517 0.929973 0
M  V30 1982 C 191.763 2.66036 -2.38662 0
M  V30 1983 C 191.592 2.29889 -3.86499 0
M  V30 1984 C 190.362 2.19599 -4.55087 0
M  V30 1985 C 192.56 1.91999 -4.77117 0
M  V30 1986 N 190.542 1.76478 -5.87987 0
M  V30 1987 C 191.913 1.59741 -5.99068 0
M  V30 1988 C 193.968 1.78927 -4.64639 0
M  V30 1989 C 192.671 1.15723 -7.0993 0
M  V30 1990 C 194.697 1.36314 -5.75476 0
M  V30 1991 C 194.059 1.04975 -6.96534 0
M  V30 1992 H 190.158 0.524739 -0.579805 0
M  V30 1993 H 192.742 0.787834 -1.78048 0
M  V30 1994 H 190.913 3.29237 -2.06053 0
M  V30 1995 H 192.645 3.32588 -2.30581 0
M  V30 1996 H 189.4 2.38433 -4.09202 0
M  V30 1997 H 189.824 1.57362 -6.58458 0
M  V30 1998 H 194.466 2.01805 -3.7153 0
M  V30 1999 H 192.184 0.91591 -8.02893 0
M  V30 2000 H 195.77 1.26731 -5.6783 0
M  V30 2001 H 194.65 0.725017 -7.80841 0
M  V30 2002 N 192.153 1.28127 0.917671 0
M  V30 2003 C 193.564 1.13622 1.48145 0
M  V30 2004 C 193.915 -0.275207 1.9426 0
M  V30 2005 O 193.04 -1.1691 1.82102 0
M  V30 2006 C 193.635 2.05648 2.69248 0
M  V30 2007 C 192.194 1.95219 3.21818 0
M  V30 2008 C 191.341 1.97618 1.94532 0
M  V30 2009 H 194.292 1.40874 0.730772 0
M  V30 2010 H 194.313 1.61818 3.44377 0
M  V30 2011 H 193.825 3.08365 2.35653 0
M  V30 2012 H 191.926 0.955244 3.60147 0
M  V30 2013 H 192.039 2.81976 3.87333 0
M  V30 2014 H 190.403 1.41973 2.11461 0
M  V30 2015 H 191.186 3.02007 1.63238 0
M  V30 2016 N 193.631 -1.12557 1.10312 0
M  V30 2017 C 194.579 -2.20325 0.745629 0
M  V30 2018 C 195.573 -1.67429 -0.25763 0
M  V30 2019 O 196.779 -1.79612 -0.118132 0
M  V30 2020 H 193.154 -0.718118 0.223182 0
M  V30 2021 H 195.125 -2.47733 1.66346 0
M  V30 2022 C 193.874 -3.47168 0.192262 0
M  V30 2023 H 193.197 -3.88215 0.955475 0
M  V30 2024 H 194.637 -4.23995 -0.0198274 0
M  V30 2025 C 193.096 -3.19298 -1.07472 0
M  V30 2026 O 193.626 -3.3891 -2.15645 0
M  V30 2027 N 191.832 -2.73113 -0.992847 0
M  V30 2028 H 191.379 -2.57354 -0.112474 0
M  V30 2029 H 191.337 -2.54842 -1.84127 0
M  V30 2030 N 195.109 -0.891671 -1.2995 0
M  V30 2031 C 196.059 -0.334811 -2.25528 0
M  V30 2032 C 197.043 0.540553 -1.51548 0
M  V30 2033 O 198.235 0.383882 -1.72787 0
M  V30 2034 C 195.364 0.44374 -3.4042 0
M  V30 2035 C 194.45 -0.44609 -4.21747 0
M  V30 2036 N 194.841 -1.54963 -4.81477 0
M  V30 2037 C 193.139 -0.242415 -4.45341 0
M  V30 2038 C 193.84 -2.10015 -5.42465 0
M  V30 2039 N 192.816 -1.39423 -5.25416 0
M  V30 2040 H 196.618 -1.17792 -2.69262 0
M  V30 2041 H 194.132 -0.741822 -1.44467 0
M  V30 2042 H 196.129 0.859362 -4.07947 0
M  V30 2043 H 194.789 1.28421 -2.98225 0
M  V30 2044 H 195.8 -1.93244 -4.80497 0
M  V30 2045 H 192.477 0.560342 -4.13723 0
M  V30 2046 H 193.867 -3.02724 -5.9984 0
M  V30 2047 N 196.587 1.43421 -0.653314 0
M  V30 2048 C 197.534 2.30768 0.0382271 0
M  V30 2049 C 198.504 1.44755 0.814576 0
M  V30 2050 O 199.689 1.73624 0.791162 0
M  V30 2051 C 196.829 3.30336 0.998599 0
M  V30 2052 C 195.942 4.31448 0.218342 0
M  V30 2053 C 195.077 5.18098 1.17252 0
M  V30 2054 C 194.116 6.10902 0.382702 0
M  V30 2055 N 193.253 6.90176 1.28848 0
M  V30 2056 H 198.093 2.89357 -0.712511 0
M  V30 2057 H 195.63 1.42548 -0.363128 0
M  V30 2058 H 197.588 3.86572 1.56901 0
M  V30 2059 H 196.218 2.73397 1.71621 0
M  V30 2060 H 195.27 3.77506 -0.46836 0
M  V30 2061 H 196.582 4.97227 -0.395812 0
M  V30 2062 H 195.736 5.7896 1.81356 0
M  V30 2063 H 194.475 4.52444 1.82058 0
M  V30 2064 H 193.48 5.49128 -0.27169 0
M  V30 2065 H 194.705 6.78598 -0.260957 0
M  V30 2066 H 192.651 6.27171 1.92334 0
M  V30 2067 H 192.568 7.52478 0.728887 0
M  V30 2068 H 193.836 7.55543 1.91766 0
M  V30 2069 N 198.065 0.39524 1.52563 0
M  V30 2070 C 199.29 -0.187456 2.06551 0
M  V30 2071 C 199.715 -1.39249 1.26457 0
M  V30 2072 O 199.073 -1.78947 0.291151 0
M  V30 2073 C 199.121 -0.529985 3.56684 0
M  V30 2074 O 198.225 -1.62307 3.79118 0
M  V30 2075 H 197.566 -0.0202537 0.663691 0
M  V30 2076 H 200.096 0.564426 1.96661 0
M  V30 2077 H 200.106 -0.792598 4.00227 0
M  V30 2078 H 198.781 0.350987 4.14416 0
M  V30 2079 H 197.358 -1.3537 3.47461 0
M  V30 2080 N 199.544 -1.57102 0.125237 0
M  V30 2081 C 200.79 -1.95697 -0.532035 0
M  V30 2082 C 201.123 -1.009 -1.6593 0
M  V30 2083 O 200.398 -0.047347 -1.94442 0
M  V30 2084 C 200.681 -3.44181 -1.05884 0
M  V30 2085 C 200.534 -4.49752 0.0654392 0
M  V30 2086 C 201.853 -3.94655 -1.9477 0
M  V30 2087 H 198.972 -0.711571 -0.191925 0
M  V30 2088 H 201.614 -1.88923 0.20206 0
M  V30 2089 H 199.764 -3.50085 -1.68442 0
M  V30 2090 H 201.436 -4.55943 0.700982 0
M  V30 2091 H 199.679 -4.27653 0.727709 0
M  V30 2092 H 200.35 -5.50924 -0.344505 0
M  V30 2093 H 202.826 -3.91094 -1.42074 0
M  V30 2094 H 201.702 -4.99057 -2.28546 0
M  V30 2095 H 201.963 -3.35718 -2.87656 0
M  V30 2096 N 201.022 0.148545 -1.56898 0
M  V30 2097 C 202.269 0.861418 -1.83264 0
M  V30 2098 C 202.597 1.81239 -0.705883 0
M  V30 2099 O 201.852 1.93305 0.305212 0
M  V30 2100 C 202.151 1.67064 -3.1595 0
M  V30 2101 C 201.817 0.866591 -4.42494 0
M  V30 2102 C 200.479 0.644762 -4.76861 0
M  V30 2103 C 202.831 0.30418 -5.20312 0
M  V30 2104 C 200.159 -0.15021 -5.86508 0
M  V30 2105 C 202.511 -0.477824 -6.30793 0
M  V30 2106 C 201.175 -0.710244 -6.63711 0
M  V30 2107 H 200.445 0.315215 -0.670612 0
M  V30 2108 H 203.092 0.125142 -1.91091 0
M  V30 2109 H 201.397 2.47698 -3.03567 0
M  V30 2110 H 203.094 2.22566 -3.33565 0
M  V30 2111 H 199.684 1.04955 -4.15551 0
M  V30 2112 H 203.868 0.462844 -4.94137 0
M  V30 2113 H 199.124 -0.339796 -6.10455 0
M  V30 2114 H 203.298 -0.92076 -6.90286 0
M  V30 2115 H 200.925 -1.3281 -7.48509 0
M  V30 2116 N 202.5 1.5196 0.417844 0
M  V30 2117 C 203.448 1.75278 1.52907 0
M  V30 2118 C 204.442 0.619611 1.57662 0
M  V30 2119 O 205.648 0.801457 1.61173 0
M  V30 2120 H 202.023 0.554141 0.508362 0
M  V30 2121 H 203.994 2.68389 1.30422 0
M  V30 2122 C 202.743 1.91262 2.90369 0
M  V30 2123 H 202.066 2.77872 2.8745 0
M  V30 2124 H 203.506 2.11581 3.67436 0
M  V30 2125 C 201.965 0.677431 3.30019 0
M  V30 2126 O 202.495 -0.158799 4.01386 0
M  V30 2127 N 200.701 0.515851 2.85985 0
M  V30 2128 H 200.248 1.19744 2.28077 0
M  V30 2129 H 200.206 -0.309315 3.12875 0
M  V30 2130 N 203.978 -0.674533 1.42435 0
M  V30 2131 C 205.203 -1.46784 1.46524 0
M  V30 2132 C 205.628 -1.87938 0.078066 0
M  V30 2133 O 204.986 -1.56014 -0.92354 0
M  V30 2134 C 205.034 -2.69307 2.39805 0
M  V30 2135 O 204.138 -3.67587 1.86959 0
M  V30 2136 H 203.479 -0.440959 0.496439 0
M  V30 2137 H 206.009 -0.827326 1.87127 0
M  V30 2138 H 206.019 -3.17374 2.56393 0
M  V30 2139 H 204.694 -2.38692 3.40586 0
M  V30 2140 H 203.271 -3.2662 1.79927 0
M  V30 2141 N 205.456 -1.28612 -0.910864 0
M  V30 2142 C 206.419 -1.12803 -1.9952 0
M  V30 2143 C 207.419 -0.0668264 -1.60661 0
M  V30 2144 O 208.609 -0.312847 -1.71368 0
M  V30 2145 C 205.741 -0.72254 -3.33155 0
M  V30 2146 H 206.934 -2.09109 -2.14973 0
M  V30 2147 H 204.487 -1.11639 -1.09391 0
M  V30 2148 H 205.222 0.241152 -3.23402 0
M  V30 2149 H 205.007 -1.48916 -3.62721 0
M  V30 2150 H 206.497 -0.634666 -4.12749 0
M  V30 2151 N 206.934 1.1197 -1.10907 0
M  V30 2152 C 208.182 1.83225 -0.852819 0
M  V30 2153 C 208.503 1.84769 0.623341 0
M  V30 2154 O 207.773 1.3143 1.45269 0
M  V30 2155 H 206.353 0.67849 -0.312507 0
M  V30 2156 H 209.015 1.3556 -1.40033 0
M  V30 2157 H 208.111 2.87265 -1.22005 0
M  V30 2158 N 208.412 0.89855 1.29475 0
M  V30 2159 C 209.342 0.39201 2.30186 0
M  V30 2160 C 210.323 -0.532359 1.61555 0
M  V30 2161 O 211.508 -0.443331 1.89072 0
M  V30 2162 C 208.638 -0.382353 3.45189 0
M  V30 2163 C 207.592 0.451483 4.25612 0
M  V30 2164 C 206.918 -0.450307 5.328 0
M  V30 2165 C 208.218 1.70079 4.93832 0
M  V30 2166 H 209.912 1.23362 2.72804 0
M  V30 2167 H 207.458 0.594638 1.31149 0
M  V30 2168 H 209.411 -0.747451 4.14718 0
M  V30 2169 H 208.135 -1.25774 3.01411 0
M  V30 2170 H 206.794 0.798897 3.57789 0
M  V30 2171 H 206.442 -1.32379 4.85268 0
M  V30 2172 H 206.142 0.103902 5.87508 0
M  V30 2173 H 207.666 -0.811623 6.05182 0
M  V30 2174 H 209.08 1.40549 5.55805 0
M  V30 2175 H 207.477 2.19623 5.58467 0
M  V30 2176 H 208.547 2.43744 4.19186 0
M  V30 2177 N 209.89 -1.43072 0.660911 0
M  V30 2178 C 210.8 -2.34585 -0.0264163 0
M  V30 2179 C 211.816 -1.54316 -0.803898 0
M  V30 2180 O 212.992 -1.86939 -0.749391 0
M  V30 2181 C 210.057 -3.32689 -0.975639 0
M  V30 2182 C 209.118 -4.2886 -0.194236 0
M  V30 2183 C 208.351 -5.22278 -1.09825 0
M  V30 2184 O 208.574 -5.20299 -2.33763 0
M  V30 2185 O 207.508 -5.99228 -0.566513 0
M  V30 2186 H 211.334 -2.94869 0.727034 0
M  V30 2187 H 208.919 -1.43342 0.42111 0
M  V30 2188 H 210.801 -3.92995 -1.52094 0
M  V30 2189 H 209.476 -2.74898 -1.70918 0
M  V30 2190 H 208.383 -3.72011 0.394835 0
M  V30 2191 H 209.716 -4.89655 0.499899 0
M  V30 2192 N 211.368 -0.403325 -1.52352 0
M  V30 2193 C 212.614 0.174605 -2.02047 0
M  V30 2194 C 212.947 1.45282 -1.28867 0
M  V30 2195 O 212.222 1.90483 -0.393257 0
M  V30 2196 C 212.505 0.428238 -3.57545 0
M  V30 2197 C 212.358 -0.866248 -4.4138 0
M  V30 2198 C 213.677 1.21287 -4.23057 0
M  V30 2199 H 210.796 0.0619851 -0.734389 0
M  V30 2200 H 213.438 -0.53565 -1.82293 0
M  V30 2201 H 211.588 1.03327 -3.74507 0
M  V30 2202 H 213.26 -1.50265 -4.3614 0
M  V30 2203 H 211.503 -1.47851 -4.07827 0
M  V30 2204 H 212.174 -0.643249 -5.48239 0
M  V30 2205 H 214.65 0.700703 -4.10158 0
M  V30 2206 H 213.526 1.35909 -5.31808 0
M  V30 2207 H 213.787 2.23193 -3.81625 0
M  V30 2208 N 212.846 1.57033 -0.133567 0
M  V30 2209 C 214.262 1.58035 0.222944 0
M  V30 2210 C 214.462 1.14713 1.6566 0
M  V30 2211 O 213.518 0.841218 2.38075 0
M  V30 2212 C 214.831 3.00691 -0.0236116 0
M  V30 2213 C 216.379 3.12973 0.0411512 0
M  V30 2214 C 216.854 4.57654 -0.177899 0
M  V30 2215 N 218.345 4.63033 -0.124365 0
M  V30 2216 C 219.08 5.72771 -0.268553 0
M  V30 2217 N 218.576 6.91206 -0.46972 0
M  V30 2218 N 220.369 5.61718 -0.2071 0
M  V30 2219 H 212.52 1.8349 -1.06981 0
M  V30 2220 H 214.783 0.848677 -0.422436 0
M  V30 2221 H 214.489 3.36726 -1.0153 0
M  V30 2222 H 214.363 3.70614 0.701808 0
M  V30 2223 H 216.75 2.76787 1.02338 0
M  V30 2224 H 216.831 2.45564 -0.716383 0
M  V30 2225 H 216.475 4.94542 -1.15717 0
M  V30 2226 H 216.405 5.23173 0.599797 0
M  V30 2227 H 218.896 3.7789 0.027011 0
M  V30 2228 H 219.209 7.70693 -0.570212 0
M  V30 2229 H 217.554 6.93156 -0.505876 0
M  V30 2230 H 220.745 4.68072 -0.0507986 0
M  V30 2231 H 220.918 6.47195 -0.322909 0
M  V30 2232 N 214.325 -0.140222 1.56975 0
M  V30 2233 C 215.235 -1.19223 2.02047 0
M  V30 2234 C 216.251 -1.46612 0.937062 0
M  V30 2235 O 217.427 -1.58148 1.24704 0
M  V30 2236 C 214.492 -2.50414 2.39778 0
M  V30 2237 C 213.553 -2.30612 3.621 0
M  V30 2238 C 212.786 -3.55547 3.98023 0
M  V30 2239 O 213.009 -4.62004 3.34528 0
M  V30 2240 O 211.943 -3.47808 4.91237 0
M  V30 2241 H 215.769 -0.839559 2.91865 0
M  V30 2242 H 213.354 -0.349453 1.45256 0
M  V30 2243 H 215.236 -3.27747 2.64877 0
M  V30 2244 H 213.911 -2.85198 1.53114 0
M  V30 2245 H 212.818 -1.51207 3.4218 0
M  V30 2246 H 214.151 -2.00741 4.49404 0
M  V30 2247 N 215.803 -1.52179 -0.40978 0
M  V30 2248 C 217.033 -1.69807 -1.17682 0
M  V30 2249 C 217.441 -0.406908 -1.84773 0
M  V30 2250 O 216.784 0.626863 -1.72673 0
M  V30 2251 C 216.846 -2.77712 -2.2829 0
M  V30 2252 C 216.51 -4.19481 -1.81341 0
M  V30 2253 C 217.507 -5.03345 -1.30154 0
M  V30 2254 C 215.192 -4.65713 -1.88194 0
M  V30 2255 C 217.186 -6.31511 -0.864416 0
M  V30 2256 C 214.873 -5.93869 -1.44093 0
M  V30 2257 C 215.871 -6.76597 -0.933023 0
M  V30 2258 O 215.559 -8.02354 -0.49838 0
M  V30 2259 H 215.291 -0.572372 -0.359675 0
M  V30 2260 H 217.845 -1.99511 -0.488311 0
M  V30 2261 H 216.075 -2.43383 -3.00502 0
M  V30 2262 H 217.764 -2.83946 -2.90051 0
M  V30 2263 H 218.53 -4.68819 -1.24232 0
M  V30 2264 H 214.409 -4.01424 -2.26671 0
M  V30 2265 H 217.953 -6.96033 -0.467286 0
M  V30 2266 H 213.85 -6.27903 -1.49694 0
M  V30 2267 H 214.618 -8.16135 -0.621747 0
M  V30 2268 N 217.281 0.66697 -1.42791 0
M  V30 2269 C 218.244 1.76211 -1.46568 0
M  V30 2270 C 219.244 1.56896 -0.352196 0
M  V30 2271 O 220.434 1.63044 -0.613364 0
M  V30 2272 C 217.566 3.14935 -1.30494 0
M  V30 2273 H 218.759 1.74247 -2.44086 0
M  V30 2274 H 216.312 0.877342 -1.29354 0
M  V30 2275 H 217.047 3.2252 -0.339301 0
M  V30 2276 H 216.832 3.30359 -2.11199 0
M  V30 2277 H 218.322 3.94821 -1.36038 0
M  V30 2278 N 218.759 1.29093 0.90403 0
M  V30 2279 C 219.989 1.19516 1.68522 0
M  V30 2280 C 220.397 -0.24738 1.87576 0
M  V30 2281 O 219.74 -1.17798 1.40959 0
M  V30 2282 C 219.802 1.83249 3.0929 0
M  V30 2283 C 219.466 3.32531 3.13484 0
M  V30 2284 C 220.463 4.28821 2.93953 0
M  V30 2285 C 218.148 3.73656 3.35688 0
M  V30 2286 C 220.142 5.64212 2.96553 0
M  V30 2287 C 217.829 5.0917 3.37919 0
M  V30 2288 C 218.827 6.04258 3.18373 0
M  V30 2289 O 218.515 7.37298 3.20385 0
M  V30 2290 H 218.247 0.415467 0.533257 0
M  V30 2291 H 220.801 1.70912 1.13922 0
M  V30 2292 H 219.031 1.26358 3.65473 0
M  V30 2293 H 220.72 1.68054 3.69476 0
M  V30 2294 H 221.486 3.98382 2.76616 0
M  V30 2295 H 217.365 3.00101 3.49943 0
M  V30 2296 H 220.909 6.38407 2.81216 0
M  V30 2297 H 216.806 5.39256 3.54787 0
M  V30 2298 H 217.574 7.46048 3.36681 0
M  V30 2299 N 220.237 -1.11381 1.11499 0
M  V30 2300 C 221.467 -1.86663 0.885464 0
M  V30 2301 C 221.875 -1.80464 -0.568281 0
M  V30 2302 O 221.218 -1.18445 -1.40415 0
M  V30 2303 C 221.28 -3.36337 1.26956 0
M  V30 2304 C 220.944 -3.66304 2.73259 0
M  V30 2305 C 221.941 -3.63733 3.71476 0
M  V30 2306 C 219.626 -3.9529 3.09921 0
M  V30 2307 C 221.62 -3.89725 5.04374 0
M  V30 2308 C 219.307 -4.20941 4.43004 0
M  V30 2309 C 220.305 -4.18147 5.40039 0
M  V30 2310 O 219.993 -4.43153 6.70724 0
M  V30 2311 H 219.725 -0.597114 0.316908 0
M  V30 2312 H 222.279 -1.41782 1.48617 0
M  V30 2313 H 220.509 -3.81826 0.611999 0
M  V30 2314 H 222.198 -3.92986 1.01573 0
M  V30 2315 H 222.964 -3.41389 3.44498 0
M  V30 2316 H 218.843 -3.966 2.35009 0
M  V30 2317 H 222.387 -3.8746 5.80104 0
M  V30 2318 H 218.284 -4.42761 4.69716 0
M  V30 2319 H 219.052 -4.60717 6.76522 0
M  V30 2320 N 221.715 -0.905404 -1.28997 0
M  V30 2321 C 222.992 -0.453513 -1.9027 0
M  V30 2322 C 223.372 1.06721 -1.82137 0
M  V30 2323 O 222.72 1.91159 -1.25182 0
M  V30 2324 C 222.93 -0.974494 -3.35119 0
M  V30 2325 C 224.278 -1.0216 -4.12127 0
M  V30 2326 O 225.302 -0.922557 -3.44046 0
M  V30 2327 O 224.161 -1.17121 -5.33802 0
M  V30 2328 H 221.255 -0.142347 -0.814657 0
M  V30 2329 H 223.801 -0.995642 -1.37423 0
M  V30 2330 H 222.573 -2.01848 -3.35221 0
M  V30 2331 H 222.196 -0.412706 -3.95452 0
M  V30 2332 N 223.193 1.4272 -0.668489 0
M  V30 2333 C 224.156 2.292 0.00448567 0
M  V30 2334 C 225.156 1.43001 0.735339 0
M  V30 2335 O 226.346 1.64461 0.57429 0
M  V30 2336 C 223.478 3.25375 1.01705 0
M  V30 2337 H 224.671 2.90199 -0.756608 0
M  V30 2338 H 222.224 1.50254 -0.430506 0
M  V30 2339 H 222.959 2.69301 1.80686 0
M  V30 2340 H 222.744 3.88944 0.496463 0
M  V30 2341 H 224.234 3.90245 1.48655 0
M  V30 2342 N 224.671 0.411399 1.52136 0
M  V30 2343 C 225.581 -0.419774 2.30814 0
M  V30 2344 C 226.597 -1.0515 1.38634 0
M  V30 2345 O 227.773 -1.05252 1.71709 0
M  V30 2346 C 224.838 -1.52019 3.11594 0
M  V30 2347 C 223.899 -0.91129 4.19516 0
M  V30 2348 C 223.132 -1.95927 4.96436 0
M  V30 2349 O 223.355 -3.17775 4.73683 0
M  V30 2350 O 222.289 -1.56423 5.81219 0
M  V30 2351 H 226.115 0.221805 3.02889 0
M  V30 2352 H 223.7 0.174547 1.48377 0
M  V30 2353 H 225.582 -2.15898 3.61892 0
M  V30 2354 H 224.257 -2.14633 2.42311 0
M  V30 2355 H 223.164 -0.235157 3.7336 0
M  V30 2356 H 224.497 -0.32904 4.91099 0
M  V30 2357 N 226.149 -1.5696 0.141893 0
M  V30 2358 C 227.097 -2.17784 -0.816874 0
M  V30 2359 C 228.091 -1.1334 -1.25899 0
M  V30 2360 O 229.297 -1.316 -1.22806 0
M  V30 2361 H 225.672 -0.697278 -0.281615 0
M  V30 2362 H 227.643 -2.97087 -0.279621 0
M  V30 2363 C 226.392 -2.80983 -2.04802 0
M  V30 2364 H 225.715 -3.61062 -1.7168 0
M  V30 2365 H 227.155 -3.2705 -2.69841 0
M  V30 2366 C 225.614 -1.79228 -2.8527 0
M  V30 2367 O 226.144 -1.25962 -3.8144 0
M  V30 2368 N 224.35 -1.48647 -2.49704 0
M  V30 2369 H 223.897 -1.92155 -1.71564 0
M  V30 2370 H 223.855 -0.808115 -3.03837 0
M  V30 2371 N 227.627 0.131896 -1.57047 0
M  V30 2372 C 228.577 1.1679 -1.95816 0
M  V30 2373 C 229.561 1.37756 -0.831393 0
M  V30 2374 O 230.753 1.39065 -1.09499 0
M  V30 2375 C 227.882 2.49778 -2.35512 0
M  V30 2376 C 226.968 2.32342 -3.54793 0
M  V30 2377 N 227.359 1.8469 -4.70875 0
M  V30 2378 C 225.657 2.63043 -3.60173 0
M  V30 2379 C 226.358 1.80656 -5.52936 0
M  V30 2380 N 225.334 2.24528 -4.95064 0
M  V30 2381 H 229.136 0.791818 -2.83033 0
M  V30 2382 H 226.65 0.339791 -1.58805 0
M  V30 2383 H 228.647 3.24692 -2.61498 0
M  V30 2384 H 227.307 2.88156 -1.49654 0
M  V30 2385 H 228.318 1.54429 -4.9434 0
M  V30 2386 H 224.995 3.05193 -2.84892 0
M  V30 2387 H 226.385 1.45178 -6.56028 0
M  V30 2388 N 229.106 1.52395 0.401703 0
M  V30 2389 C 230.334 1.70676 1.16949 0
M  V30 2390 C 230.749 0.419503 1.8408 0
M  V30 2391 O 230.106 -0.605061 1.72178 0
M  V30 2392 C 230.157 2.84753 2.22706 0
M  V30 2393 O 229.878 4.08495 1.58314 0
M  V30 2394 C 231.379 3.14608 3.12309 0
M  V30 2395 H 228.599 0.571787 0.351142 0
M  V30 2396 H 231.143 1.98987 0.471652 0
M  V30 2397 H 229.298 2.58941 2.88147 0
M  V30 2398 H 229.712 4.72117 2.28485 0
M  V30 2399 H 231.186 3.97923 3.82572 0
M  V30 2400 H 231.663 2.28464 3.75101 0
M  V30 2401 H 232.269 3.42212 2.52529 0
M  V30 2402 N 230.584 -0.659388 1.43143 0
M  V30 2403 C 231.514 -1.78422 1.50625 0
M  V30 2404 C 232.495 -1.66216 0.361443 0
M  V30 2405 O 233.68 -1.85404 0.577834 0
M  V30 2406 C 230.81 -3.16815 1.42287 0
M  V30 2407 C 229.764 -3.43777 2.54954 0
M  V30 2408 C 229.09 -4.81905 2.31671 0
M  V30 2409 C 230.39 -3.39134 3.97222 0
M  V30 2410 H 232.084 -1.72417 2.44771 0
M  V30 2411 H 229.63 -0.828084 1.17808 0
M  V30 2412 H 231.583 -3.95253 1.46127 0
M  V30 2413 H 230.307 -3.23534 0.446435 0
M  V30 2414 H 228.966 -2.67707 2.50457 0
M  V30 2415 H 228.614 -4.85294 1.32284 0
M  V30 2416 H 228.314 -5.00906 3.07192 0
M  V30 2417 H 229.838 -5.62609 2.37284 0
M  V30 2418 H 231.252 -4.07518 4.03239 0
M  V30 2419 H 229.649 -3.69671 4.72719 0
M  V30 2420 H 230.719 -2.37426 4.22797 0
M  V30 2421 N 232.062 -1.29571 -0.897171 0
M  V30 2422 C 233.339 -1.08365 -1.62839 0
M  V30 2423 C 233.719 0.371331 -2.07808 0
M  V30 2424 O 233.067 1.3606 -1.83576 0
M  V30 2425 C 233.277 -2.0735 -2.80726 0
M  V30 2426 C 234.625 -2.38406 -3.51351 0
M  V30 2427 O 235.649 -2.05564 -2.90898 0
M  V30 2428 O 234.508 -2.9453 -4.60341 0
M  V30 2429 H 231.602 -0.415345 -0.715134 0
M  V30 2430 H 234.148 -1.40952 -0.945018 0
M  V30 2431 H 232.92 -3.05339 -2.44711 0
M  V30 2432 H 232.543 -1.75507 -3.56767 0
M  V30 2433 N 233.54 1.10788 -1.12088 0
M  V30 2434 C 234.787 1.82671 -0.873931 0
M  V30 2435 C 235.115 1.85004 0.600311 0
M  V30 2436 O 234.37 1.30365 1.45957 0
M  V30 2437 C 234.669 3.29294 -1.38926 0
M  V30 2438 C 234.335 3.47113 -2.87791 0
M  V30 2439 C 232.997 3.51684 -3.28439 0
M  V30 2440 C 235.349 3.52808 -3.83635 0
M  V30 2441 C 232.677 3.59513 -4.63646 0
M  V30 2442 C 235.029 3.62169 -5.18668 0
M  V30 2443 C 233.693 3.65003 -5.58864 0
M  V30 2444 H 232.963 0.668441 -0.319794 0
M  V30 2445 H 235.61 1.30613 -1.40045 0
M  V30 2446 H 233.915 3.83894 -0.783122 0
M  V30 2447 H 235.612 3.83416 -1.17443 0
M  V30 2448 H 232.202 3.4423 -2.5535 0
M  V30 2449 H 236.386 3.4853 -3.53328 0
M  V30 2450 H 231.642 3.59987 -4.94185 0
M  V30 2451 H 235.816 3.6552 -5.92763 0
M  V30 2452 H 233.443 3.70822 -6.63623 0
M  V30 2453 N 235.018 0.912232 1.28515 0
M  V30 2454 C 236.295 0.463597 1.90027 0
M  V30 2455 C 236.675 -1.05753 1.82701 0
M  V30 2456 O 236.023 -1.90492 1.26194 0
M  V30 2457 C 236.233 0.992253 3.34597 0
M  V30 2458 C 237.581 1.04344 4.11579 0
M  V30 2459 O 238.605 0.94079 3.43551 0
M  V30 2460 O 237.464 1.1995 5.33174 0
M  V30 2461 H 234.558 0.146666 0.813891 0
M  V30 2462 H 237.104 1.00292 1.36893 0
M  V30 2463 H 235.876 2.03623 3.34146 0
M  V30 2464 H 235.499 0.433672 3.95228 0
M  V30 2465 N 236.496 -1.42363 0.676048 0
M  V30 2466 C 237.459 -2.29199 0.00766941 0
M  V30 2467 C 238.459 -1.43389 -0.727745 0
M  V30 2468 O 239.649 -1.64764 -0.56556 0
M  V30 2469 C 236.781 -3.2591 -0.999785 0
M  V30 2470 H 237.974 -2.89794 0.771988 0
M  V30 2471 H 235.527 -1.50024 0.438468 0
M  V30 2472 H 236.262 -2.70256 -1.79255 0
M  V30 2473 H 236.047 -3.89202 -0.475829 0
M  V30 2474 H 237.537 -3.91028 -1.46583 0
M  V30 2475 N 237.974 -0.419461 -1.51915 0
M  V30 2476 C 238.904 0.391813 -2.30189 0
M  V30 2477 C 239.885 1.03699 -1.34836 0
M  V30 2478 O 241.07 1.04403 -1.63748 0
M  V30 2479 C 238.2 1.50312 -3.13087 0
M  V30 2480 C 237.154 0.9824 -4.16573 0
M  V30 2481 C 236.48 2.18809 -4.8788 0
M  V30 2482 C 237.78 0.0292356 -5.22292 0
M  V30 2483 H 239.474 -0.26135 -2.98257 0
M  V30 2484 H 237.02 -0.127134 -1.43438 0
M  V30 2485 H 238.973 2.07773 -3.66617 0
M  V30 2486 H 237.697 2.18431 -2.42807 0
M  V30 2487 H 236.356 0.430119 -3.64068 0
M  V30 2488 H 236.004 2.85507 -4.14119 0
M  V30 2489 H 235.704 1.84615 -5.57845 0
M  V30 2490 H 237.228 2.76858 -5.44226 0
M  V30 2491 H 238.642 0.512976 -5.71 0
M  V30 2492 H 237.039 -0.2244 -5.9968 0
M  V30 2493 H 238.109 -0.912931 -4.76228 0
M  V30 2494 N 239.452 1.56882 -0.150215 0
M  V30 2495 C 240.701 1.95403 0.500071 0
M  V30 2496 C 241.014 1.03777 1.658 0
M  V30 2497 O 242.22 1.31889 2.37313 0
M  V30 2498 C 240.676 3.4738 0.941018 0
M  V30 2499 C 240.284 4.47596 -0.190158 0
M  V30 2500 C 242.028 3.9476 1.56091 0
M  V30 2501 C 239.935 5.90787 0.269237 0
M  V30 2502 H 238.865 0.729515 0.190588 0
M  V30 2503 H 241.516 1.81988 -0.235074 0
M  V30 2504 H 239.898 3.56138 1.73152 0
M  V30 2505 H 241.072 4.50536 -0.967157 0
M  V30 2506 H 239.387 4.10151 -0.718666 0
M  V30 2507 H 241.984 4.99181 1.9163 0
M  V30 2508 H 242.327 3.36494 2.45107 0
M  V30 2509 H 242.86 3.88932 0.835249 0
M  V30 2510 H 239.599 6.52879 -0.585621 0
M  V30 2511 H 239.119 5.912 1.01204 0
M  V30 2512 H 240.798 6.42979 0.720176 0
M  V30 2513 N 240.93 -0.123565 1.57115 0
M  V30 2514 C 241.878 -1.17082 2.00984 0
M  V30 2515 C 242.872 -1.43136 0.906009 0
M  V30 2516 O 244.078 -1.43152 1.09121 0
M  V30 2517 H 240.453 -0.394653 0.64012 0
M  V30 2518 H 242.424 -0.774292 2.88179 0
M  V30 2519 C 241.173 -2.49057 2.42623 0
M  V30 2520 H 240.496 -2.29846 3.27125 0
M  V30 2521 H 241.936 -3.20906 2.7712 0
M  V30 2522 C 240.395 -3.11305 1.28805 0
M  V30 2523 O 240.925 -3.97171 0.60153 0
M  V30 2524 N 239.131 -2.71111 1.04628 0
M  V30 2525 H 238.678 -2.01382 1.60634 0
M  V30 2526 H 238.636 -3.1309 0.286685 0
M  V30 2527 N 242.408 -1.52605 -0.393616 0
M  V30 2528 C 243.633 -1.71592 -1.16495 0
M  V30 2529 C 244.058 -0.43133 -1.83088 0
M  V30 2530 O 243.416 0.612523 -1.7064 0
M  V30 2531 C 243.464 -2.86318 -2.19213 0
M  V30 2532 O 242.568 -2.52969 -3.257 0
M  V30 2533 H 241.909 -0.570734 -0.33935 0
M  V30 2534 H 244.439 -1.99377 -0.459324 0
M  V30 2535 H 244.449 -3.1168 -2.63286 0
M  V30 2536 H 243.124 -3.79511 -1.7013 0
M  V30 2537 H 241.701 -2.38332 -2.86797 0
M  V30 2538 N 243.887 0.651787 -1.4349 0
M  V30 2539 C 244.817 1.77621 -1.51569 0
M  V30 2540 C 245.798 1.66022 -0.370253 0
M  V30 2541 O 246.983 1.85095 -0.587658 0
M  V30 2542 C 244.113 3.16056 -1.43966 0
M  V30 2543 C 243.067 3.4242 -2.56774 0
M  V30 2544 C 242.393 4.8067 -2.34223 0
M  V30 2545 C 243.693 3.37023 -3.99015 0
M  V30 2546 H 245.387 1.71117 -2.45681 0
M  V30 2547 H 242.933 0.821825 -1.18246 0
M  V30 2548 H 244.886 3.94472 -1.48221 0
M  V30 2549 H 243.61 3.23293 -0.463586 0
M  V30 2550 H 242.269 2.66375 -2.51873 0
M  V30 2551 H 241.917 4.84585 -1.34856 0
M  V30 2552 H 241.617 4.9927 -3.09844 0
M  V30 2553 H 243.141 5.61342 -2.40265 0
M  V30 2554 H 244.555 4.05374 -4.05395 0
M  V30 2555 H 242.952 3.67159 -4.74673 0
M  V30 2556 H 244.022 2.3518 -4.2405 0
M  V30 2557 N 245.365 1.30045 0.890287 0
M  V30 2558 C 246.313 1.15873 2.01683 0
M  V30 2559 C 247.307 0.0719403 1.69247 0
M  V30 2560 O 248.513 0.232414 1.78493 0
M  V30 2561 H 244.888 0.358203 0.661207 0
M  V30 2562 H 246.859 2.11229 2.10772 0
M  V30 2563 C 245.608 0.861842 3.36849 0
M  V30 2564 H 244.931 1.69016 3.62317 0
M  V30 2565 H 246.371 0.802762 4.16331 0
M  V30 2566 C 244.83 -0.435132 3.34078 0
M  V30 2567 O 245.36 -1.4583 3.74295 0
M  V30 2568 N 243.566 -0.444377 2.87182 0
M  V30 2569 H 243.113 0.388723 2.5465 0
M  V30 2570 H 243.071 -1.31213 2.85711 0
M  V30 2571 N 246.843 -1.10192 1.12674 0
M  V30 2572 C 247.753 -2.20172 0.810026 0
M  V30 2573 C 248.769 -1.72821 -0.202188 0
M  V30 2574 O 249.945 -2.01369 -0.0351691 0
M  V30 2575 C 247.01 -3.45631 0.272007 0
M  V30 2576 C 246.071 -4.07704 1.34447 0
M  V30 2577 C 245.304 -5.27175 0.832029 0
M  V30 2578 O 245.527 -5.69425 -0.333284 0
M  V30 2579 O 244.461 -5.80168 1.60277 0
M  V30 2580 H 248.287 -2.49701 1.72867 0
M  V30 2581 H 245.872 -1.18977 0.903597 0
M  V30 2582 H 247.754 -4.21394 -0.0230219 0
M  V30 2583 H 246.429 -3.17723 -0.619164 0
M  V30 2584 H 245.336 -3.33614 1.6927 0
M  V30 2585 H 246.669 -4.3982 2.2095 0
M  V30 2586 N 248.321 -0.919034 -1.28029 0
M  V30 2587 C 249.284 -0.416182 -2.2539 0
M  V30 2588 C 250.284 0.460438 -1.54067 0
M  V30 2589 O 251.474 0.262744 -1.72207 0
M  V30 2590 C 248.606 0.402707 -3.38513 0
M  V30 2591 H 249.799 -1.27629 -2.71387 0
M  V30 2592 H 247.352 -0.698919 -1.39803 0
M  V30 2593 H 248.087 1.282 -2.97885 0
M  V30 2594 H 247.872 -0.225698 -3.9145 0
M  V30 2595 H 249.362 0.745191 -4.10897 0
M  V30 2596 N 249.799 1.42003 -0.683588 0
M  V30 2597 C 250.731 2.29183 0.0283068 0
M  V30 2598 C 251.744 1.4415 0.756611 0
M  V30 2599 O 252.933 1.67779 0.609306 0
M  V30 2600 C 250.033 3.21765 1.06398 0
M  V30 2601 C 249.206 4.35496 0.407723 0
M  V30 2602 C 248.265 5.08737 1.34437 0
M  V30 2603 O 247.291 5.62948 0.841318 0
M  V30 2604 N 248.493 5.15075 2.67728 0
M  V30 2605 H 251.258 2.9092 -0.720105 0
M  V30 2606 H 248.819 1.53025 -0.528682 0
M  V30 2607 H 250.811 3.6763 1.69204 0
M  V30 2608 H 249.381 2.61418 1.71404 0
M  V30 2609 H 248.601 3.92165 -0.400012 0
M  V30 2610 H 249.889 5.08776 -0.0490956 0
M  V30 2611 H 249.287 4.72457 3.11129 0
M  V30 2612 H 247.844 5.64556 3.2576 0
M  V30 2613 N 251.277 0.427512 1.51691 0
M  V30 2614 C 252.24 -0.377132 2.26076 0
M  V30 2615 C 253.24 -0.958089 1.29141 0
M  V30 2616 O 254.43 -0.83408 1.52934 0
M  V30 2617 C 251.562 -1.53262 3.04506 0
M  V30 2618 H 252.755 0.27464 2.9864 0
M  V30 2619 H 250.308 0.180445 1.55255 0
M  V30 2620 H 251.043 -2.22072 2.36335 0
M  V30 2621 H 250.828 -1.12232 3.75694 0
M  V30 2622 H 252.318 -2.10135 3.60878 0
M  V30 2623 N 252.755 -1.56801 0.158532 0
M  V30 2624 C 254.003 -1.96102 -0.488712 0
M  V30 2625 C 254.324 -1.04498 -1.64636 0
M  V30 2626 O 253.594 -0.108783 -1.95598 0
M  V30 2627 H 252.174 -0.724102 -0.183535 0
M  V30 2628 H 254.836 -1.93457 0.236728 0
M  V30 2629 H 253.932 -3.00097 -0.857219 0
M  V30 2630 N 254.233 0.115231 -1.57178 0
M  V30 2631 C 255.51 0.852873 -1.76027 0
M  V30 2632 C 255.89 1.97892 -0.73498 0
M  V30 2633 O 255.238 2.27232 0.24036 0
M  V30 2634 C 255.448 1.36608 -3.21153 0
M  V30 2635 C 256.796 1.81692 -3.83762 0
M  V30 2636 O 257.82 1.46278 -3.24779 0
M  V30 2637 O 256.679 2.47104 -4.87444 0
M  V30 2638 H 253.773 0.405296 -0.720877 0
M  V30 2639 H 256.319 0.0986785 -1.69413 0
M  V30 2640 H 255.091 0.558357 -3.87296 0
M  V30 2641 H 254.714 2.18287 -3.3232 0
M  V30 2642 N 255.711 1.52812 0.385517 0
M  V30 2643 C 256.957 1.68275 1.13188 0
M  V30 2644 C 257.29 0.423179 1.89533 0
M  V30 2645 O 256.565 -0.579113 1.85679 0
M  V30 2646 C 256.848 2.92001 2.1073 0
M  V30 2647 C 256.701 4.28067 1.38125 0
M  V30 2648 C 258.02 3.11283 3.11113 0
M  V30 2649 H 255.139 0.612352 0.410115 0
M  V30 2650 H 257.781 1.85415 0.414869 0
M  V30 2651 H 255.931 2.77519 2.71874 0
M  V30 2652 H 257.603 4.54324 0.799187 0
M  V30 2653 H 255.846 4.28388 0.683092 0
M  V30 2654 H 256.517 5.10733 2.09417 0
M  V30 2655 H 258.993 3.2482 2.6006 0
M  V30 2656 H 257.869 3.99325 3.76605 0
M  V30 2657 H 258.13 2.25656 3.80173 0
M  V30 2658 N 257.189 -0.644168 1.43834 0
M  V30 2659 C 258.435 -1.40603 1.46146 0
M  V30 2660 C 258.768 -1.93997 0.0887717 0
M  V30 2661 O 258.043 -1.72854 -0.891724 0
M  V30 2662 C 258.326 -2.58086 2.51124 0
M  V30 2663 C 258.179 -2.10126 3.97702 0
M  V30 2664 C 259.498 -3.60291 2.52742 0
M  V30 2665 H 256.617 -0.509905 0.532134 0
M  V30 2666 H 259.259 -0.729502 1.75437 0
M  V30 2667 H 257.409 -3.15801 2.26278 0
M  V30 2668 H 259.081 -1.57342 4.33637 0
M  V30 2669 H 257.324 -1.41419 4.10101 0
M  V30 2670 H 257.995 -2.94649 4.66783 0
M  V30 2671 H 260.471 -3.12352 2.7491 0
M  V30 2672 H 259.347 -4.40032 3.28121 0
M  V30 2673 H 259.608 -4.1349 1.56455 0
M  V30 2674 N 258.668 -1.30515 -0.883378 0
M  V30 2675 C 259.598 -1.19607 -2.00541 0
M  V30 2676 C 260.579 -0.086346 -1.69881 0
M  V30 2677 O 261.764 -0.268654 -1.92333 0
M  V30 2678 C 258.894 -0.888758 -3.35736 0
M  V30 2679 C 257.848 -1.95659 -3.8066 0
M  V30 2680 C 257.174 -1.50224 -5.13164 0
M  V30 2681 C 258.474 -3.36788 -3.99213 0
M  V30 2682 H 260.168 -2.13476 -2.09925 0
M  V30 2683 H 257.714 -1.02775 -1.00863 0
M  V30 2684 H 259.667 -0.799094 -4.13754 0
M  V30 2685 H 258.391 0.0856125 -3.26488 0
M  V30 2686 H 257.05 -2.03591 -3.04871 0
M  V30 2687 H 256.698 -0.516092 -5.00345 0
M  V30 2688 H 256.398 -2.2165 -5.44192 0
M  V30 2689 H 257.922 -1.42639 -5.93706 0
M  V30 2690 H 259.336 -3.31605 -4.67665 0
M  V30 2691 H 257.733 -4.06314 -4.41621 0
M  V30 2692 H 258.803 -3.78561 -3.03017 0
M  V30 2693 N 260.146 1.09593 -1.13257 0
M  V30 2694 C 261.393 1.81734 -0.893257 0
M  V30 2695 C 261.721 1.8563 0.580656 0
M  V30 2696 O 260.976 1.31906 1.44566 0
M  V30 2697 C 261.275 3.27802 -1.42411 0
M  V30 2698 C 260.941 3.44041 -2.91456 0
M  V30 2699 C 259.603 3.48181 -3.3215 0
M  V30 2700 C 261.955 3.48719 -3.87356 0
M  V30 2701 C 259.283 3.54575 -4.67433 0
M  V30 2702 C 261.635 3.56648 -5.2248 0
M  V30 2703 C 260.299 3.59055 -5.62704 0
M  V30 2704 H 259.569 0.665011 -0.326866 0
M  V30 2705 H 262.216 1.2912 -1.41422 0
M  V30 2706 H 260.521 3.83042 -0.823795 0
M  V30 2707 H 262.218 3.82149 -1.21503 0
M  V30 2708 H 258.808 3.41502 -2.58987 0
M  V30 2709 H 262.992 3.44763 -3.57004 0
M  V30 2710 H 258.248 3.54725 -4.97976 0
M  V30 2711 H 262.422 3.59212 -5.96607 0
M  V30 2712 H 260.049 3.63763 -6.67518 0
M  V30 2713 N 261.624 0.925811 1.2754 0
M  V30 2714 C 262.574 0.394488 2.24561 0
M  V30 2715 C 263.558 -0.500183 1.52928 0
M  V30 2716 O 264.75 -0.337936 1.73744 0
M  V30 2717 C 261.879 -0.353328 3.41477 0
M  V30 2718 C 260.965 0.557752 4.20416 0
M  V30 2719 N 261.356 1.67674 4.77199 0
M  V30 2720 C 259.654 0.360404 4.44541 0
M  V30 2721 C 260.355 2.24324 5.36706 0
M  V30 2722 N 259.331 1.53305 5.21535 0
M  V30 2723 H 263.133 1.2489 2.66045 0
M  V30 2724 H 260.647 0.779864 1.4245 0
M  V30 2725 H 262.644 -0.7509 4.10082 0
M  V30 2726 H 261.304 -1.20469 3.01525 0
M  V30 2727 H 262.315 2.05915 4.75204 0
M  V30 2728 H 258.992 -0.450454 4.15063 0
M  V30 2729 H 260.382 3.18521 5.91603 0
M  V30 2730 N 263.102 -1.41638 0.69111 0
M  V30 2731 C 264.35 -2.00902 0.219758 0
M  V30 2732 C 264.671 -1.54994 -1.18329 0
M  V30 2733 O 263.941 -0.778628 -1.79762 0
M  V30 2734 H 262.521 -0.74289 0.0782558 0
M  V30 2735 H 265.183 -1.73327 0.891271 0
M  V30 2736 H 264.279 -3.11224 0.233708 0
M  V30 2737 N 264.58 -0.43555 -1.51462 0
M  V30 2738 C 265.82 0.130708 -2.03982 0
M  V30 2739 C 266.184 1.40117 -1.31268 0
M  V30 2740 O 267.385 2.04755 -1.74152 0
M  V30 2741 C 265.656 0.346102 -3.5572 0
M  V30 2742 S 267.215 0.876022 -4.29967 0
M  V30 2743 H 264.033 0.0326881 -0.710248 0
M  V30 2744 H 266.635 -0.594544 -1.8624 0
M  V30 2745 H 265.339 -0.584911 -4.0621 0
M  V30 2746 H 264.87 1.09849 -3.77752 0
M  V30 2747 H 266.885 2.15379 -4.47019 0
M  V30 2748 N 266.058 1.56714 -0.166846 0
M  V30 2749 C 267.298 1.98641 0.481763 0
M  V30 2750 C 267.662 1.05038 1.6072 0
M  V30 2751 O 268.863 1.36087 2.31805 0
M  V30 2752 C 267.134 3.44362 0.956517 0
M  V30 2753 S 268.693 4.08317 1.60694 0
M  V30 2754 H 265.511 0.693873 0.155116 0
M  V30 2755 H 268.113 1.93719 -0.263251 0
M  V30 2756 H 266.817 4.10204 0.126936 0
M  V30 2757 H 266.348 3.53041 1.73568 0
M  V30 2758 H 268.363 4.02999 2.89494 0
M  V30 2759 N 267.536 -0.106894 1.57237 0
M  V30 2760 C 268.486 -1.1366 1.9765 0
M  V30 2761 C 269.47 -1.36416 0.853203 0
M  V30 2762 O 270.662 -1.37305 1.11697 0
M  V30 2763 C 267.791 -2.46 2.39455 0
M  V30 2764 C 266.877 -2.26668 3.58445 0
M  V30 2765 N 267.268 -1.77176 4.73754 0
M  V30 2766 C 265.566 -2.57279 3.64312 0
M  V30 2767 C 266.267 -1.71836 5.5574 0
M  V30 2768 N 265.243 -2.16623 4.98573 0
M  V30 2769 H 269.045 -0.74669 2.84256 0
M  V30 2770 H 266.559 -0.314483 1.59326 0
M  V30 2771 H 268.556 -3.2049 2.6663 0
M  V30 2772 H 267.216 -2.85738 1.54219 0
M  V30 2773 H 268.227 -1.46545 4.96734 0
M  V30 2774 H 264.904 -3.00622 2.89711 0
M  V30 2775 H 266.294 -1.34723 6.58255 0
M  V30 2776 N 269.014 -1.53014 -0.377408 0
M  V30 2777 C 269.962 -1.7927 -1.48206 0
M  V30 2778 C 270.956 -0.661195 -1.55963 0
M  V30 2779 O 272.162 -0.843908 -1.58991 0
M  V30 2780 H 268.537 -0.567425 -0.493491 0
M  V30 2781 H 270.508 -2.71753 -1.2326 0
M  V30 2782 C 269.257 -1.98894 -2.85196 0
M  V30 2783 H 268.58 -2.85395 -2.79981 0
M  V30 2784 H 270.02 -2.21249 -3.61698 0
M  V30 2785 C 268.479 -0.764691 -3.28107 0
M  V30 2786 O 269.009 0.0523226 -4.01666 0
M  V30 2787 N 267.215 -0.591493 -2.84517 0
M  V30 2788 H 266.762 -1.25749 -2.24822 0
M  V30 2789 H 266.72 0.226253 -3.13585 0
M  V30 2790 N 270.492 0.636531 -1.44174 0
M  V30 2791 C 271.903 1.21806 -1.41493 0
M  V30 2792 C 272.254 1.95785 -0.1275 0
M  V30 2793 O 271.379 2.02147 0.772376 0
M  V30 2794 C 271.974 2.21551 -2.56321 0
M  V30 2795 C 270.533 2.75143 -2.56853 0
M  V30 2796 C 269.68 1.50052 -2.33195 0
M  V30 2797 H 272.631 0.427531 -1.52833 0
M  V30 2798 H 272.652 3.0405 -2.28765 0
M  V30 2799 H 272.164 1.67679 -3.50008 0
M  V30 2800 H 270.265 3.33033 -1.67093 0
M  V30 2801 H 270.378 3.2155 -3.55165 0
M  V30 2802 H 268.742 1.77993 -1.82183 0
M  V30 2803 H 269.525 0.980903 -3.28988 0
M  V30 2804 N 271.97 1.30982 0.876444 0
M  V30 2805 C 273.198 1.23242 1.6619 0
M  V30 2806 C 273.613 -0.203345 1.87702 0
M  V30 2807 O 272.97 -1.13317 1.43057 0
M  V30 2808 C 273.021 1.96623 3.03351 0
M  V30 2809 O 272.742 3.34594 2.82804 0
M  V30 2810 C 274.243 1.95644 3.97792 0
M  V30 2811 H 271.463 0.426126 0.518322 0
M  V30 2812 H 274.007 1.7275 1.09442 0
M  V30 2813 H 272.162 1.50892 3.56806 0
M  V30 2814 H 272.576 3.71873 3.69879 0
M  V30 2815 H 274.05 2.51511 4.91372 0
M  V30 2816 H 274.527 0.937395 4.2908 0
M  V30 2817 H 275.133 2.41225 3.50272 0
M  V30 2818 N 273.449 -1.08991 1.13837 0
M  V30 2819 C 274.697 -1.80899 0.901098 0
M  V30 2820 C 275.018 -1.86356 -0.574134 0
M  V30 2821 O 274.288 -1.35235 -1.41733 0
M  V30 2822 H 272.868 -0.669966 0.330386 0
M  V30 2823 H 275.53 -1.318 1.43578 0
M  V30 2824 H 274.626 -2.83929 1.29578 0
M  V30 2825 N 274.927 -0.932562 -1.27047 0
M  V30 2826 C 276.176 -0.571351 -1.93439 0
M  V30 2827 C 276.489 0.892467 -1.74053 0
M  V30 2828 O 277.695 1.36267 -2.34826 0
M  V30 2829 C 276.151 -0.97106 -3.46552 0
M  V30 2830 C 275.759 -2.4559 -3.74686 0
M  V30 2831 C 277.503 -0.681333 -4.18997 0
M  V30 2832 C 275.41 -2.79475 -5.21198 0
M  V30 2833 H 274.34 -0.209966 -0.724176 0
M  V30 2834 H 276.991 -1.13403 -1.44263 0
M  V30 2835 H 275.373 -0.336983 -3.94564 0
M  V30 2836 H 276.547 -3.13829 -3.37414 0
M  V30 2837 H 274.862 -2.71802 -3.15456 0
M  V30 2838 H 277.459 -0.910939 -5.26883 0
M  V30 2839 H 277.802 0.381628 -4.14547 0
M  V30 2840 H 278.335 -1.27473 -3.76823 0
M  V30 2841 H 275.074 -3.847 -5.30741 0
M  V30 2842 H 274.594 -2.1589 -5.596 0
M  V30 2843 H 276.273 -2.67478 -5.89122 0
M  V30 2844 N 276.405 1.4127 -0.698611 0
M  V30 2845 C 277.682 1.94955 -0.158762 0
M  V30 2846 C 278.062 1.63781 1.33188 0
M  V30 2847 O 277.41 0.946423 2.07979 0
M  V30 2848 C 277.62 3.46044 -0.453309 0
M  V30 2849 C 278.968 4.22872 -0.382707 0
M  V30 2850 O 279.992 3.54076 -0.388396 0
M  V30 2851 O 278.851 5.45407 -0.345463 0
M  V30 2852 H 275.945 0.82683 -0.0167505 0
M  V30 2853 H 278.491 1.50971 -0.77498 0
M  V30 2854 H 277.263 3.62028 -1.48498 0
M  V30 2855 H 276.886 3.97128 0.19373 0
M  V30 2856 N 277.883 0.443576 1.51229 0
M  V30 2857 C 279.294 -0.0180867 1.86691 0
M  V30 2858 C 279.645 -1.41384 1.36033 0
M  V30 2859 O 278.77 -2.04291 0.713722 0
M  V30 2860 C 279.365 -0.039597 3.38777 0
M  V30 2861 C 277.924 -0.445692 3.73752 0
M  V30 2862 C 277.071 0.357584 2.74985 0
M  V30 2863 H 280.022 0.659138 1.44364 0
M  V30 2864 H 280.043 -0.847761 3.70936 0
M  V30 2865 H 279.555 0.976382 3.75617 0
M  V30 2866 H 277.656 -1.46704 3.42503 0
M  V30 2867 H 277.769 -0.166155 4.78812 0
M  V30 2868 H 276.133 -0.184973 2.54027 0
M  V30 2869 H 276.916 1.37256 3.14668 0
M  V30 2870 N 279.361 -1.56624 0.175154 0
M  V30 2871 C 280.589 -2.01374 -0.474971 0
M  V30 2872 C 281.004 -1.05537 -1.56548 0
M  V30 2873 O 280.361 -0.0568668 -1.82411 0
M  V30 2874 C 280.412 -3.45923 -1.04975 0
M  V30 2875 O 280.133 -4.381 -0.00276605 0
M  V30 2876 C 281.634 -4.06093 -1.77773 0
M  V30 2877 H 278.854 -0.659962 -0.121206 0
M  V30 2878 H 281.398 -2.02601 0.27801 0
M  V30 2879 H 279.553 -3.45458 -1.75321 0
M  V30 2880 H 279.967 -5.22753 -0.427681 0
M  V30 2881 H 281.441 -5.09147 -2.13245 0
M  V30 2882 H 281.918 -3.48405 -2.67414 0
M  V30 2883 H 282.524 -4.10272 -1.12059 0
M  V30 2884 N 280.839 0.0985539 -1.57292 0
M  V30 2885 C 281.769 1.12064 -2.04851 0
M  V30 2886 C 282.75 1.41981 -0.936767 0
M  V30 2887 O 283.935 1.52071 -1.20781 0
M  V30 2888 C 281.065 2.44144 -2.47004 0
M  V30 2889 C 280.019 2.28643 -3.6181 0
M  V30 2890 C 279.345 3.65869 -3.89929 0
M  V30 2891 C 280.645 1.72986 -4.92822 0
M  V30 2892 H 282.339 0.724979 -2.9049 0
M  V30 2893 H 279.885 0.34729 -1.39749 0
M  V30 2894 H 281.838 3.15914 -2.78884 0
M  V30 2895 H 280.562 2.85639 -1.5836 0
M  V30 2896 H 279.221 1.59318 -3.30172 0
M  V30 2897 H 278.869 4.04885 -2.98458 0
M  V30 2898 H 278.569 3.56344 -4.67218 0
M  V30 2899 H 280.093 4.39112 -4.2428 0
M  V30 2900 H 281.507 2.34593 -5.23105 0
M  V30 2901 H 279.904 1.74229 -5.74251 0
M  V30 2902 H 280.974 0.689007 -4.7998 0
M  V30 2903 N 282.317 1.53212 0.369288 0
M  V30 2904 C 283.227 1.82342 1.47609 0
M  V30 2905 C 284.243 0.711532 1.58787 0
M  V30 2906 O 285.419 1.0012 1.74751 0
M  V30 2907 C 282.484 2.00393 2.8292 0
M  V30 2908 C 281.545 3.24297 2.81301 0
M  V30 2909 C 280.778 3.41478 4.10157 0
M  V30 2910 O 281.001 2.63033 5.06132 0
M  V30 2911 O 279.935 4.34817 4.16194 0
M  V30 2912 H 283.761 2.76366 1.25918 0
M  V30 2913 H 281.346 1.38547 0.559034 0
M  V30 2914 H 283.228 2.13859 3.63101 0
M  V30 2915 H 281.903 1.09559 3.04596 0
M  V30 2916 H 280.81 3.16257 1.99831 0
M  V30 2917 H 282.143 4.15041 2.64578 0
M  V30 2918 N 283.795 -0.628877 1.44509 0
M  V30 2919 C 284.727 -1.754 1.47538 0
M  V30 2920 C 285.74 -1.58575 0.368506 0
M  V30 2921 O 286.929 -1.66847 0.634376 0
M  V30 2922 C 284.029 -3.1315 1.29577 0
M  V30 2923 C 283.202 -3.56413 2.53551 0
M  V30 2924 C 282.261 -4.7305 2.30457 0
M  V30 2925 O 281.287 -4.81247 3.03957 0
M  V30 2926 N 282.489 -5.64903 1.3366 0
M  V30 2927 H 285.254 -1.73272 2.44534 0
M  V30 2928 H 282.815 -0.813512 1.39977 0
M  V30 2929 H 284.807 -3.88902 1.11971 0
M  V30 2930 H 283.377 -3.09908 0.409371 0
M  V30 2931 H 282.597 -2.70847 2.86419 0
M  V30 2932 H 283.885 -3.82071 3.36005 0
M  V30 2933 H 283.283 -5.60975 0.729604 0
M  V30 2934 H 281.84 -6.40275 1.22032 0
M  V30 2935 N 285.273 -1.31445 -0.869486 0
M  V30 2936 C 286.519 -1.22347 -1.62489 0
M  V30 2937 C 286.874 0.216204 -1.91181 0
M  V30 2938 O 286.167 1.14977 -1.53268 0
M  V30 2939 C 286.361 -2.00145 -2.96102 0
M  V30 2940 C 286.19 -3.51531 -2.80456 0
M  V30 2941 C 284.96 -4.20882 -2.79618 0
M  V30 2942 C 287.158 -4.46471 -2.5528 0
M  V30 2943 N 285.14 -5.58421 -2.55027 0
M  V30 2944 C 286.511 -5.71682 -2.39957 0
M  V30 2945 C 288.566 -4.35892 -2.40629 0
M  V30 2946 C 287.269 -6.87511 -2.11472 0
M  V30 2947 C 289.295 -5.51505 -2.13532 0
M  V30 2948 C 288.657 -6.75707 -1.98998 0
M  V30 2949 H 284.756 -0.502815 -0.598917 0
M  V30 2950 H 287.34 -1.65639 -1.02332 0
M  V30 2951 H 285.511 -1.59221 -3.54264 0
M  V30 2952 H 287.243 -1.83063 -3.60929 0
M  V30 2953 H 283.998 -3.72857 -2.92018 0
M  V30 2954 H 284.422 -6.30841 -2.45701 0
M  V30 2955 H 289.064 -3.40533 -2.50593 0
M  V30 2956 H 286.782 -7.82897 -2.00245 0
M  V30 2957 H 290.368 -5.45238 -2.02995 0
M  V30 2958 H 289.248 -7.63655 -1.78326 0
M  V30 2959 N 286.751 1.08385 -1.14413 0
M  V30 2960 C 287.683 2.1519 -0.789036 0
M  V30 2961 C 288.696 1.61638 0.19417 0
M  V30 2962 O 289.885 1.78479 -0.0275711 0
M  V30 2963 C 286.985 3.38565 -0.15058 0
M  V30 2964 C 286.158 4.21501 -1.16857 0
M  V30 2965 C 285.217 5.23277 -0.553832 0
M  V30 2966 O 284.243 5.56041 -1.21686 0
M  V30 2967 N 285.445 5.76629 0.669296 0
M  V30 2968 H 288.21 2.46257 -1.70814 0
M  V30 2969 H 285.771 1.24198 -1.03858 0
M  V30 2970 H 287.763 4.03777 0.273181 0
M  V30 2971 H 286.333 3.05299 0.671667 0
M  V30 2972 H 285.553 3.52265 -1.76926 0
M  V30 2973 H 286.841 4.73731 -1.85624 0
M  V30 2974 H 286.239 5.52243 1.22654 0
M  V30 2975 H 284.796 6.43521 1.03556 0
M  V30 2976 N 288.23 0.939286 1.26551 0
M  V30 2977 C 289.458 0.602536 1.97932 0
M  V30 2978 C 289.873 -0.82206 1.69964 0
M  V30 2979 O 289.23 -1.54789 0.966784 0
M  V30 2980 C 289.281 0.832946 3.51773 0
M  V30 2981 O 289.002 2.20151 3.78768 0
M  V30 2982 C 290.503 0.506483 4.40397 0
M  V30 2983 H 287.723 0.227248 0.631347 0
M  V30 2984 H 290.267 1.25948 1.61113 0
M  V30 2985 H 288.422 0.222644 3.8676 0
M  V30 2986 H 288.836 2.26013 4.73306 0
M  V30 2987 H 290.31 0.718333 5.47306 0
M  V30 2988 H 290.787 -0.558451 4.35635 0
M  V30 2989 H 291.393 1.09543 4.10951 0
M  V30 2990 N 289.708 -1.40897 0.706093 0
M  V30 2991 C 290.638 -2.33418 0.0620085 0
M  V30 2992 C 291.619 -1.52385 -0.755827 0
M  V30 2993 O 292.804 -1.80886 -0.706674 0
M  V30 2994 C 289.934 -3.36293 -0.867445 0
M  V30 2995 C 288.888 -4.27716 -0.155932 0
M  V30 2996 C 288.214 -5.2105 -1.20046 0
M  V30 2997 C 289.514 -5.12944 0.984149 0
M  V30 2998 H 291.208 -2.87527 0.83477 0
M  V30 2999 H 288.754 -1.38249 0.402875 0
M  V30 3000 H 290.707 -3.99949 -1.32735 0
M  V30 3001 H 289.431 -2.80556 -1.67199 0
M  V30 3002 H 288.09 -3.65498 0.284047 0
M  V30 3003 H 287.738 -4.61624 -1.99781 0
M  V30 3004 H 287.438 -5.83056 -0.729328 0
M  V30 3005 H 288.962 -5.87584 -1.66066 0
M  V30 3006 H 290.376 -5.70109 0.604048 0
M  V30 3007 H 288.773 -5.83945 1.38304 0
M  V30 3008 H 289.843 -4.49485 1.81911 0
M  V30 3009 N 291.186 -0.45159 -1.50991 0
M  V30 3010 C 292.149 0.341117 -2.26647 0
M  V30 3011 C 293.149 0.937422 -1.30649 0
M  V30 3012 O 294.339 0.809644 -1.54241 0
M  V30 3013 C 291.471 1.48398 -3.06905 0
M  V30 3014 H 292.664 -0.322117 -2.98165 0
M  V30 3015 H 290.217 -0.205122 -1.54948 0
M  V30 3016 H 290.952 2.18284 -2.39838 0
M  V30 3017 H 290.737 1.06241 -3.77432 0
M  V30 3018 H 292.227 2.04367 -3.64176 0
M  V30 3019 N 292.664 1.56529 -0.183458 0
M  V30 3020 C 293.596 2.15747 0.773697 0
M  V30 3021 C 294.609 1.1162 1.1851 0
M  V30 3022 O 295.798 1.3876 1.12285 0
M  V30 3023 C 292.898 2.6952 2.05456 0
M  V30 3024 C 292.071 3.98429 1.8048 0
M  V30 3025 C 291.13 4.37145 2.92901 0
M  V30 3026 O 290.156 5.04791 2.6301 0
M  V30 3027 N 291.358 3.99695 4.2098 0
M  V30 3028 H 294.123 2.98505 0.26736 0
M  V30 3029 H 291.684 1.619 -0.0010878 0
M  V30 3030 H 293.676 2.92412 2.79781 0
M  V30 3031 H 292.246 1.91282 2.47245 0
M  V30 3032 H 291.466 3.8379 0.899947 0
M  V30 3033 H 292.754 4.82597 1.61175 0
M  V30 3034 H 292.152 3.4526 4.48121 0
M  V30 3035 H 290.709 4.27562 4.9197 0
M  V30 3036 N 294.142 -0.090211 1.57342 0
M  V30 3037 C 295.072 -1.10976 2.05443 0
M  V30 3038 C 296.053 -1.41482 0.944284 0
M  V30 3039 O 297.238 -1.51428 1.21586 0
M  V30 3040 C 294.368 -2.42831 2.48295 0
M  V30 3041 C 293.322 -2.26721 3.63018 0
M  V30 3042 C 292.648 -3.63796 3.91863 0
M  V30 3043 C 293.948 -1.7037 4.93732 0
M  V30 3044 H 295.642 -0.709564 2.9087 0
M  V30 3045 H 293.188 -0.339874 1.39932 0
M  V30 3046 H 295.141 -3.14431 2.80555 0
M  V30 3047 H 293.865 -2.84795 1.59873 0
M  V30 3048 H 292.524 -1.57565 3.31012 0
M  V30 3049 H 292.172 -4.03297 3.00601 0
M  V30 3050 H 291.872 -3.53861 4.69101 0
M  V30 3051 H 293.396 -4.36855 4.26603 0
M  V30 3052 H 294.81 -2.31816 5.24342 0
M  V30 3053 H 293.207 -1.71181 5.75167 0
M  V30 3054 H 294.277 -0.663542 4.80339 0
M  V30 3055 N 295.62 -1.53406 -0.361157 0
M  V30 3056 C 296.845 -1.74024 -1.12829 0
M  V30 3057 C 297.27 -0.470069 -1.82132 0
M  V30 3058 O 296.628 0.57619 -1.719 0
M  V30 3059 C 296.676 -2.90903 -2.13091 0
M  V30 3060 O 295.78 -2.59821 -3.20261 0
M  V30 3061 H 295.121 -0.577804 -0.327168 0
M  V30 3062 H 297.651 -2.00307 -0.41693 0
M  V30 3063 H 297.661 -3.17194 -2.56616 0
M  V30 3064 H 296.336 -3.83034 -1.62042 0
M  V30 3065 H 294.913 -2.44362 -2.81677 0
M  V30 3066 N 297.098 0.621204 -1.44841 0
M  V30 3067 C 298.344 1.3826 -1.48365 0
M  V30 3068 C 298.677 1.93831 -0.119624 0
M  V30 3069 O 297.952 1.74251 0.864111 0
M  V30 3070 C 298.235 2.54058 -2.55199 0
M  V30 3071 C 298.088 2.03772 -4.00995 0
M  V30 3072 C 299.407 3.56225 -2.58442 0
M  V30 3073 H 296.526 0.501374 -0.540179 0
M  V30 3074 H 299.168 0.7015 -1.76576 0
M  V30 3075 H 297.318 3.12162 -2.31274 0
M  V30 3076 H 298.99 1.50423 -4.36086 0
M  V30 3077 H 297.233 1.34876 -4.12299 0
M  V30 3078 H 297.904 2.87185 -4.71411 0
M  V30 3079 H 300.38 3.07939 -2.79844 0
M  V30 3080 H 299.256 4.34756 -3.3508 0
M  V30 3081 H 299.517 4.10949 -1.63013 0
M  V30 3082 N 298.576 1.31904 0.862503 0
M  V30 3083 C 299.486 1.22161 2.00285 0
M  V30 3084 C 300.502 0.136785 1.73462 0
M  V30 3085 O 301.678 0.355994 1.98229 0
M  V30 3086 C 298.743 0.937093 3.33796 0
M  V30 3087 C 297.804 2.10957 3.73893 0
M  V30 3088 C 297.037 1.83853 5.01033 0
M  V30 3089 O 297.26 0.777274 5.65079 0
M  V30 3090 O 296.194 2.69741 5.38074 0
M  V30 3091 H 300.02 2.18008 2.11439 0
M  V30 3092 H 297.605 1.11716 0.991957 0
M  V30 3093 H 299.487 0.794583 4.13841 0
M  V30 3094 H 298.162 0.00871894 3.23699 0
M  V30 3095 H 297.069 2.30752 2.94456 0
M  V30 3096 H 298.402 3.02046 3.88625 0
M  V30 3097 N 300.054 -1.07777 1.14986 0
M  V30 3098 C 301.001 -2.14867 0.842672 0
M  V30 3099 C 301.971 -1.6486 -0.202552 0
M  V30 3100 O 303.156 -1.90668 -0.0710568 0
M  V30 3101 C 300.296 -3.43486 0.333363 0
M  V30 3102 C 299.409 -4.07306 1.43965 0
M  V30 3103 C 298.544 -5.23744 0.886914 0
M  V30 3104 C 297.583 -5.79517 1.97043 0
M  V30 3105 N 296.72 -6.87291 1.4344 0
M  V30 3106 H 301.56 -2.40485 1.75986 0
M  V30 3107 H 299.097 -1.1801 0.878179 0
M  V30 3108 H 301.055 -4.17195 0.0198163 0
M  V30 3109 H 299.685 -3.18133 -0.546916 0
M  V30 3110 H 298.737 -3.31293 1.86946 0
M  V30 3111 H 300.049 -4.44771 2.25788 0
M  V30 3112 H 299.203 -6.04419 0.525651 0
M  V30 3113 H 297.942 -4.87685 0.0377957 0
M  V30 3114 H 296.947 -4.97491 2.34057 0
M  V30 3115 H 298.172 -6.17632 2.82325 0
M  V30 3116 H 296.118 -6.5318 0.607567 0
M  V30 3117 H 296.035 -7.23617 2.18895 0
M  V30 3118 H 297.303 -7.71682 1.10124 0
M  V30 3119 N 301.532 -0.945985 -1.26051 0
M  V30 3120 C 302.78 -0.594941 -1.93145 0
M  V30 3121 C 303.101 0.86953 -1.7454 0
M  V30 3122 O 302.371 1.61838 -1.10387 0
M  V30 3123 H 300.951 -0.217044 -0.714773 0
M  V30 3124 H 303.613 -1.20235 -1.53393 0
M  V30 3125 H 302.709 -0.816835 -3.01221 0
M  V30 3126 N 303.011 1.40521 -0.713556 0
M  V30 3127 C 304.257 2.01714 -0.261382 0
M  V30 3128 C 304.612 1.55562 1.13217 0
M  V30 3129 O 303.905 0.764893 1.7567 0
M  V30 3130 C 304.099 3.56317 -0.278 0
M  V30 3131 C 303.928 4.17476 -1.67163 0
M  V30 3132 C 302.698 4.50998 -2.2788 0
M  V30 3133 C 304.896 4.42472 -2.6215 0
M  V30 3134 N 302.878 4.9754 -3.5962 0
M  V30 3135 C 304.249 4.90985 -3.78594 0
M  V30 3136 C 306.304 4.24508 -2.60188 0
M  V30 3137 C 305.007 5.2342 -4.9338 0
M  V30 3138 C 307.033 4.58043 -3.741 0
M  V30 3139 C 306.395 5.06743 -4.89276 0
M  V30 3140 H 302.494 0.769104 -0.141434 0
M  V30 3141 H 305.078 1.70785 -0.934915 0
M  V30 3142 H 303.249 3.8668 0.36509 0
M  V30 3143 H 304.981 4.0425 0.190695 0
M  V30 3144 H 301.736 4.38062 -1.79997 0
M  V30 3145 H 302.16 5.25196 -4.27198 0
M  V30 3146 H 306.802 3.86078 -1.72348 0
M  V30 3147 H 304.52 5.60765 -5.81866 0
M  V30 3148 H 308.106 4.45785 -3.73854 0
M  V30 3149 H 306.986 5.32204 -5.75959 0
M  V30 3150 N 304.489 0.459591 1.5075 0
M  V30 3151 C 305.419 -0.330644 2.31147 0
M  V30 3152 C 306.4 -1.00087 1.37538 0
M  V30 3153 O 307.585 -1.00025 1.66459 0
M  V30 3154 C 304.715 -1.41958 3.16962 0
M  V30 3155 C 303.669 -0.871608 4.19031 0
M  V30 3156 C 302.995 -2.05797 4.9351 0
M  V30 3157 C 304.295 0.109251 5.22186 0
M  V30 3158 H 305.989 0.340336 2.97459 0
M  V30 3159 H 303.535 0.165119 1.4305 0
M  V30 3160 H 305.488 -1.9798 3.71997 0
M  V30 3161 H 304.212 -2.11917 2.48513 0
M  V30 3162 H 302.871 -0.333442 3.6508 0
M  V30 3163 H 302.519 -2.74427 4.21544 0
M  V30 3164 H 302.219 -1.6976 5.62544 0
M  V30 3165 H 303.743 -2.62331 5.51375 0
M  V30 3166 H 305.157 -0.361405 5.7216 0
M  V30 3167 H 303.554 0.383316 5.98875 0
M  V30 3168 H 304.624 1.03887 4.73641 0
M  V30 3169 N 305.967 -1.56429 0.191757 0
M  V30 3170 C 307.378 -1.83912 -0.321428 0
M  V30 3171 C 307.729 -1.11231 -1.61623 0
M  V30 3172 O 306.854 -0.37202 -2.13178 0
M  V30 3173 C 307.449 -3.33624 -0.589961 0
M  V30 3174 C 306.008 -3.6153 -1.04753 0
M  V30 3175 C 305.155 -2.7714 -0.0943327 0
M  V30 3176 H 308.106 -1.53161 0.415612 0
M  V30 3177 H 308.127 -3.52213 -1.43966 0
M  V30 3178 H 307.639 -3.86495 0.352588 0
M  V30 3179 H 305.74 -3.14089 -2.00447 0
M  V30 3180 H 305.853 -4.69737 -0.942549 0
M  V30 3181 H 304.217 -2.47638 -0.595589 0
M  V30 3182 H 305 -3.32799 0.842601 0
M  V30 3183 N 307.445 0.0818655 -1.57387 0
M  V30 3184 C 308.375 1.09885 -2.06028 0
M  V30 3185 C 309.356 1.4098 -0.951774 0
M  V30 3186 O 310.541 1.50781 -1.22387 0
M  V30 3187 C 307.671 2.4151 -2.4958 0
M  V30 3188 C 306.625 2.24792 -3.64215 0
M  V30 3189 C 305.951 3.61712 -3.93787 0
M  V30 3190 C 307.251 1.67749 -4.94629 0
M  V30 3191 H 308.945 0.694128 -2.91243 0
M  V30 3192 H 306.491 0.332448 -1.4011 0
M  V30 3193 H 308.444 3.12939 -2.82219 0
M  V30 3194 H 307.168 2.83943 -1.61381 0
M  V30 3195 H 305.827 1.55807 -3.31843 0
M  V30 3196 H 305.475 4.01697 -3.02735 0
M  V30 3197 H 305.175 3.51368 -4.70971 0
M  V30 3198 H 306.699 4.34587 -4.28913 0
M  V30 3199 H 308.113 2.29032 -5.25564 0
M  V30 3200 H 306.51 1.68128 -5.76067 0
M  V30 3201 H 307.58 0.638059 -4.80684 0
M  V30 3202 N 308.923 1.53595 0.353017 0
M  V30 3203 C 310.17 1.70385 1.09431 0
M  V30 3204 C 310.498 0.462113 1.88931 0
M  V30 3205 O 309.753 -0.556074 1.87633 0
M  V30 3206 C 310.052 2.91313 2.07054 0
M  V30 3207 C 309.718 4.27308 1.43939 0
M  V30 3208 C 308.38 4.64287 1.26454 0
M  V30 3209 C 310.732 5.11829 0.983883 0
M  V30 3210 C 308.06 5.83412 0.620226 0
M  V30 3211 C 310.412 6.31611 0.353516 0
M  V30 3212 C 309.076 6.67293 0.166272 0
M  V30 3213 H 308.346 0.623484 0.400436 0
M  V30 3214 H 310.993 1.87799 0.374655 0
M  V30 3215 H 309.298 2.68463 2.85368 0
M  V30 3216 H 310.995 3.01497 2.64387 0
M  V30 3217 H 307.585 3.98198 1.58543 0
M  V30 3218 H 311.769 4.838 1.10685 0
M  V30 3219 H 307.025 6.09639 0.463681 0
M  V30 3220 H 311.199 6.964 -0.00757555 0
M  V30 3221 H 308.826 7.59461 -0.335047 0
M  V30 3222 N 310.401 -0.613514 1.45168 0
M  V30 3223 C 311.678 -1.37263 1.39349 0
M  V30 3224 C 312.058 -2.11012 0.0610848 0
M  V30 3225 O 311.406 -2.07502 -0.956825 0
M  V30 3226 C 311.616 -2.3244 2.60332 0
M  V30 3227 C 312.964 -2.9523 3.05163 0
M  V30 3228 O 313.988 -2.42762 2.60663 0
M  V30 3229 O 312.847 -3.90454 3.82372 0
M  V30 3230 H 309.941 -0.615188 0.552696 0
M  V30 3231 H 312.487 -0.637097 1.57287 0
M  V30 3232 H 311.259 -1.77164 3.48896 0
M  V30 3233 H 310.882 -3.13383 2.44698 0
M  V30 3234 N 311.879 -1.3236 -0.855495 0
M  V30 3235 C 313.126 -1.22872 -1.60962 0
M  V30 3236 C 313.454 0.209658 -1.93367 0
M  V30 3237 O 312.709 1.16243 -1.57436 0
M  V30 3238 C 313.008 -2.03275 -2.93963 0
M  V30 3239 C 312.674 -3.5264 -2.80991 0
M  V30 3240 C 311.336 -3.93364 -2.7716 0
M  V30 3241 C 313.688 -4.47626 -2.66983 0
M  V30 3242 C 311.016 -5.27319 -2.572 0
M  V30 3243 C 313.368 -5.81723 -2.48558 0
M  V30 3244 C 312.032 -6.2165 -2.4312 0
M  V30 3245 H 311.302 -0.44962 -0.589001 0
M  V30 3246 H 313.949 -1.63777 -0.992442 0
M  V30 3247 H 312.254 -1.55095 -3.59795 0
M  V30 3248 H 313.951 -1.93303 -3.51333 0
M  V30 3249 H 310.541 -3.20295 -2.84797 0
M  V30 3250 H 314.725 -4.17084 -2.68988 0
M  V30 3251 H 309.981 -5.57311 -2.51424 0
M  V30 3252 H 314.155 -6.5494 -2.36699 0
M  V30 3253 H 311.782 -7.25388 -2.27412 0
M  V30 3254 N 313.357 1.07166 -1.15556 0
M  V30 3255 C 314.32 2.12589 -0.856644 0
M  V30 3256 C 315.32 1.6015 0.14444 0
M  V30 3257 O 316.51 1.7399 -0.0854163 0
M  V30 3258 C 313.642 3.39753 -0.279405 0
M  V30 3259 H 314.835 2.40539 -1.79112 0
M  V30 3260 H 312.388 1.23086 -0.963298 0
M  V30 3261 H 313.123 3.17447 0.663174 0
M  V30 3262 H 312.908 3.79117 -1.00063 0
M  V30 3263 H 314.398 4.17507 -0.0879113 0
M  V30 3264 N 314.835 0.952656 1.25548 0
M  V30 3265 C 316.065 0.622592 1.96996 0
M  V30 3266 C 316.473 -0.809112 1.71026 0
M  V30 3267 O 315.816 -1.55258 0.981861 0
M  V30 3268 C 315.878 0.798946 3.5051 0
M  V30 3269 C 315.542 2.20744 4.00151 0
M  V30 3270 C 316.539 3.18394 4.11001 0
M  V30 3271 C 314.224 2.5311 4.33867 0
M  V30 3272 C 316.218 4.46504 4.54877 0
M  V30 3273 C 313.905 3.8145 4.7743 0
M  V30 3274 C 314.903 4.77959 4.87897 0
M  V30 3275 O 314.591 6.04012 5.30494 0
M  V30 3276 H 314.323 0.232503 0.634758 0
M  V30 3277 H 316.877 1.2789 1.60728 0
M  V30 3278 H 315.107 0.0854903 3.86605 0
M  V30 3279 H 316.796 0.47023 4.03167 0
M  V30 3280 H 317.562 2.94715 3.85186 0
M  V30 3281 H 313.441 1.78719 4.24948 0
M  V30 3282 H 316.985 5.21835 4.62962 0
M  V30 3283 H 312.882 4.04936 5.0269 0
M  V30 3284 H 313.65 6.0736 5.48685 0
M  V30 3285 N 316.313 -1.40141 0.720998 0
M  V30 3286 C 317.245 -2.29177 0.0324669 0
M  V30 3287 C 318.258 -1.46105 -0.718126 0
M  V30 3288 O 319.447 -1.69335 -0.564608 0
M  V30 3289 C 316.547 -3.24473 -0.978292 0
M  V30 3290 C 315.72 -4.36423 -0.292115 0
M  V30 3291 C 314.779 -5.12122 -1.20901 0
M  V30 3292 O 313.805 -5.64981 -0.691766 0
M  V30 3293 N 315.007 -5.21992 -2.53978 0
M  V30 3294 H 317.772 -2.88909 0.796984 0
M  V30 3295 H 315.333 -1.51569 0.569068 0
M  V30 3296 H 317.325 -3.71987 -1.59398 0
M  V30 3297 H 315.895 -2.65871 -1.64413 0
M  V30 3298 H 315.115 -3.90967 0.503847 0
M  V30 3299 H 316.403 -5.08467 0.183971 0
M  V30 3300 H 315.801 -4.8054 -2.98493 0
M  V30 3301 H 314.358 -5.72995 -3.10677 0
M  V30 3302 N 317.792 -0.46758 -1.50504 0
M  V30 3303 C 319.04 0.0884469 -2.01906 0
M  V30 3304 C 319.361 1.40532 -1.35188 0
M  V30 3305 O 318.631 1.89515 -0.496079 0
M  V30 3306 H 317.211 0.0356765 -0.746148 0
M  V30 3307 H 319.873 -0.6172 -1.84869 0
M  V30 3308 H 318.969 0.2425 -3.11156 0
M  V30 3309 N 319.27 1.56325 -0.20005 0
M  V30 3310 C 320.517 1.97719 0.437411 0
M  V30 3311 C 320.845 1.08709 1.61284 0
M  V30 3312 O 320.1 0.127261 1.95286 0
M  V30 3313 C 320.399 3.4495 0.935103 0
M  V30 3314 C 320.065 4.5072 -0.12749 0
M  V30 3315 C 318.727 4.79368 -0.419451 0
M  V30 3316 C 321.079 5.14268 -0.847231 0
M  V30 3317 C 318.407 5.68854 -1.43604 0
M  V30 3318 C 320.759 6.04852 -1.85301 0
M  V30 3319 C 319.423 6.31855 -2.15211 0
M  V30 3320 H 318.693 0.723507 0.16006 0
M  V30 3321 H 321.34 1.89166 -0.298056 0
M  V30 3322 H 319.645 3.50599 1.74894 0
M  V30 3323 H 321.342 3.74337 1.43781 0
M  V30 3324 H 317.932 4.28458 0.11023 0
M  V30 3325 H 322.116 4.92222 -0.634901 0
M  V30 3326 H 317.372 5.88047 -1.67364 0
M  V30 3327 H 321.546 6.53152 -2.41591 0
M  V30 3328 H 319.173 7.00994 -2.94129 0
M  V30 3329 N 320.748 -0.0735177 1.57428 0
M  V30 3330 C 321.711 -1.07192 2.02589 0
M  V30 3331 C 322.711 -1.31695 0.922661 0
M  V30 3332 O 323.901 -1.27445 1.18758 0
M  V30 3333 C 321.033 -2.41599 2.40506 0
M  V30 3334 H 322.226 -0.682727 2.92025 0
M  V30 3335 H 319.779 -0.319193 1.53006 0
M  V30 3336 H 320.514 -2.85354 1.5409 0
M  V30 3337 H 320.299 -2.25156 3.21009 0
M  V30 3338 H 321.789 -3.13367 2.76027 0
M  V30 3339 N 322.226 -1.5378 -0.344866 0
M  V30 3340 C 323.642 -1.44015 -0.687888 0
M  V30 3341 C 323.842 -0.595834 -1.92489 0
M  V30 3342 O 322.898 -0.0863064 -2.52352 0
M  V30 3343 C 324.211 -2.87481 -0.881758 0
M  V30 3344 C 325.759 -2.97247 -0.980459 0
M  V30 3345 C 326.234 -4.41819 -1.20665 0
M  V30 3346 N 327.725 -4.45339 -1.27389 0
M  V30 3347 C 328.46 -5.54333 -1.46639 0
M  V30 3348 N 327.956 -6.73335 -1.63071 0
M  V30 3349 N 329.749 -5.41944 -1.49176 0
M  V30 3350 H 321.9 -2.07169 0.468475 0
M  V30 3351 H 324.163 -0.93643 0.147655 0
M  V30 3352 H 323.869 -3.51672 -0.0443444 0
M  V30 3353 H 323.743 -3.32352 -1.78388 0
M  V30 3354 H 326.13 -2.33197 -1.8084 0
M  V30 3355 H 326.211 -2.5574 -0.0552713 0
M  V30 3356 H 325.855 -5.06449 -0.383652 0
M  V30 3357 H 325.785 -4.80917 -2.14539 0
M  V30 3358 H 328.276 -3.59585 -1.1622 0
M  V30 3359 H 328.589 -7.52165 -1.77391 0
M  V30 3360 H 326.934 -6.76282 -1.60209 0
M  V30 3361 H 330.125 -4.47932 -1.3592 0
M  V30 3362 H 330.298 -6.26946 -1.63837 0
M  V30 3363 N 323.704 0.605807 -1.45491 0
M  V30 3364 C 324.952 1.36207 -1.49305 0
M  V30 3365 C 325.273 1.94519 -0.136863 0
M  V30 3366 O 324.543 1.77261 0.833983 0
M  V30 3367 H 323.123 0.50565 -0.549843 0
M  V30 3368 H 325.785 0.711239 -1.81459 0
M  V30 3369 H 324.881 2.18058 -2.23287 0
M  V30 3370 N 325.182 1.32811 0.848464 0
M  V30 3371 C 326.112 1.24882 1.97299 0
M  V30 3372 C 327.093 0.131357 1.69592 0
M  V30 3373 O 328.278 0.319553 1.91553 0
M  V30 3374 C 325.408 0.97746 3.33261 0
M  V30 3375 C 324.362 2.05682 3.75338 0
M  V30 3376 C 323.688 1.63777 5.09 0
M  V30 3377 C 324.988 3.47254 3.90144 0
M  V30 3378 H 326.682 2.18966 2.04191 0
M  V30 3379 H 324.228 1.05413 0.981029 0
M  V30 3380 H 326.181 0.908513 4.1149 0
M  V30 3381 H 324.905 0.000980011 3.266 0
M  V30 3382 H 323.564 2.11603 2.99366 0
M  V30 3383 H 323.212 0.648569 4.98801 0
M  V30 3384 H 322.912 2.36 5.38124 0
M  V30 3385 H 324.436 1.5833 5.89715 0
M  V30 3386 H 325.85 3.43888 4.58709 0
M  V30 3387 H 324.247 4.1788 4.30693 0
M  V30 3388 H 325.317 3.86462 2.92874 0
M  V30 3389 N 326.66 -1.06551 1.16123 0
M  V30 3390 C 327.57 -2.17484 0.879662 0
M  V30 3391 C 328.586 -1.73377 -0.147104 0
M  V30 3392 O 329.762 -2.01379 0.0289128 0
M  V30 3393 C 326.827 -3.44591 0.381829 0
M  V30 3394 C 325.888 -4.0322 1.4735 0
M  V30 3395 C 325.121 -5.24261 0.999324 0
M  V30 3396 O 325.344 -5.70198 -0.151957 0
M  V30 3397 O 324.278 -5.74775 1.78653 0
M  V30 3398 H 328.104 -2.44075 1.80724 0
M  V30 3399 H 325.689 -1.16042 0.940992 0
M  V30 3400 H 327.571 -4.21254 0.111053 0
M  V30 3401 H 326.246 -3.19532 -0.51777 0
M  V30 3402 H 325.153 -3.2806 1.79798 0
M  V30 3403 H 326.486 -4.32568 2.34831 0
M  V30 3404 N 328.138 -0.959301 -1.25041 0
M  V30 3405 C 329.048 -0.489994 -2.29426 0
M  V30 3406 C 330.064 0.444944 -1.68215 0
M  V30 3407 O 331.24 0.320046 -1.98841 0
M  V30 3408 C 328.305 0.220309 -3.45999 0
M  V30 3409 C 327.366 -0.753418 -4.22637 0
M  V30 3410 C 326.599 -0.076918 -5.33645 0
M  V30 3411 O 326.822 1.13649 -5.58963 0
M  V30 3412 O 325.756 -0.764824 -5.97021 0
M  V30 3413 H 329.582 -1.35755 -2.71669 0
M  V30 3414 H 327.167 -0.725961 -1.30576 0
M  V30 3415 H 329.049 0.619677 -4.16819 0
M  V30 3416 H 327.724 1.06296 -3.0575 0
M  V30 3417 H 326.631 -1.20308 -3.54227 0
M  V30 3418 H 327.964 -1.56423 -4.66683 0
M  V30 3419 N 329.616 1.39756 -0.72842 0
M  V30 3420 C 330.893 1.94574 -0.200079 0
M  V30 3421 C 331.273 1.66569 1.29684 0
M  V30 3422 O 330.621 0.990326 2.05924 0
M  V30 3423 C 330.831 3.45004 -0.526608 0
M  V30 3424 C 332.179 4.21965 -0.472318 0
M  V30 3425 O 333.203 3.53173 -0.463413 0
M  V30 3426 O 332.062 5.44552 -0.461075 0
M  V30 3427 H 329.156 0.826289 -0.0342851 0
M  V30 3428 H 331.702 1.49293 -0.806829 0
M  V30 3429 H 330.474 3.58796 -1.56144 0
M  V30 3430 H 330.097 3.97449 0.109449 0
M  V30 3431 N 331.094 0.475555 1.50254 0
M  V30 3432 C 332.057 -0.305016 2.27161 0
M  V30 3433 C 333.057 -0.916519 1.32123 0
M  V30 3434 O 334.247 -0.785003 1.5551 0
M  V30 3435 C 331.379 -1.43496 3.09227 0
M  V30 3436 H 332.572 0.369511 2.97615 0
M  V30 3437 H 330.125 0.229747 1.54602 0
M  V30 3438 H 330.86 -2.14441 2.43281 0
M  V30 3439 H 330.645 -1.00223 3.79075 0
M  V30 3440 H 332.135 -1.98548 3.67381 0
M  V30 3441 N 332.573 -1.56217 0.208337 0
M  V30 3442 C 333.483 -2.23316 -0.718836 0
M  V30 3443 C 334.499 -1.23648 -1.22422 0
M  V30 3444 O 335.675 -1.56423 -1.26861 0
M  V30 3445 C 332.74 -2.88968 -1.91568 0
M  V30 3446 C 331.801 -4.03943 -1.45357 0
M  V30 3447 C 331.034 -4.66455 -2.59337 0
M  V30 3448 O 331.257 -4.27919 -3.77149 0
M  V30 3449 O 330.191 -5.55686 -2.31293 0
M  V30 3450 H 334.017 -3.03182 -0.177315 0
M  V30 3451 H 331.602 -1.49384 -0.0215402 0
M  V30 3452 H 333.484 -3.30455 -2.61491 0
M  V30 3453 H 332.159 -2.12071 -2.44556 0
M  V30 3454 H 331.066 -3.67052 -0.722746 0
M  V30 3455 H 332.399 -4.82543 -0.970219 0
M  V30 3456 N 334.051 0.0651679 -1.57465 0
M  V30 3457 C 335.299 0.761555 -1.87202 0
M  V30 3458 C 335.62 1.77778 -0.801243 0
M  V30 3459 O 334.89 1.95166 0.16937 0
M  V30 3460 H 333.47 0.284251 -0.690804 0
M  V30 3461 H 336.132 0.0396827 -1.9486 0
M  V30 3462 H 335.228 1.27365 -2.84929 0
M  V30 3463 N 335.529 1.53961 0.336706 0
M  V30 3464 C 336.459 1.85417 1.41925 0
M  V30 3465 C 337.44 0.709856 1.5458 0
M  V30 3466 O 338.625 0.962396 1.68676 0
M  V30 3467 C 335.755 2.06985 2.78881 0
M  V30 3468 C 334.709 3.22813 2.81026 0
M  V30 3469 C 334.035 3.29727 4.20932 0
M  V30 3470 C 335.335 4.60767 2.45949 0
M  V30 3471 H 337.029 2.76079 1.15848 0
M  V30 3472 H 334.575 1.32839 0.555859 0
M  V30 3473 H 336.528 2.27575 3.54665 0
M  V30 3474 H 335.252 1.13061 3.06406 0
M  V30 3475 H 333.911 3.0209 2.07695 0
M  V30 3476 H 333.559 2.33385 4.45579 0
M  V30 3477 H 333.259 4.07566 4.23277 0
M  V30 3478 H 334.783 3.52536 4.98549 0
M  V30 3479 H 336.197 4.81325 3.11446 0
M  V30 3480 H 334.594 5.4106 2.59566 0
M  V30 3481 H 335.664 4.6391 1.41122 0
M  V30 3482 N 337.007 -0.598083 1.45811 0
M  V30 3483 C 338.423 -0.919847 1.30426 0
M  V30 3484 C 338.623 -1.99759 0.264303 0
M  V30 3485 O 337.679 -2.50221 -0.338472 0
M  V30 3486 C 338.992 -1.35176 2.68603 0
M  V30 3487 C 340.54 -1.46546 2.76574 0
M  V30 3488 C 341.015 -1.9311 4.15298 0
M  V30 3489 N 342.506 -2.00328 4.1764 0
M  V30 3490 C 343.241 -2.37599 5.21856 0
M  V30 3491 N 342.737 -2.73771 6.36413 0
M  V30 3492 N 344.53 -2.38021 5.09218 0
M  V30 3493 H 336.681 0.114111 2.12093 0
M  V30 3494 H 338.944 -0.0116121 0.947929 0
M  V30 3495 H 338.65 -0.633969 3.45939 0
M  V30 3496 H 338.524 -2.3164 2.97696 0
M  V30 3497 H 340.911 -2.17415 1.99537 0
M  V30 3498 H 340.992 -0.483727 2.51185 0
M  V30 3499 H 340.636 -1.22824 4.92825 0
M  V30 3500 H 340.566 -2.92213 4.38086 0
M  V30 3501 H 343.057 -1.74925 3.34977 0
M  V30 3502 H 343.37 -3.0112 7.11721 0
M  V30 3503 H 341.715 -2.71445 6.39799 0
M  V30 3504 H 344.906 -2.09174 4.18765 0
M  V30 3505 H 345.079 -2.66741 5.90554 0
M  V30 3506 N 338.485 -1.33259 -0.841409 0
M  V30 3507 C 339.448 -1.23221 -1.9326 0
M  V30 3508 C 340.448 -0.151895 -1.60081 0
M  V30 3509 O 341.638 -0.403246 -1.69468 0
M  V30 3510 C 338.77 -0.898123 -3.28856 0
M  V30 3511 H 339.963 -2.2021 -2.03587 0
M  V30 3512 H 337.516 -1.17281 -1.03319 0
M  V30 3513 H 338.251 0.0693841 -3.24226 0
M  V30 3514 H 338.036 -1.67934 -3.54317 0
M  V30 3515 H 339.526 -0.852563 -4.08805 0
M  V30 3516 N 339.963 1.05934 -1.16686 0
M  V30 3517 C 341.21 1.788 -0.950622 0
M  V30 3518 C 341.538 1.87384 0.521305 0
M  V30 3519 O 340.793 1.36438 1.40297 0
M  V30 3520 C 341.092 3.23105 -1.52767 0
M  V30 3521 C 340.758 3.34594 -3.02254 0
M  V30 3522 C 339.42 3.37437 -3.43059 0
M  V30 3523 C 341.772 3.36219 -3.98254 0
M  V30 3524 C 339.1 3.39525 -4.78477 0
M  V30 3525 C 341.452 3.39845 -5.33562 0
M  V30 3526 C 340.116 3.40971 -5.73842 0
M  V30 3527 H 339.386 0.654275 -0.347857 0
M  V30 3528 H 342.033 1.24555 -1.45459 0
M  V30 3529 H 340.338 3.80227 -0.94524 0
M  V30 3530 H 342.035 3.7809 -1.336 0
M  V30 3531 H 338.625 3.3309 -2.6972 0
M  V30 3532 H 342.809 3.33231 -3.67792 0
M  V30 3533 H 338.065 3.38703 -5.09009 0
M  V30 3534 H 342.239 3.4005 -6.07733 0
M  V30 3535 H 339.866 3.42342 -6.78753 0
M  V30 3536 N 341.441 0.965919 1.2453 0
M  V30 3537 C 342.404 0.499547 2.2369 0
M  V30 3538 C 343.404 -0.40294 1.5567 0
M  V30 3539 O 344.594 -0.19865 1.73064 0
M  V30 3540 C 341.726 -0.276792 3.39774 0
M  V30 3541 H 342.919 1.37613 2.66463 0
M  V30 3542 H 340.472 0.750324 1.37112 0
M  V30 3543 H 341.207 -1.17055 3.02438 0
M  V30 3544 H 340.992 0.370826 3.90343 0
M  V30 3545 H 342.482 -0.592175 4.1338 0
M  V30 3546 N 342.919 -1.39368 0.735821 0
M  V30 3547 C 343.882 -2.2896 0.104874 0
M  V30 3548 C 344.882 -1.46347 -0.666274 0
M  V30 3549 O 346.072 -1.67014 -0.49517 0
M  V30 3550 C 343.204 -3.29857 -0.860656 0
M  V30 3551 H 344.397 -2.86259 0.894205 0
M  V30 3552 H 341.95 -1.48029 0.501704 0
M  V30 3553 H 342.685 -2.77615 -1.67631 0
M  V30 3554 H 342.47 -3.9087 -0.310327 0
M  V30 3555 H 343.96 -3.96893 -1.29867 0
M  V30 3556 N 344.397 -0.483516 -1.5 0
M  V30 3557 C 345.33 0.350427 -2.25493 0
M  V30 3558 C 346.308 0.985549 -1.29328 0
M  V30 3559 O 347.492 1.01906 -1.58579 0
M  V30 3560 C 344.619 1.49202 -3.04066 0
M  V30 3561 C 343.665 0.973036 -4.15252 0
M  V30 3562 S 344.498 -0.122237 -5.3536 0
M  V30 3563 C 345.654 1.02294 -6.17484 0
M  V30 3564 H 345.887 -0.290381 -2.95878 0
M  V30 3565 H 343.42 -0.268562 -1.52046 0
M  V30 3566 H 345.378 2.14623 -3.49925 0
M  V30 3567 H 344.039 2.10438 -2.33183 0
M  V30 3568 H 343.232 1.82804 -4.69679 0
M  V30 3569 H 342.834 0.396335 -3.71894 0
M  V30 3570 H 345.126 1.93195 -6.49371 0
M  V30 3571 H 346.069 0.517664 -7.06205 0
M  V30 3572 H 346.477 1.28238 -5.49741 0
M  V30 3573 N 345.875 1.56104 -0.216619 0
M  V30 3574 C 346.825 2.16703 0.708798 0
M  V30 3575 C 347.809 1.11392 1.16106 0
M  V30 3576 O 349.001 1.37395 1.11587 0
M  V30 3577 C 346.13 2.84666 1.91886 0
M  V30 3578 C 345.216 3.97195 1.48651 0
M  V30 3579 N 345.607 4.99959 0.766434 0
M  V30 3580 C 343.905 4.09193 1.77418 0
M  V30 3581 C 344.606 5.79126 0.546659 0
M  V30 3582 N 343.582 5.32315 1.10188 0
M  V30 3583 H 347.384 2.93516 0.150162 0
M  V30 3584 H 344.898 1.6239 -0.0176768 0
M  V30 3585 H 346.895 3.26486 2.59253 0
M  V30 3586 H 345.555 2.09347 2.48202 0
M  V30 3587 H 346.566 5.16197 0.419634 0
M  V30 3588 H 343.243 3.45021 2.35088 0
M  V30 3589 H 344.633 6.71895 -0.026103 0
M  V30 3590 N 347.353 -0.0568162 1.57498 0
M  V30 3591 C 348.3 -1.06591 2.04712 0
M  V30 3592 C 349.27 -1.3758 0.930644 0
M  V30 3593 O 350.455 -1.48392 1.19935 0
M  V30 3594 C 347.595 -2.3701 2.50839 0
M  V30 3595 C 346.708 -2.12421 3.76167 0
M  V30 3596 C 345.843 -3.36511 4.11015 0
M  V30 3597 C 344.882 -3.07353 5.2934 0
M  V30 3598 N 344.019 -4.23816 5.59754 0
M  V30 3599 H 348.859 -0.65631 2.90683 0
M  V30 3600 H 346.396 -0.312481 1.43743 0
M  V30 3601 H 348.354 -3.13175 2.7564 0
M  V30 3602 H 346.984 -2.75744 1.67825 0
M  V30 3603 H 346.036 -1.2688 3.58616 0
M  V30 3604 H 347.348 -1.86894 4.62463 0
M  V30 3605 H 346.502 -4.21062 4.36797 0
M  V30 3606 H 345.241 -3.65128 3.23315 0
M  V30 3607 H 344.246 -2.212 5.03339 0
M  V30 3608 H 345.471 -2.80043 6.1867 0
M  V30 3609 H 343.417 -4.52436 4.75014 0
M  V30 3610 H 343.334 -4.01614 6.40501 0
M  V30 3611 H 344.602 -5.0932 5.90096 0
M  V30 3612 N 348.832 -1.54138 -0.328536 0
M  V30 3613 C 349.742 -1.86192 -1.42723 0
M  V30 3614 C 350.758 -0.753382 -1.56844 0
M  V30 3615 O 351.934 -1.04718 -1.72035 0
M  V30 3616 C 348.999 -2.07824 -2.77507 0
M  V30 3617 C 348.06 -3.31641 -2.72603 0
M  V30 3618 C 347.293 -3.52232 -4.00959 0
M  V30 3619 O 347.516 -2.7636 -4.9898 0
M  V30 3620 O 346.45 -4.45699 -4.0452 0
M  V30 3621 H 350.276 -2.79608 -1.18547 0
M  V30 3622 H 347.861 -1.3998 -0.522104 0
M  V30 3623 H 349.743 -2.23411 -3.57303 0
M  V30 3624 H 348.418 -1.17596 -3.01584 0
M  V30 3625 H 347.325 -3.21444 -1.91376 0
M  V30 3626 H 348.658 -4.2191 -2.53481 0
M  V30 3627 N 350.31 0.590341 -1.46126 0
M  V30 3628 C 351.24 1.71032 -1.58966 0
M  V30 3629 C 352.221 1.64302 -0.440335 0
M  V30 3630 O 353.406 1.82436 -0.665634 0
M  V30 3631 C 350.536 3.09665 -1.57241 0
M  V30 3632 C 349.49 3.31221 -2.71066 0
M  V30 3633 C 348.816 4.70303 -2.54399 0
M  V30 3634 C 350.116 3.19796 -4.1295 0
M  V30 3635 H 351.81 1.60543 -2.52718 0
M  V30 3636 H 349.356 0.770933 -1.21625 0
M  V30 3637 H 351.309 3.87831 -1.64819 0
M  V30 3638 H 350.033 3.21036 -0.600289 0
M  V30 3639 H 348.692 2.55452 -2.62944 0
M  V30 3640 H 348.34 4.78429 -1.55288 0
M  V30 3641 H 348.04 4.85679 -3.30741 0
M  V30 3642 H 349.564 5.50647 -2.63857 0
M  V30 3643 H 350.978 3.87815 -4.22223 0
M  V30 3644 H 349.375 3.46696 -4.89818 0
M  V30 3645 H 350.445 2.16983 -4.33643 0
M  V30 3646 N 351.788 1.33704 0.83433 0
M  V30 3647 C 353.037 1.24763 1.58484 0
M  V30 3648 C 353.35 -0.183775 1.94735 0
M  V30 3649 O 354.556 -0.395234 2.68608 0
M  V30 3650 C 353.012 2.18638 2.85876 0
M  V30 3651 C 352.62 3.66974 2.56971 0
M  V30 3652 C 354.364 2.18581 3.63899 0
M  V30 3653 C 352.271 4.5275 3.80488 0
M  V30 3654 H 351.201 0.463425 0.594772 0
M  V30 3655 H 353.852 1.58797 0.919551 0
M  V30 3656 H 352.234 1.77542 3.5397 0
M  V30 3657 H 353.408 4.16538 1.9706 0
M  V30 3658 H 351.723 3.69366 1.92244 0
M  V30 3659 H 354.32 2.79894 4.55591 0
M  V30 3660 H 354.663 1.18207 3.99165 0
M  V30 3661 H 355.196 2.58062 3.02735 0
M  V30 3662 H 351.935 5.54017 3.5035 0
M  V30 3663 H 351.455 4.07927 4.39722 0
M  V30 3664 H 353.134 4.66784 4.4802 0
M  V30 3665 N 353.266 -1.05314 1.17247 0
M  V30 3666 C 354.512 -1.78557 0.961513 0
M  V30 3667 C 354.845 -1.87419 -0.508697 0
M  V30 3668 O 354.12 -1.37307 -1.37757 0
M  V30 3669 C 354.403 -3.22514 1.60176 0
M  V30 3670 C 354.256 -3.21673 3.14399 0
M  V30 3671 C 355.575 -4.20318 1.30463 0
M  V30 3672 H 352.694 -0.6482 0.350723 0
M  V30 3673 H 355.336 -1.23102 1.44727 0
M  V30 3674 H 353.486 -3.69867 1.18871 0
M  V30 3675 H 355.158 -2.82405 3.64753 0
M  V30 3676 H 353.401 -2.60048 3.47214 0
M  V30 3677 H 354.072 -4.23271 3.54324 0
M  V30 3678 H 356.548 -3.81454 1.66229 0
M  V30 3679 H 355.424 -5.19289 1.77848 0
M  V30 3680 H 355.685 -4.41526 0.22521 0
M  V30 3681 N 354.744 -0.972509 -1.24016 0
M  V30 3682 C 355.707 -0.511403 -2.23422 0
M  V30 3683 C 356.707 0.394679 -1.55881 0
M  V30 3684 O 357.897 0.189469 -1.73167 0
M  V30 3685 C 355.029 0.258769 -3.39916 0
M  V30 3686 H 356.222 -1.39024 -2.6573 0
M  V30 3687 H 353.775 -0.757585 -1.36713 0
M  V30 3688 H 354.51 1.1545 -3.03054 0
M  V30 3689 H 354.295 -0.391522 -3.9014 0
M  V30 3690 H 355.785 0.570244 -4.13688 0
M  V30 3691 N 356.222 1.38976 -0.743202 0
M  V30 3692 C 357.447 2.05161 -0.303936 0
M  V30 3693 C 357.872 1.55677 1.05576 0
M  V30 3694 O 357.23 0.704131 1.67068 0
M  V30 3695 C 357.278 3.59138 -0.324373 0
M  V30 3696 O 356.382 4.06668 0.685204 0
M  V30 3697 H 355.723 0.649815 -0.136518 0
M  V30 3698 H 358.253 1.77852 -1.01142 0
M  V30 3699 H 358.263 4.07639 -0.171618 0
M  V30 3700 H 356.938 3.94515 -1.31647 0
M  V30 3701 H 355.515 3.69561 0.497913 0
M  V30 3702 N 357.7 0.491464 1.49741 0
M  V30 3703 C 358.925 -0.0557177 2.07325 0
M  V30 3704 C 359.35 -1.30925 1.35056 0
M  V30 3705 O 358.708 -1.76733 0.404365 0
M  V30 3706 C 358.756 -0.302074 3.59333 0
M  V30 3707 O 357.86 -1.37868 3.88672 0
M  V30 3708 H 357.201 0.0219956 0.663636 0
M  V30 3709 H 359.731 0.688352 1.92673 0
M  V30 3710 H 359.741 -0.536464 4.04458 0
M  V30 3711 H 358.416 0.61383 4.11345 0
M  V30 3712 H 356.993 -1.12999 3.55367 0
M  V30 3713 N 359.178 -1.55987 0.224894 0
M  V30 3714 C 360.408 -2.02489 -0.41007 0
M  V30 3715 C 360.816 -1.10391 -1.53657 0
M  V30 3716 O 360.159 -0.106458 -1.83391 0
M  V30 3717 C 360.221 -3.45319 -0.999757 0
M  V30 3718 C 359.885 -4.56999 -0.00827976 0
M  V30 3719 C 360.882 -5.13812 0.793314 0
M  V30 3720 C 358.567 -5.02176 0.111442 0
M  V30 3721 C 360.561 -6.14276 1.7013 0
M  V30 3722 C 358.248 -6.02477 1.02296 0
M  V30 3723 C 359.246 -6.58403 1.81643 0
M  V30 3724 O 358.934 -7.56751 2.71262 0
M  V30 3725 H 358.666 -0.667915 -0.104235 0
M  V30 3726 H 361.22 -2.0257 0.339782 0
M  V30 3727 H 359.45 -3.42318 -1.79876 0
M  V30 3728 H 361.139 -3.7545 -1.54248 0
M  V30 3729 H 361.905 -4.79756 0.711288 0
M  V30 3730 H 357.784 -4.58323 -0.49605 0
M  V30 3731 H 361.328 -6.57854 2.32107 0
M  V30 3732 H 357.225 -6.35954 1.10599 0
M  V30 3733 H 357.993 -7.74286 2.65375 0
M  V30 3734 N 360.656 0.0484629 -1.57525 0
M  V30 3735 C 361.881 0.759177 -1.93006 0
M  V30 3736 C 362.306 1.69125 -0.823317 0
M  V30 3737 O 361.664 1.79931 0.222364 0
M  V30 3738 C 361.712 1.50899 -3.27509 0
M  V30 3739 O 360.816 2.62112 -3.18388 0
M  V30 3740 H 360.157 0.205564 -0.631379 0
M  V30 3741 H 362.687 0.00972959 -2.04598 0
M  V30 3742 H 362.697 1.88317 -3.6194 0
M  V30 3743 H 361.372 0.825269 -4.0763 0
M  V30 3744 H 359.949 2.27379 -2.95556 0
M  V30 3745 N 362.134 1.5431 0.320358 0
M  V30 3746 C 363.081 1.83918 1.39438 0
M  V30 3747 C 364.051 0.686525 1.51248 0
M  V30 3748 O 365.236 0.933269 1.66417 0
M  V30 3749 C 362.376 2.075 2.75749 0
M  V30 3750 C 361.489 3.35177 2.72544 0
M  V30 3751 C 360.624 3.48704 4.00723 0
M  V30 3752 C 359.663 4.70244 3.91838 0
M  V30 3753 N 358.8 4.80679 5.11754 0
M  V30 3754 H 363.64 2.75544 1.13489 0
M  V30 3755 H 361.177 1.36459 0.549309 0
M  V30 3756 H 363.135 2.19166 3.54996 0
M  V30 3757 H 361.765 1.19163 3 0
M  V30 3758 H 360.817 3.32233 1.85271 0
M  V30 3759 H 362.129 4.24534 2.61863 0
M  V30 3760 H 361.283 3.59928 4.88402 0
M  V30 3761 H 360.022 2.57445 4.14214 0
M  V30 3762 H 359.027 4.59072 3.02544 0
M  V30 3763 H 360.252 5.6289 3.7991 0
M  V30 3764 H 358.198 3.92337 5.25745 0
M  V30 3765 H 358.115 5.64007 5.0342 0
M  V30 3766 H 359.383 4.96239 6.01138 0
M  V30 3767 N 363.613 -0.582584 1.46437 0
M  V30 3768 C 364.561 -1.71272 1.5738 0
M  V30 3769 C 365.555 -1.63524 0.44229 0
M  V30 3770 O 366.761 -1.69016 0.619166 0
M  V30 3771 H 363.136 -0.566273 0.494813 0
M  V30 3772 H 365.107 -1.59174 2.52401 0
M  V30 3773 C 363.856 -3.09658 1.58136 0
M  V30 3774 H 363.179 -3.16291 2.44541 0
M  V30 3775 H 364.619 -3.88494 1.69847 0
M  V30 3776 C 363.078 -3.3547 0.310026 0
M  V30 3777 O 363.608 -3.97199 -0.599683 0
M  V30 3778 N 361.814 -2.89925 0.197901 0
M  V30 3779 H 361.361 -2.39873 0.93909 0
M  V30 3780 H 361.319 -3.07568 -0.65185 0
M  V30 3781 N 365.091 -1.34144 -0.827227 0
M  V30 3782 C 366.338 -1.26258 -1.58319 0
M  V30 3783 C 366.666 0.168595 -1.93768 0
M  V30 3784 O 365.921 1.12877 -1.59866 0
M  V30 3785 C 366.22 -2.09464 -2.89585 0
M  V30 3786 C 365.886 -3.58521 -2.73448 0
M  V30 3787 C 364.548 -3.99155 -2.68754 0
M  V30 3788 C 366.9 -4.53189 -2.57428 0
M  V30 3789 C 364.228 -5.32656 -2.45957 0
M  V30 3790 C 366.58 -5.86864 -2.36163 0
M  V30 3791 C 365.244 -6.26667 -2.29879 0
M  V30 3792 H 364.514 -0.462013 -0.579332 0
M  V30 3793 H 367.161 -1.65845 -0.95748 0
M  V30 3794 H 365.466 -1.62692 -3.56425 0
M  V30 3795 H 367.163 -2.00712 -3.47154 0
M  V30 3796 H 363.753 -3.26264 -2.77939 0
M  V30 3797 H 367.937 -4.22696 -2.60081 0
M  V30 3798 H 363.193 -5.62519 -2.39546 0
M  V30 3799 H 367.367 -6.59813 -2.22754 0
M  V30 3800 H 364.994 -7.30049 -2.11975 0
M  V30 3801 N 366.569 1.04691 -1.17803 0
M  V30 3802 C 367.817 1.7743 -0.967617 0
M  V30 3803 C 368.138 1.88359 0.504574 0
M  V30 3804 O 367.408 1.40402 1.36617 0
M  V30 3805 H 365.988 0.657242 -0.355024 0
M  V30 3806 H 368.65 1.2638 -1.48371 0
M  V30 3807 H 367.746 2.78924 -1.40027 0
M  V30 3808 N 368.047 0.979072 1.23499 0
M  V30 3809 C 368.977 0.537606 2.27227 0
M  V30 3810 C 369.958 -0.428539 1.64613 0
M  V30 3811 O 371.143 -0.322191 1.91509 0
M  V30 3812 C 368.273 -0.162052 3.46922 0
M  V30 3813 C 367.227 0.721242 4.21879 0
M  V30 3814 C 366.553 -0.110555 5.34586 0
M  V30 3815 C 367.853 2.01141 4.82016 0
M  V30 3816 H 369.547 1.40462 2.64406 0
M  V30 3817 H 367.093 0.67684 1.27102 0
M  V30 3818 H 369.046 -0.482192 4.18632 0
M  V30 3819 H 367.77 -1.06351 3.08799 0
M  V30 3820 H 366.429 1.02482 3.51984 0
M  V30 3821 H 366.077 -1.0125 4.92704 0
M  V30 3822 H 365.777 0.477325 5.85658 0
M  V30 3823 H 367.301 -0.425107 6.09118 0
M  V30 3824 H 368.715 1.75612 5.45741 0
M  V30 3825 H 367.112 2.54695 5.43369 0
M  V30 3826 H 368.182 2.69909 4.02836 0
M  V30 3827 N 369.525 -1.3858 0.750561 0
M  V30 3828 C 370.755 -2.04175 0.31564 0
M  V30 3829 C 371.163 -1.56726 -1.05989 0
M  V30 3830 O 370.506 -0.734225 -1.68389 0
M  V30 3831 C 370.568 -3.58585 0.256389 0
M  V30 3832 C 370.232 -4.29077 1.57296 0
M  V30 3833 C 371.229 -4.54656 2.52159 0
M  V30 3834 C 368.914 -4.67324 1.84156 0
M  V30 3835 C 370.908 -5.17512 3.72103 0
M  V30 3836 C 368.595 -5.29905 3.04374 0
M  V30 3837 C 369.593 -5.54933 3.98168 0
M  V30 3838 O 369.281 -6.16212 5.16273 0
M  V30 3839 H 369.013 -0.662742 0.133226 0
M  V30 3840 H 371.567 -1.78313 1.01948 0
M  V30 3841 H 369.797 -3.83406 -0.503677 0
M  V30 3842 H 371.486 -4.05628 -0.148612 0
M  V30 3843 H 372.252 -4.25539 2.32683 0
M  V30 3844 H 368.131 -4.47191 1.11988 0
M  V30 3845 H 371.675 -5.36963 4.45327 0
M  V30 3846 H 367.572 -5.58444 3.23745 0
M  V30 3847 H 368.34 -6.34701 5.16815 0
M  V30 3848 N 371.003 -0.499398 -1.49478 0
M  V30 3849 C 371.951 0.293604 -2.3074 0
M  V30 3850 C 372.945 0.96427 -1.39277 0
M  V30 3851 O 374.151 0.892141 -1.56336 0
M  V30 3852 H 370.526 0.113541 -0.743379 0
M  V30 3853 H 372.497 -0.411772 -2.95545 0
M  V30 3854 C 371.246 1.3462 -3.20582 0
M  V30 3855 H 370.569 0.83954 -3.90886 0
M  V30 3856 H 372.009 1.87308 -3.80384 0
M  V30 3857 C 370.468 2.36351 -2.40083 0
M  V30 3858 O 370.998 3.422 -2.10385 0
M  V30 3859 N 369.204 2.0878 -2.02137 0
M  V30 3860 H 368.751 1.22723 -2.26488 0
M  V30 3861 H 368.709 2.77075 -1.48583 0
M  V30 3862 N 372.481 1.55866 -0.233164 0
M  V30 3863 C 373.391 2.24431 0.683217 0
M  V30 3864 C 374.407 1.2558 1.2044 0
M  V30 3865 O 375.583 1.58422 1.24356 0
M  V30 3866 C 372.648 2.91979 1.86947 0
M  V30 3867 C 371.709 4.06204 1.38912 0
M  V30 3868 C 370.942 4.70522 2.51883 0
M  V30 3869 O 371.165 4.33865 3.70293 0
M  V30 3870 O 370.099 5.59296 2.22423 0
M  V30 3871 H 373.925 3.03426 0.129059 0
M  V30 3872 H 371.51 1.494 -0.0022283 0
M  V30 3873 H 373.392 3.34573 2.56201 0
M  V30 3874 H 372.067 2.15935 2.41151 0
M  V30 3875 H 370.974 3.68155 0.664259 0
M  V30 3876 H 372.307 4.84025 0.893328 0
M  V30 3877 N 373.959 -0.0401083 1.57549 0
M  V30 3878 C 375.375 -0.395556 1.54621 0
M  V30 3879 C 375.575 -1.77281 0.957799 0
M  V30 3880 O 374.631 -2.45888 0.574031 0
M  V30 3881 C 375.944 -0.307535 2.99123 0
M  V30 3882 C 377.492 -0.385425 3.10618 0
M  V30 3883 C 377.967 -0.326973 4.56831 0
M  V30 3884 N 379.458 -0.386102 4.61588 0
M  V30 3885 C 380.193 -0.363591 5.72246 0
M  V30 3886 N 379.689 -0.29402 6.92176 0
M  V30 3887 N 381.482 -0.412503 5.60584 0
M  V30 3888 H 373.633 0.861325 1.94152 0
M  V30 3889 H 375.896 0.326445 0.890021 0
M  V30 3890 H 375.602 0.638461 3.45856 0
M  V30 3891 H 375.476 -1.10552 3.60636 0
M  V30 3892 H 377.863 -1.32185 2.63839 0
M  V30 3893 H 377.944 0.44171 2.51957 0
M  V30 3894 H 377.588 0.605738 5.04275 0
M  V30 3895 H 377.518 -1.17207 5.13391 0
M  V30 3896 H 380.009 -0.442832 3.75296 0
M  V30 3897 H 380.322 -0.28164 7.72287 0
M  V30 3898 H 378.667 -0.260232 6.94513 0
M  V30 3899 H 381.858 -0.464769 4.65787 0
M  V30 3900 H 382.031 -0.391492 6.46816 0
M  V30 3901 N 375.437 -1.54477 -0.31217 0
M  V30 3902 C 376.683 -1.73483 -1.0503 0
M  V30 3903 C 377.016 -0.513125 -1.87298 0
M  V30 3904 O 376.291 0.489864 -1.8823 0
M  V30 3905 C 376.574 -3.01723 -1.96558 0
M  V30 3906 C 376.427 -4.3417 -1.17545 0
M  V30 3907 C 377.746 -3.25772 -2.95907 0
M  V30 3908 H 374.865 -0.631222 -0.380432 0
M  V30 3909 H 377.507 -1.87184 -0.325932 0
M  V30 3910 H 375.657 -2.90174 -2.58324 0
M  V30 3911 H 377.329 -4.5762 -0.581513 0
M  V30 3912 H 375.572 -4.31159 -0.477925 0
M  V30 3913 H 376.243 -5.20143 -1.84811 0
M  V30 3914 H 378.719 -3.36857 -2.44267 0
M  V30 3915 H 377.595 -4.16838 -3.57123 0
M  V30 3916 H 377.856 -2.43537 -3.68974 0
M  V30 3917 N 376.915 0.57481 -1.46744 0
M  V30 3918 C 378.163 1.33009 -1.52161 0
M  V30 3919 C 378.484 1.94185 -0.178092 0
M  V30 3920 O 377.754 1.7899 0.796196 0
M  V30 3921 H 376.334 0.493873 -0.560445 0
M  V30 3922 H 378.996 0.672589 -1.82927 0
M  V30 3923 H 378.092 2.13273 -2.27862 0
M  V30 3924 N 378.394 1.34581 0.820102 0
M  V30 3925 C 379.357 1.2628 1.91275 0
M  V30 3926 C 380.357 0.177344 1.59819 0
M  V30 3927 O 381.547 0.430156 1.68806 0
M  V30 3928 C 378.679 0.950327 3.27386 0
M  V30 3929 H 379.872 2.23421 2.00057 0
M  V30 3930 H 377.425 1.1891 1.0144 0
M  V30 3931 H 378.16 -0.0177938 3.24295 0
M  V30 3932 H 377.945 1.73549 3.51601 0
M  V30 3933 H 379.435 0.917492 4.07396 0
M  V30 3934 N 379.872 -1.04064 1.18357 0
M  V30 3935 C 381.112 -1.78829 0.989921 0
M  V30 3936 C 381.476 -1.86106 -0.472095 0
M  V30 3937 O 382.677 -2.57076 -0.785187 0
M  V30 3938 C 380.948 -3.1823 1.6268 0
M  V30 3939 S 382.507 -4.09332 1.58091 0
M  V30 3940 H 379.325 -0.615754 0.355482 0
M  V30 3941 H 381.927 -1.24778 1.50501 0
M  V30 3942 H 380.631 -3.10543 2.68311 0
M  V30 3943 H 380.162 -3.77357 1.112 0
M  V30 3944 H 382.177 -4.92598 0.596817 0
M  V30 3945 N 381.35 -0.985608 -1.22978 0
M  V30 3946 C 382.578 -0.675582 -1.95559 0
M  V30 3947 C 382.993 0.758413 -1.72897 0
M  V30 3948 O 382.35 1.51094 -1.02357 0
M  V30 3949 C 382.401 -0.96293 -3.48439 0
M  V30 3950 O 382.122 -2.34057 -3.70336 0
M  V30 3951 C 383.623 -0.669585 -4.38214 0
M  V30 3952 H 380.843 -0.250523 -0.622478 0
M  V30 3953 H 383.387 -1.3184 -1.56328 0
M  V30 3954 H 381.542 -0.366033 -3.85667 0
M  V30 3955 H 381.956 -2.43424 -4.64591 0
M  V30 3956 H 383.43 -0.920967 -5.44263 0
M  V30 3957 H 383.907 0.396383 -4.37408 0
M  V30 3958 H 384.513 -1.2472 -4.06602 0
M  V30 3959 N 382.828 1.3818 -0.7579 0
M  V30 3960 C 383.758 2.33027 -0.148597 0
M  V30 3961 C 384.739 1.55085 0.69875 0
M  V30 3962 O 385.924 1.83384 0.639053 0
M  V30 3963 C 383.054 3.3928 0.742034 0
M  V30 3964 C 382.008 4.28 -0.00291946 0
M  V30 3965 C 381.334 5.25146 1.00625 0
M  V30 3966 C 382.634 5.08938 -1.17385 0
M  V30 3967 H 384.328 2.84231 -0.940909 0
M  V30 3968 H 381.874 1.36659 -0.453908 0
M  V30 3969 H 383.827 4.046 1.17799 0
M  V30 3970 H 382.551 2.86569 1.56671 0
M  V30 3971 H 381.21 3.64192 -0.419504 0
M  V30 3972 H 380.858 4.68721 1.8251 0
M  V30 3973 H 380.558 5.85361 0.512428 0
M  V30 3974 H 382.082 5.93342 1.44143 0
M  V30 3975 H 383.496 5.67474 -0.815224 0
M  V30 3976 H 381.893 5.7841 -1.59882 0
M  V30 3977 H 382.963 4.42424 -1.98468 0
M  V30 3978 N 384.306 0.507319 1.49211 0
M  V30 3979 C 385.552 -0.0350047 2.0277 0
M  V30 3980 C 385.885 -1.3606 1.38569 0
M  V30 3981 O 385.16 -1.87321 0.523542 0
M  V30 3982 C 385.443 -0.180916 3.59645 0
M  V30 3983 C 385.296 1.16825 4.34364 0
M  V30 3984 C 386.615 -0.918558 4.30407 0
M  V30 3985 H 383.734 -0.0112473 0.736914 0
M  V30 3986 H 386.376 0.659956 1.7817 0
M  V30 3987 H 384.526 -0.772826 3.80736 0
M  V30 3988 H 386.198 1.79952 4.24753 0
M  V30 3989 H 384.441 1.75594 3.96673 0
M  V30 3990 H 385.112 1.01939 5.42506 0
M  V30 3991 H 387.588 -0.41649 4.1401 0
M  V30 3992 H 386.464 -0.989505 5.39907 0
M  V30 3993 H 386.725 -1.96373 3.96093 0
M  V30 3994 N 385.784 -1.5574 0.241426 0
M  V30 3995 C 386.747 -2.19877 -0.647063 0
M  V30 3996 C 387.747 -1.16642 -1.10686 0
M  V30 3997 O 388.937 -1.41757 -1.01245 0
M  V30 3998 C 386.069 -2.83797 -1.88871 0
M  V30 3999 H 387.262 -2.99772 -0.087574 0
M  V30 4000 H 384.815 -1.56298 -0.00813574 0
M  V30 4001 H 385.55 -2.07824 -2.48957 0
M  V30 4002 H 385.335 -3.59414 -1.56728 0
M  V30 4003 H 386.825 -3.32898 -2.52129 0
M  V30 4004 N 387.262 0.0317525 -1.57568 0
M  V30 4005 C 388.225 1.01783 -2.0536 0
M  V30 4006 C 389.225 1.29203 -0.957253 0
M  V30 4007 O 390.415 1.24251 -1.22095 0
M  V30 4008 C 387.547 2.35137 -2.46827 0
M  V30 4009 H 388.74 0.605062 -2.93733 0
M  V30 4010 H 386.293 0.278514 -1.53799 0
M  V30 4011 H 387.028 2.81168 -1.61602 0
M  V30 4012 H 386.813 2.16566 -3.26866 0
M  V30 4013 H 388.303 3.05938 -2.84239 0
M  V30 4014 N 388.74 1.54641 0.303973 0
M  V30 4015 C 390.017 1.64455 1.05896 0
M  V30 4016 C 390.397 0.490923 2.05312 0
M  V30 4017 O 389.745 -0.512685 2.22674 0
M  V30 4018 C 389.955 3.02331 1.74347 0
M  V30 4019 C 391.303 3.59045 2.26653 0
M  V30 4020 O 392.327 3.04764 1.84384 0
M  V30 4021 O 391.186 4.54081 3.04093 0
M  V30 4022 H 388.28 0.666729 0.489287 0
M  V30 4023 H 390.826 1.66986 0.302298 0
M  V30 4024 H 389.598 3.77734 1.02142 0
M  V30 4025 H 389.221 3.03565 2.56777 0
M  V30 4026 N 390.218 -0.567019 1.47046 0
M  V30 4027 C 391.443 -1.3551 1.57009 0
M  V30 4028 C 391.868 -1.86841 0.217259 0
M  V30 4029 O 391.226 -1.62435 -0.805268 0
M  V30 4030 C 391.274 -2.50777 2.5912 0
M  V30 4031 O 390.378 -3.52706 2.13711 0
M  V30 4032 H 389.719 -0.402919 0.52778 0
M  V30 4033 H 392.249 -0.686241 1.92748 0
M  V30 4034 H 392.259 -2.97481 2.79229 0
M  V30 4035 H 390.934 -2.12771 3.57353 0
M  V30 4036 H 389.511 -3.12374 2.03659 0
M  V30 4037 N 391.696 -1.35014 -0.812953 0
M  V30 4038 C 392.606 -1.2951 -1.95613 0
M  V30 4039 C 393.622 -0.20107 -1.72834 0
M  V30 4040 O 394.798 -0.42932 -1.96771 0
M  V30 4041 C 391.863 -1.06033 -3.30088 0
M  V30 4042 C 390.924 -2.24688 -3.65805 0
M  V30 4043 C 390.157 -2.02322 -4.93864 0
M  V30 4044 O 390.38 -0.986464 -5.61805 0
M  V30 4045 O 389.314 -2.89525 -5.27692 0
M  V30 4046 H 393.14 -2.25705 -2.03202 0
M  V30 4047 H 390.725 -1.15321 -0.949811 0
M  V30 4048 H 392.607 -0.94763 -4.10607 0
M  V30 4049 H 391.282 -0.128852 -3.23443 0
M  V30 4050 H 390.189 -2.41521 -2.85689 0
M  V30 4051 H 391.522 -3.16261 -3.77147 0
M  V30 4052 N 393.175 1.03435 -1.18907 0
M  V30 4053 C 394.403 1.80381 -1.01342 0
M  V30 4054 C 394.818 1.83649 0.438005 0
M  V30 4055 O 394.175 1.27655 1.30424 0
M  V30 4056 C 394.226 3.25689 -1.56873 0
M  V30 4057 O 393.947 3.22673 -2.96334 0
M  V30 4058 C 395.448 4.19255 -1.44014 0
M  V30 4059 H 392.668 0.56784 -0.35749 0
M  V30 4060 H 395.212 1.30317 -1.576 0
M  V30 4061 H 393.367 3.72962 -1.04777 0
M  V30 4062 H 393.781 4.13748 -3.22355 0
M  V30 4063 H 395.255 5.19123 -1.87657 0
M  V30 4064 H 395.732 4.37467 -0.389815 0
M  V30 4065 H 396.338 3.77851 -1.95214 0
M  V30 4066 N 394.653 0.992116 1.22453 0
M  V30 4067 C 395.899 0.668523 1.91464 0
M  V30 4068 C 396.232 -0.797313 1.77078 0
M  V30 4069 O 395.507 -1.5765 1.13916 0
M  V30 4070 C 395.79 1.07424 3.43703 0
M  V30 4071 C 395.643 2.59857 3.67143 0
M  V30 4072 C 396.962 0.626891 4.35612 0
M  V30 4073 H 394.081 0.244341 0.695318 0
M  V30 4074 H 396.723 1.2355 1.44345 0
M  V30 4075 H 394.873 0.591816 3.83966 0
M  V30 4076 H 396.545 3.15764 3.3629 0
M  V30 4077 H 394.788 3.01961 3.11451 0
M  V30 4078 H 395.459 2.83296 4.73759 0
M  V30 4079 H 397.935 1.04125 4.02861 0
M  V30 4080 H 396.811 0.939076 5.40807 0
M  V30 4081 H 397.072 -0.472457 4.39568 0
M  V30 4082 N 396.131 -1.37776 0.765217 0
M  V30 4083 C 397.408 -1.93975 0.251596 0
M  V30 4084 C 397.788 -1.69949 -1.25222 0
M  V30 4085 O 397.136 -1.04457 -2.03226 0
M  V30 4086 C 397.346 -3.43487 0.617895 0
M  V30 4087 C 398.694 -4.20564 0.584029 0
M  V30 4088 O 399.718 -3.5182 0.556888 0
M  V30 4089 O 398.577 -5.43138 0.605291 0
M  V30 4090 H 395.671 -0.82509 0.0561806 0
M  V30 4091 H 398.217 -1.47101 0.846128 0
M  V30 4092 H 396.989 -3.5453 1.65602 0
M  V30 4093 H 396.612 -3.976 -0.00403411 0
M  V30 4094 N 397.609 -0.515225 -1.4894 0
M  V30 4095 C 399.025 -0.172099 -1.58669 0
M  V30 4096 C 399.225 1.32405 -1.51892 0
M  V30 4097 O 398.281 2.10116 -1.40027 0
M  V30 4098 C 399.594 -0.761533 -2.90897 0
M  V30 4099 C 401.142 -0.728926 -3.04394 0
M  V30 4100 C 401.617 -1.29667 -4.39261 0
M  V30 4101 N 403.108 -1.25799 -4.4579 0
M  V30 4102 C 403.843 -1.66733 -5.48623 0
M  V30 4103 N 403.339 -2.15327 -6.58488 0
M  V30 4104 N 405.132 -1.58061 -5.39419 0
M  V30 4105 H 397.283 -1.48778 -1.51588 0
M  V30 4106 H 399.546 -0.617968 -0.718901 0
M  V30 4107 H 399.252 -1.81136 -3.01468 0
M  V30 4108 H 399.126 -0.230106 -3.76497 0
M  V30 4109 H 401.513 0.312098 -2.93445 0
M  V30 4110 H 401.594 -1.29766 -2.20442 0
M  V30 4111 H 401.238 -2.33655 -4.50963 0
M  V30 4112 H 401.168 -0.703752 -5.21876 0
M  V30 4113 H 403.659 -0.902102 -3.66975 0
M  V30 4114 H 403.972 -2.44594 -7.33071 0
M  V30 4115 H 402.317 -2.19311 -6.59491 0
M  V30 4116 H 405.508 -1.19906 -4.52482 0
M  V30 4117 H 405.681 -1.90284 -6.19432 0
M  V30 4118 N 399.087 1.5561 -0.249682 0
M  V30 4119 C 400.05 2.20217 0.635394 0
M  V30 4120 C 401.05 1.17227 1.10066 0
M  V30 4121 O 402.24 1.42292 1.00492 0
M  V30 4122 C 399.372 2.84794 1.87363 0
M  V30 4123 H 400.565 2.99814 0.0716752 0
M  V30 4124 H 398.118 1.563 -0.000153234 0
M  V30 4125 H 398.853 2.09142 2.47851 0
M  V30 4126 H 398.638 3.60241 1.5482 0
M  V30 4127 H 400.128 3.3423 2.5036 0
M  V30 4128 N 400.565 -0.0233959 1.57583 0
M  V30 4129 C 401.812 -0.713063 1.8953 0
M  V30 4130 C 402.14 -1.75056 0.847673 0
M  V30 4131 O 401.395 -1.95119 -0.150636 0
M  V30 4132 C 401.694 -1.41428 3.28227 0
M  V30 4133 C 401.36 -0.512222 4.47981 0
M  V30 4134 C 400.022 -0.263785 4.80476 0
M  V30 4135 C 402.374 0.110248 5.21083 0
M  V30 4136 C 399.702 0.615804 5.83459 0
M  V30 4137 C 402.054 0.977573 6.25001 0
M  V30 4138 C 400.718 1.23542 6.55968 0
M  V30 4139 H 399.988 -0.260928 0.69354 0
M  V30 4140 H 402.635 0.0271047 1.91481 0
M  V30 4141 H 400.94 -2.22791 3.22291 0
M  V30 4142 H 402.637 -1.95355 3.50196 0
M  V30 4143 H 399.227 -0.716013 4.22577 0
M  V30 4144 H 403.411 -0.0687137 4.96252 0
M  V30 4145 H 398.667 0.82382 6.05824 0
M  V30 4146 H 402.841 1.46638 6.80786 0
M  V30 4147 H 400.468 1.91871 7.35588 0
M  V30 4148 N 402.043 -1.548 -0.295768 0
M  V30 4149 C 403.268 -1.78653 -1.05346 0
M  V30 4150 C 403.693 -0.546894 -1.79974 0
M  V30 4151 O 403.051 0.502763 -1.7419 0
M  V30 4152 C 403.099 -2.99679 -2.00561 0
M  V30 4153 O 402.203 -2.7317 -3.08953 0
M  V30 4154 H 401.544 -0.59116 -0.302367 0
M  V30 4155 H 404.074 -2.01895 -0.331598 0
M  V30 4156 H 404.084 -3.27793 -2.42932 0
M  V30 4157 H 402.759 -3.89562 -1.4565 0
M  V30 4158 H 401.336 -2.56089 -2.71059 0
M  V30 4159 N 403.521 0.559213 -1.47345 0
M  V30 4160 C 404.453 1.68161 -1.55738 0
M  V30 4161 C 405.466 1.56636 -0.443744 0
M  V30 4162 O 406.655 1.6363 -0.713258 0
M  V30 4163 C 403.755 3.06611 -1.4437 0
M  V30 4164 C 402.928 3.4391 -2.70268 0
M  V30 4165 C 401.987 4.61515 -2.52765 0
M  V30 4166 O 401.013 4.66197 -3.26572 0
M  V30 4167 N 402.215 5.57883 -1.6046 0
M  V30 4168 H 404.98 1.61408 -2.52522 0
M  V30 4169 H 402.541 0.7458 -1.43699 0
M  V30 4170 H 404.533 3.83117 -1.30398 0
M  V30 4171 H 403.103 3.07602 -0.556766 0
M  V30 4172 H 402.323 2.56873 -2.99015 0
M  V30 4173 H 403.611 3.65605 -3.53851 0
M  V30 4174 H 403.009 5.56855 -0.996422 0
M  V30 4175 H 401.566 6.33723 -1.52441 0
M  V30 4176 N 404.999 1.35443 0.805782 0
M  V30 4177 C 405.932 1.22783 1.92353 0
M  V30 4178 C 406.91 0.115543 1.62189 0
M  V30 4179 O 408.094 0.283778 1.86352 0
M  V30 4180 C 405.221 0.890746 3.26777 0
M  V30 4181 C 404.267 2.01519 3.75889 0
M  V30 4182 S 405.1 3.63101 3.93596 0
M  V30 4183 C 406.256 3.31472 5.30921 0
M  V30 4184 H 406.489 2.17394 2.02798 0
M  V30 4185 H 404.022 1.20669 0.963245 0
M  V30 4186 H 405.98 0.703068 4.04434 0
M  V30 4187 H 404.641 -0.0373152 3.14078 0
M  V30 4188 H 403.834 1.7335 4.7325 0
M  V30 4189 H 403.436 2.16124 3.05231 0
M  V30 4190 H 405.728 2.8435 6.1494 0
M  V30 4191 H 406.671 4.28036 5.64084 0
M  V30 4192 H 407.079 2.67221 4.97246 0
M  V30 4193 N 406.477 -1.02803 1.19454 0
M  V30 4194 C 407.424 -2.11099 0.933046 0
M  V30 4195 C 408.394 -1.65571 -0.132447 0
M  V30 4196 O 409.579 -1.90797 0.00987576 0
M  V30 4197 C 406.719 -3.41763 0.478747 0
M  V30 4198 C 405.832 -4.00833 1.6111 0
M  V30 4199 C 404.967 -5.19511 1.10825 0
M  V30 4200 C 404.006 -5.70639 2.21445 0
M  V30 4201 N 403.143 -6.80589 1.72461 0
M  V30 4202 H 407.983 -2.32804 1.86028 0
M  V30 4203 H 405.52 -1.14179 0.927441 0
M  V30 4204 H 407.478 -4.16736 0.196745 0
M  V30 4205 H 406.108 -3.20166 -0.411493 0
M  V30 4206 H 405.16 -3.23066 2.00829 0
M  V30 4207 H 406.472 -4.34794 2.4445 0
M  V30 4208 H 405.626 -6.01645 0.781533 0
M  V30 4209 H 404.365 -4.87086 0.244606 0
M  V30 4210 H 403.37 -4.87116 2.54947 0
M  V30 4211 H 404.595 -6.05102 3.08267 0
M  V30 4212 H 402.541 -6.50016 0.884056 0
M  V30 4213 H 402.458 -7.13681 2.49389 0
M  V30 4214 H 403.726 -7.66317 1.42755 0
M  V30 4215 N 407.956 -0.998596 -1.21925 0
M  V30 4216 C 408.919 -0.558679 -2.22287 0
M  V30 4217 C 409.919 0.361525 -1.56683 0
M  V30 4218 O 411.109 0.152695 -1.73529 0
M  V30 4219 C 408.241 0.18661 -3.40389 0
M  V30 4220 H 409.434 -1.4463 -2.62721 0
M  V30 4221 H 406.987 -0.786413 -1.35075 0
M  V30 4222 H 407.722 1.08996 -3.05435 0
M  V30 4223 H 407.507 -0.474188 -3.89222 0
M  V30 4224 H 408.997 0.482367 -4.14805 0
M  V30 4225 N 409.434 1.37368 -0.772513 0
M  V30 4226 C 410.397 2.28601 -0.165541 0
M  V30 4227 C 411.397 1.48062 0.627238 0
M  V30 4228 O 412.587 1.68268 0.450715 0
M  V30 4229 C 409.719 3.32023 0.772897 0
M  V30 4230 H 410.912 2.83787 -0.969787 0
M  V30 4231 H 408.465 1.46647 -0.540775 0
M  V30 4232 H 409.2 2.81962 1.60212 0
M  V30 4233 H 408.985 3.91555 0.206585 0
M  V30 4234 H 410.475 4.00197 1.19298 0
M  V30 4235 N 410.912 0.523116 1.48665 0
M  V30 4236 C 412.161 -0.01544 2.01694 0
M  V30 4237 C 412.474 -1.35975 1.40606 0
M  V30 4238 O 413.68 -1.98627 1.85093 0
M  V30 4239 C 412.136 -0.0779303 3.59816 0
M  V30 4240 C 411.744 1.26107 4.29885 0
M  V30 4241 C 413.488 -0.565678 4.20714 0
M  V30 4242 C 411.395 1.15954 5.79921 0
M  V30 4243 H 410.325 -0.00954163 0.75394 0
M  V30 4244 H 412.976 0.665865 1.70993 0
M  V30 4245 H 411.358 -0.824165 3.87329 0
M  V30 4246 H 412.532 2.02233 4.14051 0
M  V30 4247 H 410.847 1.68401 3.80828 0
M  V30 4248 H 413.444 -0.6595 5.30617 0
M  V30 4249 H 413.787 -1.56984 3.85567 0
M  V30 4250 H 414.32 0.12467 3.97605 0
M  V30 4251 H 411.059 2.13864 6.19631 0
M  V30 4252 H 410.579 0.439529 5.98187 0
M  V30 4253 H 412.258 0.847361 6.41427 0
M  V30 4254 N 412.39 -1.55475 0.257931 0
M  V30 4255 C 413.806 -1.59307 -0.0966563 0
M  V30 4256 C 414.006 -1.27514 -1.5602 0
M  V30 4257 O 413.062 -1.02774 -2.30637 0
M  V30 4258 C 414.375 -2.99552 0.262481 0
M  V30 4259 C 415.923 -3.1231 0.207683 0
M  V30 4260 C 416.398 -4.54793 0.541012 0
M  V30 4261 N 417.889 -4.6058 0.491921 0
M  V30 4262 C 418.624 -5.68825 0.722857 0
M  V30 4263 N 418.12 -6.85287 1.0175 0
M  V30 4264 N 419.913 -5.58296 0.652815 0
M  V30 4265 H 412.064 -1.74409 1.21224 0
M  V30 4266 H 414.327 -0.812424 0.48854 0
M  V30 4267 H 414.033 -3.27593 1.27967 0
M  V30 4268 H 413.907 -3.75019 -0.40508 0
M  V30 4269 H 416.294 -2.84044 -0.800195 0
M  V30 4270 H 416.375 -2.39095 0.909255 0
M  V30 4271 H 416.019 -4.83783 1.5465 0
M  V30 4272 H 415.949 -5.26285 -0.18216 0
M  V30 4273 H 418.44 -3.7691 0.273366 0
M  V30 4274 H 418.753 -7.63725 1.18084 0
M  V30 4275 H 417.098 -6.86945 1.05509 0
M  V30 4276 H 420.289 -4.66189 0.422592 0
M  V30 4277 H 420.462 -6.42582 0.836182 0
M  V30 4278 N 413.868 0.0150385 -1.57593 0
M  V30 4279 C 414.831 0.995996 -2.06428 0
M  V30 4280 C 415.831 1.2818 -0.970903 0
M  V30 4281 O 417.021 1.22949 -1.23406 0
M  V30 4282 C 414.153 2.32506 -2.49307 0
M  V30 4283 H 415.346 0.573873 -2.94358 0
M  V30 4284 H 412.899 0.262186 -1.54085 0
M  V30 4285 H 413.634 2.79438 -1.64575 0
M  V30 4286 H 413.419 2.13087 -3.29145 0
M  V30 4287 H 414.909 3.02906 -2.87468 0
M  V30 4288 N 415.346 1.54954 0.287554 0
M  V30 4289 C 416.294 1.87606 1.37502 0
M  V30 4290 C 417.288 0.751001 1.51843 0
M  V30 4291 O 418.494 0.935169 1.53801 0
M  V30 4292 H 414.869 0.595231 0.459569 0
M  V30 4293 H 416.84 2.78477 1.07206 0
M  V30 4294 C 415.589 2.15183 2.73115 0
M  V30 4295 H 414.912 3.01234 2.62866 0
M  V30 4296 H 416.352 2.4196 3.48183 0
M  V30 4297 C 414.811 0.954686 3.2309 0
M  V30 4298 O 415.341 0.181949 4.01288 0
M  V30 4299 N 413.547 0.756368 2.80584 0
M  V30 4300 H 413.094 1.38643 2.17108 0
M  V30 4301 H 413.052 -0.0430391 3.14371 0
M  V30 4302 N 416.824 -0.551391 1.4764 0
M  V30 4303 C 418.054 -1.33163 1.57959 0
M  V30 4304 C 418.462 -1.87785 0.23094 0
M  V30 4305 O 417.805 -1.65996 -0.786825 0
M  V30 4306 C 417.867 -2.53449 2.54958 0
M  V30 4307 C 417.531 -2.20071 4.00522 0
M  V30 4308 C 418.528 -1.77017 4.88836 0
M  V30 4309 C 416.213 -2.31252 4.45901 0
M  V30 4310 C 418.207 -1.4558 6.20552 0
M  V30 4311 C 415.894 -1.99427 5.77644 0
M  V30 4312 C 416.892 -1.56659 6.64791 0
M  V30 4313 O 416.58 -1.25242 7.94084 0
M  V30 4314 H 416.312 -0.412022 0.535923 0
M  V30 4315 H 418.866 -0.674186 1.9402 0
M  V30 4316 H 417.096 -3.22104 2.13976 0
M  V30 4317 H 418.785 -3.15523 2.55343 0
M  V30 4318 H 419.551 -1.67867 4.55023 0
M  V30 4319 H 415.43 -2.63498 3.78272 0
M  V30 4320 H 418.974 -1.12125 6.8853 0
M  V30 4321 H 414.871 -2.08211 6.10998 0
M  V30 4322 H 415.639 -1.38822 8.06642 0
M  V30 4323 N 418.302 -1.35869 -0.798587 0
M  V30 4324 C 419.527 -1.32883 -1.59238 0
M  V30 4325 C 419.952 0.0894587 -1.87887 0
M  V30 4326 O 419.31 1.05869 -1.47178 0
M  V30 4327 C 419.358 -2.14892 -2.89575 0
M  V30 4328 O 418.462 -1.53512 -3.82763 0
M  V30 4329 H 417.803 -0.455236 -0.48338 0
M  V30 4330 H 420.333 -1.79024 -0.990539 0
M  V30 4331 H 420.343 -2.27139 -3.38928 0
M  V30 4332 H 419.018 -3.17998 -2.68049 0
M  V30 4333 H 417.595 -1.50153 -3.41334 0
M  V30 4334 N 419.78 1.02168 -1.19998 0
M  V30 4335 C 420.728 2.12717 -0.940967 0
M  V30 4336 C 421.722 1.69069 0.105841 0
M  V30 4337 O 422.928 1.79946 -0.0440583 0
M  V30 4338 H 419.303 0.695108 -0.28693 0
M  V30 4339 H 421.274 2.3175 -1.87975 0
M  V30 4340 C 420.023 3.44027 -0.504049 0
M  V30 4341 H 419.346 3.78036 -1.30112 0
M  V30 4342 H 420.786 4.22452 -0.361991 0
M  V30 4343 C 419.245 3.27678 0.782878 0
M  V30 4344 O 419.775 3.56949 1.84256 0
M  V30 4345 N 417.981 2.80943 0.742921 0
M  V30 4346 H 417.528 2.57322 -0.119687 0
M  V30 4347 H 417.486 2.70385 1.60435 0
M  V30 4348 N 421.258 1.00505 1.21394 0
M  V30 4349 C 422.669 0.721082 1.72213 0
M  V30 4350 C 423.02 -0.761263 1.80829 0
M  V30 4351 O 422.145 -1.59464 1.46288 0
M  V30 4352 C 422.74 1.30228 3.12772 0
M  V30 4353 C 421.299 1.06743 3.60947 0
M  V30 4354 C 420.446 1.41507 2.38477 0
M  V30 4355 H 423.397 1.17594 1.06571 0
M  V30 4356 H 423.418 0.686955 3.74247 0
M  V30 4357 H 422.93 2.38115 3.06468 0
M  V30 4358 H 421.031 0.00572162 3.726 0
M  V30 4359 H 421.144 1.73936 4.46411 0
M  V30 4360 H 419.508 0.833852 2.40664 0
M  V30 4361 H 420.291 2.50424 2.34824 0
M  V30 4362 N 422.737 -1.36956 0.779787 0
M  V30 4363 C 424.148 -1.82094 0.412156 0
M  V30 4364 C 424.499 -1.64926 -1.06273 0
M  V30 4365 O 423.624 -1.16483 -1.82375 0
M  V30 4366 C 424.219 -3.3059 0.741319 0
M  V30 4367 C 422.778 -3.73974 0.426641 0
M  V30 4368 C 421.925 -2.59368 0.980987 0
M  V30 4369 H 424.876 -1.25314 0.973758 0
M  V30 4370 H 424.897 -3.80489 0.028887 0
M  V30 4371 H 424.409 -3.43054 1.81482 0
M  V30 4372 H 422.51 -3.67076 -0.639215 0
M  V30 4373 H 422.623 -4.69778 0.940515 0
M  V30 4374 H 420.987 -2.51463 0.404757 0
M  V30 4375 H 421.77 -2.74621 2.06005 0
M  V30 4376 N 424.215 -0.530993 -1.48385 0
M  V30 4377 C 425.178 0.220497 -2.28137 0
M  V30 4378 C 426.178 0.866851 -1.35434 0
M  V30 4379 O 427.368 0.726746 -1.58316 0
M  V30 4380 C 424.5 1.31921 -3.1434 0
M  V30 4381 H 425.693 -0.479714 -2.96038 0
M  V30 4382 H 423.246 -0.286968 -1.53643 0
M  V30 4383 H 423.981 2.05264 -2.51072 0
M  V30 4384 H 423.766 0.86085 -3.82533 0
M  V30 4385 H 425.256 1.84776 -3.74497 0
M  V30 4386 N 425.693 1.55336 -0.266172 0
M  V30 4387 C 426.643 2.18848 0.639497 0
M  V30 4388 C 427.627 1.1503 1.12503 0
M  V30 4389 O 428.819 1.40875 1.0716 0
M  V30 4390 C 425.948 2.90626 1.82733 0
M  V30 4391 C 425.034 4.01723 1.35939 0
M  V30 4392 N 425.425 5.02145 0.606988 0
M  V30 4393 C 423.723 4.1463 1.6431 0
M  V30 4394 C 424.424 5.80572 0.362138 0
M  V30 4395 N 423.4 5.35551 0.931971 0
M  V30 4396 H 427.202 2.93845 0.0567057 0
M  V30 4397 H 424.716 1.62252 -0.0693312 0
M  V30 4398 H 426.713 3.34569 2.48735 0
M  V30 4399 H 425.373 2.17137 2.41416 0
M  V30 4400 H 426.384 5.17271 0.255198 0
M  V30 4401 H 423.061 3.52326 2.23993 0
M  V30 4402 H 424.451 6.71472 -0.239848 0
M  V30 4403 N 427.171 -0.0066808 1.57599 0
M  V30 4404 C 428.419 -0.691552 1.899 0
M  V30 4405 C 428.74 -1.74682 0.866672 0
M  V30 4406 O 428.01 -1.95661 -0.0968189 0
M  V30 4407 H 426.59 -0.258416 0.700878 0
M  V30 4408 H 429.252 0.0326655 1.94873 0
M  V30 4409 H 428.348 -1.16702 2.8946 0
M  V30 4410 N 428.649 -1.55105 -0.279332 0
M  V30 4411 C 429.612 -1.86783 -1.32834 0
M  V30 4412 C 430.612 -0.74199 -1.42657 0
M  V30 4413 O 431.802 -1.0102 -1.41918 0
M  V30 4414 C 428.934 -2.06746 -2.71052 0
M  V30 4415 H 430.127 -2.8055 -1.05979 0
M  V30 4416 H 427.68 -1.47499 -0.517087 0
M  V30 4417 H 428.415 -1.15339 -3.03097 0
M  V30 4418 H 428.2 -2.88711 -2.65309 0
M  V30 4419 H 429.69 -2.32549 -3.46858 0
M  V30 4420 N 430.127 0.543554 -1.4793 0
M  V30 4421 C 431.352 1.32995 -1.59145 0
M  V30 4422 C 431.777 1.86472 -0.246956 0
M  V30 4423 O 431.135 1.63696 0.779324 0
M  V30 4424 C 431.183 2.46623 -2.63077 0
M  V30 4425 O 430.287 3.49261 -2.19295 0
M  V30 4426 H 429.628 0.394472 -0.534124 0
M  V30 4427 H 432.158 0.655489 -1.93816 0
M  V30 4428 H 432.168 2.93001 -2.83926 0
M  V30 4429 H 430.843 2.07059 -3.60693 0
M  V30 4430 H 429.42 3.09094 -2.08603 0
M  V30 4431 N 431.605 1.3629 0.791371 0
M  V30 4432 C 432.851 1.30605 1.55146 0
M  V30 4433 C 433.184 -0.115042 1.93859 0
M  V30 4434 O 432.459 -1.06798 1.62556 0
M  V30 4435 C 432.742 2.22692 2.82985 0
M  V30 4436 C 432.595 3.73489 2.50651 0
M  V30 4437 C 433.914 2.13588 3.84796 0
M  V30 4438 H 431.033 0.475761 0.562868 0
M  V30 4439 H 433.675 1.66825 0.909358 0
M  V30 4440 H 431.825 1.91933 3.37778 0
M  V30 4441 H 433.497 4.14758 2.01924 0
M  V30 4442 H 431.74 3.93021 1.83622 0
M  V30 4443 H 432.411 4.3333 3.41949 0
M  V30 4444 H 434.887 2.40659 3.39445 0
M  V30 4445 H 433.763 2.80195 4.71998 0
M  V30 4446 H 434.024 1.12256 4.27611 0
M  V30 4447 N 433.083 -1.0153 1.20538 0
M  V30 4448 C 434.329 -1.75408 1.01783 0
M  V30 4449 C 434.662 -1.88943 -0.448814 0
M  V30 4450 O 433.937 -1.4162 -1.33319 0
M  V30 4451 C 434.22 -3.17255 1.70356 0
M  V30 4452 C 434.073 -3.11508 3.24473 0
M  V30 4453 C 435.392 -4.15955 1.43769 0
M  V30 4454 H 432.511 -0.636713 0.371167 0
M  V30 4455 H 435.153 -1.18436 1.4857 0
M  V30 4456 H 433.303 -3.65898 1.30578 0
M  V30 4457 H 434.975 -2.70658 3.73553 0
M  V30 4458 H 433.218 -2.4887 3.55311 0
M  V30 4459 H 433.889 -4.11784 3.67611 0
M  V30 4460 H 436.365 -3.75973 1.7828 0
M  V30 4461 H 435.241 -5.13368 1.94279 0
M  V30 4462 H 435.502 -4.40586 0.365564 0
M  V30 4463 N 434.561 -1.01147 -1.20859 0
M  V30 4464 C 435.524 -0.582224 -2.21682 0
M  V30 4465 C 436.524 0.344887 -1.57058 0
M  V30 4466 O 437.714 0.134281 -1.73682 0
M  V30 4467 C 434.846 0.150496 -3.40568 0
M  V30 4468 H 436.039 -1.47408 -2.61172 0
M  V30 4469 H 433.592 -0.800695 -1.34233 0
M  V30 4470 H 434.327 1.0575 -3.06574 0
M  V30 4471 H 434.112 -0.515444 -3.88697 0
M  V30 4472 H 435.602 0.438344 -4.15293 0
M  V30 4473 N 436.039 1.36541 -0.78704 0
M  V30 4474 C 437.267 2.03561 -0.370199 0
M  V30 4475 C 437.682 1.59347 1.01263 0
M  V30 4476 O 437.039 0.781781 1.64907 0
M  V30 4477 C 437.09 3.59033 -0.421614 0
M  V30 4478 O 436.811 4.01634 -1.7499 0
M  V30 4479 C 438.312 4.433 0.00489763 0
M  V30 4480 H 435.532 0.653346 -0.152904 0
M  V30 4481 H 438.076 1.74566 -1.06522 0
M  V30 4482 H 436.231 3.86746 0.224971 0
M  V30 4483 H 436.645 4.96217 -1.69909 0
M  V30 4484 H 438.119 5.51939 -0.0822184 0
M  V30 4485 H 438.596 4.26285 1.05723 0
M  V30 4486 H 439.202 4.20843 -0.614085 0
M  V30 4487 N 437.518 0.538854 1.48102 0
M  V30 4488 C 438.767 0.0059532 2.01699 0
M  V30 4489 C 439.08 -1.34476 1.42041 0
M  V30 4490 O 440.286 -1.96653 1.87189 0
M  V30 4491 C 438.742 -0.0397627 3.59878 0
M  V30 4492 C 438.35 1.30659 4.28523 0
M  V30 4493 C 440.094 -0.521024 4.2129 0
M  V30 4494 C 438.001 1.22098 5.78659 0
M  V30 4495 H 436.931 -0.00154456 0.753998 0
M  V30 4496 H 439.582 0.683963 1.70277 0
M  V30 4497 H 437.964 -0.783037 3.88181 0
M  V30 4498 H 439.138 2.06613 4.11883 0
M  V30 4499 H 437.453 1.7243 3.79021 0
M  V30 4500 H 440.05 -0.603184 5.31287 0
M  V30 4501 H 440.393 -1.52885 3.8721 0
M  V30 4502 H 440.926 0.166834 3.9745 0
M  V30 4503 H 437.665 2.20424 6.17328 0
M  V30 4504 H 437.185 0.50295 5.97688 0
M  V30 4505 H 438.864 0.915345 6.40492 0
M  V30 4506 N 438.996 -1.55193 0.274407 0
M  V30 4507 C 439.926 -2.25471 -0.607032 0
M  V30 4508 C 440.907 -1.24461 -1.15946 0
M  V30 4509 O 442.092 -1.53179 -1.19373 0
M  V30 4510 C 439.222 -2.97526 -1.79153 0
M  V30 4511 C 438.176 -4.05459 -1.37067 0
M  V30 4512 C 437.502 -4.65084 -2.6382 0
M  V30 4513 C 438.802 -5.19691 -0.521389 0
M  V30 4514 H 440.496 -2.99393 -0.0209343 0
M  V30 4515 H 438.042 -1.43997 -0.00862866 0
M  V30 4516 H 439.995 -3.45402 -2.41404 0
M  V30 4517 H 438.719 -2.21138 -2.40344 0
M  V30 4518 H 437.378 -3.58393 -0.771355 0
M  V30 4519 H 437.026 -3.85365 -3.23268 0
M  V30 4520 H 436.726 -5.37961 -2.36372 0
M  V30 4521 H 438.25 -5.15708 -3.26921 0
M  V30 4522 H 439.664 -5.63623 -1.04889 0
M  V30 4523 H 438.061 -5.99126 -0.341825 0
M  V30 4524 H 439.131 -4.82713 0.46 0
M  V30 4525 N 440.474 -0.00167713 -1.576 0
M  V30 4526 C 441.699 0.69739 -1.95323 0
M  V30 4527 C 442.124 1.6642 -0.876706 0
M  V30 4528 O 441.482 1.80548 0.165007 0
M  V30 4529 C 441.53 1.40403 -3.32144 0
M  V30 4530 O 440.634 2.5185 -3.26566 0
M  V30 4531 H 439.975 0.185373 -0.637599 0
M  V30 4532 H 442.505 -0.0553665 -2.04525 0
M  V30 4533 H 442.515 1.76707 -3.67748 0
M  V30 4534 H 441.19 0.695167 -4.10049 0
M  V30 4535 H 439.767 2.17861 -3.0264 0
M  V30 4536 N 441.952 1.55251 0.271103 0
M  V30 4537 C 442.9 1.89054 1.35504 0
M  V30 4538 C 443.894 0.767064 1.51038 0
M  V30 4539 O 445.1 0.951429 1.528 0
M  V30 4540 H 441.475 0.600072 0.45323 0
M  V30 4541 H 443.446 2.79598 1.04247 0
M  V30 4542 C 442.195 2.18068 2.70817 0
M  V30 4543 H 441.518 3.04005 2.59656 0
M  V30 4544 H 442.958 2.4564 3.45597 0
M  V30 4545 C 441.417 0.988901 3.2206 0
M  V30 4546 O 441.947 0.224501 4.01072 0
M  V30 4547 N 440.153 0.786085 2.79766 0
M  V30 4548 H 439.7 1.40937 2.15626 0
M  V30 4549 H 439.658 -0.00969349 3.14399 0
M  V30 4550 N 443.43 -0.535701 1.48216 0
M  V30 4551 C 444.707 -1.29683 1.46429 0
M  V30 4552 C 445.087 -2.10391 0.172852 0
M  V30 4553 O 444.435 -2.12282 -0.845488 0
M  V30 4554 C 444.645 -2.18313 2.72287 0
M  V30 4555 C 445.993 -2.78639 3.20383 0
M  V30 4556 O 447.017 -2.28604 2.73164 0
M  V30 4557 O 445.876 -3.69636 4.02531 0
M  V30 4558 H 442.97 -0.585026 0.584529 0
M  V30 4559 H 445.516 -0.552827 1.60443 0
M  V30 4560 H 444.288 -1.58421 3.57797 0
M  V30 4561 H 443.911 -2.99971 2.60966 0
M  V30 4562 N 444.908 -1.36708 -0.784132 0
M  V30 4563 C 445.871 -1.31307 -1.87859 0
M  V30 4564 C 446.871 -0.219654 -1.59293 0
M  V30 4565 O 448.061 -0.47476 -1.67606 0
M  V30 4566 C 445.193 -1.03679 -3.24751 0
M  V30 4567 H 446.386 -2.28647 -1.94064 0
M  V30 4568 H 443.939 -1.21558 -0.98252 0
M  V30 4569 H 444.674 -0.0681936 -3.24228 0
M  V30 4570 H 444.459 -1.82811 -3.46876 0
M  V30 4571 H 445.949 -1.02518 -4.04821 0
M  V30 4572 N 446.386 1.0089 -1.21074 0
M  V30 4573 C 447.316 2.1145 -0.990523 0
M  V30 4574 C 448.297 1.69897 0.0831699 0
M  V30 4575 O 449.482 1.94052 -0.0758853 0
M  V30 4576 C 446.612 3.42914 -0.550177 0
M  V30 4577 C 445.566 3.98244 -1.56799 0
M  V30 4578 C 444.892 5.25568 -0.984013 0
M  V30 4579 C 446.192 4.30752 -2.95381 0
M  V30 4580 H 447.886 2.3013 -1.91521 0
M  V30 4581 H 445.432 1.10592 -0.92225 0
M  V30 4582 H 447.385 4.19653 -0.383305 0
M  V30 4583 H 446.109 3.24014 0.41015 0
M  V30 4584 H 444.768 3.23621 -1.72236 0
M  V30 4585 H 444.416 5.02998 -0.0155216 0
M  V30 4586 H 444.116 5.63551 -1.66384 0
M  V30 4587 H 445.64 6.04955 -0.828378 0
M  V30 4588 H 447.054 4.98349 -2.8341 0
M  V30 4589 H 445.451 4.79869 -3.60341 0
M  V30 4590 H 446.521 3.39192 -3.46521 0
M  V30 4591 N 447.864 1.01787 1.20321 0
M  V30 4592 C 449.28 0.732951 1.41774 0
M  V30 4593 C 449.48 -0.686883 1.89431 0
M  V30 4594 O 448.536 -1.45446 2.06402 0
M  V30 4595 C 449.849 1.75973 2.43832 0
M  V30 4596 C 451.397 1.77802 2.57596 0
M  V30 4597 C 451.872 2.7941 3.62897 0
M  V30 4598 N 453.363 2.78157 3.70382 0
M  V30 4599 C 454.098 3.53434 4.51521 0
M  V30 4600 N 453.594 4.38392 5.36455 0
M  V30 4601 N 455.387 3.42026 4.46066 0
M  V30 4602 H 447.538 1.93447 0.877035 0
M  V30 4603 H 449.801 0.835712 0.447536 0
M  V30 4604 H 449.507 2.77699 2.15815 0
M  V30 4605 H 449.381 1.57292 3.4284 0
M  V30 4606 H 451.768 0.767602 2.84942 0
M  V30 4607 H 451.849 2.00557 1.58779 0
M  V30 4608 H 451.493 3.80616 3.36295 0
M  V30 4609 H 451.423 2.53916 4.61339 0
M  V30 4610 H 453.914 2.16531 3.09714 0
M  V30 4611 H 454.227 4.92596 5.95457 0
M  V30 4612 H 452.572 4.4247 5.35953 0
M  V30 4613 H 455.763 2.75075 3.78749 0
M  V30 4614 H 455.936 4.00946 5.09064 0
M  V30 4615 N 449.342 -1.36122 0.79427 0
M  V30 4616 C 450.305 -2.28309 0.201889 0
M  V30 4617 C 451.305 -1.49041 -0.603603 0
M  V30 4618 O 452.495 -1.68964 -0.423888 0
M  V30 4619 C 449.627 -3.3321 -0.719978 0
M  V30 4620 H 450.82 -2.82208 1.01481 0
M  V30 4621 H 448.373 -1.45768 0.564037 0
M  V30 4622 H 449.108 -2.84475 -1.55706 0
M  V30 4623 H 448.893 -3.91835 -0.144266 0
M  V30 4624 H 450.383 -4.02044 -1.12916 0
M  V30 4625 N 450.82 -0.546701 -1.47814 0
M  V30 4626 C 452.069 -0.0166497 -2.01693 0
M  V30 4627 C 452.382 1.33721 -1.42752 0
M  V30 4628 O 453.588 1.95658 -1.8823 0
M  V30 4629 C 452.044 0.0206769 -3.59894 0
M  V30 4630 C 451.652 -1.3293 -4.27824 0
M  V30 4631 C 453.396 0.498674 -4.21561 0
M  V30 4632 C 451.303 -1.25165 -5.78003 0
M  V30 4633 H 450.233 -0.0024541 -0.753996 0
M  V30 4634 H 452.884 -0.692984 -1.69912 0
M  V30 4635 H 451.266 0.76244 -3.88591 0
M  V30 4636 H 452.44 -2.08795 -4.10781 0
M  V30 4637 H 450.755 -1.74438 -3.78101 0
M  V30 4638 H 453.352 0.575 -5.31599 0
M  V30 4639 H 453.695 1.5083 -3.88016 0
M  V30 4640 H 454.228 -0.18791 -3.97356 0
M  V30 4641 H 450.967 -2.23695 -6.1615 0
M  V30 4642 H 450.487 -0.53464 -5.97412 0
M  V30 4643 H 452.166 -0.949299 -6.39998 0
M  V30 4644 N 452.299 1.55045 -0.282633 0
M  V30 4645 C 453.545 2.0078 0.325436 0
M  V30 4646 C 453.9 1.1676 1.52921 0
M  V30 4647 O 453.193 0.231475 1.90197 0
M  V30 4648 C 453.387 3.49422 0.750938 0
M  V30 4649 C 453.216 4.47827 -0.410056 0
M  V30 4650 C 451.986 4.97288 -0.896239 0
M  V30 4651 C 454.184 4.98903 -1.24902 0
M  V30 4652 N 452.166 5.79508 -2.02591 0
M  V30 4653 C 453.537 5.78644 -2.22646 0
M  V30 4654 C 455.592 4.81126 -1.2815 0
M  V30 4655 C 454.295 6.42502 -3.23393 0
M  V30 4656 C 456.321 5.45789 -2.27745 0
M  V30 4657 C 455.683 6.25348 -3.24222 0
M  V30 4658 H 451.782 0.77747 0.08405 0
M  V30 4659 H 454.366 1.90369 -0.408368 0
M  V30 4660 H 452.537 3.60159 1.45395 0
M  V30 4661 H 454.269 3.81978 1.33698 0
M  V30 4662 H 451.024 4.71219 -0.474277 0
M  V30 4663 H 451.448 6.25308 -2.59459 0
M  V30 4664 H 456.09 4.19215 -0.549397 0
M  V30 4665 H 453.808 7.03558 -3.97533 0
M  V30 4666 H 457.394 5.33972 -2.31009 0
M  V30 4667 H 456.274 6.74498 -4.00027 0
M  V30 4668 N 453.777 0.010035 1.57597 0
M  V30 4669 C 454.687 -0.994226 2.12491 0
M  V30 4670 C 455.703 -1.37013 1.07254 0
M  V30 4671 O 456.879 -1.45542 1.3921 0
M  V30 4672 C 453.944 -2.2642 2.62555 0
M  V30 4673 C 453.005 -1.95049 3.82432 0
M  V30 4674 C 452.238 -3.15991 4.30099 0
M  V30 4675 O 452.461 -4.28015 3.7704 0
M  V30 4676 O 451.395 -2.99403 5.22151 0
M  V30 4677 H 455.221 -0.557549 2.98538 0
M  V30 4678 H 452.806 -0.209413 1.47925 0
M  V30 4679 H 454.688 -3.01009 2.9491 0
M  V30 4680 H 453.363 -2.69306 1.796 0
M  V30 4681 H 452.27 -1.17904 3.55034 0
M  V30 4682 H 453.603 -1.56992 4.66491 0
M  V30 4683 N 455.255 -1.55392 -0.262866 0
M  V30 4684 C 456.187 -1.85392 -1.34768 0
M  V30 4685 C 457.2 -0.739069 -1.45057 0
M  V30 4686 O 458.389 -1.01703 -1.46693 0
M  V30 4687 C 455.489 -2.01088 -2.72795 0
M  V30 4688 C 454.662 -3.31828 -2.84972 0
M  V30 4689 C 453.721 -3.37464 -4.03738 0
M  V30 4690 O 452.747 -4.10778 -3.94018 0
M  V30 4691 N 453.949 -2.65599 -5.16176 0
M  V30 4692 H 456.714 -2.79029 -1.09375 0
M  V30 4693 H 454.275 -1.55434 -0.452981 0
M  V30 4694 H 456.267 -2.02217 -3.50557 0
M  V30 4695 H 454.837 -1.1427 -2.90966 0
M  V30 4696 H 454.057 -3.43152 -1.94012 0
M  V30 4697 H 455.345 -4.18032 -2.90045 0
M  V30 4698 H 454.743 -2.05736 -5.26962 0
M  V30 4699 H 453.3 -2.72439 -5.92132 0
M  V30 4700 N 456.733 0.527833 -1.48498 0
M  V30 4701 C 457.643 1.65907 -1.65867 0
M  V30 4702 C 458.659 1.6537 -0.541192 0
M  V30 4703 O 459.835 1.84282 -0.812534 0
M  V30 4704 C 456.9 3.02364 -1.69637 0
M  V30 4705 C 455.961 3.1374 -2.93028 0
M  V30 4706 C 455.194 4.43688 -2.96609 0
M  V30 4707 O 455.417 5.30913 -2.08538 0
M  V30 4708 O 454.351 4.59475 -3.88802 0
M  V30 4709 H 458.177 1.5419 -2.61647 0
M  V30 4710 H 455.762 0.701163 -1.31924 0
M  V30 4711 H 457.644 3.83515 -1.74625 0
M  V30 4712 H 456.319 3.14401 -0.770312 0
M  V30 4713 H 455.226 2.31877 -2.93571 0
M  V30 4714 H 456.559 3.06621 -3.85026 0
M  V30 4715 N 458.211 1.37122 0.776871 0
M  V30 4716 C 459.141 1.35164 1.90402 0
M  V30 4717 C 460.122 0.221069 1.68657 0
M  V30 4718 O 461.307 0.420642 1.8959 0
M  V30 4719 C 458.437 1.15274 3.27611 0
M  V30 4720 C 457.391 2.25289 3.63908 0
M  V30 4721 C 456.717 1.90527 4.99603 0
M  V30 4722 C 458.017 3.67446 3.71188 0
M  V30 4723 H 459.711 2.29482 1.92297 0
M  V30 4724 H 457.257 1.10465 0.923773 0
M  V30 4725 H 459.21 1.12536 4.06096 0
M  V30 4726 H 457.934 0.174102 3.26136 0
M  V30 4727 H 456.593 2.27174 2.87728 0
M  V30 4728 H 456.241 0.91206 4.94662 0
M  V30 4729 H 455.941 2.64193 5.24858 0
M  V30 4730 H 457.465 1.89367 5.80493 0
M  V30 4731 H 458.879 3.67719 4.39836 0
M  V30 4732 H 457.276 4.40123 4.07936 0
M  V30 4733 H 458.346 4.01443 2.71977 0
M  V30 4734 N 459.689 -1.00246 1.21608 0
M  V30 4735 C 460.917 -1.77631 1.06089 0
M  V30 4736 C 461.332 -1.84746 -0.38916 0
M  V30 4737 O 460.689 -1.31068 -1.26994 0
M  V30 4738 C 460.74 -3.21415 1.65453 0
M  V30 4739 O 460.461 -3.14703 3.04785 0
M  V30 4740 C 461.962 -4.15289 1.55079 0
M  V30 4741 H 459.182 -0.558162 0.37242 0
M  V30 4742 H 461.726 -1.26093 1.60999 0
M  V30 4743 H 459.881 -3.70053 1.14629 0
M  V30 4744 H 460.295 -4.05056 3.33212 0
M  V30 4745 H 461.769 -5.13965 2.01355 0
M  V30 4746 H 462.246 -4.36279 0.505665 0
M  V30 4747 H 462.852 -3.72543 2.05163 0
M  V30 4748 N 461.167 -1.02423 -1.1978 0
M  V30 4749 C 462.444 -0.632802 -1.85081 0
M  V30 4750 C 462.824 0.888745 -1.9148 0
M  V30 4751 O 462.172 1.78357 -1.42832 0
M  V30 4752 C 462.382 -1.28947 -3.24305 0
M  V30 4753 C 463.73 -1.40976 -4.00513 0
M  V30 4754 O 464.754 -1.24628 -3.33686 0
M  V30 4755 O 463.613 -1.67467 -5.20209 0
M  V30 4756 H 460.707 -0.219348 -0.79738 0
M  V30 4757 H 463.253 -1.12209 -1.27307 0
M  V30 4758 H 462.025 -2.3288 -3.14456 0
M  V30 4759 H 461.648 -0.787748 -3.89718 0
M  V30 4760 N 462.645 1.35699 -0.801477 0
M  V30 4761 C 463.578 2.2768 -0.153922 0
M  V30 4762 C 464.556 1.47832 0.67709 0
M  V30 4763 O 465.74 1.77104 0.645474 0
M  V30 4764 C 462.867 3.2943 0.786986 0
M  V30 4765 C 461.913 4.26485 0.0362447 0
M  V30 4766 S 462.746 5.19573 -1.2963 0
M  V30 4767 C 463.902 6.24866 -0.359705 0
M  V30 4768 H 464.135 2.82254 -0.9338 0
M  V30 4769 H 461.668 1.42421 -0.596283 0
M  V30 4770 H 463.626 3.8855 1.32436 0
M  V30 4771 H 462.287 2.73745 1.54021 0
M  V30 4772 H 461.48 4.98378 0.750668 0
M  V30 4773 H 461.082 3.71508 -0.431017 0
M  V30 4774 H 463.374 6.75957 0.456954 0
M  V30 4775 H 464.317 7.00307 -1.04768 0
M  V30 4776 H 464.725 5.64484 0.0423274 0
M  V30 4777 N 464.123 0.554532 1.47522 0
M  V30 4778 C 465.539 0.214107 1.58157 0
M  V30 4779 C 465.739 -1.28331 1.55349 0
M  V30 4780 O 464.795 -2.06329 1.45549 0
M  V30 4781 C 466.108 0.838391 2.88776 0
M  V30 4782 C 467.656 0.809374 3.02354 0
M  V30 4783 C 468.131 1.41268 4.35669 0
M  V30 4784 N 469.622 1.37574 4.42298 0
M  V30 4785 C 470.357 1.8122 5.4401 0
M  V30 4786 N 469.853 2.3271 6.52547 0
M  V30 4787 N 471.646 1.72307 5.35039 0
M  V30 4788 H 463.797 1.52744 1.4759 0
M  V30 4789 H 466.06 0.636812 0.702264 0
M  V30 4790 H 465.766 1.89065 2.96559 0
M  V30 4791 H 465.64 0.329847 3.75755 0
M  V30 4792 H 468.027 -0.234187 2.94169 0
M  V30 4793 H 468.108 1.35565 2.16924 0
M  V30 4794 H 467.752 2.45529 4.4461 0
M  V30 4795 H 467.682 0.841871 5.19827 0
M  V30 4796 H 470.173 0.999081 3.64454 0
M  V30 4797 H 470.486 2.63944 7.26329 0
M  V30 4798 H 468.831 2.36719 6.53444 0
M  V30 4799 H 472.022 1.3186 4.49144 0
M  V30 4800 H 472.195 2.06641 6.14169 0
M  V30 4801 N 465.601 -1.54893 0.290851 0
M  V30 4802 C 466.533 -2.20564 -0.623236 0
M  V30 4803 C 467.546 -1.19519 -1.1054 0
M  V30 4804 O 468.735 -1.46165 -1.02459 0
M  V30 4805 C 465.835 -2.83033 -1.86401 0
M  V30 4806 C 465.008 -4.09916 -1.52604 0
M  V30 4807 C 464.067 -4.56284 -2.62091 0
M  V30 4808 O 463.093 -5.2171 -2.27612 0
M  V30 4809 N 464.295 -4.27746 -3.92446 0
M  V30 4810 H 467.06 -2.99638 -0.0610915 0
M  V30 4811 H 464.621 -1.61508 0.112615 0
M  V30 4812 H 466.613 -3.1099 -2.58973 0
M  V30 4813 H 465.183 -2.0786 -2.33481 0
M  V30 4814 H 464.403 -3.89078 -0.633424 0
M  V30 4815 H 465.691 -4.92554 -1.27547 0
M  V30 4816 H 465.089 -3.7531 -4.23272 0
M  V30 4817 H 463.646 -4.60437 -4.61347 0
M  V30 4818 N 467.08 -0.0183926 -1.57589 0
M  V30 4819 C 468.496 0.337897 -1.55982 0
M  V30 4820 C 468.696 1.73604 -1.02294 0
M  V30 4821 O 467.752 2.43589 -0.664895 0
M  V30 4822 C 469.065 0.196305 -3.00059 0
M  V30 4823 C 470.613 0.269875 -3.11834 0
M  V30 4824 C 471.088 0.157197 -4.5773 0
M  V30 4825 N 472.579 0.214521 -4.62703 0
M  V30 4826 C 473.314 0.150955 -5.73201 0
M  V30 4827 N 472.81 0.0369212 -6.9279 0
M  V30 4828 N 474.603 0.204162 -5.61729 0
M  V30 4829 H 466.754 -0.93279 -1.90821 0
M  V30 4830 H 469.017 -0.359253 -0.877292 0
M  V30 4831 H 468.723 -0.766383 -3.43248 0
M  V30 4832 H 468.597 0.970908 -3.6449 0
M  V30 4833 H 470.984 1.22302 -2.68563 0
M  V30 4834 H 471.065 -0.534918 -2.50144 0
M  V30 4835 H 470.709 -0.792479 -5.01679 0
M  V30 4836 H 470.639 0.980717 -5.17387 0
M  V30 4837 H 473.13 0.303238 -3.76681 0
M  V30 4838 H 473.443 -0.00518321 -7.728 0
M  V30 4839 H 471.788 0.0022886 -6.95 0
M  V30 4840 H 474.979 0.291575 -4.67191 0
M  V30 4841 H 475.152 0.15116 -6.47824 0
M  V30 4842 N 468.558 1.5553 0.254621 0
M  V30 4843 C 469.807 1.76202 0.981612 0
M  V30 4844 C 470.12 0.580883 1.86776 0
M  V30 4845 O 471.326 0.670448 2.63092 0
M  V30 4846 C 469.782 3.11921 1.79537 0
M  V30 4847 C 469.39 4.37659 0.956991 0
M  V30 4848 C 471.134 3.41936 2.51555 0
M  V30 4849 C 469.041 5.64411 1.76619 0
M  V30 4850 H 467.971 0.656841 0.370237 0
M  V30 4851 H 470.622 1.81969 0.236556 0
M  V30 4852 H 469.004 3.00241 2.58208 0
M  V30 4853 H 470.178 4.60307 0.21315 0
M  V30 4854 H 468.493 4.14922 0.350497 0
M  V30 4855 H 471.09 4.33849 3.12536 0
M  V30 4856 H 471.433 2.62905 3.22779 0
M  V30 4857 H 471.966 3.54797 1.799 0
M  V30 4858 H 468.705 6.46241 1.09783 0
M  V30 4859 H 468.225 5.45877 2.48551 0
M  V30 4860 H 469.904 6.03386 2.33527 0
M  V30 4861 N 470.036 -0.519951 1.48776 0
M  V30 4862 C 470.968 -1.63973 1.60142 0
M  V30 4863 C 471.981 -1.55404 0.485117 0
M  V30 4864 O 473.17 -1.61682 0.756391 0
M  V30 4865 C 470.27 -3.02676 1.52449 0
M  V30 4866 C 469.443 -3.36624 2.79291 0
M  V30 4867 C 468.502 -4.54652 2.64912 0
M  V30 4868 O 467.528 -4.57374 3.38818 0
M  V30 4869 N 468.73 -5.53432 1.75195 0
M  V30 4870 H 471.495 -1.54656 2.56713 0
M  V30 4871 H 469.056 -0.707439 1.45626 0
M  V30 4872 H 471.048 -3.79525 1.4051 0
M  V30 4873 H 469.618 -3.06018 0.638125 0
M  V30 4874 H 468.838 -2.48855 3.0572 0
M  V30 4875 H 470.126 -3.56094 3.6342 0
M  V30 4876 H 469.524 -5.54018 1.14371 0
M  V30 4877 H 468.081 -6.29459 1.69189 0
M  V30 4878 N 471.514 -1.37532 -0.769588 0
M  V30 4879 C 472.93 -1.18379 -1.07045 0
M  V30 4880 C 473.13 -0.0214312 -2.01489 0
M  V30 4881 O 472.186 0.637809 -2.44312 0
M  V30 4882 C 473.499 -2.50338 -1.66588 0
M  V30 4883 C 475.047 -2.56879 -1.78835 0
M  V30 4884 C 475.522 -3.88974 -2.41792 0
M  V30 4885 N 477.013 -3.90428 -2.4924 0
M  V30 4886 C 477.748 -4.89388 -2.98809 0
M  V30 4887 N 477.244 -5.98745 -3.48535 0
M  V30 4888 N 479.037 -4.76791 -2.97703 0
M  V30 4889 H 471.188 -2.11921 -0.142541 0
M  V30 4890 H 473.451 -0.939608 -0.125863 0
M  V30 4891 H 473.157 -3.35767 -1.0466 0
M  V30 4892 H 473.031 -2.67583 -2.65856 0
M  V30 4893 H 475.418 -1.71856 -2.39895 0
M  V30 4894 H 475.499 -2.43516 -0.783166 0
M  V30 4895 H 475.143 -4.74412 -1.81371 0
M  V30 4896 H 475.073 -3.99641 -3.4292 0
M  V30 4897 H 477.564 -3.11433 -2.14052 0
M  V30 4898 H 477.877 -6.70205 -3.84767 0
M  V30 4899 H 476.222 -6.02387 -3.46634 0
M  V30 4900 H 479.413 -3.90478 -2.58157 0
M  V30 4901 H 479.586 -5.54069 -3.36024 0
M  V30 4902 N 472.992 0.995999 -1.22138 0
M  V30 4903 C 473.925 2.08302 -0.931952 0
M  V30 4904 C 474.903 1.62127 0.123956 0
M  V30 4905 O 476.087 1.88499 -0.00696004 0
M  V30 4906 C 473.214 3.36317 -0.401068 0
M  V30 4907 C 472.26 4.01413 -1.44117 0
M  V30 4908 S 473.093 4.42664 -3.01345 0
M  V30 4909 C 474.249 5.73853 -2.49887 0
M  V30 4910 H 474.482 2.32532 -1.85246 0
M  V30 4911 H 472.015 1.13005 -1.0521 0
M  V30 4912 H 473.973 4.10375 -0.101352 0
M  V30 4913 H 472.634 3.10123 0.498272 0
M  V30 4914 H 471.827 4.9358 -1.01952 0
M  V30 4915 H 471.429 3.33668 -1.68943 0
M  V30 4916 H 473.721 6.50039 -1.90934 0
M  V30 4917 H 474.664 6.20841 -3.40532 0
M  V30 4918 H 475.072 5.31105 -1.9128 0
M  V30 4919 N 474.47 1.03057 1.19235 0
M  V30 4920 C 475.886 0.747947 1.40989 0
M  V30 4921 C 476.086 -0.666752 1.90149 0
M  V30 4922 O 475.142 -1.43249 2.07933 0
M  V30 4923 C 476.455 1.7855 2.41951 0
M  V30 4924 C 478.003 1.80524 2.55695 0
M  V30 4925 C 478.478 2.83243 3.59913 0
M  V30 4926 N 479.969 2.8207 3.67411 0
M  V30 4927 C 480.704 3.58204 4.47747 0
M  V30 4928 N 480.2 4.44057 5.31775 0
M  V30 4929 N 481.993 3.46738 4.42413 0
M  V30 4930 H 474.144 1.94367 0.856468 0
M  V30 4931 H 476.407 0.840412 0.438647 0
M  V30 4932 H 476.113 2.79973 2.12857 0
M  V30 4933 H 475.987 1.6092 3.41152 0
M  V30 4934 H 478.374 0.79778 2.84112 0
M  V30 4935 H 478.455 2.02229 1.56643 0
M  V30 4936 H 478.099 3.84161 3.32239 0
M  V30 4937 H 478.029 2.58795 4.5862 0
M  V30 4938 H 480.52 2.19803 3.074 0
M  V30 4939 H 480.833 4.98884 5.90199 0
M  V30 4940 H 479.178 4.48129 5.3123 0
M  V30 4941 H 482.369 2.79077 3.75811 0
M  V30 4942 H 482.542 4.06322 5.04783 0
M  V30 4943 N 475.948 -1.35272 0.808662 0
M  V30 4944 C 476.88 -2.28507 0.178149 0
M  V30 4945 C 477.893 -1.50377 -0.623754 0
M  V30 4946 O 479.082 -1.72583 -0.455774 0
M  V30 4947 C 476.182 -3.30038 -0.769959 0
M  V30 4948 C 475.355 -4.37398 -0.0139749 0
M  V30 4949 C 474.414 -5.18775 -0.880875 0
M  V30 4950 O 473.44 -5.68236 -0.331059 0
M  V30 4951 N 474.642 -5.37087 -2.20267 0
M  V30 4952 H 477.407 -2.83255 0.979106 0
M  V30 4953 H 474.968 -1.47643 0.664308 0
M  V30 4954 H 476.96 -3.81371 -1.35418 0
M  V30 4955 H 475.53 -2.75789 -1.47171 0
M  V30 4956 H 474.75 -3.86971 0.751468 0
M  V30 4957 H 476.038 -5.06268 0.506965 0
M  V30 4958 H 475.436 -4.9855 -2.67328 0
M  V30 4959 H 473.993 -5.91593 -2.73608 0
M  V30 4960 N 477.426 -0.562348 -1.47226 0
M  V30 4961 C 478.356 0.170627 -2.32876 0
M  V30 4962 C 479.337 0.903748 -1.44106 0
M  V30 4963 O 480.522 0.883206 -1.72954 0
M  V30 4964 C 477.652 1.19786 -3.25989 0
M  V30 4965 C 476.606 0.580875 -4.2404 0
M  V30 4966 C 475.932 1.71311 -5.06514 0
M  V30 4967 C 477.232 -0.468714 -5.20193 0
M  V30 4968 H 478.926 -0.544441 -2.94408 0
M  V30 4969 H 476.472 -0.263271 -1.41573 0
M  V30 4970 H 478.425 1.71884 -3.84752 0
M  V30 4971 H 477.149 1.94294 -2.62521 0
M  V30 4972 H 475.808 0.0811538 -3.6651 0
M  V30 4973 H 475.456 2.44736 -4.39447 0
M  V30 4974 H 475.156 1.30604 -5.72902 0
M  V30 4975 H 476.68 2.23725 -5.68137 0
M  V30 4976 H 478.094 -0.0336028 -5.7329 0
M  V30 4977 H 476.491 -0.794957 -5.94811 0
M  V30 4978 H 477.561 -1.36269 -4.65359 0
M  V30 4979 N 478.904 1.54736 -0.299062 0
M  V30 4980 C 480.151 2.00101 0.310784 0
M  V30 4981 C 480.479 1.18746 1.54045 0
M  V30 4982 O 479.734 0.251198 1.94081 0
M  V30 4983 C 480.033 3.50199 0.713835 0
M  V30 4984 C 479.699 4.48997 -0.413873 0
M  V30 4985 C 478.361 4.7573 -0.723462 0
M  V30 4986 C 480.713 5.07839 -1.17257 0
M  V30 4987 C 478.041 5.5857 -1.79491 0
M  V30 4988 C 480.393 5.91844 -2.23392 0
M  V30 4989 C 479.057 6.16889 -2.54959 0
M  V30 4990 H 478.327 0.732221 0.113724 0
M  V30 4991 H 480.974 1.86888 -0.417756 0
M  V30 4992 H 479.279 3.61012 1.52243 0
M  V30 4993 H 480.976 3.82723 1.19684 0
M  V30 4994 H 477.566 4.28292 -0.162476 0
M  V30 4995 H 481.75 4.87188 -0.946651 0
M  V30 4996 H 477.006 5.76213 -2.04423 0
M  V30 4997 H 481.18 6.36465 -2.8264 0
M  V30 4998 H 478.807 6.80869 -3.38114 0
M  V30 4999 N 480.382 0.0267497 1.57577 0
M  V30 5000 C 481.628 -0.653371 1.91987 0
M  V30 5001 C 481.961 -1.71915 0.903263 0
M  V30 5002 O 481.236 -1.94358 -0.0743387 0
M  V30 5003 C 481.519 -1.272 3.36886 0
M  V30 5004 C 481.372 -0.215938 4.49281 0
M  V30 5005 C 482.691 -2.19069 3.81703 0
M  V30 5006 H 479.81 -0.236047 0.698177 0
M  V30 5007 H 482.452 0.0835236 1.89816 0
M  V30 5008 H 480.602 -1.90005 3.38866 0
M  V30 5009 H 482.274 0.41449 4.59434 0
M  V30 5010 H 480.517 0.458855 4.31366 0
M  V30 5011 H 481.188 -0.688347 5.47691 0
M  V30 5012 H 483.664 -1.66253 3.81444 0
M  V30 5013 H 482.54 -2.59307 4.83788 0
M  V30 5014 H 482.801 -3.08087 3.17072 0
M  V30 5015 N 481.861 -1.55662 -0.24637 0
M  V30 5016 C 482.809 -1.91186 -1.3248 0
M  V30 5017 C 483.803 -0.790996 -1.49799 0
M  V30 5018 O 485.009 -0.975617 -1.51267 0
M  V30 5019 H 481.384 -0.607207 -0.443626 0
M  V30 5020 H 483.355 -2.81221 -0.997853 0
M  V30 5021 C 482.104 -2.22349 -2.67313 0
M  V30 5022 H 481.427 -3.08097 -2.54786 0
M  V30 5023 H 482.867 -2.51107 -3.41645 0
M  V30 5024 C 481.326 -1.04001 -3.20446 0
M  V30 5025 O 481.856 -0.28828 -4.00664 0
M  V30 5026 N 480.062 -0.830494 -2.7848 0
M  V30 5027 H 479.609 -1.4435 -2.13356 0
M  V30 5028 H 479.567 -0.0403258 -3.14374 0
M  V30 5029 N 483.339 0.512053 -1.4905 0
M  V30 5030 C 484.567 1.29116 -1.61669 0
M  V30 5031 C 484.982 1.86655 -0.283787 0
M  V30 5032 O 484.339 1.67293 0.729331 0
M  V30 5033 C 484.39 2.4293 -2.67707 0
M  V30 5034 O 484.111 1.87758 -3.95826 0
M  V30 5035 C 485.612 3.34476 -2.90931 0
M  V30 5036 H 482.832 0.392009 -0.544583 0
M  V30 5037 H 485.376 0.615881 -1.95006 0
M  V30 5038 H 483.531 3.06308 -2.37179 0
M  V30 5039 H 483.945 2.62393 -4.54148 0
M  V30 5040 H 485.419 4.10642 -3.68886 0
M  V30 5041 H 485.896 3.90801 -2.00427 0
M  V30 5042 H 486.502 2.76874 -3.22832 0
M  V30 5043 N 484.817 1.37938 0.762283 0
M  V30 5044 C 485.747 1.37176 1.88958 0
M  V30 5045 C 486.728 0.238945 1.68413 0
M  V30 5046 O 487.913 0.440726 1.89133 0
M  V30 5047 C 485.043 1.18742 3.2637 0
M  V30 5048 C 483.997 2.29136 3.61498 0
M  V30 5049 C 483.323 1.95816 4.97554 0
M  V30 5050 C 484.623 3.71363 3.6727 0
M  V30 5051 H 486.317 2.31509 1.89853 0
M  V30 5052 H 483.863 1.11438 0.912005 0
M  V30 5053 H 485.816 1.16837 4.04879 0
M  V30 5054 H 484.54 0.208683 3.25933 0
M  V30 5055 H 483.199 2.30213 2.85303 0
M  V30 5056 H 482.847 0.964475 4.93667 0
M  V30 5057 H 482.547 2.69745 5.22026 0
M  V30 5058 H 484.071 1.95513 5.78452 0
M  V30 5059 H 485.485 3.72364 4.35911 0
M  V30 5060 H 483.882 4.44425 4.03245 0
M  V30 5061 H 484.952 4.04305 2.67704 0
M  V30 5062 N 486.295 -0.989507 1.22664 0
M  V30 5063 C 487.227 -2.0824 0.957542 0
M  V30 5064 C 488.24 -1.6267 -0.0651098 0
M  V30 5065 O 489.429 -1.77695 0.169312 0
M  V30 5066 C 486.529 -3.36298 0.419145 0
M  V30 5067 C 485.702 -4.10882 1.49982 0
M  V30 5068 C 484.761 -5.17221 0.967904 0
M  V30 5069 O 483.787 -5.44613 1.65487 0
M  V30 5070 N 484.989 -5.80124 -0.20896 0
M  V30 5071 H 487.754 -2.31904 1.89843 0
M  V30 5072 H 485.315 -1.15552 1.13399 0
M  V30 5073 H 487.307 -4.04671 0.0485451 0
M  V30 5074 H 485.877 -3.09671 -0.426937 0
M  V30 5075 H 485.097 -3.37092 2.04359 0
M  V30 5076 H 486.385 -4.57482 2.22682 0
M  V30 5077 H 485.783 -5.60244 -0.783818 0
M  V30 5078 H 484.34 -6.49715 -0.520913 0
M  V30 5079 N 487.773 -1.03688 -1.18687 0
M  V30 5080 C 488.683 -0.634908 -2.25845 0
M  V30 5081 C 489.699 0.337065 -1.70704 0
M  V30 5082 O 490.875 0.192943 -2.00474 0
M  V30 5083 C 487.94 -0.000180054 -3.467 0
M  V30 5084 C 487.001 -1.02067 -4.1699 0
M  V30 5085 C 486.234 -0.41614 -5.32075 0
M  V30 5086 O 486.457 0.778712 -5.65059 0
M  V30 5087 O 485.391 -1.14296 -5.90948 0
M  V30 5088 H 489.217 -1.52757 -2.62486 0
M  V30 5089 H 486.802 -0.807533 -1.25695 0
M  V30 5090 H 488.684 0.353342 -4.19916 0
M  V30 5091 H 487.359 0.866367 -3.11891 0
M  V30 5092 H 486.266 -1.42592 -3.45859 0
M  V30 5093 H 487.599 -1.85786 -4.5579 0
M  V30 5094 N 489.251 1.34841 -0.815825 0
M  V30 5095 C 490.198 2.29644 -0.230664 0
M  V30 5096 C 491.168 1.53253 0.640533 0
M  V30 5097 O 492.353 1.81653 0.583672 0
M  V30 5098 C 489.493 3.39715 0.607275 0
M  V30 5099 C 488.606 4.31056 -0.28538 0
M  V30 5100 C 487.741 5.28225 0.561446 0
M  V30 5101 C 486.78 6.11204 -0.331035 0
M  V30 5102 N 485.917 7.00483 0.476302 0
M  V30 5103 H 490.757 2.79095 -1.0445 0
M  V30 5104 H 488.294 1.37351 -0.526595 0
M  V30 5105 H 490.252 4.02208 1.10835 0
M  V30 5106 H 488.882 2.91517 1.38629 0
M  V30 5107 H 487.934 3.69487 -0.904621 0
M  V30 5108 H 489.246 4.89239 -0.97193 0
M  V30 5109 H 488.4 5.96135 1.12728 0
M  V30 5110 H 487.139 4.70562 1.28153 0
M  V30 5111 H 486.144 5.42232 -0.909069 0
M  V30 5112 H 487.369 6.70947 -1.04912 0
M  V30 5113 H 485.315 6.45296 1.18019 0
M  V30 5114 H 485.232 7.55847 -0.152008 0
M  V30 5115 H 486.5 7.7273 1.02512 0
M  V30 5116 N 490.729 0.570148 1.46925 0
M  V30 5117 C 491.977 0.0508523 2.02036 0
M  V30 5118 C 492.298 -1.30885 1.44548 0
M  V30 5119 O 491.568 -1.85647 0.625453 0
M  V30 5120 H 490.148 0.0158088 0.746833 0
M  V30 5121 H 492.81 0.743086 1.80178 0
M  V30 5122 H 491.906 -0.027575 3.12088 0
M  V30 5123 N 492.207 -1.54576 0.307264 0
M  V30 5124 C 493.17 -2.22423 -0.553224 0
M  V30 5125 C 494.17 -1.21231 -1.05639 0
M  V30 5126 O 495.36 -1.45923 -0.951419 0
M  V30 5127 C 492.492 -2.91552 -1.76664 0
M  V30 5128 H 493.685 -2.99874 0.0396484 0
M  V30 5129 H 491.238 -1.56192 0.0581629 0
M  V30 5130 H 491.973 -2.18196 -2.39918 0
M  V30 5131 H 491.758 -3.65738 -1.41343 0
M  V30 5132 H 493.248 -3.43292 -2.37783 0
M  V30 5133 N 493.685 -0.035106 -1.57561 0
M  V30 5134 C 494.633 0.962707 -2.11742 0
M  V30 5135 C 495.627 1.33296 -1.0454 0
M  V30 5136 O 496.833 1.31449 -1.22968 0
M  V30 5137 H 493.208 0.32826 -0.676572 0
M  V30 5138 H 495.179 0.48048 -2.94506 0
M  V30 5139 C 493.928 2.23388 -2.66445 0
M  V30 5140 H 493.251 1.95774 -3.48587 0
M  V30 5141 H 494.691 2.91402 -3.07995 0
M  V30 5142 C 493.15 2.96769 -1.59467 0
M  V30 5143 O 493.68 3.89105 -0.998 0
M  V30 5144 N 491.886 2.59212 -1.31369 0
M  V30 5145 H 491.433 1.84202 -1.80076 0
M  V30 5146 H 491.391 3.08618 -0.600173 0
M  V30 5147 N 495.163 1.55791 0.238111 0
M  V30 5148 C 496.579 1.48411 0.587045 0
M  V30 5149 C 496.779 0.72702 1.87927 0
M  V30 5150 O 495.835 0.259942 2.51158 0
M  V30 5151 C 497.148 2.92873 0.681623 0
M  V30 5152 C 498.696 3.03295 0.773363 0
M  V30 5153 C 499.171 4.49082 0.899428 0
M  V30 5154 N 500.662 4.53056 0.964075 0
M  V30 5155 C 501.397 5.63117 1.08104 0
M  V30 5156 N 500.893 6.82969 1.16299 0
M  V30 5157 N 502.686 5.50933 1.11488 0
M  V30 5158 H 494.837 2.0345 -0.610076 0
M  V30 5159 H 497.1 0.924034 -0.211813 0
M  V30 5160 H 496.806 3.51142 -0.19802 0
M  V30 5161 H 496.68 3.43851 1.55069 0
M  V30 5162 H 499.067 2.45101 1.64346 0
M  V30 5163 H 499.148 2.55513 -0.121034 0
M  V30 5164 H 498.792 5.07889 0.0338586 0
M  V30 5165 H 498.722 4.94553 1.809 0
M  V30 5166 H 501.213 3.66737 0.91173 0
M  V30 5167 H 501.526 7.62598 1.25155 0
M  V30 5168 H 499.871 6.85712 1.13241 0
M  V30 5169 H 503.062 4.56231 1.0474 0
M  V30 5170 H 503.235 6.36743 1.20259 0
M  V30 5171 N 496.642 -0.504142 1.49319 0
M  V30 5172 C 497.919 -1.26548 1.49147 0
M  V30 5173 C 498.299 -2.09977 0.21744 0
M  V30 5174 O 497.647 -2.14028 -0.800269 0
M  V30 5175 C 497.857 -2.12489 2.76857 0
M  V30 5176 C 499.205 -2.7178 3.26222 0
M  V30 5177 O 500.229 -2.22758 2.77952 0
M  V30 5178 O 499.088 -3.61015 4.10281 0
M  V30 5179 H 496.182 -0.572495 0.596806 0
M  V30 5180 H 498.728 -0.51867 1.61579 0
M  V30 5181 H 497.5 -1.50796 3.61077 0
M  V30 5182 H 497.123 -2.94368 2.6727 0
M  V30 5183 N 498.12 -1.38341 -0.754957 0
M  V30 5184 C 499.367 -1.34473 -1.51404 0
M  V30 5185 C 499.695 0.0656458 -1.94389 0
M  V30 5186 O 498.95 1.04244 -1.65625 0
M  V30 5187 C 499.249 -2.2452 -2.78075 0
M  V30 5188 C 498.915 -3.72512 -2.54059 0
M  V30 5189 C 497.577 -4.1284 -2.47218 0
M  V30 5190 C 499.929 -4.66197 -2.33044 0
M  V30 5191 C 497.257 -5.44945 -2.17376 0
M  V30 5192 C 499.609 -5.98558 -2.04723 0
M  V30 5193 C 498.273 -6.37972 -1.96337 0
M  V30 5194 H 497.543 -0.492072 -0.554027 0
M  V30 5195 H 500.19 -1.70687 -0.868223 0
M  V30 5196 H 498.495 -1.81357 -3.473 0
M  V30 5197 H 500.192 -2.18832 -3.36026 0
M  V30 5198 H 496.782 -3.40538 -2.60253 0
M  V30 5199 H 500.966 -4.35888 -2.37309 0
M  V30 5200 H 496.222 -5.74426 -2.09391 0
M  V30 5201 H 500.396 -6.70693 -1.87465 0
M  V30 5202 H 498.023 -7.40258 -1.72978 0
M  V30 5203 N 499.598 0.982988 -1.23187 0
M  V30 5204 C 500.823 1.76455 -1.08988 0
M  V30 5205 C 501.248 1.84726 0.354691 0
M  V30 5206 O 500.606 1.30699 1.25649 0
M  V30 5207 C 500.654 3.17094 -1.71708 0
M  V30 5208 O 499.758 4.00648 -0.977477 0
M  V30 5209 H 499.099 0.542988 -0.382177 0
M  V30 5210 H 501.629 1.23413 -1.63188 0
M  V30 5211 H 501.639 3.67684 -1.76841 0
M  V30 5212 H 500.314 3.10389 -2.76823 0
M  V30 5213 H 498.891 3.59161 -1.0029 0
M  V30 5214 N 501.076 1.04316 1.18135 0
M  V30 5215 C 502.323 0.74802 1.88178 0
M  V30 5216 C 502.651 -0.72441 1.80506 0
M  V30 5217 O 501.906 -1.54463 1.20165 0
M  V30 5218 C 502.205 1.16271 3.37958 0
M  V30 5219 C 501.871 2.63585 3.65833 0
M  V30 5220 C 500.533 3.03829 3.73151 0
M  V30 5221 C 502.885 3.58822 3.78016 0
M  V30 5222 C 500.213 4.38194 3.90132 0
M  V30 5223 C 502.565 4.92909 3.96514 0
M  V30 5224 C 501.229 5.3282 4.02068 0
M  V30 5225 H 500.499 0.27372 0.688592 0
M  V30 5226 H 503.146 1.30863 1.39811 0
M  V30 5227 H 501.451 0.520938 3.88321 0
M  V30 5228 H 503.148 0.911672 3.90499 0
M  V30 5229 H 499.738 2.31414 3.60757 0
M  V30 5230 H 503.922 3.28875 3.71692 0
M  V30 5231 H 499.178 4.68631 3.92677 0
M  V30 5232 H 503.352 5.66606 4.04883 0
M  V30 5233 H 500.979 6.36943 4.14979 0
M  V30 5234 N 502.554 -1.34406 0.822964 0
M  V30 5235 C 503.803 -1.97542 0.407458 0
M  V30 5236 C 504.116 -1.65973 -1.035 0
M  V30 5237 O 505.322 -2.22598 -1.55442 0
M  V30 5238 C 503.778 -3.53463 0.677623 0
M  V30 5239 C 503.386 -3.93925 2.1337 0
M  V30 5240 C 505.13 -4.23229 0.328284 0
M  V30 5241 C 503.037 -5.42759 2.34876 0
M  V30 5242 H 501.967 -0.739207 0.148623 0
M  V30 5243 H 504.618 -1.53248 1.00932 0
M  V30 5244 H 503 -3.96 0.00558965 0
M  V30 5245 H 504.174 -3.62494 2.8449 0
M  V30 5246 H 502.489 -3.37097 2.44448 0
M  V30 5247 H 505.086 -5.32659 0.466794 0
M  V30 5248 H 505.429 -4.09899 -0.727224 0
M  V30 5249 H 505.962 -3.86169 0.954896 0
M  V30 5250 H 502.701 -5.61075 3.38932 0
M  V30 5251 H 502.221 -5.75704 1.68299 0
M  V30 5252 H 503.9 -6.0944 2.17236 0
M  V30 5253 N 504.032 -0.577932 -1.46621 0
M  V30 5254 C 505.281 -0.0594281 -2.01612 0
M  V30 5255 C 505.594 1.30663 -1.45556 0
M  V30 5256 O 506.8 1.91621 -1.92337 0
M  V30 5257 C 505.256 -0.0556666 -3.59857 0
M  V30 5258 C 504.864 -1.41975 -4.24908 0
M  V30 5259 C 506.608 0.409143 -4.22524 0
M  V30 5260 C 504.515 -1.37397 -5.75218 0
M  V30 5261 H 503.445 -0.0184469 -0.753774 0
M  V30 5262 H 506.096 -0.728869 -1.68404 0
M  V30 5263 H 504.478 0.679843 -3.90121 0
M  V30 5264 H 505.652 -2.17461 -4.0626 0
M  V30 5265 H 503.967 -1.82419 -3.74316 0
M  V30 5266 H 506.564 0.46211 -5.32699 0
M  V30 5267 H 506.907 1.42565 -3.91128 0
M  V30 5268 H 507.44 -0.272152 -3.96868 0
M  V30 5269 H 504.179 -2.36714 -6.11267 0
M  V30 5270 H 503.699 -0.661239 -5.96144 0
M  V30 5271 H 505.378 -1.08484 -6.3784 0
M  V30 5272 N 505.51 1.54411 -0.315457 0
M  V30 5273 C 506.457 2.24048 0.554166 0
M  V30 5274 C 507.427 1.2283 1.11812 0
M  V30 5275 O 508.612 1.51491 1.15997 0
M  V30 5276 C 505.752 2.99574 1.71316 0
M  V30 5277 C 504.865 4.15594 1.17922 0
M  V30 5278 C 504 4.78669 2.30324 0
M  V30 5279 C 503.039 5.86807 1.74137 0
M  V30 5280 N 502.176 6.43777 2.8017 0
M  V30 5281 H 507.016 2.97964 -0.0462602 0
M  V30 5282 H 504.553 1.47059 -0.0346009 0
M  V30 5283 H 506.511 3.41604 2.39505 0
M  V30 5284 H 505.141 2.28008 2.285 0
M  V30 5285 H 504.193 3.78404 0.389136 0
M  V30 5286 H 505.505 4.93459 0.728012 0
M  V30 5287 H 504.659 5.23626 3.06433 0
M  V30 5288 H 503.398 4.00168 2.78778 0
M  V30 5289 H 502.403 5.41261 0.965236 0
M  V30 5290 H 503.628 6.67201 1.2657 0
M  V30 5291 H 501.574 5.68153 3.2793 0
M  V30 5292 H 501.491 7.17031 2.39588 0
M  V30 5293 H 502.759 6.9339 3.56132 0
M  V30 5294 N 506.988 0.0434614 1.5754 0
M  V30 5295 C 507.92 -0.962586 2.08007 0
M  V30 5296 C 508.933 -1.27972 1.00634 0
M  V30 5297 O 510.122 -1.24186 1.28219 0
M  V30 5298 C 507.222 -2.28621 2.50171 0
M  V30 5299 C 506.395 -2.15214 3.80791 0
M  V30 5300 C 505.454 -3.30633 4.09351 0
M  V30 5301 O 504.48 -3.0688 4.79388 0
M  V30 5302 N 505.682 -4.54873 3.60654 0
M  V30 5303 H 508.447 -0.531891 2.94942 0
M  V30 5304 H 506.008 -0.142965 1.61268 0
M  V30 5305 H 508 -3.04689 2.66359 0
M  V30 5306 H 506.57 -2.63283 1.68525 0
M  V30 5307 H 505.79 -1.23785 3.74261 0
M  V30 5308 H 507.078 -2.03475 4.66343 0
M  V30 5309 H 506.476 -4.77063 3.04019 0
M  V30 5310 H 505.033 -5.2806 3.82094 0
M  V30 5311 N 508.466 -1.55915 -0.229846 0
M  V30 5312 C 509.414 -1.9258 -1.30444 0
M  V30 5313 C 510.408 -0.806839 -1.48951 0
M  V30 5314 O 511.614 -0.991606 -1.50224 0
M  V30 5315 H 507.989 -0.611878 -0.437161 0
M  V30 5316 H 509.96 -2.82264 -0.96797 0
M  V30 5317 C 508.709 -2.25171 -2.6494 0
M  V30 5318 H 508.032 -3.10782 -2.51504 0
M  V30 5319 H 509.472 -2.54716 -3.38963 0
M  V30 5320 C 507.931 -1.07394 -3.19324 0
M  V30 5321 O 508.461 -0.330759 -4.00336 0
M  V30 5322 N 506.667 -0.859984 -2.77584 0
M  V30 5323 H 506.214 -1.46605 -2.11813 0
M  V30 5324 H 506.172 -0.0736671 -3.14314 0
M  V30 5325 N 509.944 0.496216 -1.49584 0
M  V30 5326 C 511.192 1.24756 -1.58998 0
M  V30 5327 C 511.513 1.92968 -0.280775 0
M  V30 5328 O 510.783 1.82959 0.700198 0
M  V30 5329 H 509.363 0.463471 -0.585836 0
M  V30 5330 H 512.025 0.574678 -1.86235 0
M  V30 5331 H 511.121 2.00895 -2.38847 0
M  V30 5332 N 511.423 1.38739 0.74761 0
M  V30 5333 C 512.356 1.3083 1.86972 0
M  V30 5334 C 513.334 0.184229 1.61553 0
M  V30 5335 O 514.518 0.36256 1.8498 0
M  V30 5336 C 511.645 1.02854 3.22705 0
M  V30 5337 C 510.691 2.17281 3.67003 0
M  V30 5338 S 511.524 3.79468 3.77842 0
M  V30 5339 C 512.68 3.53692 5.16385 0
M  V30 5340 H 512.913 2.258 1.93395 0
M  V30 5341 H 510.446 1.24646 0.911199 0
M  V30 5342 H 512.404 0.87397 4.01089 0
M  V30 5343 H 511.065 0.0959295 3.13953 0
M  V30 5344 H 510.258 1.93267 4.65472 0
M  V30 5345 H 509.86 2.28876 2.9579 0
M  V30 5346 H 512.152 3.10176 6.02327 0
M  V30 5347 H 513.095 4.51576 5.45422 0
M  V30 5348 H 513.503 2.8807 4.85464 0
M  V30 5349 N 512.901 -0.976442 1.23707 0
M  V30 5350 C 514.148 -1.71827 1.07153 0
M  V30 5351 C 514.476 -1.9053 -0.390982 0
M  V30 5352 O 513.731 -1.45779 -1.30564 0
M  V30 5353 C 514.03 -3.11814 1.74662 0
M  V30 5354 C 513.696 -3.12978 3.24585 0
M  V30 5355 C 512.358 -3.13003 3.6549 0
M  V30 5356 C 514.71 -3.07986 4.20469 0
M  V30 5357 C 512.038 -3.05757 5.00729 0
M  V30 5358 C 514.39 -3.02282 5.55705 0
M  V30 5359 C 513.054 -3.00631 5.95968 0
M  V30 5360 H 512.324 -0.628758 0.392102 0
M  V30 5361 H 514.971 -1.14239 1.53693 0
M  V30 5362 H 513.276 -3.72812 1.20492 0
M  V30 5363 H 514.973 -3.67989 1.59328 0
M  V30 5364 H 511.563 -3.13718 2.92026 0
M  V30 5365 H 515.747 -3.07103 3.89874 0
M  V30 5366 H 511.003 -3.02834 5.31132 0
M  V30 5367 H 515.177 -2.97376 6.29714 0
M  V30 5368 H 512.804 -2.94771 7.00724 0
M  V30 5369 N 514.379 -1.04941 -1.1758 0
M  V30 5370 C 515.604 -0.778253 -1.92245 0
M  V30 5371 C 516.029 0.659707 -1.76152 0
M  V30 5372 O 515.387 1.45803 -1.07755 0
M  V30 5373 C 515.435 -1.16051 -3.41416 0
M  V30 5374 O 514.539 -0.291153 -4.11371 0
M  V30 5375 H 513.88 -0.285619 -0.599431 0
M  V30 5376 H 516.41 -1.40159 -1.49052 0
M  V30 5377 H 516.42 -1.12619 -3.92149 0
M  V30 5378 H 515.095 -2.208 -3.52449 0
M  V30 5379 H 513.672 -0.385851 -3.70898 0
M  V30 5380 N 515.857 1.33968 -0.830081 0
M  V30 5381 C 517.104 1.98063 -0.421566 0
M  V30 5382 C 517.432 1.65787 1.0171 0
M  V30 5383 O 516.687 0.925348 1.72441 0
M  V30 5384 C 516.986 3.52679 -0.57898 0
M  V30 5385 C 516.652 4.04884 -1.98443 0
M  V30 5386 C 515.314 4.18852 -2.36888 0
M  V30 5387 C 517.666 4.32879 -2.90285 0
M  V30 5388 C 514.994 4.58145 -3.66497 0
M  V30 5389 C 517.346 4.7362 -4.19364 0
M  V30 5390 C 516.01 4.85794 -4.57778 0
M  V30 5391 H 515.28 0.724765 -0.154262 0
M  V30 5392 H 517.927 1.59792 -1.05541 0
M  V30 5393 H 516.232 3.91556 0.138219 0
M  V30 5394 H 517.929 4.00261 -0.243317 0
M  V30 5395 H 514.519 3.9448 -1.67581 0
M  V30 5396 H 518.703 4.21619 -2.61823 0
M  V30 5397 H 513.959 4.65762 -3.96075 0
M  V30 5398 H 518.133 4.9424 -4.90612 0
M  V30 5399 H 515.76 5.15998 -5.58256 0
M  V30 5400 N 517.335 0.585699 1.46312 0
M  V30 5401 C 518.56 0.0762461 2.0726 0
M  V30 5402 C 518.985 -1.22071 1.43109 0
M  V30 5403 O 518.343 -1.73804 0.515942 0
M  V30 5404 C 518.391 -0.0729404 3.60526 0
M  V30 5405 O 517.495 -1.1287 3.96654 0
M  V30 5406 H 516.836 0.0641558 0.660893 0
M  V30 5407 H 519.366 0.809492 1.87905 0
M  V30 5408 H 519.376 -0.278158 4.07051 0
M  V30 5409 H 518.051 0.874188 4.06609 0
M  V30 5410 H 516.628 -0.901703 3.61834 0
M  V30 5411 N 518.813 -1.54241 0.323641 0
M  V30 5412 C 520.061 -2.00174 -0.278359 0
M  V30 5413 C 520.382 -1.2134 -1.52648 0
M  V30 5414 O 519.652 -0.315244 -1.93347 0
M  V30 5415 H 518.232 -0.739463 -0.105845 0
M  V30 5416 H 520.894 -1.89864 0.440204 0
M  V30 5417 H 519.99 -3.07486 -0.5347 0
M  V30 5418 N 520.291 -0.0518155 -1.57515 0
M  V30 5419 C 521.221 0.920283 -2.146 0
M  V30 5420 C 522.202 1.32406 -1.06783 0
M  V30 5421 O 523.387 1.39866 -1.34726 0
M  V30 5422 C 520.517 2.1949 -2.6915 0
M  V30 5423 C 519.471 1.93116 -3.81956 0
M  V30 5424 C 518.797 3.27037 -4.23026 0
M  V30 5425 C 520.097 1.25225 -5.07066 0
M  V30 5426 H 521.791 0.444801 -2.96077 0
M  V30 5427 H 519.337 0.212508 -1.42423 0
M  V30 5428 H 521.29 2.87894 -3.07725 0
M  V30 5429 H 520.014 2.69244 -1.84865 0
M  V30 5430 H 518.673 1.27123 -3.43854 0
M  V30 5431 H 518.321 3.74595 -3.3569 0
M  V30 5432 H 518.021 3.10189 -4.99056 0
M  V30 5433 H 519.545 3.96673 -4.64202 0
M  V30 5434 H 520.959 1.83666 -5.43083 0
M  V30 5435 H 519.356 1.18702 -5.88243 0
M  V30 5436 H 520.426 0.228382 -4.84362 0
M  V30 5437 N 521.769 1.56035 0.221574 0
M  V30 5438 C 522.997 1.8313 0.962864 0
M  V30 5439 C 523.412 0.630934 1.77946 0
M  V30 5440 O 522.769 -0.400519 1.78051 0
M  V30 5441 C 522.82 3.08742 1.88045 0
M  V30 5442 O 522.541 4.24147 1.09686 0
M  V30 5443 C 524.042 3.48824 2.73563 0
M  V30 5444 H 521.262 0.608775 0.282194 0
M  V30 5445 H 523.806 2.03124 0.23681 0
M  V30 5446 H 521.961 2.90723 2.56045 0
M  V30 5447 H 522.375 4.95505 1.71974 0
M  V30 5448 H 523.849 4.39752 3.3365 0
M  V30 5449 H 524.326 2.70575 3.45956 0
M  V30 5450 H 524.932 3.69282 2.10976 0
M  V30 5451 N 523.247 -0.488276 1.49845 0
M  V30 5452 C 524.194 -1.58836 1.67451 0
M  V30 5453 C 525.164 -1.57886 0.515857 0
M  V30 5454 O 526.349 -1.75679 0.744403 0
M  V30 5455 C 523.489 -2.96915 1.75885 0
M  V30 5456 C 522.602 -3.07784 3.03138 0
M  V30 5457 C 521.737 -4.36673 3.02473 0
M  V30 5458 C 520.776 -4.41222 4.24252 0
M  V30 5459 N 519.913 -5.61557 4.21424 0
M  V30 5460 H 524.753 -1.43131 2.61376 0
M  V30 5461 H 522.29 -0.696186 1.29583 0
M  V30 5462 H 524.248 -3.76965 1.78755 0
M  V30 5463 H 522.878 -3.11295 0.85414 0
M  V30 5464 H 521.93 -2.20717 3.09819 0
M  V30 5465 H 523.242 -3.07005 3.93128 0
M  V30 5466 H 522.396 -5.25055 3.03977 0
M  V30 5467 H 521.135 -4.40037 2.10283 0
M  V30 5468 H 520.14 -3.5124 4.22978 0
M  V30 5469 H 521.365 -4.39564 5.17649 0
M  V30 5470 H 519.311 -5.65738 3.32078 0
M  V30 5471 H 519.228 -5.62447 5.05163 0
M  V30 5472 H 520.496 -6.52111 4.2705 0
M  V30 5473 N 524.725 -1.39134 -0.740242 0
M  V30 5474 C 525.635 -1.39697 -1.88473 0
M  V30 5475 C 526.651 -0.292403 -1.71526 0
M  V30 5476 O 527.827 -0.533021 -1.94219 0
M  V30 5477 C 524.892 -1.23382 -3.24003 0
M  V30 5478 C 523.953 -2.43763 -3.53381 0
M  V30 5479 C 523.186 -2.28216 -4.82445 0
M  V30 5480 O 523.409 -1.28288 -5.55786 0
M  V30 5481 O 522.343 -3.1709 -5.11603 0
M  V30 5482 H 526.169 -2.36159 -1.90952 0
M  V30 5483 H 523.754 -1.20194 -0.887346 0
M  V30 5484 H 525.636 -1.16395 -4.05006 0
M  V30 5485 H 524.311 -0.300121 -3.22306 0
M  V30 5486 H 523.218 -2.56325 -2.72485 0
M  V30 5487 H 524.551 -3.35808 -3.59852 0
M  V30 5488 N 526.204 0.969867 -1.24223 0
M  V30 5489 C 527.136 2.0669 -0.99055 0
M  V30 5490 C 528.149 1.62753 0.0392222 0
M  V30 5491 O 529.338 1.77403 -0.197561 0
M  V30 5492 C 526.438 3.35589 -0.472594 0
M  V30 5493 C 525.611 4.08444 -1.56499 0
M  V30 5494 C 524.67 5.15616 -1.05007 0
M  V30 5495 O 523.696 5.41911 -1.7413 0
M  V30 5496 N 524.898 5.80383 0.116641 0
M  V30 5497 H 527.663 2.28855 -1.93508 0
M  V30 5498 H 525.224 1.13733 -1.15223 0
M  V30 5499 H 527.216 4.04542 -0.112919 0
M  V30 5500 H 525.786 3.10311 0.377617 0
M  V30 5501 H 525.006 3.33798 -2.09696 0
M  V30 5502 H 526.294 4.53882 -2.29932 0
M  V30 5503 H 525.692 5.6142 0.694589 0
M  V30 5504 H 524.249 6.50462 0.417483 0
M  V30 5505 N 527.682 1.05563 1.17022 0
M  V30 5506 C 528.928 0.769074 1.87652 0
M  V30 5507 C 529.261 -0.702326 1.81055 0
M  V30 5508 O 528.536 -1.5139 1.22112 0
M  V30 5509 C 528.819 1.25492 3.37526 0
M  V30 5510 C 528.672 2.78953 3.52853 0
M  V30 5511 C 529.991 0.856919 4.31677 0
M  V30 5512 H 527.11 0.280854 0.681388 0
M  V30 5513 H 529.752 1.31027 1.37593 0
M  V30 5514 H 527.902 0.794516 3.80289 0
M  V30 5515 H 529.574 3.33146 3.19079 0
M  V30 5516 H 527.817 3.18046 2.95007 0
M  V30 5517 H 528.488 3.08011 4.58076 0
M  V30 5518 H 530.964 1.25334 3.96775 0
M  V30 5519 H 529.84 1.22443 5.35069 0
M  V30 5520 H 530.101 -0.238787 4.41455 0
M  V30 5521 N 529.16 -1.33526 0.837174 0
M  V30 5522 C 530.09 -2.31764 0.284206 0
M  V30 5523 C 531.071 -1.58896 -0.607142 0
M  V30 5524 O 532.256 -1.86798 -0.531047 0
M  V30 5525 C 529.386 -3.43029 -0.542962 0
M  V30 5526 C 528.34 -4.27255 0.252451 0
M  V30 5527 C 527.666 -5.3012 -0.69836 0
M  V30 5528 C 528.966 -5.01229 1.46858 0
M  V30 5529 H 530.66 -2.78262 1.10502 0
M  V30 5530 H 528.206 -1.3378 0.532812 0
M  V30 5531 H 530.159 -4.1078 -0.940096 0
M  V30 5532 H 528.883 -2.95216 -1.39697 0
M  V30 5533 H 527.542 -3.61127 0.631124 0
M  V30 5534 H 527.19 -4.78564 -1.54872 0
M  V30 5535 H 526.89 -5.87353 -0.170274 0
M  V30 5536 H 528.414 -6.00737 -1.09305 0
M  V30 5537 H 529.828 -5.61756 1.14469 0
M  V30 5538 H 528.225 -5.68104 1.93333 0
M  V30 5539 H 529.295 -4.301 2.23924 0
M  V30 5540 N 530.638 -0.59345 -1.46 0
M  V30 5541 C 532.054 -0.255965 -1.57534 0
M  V30 5542 C 532.254 1.24167 -1.58697 0
M  V30 5543 O 531.31 2.02398 -1.50968 0
M  V30 5544 C 532.623 -0.91466 -2.86451 0
M  V30 5545 C 534.171 -0.889253 -3.00102 0
M  V30 5546 C 534.646 -1.52769 -4.3177 0
M  V30 5547 N 536.137 -1.49253 -4.38495 0
M  V30 5548 C 536.872 -1.9558 -5.39014 0
M  V30 5549 N 536.368 -2.49929 -6.46148 0
M  V30 5550 N 538.161 -1.86432 -5.30282 0
M  V30 5551 H 530.312 -1.56604 -1.43489 0
M  V30 5552 H 532.575 -0.655207 -0.685133 0
M  V30 5553 H 532.281 -1.96861 -2.91442 0
M  V30 5554 H 532.155 -0.429356 -3.74748 0
M  V30 5555 H 534.542 0.156111 -2.94687 0
M  V30 5556 H 534.623 -1.41268 -2.13253 0
M  V30 5557 H 534.267 -2.57231 -4.37944 0
M  V30 5558 H 534.197 -0.979398 -5.17412 0
M  V30 5559 H 536.688 -1.09536 -3.61677 0
M  V30 5560 H 537.001 -2.83109 -7.19075 0
M  V30 5561 H 535.346 -2.53961 -6.46938 0
M  V30 5562 H 538.537 -1.43722 -4.4549 0
M  V30 5563 H 538.71 -2.22852 -6.08474 0
M  V30 5564 N 532.116 1.54067 -0.331816 0
M  V30 5565 C 533.046 2.27569 0.522932 0
M  V30 5566 C 534.027 1.28679 1.11247 0
M  V30 5567 O 535.212 1.57504 1.13605 0
M  V30 5568 C 532.342 3.0397 1.67987 0
M  V30 5569 C 531.296 4.10267 1.21924 0
M  V30 5570 C 530.622 4.74555 2.46377 0
M  V30 5571 C 531.922 5.21268 0.32815 0
M  V30 5572 H 533.616 2.99264 -0.0901977 0
M  V30 5573 H 531.162 1.4393 -0.044821 0
M  V30 5574 H 533.115 3.54123 2.28418 0
M  V30 5575 H 531.839 2.29906 2.31971 0
M  V30 5576 H 530.498 3.61009 0.637809 0
M  V30 5577 H 530.146 3.97098 3.08743 0
M  V30 5578 H 529.846 5.46363 2.16243 0
M  V30 5579 H 531.37 5.27487 3.07555 0
M  V30 5580 H 532.784 5.67128 0.838978 0
M  V30 5581 H 531.181 5.99982 0.119228 0
M  V30 5582 H 532.251 4.80673 -0.638839 0
M  V30 5583 N 533.594 0.0601682 1.57485 0
M  V30 5584 C 535.01 -0.296422 1.56823 0
M  V30 5585 C 535.21 -1.70831 1.0686 0
M  V30 5586 O 534.266 -2.4174 0.729245 0
M  V30 5587 C 535.579 -0.116681 3.00474 0
M  V30 5588 C 537.127 -0.187103 3.1244 0
M  V30 5589 C 537.602 -0.035783 4.57986 0
M  V30 5590 N 539.093 -0.0917676 4.63109 0
M  V30 5591 C 539.828 0.00107251 5.734 0
M  V30 5592 N 539.324 0.146773 6.92645 0
M  V30 5593 N 541.117 -0.0551577 5.62073 0
M  V30 5594 H 533.268 0.983055 1.88281 0
M  V30 5595 H 535.531 0.382386 0.867459 0
M  V30 5596 H 535.237 0.85712 3.41096 0
M  V30 5597 H 535.111 -0.873929 3.66936 0
M  V30 5598 H 537.498 -1.15138 2.71712 0
M  V30 5599 H 537.579 0.601052 2.48638 0
M  V30 5600 H 537.223 0.925212 4.99402 0
M  V30 5601 H 537.153 -0.843196 5.19806 0
M  V30 5602 H 539.644 -0.203261 3.77353 0
M  V30 5603 H 539.957 0.210076 7.72514 0
M  V30 5604 H 538.302 0.181979 6.94762 0
M  V30 5605 H 541.493 -0.167605 4.678 0
M  V30 5606 H 541.666 0.020652 6.47997 0
M  V30 5607 N 535.072 -1.5615 -0.213296 0
M  V30 5608 C 535.982 -1.96265 -1.28519 0
M  V30 5609 C 536.998 -0.86765 -1.50824 0
M  V30 5610 O 538.174 -1.17191 -1.63793 0
M  V30 5611 C 535.239 -2.27836 -2.61327 0
M  V30 5612 C 534.3 -3.50949 -2.47252 0
M  V30 5613 C 533.533 -3.81004 -3.73727 0
M  V30 5614 O 533.756 -3.12612 -4.77106 0
M  V30 5615 O 532.69 -4.74477 -3.70344 0
M  V30 5616 H 536.516 -2.87631 -0.974795 0
M  V30 5617 H 534.101 -1.43467 -0.416832 0
M  V30 5618 H 535.983 -2.49299 -3.39747 0
M  V30 5619 H 534.658 -1.39643 -2.9203 0
M  V30 5620 H 533.565 -3.34754 -1.67004 0
M  V30 5621 H 534.898 -4.39551 -2.21486 0
M  V30 5622 N 536.55 0.480323 -1.50102 0
M  V30 5623 C 537.46 1.60547 -1.71061 0
M  V30 5624 C 538.476 1.63564 -0.593529 0
M  V30 5625 O 539.652 1.81604 -0.870751 0
M  V30 5626 C 536.717 2.96814 -1.79171 0
M  V30 5627 C 535.778 3.04259 -3.02861 0
M  V30 5628 C 535.011 4.34027 -3.10574 0
M  V30 5629 O 535.234 5.24009 -2.25323 0
M  V30 5630 O 534.168 4.46873 -4.03223 0
M  V30 5631 H 537.994 1.45788 -2.6642 0
M  V30 5632 H 535.579 0.658838 -1.34088 0
M  V30 5633 H 537.461 3.77765 -1.86738 0
M  V30 5634 H 536.136 3.11791 -0.869947 0
M  V30 5635 H 535.043 2.22419 -3.008 0
M  V30 5636 H 536.376 2.94216 -3.94586 0
M  V30 5637 N 538.028 1.39524 0.732853 0
M  V30 5638 C 539.275 1.36865 1.49246 0
M  V30 5639 C 539.603 -0.0347118 1.94469 0
M  V30 5640 O 538.858 -1.01596 1.67262 0
M  V30 5641 C 539.157 2.28916 2.74468 0
M  V30 5642 C 538.823 3.76506 2.481 0
M  V30 5643 C 537.485 4.16721 2.40619 0
M  V30 5644 C 539.837 4.69846 2.25598 0
M  V30 5645 C 537.165 5.48334 2.08679 0
M  V30 5646 C 539.517 6.01739 1.95174 0
M  V30 5647 C 538.181 6.41015 1.86163 0
M  V30 5648 H 537.451 0.500824 0.546129 0
M  V30 5649 H 540.098 1.72047 0.840958 0
M  V30 5650 H 538.403 1.86859 3.4437 0
M  V30 5651 H 540.1 2.2415 3.32502 0
M  V30 5652 H 536.69 3.44635 2.54803 0
M  V30 5653 H 540.874 4.39608 2.30344 0
M  V30 5654 H 536.13 5.77685 2.00226 0
M  V30 5655 H 540.304 6.73591 1.76771 0
M  V30 5656 H 537.931 7.42917 1.61179 0
M  V30 5657 N 539.506 -0.963266 1.24736 0
M  V30 5658 C 540.754 -1.70343 1.08755 0
M  V30 5659 C 541.075 -1.91387 -0.373619 0
M  V30 5660 O 540.345 -1.4948 -1.2662 0
M  V30 5661 H 538.925 -0.631224 0.399456 0
M  V30 5662 H 541.587 -1.15859 1.56725 0
M  V30 5663 H 540.683 -2.68616 1.58909 0
M  V30 5664 N 540.985 -1.06182 -1.16461 0
M  V30 5665 C 542.231 -0.779015 -1.87241 0
M  V30 5666 C 542.564 0.692715 -1.81425 0
M  V30 5667 O 541.839 1.5074 -1.22913 0
M  V30 5668 C 542.122 -1.2728 -3.36856 0
M  V30 5669 C 541.975 -2.80821 -3.51368 0
M  V30 5670 C 543.294 -0.879799 -4.31216 0
M  V30 5671 H 540.413 -0.284464 -0.679889 0
M  V30 5672 H 543.055 -1.31755 -1.36896 0
M  V30 5673 H 541.205 -0.814673 -3.79862 0
M  V30 5674 H 542.877 -3.34833 -3.17308 0
M  V30 5675 H 541.12 -3.19606 -2.93316 0
M  V30 5676 H 541.791 -3.10435 -4.56436 0
M  V30 5677 H 544.267 -1.27436 -3.96105 0
M  V30 5678 H 543.143 -1.25278 -5.34412 0
M  V30 5679 H 543.404 0.215372 -4.41575 0
M  V30 5680 N 542.463 1.3308 -0.844243 0
M  V30 5681 C 543.693 2.01515 -0.455541 0
M  V30 5682 C 544.101 1.63655 0.949406 0
M  V30 5683 O 543.444 0.84848 1.62931 0
M  V30 5684 C 543.506 3.55967 -0.502801 0
M  V30 5685 C 543.17 4.17222 -1.86481 0
M  V30 5686 C 544.167 4.36205 -2.8288 0
M  V30 5687 C 541.852 4.53528 -2.15911 0
M  V30 5688 C 543.846 4.90649 -4.06869 0
M  V30 5689 C 541.533 5.07679 -3.40155 0
M  V30 5690 C 542.531 5.26186 -4.35451 0
M  V30 5691 O 542.219 5.79183 -5.57496 0
M  V30 5692 H 541.951 0.65199 -0.178565 0
M  V30 5693 H 544.505 1.70867 -1.1399 0
M  V30 5694 H 542.735 3.85965 0.23836 0
M  V30 5695 H 544.424 4.05688 -0.131169 0
M  V30 5696 H 545.19 4.085 -2.61444 0
M  V30 5697 H 541.069 4.38414 -1.42528 0
M  V30 5698 H 544.613 5.0501 -4.81259 0
M  V30 5699 H 540.51 5.34815 -3.61446 0
M  V30 5700 H 541.278 5.97591 -5.5931 0
M  V30 5701 N 543.941 0.601185 1.45683 0
M  V30 5702 C 544.904 -0.111398 2.28929 0
M  V30 5703 C 545.904 -0.801246 1.39416 0
M  V30 5704 O 547.094 -0.650383 1.61603 0
M  V30 5705 C 544.226 -1.16773 3.20276 0
M  V30 5706 H 545.419 0.620412 2.93413 0
M  V30 5707 H 542.972 0.359946 1.52099 0
M  V30 5708 H 543.707 -1.93051 2.60579 0
M  V30 5709 H 543.492 -0.677358 3.86205 0
M  V30 5710 H 544.982 -1.66698 3.82886 0
M  V30 5711 N 545.419 -1.53889 0.339982 0
M  V30 5712 C 546.665 -2.01152 -0.258003 0
M  V30 5713 C 546.998 -1.22749 -1.50487 0
M  V30 5714 O 546.273 -0.314156 -1.91946 0
M  V30 5715 C 546.556 -3.55468 -0.575717 0
M  V30 5716 C 546.409 -4.44584 0.682996 0
M  V30 5717 C 547.728 -4.1768 -1.38677 0
M  V30 5718 H 544.847 -0.731198 -0.0922992 0
M  V30 5719 H 547.489 -1.84352 0.459814 0
M  V30 5720 H 545.639 -3.69914 -1.18725 0
M  V30 5721 H 547.311 -4.41981 1.32102 0
M  V30 5722 H 545.554 -4.13592 1.3086 0
M  V30 5723 H 546.225 -5.5043 0.416001 0
M  V30 5724 H 548.701 -4.0691 -0.869705 0
M  V30 5725 H 547.577 -5.25734 -1.57783 0
M  V30 5726 H 547.838 -3.72069 -2.38782 0
M  V30 5727 N 546.897 -0.0685191 -1.57451 0
M  V30 5728 C 547.86 0.885173 -2.11417 0
M  V30 5729 C 548.86 1.22853 -1.03748 0
M  V30 5730 O 550.05 1.16235 -1.2975 0
M  V30 5731 C 547.182 2.18964 -2.61281 0
M  V30 5732 H 548.375 0.417034 -2.96986 0
M  V30 5733 H 545.928 0.18014 -1.55258 0
M  V30 5734 H 546.663 2.70321 -1.79156 0
M  V30 5735 H 546.448 1.9534 -3.39977 0
M  V30 5736 H 547.938 2.87242 -3.0312 0
M  V30 5737 N 548.375 1.56261 0.205012 0
M  V30 5738 C 549.6 1.84491 0.947512 0
M  V30 5739 C 550.025 0.650894 1.76479 0
M  V30 5740 O 549.383 -0.40035 1.76824 0
M  V30 5741 C 549.431 3.10863 1.82747 0
M  V30 5742 O 548.535 2.90719 2.925 0
M  V30 5743 H 547.876 0.607783 0.267386 0
M  V30 5744 H 550.406 2.03485 0.213323 0
M  V30 5745 H 550.416 3.41399 2.23407 0
M  V30 5746 H 549.091 3.97392 1.2269 0
M  V30 5747 H 547.668 2.71457 2.55667 0
M  V30 5748 N 549.853 -0.472356 1.50355 0
M  V30 5749 C 551.101 -1.22211 1.60962 0
M  V30 5750 C 551.422 -1.92497 0.311439 0
M  V30 5751 O 550.692 -1.8405 -0.671002 0
M  V30 5752 H 549.272 -0.454092 0.593135 0
M  V30 5753 H 551.934 -0.544977 1.87126 0
M  V30 5754 H 551.03 -1.9707 2.42012 0
M  V30 5755 N 551.331 -1.39911 -0.725443 0
M  V30 5756 C 552.747 -1.21725 -1.03224 0
M  V30 5757 C 552.947 -0.0855224 -2.01318 0
M  V30 5758 O 552.003 0.55976 -2.46217 0
M  V30 5759 C 553.316 -2.55511 -1.58539 0
M  V30 5760 C 554.864 -2.62439 -1.70572 0
M  V30 5761 C 555.339 -3.9647 -2.29294 0
M  V30 5762 N 556.83 -3.98159 -2.36692 0
M  V30 5763 C 557.565 -4.98647 -2.83088 0
M  V30 5764 N 557.061 -6.0953 -3.2931 0
M  V30 5765 N 558.854 -4.8602 -2.82384 0
M  V30 5766 H 551.005 -2.12267 -0.075048 0
M  V30 5767 H 553.268 -0.943136 -0.0959066 0
M  V30 5768 H 552.974 -3.38926 -0.939249 0
M  V30 5769 H 552.848 -2.75905 -2.57208 0
M  V30 5770 H 555.235 -1.79401 -2.34306 0
M  V30 5771 H 555.316 -2.45885 -0.705297 0
M  V30 5772 H 554.96 -4.79942 -1.66186 0
M  V30 5773 H 554.89 -4.10349 -3.30032 0
M  V30 5774 H 557.381 -3.18085 -2.04035 0
M  V30 5775 H 557.694 -6.82106 -3.6325 0
M  V30 5776 H 556.039 -6.1311 -3.27294 0
M  V30 5777 H 559.23 -3.98493 -2.45603 0
M  V30 5778 H 559.403 -5.64478 -3.18226 0
M  V30 5779 N 552.809 0.956637 -1.25245 0
M  V30 5780 C 554.055 1.70352 -1.10036 0
M  V30 5781 C 554.388 1.90869 0.358156 0
M  V30 5782 O 553.663 1.47819 1.26411 0
M  V30 5783 C 553.946 3.08766 -1.85298 0
M  V30 5784 C 553.799 2.95672 -3.38966 0
M  V30 5785 C 555.118 4.08622 -1.63451 0
M  V30 5786 H 552.237 0.618279 -0.401123 0
M  V30 5787 H 554.879 1.11212 -1.54051 0
M  V30 5788 H 553.029 3.59252 -1.47887 0
M  V30 5789 H 554.701 2.52527 -3.86041 0
M  V30 5790 H 552.944 2.31634 -3.6678 0
M  V30 5791 H 553.615 3.93776 -3.86839 0
M  V30 5792 H 556.091 3.67038 -1.96015 0
M  V30 5793 H 554.967 5.03514 -2.18551 0
M  V30 5794 H 555.228 4.3834 -0.575357 0
M  V30 5795 N 554.287 1.06798 1.15896 0
M  V30 5796 C 555.235 0.677525 2.22514 0
M  V30 5797 C 556.229 -0.308994 1.66558 0
M  V30 5798 O 557.435 -0.173308 1.79164 0
M  V30 5799 H 553.81 0.200994 0.724642 0
M  V30 5800 H 555.781 1.5865 2.52731 0
M  V30 5801 C 554.53 0.0854153 3.47595 0
M  V30 5802 H 553.853 0.835645 3.90969 0
M  V30 5803 H 555.293 -0.150199 4.23734 0
M  V30 5804 C 553.752 -1.1724 3.15843 0
M  V30 5805 O 554.282 -2.25965 3.32119 0
M  V30 5806 N 552.488 -1.07636 2.69931 0
M  V30 5807 H 552.035 -0.191559 2.56887 0
M  V30 5808 H 551.993 -1.91876 2.4906 0
M  V30 5809 N 555.766 -1.3263 0.851289 0
M  V30 5810 C 557.012 -1.9766 0.453694 0
M  V30 5811 C 557.345 -1.67225 -0.987396 0
M  V30 5812 O 556.62 -0.958693 -1.69232 0
M  V30 5813 C 556.903 -3.5344 0.68936 0
M  V30 5814 C 556.756 -3.93517 2.17862 0
M  V30 5815 C 558.075 -4.39866 0.143555 0
M  V30 5816 H 555.194 -0.717989 0.166314 0
M  V30 5817 H 557.836 -1.57068 1.06909 0
M  V30 5818 H 555.986 -3.88147 0.165546 0
M  V30 5819 H 557.658 -3.69006 2.76826 0
M  V30 5820 H 555.901 -3.42798 2.65841 0
M  V30 5821 H 556.572 -5.02065 2.29422 0
M  V30 5822 H 559.048 -4.11875 0.591451 0
M  V30 5823 H 557.924 -5.47858 0.338043 0
M  V30 5824 H 558.185 -4.31696 -0.953466 0
M  V30 5825 N 557.244 -0.608902 -1.45362 0
M  V30 5826 C 558.207 0.0992563 -2.28985 0
M  V30 5827 C 559.207 0.793841 -1.39838 0
M  V30 5828 O 560.397 0.641804 -1.61946 0
M  V30 5829 C 557.529 1.15073 -3.20891 0
M  V30 5830 H 558.722 -0.635964 -2.93079 0
M  V30 5831 H 556.275 -0.368007 -1.51906 0
M  V30 5832 H 557.01 1.91667 -2.616 0
M  V30 5833 H 556.795 0.656867 -3.86559 0
M  V30 5834 H 558.285 1.64665 -3.83765 0
M  V30 5835 N 558.722 1.53707 -0.348139 0
M  V30 5836 C 559.97 2.00591 0.246478 0
M  V30 5837 C 560.291 1.23753 1.50699 0
M  V30 5838 O 559.561 0.345964 1.92821 0
M  V30 5839 H 558.141 0.741053 0.0940679 0
M  V30 5840 H 560.803 1.89139 -0.470354 0
M  V30 5841 H 559.899 3.08297 0.485714 0
M  V30 5842 N 560.2 0.0768682 1.57412 0
M  V30 5843 C 561.133 -0.924685 2.08626 0
M  V30 5844 C 562.111 -1.28792 0.992542 0
M  V30 5845 O 563.295 -1.39634 1.26628 0
M  V30 5846 C 560.422 -2.23131 2.54814 0
M  V30 5847 C 559.468 -2.01928 3.75669 0
M  V30 5848 S 560.301 -1.27397 5.20125 0
M  V30 5849 C 561.457 -2.59329 5.69648 0
M  V30 5850 H 561.69 -0.488928 2.93252 0
M  V30 5851 H 559.223 -0.136014 1.538 0
M  V30 5852 H 561.181 -2.98226 2.82084 0
M  V30 5853 H 559.842 -2.63831 1.70447 0
M  V30 5854 H 559.035 -2.98639 4.05993 0
M  V30 5855 H 558.637 -1.34967 3.48798 0
M  V30 5856 H 560.929 -3.55394 5.76803 0
M  V30 5857 H 561.872 -2.33608 6.68456 0
M  V30 5858 H 562.28 -2.66767 4.9749 0
M  V30 5859 N 561.678 -1.56367 -0.196722 0
M  V30 5860 C 562.906 -1.84639 -0.933608 0
M  V30 5861 C 563.321 -0.659164 -1.76919 0
M  V30 5862 O 562.678 0.372142 -1.78665 0
M  V30 5863 C 562.729 -3.11694 -1.83109 0
M  V30 5864 O 562.45 -4.25838 -1.02924 0
M  V30 5865 C 563.951 -3.53132 -2.67979 0
M  V30 5866 H 561.171 -0.613188 -0.272473 0
M  V30 5867 H 563.715 -2.03475 -0.204465 0
M  V30 5868 H 561.87 -2.94759 -2.51387 0
M  V30 5869 H 562.284 -4.98178 -1.64069 0
M  V30 5870 H 563.758 -4.45005 -3.26611 0
M  V30 5871 H 564.235 -2.76045 -3.41608 0
M  V30 5872 H 564.841 -3.72592 -2.05074 0
M  V30 5873 N 563.156 0.464375 -1.50603 0
M  V30 5874 C 564.567 1.04507 -1.5471 0
M  V30 5875 C 564.918 1.9297 -0.354542 0
M  V30 5876 O 564.043 2.09763 0.531812 0
M  V30 5877 C 564.638 1.90207 -2.80369 0
M  V30 5878 C 563.197 2.43373 -2.87135 0
M  V30 5879 C 562.344 1.21886 -2.49076 0
M  V30 5880 H 565.295 0.246716 -1.56771 0
M  V30 5881 H 565.316 2.75353 -2.62604 0
M  V30 5882 H 564.828 1.25796 -3.67147 0
M  V30 5883 H 562.929 3.11318 -2.04724 0
M  V30 5884 H 563.042 2.7802 -3.90181 0
M  V30 5885 H 561.406 1.55575 -2.01664 0
M  V30 5886 H 562.189 0.591268 -3.3817 0
M  V30 5887 N 564.634 1.40294 0.718013 0
M  V30 5888 C 565.911 1.2894 1.47084 0
M  V30 5889 C 566.291 -0.0933625 2.10893 0
M  V30 5890 O 565.639 -1.10598 1.99951 0
M  V30 5891 C 565.849 2.4264 2.50852 0
M  V30 5892 C 567.197 2.8276 3.16752 0
M  V30 5893 O 568.221 2.42215 2.61171 0
M  V30 5894 O 567.08 3.528 4.17366 0
M  V30 5895 H 564.174 0.506236 0.653952 0
M  V30 5896 H 566.72 1.52208 0.750394 0
M  V30 5897 H 565.492 3.35009 2.022 0
M  V30 5898 H 565.115 2.21129 3.30435 0
M  V30 5899 N 566.112 -0.949982 1.2575 0
M  V30 5900 C 567.06 -2.06869 1.06339 0
M  V30 5901 C 568.054 -1.69399 -0.00708901 0
M  V30 5902 O 569.26 -1.79383 0.148897 0
M  V30 5903 H 565.635 -0.677197 0.326969 0
M  V30 5904 H 567.606 -2.20396 2.01167 0
M  V30 5905 C 566.355 -3.40503 0.703769 0
M  V30 5906 H 565.678 -3.69807 1.51931 0
M  V30 5907 H 567.118 -4.19623 0.607677 0
M  V30 5908 C 565.577 -3.31685 -0.5905 0
M  V30 5909 O 566.107 -3.67085 -1.63131 0
M  V30 5910 N 564.313 -2.84797 -0.577859 0
M  V30 5911 H 563.86 -2.56186 0.26951 0
M  V30 5912 H 563.818 -2.79279 -1.44398 0
M  V30 5913 N 567.59 -1.07411 -1.15328 0
M  V30 5914 C 568.523 -0.63913 -2.19067 0
M  V30 5915 C 569.501 0.343929 -1.58921 0
M  V30 5916 O 570.685 0.250207 -1.86832 0
M  V30 5917 C 567.812 0.0613977 -3.38644 0
M  V30 5918 C 566.858 -0.880201 -4.17318 0
M  V30 5919 S 567.691 -2.38152 -4.79629 0
M  V30 5920 C 568.847 -1.69281 -6.02573 0
M  V30 5921 H 569.08 -1.51799 -2.55626 0
M  V30 5922 H 566.613 -0.888138 -1.26299 0
M  V30 5923 H 568.571 0.459323 -4.07922 0
M  V30 5924 H 567.232 0.916605 -3.00428 0
M  V30 5925 H 566.425 -0.336781 -5.02874 0
M  V30 5926 H 566.027 -1.21854 -3.53592 0
M  V30 5927 H 568.319 -1.00488 -6.70006 0
M  V30 5928 H 569.262 -2.52671 -6.61485 0
M  V30 5929 H 569.67 -1.17053 -5.52231 0
M  V30 5930 N 569.068 1.32177 -0.85831 0
M  V30 5931 C 570.031 2.27086 -0.310588 0
M  V30 5932 C 571.031 1.51751 0.531806 0
M  V30 5933 O 572.221 1.70794 0.34279 0
M  V30 5934 C 569.353 3.36266 0.560179 0
M  V30 5935 H 570.546 2.77045 -1.1483 0
M  V30 5936 H 568.099 1.42911 -0.632942 0
M  V30 5937 H 568.834 2.9158 1.41956 0
M  V30 5938 H 568.619 3.92077 -0.0428473 0
M  V30 5939 H 570.109 4.06974 0.936056 0
M  V30 5940 N 570.547 0.616602 1.45037 0
M  V30 5941 C 571.958 0.199359 1.85633 0
M  V30 5942 C 572.309 -1.24588 1.51566 0
M  V30 5943 O 571.434 -1.94594 0.94668 0
M  V30 5944 C 572.029 0.355033 3.36935 0
M  V30 5945 C 570.588 -0.00758748 3.76399 0
M  V30 5946 C 569.735 0.675256 2.68953 0
M  V30 5947 H 572.686 0.822708 1.3571 0
M  V30 5948 H 572.707 -0.410201 3.78282 0
M  V30 5949 H 572.219 1.40699 3.61698 0
M  V30 5950 H 570.32 -1.05837 3.57252 0
M  V30 5951 H 570.433 0.392346 4.77491 0
M  V30 5952 H 568.797 0.111992 2.54454 0
M  V30 5953 H 569.58 1.72952 2.96551 0
M  V30 5954 N 572.025 -1.5352 0.356285 0
M  V30 5955 C 572.955 -2.28372 -0.486661 0
M  V30 5956 C 573.936 -1.30432 -1.09185 0
M  V30 5957 O 575.121 -1.59291 -1.11085 0
M  V30 5958 C 572.251 -3.06604 -1.63129 0
M  V30 5959 C 571.205 -4.12154 -1.15381 0
M  V30 5960 C 570.531 -4.78415 -2.38796 0
M  V30 5961 C 571.831 -5.21724 -0.245179 0
M  V30 5962 H 573.525 -2.99083 0.137797 0
M  V30 5963 H 571.071 -1.43841 0.0677134 0
M  V30 5964 H 573.024 -3.57712 -2.22755 0
M  V30 5965 H 571.748 -2.33568 -2.28284 0
M  V30 5966 H 570.407 -3.61978 -0.580294 0
M  V30 5967 H 570.055 -4.01959 -3.02387 0
M  V30 5968 H 569.755 -5.49734 -2.07524 0
M  V30 5969 H 571.279 -5.32313 -2.99125 0
M  V30 5970 H 572.693 -5.68391 -0.748646 0
M  V30 5971 H 571.09 -6.00095 -0.0237608 0
M  V30 5972 H 572.16 -4.79596 0.715229 0
M  V30 5973 N 573.503 -0.0852151 -1.57369 0
M  V30 5974 C 574.743 0.584297 -1.95871 0
M  V30 5975 C 575.107 1.6596 -0.965473 0
M  V30 5976 O 576.308 2.38561 -1.23862 0
M  V30 5977 C 574.579 1.13411 -3.38929 0
M  V30 5978 S 576.138 1.81687 -3.99419 0
M  V30 5979 H 572.956 0.19095 -0.684879 0
M  V30 5980 H 575.558 -0.162267 -1.94825 0
M  V30 5981 H 574.262 0.339845 -4.0899 0
M  V30 5982 H 573.793 1.91672 -3.43548 0
M  V30 5983 H 575.808 3.10037 -3.87417 0
M  V30 5984 N 574.981 1.5647 0.188427 0
M  V30 5985 C 575.891 1.98285 1.2538 0
M  V30 5986 C 576.907 0.891535 1.49424 0
M  V30 5987 O 578.083 1.19782 1.61908 0
M  V30 5988 C 575.148 2.31965 2.57669 0
M  V30 5989 C 574.209 3.54838 2.41638 0
M  V30 5990 C 573.442 3.86901 3.67618 0
M  V30 5991 O 573.665 3.20163 4.72072 0
M  V30 5992 O 572.599 4.80309 3.62749 0
M  V30 5993 H 576.425 2.89145 0.928912 0
M  V30 5994 H 574.01 1.44112 0.393955 0
M  V30 5995 H 575.892 2.54673 3.35737 0
M  V30 5996 H 574.567 1.44271 2.89771 0
M  V30 5997 H 573.474 3.37369 1.61658 0
M  V30 5998 H 574.807 4.43019 2.14465 0
M  V30 5999 N 576.459 -0.456382 1.50847 0
M  V30 6000 C 577.422 -1.53493 1.70213 0
M  V30 6001 C 578.422 -1.50264 0.572481 0
M  V30 6002 O 579.612 -1.52623 0.839751 0
M  V30 6003 C 576.744 -2.93091 1.741 0
M  V30 6004 H 577.937 -1.37633 2.66453 0
M  V30 6005 H 575.49 -0.683776 1.4055 0
M  V30 6006 H 576.225 -3.14378 0.796063 0
M  V30 6007 H 576.01 -2.9684 2.5618 0
M  V30 6008 H 577.5 -3.71368 1.90987 0
M  V30 6009 N 577.937 -1.40673 -0.710563 0
M  V30 6010 C 579.186 -1.38525 -1.46607 0
M  V30 6011 C 579.499 0.0077024 -1.95598 0
M  V30 6012 O 580.705 0.151792 -2.71075 0
M  V30 6013 C 579.161 -2.43489 -2.6503 0
M  V30 6014 C 578.769 -3.88619 -2.22888 0
M  V30 6015 C 580.513 -2.50456 -3.42742 0
M  V30 6016 C 578.42 -4.85168 -3.3818 0
M  V30 6017 H 577.35 -0.515092 -0.550632 0
M  V30 6018 H 580.001 -1.66431 -0.772846 0
M  V30 6019 H 578.383 -2.0869 -3.36548 0
M  V30 6020 H 579.557 -4.32588 -1.58758 0
M  V30 6021 H 577.872 -3.85174 -1.58208 0
M  V30 6022 H 580.469 -3.19776 -4.28541 0
M  V30 6023 H 580.812 -1.53665 -3.86902 0
M  V30 6024 H 581.345 -2.84271 -2.78271 0
M  V30 6025 H 578.084 -5.8331 -2.99047 0
M  V30 6026 H 577.604 -4.4586 -4.01209 0
M  V30 6027 H 579.283 -5.05225 -4.04174 0
M  V30 6028 N 579.415 0.9433 -1.26252 0
M  V30 6029 C 580.661 1.69175 -1.11837 0
M  V30 6030 C 580.994 1.91238 0.337891 0
M  V30 6031 O 580.269 1.49152 1.24836 0
M  V30 6032 C 580.552 3.06783 -1.88563 0
M  V30 6033 C 580.405 2.9206 -3.42083 0
M  V30 6034 C 581.724 4.06865 -1.67776 0
M  V30 6035 H 578.843 0.61399 -0.407658 0
M  V30 6036 H 581.485 1.09572 -1.55222 0
M  V30 6037 H 579.635 3.57663 -1.51689 0
M  V30 6038 H 581.307 2.48419 -3.88698 0
M  V30 6039 H 579.55 2.27731 -3.69217 0
M  V30 6040 H 580.221 3.89651 -3.90994 0
M  V30 6041 H 582.697 3.64939 -1.99897 0
M  V30 6042 H 581.573 5.01168 -2.23879 0
M  V30 6043 H 581.834 4.37705 -0.621816 0
M  V30 6044 N 580.893 1.08022 1.14757 0
M  V30 6045 C 581.856 0.71048 2.1791 0
M  V30 6046 C 582.856 -0.252731 1.58801 0
M  V30 6047 O 584.046 -0.0327915 1.74169 0
M  V30 6048 C 581.178 0.0483203 3.40866 0
M  V30 6049 H 582.371 1.62384 2.52134 0
M  V30 6050 H 579.924 0.877595 1.29337 0
M  V30 6051 H 580.659 -0.876959 3.12218 0
M  V30 6052 H 580.444 0.741189 3.85031 0
M  V30 6053 H 581.934 -0.195471 4.17142 0
M  V30 6054 N 582.371 -1.3172 0.865308 0
M  V30 6055 C 583.617 -1.97168 0.474633 0
M  V30 6056 C 583.95 -1.68263 -0.969604 0
M  V30 6057 O 583.225 -0.976588 -1.68205 0
M  V30 6058 C 583.508 -3.52689 0.726808 0
M  V30 6059 C 583.361 -3.91185 2.22024 0
M  V30 6060 C 584.68 -4.39689 0.190201 0
M  V30 6061 H 581.799 -0.716185 0.17392 0
M  V30 6062 H 584.441 -1.55925 1.08569 0
M  V30 6063 H 582.591 -3.8795 0.206705 0
M  V30 6064 H 584.263 -3.66049 2.80724 0
M  V30 6065 H 582.506 -3.3996 2.69462 0
M  V30 6066 H 583.177 -4.99604 2.34735 0
M  V30 6067 H 585.653 -4.11225 0.635103 0
M  V30 6068 H 584.529 -5.47469 0.396132 0
M  V30 6069 H 584.79 -4.32683 -0.907625 0
M  V30 6070 N 583.85 -0.624285 -1.44708 0
M  V30 6071 C 584.779 0.0717025 -2.3339 0
M  V30 6072 C 585.76 0.841814 -1.47809 0
M  V30 6073 O 586.946 0.809056 -1.76544 0
M  V30 6074 C 584.076 1.05852 -3.30776 0
M  V30 6075 C 583.029 0.400503 -4.26122 0
M  V30 6076 C 582.356 1.49674 -5.13324 0
M  V30 6077 C 583.656 -0.688924 -5.17737 0
M  V30 6078 H 585.35 -0.668819 -2.91834 0
M  V30 6079 H 582.896 -0.32308 -1.40329 0
M  V30 6080 H 584.849 1.5541 -3.91696 0
M  V30 6081 H 583.572 1.82984 -2.70526 0
M  V30 6082 H 582.231 -0.0743687 -3.66525 0
M  V30 6083 H 581.88 2.25877 -4.49431 0
M  V30 6084 H 581.58 1.06188 -5.77926 0
M  V30 6085 H 583.104 1.99427 -5.77115 0
M  V30 6086 H 584.518 -0.276724 -5.72632 0
M  V30 6087 H 582.915 -1.04652 -5.90904 0
M  V30 6088 H 583.985 -1.55884 -4.5916 0
M  V30 6089 O 585.367 1.53348 -0.50662 0
M  V30 6090 H 586.058 1.93698 0.00952266 0
M  V30 END ATOM
M  V30 BEGIN BOND
M  V30 END BOND
M  V30 END CTAB
M  END
$$$$
