drugbank_target|P00634 Alkaline phosphatase (DB02823; DB03498; DB04031; DB04522)
 OpenBabel12092120013D

  0  0  0     0  0            999 V3000
M  V30 BEGIN CTAB
M  V30 COUNTS 6921 6979 0 0 0
M  V30 BEGIN ATOM
M  V30 1 H -0.908 1.98254 -0.117106 0
M  V30 2 N 0 1.576 0 0
M  V30 3 C 0.933 2.03868 1.02534 0
M  V30 4 C 1.911 0.928543 1.3348 0
M  V30 5 O 3.095 1.19667 1.45644 0
M  V30 6 C 0.222 2.43627 2.35294 0
M  V30 7 C -0.732 3.65373 2.2001 0
M  V30 8 S 0.101 5.13292 1.52614 0
M  V30 9 C 1.257 5.56322 2.86805 0
M  V30 10 H 1.49 2.90518 0.631377 0
M  V30 11 H -0.977 1.52953 0.210867 0
M  V30 12 H 0.981 2.67203 3.11629 0
M  V30 13 H -0.358 1.57376 2.7183 0
M  V30 14 H -1.165 3.90944 3.18086 0
M  V30 15 H -1.563 3.418 1.51819 0
M  V30 16 H 0.729 5.58782 3.83104 0
M  V30 17 H 1.672 6.56266 2.65933 0
M  V30 18 H 2.08 4.83886 2.90714 0
M  V30 19 N 1.4781 -0.272755 1.55222 0
M  V30 20 C 2.4251 -1.33716 1.88119 0
M  V30 21 C 3.3951 -1.49066 0.73271 0
M  V30 22 O 4.5801 -1.63469 0.984002 0
M  V30 23 C 1.7201 -2.69238 2.15882 0
M  V30 24 C 0.8331 -2.62108 3.43399 0
M  V30 25 C -0.0319 -3.89811 3.60861 0
M  V30 26 C -0.9929 -3.77193 4.8207 0
M  V30 27 N -1.8559 -4.9673 4.96189 0
M  V30 28 H 2.9841 -1.04962 2.78903 0
M  V30 29 H 0.5211 -0.507088 1.38083 0
M  V30 30 H 2.4791 -3.48089 2.29978 0
M  V30 31 H 1.1091 -2.96194 1.28331 0
M  V30 32 H 0.1611 -1.74967 3.37773 0
M  V30 33 H 1.4731 -2.48685 4.32386 0
M  V30 34 H 0.6271 -4.77103 3.74777 0
M  V30 35 H -0.6339 -4.06102 2.7006 0
M  V30 36 H -1.6289 -2.88284 4.68159 0
M  V30 37 H -0.4039 -3.62421 5.74307 0
M  V30 38 H -2.4579 -5.13431 4.08319 0
M  V30 39 H -2.5409 -4.85839 5.79221 0
M  V30 40 H -1.2729 -5.85594 5.1449 0
M  V30 41 N 2.9562 -1.48159 -0.537278 0
M  V30 42 C 3.8882 -1.58218 -1.65831 0
M  V30 43 C 4.9012 -0.466948 -1.5596 0
M  V30 44 O 6.0902 -0.73747 -1.62553 0
M  V30 45 C 3.1902 -1.48906 -3.04434 0
M  V30 46 C 2.3632 -2.75343 -3.3986 0
M  V30 47 C 1.4222 -2.59588 -4.57712 0
M  V30 48 O 0.4482 -3.33457 -4.61297 0
M  V30 49 N 1.6502 -1.68724 -5.55439 0
M  V30 50 H 4.4152 -2.54891 -1.57641 0
M  V30 51 H 1.9762 -1.4479 -0.724386 0
M  V30 52 H 3.9682 -1.36072 -3.81139 0
M  V30 53 H 2.5382 -0.602368 -3.06741 0
M  V30 54 H 1.7582 -3.02795 -2.52406 0
M  V30 55 H 3.0462 -3.5924 -3.60311 0
M  V30 56 H 2.4442 -1.07898 -5.55315 0
M  V30 57 H 1.0012 -1.61832 -6.3139 0
M  V30 58 N 4.4343 0.785586 -1.36625 0
M  V30 59 C 5.6593 1.57963 -1.34397 0
M  V30 60 C 6.0843 1.87964 0.071526 0
M  V30 61 O 5.4423 1.48182 1.0446 0
M  V30 62 C 5.4903 2.87511 -2.17646 0
M  V30 63 O 4.5943 3.81281 -1.57158 0
M  V30 64 H 3.9353 0.479014 -0.459828 0
M  V30 65 H 6.4653 0.973411 -1.79961 0
M  V30 66 H 6.4753 3.36745 -2.30362 0
M  V30 67 H 5.1503 2.65002 -3.20541 0
M  V30 68 H 3.7273 3.39885 -1.53403 0
M  V30 69 N 5.9124 1.20967 1.01018 0
M  V30 70 C 7.1404 1.04956 1.78303 0
M  V30 71 C 7.5554 -0.400915 1.84494 0
M  V30 72 O 6.9124 -1.27826 1.30257 0
M  V30 73 C 6.9634 1.63403 3.22462 0
M  V30 74 O 6.6844 3.02775 3.16637 0
M  V30 75 C 8.1854 1.52432 4.16268 0
M  V30 76 H 5.4054 0.368858 0.560522 0
M  V30 77 H 7.9494 1.60193 1.27116 0
M  V30 78 H 6.1044 1.1227 3.70775 0
M  V30 79 H 6.5184 3.30626 4.07169 0
M  V30 80 H 7.9924 1.98078 5.15237 0
M  V30 81 H 8.4694 0.477875 4.36592 0
M  V30 82 H 9.0754 2.02787 3.73841 0
M  V30 83 N 7.3905 -1.2043 1.01659 0
M  V30 84 C 8.6395 -1.89118 0.701237 0
M  V30 85 C 8.9525 -1.79705 -0.772358 0
M  V30 86 O 10.1585 -2.43528 -1.20026 0
M  V30 87 C 8.6145 -3.39168 1.20388 0
M  V30 88 C 8.2225 -3.57166 2.70438 0
M  V30 89 C 9.9665 -4.1341 0.963953 0
M  V30 90 C 7.8735 -5.01042 3.14183 0
M  V30 91 H 6.8035 -0.708267 0.2586 0
M  V30 92 H 9.4545 -1.36239 1.22927 0
M  V30 93 H 7.8365 -3.91369 0.603824 0
M  V30 94 H 9.0105 -3.15351 3.35992 0
M  V30 95 H 7.3255 -2.96294 2.92572 0
M  V30 96 H 9.9225 -5.19491 1.26621 0
M  V30 97 H 10.2655 -4.16181 -0.099578 0
M  V30 98 H 10.7985 -3.67309 1.52738 0
M  V30 99 H 7.5375 -5.03426 4.19812 0
M  V30 100 H 7.0575 -5.43668 2.53348 0
M  V30 101 H 8.7365 -5.69623 3.0682 0
M  V30 102 N 8.8686 -0.792821 -1.36206 0
M  V30 103 C 9.8316 -0.199459 -2.2833 0
M  V30 104 C 10.8316 0.605189 -1.48977 0
M  V30 105 O 12.0216 0.425685 -1.68919 0
M  V30 106 C 9.1536 0.723523 -3.33134 0
M  V30 107 H 10.3466 -1.01181 -2.82316 0
M  V30 108 H 7.8996 -0.562485 -1.45828 0
M  V30 109 H 8.6346 1.56008 -2.84309 0
M  V30 110 H 8.4196 0.148436 -3.91819 0
M  V30 111 H 9.9096 1.13344 -4.01924 0
M  V30 112 N 10.3467 1.47872 -0.545128 0
M  V30 113 C 11.2767 2.32661 0.197793 0
M  V30 114 C 12.2577 1.43041 0.920504 0
M  V30 115 O 13.4427 1.71912 0.90333 0
M  V30 116 C 10.5727 3.24569 1.23582 0
M  V30 117 C 9.5267 4.23333 0.630323 0
M  V30 118 C 8.8527 5.0448 1.77211 0
M  V30 119 C 10.1527 5.20704 -0.407974 0
M  V30 120 H 11.8467 2.95024 -0.510045 0
M  V30 121 H 9.3927 1.4187 -0.246731 0
M  V30 122 H 11.3457 3.8272 1.76362 0
M  V30 123 H 10.0697 2.60236 1.97344 0
M  V30 124 H 8.7287 3.6639 0.123922 0
M  V30 125 H 8.3767 4.36561 2.49847 0
M  V30 126 H 8.0767 5.71339 1.37281 0
M  V30 127 H 9.6007 5.65487 2.3034 0
M  V30 128 H 11.0147 5.7329 0.033305 0
M  V30 129 H 9.4117 5.95699 -0.725486 0
M  V30 130 H 10.4817 4.66917 -1.30828 0
M  V30 131 N 11.8248 0.280983 1.55075 0
M  V30 132 C 12.7878 -0.590896 2.21452 0
M  V30 133 C 13.7878 -1.07682 1.19421 0
M  V30 134 O 14.9778 -0.97605 1.44288 0
M  V30 135 C 12.1098 -1.81587 2.88511 0
M  V30 136 H 13.3028 -0.0112554 2.99898 0
M  V30 137 H 10.8558 0.0316438 1.56268 0
M  V30 138 H 11.5908 -2.43587 2.14093 0
M  V30 139 H 11.3758 -1.4753 3.63287 0
M  V30 140 H 12.8658 -2.43575 3.39206 0
M  V30 141 N 13.3029 -1.57598 0.00835791 0
M  V30 142 C 14.2329 -2.1198 -0.979113 0
M  V30 143 C 15.2139 -1.03091 -1.35301 0
M  V30 144 O 16.3989 -1.30818 -1.43528 0
M  V30 145 C 13.5289 -2.62995 -2.26828 0
M  V30 146 C 12.4829 -3.76485 -2.03576 0
M  V30 147 C 11.8089 -4.13846 -3.38579 0
M  V30 148 C 13.1089 -5.0342 -1.39161 0
M  V30 149 H 14.8029 -2.94738 -0.526281 0
M  V30 150 H 12.3489 -1.41783 -0.251704 0
M  V30 151 H 14.3019 -2.99669 -2.96271 0
M  V30 152 H 13.0259 -1.7737 -2.7424 0
M  V30 153 H 11.6849 -3.40217 -1.36557 0
M  V30 154 H 11.3329 -3.25232 -3.83709 0
M  V30 155 H 11.0329 -4.90312 -3.23834 0
M  V30 156 H 12.5569 -4.53086 -4.09323 0
M  V30 157 H 13.9709 -5.37812 -1.98573 0
M  V30 158 H 12.3679 -5.84746 -1.34878 0
M  V30 159 H 13.4379 -4.83548 -0.361868 0
M  V30 160 N 14.781 0.264519 -1.55364 0
M  V30 161 C 15.711 1.33121 -1.91836 0
M  V30 162 C 16.692 1.51101 -0.781192 0
M  V30 163 O 17.877 1.64003 -1.04003 0
M  V30 164 C 15.007 2.68921 -2.19769 0
M  V30 165 C 13.961 2.65661 -3.35571 0
M  V30 166 C 13.287 4.05093 -3.49004 0
M  V30 167 C 14.587 2.24187 -4.71739 0
M  V30 168 H 16.281 1.02844 -2.81182 0
M  V30 169 H 13.827 0.493286 -1.35287 0
M  V30 170 H 15.78 3.43663 -2.43872 0
M  V30 171 H 14.504 3.00799 -1.27231 0
M  V30 172 H 13.163 1.93377 -3.1145 0
M  V30 173 H 12.811 4.34206 -2.53917 0
M  V30 174 H 12.511 4.03804 -4.26868 0
M  V30 175 H 14.035 4.81561 -3.75408 0
M  V30 176 H 15.449 2.88654 -4.9533 0
M  V30 177 H 13.846 2.34044 -5.52579 0
M  V30 178 H 14.916 1.19327 -4.69988 0
M  V30 179 N 16.2591 1.48442 0.529413 0
M  V30 180 C 17.6701 1.5002 1.11134 0
M  V30 181 C 18.0211 0.27031 1.94329 0
M  V30 182 O 17.1461 -0.622507 2.07253 0
M  V30 183 C 17.7411 2.71834 2.02217 0
M  V30 184 C 16.3001 2.76283 2.55627 0
M  V30 185 C 15.4471 2.43542 1.326 0
M  V30 186 H 18.3981 1.5555 0.314641 0
M  V30 187 H 18.4191 2.50384 2.8651 0
M  V30 188 H 17.9311 3.61331 1.41639 0
M  V30 189 H 16.0321 1.90995 3.19924 0
M  V30 190 H 16.1451 3.77725 2.94721 0
M  V30 191 H 14.5091 1.94709 1.64196 0
M  V30 192 H 15.2921 3.3528 0.737734 0
M  V30 193 N 17.7372 -0.778329 1.37039 0
M  V30 194 C 18.6672 -1.90546 1.34962 0
M  V30 195 C 19.6482 -1.68681 0.219274 0
M  V30 196 O 20.8332 -1.89634 0.418624 0
M  V30 197 C 17.9632 -3.27734 1.14925 0
M  V30 198 C 16.9172 -3.64147 2.24902 0
M  V30 199 C 16.2432 -4.99806 1.89996 0
M  V30 200 C 17.5432 -3.71579 3.67051 0
M  V30 201 H 19.2372 -1.92541 2.29277 0
M  V30 202 H 16.7832 -0.924948 1.10366 0
M  V30 203 H 18.7362 -4.06215 1.12104 0
M  V30 204 H 17.4602 -3.26154 0.170631 0
M  V30 205 H 16.1192 -2.8797 2.26868 0
M  V30 206 H 15.7672 -4.94759 0.906796 0
M  V30 207 H 15.4672 -5.25139 2.63634 0
M  V30 208 H 16.9912 -5.80694 1.88749 0
M  V30 209 H 18.4052 -4.40227 3.67251 0
M  V30 210 H 16.8022 -4.08405 4.39688 0
M  V30 211 H 17.8722 -2.72404 4.01154 0
M  V30 212 N 19.2153 -1.21501 -1.00376 0
M  V30 213 C 20.1453 -0.999478 -2.11028 0
M  V30 214 C 21.1263 0.0759671 -1.6993 0
M  V30 215 O 22.3113 -0.0841106 -1.94018 0
M  V30 216 C 19.4413 -0.564709 -3.42678 0
M  V30 217 C 18.3953 -1.58486 -3.97576 0
M  V30 218 C 17.7213 -1.00628 -5.25146 0
M  V30 219 C 19.0213 -2.97204 -4.29496 0
M  V30 220 H 20.7153 -1.92495 -2.29317 0
M  V30 221 H 18.2613 -0.92693 -1.102 0
M  V30 222 H 20.2143 -0.401091 -4.19487 0
M  V30 223 H 18.9383 0.396411 -3.24185 0
M  V30 224 H 17.5973 -1.73606 -3.22888 0
M  V30 225 H 17.2453 -0.0368439 -5.02987 0
M  V30 226 H 16.9453 -1.68771 -5.62841 0
M  V30 227 H 18.4693 -0.854015 -6.04598 0
M  V30 228 H 19.8833 -2.8552 -4.97143 0
M  V30 229 H 18.2803 -3.62372 -4.78338 0
M  V30 230 H 19.3503 -3.47956 -3.3772 0
M  V30 231 N 20.6934 1.19889 -1.02296 0
M  V30 232 C 21.9404 1.8942 -0.715972 0
M  V30 233 C 22.2684 1.79251 0.754944 0
M  V30 234 O 21.5234 1.17526 1.56481 0
M  V30 235 C 21.8224 3.39883 -1.10518 0
M  V30 236 C 21.4884 3.70254 -2.57337 0
M  V30 237 C 20.1504 3.78254 -2.97452 0
M  V30 238 C 22.5024 3.84052 -3.52354 0
M  V30 239 C 19.8304 3.97514 -4.31509 0
M  V30 240 C 22.1824 4.04824 -4.86108 0
M  V30 241 C 20.8464 4.11054 -5.25919 0
M  V30 242 H 20.1164 0.693138 -0.261993 0
M  V30 243 H 22.7634 1.42012 -1.28472 0
M  V30 244 H 21.0684 3.8915 -0.454953 0
M  V30 245 H 22.7654 3.9199 -0.845261 0
M  V30 246 H 19.3554 3.64632 -2.25258 0
M  V30 247 H 23.5394 3.77221 -3.22518 0
M  V30 248 H 18.7954 4.00574 -4.61898 0
M  V30 249 H 22.9694 4.14442 -5.59653 0
M  V30 250 H 20.5964 4.2573 -6.29808 0
M  V30 251 N 22.1715 0.800033 1.35784 0
M  V30 252 C 23.3995 0.389606 2.03199 0
M  V30 253 C 23.8145 -0.997375 1.60306 0
M  V30 254 O 23.1715 -1.64154 0.797481 0
M  V30 255 C 23.2225 0.455855 3.58614 0
M  V30 256 O 22.9435 1.78815 3.99946 0
M  V30 257 C 24.4445 0.0374032 4.43284 0
M  V30 258 H 21.6645 0.159132 0.651857 0
M  V30 259 H 24.2085 1.08183 1.73541 0
M  V30 260 H 22.3635 -0.188057 3.86943 0
M  V30 261 H 22.7775 1.74636 4.94573 0
M  V30 262 H 24.2515 0.134882 5.51835 0
M  V30 263 H 24.7285 -1.01651 4.27275 0
M  V30 264 H 25.3345 0.654215 4.20238 0
M  V30 265 N 23.6496 -1.47581 0.552962 0
M  V30 266 C 25.0606 -1.86324 0.118463 0
M  V30 267 C 25.4116 -1.46006 -1.3106 0
M  V30 268 O 24.5366 -0.861182 -1.98526 0
M  V30 269 C 25.1316 -3.3816 0.20821 0
M  V30 270 C 23.6906 -3.7601 -0.171226 0
M  V30 271 C 22.8376 -2.71634 0.557686 0
M  V30 272 H 25.7886 -1.39159 0.762928 0
M  V30 273 H 25.8096 -3.76141 -0.574278 0
M  V30 274 H 25.3216 -3.67473 1.24841 0
M  V30 275 H 23.4226 -3.52313 -1.21269 0
M  V30 276 H 23.5356 -4.78745 0.184379 0
M  V30 277 H 21.8996 -2.547 0.00125792 0
M  V30 278 H 22.6826 -3.0379 1.59896 0
M  V30 279 N 25.1277 -0.289203 -1.54924 0
M  V30 280 C 26.3737 0.323998 -2.00195 0
M  V30 281 C 26.7067 1.54441 -1.17735 0
M  V30 282 O 25.9817 1.92875 -0.250878 0
M  V30 283 C 26.2647 0.692276 -3.53383 0
M  V30 284 C 26.1177 -0.536457 -4.46589 0
M  V30 285 C 27.4367 1.52335 -4.12895 0
M  V30 286 H 24.5557 0.116289 -0.727768 0
M  V30 287 H 27.1977 -0.398954 -1.85764 0
M  V30 288 H 25.3477 1.30822 -3.65811 0
M  V30 289 H 27.0197 -1.17499 -4.46085 0
M  V30 290 H 25.2627 -1.17192 -4.1767 0
M  V30 291 H 25.9337 -0.234806 -5.515 0
M  V30 292 H 28.4097 1.00302 -4.0383 0
M  V30 293 H 27.2857 1.74982 -5.20262 0
M  V30 294 H 27.5467 2.50886 -3.64018 0
M  V30 295 N 26.6058 1.57591 -0.0167156 0
M  V30 296 C 27.8338 1.95575 0.675128 0
M  V30 297 C 28.2488 0.892542 1.6637 0
M  V30 298 O 27.6058 -0.126912 1.82058 0
M  V30 299 C 27.6568 3.33608 1.39239 0
M  V30 300 O 27.3778 4.3585 0.443444 0
M  V30 301 C 28.8788 3.86151 2.17721 0
M  V30 302 H 26.0988 0.644423 0.186978 0
M  V30 303 H 28.6428 2.0437 -0.0728 0
M  V30 304 H 26.7978 3.2607 2.09182 0
M  V30 305 H 27.2118 5.158 0.951358 0
M  V30 306 H 28.6858 4.85114 2.63379 0
M  V30 307 H 29.1628 3.19738 3.01105 0
M  V30 308 H 29.7688 3.96918 1.52761 0
M  V30 309 N 28.0839 -0.256276 1.55502 0
M  V30 310 C 29.0309 -1.31714 1.89526 0
M  V30 311 C 30.0009 -1.4828 0.748479 0
M  V30 312 O 31.1859 -1.62416 1.00128 0
M  V30 313 C 28.3259 -2.66933 2.18725 0
M  V30 314 C 27.4389 -2.58452 3.4616 0
M  V30 315 C 26.5739 -3.85961 3.64976 0
M  V30 316 C 25.6129 -3.72059 4.86044 0
M  V30 317 N 24.7499 -4.9144 5.01429 0
M  V30 318 H 29.5899 -1.01998 2.80001 0
M  V30 319 H 27.1269 -0.492413 1.38613 0
M  V30 320 H 29.0849 -3.4563 2.33657 0
M  V30 321 H 27.7149 -2.94816 1.31466 0
M  V30 322 H 26.7669 -1.71374 3.3961 0
M  V30 323 H 28.0789 -2.44085 4.34999 0
M  V30 324 H 27.2329 -4.73101 3.79816 0
M  V30 325 H 25.9719 -4.03215 2.74353 0
M  V30 326 H 24.9769 -2.83302 4.7119 0
M  V30 327 H 26.2019 -3.56309 5.78118 0
M  V30 328 H 24.1479 -5.09072 4.13741 0
M  V30 329 H 24.0649 -4.79668 5.84341 0
M  V30 330 H 25.3329 -5.80104 5.20672 0
M  V30 331 N 29.562 -1.4872 -0.521534 0
M  V30 332 C 30.525 -1.63379 -1.60748 0
M  V30 333 C 31.525 -0.50661 -1.52611 0
M  V30 334 O 32.715 -0.772601 -1.5613 0
M  V30 335 C 29.847 -1.61192 -3.00383 0
M  V30 336 H 31.04 -2.60217 -1.49087 0
M  V30 337 H 28.593 -1.37444 -0.744235 0
M  V30 338 H 29.328 -0.65863 -3.17541 0
M  V30 339 H 29.113 -2.43032 -3.07698 0
M  V30 340 H 30.603 -1.7466 -3.7932 0
M  V30 341 N 31.0401 0.771051 -1.3745 0
M  V30 342 C 32.4561 1.07171 -1.18265 0
M  V30 343 C 32.6561 2.01491 -0.019287 0
M  V30 344 O 31.7121 2.44244 0.640408 0
M  V30 345 C 33.0251 1.66854 -2.50161 0
M  V30 346 C 34.5731 1.79109 -2.56689 0
M  V30 347 C 35.0481 2.42205 -3.88717 0
M  V30 348 N 36.5391 2.49655 -3.90162 0
M  V30 349 C 37.2741 2.9933 -4.8907 0
M  V30 350 N 36.7701 3.49172 -5.98374 0
M  V30 351 N 38.5631 2.9821 -4.76474 0
M  V30 352 H 30.7141 0.144796 -2.11906 0
M  V30 353 H 32.9771 0.126863 -0.939473 0
M  V30 354 H 32.6831 1.05017 -3.35655 0
M  V30 355 H 32.5571 2.6614 -2.673 0
M  V30 356 H 34.9441 2.40077 -1.71601 0
M  V30 357 H 35.0251 0.785757 -2.43433 0
M  V30 358 H 34.6691 1.81875 -4.74219 0
M  V30 359 H 34.5991 3.43345 -3.99276 0
M  V30 360 H 37.0901 2.14383 -3.11205 0
M  V30 361 H 37.4031 3.8548 -6.69795 0
M  V30 362 H 35.7481 3.47275 -6.02018 0
M  V30 363 H 38.9391 2.58572 -3.90203 0
M  V30 364 H 39.1121 3.36613 -5.53711 0
M  V30 365 N 32.5182 1.22032 0.997298 0
M  V30 366 C 33.7462 1.06841 1.7718 0
M  V30 367 C 34.1612 -0.381325 1.84909 0
M  V30 368 O 33.5182 -1.26437 1.31605 0
M  V30 369 C 33.5692 1.66814 3.20711 0
M  V30 370 O 33.2902 3.06116 3.13408 0
M  V30 371 C 34.7912 1.56838 4.14628 0
M  V30 372 H 32.0112 0.374782 0.556578 0
M  V30 373 H 34.5552 1.61532 1.2541 0
M  V30 374 H 32.7102 1.16196 3.69564 0
M  V30 375 H 33.1242 3.34926 4.0364 0
M  V30 376 H 34.5982 2.03532 5.13107 0
M  V30 377 H 35.0752 0.524155 4.36061 0
M  V30 378 H 35.6812 2.06741 3.7167 0
M  V30 379 N 33.9963 -1.19345 1.0293 0
M  V30 380 C 35.4073 -1.70725 0.755633 0
M  V30 381 C 35.7583 -1.82326 -0.724676 0
M  V30 382 O 34.8833 -1.49471 -1.56484 0
M  V30 383 C 35.4783 -3.10084 1.36503 0
M  V30 384 C 34.0373 -3.58723 1.13994 0
M  V30 385 C 33.1843 -2.35577 1.46283 0
M  V30 386 H 36.1353 -1.0418 1.19718 0
M  V30 387 H 36.1563 -3.72787 0.762217 0
M  V30 388 H 35.6683 -3.01609 2.44241 0
M  V30 389 H 33.7693 -3.72512 0.0807901 0
M  V30 390 H 33.8823 -4.42816 1.82894 0
M  V30 391 H 32.2463 -2.38935 0.88217 0
M  V30 392 H 33.0293 -2.29731 2.55105 0
M  V30 393 N 35.4744 -0.807222 -1.35358 0
M  V30 394 C 36.3844 -0.219594 -2.3357 0
M  V30 395 C 37.4004 0.637734 -1.61892 0
M  V30 396 O 38.5764 0.549336 -1.93763 0
M  V30 397 C 35.6414 0.62158 -3.41083 0
M  V30 398 C 34.7024 -0.256315 -4.28534 0
M  V30 399 C 33.9354 0.544807 -5.30912 0
M  V30 400 O 34.1584 1.77944 -5.41934 0
M  V30 401 O 33.0924 -0.0646478 -6.01865 0
M  V30 402 H 36.9184 -1.03208 -2.85625 0
M  V30 403 H 34.5034 -0.569025 -1.38139 0
M  V30 404 H 36.3854 1.10067 -4.06772 0
M  V30 405 H 35.0604 1.41165 -2.91297 0
M  V30 406 H 33.9674 -0.782559 -3.65823 0
M  V30 407 H 35.3004 -1.01034 -4.81719 0
M  V30 408 N 36.9525 1.47285 -0.560781 0
M  V30 409 C 37.8855 2.27009 0.232821 0
M  V30 410 C 38.8635 1.34273 0.917039 0
M  V30 411 O 40.0475 1.63659 0.935315 0
M  V30 412 C 37.1745 3.11406 1.33206 0
M  V30 413 C 36.2205 4.19746 0.756019 0
M  V30 414 S 37.0535 5.34003 -0.400165 0
M  V30 415 C 38.2095 6.21964 0.700805 0
M  V30 416 H 38.4425 2.93971 -0.443683 0
M  V30 417 H 35.9755 1.50446 -0.347181 0
M  V30 418 H 37.9335 3.60601 1.96156 0
M  V30 419 H 36.5945 2.438 1.98041 0
M  V30 420 H 35.7875 4.78541 1.5816 0
M  V30 421 H 35.3895 3.73451 0.202619 0
M  V30 422 H 37.6815 6.58529 1.59202 0
M  V30 423 H 38.6245 7.07941 0.150126 0
M  V30 424 H 39.0325 5.5566 0.995083 0
M  V30 425 N 38.4306 0.297415 1.54768 0
M  V30 426 C 39.8416 -0.195947 1.85669 0
M  V30 427 C 40.1926 -1.53707 1.21937 0
M  V30 428 O 39.3176 -2.10164 0.515754 0
M  V30 429 C 39.9126 -0.362318 3.36857 0
M  V30 430 C 38.4716 -0.799901 3.67802 0
M  V30 431 C 37.6186 0.0938578 2.77141 0
M  V30 432 H 40.5696 0.518538 1.4999 0
M  V30 433 H 40.5906 -1.19745 3.61167 0
M  V30 434 H 40.1026 0.613921 3.83214 0
M  V30 435 H 38.2036 -1.78682 3.26961 0
M  V30 436 H 38.3166 -0.621773 4.75048 0
M  V30 437 H 36.6806 -0.426254 2.51108 0
M  V30 438 H 37.4636 1.06639 3.26318 0
M  V30 439 N 39.9087 -1.5758 0.0250728 0
M  V30 440 C 41.1547 -1.91917 -0.655413 0
M  V30 441 C 41.4877 -0.901433 -1.72011 0
M  V30 442 O 40.7627 0.0764069 -1.9435 0
M  V30 443 C 41.0457 -3.36751 -1.27558 0
M  V30 444 C 40.8987 -4.49258 -0.220719 0
M  V30 445 C 42.2177 -3.81469 -2.19475 0
M  V30 446 H 39.3367 -0.697925 -0.23679 0
M  V30 447 H 41.9787 -1.89825 0.0815036 0
M  V30 448 H 40.1287 -3.38664 -1.90365 0
M  V30 449 H 41.8007 -4.59478 0.409601 0
M  V30 450 H 40.0437 -4.31415 0.454264 0
M  V30 451 H 40.7147 -5.47618 -0.694175 0
M  V30 452 H 43.1907 -3.81266 -1.66659 0
M  V30 453 H 42.0667 -4.83512 -2.59822 0
M  V30 454 H 42.3277 -3.16744 -3.08424 0
M  V30 455 N 41.3868 0.248026 -1.55636 0
M  V30 456 C 42.3168 1.31079 -1.93237 0
M  V30 457 C 43.2978 1.50264 -0.797174 0
M  V30 458 O 44.4828 1.62891 -1.05737 0
M  V30 459 C 41.6128 2.66575 -2.22609 0
M  V30 460 C 40.5668 2.62087 -3.3837 0
M  V30 461 C 39.8928 4.01369 -3.53281 0
M  V30 462 C 41.1928 2.19171 -4.7409 0
M  V30 463 H 42.8868 0.998556 -2.82257 0
M  V30 464 H 40.4328 0.47891 -1.35803 0
M  V30 465 H 42.3858 3.41057 -2.47503 0
M  V30 466 H 41.1098 2.99432 -1.30414 0
M  V30 467 H 39.7688 1.90063 -3.13483 0
M  V30 468 H 39.4168 4.31489 -2.58508 0
M  V30 469 H 39.1168 3.99254 -4.31127 0
M  V30 470 H 40.6408 4.77552 -3.80495 0
M  V30 471 H 42.0548 2.83384 -4.98363 0
M  V30 472 H 40.4518 2.2817 -5.5503 0
M  V30 473 H 41.5218 1.14336 -4.71227 0
M  V30 474 N 42.8649 1.48995 0.513639 0
M  V30 475 C 43.7749 1.67443 1.64317 0
M  V30 476 C 44.7909 0.556947 1.64846 0
M  V30 477 O 45.9669 0.830082 1.83498 0
M  V30 478 C 43.0319 1.72515 3.00732 0
M  V30 479 C 42.0929 2.96009 3.1093 0
M  V30 480 C 41.3259 3.00829 4.40837 0
M  V30 481 O 41.5489 2.13594 5.28898 0
M  V30 482 O 40.4829 3.93168 4.55744 0
M  V30 483 H 44.3089 2.63106 1.51687 0
M  V30 484 H 41.8939 1.32588 0.688543 0
M  V30 485 H 43.7759 1.78277 3.81831 0
M  V30 486 H 42.4509 0.800278 3.13651 0
M  V30 487 H 41.3579 2.9577 2.29065 0
M  V30 488 H 42.6909 3.87934 3.02933 0
M  V30 489 N 44.343 -0.763751 1.37857 0
M  V30 490 C 45.291 -1.89864 1.34367 0
M  V30 491 C 46.285 -1.67816 0.231143 0
M  V30 492 O 47.491 -1.75508 0.399617 0
M  V30 493 H 43.866 -0.624501 0.41893 0
M  V30 494 H 45.837 -1.89925 2.30155 0
M  V30 495 C 44.586 -3.27227 1.1755 0
M  V30 496 H 43.909 -3.44773 2.02414 0
M  V30 497 H 45.349 -4.06911 1.1916 0
M  V30 498 C 43.808 -3.36692 -0.118311 0
M  V30 499 O 44.338 -3.86374 -1.09902 0
M  V30 500 N 42.544 -2.90092 -0.171717 0
M  V30 501 H 42.091 -2.49853 0.627012 0
M  V30 502 H 42.049 -2.96806 -1.03699 0
M  V30 503 N 45.8211 -1.22559 -0.990812 0
M  V30 504 C 47.2371 -0.985996 -1.255 0
M  V30 505 C 47.4371 0.319173 -1.98956 0
M  V30 506 O 46.4931 1.04127 -2.3003 0
M  V30 507 C 47.8061 -2.18607 -2.06474 0
M  V30 508 C 49.3541 -2.22985 -2.19651 0
M  V30 509 C 49.8291 -3.4255 -3.04012 0
M  V30 510 N 51.3201 -3.42725 -3.11599 0
M  V30 511 C 52.0551 -4.31892 -3.7717 0
M  V30 512 N 51.5511 -5.31279 -4.44651 0
M  V30 513 N 53.3441 -4.19662 -3.73952 0
M  V30 514 H 45.4951 -2.06469 -0.49841 0
M  V30 515 H 47.7581 -0.904853 -0.282747 0
M  V30 516 H 47.4641 -3.13267 -1.59865 0
M  V30 517 H 47.3381 -2.18838 -3.07229 0
M  V30 518 H 49.7251 -1.28871 -2.65474 0
M  V30 519 H 49.8061 -2.26791 -1.18319 0
M  V30 520 H 49.4501 -4.36965 -2.58889 0
M  V30 521 H 49.3801 -3.35984 -4.0549 0
M  V30 522 H 51.8711 -2.70807 -2.63575 0
M  V30 523 H 52.1841 -5.95593 -4.92431 0
M  V30 524 H 50.5291 -5.3519 -4.43392 0
M  V30 525 H 53.7201 -3.41268 -3.20396 0
M  V30 526 H 53.8931 -4.89358 -4.24774 0
M  V30 527 N 47.2992 1.18797 -1.03562 0
M  V30 528 C 48.2622 2.20464 -0.626769 0
M  V30 529 C 49.2622 1.57721 0.313173 0
M  V30 530 O 50.4522 1.73917 0.0992615 0
M  V30 531 C 47.5842 3.40802 0.0818498 0
M  V30 532 H 48.7772 2.58149 -1.5264 0
M  V30 533 H 46.3302 1.32593 -0.827578 0
M  V30 534 H 47.0652 3.08642 0.995518 0
M  V30 535 H 46.8502 3.8758 -0.593652 0
M  V30 536 H 48.3402 4.16092 0.354584 0
M  V30 537 N 48.7773 0.814389 1.34928 0
M  V30 538 C 49.7403 0.235759 2.27984 0
M  V30 539 C 50.7403 -0.581412 1.49921 0
M  V30 540 O 51.9303 -0.398758 1.69575 0
M  V30 541 C 49.0623 -0.670433 3.34242 0
M  V30 542 H 50.2553 1.05659 2.80671 0
M  V30 543 H 47.8083 0.585614 1.44915 0
M  V30 544 H 48.5433 -1.51466 2.86755 0
M  V30 545 H 48.3283 -0.0860822 3.92005 0
M  V30 546 H 49.8183 -1.06935 4.03676 0
M  V30 547 N 50.2554 -1.46986 0.568584 0
M  V30 548 C 51.1874 -2.28233 -0.210337 0
M  V30 549 C 52.2004 -1.37682 -0.868767 0
M  V30 550 O 53.3894 -1.62406 -0.740705 0
M  V30 551 C 50.4894 -3.12293 -1.3163 0
M  V30 552 C 49.6624 -4.30878 -0.7525 0
M  V30 553 C 48.7214 -4.96445 -1.74439 0
M  V30 554 O 47.7474 -5.54482 -1.286 0
M  V30 555 N 48.9494 -4.92171 -3.07812 0
M  V30 556 H 51.7144 -2.95723 0.486648 0
M  V30 557 H 49.2754 -1.56742 0.405409 0
M  V30 558 H 51.2674 -3.53022 -1.97883 0
M  V30 559 H 49.8374 -2.46971 -1.91636 0
M  V30 560 H 49.0574 -3.94104 0.0871128 0
M  V30 561 H 50.3454 -5.07558 -0.35536 0
M  V30 562 H 49.7434 -4.46239 -3.47688 0
M  V30 563 H 48.3004 -5.36884 -3.69592 0
M  V30 564 N 51.7335 -0.305618 -1.54608 0
M  V30 565 C 52.9815 0.301701 -1.99835 0
M  V30 566 C 53.3025 1.54054 -1.19551 0
M  V30 567 O 52.5725 1.93702 -0.292658 0
M  V30 568 H 51.1525 0.114468 -0.738178 0
M  V30 569 H 53.8145 -0.418016 -1.90364 0
M  V30 570 H 52.9105 0.570548 -3.06841 0
M  V30 571 N 53.2116 1.57565 -0.0334293 0
M  V30 572 C 54.4886 1.83282 0.683163 0
M  V30 573 C 54.8686 0.91823 1.90084 0
M  V30 574 O 54.2166 -0.025113 2.28486 0
M  V30 575 C 54.4266 3.32599 1.0573 0
M  V30 576 C 55.7746 3.99179 1.44711 0
M  V30 577 O 56.7986 3.3712 1.15015 0
M  V30 578 O 55.6576 5.08565 2.0006 0
M  V30 579 H 52.7516 0.755869 0.335546 0
M  V30 580 H 55.2976 1.69589 -0.0614402 0
M  V30 581 H 54.0696 3.90834 0.190828 0
M  V30 582 H 53.6926 3.51415 1.85993 0
M  V30 583 N 54.6897 -0.239769 1.55765 0
M  V30 584 C 55.9387 -0.964754 1.77131 0
M  V30 585 C 56.2517 -1.86213 0.59868 0
M  V30 586 O 57.4577 -2.6244 0.695522 0
M  V30 587 C 55.9137 -1.76552 3.1362 0
M  V30 588 C 55.5217 -0.915185 4.38553 0
M  V30 589 C 57.2657 -2.48281 3.44321 0
M  V30 590 C 55.1727 -1.71225 5.66071 0
M  V30 591 H 54.1027 -0.363953 0.660344 0
M  V30 592 H 56.7537 -0.219181 1.82186 0
M  V30 593 H 55.1357 -2.55331 3.02691 0
M  V30 594 H 56.3097 -0.169217 4.60489 0
M  V30 595 H 54.6247 -0.310889 4.15238 0
M  V30 596 H 57.2217 -3.08382 4.36812 0
M  V30 597 H 57.5647 -3.20256 2.65973 0
M  V30 598 H 58.0977 -1.76507 3.56497 0
M  V30 599 H 54.8367 -1.03612 6.4726 0
M  V30 600 H 54.3567 -2.43331 5.48224 0
M  V30 601 H 56.0357 -2.27758 6.05587 0
M  V30 602 N 56.1678 -1.49265 -0.50573 0
M  V30 603 C 57.3958 -1.62215 -1.28429 0
M  V30 604 C 57.8108 -0.291697 -1.86533 0
M  V30 605 O 57.1678 0.722233 -1.67601 0
M  V30 606 C 57.2188 -2.68735 -2.41793 0
M  V30 607 O 56.9398 -3.96619 -1.86078 0
M  V30 608 C 58.4408 -2.92346 -3.3324 0
M  V30 609 H 55.6608 -0.546239 -0.389697 0
M  V30 610 H 58.2048 -1.95265 -0.607609 0
M  V30 611 H 56.3598 -2.38476 -3.053 0
M  V30 612 H 56.7738 -4.55256 -2.60465 0
M  V30 613 H 58.2478 -3.70623 -4.09075 0
M  V30 614 H 58.7248 -2.02081 -3.89948 0
M  V30 615 H 59.3308 -3.24003 -2.75503 0
M  V30 616 N 57.6459 0.756429 -1.3826 0
M  V30 617 C 58.6089 1.85176 -1.35065 0
M  V30 618 C 59.6089 1.58818 -0.251703 0
M  V30 619 O 60.7989 1.66615 -0.508433 0
M  V30 620 C 57.9309 3.22596 -1.10201 0
M  V30 621 H 59.1239 1.89417 -2.3251 0
M  V30 622 H 56.6769 0.95783 -1.23512 0
M  V30 623 H 57.4119 3.24025 -0.133504 0
M  V30 624 H 57.1969 3.43122 -1.89762 0
M  V30 625 H 58.6869 4.02673 -1.10654 0
M  V30 626 N 59.124 1.23083 0.984299 0
M  V30 627 C 60.535 1.05609 1.5396 0
M  V30 628 C 60.886 -0.377793 1.92528 0
M  V30 629 O 60.011 -1.26398 1.75649 0
M  V30 630 C 60.606 1.91087 2.7977 0
M  V30 631 C 59.165 1.77885 3.31713 0
M  V30 632 C 58.312 1.87028 2.04733 0
M  V30 633 H 61.263 1.36802 0.804419 0
M  V30 634 H 61.284 1.43336 3.5247 0
M  V30 635 H 60.796 2.9544 2.51668 0
M  V30 636 H 58.897 0.762995 3.64704 0
M  V30 637 H 59.01 2.61047 4.01735 0
M  V30 638 H 57.374 1.30565 2.18689 0
M  V30 639 H 58.157 2.92929 1.79017 0
M  V30 640 N 60.6021 -1.18246 1.0419 0
M  V30 641 C 61.8501 -1.87886 0.744543 0
M  V30 642 C 62.1711 -1.8082 -0.730006 0
M  V30 643 O 61.4411 -1.22736 -1.52685 0
M  V30 644 H 60.0211 -0.695556 0.272417 0
M  V30 645 H 62.6831 -1.43494 1.31892 0
M  V30 646 H 61.7791 -2.9389 1.05049 0
M  V30 647 N 62.0802 -0.821533 -1.34494 0
M  V30 648 C 63.3282 -0.408139 -1.97936 0
M  V30 649 C 63.6492 1.03193 -1.65457 0
M  V30 650 O 62.9192 1.71622 -0.944595 0
M  V30 651 H 61.4992 -0.147928 -0.732206 0
M  V30 652 H 64.1612 -1.05067 -1.64155 0
M  V30 653 H 63.2572 -0.52601 -3.07635 0
M  V30 654 N 63.5583 1.46682 -0.576371 0
M  V30 655 C 64.5213 2.28707 0.150239 0
M  V30 656 C 65.5213 1.38035 0.824794 0
M  V30 657 O 66.7113 1.60476 0.677719 0
M  V30 658 C 63.8433 3.18248 1.22192 0
M  V30 659 H 65.0363 2.94423 -0.570521 0
M  V30 660 H 62.5893 1.52688 -0.334078 0
M  V30 661 H 63.3243 2.57265 1.97447 0
M  V30 662 H 63.1093 3.85 0.742812 0
M  V30 663 H 64.5993 3.80001 1.73172 0
M  V30 664 N 65.0364 0.313813 1.54444 0
M  V30 665 C 66.4524 -0.0391619 1.59552 0
M  V30 666 C 66.6524 -1.51322 1.33056 0
M  V30 667 O 65.7084 -2.26782 1.11022 0
M  V30 668 C 67.0214 0.370302 2.98411 0
M  V30 669 C 68.5694 0.320139 3.11358 0
M  V30 670 C 69.0444 0.704617 4.52547 0
M  V30 671 N 70.5354 0.657645 4.58508 0
M  V30 672 C 71.2704 0.927453 5.6585 0
M  V30 673 N 70.7664 1.26389 6.81174 0
M  V30 674 N 72.5594 0.853662 5.5558 0
M  V30 675 H 64.7104 1.27433 1.69925 0
M  V30 676 H 66.9734 0.517511 0.794284 0
M  V30 677 H 66.6794 1.39694 3.22767 0
M  V30 678 H 66.5534 -0.269619 3.76235 0
M  V30 679 H 68.9404 -0.697275 2.86744 0
M  V30 680 H 69.0214 0.99486 2.35661 0
M  V30 681 H 68.6654 1.7199 4.77893 0
M  V30 682 H 68.5954 0.00768843 5.26599 0
M  V30 683 H 71.0864 0.409067 3.75679 0
M  V30 684 H 71.3994 1.4554 7.58972 0
M  V30 685 H 69.7444 1.30206 6.82694 0
M  V30 686 H 72.9354 0.590383 4.64362 0
M  V30 687 H 73.1084 1.0673 6.3915 0
M  V30 688 N 66.5145 -1.57545 0.0417849 0
M  V30 689 C 67.9305 -1.56467 -0.314704 0
M  V30 690 C 68.1305 -1.04859 -1.72066 0
M  V30 691 O 67.1865 -0.700983 -2.42575 0
M  V30 692 C 68.4995 -3.00317 -0.15174 0
M  V30 693 C 70.0475 -3.12201 -0.223553 0
M  V30 694 C 70.5225 -4.57913 -0.0892295 0
M  V30 695 N 72.0135 -4.6297 -0.145808 0
M  V30 696 C 72.7485 -5.73362 -0.0658459 0
M  V30 697 N 72.2445 -6.92769 0.0659282 0
M  V30 698 N 74.0375 -5.6197 -0.12075 0
M  V30 699 H 66.1885 -1.89416 0.961014 0
M  V30 700 H 68.4515 -0.871862 0.372237 0
M  V30 701 H 68.1575 -3.42073 0.817254 0
M  V30 702 H 68.0315 -3.65892 -0.916692 0
M  V30 703 H 70.4185 -2.70349 -1.18301 0
M  V30 704 H 70.4995 -2.49323 0.571994 0
M  V30 705 H 70.1435 -5.00448 0.866867 0
M  V30 706 H 70.0735 -5.18786 -0.903802 0
M  V30 707 H 72.5645 -3.7709 -0.247286 0
M  V30 708 H 72.8775 -7.72707 0.119905 0
M  V30 709 H 71.2225 -6.94927 0.100885 0
M  V30 710 H 74.4135 -4.67572 -0.222187 0
M  V30 711 H 74.5865 -6.47977 -0.0549735 0
M  V30 712 N 67.9926 0.231505 -1.5589 0
M  V30 713 C 68.9226 1.29022 -1.94617 0
M  V30 714 C 69.9036 1.4941 -0.813067 0
M  V30 715 O 71.0886 1.6176 -1.07459 0
M  V30 716 C 68.2186 2.64199 -2.25424 0
M  V30 717 C 67.1726 2.58484 -3.41131 0
M  V30 718 C 66.4986 3.97599 -3.57518 0
M  V30 719 C 67.7986 2.1413 -4.76388 0
M  V30 720 H 69.4926 0.968563 -2.83301 0
M  V30 721 H 67.0386 0.464479 -1.36303 0
M  V30 722 H 68.9916 3.38413 -2.51107 0
M  V30 723 H 67.7156 2.98032 -1.33583 0
M  V30 724 H 66.3746 1.86727 -3.15481 0
M  V30 725 H 66.0226 4.28723 -2.6307 0
M  V30 726 H 65.7226 3.94659 -4.35337 0
M  V30 727 H 67.2466 4.7349 -3.85538 0
M  V30 728 H 68.6606 2.78083 -5.01341 0
M  V30 729 H 67.0576 2.2227 -5.57419 0
M  V30 730 H 68.1276 1.09331 -4.72414 0
M  V30 731 N 69.4707 1.49531 0.497807 0
M  V30 732 C 70.6987 1.62893 1.27567 0
M  V30 733 C 71.1137 0.301585 1.86376 0
M  V30 734 O 70.4707 -0.713335 1.67982 0
M  V30 735 C 70.5217 2.70013 2.40364 0
M  V30 736 O 70.2427 3.976 1.83972 0
M  V30 737 C 71.7437 2.94109 3.31685 0
M  V30 738 H 68.9637 0.548298 0.386794 0
M  V30 739 H 71.5077 1.95584 0.597245 0
M  V30 740 H 69.6627 2.40092 3.04031 0
M  V30 741 H 70.0767 4.56631 2.58047 0
M  V30 742 H 71.5507 3.72788 4.07104 0
M  V30 743 H 72.0277 2.04147 3.88871 0
M  V30 744 H 72.6337 3.2546 2.73781 0
M  V30 745 N 70.9488 -0.749086 1.3866 0
M  V30 746 C 72.1968 -1.50535 1.34847 0
M  V30 747 C 72.5178 -1.94909 -0.0595016 0
M  V30 748 O 71.7878 -1.67973 -1.00806 0
M  V30 749 H 70.3678 -0.558395 0.49619 0
M  V30 750 H 73.0298 -0.890165 1.73384 0
M  V30 751 H 72.1258 -2.39413 2.00219 0
M  V30 752 N 72.4269 -1.23603 -0.977757 0
M  V30 753 C 73.7039 -0.977897 -1.69401 0
M  V30 754 C 74.0839 0.502738 -2.05026 0
M  V30 755 O 73.4319 1.47459 -1.74551 0
M  V30 756 C 73.6419 -1.89077 -2.93345 0
M  V30 757 C 74.9899 -2.15579 -3.65802 0
M  V30 758 O 76.0139 -1.86648 -3.03383 0
M  V30 759 O 74.8729 -2.64658 -4.78141 0
M  V30 760 H 71.9669 -0.369025 -0.740101 0
M  V30 761 H 74.5129 -1.34657 -1.03274 0
M  V30 762 H 73.2849 -2.89158 -2.63634 0
M  V30 763 H 72.9079 -1.52463 -3.67207 0
M  V30 764 N 73.905 1.17692 -1.04816 0
M  V30 765 C 74.837 2.21103 -0.603822 0
M  V30 766 C 75.85 1.59411 0.33046 0
M  V30 767 O 77.039 1.7807 0.12379 0
M  V30 768 C 74.139 3.38623 0.136898 0
M  V30 769 C 73.312 4.29888 -0.807137 0
M  V30 770 C 72.371 5.26088 -0.10836 0
M  V30 771 O 71.397 5.64353 -0.741232 0
M  V30 772 N 72.599 5.68882 1.15558 0
M  V30 773 H 75.364 2.59848 -1.49329 0
M  V30 774 H 72.925 1.32553 -0.929587 0
M  V30 775 H 74.917 4.00009 0.614401 0
M  V30 776 H 73.487 2.98508 0.927993 0
M  V30 777 H 72.707 3.65993 -1.46434 0
M  V30 778 H 73.995 4.87759 -1.44807 0
M  V30 779 H 73.393 5.39861 1.69015 0
M  V30 780 H 71.95 6.32429 1.57722 0
M  V30 781 N 75.3831 0.828654 1.34056 0
M  V30 782 C 76.6111 0.43262 2.02326 0
M  V30 783 C 77.0261 -0.963147 1.62385 0
M  V30 784 O 76.3831 -1.62425 0.832121 0
M  V30 785 C 76.4341 0.53182 3.57567 0
M  V30 786 O 76.1551 1.87258 3.96063 0
M  V30 787 C 77.6561 0.131422 4.43105 0
M  V30 788 H 74.8761 0.172923 0.648335 0
M  V30 789 H 77.4201 1.1184 1.71208 0
M  V30 790 H 75.5751 -0.105938 3.87255 0
M  V30 791 H 75.9891 1.85087 4.90758 0
M  V30 792 H 77.4631 0.251904 5.51425 0
M  V30 793 H 77.9401 -0.925645 4.29335 0
M  V30 794 H 78.5461 0.743207 4.18756 0
M  V30 795 N 76.8612 -1.46375 0.584142 0
M  V30 796 C 77.8242 -2.28784 -0.138108 0
M  V30 797 C 78.8242 -1.38471 -0.817462 0
M  V30 798 O 80.0142 -1.60833 -0.669199 0
M  V30 799 C 77.1462 -3.18892 -1.20503 0
M  V30 800 H 78.3392 -2.94117 0.586127 0
M  V30 801 H 75.8922 -1.52509 0.342171 0
M  V30 802 H 76.6272 -2.58309 -1.96079 0
M  V30 803 H 76.4122 -3.85388 -0.722384 0
M  V30 804 H 77.9022 -3.80914 -1.71155 0
M  V30 805 N 78.3393 -0.321999 -1.54275 0
M  V30 806 C 79.3023 0.531975 -2.22941 0
M  V30 807 C 80.3023 1.04478 -1.22234 0
M  V30 808 O 81.4923 0.937452 -1.46825 0
M  V30 809 C 78.6243 1.73874 -2.93224 0
M  V30 810 H 79.8173 -0.0682612 -2.99822 0
M  V30 811 H 77.3703 -0.0730644 -1.56129 0
M  V30 812 H 78.1053 2.37825 -2.20476 0
M  V30 813 H 77.8903 1.37847 -3.6707 0
M  V30 814 H 79.3803 2.34496 -3.45545 0
M  V30 815 N 79.8174 1.5752 -0.0501392 0
M  V30 816 C 80.7474 2.14502 0.922566 0
M  V30 817 C 81.7284 1.06642 1.3252 0
M  V30 818 O 82.9134 1.34577 1.4001 0
M  V30 819 C 80.0434 2.68916 2.19776 0
M  V30 820 C 78.9974 3.8175 1.93523 0
M  V30 821 C 78.3234 4.22677 3.27487 0
M  V30 822 C 79.6234 5.06932 1.25765 0
M  V30 823 H 81.3174 2.9603 0.447952 0
M  V30 824 H 78.8634 1.42401 0.214024 0
M  V30 825 H 80.8164 3.07419 2.88222 0
M  V30 826 H 79.5404 1.84578 2.69441 0
M  V30 827 H 78.1994 3.43718 1.27489 0
M  V30 828 H 77.8474 3.35291 3.74952 0
M  V30 829 H 77.5474 4.98725 3.1072 0
M  V30 830 H 79.0714 4.63779 3.97166 0
M  V30 831 H 80.4854 5.42888 1.84244 0
M  V30 832 H 78.8824 5.88116 1.19328 0
M  V30 833 H 79.9524 4.84337 0.233536 0
M  V30 834 N 81.2955 -0.223234 1.56011 0
M  V30 835 C 82.7115 -0.572856 1.48965 0
M  V30 836 C 82.9115 -1.87225 0.74492 0
M  V30 837 O 81.9675 -2.50899 0.283896 0
M  V30 838 C 83.2805 -0.653646 2.9351 0
M  V30 839 C 84.8285 -0.744386 3.0402 0
M  V30 840 C 85.3035 -0.856535 4.49919 0
M  V30 841 N 86.7945 -0.9208 4.53955 0
M  V30 842 C 87.5295 -1.02726 5.64123 0
M  V30 843 N 87.0255 -1.09777 6.84047 0
M  V30 844 N 88.8185 -1.06226 5.51971 0
M  V30 845 H 80.9695 0.629462 2.02858 0
M  V30 846 H 83.2325 0.220621 0.921971 0
M  V30 847 H 82.9385 0.231518 3.50937 0
M  V30 848 H 82.8125 -1.51781 3.45315 0
M  V30 849 H 85.1995 -1.61999 2.46658 0
M  V30 850 H 85.2805 0.14541 2.55386 0
M  V30 851 H 84.9245 0.0146069 5.07898 0
M  V30 852 H 84.8545 -1.76172 4.96257 0
M  V30 853 H 87.3455 -0.876694 3.6759 0
M  V30 854 H 87.6585 -1.17872 7.63758 0
M  V30 855 H 86.0035 -1.06693 6.86762 0
M  V30 856 H 89.1945 -1.00382 4.5721 0
M  V30 857 H 89.3675 -1.14177 6.37862 0
M  V30 858 N 82.7736 -1.49793 -0.48987 0
M  V30 859 C 84.0506 -1.50348 -1.25119 0
M  V30 860 C 84.4306 -0.237466 -2.0976 0
M  V30 861 O 83.7786 0.77981 -2.14782 0
M  V30 862 C 83.9886 -2.78872 -2.09837 0
M  V30 863 C 85.3366 -3.288 -2.68655 0
M  V30 864 O 86.3606 -2.80065 -2.20096 0
M  V30 865 O 85.2196 -4.13707 -3.57083 0
M  V30 866 H 82.3136 -0.602242 -0.566775 0
M  V30 867 H 84.8596 -1.62067 -0.503229 0
M  V30 868 H 83.6316 -3.62499 -1.47343 0
M  V30 869 H 83.2546 -2.70066 -2.91805 0
M  V30 870 N 84.2517 0.741722 -1.39055 0
M  V30 871 C 85.4767 1.53607 -1.39354 0
M  V30 872 C 85.9017 1.88096 0.0116905 0
M  V30 873 O 85.2597 1.5143 0.996924 0
M  V30 874 C 85.3077 2.80441 -2.26682 0
M  V30 875 O 84.4117 3.76088 -1.69208 0
M  V30 876 H 83.7527 0.464142 -0.474835 0
M  V30 877 H 86.2827 0.915665 -1.82967 0
M  V30 878 H 86.2927 3.29246 -2.40959 0
M  V30 879 H 84.9677 2.5467 -3.2881 0
M  V30 880 H 83.5447 3.34833 -1.64138 0
M  V30 881 N 85.7298 1.2412 0.971189 0
M  V30 882 C 86.6598 1.05508 2.08304 0
M  V30 883 C 87.6408 -0.0308864 1.70072 0
M  V30 884 O 88.8258 0.135521 1.93727 0
M  V30 885 C 85.9558 0.655365 3.4106 0
M  V30 886 C 84.9098 1.68971 3.93234 0
M  V30 887 C 84.2358 1.14516 5.22293 0
M  V30 888 C 85.5358 3.08487 4.21465 0
M  V30 889 H 87.2298 1.98507 2.24132 0
M  V30 890 H 84.7758 0.955821 1.07704 0
M  V30 891 H 86.7288 0.51217 4.18276 0
M  V30 892 H 85.4528 -0.31032 3.25122 0
M  V30 893 H 84.1118 1.82106 3.18171 0
M  V30 894 H 83.7598 0.170189 5.02712 0
M  V30 895 H 83.4598 1.83635 5.58168 0
M  V30 896 H 84.9838 1.01401 6.02121 0
M  V30 897 H 86.3978 2.98601 4.89398 0
M  V30 898 H 84.7948 3.74926 4.68562 0
M  V30 899 H 85.8648 3.56787 3.28376 0
M  V30 900 N 87.2079 -1.17134 1.05439 0
M  V30 901 C 88.4329 -1.91913 0.786396 0
M  V30 902 C 88.8579 -1.7643 -0.652234 0
M  V30 903 O 88.2159 -1.08372 -1.45345 0
M  V30 904 C 88.2639 -3.40921 1.17497 0
M  V30 905 O 87.3679 -4.11244 0.308589 0
M  V30 906 H 86.7089 -0.598215 0.288158 0
M  V30 907 H 89.2389 -1.48457 1.4079 0
M  V30 908 H 89.2489 -3.91668 1.14281 0
M  V30 909 H 87.9239 -3.5151 2.22292 0
M  V30 910 H 86.5009 -3.70731 0.40157 0
M  V30 911 N 88.686 -0.835752 -1.33615 0
M  V30 912 C 89.963 -0.352017 -1.92406 0
M  V30 913 C 90.343 1.16225 -1.76224 0
M  V30 914 O 89.691 1.97526 -1.14873 0
M  V30 915 C 89.901 -0.795485 -3.39813 0
M  V30 916 C 91.249 -0.801703 -4.16963 0
M  V30 917 O 92.273 -0.738889 -3.48452 0
M  V30 918 O 91.132 -0.886607 -5.3926 0
M  V30 919 H 88.226 -0.0989641 -0.821057 0
M  V30 920 H 90.772 -0.921397 -1.42507 0
M  V30 921 H 89.544 -1.83795 -3.45449 0
M  V30 922 H 89.167 -0.202505 -3.97084 0
M  V30 923 N 90.1641 1.46063 -0.591896 0
M  V30 924 C 91.1111 2.30399 0.136069 0
M  V30 925 C 92.0811 1.41169 0.875238 0
M  V30 926 O 93.2661 1.70112 0.86409 0
M  V30 927 C 90.4061 3.25804 1.13781 0
M  V30 928 C 89.5191 4.30134 0.401137 0
M  V30 929 C 88.6541 5.12659 1.39121 0
M  V30 930 C 87.6931 6.0873 0.641462 0
M  V30 931 N 86.8301 6.8409 1.58004 0
M  V30 932 H 91.6701 2.92118 -0.589144 0
M  V30 933 H 89.2071 1.43959 -0.302342 0
M  V30 934 H 91.1651 3.79569 1.73156 0
M  V30 935 H 89.7951 2.65872 1.83062 0
M  V30 936 H 88.8471 3.79152 -0.307826 0
M  V30 937 H 90.1591 4.98458 -0.184565 0
M  V30 938 H 89.3131 5.70747 2.05749 0
M  V30 939 H 88.0521 4.44316 2.01084 0
M  V30 940 H 87.0571 5.49786 -0.0385419 0
M  V30 941 H 88.2821 6.79095 0.0270945 0
M  V30 942 H 86.2281 6.18449 2.18761 0
M  V30 943 H 86.1451 7.48709 1.04738 0
M  V30 944 H 87.4131 7.4673 2.23639 0
M  V30 945 N 91.6422 0.330177 1.54103 0
M  V30 946 C 93.0532 -0.15652 1.86043 0
M  V30 947 C 93.4042 -1.51086 1.2517 0
M  V30 948 O 92.5292 -2.09023 0.560217 0
M  V30 949 C 93.1242 -0.290784 3.3755 0
M  V30 950 C 91.6832 -0.721705 3.69416 0
M  V30 951 C 90.8302 0.152622 2.7688 0
M  V30 952 H 93.7812 0.550237 1.48856 0
M  V30 953 H 93.8022 -1.12058 3.63625 0
M  V30 954 H 93.3142 0.695068 3.81825 0
M  V30 955 H 91.4152 -1.71706 3.30678 0
M  V30 956 H 91.5282 -0.520869 4.7626 0
M  V30 957 H 89.8922 -0.372894 2.51956 0
M  V30 958 H 90.6752 1.13536 3.23982 0
M  V30 959 N 93.1203 -1.57491 0.0584922 0
M  V30 960 C 94.0833 -2.1085 -0.898617 0
M  V30 961 C 95.0833 -1.02964 -1.23511 0
M  V30 962 O 96.2733 -1.29007 -1.17059 0
M  V30 963 C 93.4053 -2.59881 -2.20623 0
M  V30 964 H 94.5983 -2.96715 -0.435936 0
M  V30 965 H 92.1513 -1.55141 -0.190023 0
M  V30 966 H 92.8863 -1.77431 -2.71457 0
M  V30 967 H 92.6713 -3.38727 -1.97501 0
M  V30 968 H 94.1613 -3.01285 -2.89166 0
M  V30 969 N 94.5984 0.214957 -1.56127 0
M  V30 970 C 95.5454 1.26642 -1.92952 0
M  V30 971 C 96.5154 1.46244 -0.78753 0
M  V30 972 O 97.7004 1.59704 -1.04399 0
M  V30 973 C 94.8404 2.6104 -2.25726 0
M  V30 974 C 93.9534 2.49183 -3.52891 0
M  V30 975 C 93.0884 3.76149 -3.7508 0
M  V30 976 C 92.1274 3.59041 -4.95738 0
M  V30 977 N 91.2644 4.77972 -5.14283 0
M  V30 978 H 96.1044 0.945384 -2.82607 0
M  V30 979 H 93.6414 0.455489 -1.3987 0
M  V30 980 H 95.5994 3.39313 -2.42739 0
M  V30 981 H 94.2294 2.91227 -1.39236 0
M  V30 982 H 93.2814 1.6231 -3.44034 0
M  V30 983 H 94.5934 2.32466 -4.41318 0
M  V30 984 H 93.7474 4.62865 -3.92226 0
M  V30 985 H 92.4864 3.95799 -2.84947 0
M  V30 986 H 91.4914 2.7071 -4.78535 0
M  V30 987 H 92.7164 3.40856 -5.87362 0
M  V30 988 H 90.6624 4.97923 -4.27093 0
M  V30 989 H 90.5794 4.64006 -5.96853 0
M  V30 990 H 91.8474 5.66096 -5.35869 0
M  V30 991 N 96.0765 1.50051 0.48192 0
M  V30 992 C 97.0245 1.68635 1.60203 0
M  V30 993 C 98.0185 0.552184 1.60148 0
M  V30 994 O 99.2245 0.732377 1.64427 0
M  V30 995 H 95.5995 0.532081 0.531407 0
M  V30 996 H 97.5705 2.62616 1.41688 0
M  V30 997 C 96.3195 1.78775 2.9822 0
M  V30 998 H 95.6425 2.6543 2.98976 0
M  V30 999 H 97.0825 1.95806 3.7608 0
M  V30 1000 C 95.5415 0.536849 3.32595 0
M  V30 1001 O 96.0715 -0.328897 4.00351 0
M  V30 1002 N 94.2775 0.394091 2.87915 0
M  V30 1003 H 93.8245 1.09962 2.32951 0
M  V30 1004 H 93.7825 -0.441737 3.11281 0
M  V30 1005 N 97.5546 -0.734337 1.39446 0
M  V30 1006 C 98.8036 -1.48937 1.36017 0
M  V30 1007 C 99.1166 -1.95557 -0.0409005 0
M  V30 1008 O 100.323 -2.70779 -0.19778 0
M  V30 1009 C 98.7786 -2.69125 2.38955 0
M  V30 1010 C 98.3866 -2.29452 3.8478 0
M  V30 1011 C 100.131 -3.46944 2.44603 0
M  V30 1012 C 98.0376 -3.46366 4.79358 0
M  V30 1013 H 96.9676 -0.559296 0.505672 0
M  V30 1014 H 99.6186 -0.800983 1.65095 0
M  V30 1015 H 98.0006 -3.40041 2.02948 0
M  V30 1016 H 99.1746 -1.66077 4.29831 0
M  V30 1017 H 97.4896 -1.64723 3.82433 0
M  V30 1018 H 100.087 -4.33907 3.12456 0
M  V30 1019 H 100.43 -3.89454 1.47076 0
M  V30 1020 H 100.963 -2.83056 2.79507 0
M  V30 1021 H 97.7016 -3.08905 5.78151 0
M  V30 1022 H 97.2216 -4.08719 4.38986 0
M  V30 1023 H 98.9006 -4.12691 4.98292 0
M  V30 1024 N 99.0327 -1.24633 -0.964593 0
M  V30 1025 C 100.282 -1.08188 -1.7023 0
M  V30 1026 C 100.595 0.37873 -1.91898 0
M  V30 1027 O 101.801 0.663427 -2.6327 0
M  V30 1028 C 100.257 -1.88773 -3.06419 0
M  V30 1029 C 99.8647 -3.39263 -2.92582 0
M  V30 1030 C 101.609 -1.80867 -3.84041 0
M  V30 1031 C 99.5157 -4.1218 -4.24101 0
M  V30 1032 H 98.4457 -0.401245 -0.638372 0
M  V30 1033 H 101.097 -1.48742 -1.07462 0
M  V30 1034 H 99.4787 -1.41035 -3.70034 0
M  V30 1035 H 100.653 -3.94603 -2.37961 0
M  V30 1036 H 98.9677 -3.48154 -2.28424 0
M  V30 1037 H 101.565 -2.32646 -4.81435 0
M  V30 1038 H 101.908 -0.774543 -4.09031 0
M  V30 1039 H 102.441 -2.26301 -3.27159 0
M  V30 1040 H 99.1797 -5.15965 -4.04303 0
M  V30 1041 H 98.6997 -3.61626 -4.78526 0
M  V30 1042 H 100.379 -4.19349 -4.92702 0
M  V30 1043 N 100.511 1.16574 -1.06058 0
M  V30 1044 C 101.441 2.23057 -0.690488 0
M  V30 1045 C 102.422 1.67141 0.315901 0
M  V30 1046 O 103.607 1.93253 0.191556 0
M  V30 1047 C 100.737 3.47222 -0.073625 0
M  V30 1048 C 99.6908 4.16016 -1.00573 0
M  V30 1049 C 99.0168 5.34104 -0.252289 0
M  V30 1050 C 100.317 4.67264 -2.33371 0
M  V30 1051 H 102.011 2.54271 -1.58072 0
M  V30 1052 H 99.5568 1.22218 -0.76149 0
M  V30 1053 H 101.51 4.20939 0.19714 0
M  V30 1054 H 100.234 3.15302 0.85161 0
M  V30 1055 H 98.8928 3.44223 -1.2612 0
M  V30 1056 H 98.5408 4.98437 0.675988 0
M  V30 1057 H 98.2408 5.81072 -0.873455 0
M  V30 1058 H 99.7648 6.10599 0.0109857 0
M  V30 1059 H 101.179 5.32573 -2.12223 0
M  V30 1060 H 99.5758 5.24843 -2.90963 0
M  V30 1061 H 100.646 3.83602 -2.96611 0
M  V30 1062 N 101.989 0.842826 1.3317 0
M  V30 1063 C 102.919 0.294028 2.31641 0
M  V30 1064 C 103.9 -0.600401 1.59151 0
M  V30 1065 O 105.085 -0.523124 1.87022 0
M  V30 1066 C 102.215 -0.528416 3.43257 0
M  V30 1067 C 101.169 0.27056 4.27144 0
M  V30 1068 C 100.495 -0.675881 5.30411 0
M  V30 1069 C 101.795 1.48981 5.00602 0
M  V30 1070 H 103.489 1.11681 2.77791 0
M  V30 1071 H 101.035 0.538478 1.33553 0
M  V30 1072 H 102.988 -0.922674 4.11175 0
M  V30 1073 H 101.712 -1.38445 2.95805 0
M  V30 1074 H 100.371 0.646427 3.60856 0
M  V30 1075 H 100.019 -1.52842 4.79216 0
M  V30 1076 H 99.7189 -0.145374 5.8742 0
M  V30 1077 H 101.243 -1.06757 6.01195 0
M  V30 1078 H 102.657 1.16849 5.61266 0
M  V30 1079 H 101.054 1.95739 5.6728 0
M  V30 1080 H 102.124 2.25746 4.29147 0
M  V30 1081 N 103.467 -1.45747 0.599634 0
M  V30 1082 C 104.716 -2.01502 0.0893511 0
M  V30 1083 C 105.029 -1.4748 -1.28488 0
M  V30 1084 O 106.235 -1.95161 -1.88745 0
M  V30 1085 C 104.691 -3.59735 0.109082 0
M  V30 1086 C 104.299 -4.22754 1.48267 0
M  V30 1087 C 106.043 -4.23085 -0.346374 0
M  V30 1088 C 103.95 -5.73115 1.45921 0
M  V30 1089 H 102.88 -0.753417 0.0296347 0
M  V30 1090 H 105.531 -1.67303 0.753788 0
M  V30 1091 H 103.913 -3.91087 -0.621854 0
M  V30 1092 H 105.087 -4.02987 2.23468 0
M  V30 1093 H 103.402 -3.71567 1.87955 0
M  V30 1094 H 105.999 -5.33327 -0.38298 0
M  V30 1095 H 106.342 -3.93201 -1.36743 0
M  V30 1096 H 106.875 -3.9642 0.331038 0
M  V30 1097 H 103.614 -6.07685 2.45762 0
M  V30 1098 H 103.134 -5.95097 0.749665 0
M  V30 1099 H 104.813 -6.3616 1.17941 0
M  V30 1100 N 104.945 -0.338344 -1.53925 0
M  V30 1101 C 106.193 0.259245 -2.0043 0
M  V30 1102 C 106.514 1.51484 -1.22791 0
M  V30 1103 O 105.784 1.93037 -0.33368 0
M  V30 1104 H 104.364 0.0987845 -0.740439 0
M  V30 1105 H 107.026 -0.458302 -1.89435 0
M  V30 1106 H 106.122 0.505334 -3.07982 0
M  V30 1107 N 106.423 1.57458 -0.0668435 0
M  V30 1108 C 107.7 1.8469 0.644132 0
M  V30 1109 C 108.08 0.958343 1.88093 0
M  V30 1110 O 107.428 0.0233579 2.28488 0
M  V30 1111 C 107.638 3.34767 0.986509 0
M  V30 1112 C 108.986 4.02159 1.36212 0
M  V30 1113 O 110.01 3.39484 1.07839 0
M  V30 1114 O 108.869 5.12694 1.89227 0
M  V30 1115 H 105.963 0.762816 0.319437 0
M  V30 1116 H 108.509 1.6942 -0.0973986 0
M  V30 1117 H 107.281 3.91151 0.107883 0
M  V30 1118 H 106.904 3.55281 1.78497 0
M  V30 1119 N 107.901 -0.206675 1.56239 0
M  V30 1120 C 109.149 -0.927007 1.79586 0
M  V30 1121 C 109.47 -1.8427 0.637929 0
M  V30 1122 O 108.74 -1.92849 -0.344398 0
M  V30 1123 H 107.32 -0.345292 0.662407 0
M  V30 1124 H 109.982 -0.21496 1.93711 0
M  V30 1125 H 109.078 -1.52501 2.72305 0
M  V30 1126 N 109.379 -1.50304 -0.473955 0
M  V30 1127 C 110.312 -1.63595 -1.59097 0
M  V30 1128 C 111.29 -0.484142 -1.55225 0
M  V30 1129 O 112.474 -0.703271 -1.7489 0
M  V30 1130 C 109.601 -1.61589 -2.97669 0
M  V30 1131 C 108.647 -2.82295 -3.19705 0
M  V30 1132 S 109.48 -4.43635 -2.99913 0
M  V30 1133 C 110.636 -4.44317 -4.40832 0
M  V30 1134 H 110.869 -2.58082 -1.47583 0
M  V30 1135 H 108.402 -1.39531 -0.661087 0
M  V30 1136 H 110.36 -1.61116 -3.7756 0
M  V30 1137 H 109.021 -0.683421 -3.06575 0
M  V30 1138 H 108.214 -2.77188 -4.20931 0
M  V30 1139 H 107.816 -2.8032 -2.47582 0
M  V30 1140 H 110.108 -4.17703 -5.33414 0
M  V30 1141 H 111.051 -5.45911 -4.50984 0
M  V30 1142 H 111.459 -3.74059 -4.22777 0
M  V30 1143 N 110.857 0.726932 -1.39834 0
M  V30 1144 C 112.105 1.4837 -1.37225 0
M  V30 1145 C 112.426 1.94979 0.0284857 0
M  V30 1146 O 111.696 1.69555 0.981213 0
M  V30 1147 H 110.276 0.55043 -0.505011 0
M  V30 1148 H 112.938 0.862468 -1.74778 0
M  V30 1149 H 112.034 2.36198 -2.04003 0
M  V30 1150 N 112.336 1.25143 0.95797 0
M  V30 1151 C 113.613 1.00472 1.67823 0
M  V30 1152 C 113.993 -0.470056 2.058 0
M  V30 1153 O 113.341 -1.44663 1.76875 0
M  V30 1154 C 113.551 1.9372 2.90299 0
M  V30 1155 C 114.899 2.21371 3.62326 0
M  V30 1156 O 115.923 1.91451 3.00375 0
M  V30 1157 O 114.782 2.72231 4.7387 0
M  V30 1158 H 111.876 0.380752 0.734137 0
M  V30 1159 H 114.422 1.36283 1.01119 0
M  V30 1160 H 113.194 2.93316 2.59001 0
M  V30 1161 H 112.817 1.58286 3.64735 0
M  V30 1162 N 113.814 -1.1601 1.06675 0
M  V30 1163 C 115.039 -1.91068 0.806706 0
M  V30 1164 C 115.464 -1.77112 -0.633485 0
M  V30 1165 O 114.822 -1.09908 -1.44187 0
M  V30 1166 C 114.87 -3.39655 1.21106 0
M  V30 1167 O 113.974 -4.10893 0.352189 0
M  V30 1168 H 113.315 -0.595125 0.294486 0
M  V30 1169 H 115.845 -1.46955 1.42356 0
M  V30 1170 H 115.855 -3.90434 1.18428 0
M  V30 1171 H 114.53 -3.49132 2.26008 0
M  V30 1172 H 113.107 -3.70285 0.440868 0
M  V30 1173 N 115.292 -0.849877 -1.32721 0
M  V30 1174 C 116.202 -0.293791 -2.32753 0
M  V30 1175 C 117.218 0.585906 -1.63839 0
M  V30 1176 O 118.394 0.487413 -1.95413 0
M  V30 1177 C 115.459 0.512752 -3.42887 0
M  V30 1178 C 114.52 -0.39252 -4.27502 0
M  V30 1179 C 113.753 0.375625 -5.32377 0
M  V30 1180 O 113.976 1.60613 -5.4732 0
M  V30 1181 O 112.91 -0.256094 -6.01355 0
M  V30 1182 H 116.736 -1.12242 -2.82197 0
M  V30 1183 H 114.321 -0.612685 -1.36259 0
M  V30 1184 H 116.203 0.970704 -4.10067 0
M  V30 1185 H 114.878 1.31826 -2.95641 0
M  V30 1186 H 113.785 -0.898547 -3.63149 0
M  V30 1187 H 115.118 -1.16309 -4.7826 0
M  V30 1188 N 116.77 1.45427 -0.607355 0
M  V30 1189 C 118.019 2.01452 -0.100036 0
M  V30 1190 C 118.332 1.48159 1.27704 0
M  V30 1191 O 119.538 1.96159 1.87707 0
M  V30 1192 C 117.994 3.59672 -0.128158 0
M  V30 1193 C 117.602 4.21962 -1.50507 0
M  V30 1194 C 119.346 4.23262 0.323932 0
M  V30 1195 C 117.253 5.72333 -1.48959 0
M  V30 1196 H 116.183 0.75325 -0.0336299 0
M  V30 1197 H 118.834 1.66901 -0.76265 0
M  V30 1198 H 117.216 3.91411 0.601105 0
M  V30 1199 H 118.39 4.01796 -2.25602 0
M  V30 1200 H 116.705 3.70565 -1.89923 0
M  V30 1201 H 119.302 5.33522 0.354691 0
M  V30 1202 H 119.645 3.93921 1.34656 0
M  V30 1203 H 120.178 3.96239 -0.352056 0
M  V30 1204 H 116.917 6.06373 -2.48981 0
M  V30 1205 H 116.437 5.94691 -0.781214 0
M  V30 1206 H 118.116 6.35525 -1.21313 0
M  V30 1207 N 118.248 0.346503 1.53744 0
M  V30 1208 C 119.476 -0.25041 2.05379 0
M  V30 1209 C 119.891 -1.43979 1.22129 0
M  V30 1210 O 119.248 -1.80677 0.257321 0
M  V30 1211 C 119.299 -0.662575 3.55376 0
M  V30 1212 O 119.02 0.479515 4.35468 0
M  V30 1213 C 120.521 -1.31989 4.23195 0
M  V30 1214 H 117.741 -0.0478198 0.669294 0
M  V30 1215 H 120.285 0.499346 1.9831 0
M  V30 1216 H 118.44 -1.36227 3.62658 0
M  V30 1217 H 118.854 0.15037 5.24284 0
M  V30 1218 H 120.328 -1.55902 5.29527 0
M  V30 1219 H 120.805 -2.27436 3.75725 0
M  V30 1220 H 121.411 -0.662154 4.20114 0
M  V30 1221 N 119.726 -1.57421 0.075193 0
M  V30 1222 C 120.689 -2.11791 -0.876203 0
M  V30 1223 C 121.689 -1.04268 -1.22412 0
M  V30 1224 O 122.879 -1.30242 -1.15684 0
M  V30 1225 C 120.011 -2.62207 -2.17854 0
M  V30 1226 H 121.204 -2.9716 -0.40444 0
M  V30 1227 H 118.757 -1.55333 -0.173557 0
M  V30 1228 H 119.492 -1.803 -2.6956 0
M  V30 1229 H 119.277 -3.40802 -1.93897 0
M  V30 1230 H 120.767 -3.04335 -2.85955 0
M  V30 1231 N 121.204 0.198386 -1.56346 0
M  V30 1232 C 122.167 1.22952 -1.93431 0
M  V30 1233 C 123.167 1.38611 -0.815092 0
M  V30 1234 O 124.357 1.36479 -1.08255 0
M  V30 1235 C 121.489 2.59946 -2.20546 0
M  V30 1236 H 122.682 0.912626 -2.85677 0
M  V30 1237 H 120.235 0.43977 -1.49986 0
M  V30 1238 H 120.97 2.96696 -1.30927 0
M  V30 1239 H 120.755 2.49953 -3.02102 0
M  V30 1240 H 122.245 3.3431 -2.50253 0
M  V30 1241 N 122.682 1.50554 0.465978 0
M  V30 1242 C 124.098 1.38093 0.800154 0
M  V30 1243 C 124.298 0.440988 1.96615 0
M  V30 1244 O 123.354 -0.114499 2.5224 0
M  V30 1245 C 124.667 2.79565 1.10742 0
M  V30 1246 C 126.215 2.88516 1.21357 0
M  V30 1247 C 126.69 4.30833 1.55393 0
M  V30 1248 N 128.181 4.33807 1.62375 0
M  V30 1249 C 128.916 5.40927 1.90225 0
M  V30 1250 N 128.412 6.58247 2.16062 0
M  V30 1251 N 130.205 5.28376 1.9177 0
M  V30 1252 H 122.356 2.10237 -0.302366 0
M  V30 1253 H 124.619 0.945203 -0.0727746 0
M  V30 1254 H 124.325 3.50208 0.323661 0
M  V30 1255 H 124.199 3.17125 2.04234 0
M  V30 1256 H 126.586 2.1809 1.98799 0
M  V30 1257 H 126.667 2.54492 0.258321 0
M  V30 1258 H 126.311 5.01799 0.784889 0
M  V30 1259 H 126.241 4.62347 2.52076 0
M  V30 1260 H 128.732 3.49212 1.44427 0
M  V30 1261 H 129.045 7.3569 2.36601 0
M  V30 1262 H 127.39 6.61413 2.13444 0
M  V30 1263 H 130.581 4.35715 1.71085 0
M  V30 1264 H 130.754 6.11944 2.13139 0
M  V30 1265 N 124.16 -0.719506 1.40217 0
M  V30 1266 C 125.108 -1.85493 1.40339 0
M  V30 1267 C 126.102 -1.66995 0.284415 0
M  V30 1268 O 127.308 -1.74148 0.455252 0
M  V30 1269 H 123.683 -0.610857 0.438586 0
M  V30 1270 H 125.654 -1.82506 2.36081 0
M  V30 1271 C 124.403 -3.23321 1.27901 0
M  V30 1272 H 123.726 -3.38159 2.1328 0
M  V30 1273 H 125.166 -4.02914 1.32045 0
M  V30 1274 C 123.625 -3.36898 -0.0111355 0
M  V30 1275 O 124.155 -3.89674 -0.975538 0
M  V30 1276 N 122.361 -2.90492 -0.0793393 0
M  V30 1277 H 121.908 -2.47731 0.706183 0
M  V30 1278 H 121.866 -2.99955 -0.942038 0
M  V30 1279 N 125.638 -1.25649 -0.95132 0
M  V30 1280 C 126.868 -1.13179 -1.72841 0
M  V30 1281 C 127.276 0.316827 -1.86528 0
M  V30 1282 O 126.619 1.22948 -1.3649 0
M  V30 1283 C 126.681 -1.71644 -3.15878 0
M  V30 1284 C 126.345 -3.20667 -3.25609 0
M  V30 1285 C 127.342 -4.17616 -3.09666 0
M  V30 1286 C 125.027 -3.6094 -3.49324 0
M  V30 1287 C 127.021 -5.52817 -3.17289 0
M  V30 1288 C 124.708 -4.96278 -3.56584 0
M  V30 1289 C 125.706 -5.92025 -3.40581 0
M  V30 1290 O 125.394 -7.24899 -3.47528 0
M  V30 1291 H 125.126 -0.395389 -0.54831 0
M  V30 1292 H 127.68 -1.66566 -1.20187 0
M  V30 1293 H 125.91 -1.12707 -3.69911 0
M  V30 1294 H 127.599 -1.54225 -3.75459 0
M  V30 1295 H 128.365 -3.87842 -2.91211 0
M  V30 1296 H 124.244 -2.86907 -3.6084 0
M  V30 1297 H 127.788 -6.2753 -3.04716 0
M  V30 1298 H 123.685 -5.25716 -3.74556 0
M  V30 1299 H 124.453 -7.33039 -3.64138 0
M  V30 1300 N 127.117 1.15442 -1.07289 0
M  V30 1301 C 128.08 2.18358 -0.696591 0
M  V30 1302 C 129.08 1.58637 0.262837 0
M  V30 1303 O 130.27 1.74145 0.0438809 0
M  V30 1304 C 127.402 3.4089 -0.0266151 0
M  V30 1305 H 128.595 2.53162 -1.60776 0
M  V30 1306 H 126.148 1.29893 -0.869342 0
M  V30 1307 H 126.883 3.11653 0.896822 0
M  V30 1308 H 126.668 3.85495 -0.716657 0
M  V30 1309 H 128.158 4.17009 0.222028 0
M  V30 1310 N 128.595 0.856903 1.32268 0
M  V30 1311 C 129.505 0.306131 2.32594 0
M  V30 1312 C 130.521 -0.577209 1.64147 0
M  V30 1313 O 131.697 -0.477043 1.95669 0
M  V30 1314 C 128.762 -0.494561 3.43154 0
M  V30 1315 C 127.823 0.415186 4.27288 0
M  V30 1316 C 127.056 -0.347387 5.32568 0
M  V30 1317 O 127.279 -1.57708 5.48165 0
M  V30 1318 O 126.213 0.287982 6.01211 0
M  V30 1319 H 130.039 1.13737 2.81598 0
M  V30 1320 H 127.624 0.619902 1.35932 0
M  V30 1321 H 129.506 -0.948944 4.10576 0
M  V30 1322 H 128.181 -1.30257 2.96336 0
M  V30 1323 H 127.088 0.917793 3.62667 0
M  V30 1324 H 128.421 1.18844 4.77637 0
M  V30 1325 N 130.073 -1.45103 0.615059 0
M  V30 1326 C 131.321 -2.01784 0.112955 0
M  V30 1327 C 131.642 -1.48504 -1.26378 0
M  V30 1328 O 130.912 -0.682245 -1.83636 0
M  V30 1329 H 129.492 -0.745993 0.0387668 0
M  V30 1330 H 132.154 -1.77808 0.798141 0
M  V30 1331 H 131.25 -3.12025 0.0684069 0
M  V30 1332 N 131.551 -0.354651 -1.53558 0
M  V30 1333 C 132.514 0.484566 -2.24019 0
M  V30 1334 C 133.514 1.01861 -1.24422 0
M  V30 1335 O 134.704 0.906097 -1.4878 0
M  V30 1336 C 131.836 1.67615 -2.96847 0
M  V30 1337 H 133.029 -0.131843 -2.9961 0
M  V30 1338 H 130.582 -0.106165 -1.55939 0
M  V30 1339 H 131.317 2.33095 -2.25471 0
M  V30 1340 H 131.102 1.30029 -3.69912 0
M  V30 1341 H 132.592 2.27114 -3.50441 0
M  V30 1342 N 133.029 1.57378 -0.0835403 0
M  V30 1343 C 134.277 1.93547 0.581718 0
M  V30 1344 C 134.598 0.96524 1.69435 0
M  V30 1345 O 133.868 0.0153369 1.95894 0
M  V30 1346 H 132.448 0.714521 0.217874 0
M  V30 1347 H 135.11 1.94366 -0.144158 0
M  V30 1348 H 134.206 2.95665 0.999423 0
M  V30 1349 N 134.507 -0.190092 1.56449 0
M  V30 1350 C 135.755 -0.907908 1.80559 0
M  V30 1351 C 136.076 -1.83583 0.657438 0
M  V30 1352 O 135.346 -1.93203 -0.323924 0
M  V30 1353 H 133.926 -0.338247 0.666032 0
M  V30 1354 H 136.588 -0.194403 1.93928 0
M  V30 1355 H 135.684 -1.49604 2.73907 0
M  V30 1356 N 135.985 -1.50799 -0.457987 0
M  V30 1357 C 137.232 -1.62442 -1.20908 0
M  V30 1358 C 137.56 -0.330865 -1.91665 0
M  V30 1359 O 136.815 0.68401 -1.83357 0
M  V30 1360 C 137.114 -2.76358 -2.2663 0
M  V30 1361 C 136.78 -4.16378 -1.73033 0
M  V30 1362 C 135.442 -4.54473 -1.58138 0
M  V30 1363 C 137.794 -5.03836 -1.33413 0
M  V30 1364 C 135.122 -5.77754 -1.02065 0
M  V30 1365 C 137.474 -6.27676 -0.78778 0
M  V30 1366 C 136.138 -6.64562 -0.625561 0
M  V30 1367 H 135.408 -0.594417 -0.442435 0
M  V30 1368 H 138.055 -1.84772 -0.503136 0
M  V30 1369 H 136.36 -2.48167 -3.03184 0
M  V30 1370 H 138.057 -2.82568 -2.84528 0
M  V30 1371 H 134.647 -3.86331 -1.85598 0
M  V30 1372 H 138.831 -4.75026 -1.4375 0
M  V30 1373 H 134.087 -6.04997 -0.882547 0
M  V30 1374 H 138.261 -6.94797 -0.472177 0
M  V30 1375 H 135.888 -7.59965 -0.188926 0
M  V30 1376 N 137.463 0.71206 -1.40597 0
M  V30 1377 C 138.71 1.47197 -1.39065 0
M  V30 1378 C 139.038 1.94499 0.00583891 0
M  V30 1379 O 138.293 1.68752 0.99102 0
M  V30 1380 C 138.592 2.71039 -2.32965 0
M  V30 1381 C 138.258 2.42484 -3.80148 0
M  V30 1382 C 136.92 2.34406 -4.20247 0
M  V30 1383 C 139.272 2.18598 -4.73143 0
M  V30 1384 C 136.6 2.00516 -5.51371 0
M  V30 1385 C 138.952 1.8622 -6.0457 0
M  V30 1386 C 137.616 1.76626 -6.43708 0
M  V30 1387 H 136.886 0.538634 -0.508876 0
M  V30 1388 H 139.533 0.815325 -1.73276 0
M  V30 1389 H 137.838 3.41558 -1.91951 0
M  V30 1390 H 139.535 3.29138 -2.29061 0
M  V30 1391 H 136.125 2.49659 -3.4838 0
M  V30 1392 H 140.309 2.23793 -4.42979 0
M  V30 1393 H 135.565 1.91628 -5.80593 0
M  V30 1394 H 139.739 1.66752 -6.76141 0
M  V30 1395 H 137.366 1.50133 -7.45228 0
M  V30 1396 N 138.941 1.26152 0.944643 0
M  V30 1397 C 139.888 1.07408 2.04285 0
M  V30 1398 C 140.858 -0.0198413 1.66088 0
M  V30 1399 O 142.043 0.139264 1.90291 0
M  V30 1400 C 139.183 0.70945 3.37729 0
M  V30 1401 C 138.296 1.87926 3.88983 0
M  V30 1402 C 137.431 1.45807 5.10797 0
M  V30 1403 C 136.47 2.5964 5.54305 0
M  V30 1404 N 135.607 2.18226 6.67324 0
M  V30 1405 H 140.447 2.01389 2.1965 0
M  V30 1406 H 137.984 1.00275 1.07626 0
M  V30 1407 H 139.942 0.478948 4.14442 0
M  V30 1408 H 138.572 -0.193389 3.2222 0
M  V30 1409 H 137.624 2.22279 3.08701 0
M  V30 1410 H 138.936 2.73377 4.17213 0
M  V30 1411 H 138.09 1.18781 5.94959 0
M  V30 1412 H 136.829 0.574414 4.84305 0
M  V30 1413 H 135.834 2.87399 4.68702 0
M  V30 1414 H 137.059 3.48599 5.828 0
M  V30 1415 H 135.005 1.3229 6.42523 0
M  V30 1416 H 134.922 2.97221 6.95123 0
M  V30 1417 H 136.19 1.94403 7.54869 0
M  V30 1418 N 140.419 -1.14872 1.07899 0
M  V30 1419 C 141.667 -1.85422 0.803941 0
M  V30 1420 C 141.988 -1.83051 -0.67211 0
M  V30 1421 O 141.258 -1.27532 -1.48703 0
M  V30 1422 H 139.838 -0.686537 0.294408 0
M  V30 1423 H 142.5 -1.39226 1.3639 0
M  V30 1424 H 141.596 -2.90399 1.14346 0
M  V30 1425 N 141.898 -0.863906 -1.31812 0
M  V30 1426 C 143.147 -0.46801 -1.96195 0
M  V30 1427 C 143.46 0.983474 -1.69077 0
M  V30 1428 O 144.666 1.48523 -2.27273 0
M  V30 1429 C 143.122 -0.785995 -3.51212 0
M  V30 1430 C 142.73 -2.25383 -3.87178 0
M  V30 1431 C 144.474 -0.458274 -4.22019 0
M  V30 1432 C 142.381 -2.51455 -5.3528 0
M  V30 1433 H 141.311 -0.171283 -0.734287 0
M  V30 1434 H 143.962 -1.05597 -1.50072 0
M  V30 1435 H 142.344 -0.127359 -3.95795 0
M  V30 1436 H 143.518 -2.95502 -3.53575 0
M  V30 1437 H 141.833 -2.54698 -3.2942 0
M  V30 1438 H 144.43 -0.630369 -5.30971 0
M  V30 1439 H 144.773 0.600834 -4.11941 0
M  V30 1440 H 145.306 -1.07319 -3.8305 0
M  V30 1441 H 142.045 -3.56025 -5.50387 0
M  V30 1442 H 141.565 -1.85923 -5.70257 0
M  V30 1443 H 143.244 -2.35874 -6.02472 0
M  V30 1444 N 143.376 1.44774 -0.622745 0
M  V30 1445 C 144.653 1.95522 -0.0551974 0
M  V30 1446 C 145.033 1.5649 1.41683 0
M  V30 1447 O 144.381 0.834848 2.12703 0
M  V30 1448 C 144.591 3.4796 -0.269242 0
M  V30 1449 C 145.939 4.24306 -0.158014 0
M  V30 1450 O 146.963 3.55637 -0.200162 0
M  V30 1451 O 145.822 5.46471 -0.0558693 0
M  V30 1452 H 142.916 0.826556 0.0271015 0
M  V30 1453 H 145.462 1.54866 -0.693864 0
M  V30 1454 H 144.234 3.6939 -1.29099 0
M  V30 1455 H 143.857 3.95543 0.403966 0
M  V30 1456 N 144.854 0.36279 1.53368 0
M  V30 1457 C 145.817 -0.472679 2.24273 0
M  V30 1458 C 146.817 -1.012 1.24961 0
M  V30 1459 O 148.007 -0.898194 1.49259 0
M  V30 1460 C 145.139 -1.66039 2.97731 0
M  V30 1461 H 146.332 0.14773 2.99536 0
M  V30 1462 H 143.885 0.114434 1.55881 0
M  V30 1463 H 144.62 -2.31896 2.26704 0
M  V30 1464 H 144.405 -1.28066 3.70596 0
M  V30 1465 H 145.895 -2.25252 3.51641 0
M  V30 1466 N 146.332 -1.57332 0.0918853 0
M  V30 1467 C 147.262 -2.16872 -0.865371 0
M  V30 1468 C 148.243 -1.10118 -1.29646 0
M  V30 1469 O 149.428 -1.38242 -1.36392 0
M  V30 1470 C 146.558 -2.74649 -2.12569 0
M  V30 1471 C 145.512 -3.86747 -1.83333 0
M  V30 1472 C 144.838 -4.31212 -3.16166 0
M  V30 1473 C 146.138 -5.10089 -1.1228 0
M  V30 1474 H 147.832 -2.97114 -0.369307 0
M  V30 1475 H 145.378 -1.42918 -0.176194 0
M  V30 1476 H 147.331 -3.14952 -2.7997 0
M  V30 1477 H 146.055 -1.91657 -2.64452 0
M  V30 1478 H 144.714 -3.46978 -1.18331 0
M  V30 1479 H 144.362 -3.45115 -3.6593 0
M  V30 1480 H 144.062 -5.06788 -2.97388 0
M  V30 1481 H 145.586 -4.74146 -3.84731 0
M  V30 1482 H 147 -5.47582 -1.69785 0
M  V30 1483 H 145.397 -5.91073 -1.03693 0
M  V30 1484 H 146.467 -4.84786 -0.105041 0
M  V30 1485 N 147.81 0.181792 -1.56548 0
M  V30 1486 C 149.221 0.745244 -1.71181 0
M  V30 1487 C 149.572 1.83262 -0.70068 0
M  V30 1488 O 148.697 2.15946 0.140154 0
M  V30 1489 C 149.292 1.35859 -3.10367 0
M  V30 1490 C 147.851 1.86898 -3.2672 0
M  V30 1491 C 146.998 0.743942 -2.67134 0
M  V30 1492 H 149.949 -0.0434661 -1.5864 0
M  V30 1493 H 149.97 2.22817 -3.08436 0
M  V30 1494 H 149.482 0.566948 -3.83937 0
M  V30 1495 H 147.583 2.68738 -2.5809 0
M  V30 1496 H 147.696 2.02162 -4.34359 0
M  V30 1497 H 146.06 1.16169 -2.26665 0
M  V30 1498 H 146.843 -0.035676 -3.43281 0
M  V30 1499 N 149.288 1.51039 0.449983 0
M  V30 1500 C 150.218 1.74379 1.55288 0
M  V30 1501 C 151.199 0.593236 1.5942 0
M  V30 1502 O 152.384 0.834625 1.7535 0
M  V30 1503 C 149.514 1.85728 2.93466 0
M  V30 1504 C 148.468 3.01078 3.04197 0
M  V30 1505 C 147.794 2.97595 4.44231 0
M  V30 1506 C 149.094 4.41254 2.7945 0
M  V30 1507 H 150.788 2.66725 1.36008 0
M  V30 1508 H 148.334 1.2835 0.652864 0
M  V30 1509 H 150.287 2.0064 3.70569 0
M  V30 1510 H 149.011 0.900207 3.13949 0
M  V30 1511 H 147.67 2.85851 2.29531 0
M  V30 1512 H 147.318 1.99691 4.61663 0
M  V30 1513 H 147.018 3.75046 4.52343 0
M  V30 1514 H 148.542 3.14583 5.23326 0
M  V30 1515 H 149.956 4.56897 3.46292 0
M  V30 1516 H 148.353 5.20315 2.98985 0
M  V30 1517 H 149.423 4.52164 1.75144 0
M  V30 1518 N 150.766 -0.704594 1.40972 0
M  V30 1519 C 151.994 -1.49354 1.43182 0
M  V30 1520 C 152.409 -1.88768 0.0345508 0
M  V30 1521 O 151.766 -1.56184 -0.944081 0
M  V30 1522 C 151.817 -2.76187 2.33244 0
M  V30 1523 O 151.538 -2.38436 3.67532 0
M  V30 1524 C 153.039 -3.7 2.44162 0
M  V30 1525 H 150.259 -0.460559 0.487982 0
M  V30 1526 H 152.803 -0.868261 1.85153 0
M  V30 1527 H 150.958 -3.34974 1.94606 0
M  V30 1528 H 151.372 -3.20126 4.15475 0
M  V30 1529 H 152.846 -4.55803 3.11364 0
M  V30 1530 H 153.323 -4.13867 1.47006 0
M  V30 1531 H 153.929 -3.17121 2.83398 0
M  V30 1532 N 152.244 -1.26651 -0.937939 0
M  V30 1533 C 153.492 -1.12165 -1.68118 0
M  V30 1534 C 153.813 0.334983 -1.92101 0
M  V30 1535 O 153.083 1.23583 -1.52 0
M  V30 1536 H 151.663 -0.412093 -0.623048 0
M  V30 1537 H 154.325 -1.59027 -1.12678 0
M  V30 1538 H 153.421 -1.64289 -2.6536 0
M  V30 1539 N 153.722 1.14298 -1.08507 0
M  V30 1540 C 154.654 2.1907 -0.673859 0
M  V30 1541 C 155.667 1.60381 0.279577 0
M  V30 1542 O 156.856 1.78374 0.0670754 0
M  V30 1543 C 153.956 3.38888 0.0290979 0
M  V30 1544 C 153.129 4.27103 -0.943494 0
M  V30 1545 C 152.188 5.25477 -0.275676 0
M  V30 1546 O 151.214 5.61709 -0.920401 0
M  V30 1547 N 152.416 5.7227 0.974013 0
M  V30 1548 H 155.181 2.54965 -1.57521 0
M  V30 1549 H 152.742 1.29528 -0.971287 0
M  V30 1550 H 154.734 4.01761 0.48683 0
M  V30 1551 H 153.304 3.01309 0.832555 0
M  V30 1552 H 152.524 3.61149 -1.58004 0
M  V30 1553 H 153.812 4.82905 -1.60251 0
M  V30 1554 H 153.21 5.44965 1.51755 0
M  V30 1555 H 151.767 6.37127 1.37522 0
M  V30 1556 N 155.201 0.870884 1.31352 0
M  V30 1557 C 156.431 0.496049 2.00557 0
M  V30 1558 C 156.839 -0.916241 1.65534 0
M  V30 1559 O 156.182 -1.61188 0.881134 0
M  V30 1560 C 156.244 0.574418 3.54881 0
M  V30 1561 C 155.908 1.94849 4.1338 0
M  V30 1562 C 156.905 2.91611 4.30417 0
M  V30 1563 C 154.59 2.25005 4.49086 0
M  V30 1564 C 156.584 4.16672 4.82352 0
M  V30 1565 C 154.271 3.50315 5.00722 0
M  V30 1566 C 155.269 4.45964 5.17306 0
M  V30 1567 O 154.957 5.69052 5.67833 0
M  V30 1568 H 154.689 0.191664 0.64826 0
M  V30 1569 H 157.243 1.17409 1.68536 0
M  V30 1570 H 155.473 -0.160549 3.86367 0
M  V30 1571 H 157.162 0.212879 4.05341 0
M  V30 1572 H 157.928 2.69622 4.03149 0
M  V30 1573 H 153.807 1.51332 4.35453 0
M  V30 1574 H 157.351 4.91336 4.95211 0
M  V30 1575 H 153.248 3.72147 5.27424 0
M  V30 1576 H 154.016 5.71236 5.86201 0
M  V30 1577 N 156.679 -1.44442 0.630414 0
M  V30 1578 C 157.907 -2.06414 0.141671 0
M  V30 1579 C 158.322 -1.47105 -1.18345 0
M  V30 1580 O 157.679 -0.593662 -1.72574 0
M  V30 1581 C 157.73 -3.61494 0.0199784 0
M  V30 1582 O 157.451 -4.18594 1.29269 0
M  V30 1583 C 158.952 -4.40499 -0.497544 0
M  V30 1584 H 156.172 -0.666292 0.0793452 0
M  V30 1585 H 158.716 -1.85323 0.864614 0
M  V30 1586 H 156.871 -3.8185 -0.653402 0
M  V30 1587 H 157.285 -5.12026 1.13707 0
M  V30 1588 H 158.759 -5.49433 -0.531708 0
M  V30 1589 H 159.236 -4.11895 -1.52445 0
M  V30 1590 H 159.842 -4.25061 0.142562 0
M  V30 1591 N 158.157 -0.370918 -1.53173 0
M  V30 1592 C 159.107 0.489588 -2.22681 0
M  V30 1593 C 160.091 1.04442 -1.22395 0
M  V30 1594 O 161.283 0.973578 -1.47819 0
M  V30 1595 C 158.412 1.626 -3.02351 0
M  V30 1596 C 157.498 1.08379 -4.10018 0
M  V30 1597 N 157.889 0.265004 -5.05105 0
M  V30 1598 C 156.187 1.35809 -4.2482 0
M  V30 1599 C 156.888 -0.0324755 -5.81691 0
M  V30 1600 N 155.864 0.566581 -5.40639 0
M  V30 1601 H 159.666 -0.142729 -2.93553 0
M  V30 1602 H 157.18 -0.179221 -1.61408 0
M  V30 1603 H 159.177 2.2547 -3.50669 0
M  V30 1604 H 157.837 2.26132 -2.33011 0
M  V30 1605 H 158.848 -0.0962352 -5.17811 0
M  V30 1606 H 155.525 1.9958 -3.66707 0
M  V30 1607 H 156.915 -0.69473 -6.68299 0
M  V30 1608 N 159.635 1.57281 -0.100228 0
M  V30 1609 C 160.865 1.98591 0.569681 0
M  V30 1610 C 161.273 0.978315 1.61943 0
M  V30 1611 O 160.616 -0.0396108 1.83657 0
M  V30 1612 C 160.678 3.36282 1.271 0
M  V30 1613 C 160.342 4.55488 0.371409 0
M  V30 1614 C 161.339 5.18491 -0.382504 0
M  V30 1615 C 159.024 5.01474 0.287965 0
M  V30 1616 C 161.018 6.25852 -1.20779 0
M  V30 1617 C 158.705 6.08701 -0.540965 0
M  V30 1618 C 159.703 6.70755 -1.28749 0
M  V30 1619 O 159.391 7.75914 -2.10269 0
M  V30 1620 H 159.123 0.65752 0.156982 0
M  V30 1621 H 161.677 2.0463 -0.177734 0
M  V30 1622 H 159.907 3.26941 2.0651 0
M  V30 1623 H 161.596 3.62005 1.83595 0
M  V30 1624 H 162.362 4.83891 -0.3278 0
M  V30 1625 H 158.241 4.52932 0.858689 0
M  V30 1626 H 161.785 6.74218 -1.79096 0
M  V30 1627 H 157.682 6.42732 -0.597131 0
M  V30 1628 H 158.45 7.92925 -2.03007 0
M  V30 1629 N 161.113 -0.173488 1.56642 0
M  V30 1630 C 162.076 -1.19859 1.95362 0
M  V30 1631 C 163.076 -1.37296 0.83704 0
M  V30 1632 O 164.266 -1.34739 1.10413 0
M  V30 1633 C 161.398 -2.56405 2.24654 0
M  V30 1634 H 162.591 -0.867062 2.87092 0
M  V30 1635 H 160.144 -0.415853 1.50666 0
M  V30 1636 H 160.879 -2.94576 1.35631 0
M  V30 1637 H 160.664 -2.45115 3.06041 0
M  V30 1638 H 162.154 -3.30287 2.5554 0
M  V30 1639 N 162.591 -1.51276 -0.441967 0
M  V30 1640 C 163.521 -1.752 -1.54361 0
M  V30 1641 C 164.502 -0.601682 -1.59103 0
M  V30 1642 O 165.687 -0.843913 -1.74905 0
M  V30 1643 C 162.817 -1.87282 -2.92477 0
M  V30 1644 C 161.771 -3.02687 -3.02596 0
M  V30 1645 C 161.097 -2.99947 -4.42647 0
M  V30 1646 C 162.397 -4.4273 -2.77106 0
M  V30 1647 H 164.091 -2.67442 -1.34592 0
M  V30 1648 H 161.637 -1.28694 -0.646048 0
M  V30 1649 H 163.59 -2.02602 -3.695 0
M  V30 1650 H 162.314 -0.916844 -3.13467 0
M  V30 1651 H 160.973 -2.87065 -2.28012 0
M  V30 1652 H 160.621 -2.02136 -4.60597 0
M  V30 1653 H 160.321 -3.77439 -4.50348 0
M  V30 1654 H 161.845 -3.17354 -5.2165 0
M  V30 1655 H 163.259 -4.58727 -3.43864 0
M  V30 1656 H 161.656 -5.21893 -2.96222 0
M  V30 1657 H 162.726 -4.53087 -1.72744 0
M  V30 1658 N 164.069 0.697108 -1.41344 0
M  V30 1659 C 165.017 1.83237 -1.43272 0
M  V30 1660 C 166.011 1.66522 -0.310947 0
M  V30 1661 O 167.217 1.73402 -0.482899 0
M  V30 1662 H 163.592 0.603802 -0.448249 0
M  V30 1663 H 165.563 1.78727 -2.38954 0
M  V30 1664 C 164.312 3.21245 -1.33029 0
M  V30 1665 H 163.635 3.34723 -2.18633 0
M  V30 1666 H 165.075 4.00763 -1.38439 0
M  V30 1667 C 163.534 3.36873 -0.0424635 0
M  V30 1668 O 164.064 3.91177 0.913421 0
M  V30 1669 N 162.27 2.90581 0.0331145 0
M  V30 1670 H 161.817 2.46577 -0.745506 0
M  V30 1671 H 161.775 3.01416 0.894199 0
M  V30 1672 N 165.547 1.27147 0.931209 0
M  V30 1673 C 166.494 1.09568 2.03134 0
M  V30 1674 C 167.464 -0.00222433 1.661 0
M  V30 1675 O 168.649 0.159439 1.90133 0
M  V30 1676 C 165.789 0.745231 3.36957 0
M  V30 1677 C 164.902 1.92041 3.86968 0
M  V30 1678 C 164.037 1.51216 5.09222 0
M  V30 1679 C 163.076 2.65504 5.5152 0
M  V30 1680 N 162.213 2.25291 6.64972 0
M  V30 1681 H 167.053 2.03708 2.17502 0
M  V30 1682 H 164.59 1.01411 1.06556 0
M  V30 1683 H 166.548 0.522878 4.1391 0
M  V30 1684 H 165.178 -0.159202 3.22407 0
M  V30 1685 H 164.23 2.25541 3.06326 0
M  V30 1686 H 165.542 2.77787 4.1429 0
M  V30 1687 H 164.696 1.25084 5.93666 0
M  V30 1688 H 163.435 0.625749 4.83669 0
M  V30 1689 H 162.44 2.92354 4.65628 0
M  V30 1690 H 163.665 3.54761 5.7907 0
M  V30 1691 H 161.611 1.39098 6.41083 0
M  V30 1692 H 161.528 3.04577 6.91931 0
M  V30 1693 H 162.796 2.02398 7.52765 0
M  V30 1694 N 167.025 -1.13721 1.09112 0
M  V30 1695 C 167.972 -2.19031 0.727591 0
M  V30 1696 C 168.942 -1.63555 -0.289656 0
M  V30 1697 O 170.127 -1.90023 -0.172026 0
M  V30 1698 C 167.267 -3.4477 0.15082 0
M  V30 1699 C 166.38 -4.14365 1.22172 0
M  V30 1700 C 165.515 -5.27709 0.608042 0
M  V30 1701 C 164.554 -5.89147 1.66047 0
M  V30 1702 N 163.691 -6.93929 1.06806 0
M  V30 1703 H 168.531 -2.49475 1.62991 0
M  V30 1704 H 166.068 -1.22499 0.81439 0
M  V30 1705 H 168.026 -4.16714 -0.201358 0
M  V30 1706 H 166.656 -3.14787 -0.714783 0
M  V30 1707 H 165.708 -3.40737 1.69122 0
M  V30 1708 H 167.02 -4.56114 2.01895 0
M  V30 1709 H 166.174 -6.06355 0.204523 0
M  V30 1710 H 164.913 -4.872 -0.220769 0
M  V30 1711 H 163.918 -5.09198 2.07357 0
M  V30 1712 H 165.143 -6.31729 2.49189 0
M  V30 1713 H 163.089 -6.55483 0.260476 0
M  V30 1714 H 163.006 -7.34202 1.8023 0
M  V30 1715 H 164.274 -7.76434 0.690644 0
M  V30 1716 N 168.503 -0.877838 -1.30888 0
M  V30 1717 C 169.731 -0.507414 -2.00581 0
M  V30 1718 C 170.146 0.902216 -1.65848 0
M  V30 1719 O 169.503 1.59225 -0.891831 0
M  V30 1720 C 169.554 -0.664162 -3.55347 0
M  V30 1721 O 169.275 -2.01829 -3.8884 0
M  V30 1722 C 170.776 -0.295787 -4.42312 0
M  V30 1723 H 167.996 -0.196866 -0.641471 0
M  V30 1724 H 170.54 -1.18117 -1.66939 0
M  V30 1725 H 168.695 -0.0378619 -3.87381 0
M  V30 1726 H 169.109 -2.03174 -4.8355 0
M  V30 1727 H 170.583 -0.456388 -5.5011 0
M  V30 1728 H 171.06 0.765663 -4.32475 0
M  V30 1729 H 171.666 -0.898113 -4.15709 0
M  V30 1730 N 169.982 1.44106 -0.638065 0
M  V30 1731 C 171.23 2.01579 -0.145043 0
M  V30 1732 C 171.551 1.50496 1.24 0
M  V30 1733 O 170.821 0.711374 1.82527 0
M  V30 1734 H 169.401 0.745282 -0.05063 0
M  V30 1735 H 172.063 1.76516 -0.826327 0
M  V30 1736 H 171.159 3.11877 -0.118039 0
M  V30 1737 N 171.46 0.379036 1.52974 0
M  V30 1738 C 172.407 -0.461048 2.26148 0
M  V30 1739 C 173.377 -1.06637 1.27349 0
M  V30 1740 O 174.562 -1.09633 1.56157 0
M  V30 1741 C 171.702 -1.58782 3.06402 0
M  V30 1742 C 170.815 -1.00636 4.20115 0
M  V30 1743 C 169.95 -2.10334 4.87784 0
M  V30 1744 C 168.989 -1.49724 5.93506 0
M  V30 1745 N 168.126 -2.5331 6.54812 0
M  V30 1746 H 172.966 0.169429 2.97518 0
M  V30 1747 H 170.503 0.0953806 1.4679 0
M  V30 1748 H 172.461 -2.25174 3.51215 0
M  V30 1749 H 171.091 -2.18876 2.37261 0
M  V30 1750 H 170.143 -0.232332 3.7969 0
M  V30 1751 H 171.455 -0.523343 4.96047 0
M  V30 1752 H 170.609 -2.84519 5.35849 0
M  V30 1753 H 169.348 -2.61992 4.11353 0
M  V30 1754 H 168.353 -0.740598 5.44789 0
M  V30 1755 H 169.578 -0.988732 6.71864 0
M  V30 1756 H 167.524 -3.04156 5.81227 0
M  V30 1757 H 167.441 -2.09734 7.26325 0
M  V30 1758 H 168.709 -3.27155 7.07524 0
M  V30 1759 N 172.938 -1.57226 0.108567 0
M  V30 1760 C 174.349 -1.8195 -0.418464 0
M  V30 1761 C 174.7 -1.02508 -1.67292 0
M  V30 1762 O 173.825 -0.258496 -2.14851 0
M  V30 1763 C 174.42 -3.30028 -0.765979 0
M  V30 1764 C 172.979 -3.55469 -1.23769 0
M  V30 1765 C 172.126 -2.7625 -0.241106 0
M  V30 1766 H 175.077 -1.55149 0.33384 0
M  V30 1767 H 175.098 -3.44086 -1.62434 0
M  V30 1768 H 174.61 -3.87821 0.147219 0
M  V30 1769 H 172.711 -3.03022 -2.16814 0
M  V30 1770 H 172.824 -4.6408 -1.19022 0
M  V30 1771 H 171.188 -2.44133 -0.72602 0
M  V30 1772 H 171.971 -3.36797 0.665007 0
M  V30 1773 N 174.416 0.165178 -1.56732 0
M  V30 1774 C 175.693 0.908443 -1.73224 0
M  V30 1775 C 176.073 2.0013 -0.67165 0
M  V30 1776 O 175.421 2.26353 0.31253 0
M  V30 1777 C 175.631 1.46756 -3.16644 0
M  V30 1778 C 176.979 1.93809 -3.77787 0
M  V30 1779 O 178.003 1.56537 -3.1996 0
M  V30 1780 O 176.862 2.62486 -4.79336 0
M  V30 1781 H 173.956 0.428025 -0.707618 0
M  V30 1782 H 176.502 0.152526 -1.69013 0
M  V30 1783 H 175.274 0.68129 -3.85323 0
M  V30 1784 H 174.897 2.28749 -3.25207 0
M  V30 1785 N 175.894 1.51508 0.433938 0
M  V30 1786 C 177.124 1.67914 1.20369 0
M  V30 1787 C 177.532 0.377461 1.85397 0
M  V30 1788 O 176.875 -0.654255 1.71654 0
M  V30 1789 C 176.937 2.74045 2.32679 0
M  V30 1790 C 176.601 4.16543 1.87991 0
M  V30 1791 C 177.598 5.01211 1.38145 0
M  V30 1792 C 175.283 4.6266 1.95579 0
M  V30 1793 C 177.277 6.30056 0.964774 0
M  V30 1794 C 174.964 5.91501 1.53523 0
M  V30 1795 C 175.962 6.75027 1.04055 0
M  V30 1796 O 175.65 8.01459 0.625964 0
M  V30 1797 H 175.382 0.566578 0.368735 0
M  V30 1798 H 177.936 1.98709 0.51999 0
M  V30 1799 H 176.166 2.38572 3.04336 0
M  V30 1800 H 177.855 2.79295 2.94532 0
M  V30 1801 H 178.621 4.66783 1.31675 0
M  V30 1802 H 174.5 3.97767 2.33029 0
M  V30 1803 H 178.044 6.95202 0.57796 0
M  V30 1804 H 173.941 6.25442 1.59665 0
M  V30 1805 H 174.709 8.15043 0.751509 0
M  V30 1806 N 177.372 -0.689602 1.41712 0
M  V30 1807 C 178.618 -1.45181 1.41599 0
M  V30 1808 C 178.951 -1.94181 0.0270081 0
M  V30 1809 O 178.226 -1.6993 -0.946265 0
M  V30 1810 C 178.509 -2.65945 2.42787 0
M  V30 1811 C 178.362 -2.22672 3.90816 0
M  V30 1812 C 179.681 -3.68149 2.41151 0
M  V30 1813 H 176.8 -0.526576 0.515642 0
M  V30 1814 H 179.442 -0.784947 1.73028 0
M  V30 1815 H 177.592 -3.2284 2.16116 0
M  V30 1816 H 179.264 -1.71058 4.28412 0
M  V30 1817 H 177.507 -1.54394 4.05395 0
M  V30 1818 H 178.178 -3.0935 4.57172 0
M  V30 1819 H 180.654 -3.2094 2.64834 0
M  V30 1820 H 179.53 -4.50248 3.13955 0
M  V30 1821 H 179.791 -4.18259 1.43221 0
M  V30 1822 N 178.85 -1.27639 -0.924453 0
M  V30 1823 C 180.078 -1.16989 -1.70649 0
M  V30 1824 C 180.493 0.272869 -1.86818 0
M  V30 1825 O 179.85 1.18549 -1.38753 0
M  V30 1826 C 179.901 -1.85229 -3.10439 0
M  V30 1827 O 179.622 -3.23868 -2.95028 0
M  V30 1828 C 181.123 -1.80746 -4.04779 0
M  V30 1829 H 178.343 -0.406595 -0.53378 0
M  V30 1830 H 180.887 -1.68569 -1.15778 0
M  V30 1831 H 179.042 -1.37545 -3.6216 0
M  V30 1832 H 179.456 -3.57889 -3.83426 0
M  V30 1833 H 180.93 -2.33101 -5.00368 0
M  V30 1834 H 181.407 -0.777499 -4.32263 0
M  V30 1835 H 182.013 -2.28059 -3.58984 0
M  V30 1836 N 180.328 1.1314 -1.09713 0
M  V30 1837 C 181.605 1.80762 -0.747302 0
M  V30 1838 C 181.985 1.96663 0.767265 0
M  V30 1839 O 181.333 1.53706 1.69076 0
M  V30 1840 C 181.543 3.15606 -1.48975 0
M  V30 1841 C 182.891 3.90914 -1.65746 0
M  V30 1842 O 183.915 3.25239 -1.45251 0
M  V30 1843 O 182.774 5.08718 -1.9967 0
M  V30 1844 H 179.868 0.782103 -0.268782 0
M  V30 1845 H 182.414 1.20041 -1.19951 0
M  V30 1846 H 181.186 2.99278 -2.52088 0
M  V30 1847 H 180.809 3.84029 -1.02991 0
M  V30 1848 N 181.806 0.884767 1.30421 0
M  V30 1849 C 183.031 0.517288 2.00845 0
M  V30 1850 C 183.456 -0.886779 1.65885 0
M  V30 1851 O 182.814 -1.58768 0.875354 0
M  V30 1852 C 182.862 0.698994 3.5376 0
M  V30 1853 O 181.966 -0.255208 4.1161 0
M  V30 1854 H 181.307 0.203872 0.631927 0
M  V30 1855 H 183.837 1.19225 1.66272 0
M  V30 1856 H 183.847 0.597912 4.03595 0
M  V30 1857 H 182.522 1.72271 3.78544 0
M  V30 1858 H 181.099 -0.10784 3.72744 0
M  V30 1859 N 183.284 -1.43765 0.645699 0
M  V30 1860 C 184.247 -2.29163 -0.0409488 0
M  V30 1861 C 185.247 -1.41813 -0.757996 0
M  V30 1862 O 186.437 -1.63527 -0.600382 0
M  V30 1863 C 183.569 -3.23716 -1.06869 0
M  V30 1864 H 184.762 -2.91366 0.710345 0
M  V30 1865 H 182.315 -1.5092 0.406547 0
M  V30 1866 H 183.05 -2.66393 -1.84947 0
M  V30 1867 H 182.835 -3.88105 -0.558277 0
M  V30 1868 H 184.325 -3.87831 -1.54845 0
M  V30 1869 N 184.763 -0.387143 -1.52771 0
M  V30 1870 C 185.726 0.436939 -2.24997 0
M  V30 1871 C 186.726 0.991991 -1.26555 0
M  V30 1872 O 187.916 0.874335 -1.50669 0
M  V30 1873 C 185.048 1.61281 -3.00335 0
M  V30 1874 H 186.241 -0.195365 -2.99263 0
M  V30 1875 H 183.794 -0.139218 -1.55679 0
M  V30 1876 H 184.529 2.2826 -2.30364 0
M  V30 1877 H 184.314 1.22154 -3.72587 0
M  V30 1878 H 185.804 2.19629 -3.5518 0
M  V30 1879 N 186.241 1.57166 -0.116904 0
M  V30 1880 C 187.466 1.999 0.55271 0
M  V30 1881 C 187.891 0.996039 1.59564 0
M  V30 1882 O 187.249 -0.032556 1.81271 0
M  V30 1883 C 187.297 3.4152 1.15742 0
M  V30 1884 O 186.401 3.44106 2.27299 0
M  V30 1885 H 185.742 0.649447 0.138258 0
M  V30 1886 H 188.272 2.03573 -0.204759 0
M  V30 1887 H 188.282 3.79684 1.49346 0
M  V30 1888 H 186.957 4.14034 0.393493 0
M  V30 1889 H 185.534 3.17759 1.9515 0
M  V30 1890 N 187.719 -0.156864 1.56817 0
M  V30 1891 C 188.682 -1.17781 1.96622 0
M  V30 1892 C 189.682 -1.36401 0.851555 0
M  V30 1893 O 190.872 -1.33561 1.11836 0
M  V30 1894 C 188.004 -2.54008 2.27361 0
M  V30 1895 H 189.197 -0.836564 2.87996 0
M  V30 1896 H 186.75 -0.39985 1.51099 0
M  V30 1897 H 187.485 -2.9312 1.38748 0
M  V30 1898 H 187.27 -2.41856 3.08623 0
M  V30 1899 H 188.76 -3.27558 2.59029 0
M  V30 1900 N 189.197 -1.51736 -0.425897 0
M  V30 1901 C 190.425 -1.68794 -1.1965 0
M  V30 1902 C 190.84 -0.390164 -1.84725 0
M  V30 1903 O 190.197 0.632376 -1.71194 0
M  V30 1904 C 190.248 -2.81174 -2.27208 0
M  V30 1905 O 189.969 -4.05925 -1.64793 0
M  V30 1906 C 191.47 -3.09599 -3.17275 0
M  V30 1907 H 188.69 -0.566128 -0.360194 0
M  V30 1908 H 191.234 -1.98211 -0.503249 0
M  V30 1909 H 189.389 -2.54324 -2.9223 0
M  V30 1910 H 189.803 -4.68423 -2.35967 0
M  V30 1911 H 191.277 -3.91786 -3.88854 0
M  V30 1912 H 191.754 -2.22468 -3.78688 0
M  V30 1913 H 192.36 -3.38151 -2.57941 0
M  V30 1914 N 190.675 0.682077 -1.42076 0
M  V30 1915 C 191.638 1.77756 -1.44691 0
M  V30 1916 C 192.638 1.5726 -0.335535 0
M  V30 1917 O 193.828 1.63686 -0.596037 0
M  V30 1918 C 190.96 3.16301 -1.27146 0
M  V30 1919 H 192.153 1.76826 -2.42224 0
M  V30 1920 H 189.706 0.891012 -1.28416 0
M  V30 1921 H 190.441 3.22862 -0.305075 0
M  V30 1922 H 190.226 3.32581 -2.07683 0
M  V30 1923 H 191.716 3.96241 -1.31843 0
M  V30 1924 N 192.153 1.28127 0.917671 0
M  V30 1925 C 193.399 1.16232 1.66918 0
M  V30 1926 C 193.754 -0.28701 1.90247 0
M  V30 1927 O 193.047 -1.20586 1.48895 0
M  V30 1928 C 193.241 1.89018 3.03327 0
M  V30 1929 C 193.07 3.4088 2.9331 0
M  V30 1930 C 191.84 4.10214 2.95047 0
M  V30 1931 C 194.038 4.36689 2.71675 0
M  V30 1932 N 192.02 5.48571 2.75577 0
M  V30 1933 C 193.391 5.62382 2.6101 0
M  V30 1934 C 195.446 4.26661 2.56641 0
M  V30 1935 C 194.149 6.79189 2.36843 0
M  V30 1936 C 196.175 5.432 2.33853 0
M  V30 1937 C 195.537 6.67855 2.23939 0
M  V30 1938 H 191.636 0.48024 0.617166 0
M  V30 1939 H 194.22 1.61727 1.08409 0
M  V30 1940 H 192.391 1.45963 3.59929 0
M  V30 1941 H 194.123 1.69541 3.67475 0
M  V30 1942 H 190.878 3.61762 3.05655 0
M  V30 1943 H 191.302 6.21287 2.68945 0
M  V30 1944 H 195.944 3.30998 2.63059 0
M  V30 1945 H 193.662 7.74926 2.29164 0
M  V30 1946 H 197.248 5.37328 2.23091 0
M  V30 1947 H 196.128 7.56511 2.06546 0
M  V30 1948 N 193.631 -1.12557 1.10312 0
M  V30 1949 C 194.856 -1.88405 0.867085 0
M  V30 1950 C 195.281 -1.79038 -0.576817 0
M  V30 1951 O 194.639 -1.14439 -1.40618 0
M  V30 1952 C 194.687 -3.3563 1.31851 0
M  V30 1953 O 193.791 -4.09565 0.482734 0
M  V30 1954 H 193.132 -0.585455 0.313271 0
M  V30 1955 H 195.662 -1.42352 1.4696 0
M  V30 1956 H 195.672 -3.86469 1.3079 0
M  V30 1957 H 194.347 -3.41765 2.37001 0
M  V30 1958 H 192.924 -3.68695 0.558448 0
M  V30 1959 N 195.109 -0.891671 -1.2995 0
M  V30 1960 C 196.337 -0.52866 -2.00032 0
M  V30 1961 C 196.752 0.884574 -1.66795 0
M  V30 1962 O 196.109 1.5827 -0.908669 0
M  V30 1963 C 196.16 -0.701814 -3.54622 0
M  V30 1964 O 195.881 -2.05942 -3.86678 0
M  V30 1965 C 197.382 -0.342683 -4.41973 0
M  V30 1966 H 194.602 -0.203659 -0.639347 0
M  V30 1967 H 197.146 -1.19881 -1.65677 0
M  V30 1968 H 195.301 -0.0789468 -3.8732 0
M  V30 1969 H 195.715 -2.08291 -4.81368 0
M  V30 1970 H 197.189 -0.514709 -5.49595 0
M  V30 1971 H 197.666 0.71975 -4.33262 0
M  V30 1972 H 198.272 -0.942154 -4.14733 0
M  V30 1973 N 196.587 1.43421 -0.653314 0
M  V30 1974 C 197.835 2.01414 -0.166415 0
M  V30 1975 C 198.156 1.51803 1.22397 0
M  V30 1976 O 197.426 0.730693 1.81763 0
M  V30 1977 H 196.006 0.744703 -0.0585319 0
M  V30 1978 H 198.668 1.75629 -0.845003 0
M  V30 1979 H 197.764 3.11734 -0.151111 0
M  V30 1980 N 198.065 0.39524 1.52563 0
M  V30 1981 C 199.311 -0.185318 2.01952 0
M  V30 1982 C 199.644 -1.45964 1.28095 0
M  V30 1983 O 198.919 -1.90689 0.38315 0
M  V30 1984 C 199.202 -0.447193 3.57312 0
M  V30 1985 C 199.055 0.842828 4.41833 0
M  V30 1986 C 200.374 -1.23529 4.22408 0
M  V30 1987 H 197.493 -0.0658788 0.73405 0
M  V30 1988 H 200.135 0.525975 1.82575 0
M  V30 1989 H 198.285 -1.05312 3.73954 0
M  V30 1990 H 199.957 1.4795 4.36931 0
M  V30 1991 H 198.2 1.45686 4.08605 0
M  V30 1992 H 198.871 0.614165 5.48573 0
M  V30 1993 H 201.347 -0.722445 4.0978 0
M  V30 1994 H 200.223 -1.38727 5.3108 0
M  V30 1995 H 200.484 -2.25213 3.80436 0
M  V30 1996 N 199.544 -1.57102 0.125237 0
M  V30 1997 C 200.491 -2.15641 -0.822655 0
M  V30 1998 C 201.461 -1.08313 -1.25927 0
M  V30 1999 O 202.646 -1.36251 -1.33567 0
M  V30 2000 C 199.786 -2.76504 -2.06494 0
M  V30 2001 C 198.899 -3.98158 -1.67612 0
M  V30 2002 C 198.034 -4.47088 -2.86854 0
M  V30 2003 C 197.073 -5.6126 -2.44242 0
M  V30 2004 N 196.21 -6.04905 -3.56419 0
M  V30 2005 H 201.05 -2.96313 -0.316625 0
M  V30 2006 H 198.587 -1.46388 -0.144588 0
M  V30 2007 H 200.545 -3.09925 -2.79289 0
M  V30 2008 H 199.175 -1.98512 -2.54545 0
M  V30 2009 H 198.227 -3.70858 -0.846661 0
M  V30 2010 H 199.539 -4.80934 -1.32301 0
M  V30 2011 H 198.693 -4.82451 -3.67867 0
M  V30 2012 H 197.432 -3.63275 -3.25396 0
M  V30 2013 H 196.437 -5.25495 -1.61663 0
M  V30 2014 H 197.662 -6.46843 -2.0681 0
M  V30 2015 H 195.608 -5.24032 -3.94623 0
M  V30 2016 H 195.525 -6.82552 -3.25051 0
M  V30 2017 H 196.793 -6.44907 -4.37853 0
M  V30 2018 N 201.022 0.148545 -1.56898 0
M  V30 2019 C 202.25 0.876389 -1.87422 0
M  V30 2020 C 202.665 1.74809 -0.713256 0
M  V30 2021 O 202.022 1.79725 0.317025 0
M  V30 2022 C 202.073 1.73438 -3.17178 0
M  V30 2023 O 201.794 0.897809 -4.28802 0
M  V30 2024 C 203.295 2.56993 -3.61205 0
M  V30 2025 H 200.515 0.253489 -0.621277 0
M  V30 2026 H 203.059 0.141798 -2.04008 0
M  V30 2027 H 201.214 2.42205 -3.0235 0
M  V30 2028 H 201.628 1.48672 -5.02988 0
M  V30 2029 H 203.102 3.12773 -4.54838 0
M  V30 2030 H 203.579 3.32958 -2.86419 0
M  V30 2031 H 204.185 1.9352 -3.78722 0
M  V30 2032 N 202.5 1.5196 0.417844 0
M  V30 2033 C 203.73 1.69181 1.18581 0
M  V30 2034 C 204.138 0.397104 1.84986 0
M  V30 2035 O 203.481 -0.636011 1.72339 0
M  V30 2036 C 203.543 2.76497 2.29759 0
M  V30 2037 C 203.207 4.18514 1.83563 0
M  V30 2038 C 204.204 5.02648 1.32821 0
M  V30 2039 C 201.889 4.64708 1.90661 0
M  V30 2040 C 203.883 6.31044 0.897894 0
M  V30 2041 C 201.57 5.93096 1.47241 0
M  V30 2042 C 202.568 6.76093 0.968891 0
M  V30 2043 O 202.256 8.02078 0.540924 0
M  V30 2044 H 201.988 0.570457 0.362705 0
M  V30 2045 H 204.542 1.99249 0.498885 0
M  V30 2046 H 202.772 2.41786 3.01789 0
M  V30 2047 H 204.461 2.82403 2.91553 0
M  V30 2048 H 205.227 4.68154 1.26716 0
M  V30 2049 H 201.106 4.00216 2.28797 0
M  V30 2050 H 204.65 6.95776 0.504192 0
M  V30 2051 H 200.547 6.271 1.53022 0
M  V30 2052 H 201.315 8.15794 0.66502 0
M  V30 2053 N 203.978 -0.674533 1.42435 0
M  V30 2054 C 204.926 -1.80934 1.46169 0
M  V30 2055 C 205.92 -1.66006 0.3374 0
M  V30 2056 O 207.126 -1.72611 0.510425 0
M  V30 2057 H 203.501 -0.596594 0.457798 0
M  V30 2058 H 205.472 -1.74903 2.41767 0
M  V30 2059 C 204.221 -3.19088 1.38123 0
M  V30 2060 H 203.544 -3.31203 2.23931 0
M  V30 2061 H 204.984 -3.9851 1.44797 0
M  V30 2062 C 203.443 -3.36763 0.0960517 0
M  V30 2063 O 203.973 -3.92581 -0.851073 0
M  V30 2064 N 202.179 -2.90597 0.0131186 0
M  V30 2065 H 201.726 -2.45359 0.784639 0
M  V30 2066 H 201.684 -3.028 -0.846133 0
M  V30 2067 N 205.456 -1.28612 -0.910864 0
M  V30 2068 C 206.704 -1.15705 -1.65701 0
M  V30 2069 C 207.025 0.29416 -1.92769 0
M  V30 2070 O 206.295 1.20331 -1.54588 0
M  V30 2071 H 204.875 -0.425216 -0.614167 0
M  V30 2072 H 207.537 -1.61381 -1.0928 0
M  V30 2073 H 206.633 -1.6988 -2.61815 0
M  V30 2074 N 206.934 1.1197 -1.10907 0
M  V30 2075 C 207.897 2.16031 -0.765707 0
M  V30 2076 C 208.897 1.59393 0.212235 0
M  V30 2077 O 210.087 1.74196 -0.0115441 0
M  V30 2078 C 207.219 3.40632 -0.135053 0
M  V30 2079 H 208.412 2.47919 -1.68748 0
M  V30 2080 H 205.965 1.27061 -0.910226 0
M  V30 2081 H 206.7 3.14348 0.797218 0
M  V30 2082 H 206.485 3.8302 -0.838937 0
M  V30 2083 H 207.975 4.17505 0.0892469 0
M  V30 2084 N 208.412 0.89855 1.29475 0
M  V30 2085 C 209.342 0.39201 2.30186 0
M  V30 2086 C 210.323 -0.532359 1.61555 0
M  V30 2087 O 211.508 -0.443331 1.89072 0
M  V30 2088 C 208.638 -0.382353 3.45189 0
M  V30 2089 C 207.592 0.451483 4.25612 0
M  V30 2090 C 206.918 -0.450307 5.328 0
M  V30 2091 C 208.218 1.70079 4.93832 0
M  V30 2092 H 209.912 1.23362 2.72804 0
M  V30 2093 H 207.458 0.594638 1.31149 0
M  V30 2094 H 209.411 -0.747451 4.14718 0
M  V30 2095 H 208.135 -1.25774 3.01411 0
M  V30 2096 H 206.794 0.798897 3.57789 0
M  V30 2097 H 206.442 -1.32379 4.85268 0
M  V30 2098 H 206.142 0.103902 5.87508 0
M  V30 2099 H 207.666 -0.811623 6.05182 0
M  V30 2100 H 209.08 1.40549 5.55805 0
M  V30 2101 H 207.477 2.19623 5.58467 0
M  V30 2102 H 208.547 2.43744 4.19186 0
M  V30 2103 N 209.89 -1.43072 0.660911 0
M  V30 2104 C 211.138 -2.01323 0.177094 0
M  V30 2105 C 211.459 -1.5245 -1.2159 0
M  V30 2106 O 210.729 -0.740322 -1.81373 0
M  V30 2107 H 209.309 -0.744382 0.0624804 0
M  V30 2108 H 211.971 -1.75179 0.854305 0
M  V30 2109 H 211.067 -3.11649 0.167641 0
M  V30 2110 N 211.368 -0.403325 -1.52352 0
M  V30 2111 C 212.614 0.174605 -2.02047 0
M  V30 2112 C 212.947 1.45282 -1.28867 0
M  V30 2113 O 212.222 1.90483 -0.393257 0
M  V30 2114 C 212.505 0.428238 -3.57545 0
M  V30 2115 C 212.358 -0.866248 -4.4138 0
M  V30 2116 C 213.677 1.21287 -4.23057 0
M  V30 2117 H 210.796 0.0619851 -0.734389 0
M  V30 2118 H 213.438 -0.53565 -1.82293 0
M  V30 2119 H 211.588 1.03327 -3.74507 0
M  V30 2120 H 213.26 -1.50265 -4.3614 0
M  V30 2121 H 211.503 -1.47851 -4.07827 0
M  V30 2122 H 212.174 -0.643249 -5.48239 0
M  V30 2123 H 214.65 0.700703 -4.10158 0
M  V30 2124 H 213.526 1.35909 -5.31808 0
M  V30 2125 H 213.787 2.23193 -3.81625 0
M  V30 2126 N 212.846 1.57033 -0.133567 0
M  V30 2127 C 214.123 1.87256 0.56522 0
M  V30 2128 C 214.503 1.03726 1.83859 0
M  V30 2129 O 213.851 0.120247 2.28183 0
M  V30 2130 C 214.061 3.3865 0.843636 0
M  V30 2131 C 215.409 4.07574 1.19032 0
M  V30 2132 O 216.433 3.43752 0.933429 0
M  V30 2133 O 215.292 5.20259 1.67312 0
M  V30 2134 H 212.386 0.775678 0.286796 0
M  V30 2135 H 214.932 1.68855 -0.169168 0
M  V30 2136 H 213.704 3.91257 -0.0581149 0
M  V30 2137 H 213.327 3.62532 1.63268 0
M  V30 2138 N 214.325 -0.140222 1.56975 0
M  V30 2139 C 215.574 -0.850152 1.82908 0
M  V30 2140 C 215.887 -1.82028 0.715892 0
M  V30 2141 O 217.093 -2.57485 0.861016 0
M  V30 2142 C 215.549 -1.5625 3.24213 0
M  V30 2143 C 215.157 -0.63443 4.43485 0
M  V30 2144 C 216.901 -2.25881 3.59413 0
M  V30 2145 C 214.808 -1.34879 5.75814 0
M  V30 2146 H 213.738 -0.321221 0.682153 0
M  V30 2147 H 216.389 -0.102874 1.83211 0
M  V30 2148 H 214.771 -2.35565 3.18316 0
M  V30 2149 H 215.945 0.12398 4.60633 0
M  V30 2150 H 214.26 -0.0461836 4.16374 0
M  V30 2151 H 216.857 -2.79978 4.5554 0
M  V30 2152 H 217.2 -3.02693 2.85802 0
M  V30 2153 H 217.733 -1.53477 3.67001 0
M  V30 2154 H 214.472 -0.622385 6.52539 0
M  V30 2155 H 213.992 -2.07974 5.6259 0
M  V30 2156 H 215.671 -1.88784 6.18845 0
M  V30 2157 N 215.803 -1.52179 -0.40978 0
M  V30 2158 C 216.753 -1.71857 -1.49831 0
M  V30 2159 C 217.737 -0.572469 -1.50372 0
M  V30 2160 O 218.929 -0.829509 -1.56359 0
M  V30 2161 C 216.058 -1.87206 -2.87765 0
M  V30 2162 C 215.144 -3.07685 -2.91875 0
M  V30 2163 N 215.535 -4.30403 -2.65683 0
M  V30 2164 C 213.833 -3.07505 -3.23043 0
M  V30 2165 C 214.534 -5.11868 -2.76344 0
M  V30 2166 N 213.51 -4.47101 -3.09195 0
M  V30 2167 H 217.312 -2.64381 -1.28375 0
M  V30 2168 H 214.826 -1.50203 -0.617479 0
M  V30 2169 H 216.823 -1.99419 -3.66111 0
M  V30 2170 H 215.483 -0.958814 -3.10221 0
M  V30 2171 H 216.494 -4.58887 -2.4009 0
M  V30 2172 H 213.171 -2.25915 -3.51096 0
M  V30 2173 H 214.561 -6.19634 -2.59814 0
M  V30 2174 N 217.281 0.66697 -1.42791 0
M  V30 2175 C 218.191 1.80962 -1.49299 0
M  V30 2176 C 219.207 1.69775 -0.381108 0
M  V30 2177 O 220.383 1.91188 -0.633188 0
M  V30 2178 C 217.448 3.17156 -1.40045 0
M  V30 2179 C 216.509 3.40242 -2.6179 0
M  V30 2180 C 215.742 4.69939 -2.52969 0
M  V30 2181 O 215.965 5.48372 -1.56985 0
M  V30 2182 O 214.899 4.94441 -3.43237 0
M  V30 2183 H 218.725 1.78427 -2.45759 0
M  V30 2184 H 216.31 0.823713 -1.24641 0
M  V30 2185 H 218.192 3.98413 -1.37276 0
M  V30 2186 H 216.867 3.20312 -0.467138 0
M  V30 2187 H 215.774 2.58802 -2.70134 0
M  V30 2188 H 217.107 3.41923 -3.54047 0
M  V30 2189 N 218.759 1.29093 0.90403 0
M  V30 2190 C 219.706 1.13853 2.00764 0
M  V30 2191 C 220.676 0.0330084 1.66067 0
M  V30 2192 O 221.861 0.199733 1.89752 0
M  V30 2193 C 219.001 0.816537 3.35301 0
M  V30 2194 C 218.114 2.00206 3.82807 0
M  V30 2195 C 217.249 1.61983 5.059 0
M  V30 2196 C 216.288 2.77143 5.45764 0
M  V30 2197 N 215.425 2.39346 6.60044 0
M  V30 2198 H 220.265 2.08276 2.13132 0
M  V30 2199 H 217.802 1.03648 1.04381 0
M  V30 2200 H 219.76 0.610557 4.12708 0
M  V30 2201 H 218.39 -0.090779 3.22672 0
M  V30 2202 H 217.442 2.31988 3.01473 0
M  V30 2203 H 218.754 2.86512 4.08304 0
M  V30 2204 H 217.908 1.37649 5.90879 0
M  V30 2205 H 216.647 0.728202 4.82233 0
M  V30 2206 H 215.652 3.02165 4.59322 0
M  V30 2207 H 216.877 3.66964 5.71414 0
M  V30 2208 H 214.823 1.52665 6.37989 0
M  V30 2209 H 214.74 3.19185 6.85315 0
M  V30 2210 H 216.008 2.1832 7.48303 0
M  V30 2211 N 220.237 -1.11381 1.11499 0
M  V30 2212 C 221.514 -1.7955 0.775965 0
M  V30 2213 C 221.894 -1.97859 -0.73588 0
M  V30 2214 O 221.242 -1.56376 -1.66609 0
M  V30 2215 C 221.452 -3.13196 1.53977 0
M  V30 2216 C 222.8 -3.88227 1.71944 0
M  V30 2217 O 223.824 -3.22887 1.50407 0
M  V30 2218 O 222.683 -5.05477 2.07738 0
M  V30 2219 H 219.777 -0.777728 0.28119 0
M  V30 2220 H 222.323 -1.18118 1.21845 0
M  V30 2221 H 221.095 -2.95229 2.56818 0
M  V30 2222 H 220.718 -3.82342 1.09088 0
M  V30 2223 N 221.715 -0.905404 -1.28997 0
M  V30 2224 C 222.665 -0.358713 -2.25161 0
M  V30 2225 C 223.649 0.524449 -1.52113 0
M  V30 2226 O 224.841 0.365534 -1.73184 0
M  V30 2227 C 221.97 0.407609 -3.40872 0
M  V30 2228 C 221.056 -0.490797 -4.21251 0
M  V30 2229 N 221.447 -1.60061 -4.79806 0
M  V30 2230 C 219.745 -0.289636 -4.45059 0
M  V30 2231 C 220.446 -2.15757 -5.40207 0
M  V30 2232 N 219.422 -1.44988 -5.23908 0
M  V30 2233 H 223.224 -1.20642 -2.67998 0
M  V30 2234 H 220.738 -0.757103 -1.43672 0
M  V30 2235 H 222.735 0.816046 -4.08835 0
M  V30 2236 H 221.395 1.25251 -2.9957 0
M  V30 2237 H 222.406 -1.98329 -4.7842 0
M  V30 2238 H 219.083 0.51643 -4.14294 0
M  V30 2239 H 220.473 -3.09069 -5.96595 0
M  V30 2240 N 223.193 1.4272 -0.668489 0
M  V30 2241 C 224.604 1.84793 -0.266151 0
M  V30 2242 C 224.955 1.55959 1.19043 0
M  V30 2243 O 224.08 1.01622 1.91055 0
M  V30 2244 C 224.675 3.35436 -0.476271 0
M  V30 2245 C 223.234 3.76182 -0.128113 0
M  V30 2246 C 222.381 2.66344 -0.771777 0
M  V30 2247 H 225.332 1.32656 -0.871098 0
M  V30 2248 H 225.353 3.79515 0.273561 0
M  V30 2249 H 224.865 3.5639 -1.53647 0
M  V30 2250 H 222.966 3.60836 0.928891 0
M  V30 2251 H 223.079 4.75766 -0.564231 0
M  V30 2252 H 221.443 2.53885 -0.203652 0
M  V30 2253 H 222.226 2.90123 -1.83531 0
M  V30 2254 N 224.671 0.411399 1.52136 0
M  V30 2255 C 225.899 -0.163076 2.06256 0
M  V30 2256 C 226.314 -1.3867 1.28125 0
M  V30 2257 O 225.671 -1.79423 0.333721 0
M  V30 2258 C 225.722 -0.511252 3.57867 0
M  V30 2259 O 225.443 0.66378 4.33042 0
M  V30 2260 C 226.944 -1.13921 4.28412 0
M  V30 2261 H 224.164 -0.0193897 0.67072 0
M  V30 2262 H 226.708 0.583007 1.96013 0
M  V30 2263 H 224.863 -1.20723 3.6811 0
M  V30 2264 H 225.277 0.372601 5.23175 0
M  V30 2265 H 226.751 -1.33302 5.35663 0
M  V30 2266 H 227.228 -2.11296 3.85033 0
M  V30 2267 H 227.834 -0.483373 4.22544 0
M  V30 2268 N 226.149 -1.5696 0.141893 0
M  V30 2269 C 227.398 -1.95135 -0.510427 0
M  V30 2270 C 227.711 -1.02896 -1.66348 0
M  V30 2271 O 228.917 -1.30629 -2.38009 0
M  V30 2272 C 227.373 -3.46876 -0.959427 0
M  V30 2273 C 226.981 -4.47691 0.166419 0
M  V30 2274 C 228.725 -3.93927 -1.58183 0
M  V30 2275 C 226.632 -5.90636 -0.300565 0
M  V30 2276 H 225.562 -0.728494 -0.194454 0
M  V30 2277 H 228.213 -1.8211 0.22542 0
M  V30 2278 H 226.595 -3.55215 -1.75038 0
M  V30 2279 H 227.769 -4.51043 0.94325 0
M  V30 2280 H 226.084 -4.10527 0.696905 0
M  V30 2281 H 228.681 -4.98158 -1.94275 0
M  V30 2282 H 229.024 -3.3519 -2.46888 0
M  V30 2283 H 229.557 -3.88484 -0.855863 0
M  V30 2284 H 226.296 -6.5318 0.550989 0
M  V30 2285 H 225.816 -5.90655 -1.04338 0
M  V30 2286 H 227.495 -6.42588 -0.754265 0
M  V30 2287 N 227.627 0.131896 -1.57047 0
M  V30 2288 C 228.557 1.16384 -2.02428 0
M  V30 2289 C 229.538 1.43936 -0.90644 0
M  V30 2290 O 230.723 1.54599 -1.17528 0
M  V30 2291 C 227.853 2.49328 -2.4177 0
M  V30 2292 C 226.807 2.36266 -3.56879 0
M  V30 2293 C 226.133 3.74057 -3.8208 0
M  V30 2294 C 227.433 1.834 -4.89042 0
M  V30 2295 H 229.127 0.786433 -2.88887 0
M  V30 2296 H 226.673 0.376855 -1.38981 0
M  V30 2297 H 228.626 3.21759 -2.7212 0
M  V30 2298 H 227.35 2.88934 -1.52266 0
M  V30 2299 H 226.009 1.66286 -3.26718 0
M  V30 2300 H 225.657 4.11125 -2.89803 0
M  V30 2301 H 225.357 3.66174 -4.59554 0
M  V30 2302 H 226.881 4.48012 -4.1487 0
M  V30 2303 H 228.295 2.45636 -5.18011 0
M  V30 2304 H 226.692 1.8637 -5.70426 0
M  V30 2305 H 227.762 0.790662 -4.7841 0
M  V30 2306 N 229.106 1.52395 0.401703 0
M  V30 2307 C 230.016 1.7917 1.51444 0
M  V30 2308 C 231.032 0.677691 1.6026 0
M  V30 2309 O 232.208 0.963909 1.76835 0
M  V30 2310 C 229.273 1.94347 2.87107 0
M  V30 2311 C 228.334 3.18257 2.88116 0
M  V30 2312 C 227.567 3.32701 4.17308 0
M  V30 2313 O 227.79 2.52238 5.11598 0
M  V30 2314 O 226.724 4.25891 4.25324 0
M  V30 2315 H 230.55 2.73633 1.31752 0
M  V30 2316 H 228.135 1.3733 0.588296 0
M  V30 2317 H 230.017 2.06109 3.67555 0
M  V30 2318 H 228.692 1.03073 3.06851 0
M  V30 2319 H 227.599 3.11947 2.06494 0
M  V30 2320 H 228.932 4.09336 2.73322 0
M  V30 2321 N 230.584 -0.659388 1.43143 0
M  V30 2322 C 231.517 -1.78425 1.42267 0
M  V30 2323 C 232.495 -1.60085 0.284894 0
M  V30 2324 O 233.679 -1.82351 0.477527 0
M  V30 2325 C 230.806 -3.15642 1.22833 0
M  V30 2326 C 229.852 -3.52698 2.39806 0
M  V30 2327 S 230.685 -3.53372 4.02353 0
M  V30 2328 C 231.841 -4.93256 3.85291 0
M  V30 2329 H 232.074 -1.78897 2.37452 0
M  V30 2330 H 229.607 -0.831469 1.301 0
M  V30 2331 H 231.565 -3.94838 1.12308 0
M  V30 2332 H 230.226 -3.12739 0.29207 0
M  V30 2333 H 229.419 -4.52475 2.21996 0
M  V30 2334 H 229.021 -2.80899 2.46925 0
M  V30 2335 H 231.313 -5.81751 3.47235 0
M  V30 2336 H 232.256 -5.16115 4.84799 0
M  V30 2337 H 232.664 -4.665 3.17865 0
M  V30 2338 N 232.062 -1.29571 -0.897171 0
M  V30 2339 C 233.025 -1.14913 -1.98312 0
M  V30 2340 C 234.025 -0.0838629 -1.60581 0
M  V30 2341 O 235.215 -0.331006 -1.71026 0
M  V30 2342 C 232.347 -0.757835 -3.3237 0
M  V30 2343 H 233.54 -2.11377 -2.12743 0
M  V30 2344 H 231.093 -1.12793 -1.08201 0
M  V30 2345 H 231.828 0.206837 -3.2364 0
M  V30 2346 H 231.613 -1.52755 -3.61121 0
M  V30 2347 H 233.103 -0.678408 -4.12053 0
M  V30 2348 N 233.54 1.10788 -1.12088 0
M  V30 2349 C 234.487 2.17025 -0.785407 0
M  V30 2350 C 235.457 1.64265 0.246191 0
M  V30 2351 O 236.642 1.90412 0.121584 0
M  V30 2352 C 233.782 3.44249 -0.242177 0
M  V30 2353 C 232.895 4.1098 -1.33115 0
M  V30 2354 C 232.03 5.25911 -0.747741 0
M  V30 2355 C 231.069 5.84538 -1.81609 0
M  V30 2356 N 230.206 6.90853 -1.25167 0
M  V30 2357 H 235.046 2.45066 -1.69548 0
M  V30 2358 H 232.583 1.20297 -0.846582 0
M  V30 2359 H 234.541 4.17101 0.0908026 0
M  V30 2360 H 233.171 3.16571 0.631072 0
M  V30 2361 H 232.223 3.36133 -1.78097 0
M  V30 2362 H 233.535 4.50601 -2.13917 0
M  V30 2363 H 232.689 6.056 -0.365216 0
M  V30 2364 H 231.428 4.87614 0.0915188 0
M  V30 2365 H 230.433 5.03522 -2.20785 0
M  V30 2366 H 231.658 6.249 -2.6585 0
M  V30 2367 H 229.604 6.54562 -0.434174 0
M  V30 2368 H 229.521 7.29166 -1.99633 0
M  V30 2369 H 230.789 7.7433 -0.896259 0
M  V30 2370 N 235.018 0.912232 1.28515 0
M  V30 2371 C 235.981 0.404223 2.25607 0
M  V30 2372 C 236.981 -0.468602 1.53821 0
M  V30 2373 O 238.171 -0.271873 1.72065 0
M  V30 2374 C 235.303 -0.420653 3.38295 0
M  V30 2375 H 236.496 1.26188 2.7206 0
M  V30 2376 H 234.049 0.691495 1.40171 0
M  V30 2377 H 234.784 -1.29777 2.97201 0
M  V30 2378 H 234.569 0.204935 3.91564 0
M  V30 2379 H 236.059 -0.766971 4.10496 0
M  V30 2380 N 236.496 -1.42363 0.676048 0
M  V30 2381 C 237.459 -2.29199 0.00766941 0
M  V30 2382 C 238.459 -1.43389 -0.727745 0
M  V30 2383 O 239.649 -1.64764 -0.56556 0
M  V30 2384 C 236.781 -3.2591 -0.999785 0
M  V30 2385 H 237.974 -2.89794 0.771988 0
M  V30 2386 H 235.527 -1.50024 0.438468 0
M  V30 2387 H 236.262 -2.70256 -1.79255 0
M  V30 2388 H 236.047 -3.89202 -0.475829 0
M  V30 2389 H 237.537 -3.91028 -1.46583 0
M  V30 2390 N 237.974 -0.419461 -1.51915 0
M  V30 2391 C 239.222 0.152637 -2.01523 0
M  V30 2392 C 239.543 1.44762 -1.30649 0
M  V30 2393 O 238.813 1.90997 -0.435535 0
M  V30 2394 H 237.393 0.0593966 -0.744635 0
M  V30 2395 H 240.055 -0.558073 -1.86739 0
M  V30 2396 H 239.151 0.341369 -3.10227 0
M  V30 2397 N 239.452 1.56882 -0.150215 0
M  V30 2398 C 240.382 2.19935 0.784284 0
M  V30 2399 C 241.363 1.14854 1.25469 0
M  V30 2400 O 242.548 1.43209 1.31168 0
M  V30 2401 C 239.678 2.82349 2.02229 0
M  V30 2402 C 238.632 3.93285 1.68853 0
M  V30 2403 C 237.958 4.42649 2.99944 0
M  V30 2404 C 239.258 5.13904 0.932714 0
M  V30 2405 H 240.952 2.9828 0.258781 0
M  V30 2406 H 238.498 1.43473 0.123029 0
M  V30 2407 H 240.451 3.25126 2.68088 0
M  V30 2408 H 239.175 2.0134 2.57157 0
M  V30 2409 H 237.834 3.5113 1.05371 0
M  V30 2410 H 237.482 3.58458 3.52869 0
M  V30 2411 H 237.182 5.17476 2.78374 0
M  V30 2412 H 238.706 4.88099 3.66868 0
M  V30 2413 H 240.12 5.53506 1.49345 0
M  V30 2414 H 238.517 5.94515 0.81684 0
M  V30 2415 H 239.587 4.84842 -0.0749568 0
M  V30 2416 N 240.93 -0.123565 1.57115 0
M  V30 2417 C 241.893 -1.13583 1.99076 0
M  V30 2418 C 242.893 -1.34564 0.880296 0
M  V30 2419 O 244.083 -1.31158 1.14644 0
M  V30 2420 C 241.215 -2.49128 2.32698 0
M  V30 2421 H 242.408 -0.775287 2.89706 0
M  V30 2422 H 239.961 -0.36771 1.51913 0
M  V30 2423 H 240.696 -2.90111 1.44934 0
M  V30 2424 H 240.481 -2.35255 3.13684 0
M  V30 2425 H 241.971 -3.2199 2.65918 0
M  V30 2426 N 242.408 -1.52605 -0.393616 0
M  V30 2427 C 243.636 -1.71294 -1.16043 0
M  V30 2428 C 244.051 -0.429259 -1.83855 0
M  V30 2429 O 243.408 0.595921 -1.72496 0
M  V30 2430 C 243.459 -2.8593 -2.21193 0
M  V30 2431 O 243.18 -4.09329 -1.56146 0
M  V30 2432 C 244.681 -3.16259 -3.10636 0
M  V30 2433 H 241.901 -0.573641 -0.348104 0
M  V30 2434 H 244.445 -1.99234 -0.461092 0
M  V30 2435 H 242.6 -2.60465 -2.86769 0
M  V30 2436 H 243.014 -4.73323 -2.25978 0
M  V30 2437 H 244.488 -3.99946 -3.80456 0
M  V30 2438 H 244.965 -2.3045 -3.73884 0
M  V30 2439 H 245.571 -3.43547 -2.50711 0
M  V30 2440 N 243.887 0.651787 -1.4349 0
M  V30 2441 C 245.135 1.40888 -1.44897 0
M  V30 2442 C 245.456 1.94856 -0.0749086 0
M  V30 2443 O 244.726 1.74518 0.889956 0
M  V30 2444 H 243.306 0.522887 -0.533478 0
M  V30 2445 H 245.968 0.768609 -1.79104 0
M  V30 2446 H 245.064 2.25052 -2.16236 0
M  V30 2447 N 245.365 1.30045 0.890287 0
M  V30 2448 C 246.313 1.15873 2.01683 0
M  V30 2449 C 247.307 0.0719403 1.69247 0
M  V30 2450 O 248.513 0.232414 1.78493 0
M  V30 2451 H 244.888 0.358203 0.661207 0
M  V30 2452 H 246.859 2.11229 2.10772 0
M  V30 2453 C 245.608 0.861842 3.36849 0
M  V30 2454 H 244.931 1.69016 3.62317 0
M  V30 2455 H 246.371 0.802762 4.16331 0
M  V30 2456 C 244.83 -0.435132 3.34078 0
M  V30 2457 O 245.36 -1.4583 3.74295 0
M  V30 2458 N 243.566 -0.444377 2.87182 0
M  V30 2459 H 243.113 0.388723 2.5465 0
M  V30 2460 H 243.071 -1.31213 2.85711 0
M  V30 2461 N 246.843 -1.10192 1.12674 0
M  V30 2462 C 248.089 -1.82475 0.884915 0
M  V30 2463 C 248.422 -1.85093 -0.58773 0
M  V30 2464 O 247.697 -1.3134 -1.43457 0
M  V30 2465 C 247.98 -3.29018 1.46353 0
M  V30 2466 C 247.833 -3.34718 3.00473 0
M  V30 2467 C 249.152 -4.25473 1.12519 0
M  V30 2468 H 246.271 -0.662492 0.322915 0
M  V30 2469 H 248.913 -1.2913 1.39375 0
M  V30 2470 H 247.063 -3.74576 1.03077 0
M  V30 2471 H 248.735 -2.97622 3.52447 0
M  V30 2472 H 246.978 -2.74541 3.35872 0
M  V30 2473 H 247.649 -4.37918 3.36053 0
M  V30 2474 H 250.125 -3.88161 1.499 0
M  V30 2475 H 249.001 -5.26365 1.55663 0
M  V30 2476 H 249.262 -4.42084 0.0377407 0
M  V30 2477 N 248.321 -0.919034 -1.28029 0
M  V30 2478 C 249.546 -0.570357 -1.99403 0
M  V30 2479 C 249.971 0.842486 -1.68178 0
M  V30 2480 O 249.329 1.56391 -0.917141 0
M  V30 2481 C 249.377 -0.792541 -3.51783 0
M  V30 2482 O 248.481 0.145988 -4.12142 0
M  V30 2483 H 247.822 -0.220555 -0.6263 0
M  V30 2484 H 250.352 -1.23592 -1.63053 0
M  V30 2485 H 250.362 -0.704708 -4.01868 0
M  V30 2486 H 249.037 -1.82247 -3.73844 0
M  V30 2487 H 247.614 0.00897528 -3.72899 0
M  V30 2488 N 249.799 1.42003 -0.683588 0
M  V30 2489 C 251.027 2.05746 -0.218182 0
M  V30 2490 C 251.442 1.51396 1.12804 0
M  V30 2491 O 250.799 0.657303 1.70252 0
M  V30 2492 C 250.85 3.61171 -0.154131 0
M  V30 2493 O 250.571 4.13508 -1.44716 0
M  V30 2494 C 252.072 4.42042 0.333713 0
M  V30 2495 H 249.292 0.662888 -0.10402 0
M  V30 2496 H 251.836 1.81987 -0.9328 0
M  V30 2497 H 249.991 3.84012 0.511231 0
M  V30 2498 H 250.405 5.07453 -1.32632 0
M  V30 2499 H 251.879 5.51028 0.327423 0
M  V30 2500 H 252.356 4.17269 1.37053 0
M  V30 2501 H 252.962 4.24239 -0.300222 0
M  V30 2502 N 251.277 0.427512 1.51691 0
M  V30 2503 C 252.24 -0.377132 2.26076 0
M  V30 2504 C 253.24 -0.958089 1.29141 0
M  V30 2505 O 254.43 -0.83408 1.52934 0
M  V30 2506 C 251.562 -1.53262 3.04506 0
M  V30 2507 H 252.755 0.27464 2.9864 0
M  V30 2508 H 250.308 0.180445 1.55255 0
M  V30 2509 H 251.043 -2.22072 2.36335 0
M  V30 2510 H 250.828 -1.12232 3.75694 0
M  V30 2511 H 252.318 -2.10135 3.60878 0
M  V30 2512 N 252.755 -1.56801 0.158532 0
M  V30 2513 C 253.665 -2.20916 -0.789518 0
M  V30 2514 C 254.681 -1.1969 -1.26294 0
M  V30 2515 O 255.857 -1.52308 -1.31773 0
M  V30 2516 C 252.922 -2.82727 -2.00665 0
M  V30 2517 C 251.983 -3.99114 -1.58134 0
M  V30 2518 C 251.216 -4.57968 -2.74045 0
M  V30 2519 O 251.439 -4.15704 -3.90572 0
M  V30 2520 O 250.373 -5.48047 -2.48855 0
M  V30 2521 H 254.199 -3.02464 -0.273681 0
M  V30 2522 H 251.784 -1.4924 -0.0690548 0
M  V30 2523 H 253.666 -3.21968 -2.71872 0
M  V30 2524 H 252.341 -2.04184 -2.51179 0
M  V30 2525 H 251.248 -3.64567 -0.839155 0
M  V30 2526 H 252.581 -4.79212 -1.12325 0
M  V30 2527 N 254.233 0.115231 -1.57178 0
M  V30 2528 C 255.163 1.1423 -2.03651 0
M  V30 2529 C 256.144 1.42967 -0.921655 0
M  V30 2530 O 257.329 1.53343 -1.19162 0
M  V30 2531 C 254.459 2.4675 -2.44401 0
M  V30 2532 C 253.413 2.32467 -3.59365 0
M  V30 2533 C 252.739 3.69984 -3.86026 0
M  V30 2534 C 254.039 1.78203 -4.90959 0
M  V30 2535 H 255.733 0.755749 -2.89705 0
M  V30 2536 H 253.279 0.362093 -1.39373 0
M  V30 2537 H 255.232 3.18854 -2.75517 0
M  V30 2538 H 253.956 2.87302 -1.55322 0
M  V30 2539 H 252.615 1.62811 -3.28463 0
M  V30 2540 H 252.263 4.08028 -2.94147 0
M  V30 2541 H 251.963 3.61279 -4.63412 0
M  V30 2542 H 253.487 4.43587 -4.19599 0
M  V30 2543 H 254.901 2.40128 -5.20587 0
M  V30 2544 H 253.298 1.8031 -5.72371 0
M  V30 2545 H 254.368 0.739876 -4.79222 0
M  V30 2546 N 255.711 1.52812 0.385517 0
M  V30 2547 C 256.643 1.74096 1.49074 0
M  V30 2548 C 257.656 0.621462 1.50472 0
M  V30 2549 O 258.845 0.897245 1.54311 0
M  V30 2550 C 255.945 1.78774 2.87911 0
M  V30 2551 C 255.118 3.08134 3.10439 0
M  V30 2552 C 254.177 3.04313 4.29278 0
M  V30 2553 O 253.203 3.78168 4.25415 0
M  V30 2554 N 254.405 2.23741 5.35649 0
M  V30 2555 H 257.17 2.69455 1.31202 0
M  V30 2556 H 254.731 1.51343 0.575065 0
M  V30 2557 H 256.723 1.73721 3.65518 0
M  V30 2558 H 255.293 0.907869 2.99126 0
M  V30 2559 H 254.513 3.26649 2.20667 0
M  V30 2560 H 255.801 3.93662 3.22347 0
M  V30 2561 H 255.199 1.63211 5.41645 0
M  V30 2562 H 253.756 2.24524 6.11909 0
M  V30 2563 N 257.189 -0.644168 1.43834 0
M  V30 2564 C 258.466 -1.40188 1.36406 0
M  V30 2565 C 258.846 -2.11094 0.0163124 0
M  V30 2566 O 258.194 -2.05426 -1.00062 0
M  V30 2567 C 258.404 -2.3791 2.55343 0
M  V30 2568 C 259.752 -3.01637 2.98832 0
M  V30 2569 O 260.776 -2.48237 2.55455 0
M  V30 2570 O 259.635 -3.98477 3.74003 0
M  V30 2571 H 256.729 -0.626773 0.539523 0
M  V30 2572 H 259.275 -0.670317 1.559 0
M  V30 2573 H 258.047 -1.84525 3.4506 0
M  V30 2574 H 257.67 -3.18503 2.37995 0
M  V30 2575 N 258.668 -1.30515 -0.883378 0
M  V30 2576 C 259.631 -1.1701 -1.97082 0
M  V30 2577 C 260.631 -0.10089 -1.60483 0
M  V30 2578 O 261.821 -0.349127 -1.70666 0
M  V30 2579 C 258.953 -0.793045 -3.31547 0
M  V30 2580 H 260.146 -2.13622 -2.10489 0
M  V30 2581 H 257.699 -1.13935 -1.06998 0
M  V30 2582 H 258.434 0.172499 -3.23841 0
M  V30 2583 H 258.219 -1.56576 -3.5948 0
M  V30 2584 H 259.709 -0.722073 -4.1131 0
M  V30 2585 N 260.146 1.09593 -1.13257 0
M  V30 2586 C 261.374 1.855 -0.916378 0
M  V30 2587 C 261.789 1.81069 0.534738 0
M  V30 2588 O 261.146 1.20562 1.37007 0
M  V30 2589 C 261.197 3.33546 -1.39388 0
M  V30 2590 O 260.918 3.37927 -2.78813 0
M  V30 2591 C 262.419 4.26299 -1.21588 0
M  V30 2592 H 259.639 0.585991 -0.326887 0
M  V30 2593 H 262.183 1.38488 -1.5047 0
M  V30 2594 H 260.338 3.77992 -0.848597 0
M  V30 2595 H 260.752 4.30254 -2.9997 0
M  V30 2596 H 262.226 5.28341 -1.59876 0
M  V30 2597 H 262.703 4.38918 -0.157376 0
M  V30 2598 H 263.309 3.87668 -1.7491 0
M  V30 2599 N 261.624 0.925811 1.2754 0
M  V30 2600 C 263.035 0.610102 1.7645 0
M  V30 2601 C 263.386 -0.874723 1.75622 0
M  V30 2602 O 262.511 -1.68444 1.35851 0
M  V30 2603 C 263.106 1.10073 3.20421 0
M  V30 2604 C 261.665 0.835723 3.67005 0
M  V30 2605 C 260.812 1.26054 2.46993 0
M  V30 2606 H 263.763 1.10579 1.13833 0
M  V30 2607 H 263.784 0.447557 3.77859 0
M  V30 2608 H 263.296 2.18143 3.20991 0
M  V30 2609 H 261.397 -0.231249 3.71882 0
M  V30 2610 H 261.51 1.45193 4.56569 0
M  V30 2611 H 259.874 0.679111 2.45479 0
M  V30 2612 H 260.657 2.34984 2.50275 0
M  V30 2613 N 263.102 -1.41638 0.69111 0
M  V30 2614 C 264.065 -2.29178 0.0319786 0
M  V30 2615 C 265.065 -1.44153 -0.712496 0
M  V30 2616 O 266.255 -1.65354 -0.548053 0
M  V30 2617 C 263.387 -3.26952 -0.965161 0
M  V30 2618 H 264.58 -2.88959 0.802681 0
M  V30 2619 H 262.133 -1.4955 0.454356 0
M  V30 2620 H 262.868 -2.72142 -1.76378 0
M  V30 2621 H 262.653 -3.89685 -0.434522 0
M  V30 2622 H 264.143 -3.92561 -1.42428 0
M  V30 2623 N 264.58 -0.43555 -1.51462 0
M  V30 2624 C 265.543 0.365137 -2.26273 0
M  V30 2625 C 266.543 0.951227 -1.29647 0
M  V30 2626 O 267.733 0.825958 -1.53374 0
M  V30 2627 C 264.865 1.51645 -3.05314 0
M  V30 2628 H 266.058 -0.290474 -2.9849 0
M  V30 2629 H 263.611 -0.188676 -1.55157 0
M  V30 2630 H 264.346 2.20816 -2.3751 0
M  V30 2631 H 264.131 1.10238 -3.76284 0
M  V30 2632 H 265.621 2.08218 -3.61987 0
M  V30 2633 N 266.058 1.56714 -0.166846 0
M  V30 2634 C 266.988 2.20754 0.760913 0
M  V30 2635 C 267.969 1.16178 1.24244 0
M  V30 2636 O 269.154 1.44592 1.29641 0
M  V30 2637 C 266.284 2.84478 1.99223 0
M  V30 2638 C 265.238 3.95053 1.64672 0
M  V30 2639 C 264.564 4.45805 2.95232 0
M  V30 2640 C 265.864 5.14865 0.878155 0
M  V30 2641 H 267.558 2.98537 0.22713 0
M  V30 2642 H 265.104 1.43596 0.107805 0
M  V30 2643 H 267.057 3.27951 2.64624 0
M  V30 2644 H 265.781 2.04056 2.55007 0
M  V30 2645 H 264.44 3.52228 1.01641 0
M  V30 2646 H 264.088 3.62181 3.49047 0
M  V30 2647 H 263.788 5.204 2.7287 0
M  V30 2648 H 265.312 4.91962 3.6167 0
M  V30 2649 H 266.726 5.55059 1.43466 0
M  V30 2650 H 265.123 5.95348 0.753738 0
M  V30 2651 H 266.193 4.84735 -0.126377 0
M  V30 2652 N 267.536 -0.106894 1.57237 0
M  V30 2653 C 268.782 -0.81373 1.85759 0
M  V30 2654 C 269.115 -1.78952 0.754315 0
M  V30 2655 O 268.39 -1.93029 -0.23879 0
M  V30 2656 C 268.673 -1.55293 3.24894 0
M  V30 2657 C 268.526 -0.595929 4.45835 0
M  V30 2658 C 269.845 -2.5063 3.61763 0
M  V30 2659 H 266.964 -0.294369 0.67566 0
M  V30 2660 H 269.606 -0.0776472 1.89841 0
M  V30 2661 H 267.756 -2.1804 3.21544 0
M  V30 2662 H 269.428 0.0236262 4.61294 0
M  V30 2663 H 267.671 0.0916191 4.33703 0
M  V30 2664 H 268.342 -1.15004 5.39887 0
M  V30 2665 H 270.818 -1.97982 3.65981 0
M  V30 2666 H 269.694 -2.99376 4.60071 0
M  V30 2667 H 269.955 -3.3385 2.89821 0
M  V30 2668 N 269.014 -1.53014 -0.377408 0
M  V30 2669 C 269.977 -1.77957 -1.44444 0
M  V30 2670 C 270.977 -0.649763 -1.47087 0
M  V30 2671 O 272.167 -0.917897 -1.48055 0
M  V30 2672 C 269.299 -1.89089 -2.83651 0
M  V30 2673 H 270.492 -2.73243 -1.23606 0
M  V30 2674 H 268.045 -1.43912 -0.609844 0
M  V30 2675 H 268.78 -0.958293 -3.09818 0
M  V30 2676 H 268.565 -2.71254 -2.83132 0
M  V30 2677 H 270.055 -2.1002 -3.60945 0
M  V30 2678 N 270.492 0.636531 -1.44174 0
M  V30 2679 C 271.442 1.74233 -1.47061 0
M  V30 2680 C 272.426 1.57331 -0.337034 0
M  V30 2681 O 273.618 1.67159 -0.581973 0
M  V30 2682 C 270.747 3.12897 -1.41246 0
M  V30 2683 C 269.833 3.35288 -2.59698 0
M  V30 2684 N 270.224 3.2807 -3.84972 0
M  V30 2685 C 268.522 3.66065 -2.54778 0
M  V30 2686 C 269.223 3.51001 -4.63867 0
M  V30 2687 N 268.199 3.73616 -3.94857 0
M  V30 2688 H 272.001 1.67103 -2.41773 0
M  V30 2689 H 269.515 0.838806 -1.3906 0
M  V30 2690 H 271.512 3.92189 -1.41398 0
M  V30 2691 H 270.172 3.21197 -0.47569 0
M  V30 2692 H 271.183 3.07109 -4.17019 0
M  V30 2693 H 267.86 3.81379 -1.6987 0
M  V30 2694 H 269.25 3.51059 -5.72894 0
M  V30 2695 N 271.97 1.30982 0.876444 0
M  V30 2696 C 273.216 1.20474 1.63138 0
M  V30 2697 C 273.549 -0.238096 1.92735 0
M  V30 2698 O 272.824 -1.1692 1.55435 0
M  V30 2699 C 273.107 2.04244 2.96574 0
M  V30 2700 C 272.96 3.56793 2.73896 0
M  V30 2701 C 274.279 1.88684 3.97601 0
M  V30 2702 H 271.398 0.439001 0.591985 0
M  V30 2703 H 274.04 1.60704 1.01361 0
M  V30 2704 H 272.19 1.70063 3.493 0
M  V30 2705 H 273.862 4.01077 2.27892 0
M  V30 2706 H 272.105 3.80548 2.08245 0
M  V30 2707 H 272.776 4.10706 3.68815 0
M  V30 2708 H 275.252 2.18584 3.54062 0
M  V30 2709 H 274.128 2.4961 4.88862 0
M  V30 2710 H 274.389 0.848343 4.33884 0
M  V30 2711 N 273.449 -1.08991 1.13837 0
M  V30 2712 C 274.677 -1.85011 0.926202 0
M  V30 2713 C 275.092 -1.8135 -0.525127 0
M  V30 2714 O 274.449 -1.21287 -1.36366 0
M  V30 2715 C 274.5 -3.32802 1.41155 0
M  V30 2716 O 274.221 -3.36444 2.80601 0
M  V30 2717 C 275.722 -4.25649 1.23847 0
M  V30 2718 H 272.942 -0.584249 0.32999 0
M  V30 2719 H 275.486 -1.37688 1.51202 0
M  V30 2720 H 273.641 -3.77536 0.868631 0
M  V30 2721 H 274.055 -4.28657 3.02248 0
M  V30 2722 H 275.529 -5.27485 1.62675 0
M  V30 2723 H 276.006 -4.38828 0.18065 0
M  V30 2724 H 276.612 -3.86735 1.76964 0
M  V30 2725 N 274.927 -0.932562 -1.27047 0
M  V30 2726 C 276.152 -0.591474 -1.98787 0
M  V30 2727 C 276.577 0.824601 -1.69062 0
M  V30 2728 O 275.935 1.5541 -0.933677 0
M  V30 2729 C 275.983 -0.829808 -3.50922 0
M  V30 2730 O 275.087 0.102266 -4.12273 0
M  V30 2731 H 274.428 -0.227185 -0.623926 0
M  V30 2732 H 276.958 -1.25314 -1.61733 0
M  V30 2733 H 276.968 -0.747292 -4.01098 0
M  V30 2734 H 275.643 -1.86201 -3.7189 0
M  V30 2735 H 274.22 -0.0305761 -3.72887 0
M  V30 2736 N 276.405 1.4127 -0.698611 0
M  V30 2737 C 277.821 1.55241 -0.370462 0
M  V30 2738 C 278.021 1.67351 1.12231 0
M  V30 2739 O 277.077 1.65363 1.90818 0
M  V30 2740 C 278.39 2.78997 -1.12165 0
M  V30 2741 C 279.938 2.92797 -1.1063 0
M  V30 2742 C 280.413 4.19445 -1.8393 0
M  V30 2743 N 281.904 4.26409 -1.80914 0
M  V30 2744 C 282.639 5.23271 -2.34467 0
M  V30 2745 N 282.135 6.26145 -2.96504 0
M  V30 2746 N 283.928 5.15232 -2.24706 0
M  V30 2747 H 276.079 1.31654 -1.66676 0
M  V30 2748 H 278.342 0.635393 -0.703548 0
M  V30 2749 H 278.048 2.76268 -2.17644 0
M  V30 2750 H 277.922 3.70606 -0.702209 0
M  V30 2751 H 280.309 2.95039 -0.0597713 0
M  V30 2752 H 280.39 2.02353 -1.56483 0
M  V30 2753 H 280.034 4.17964 -2.88563 0
M  V30 2754 H 279.964 5.08866 -1.35509 0
M  V30 2755 H 282.455 3.527 -1.35687 0
M  V30 2756 H 282.768 6.96451 -3.34927 0
M  V30 2757 H 281.113 6.26638 -3.00583 0
M  V30 2758 H 284.304 4.33789 -1.7591 0
M  V30 2759 H 284.477 5.90552 -2.66745 0
M  V30 2760 N 277.883 0.443576 1.51229 0
M  V30 2761 C 278.83 -0.364716 2.279 0
M  V30 2762 C 279.8 -1.0114 1.31757 0
M  V30 2763 O 280.985 -1.02912 1.60667 0
M  V30 2764 C 278.125 -1.45644 3.12861 0
M  V30 2765 C 277.238 -0.827269 4.24005 0
M  V30 2766 C 276.373 -1.89456 4.96266 0
M  V30 2767 C 275.412 -1.24416 5.99322 0
M  V30 2768 N 274.549 -2.25309 6.64966 0
M  V30 2769 H 279.389 0.295464 2.96532 0
M  V30 2770 H 276.926 0.157554 1.46254 0
M  V30 2771 H 278.884 -2.10076 3.6045 0
M  V30 2772 H 277.514 -2.08616 2.46331 0
M  V30 2773 H 276.566 -0.0710839 3.80334 0
M  V30 2774 H 277.878 -0.312481 4.9782 0
M  V30 2775 H 277.032 -2.61535 5.47434 0
M  V30 2776 H 275.771 -2.4431 4.22095 0
M  V30 2777 H 274.776 -0.508868 5.4744 0
M  V30 2778 H 276.001 -0.702882 6.75453 0
M  V30 2779 H 273.947 -2.79231 5.93604 0
M  V30 2780 H 273.864 -1.78739 7.34567 0
M  V30 2781 H 275.132 -2.96853 7.20763 0
M  V30 2782 N 279.361 -1.56624 0.175154 0
M  V30 2783 C 280.601 -1.98894 -0.471221 0
M  V30 2784 C 280.965 -1.05889 -1.60161 0
M  V30 2785 O 282.166 -1.37315 -2.3108 0
M  V30 2786 C 280.437 -3.44865 -0.938241 0
M  V30 2787 S 281.996 -4.09164 -1.58526 0
M  V30 2788 H 278.814 -0.694686 -0.151434 0
M  V30 2789 H 281.416 -1.93577 0.27352 0
M  V30 2790 H 280.12 -4.10265 -0.10518 0
M  V30 2791 H 279.651 -3.53956 -1.71693 0
M  V30 2792 H 281.666 -4.04528 -2.87352 0
M  V30 2793 N 280.839 0.0985539 -1.57292 0
M  V30 2794 C 282.069 0.815135 -1.8984 0
M  V30 2795 C 282.477 1.7297 -0.766679 0
M  V30 2796 O 281.82 1.81698 0.270483 0
M  V30 2797 C 281.882 1.6842 -3.17608 0
M  V30 2798 C 281.546 0.94182 -4.4719 0
M  V30 2799 C 282.543 0.273212 -5.19182 0
M  V30 2800 C 280.228 0.916927 -4.9386 0
M  V30 2801 C 282.222 -0.410361 -6.36078 0
M  V30 2802 C 279.909 0.229567 -6.10669 0
M  V30 2803 C 280.907 -0.432902 -6.81627 0
M  V30 2804 O 280.595 -1.10925 -7.9621 0
M  V30 2805 H 280.327 0.238501 -0.632529 0
M  V30 2806 H 282.881 0.0812659 -2.05239 0
M  V30 2807 H 281.111 2.46022 -2.98345 0
M  V30 2808 H 282.8 2.27704 -3.36015 0
M  V30 2809 H 283.566 0.283927 -4.84168 0
M  V30 2810 H 279.445 1.42201 -4.3852 0
M  V30 2811 H 282.989 -0.928013 -6.914 0
M  V30 2812 H 278.886 0.216686 -6.45136 0
M  V30 2813 H 279.654 -1.01579 -8.12172 0
M  V30 2814 N 282.317 1.53212 0.369288 0
M  V30 2815 C 283.565 1.68881 1.11012 0
M  V30 2816 C 283.886 0.441285 1.89941 0
M  V30 2817 O 283.156 -0.544623 1.88177 0
M  V30 2818 H 281.736 0.622569 0.412816 0
M  V30 2819 H 284.398 1.90391 0.416802 0
M  V30 2820 H 283.494 2.54822 1.80201 0
M  V30 2821 N 283.795 -0.628877 1.44509 0
M  V30 2822 C 285.206 -1.21054 1.42137 0
M  V30 2823 C 285.557 -1.95715 0.137881 0
M  V30 2824 O 284.682 -2.02554 -0.761645 0
M  V30 2825 C 285.277 -2.20189 2.57493 0
M  V30 2826 C 283.836 -2.73777 2.58308 0
M  V30 2827 C 282.983 -1.48813 2.33987 0
M  V30 2828 H 285.934 -0.41942 1.53057 0
M  V30 2829 H 285.955 -3.02833 2.30375 0
M  V30 2830 H 285.467 -1.6582 3.50892 0
M  V30 2831 H 283.568 -3.32142 1.68856 0
M  V30 2832 H 283.681 -3.19662 3.56865 0
M  V30 2833 H 282.045 -1.77024 1.83124 0
M  V30 2834 H 282.828 -0.963442 3.29504 0
M  V30 2835 N 285.273 -1.31445 -0.869486 0
M  V30 2836 C 286.498 -1.24256 -1.66058 0
M  V30 2837 C 286.923 0.188928 -1.87149 0
M  V30 2838 O 286.281 1.13522 -1.4136 0
M  V30 2839 C 286.329 -1.9924 -3.00559 0
M  V30 2840 O 285.433 -1.33007 -3.90362 0
M  V30 2841 H 284.774 -0.428973 -0.506831 0
M  V30 2842 H 287.304 -1.73521 -1.08404 0
M  V30 2843 H 287.314 -2.08854 -3.50491 0
M  V30 2844 H 285.989 -3.03342 -2.84528 0
M  V30 2845 H 284.566 -1.31848 -3.48813 0
M  V30 2846 N 286.751 1.08385 -1.14413 0
M  V30 2847 C 287.714 2.13486 -0.834048 0
M  V30 2848 C 288.714 1.59988 0.161418 0
M  V30 2849 O 289.904 1.74071 -0.0669575 0
M  V30 2850 C 287.036 3.4003 -0.243354 0
M  V30 2851 H 288.229 2.42425 -1.7655 0
M  V30 2852 H 285.782 1.24101 -0.950189 0
M  V30 2853 H 286.517 3.16726 0.696807 0
M  V30 2854 H 286.302 3.80157 -0.960367 0
M  V30 2855 H 287.792 4.17577 -0.0436242 0
M  V30 2856 N 288.23 0.939286 1.26551 0
M  V30 2857 C 289.458 0.602536 1.97932 0
M  V30 2858 C 289.873 -0.82206 1.69964 0
M  V30 2859 O 289.23 -1.54789 0.966784 0
M  V30 2860 C 289.281 0.832946 3.51773 0
M  V30 2861 O 289.002 2.20151 3.78768 0
M  V30 2862 C 290.503 0.506483 4.40397 0
M  V30 2863 H 287.723 0.227248 0.631347 0
M  V30 2864 H 290.267 1.25948 1.61113 0
M  V30 2865 H 288.422 0.222644 3.8676 0
M  V30 2866 H 288.836 2.26013 4.73306 0
M  V30 2867 H 290.31 0.718333 5.47306 0
M  V30 2868 H 290.787 -0.558451 4.35635 0
M  V30 2869 H 291.393 1.09543 4.10951 0
M  V30 2870 N 289.708 -1.40897 0.706093 0
M  V30 2871 C 290.933 -2.05895 0.249435 0
M  V30 2872 C 291.358 -1.52823 -1.09666 0
M  V30 2873 O 290.716 -0.659589 -1.68876 0
M  V30 2874 C 290.764 -3.59872 0.22904 0
M  V30 2875 O 289.868 -4.04708 -0.792784 0
M  V30 2876 H 289.209 -0.653206 0.119241 0
M  V30 2877 H 291.739 -1.80471 0.96391 0
M  V30 2878 H 291.749 -4.07951 0.0634791 0
M  V30 2879 H 290.424 -3.97866 1.21141 0
M  V30 2880 H 289.001 -3.68111 -0.59572 0
M  V30 2881 N 291.186 -0.45159 -1.50991 0
M  V30 2882 C 292.096 0.358431 -2.31846 0
M  V30 2883 C 293.112 1.01438 -1.41373 0
M  V30 2884 O 294.288 1.00663 -1.74439 0
M  V30 2885 C 291.353 1.43704 -3.15515 0
M  V30 2886 C 290.414 0.799742 -4.21785 0
M  V30 2887 C 289.647 1.82696 -5.01456 0
M  V30 2888 O 289.87 3.05105 -4.81941 0
M  V30 2889 O 288.804 1.40958 -5.85162 0
M  V30 2890 H 292.63 -0.302032 -3.02194 0
M  V30 2891 H 290.215 -0.213825 -1.47862 0
M  V30 2892 H 292.097 2.06227 -3.67489 0
M  V30 2893 H 290.772 2.08133 -2.47916 0
M  V30 2894 H 289.679 0.136084 -3.73852 0
M  V30 2895 H 291.012 0.198718 -4.91799 0
M  V30 2896 N 292.664 1.56529 -0.183458 0
M  V30 2897 C 293.611 2.18546 0.742055 0
M  V30 2898 C 294.581 1.12912 1.2182 0
M  V30 2899 O 295.766 1.41115 1.28418 0
M  V30 2900 C 292.906 2.83977 1.96089 0
M  V30 2901 C 292.019 4.04105 1.52719 0
M  V30 2902 C 291.154 4.57427 2.70063 0
M  V30 2903 C 290.193 5.69938 2.23243 0
M  V30 2904 N 289.33 6.17717 3.33722 0
M  V30 2905 H 294.17 2.97284 0.206432 0
M  V30 2906 H 291.707 1.46823 0.0901571 0
M  V30 2907 H 293.665 3.20077 2.67594 0
M  V30 2908 H 292.295 2.07822 2.47002 0
M  V30 2909 H 291.347 3.73745 0.708436 0
M  V30 2910 H 292.659 4.85513 1.1436 0
M  V30 2911 H 291.813 4.95772 3.49708 0
M  V30 2912 H 290.552 3.75101 3.11689 0
M  V30 2913 H 289.557 5.31133 1.42048 0
M  V30 2914 H 290.782 6.54073 1.82661 0
M  V30 2915 H 288.728 5.38317 3.74902 0
M  V30 2916 H 288.645 6.94146 2.99495 0
M  V30 2917 H 289.913 6.60713 4.13616 0
M  V30 2918 N 294.142 -0.090211 1.57342 0
M  V30 2919 C 295.382 -0.798365 1.88163 0
M  V30 2920 C 295.746 -1.75662 0.775046 0
M  V30 2921 O 296.947 -2.50849 0.965816 0
M  V30 2922 C 295.218 -1.50376 3.24225 0
M  V30 2923 S 296.777 -2.24952 3.76752 0
M  V30 2924 H 293.595 -0.265883 0.659414 0
M  V30 2925 H 296.197 -0.055264 1.95422 0
M  V30 2926 H 294.901 -0.792286 4.0268 0
M  V30 2927 H 294.432 -2.28666 3.20118 0
M  V30 2928 H 296.447 -3.51173 3.5056 0
M  V30 2929 N 295.62 -1.53406 -0.361157 0
M  V30 2930 C 297.031 -1.61442 -0.937728 0
M  V30 2931 C 297.382 -0.48461 -1.90121 0
M  V30 2932 O 296.507 0.388312 -2.12888 0
M  V30 2933 C 297.102 -2.92624 -1.70753 0
M  V30 2934 C 295.661 -3.02981 -2.23337 0
M  V30 2935 C 294.808 -2.5677 -1.04712 0
M  V30 2936 H 297.759 -1.58083 -0.139816 0
M  V30 2937 H 297.78 -2.80675 -2.56908 0
M  V30 2938 H 297.292 -3.74834 -1.00604 0
M  V30 2939 H 295.393 -2.25368 -2.96715 0
M  V30 2940 H 295.506 -4.0814 -2.50916 0
M  V30 2941 H 293.87 -2.11752 -1.41539 0
M  V30 2942 H 294.653 -3.41402 -0.360539 0
M  V30 2943 N 297.098 0.621204 -1.44841 0
M  V30 2944 C 298.346 1.37783 -1.47852 0
M  V30 2945 C 298.667 1.94653 -0.116224 0
M  V30 2946 O 297.937 1.76367 0.852737 0
M  V30 2947 H 296.517 0.511453 -0.544449 0
M  V30 2948 H 299.179 0.730446 -1.80694 0
M  V30 2949 H 298.275 2.20414 -2.20961 0
M  V30 2950 N 298.576 1.31904 0.862503 0
M  V30 2951 C 299.524 1.20125 1.9918 0
M  V30 2952 C 300.518 0.107824 1.69056 0
M  V30 2953 O 301.724 0.270223 1.7796 0
M  V30 2954 H 298.099 0.372148 0.65346 0
M  V30 2955 H 300.07 2.15652 2.06244 0
M  V30 2956 C 298.819 0.933099 3.34946 0
M  V30 2957 H 298.142 1.76664 3.5865 0
M  V30 2958 H 299.582 0.890892 4.14535 0
M  V30 2959 C 298.041 -0.364172 3.34926 0
M  V30 2960 O 298.571 -1.37858 3.77304 0
M  V30 2961 N 296.777 -0.383362 2.8806 0
M  V30 2962 H 296.324 0.442651 2.53768 0
M  V30 2963 H 296.282 -1.25123 2.8843 0
M  V30 2964 N 300.054 -1.07777 1.14986 0
M  V30 2965 C 301.017 -2.13041 0.845358 0
M  V30 2966 C 302.017 -1.60071 -0.152931 0
M  V30 2967 O 303.207 -1.74033 0.0761879 0
M  V30 2968 C 300.339 -3.39896 0.261383 0
M  V30 2969 H 301.532 -2.41485 1.77834 0
M  V30 2970 H 299.085 -1.23595 0.956757 0
M  V30 2971 H 299.82 -3.17091 -0.68 0
M  V30 2972 H 299.605 -3.79642 0.980514 0
M  V30 2973 H 301.095 -4.17548 0.0657687 0
M  V30 2974 N 301.532 -0.945985 -1.26051 0
M  V30 2975 C 302.462 -0.477172 -2.28572 0
M  V30 2976 C 303.443 0.472032 -1.63419 0
M  V30 2977 O 304.628 0.372853 -1.90587 0
M  V30 2978 C 301.758 0.253975 -3.4637 0
M  V30 2979 C 300.712 -0.609135 -4.23643 0
M  V30 2980 C 300.038 0.252252 -5.34105 0
M  V30 2981 C 301.338 -1.8829 -4.8718 0
M  V30 2982 H 303.032 -1.33402 -2.68038 0
M  V30 2983 H 300.578 -0.642904 -1.28852 0
M  V30 2984 H 302.531 0.593016 -4.17207 0
M  V30 2985 H 301.255 1.145 -3.05871 0
M  V30 2986 H 299.914 -0.931138 -3.54578 0
M  V30 2987 H 299.562 1.14278 -4.89846 0
M  V30 2988 H 299.262 -0.32188 -5.86718 0
M  V30 2989 H 300.786 0.586454 -6.07777 0
M  V30 2990 H 302.2 -1.61081 -5.50205 0
M  V30 2991 H 300.597 -2.40199 -5.49931 0
M  V30 2992 H 301.667 -2.59134 -4.09851 0
M  V30 2993 N 303.011 1.40521 -0.713556 0
M  V30 2994 C 303.921 2.34522 -0.0606667 0
M  V30 2995 C 304.937 1.57193 0.74607 0
M  V30 2996 O 306.113 1.89591 0.679493 0
M  V30 2997 C 303.178 3.36081 0.851491 0
M  V30 2998 C 302.239 4.29286 0.0349339 0
M  V30 2999 C 301.472 5.25994 0.903649 0
M  V30 3000 O 301.695 5.28616 2.14292 0
M  V30 3001 O 300.629 6.00918 0.343723 0
M  V30 3002 H 304.455 2.91968 -0.835972 0
M  V30 3003 H 302.04 1.41681 -0.47402 0
M  V30 3004 H 303.922 3.98369 1.37404 0
M  V30 3005 H 302.597 2.81052 1.60598 0
M  V30 3006 H 301.504 3.70289 -0.532633 0
M  V30 3007 H 302.837 4.87462 -0.681287 0
M  V30 3008 N 304.489 0.459591 1.5075 0
M  V30 3009 C 305.436 -0.340524 2.28274 0
M  V30 3010 C 306.406 -0.997371 1.32822 0
M  V30 3011 O 307.591 -1.01202 1.61749 0
M  V30 3012 C 304.731 -1.42317 3.14388 0
M  V30 3013 C 303.844 -0.782251 4.24859 0
M  V30 3014 C 302.979 -1.84182 4.98247 0
M  V30 3015 C 302.018 -1.18053 6.00608 0
M  V30 3016 N 301.155 -2.18244 6.67319 0
M  V30 3017 H 305.995 0.326899 2.96202 0
M  V30 3018 H 303.532 0.173057 1.46078 0
M  V30 3019 H 305.49 -2.06241 3.62658 0
M  V30 3020 H 304.12 -2.05992 2.4853 0
M  V30 3021 H 303.172 -0.0307404 3.80388 0
M  V30 3022 H 304.484 -0.259663 4.98124 0
M  V30 3023 H 303.638 -2.55714 5.50177 0
M  V30 3024 H 302.377 -2.39819 4.24662 0
M  V30 3025 H 301.382 -0.450776 5.47949 0
M  V30 3026 H 302.607 -0.631202 6.7616 0
M  V30 3027 H 300.553 -2.72919 5.96533 0
M  V30 3028 H 300.47 -1.70938 7.36421 0
M  V30 3029 H 301.738 -2.89191 7.23871 0
M  V30 3030 N 305.967 -1.56429 0.191757 0
M  V30 3031 C 307.215 -1.97095 -0.447006 0
M  V30 3032 C 307.536 -1.07967 -1.62383 0
M  V30 3033 O 306.806 -0.150248 -1.95323 0
M  V30 3034 H 305.386 -0.727832 -0.168135 0
M  V30 3035 H 308.048 -1.92911 0.27771 0
M  V30 3036 H 307.144 -3.01848 -0.793371 0
M  V30 3037 N 307.445 0.0818655 -1.57387 0
M  V30 3038 C 308.693 0.781368 -1.86384 0
M  V30 3039 C 309.014 1.78618 -0.782342 0
M  V30 3040 O 308.284 1.94976 0.190061 0
M  V30 3041 H 306.864 0.291562 -0.687751 0
M  V30 3042 H 309.526 0.060348 -1.94807 0
M  V30 3043 H 308.622 1.3038 -2.83562 0
M  V30 3044 N 308.923 1.53595 0.353017 0
M  V30 3045 C 309.87 1.80919 1.43308 0
M  V30 3046 C 310.84 0.654288 1.5267 0
M  V30 3047 O 312.025 0.897759 1.6836 0
M  V30 3048 C 309.165 2.01605 2.80089 0
M  V30 3049 C 308.278 3.29321 2.79593 0
M  V30 3050 C 307.413 3.40125 4.0803 0
M  V30 3051 C 306.452 4.61826 4.01725 0
M  V30 3052 N 305.589 4.69716 5.21834 0
M  V30 3053 H 310.429 2.73074 1.19308 0
M  V30 3054 H 307.966 1.35263 0.578131 0
M  V30 3055 H 309.924 2.11586 3.59565 0
M  V30 3056 H 308.554 1.12772 3.0246 0
M  V30 3057 H 307.606 3.28229 1.92276 0
M  V30 3058 H 308.918 4.18884 2.70809 0
M  V30 3059 H 308.072 3.49488 4.95927 0
M  V30 3060 H 306.811 2.48601 4.19582 0
M  V30 3061 H 305.816 4.52552 3.12213 0
M  V30 3062 H 307.041 5.54705 3.91764 0
M  V30 3063 H 304.987 3.81097 5.33948 0
M  V30 3064 H 304.904 5.53202 5.1527 0
M  V30 3065 H 306.172 4.83376 6.11529 0
M  V30 3066 N 310.401 -0.613514 1.45168 0
M  V30 3067 C 311.649 -1.36997 1.48581 0
M  V30 3068 C 311.97 -1.94589 0.126545 0
M  V30 3069 O 311.24 -1.76816 -0.843372 0
M  V30 3070 H 309.82 -0.508558 0.547154 0
M  V30 3071 H 312.482 -0.720853 1.81079 0
M  V30 3072 H 311.578 -2.1924 2.22127 0
M  V30 3073 N 311.879 -1.3236 -0.855495 0
M  V30 3074 C 313.104 -1.2601 -1.64731 0
M  V30 3075 C 313.529 0.169068 -1.87339 0
M  V30 3076 O 312.887 1.12016 -1.42556 0
M  V30 3077 C 312.935 -2.02417 -2.98429 0
M  V30 3078 O 312.039 -1.3714 -3.8893 0
M  V30 3079 H 311.38 -0.434325 -0.502253 0
M  V30 3080 H 313.91 -1.74661 -1.06558 0
M  V30 3081 H 313.92 -2.12559 -3.48257 0
M  V30 3082 H 312.595 -3.06343 -2.81295 0
M  V30 3083 H 311.172 -1.3554 -3.47395 0
M  V30 3084 N 313.357 1.07166 -1.15556 0
M  V30 3085 C 314.606 1.79181 -0.926132 0
M  V30 3086 C 314.919 1.87768 0.547967 0
M  V30 3087 O 316.125 2.56323 0.895036 0
M  V30 3088 C 314.581 3.22 -1.60761 0
M  V30 3089 C 314.189 3.21607 -3.11886 0
M  V30 3090 C 315.933 3.9861 -1.4598 0
M  V30 3091 C 313.84 4.59092 -3.72812 0
M  V30 3092 H 312.77 0.67154 -0.342856 0
M  V30 3093 H 315.421 1.2027 -1.3859 0
M  V30 3094 H 313.803 3.81115 -1.07553 0
M  V30 3095 H 314.977 2.72127 -3.71865 0
M  V30 3096 H 313.292 2.58495 -3.2645 0
M  V30 3097 H 315.889 5.00225 -1.88888 0
M  V30 3098 H 316.232 4.143 -0.407541 0
M  V30 3099 H 316.765 3.45996 -1.96295 0
M  V30 3100 H 313.504 4.48606 -4.77946 0
M  V30 3101 H 313.024 5.08803 -3.17616 0
M  V30 3102 H 314.703 5.28059 -3.73848 0
M  V30 3103 N 314.835 0.952656 1.25548 0
M  V30 3104 C 316.063 0.623496 1.97282 0
M  V30 3105 C 316.478 -0.803987 1.70826 0
M  V30 3106 O 315.835 -1.53755 0.983147 0
M  V30 3107 C 315.886 0.870209 3.5087 0
M  V30 3108 O 315.607 2.24156 3.76412 0
M  V30 3109 C 317.108 0.553164 4.39835 0
M  V30 3110 H 314.328 0.233931 0.628902 0
M  V30 3111 H 316.872 1.27649 1.59768 0
M  V30 3112 H 315.027 0.263652 3.86502 0
M  V30 3113 H 315.441 2.31021 4.70882 0
M  V30 3114 H 316.915 0.776342 5.46513 0
M  V30 3115 H 317.392 -0.512215 4.36203 0
M  V30 3116 H 317.998 1.13896 4.09766 0
M  V30 3117 N 316.313 -1.40141 0.720998 0
M  V30 3118 C 317.223 -2.34486 0.0731031 0
M  V30 3119 C 318.239 -1.57587 -0.737723 0
M  V30 3120 O 319.415 -1.89949 -0.669429 0
M  V30 3121 C 316.48 -3.36528 -0.833656 0
M  V30 3122 C 315.541 -4.29298 -0.0121673 0
M  V30 3123 C 314.774 -5.26466 -0.875742 0
M  V30 3124 O 314.997 -5.29745 -2.11485 0
M  V30 3125 O 313.931 -6.01092 -0.31185 0
M  V30 3126 H 317.757 -2.9152 0.851444 0
M  V30 3127 H 315.342 -1.41427 0.481527 0
M  V30 3128 H 317.224 -3.99093 -1.35289 0
M  V30 3129 H 315.899 -2.81899 -1.59105 0
M  V30 3130 H 314.806 -3.70001 0.552262 0
M  V30 3131 H 316.139 -4.87094 0.707129 0
M  V30 3132 N 317.792 -0.46758 -1.50504 0
M  V30 3133 C 318.724 0.364655 -2.26281 0
M  V30 3134 C 319.737 0.960151 -1.31472 0
M  V30 3135 O 320.926 0.849153 -1.57008 0
M  V30 3136 C 318.026 1.52509 -3.02645 0
M  V30 3137 C 317.199 1.04302 -4.24782 0
M  V30 3138 C 316.258 2.07709 -4.8347 0
M  V30 3139 O 315.284 1.65913 -5.44483 0
M  V30 3140 N 316.486 3.40485 -4.70159 0
M  V30 3141 H 319.251 -0.28495 -2.98342 0
M  V30 3142 H 316.812 -0.298163 -1.59131 0
M  V30 3143 H 318.804 2.21371 -3.38787 0
M  V30 3144 H 317.374 2.07945 -2.33404 0
M  V30 3145 H 316.594 0.180393 -3.93787 0
M  V30 3146 H 317.882 0.698798 -5.03978 0
M  V30 3147 H 317.28 3.77155 -4.21629 0
M  V30 3148 H 315.837 4.05156 -5.1058 0
M  V30 3149 N 319.27 1.56325 -0.20005 0
M  V30 3150 C 320.2 2.22318 0.713916 0
M  V30 3151 C 321.181 1.18788 1.21752 0
M  V30 3152 O 322.366 1.47309 1.26545 0
M  V30 3153 C 319.496 2.88639 1.93144 0
M  V30 3154 C 318.45 3.98457 1.56255 0
M  V30 3155 C 317.776 4.51967 2.85709 0
M  V30 3156 C 319.076 5.16612 0.768747 0
M  V30 3157 H 320.77 2.98952 0.163755 0
M  V30 3158 H 318.316 1.43792 0.0773219 0
M  V30 3159 H 320.269 3.33491 2.57608 0
M  V30 3160 H 318.993 2.09419 2.50621 0
M  V30 3161 H 317.652 3.54305 0.941471 0
M  V30 3162 H 317.3 3.69503 3.41287 0
M  V30 3163 H 317 5.26071 2.6177 0
M  V30 3164 H 318.524 4.99523 3.51154 0
M  V30 3165 H 319.938 5.57977 1.3166 0
M  V30 3166 H 318.335 5.96812 0.627286 0
M  V30 3167 H 319.405 4.84358 -0.229168 0
M  V30 3168 N 320.748 -0.0735177 1.57428 0
M  V30 3169 C 321.678 -1.0879 2.06608 0
M  V30 3170 C 322.659 -1.40473 0.959237 0
M  V30 3171 O 323.844 -1.5013 1.23185 0
M  V30 3172 C 320.974 -2.40183 2.50857 0
M  V30 3173 C 319.928 -2.22858 3.65402 0
M  V30 3174 C 319.254 -3.59619 3.957 0
M  V30 3175 C 320.554 -1.65123 4.95511 0
M  V30 3176 H 322.248 -0.678673 2.91607 0
M  V30 3177 H 319.794 -0.325013 1.40284 0
M  V30 3178 H 321.747 -3.11437 2.83874 0
M  V30 3179 H 320.471 -2.83083 1.62885 0
M  V30 3180 H 319.13 -1.54045 3.32664 0
M  V30 3181 H 318.778 -4.00086 3.04861 0
M  V30 3182 H 318.478 -3.48866 4.72828 0
M  V30 3183 H 320.002 -4.32306 4.31212 0
M  V30 3184 H 321.416 -2.26241 5.26771 0
M  V30 3185 H 319.813 -1.65071 5.7695 0
M  V30 3186 H 320.883 -0.612559 4.81015 0
M  V30 3187 N 322.226 -1.5378 -0.344866 0
M  V30 3188 C 323.174 -1.82373 -1.4437 0
M  V30 3189 C 324.168 -0.694128 -1.54526 0
M  V30 3190 O 325.374 -0.877442 -1.57165 0
M  V30 3191 H 321.749 -0.577765 -0.481344 0
M  V30 3192 H 323.72 -2.74306 -1.17468 0
M  V30 3193 C 322.469 -2.04898 -2.80913 0
M  V30 3194 H 321.792 -2.9127 -2.73865 0
M  V30 3195 H 323.232 -2.28871 -3.56923 0
M  V30 3196 C 321.691 -0.834116 -3.26411 0
M  V30 3197 O 322.221 -0.0328885 -4.01687 0
M  V30 3198 N 320.427 -0.65171 -2.83198 0
M  V30 3199 H 319.974 -1.30489 -2.22104 0
M  V30 3200 H 319.932 0.159686 -3.13994 0
M  V30 3201 N 323.704 0.605807 -1.45491 0
M  V30 3202 C 324.667 1.69836 -1.5391 0
M  V30 3203 C 325.667 1.55261 -0.418424 0
M  V30 3204 O 326.857 1.60296 -0.681965 0
M  V30 3205 C 323.989 3.09117 -1.43734 0
M  V30 3206 H 325.182 1.63738 -2.51257 0
M  V30 3207 H 322.735 0.821689 -1.32959 0
M  V30 3208 H 323.47 3.20791 -0.475788 0
M  V30 3209 H 323.255 3.21104 -2.25021 0
M  V30 3210 H 324.745 3.88696 -1.52661 0
M  V30 3211 N 325.182 1.32811 0.848464 0
M  V30 3212 C 326.598 1.11937 1.13764 0
M  V30 3213 C 326.798 -0.0960789 2.01271 0
M  V30 3214 O 325.854 -0.779165 2.40178 0
M  V30 3215 C 327.167 2.402 1.809 0
M  V30 3216 C 328.715 2.46016 1.93508 0
M  V30 3217 C 329.19 3.74215 2.64059 0
M  V30 3218 N 330.681 3.75232 2.71579 0
M  V30 3219 C 331.416 4.71134 3.26833 0
M  V30 3220 N 330.912 5.77406 3.8285 0
M  V30 3221 N 332.705 4.58623 3.24995 0
M  V30 3222 H 324.856 2.1073 0.265855 0
M  V30 3223 H 327.119 0.930671 0.180431 0
M  V30 3224 H 326.825 3.29093 1.24058 0
M  V30 3225 H 326.699 2.51628 2.81004 0
M  V30 3226 H 329.086 1.57577 2.49506 0
M  V30 3227 H 329.167 2.38536 0.923811 0
M  V30 3228 H 328.811 4.63031 2.08722 0
M  V30 3229 H 328.741 3.78968 3.65637 0
M  V30 3230 H 331.232 2.98423 2.31845 0
M  V30 3231 H 331.545 6.46632 4.23187 0
M  V30 3232 H 329.89 5.81152 3.81165 0
M  V30 3233 H 333.081 3.74762 2.80484 0
M  V30 3234 H 333.254 5.33535 3.67756 0
M  V30 3235 N 326.66 -1.06551 1.16123 0
M  V30 3236 C 327.623 -2.12132 0.867906 0
M  V30 3237 C 328.623 -1.60224 -0.135944 0
M  V30 3238 O 329.813 -1.73943 0.0946422 0
M  V30 3239 C 326.945 -3.396 0.297419 0
M  V30 3240 H 328.138 -2.39586 1.80385 0
M  V30 3241 H 325.691 -1.22574 0.969812 0
M  V30 3242 H 326.426 -3.17794 -0.64633 0
M  V30 3243 H 326.211 -3.78581 1.02073 0
M  V30 3244 H 327.701 -4.17455 0.110052 0
M  V30 3245 N 328.138 -0.959301 -1.25041 0
M  V30 3246 C 329.415 -0.533805 -1.88175 0
M  V30 3247 C 329.795 0.988994 -1.865 0
M  V30 3248 O 329.143 1.85677 -1.33177 0
M  V30 3249 C 329.353 -1.11575 -3.30684 0
M  V30 3250 C 330.701 -1.19548 -4.07423 0
M  V30 3251 O 331.725 -1.06765 -3.39823 0
M  V30 3252 O 330.584 -1.39656 -5.28354 0
M  V30 3253 H 327.678 -0.176772 -0.807887 0
M  V30 3254 H 330.224 -1.05303 -1.33076 0
M  V30 3255 H 328.996 -2.15884 -3.26358 0
M  V30 3256 H 328.619 -0.580059 -3.93346 0
M  V30 3257 N 329.616 1.39756 -0.72842 0
M  V30 3258 C 330.862 2.00942 -0.273892 0
M  V30 3259 C 331.195 1.57656 1.13394 0
M  V30 3260 O 330.47 0.802434 1.77176 0
M  V30 3261 C 330.753 3.58211 -0.368346 0
M  V30 3262 C 330.606 4.11534 -1.81548 0
M  V30 3263 C 331.925 4.39372 0.253054 0
M  V30 3264 H 329.044 0.730047 -0.100996 0
M  V30 3265 H 331.686 1.66056 -0.923337 0
M  V30 3266 H 329.836 3.88061 0.184588 0
M  V30 3267 H 331.508 3.92431 -2.42478 0
M  V30 3268 H 329.751 3.65341 -2.33898 0
M  V30 3269 H 330.422 5.20682 -1.83288 0
M  V30 3270 H 332.898 4.15527 -0.218224 0
M  V30 3271 H 331.774 5.48677 0.156585 0
M  V30 3272 H 332.035 4.21358 1.33826 0
M  V30 3273 N 331.094 0.475555 1.50254 0
M  V30 3274 C 332.322 -0.0754493 2.06762 0
M  V30 3275 C 332.737 -1.33111 1.33891 0
M  V30 3276 O 332.094 -1.77846 0.40952 0
M  V30 3277 C 332.145 -0.359008 3.59713 0
M  V30 3278 O 331.866 0.846851 4.29837 0
M  V30 3279 C 333.367 -0.956484 4.32858 0
M  V30 3280 H 330.587 0.00907525 0.670939 0
M  V30 3281 H 333.131 0.665618 1.93364 0
M  V30 3282 H 331.286 -1.05001 3.72899 0
M  V30 3283 H 331.7 0.594162 5.21124 0
M  V30 3284 H 333.174 -1.10463 5.40834 0
M  V30 3285 H 333.651 -1.94775 3.93649 0
M  V30 3286 H 334.257 -0.303723 4.24214 0
M  V30 3287 N 332.573 -1.56217 0.208337 0
M  V30 3288 C 333.503 -2.22694 -0.702116 0
M  V30 3289 C 334.484 -1.19432 -1.2112 0
M  V30 3290 O 335.669 -1.47978 -1.25762 0
M  V30 3291 C 332.799 -2.8966 -1.9161 0
M  V30 3292 C 331.753 -3.9928 -1.5414 0
M  V30 3293 C 331.079 -4.53476 -2.83308 0
M  V30 3294 C 332.379 -5.17012 -0.741339 0
M  V30 3295 H 334.073 -2.99034 -0.147898 0
M  V30 3296 H 331.619 -1.43831 -0.0696951 0
M  V30 3297 H 333.572 -3.34852 -2.55836 0
M  V30 3298 H 332.296 -2.10746 -2.49507 0
M  V30 3299 H 330.955 -3.54799 -0.922668 0
M  V30 3300 H 330.603 -3.71308 -3.39322 0
M  V30 3301 H 330.303 -5.27451 -2.58976 0
M  V30 3302 H 331.827 -5.01378 -3.485 0
M  V30 3303 H 333.241 -5.58667 -1.28699 0
M  V30 3304 H 331.638 -5.97137 -0.595627 0
M  V30 3305 H 332.708 -4.8423 0.254851 0
M  V30 3306 N 334.051 0.0651679 -1.57465 0
M  V30 3307 C 335.299 0.761555 -1.87202 0
M  V30 3308 C 335.62 1.77778 -0.801243 0
M  V30 3309 O 334.89 1.95166 0.16937 0
M  V30 3310 H 333.47 0.284251 -0.690804 0
M  V30 3311 H 336.132 0.0396827 -1.9486 0
M  V30 3312 H 335.228 1.27365 -2.84929 0
M  V30 3313 N 335.529 1.53961 0.336706 0
M  V30 3314 C 336.777 1.71197 1.07405 0
M  V30 3315 C 337.098 0.481475 1.88962 0
M  V30 3316 O 336.368 -0.504585 1.8929 0
M  V30 3317 H 334.948 0.631185 0.399517 0
M  V30 3318 H 337.61 1.91232 0.376323 0
M  V30 3319 H 336.706 2.58587 1.74755 0
M  V30 3320 N 337.007 -0.598083 1.45811 0
M  V30 3321 C 338.255 -1.35413 1.50026 0
M  V30 3322 C 338.576 -1.94444 0.147177 0
M  V30 3323 O 337.846 -1.77701 -0.824571 0
M  V30 3324 H 336.426 -0.502727 0.552517 0
M  V30 3325 H 339.088 -0.701606 1.81834 0
M  V30 3326 H 338.184 -2.16871 2.2444 0
M  V30 3327 N 338.485 -1.33259 -0.841409 0
M  V30 3328 C 339.448 -1.23221 -1.9326 0
M  V30 3329 C 340.448 -0.151895 -1.60081 0
M  V30 3330 O 341.638 -0.403246 -1.69468 0
M  V30 3331 C 338.77 -0.898123 -3.28856 0
M  V30 3332 H 339.963 -2.2021 -2.03587 0
M  V30 3333 H 337.516 -1.17281 -1.03319 0
M  V30 3334 H 338.251 0.0693841 -3.24226 0
M  V30 3335 H 338.036 -1.67934 -3.54317 0
M  V30 3336 H 339.526 -0.852563 -4.08805 0
M  V30 3337 N 339.963 1.05934 -1.16686 0
M  V30 3338 C 340.91 2.13499 -0.876748 0
M  V30 3339 C 341.88 1.65162 0.176299 0
M  V30 3340 O 343.065 1.90757 0.0407143 0
M  V30 3341 C 340.205 3.42912 -0.387967 0
M  V30 3342 C 339.318 4.04964 -1.50426 0
M  V30 3343 C 338.453 5.22266 -0.970125 0
M  V30 3344 C 337.492 5.76309 -2.06238 0
M  V30 3345 N 336.629 6.84922 -1.54356 0
M  V30 3346 H 341.469 2.37654 -1.7979 0
M  V30 3347 H 339.006 1.16598 -0.896843 0
M  V30 3348 H 340.964 4.17111 -0.086186 0
M  V30 3349 H 339.594 3.18963 0.496235 0
M  V30 3350 H 338.646 3.28277 -1.92193 0
M  V30 3351 H 339.958 4.41122 -2.32836 0
M  V30 3352 H 339.112 6.03506 -0.621743 0
M  V30 3353 H 337.851 4.87564 -0.115377 0
M  V30 3354 H 336.856 4.93704 -2.41942 0
M  V30 3355 H 338.081 6.13062 -2.92115 0
M  V30 3356 H 336.027 6.52131 -0.711406 0
M  V30 3357 H 335.944 7.20043 -2.30379 0
M  V30 3358 H 337.212 7.69832 -1.22387 0
M  V30 3359 N 341.441 0.965919 1.2453 0
M  V30 3360 C 342.669 0.644385 1.96609 0
M  V30 3361 C 343.084 -0.785823 1.71669 0
M  V30 3362 O 342.441 -1.52703 0.999399 0
M  V30 3363 C 342.492 0.907375 3.49927 0
M  V30 3364 O 342.213 2.28136 3.74013 0
M  V30 3365 C 343.714 0.599784 4.39224 0
M  V30 3366 H 340.934 0.240588 0.626385 0
M  V30 3367 H 343.478 1.29337 1.58405 0
M  V30 3368 H 341.633 0.304631 3.862 0
M  V30 3369 H 342.047 2.36002 4.68405 0
M  V30 3370 H 343.521 0.834263 5.45659 0
M  V30 3371 H 343.998 -0.465921 4.36722 0
M  V30 3372 H 344.604 1.18235 4.08535 0
M  V30 3373 N 342.919 -1.39368 0.735821 0
M  V30 3374 C 344.166 -2.00497 0.284123 0
M  V30 3375 C 344.494 -1.58387 -1.12889 0
M  V30 3376 O 343.749 -0.804359 -1.78406 0
M  V30 3377 C 344.048 -3.5583 0.334651 0
M  V30 3378 C 343.714 -4.17593 1.7008 0
M  V30 3379 C 342.376 -4.34176 2.07472 0
M  V30 3380 C 344.728 -4.51848 2.59775 0
M  V30 3381 C 342.056 -4.82304 3.34065 0
M  V30 3382 C 344.408 -5.01384 3.85741 0
M  V30 3383 C 343.072 -5.16175 4.23225 0
M  V30 3384 H 342.342 -0.73367 0.103968 0
M  V30 3385 H 344.989 -1.66683 0.942825 0
M  V30 3386 H 343.294 -3.89674 -0.407625 0
M  V30 3387 H 344.991 -4.00986 -0.0329927 0
M  V30 3388 H 341.581 -4.05087 1.40008 0
M  V30 3389 H 345.765 -4.38653 2.32157 0
M  V30 3390 H 341.021 -4.91941 3.63049 0
M  V30 3391 H 345.195 -5.26863 4.55399 0
M  V30 3392 H 342.822 -5.5323 5.21384 0
M  V30 3393 N 344.397 -0.483516 -1.5 0
M  V30 3394 C 345.36 0.292965 -2.2732 0
M  V30 3395 C 346.36 0.909499 -1.32608 0
M  V30 3396 O 347.55 0.776745 -1.55924 0
M  V30 3397 C 344.682 1.41854 -3.09984 0
M  V30 3398 H 345.875 -0.385289 -2.97415 0
M  V30 3399 H 343.428 -0.237942 -1.54478 0
M  V30 3400 H 344.163 2.13148 -2.44414 0
M  V30 3401 H 343.948 0.982114 -3.79601 0
M  V30 3402 H 345.438 1.96597 -3.68429 0
M  V30 3403 N 345.875 1.56104 -0.216619 0
M  V30 3404 C 346.785 2.23694 0.706982 0
M  V30 3405 C 347.801 1.24295 1.21765 0
M  V30 3406 O 348.977 1.57094 1.2603 0
M  V30 3407 C 346.042 2.8998 1.90033 0
M  V30 3408 C 345.103 4.04708 1.43213 0
M  V30 3409 C 344.336 4.67824 2.56859 0
M  V30 3410 O 344.559 4.29913 3.74874 0
M  V30 3411 O 343.493 5.56905 2.28343 0
M  V30 3412 H 347.319 3.03272 0.161235 0
M  V30 3413 H 344.904 1.49394 0.0136177 0
M  V30 3414 H 346.786 3.31837 2.59735 0
M  V30 3415 H 345.461 2.13365 2.43428 0
M  V30 3416 H 344.368 3.6743 0.70327 0
M  V30 3417 H 345.701 4.83051 0.944615 0
M  V30 3418 N 347.353 -0.0568162 1.57498 0
M  V30 3419 C 348.581 -0.765626 1.92213 0
M  V30 3420 C 348.996 -1.70353 0.813961 0
M  V30 3421 O 348.353 -1.81268 -0.211701 0
M  V30 3422 C 348.404 -1.5465 3.2675 0
M  V30 3423 O 348.125 -0.646278 4.33307 0
M  V30 3424 C 349.626 -2.35497 3.75574 0
M  V30 3425 H 346.846 -0.216835 0.634999 0
M  V30 3426 H 349.39 -0.0226146 2.04487 0
M  V30 3427 H 347.545 -2.24165 3.15957 0
M  V30 3428 H 347.959 -1.19093 5.108 0
M  V30 3429 H 349.433 -2.85722 4.72299 0
M  V30 3430 H 349.91 -3.15692 3.05344 0
M  V30 3431 H 350.516 -1.7111 3.8936 0
M  V30 3432 N 348.832 -1.54138 -0.328536 0
M  V30 3433 C 349.795 -1.82462 -1.38709 0
M  V30 3434 C 350.795 -0.696229 -1.44946 0
M  V30 3435 O 351.985 -0.964535 -1.4506 0
M  V30 3436 C 349.117 -1.98018 -2.77492 0
M  V30 3437 H 350.31 -2.77037 -1.14851 0
M  V30 3438 H 347.863 -1.45779 -0.563751 0
M  V30 3439 H 348.598 -1.05637 -3.06613 0
M  V30 3440 H 348.383 -2.80124 -2.74359 0
M  V30 3441 H 349.873 -2.21396 -3.54081 0
M  V30 3442 N 350.31 0.590341 -1.46126 0
M  V30 3443 C 351.538 1.37504 -1.54597 0
M  V30 3444 C 351.953 1.87897 -0.184447 0
M  V30 3445 O 351.31 1.63192 0.816984 0
M  V30 3446 C 351.361 2.56779 -2.54454 0
M  V30 3447 O 351.082 2.08476 -3.85317 0
M  V30 3448 C 352.583 3.49427 -2.72792 0
M  V30 3449 H 349.803 0.420325 -0.523037 0
M  V30 3450 H 352.347 0.718383 -1.91467 0
M  V30 3451 H 350.502 3.1845 -2.20609 0
M  V30 3452 H 350.916 2.86097 -4.396 0
M  V30 3453 H 352.39 4.29619 -3.466 0
M  V30 3454 H 352.867 4.00876 -1.79429 0
M  V30 3455 H 353.473 2.93598 -3.07702 0
M  V30 3456 N 351.788 1.33704 0.83433 0
M  V30 3457 C 352.751 1.24244 1.92603 0
M  V30 3458 C 353.751 0.160383 1.59998 0
M  V30 3459 O 354.941 0.412228 1.69252 0
M  V30 3460 C 352.073 0.91555 3.28376 0
M  V30 3461 H 353.266 2.21287 2.02416 0
M  V30 3462 H 350.819 1.17827 1.02696 0
M  V30 3463 H 351.554 -0.0521886 3.24258 0
M  V30 3464 H 351.339 1.69811 3.53422 0
M  V30 3465 H 352.829 0.874231 4.08347 0
M  V30 3466 N 353.266 -1.05314 1.17247 0
M  V30 3467 C 354.514 -1.77941 0.958194 0
M  V30 3468 C 354.835 -1.88089 -0.514556 0
M  V30 3469 O 354.105 -1.39676 -1.37359 0
M  V30 3470 H 352.685 -0.659116 0.351533 0
M  V30 3471 H 355.347 -1.27166 1.47699 0
M  V30 3472 H 354.443 -2.79663 1.38546 0
M  V30 3473 N 354.744 -0.972509 -1.24016 0
M  V30 3474 C 355.654 -0.5143 -2.28893 0
M  V30 3475 C 356.67 0.427078 -1.68677 0
M  V30 3476 O 357.846 0.298939 -1.99169 0
M  V30 3477 C 354.911 0.183598 -3.46214 0
M  V30 3478 C 353.972 -0.798202 -4.21814 0
M  V30 3479 C 353.205 -0.133514 -5.33533 0
M  V30 3480 O 353.428 1.07714 -5.60137 0
M  V30 3481 O 352.362 -0.828103 -5.96176 0
M  V30 3482 H 356.188 -1.38629 -2.70214 0
M  V30 3483 H 353.773 -0.739769 -1.29799 0
M  V30 3484 H 355.655 0.575433 -4.17453 0
M  V30 3485 H 354.33 1.03048 -3.0686 0
M  V30 3486 H 353.237 -1.24059 -3.52931 0
M  V30 3487 H 354.57 -1.61364 -4.64997 0
M  V30 3488 N 356.222 1.38976 -0.743202 0
M  V30 3489 C 357.468 2.01114 -0.304109 0
M  V30 3490 C 357.823 1.57929 1.09892 0
M  V30 3491 O 357.116 0.801983 1.74008 0
M  V30 3492 C 357.31 3.55647 -0.353517 0
M  V30 3493 C 357.139 4.13837 -1.75981 0
M  V30 3494 C 355.909 4.46062 -2.37395 0
M  V30 3495 C 358.107 4.36812 -2.71477 0
M  V30 3496 N 356.089 4.898 -3.70093 0
M  V30 3497 C 357.46 4.82844 -3.88923 0
M  V30 3498 C 359.515 4.18893 -2.69134 0
M  V30 3499 C 358.218 5.12837 -5.04371 0
M  V30 3500 C 360.244 4.50005 -3.83731 0
M  V30 3501 C 359.606 4.96251 -4.99914 0
M  V30 3502 H 355.705 0.765931 -0.157716 0
M  V30 3503 H 358.289 1.68763 -0.970931 0
M  V30 3504 H 356.46 3.87368 0.282987 0
M  V30 3505 H 358.192 4.04564 0.104904 0
M  V30 3506 H 354.947 4.34145 -1.89248 0
M  V30 3507 H 355.371 5.16016 -4.38242 0
M  V30 3508 H 360.013 3.82335 -1.80499 0
M  V30 3509 H 357.731 5.48297 -5.9363 0
M  V30 3510 H 361.317 4.37755 -3.83225 0
M  V30 3511 H 360.197 5.19867 -5.87118 0
M  V30 3512 N 357.7 0.491464 1.49741 0
M  V30 3513 C 358.632 -0.328609 2.26832 0
M  V30 3514 C 359.645 -0.939113 1.32983 0
M  V30 3515 O 360.834 -0.824067 1.58339 0
M  V30 3516 C 357.934 -1.47675 3.05033 0
M  V30 3517 C 357.107 -0.975305 4.26388 0
M  V30 3518 C 356.166 -1.99991 4.86714 0
M  V30 3519 O 355.192 -1.57229 5.47054 0
M  V30 3520 N 356.394 -3.32962 4.75517 0
M  V30 3521 H 359.159 0.332377 2.97851 0
M  V30 3522 H 356.72 0.323441 1.58636 0
M  V30 3523 H 358.712 -2.15954 3.42266 0
M  V30 3524 H 357.282 -2.04206 2.36683 0
M  V30 3525 H 356.502 -0.117723 3.94024 0
M  V30 3526 H 357.79 -0.618531 5.05026 0
M  V30 3527 H 357.188 -3.70399 4.27576 0
M  V30 3528 H 355.745 -3.96982 5.16961 0
M  V30 3529 N 359.178 -1.55987 0.224894 0
M  V30 3530 C 360.426 -1.97998 -0.405099 0
M  V30 3531 C 360.747 -1.11387 -1.60056 0
M  V30 3532 O 360.017 -0.191645 -1.9496 0
M  V30 3533 H 358.597 -0.731235 -0.152658 0
M  V30 3534 H 361.259 -1.92279 0.318567 0
M  V30 3535 H 360.355 -3.03463 -0.729167 0
M  V30 3536 N 360.656 0.0484629 -1.57525 0
M  V30 3537 C 361.603 1.05504 -2.05275 0
M  V30 3538 C 362.573 1.37084 -0.937927 0
M  V30 3539 O 363.758 1.47754 -1.2072 0
M  V30 3540 C 360.898 2.35676 -2.52093 0
M  V30 3541 C 360.011 2.10423 -3.77288 0
M  V30 3542 C 359.146 3.34327 -4.12794 0
M  V30 3543 C 358.185 3.04542 -5.30962 0
M  V30 3544 N 357.322 4.20841 -5.61994 0
M  V30 3545 H 362.162 0.640885 -2.91027 0
M  V30 3546 H 359.699 0.304854 -1.43906 0
M  V30 3547 H 361.657 3.11709 -2.77297 0
M  V30 3548 H 360.287 2.7485 -1.69285 0
M  V30 3549 H 359.339 1.24976 -3.59284 0
M  V30 3550 H 360.651 1.84438 -4.63448 0
M  V30 3551 H 359.805 4.1874 -4.39024 0
M  V30 3552 H 358.544 3.63408 -3.25247 0
M  V30 3553 H 357.549 2.18528 -5.04505 0
M  V30 3554 H 358.774 2.76758 -6.20146 0
M  V30 3555 H 356.72 4.4991 -4.77406 0
M  V30 3556 H 356.637 3.98212 -6.42622 0
M  V30 3557 H 357.905 5.06184 -5.92789 0
M  V30 3558 N 362.134 1.5431 0.320358 0
M  V30 3559 C 363.362 1.76636 1.07738 0
M  V30 3560 C 363.777 0.51649 1.81598 0
M  V30 3561 O 363.134 -0.512942 1.75143 0
M  V30 3562 C 363.185 2.96158 2.07299 0
M  V30 3563 O 362.906 4.16313 1.36438 0
M  V30 3564 C 364.407 3.3072 2.95193 0
M  V30 3565 H 361.627 0.589597 0.320339 0
M  V30 3566 H 364.171 2.01207 0.36551 0
M  V30 3567 H 362.326 2.73851 2.74016 0
M  V30 3568 H 362.74 4.83565 2.03138 0
M  V30 3569 H 364.214 4.17643 3.60941 0
M  V30 3570 H 364.691 2.48026 3.62463 0
M  V30 3571 H 365.297 3.55117 2.34034 0
M  V30 3572 N 363.613 -0.582584 1.46437 0
M  V30 3573 C 364.543 -1.70187 1.59871 0
M  V30 3574 C 365.524 -1.64066 0.449042 0
M  V30 3575 O 366.709 -1.82081 0.6753 0
M  V30 3576 C 363.839 -3.08827 1.58881 0
M  V30 3577 C 362.793 -3.29779 2.72819 0
M  V30 3578 C 362.119 -4.68947 2.5689 0
M  V30 3579 C 363.419 -3.17601 4.1464 0
M  V30 3580 H 365.113 -1.592 2.53566 0
M  V30 3581 H 362.659 -0.764472 1.22032 0
M  V30 3582 H 364.612 -3.86951 1.66873 0
M  V30 3583 H 363.336 -3.20713 0.617306 0
M  V30 3584 H 361.995 -2.54054 2.64296 0
M  V30 3585 H 361.643 -4.77599 1.57823 0
M  V30 3586 H 361.343 -4.83919 3.33312 0
M  V30 3587 H 362.867 -5.4924 2.66773 0
M  V30 3588 H 364.281 -3.8557 4.24274 0
M  V30 3589 H 362.678 -3.44094 4.9165 0
M  V30 3590 H 363.748 -2.14681 4.34788 0
M  V30 3591 N 365.091 -1.34144 -0.827227 0
M  V30 3592 C 366.507 -1.13732 -1.11969 0
M  V30 3593 C 366.707 0.0640463 -2.01398 0
M  V30 3594 O 365.763 0.740856 -2.41387 0
M  V30 3595 C 367.076 -2.43047 -1.77055 0
M  V30 3596 C 368.624 -2.49063 -1.89569 0
M  V30 3597 C 369.099 -3.78369 -2.58072 0
M  V30 3598 N 370.59 -3.79505 -2.65575 0
M  V30 3599 C 371.325 -4.76274 -3.19297 0
M  V30 3600 N 370.821 -5.83424 -3.73616 0
M  V30 3601 N 372.614 -4.63735 -3.17658 0
M  V30 3602 H 364.765 -2.11126 -0.232296 0
M  V30 3603 H 367.028 -0.933424 -0.165602 0
M  V30 3604 H 366.734 -3.31025 -1.18807 0
M  V30 3605 H 366.608 -2.56066 -2.76966 0
M  V30 3606 H 368.995 -1.61527 -2.46968 0
M  V30 3607 H 369.076 -2.39975 -0.885745 0
M  V30 3608 H 368.72 -4.66293 -2.01329 0
M  V30 3609 H 368.65 -3.84737 -3.59562 0
M  V30 3610 H 371.141 -3.02074 -2.27068 0
M  V30 3611 H 371.454 -6.53282 -4.12846 0
M  V30 3612 H 369.799 -5.87143 -3.71871 0
M  V30 3613 H 372.99 -3.79177 -2.74486 0
M  V30 3614 H 373.163 -5.39318 -3.59221 0
M  V30 3615 N 366.569 1.04691 -1.17803 0
M  V30 3616 C 367.479 2.16057 -0.914151 0
M  V30 3617 C 368.495 1.73589 0.119503 0
M  V30 3618 O 369.671 2.01308 -0.0609468 0
M  V30 3619 C 366.736 3.4394 -0.436603 0
M  V30 3620 C 365.797 4.00825 -1.53746 0
M  V30 3621 C 365.03 5.22604 -1.0826 0
M  V30 3622 O 365.253 5.70367 0.0612244 0
M  V30 3623 O 364.187 5.7186 -1.87775 0
M  V30 3624 H 368.013 2.41169 -1.84584 0
M  V30 3625 H 365.598 1.1453 -0.959334 0
M  V30 3626 H 367.48 4.21024 -0.178057 0
M  V30 3627 H 366.155 3.20316 0.466869 0
M  V30 3628 H 365.062 3.25158 -1.84995 0
M  V30 3629 H 366.395 4.28778 -2.41683 0
M  V30 3630 N 368.047 0.979072 1.23499 0
M  V30 3631 C 368.979 0.476271 2.24197 0
M  V30 3632 C 369.992 -0.421166 1.57258 0
M  V30 3633 O 371.181 -0.225515 1.7707 0
M  V30 3634 C 368.281 -0.330503 3.37285 0
M  V30 3635 C 367.454 0.559744 4.33804 0
M  V30 3636 C 366.513 -0.192954 5.25846 0
M  V30 3637 O 365.539 0.416978 5.67671 0
M  V30 3638 N 366.741 -1.47932 5.61334 0
M  V30 3639 H 369.506 1.34211 2.67969 0
M  V30 3640 H 367.067 0.852189 1.37657 0
M  V30 3641 H 369.059 -0.842361 3.95836 0
M  V30 3642 H 367.629 -1.09734 2.92707 0
M  V30 3643 H 366.849 1.25245 3.73775 0
M  V30 3644 H 368.137 1.1665 4.95248 0
M  V30 3645 H 367.535 -1.9964 5.29302 0
M  V30 3646 H 366.092 -1.93664 6.22364 0
M  V30 3647 N 369.525 -1.3858 0.750561 0
M  V30 3648 C 370.488 -2.28836 0.129152 0
M  V30 3649 C 371.488 -1.47045 -0.650714 0
M  V30 3650 O 372.678 -1.6753 -0.477428 0
M  V30 3651 C 369.81 -3.30751 -0.825622 0
M  V30 3652 H 371.003 -2.85294 0.924516 0
M  V30 3653 H 368.556 -1.47489 0.517376 0
M  V30 3654 H 369.291 -2.79378 -1.64677 0
M  V30 3655 H 369.076 -3.91177 -0.268852 0
M  V30 3656 H 370.566 -3.98249 -1.2565 0
M  V30 3657 N 371.003 -0.499398 -1.49478 0
M  V30 3658 C 371.935 0.316575 -2.27003 0
M  V30 3659 C 372.948 0.932047 -1.33479 0
M  V30 3660 O 374.137 0.815658 -1.58774 0
M  V30 3661 C 371.237 1.46055 -3.05812 0
M  V30 3662 C 370.41 0.952679 -4.26899 0
M  V30 3663 C 369.469 1.97407 -4.87767 0
M  V30 3664 O 368.495 1.54326 -5.4788 0
M  V30 3665 N 369.697 3.30436 -4.77276 0
M  V30 3666 H 372.462 -0.348168 -2.97671 0
M  V30 3667 H 370.023 -0.33185 -1.58463 0
M  V30 3668 H 372.015 2.14135 -3.43407 0
M  V30 3669 H 370.585 2.02948 -2.37762 0
M  V30 3670 H 369.805 0.0968248 -3.94081 0
M  V30 3671 H 371.093 0.59174 -5.05347 0
M  V30 3672 H 370.491 3.68126 -4.29534 0
M  V30 3673 H 369.048 3.94235 -5.19059 0
M  V30 3674 N 372.481 1.55866 -0.233164 0
M  V30 3675 C 373.444 2.1953 0.658715 0
M  V30 3676 C 374.444 1.16053 1.11303 0
M  V30 3677 O 375.634 1.41218 1.01996 0
M  V30 3678 C 372.766 2.82791 1.90373 0
M  V30 3679 H 373.959 2.99721 0.10347 0
M  V30 3680 H 371.512 1.56291 0.0164245 0
M  V30 3681 H 372.247 2.06501 2.50056 0
M  V30 3682 H 372.032 3.58578 1.58632 0
M  V30 3683 H 373.522 3.31556 2.53891 0
M  V30 3684 N 373.959 -0.0401083 1.57549 0
M  V30 3685 C 375.375 -0.395556 1.54621 0
M  V30 3686 C 375.575 -1.77281 0.957799 0
M  V30 3687 O 374.631 -2.45888 0.574031 0
M  V30 3688 C 375.944 -0.307535 2.99123 0
M  V30 3689 C 377.492 -0.385425 3.10618 0
M  V30 3690 C 377.967 -0.326973 4.56831 0
M  V30 3691 N 379.458 -0.386102 4.61588 0
M  V30 3692 C 380.193 -0.363591 5.72246 0
M  V30 3693 N 379.689 -0.29402 6.92176 0
M  V30 3694 N 381.482 -0.412503 5.60584 0
M  V30 3695 H 373.633 0.861325 1.94152 0
M  V30 3696 H 375.896 0.326445 0.890021 0
M  V30 3697 H 375.602 0.638461 3.45856 0
M  V30 3698 H 375.476 -1.10552 3.60636 0
M  V30 3699 H 377.863 -1.32185 2.63839 0
M  V30 3700 H 377.944 0.44171 2.51957 0
M  V30 3701 H 377.588 0.605738 5.04275 0
M  V30 3702 H 377.518 -1.17207 5.13391 0
M  V30 3703 H 380.009 -0.442832 3.75296 0
M  V30 3704 H 380.322 -0.28164 7.72287 0
M  V30 3705 H 378.667 -0.260232 6.94513 0
M  V30 3706 H 381.858 -0.464769 4.65787 0
M  V30 3707 H 382.031 -0.391492 6.46816 0
M  V30 3708 N 375.437 -1.54477 -0.31217 0
M  V30 3709 C 376.685 -1.72884 -1.04668 0
M  V30 3710 C 377.006 -0.511477 -1.88173 0
M  V30 3711 O 376.276 0.474407 -1.90069 0
M  V30 3712 H 374.856 -0.637461 -0.389425 0
M  V30 3713 H 377.518 -1.91807 -0.345852 0
M  V30 3714 H 376.614 -2.61334 -1.70619 0
M  V30 3715 N 376.915 0.57481 -1.46744 0
M  V30 3716 C 378.145 1.35659 -1.55821 0
M  V30 3717 C 378.553 1.88129 -0.201036 0
M  V30 3718 O 377.896 1.64723 0.813134 0
M  V30 3719 C 377.958 2.57473 -2.50894 0
M  V30 3720 C 377.622 2.26415 -3.9697 0
M  V30 3721 C 378.619 1.84771 -4.85958 0
M  V30 3722 C 376.304 2.38316 -4.42166 0
M  V30 3723 C 378.298 1.55434 -6.18158 0
M  V30 3724 C 375.985 2.08591 -5.74398 0
M  V30 3725 C 376.983 1.67216 -6.62214 0
M  V30 3726 O 376.671 1.37859 -7.91991 0
M  V30 3727 H 376.403 0.420496 -0.529301 0
M  V30 3728 H 378.957 0.704967 -1.92923 0
M  V30 3729 H 377.187 3.25468 -2.08824 0
M  V30 3730 H 378.876 3.19546 -2.50291 0
M  V30 3731 H 379.642 1.75085 -4.52295 0
M  V30 3732 H 375.521 2.69483 -3.74032 0
M  V30 3733 H 379.065 1.23065 -6.86659 0
M  V30 3734 H 374.962 2.17905 -6.07608 0
M  V30 3735 H 375.73 1.51638 -8.04331 0
M  V30 3736 N 378.394 1.34581 0.820102 0
M  V30 3737 C 379.326 1.22236 1.93884 0
M  V30 3738 C 380.339 0.148776 1.62119 0
M  V30 3739 O 381.528 0.400877 1.7394 0
M  V30 3740 C 378.628 0.856542 3.27897 0
M  V30 3741 C 377.801 2.02569 3.87666 0
M  V30 3742 C 376.86 1.63782 5.00062 0
M  V30 3743 O 375.886 2.35477 5.18208 0
M  V30 3744 N 377.088 0.553611 5.77854 0
M  V30 3745 H 379.853 2.18615 2.05006 0
M  V30 3746 H 377.414 1.27573 0.99683 0
M  V30 3747 H 379.406 0.578806 4.0054 0
M  V30 3748 H 377.976 -0.0171518 3.12595 0
M  V30 3749 H 377.196 2.468 3.07382 0
M  V30 3750 H 378.484 2.80752 4.24329 0
M  V30 3751 H 377.882 -0.0423528 5.65684 0
M  V30 3752 H 376.439 0.335614 6.50935 0
M  V30 3753 N 379.872 -1.04064 1.18357 0
M  V30 3754 C 380.802 -2.14001 0.934113 0
M  V30 3755 C 381.783 -1.69616 -0.128186 0
M  V30 3756 O 382.968 -1.94185 0.0244093 0
M  V30 3757 C 380.098 -3.44253 0.459066 0
M  V30 3758 C 379.052 -4.02261 1.46185 0
M  V30 3759 C 378.378 -5.27992 0.844322 0
M  V30 3760 C 379.678 -4.38432 2.83856 0
M  V30 3761 H 381.372 -2.35127 1.85352 0
M  V30 3762 H 378.918 -1.12998 0.892604 0
M  V30 3763 H 380.871 -4.20522 0.271907 0
M  V30 3764 H 379.595 -3.22813 -0.495912 0
M  V30 3765 H 378.254 -3.28074 1.63595 0
M  V30 3766 H 377.902 -5.02862 -0.117845 0
M  V30 3767 H 377.602 -5.67765 1.51384 0
M  V30 3768 H 379.126 -6.06938 0.667693 0
M  V30 3769 H 380.54 -5.05688 2.70098 0
M  V30 3770 H 378.937 -4.89254 3.47491 0
M  V30 3771 H 380.007 -3.4826 3.37406 0
M  V30 3772 N 381.35 -0.985608 -1.22978 0
M  V30 3773 C 382.596 -0.65836 -1.91816 0
M  V30 3774 C 382.929 0.806692 -1.76653 0
M  V30 3775 O 382.204 1.58252 -1.13078 0
M  V30 3776 C 382.487 -1.056 -3.44268 0
M  V30 3777 C 382.34 -2.57906 -3.68516 0
M  V30 3778 C 383.659 -0.603781 -4.35939 0
M  V30 3779 H 380.778 -0.24065 -0.696604 0
M  V30 3780 H 383.42 -1.22783 -1.44998 0
M  V30 3781 H 381.57 -0.571445 -3.84274 0
M  V30 3782 H 383.242 -3.13976 -3.3796 0
M  V30 3783 H 381.485 -3.00305 -3.13048 0
M  V30 3784 H 382.156 -2.80779 -4.75255 0
M  V30 3785 H 384.632 -1.01987 -4.03408 0
M  V30 3786 H 383.508 -0.910383 -5.41298 0
M  V30 3787 H 383.769 0.495761 -4.39312 0
M  V30 3788 N 382.828 1.3818 -0.7579 0
M  V30 3789 C 384.053 2.04827 -0.325679 0
M  V30 3790 C 384.478 1.56788 1.03919 0
M  V30 3791 O 383.836 0.721811 1.66312 0
M  V30 3792 C 383.884 3.58774 -0.362447 0
M  V30 3793 O 382.988 4.07372 0.642033 0
M  V30 3794 H 382.329 0.64833 -0.143402 0
M  V30 3795 H 384.859 1.7677 -1.03023 0
M  V30 3796 H 384.869 4.07434 -0.214844 0
M  V30 3797 H 383.544 3.93096 -1.35824 0
M  V30 3798 H 382.121 3.70068 0.458688 0
M  V30 3799 N 384.306 0.507319 1.49211 0
M  V30 3800 C 385.583 -0.0982702 1.95353 0
M  V30 3801 C 385.963 -1.53516 1.449 0
M  V30 3802 O 385.311 -2.18594 0.66551 0
M  V30 3803 C 385.521 -0.00440283 3.49 0
M  V30 3804 C 386.869 -0.175147 4.24239 0
M  V30 3805 O 387.893 -0.0792891 3.56112 0
M  V30 3806 O 386.752 -0.37276 5.45227 0
M  V30 3807 H 383.846 -0.0918236 0.821887 0
M  V30 3808 H 386.392 0.570307 1.5983 0
M  V30 3809 H 385.164 0.997402 3.78375 0
M  V30 3810 H 384.787 -0.712845 3.91158 0
M  V30 3811 N 385.784 -1.5574 0.241426 0
M  V30 3812 C 386.747 -2.19877 -0.647063 0
M  V30 3813 C 387.747 -1.16642 -1.10686 0
M  V30 3814 O 388.937 -1.41757 -1.01245 0
M  V30 3815 C 386.069 -2.83797 -1.88871 0
M  V30 3816 H 387.262 -2.99772 -0.087574 0
M  V30 3817 H 384.815 -1.56298 -0.00813574 0
M  V30 3818 H 385.55 -2.07824 -2.48957 0
M  V30 3819 H 385.335 -3.59414 -1.56728 0
M  V30 3820 H 386.825 -3.32898 -2.52129 0
M  V30 3821 N 387.262 0.0317525 -1.57568 0
M  V30 3822 C 388.225 1.01783 -2.0536 0
M  V30 3823 C 389.225 1.29203 -0.957253 0
M  V30 3824 O 390.415 1.24251 -1.22095 0
M  V30 3825 C 387.547 2.35137 -2.46827 0
M  V30 3826 H 388.74 0.605062 -2.93733 0
M  V30 3827 H 386.293 0.278514 -1.53799 0
M  V30 3828 H 387.028 2.81168 -1.61602 0
M  V30 3829 H 386.813 2.16566 -3.26866 0
M  V30 3830 H 388.303 3.05938 -2.84239 0
M  V30 3831 N 388.74 1.54641 0.303973 0
M  V30 3832 C 389.965 1.78092 1.06292 0
M  V30 3833 C 390.39 0.537342 1.80262 0
M  V30 3834 O 389.748 -0.511993 1.7392 0
M  V30 3835 C 389.796 2.98612 2.02147 0
M  V30 3836 O 388.9 2.71528 3.10397 0
M  V30 3837 H 388.241 0.589548 0.305497 0
M  V30 3838 H 390.771 2.01716 0.3423 0
M  V30 3839 H 390.781 3.265 2.44667 0
M  V30 3840 H 389.456 3.88785 1.47714 0
M  V30 3841 H 388.033 2.54648 2.72413 0
M  V30 3842 N 390.218 -0.567019 1.47046 0
M  V30 3843 C 391.148 -1.68482 1.61667 0
M  V30 3844 C 392.129 -1.6358 0.466418 0
M  V30 3845 O 393.314 -1.81354 0.694574 0
M  V30 3846 C 390.444 -3.07124 1.62148 0
M  V30 3847 C 389.398 -3.26867 2.76301 0
M  V30 3848 C 388.724 -4.66196 2.61849 0
M  V30 3849 C 390.024 -3.13186 4.17986 0
M  V30 3850 H 391.718 -1.56502 2.5524 0
M  V30 3851 H 389.264 -0.751486 1.22836 0
M  V30 3852 H 391.217 -3.8516 1.70968 0
M  V30 3853 H 389.941 -3.2004 0.651287 0
M  V30 3854 H 388.6 -2.51237 2.66975 0
M  V30 3855 H 388.248 -4.75898 1.62879 0
M  V30 3856 H 387.948 -4.80356 3.38425 0
M  V30 3857 H 389.472 -5.46379 2.72584 0
M  V30 3858 H 390.886 -3.81049 4.2834 0
M  V30 3859 H 389.283 -3.3886 4.95272 0
M  V30 3860 H 390.353 -2.10057 4.3704 0
M  V30 3861 N 391.696 -1.35014 -0.812953 0
M  V30 3862 C 392.644 -1.27435 -1.94585 0
M  V30 3863 C 393.638 -0.170494 -1.6854 0
M  V30 3864 O 394.844 -0.336085 -1.76835 0
M  V30 3865 H 391.219 -0.396144 -0.639198 0
M  V30 3866 H 393.19 -2.23158 -1.98098 0
M  V30 3867 C 391.939 -1.05677 -3.31252 0
M  V30 3868 H 391.262 -1.89853 -3.51846 0
M  V30 3869 H 392.702 -1.04413 -4.10943 0
M  V30 3870 C 391.161 0.239615 -3.36047 0
M  V30 3871 O 391.691 1.23759 -3.8216 0
M  V30 3872 N 389.897 0.276186 -2.89285 0
M  V30 3873 H 389.444 -0.53653 -2.51951 0
M  V30 3874 H 389.402 1.14332 -2.92875 0
M  V30 3875 N 393.175 1.03435 -1.18907 0
M  V30 3876 C 394.4 1.80919 -1.01406 0
M  V30 3877 C 394.825 1.83055 0.432721 0
M  V30 3878 O 394.183 1.25252 1.31079 0
M  V30 3879 C 394.231 3.24091 -1.58105 0
M  V30 3880 O 393.335 4.04434 -0.806669 0
M  V30 3881 H 392.676 0.558709 -0.358803 0
M  V30 3882 H 395.206 1.30223 -1.57807 0
M  V30 3883 H 395.216 3.74853 -1.61087 0
M  V30 3884 H 393.891 3.21851 -2.6341 0
M  V30 3885 H 392.468 3.63091 -0.849666 0
M  V30 3886 N 394.653 0.992116 1.22453 0
M  V30 3887 C 395.899 0.668523 1.91464 0
M  V30 3888 C 396.232 -0.797313 1.77078 0
M  V30 3889 O 395.507 -1.5765 1.13916 0
M  V30 3890 C 395.79 1.07424 3.43703 0
M  V30 3891 C 395.643 2.59857 3.67143 0
M  V30 3892 C 396.962 0.626891 4.35612 0
M  V30 3893 H 394.081 0.244341 0.695318 0
M  V30 3894 H 396.723 1.2355 1.44345 0
M  V30 3895 H 394.873 0.591816 3.83966 0
M  V30 3896 H 396.545 3.15764 3.3629 0
M  V30 3897 H 394.788 3.01961 3.11451 0
M  V30 3898 H 395.459 2.83296 4.73759 0
M  V30 3899 H 397.935 1.04125 4.02861 0
M  V30 3900 H 396.811 0.939076 5.40807 0
M  V30 3901 H 397.072 -0.472457 4.39568 0
M  V30 3902 N 396.131 -1.37776 0.765217 0
M  V30 3903 C 397.359 -2.04124 0.337767 0
M  V30 3904 C 397.774 -1.57715 -1.03785 0
M  V30 3905 O 397.131 -0.755447 -1.6613 0
M  V30 3906 C 397.182 -3.59658 0.364442 0
M  V30 3907 O 396.903 -4.04367 1.68579 0
M  V30 3908 C 398.404 -4.43236 -0.0754221 0
M  V30 3909 H 395.624 -0.655696 0.142491 0
M  V30 3910 H 398.168 -1.76238 1.03732 0
M  V30 3911 H 396.323 -3.86339 -0.286471 0
M  V30 3912 H 396.737 -4.98857 1.61993 0
M  V30 3913 H 398.211 -5.52 -0.00560067 0
M  V30 3914 H 398.688 -4.2455 -1.12491 0
M  V30 3915 H 399.294 -4.21767 0.547055 0
M  V30 3916 N 397.609 -0.515225 -1.4894 0
M  V30 3917 C 398.519 0.259774 -2.33157 0
M  V30 3918 C 399.535 0.953501 -1.45548 0
M  V30 3919 O 400.711 0.931735 -1.78552 0
M  V30 3920 C 397.776 1.30193 -3.21326 0
M  V30 3921 C 396.837 0.620129 -4.24797 0
M  V30 3922 C 396.07 1.61263 -5.08753 0
M  V30 3923 O 396.293 2.84389 -4.94448 0
M  V30 3924 O 395.227 1.16013 -5.90614 0
M  V30 3925 H 399.053 -0.429932 -3.00641 0
M  V30 3926 H 396.638 -0.276346 -1.46822 0
M  V30 3927 H 398.52 1.90455 -3.75905 0
M  V30 3928 H 397.195 1.97431 -2.56521 0
M  V30 3929 H 396.102 -0.0226019 -3.74093 0
M  V30 3930 H 397.435 -0.0100493 -4.92199 0
M  V30 3931 N 399.087 1.5561 -0.249682 0
M  V30 3932 C 400.05 2.20217 0.635394 0
M  V30 3933 C 401.05 1.17227 1.10066 0
M  V30 3934 O 402.24 1.42292 1.00492 0
M  V30 3935 C 399.372 2.84794 1.87363 0
M  V30 3936 H 400.565 2.99814 0.0716752 0
M  V30 3937 H 398.118 1.563 -0.000153234 0
M  V30 3938 H 398.853 2.09142 2.47851 0
M  V30 3939 H 398.638 3.60241 1.5482 0
M  V30 3940 H 400.128 3.3423 2.5036 0
M  V30 3941 N 400.565 -0.0233959 1.57583 0
M  V30 3942 C 401.513 -1.04063 2.08023 0
M  V30 3943 C 402.507 -1.37084 0.995204 0
M  V30 3944 O 403.713 -1.35923 1.18004 0
M  V30 3945 H 400.088 -0.353144 0.663922 0
M  V30 3946 H 402.059 -0.589453 2.9252 0
M  V30 3947 C 400.808 -2.33123 2.57971 0
M  V30 3948 H 400.131 -2.08577 3.4108 0
M  V30 3949 H 401.571 -3.02632 2.96967 0
M  V30 3950 C 400.03 -3.02483 1.48342 0
M  V30 3951 O 400.56 -3.92541 0.852898 0
M  V30 3952 N 398.766 -2.63909 1.21658 0
M  V30 3953 H 398.313 -1.90758 1.73116 0
M  V30 3954 H 398.271 -3.10633 0.485218 0
M  V30 3955 N 402.043 -1.548 -0.295768 0
M  V30 3956 C 402.975 -1.82492 -1.3867 0
M  V30 3957 C 403.988 -0.708134 -1.46592 0
M  V30 3958 O 405.177 -0.985686 -1.48817 0
M  V30 3959 C 402.277 -1.95256 -2.76999 0
M  V30 3960 C 401.45 -3.25709 -2.91946 0
M  V30 3961 C 400.509 -3.28824 -4.10806 0
M  V30 3962 O 399.535 -4.02328 -4.02643 0
M  V30 3963 N 400.737 -2.5459 -5.21694 0
M  V30 3964 H 403.502 -2.76646 -1.15269 0
M  V30 3965 H 401.063 -1.54438 -0.485849 0
M  V30 3966 H 403.055 -1.94736 -3.54768 0
M  V30 3967 H 401.625 -1.08072 -2.93324 0
M  V30 3968 H 400.845 -3.38959 -2.01247 0
M  V30 3969 H 402.133 -4.11786 -2.98847 0
M  V30 3970 H 401.531 -1.94512 -5.31208 0
M  V30 3971 H 400.088 -2.59818 -5.97778 0
M  V30 3972 N 403.521 0.559213 -1.47345 0
M  V30 3973 C 404.453 1.68161 -1.55738 0
M  V30 3974 C 405.466 1.56636 -0.443744 0
M  V30 3975 O 406.655 1.6363 -0.713258 0
M  V30 3976 C 403.755 3.06611 -1.4437 0
M  V30 3977 C 402.928 3.4391 -2.70268 0
M  V30 3978 C 401.987 4.61515 -2.52765 0
M  V30 3979 O 401.013 4.66197 -3.26572 0
M  V30 3980 N 402.215 5.57883 -1.6046 0
M  V30 3981 H 404.98 1.61408 -2.52522 0
M  V30 3982 H 402.541 0.7458 -1.43699 0
M  V30 3983 H 404.533 3.83117 -1.30398 0
M  V30 3984 H 403.103 3.07602 -0.556766 0
M  V30 3985 H 402.323 2.56873 -2.99015 0
M  V30 3986 H 403.611 3.65605 -3.53851 0
M  V30 3987 H 403.009 5.56855 -0.996422 0
M  V30 3988 H 401.566 6.33723 -1.52441 0
M  V30 3989 N 404.999 1.35443 0.805782 0
M  V30 3990 C 405.946 1.28431 1.91766 0
M  V30 3991 C 406.916 0.156102 1.65365 0
M  V30 3992 O 408.101 0.339936 1.87747 0
M  V30 3993 C 405.241 1.06301 3.2832 0
M  V30 3994 C 404.354 2.2805 3.66902 0
M  V30 3995 C 403.489 1.99064 4.92491 0
M  V30 3996 C 402.528 3.16863 5.23703 0
M  V30 3997 N 401.665 2.87647 6.40471 0
M  V30 3998 H 406.505 2.23511 1.97096 0
M  V30 3999 H 404.042 1.11105 0.964054 0
M  V30 4000 H 406 0.915012 4.07042 0
M  V30 4001 H 404.63 0.148822 3.22457 0
M  V30 4002 H 403.682 2.53711 2.83434 0
M  V30 4003 H 404.994 3.1601 3.85927 0
M  V30 4004 H 404.148 1.81099 5.7904 0
M  V30 4005 H 402.887 1.0839 4.75503 0
M  V30 4006 H 401.892 3.35404 4.35642 0
M  V30 4007 H 403.117 4.08339 5.4262 0
M  V30 4008 H 401.063 1.99568 6.24907 0
M  V30 4009 H 400.98 3.69141 6.59751 0
M  V30 4010 H 402.248 2.73226 7.30047 0
M  V30 4011 N 406.477 -1.02803 1.19454 0
M  V30 4012 C 407.888 -1.57667 0.999899 0
M  V30 4013 C 408.239 -1.91041 -0.446956 0
M  V30 4014 O 407.364 -1.70978 -1.32648 0
M  V30 4015 C 407.959 -2.86477 1.80877 0
M  V30 4016 C 406.518 -3.37911 1.65811 0
M  V30 4017 C 405.665 -2.11343 1.79526 0
M  V30 4018 H 408.616 -0.853214 1.33813 0
M  V30 4019 H 408.637 -3.57408 1.30536 0
M  V30 4020 H 408.149 -2.62155 2.86175 0
M  V30 4021 H 406.25 -3.67218 0.63102 0
M  V30 4022 H 406.363 -4.10885 2.46395 0
M  V30 4023 H 404.727 -2.23254 1.22596 0
M  V30 4024 H 405.51 -1.89461 2.86285 0
M  V30 4025 N 407.956 -0.998596 -1.21925 0
M  V30 4026 C 408.886 -0.573688 -2.26343 0
M  V30 4027 C 409.867 0.402296 -1.65274 0
M  V30 4028 O 411.052 0.291683 -1.91997 0
M  V30 4029 C 408.182 0.106839 -3.47136 0
M  V30 4030 C 407.136 -0.788269 -4.20678 0
M  V30 4031 C 406.462 0.0254927 -5.34694 0
M  V30 4032 C 407.762 -2.08784 -4.78755 0
M  V30 4033 H 409.456 -1.44651 -2.62138 0
M  V30 4034 H 407.002 -0.696975 -1.26009 0
M  V30 4035 H 408.955 0.415531 -4.19346 0
M  V30 4036 H 407.679 1.01424 -3.10452 0
M  V30 4037 H 406.338 -1.08069 -3.50309 0
M  V30 4038 H 405.986 0.933989 -4.94253 0
M  V30 4039 H 405.686 -0.570437 -5.84825 0
M  V30 4040 H 407.21 0.328147 -6.09718 0
M  V30 4041 H 408.624 -1.84272 -5.42878 0
M  V30 4042 H 407.021 -2.63307 -5.39249 0
M  V30 4043 H 408.091 -2.76284 -3.98491 0
M  V30 4044 N 409.434 1.37368 -0.772513 0
M  V30 4045 C 410.364 2.32856 -0.173304 0
M  V30 4046 C 411.345 1.55818 0.682262 0
M  V30 4047 O 412.53 1.84052 0.619566 0
M  V30 4048 C 409.66 3.40048 0.706007 0
M  V30 4049 C 408.614 4.27973 -0.0483144 0
M  V30 4050 C 407.94 5.26184 0.950491 0
M  V30 4051 C 409.24 5.07665 -1.22776 0
M  V30 4052 H 410.934 2.83217 -0.971002 0
M  V30 4053 H 408.48 1.3617 -0.468377 0
M  V30 4054 H 410.433 4.05827 1.13501 0
M  V30 4055 H 409.157 2.88214 1.53623 0
M  V30 4056 H 407.816 3.63726 -0.458107 0
M  V30 4057 H 407.464 4.7063 1.77529 0
M  V30 4058 H 407.164 5.85872 0.450314 0
M  V30 4059 H 408.688 5.94838 1.37842 0
M  V30 4060 H 410.102 5.66578 -0.875366 0
M  V30 4061 H 408.499 5.76681 -1.66007 0
M  V30 4062 H 409.569 4.40294 -2.03149 0
M  V30 4063 N 410.912 0.523116 1.48665 0
M  V30 4064 C 412.16 -0.0134497 2.02096 0
M  V30 4065 C 412.481 -1.35418 1.40311 0
M  V30 4066 O 411.751 -1.87543 0.566074 0
M  V30 4067 H 410.331 -0.00795915 0.746958 0
M  V30 4068 H 412.993 0.685388 1.82451 0
M  V30 4069 H 412.089 -0.126849 3.11842 0
M  V30 4070 N 412.39 -1.55475 0.257931 0
M  V30 4071 C 413.32 -2.24815 -0.630912 0
M  V30 4072 C 414.301 -1.23224 -1.17259 0
M  V30 4073 O 415.486 -1.51904 -1.20991 0
M  V30 4074 C 412.616 -2.95609 -1.82298 0
M  V30 4075 C 411.57 -4.03982 -1.41359 0
M  V30 4076 C 410.896 -4.6226 -2.68738 0
M  V30 4077 C 412.196 -5.19109 -0.57648 0
M  V30 4078 H 413.89 -2.99354 -0.0526878 0
M  V30 4079 H 411.436 -1.4398 -0.023901 0
M  V30 4080 H 413.389 -3.42822 -2.45054 0
M  V30 4081 H 412.113 -2.18577 -2.42676 0
M  V30 4082 H 410.772 -3.57555 -0.809324 0
M  V30 4083 H 410.42 -3.81915 -3.27338 0
M  V30 4084 H 410.12 -5.35424 -2.42065 0
M  V30 4085 H 411.644 -5.12212 -3.32372 0
M  V30 4086 H 413.058 -5.62479 -1.10861 0
M  V30 4087 H 411.455 -5.98729 -0.405351 0
M  V30 4088 H 412.525 -4.83174 0.408776 0
M  V30 4089 N 413.868 0.0150385 -1.57593 0
M  V30 4090 C 415.115 0.703001 -1.89906 0
M  V30 4091 C 415.443 1.74604 -0.856944 0
M  V30 4092 O 414.698 1.95197 0.140287 0
M  V30 4093 C 414.997 1.39686 -3.28972 0
M  V30 4094 C 414.663 0.488457 -4.48246 0
M  V30 4095 C 413.325 0.2383 -4.8061 0
M  V30 4096 C 415.677 -0.137881 -5.21018 0
M  V30 4097 C 413.005 -0.646738 -5.83125 0
M  V30 4098 C 415.357 -1.0107 -6.24474 0
M  V30 4099 C 414.021 -1.27019 -6.55303 0
M  V30 4100 H 413.291 0.257246 -0.694914 0
M  V30 4101 H 415.938 -0.037259 -1.91464 0
M  V30 4102 H 414.243 2.21079 -3.23468 0
M  V30 4103 H 415.94 1.93495 -3.51227 0
M  V30 4104 H 412.53 0.693593 -4.22951 0
M  V30 4105 H 416.714 0.0423953 -4.96282 0
M  V30 4106 H 411.97 -0.855937 -6.05379 0
M  V30 4107 H 416.144 -1.50247 -6.79999 0
M  V30 4108 H 413.771 -1.95769 -7.3456 0
M  V30 4109 N 415.346 1.54954 0.287554 0
M  V30 4110 C 416.309 1.86076 1.33823 0
M  V30 4111 C 417.309 0.734414 1.43049 0
M  V30 4112 O 418.499 1.00266 1.42452 0
M  V30 4113 C 415.631 2.05305 2.72144 0
M  V30 4114 H 416.824 2.79984 1.07465 0
M  V30 4115 H 414.377 1.47223 0.524902 0
M  V30 4116 H 415.112 1.1373 3.03704 0
M  V30 4117 H 414.897 2.873 2.66836 0
M  V30 4118 H 416.387 2.30706 3.48087 0
M  V30 4119 N 416.824 -0.551391 1.4764 0
M  V30 4120 C 418.101 -1.31229 1.45046 0
M  V30 4121 C 418.481 -2.10563 0.150527 0
M  V30 4122 O 417.829 -2.11374 -0.867956 0
M  V30 4123 C 418.039 -2.21189 2.69956 0
M  V30 4124 C 419.387 -2.82021 3.1741 0
M  V30 4125 O 420.411 -2.31488 2.70724 0
M  V30 4126 O 419.27 -3.73885 3.98588 0
M  V30 4127 H 416.364 -0.591193 0.578291 0
M  V30 4128 H 418.91 -0.569813 1.59847 0
M  V30 4129 H 417.682 -1.62207 3.56096 0
M  V30 4130 H 417.305 -3.02722 2.57769 0
M  V30 4131 N 418.302 -1.35869 -0.798587 0
M  V30 4132 C 419.55 -1.29332 -1.55298 0
M  V30 4133 C 419.871 0.129729 -1.94568 0
M  V30 4134 O 419.141 1.06796 -1.6423 0
M  V30 4135 H 417.721 -0.475737 -0.57592 0
M  V30 4136 H 420.383 -1.70062 -0.952093 0
M  V30 4137 H 419.479 -1.91458 -2.46476 0
M  V30 4138 N 419.78 1.02168 -1.19998 0
M  V30 4139 C 420.728 2.12717 -0.940967 0
M  V30 4140 C 421.722 1.69069 0.105841 0
M  V30 4141 O 422.928 1.79946 -0.0440583 0
M  V30 4142 H 419.303 0.695108 -0.28693 0
M  V30 4143 H 421.274 2.3175 -1.87975 0
M  V30 4144 C 420.023 3.44027 -0.504049 0
M  V30 4145 H 419.346 3.78036 -1.30112 0
M  V30 4146 H 420.786 4.22452 -0.361991 0
M  V30 4147 C 419.245 3.27678 0.782878 0
M  V30 4148 O 419.775 3.56949 1.84256 0
M  V30 4149 N 417.981 2.80943 0.742921 0
M  V30 4150 H 417.528 2.57322 -0.119687 0
M  V30 4151 H 417.486 2.70385 1.60435 0
M  V30 4152 N 421.258 1.00505 1.21394 0
M  V30 4153 C 422.191 0.51032 2.22421 0
M  V30 4154 C 423.169 -0.436 1.56645 0
M  V30 4155 O 424.353 -0.358709 1.85055 0
M  V30 4156 C 421.48 -0.258733 3.3771 0
M  V30 4157 C 420.526 0.635395 4.2174 0
M  V30 4158 S 421.359 2.09783 4.92698 0
M  V30 4159 C 422.515 1.33862 6.11418 0
M  V30 4160 H 422.748 1.36637 2.64041 0
M  V30 4161 H 420.281 0.812991 1.31262 0
M  V30 4162 H 422.239 -0.696372 4.0455 0
M  V30 4163 H 420.9 -1.0902 2.94573 0
M  V30 4164 H 420.093 0.0430189 5.03982 0
M  V30 4165 H 419.695 1.01031 3.60095 0
M  V30 4166 H 421.987 0.612541 6.74725 0
M  V30 4167 H 422.93 2.13675 6.75092 0
M  V30 4168 H 423.338 0.846568 5.58116 0
M  V30 4169 N 422.737 -1.36956 0.779787 0
M  V30 4170 C 424.148 -1.82094 0.412156 0
M  V30 4171 C 424.499 -1.64926 -1.06273 0
M  V30 4172 O 423.624 -1.16483 -1.82375 0
M  V30 4173 C 424.219 -3.3059 0.741319 0
M  V30 4174 C 422.778 -3.73974 0.426641 0
M  V30 4175 C 421.925 -2.59368 0.980987 0
M  V30 4176 H 424.876 -1.25314 0.973758 0
M  V30 4177 H 424.897 -3.80489 0.028887 0
M  V30 4178 H 424.409 -3.43054 1.81482 0
M  V30 4179 H 422.51 -3.67076 -0.639215 0
M  V30 4180 H 422.623 -4.69778 0.940515 0
M  V30 4181 H 420.987 -2.51463 0.404757 0
M  V30 4182 H 421.77 -2.74621 2.06005 0
M  V30 4183 N 424.215 -0.530993 -1.48385 0
M  V30 4184 C 425.461 0.00274135 -2.028 0
M  V30 4185 C 425.794 1.33838 -1.40716 0
M  V30 4186 O 425.069 1.86465 -0.553277 0
M  V30 4187 C 425.352 0.123676 -3.59888 0
M  V30 4188 C 425.205 -1.2372 -4.3245 0
M  V30 4189 C 426.524 0.849967 -4.31814 0
M  V30 4190 H 423.643 -0.000477758 -0.737 0
M  V30 4191 H 426.285 -0.688217 -1.77098 0
M  V30 4192 H 424.435 0.712157 -3.81917 0
M  V30 4193 H 426.107 -1.86687 -4.21836 0
M  V30 4194 H 424.35 -1.81882 -3.93829 0
M  V30 4195 H 425.021 -1.10557 -5.40815 0
M  V30 4196 H 427.497 0.350572 -4.14621 0
M  V30 4197 H 426.373 0.903486 -5.41413 0
M  V30 4198 H 426.634 1.90047 -3.99167 0
M  V30 4199 N 425.693 1.55336 -0.266172 0
M  V30 4200 C 427.109 1.59356 0.0882065 0
M  V30 4201 C 427.309 1.2834 1.55342 0
M  V30 4202 O 426.365 1.03996 2.30089 0
M  V30 4203 C 427.678 2.99409 -0.278364 0
M  V30 4204 C 429.226 3.12196 -0.224243 0
M  V30 4205 C 429.701 4.545 -0.565123 0
M  V30 4206 N 431.192 4.60313 -0.51634 0
M  V30 4207 C 431.927 5.68434 -0.753013 0
M  V30 4208 N 431.423 6.84738 -1.05383 0
M  V30 4209 N 433.216 5.57942 -0.682414 0
M  V30 4210 H 425.367 1.73764 -1.22147 0
M  V30 4211 H 427.63 0.809822 -0.492841 0
M  V30 4212 H 427.336 3.2691 -1.29703 0
M  V30 4213 H 427.21 3.75228 0.385186 0
M  V30 4214 H 429.597 2.84464 0.78512 0
M  V30 4215 H 429.678 2.38609 -0.921922 0
M  V30 4216 H 429.322 4.82956 -1.57213 0
M  V30 4217 H 429.252 5.26374 0.154248 0
M  V30 4218 H 431.743 3.7676 -0.29335 0
M  V30 4219 H 432.056 7.63088 -1.22133 0
M  V30 4220 H 430.401 6.86375 -1.09151 0
M  V30 4221 H 433.592 4.65958 -0.44731 0
M  V30 4222 H 433.765 6.4213 -0.870248 0
M  V30 4223 N 427.171 -0.0066808 1.57599 0
M  V30 4224 C 428.417 -0.68835 1.91398 0
M  V30 4225 C 428.772 -1.7175 0.86716 0
M  V30 4226 O 428.065 -1.91215 -0.121475 0
M  V30 4227 C 428.259 -1.37939 3.29708 0
M  V30 4228 C 428.088 -0.418689 4.47747 0
M  V30 4229 C 426.858 -0.031526 5.0529 0
M  V30 4230 C 429.056 0.312301 5.13351 0
M  V30 4231 N 427.038 0.928088 6.06844 0
M  V30 4232 C 428.409 1.12682 6.09674 0
M  V30 4233 C 430.464 0.376853 4.96472 0
M  V30 4234 C 429.167 2 6.90936 0
M  V30 4235 C 431.193 1.23723 5.78314 0
M  V30 4236 C 430.555 2.03962 6.74225 0
M  V30 4237 H 426.654 -0.225292 0.748844 0
M  V30 4238 H 429.238 0.0520973 1.9463 0
M  V30 4239 H 427.409 -2.09017 3.27363 0
M  V30 4240 H 429.141 -2.01522 3.50957 0
M  V30 4241 H 425.896 -0.398485 4.71921 0
M  V30 4242 H 426.32 1.40307 6.62301 0
M  V30 4243 H 430.962 -0.22921 4.22178 0
M  V30 4244 H 428.68 2.61676 7.64559 0
M  V30 4245 H 432.266 1.291 5.67296 0
M  V30 4246 H 431.146 2.69461 7.36451 0
M  V30 4247 N 428.649 -1.55105 -0.279332 0
M  V30 4248 C 429.579 -1.90557 -1.34945 0
M  V30 4249 C 430.56 -0.766738 -1.51839 0
M  V30 4250 O 431.745 -1.02434 -1.64988 0
M  V30 4251 C 428.875 -2.17193 -2.71006 0
M  V30 4252 C 427.829 -3.33021 -2.68851 0
M  V30 4253 C 427.155 -3.45123 -4.08405 0
M  V30 4254 C 428.455 -4.69578 -2.28678 0
M  V30 4255 H 430.149 -2.80188 -1.05522 0
M  V30 4256 H 427.695 -1.34811 -0.506173 0
M  V30 4257 H 429.648 -2.40581 -3.45975 0
M  V30 4258 H 428.372 -1.24355 -3.01999 0
M  V30 4259 H 427.031 -3.0959 -1.9634 0
M  V30 4260 H 426.679 -2.49762 -4.3661 0
M  V30 4261 H 426.379 -4.22995 -4.07859 0
M  V30 4262 H 427.903 -3.70796 -4.85121 0
M  V30 4263 H 429.317 -4.92553 -2.93368 0
M  V30 4264 H 427.714 -5.5032 -2.39306 0
M  V30 4265 H 428.784 -4.68828 -1.23807 0
M  V30 4266 N 430.127 0.543554 -1.4793 0
M  V30 4267 C 431.375 1.29752 -1.54948 0
M  V30 4268 C 431.696 1.93764 -0.219242 0
M  V30 4269 O 430.966 1.80639 0.75805 0
M  V30 4270 H 429.546 0.481874 -0.570795 0
M  V30 4271 H 432.208 0.633636 -1.84312 0
M  V30 4272 H 431.304 2.08392 -2.32334 0
M  V30 4273 N 431.605 1.3629 0.791371 0
M  V30 4274 C 433.016 1.27225 1.36641 0
M  V30 4275 C 433.367 -0.0887968 1.95999 0
M  V30 4276 O 432.492 -0.990207 1.92416 0
M  V30 4277 C 433.087 2.30375 2.48421 0
M  V30 4278 C 431.646 2.25004 3.01746 0
M  V30 4279 C 430.793 2.15259 1.7481 0
M  V30 4280 H 433.744 1.47198 0.593173 0
M  V30 4281 H 433.765 1.93905 3.27385 0
M  V30 4282 H 433.277 3.29422 2.05189 0
M  V30 4283 H 431.378 1.29417 3.49403 0
M  V30 4284 H 431.491 3.1761 3.58693 0
M  V30 4285 H 429.855 1.61482 1.96966 0
M  V30 4286 H 430.638 3.16191 1.33709 0
M  V30 4287 N 433.083 -1.0153 1.20538 0
M  V30 4288 C 434.03 -2.10098 0.955383 0
M  V30 4289 C 435 -1.65702 -0.114878 0
M  V30 4290 O 436.185 -1.90776 0.0301118 0
M  V30 4291 C 433.325 -3.41236 0.514969 0
M  V30 4292 C 432.438 -3.99102 1.65353 0
M  V30 4293 C 431.573 -5.18306 1.16329 0
M  V30 4294 C 430.612 -5.68258 2.27485 0
M  V30 4295 N 429.749 -6.78722 1.7967 0
M  V30 4296 H 434.589 -2.30818 1.88486 0
M  V30 4297 H 432.126 -1.13189 0.939499 0
M  V30 4298 H 434.084 -4.16504 0.240935 0
M  V30 4299 H 432.714 -3.20585 -0.377512 0
M  V30 4300 H 431.766 -3.20918 2.04245 0
M  V30 4301 H 433.078 -4.32177 2.49047 0
M  V30 4302 H 432.232 -6.00782 0.845302 0
M  V30 4303 H 430.971 -4.86799 0.296254 0
M  V30 4304 H 429.976 -4.84385 2.60099 0
M  V30 4305 H 431.201 -6.01798 3.14667 0
M  V30 4306 H 429.147 -6.49042 0.95295 0
M  V30 4307 H 429.064 -7.10996 2.56944 0
M  V30 4308 H 430.332 -7.64759 1.50875 0
M  V30 4309 N 434.561 -1.01147 -1.20859 0
M  V30 4310 C 435.524 -0.582224 -2.21682 0
M  V30 4311 C 436.524 0.344887 -1.57058 0
M  V30 4312 O 437.714 0.134281 -1.73682 0
M  V30 4313 C 434.846 0.150496 -3.40568 0
M  V30 4314 H 436.039 -1.47408 -2.61172 0
M  V30 4315 H 433.592 -0.800695 -1.34233 0
M  V30 4316 H 434.327 1.0575 -3.06574 0
M  V30 4317 H 434.112 -0.515444 -3.88697 0
M  V30 4318 H 435.602 0.438344 -4.15293 0
M  V30 4319 N 436.039 1.36541 -0.78704 0
M  V30 4320 C 437.267 2.03561 -0.370199 0
M  V30 4321 C 437.682 1.59347 1.01263 0
M  V30 4322 O 437.039 0.781781 1.64907 0
M  V30 4323 C 437.09 3.59033 -0.421614 0
M  V30 4324 O 436.811 4.01634 -1.7499 0
M  V30 4325 C 438.312 4.433 0.00489763 0
M  V30 4326 H 435.532 0.653346 -0.152904 0
M  V30 4327 H 438.076 1.74566 -1.06522 0
M  V30 4328 H 436.231 3.86746 0.224971 0
M  V30 4329 H 436.645 4.96217 -1.69909 0
M  V30 4330 H 438.119 5.51939 -0.0822184 0
M  V30 4331 H 438.596 4.26285 1.05723 0
M  V30 4332 H 439.202 4.20843 -0.614085 0
M  V30 4333 N 437.518 0.538854 1.48102 0
M  V30 4334 C 438.748 0.0122958 2.06596 0
M  V30 4335 C 439.156 -1.27861 1.39457 0
M  V30 4336 O 438.499 -1.77348 0.478907 0
M  V30 4337 C 438.561 -0.273131 3.58461 0
M  V30 4338 C 438.225 0.92561 4.47528 0
M  V30 4339 C 439.222 1.82637 4.86765 0
M  V30 4340 C 436.907 1.13511 4.89306 0
M  V30 4341 C 438.901 2.92047 5.66558 0
M  V30 4342 C 436.588 2.23233 5.68868 0
M  V30 4343 C 437.586 3.12333 6.07402 0
M  V30 4344 O 437.274 4.20155 6.85365 0
M  V30 4345 H 437.006 0.0344283 0.675123 0
M  V30 4346 H 439.56 0.746494 1.91355 0
M  V30 4347 H 437.79 -1.06141 3.71848 0
M  V30 4348 H 439.479 -0.742842 3.99045 0
M  V30 4349 H 440.245 1.67649 4.55103 0
M  V30 4350 H 436.124 0.450835 4.5879 0
M  V30 4351 H 439.668 3.6162 5.96554 0
M  V30 4352 H 435.565 2.38201 5.99942 0
M  V30 4353 H 436.333 4.17975 7.03732 0
M  V30 4354 N 438.996 -1.55193 0.274407 0
M  V30 4355 C 439.946 -2.19184 -0.627882 0
M  V30 4356 C 440.93 -1.15625 -1.11892 0
M  V30 4357 O 442.122 -1.41441 -1.06411 0
M  V30 4358 C 439.251 -2.91591 -1.81189 0
M  V30 4359 C 438.337 -4.02438 -1.33807 0
M  V30 4360 N 438.728 -5.0246 -0.580349 0
M  V30 4361 C 437.026 -4.15496 -1.62109 0
M  V30 4362 C 437.727 -5.80756 -0.331344 0
M  V30 4363 N 436.703 -5.36038 -0.903556 0
M  V30 4364 H 440.505 -2.93871 -0.0411216 0
M  V30 4365 H 438.019 -1.62213 0.0779348 0
M  V30 4366 H 440.016 -3.35883 -2.46957 0
M  V30 4367 H 438.676 -2.18414 -2.40261 0
M  V30 4368 H 439.687 -5.17399 -0.227762 0
M  V30 4369 H 436.364 -3.53509 -2.22121 0
M  V30 4370 H 437.754 -6.71335 0.275454 0
M  V30 4371 N 440.474 -0.00167713 -1.576 0
M  V30 4372 C 441.722 0.681471 -1.90264 0
M  V30 4373 C 442.043 1.7422 -0.875924 0
M  V30 4374 O 441.313 1.95709 0.0864412 0
M  V30 4375 H 439.893 0.254696 -0.702239 0
M  V30 4376 H 442.555 -0.0429996 -1.94853 0
M  V30 4377 H 441.651 1.15166 -2.90075 0
M  V30 4378 N 441.952 1.55251 0.271103 0
M  V30 4379 C 442.9 1.89054 1.35504 0
M  V30 4380 C 443.894 0.767064 1.51038 0
M  V30 4381 O 445.1 0.951429 1.528 0
M  V30 4382 H 441.475 0.600072 0.45323 0
M  V30 4383 H 443.446 2.79598 1.04247 0
M  V30 4384 C 442.195 2.18068 2.70817 0
M  V30 4385 H 441.518 3.04005 2.59656 0
M  V30 4386 H 442.958 2.4564 3.45597 0
M  V30 4387 C 441.417 0.988901 3.2206 0
M  V30 4388 O 441.947 0.224501 4.01072 0
M  V30 4389 N 440.153 0.786085 2.79766 0
M  V30 4390 H 439.7 1.40937 2.15626 0
M  V30 4391 H 439.658 -0.00969349 3.14399 0
M  V30 4392 N 443.43 -0.535701 1.48216 0
M  V30 4393 C 444.679 -1.28828 1.55197 0
M  V30 4394 C 444.992 -1.94263 0.228278 0
M  V30 4395 O 446.198 -2.70927 0.176278 0
M  V30 4396 C 444.654 -2.33727 2.73678 0
M  V30 4397 C 444.262 -1.74386 4.12666 0
M  V30 4398 C 446.006 -3.1003 2.89968 0
M  V30 4399 C 443.913 -2.77192 5.22416 0
M  V30 4400 H 442.843 -0.484484 0.577747 0
M  V30 4401 H 445.494 -0.56646 1.74538 0
M  V30 4402 H 443.876 -3.08919 2.4776 0
M  V30 4403 H 445.05 -1.05421 4.48579 0
M  V30 4404 H 443.365 -1.10595 4.01445 0
M  V30 4405 H 445.962 -3.86842 3.6913 0
M  V30 4406 H 446.305 -3.65542 1.9921 0
M  V30 4407 H 446.838 -2.41952 3.15759 0
M  V30 4408 H 443.577 -2.26507 6.15122 0
M  V30 4409 H 443.097 -3.44502 4.90998 0
M  V30 4410 H 444.776 -3.40285 5.50286 0
M  V30 4411 N 444.908 -1.36708 -0.784132 0
M  V30 4412 C 446.185 -1.21776 -1.53069 0
M  V30 4413 C 446.565 0.193876 -2.10208 0
M  V30 4414 O 445.913 1.20012 -1.94446 0
M  V30 4415 C 446.123 -2.30395 -2.62143 0
M  V30 4416 C 447.471 -2.67325 -3.29882 0
M  V30 4417 O 448.495 -2.29478 -2.7243 0
M  V30 4418 O 447.354 -3.32485 -4.33724 0
M  V30 4419 H 444.448 -0.474459 -0.677361 0
M  V30 4420 H 446.994 -1.48454 -0.82216 0
M  V30 4421 H 445.766 -3.2498 -2.17953 0
M  V30 4422 H 445.389 -2.05112 -3.40609 0
M  V30 4423 N 446.386 1.0089 -1.21074 0
M  V30 4424 C 447.333 2.09588 -0.966512 0
M  V30 4425 C 448.303 1.65761 0.106089 0
M  V30 4426 O 449.488 1.90758 -0.0402287 0
M  V30 4427 C 446.628 3.40958 -0.533058 0
M  V30 4428 C 445.741 3.9822 -1.67467 0
M  V30 4429 C 444.876 5.17682 -1.19076 0
M  V30 4430 C 443.915 5.67043 -2.30496 0
M  V30 4431 N 443.052 6.77759 -1.83267 0
M  V30 4432 H 447.892 2.29815 -1.89708 0
M  V30 4433 H 445.429 1.12689 -0.945489 0
M  V30 4434 H 447.387 4.1637 -0.263019 0
M  V30 4435 H 446.017 3.20781 0.360505 0
M  V30 4436 H 445.069 3.1983 -2.05944 0
M  V30 4437 H 446.381 4.3085 -2.51336 0
M  V30 4438 H 445.535 6.00326 -0.877151 0
M  V30 4439 H 444.274 4.86635 -0.322066 0
M  V30 4440 H 443.279 4.82999 -2.62664 0
M  V30 4441 H 444.504 6.00121 -3.17855 0
M  V30 4442 H 442.45 6.48527 -0.987356 0
M  V30 4443 H 442.367 7.09624 -2.60711 0
M  V30 4444 H 443.635 7.63949 -1.54928 0
M  V30 4445 N 447.864 1.01787 1.20321 0
M  V30 4446 C 449.275 0.739307 1.71438 0
M  V30 4447 C 449.626 -0.742041 1.81627 0
M  V30 4448 O 448.751 -1.57903 1.47971 0
M  V30 4449 C 449.346 1.33538 3.11373 0
M  V30 4450 C 447.905 1.10566 3.59795 0
M  V30 4451 C 447.052 1.44028 2.36962 0
M  V30 4452 H 450.003 1.18718 1.05317 0
M  V30 4453 H 450.024 0.726611 3.73498 0
M  V30 4454 H 449.536 2.41352 3.03926 0
M  V30 4455 H 447.637 0.0452405 3.72573 0
M  V30 4456 H 447.75 1.78661 4.44542 0
M  V30 4457 H 446.114 0.85933 2.39766 0
M  V30 4458 H 446.897 2.52901 2.32155 0
M  V30 4459 N 449.342 -1.36122 0.79427 0
M  V30 4460 C 450.305 -2.28309 0.201889 0
M  V30 4461 C 451.305 -1.49041 -0.603603 0
M  V30 4462 O 452.495 -1.68964 -0.423888 0
M  V30 4463 C 449.627 -3.3321 -0.719978 0
M  V30 4464 H 450.82 -2.82208 1.01481 0
M  V30 4465 H 448.373 -1.45768 0.564037 0
M  V30 4466 H 449.108 -2.84475 -1.55706 0
M  V30 4467 H 448.893 -3.91835 -0.144266 0
M  V30 4468 H 450.383 -4.02044 -1.12916 0
M  V30 4469 N 450.82 -0.546701 -1.47814 0
M  V30 4470 C 452.066 -0.0187684 -2.02791 0
M  V30 4471 C 452.399 1.32338 -1.42128 0
M  V30 4472 O 451.674 1.85867 -0.573023 0
M  V30 4473 C 451.957 0.0854985 -3.59998 0
M  V30 4474 C 451.81 -1.283 -4.31114 0
M  V30 4475 C 453.129 0.80412 -4.32691 0
M  V30 4476 H 450.248 -0.0082946 -0.736953 0
M  V30 4477 H 452.89 -0.706962 -1.76358 0
M  V30 4478 H 451.04 0.671609 -3.82651 0
M  V30 4479 H 452.712 -1.91151 -4.19832 0
M  V30 4480 H 450.955 -1.86049 -3.91878 0
M  V30 4481 H 451.626 -1.16287 -5.39612 0
M  V30 4482 H 454.102 0.306576 -4.14969 0
M  V30 4483 H 452.978 0.846011 -5.42341 0
M  V30 4484 H 453.239 1.85802 -4.01161 0
M  V30 4485 N 452.299 1.55045 -0.282633 0
M  V30 4486 C 453.527 2.04168 0.33512 0
M  V30 4487 C 453.942 1.16071 1.48906 0
M  V30 4488 O 453.299 0.182391 1.81586 0
M  V30 4489 C 453.35 3.52332 0.808957 0
M  V30 4490 O 453.071 4.37078 -0.299038 0
M  V30 4491 C 454.572 4.17375 1.49375 0
M  V30 4492 H 451.792 0.666744 0.0754543 0
M  V30 4493 H 454.336 2.00205 -0.416918 0
M  V30 4494 H 452.491 3.56715 1.51106 0
M  V30 4495 H 452.905 5.24458 0.0665514 0
M  V30 4496 H 454.379 5.22627 1.77664 0
M  V30 4497 H 454.856 3.65999 2.42778 0
M  V30 4498 H 455.462 4.17016 0.835305 0
M  V30 4499 N 453.777 0.010035 1.57597 0
M  V30 4500 C 455.017 -0.677084 1.9286 0
M  V30 4501 C 455.381 -1.70377 0.885192 0
M  V30 4502 O 456.582 -2.44199 1.12339 0
M  V30 4503 C 454.853 -1.29452 3.33132 0
M  V30 4504 S 456.412 -2.00537 3.90295 0
M  V30 4505 H 453.23 -0.223409 0.674989 0
M  V30 4506 H 455.832 0.0691289 1.95378 0
M  V30 4507 H 454.536 -0.534593 4.06903 0
M  V30 4508 H 454.067 -2.07845 3.34012 0
M  V30 4509 H 456.082 -3.28168 3.72183 0
M  V30 4510 N 455.255 -1.55392 -0.262866 0
M  V30 4511 C 456.483 -1.80513 -1.01108 0
M  V30 4512 C 456.898 -0.583533 -1.79556 0
M  V30 4513 O 456.255 0.447585 -1.76926 0
M  V30 4514 C 456.306 -3.03648 -1.96164 0
M  V30 4515 O 456.027 -4.2109 -1.20893 0
M  V30 4516 C 457.528 -3.41448 -2.82715 0
M  V30 4517 H 454.748 -0.601079 -0.298236 0
M  V30 4518 H 457.292 -2.02425 -0.290582 0
M  V30 4519 H 455.447 -2.83832 -2.63663 0
M  V30 4520 H 455.861 -4.90771 -1.85051 0
M  V30 4521 H 457.335 -4.30751 -3.45192 0
M  V30 4522 H 457.812 -2.61308 -3.53008 0
M  V30 4523 H 458.418 -3.63559 -2.20693 0
M  V30 4524 N 456.733 0.527833 -1.48498 0
M  V30 4525 C 458.144 1.10975 -1.50138 0
M  V30 4526 C 458.495 1.943 -0.272378 0
M  V30 4527 O 457.62 2.07319 0.620301 0
M  V30 4528 C 458.215 2.01927 -2.72049 0
M  V30 4529 C 456.774 2.55332 -2.76554 0
M  V30 4530 C 455.921 1.32341 -2.43683 0
M  V30 4531 H 458.872 0.312986 -1.55583 0
M  V30 4532 H 458.893 2.86244 -2.50689 0
M  V30 4533 H 458.405 1.41254 -3.61481 0
M  V30 4534 H 456.506 3.19721 -1.91336 0
M  V30 4535 H 456.619 2.94319 -3.78038 0
M  V30 4536 H 454.983 1.63989 -1.94884 0
M  V30 4537 H 455.766 0.734165 -3.35358 0
M  V30 4538 N 458.211 1.37122 0.776871 0
M  V30 4539 C 459.159 1.32549 1.91138 0
M  V30 4540 C 460.153 0.215119 1.68029 0
M  V30 4541 O 461.359 0.382852 1.75881 0
M  V30 4542 H 457.734 0.412952 0.62847 0
M  V30 4543 H 459.705 2.28332 1.92112 0
M  V30 4544 C 458.454 1.14422 3.28333 0
M  V30 4545 H 457.777 1.99115 3.46689 0
M  V30 4546 H 459.217 1.15272 4.0803 0
M  V30 4547 C 457.676 -0.150434 3.36564 0
M  V30 4548 O 458.206 -1.13584 3.85307 0
M  V30 4549 N 456.412 -0.19939 2.89915 0
M  V30 4550 H 455.959 0.603142 2.5044 0
M  V30 4551 H 455.917 -1.06526 2.95803 0
M  V30 4552 N 459.689 -1.00246 1.21608 0
M  V30 4553 C 461.1 -1.55511 1.03312 0
M  V30 4554 C 461.451 -1.91946 -0.406332 0
M  V30 4555 O 460.576 -1.73753 -1.28992 0
M  V30 4556 C 461.171 -2.82576 1.86913 0
M  V30 4557 C 459.73 -3.34318 1.72941 0
M  V30 4558 C 458.877 -2.07487 1.83968 0
M  V30 4559 H 461.828 -0.824638 1.35593 0
M  V30 4560 H 461.849 -3.54559 1.38087 0
M  V30 4561 H 461.361 -2.56026 2.91672 0
M  V30 4562 H 459.462 -3.65797 0.70877 0
M  V30 4563 H 459.575 -4.05566 2.55055 0
M  V30 4564 H 457.939 -2.20603 1.27304 0
M  V30 4565 H 458.722 -1.83346 2.9024 0
M  V30 4566 N 461.167 -1.02423 -1.1978 0
M  V30 4567 C 462.099 -0.559152 -2.22275 0
M  V30 4568 C 463.112 0.36251 -1.58713 0
M  V30 4569 O 464.301 0.159641 -1.77785 0
M  V30 4570 C 461.401 0.205094 -3.38279 0
M  V30 4571 C 460.574 -0.720361 -4.31427 0
M  V30 4572 C 459.633 -0.00234368 -5.262 0
M  V30 4573 O 458.659 -0.627378 -5.65732 0
M  V30 4574 N 459.861 1.26996 -5.66438 0
M  V30 4575 H 462.626 -1.44064 -2.62804 0
M  V30 4576 H 460.187 -0.902692 -1.34399 0
M  V30 4577 H 462.179 0.694868 -3.9869 0
M  V30 4578 H 460.749 0.987947 -2.96578 0
M  V30 4579 H 459.969 -1.39031 -3.68869 0
M  V30 4580 H 461.257 -1.3495 -4.90577 0
M  V30 4581 H 460.655 1.79858 -5.36347 0
M  V30 4582 H 459.212 1.70432 -6.29123 0
M  V30 4583 N 462.645 1.35699 -0.801477 0
M  V30 4584 C 464.061 1.52065 -0.484596 0
M  V30 4585 C 464.261 1.75215 0.995084 0
M  V30 4586 O 463.317 1.79061 1.78026 0
M  V30 4587 C 464.63 2.69908 -1.32552 0
M  V30 4588 C 466.178 2.83784 -1.32044 0
M  V30 4589 C 466.653 4.04646 -2.14536 0
M  V30 4590 N 468.144 4.11814 -2.12046 0
M  V30 4591 C 468.879 5.04437 -2.72636 0
M  V30 4592 N 468.375 6.02426 -3.42133 0
M  V30 4593 N 470.168 4.97144 -2.62305 0
M  V30 4594 H 462.319 1.18928 -1.75983 0
M  V30 4595 H 464.582 0.581455 -0.748741 0
M  V30 4596 H 464.288 2.59363 -2.37537 0
M  V30 4597 H 464.162 3.64376 -0.975181 0
M  V30 4598 H 466.549 2.93783 -0.27846 0
M  V30 4599 H 466.63 1.90188 -1.71062 0
M  V30 4600 H 466.274 3.95407 -3.18772 0
M  V30 4601 H 466.204 4.97413 -1.72882 0
M  V30 4602 H 468.695 3.41664 -1.61476 0
M  V30 4603 H 469.008 6.69688 -3.85666 0
M  V30 4604 H 467.353 6.02615 -3.46237 0
M  V30 4605 H 470.544 4.19546 -2.07603 0
M  V30 4606 H 470.717 5.69138 -3.09815 0
M  V30 4607 N 464.123 0.554532 1.47522 0
M  V30 4608 C 465.071 -0.207765 2.3167 0
M  V30 4609 C 466.065 -0.911914 1.4276 0
M  V30 4610 O 467.271 -0.833504 1.59539 0
M  V30 4611 H 463.646 -0.0858726 0.747081 0
M  V30 4612 H 465.617 0.521178 2.93813 0
M  V30 4613 C 464.366 -1.2263 3.25357 0
M  V30 4614 H 463.689 -0.693887 3.93732 0
M  V30 4615 H 465.129 -1.73062 3.87073 0
M  V30 4616 C 463.588 -2.27278 2.4869 0
M  V30 4617 O 464.118 -3.34156 2.22941 0
M  V30 4618 N 462.324 -2.01134 2.09746 0
M  V30 4619 H 461.871 -1.14232 2.30887 0
M  V30 4620 H 461.829 -2.71369 1.58765 0
M  V30 4621 N 465.601 -1.54893 0.290851 0
M  V30 4622 C 466.878 -1.91991 -0.373989 0
M  V30 4623 C 467.258 -1.21694 -1.72493 0
M  V30 4624 O 466.606 -0.34917 -2.25816 0
M  V30 4625 C 466.816 -3.45419 -0.498703 0
M  V30 4626 C 468.164 -4.1748 -0.774298 0
M  V30 4627 O 469.188 -3.51398 -0.582908 0
M  V30 4628 O 468.047 -5.3445 -1.14129 0
M  V30 4629 H 465.141 -0.800593 -0.207315 0
M  V30 4630 H 467.687 -1.66297 0.338164 0
M  V30 4631 H 466.459 -3.88688 0.451392 0
M  V30 4632 H 466.082 -3.77117 -1.25972 0
M  V30 4633 N 467.08 -0.0183926 -1.57589 0
M  V30 4634 C 468.305 0.676634 -1.96052 0
M  V30 4635 C 468.73 1.6548 -0.894307 0
M  V30 4636 O 468.088 1.80712 0.145849 0
M  V30 4637 C 468.136 1.36872 -3.33614 0
M  V30 4638 O 467.24 2.48372 -3.29219 0
M  V30 4639 H 466.581 0.1786 -0.63953 0
M  V30 4640 H 469.111 -0.077056 -2.04455 0
M  V30 4641 H 469.121 1.72797 -3.69601 0
M  V30 4642 H 467.796 0.651636 -4.10763 0
M  V30 4643 H 466.373 2.14639 -3.04934 0
M  V30 4644 N 468.558 1.5553 0.254621 0
M  V30 4645 C 469.804 1.77262 0.985193 0
M  V30 4646 C 470.137 0.582286 1.85265 0
M  V30 4647 O 469.412 -0.419666 1.89919 0
M  V30 4648 C 469.695 3.0881 1.85225 0
M  V30 4649 C 469.548 4.38233 1.0135 0
M  V30 4650 C 470.867 3.3653 2.83612 0
M  V30 4651 H 467.986 0.644906 0.356742 0
M  V30 4652 H 470.628 1.88264 0.256236 0
M  V30 4653 H 468.778 2.99562 2.47376 0
M  V30 4654 H 470.45 4.59463 0.411269 0
M  V30 4655 H 468.693 4.32636 0.317574 0
M  V30 4656 H 469.364 5.26644 1.65379 0
M  V30 4657 H 471.84 3.45691 2.31596 0
M  V30 4658 H 470.716 4.29805 3.41407 0
M  V30 4659 H 470.977 2.57064 3.59681 0
M  V30 4660 N 470.036 -0.519951 1.48776 0
M  V30 4661 C 471.447 -1.10177 1.50725 0
M  V30 4662 C 471.798 -1.94153 0.282678 0
M  V30 4663 O 470.923 -2.07645 -0.609298 0
M  V30 4664 C 471.518 -2.00482 2.73116 0
M  V30 4665 C 470.077 -2.53862 2.77905 0
M  V30 4666 C 469.224 -1.31047 2.44381 0
M  V30 4667 H 472.175 -0.30473 1.55747 0
M  V30 4668 H 472.196 -2.8491 2.52203 0
M  V30 4669 H 471.708 -1.39335 3.62225 0
M  V30 4670 H 469.809 -3.18702 1.93029 0
M  V30 4671 H 469.922 -2.9231 3.79594 0
M  V30 4672 H 468.286 -1.62953 1.95751 0
M  V30 4673 H 469.069 -0.71637 3.35743 0
M  V30 4674 N 471.514 -1.37532 -0.769588 0
M  V30 4675 C 472.742 -1.36059 -1.55871 0
M  V30 4676 C 473.157 0.053544 -1.88724 0
M  V30 4677 O 472.514 1.01591 -1.5161 0
M  V30 4678 C 472.565 -2.20107 -2.86767 0
M  V30 4679 O 472.286 -3.56009 -2.55321 0
M  V30 4680 C 473.787 -2.26636 -3.80987 0
M  V30 4681 H 471.007 -0.465967 -0.482821 0
M  V30 4682 H 473.551 -1.80901 -0.953686 0
M  V30 4683 H 471.706 -1.78768 -3.43687 0
M  V30 4684 H 472.12 -4.0009 -3.39158 0
M  V30 4685 H 473.594 -2.89763 -4.69831 0
M  V30 4686 H 474.071 -1.2754 -4.20274 0
M  V30 4687 H 474.677 -2.68296 -3.29996 0
M  V30 4688 N 472.992 0.995999 -1.22138 0
M  V30 4689 C 473.922 2.10387 -1.01289 0
M  V30 4690 C 474.903 1.69975 0.0651454 0
M  V30 4691 O 476.088 1.9396 -0.0964628 0
M  V30 4692 C 473.218 3.42312 -0.586517 0
M  V30 4693 C 472.172 3.96558 -1.61014 0
M  V30 4694 C 471.498 5.24494 -1.0397 0
M  V30 4695 C 472.798 4.27595 -2.99933 0
M  V30 4696 H 474.492 2.28086 -1.93951 0
M  V30 4697 H 472.038 1.09607 -0.933928 0
M  V30 4698 H 473.991 4.19223 -0.427793 0
M  V30 4699 H 472.715 3.24431 0.375761 0
M  V30 4700 H 471.374 3.21776 -1.75658 0
M  V30 4701 H 471.022 5.02953 -0.0688703 0
M  V30 4702 H 470.722 5.61755 -1.72352 0
M  V30 4703 H 472.246 6.04042 -0.892494 0
M  V30 4704 H 473.66 4.95315 -2.8868 0
M  V30 4705 H 472.057 4.76021 -3.6541 0
M  V30 4706 H 473.127 3.35498 -3.50099 0
M  V30 4707 N 474.47 1.03057 1.19235 0
M  V30 4708 C 475.433 0.617418 2.20727 0
M  V30 4709 C 476.433 -0.319856 1.57587 0
M  V30 4710 O 477.623 -0.106633 1.73873 0
M  V30 4711 C 474.755 -0.096296 3.40764 0
M  V30 4712 H 475.948 1.51544 2.58794 0
M  V30 4713 H 473.501 0.821949 1.32942 0
M  V30 4714 H 474.236 -1.00859 3.08217 0
M  V30 4715 H 474.021 0.577217 3.87828 0
M  V30 4716 H 475.511 -0.372219 4.15938 0
M  V30 4717 N 475.948 -1.35272 0.808662 0
M  V30 4718 C 476.88 -2.28507 0.178149 0
M  V30 4719 C 477.893 -1.50377 -0.623754 0
M  V30 4720 O 479.082 -1.72583 -0.455774 0
M  V30 4721 C 476.182 -3.30038 -0.769959 0
M  V30 4722 C 475.355 -4.37398 -0.0139749 0
M  V30 4723 C 474.414 -5.18775 -0.880875 0
M  V30 4724 O 473.44 -5.68236 -0.331059 0
M  V30 4725 N 474.642 -5.37087 -2.20267 0
M  V30 4726 H 477.407 -2.83255 0.979106 0
M  V30 4727 H 474.968 -1.47643 0.664308 0
M  V30 4728 H 476.96 -3.81371 -1.35418 0
M  V30 4729 H 475.53 -2.75789 -1.47171 0
M  V30 4730 H 474.75 -3.86971 0.751468 0
M  V30 4731 H 476.038 -5.06268 0.506965 0
M  V30 4732 H 475.436 -4.9855 -2.67328 0
M  V30 4733 H 473.993 -5.91593 -2.73608 0
M  V30 4734 N 477.426 -0.562348 -1.47226 0
M  V30 4735 C 478.359 0.230405 -2.27034 0
M  V30 4736 C 479.337 0.915609 -1.3437 0
M  V30 4737 O 480.521 0.933573 -1.63758 0
M  V30 4738 C 477.648 1.32874 -3.11548 0
M  V30 4739 C 476.694 0.751552 -4.19826 0
M  V30 4740 S 477.527 -0.405848 -5.3396 0
M  V30 4741 C 478.683 0.694186 -6.22038 0
M  V30 4742 H 478.916 -0.446811 -2.93923 0
M  V30 4743 H 476.449 -0.348781 -1.50409 0
M  V30 4744 H 478.407 1.95773 -3.60809 0
M  V30 4745 H 477.068 1.97782 -2.44011 0
M  V30 4746 H 476.261 1.57651 -4.78709 0
M  V30 4747 H 475.863 0.198645 -3.73472 0
M  V30 4748 H 478.155 1.58501 -6.58698 0
M  V30 4749 H 479.098 0.142592 -7.07956 0
M  V30 4750 H 479.506 0.989169 -5.55766 0
M  V30 4751 N 478.904 1.54736 -0.299062 0
M  V30 4752 C 480.132 2.04512 0.313447 0
M  V30 4753 C 480.547 1.17643 1.47667 0
M  V30 4754 O 479.904 0.20164 1.81383 0
M  V30 4755 C 479.955 3.53171 0.771542 0
M  V30 4756 O 479.676 4.36736 -0.345379 0
M  V30 4757 C 481.177 4.18936 1.4494 0
M  V30 4758 H 478.397 0.667507 0.0683784 0
M  V30 4759 H 480.941 1.99752 -0.438129 0
M  V30 4760 H 479.096 3.58298 1.47314 0
M  V30 4761 H 479.51 5.24499 0.0109219 0
M  V30 4762 H 480.984 5.24482 1.72111 0
M  V30 4763 H 481.461 3.68554 2.38883 0
M  V30 4764 H 482.067 4.17879 0.791028 0
M  V30 4765 N 480.382 0.0267497 1.57577 0
M  V30 4766 C 481.659 -0.690926 1.82991 0
M  V30 4767 C 482.039 -1.90471 0.910164 0
M  V30 4768 O 481.387 -2.28474 -0.0347985 0
M  V30 4769 C 481.597 -1.07139 3.32148 0
M  V30 4770 C 482.945 -1.46402 3.98562 0
M  V30 4771 O 483.969 -1.16443 3.36629 0
M  V30 4772 O 482.828 -2.02214 5.07712 0
M  V30 4773 H 479.922 -0.338747 0.75444 0
M  V30 4774 H 482.468 0.0542506 1.69613 0
M  V30 4775 H 481.24 -0.207394 3.9075 0
M  V30 4776 H 480.863 -1.87481 3.50623 0
M  V30 4777 N 481.861 -1.55662 -0.24637 0
M  V30 4778 C 482.808 -1.90361 -1.30504 0
M  V30 4779 C 483.778 -0.757905 -1.47801 0
M  V30 4780 O 484.963 -1.01161 -1.61775 0
M  V30 4781 C 482.103 -2.2042 -2.65535 0
M  V30 4782 C 481.216 -3.47799 -2.56242 0
M  V30 4783 C 480.351 -3.67426 -3.8363 0
M  V30 4784 C 479.39 -4.88403 -3.68956 0
M  V30 4785 N 478.527 -5.04548 -4.88237 0
M  V30 4786 H 483.367 -2.80645 -1.00213 0
M  V30 4787 H 480.904 -1.38924 -0.483577 0
M  V30 4788 H 482.862 -2.35853 -3.44135 0
M  V30 4789 H 481.492 -1.3334 -2.93973 0
M  V30 4790 H 480.544 -3.40694 -1.69208 0
M  V30 4791 H 481.856 -4.36544 -2.4131 0
M  V30 4792 H 481.01 -3.82821 -4.70673 0
M  V30 4793 H 479.749 -2.76914 -4.01459 0
M  V30 4794 H 478.754 -4.72984 -2.80296 0
M  V30 4795 H 479.979 -5.80375 -3.52621 0
M  V30 4796 H 477.925 -4.16974 -5.06427 0
M  V30 4797 H 477.842 -5.87384 -4.75937 0
M  V30 4798 H 479.11 -5.24355 -5.76777 0
M  V30 4799 N 483.339 0.512053 -1.4905 0
M  V30 4800 C 484.302 1.59704 -1.64399 0
M  V30 4801 C 485.302 1.52285 -0.516317 0
M  V30 4802 O 486.492 1.55635 -0.782527 0
M  V30 4803 C 483.624 2.9935 -1.63102 0
M  V30 4804 H 484.817 1.47428 -2.61161 0
M  V30 4805 H 482.37 0.735469 -1.37915 0
M  V30 4806 H 483.105 3.17116 -0.678836 0
M  V30 4807 H 482.89 3.06144 -2.44986 0
M  V30 4808 H 484.38 3.782 -1.77072 0
M  V30 4809 N 484.817 1.37938 0.762283 0
M  V30 4810 C 486.066 1.32989 1.51647 0
M  V30 4811 C 486.379 -0.0802922 1.95435 0
M  V30 4812 O 487.585 -0.252295 2.70325 0
M  V30 4813 C 486.041 2.33485 2.73885 0
M  V30 4814 C 485.649 3.80079 2.37157 0
M  V30 4815 C 487.393 2.37563 3.51801 0
M  V30 4816 C 485.3 4.72283 3.55954 0
M  V30 4817 H 484.23 0.494301 0.56937 0
M  V30 4818 H 486.881 1.63448 0.834083 0
M  V30 4819 H 485.263 1.96056 3.44061 0
M  V30 4820 H 486.437 4.26398 1.74704 0
M  V30 4821 H 484.752 3.79037 1.72395 0
M  V30 4822 H 487.349 3.0365 4.40114 0
M  V30 4823 H 487.692 1.39199 3.92338 0
M  V30 4824 H 488.225 2.73747 2.8863 0
M  V30 4825 H 484.964 5.7181 3.2049 0
M  V30 4826 H 484.484 4.30663 4.1748 0
M  V30 4827 H 486.163 4.89876 4.22647 0
M  V30 4828 N 486.295 -0.989507 1.22664 0
M  V30 4829 C 487.205 -2.11449 1.01619 0
M  V30 4830 C 488.221 -1.73962 -0.036545 0
M  V30 4831 O 489.397 -2.00788 0.156924 0
M  V30 4832 C 486.462 -3.41465 0.600204 0
M  V30 4833 C 485.523 -3.93033 1.72695 0
M  V30 4834 C 484.756 -5.16844 1.33071 0
M  V30 4835 O 484.979 -5.7001 0.210975 0
M  V30 4836 O 483.913 -5.6225 2.14845 0
M  V30 4837 H 487.739 -2.32088 1.9588 0
M  V30 4838 H 485.324 -1.09823 1.01289 0
M  V30 4839 H 487.206 -4.19695 0.37873 0
M  V30 4840 H 485.881 -3.22178 -0.313511 0
M  V30 4841 H 484.788 -3.15961 2.00298 0
M  V30 4842 H 486.121 -4.16758 2.61865 0
M  V30 4843 N 487.773 -1.03688 -1.18687 0
M  V30 4844 C 488.703 -0.645407 -2.24403 0
M  V30 4845 C 489.684 0.349511 -1.66471 0
M  V30 4846 O 490.869 0.230453 -1.92828 0
M  V30 4847 C 487.999 -0.00365337 -3.473 0
M  V30 4848 C 486.953 -0.921705 -4.17958 0
M  V30 4849 C 486.279 -0.144629 -5.34504 0
M  V30 4850 C 487.579 -2.23909 -4.71871 0
M  V30 4851 H 489.273 -1.52917 -2.57404 0
M  V30 4852 H 486.819 -0.736711 -1.23728 0
M  V30 4853 H 488.772 0.281908 -4.20456 0
M  V30 4854 H 487.496 0.914963 -3.13522 0
M  V30 4855 H 486.155 -1.19159 -3.46694 0
M  V30 4856 H 485.803 0.776274 -4.96974 0
M  V30 4857 H 485.503 -0.756206 -5.82714 0
M  V30 4858 H 487.027 0.134004 -6.10453 0
M  V30 4859 H 488.441 -2.0145 -5.36741 0
M  V30 4860 H 486.838 -2.8033 -5.30599 0
M  V30 4861 H 487.908 -2.88822 -3.895 0
M  V30 4862 N 489.251 1.34841 -0.815825 0
M  V30 4863 C 490.181 2.32187 -0.247298 0
M  V30 4864 C 491.162 1.5791 0.632344 0
M  V30 4865 O 492.347 1.8593 0.560698 0
M  V30 4866 C 489.477 3.42122 0.597466 0
M  V30 4867 C 488.431 4.27602 -0.184446 0
M  V30 4868 C 487.757 5.28942 0.782609 0
M  V30 4869 C 489.057 5.03502 -1.38865 0
M  V30 4870 H 490.751 2.79985 -1.06061 0
M  V30 4871 H 488.297 1.34611 -0.511461 0
M  V30 4872 H 490.25 4.09232 1.00533 0
M  V30 4873 H 488.974 2.92956 1.44376 0
M  V30 4874 H 487.633 3.62085 -0.573592 0
M  V30 4875 H 487.281 4.7604 1.62466 0
M  V30 4876 H 486.981 5.87008 0.263695 0
M  V30 4877 H 488.505 5.98922 1.18848 0
M  V30 4878 H 489.919 5.63506 -1.05518 0
M  V30 4879 H 488.316 5.71108 -1.8427 0
M  V30 4880 H 489.386 4.33608 -2.17054 0
M  V30 4881 N 490.729 0.570148 1.46925 0
M  V30 4882 C 491.954 0.0542592 2.07329 0
M  V30 4883 C 492.379 -1.23582 1.41806 0
M  V30 4884 O 491.737 -1.74341 0.497479 0
M  V30 4885 C 491.785 -0.111175 3.60429 0
M  V30 4886 O 490.889 -1.17071 3.95434 0
M  V30 4887 H 490.23 0.0571425 0.661537 0
M  V30 4888 H 492.76 0.789516 1.88753 0
M  V30 4889 H 492.77 -0.321315 4.06733 0
M  V30 4890 H 491.445 0.831012 4.07513 0
M  V30 4891 H 490.022 -0.940029 3.60857 0
M  V30 4892 N 492.207 -1.54576 0.307264 0
M  V30 4893 C 493.154 -2.23751 -0.56604 0
M  V30 4894 C 494.124 -1.22235 -1.12462 0
M  V30 4895 O 495.309 -1.50873 -1.16799 0
M  V30 4896 C 492.449 -2.98661 -1.72903 0
M  V30 4897 C 491.562 -4.14963 -1.20124 0
M  V30 4898 C 490.697 -4.77441 -2.3286 0
M  V30 4899 C 489.736 -5.85875 -1.77247 0
M  V30 4900 N 488.873 -6.42282 -2.8358 0
M  V30 4901 H 493.713 -2.97984 0.0304578 0
M  V30 4902 H 491.25 -1.47076 0.0268015 0
M  V30 4903 H 493.208 -3.40329 -2.41313 0
M  V30 4904 H 491.838 -2.26793 -2.29706 0
M  V30 4905 H 490.89 -3.78193 -0.409198 0
M  V30 4906 H 492.202 -4.93066 -0.754171 0
M  V30 4907 H 491.356 -5.21993 -3.09205 0
M  V30 4908 H 490.095 -3.98684 -2.80896 0
M  V30 4909 H 489.1 -5.40741 -0.993926 0
M  V30 4910 H 490.325 -6.6652 -1.30107 0
M  V30 4911 H 488.271 -5.66406 -3.30939 0
M  V30 4912 H 488.188 -7.1575 -2.43388 0
M  V30 4913 H 489.456 -6.91492 -3.59804 0
M  V30 4914 N 493.685 -0.035106 -1.57561 0
M  V30 4915 C 494.633 0.962707 -2.11742 0
M  V30 4916 C 495.627 1.33296 -1.0454 0
M  V30 4917 O 496.833 1.31449 -1.22968 0
M  V30 4918 H 493.208 0.32826 -0.676572 0
M  V30 4919 H 495.179 0.48048 -2.94506 0
M  V30 4920 C 493.928 2.23388 -2.66445 0
M  V30 4921 H 493.251 1.95774 -3.48587 0
M  V30 4922 H 494.691 2.91402 -3.07995 0
M  V30 4923 C 493.15 2.96769 -1.59467 0
M  V30 4924 O 493.68 3.89105 -0.998 0
M  V30 4925 N 491.886 2.59212 -1.31369 0
M  V30 4926 H 491.433 1.84202 -1.80076 0
M  V30 4927 H 491.391 3.08618 -0.600173 0
M  V30 4928 N 495.163 1.55791 0.238111 0
M  V30 4929 C 496.073 1.94196 1.31625 0
M  V30 4930 C 497.089 0.843545 1.52185 0
M  V30 4931 O 498.265 1.1457 1.65637 0
M  V30 4932 C 495.33 2.2365 2.64918 0
M  V30 4933 C 494.391 3.46971 2.52804 0
M  V30 4934 C 493.624 3.7501 3.79741 0
M  V30 4935 O 493.847 3.04982 4.82019 0
M  V30 4936 O 492.781 4.68525 3.77846 0
M  V30 4937 H 496.607 2.86044 1.02043 0
M  V30 4938 H 494.192 1.42786 0.439603 0
M  V30 4939 H 496.074 2.43863 3.4367 0
M  V30 4940 H 494.749 1.34979 2.94215 0
M  V30 4941 H 493.656 3.32055 1.72309 0
M  V30 4942 H 494.989 4.35971 2.28451 0
M  V30 4943 N 496.642 -0.504142 1.49319 0
M  V30 4944 C 497.589 -1.60603 1.65756 0
M  V30 4945 C 498.559 -1.58425 0.499082 0
M  V30 4946 O 499.744 -1.76459 0.725728 0
M  V30 4947 C 496.884 -2.98764 1.72726 0
M  V30 4948 C 495.997 -3.10982 2.99857 0
M  V30 4949 C 495.132 -4.39857 2.97824 0
M  V30 4950 C 494.171 -4.45697 4.19548 0
M  V30 4951 N 493.308 -5.65995 4.15444 0
M  V30 4952 H 498.148 -1.45895 2.59843 0
M  V30 4953 H 495.685 -0.709891 1.28837 0
M  V30 4954 H 497.643 -3.78839 1.74747 0
M  V30 4955 H 496.273 -3.12183 0.821075 0
M  V30 4956 H 495.325 -2.23991 3.07461 0
M  V30 4957 H 496.637 -3.11157 3.89849 0
M  V30 4958 H 495.791 -5.2825 2.98391 0
M  V30 4959 H 494.53 -4.42242 2.05604 0
M  V30 4960 H 493.535 -3.55707 4.19229 0
M  V30 4961 H 494.76 -4.4503 5.12957 0
M  V30 4962 H 492.706 -5.69229 3.26059 0
M  V30 4963 H 492.623 -5.67773 4.99169 0
M  V30 4964 H 493.891 -6.56604 4.20109 0
M  V30 4965 N 498.12 -1.38341 -0.754957 0
M  V30 4966 C 499.368 -1.34208 -1.51105 0
M  V30 4967 C 499.689 0.0677634 -1.94882 0
M  V30 4968 O 498.959 1.01517 -1.67544 0
M  V30 4969 H 497.539 -0.493819 -0.560493 0
M  V30 4970 H 500.201 -1.73005 -0.897507 0
M  V30 4971 H 499.297 -1.99203 -2.4026 0
M  V30 4972 N 499.598 0.982988 -1.23187 0
M  V30 4973 C 500.845 1.72392 -1.06241 0
M  V30 4974 C 501.173 1.9032 0.40108 0
M  V30 4975 O 500.428 1.45084 1.31336 0
M  V30 4976 C 500.727 3.12736 -1.73006 0
M  V30 4977 C 500.393 3.14695 -3.22921 0
M  V30 4978 C 499.055 3.14937 -3.63824 0
M  V30 4979 C 501.407 3.10211 -4.1883 0
M  V30 4980 C 498.735 3.08408 -4.99101 0
M  V30 4981 C 501.087 3.05224 -5.54095 0
M  V30 4982 C 499.751 3.03787 -5.94365 0
M  V30 4983 H 499.021 0.630829 -0.388762 0
M  V30 4984 H 501.668 1.15053 -1.53085 0
M  V30 4985 H 499.973 3.73446 -1.18514 0
M  V30 4986 H 501.67 3.68828 -1.57374 0
M  V30 4987 H 498.26 3.15262 -2.90358 0
M  V30 4988 H 502.444 3.09166 -3.8824 0
M  V30 4989 H 497.7 3.05646 -5.29519 0
M  V30 4990 H 501.874 3.00712 -6.28128 0
M  V30 4991 H 499.501 2.98483 -6.99151 0
M  V30 4992 N 501.076 1.04316 1.18135 0
M  V30 4993 C 502.323 0.74802 1.88178 0
M  V30 4994 C 502.651 -0.72441 1.80506 0
M  V30 4995 O 501.906 -1.54463 1.20165 0
M  V30 4996 C 502.205 1.16271 3.37958 0
M  V30 4997 C 501.871 2.63585 3.65833 0
M  V30 4998 C 500.533 3.03829 3.73151 0
M  V30 4999 C 502.885 3.58822 3.78016 0
M  V30 5000 C 500.213 4.38194 3.90132 0
M  V30 5001 C 502.565 4.92909 3.96514 0
M  V30 5002 C 501.229 5.3282 4.02068 0
M  V30 5003 H 500.499 0.27372 0.688592 0
M  V30 5004 H 503.146 1.30863 1.39811 0
M  V30 5005 H 501.451 0.520938 3.88321 0
M  V30 5006 H 503.148 0.911672 3.90499 0
M  V30 5007 H 499.738 2.31414 3.60757 0
M  V30 5008 H 503.922 3.28875 3.71692 0
M  V30 5009 H 499.178 4.68631 3.92677 0
M  V30 5010 H 503.352 5.66606 4.04883 0
M  V30 5011 H 500.979 6.36943 4.14979 0
M  V30 5012 N 502.554 -1.34406 0.822964 0
M  V30 5013 C 503.484 -2.32052 0.259608 0
M  V30 5014 C 504.465 -1.58243 -0.623961 0
M  V30 5015 O 505.65 -1.86224 -0.55083 0
M  V30 5016 C 502.78 -3.42434 -0.579314 0
M  V30 5017 C 501.734 -4.27499 0.20712 0
M  V30 5018 C 501.06 -5.29349 -0.754547 0
M  V30 5019 C 502.36 -5.02758 1.41533 0
M  V30 5020 H 504.054 -2.79418 1.07545 0
M  V30 5021 H 501.6 -1.34338 0.518593 0
M  V30 5022 H 503.553 -4.0976 -0.983612 0
M  V30 5023 H 502.277 -2.93717 -1.4282 0
M  V30 5024 H 500.936 -3.61776 0.592787 0
M  V30 5025 H 500.584 -4.76895 -1.59939 0
M  V30 5026 H 500.284 -5.8714 -0.232561 0
M  V30 5027 H 501.808 -5.99544 -1.1567 0
M  V30 5028 H 503.222 -5.62938 1.08504 0
M  V30 5029 H 501.619 -5.70123 1.87296 0
M  V30 5030 H 502.689 -4.32451 2.1935 0
M  V30 5031 N 504.032 -0.577932 -1.46621 0
M  V30 5032 C 504.964 0.195801 -2.28362 0
M  V30 5033 C 505.977 0.859983 -1.38232 0
M  V30 5034 O 507.166 0.730349 -1.62875 0
M  V30 5035 C 504.266 1.29639 -3.13124 0
M  V30 5036 C 503.439 0.725049 -4.31349 0
M  V30 5037 C 502.498 1.71274 -4.97546 0
M  V30 5038 O 501.524 1.25067 -5.5529 0
M  V30 5039 N 502.726 3.04672 -4.94121 0
M  V30 5040 H 505.491 -0.505468 -2.95407 0
M  V30 5041 H 503.052 -0.415381 -1.56481 0
M  V30 5042 H 505.044 1.95631 -3.54275 0
M  V30 5043 H 503.614 1.90059 -2.48186 0
M  V30 5044 H 502.834 -0.112205 -3.9404 0
M  V30 5045 H 504.122 0.323034 -5.07774 0
M  V30 5046 H 503.52 3.4484 -4.48444 0
M  V30 5047 H 502.077 3.66166 -5.39227 0
M  V30 5048 N 505.51 1.54411 -0.315457 0
M  V30 5049 C 506.756 2.00716 0.289972 0
M  V30 5050 C 507.089 1.2034 1.5242 0
M  V30 5051 O 506.364 0.283579 1.92422 0
M  V30 5052 C 506.647 3.54507 0.632196 0
M  V30 5053 C 506.5 4.45615 -0.61218 0
M  V30 5054 C 507.819 4.15421 1.45305 0
M  V30 5055 H 504.938 0.729637 0.10392 0
M  V30 5056 H 507.58 1.8506 -0.430427 0
M  V30 5057 H 505.73 3.67979 1.24595 0
M  V30 5058 H 507.402 4.44026 -1.25053 0
M  V30 5059 H 505.645 4.15621 -1.24264 0
M  V30 5060 H 506.316 5.51022 -0.328379 0
M  V30 5061 H 508.792 4.05474 0.934331 0
M  V30 5062 H 507.668 5.23157 1.66127 0
M  V30 5063 H 507.929 3.68223 2.44671 0
M  V30 5064 N 506.988 0.0434614 1.5754 0
M  V30 5065 C 507.898 -0.94893 2.14552 0
M  V30 5066 C 508.914 -1.34707 1.10136 0
M  V30 5067 O 510.09 -1.42557 1.42266 0
M  V30 5068 C 507.155 -2.208 2.67298 0
M  V30 5069 C 506.216 -1.86893 3.86484 0
M  V30 5070 C 505.449 -3.06797 4.36705 0
M  V30 5071 O 505.672 -4.19921 3.86034 0
M  V30 5072 O 504.606 -2.8826 5.28384 0
M  V30 5073 H 508.432 -0.494099 2.99654 0
M  V30 5074 H 506.017 -0.177989 1.48336 0
M  V30 5075 H 507.899 -2.94686 3.01228 0
M  V30 5076 H 506.574 -2.65436 1.85272 0
M  V30 5077 H 505.481 -1.10347 3.57455 0
M  V30 5078 H 506.814 -1.47062 4.69716 0
M  V30 5079 N 508.466 -1.55915 -0.229846 0
M  V30 5080 C 509.714 -1.7819 -0.953565 0
M  V30 5081 C 510.035 -0.610504 -1.85197 0
M  V30 5082 O 509.305 0.372988 -1.92316 0
M  V30 5083 H 507.885 -0.657208 -0.355087 0
M  V30 5084 H 510.547 -1.9337 -0.243693 0
M  V30 5085 H 509.643 -2.70011 -1.56527 0
M  V30 5086 N 509.944 0.496216 -1.49584 0
M  V30 5087 C 510.907 1.57952 -1.66084 0
M  V30 5088 C 511.907 1.51729 -0.53244 0
M  V30 5089 O 513.097 1.54796 -0.79899 0
M  V30 5090 C 510.229 2.97604 -1.66268 0
M  V30 5091 H 511.422 1.44649 -2.6271 0
M  V30 5092 H 508.975 0.7208 -1.38687 0
M  V30 5093 H 509.71 3.16378 -0.712432 0
M  V30 5094 H 509.495 3.03528 -2.4822 0
M  V30 5095 H 510.985 3.76301 -1.81073 0
M  V30 5096 N 511.423 1.38739 0.74761 0
M  V30 5097 C 512.648 1.38702 1.54197 0
M  V30 5098 C 513.073 -0.019664 1.8809 0
M  V30 5099 O 512.431 -1.00333 1.51006 0
M  V30 5100 C 512.479 2.25492 2.814 0
M  V30 5101 O 511.583 1.67613 3.76802 0
M  V30 5102 H 510.924 0.472863 0.466151 0
M  V30 5103 H 513.454 1.82577 0.923413 0
M  V30 5104 H 513.464 2.39561 3.30264 0
M  V30 5105 H 512.139 3.27727 2.56062 0
M  V30 5106 H 510.716 1.62718 3.35526 0
M  V30 5107 N 512.901 -0.976442 1.23707 0
M  V30 5108 C 514.15 -1.71254 1.06559 0
M  V30 5109 C 514.463 -1.91528 -0.397024 0
M  V30 5110 O 515.669 -2.62625 -0.688518 0
M  V30 5111 C 514.125 -3.08207 1.8584 0
M  V30 5112 C 513.733 -2.95806 3.36456 0
M  V30 5113 C 515.477 -3.85749 1.77194 0
M  V30 5114 C 513.384 -4.28015 4.08114 0
M  V30 5115 H 512.314 -0.642171 0.395136 0
M  V30 5116 H 514.965 -1.08877 1.4771 0
M  V30 5117 H 513.347 -3.71363 1.37498 0
M  V30 5118 H 514.521 -2.41716 3.92314 0
M  V30 5119 H 512.836 -2.31736 3.45959 0
M  V30 5120 H 515.433 -4.83633 2.28041 0
M  V30 5121 H 515.776 -4.09752 0.735477 0
M  V30 5122 H 516.309 -3.29303 2.23169 0
M  V30 5123 H 513.048 -4.09208 5.12083 0
M  V30 5124 H 512.568 -4.81955 3.57043 0
M  V30 5125 H 514.247 -4.96681 4.14629 0
M  V30 5126 N 514.379 -1.04941 -1.1758 0
M  V30 5127 C 515.656 -0.671918 -1.83697 0
M  V30 5128 C 516.036 0.847929 -1.93322 0
M  V30 5129 O 515.384 1.75287 -1.46583 0
M  V30 5130 C 515.594 -1.35797 -3.21497 0
M  V30 5131 C 516.942 -1.4944 -3.97433 0
M  V30 5132 O 517.966 -1.31678 -3.30967 0
M  V30 5133 O 516.825 -1.78463 -5.1654 0
M  V30 5134 H 513.919 -0.236212 -0.792548 0
M  V30 5135 H 516.465 -1.14884 -1.24899 0
M  V30 5136 H 515.237 -2.39498 -3.09446 0
M  V30 5137 H 514.86 -0.870236 -3.8796 0
M  V30 5138 N 515.857 1.33968 -0.830081 0
M  V30 5139 C 516.804 2.29387 -0.255008 0
M  V30 5140 C 517.774 1.53923 0.624243 0
M  V30 5141 O 518.959 1.82262 0.564372 0
M  V30 5142 C 516.099 3.4034 0.571209 0
M  V30 5143 C 515.212 4.30729 -0.331083 0
M  V30 5144 C 514.347 5.2879 0.505389 0
M  V30 5145 C 513.386 6.10819 -0.395843 0
M  V30 5146 N 512.523 7.00948 0.401979 0
M  V30 5147 H 517.363 2.77972 -1.07404 0
M  V30 5148 H 514.9 1.36785 -0.541133 0
M  V30 5149 H 516.858 4.03361 1.06562 0
M  V30 5150 H 515.488 2.9297 1.35529 0
M  V30 5151 H 514.54 3.68507 -0.943759 0
M  V30 5152 H 515.852 4.88181 -1.02377 0
M  V30 5153 H 515.006 5.97297 1.06399 0
M  V30 5154 H 513.745 4.71894 1.23155 0
M  V30 5155 H 512.75 5.41238 -0.966529 0
M  V30 5156 H 513.975 6.69797 -1.12023 0
M  V30 5157 H 511.921 6.46512 1.11168 0
M  V30 5158 H 511.838 7.55643 -0.232167 0
M  V30 5159 H 513.106 7.73774 0.943102 0
M  V30 5160 N 517.335 0.585699 1.46312 0
M  V30 5161 C 518.267 -0.183687 2.28463 0
M  V30 5162 C 519.28 -0.85264 1.38686 0
M  V30 5163 O 520.469 -0.721701 1.6326 0
M  V30 5164 C 517.569 -1.27977 3.13808 0
M  V30 5165 C 516.742 -0.702164 4.31727 0
M  V30 5166 C 515.801 -1.68633 4.98447 0
M  V30 5167 O 514.827 -1.22121 5.55945 0
M  V30 5168 N 516.029 -3.02047 4.95729 0
M  V30 5169 H 518.794 0.521127 2.95134 0
M  V30 5170 H 516.355 0.423673 1.56258 0
M  V30 5171 H 518.347 -1.9375 3.55307 0
M  V30 5172 H 516.917 -1.8874 2.4919 0
M  V30 5173 H 516.137 0.1331 3.93975 0
M  V30 5174 H 517.425 -0.296101 5.07938 0
M  V30 5175 H 516.823 -3.42457 4.50266 0
M  V30 5176 H 515.38 -3.63301 5.41161 0
M  V30 5177 N 518.813 -1.54241 0.323641 0
M  V30 5178 C 520.09 -1.92741 -0.333181 0
M  V30 5179 C 520.47 -1.25326 -1.69872 0
M  V30 5180 O 519.818 -0.396991 -2.25025 0
M  V30 5181 C 520.028 -3.46399 -0.425322 0
M  V30 5182 C 521.376 -4.19029 -0.68557 0
M  V30 5183 O 522.4 -3.52555 -0.50824 0
M  V30 5184 O 521.259 -5.36751 -1.02767 0
M  V30 5185 H 518.353 -0.804811 -0.190286 0
M  V30 5186 H 520.899 -1.65542 0.373361 0
M  V30 5187 H 519.671 -3.87643 0.533737 0
M  V30 5188 H 519.294 -3.79704 -1.17944 0
M  V30 5189 N 520.291 -0.0518155 -1.57515 0
M  V30 5190 C 521.241 0.932017 -2.0808 0
M  V30 5191 C 522.225 1.27141 -0.986098 0
M  V30 5192 O 523.417 1.25373 -1.24943 0
M  V30 5193 C 520.546 2.20665 -2.62986 0
M  V30 5194 C 519.632 1.89462 -3.79427 0
M  V30 5195 N 520.023 1.28621 -4.89173 0
M  V30 5196 C 518.321 2.19327 -3.88345 0
M  V30 5197 C 519.022 1.15062 -5.70207 0
M  V30 5198 N 517.998 1.65372 -5.17835 0
M  V30 5199 H 521.8 0.456964 -2.90326 0
M  V30 5200 H 519.314 0.152619 -1.61681 0
M  V30 5201 H 521.311 2.92044 -2.97516 0
M  V30 5202 H 519.971 2.68776 -1.8218 0
M  V30 5203 H 520.982 0.958341 -5.08956 0
M  V30 5204 H 517.659 2.69955 -3.18482 0
M  V30 5205 H 519.049 0.678243 -6.68468 0
M  V30 5206 N 521.769 1.56035 0.221574 0
M  V30 5207 C 522.732 1.91584 1.2581 0
M  V30 5208 C 523.732 0.794425 1.39805 0
M  V30 5209 O 524.922 1.06217 1.38071 0
M  V30 5210 C 522.054 2.16663 2.63192 0
M  V30 5211 H 523.247 2.8429 0.954935 0
M  V30 5212 H 520.8 1.49316 0.461988 0
M  V30 5213 H 521.535 1.26508 2.98607 0
M  V30 5214 H 521.32 2.98358 2.5441 0
M  V30 5215 H 522.81 2.45262 3.37988 0
M  V30 5216 N 523.247 -0.488276 1.49845 0
M  V30 5217 C 524.21 -1.57069 1.66919 0
M  V30 5218 C 525.21 -1.51445 0.540479 0
M  V30 5219 O 526.4 -1.5437 0.807188 0
M  V30 5220 C 523.532 -2.96718 1.67844 0
M  V30 5221 H 524.725 -1.43254 2.63474 0
M  V30 5222 H 522.278 -0.713435 1.39068 0
M  V30 5223 H 523.013 -3.15996 0.7292 0
M  V30 5224 H 522.798 -3.02208 2.49826 0
M  V30 5225 H 524.288 -3.75335 1.83066 0
M  V30 5226 N 524.725 -1.39134 -0.740242 0
M  V30 5227 C 525.673 -1.3757 -1.87556 0
M  V30 5228 C 526.667 -0.259593 -1.67399 0
M  V30 5229 O 527.873 -0.429349 -1.74804 0
M  V30 5230 H 524.248 -0.42947 -0.6173 0
M  V30 5231 H 526.219 -2.33345 -1.85991 0
M  V30 5232 C 524.968 -1.23087 -3.25184 0
M  V30 5233 H 524.291 -2.08237 -3.41288 0
M  V30 5234 H 525.731 -1.26049 -4.0483 0
M  V30 5235 C 524.19 0.0611471 -3.36845 0
M  V30 5236 O 524.72 1.03328 -3.88183 0
M  V30 5237 N 522.926 0.122454 -2.90342 0
M  V30 5238 H 522.473 -0.669329 -2.48752 0
M  V30 5239 H 522.431 0.986463 -2.98523 0
M  V30 5240 N 526.204 0.969867 -1.24223 0
M  V30 5241 C 527.615 1.52717 -1.07399 0
M  V30 5242 C 527.966 1.92956 0.355298 0
M  V30 5243 O 527.091 1.77112 1.2434 0
M  V30 5244 C 527.686 2.77521 -1.94339 0
M  V30 5245 C 526.245 3.29615 -1.81744 0
M  V30 5246 C 525.392 2.02537 -1.89405 0
M  V30 5247 H 528.343 0.788399 -1.37732 0
M  V30 5248 H 528.364 3.50773 -1.47439 0
M  V30 5249 H 527.876 2.48203 -2.98357 0
M  V30 5250 H 525.977 3.63789 -0.805505 0
M  V30 5251 H 526.09 3.98661 -2.65718 0
M  V30 5252 H 524.454 2.17151 -1.33108 0
M  V30 5253 H 525.237 1.75587 -2.94999 0
M  V30 5254 N 527.682 1.05563 1.17022 0
M  V30 5255 C 528.922 0.777033 1.89054 0
M  V30 5256 C 529.286 -0.683617 1.79418 0
M  V30 5257 O 530.487 -1.07648 2.46303 0
M  V30 5258 C 528.758 1.24886 3.34871 0
M  V30 5259 S 530.317 1.0982 4.24835 0
M  V30 5260 H 527.135 0.282082 0.652649 0
M  V30 5261 H 529.737 1.35103 1.41306 0
M  V30 5262 H 528.441 2.30699 3.3942 0
M  V30 5263 H 527.972 0.669292 3.87665 0
M  V30 5264 H 529.987 0.02462 4.96194 0
M  V30 5265 N 529.16 -1.33526 0.837174 0
M  V30 5266 C 530.408 -1.97446 0.431211 0
M  V30 5267 C 530.729 -1.6665 -1.01255 0
M  V30 5268 O 529.999 -0.964559 -1.70508 0
M  V30 5269 H 528.579 -0.73043 0.156463 0
M  V30 5270 H 531.241 -1.62918 1.06976 0
M  V30 5271 H 530.337 -3.07001 0.561877 0
M  V30 5272 N 530.638 -0.59345 -1.46 0
M  V30 5273 C 531.57 0.171569 -2.28557 0
M  V30 5274 C 532.583 0.845273 -1.39137 0
M  V30 5275 O 533.772 0.713033 -1.6364 0
M  V30 5276 C 530.872 1.26311 -3.14482 0
M  V30 5277 C 530.045 0.679258 -4.32094 0
M  V30 5278 C 529.104 1.65987 -4.99334 0
M  V30 5279 O 528.13 1.19171 -5.56585 0
M  V30 5280 N 529.332 2.99414 -4.97324 0
M  V30 5281 H 532.097 -0.536771 -2.94854 0
M  V30 5282 H 529.658 -0.431954 -1.56031 0
M  V30 5283 H 531.65 1.91863 -3.5633 0
M  V30 5284 H 530.22 1.87416 -2.50188 0
M  V30 5285 H 529.44 -0.153992 -3.93899 0
M  V30 5286 H 530.728 0.26916 -5.08088 0
M  V30 5287 H 530.126 3.40064 -4.52076 0
M  V30 5288 H 528.683 3.60426 -5.4308 0
M  V30 5289 N 532.116 1.54067 -0.331816 0
M  V30 5290 C 533.365 1.99895 0.269209 0
M  V30 5291 C 533.678 1.22371 1.52593 0
M  V30 5292 O 534.884 1.58618 2.20347 0
M  V30 5293 C 533.34 3.55972 0.530244 0
M  V30 5294 C 532.948 4.4234 -0.709901 0
M  V30 5295 C 534.692 4.10247 1.09077 0
M  V30 5296 C 532.599 5.89905 -0.420312 0
M  V30 5297 H 531.529 0.746741 0.104371 0
M  V30 5298 H 534.18 1.78014 -0.445324 0
M  V30 5299 H 532.562 3.73873 1.30518 0
M  V30 5300 H 533.736 4.36215 -1.48504 0
M  V30 5301 H 532.051 3.98997 -1.19123 0
M  V30 5302 H 534.648 5.18095 1.32219 0
M  V30 5303 H 534.991 3.62739 2.0427 0
M  V30 5304 H 535.524 3.96011 0.376824 0
M  V30 5305 H 532.263 6.41623 -1.34164 0
M  V30 5306 H 531.783 5.98962 0.316962 0
M  V30 5307 H 533.462 6.46991 -0.0331956 0
M  V30 5308 N 533.594 0.0601682 1.57485 0
M  V30 5309 C 534.842 -0.610386 1.92662 0
M  V30 5310 C 535.163 -1.70849 0.939981 0
M  V30 5311 O 534.433 -1.95895 -0.0137455 0
M  V30 5312 H 533.013 -0.228457 0.711208 0
M  V30 5313 H 535.675 0.115288 1.94559 0
M  V30 5314 H 534.771 -1.0432 2.94149 0
M  V30 5315 N 535.072 -1.5615 -0.213296 0
M  V30 5316 C 535.982 -1.96265 -1.28519 0
M  V30 5317 C 536.998 -0.86765 -1.50824 0
M  V30 5318 O 538.174 -1.17191 -1.63793 0
M  V30 5319 C 535.239 -2.27836 -2.61327 0
M  V30 5320 C 534.3 -3.50949 -2.47252 0
M  V30 5321 C 533.533 -3.81004 -3.73727 0
M  V30 5322 O 533.756 -3.12612 -4.77106 0
M  V30 5323 O 532.69 -4.74477 -3.70344 0
M  V30 5324 H 536.516 -2.87631 -0.974795 0
M  V30 5325 H 534.101 -1.43467 -0.416832 0
M  V30 5326 H 535.983 -2.49299 -3.39747 0
M  V30 5327 H 534.658 -1.39643 -2.9203 0
M  V30 5328 H 533.565 -3.34754 -1.67004 0
M  V30 5329 H 534.898 -4.39551 -2.21486 0
M  V30 5330 N 536.55 0.480323 -1.50102 0
M  V30 5331 C 537.778 1.25657 -1.64371 0
M  V30 5332 C 538.193 1.86011 -0.323316 0
M  V30 5333 O 537.55 1.68803 0.693682 0
M  V30 5334 C 537.601 2.37197 -2.728 0
M  V30 5335 O 537.322 1.7932 -3.9972 0
M  V30 5336 C 538.823 3.2823 -2.9796 0
M  V30 5337 H 536.043 0.380369 -0.552775 0
M  V30 5338 H 538.587 0.574379 -1.96268 0
M  V30 5339 H 536.742 3.01208 -2.43623 0
M  V30 5340 H 537.156 2.52701 -4.59611 0
M  V30 5341 H 538.63 4.02725 -3.77513 0
M  V30 5342 H 539.107 3.86462 -2.08671 0
M  V30 5343 H 539.713 2.69964 -3.28633 0
M  V30 5344 N 538.028 1.39524 0.732853 0
M  V30 5345 C 539.274 1.37068 1.49467 0
M  V30 5346 C 539.607 -0.0327166 1.94172 0
M  V30 5347 O 538.882 -0.998071 1.66939 0
M  V30 5348 C 539.165 2.34494 2.73285 0
M  V30 5349 C 539.018 3.83784 2.34585 0
M  V30 5350 C 540.337 2.29717 3.75391 0
M  V30 5351 H 537.456 0.499206 0.542183 0
M  V30 5352 H 540.098 1.70532 0.837783 0
M  V30 5353 H 538.248 2.06087 3.29333 0
M  V30 5354 H 539.92 4.22949 1.84151 0
M  V30 5355 H 538.163 4.00455 1.66787 0
M  V30 5356 H 538.834 4.47444 3.23262 0
M  V30 5357 H 541.31 2.54839 3.28932 0
M  V30 5358 H 540.186 2.99962 4.59689 0
M  V30 5359 H 540.447 1.30291 4.22465 0
M  V30 5360 N 539.506 -0.963266 1.24736 0
M  V30 5361 C 540.783 -1.68248 0.9976 0
M  V30 5362 C 541.163 -2.05599 -0.478776 0
M  V30 5363 O 540.511 -1.7626 -1.45412 0
M  V30 5364 C 540.721 -2.91118 1.92487 0
M  V30 5365 C 542.069 -3.63261 2.19833 0
M  V30 5366 O 543.093 -3.01184 1.90176 0
M  V30 5367 O 541.952 -4.75019 2.7022 0
M  V30 5368 H 539.046 -0.735744 0.377637 0
M  V30 5369 H 541.592 -1.01696 1.35853 0
M  V30 5370 H 540.364 -2.60242 2.92215 0
M  V30 5371 H 539.987 -3.65402 1.56738 0
M  V30 5372 N 540.985 -1.06182 -1.16461 0
M  V30 5373 C 541.915 -0.692861 -2.22984 0
M  V30 5374 C 542.896 0.314122 -1.67174 0
M  V30 5375 O 544.081 0.189499 -1.93273 0
M  V30 5376 C 541.211 -0.07732 -3.47214 0
M  V30 5377 C 540.165 -1.01015 -4.15909 0
M  V30 5378 C 539.491 -0.257973 -5.34077 0
M  V30 5379 C 540.791 -2.33868 -4.67015 0
M  V30 5380 H 542.485 -1.58343 -2.54102 0
M  V30 5381 H 540.031 -0.76279 -1.22137 0
M  V30 5382 H 541.984 0.19266 -4.20959 0
M  V30 5383 H 540.708 0.848254 -3.15392 0
M  V30 5384 H 539.367 -1.26486 -3.44088 0
M  V30 5385 H 539.015 0.670684 -4.98509 0
M  V30 5386 H 538.715 -0.879638 -5.80979 0
M  V30 5387 H 540.239 0.00448788 -6.106 0
M  V30 5388 H 541.653 -2.1279 -5.32347 0
M  V30 5389 H 540.05 -2.91522 -5.24533 0
M  V30 5390 H 541.12 -2.97019 -3.83286 0
M  V30 5391 N 542.463 1.3308 -0.844243 0
M  V30 5392 C 543.74 1.92178 -0.364261 0
M  V30 5393 C 544.12 1.76961 1.15101 0
M  V30 5394 O 543.468 1.16128 1.9679 0
M  V30 5395 C 543.678 3.393 -0.817106 0
M  V30 5396 C 545.026 4.16444 -0.828236 0
M  V30 5397 O 546.05 3.47975 -0.761062 0
M  V30 5398 O 544.909 5.38685 -0.920926 0
M  V30 5399 H 542.003 0.820411 -0.10419 0
M  V30 5400 H 544.549 1.41918 -0.930453 0
M  V30 5401 H 543.321 3.44272 -1.85991 0
M  V30 5402 H 542.944 3.96947 -0.227785 0
M  V30 5403 N 543.941 0.601185 1.45683 0
M  V30 5404 C 544.851 -0.123395 2.34275 0
M  V30 5405 C 545.867 -0.86702 1.5086 0
M  V30 5406 O 547.043 -0.826049 1.8368 0
M  V30 5407 C 544.108 -1.11237 3.2837 0
M  V30 5408 C 543.169 -0.371405 4.2769 0
M  V30 5409 C 542.402 -1.31327 5.1729 0
M  V30 5410 O 542.625 -2.55078 5.10188 0
M  V30 5411 O 541.559 -0.813811 5.96373 0
M  V30 5412 H 545.385 0.604483 2.97623 0
M  V30 5413 H 542.97 0.361477 1.44961 0
M  V30 5414 H 544.852 -1.68214 3.8637 0
M  V30 5415 H 543.527 -1.82139 2.67595 0
M  V30 5416 H 542.434 0.24067 3.73325 0
M  V30 5417 H 543.767 0.296998 4.91303 0
M  V30 5418 N 545.419 -1.53889 0.339982 0
M  V30 5419 C 546.382 -2.23547 -0.50592 0
M  V30 5420 C 547.382 -1.23445 -1.03044 0
M  V30 5421 O 548.572 -1.47909 -0.920253 0
M  V30 5422 C 545.704 -2.95234 -1.7044 0
M  V30 5423 H 546.897 -2.99722 0.103247 0
M  V30 5424 H 544.45 -1.56033 0.0912804 0
M  V30 5425 H 545.185 -2.23236 -2.35236 0
M  V30 5426 H 544.97 -3.68654 -1.33553 0
M  V30 5427 H 546.46 -3.48258 -2.30447 0
M  V30 5428 N 546.897 -0.0685191 -1.57451 0
M  V30 5429 C 548.143 0.602239 -1.93652 0
M  V30 5430 C 548.476 1.6946 -0.948526 0
M  V30 5431 O 547.751 1.94487 0.022782 0
M  V30 5432 C 548.034 1.18223 -3.4014 0
M  V30 5433 C 547.887 0.0967431 -4.49696 0
M  V30 5434 C 549.206 2.08872 -3.87377 0
M  V30 5435 H 546.325 0.217453 -0.70419 0
M  V30 5436 H 548.967 -0.133821 -1.89528 0
M  V30 5437 H 547.117 1.80953 -3.43785 0
M  V30 5438 H 548.789 -0.536155 -4.58174 0
M  V30 5439 H 547.032 -0.573063 -4.29998 0
M  V30 5440 H 547.703 0.542894 -5.49324 0
M  V30 5441 H 550.179 1.56081 -3.85717 0
M  V30 5442 H 549.055 2.46389 -4.90493 0
M  V30 5443 H 549.316 2.99572 -3.25129 0
M  V30 5444 N 548.375 1.56261 0.205012 0
M  V30 5445 C 549.307 1.90266 1.27795 0
M  V30 5446 C 550.32 0.792397 1.42214 0
M  V30 5447 O 551.509 1.07077 1.42817 0
M  V30 5448 C 548.609 2.11074 2.65143 0
M  V30 5449 C 547.782 3.42176 2.7246 0
M  V30 5450 C 546.841 3.52216 3.90936 0
M  V30 5451 O 545.867 4.25119 3.78501 0
M  V30 5452 N 547.069 2.84573 5.05963 0
M  V30 5453 H 549.834 2.82896 0.989434 0
M  V30 5454 H 547.395 1.57008 0.394981 0
M  V30 5455 H 549.387 2.15089 3.4281 0
M  V30 5456 H 547.957 1.2499 2.86524 0
M  V30 5457 H 547.177 3.50116 1.81142 0
M  V30 5458 H 548.465 4.28509 2.74331 0
M  V30 5459 H 547.863 2.25152 5.18963 0
M  V30 5460 H 546.42 2.94228 5.81613 0
M  V30 5461 N 549.853 -0.472356 1.50355 0
M  V30 5462 C 551.269 -0.806001 1.37753 0
M  V30 5463 C 551.469 -1.968 0.432649 0
M  V30 5464 O 550.525 -2.52189 -0.12519 0
M  V30 5465 C 551.838 -1.11926 2.79093 0
M  V30 5466 C 553.386 -1.22579 2.87999 0
M  V30 5467 C 553.861 -1.57218 4.3017 0
M  V30 5468 N 555.352 -1.64212 4.33115 0
M  V30 5469 C 556.087 -1.92517 5.40116 0
M  V30 5470 N 555.583 -2.1885 6.57325 0
M  V30 5471 N 557.376 -1.94008 5.27558 0
M  V30 5472 H 549.527 0.293451 2.10363 0
M  V30 5473 H 551.79 0.0687672 0.945503 0
M  V30 5474 H 551.496 -0.338504 3.50067 0
M  V30 5475 H 551.37 -2.05577 3.16256 0
M  V30 5476 H 553.757 -1.99722 2.17245 0
M  V30 5477 H 553.838 -0.269107 2.54381 0
M  V30 5478 H 553.482 -0.806154 5.01461 0
M  V30 5479 H 553.412 -2.54034 4.61275 0
M  V30 5480 H 555.903 -1.45906 3.48597 0
M  V30 5481 H 556.216 -2.39718 7.3468 0
M  V30 5482 H 554.561 -2.16245 6.60502 0
M  V30 5483 H 557.752 -1.72931 4.34986 0
M  V30 5484 H 557.925 -2.15731 6.11035 0
M  V30 5485 N 551.331 -1.39911 -0.725443 0
M  V30 5486 C 552.294 -1.39156 -1.82121 0
M  V30 5487 C 553.294 -0.287018 -1.58218 0
M  V30 5488 O 554.484 -0.545421 -1.65441 0
M  V30 5489 C 551.616 -1.1736 -3.20062 0
M  V30 5490 H 552.809 -2.36672 -1.84191 0
M  V30 5491 H 550.362 -1.25615 -0.930079 0
M  V30 5492 H 551.097 -0.205648 -3.23647 0
M  V30 5493 H 550.882 -1.97358 -3.3881 0
M  V30 5494 H 552.372 -1.19596 -4.00108 0
M  V30 5495 N 552.809 0.956637 -1.25245 0
M  V30 5496 C 553.739 2.07058 -1.07931 0
M  V30 5497 C 554.72 1.70096 0.0110361 0
M  V30 5498 O 555.905 1.93555 -0.158121 0
M  V30 5499 C 553.035 3.40272 -0.695124 0
M  V30 5500 C 551.989 3.91235 -1.73549 0
M  V30 5501 C 551.315 5.20921 -1.20604 0
M  V30 5502 C 552.615 4.17837 -3.13385 0
M  V30 5503 H 554.309 2.218 -2.01109 0
M  V30 5504 H 551.855 1.06581 -0.968326 0
M  V30 5505 H 553.808 4.1765 -0.560949 0
M  V30 5506 H 552.532 3.25462 0.272355 0
M  V30 5507 H 551.191 3.16025 -1.85807 0
M  V30 5508 H 550.839 5.02479 -0.228846 0
M  V30 5509 H 550.539 5.55987 -1.90136 0
M  V30 5510 H 552.063 6.00897 -1.08421 0
M  V30 5511 H 553.477 4.8588 -3.04292 0
M  V30 5512 H 551.874 4.64154 -3.80369 0
M  V30 5513 H 552.944 3.2419 -3.60595 0
M  V30 5514 N 554.287 1.06798 1.15896 0
M  V30 5515 C 555.197 0.694564 2.24083 0
M  V30 5516 C 556.213 -0.291687 1.71538 0
M  V30 5517 O 557.389 -0.139723 2.00915 0
M  V30 5518 C 554.454 0.0921014 3.46578 0
M  V30 5519 C 553.515 1.13087 4.14137 0
M  V30 5520 C 552.748 0.557064 5.30785 0
M  V30 5521 O 552.971 -0.628623 5.66925 0
M  V30 5522 O 551.905 1.29924 5.8771 0
M  V30 5523 H 555.731 1.59663 2.58344 0
M  V30 5524 H 553.316 0.840575 1.2351 0
M  V30 5525 H 555.198 -0.241884 4.20705 0
M  V30 5526 H 553.873 -0.78337 3.14078 0
M  V30 5527 H 552.78 1.51712 3.41957 0
M  V30 5528 H 554.113 1.97805 4.50704 0
M  V30 5529 N 555.766 -1.3263 0.851289 0
M  V30 5530 C 557.013 -1.97368 0.453023 0
M  V30 5531 C 557.341 -1.67384 -0.990596 0
M  V30 5532 O 556.596 -0.952665 -1.70947 0
M  V30 5533 C 556.895 -3.51713 0.635015 0
M  V30 5534 C 556.561 -4.01676 2.04859 0
M  V30 5535 C 555.223 -4.15031 2.43522 0
M  V30 5536 C 557.575 -4.28206 2.97135 0
M  V30 5537 C 554.903 -4.52257 3.73739 0
M  V30 5538 C 557.255 -4.66889 4.26846 0
M  V30 5539 C 555.919 -4.7845 4.65448 0
M  V30 5540 H 555.189 -0.722219 0.165773 0
M  V30 5541 H 557.836 -1.58092 1.0807 0
M  V30 5542 H 556.141 -3.91726 -0.0759081 0
M  V30 5543 H 557.838 -3.99823 0.306964 0
M  V30 5544 H 554.428 -3.91764 1.73836 0
M  V30 5545 H 558.612 -4.174 2.68498 0
M  V30 5546 H 553.868 -4.59402 4.03435 0
M  V30 5547 H 558.042 -4.86372 4.98413 0
M  V30 5548 H 555.669 -5.07052 5.66395 0
M  V30 5549 N 557.244 -0.608902 -1.45362 0
M  V30 5550 C 558.207 0.0992563 -2.28985 0
M  V30 5551 C 559.207 0.793841 -1.39838 0
M  V30 5552 O 560.397 0.641804 -1.61946 0
M  V30 5553 C 557.529 1.15073 -3.20891 0
M  V30 5554 H 558.722 -0.635964 -2.93079 0
M  V30 5555 H 556.275 -0.368007 -1.51906 0
M  V30 5556 H 557.01 1.91667 -2.616 0
M  V30 5557 H 556.795 0.656867 -3.86559 0
M  V30 5558 H 558.285 1.64665 -3.83765 0
M  V30 5559 N 558.722 1.53707 -0.348139 0
M  V30 5560 C 559.669 2.25173 0.506518 0
M  V30 5561 C 560.639 1.25174 1.09182 0
M  V30 5562 O 561.824 1.53917 1.12757 0
M  V30 5563 C 558.964 3.03141 1.64923 0
M  V30 5564 C 558.077 4.18002 1.0908 0
M  V30 5565 C 557.212 4.83447 2.20119 0
M  V30 5566 C 556.251 5.90369 1.61651 0
M  V30 5567 N 555.388 6.49575 2.66451 0
M  V30 5568 H 560.228 2.97799 -0.109452 0
M  V30 5569 H 557.765 1.46953 -0.0657866 0
M  V30 5570 H 559.723 3.46607 2.32205 0
M  V30 5571 H 558.353 2.32803 2.23612 0
M  V30 5572 H 557.405 3.79145 0.308783 0
M  V30 5573 H 558.717 4.94892 0.623178 0
M  V30 5574 H 557.871 5.30008 2.95257 0
M  V30 5575 H 556.61 4.05991 2.70227 0
M  V30 5576 H 555.615 5.43186 0.850209 0
M  V30 5577 H 556.84 6.69735 1.1239 0
M  V30 5578 H 554.786 5.74981 3.15805 0
M  V30 5579 H 554.703 7.21952 2.24325 0
M  V30 5580 H 555.971 7.00789 3.41344 0
M  V30 5581 N 560.2 0.0768682 1.57412 0
M  V30 5582 C 561.147 -0.888577 2.13009 0
M  V30 5583 C 562.117 -1.29198 1.0439 0
M  V30 5584 O 563.302 -1.37694 1.3208 0
M  V30 5585 C 560.442 -2.14899 2.70023 0
M  V30 5586 C 559.555 -1.79777 3.92816 0
M  V30 5587 C 558.69 -3.00467 4.38056 0
M  V30 5588 C 557.729 -2.61385 5.53484 0
M  V30 5589 N 556.866 -3.74851 5.93659 0
M  V30 5590 H 561.706 -0.407593 2.95199 0
M  V30 5591 H 559.243 -0.189534 1.45874 0
M  V30 5592 H 561.201 -2.88688 3.0119 0
M  V30 5593 H 559.831 -2.60529 1.9059 0
M  V30 5594 H 558.883 -0.960301 3.68079 0
M  V30 5595 H 560.195 -1.47027 4.76639 0
M  V30 5596 H 559.349 -3.82529 4.7091 0
M  V30 5597 H 558.088 -3.36413 3.53097 0
M  V30 5598 H 557.093 -1.77746 5.20275 0
M  V30 5599 H 558.318 -2.26603 6.40178 0
M  V30 5600 H 556.264 -4.1055 5.11649 0
M  V30 5601 H 556.181 -3.45887 6.72234 0
M  V30 5602 H 557.449 -4.57477 6.31138 0
M  V30 5603 N 561.678 -1.56367 -0.196722 0
M  V30 5604 C 562.588 -1.97617 -1.2643 0
M  V30 5605 C 563.604 -0.883598 -1.49895 0
M  V30 5606 O 564.78 -1.18921 -1.62541 0
M  V30 5607 C 561.845 -2.30595 -2.58895 0
M  V30 5608 C 560.906 -3.53551 -2.43516 0
M  V30 5609 C 560.139 -3.84946 -3.69665 0
M  V30 5610 O 560.362 -3.17655 -4.73763 0
M  V30 5611 O 559.296 -4.78379 -3.65291 0
M  V30 5612 H 563.122 -2.88648 -0.944233 0
M  V30 5613 H 560.707 -1.43901 -0.401592 0
M  V30 5614 H 562.589 -2.52889 -3.37083 0
M  V30 5615 H 561.264 -1.42732 -2.90533 0
M  V30 5616 H 560.171 -3.36507 -1.63445 0
M  V30 5617 H 561.504 -4.41875 -2.16812 0
M  V30 5618 N 563.156 0.464375 -1.50603 0
M  V30 5619 C 564.404 1.21356 -1.61608 0
M  V30 5620 C 564.725 1.92329 -0.321643 0
M  V30 5621 O 563.995 1.84403 0.661232 0
M  V30 5622 H 562.575 0.45094 -0.595535 0
M  V30 5623 H 565.237 0.535046 -1.87412 0
M  V30 5624 H 564.333 1.95783 -2.43054 0
M  V30 5625 N 564.634 1.40294 0.718013 0
M  V30 5626 C 565.582 1.40536 1.85344 0
M  V30 5627 C 566.576 0.286192 1.66965 0
M  V30 5628 O 567.782 0.457105 1.74099 0
M  V30 5629 H 564.157 0.439236 0.61039 0
M  V30 5630 H 566.128 2.36275 1.82255 0
M  V30 5631 C 564.877 1.28245 3.23185 0
M  V30 5632 H 564.2 2.1364 3.37932 0
M  V30 5633 H 565.64 1.32474 4.02774 0
M  V30 5634 C 564.099 -0.0075503 3.36899 0
M  V30 5635 O 564.629 -0.971391 3.89778 0
M  V30 5636 N 562.835 -0.0762479 2.905 0
M  V30 5637 H 562.382 0.708819 2.47656 0
M  V30 5638 H 562.34 -0.938846 3.00055 0
M  V30 5639 N 566.112 -0.949982 1.2575 0
M  V30 5640 C 567.34 -1.72972 1.13527 0
M  V30 5641 C 567.755 -1.8623 -0.310453 0
M  V30 5642 O 567.112 -1.36336 -1.2132 0
M  V30 5643 C 567.163 -3.14108 1.78936 0
M  V30 5644 O 566.884 -3.01493 3.17858 0
M  V30 5645 C 568.385 -4.08338 1.72554 0
M  V30 5646 H 565.605 -0.541864 0.395758 0
M  V30 5647 H 568.149 -1.19151 1.66202 0
M  V30 5648 H 566.304 -3.64858 1.30221 0
M  V30 5649 H 566.718 -3.90559 3.50092 0
M  V30 5650 H 568.192 -5.04963 2.22973 0
M  V30 5651 H 568.669 -4.33742 0.690251 0
M  V30 5652 H 569.275 -3.63506 2.2078 0
M  V30 5653 N 567.59 -1.07411 -1.15328 0
M  V30 5654 C 568.52 -0.716472 -2.22236 0
M  V30 5655 C 569.501 0.296373 -1.67498 0
M  V30 5656 O 570.686 0.168989 -1.93463 0
M  V30 5657 C 567.816 -0.114142 -3.47112 0
M  V30 5658 C 566.77 -1.05421 -4.14814 0
M  V30 5659 C 566.096 -0.314604 -5.33774 0
M  V30 5660 C 567.396 -2.38808 -4.64508 0
M  V30 5661 H 569.09 -1.61029 -2.52408 0
M  V30 5662 H 566.636 -0.775702 -1.21321 0
M  V30 5663 H 568.589 0.148001 -4.2114 0
M  V30 5664 H 567.313 0.814755 -3.16274 0
M  V30 5665 H 565.972 -1.30128 -3.42728 0
M  V30 5666 H 565.62 0.617772 -4.99192 0
M  V30 5667 H 565.32 -0.941209 -5.80013 0
M  V30 5668 H 566.844 -0.0602747 -6.1057 0
M  V30 5669 H 568.258 -2.18424 -5.3006 0
M  V30 5670 H 566.655 -2.97069 -5.21412 0
M  V30 5671 H 567.725 -3.01067 -3.80114 0
M  V30 5672 N 569.068 1.32177 -0.85831 0
M  V30 5673 C 570.314 1.97417 -0.46417 0
M  V30 5674 C 570.647 1.67746 0.978514 0
M  V30 5675 O 569.922 0.967654 1.68721 0
M  V30 5676 C 570.205 3.53069 -0.708094 0
M  V30 5677 C 570.058 3.92357 -2.19946 0
M  V30 5678 C 571.377 4.39783 -0.166881 0
M  V30 5679 H 568.496 0.717097 -0.17012 0
M  V30 5680 H 571.138 1.56499 -1.07741 0
M  V30 5681 H 569.288 3.88054 -0.186128 0
M  V30 5682 H 570.96 3.67533 -2.78779 0
M  V30 5683 H 569.203 3.41384 -2.67656 0
M  V30 5684 H 569.874 5.00841 -2.32082 0
M  V30 5685 H 572.35 4.11556 -0.613285 0
M  V30 5686 H 571.226 5.47671 -0.367093 0
M  V30 5687 H 571.487 4.32196 0.930559 0
M  V30 5688 N 570.547 0.616602 1.45037 0
M  V30 5689 C 571.796 0.112861 2.01384 0
M  V30 5690 C 572.109 -1.26758 1.48969 0
M  V30 5691 O 573.315 -1.86454 1.9735 0
M  V30 5692 C 571.771 0.151057 3.59583 0
M  V30 5693 C 571.379 1.53191 4.20995 0
M  V30 5694 C 573.123 -0.296974 4.2346 0
M  V30 5695 C 571.03 1.526 5.71373 0
M  V30 5696 H 569.96 0.0384254 0.75302 0
M  V30 5697 H 572.611 0.773262 1.66412 0
M  V30 5698 H 570.993 -0.57617 3.91786 0
M  V30 5699 H 572.167 2.28156 4.00352 0
M  V30 5700 H 570.482 1.92279 3.69348 0
M  V30 5701 H 573.079 -0.320712 5.33737 0
M  V30 5702 H 573.422 -1.32145 3.9477 0
M  V30 5703 H 573.955 0.377279 3.96007 0
M  V30 5704 H 570.694 2.52837 6.04776 0
M  V30 5705 H 570.214 0.819064 5.94181 0
M  V30 5706 H 571.893 1.25357 6.3474 0
M  V30 5707 N 572.025 -1.5352 0.356285 0
M  V30 5708 C 573.271 -2.01414 -0.236653 0
M  V30 5709 C 573.604 -1.24339 -1.49176 0
M  V30 5710 O 572.879 -0.334496 -1.91602 0
M  V30 5711 C 573.162 -3.56059 -0.537982 0
M  V30 5712 C 573.015 -4.43835 0.730112 0
M  V30 5713 C 574.334 -4.19127 -1.34239 0
M  V30 5714 H 571.453 -0.732135 -0.0845386 0
M  V30 5715 H 574.095 -1.83854 0.479341 0
M  V30 5716 H 572.245 -3.71153 -1.14795 0
M  V30 5717 H 573.917 -4.40555 1.36782 0
M  V30 5718 H 572.16 -4.1218 1.3524 0
M  V30 5719 H 572.831 -5.49958 0.474358 0
M  V30 5720 H 575.307 -4.07809 -0.826498 0
M  V30 5721 H 574.183 -5.27378 -1.52198 0
M  V30 5722 H 574.444 -3.74581 -2.34822 0
M  V30 5723 N 573.503 -0.0852151 -1.57369 0
M  V30 5724 C 574.731 0.58946 -1.98325 0
M  V30 5725 C 575.146 1.62333 -0.96403 0
M  V30 5726 O 574.503 1.82438 0.0476395 0
M  V30 5727 C 574.554 1.24604 -3.39347 0
M  V30 5728 O 574.275 0.253532 -4.37366 0
M  V30 5729 C 575.776 2.00726 -3.95252 0
M  V30 5730 H 572.996 0.158783 -0.651942 0
M  V30 5731 H 575.54 -0.161584 -2.03861 0
M  V30 5732 H 573.695 1.94808 -3.34856 0
M  V30 5733 H 574.109 0.726207 -5.19448 0
M  V30 5734 H 575.583 2.42039 -4.96106 0
M  V30 5735 H 576.06 2.86919 -3.32527 0
M  V30 5736 H 576.666 1.3536 -4.03185 0
M  V30 5737 N 574.981 1.5647 0.188427 0
M  V30 5738 C 575.944 1.9421 1.21718 0
M  V30 5739 C 576.944 0.823901 1.38089 0
M  V30 5740 O 578.134 1.09122 1.35787 0
M  V30 5741 C 575.266 2.22197 2.58537 0
M  V30 5742 H 576.459 2.86252 0.894418 0
M  V30 5743 H 574.012 1.50263 0.430211 0
M  V30 5744 H 574.747 1.32814 2.95856 0
M  V30 5745 H 574.532 3.03688 2.48025 0
M  V30 5746 H 576.022 2.52376 3.3271 0
M  V30 5747 N 576.459 -0.456382 1.50847 0
M  V30 5748 C 577.736 -1.21739 1.53098 0
M  V30 5749 C 578.116 -2.09179 0.284132 0
M  V30 5750 O 577.464 -2.16466 -0.731773 0
M  V30 5751 C 577.674 -2.03573 2.83477 0
M  V30 5752 C 579.022 -2.61264 3.34703 0
M  V30 5753 O 580.046 -2.13802 2.84898 0
M  V30 5754 O 578.905 -3.47779 4.21559 0
M  V30 5755 H 575.999 -0.553219 0.614718 0
M  V30 5756 H 578.545 -0.467003 1.63148 0
M  V30 5757 H 577.317 -1.39232 3.65691 0
M  V30 5758 H 576.94 -2.85716 2.76499 0
M  V30 5759 N 577.937 -1.40673 -0.710563 0
M  V30 5760 C 578.887 -1.37812 -1.81636 0
M  V30 5761 C 579.871 -0.254853 -1.58869 0
M  V30 5762 O 581.063 -0.494356 -1.69956 0
M  V30 5763 C 578.192 -1.24802 -3.19811 0
M  V30 5764 C 577.278 -2.41931 -3.48325 0
M  V30 5765 N 577.669 -3.67411 -3.47625 0
M  V30 5766 C 575.967 -2.35419 -3.78806 0
M  V30 5767 C 576.668 -4.45008 -3.74623 0
M  V30 5768 N 575.644 -3.74916 -3.93623 0
M  V30 5769 H 579.446 -2.32766 -1.79436 0
M  V30 5770 H 576.96 -1.34516 -0.909909 0
M  V30 5771 H 578.957 -1.20835 -3.99004 0
M  V30 5772 H 577.617 -0.308202 -3.23234 0
M  V30 5773 H 578.628 -4.00503 -3.28356 0
M  V30 5774 H 575.305 -1.4983 -3.89689 0
M  V30 5775 H 576.695 -5.53884 -3.80344 0
M  V30 5776 N 579.415 0.9433 -1.26252 0
M  V30 5777 C 580.378 2.02326 -1.07689 0
M  V30 5778 C 581.378 1.60779 -0.0259174 0
M  V30 5779 O 582.568 1.72108 -0.269134 0
M  V30 5780 C 579.7 3.34886 -0.63752 0
M  V30 5781 H 580.893 2.20225 -2.0357 0
M  V30 5782 H 578.446 1.12197 -1.08819 0
M  V30 5783 H 579.181 3.22684 0.323377 0
M  V30 5784 H 578.966 3.66393 -1.39637 0
M  V30 5785 H 580.456 4.14231 -0.529418 0
M  V30 5786 N 580.893 1.08022 1.14757 0
M  V30 5787 C 581.843 0.676345 2.17737 0
M  V30 5788 C 582.827 -0.302018 1.5804 0
M  V30 5789 O 584.019 -0.11466 1.76628 0
M  V30 5790 C 581.148 0.082984 3.432 0
M  V30 5791 C 580.234 1.0869 4.09936 0
M  V30 5792 N 580.625 2.26891 4.52055 0
M  V30 5793 C 578.923 0.921768 4.36371 0
M  V30 5794 C 579.624 2.90636 5.0389 0
M  V30 5795 N 578.6 2.18266 4.97856 0
M  V30 5796 H 582.402 1.5765 2.4804 0
M  V30 5797 H 579.916 0.954374 1.31398 0
M  V30 5798 H 581.913 -0.224289 4.16296 0
M  V30 5799 H 580.573 -0.812206 3.14378 0
M  V30 5800 H 581.584 2.6457 4.45223 0
M  V30 5801 H 578.261 0.0800499 4.17423 0
M  V30 5802 H 579.651 3.9104 5.46386 0
M  V30 5803 N 582.371 -1.3172 0.865308 0
M  V30 5804 C 583.334 -2.26918 0.322627 0
M  V30 5805 C 584.334 -1.52031 -0.523751 0
M  V30 5806 O 585.524 -1.70973 -0.333727 0
M  V30 5807 C 582.656 -3.36558 -0.542338 0
M  V30 5808 H 583.849 -2.76432 1.16298 0
M  V30 5809 H 581.402 -1.42573 0.640512 0
M  V30 5810 H 582.137 -2.92329 -1.40407 0
M  V30 5811 H 581.922 -3.92048 0.0636395 0
M  V30 5812 H 583.412 -4.07465 -0.91446 0
M  V30 5813 N 583.85 -0.624285 -1.44708 0
M  V30 5814 C 585.075 -0.131171 -2.06985 0
M  V30 5815 C 585.5 1.18234 -1.46295 0
M  V30 5816 O 584.858 1.72375 -0.561842 0
M  V30 5817 C 584.906 -0.0226724 -3.60593 0
M  V30 5818 O 584.01 1.02314 -3.99507 0
M  V30 5819 H 583.351 -0.0816556 -0.65896 0
M  V30 5820 H 585.88 -0.859027 -1.85693 0
M  V30 5821 H 585.891 0.170138 -4.07645 0
M  V30 5822 H 584.566 -0.981685 -4.04148 0
M  V30 5823 H 583.143 0.805452 -3.64097 0
M  V30 5824 N 585.328 1.53329 -0.364422 0
M  V30 5825 C 586.26 2.23286 0.517293 0
M  V30 5826 C 587.273 1.24657 1.04711 0
M  V30 5827 O 588.462 1.50887 0.95369 0
M  V30 5828 C 585.562 2.91604 1.72685 0
M  V30 5829 C 584.735 4.1673 1.32873 0
M  V30 5830 C 583.794 4.68269 2.40022 0
M  V30 5831 O 582.82 5.31976 2.02461 0
M  V30 5832 N 584.022 4.45983 3.7159 0
M  V30 5833 H 586.787 2.99588 -0.0819391 0
M  V30 5834 H 584.348 1.60787 -0.189544 0
M  V30 5835 H 586.34 3.22992 2.4384 0
M  V30 5836 H 584.91 2.18763 2.23297 0
M  V30 5837 H 584.13 3.91657 0.447069 0
M  V30 5838 H 585.418 4.98078 1.03902 0
M  V30 5839 H 584.816 3.95077 4.04883 0
M  V30 5840 H 583.373 4.81924 4.38854 0
M  V30 5841 N 586.806 0.0935595 1.57322 0
M  V30 5842 C 588.055 -0.570191 1.93473 0
M  V30 5843 C 588.368 -1.69434 0.977318 0
M  V30 5844 O 589.574 -2.41914 1.23248 0
M  V30 5845 C 588.03 -1.06564 3.43762 0
M  V30 5846 C 587.638 0.0286723 4.47991 0
M  V30 5847 C 589.382 -1.70221 3.88877 0
M  V30 5848 C 587.289 -0.482046 5.89432 0
M  V30 5849 H 586.219 -0.216764 0.72217 0
M  V30 5850 H 588.87 0.169313 1.82717 0
M  V30 5851 H 587.252 -1.85878 3.49664 0
M  V30 5852 H 588.426 0.804106 4.5373 0
M  V30 5853 H 586.741 0.570336 4.12476 0
M  V30 5854 H 589.338 -2.09502 4.91948 0
M  V30 5855 H 589.681 -2.57078 3.27439 0
M  V30 5856 H 590.214 -0.974919 3.85668 0
M  V30 5857 H 586.953 0.349871 6.54566 0
M  V30 5858 H 586.473 -1.22452 5.87167 0
M  V30 5859 H 588.152 -0.951508 6.39965 0
M  V30 5860 N 588.284 -1.56567 -0.180126 0
M  V30 5861 C 589.53 -1.81761 -0.899497 0
M  V30 5862 C 589.863 -0.670015 -1.82276 0
M  V30 5863 O 589.138 0.328575 -1.91705 0
M  V30 5864 C 589.421 -3.17296 -1.7028 0
M  V30 5865 C 589.274 -4.4257 -0.803255 0
M  V30 5866 C 590.593 -3.49678 -2.67233 0
M  V30 5867 H 587.712 -0.661192 -0.325567 0
M  V30 5868 H 590.354 -1.89272 -0.16612 0
M  V30 5869 H 588.504 -3.11023 -2.32802 0
M  V30 5870 H 590.176 -4.60902 -0.191585 0
M  V30 5871 H 588.419 -4.33658 -0.110796 0
M  V30 5872 H 589.09 -5.33935 -1.40064 0
M  V30 5873 H 591.566 -3.56347 -2.14839 0
M  V30 5874 H 590.442 -4.45605 -3.20511 0
M  V30 5875 H 590.703 -2.73932 -3.47007 0
M  V30 5876 N 589.762 0.448376 -1.51087 0
M  V30 5877 C 590.725 1.52588 -1.71025 0
M  V30 5878 C 591.725 1.49958 -0.580442 0
M  V30 5879 O 592.915 1.52176 -0.847833 0
M  V30 5880 C 590.047 2.92163 -1.75652 0
M  V30 5881 H 591.24 1.36218 -2.67179 0
M  V30 5882 H 588.793 0.676313 -1.4091 0
M  V30 5883 H 589.528 3.13951 -0.812724 0
M  V30 5884 H 589.313 2.95478 -2.57751 0
M  V30 5885 H 590.803 3.70349 -1.92953 0
M  V30 5886 N 591.24 1.41047 0.703093 0
M  V30 5887 C 592.651 1.35657 1.28274 0
M  V30 5888 C 593.002 0.0360309 1.96167 0
M  V30 5889 O 592.127 -0.865833 1.98324 0
M  V30 5890 C 592.722 2.45707 2.33267 0
M  V30 5891 C 591.281 2.43738 2.86825 0
M  V30 5892 C 590.428 2.25941 1.60767 0
M  V30 5893 H 593.379 1.50672 0.49836 0
M  V30 5894 H 593.4 2.14333 3.14391 0
M  V30 5895 H 592.912 3.41805 1.83824 0
M  V30 5896 H 591.013 1.51375 3.40465 0
M  V30 5897 H 591.126 3.39779 3.37768 0
M  V30 5898 H 589.49 1.73681 1.86298 0
M  V30 5899 H 590.273 3.24054 1.1333 0
M  V30 5900 N 592.718 -0.936591 1.26751 0
M  V30 5901 C 593.995 -1.66094 1.03306 0
M  V30 5902 C 594.375 -2.06568 -0.435058 0
M  V30 5903 O 593.723 -1.79305 -1.41641 0
M  V30 5904 C 593.933 -2.86969 1.98619 0
M  V30 5905 C 595.281 -3.58516 2.27489 0
M  V30 5906 O 596.305 -2.97082 1.96522 0
M  V30 5907 O 595.164 -4.69181 2.80235 0
M  V30 5908 H 592.258 -0.727568 0.393158 0
M  V30 5909 H 594.804 -0.987914 1.3798 0
M  V30 5910 H 593.576 -2.53985 2.9767 0
M  V30 5911 H 593.199 -3.61996 1.64454 0
M  V30 5912 N 594.196 -1.08629 -1.14182 0
M  V30 5913 C 595.424 -0.838889 -1.8913 0
M  V30 5914 C 595.839 0.609153 -1.78703 0
M  V30 5915 O 595.196 1.41876 -1.14794 0
M  V30 5916 C 595.247 -1.25477 -3.39025 0
M  V30 5917 O 594.968 -2.64601 -3.49167 0
M  V30 5918 C 596.469 -1.03856 -4.30963 0
M  V30 5919 H 593.689 -0.302377 -0.599007 0
M  V30 5920 H 596.233 -1.44615 -1.44592 0
M  V30 5921 H 594.388 -0.691571 -3.81177 0
M  V30 5922 H 594.802 -2.81922 -4.42289 0
M  V30 5923 H 596.276 -1.37892 -5.345 0
M  V30 5924 H 596.753 0.0242522 -4.39193 0
M  V30 5925 H 597.359 -1.58731 -3.94569 0
M  V30 5926 N 595.674 1.31259 -0.872281 0
M  V30 5927 C 596.621 2.28459 -0.327857 0
M  V30 5928 C 597.591 1.55831 0.574957 0
M  V30 5929 O 598.776 1.83965 0.506101 0
M  V30 5930 C 595.916 3.41985 0.462644 0
M  V30 5931 C 595.029 4.29458 -0.467949 0
M  V30 5932 C 594.164 5.30131 0.336903 0
M  V30 5933 C 593.203 6.0925 -0.58997 0
M  V30 5934 N 592.34 7.01872 0.178775 0
M  V30 5935 H 597.18 2.74414 -1.16193 0
M  V30 5936 H 594.717 1.34994 -0.584376 0
M  V30 5937 H 596.675 4.06547 0.936759 0
M  V30 5938 H 595.305 2.97134 1.2614 0
M  V30 5939 H 594.357 3.65318 -1.06052 0
M  V30 5940 H 595.669 4.84677 -1.17856 0
M  V30 5941 H 594.823 6.0038 0.873427 0
M  V30 5942 H 593.562 4.75573 1.08079 0
M  V30 5943 H 592.567 5.37889 -1.13823 0
M  V30 5944 H 593.792 6.65894 -1.33275 0
M  V30 5945 H 591.738 6.49721 0.905435 0
M  V30 5946 H 591.655 7.54522 -0.472452 0
M  V30 5947 H 592.923 7.76382 0.696454 0
M  V30 5948 N 597.152 0.631951 1.44375 0
M  V30 5949 C 598.115 -0.0628142 2.29114 0
M  V30 5950 C 599.115 -0.771494 1.41084 0
M  V30 5951 O 600.305 -0.615959 1.62947 0
M  V30 5952 C 597.437 -1.09953 3.22681 0
M  V30 5953 H 598.63 0.682509 2.92031 0
M  V30 5954 H 596.183 0.392128 1.51301 0
M  V30 5955 H 596.918 -1.87481 2.64616 0
M  V30 5956 H 596.703 -0.595286 3.87555 0
M  V30 5957 H 598.193 -1.58538 3.86336 0
M  V30 5958 N 598.631 -1.53133 0.372548 0
M  V30 5959 C 600.042 -1.86404 -0.105155 0
M  V30 5960 C 600.393 -1.29289 -1.47576 0
M  V30 5961 O 599.518 -0.617646 -2.07398 0
M  V30 5962 C 600.113 -3.38223 -0.197588 0
M  V30 5963 C 598.672 -3.71266 -0.619556 0
M  V30 5964 C 597.819 -2.76353 0.228919 0
M  V30 5965 H 600.77 -1.47282 0.591077 0
M  V30 5966 H 600.791 -3.66577 -1.01987 0
M  V30 5967 H 600.303 -3.79763 0.800099 0
M  V30 5968 H 598.404 -3.35287 -1.62522 0
M  V30 5969 H 598.517 -4.77515 -0.389332 0
M  V30 5970 H 596.881 -2.52888 -0.303271 0
M  V30 5971 H 597.664 -3.20728 1.22428 0
M  V30 5972 N 600.109 -0.101901 -1.5727 0
M  V30 5973 C 601.357 0.559091 -1.94213 0
M  V30 5974 C 601.678 1.68297 -0.984948 0
M  V30 5975 O 600.948 1.95863 -0.0381975 0
M  V30 5976 H 599.528 0.20952 -0.717015 0
M  V30 5977 H 602.19 -0.166831 -1.94185 0
M  V30 5978 H 601.286 0.96485 -2.96811 0
M  V30 5979 N 601.587 1.56661 0.17182 0
M  V30 5980 C 602.517 1.99401 1.21498 0
M  V30 5981 C 603.498 0.869516 1.46197 0
M  V30 5982 O 604.683 1.13556 1.57539 0
M  V30 5983 C 601.813 2.35346 2.55401 0
M  V30 5984 C 600.767 3.5075 2.45272 0
M  V30 5985 C 600.093 3.72437 3.8366 0
M  V30 5986 C 601.393 4.84216 1.95787 0
M  V30 5987 H 603.087 2.86792 0.859699 0
M  V30 5988 H 600.633 1.37977 0.412103 0
M  V30 5989 H 602.586 2.63843 3.2858 0
M  V30 5990 H 601.31 1.44864 2.92715 0
M  V30 5991 H 599.969 3.2238 1.74547 0
M  V30 5992 H 599.617 2.79246 4.18367 0
M  V30 5993 H 599.317 4.50087 3.77751 0
M  V30 5994 H 600.841 4.03334 4.58426 0
M  V30 5995 H 602.255 5.11592 2.5874 0
M  V30 5996 H 600.652 5.65498 2.00827 0
M  V30 5997 H 601.722 4.76243 0.912159 0
M  V30 5998 N 603.065 -0.440357 1.51323 0
M  V30 5999 C 604.293 -1.21255 1.67645 0
M  V30 6000 C 604.708 -1.85088 0.37252 0
M  V30 6001 O 604.065 -1.70582 -0.648683 0
M  V30 6002 C 604.116 -2.29881 2.78993 0
M  V30 6003 O 603.837 -1.68659 4.04334 0
M  V30 6004 C 605.338 -3.20214 3.06558 0
M  V30 6005 H 602.558 -0.36558 0.562666 0
M  V30 6006 H 605.102 -0.52214 1.97722 0
M  V30 6007 H 603.257 -2.94643 2.51524 0
M  V30 6008 H 603.671 -2.40426 4.6615 0
M  V30 6009 H 605.145 -3.92575 3.88058 0
M  V30 6010 H 605.622 -3.80794 2.18844 0
M  V30 6011 H 606.228 -2.61156 3.35675 0
M  V30 6012 N 604.543 -1.41418 -0.695603 0
M  V30 6013 C 605.475 -1.39195 -1.82092 0
M  V30 6014 C 606.488 -0.294132 -1.60121 0
M  V30 6015 O 607.677 -0.555854 -1.69625 0
M  V30 6016 C 604.777 -1.14828 -3.18854 0
M  V30 6017 C 603.95 -2.36649 -3.67853 0
M  V30 6018 C 603.009 -2.08139 -4.83285 0
M  V30 6019 O 602.035 -2.81177 -4.94902 0
M  V30 6020 N 603.237 -1.07162 -5.70523 0
M  V30 6021 H 606.002 -2.36185 -1.84491 0
M  V30 6022 H 603.563 -1.3603 -0.877923 0
M  V30 6023 H 605.555 -0.937075 -3.93702 0
M  V30 6024 H 604.125 -0.264358 -3.1148 0
M  V30 6025 H 603.345 -2.73472 -2.83913 0
M  V30 6026 H 604.633 -3.17816 -3.97329 0
M  V30 6027 H 604.031 -0.467124 -5.63768 0
M  V30 6028 H 602.588 -0.920311 -6.4527 0
M  V30 6029 N 606.021 0.929856 -1.27246 0
M  V30 6030 C 606.984 2.01172 -1.09829 0
M  V30 6031 C 607.984 1.60743 -0.0429687 0
M  V30 6032 O 609.174 1.71813 -0.287373 0
M  V30 6033 C 606.306 3.34191 -0.673003 0
M  V30 6034 H 607.499 2.18054 -2.05895 0
M  V30 6035 H 605.052 1.11036 -1.10003 0
M  V30 6036 H 605.787 3.23009 0.289134 0
M  V30 6037 H 605.572 3.64892 -1.43515 0
M  V30 6038 H 607.062 4.13646 -0.573323 0
M  V30 6039 N 607.499 1.09233 1.13605 0
M  V30 6040 C 608.429 0.751738 2.21068 0
M  V30 6041 C 609.41 -0.269688 1.67948 0
M  V30 6042 O 610.595 -0.13819 1.93708 0
M  V30 6043 C 607.725 0.16935 3.46887 0
M  V30 6044 C 606.679 1.12007 4.13084 0
M  V30 6045 C 606.005 0.399483 5.33206 0
M  V30 6046 C 607.305 2.46168 4.6065 0
M  V30 6047 H 608.999 1.65024 2.49815 0
M  V30 6048 H 606.545 0.794905 1.20072 0
M  V30 6049 H 608.498 -0.0809824 4.21322 0
M  V30 6050 H 607.222 -0.764335 3.1753 0
M  V30 6051 H 605.881 1.35564 3.40614 0
M  V30 6052 H 605.529 -0.538277 5.00112 0
M  V30 6053 H 605.229 1.03337 5.78442 0
M  V30 6054 H 606.753 0.157403 6.10397 0
M  V30 6055 H 608.167 2.26829 5.26518 0
M  V30 6056 H 606.564 3.05326 5.1662 0
M  V30 6057 H 607.634 3.07076 3.75276 0
M  V30 6058 N 608.977 -1.30795 0.87923 0
M  V30 6059 C 609.925 -2.30231 0.331112 0
M  V30 6060 C 610.919 -1.59918 -0.558794 0
M  V30 6061 O 612.125 -1.74441 -0.443866 0
M  V30 6062 H 608.5 -0.746785 0.088409 0
M  V30 6063 H 610.471 -2.73925 1.18353 0
M  V30 6064 C 609.22 -3.44848 -0.444401 0
M  V30 6065 H 608.543 -3.99131 0.231106 0
M  V30 6066 H 609.983 -4.16516 -0.793109 0
M  V30 6067 C 608.442 -2.94329 -1.63926 0
M  V30 6068 O 608.972 -2.93875 -2.73862 0
M  V30 6069 N 607.178 -2.50413 -1.4745 0
M  V30 6070 H 606.725 -2.50982 -0.58015 0
M  V30 6071 H 606.683 -2.16969 -2.27534 0
M  V30 6072 N 610.455 -0.639598 -1.44038 0
M  V30 6073 C 611.683 -0.154811 -2.0632 0
M  V30 6074 C 612.098 1.17406 -1.47856 0
M  V30 6075 O 611.455 1.72193 -0.604638 0
M  V30 6076 C 611.506 -0.0429958 -3.61474 0
M  V30 6077 O 611.227 -1.31932 -4.17763 0
M  V30 6078 C 612.728 0.469486 -4.40807 0
M  V30 6079 H 609.948 -0.0835862 -0.665773 0
M  V30 6080 H 612.492 -0.876397 -1.84769 0
M  V30 6081 H 610.647 0.629075 -3.82258 0
M  V30 6082 H 611.061 -1.16965 -5.11292 0
M  V30 6083 H 612.535 0.496712 -5.49761 0
M  V30 6084 H 613.012 1.49819 -4.12857 0
M  V30 6085 H 613.618 -0.169624 -4.24962 0
M  V30 6086 N 611.933 1.52934 -0.380664 0
M  V30 6087 C 612.88 2.26197 0.458641 0
M  V30 6088 C 613.85 1.27462 1.06502 0
M  V30 6089 O 615.035 1.56274 1.09467 0
M  V30 6090 C 612.175 3.06571 1.58456 0
M  V30 6091 C 611.288 4.20222 1.00189 0
M  V30 6092 C 610.423 4.88007 2.09815 0
M  V30 6093 C 609.462 5.93665 1.49092 0
M  V30 6094 N 608.599 6.55081 2.52613 0
M  V30 6095 H 613.439 2.975 -0.172595 0
M  V30 6096 H 610.976 1.4678 -0.0969426 0
M  V30 6097 H 612.934 3.51455 2.24801 0
M  V30 6098 H 611.564 2.37494 2.18624 0
M  V30 6099 H 610.616 3.79714 0.228292 0
M  V30 6100 H 611.928 4.96102 0.518064 0
M  V30 6101 H 611.082 5.36151 2.83948 0
M  V30 6102 H 609.821 4.11632 2.61555 0
M  V30 6103 H 608.826 5.44868 0.7348 0
M  V30 6104 H 610.051 6.71969 0.981582 0
M  V30 6105 H 607.997 5.8155 3.03538 0
M  V30 6106 H 607.914 7.26548 2.08961 0
M  V30 6107 H 609.182 7.07871 3.26402 0
M  V30 6108 N 613.412 0.11024 1.57214 0
M  V30 6109 C 614.689 -0.592956 1.86396 0
M  V30 6110 C 615.069 -1.85379 1.00985 0
M  V30 6111 O 614.417 -2.28337 0.0863592 0
M  V30 6112 C 614.627 -0.893816 3.3736 0
M  V30 6113 C 615.975 -1.25069 4.05762 0
M  V30 6114 O 616.999 -0.984356 3.42329 0
M  V30 6115 O 615.858 -1.75017 5.17718 0
M  V30 6116 H 612.952 -0.29828 0.771335 0
M  V30 6117 H 615.498 0.144083 1.69087 0
M  V30 6118 H 614.27 2.6031e-05 3.913 0
M  V30 6119 H 613.893 -1.68631 3.60068 0
M  V30 6120 N 614.89 -1.56749 -0.16351 0
M  V30 6121 C 616.138 -1.82074 -0.87713 0
M  V30 6122 C 616.459 -0.688503 -1.82441 0
M  V30 6123 O 615.729 0.291085 -1.93725 0
M  V30 6124 H 614.309 -0.671677 -0.326893 0
M  V30 6125 H 616.971 -1.9423 -0.161459 0
M  V30 6126 H 616.067 -2.76407 -1.44934 0
M  V30 6127 N 616.368 0.432326 -1.51554 0
M  V30 6128 C 617.331 1.50765 -1.72634 0
M  V30 6129 C 618.331 1.49334 -0.596314 0
M  V30 6130 O 619.521 1.51268 -0.863925 0
M  V30 6131 C 616.653 2.90284 -1.7874 0
M  V30 6132 H 617.846 1.33377 -2.68609 0
M  V30 6133 H 615.399 0.661329 -1.4162 0
M  V30 6134 H 616.134 3.13071 -0.845977 0
M  V30 6135 H 615.919 2.92727 -2.6087 0
M  V30 6136 H 617.409 3.68282 -1.96871 0
M  V30 6137 N 617.846 1.41785 0.688094 0
M  V30 6138 C 619.092 1.41753 1.4503 0
M  V30 6139 C 619.425 0.0290745 1.94178 0
M  V30 6140 O 618.7 -0.944456 1.7003 0
M  V30 6141 C 618.983 2.43069 2.65686 0
M  V30 6142 C 618.836 3.91053 2.22256 0
M  V30 6143 C 620.155 2.41543 3.67893 0
M  V30 6144 H 617.274 0.516202 0.526027 0
M  V30 6145 H 619.916 1.73111 0.783105 0
M  V30 6146 H 618.066 2.1646 3.2261 0
M  V30 6147 H 619.738 4.28594 1.70602 0
M  V30 6148 H 617.981 4.05559 1.53963 0
M  V30 6149 H 618.652 4.57501 3.08863 0
M  V30 6150 H 621.128 2.65175 3.20658 0
M  V30 6151 H 620.004 3.14434 4.49914 0
M  V30 6152 H 620.265 1.43666 4.18106 0
M  V30 6153 N 619.324 -0.923095 1.27737 0
M  V30 6154 C 620.257 -2.02515 1.05181 0
M  V30 6155 C 621.235 -1.62574 -0.0292204 0
M  V30 6156 O 622.419 -1.88137 0.116848 0
M  V30 6157 C 619.546 -3.33407 0.596468 0
M  V30 6158 C 618.592 -3.92328 1.67276 0
M  V30 6159 S 619.425 -4.24342 3.26641 0
M  V30 6160 C 620.581 -5.58308 2.82919 0
M  V30 6161 H 620.814 -2.21336 1.98488 0
M  V30 6162 H 618.347 -1.06679 1.1162 0
M  V30 6163 H 620.305 -4.09086 0.34044 0
M  V30 6164 H 618.966 -3.125 -0.316614 0
M  V30 6165 H 618.159 -4.86797 1.30556 0
M  V30 6166 H 617.761 -3.2325 1.8811 0
M  V30 6167 H 620.053 -6.37801 2.28509 0
M  V30 6168 H 620.996 -5.99931 3.7615 0
M  V30 6169 H 621.404 -5.19049 2.21919 0
M  V30 6170 N 620.802 -1.09834 -1.13024 0
M  V30 6171 C 622.048 -0.83819 -1.84668 0
M  V30 6172 C 622.381 0.634645 -1.83537 0
M  V30 6173 O 621.656 1.46753 -1.27647 0
M  V30 6174 C 621.939 -1.37933 -3.32636 0
M  V30 6175 C 621.792 -2.91857 -3.42257 0
M  V30 6176 C 623.111 -1.01654 -4.28199 0
M  V30 6177 H 620.23 -0.30595 -0.670495 0
M  V30 6178 H 622.872 -1.36044 -1.32635 0
M  V30 6179 H 621.022 -0.935111 -3.77078 0
M  V30 6180 H 622.694 -3.44759 -3.06495 0
M  V30 6181 H 620.937 -3.28776 -2.83 0
M  V30 6182 H 621.608 -3.24799 -4.46329 0
M  V30 6183 H 624.084 -1.39973 -3.9185 0
M  V30 6184 H 622.96 -1.42217 -5.30156 0
M  V30 6185 H 623.221 0.0747794 -4.42037 0
M  V30 6186 N 622.28 1.30327 -0.886154 0
M  V30 6187 C 623.213 2.26241 -0.298407 0
M  V30 6188 C 624.191 1.51839 0.581704 0
M  V30 6189 O 625.375 1.80851 0.531536 0
M  V30 6190 C 622.502 3.33768 0.575888 0
M  V30 6191 C 621.548 4.25852 -0.235057 0
M  V30 6192 S 622.381 5.10277 -1.62411 0
M  V30 6193 C 623.537 6.21313 -0.756368 0
M  V30 6194 H 623.77 2.75744 -1.11141 0
M  V30 6195 H 621.303 1.38341 -0.685651 0
M  V30 6196 H 623.261 3.96186 1.07458 0
M  V30 6197 H 621.922 2.82986 1.363 0
M  V30 6198 H 621.115 5.02143 0.432198 0
M  V30 6199 H 620.717 3.68015 -0.666409 0
M  V30 6200 H 623.009 6.77495 0.0261451 0
M  V30 6201 H 623.952 6.92226 -1.49093 0
M  V30 6202 H 624.36 5.63611 -0.316749 0
M  V30 6203 N 623.758 0.647228 1.43697 0
M  V30 6204 C 624.983 0.164083 2.0675 0
M  V30 6205 C 625.408 -1.15892 1.48158 0
M  V30 6206 O 624.766 -1.71459 0.589194 0
M  V30 6207 C 624.814 0.0800368 3.60511 0
M  V30 6208 O 623.918 -0.959453 4.01084 0
M  V30 6209 H 623.259 0.0921288 0.657578 0
M  V30 6210 H 625.789 0.88846 1.84303 0
M  V30 6211 H 625.799 -0.105263 4.07864 0
M  V30 6212 H 624.474 1.04586 4.02535 0
M  V30 6213 H 623.051 -0.747425 3.65333 0
M  V30 6214 N 625.236 -1.5273 0.388769 0
M  V30 6215 C 626.466 -2.05693 -0.193397 0
M  V30 6216 C 626.874 -1.26038 -1.41107 0
M  V30 6217 O 626.217 -0.30001 -1.81234 0
M  V30 6218 C 626.279 -3.53962 -0.628561 0
M  V30 6219 C 625.943 -4.54519 0.475576 0
M  V30 6220 C 626.94 -5.02526 1.33281 0
M  V30 6221 C 624.625 -4.98174 0.642453 0
M  V30 6222 C 626.619 -5.92812 2.34205 0
M  V30 6223 C 624.306 -5.88262 1.65503 0
M  V30 6224 C 625.304 -6.35473 2.50325 0
M  V30 6225 O 624.992 -7.23781 3.49852 0
M  V30 6226 H 624.724 -0.675197 -0.0329395 0
M  V30 6227 H 627.278 -1.97835 0.552326 0
M  V30 6228 H 625.508 -3.59437 -1.42625 0
M  V30 6229 H 627.197 -3.89669 -1.13633 0
M  V30 6230 H 627.963 -4.6953 1.21519 0
M  V30 6231 H 623.842 -4.60999 -0.00805093 0
M  V30 6232 H 627.386 -6.29585 3.00447 0
M  V30 6233 H 623.283 -6.20672 1.77304 0
M  V30 6234 H 624.051 -7.4184 3.45855 0
M  V30 6235 N 626.714 -0.118576 -1.57153 0
M  V30 6236 C 627.962 0.538461 -1.94795 0
M  V30 6237 C 628.283 1.67243 -1.00274 0
M  V30 6238 O 627.553 1.95811 -0.0589692 0
M  V30 6239 H 626.133 0.201904 -0.719197 0
M  V30 6240 H 628.795 -0.187418 -1.93997 0
M  V30 6241 H 627.891 0.933315 -2.97818 0
M  V30 6242 N 628.193 1.56834 0.155195 0
M  V30 6243 C 629.141 1.98584 1.21107 0
M  V30 6244 C 630.135 0.876987 1.44932 0
M  V30 6245 O 631.341 1.06215 1.45322 0
M  V30 6246 H 627.716 0.632039 0.407469 0
M  V30 6247 H 629.687 2.86561 0.832195 0
M  V30 6248 C 628.436 2.37555 2.53895 0
M  V30 6249 H 627.759 3.22428 2.3639 0
M  V30 6250 H 629.199 2.70598 3.26424 0
M  V30 6251 C 627.658 1.22507 3.13837 0
M  V30 6252 O 628.188 0.521388 3.98302 0
M  V30 6253 N 626.394 0.991444 2.73164 0
M  V30 6254 H 625.941 1.56544 2.04577 0
M  V30 6255 H 625.899 0.223546 3.13604 0
M  V30 6256 N 629.671 -0.424282 1.51781 0
M  V30 6257 C 630.896 -1.19928 1.6921 0
M  V30 6258 C 631.321 -1.8392 0.394355 0
M  V30 6259 O 630.679 -1.69371 -0.646778 0
M  V30 6260 C 630.727 -2.24937 2.81843 0
M  V30 6261 O 629.831 -3.3073 2.46356 0
M  V30 6262 H 629.172 -0.35078 0.563781 0
M  V30 6263 H 631.702 -0.499401 1.98412 0
M  V30 6264 H 631.712 -2.69512 3.06312 0
M  V30 6265 H 630.387 -1.77742 3.76006 0
M  V30 6266 H 628.964 -2.9154 2.32505 0
M  V30 6267 N 631.149 -1.42148 -0.680565 0
M  V30 6268 C 632.059 -1.47565 -1.82378 0
M  V30 6269 C 633.075 -0.36489 -1.70131 0
M  V30 6270 O 634.251 -0.614916 -1.91783 0
M  V30 6271 C 631.316 -1.37013 -3.18478 0
M  V30 6272 C 630.377 -2.58532 -3.42724 0
M  V30 6273 C 629.61 -2.48473 -4.72331 0
M  V30 6274 O 629.833 -1.51745 -5.49845 0
M  V30 6275 O 628.767 -3.38503 -4.97694 0
M  V30 6276 H 632.593 -2.44045 -1.80764 0
M  V30 6277 H 630.178 -1.23849 -0.835569 0
M  V30 6278 H 632.06 -1.33468 -3.99705 0
M  V30 6279 H 630.735 -0.436552 -3.20743 0
M  V30 6280 H 629.642 -2.67652 -2.61368 0
M  V30 6281 H 630.975 -3.50769 -3.45286 0
M  V30 6282 N 632.627 0.916307 -1.28225 0
M  V30 6283 C 633.537 2.05165 -1.13775 0
M  V30 6284 C 634.553 1.73879 -0.0649418 0
M  V30 6285 O 635.729 1.99531 -0.273722 0
M  V30 6286 C 632.794 3.37385 -0.798267 0
M  V30 6287 C 631.855 3.82296 -1.95316 0
M  V30 6288 C 631.088 5.08206 -1.62978 0
M  V30 6289 O 631.311 5.6781 -0.542948 0
M  V30 6290 O 630.245 5.48768 -2.47261 0
M  V30 6291 H 634.071 2.20273 -2.09078 0
M  V30 6292 H 631.656 1.0373 -1.07519 0
M  V30 6293 H 633.538 4.16773 -0.62278 0
M  V30 6294 H 632.213 3.23458 0.125139 0
M  V30 6295 H 631.12 3.03746 -2.18378 0
M  V30 6296 H 632.453 4.00782 -2.85718 0
M  V30 6297 N 634.105 1.10431 1.1244 0
M  V30 6298 C 635.382 0.758797 1.80282 0
M  V30 6299 C 635.762 -0.754727 1.97147 0
M  V30 6300 O 635.11 -1.68094 1.54779 0
M  V30 6301 C 635.32 1.50982 3.14651 0
M  V30 6302 C 636.668 1.68232 3.8985 0
M  V30 6303 O 637.692 1.47319 3.24308 0
M  V30 6304 O 636.551 2.02905 5.07437 0
M  V30 6305 H 633.645 0.273756 0.780376 0
M  V30 6306 H 636.191 1.20713 1.19275 0
M  V30 6307 H 634.963 2.53989 2.97666 0
M  V30 6308 H 634.586 1.05435 3.83366 0
M  V30 6309 N 635.583 -1.29855 0.893053 0
M  V30 6310 C 636.808 -2.00512 0.530066 0
M  V30 6311 C 637.233 -1.66446 -0.876199 0
M  V30 6312 O 636.591 -0.885446 -1.58207 0
M  V30 6313 C 636.639 -3.53308 0.721505 0
M  V30 6314 O 635.743 -4.11764 -0.228994 0
M  V30 6315 H 635.084 -0.630617 0.207891 0
M  V30 6316 H 637.614 -1.6551 1.20282 0
M  V30 6317 H 637.624 -4.03206 0.623599 0
M  V30 6318 H 636.299 -3.77439 1.74678 0
M  V30 6319 H 634.876 -3.72805 -0.0841034 0
M  V30 6320 N 637.061 -0.65484 -1.43351 0
M  V30 6321 C 637.993 0.0744757 -2.29079 0
M  V30 6322 C 639.006 0.7855 -1.42596 0
M  V30 6323 O 640.195 0.642986 -1.66517 0
M  V30 6324 C 637.295 1.12859 -3.19556 0
M  V30 6325 C 636.468 0.495381 -4.34586 0
M  V30 6326 C 635.527 1.44659 -5.05925 0
M  V30 6327 O 634.553 0.954567 -5.61139 0
M  V30 6328 N 635.755 2.78051 -5.09576 0
M  V30 6329 H 638.52 -0.661346 -2.92312 0
M  V30 6330 H 636.081 -0.497744 -1.54059 0
M  V30 6331 H 638.073 1.76577 -3.64147 0
M  V30 6332 H 636.643 1.76636 -2.57912 0
M  V30 6333 H 635.863 -0.32092 -3.92892 0
M  V30 6334 H 637.151 0.0534203 -5.08772 0
M  V30 6335 H 636.549 3.20584 -4.66093 0
M  V30 6336 H 635.106 3.37068 -5.57878 0
M  V30 6337 N 638.539 1.52521 -0.396863 0
M  V30 6338 C 639.449 2.30403 0.44178 0
M  V30 6339 C 640.465 1.37625 1.06468 0
M  V30 6340 O 641.641 1.70697 1.06886 0
M  V30 6341 C 638.706 3.1013 1.54986 0
M  V30 6342 C 637.767 4.18628 0.951279 0
M  V30 6343 C 637 4.94543 2.00655 0
M  V30 6344 O 637.223 4.70629 3.22281 0
M  V30 6345 O 636.157 5.797 1.61962 0
M  V30 6346 H 639.983 3.03087 -0.192892 0
M  V30 6347 H 637.568 1.48537 -0.16038 0
M  V30 6348 H 639.45 3.59816 2.19341 0
M  V30 6349 H 638.125 2.40251 2.16935 0
M  V30 6350 H 637.032 3.73119 0.270773 0
M  V30 6351 H 638.365 4.90763 0.375887 0
M  V30 6352 N 640.017 0.126909 1.57088 0
M  V30 6353 C 640.967 -0.831678 2.1229 0
M  V30 6354 C 641.951 -1.22292 1.04564 0
M  V30 6355 O 643.143 -1.19269 1.30782 0
M  V30 6356 C 640.272 -2.07866 2.73215 0
M  V30 6357 C 639.358 -1.71143 3.88035 0
M  V30 6358 N 639.749 -1.05136 4.94753 0
M  V30 6359 C 638.047 -2.00549 3.98367 0
M  V30 6360 C 638.748 -0.877257 5.75047 0
M  V30 6361 N 637.724 -1.40477 5.25135 0
M  V30 6362 H 641.526 -0.317926 2.92175 0
M  V30 6363 H 639.04 -0.0753052 1.62225 0
M  V30 6364 H 641.037 -2.77516 3.11111 0
M  V30 6365 H 639.697 -2.59778 1.94796 0
M  V30 6366 H 640.708 -0.71442 5.12949 0
M  V30 6367 H 637.385 -2.54452 3.30999 0
M  V30 6368 H 638.775 -0.358536 6.70943 0
M  V30 6369 N 641.495 -1.56914 -0.146875 0
M  V30 6370 C 642.723 -1.87515 -0.874394 0
M  V30 6371 C 643.138 -0.715116 -1.74733 0
M  V30 6372 O 642.495 0.315113 -1.79759 0
M  V30 6373 C 642.546 -3.17362 -1.731 0
M  V30 6374 O 642.267 -4.28897 -0.893245 0
M  V30 6375 C 643.768 -3.61479 -2.56609 0
M  V30 6376 H 640.988 -0.621546 -0.252827 0
M  V30 6377 H 643.532 -2.04023 -0.139627 0
M  V30 6378 H 641.687 -3.02608 -2.41883 0
M  V30 6379 H 642.101 -5.03146 -1.48137 0
M  V30 6380 H 643.575 -4.5517 -3.12289 0
M  V30 6381 H 644.052 -2.86773 -3.32653 0
M  V30 6382 H 644.658 -3.78927 -1.93117 0
M  V30 6383 N 642.974 0.416227 -1.52004 0
M  V30 6384 C 644.222 1.16153 -1.65387 0
M  V30 6385 C 644.543 1.91208 -0.382669 0
M  V30 6386 O 643.813 1.86413 0.602231 0
M  V30 6387 H 642.393 0.431765 -0.60958 0
M  V30 6388 H 645.055 0.475151 -1.89019 0
M  V30 6389 H 644.151 1.87952 -2.4916 0
M  V30 6390 N 644.452 1.42507 0.673017 0
M  V30 6391 C 645.677 1.4668 1.46627 0
M  V30 6392 C 646.102 0.080066 1.8793 0
M  V30 6393 O 645.46 -0.921879 1.56112 0
M  V30 6394 C 645.508 2.40091 2.69051 0
M  V30 6395 O 644.612 1.8735 3.67387 0
M  V30 6396 H 643.953 0.496908 0.44043 0
M  V30 6397 H 646.483 1.87215 0.825334 0
M  V30 6398 H 646.493 2.56731 3.17101 0
M  V30 6399 H 645.168 3.4084 2.3833 0
M  V30 6400 H 643.745 1.80274 3.26429 0
M  V30 6401 N 645.93 -0.909495 1.28709 0
M  V30 6402 C 646.862 -2.01729 1.08804 0
M  V30 6403 C 647.875 -1.62755 0.0384739 0
M  V30 6404 O 649.064 -1.76259 0.281977 0
M  V30 6405 C 646.164 -3.32952 0.63217 0
M  V30 6406 C 645.337 -4.00512 1.75809 0
M  V30 6407 C 644.396 -5.10019 1.29488 0
M  V30 6408 O 643.422 -5.32986 1.99787 0
M  V30 6409 N 644.624 -5.80278 0.1604 0
M  V30 6410 H 647.389 -2.19362 2.04207 0
M  V30 6411 H 644.95 -1.08106 1.20518 0
M  V30 6412 H 646.942 -4.03543 0.305802 0
M  V30 6413 H 645.512 -3.11759 -0.229134 0
M  V30 6414 H 644.732 -3.23413 2.25383 0
M  V30 6415 H 646.02 -4.42395 2.51325 0
M  V30 6416 H 645.418 -5.64094 -0.425937 0
M  V30 6417 H 643.975 -6.51713 -0.106663 0
M  V30 6418 N 647.408 -1.11026 -1.11852 0
M  V30 6419 C 648.338 -0.786812 -2.19844 0
M  V30 6420 C 649.319 0.242935 -1.68356 0
M  V30 6421 O 650.504 0.107355 -1.93903 0
M  V30 6422 C 647.634 -0.224516 -3.46574 0
M  V30 6423 C 646.588 -1.18564 -4.1125 0
M  V30 6424 C 645.914 -0.484261 -5.32503 0
M  V30 6425 C 647.214 -2.53465 -4.56676 0
M  V30 6426 H 648.908 -1.68978 -2.47158 0
M  V30 6427 H 646.454 -0.813906 -1.18792 0
M  V30 6428 H 648.407 0.0139435 -4.21398 0
M  V30 6429 H 647.131 0.713722 -3.18706 0
M  V30 6430 H 645.79 -1.40966 -3.38414 0
M  V30 6431 H 645.438 0.458646 -5.00905 0
M  V30 6432 H 645.138 -1.12526 -5.76725 0
M  V30 6433 H 646.662 -0.254492 -6.10069 0
M  V30 6434 H 648.076 -2.35177 -5.22843 0
M  V30 6435 H 646.473 -3.13507 -5.11697 0
M  V30 6436 H 647.543 -3.13008 -3.70343 0
M  V30 6437 N 648.886 1.2938 -0.899927 0
M  V30 6438 C 650.302 1.48052 -0.596059 0
M  V30 6439 C 650.502 1.82114 0.862372 0
M  V30 6440 O 649.558 1.91774 1.64253 0
M  V30 6441 C 650.871 2.59332 -1.52208 0
M  V30 6442 C 652.419 2.73208 -1.5273 0
M  V30 6443 C 652.894 3.87617 -2.43961 0
M  V30 6444 N 654.385 3.9495 -2.42009 0
M  V30 6445 C 655.12 4.82824 -3.09303 0
M  V30 6446 N 654.616 5.75387 -3.85877 0
M  V30 6447 N 656.409 4.76317 -2.98459 0
M  V30 6448 H 648.56 1.05546 -1.8432 0
M  V30 6449 H 650.823 0.524314 -0.78981 0
M  V30 6450 H 650.529 2.41029 -2.56121 0
M  V30 6451 H 650.403 3.56139 -1.24278 0
M  V30 6452 H 652.79 2.90908 -0.495614 0
M  V30 6453 H 652.871 1.76975 -1.84698 0
M  V30 6454 H 652.515 3.70672 -3.47224 0
M  V30 6455 H 652.445 4.83218 -2.09303 0
M  V30 6456 H 654.936 3.28744 -1.86375 0
M  V30 6457 H 655.249 6.39235 -4.34279 0
M  V30 6458 H 653.594 5.75272 -3.89984 0
M  V30 6459 H 656.785 4.0299 -2.38152 0
M  V30 6460 H 656.958 5.44589 -3.51179 0
M  V30 6461 N 650.364 0.662433 1.43002 0
M  V30 6462 C 651.613 0.176873 2.00923 0
M  V30 6463 C 651.926 -1.21954 1.52927 0
M  V30 6464 O 653.132 -1.80081 2.03182 0
M  V30 6465 C 651.588 0.265379 3.5892 0
M  V30 6466 C 651.196 1.66507 4.15908 0
M  V30 6467 C 652.94 -0.162103 4.2419 0
M  V30 6468 C 650.847 1.707 5.66229 0
M  V30 6469 H 649.777 0.0623627 0.751417 0
M  V30 6470 H 652.428 0.825813 1.63868 0
M  V30 6471 H 650.81 -0.451235 3.93421 0
M  V30 6472 H 651.984 2.40777 3.92891 0
M  V30 6473 H 650.299 2.03932 3.63044 0
M  V30 6474 H 652.896 -0.150745 5.34487 0
M  V30 6475 H 653.239 -1.19519 3.98774 0
M  V30 6476 H 653.772 0.503075 3.94606 0
M  V30 6477 H 650.511 2.7195 5.96426 0
M  V30 6478 H 650.031 1.00768 5.91275 0
M  V30 6479 H 651.71 1.45487 6.3043 0
M  V30 6480 N 651.842 -1.52309 0.404946 0
M  V30 6481 C 652.805 -2.25491 -0.410651 0
M  V30 6482 C 653.805 -1.27704 -0.977154 0
M  V30 6483 O 654.995 -1.51679 -0.856691 0
M  V30 6484 C 652.127 -3.02197 -1.57765 0
M  V30 6485 H 653.32 -2.99015 0.230277 0
M  V30 6486 H 650.873 -1.55506 0.157377 0
M  V30 6487 H 651.608 -2.33013 -2.25556 0
M  V30 6488 H 651.393 -3.73987 -1.17797 0
M  V30 6489 H 652.883 -3.57719 -2.15469 0
M  V30 6490 N 653.32 -0.135238 -1.57019 0
M  V30 6491 C 654.283 0.794707 -2.14981 0
M  V30 6492 C 655.283 1.18342 -1.08866 0
M  V30 6493 O 656.473 1.10627 -1.34563 0
M  V30 6494 C 653.605 2.07685 -2.70333 0
M  V30 6495 H 654.798 0.290696 -2.98488 0
M  V30 6496 H 652.351 0.114128 -1.55883 0
M  V30 6497 H 653.086 2.6248 -1.9046 0
M  V30 6498 H 652.871 1.80745 -3.47957 0
M  V30 6499 H 654.361 2.74127 -3.1503 0
M  V30 6500 N 654.798 1.5699 0.138552 0
M  V30 6501 C 656.028 1.87704 0.863184 0
M  V30 6502 C 656.436 0.722411 1.74865 0
M  V30 6503 O 655.779 -0.316636 1.80951 0
M  V30 6504 C 655.841 3.13219 1.76449 0
M  V30 6505 C 655.505 4.44648 1.05532 0
M  V30 6506 C 656.502 5.18318 0.405252 0
M  V30 6507 C 654.187 4.91367 1.04231 0
M  V30 6508 C 656.181 6.36916 -0.24835 0
M  V30 6509 C 653.868 6.09887 0.384904 0
M  V30 6510 C 654.866 6.82508 -0.259292 0
M  V30 6511 O 654.554 7.98775 -0.906258 0
M  V30 6512 H 654.286 0.626255 0.254521 0
M  V30 6513 H 656.84 2.04966 0.133472 0
M  V30 6514 H 655.07 2.91988 2.53535 0
M  V30 6515 H 656.759 3.30111 2.36181 0
M  V30 6516 H 657.525 4.83289 0.407053 0
M  V30 6517 H 653.404 4.34759 1.53315 0
M  V30 6518 H 656.948 6.93538 -0.751755 0
M  V30 6519 H 652.845 6.44376 0.380799 0
M  V30 6520 H 653.613 8.14494 -0.80877 0
M  V30 6521 N 656.276 -0.40816 1.52223 0
M  V30 6522 C 657.524 -1.15274 1.66001 0
M  V30 6523 C 657.845 -1.91003 0.392803 0
M  V30 6524 O 657.115 -1.8673 -0.592336 0
M  V30 6525 H 655.695 -0.428526 0.611861 0
M  V30 6526 H 658.357 -0.46512 1.89269 0
M  V30 6527 H 657.453 -1.86628 2.50153 0
M  V30 6528 N 657.755 -1.42862 -0.66545 0
M  V30 6529 C 659.166 -1.3901 -1.24632 0
M  V30 6530 C 659.517 -0.0880285 -1.96002 0
M  V30 6531 O 658.642 0.812947 -2.0055 0
M  V30 6532 C 659.237 -2.51806 -2.2667 0
M  V30 6533 C 657.796 -2.51257 -2.80262 0
M  V30 6534 C 656.943 -2.30124 -1.5472 0
M  V30 6535 H 659.894 -1.5194 -0.458237 0
M  V30 6536 H 659.915 -2.22593 -3.08598 0
M  V30 6537 H 659.427 -3.46558 -1.74697 0
M  V30 6538 H 657.528 -1.60349 -3.36332 0
M  V30 6539 H 657.641 -3.48614 -3.28641 0
M  V30 6540 H 656.005 -1.7856 -1.81627 0
M  V30 6541 H 656.788 -3.26945 -1.04699 0
M  V30 6542 N 659.233 0.902656 -1.29189 0
M  V30 6543 C 660.183 1.99326 -1.10695 0
M  V30 6544 C 661.167 1.60877 -0.0272521 0
M  V30 6545 O 662.359 1.75245 -0.248635 0
M  V30 6546 C 659.488 3.34265 -0.78244 0
M  V30 6547 C 658.574 3.79081 -1.90153 0
M  V30 6548 N 658.965 3.96162 -3.14466 0
M  V30 6549 C 657.263 4.08333 -1.79389 0
M  V30 6550 C 657.964 4.3388 -3.87458 0
M  V30 6551 N 656.94 4.42759 -3.15381 0
M  V30 6552 H 660.742 2.10597 -2.05003 0
M  V30 6553 H 658.256 1.09127 -1.20271 0
M  V30 6554 H 660.253 4.12097 -0.630996 0
M  V30 6555 H 658.913 3.2434 0.152754 0
M  V30 6556 H 659.924 3.81775 -3.49954 0
M  V30 6557 H 656.601 4.06982 -0.931217 0
M  V30 6558 H 657.991 4.54965 -4.94425 0
M  V30 6559 N 660.711 1.11618 1.11262 0
M  V30 6560 C 661.674 0.779447 2.15539 0
M  V30 6561 C 662.674 -0.202081 1.59525 0
M  V30 6562 O 663.864 0.0226356 1.74185 0
M  V30 6563 C 660.996 0.15674 3.40539 0
M  V30 6564 H 662.189 1.70324 2.4684 0
M  V30 6565 H 659.742 0.918298 1.26479 0
M  V30 6566 H 660.477 -0.777186 3.1485 0
M  V30 6567 H 660.262 0.863308 3.82478 0
M  V30 6568 H 661.752 -0.062661 4.17553 0
M  V30 6569 N 662.189 -1.289 0.906776 0
M  V30 6570 C 663.152 -2.25777 0.394656 0
M  V30 6571 C 664.152 -1.53621 -0.475119 0
M  V30 6572 O 665.342 -1.71949 -0.279165 0
M  V30 6573 C 662.474 -3.38113 -0.43499 0
M  V30 6574 H 663.667 -2.72592 1.25033 0
M  V30 6575 H 661.22 -1.40463 0.685547 0
M  V30 6576 H 661.955 -2.96648 -1.31036 0
M  V30 6577 H 661.74 -3.91647 0.188334 0
M  V30 6578 H 663.23 -4.10168 -0.784365 0
M  V30 6579 N 663.667 -0.670007 -1.42649 0
M  V30 6580 C 664.615 0.0230106 -2.32589 0
M  V30 6581 C 665.609 0.795585 -1.49555 0
M  V30 6582 O 666.815 0.70409 -1.65658 0
M  V30 6583 H 663.19 0.0262342 -0.751542 0
M  V30 6584 H 665.161 -0.753009 -2.88743 0
M  V30 6585 C 663.91 0.963872 -3.34073 0
M  V30 6586 H 663.233 0.378813 -3.98001 0
M  V30 6587 H 664.673 1.41755 -3.99602 0
M  V30 6588 C 663.132 2.06797 -2.65964 0
M  V30 6589 O 663.662 3.15383 -2.48789 0
M  V30 6590 N 661.868 1.83831 -2.25066 0
M  V30 6591 H 661.415 0.955235 -2.39234 0
M  V30 6592 H 661.373 2.57895 -1.79827 0
M  V30 6593 N 665.145 1.52092 -0.413018 0
M  V30 6594 C 666.391 2.02154 0.161737 0
M  V30 6595 C 666.724 1.29789 1.44459 0
M  V30 6596 O 665.999 0.405378 1.90229 0
M  V30 6597 C 666.282 3.5781 0.405463 0
M  V30 6598 C 666.135 4.40819 -0.894335 0
M  V30 6599 C 667.454 4.23821 1.18591 0
M  V30 6600 H 664.573 0.734769 0.0573077 0
M  V30 6601 H 667.215 1.81948 -0.547247 0
M  V30 6602 H 665.365 3.75158 1.0094 0
M  V30 6603 H 667.037 4.35175 -1.53039 0
M  V30 6604 H 665.28 4.06877 -1.50444 0
M  V30 6605 H 665.951 5.47819 -0.678144 0
M  V30 6606 H 668.427 4.10596 0.674573 0
M  V30 6607 H 667.303 5.32663 1.3252 0
M  V30 6608 H 667.564 3.83038 2.20758 0
M  V30 6609 N 666.623 0.143563 1.56945 0
M  V30 6610 C 667.869 -0.50916 1.96304 0
M  V30 6611 C 668.202 -1.64741 1.0283 0
M  V30 6612 O 667.477 -1.94374 0.0700361 0
M  V30 6613 C 667.76 -1.0186 3.45393 0
M  V30 6614 C 667.613 0.117923 4.49645 0
M  V30 6615 C 668.932 -1.90151 3.96901 0
M  V30 6616 H 666.051 -0.183608 0.713763 0
M  V30 6617 H 668.693 0.224095 1.88674 0
M  V30 6618 H 666.843 -1.64345 3.52027 0
M  V30 6619 H 668.515 0.754145 4.55094 0
M  V30 6620 H 666.758 0.777568 4.26774 0
M  V30 6621 H 667.429 -0.280187 5.51288 0
M  V30 6622 H 669.905 -1.375 3.92725 0
M  V30 6623 H 668.781 -2.22707 5.0169 0
M  V30 6624 H 669.042 -2.83718 3.39052 0
M  V30 6625 N 668.101 -1.57061 -0.130224 0
M  V30 6626 C 669.349 -1.83893 -0.838313 0
M  V30 6627 C 669.67 -0.727046 -1.80939 0
M  V30 6628 O 668.94 0.249927 -1.94299 0
M  V30 6629 H 667.52 -0.67846 -0.312573 0
M  V30 6630 H 670.182 -1.94529 -0.120224 0
M  V30 6631 H 669.278 -2.79419 -1.39038 0
M  V30 6632 N 669.579 0.400081 -1.52437 0
M  V30 6633 C 670.509 1.4947 -1.7939 0
M  V30 6634 C 671.49 1.57383 -0.645329 0
M  V30 6635 O 672.675 1.72511 -0.891826 0
M  V30 6636 C 669.805 2.87201 -1.95276 0
M  V30 6637 C 668.759 2.94134 -3.10917 0
M  V30 6638 C 668.085 4.34207 -3.1204 0
M  V30 6639 C 669.385 2.64791 -4.50203 0
M  V30 6640 H 671.079 1.27165 -2.71052 0
M  V30 6641 H 668.625 0.610312 -1.30427 0
M  V30 6642 H 670.578 3.63772 -2.12715 0
M  V30 6643 H 669.302 3.10819 -1.00294 0
M  V30 6644 H 667.961 2.20009 -2.93243 0
M  V30 6645 H 667.609 4.54848 -2.14761 0
M  V30 6646 H 667.309 4.39768 -3.89715 0
M  V30 6647 H 668.833 5.127 -3.31619 0
M  V30 6648 H 670.247 3.31083 -4.68035 0
M  V30 6649 H 668.644 2.81717 -5.29864 0
M  V30 6650 H 669.714 1.60184 -4.57678 0
M  V30 6651 N 671.057 1.43213 0.657864 0
M  V30 6652 C 672.285 1.48015 1.44566 0
M  V30 6653 C 672.7 0.0965951 1.88553 0
M  V30 6654 O 672.057 -0.892221 1.59203 0
M  V30 6655 C 672.108 2.42199 2.68369 0
M  V30 6656 O 671.829 3.75173 2.26223 0
M  V30 6657 C 673.33 2.56195 3.61772 0
M  V30 6658 H 670.55 0.502861 0.444266 0
M  V30 6659 H 673.094 1.87907 0.806917 0
M  V30 6660 H 671.249 2.05514 3.28394 0
M  V30 6661 H 671.663 4.25776 3.06293 0
M  V30 6662 H 673.137 3.26182 4.4532 0
M  V30 6663 H 673.614 1.60534 4.0881 0
M  V30 6664 H 674.22 2.93671 3.07632 0
M  V30 6665 N 672.536 -0.895792 1.29666 0
M  V30 6666 C 673.813 -1.62723 1.08538 0
M  V30 6667 C 674.193 -2.07848 -0.369119 0
M  V30 6668 O 673.541 -1.8372 -1.35864 0
M  V30 6669 C 673.751 -2.80505 2.07648 0
M  V30 6670 C 675.099 -3.51098 2.3878 0
M  V30 6671 O 676.123 -2.90679 2.05874 0
M  V30 6672 O 674.982 -4.60028 2.9502 0
M  V30 6673 H 672.076 -0.714692 0.416106 0
M  V30 6674 H 674.622 -0.943517 1.41053 0
M  V30 6675 H 673.394 -2.44386 3.05599 0
M  V30 6676 H 673.017 -3.5658 1.75887 0
M  V30 6677 N 674.014 -1.12206 -1.10668 0
M  V30 6678 C 674.946 -0.74552 -2.16736 0
M  V30 6679 C 675.959 0.226696 -1.61214 0
M  V30 6680 O 677.148 0.0083936 -1.78498 0
M  V30 6681 C 674.248 -0.0823368 -3.388 0
M  V30 6682 C 673.421 -1.08341 -4.2377 0
M  V30 6683 C 672.48 -0.448292 -5.24287 0
M  V30 6684 O 671.506 -1.10458 -5.58379 0
M  V30 6685 N 672.708 0.785336 -5.75163 0
M  V30 6686 H 675.473 -1.65818 -2.49649 0
M  V30 6687 H 673.034 -1.01335 -1.26265 0
M  V30 6688 H 675.026 0.354476 -4.03145 0
M  V30 6689 H 673.596 0.733041 -3.03884 0
M  V30 6690 H 672.816 -1.69792 -3.55759 0
M  V30 6691 H 674.104 -1.76042 -4.77375 0
M  V30 6692 H 673.502 1.33755 -5.4966 0
M  V30 6693 H 672.059 1.16501 -6.41304 0
M  V30 6694 N 675.492 1.28418 -0.913599 0
M  V30 6695 C 676.72 1.99106 -0.562536 0
M  V30 6696 C 677.135 1.68273 0.856137 0
M  V30 6697 O 676.492 0.935401 1.56705 0
M  V30 6698 C 676.543 3.5338 -0.761903 0
M  V30 6699 O 676.264 3.83127 -2.12475 0
M  V30 6700 C 677.765 4.41328 -0.417651 0
M  V30 6701 H 674.985 0.635798 -0.214481 0
M  V30 6702 H 677.529 1.63618 -1.22676 0
M  V30 6703 H 675.684 3.8713 -0.144676 0
M  V30 6704 H 676.098 4.77763 -2.16431 0
M  V30 6705 H 677.572 5.48642 -0.607919 0
M  V30 6706 H 678.049 4.34422 0.646108 0
M  V30 6707 H 678.655 4.13074 -1.01241 0
M  V30 6708 N 676.97 0.677563 1.42291 0
M  V30 6709 C 678.247 0.129803 1.95169 0
M  V30 6710 C 678.627 -1.35605 1.61786 0
M  V30 6711 O 677.975 -2.09361 0.915444 0
M  V30 6712 C 678.185 0.401889 3.46678 0
M  V30 6713 C 679.533 0.319889 4.23393 0
M  V30 6714 O 680.557 0.33579 3.54614 0
M  V30 6715 O 679.416 0.264459 5.4586 0
M  V30 6716 H 676.51 0.00447433 0.826988 0
M  V30 6717 H 679.056 0.752483 1.52105 0
M  V30 6718 H 677.828 1.43108 3.64192 0
M  V30 6719 H 677.451 -0.252662 3.96796 0
M  V30 6720 N 678.448 -1.51871 0.421078 0
M  V30 6721 C 679.378 -2.30231 -0.389363 0
M  V30 6722 C 680.359 -1.34946 -1.03555 0
M  V30 6723 O 681.544 -1.63859 -1.04229 0
M  V30 6724 C 678.674 -3.13247 -1.49979 0
M  V30 6725 C 677.628 -4.16677 -0.977966 0
M  V30 6726 C 676.954 -4.88112 -2.1829 0
M  V30 6727 C 678.254 -5.22295 -0.0236775 0
M  V30 6728 H 679.948 -2.98229 0.264524 0
M  V30 6729 H 677.494 -1.43424 0.12866 0
M  V30 6730 H 679.447 -3.66838 -2.07383 0
M  V30 6731 H 678.171 -2.4304 -2.18173 0
M  V30 6732 H 676.83 -3.64114 -0.426245 0
M  V30 6733 H 676.478 -4.14423 -2.85066 0
M  V30 6734 H 676.178 -5.58041 -1.84021 0
M  V30 6735 H 677.702 -5.44521 -2.76278 0
M  V30 6736 H 679.116 -5.71055 -0.506899 0
M  V30 6737 H 677.513 -5.99656 0.230782 0
M  V30 6738 H 678.583 -4.76131 0.917999 0
M  V30 6739 N 679.926 -0.151884 -1.56866 0
M  V30 6740 C 681.173 0.498004 -1.96281 0
M  V30 6741 C 681.501 1.64551 -1.03698 0
M  V30 6742 O 680.756 1.95585 -0.0671497 0
M  V30 6743 C 681.055 1.04074 -3.41911 0
M  V30 6744 C 680.721 0.0111688 -4.50899 0
M  V30 6745 C 679.383 -0.271844 -4.80432 0
M  V30 6746 C 681.735 -0.68869 -5.1663 0
M  V30 6747 C 679.063 -1.26044 -5.73001 0
M  V30 6748 C 681.415 -1.66613 -6.10264 0
M  V30 6749 C 680.079 -1.9568 -6.38174 0
M  V30 6750 H 679.349 0.182233 -0.718242 0
M  V30 6751 H 681.996 -0.239746 -1.89993 0
M  V30 6752 H 680.301 1.85592 -3.45055 0
M  V30 6753 H 681.998 1.55224 -3.69738 0
M  V30 6754 H 678.588 0.241932 -4.27917 0
M  V30 6755 H 682.772 -0.48324 -4.93942 0
M  V30 6756 H 678.028 -1.49202 -5.92915 0
M  V30 6757 H 682.202 -2.21392 -6.60272 0
M  V30 6758 H 679.829 -2.72434 -7.09707 0
M  V30 6759 N 681.404 1.57128 0.121893 0
M  V30 6760 C 682.634 1.88609 0.843227 0
M  V30 6761 C 683.042 0.740917 1.74089 0
M  V30 6762 O 682.385 -0.297426 1.81276 0
M  V30 6763 C 682.447 3.15073 1.73117 0
M  V30 6764 C 682.111 4.45742 1.0081 0
M  V30 6765 C 683.108 5.18719 0.350255 0
M  V30 6766 C 680.793 4.92444 0.99014 0
M  V30 6767 C 682.787 6.36617 -0.315889 0
M  V30 6768 C 680.474 6.10261 0.320196 0
M  V30 6769 C 681.472 6.82194 -0.331666 0
M  V30 6770 O 681.16 7.97769 -0.990927 0
M  V30 6771 H 680.892 0.628919 0.247865 0
M  V30 6772 H 683.446 2.05096 0.111725 0
M  V30 6773 H 681.676 2.9466 2.50424 0
M  V30 6774 H 683.365 3.32597 2.32667 0
M  V30 6775 H 684.131 4.83693 0.35577 0
M  V30 6776 H 680.01 4.36361 1.48695 0
M  V30 6777 H 683.554 6.92701 -0.825272 0
M  V30 6778 H 679.451 6.44743 0.312433 0
M  V30 6779 H 680.219 8.13591 -0.895113 0
M  V30 6780 N 682.882 -0.391992 1.52647 0
M  V30 6781 C 684.11 -1.1586 1.71418 0
M  V30 6782 C 684.525 -1.8381 0.431216 0
M  V30 6783 O 683.882 -1.7256 -0.594085 0
M  V30 6784 C 683.933 -2.20888 2.86165 0
M  V30 6785 O 683.654 -1.5571 4.09495 0
M  V30 6786 C 685.155 -3.103 3.1659 0
M  V30 6787 H 682.375 -0.347494 0.574011 0
M  V30 6788 H 684.919 -0.458972 1.99283 0
M  V30 6789 H 683.074 -2.86492 2.6077 0
M  V30 6790 H 683.488 -2.25474 4.73563 0
M  V30 6791 H 684.962 -3.8003 4.00351 0
M  V30 6792 H 685.439 -3.73639 2.30848 0
M  V30 6793 H 686.045 -2.50345 3.43813 0
M  V30 6794 N 684.36 -1.4356 -0.65026 0
M  V30 6795 C 685.293 -1.434 -1.77515 0
M  V30 6796 C 686.271 -0.295082 -1.599 0
M  V30 6797 O 687.455 -0.489128 -1.82043 0
M  V30 6798 C 684.582 -1.2484 -3.14853 0
M  V30 6799 C 683.628 -2.42046 -3.51163 0
M  V30 6800 S 684.461 -4.04595 -3.50803 0
M  V30 6801 C 685.617 -3.88424 -4.90793 0
M  V30 6802 H 685.85 -2.38586 -1.77381 0
M  V30 6803 H 683.383 -1.30627 -0.823169 0
M  V30 6804 H 685.341 -1.14819 -3.94115 0
M  V30 6805 H 684.002 -0.311977 -3.12547 0
M  V30 6806 H 683.195 -2.24873 -4.51052 0
M  V30 6807 H 682.797 -2.48708 -2.79321 0
M  V30 6808 H 685.089 -3.50932 -5.79528 0
M  V30 6809 H 686.032 -4.88076 -5.13018 0
M  V30 6810 H 686.44 -3.20829 -4.64467 0
M  V30 6811 N 685.838 0.888903 -1.30139 0
M  V30 6812 C 686.785 1.99422 -1.16188 0
M  V30 6813 C 687.755 1.66017 -0.0523869 0
M  V30 6814 O 688.94 1.89506 -0.221864 0
M  V30 6815 C 686.08 3.34325 -0.855612 0
M  V30 6816 C 685.193 3.80445 -2.0466 0
M  V30 6817 C 684.328 5.03975 -1.67876 0
M  V30 6818 C 683.367 5.42492 -2.83493 0
M  V30 6819 N 682.504 6.57206 -2.47032 0
M  V30 6820 H 687.344 2.10687 -2.10749 0
M  V30 6821 H 684.881 1.03165 -1.04859 0
M  V30 6822 H 686.839 4.11968 -0.658681 0
M  V30 6823 H 685.469 3.22756 0.0531155 0
M  V30 6824 H 684.521 2.98745 -2.3549 0
M  V30 6825 H 685.833 4.04933 -2.91257 0
M  V30 6826 H 684.987 5.89232 -1.44535 0
M  V30 6827 H 683.726 4.8135 -0.784431 0
M  V30 6828 H 682.731 4.55764 -3.07505 0
M  V30 6829 H 683.956 5.67093 -3.73607 0
M  V30 6830 H 681.902 6.36164 -1.601 0
M  V30 6831 H 681.819 6.81543 -3.27161 0
M  V30 6832 H 683.087 7.45704 -2.27038 0
M  V30 6833 N 687.317 1.12792 1.10072 0
M  V30 6834 C 688.28 0.802264 2.14701 0
M  V30 6835 C 689.28 -0.18515 1.59731 0
M  V30 6836 O 690.47 0.041109 1.74151 0
M  V30 6837 C 687.602 0.19285 3.40354 0
M  V30 6838 H 688.795 1.72932 2.45019 0
M  V30 6839 H 686.348 0.931662 1.25498 0
M  V30 6840 H 687.083 -0.743748 3.15656 0
M  V30 6841 H 686.868 0.903827 3.81541 0
M  V30 6842 H 688.358 -0.0183704 4.17596 0
M  V30 6843 N 688.795 -1.27931 0.920396 0
M  V30 6844 C 689.758 -2.25345 0.41858 0
M  V30 6845 C 690.758 -1.54116 -0.458798 0
M  V30 6846 O 691.948 -1.72235 -0.260912 0
M  V30 6847 C 689.08 -3.38556 -0.399104 0
M  V30 6848 H 690.273 -2.71251 1.27918 0
M  V30 6849 H 687.826 -1.39728 0.700406 0
M  V30 6850 H 688.561 -2.98021 -1.27882 0
M  V30 6851 H 688.346 -3.91426 0.229863 0
M  V30 6852 H 689.836 -4.10976 -0.740817 0
M  V30 6853 N 690.273 -0.685099 -1.4193 0
M  V30 6854 C 691.203 -0.0273506 -2.33484 0
M  V30 6855 C 692.184 0.778366 -1.51246 0
M  V30 6856 O 693.369 0.733449 -1.79817 0
M  V30 6857 C 690.499 0.917272 -3.34968 0
M  V30 6858 C 689.453 0.21941 -4.27437 0
M  V30 6859 C 688.779 1.27768 -5.1921 0
M  V30 6860 C 690.079 -0.907894 -5.14349 0
M  V30 6861 H 691.773 -0.791994 -2.88735 0
M  V30 6862 H 689.319 -0.382308 -1.38832 0
M  V30 6863 H 691.272 1.38657 -3.97935 0
M  V30 6864 H 689.996 1.71346 -2.78043 0
M  V30 6865 H 688.655 -0.229757 -3.65879 0
M  V30 6866 H 688.303 2.06612 -4.58607 0
M  V30 6867 H 688.003 0.815803 -5.81909 0
M  V30 6868 H 689.527 1.7477 -5.85054 0
M  V30 6869 H 690.941 -0.519348 -5.70943 0
M  V30 6870 H 689.338 -1.2962 -5.85934 0
M  V30 6871 H 690.408 -1.75218 -4.52136 0
M  V30 6872 N 691.751 1.51645 -0.429126 0
M  V30 6873 C 692.999 2.01616 0.139802 0
M  V30 6874 C 693.32 1.31568 1.43927 0
M  V30 6875 O 692.59 0.447688 1.90716 0
M  V30 6876 H 691.17 0.744998 0.054654 0
M  V30 6877 H 693.832 1.8638 -0.569952 0
M  V30 6878 H 692.928 3.10439 0.321609 0
M  V30 6879 N 693.229 0.160201 1.56784 0
M  V30 6880 C 694.159 -0.770264 2.2043 0
M  V30 6881 C 695.14 -1.24736 1.15651 0
M  V30 6882 O 696.325 -1.30253 1.44041 0
M  V30 6883 C 693.455 -2.00427 2.83631 0
M  V30 6884 C 692.409 -1.66345 3.94352 0
M  V30 6885 C 691.735 -2.97119 4.4455 0
M  V30 6886 C 693.035 -0.899972 5.14488 0
M  V30 6887 H 694.729 -0.239783 2.98438 0
M  V30 6888 H 692.275 -0.113891 1.43549 0
M  V30 6889 H 694.228 -2.66012 3.26827 0
M  V30 6890 H 692.952 -2.5587 2.02973 0
M  V30 6891 H 691.611 -1.03133 3.51794 0
M  V30 6892 H 691.259 -3.5058 3.60698 0
M  V30 6893 H 690.959 -2.75073 5.19238 0
M  V30 6894 H 692.483 -3.63753 4.90425 0
M  V30 6895 H 693.897 -1.45818 5.54446 0
M  V30 6896 H 692.294 -0.778968 5.95023 0
M  V30 6897 H 693.364 0.105827 4.84785 0
M  V30 6898 N 694.707 -1.5719 -0.113559 0
M  V30 6899 C 695.654 -2.00736 -1.13901 0
M  V30 6900 C 696.624 -0.88044 -1.40846 0
M  V30 6901 O 697.809 -1.14507 -1.5262 0
M  V30 6902 C 694.949 -2.42132 -2.45899 0
M  V30 6903 C 694.062 -3.68264 -2.25844 0
M  V30 6904 C 693.197 -3.98617 -3.5111 0
M  V30 6905 C 692.236 -5.17915 -3.26236 0
M  V30 6906 N 691.373 -5.44111 -4.4372 0
M  V30 6907 H 696.213 -2.88128 -0.760677 0
M  V30 6908 H 693.75 -1.42523 -0.364099 0
M  V30 6909 H 695.708 -2.6417 -3.22908 0
M  V30 6910 H 694.338 -1.57775 -2.81615 0
M  V30 6911 H 693.39 -3.53809 -1.39726 0
M  V30 6912 H 694.702 -4.55425 -2.03444 0
M  V30 6913 H 693.856 -4.21333 -4.36536 0
M  V30 6914 H 692.595 -3.09942 -3.76546 0
M  V30 6915 H 691.6 -4.95038 -2.39202 0
M  V30 6916 H 692.825 -6.08172 -3.02165 0
M  V30 6917 H 690.771 -4.58394 -4.69266 0
M  V30 6918 H 690.688 -6.25606 -4.24444 0
M  V30 6919 H 691.956 -5.71351 -5.30263 0
M  V30 6920 O 696.224 0.257811 -1.59429 0
M  V30 6921 H 696.915 0.901882 -1.71423 0
M  V30 END ATOM
M  V30 BEGIN BOND
M  V30 END BOND
M  V30 END CTAB
M  END
$$$$
