drugbank_target|P00738 Haptoglobin (DB14533; DB14548)
 OpenBabel12092121223D

  0  0  0     0  0            999 V3000
M  V30 BEGIN CTAB
M  V30 COUNTS 6302 6380 0 0 0
M  V30 BEGIN ATOM
M  V30 1 H -0.908 1.98254 -0.117106 0
M  V30 2 N 0 1.576 0 0
M  V30 3 C 0.933 2.03868 1.02534 0
M  V30 4 C 1.911 0.928543 1.3348 0
M  V30 5 O 3.095 1.19667 1.45644 0
M  V30 6 C 0.222 2.43627 2.35294 0
M  V30 7 C -0.732 3.65373 2.2001 0
M  V30 8 S 0.101 5.13292 1.52614 0
M  V30 9 C 1.257 5.56322 2.86805 0
M  V30 10 H 1.49 2.90518 0.631377 0
M  V30 11 H -0.977 1.52953 0.210867 0
M  V30 12 H 0.981 2.67203 3.11629 0
M  V30 13 H -0.358 1.57376 2.7183 0
M  V30 14 H -1.165 3.90944 3.18086 0
M  V30 15 H -1.563 3.418 1.51819 0
M  V30 16 H 0.729 5.58782 3.83104 0
M  V30 17 H 1.672 6.56266 2.65933 0
M  V30 18 H 2.08 4.83886 2.90714 0
M  V30 19 N 1.4781 -0.272755 1.55222 0
M  V30 20 C 2.7031 -1.02683 1.80197 0
M  V30 21 C 3.1281 -1.79142 0.573551 0
M  V30 22 O 2.4861 -1.74917 -0.476849 0
M  V30 23 C 2.5341 -1.9609 3.02624 0
M  V30 24 O 1.6381 -3.04863 2.77727 0
M  V30 25 H 0.9791 -0.293557 0.595584 0
M  V30 26 H 3.5091 -0.30159 2.02365 0
M  V30 27 H 3.5191 -2.38039 3.31363 0
M  V30 28 H 2.1941 -1.39851 3.91682 0
M  V30 29 H 0.7711 -2.67228 2.60084 0
M  V30 30 N 2.9562 -1.48159 -0.537278 0
M  V30 31 C 3.9192 -1.61665 -1.62472 0
M  V30 32 C 4.9192 -0.490395 -1.5314 0
M  V30 33 O 6.1092 -0.755998 -1.5694 0
M  V30 34 C 3.2412 -1.57997 -3.02076 0
M  V30 35 H 4.4342 -2.58621 -1.51839 0
M  V30 36 H 1.9872 -1.36647 -0.758771 0
M  V30 37 H 2.7222 -0.624913 -3.18222 0
M  V30 38 H 2.5072 -2.39755 -3.10258 0
M  V30 39 H 3.9972 -1.70627 -3.81151 0
M  V30 40 N 4.4343 0.785586 -1.36625 0
M  V30 41 C 5.3643 1.91259 -1.33949 0
M  V30 42 C 6.3453 1.68795 -0.210325 0
M  V30 43 O 7.5303 1.89854 -0.408561 0
M  V30 44 C 4.6603 3.28339 -1.13186 0
M  V30 45 C 3.6143 3.65335 -2.22967 0
M  V30 46 C 2.9403 5.00806 -1.87342 0
M  V30 47 C 4.2403 3.7352 -3.65075 0
M  V30 48 H 5.9343 1.93755 -2.28253 0
M  V30 49 H 3.4803 0.930788 -1.09874 0
M  V30 50 H 5.4333 4.06804 -1.09948 0
M  V30 51 H 4.1573 3.2624 -0.153332 0
M  V30 52 H 2.8163 2.89169 -2.25337 0
M  V30 53 H 2.4643 4.95233 -0.880545 0
M  V30 54 H 2.1643 5.26529 -2.60846 0
M  V30 55 H 3.6883 5.81687 -1.85667 0
M  V30 56 H 5.1023 4.42168 -3.64911 0
M  V30 57 H 3.4993 4.10731 -4.37516 0
M  V30 58 H 4.5693 2.74527 -3.99703 0
M  V30 59 N 5.9124 1.20967 1.01018 0
M  V30 60 C 7.1604 1.02172 1.74371 0
M  V30 61 C 7.4814 -0.446414 1.89821 0
M  V30 62 O 6.7514 -1.32234 1.44537 0
M  V30 63 H 5.3314 0.375066 0.646014 0
M  V30 64 H 7.9934 1.52187 1.21758 0
M  V30 65 H 7.0894 1.48538 2.74487 0
M  V30 66 N 7.3905 -1.2043 1.01659 0
M  V30 67 C 8.3535 -2.21433 0.591616 0
M  V30 68 C 9.3535 -1.57203 -0.338226 0
M  V30 69 O 10.5435 -1.73737 -0.126918 0
M  V30 70 C 7.6755 -3.40628 -0.136058 0
M  V30 71 H 8.8685 -2.60545 1.48514 0
M  V30 72 H 6.4215 -1.33893 0.806379 0
M  V30 73 H 7.1565 -3.07019 -1.04449 0
M  V30 74 H 6.9415 -3.88475 0.531917 0
M  V30 75 H 8.4315 -4.15475 -0.420735 0
M  V30 76 N 8.8686 -0.792821 -1.36206 0
M  V30 77 C 10.1146 -0.36733 -1.99446 0
M  V30 78 C 10.4476 1.05917 -1.62774 0
M  V30 79 O 9.7226 1.7324 -0.88421 0
M  V30 80 C 10.0056 -0.535044 -3.56103 0
M  V30 81 C 9.8586 -2.00548 -4.02617 0
M  V30 82 C 11.1776 0.0478191 -4.40074 0
M  V30 83 H 8.2966 -0.134941 -0.724541 0
M  V30 84 H 10.9386 -0.999794 -1.61568 0
M  V30 85 H 9.0886 0.00336329 -3.885 0
M  V30 86 H 10.7606 -2.60521 -3.80692 0
M  V30 87 H 9.0036 -2.50686 -3.54032 0
M  V30 88 H 9.6746 -2.07377 -5.11565 0
M  V30 89 H 12.1506 -0.411822 -4.14057 0
M  V30 90 H 11.0266 -0.0995336 -5.4881 0
M  V30 91 H 11.2876 1.14025 -4.27142 0
M  V30 92 N 10.3467 1.47872 -0.545128 0
M  V30 93 C 11.5957 2.01695 -0.0145033 0
M  V30 94 C 11.9087 1.42609 1.33873 0
M  V30 95 O 13.1147 1.88021 1.95858 0
M  V30 96 C 11.5707 3.59892 0.0245068 0
M  V30 97 C 11.1787 4.27966 -1.32475 0
M  V30 98 C 12.9227 4.21507 0.50316 0
M  V30 99 C 10.8297 5.78136 -1.2455 0
M  V30 100 H 9.7597 0.753998 -0.00165172 0
M  V30 101 H 12.4107 1.69985 -0.691175 0
M  V30 102 H 10.7927 3.88509 0.766575 0
M  V30 103 H 11.9667 4.11003 -2.08357 0
M  V30 104 H 10.2817 3.78286 -1.74036 0
M  V30 105 H 12.8787 5.31538 0.580656 0
M  V30 106 H 13.2217 3.87855 1.51243 0
M  V30 107 H 13.7547 3.97376 -0.183681 0
M  V30 108 H 10.4937 6.16388 -2.23039 0
M  V30 109 H 10.0137 5.97469 -0.528282 0
M  V30 110 H 11.6927 6.40099 -0.942488 0
M  V30 111 N 11.8248 0.280983 1.55075 0
M  V30 112 C 12.7878 -0.590896 2.21452 0
M  V30 113 C 13.7878 -1.07682 1.19421 0
M  V30 114 O 14.9778 -0.97605 1.44288 0
M  V30 115 C 12.1098 -1.81587 2.88511 0
M  V30 116 H 13.3028 -0.0112554 2.99898 0
M  V30 117 H 10.8558 0.0316438 1.56268 0
M  V30 118 H 11.5908 -2.43587 2.14093 0
M  V30 119 H 11.3758 -1.4753 3.63287 0
M  V30 120 H 12.8658 -2.43575 3.39206 0
M  V30 121 N 13.3029 -1.57598 0.00835791 0
M  V30 122 C 14.2329 -2.1198 -0.979113 0
M  V30 123 C 15.2139 -1.03091 -1.35301 0
M  V30 124 O 16.3989 -1.30818 -1.43528 0
M  V30 125 C 13.5289 -2.62995 -2.26828 0
M  V30 126 C 12.4829 -3.76485 -2.03576 0
M  V30 127 C 11.8089 -4.13846 -3.38579 0
M  V30 128 C 13.1089 -5.0342 -1.39161 0
M  V30 129 H 14.8029 -2.94738 -0.526281 0
M  V30 130 H 12.3489 -1.41783 -0.251704 0
M  V30 131 H 14.3019 -2.99669 -2.96271 0
M  V30 132 H 13.0259 -1.7737 -2.7424 0
M  V30 133 H 11.6849 -3.40217 -1.36557 0
M  V30 134 H 11.3329 -3.25232 -3.83709 0
M  V30 135 H 11.0329 -4.90312 -3.23834 0
M  V30 136 H 12.5569 -4.53086 -4.09323 0
M  V30 137 H 13.9709 -5.37812 -1.98573 0
M  V30 138 H 12.3679 -5.84746 -1.34878 0
M  V30 139 H 13.4379 -4.83548 -0.361868 0
M  V30 140 N 14.781 0.264519 -1.55364 0
M  V30 141 C 15.711 1.33121 -1.91836 0
M  V30 142 C 16.692 1.51101 -0.781192 0
M  V30 143 O 17.877 1.64003 -1.04003 0
M  V30 144 C 15.007 2.68921 -2.19769 0
M  V30 145 C 13.961 2.65661 -3.35571 0
M  V30 146 C 13.287 4.05093 -3.49004 0
M  V30 147 C 14.587 2.24187 -4.71739 0
M  V30 148 H 16.281 1.02844 -2.81182 0
M  V30 149 H 13.827 0.493286 -1.35287 0
M  V30 150 H 15.78 3.43663 -2.43872 0
M  V30 151 H 14.504 3.00799 -1.27231 0
M  V30 152 H 13.163 1.93377 -3.1145 0
M  V30 153 H 12.811 4.34206 -2.53917 0
M  V30 154 H 12.511 4.03804 -4.26868 0
M  V30 155 H 14.035 4.81561 -3.75408 0
M  V30 156 H 15.449 2.88654 -4.9533 0
M  V30 157 H 13.846 2.34044 -5.52579 0
M  V30 158 H 14.916 1.19327 -4.69988 0
M  V30 159 N 16.2591 1.48442 0.529413 0
M  V30 160 C 17.1891 1.65902 1.64313 0
M  V30 161 C 18.1701 0.507897 1.6234 0
M  V30 162 O 19.3551 0.740503 1.79528 0
M  V30 163 C 16.4851 1.69911 3.02898 0
M  V30 164 C 15.4391 2.8453 3.19729 0
M  V30 165 C 14.7651 2.73629 4.59381 0
M  V30 166 C 16.0651 4.25821 3.02447 0
M  V30 167 H 17.7591 2.5914 1.49955 0
M  V30 168 H 15.3051 1.24709 0.719982 0
M  V30 169 H 17.2581 1.80715 3.80684 0
M  V30 170 H 15.9821 0.732524 3.18279 0
M  V30 171 H 14.6411 2.73283 2.44361 0
M  V30 172 H 14.2891 1.74938 4.71599 0
M  V30 173 H 13.9891 3.50541 4.71588 0
M  V30 174 H 15.5131 2.86401 5.39265 0
M  V30 175 H 16.9271 4.37898 3.70024 0
M  V30 176 H 15.3241 5.03735 3.26146 0
M  V30 177 H 16.3941 4.42244 1.98867 0
M  V30 178 N 17.7372 -0.778329 1.37039 0
M  V30 179 C 18.9832 -1.53817 1.33086 0
M  V30 180 C 19.3382 -1.92208 -0.0860346 0
M  V30 181 O 18.6312 -1.60713 -1.04316 0
M  V30 182 C 18.8252 -2.81845 2.19768 0
M  V30 183 C 18.6542 -2.55967 3.69744 0
M  V30 184 C 17.4242 -2.50428 4.38878 0
M  V30 185 C 19.6222 -2.2441 4.62758 0
M  V30 186 N 17.6042 -2.16564 5.74433 0
M  V30 187 C 18.9752 -2.0063 5.86641 0
M  V30 188 C 21.0302 -2.1051 4.5121 0
M  V30 189 C 19.7332 -1.64354 7.00272 0
M  V30 190 C 21.7592 -1.75634 5.64718 0
M  V30 191 C 21.1212 -1.52709 6.87648 0
M  V30 192 H 17.2202 -0.563434 0.542279 0
M  V30 193 H 19.8042 -0.908617 1.72198 0
M  V30 194 H 17.9752 -3.42649 1.82883 0
M  V30 195 H 19.7072 -3.47682 2.07122 0
M  V30 196 H 16.4622 -2.66056 3.91805 0
M  V30 197 H 16.8862 -2.02348 6.46053 0
M  V30 198 H 21.5282 -2.26919 3.56746 0
M  V30 199 H 19.2462 -1.46683 7.94676 0
M  V30 200 H 22.8322 -1.65546 5.57751 0
M  V30 201 H 21.7122 -1.2612 7.73992 0
M  V30 202 N 19.2153 -1.21501 -1.00376 0
M  V30 203 C 20.4633 -1.03095 -1.73827 0
M  V30 204 C 20.7843 0.436341 -1.90055 0
M  V30 205 O 20.0543 1.31466 -1.45236 0
M  V30 206 H 18.6343 -0.378487 -0.644016 0
M  V30 207 H 21.2963 -1.52831 -1.20949 0
M  V30 208 H 20.3923 -1.49991 -2.73695 0
M  V30 209 N 20.6934 1.19889 -1.02296 0
M  V30 210 C 21.6254 2.22334 -0.556787 0
M  V30 211 C 22.6384 1.58674 0.364199 0
M  V30 212 O 23.8274 1.77768 0.161533 0
M  V30 213 C 20.9274 3.38257 0.208694 0
M  V30 214 C 20.1004 4.31504 -0.71577 0
M  V30 215 C 19.1594 5.262 0.00325597 0
M  V30 216 O 18.1854 5.65798 -0.621357 0
M  V30 217 N 19.3874 5.66303 1.27599 0
M  V30 218 H 22.1524 2.62957 -1.43784 0
M  V30 219 H 19.7134 1.34495 -0.901261 0
M  V30 220 H 21.7054 3.98616 0.699111 0
M  V30 221 H 20.2754 2.96472 0.991102 0
M  V30 222 H 19.4954 3.69016 -1.38638 0
M  V30 223 H 20.7834 4.9072 -1.34428 0
M  V30 224 H 20.1814 5.36155 1.80429 0
M  V30 225 H 18.7384 6.28942 1.71102 0
M  V30 226 N 22.1715 0.800033 1.35784 0
M  V30 227 C 23.1015 0.220184 2.3246 0
M  V30 228 C 24.0825 -0.65073 1.57161 0
M  V30 229 O 25.2675 -0.582359 1.85263 0
M  V30 230 C 22.3975 -0.637353 3.41402 0
M  V30 231 C 21.3515 0.134531 4.27789 0
M  V30 232 C 20.6775 -0.844285 5.27992 0
M  V30 233 C 21.9775 1.32979 5.05088 0
M  V30 234 H 23.6715 1.02787 2.81203 0
M  V30 235 H 21.2175 0.495717 1.35199 0
M  V30 236 H 23.1705 -1.05302 4.08031 0
M  V30 237 H 21.8945 -1.47785 2.91251 0
M  V30 238 H 20.5535 0.531296 3.6273 0
M  V30 239 H 20.2015 -1.68011 4.74111 0
M  V30 240 H 19.9015 -0.332184 5.8666 0
M  V30 241 H 21.4255 -1.2583 5.97494 0
M  V30 242 H 22.8395 0.98934 5.64699 0
M  V30 243 H 21.2365 1.77593 5.7322 0
M  V30 244 H 22.3065 2.11978 4.36111 0
M  V30 245 N 23.6496 -1.47581 0.552962 0
M  V30 246 C 24.8966 -2.02482 0.0273243 0
M  V30 247 C 25.2246 -1.42776 -1.32081 0
M  V30 248 O 24.4796 -0.571393 -1.87173 0
M  V30 249 C 24.7786 -3.57199 -0.119728 0
M  V30 250 C 24.4446 -4.35804 1.15697 0
M  V30 251 C 23.1066 -4.57 1.50681 0
M  V30 252 C 25.4586 -4.81167 2.00319 0
M  V30 253 C 22.7866 -5.20807 2.70142 0
M  V30 254 C 25.1386 -5.46293 3.18978 0
M  V30 255 C 23.8026 -5.65722 3.54281 0
M  V30 256 H 23.0726 -0.740933 0.00999866 0
M  V30 257 H 25.7196 -1.77302 0.72362 0
M  V30 258 H 24.0246 -3.81348 -0.89896 0
M  V30 259 H 25.7216 -3.97324 -0.541718 0
M  V30 260 H 22.3116 -4.19582 0.874561 0
M  V30 261 H 26.4956 -4.64574 1.74599 0
M  V30 262 H 21.7516 -5.34045 2.97668 0
M  V30 263 H 25.9256 -5.80407 3.84838 0
M  V30 264 H 23.5526 -6.14936 4.46942 0
M  V30 265 N 25.1277 -0.289203 -1.54924 0
M  V30 266 C 26.0907 0.579144 -2.21762 0
M  V30 267 C 27.0907 1.07047 -1.1999 0
M  V30 268 O 28.2807 0.968384 -1.44803 0
M  V30 269 C 25.4127 1.80055 -2.8947 0
M  V30 270 H 26.6057 -0.00464908 -2.999 0
M  V30 271 H 24.1587 -0.0399306 -1.56249 0
M  V30 272 H 24.8937 2.42449 -2.15381 0
M  V30 273 H 24.6787 1.45602 -3.64064 0
M  V30 274 H 26.1687 2.41773 -3.40493 0
M  V30 275 N 26.6058 1.57591 -0.0167156 0
M  V30 276 C 27.8518 1.91567 0.665582 0
M  V30 277 C 28.1848 0.892298 1.72487 0
M  V30 278 O 27.4598 -0.0867127 1.94307 0
M  V30 279 C 27.7428 3.36069 1.29342 0
M  V30 280 C 27.5958 4.49135 0.244541 0
M  V30 281 C 28.9148 3.803 2.21495 0
M  V30 282 H 26.0338 0.69666 0.240488 0
M  V30 283 H 28.6758 1.89866 -0.0714356 0
M  V30 284 H 26.8258 3.3765 1.92158 0
M  V30 285 H 28.4978 4.59689 -0.385228 0
M  V30 286 H 26.7408 4.3165 -0.431379 0
M  V30 287 H 27.4118 5.47242 0.723207 0
M  V30 288 H 29.8878 3.80377 1.68678 0
M  V30 289 H 28.7638 4.82127 2.62382 0
M  V30 290 H 29.0248 3.15104 3.101 0
M  V30 291 N 28.0839 -0.256276 1.55502 0
M  V30 292 C 29.3609 -1.00789 1.67633 0
M  V30 293 C 29.7409 -2.03706 0.553826 0
M  V30 294 O 29.0889 -2.24145 -0.443969 0
M  V30 295 C 29.2989 -1.64968 3.07549 0
M  V30 296 C 30.6469 -2.15505 3.65845 0
M  V30 297 O 31.6709 -1.74925 3.1029 0
M  V30 298 O 30.5299 -2.89986 4.63217 0
M  V30 299 H 27.6239 -0.468553 0.681459 0
M  V30 300 H 30.1699 -0.250806 1.67836 0
M  V30 301 H 28.9419 -0.904785 3.80696 0
M  V30 302 H 28.5649 -2.47321 3.11317 0
M  V30 303 N 29.562 -1.4872 -0.521534 0
M  V30 304 C 30.787 -1.61101 -1.30618 0
M  V30 305 C 31.212 -0.274611 -1.86085 0
M  V30 306 O 30.57 0.754937 -1.64834 0
M  V30 307 C 30.618 -2.66709 -2.4269 0
M  V30 308 O 29.722 -2.24456 -3.45967 0
M  V30 309 H 29.063 -0.539921 -0.386499 0
M  V30 310 H 31.593 -1.94767 -0.626645 0
M  V30 311 H 31.603 -2.88245 -2.88754 0
M  V30 312 H 30.278 -3.63727 -2.01682 0
M  V30 313 H 28.855 -2.13168 -3.05964 0
M  V30 314 N 31.0401 0.771051 -1.3745 0
M  V30 315 C 32.2881 1.52661 -1.32435 0
M  V30 316 C 32.6091 1.9479 0.0905024 0
M  V30 317 O 31.8791 1.66348 1.03466 0
M  V30 318 H 30.4591 0.566218 -0.487244 0
M  V30 319 H 33.1211 0.917636 -1.71946 0
M  V30 320 H 32.2171 2.42568 -1.96385 0
M  V30 321 N 32.5182 1.22032 0.997298 0
M  V30 322 C 33.4662 0.983634 2.10778 0
M  V30 323 C 34.4602 -0.0717564 1.69248 0
M  V30 324 O 35.6662 0.080304 1.79821 0
M  V30 325 H 32.0412 0.300877 0.689186 0
M  V30 326 H 34.0122 1.92606 2.27916 0
M  V30 327 C 32.7612 0.57326 3.42942 0
M  V30 328 H 32.0842 1.37702 3.75338 0
M  V30 329 H 33.5242 0.447031 4.21637 0
M  V30 330 C 31.9832 -0.7167 3.29188 0
M  V30 331 O 32.5132 -1.77027 3.60589 0
M  V30 332 N 30.7192 -0.686167 2.82383 0
M  V30 333 H 30.2662 0.171507 2.57028 0
M  V30 334 H 30.2242 -1.54955 2.73562 0
M  V30 335 N 33.9963 -1.19345 1.0293 0
M  V30 336 C 35.2733 -1.84811 0.640642 0
M  V30 337 C 35.6533 -1.91855 -0.88062 0
M  V30 338 O 35.0013 -1.43587 -1.7775 0
M  V30 339 C 35.2113 -3.23755 1.30321 0
M  V30 340 C 36.5593 -3.99912 1.42673 0
M  V30 341 O 37.5833 -3.33155 1.26041 0
M  V30 342 O 36.4423 -5.19494 1.6967 0
M  V30 343 H 33.5363 -0.796443 0.222726 0
M  V30 344 H 36.0823 -1.26831 1.12748 0
M  V30 345 H 34.8543 -3.13466 2.34211 0
M  V30 346 H 34.4773 -3.89381 0.804261 0
M  V30 347 N 35.4744 -0.807222 -1.35358 0
M  V30 348 C 36.7204 -0.388463 -1.99045 0
M  V30 349 C 37.0534 1.04184 -1.63888 0
M  V30 350 O 36.3284 1.72292 -0.902535 0
M  V30 351 C 36.6114 -0.572783 -3.55515 0
M  V30 352 C 36.4644 -2.04807 -4.00468 0
M  V30 353 C 37.7834 0.00114064 -4.401 0
M  V30 354 H 34.9024 -0.142619 -0.723069 0
M  V30 355 H 37.5444 -1.01687 -1.60498 0
M  V30 356 H 35.6944 -0.0378425 -3.88482 0
M  V30 357 H 37.3664 -2.64544 -3.77908 0
M  V30 358 H 35.6094 -2.54427 -3.51353 0
M  V30 359 H 36.2804 -2.12792 -5.09337 0
M  V30 360 H 38.7564 -0.455716 -4.13597 0
M  V30 361 H 37.6324 -0.157737 -5.48673 0
M  V30 362 H 37.8934 1.09488 -4.28328 0
M  V30 363 N 36.9525 1.47285 -0.560781 0
M  V30 364 C 38.1805 2.06855 -0.0430262 0
M  V30 365 C 38.5955 1.41291 1.25229 0
M  V30 366 O 37.9525 0.510648 1.7521 0
M  V30 367 C 38.0035 3.61178 0.152518 0
M  V30 368 O 37.7245 4.24285 -1.0915 0
M  V30 369 C 39.2255 4.37624 0.707145 0
M  V30 370 H 36.4455 0.669319 -0.0474652 0
M  V30 371 H 38.9895 1.89237 -0.77521 0
M  V30 372 H 37.1445 3.78298 0.834843 0
M  V30 373 H 37.5585 5.16868 -0.891482 0
M  V30 374 H 39.0325 5.46271 0.793244 0
M  V30 375 H 39.5095 4.04152 1.71923 0
M  V30 376 H 40.1155 4.25257 0.0604027 0
M  V30 377 N 38.4306 0.297415 1.54768 0
M  V30 378 C 39.7076 -0.365847 1.92148 0
M  V30 379 C 40.0876 -1.71975 1.22424 0
M  V30 380 O 39.4356 -2.25666 0.358739 0
M  V30 381 C 39.6456 -0.484056 3.45627 0
M  V30 382 C 40.9936 -0.756594 4.17805 0
M  V30 383 O 42.0176 -0.568007 3.51642 0
M  V30 384 O 40.8766 -1.11863 5.34929 0
M  V30 385 H 37.9706 -0.203919 0.801465 0
M  V30 386 H 40.5166 0.34521 1.66152 0
M  V30 387 H 39.2886 0.467865 3.88493 0
M  V30 388 H 38.9116 -1.24372 3.77647 0
M  V30 389 N 39.9087 -1.5758 0.0250728 0
M  V30 390 C 41.1577 -1.90811 -0.653767 0
M  V30 391 C 41.4707 -0.90273 -1.73523 0
M  V30 392 O 42.6767 -1.12614 -2.47043 0
M  V30 393 C 41.1327 -3.38804 -1.21409 0
M  V30 394 C 40.7407 -4.47692 -0.166126 0
M  V30 395 C 42.4847 -3.81108 -1.86967 0
M  V30 396 C 40.3917 -5.86779 -0.737856 0
M  V30 397 H 39.3217 -0.712063 -0.247956 0
M  V30 398 H 41.9727 -1.83281 0.0897137 0
M  V30 399 H 40.3547 -3.41252 -2.00905 0
M  V30 400 H 41.5287 -4.56797 0.606079 0
M  V30 401 H 39.8437 -4.14565 0.390466 0
M  V30 402 H 42.4407 -4.82375 -2.30692 0
M  V30 403 H 42.7837 -3.15953 -2.71071 0
M  V30 404 H 43.3167 -3.81065 -1.14167 0
M  V30 405 H 40.0557 -6.55468 0.0649577 0
M  V30 406 H 39.5757 -5.81288 -1.47864 0
M  V30 407 H 41.2547 -6.35223 -1.22884 0
M  V30 408 N 41.3868 0.248026 -1.55636 0
M  V30 409 C 42.3498 1.29044 -1.89421 0
M  V30 410 C 43.3498 1.41134 -0.770581 0
M  V30 411 O 44.5398 1.39854 -1.03858 0
M  V30 412 C 41.6718 2.66831 -2.12165 0
M  V30 413 H 42.8648 1.00305 -2.82629 0
M  V30 414 H 40.4178 0.487265 -1.48511 0
M  V30 415 H 41.1528 3.00711 -1.21422 0
M  V30 416 H 40.9378 2.59438 -2.93997 0
M  V30 417 H 42.4278 3.42103 -2.3949 0
M  V30 418 N 42.8649 1.48995 0.513639 0
M  V30 419 C 44.1419 1.48338 1.27495 0
M  V30 420 C 44.5219 0.204065 2.10111 0
M  V30 421 O 43.8699 -0.813881 2.13514 0
M  V30 422 C 44.0799 2.75498 2.14247 0
M  V30 423 C 45.4279 3.24484 2.73852 0
M  V30 424 O 46.4519 2.76528 2.24523 0
M  V30 425 O 45.3109 4.07974 3.6362 0
M  V30 426 H 42.4049 0.593149 0.576284 0
M  V30 427 H 44.9509 1.61246 0.528948 0
M  V30 428 H 43.7229 3.60109 1.53092 0
M  V30 429 H 43.3459 2.6539 2.96064 0
M  V30 430 N 44.343 -0.763751 1.37857 0
M  V30 431 C 45.62 -1.51244 1.24035 0
M  V30 432 C 46 -2.10472 -0.162649 0
M  V30 433 O 45.348 -1.96206 -1.17112 0
M  V30 434 C 45.558 -2.58694 2.34261 0
M  V30 435 C 46.906 -3.25878 2.72193 0
M  V30 436 O 47.93 -2.68993 2.33497 0
M  V30 437 O 46.789 -4.2874 3.38887 0
M  V30 438 H 43.883 -0.670243 0.484462 0
M  V30 439 H 46.429 -0.800031 1.49658 0
M  V30 440 H 45.201 -2.13105 3.2818 0
M  V30 441 H 44.824 -3.37527 2.10146 0
M  V30 442 N 45.8211 -1.22559 -0.990812 0
M  V30 443 C 47.0691 -1.04933 -1.72724 0
M  V30 444 C 47.3901 0.416158 -1.90508 0
M  V30 445 O 46.6601 1.29918 -1.46622 0
M  V30 446 H 45.2401 -0.385296 -0.639965 0
M  V30 447 H 47.9021 -1.54105 -1.19322 0
M  V30 448 H 46.9981 -1.52886 -2.72089 0
M  V30 449 N 47.2992 1.18797 -1.03562 0
M  V30 450 C 48.5392 1.90346 -0.744832 0
M  V30 451 C 48.9032 1.78231 0.713972 0
M  V30 452 O 50.1042 2.44441 1.11813 0
M  V30 453 C 48.3752 3.36942 -1.19184 0
M  V30 454 S 49.9342 4.26638 -1.02593 0
M  V30 455 H 46.7522 0.657343 -0.270963 0
M  V30 456 H 49.3542 1.43579 -1.32685 0
M  V30 457 H 48.0582 3.43287 -2.24905 0
M  V30 458 H 47.5892 3.88745 -0.603397 0
M  V30 459 H 49.6042 4.96164 0.0596033 0
M  V30 460 N 48.7773 0.814389 1.34928 0
M  V30 461 C 50.1883 0.458364 1.80986 0
M  V30 462 C 50.5393 -1.02042 1.67577 0
M  V30 463 O 49.6643 -1.79352 1.21086 0
M  V30 464 C 50.2593 0.825212 3.28597 0
M  V30 465 C 48.8183 0.521677 3.72767 0
M  V30 466 C 47.9653 1.04668 2.56788 0
M  V30 467 H 50.9163 1.00533 1.22795 0
M  V30 468 H 50.9373 0.12571 3.80292 0
M  V30 469 H 50.4493 1.90154 3.38324 0
M  V30 470 H 48.5503 -0.545589 3.68584 0
M  V30 471 H 48.6633 1.05977 4.67232 0
M  V30 472 H 47.0273 0.468622 2.50352 0
M  V30 473 H 47.8103 2.12927 2.6929 0
M  V30 474 N 50.2554 -1.46986 0.568584 0
M  V30 475 C 51.2024 -2.30153 -0.172707 0
M  V30 476 C 52.1724 -1.39759 -0.897586 0
M  V30 477 O 53.3574 -1.68716 -0.891044 0
M  V30 478 C 50.4974 -3.23952 -1.1895 0
M  V30 479 C 49.6104 -4.29441 -0.469517 0
M  V30 480 C 48.7454 -5.1038 -1.47259 0
M  V30 481 C 47.7844 -6.07632 -0.738225 0
M  V30 482 N 46.9214 -6.8149 -1.68868 0
M  V30 483 H 51.7614 -2.93019 0.542596 0
M  V30 484 H 49.2984 -1.44422 0.279401 0
M  V30 485 H 51.2564 -3.76767 -1.79173 0
M  V30 486 H 49.8864 -2.62926 -1.87269 0
M  V30 487 H 48.9384 -3.79594 0.247467 0
M  V30 488 H 50.2504 -4.98689 0.105241 0
M  V30 489 H 49.4044 -5.67402 -2.14803 0
M  V30 490 H 48.1434 -4.4106 -2.08128 0
M  V30 491 H 47.1484 -5.49778 -0.0489293 0
M  V30 492 H 48.3734 -6.78966 -0.135129 0
M  V30 493 H 46.3194 -6.14891 -2.28573 0
M  V30 494 H 46.2364 -7.46948 -1.16636 0
M  V30 495 H 47.5044 -7.43078 -2.3549 0
M  V30 496 N 51.7335 -0.305618 -1.54608 0
M  V30 497 C 53.1445 0.186098 -1.8577 0
M  V30 498 C 53.4955 1.53058 -1.22751 0
M  V30 499 O 52.6205 2.09888 -0.526893 0
M  V30 500 C 53.2155 0.344449 -3.37044 0
M  V30 501 C 51.7745 0.780384 -3.68221 0
M  V30 502 C 50.9215 -0.108554 -2.77087 0
M  V30 503 H 53.8725 -0.526485 -1.49712 0
M  V30 504 H 53.8935 1.17828 -3.61796 0
M  V30 505 H 53.4055 -0.634235 -3.82883 0
M  V30 506 H 51.5065 1.76945 -3.27904 0
M  V30 507 H 51.6195 0.596572 -4.75371 0
M  V30 508 H 49.9835 0.412931 -2.5133 0
M  V30 509 H 50.7665 -1.08368 -3.25747 0
M  V30 510 N 53.2116 1.57565 -0.0334293 0
M  V30 511 C 54.6226 1.79746 0.504798 0
M  V30 512 C 54.9736 0.944091 1.71992 0
M  V30 513 O 54.0986 0.155694 2.15839 0
M  V30 514 C 54.6936 3.25997 0.922567 0
M  V30 515 C 53.2526 3.49159 1.40588 0
M  V30 516 C 52.3996 2.74785 0.372633 0
M  V30 517 H 55.3506 1.56565 -0.259436 0
M  V30 518 H 55.3716 3.35945 1.78666 0
M  V30 519 H 54.8836 3.88081 0.0379825 0
M  V30 520 H 52.9846 2.92332 2.31025 0
M  V30 521 H 53.0976 4.57873 1.41028 0
M  V30 522 H 51.4616 2.40391 0.841672 0
M  V30 523 H 52.2446 3.39587 -0.503559 0
M  V30 524 N 54.6897 -0.239769 1.55765 0
M  V30 525 C 55.5997 -1.31831 1.94056 0
M  V30 526 C 56.6157 -1.52275 0.841925 0
M  V30 527 O 57.7917 -1.65759 1.14394 0
M  V30 528 C 54.8567 -2.65156 2.23368 0
M  V30 529 C 53.9177 -2.53173 3.46701 0
M  V30 530 C 53.1507 -3.8014 3.74606 0
M  V30 531 O 53.3737 -4.82343 3.04469 0
M  V30 532 O 52.3077 -3.78344 4.68123 0
M  V30 533 H 56.1337 -1.02347 2.85935 0
M  V30 534 H 53.7187 -0.441123 1.42739 0
M  V30 535 H 55.6007 -3.43929 2.43497 0
M  V30 536 H 54.2757 -2.94358 1.34666 0
M  V30 537 H 53.1827 -1.72662 3.31871 0
M  V30 538 H 54.5157 -2.28915 4.35728 0
M  V30 539 N 56.1678 -1.49265 -0.50573 0
M  V30 540 C 57.4168 -1.57761 -1.25675 0
M  V30 541 C 57.7298 -0.267371 -1.93764 0
M  V30 542 O 58.9358 -0.230827 -2.70517 0
M  V30 543 C 57.3918 -2.78332 -2.28165 0
M  V30 544 C 56.9998 -4.16096 -1.66037 0
M  V30 545 C 58.7438 -2.96155 -3.04125 0
M  V30 546 C 56.6508 -5.27895 -2.6661 0
M  V30 547 H 55.5808 -0.587391 -0.472745 0
M  V30 548 H 58.2318 -1.75644 -0.53118 0
M  V30 549 H 56.6138 -2.53934 -3.03865 0
M  V30 550 H 57.7878 -4.50612 -0.963622 0
M  V30 551 H 56.1028 -4.03591 -1.02484 0
M  V30 552 H 58.6998 -3.76849 -3.79327 0
M  V30 553 H 59.0428 -2.06534 -3.61455 0
M  V30 554 H 59.5758 -3.2057 -2.35541 0
M  V30 555 H 56.3148 -6.1956 -2.14068 0
M  V30 556 H 55.8348 -4.97839 -3.34539 0
M  V30 557 H 57.5138 -5.57031 -3.29129 0
M  V30 558 N 57.6459 0.756429 -1.3826 0
M  V30 559 C 58.6089 1.85176 -1.35065 0
M  V30 560 C 59.6089 1.58818 -0.251703 0
M  V30 561 O 60.7989 1.66615 -0.508433 0
M  V30 562 C 57.9309 3.22596 -1.10201 0
M  V30 563 H 59.1239 1.89417 -2.3251 0
M  V30 564 H 56.6769 0.95783 -1.23512 0
M  V30 565 H 57.4119 3.24025 -0.133504 0
M  V30 566 H 57.1969 3.43122 -1.89762 0
M  V30 567 H 58.6869 4.02673 -1.10654 0
M  V30 568 N 59.124 1.23083 0.984299 0
M  V30 569 C 60.074 0.975749 2.06066 0
M  V30 570 C 61.058 -0.0768251 1.60716 0
M  V30 571 O 62.25 0.134805 1.76486 0
M  V30 572 C 59.379 0.564673 3.38624 0
M  V30 573 C 58.465 1.65244 3.90583 0
M  V30 574 N 58.856 2.88193 4.15666 0
M  V30 575 C 57.154 1.52612 4.19077 0
M  V30 576 C 57.855 3.58593 4.58024 0
M  V30 577 N 56.831 2.86093 4.62225 0
M  V30 578 H 60.633 1.90957 2.23411 0
M  V30 579 H 58.147 1.12963 1.16675 0
M  V30 580 H 60.144 0.36322 4.15315 0
M  V30 581 H 58.804 -0.362147 3.22674 0
M  V30 582 H 59.815 3.24537 4.03604 0
M  V30 583 H 56.492 0.666121 4.12152 0
M  V30 584 H 57.882 4.63974 4.85982 0
M  V30 585 N 60.6021 -1.18246 1.0419 0
M  V30 586 C 61.8501 -1.87886 0.744543 0
M  V30 587 C 62.1711 -1.8082 -0.730006 0
M  V30 588 O 61.4411 -1.22736 -1.52685 0
M  V30 589 H 60.0211 -0.695556 0.272417 0
M  V30 590 H 62.6831 -1.43494 1.31892 0
M  V30 591 H 61.7791 -2.9389 1.05049 0
M  V30 592 N 62.0802 -0.821533 -1.34494 0
M  V30 593 C 63.3102 -0.421272 -2.02259 0
M  V30 594 C 63.7182 0.977047 -1.6202 0
M  V30 595 O 63.0612 1.64348 -0.820703 0
M  V30 596 C 63.1232 -0.44231 -3.56769 0
M  V30 597 C 62.7872 -1.79372 -4.20327 0
M  V30 598 C 63.7842 -2.75435 -4.40944 0
M  V30 599 C 61.4692 -2.08182 -4.57127 0
M  V30 600 C 63.4632 -3.98482 -4.97484 0
M  V30 601 C 61.1502 -3.31489 -5.13379 0
M  V30 602 C 62.1482 -4.26457 -5.33501 0
M  V30 603 O 61.8362 -5.47585 -5.88562 0
M  V30 604 H 61.5682 -0.167473 -0.654927 0
M  V30 605 H 64.1222 -1.11073 -1.72777 0
M  V30 606 H 62.3522 0.303836 -3.85505 0
M  V30 607 H 64.0412 -0.0622925 -4.05852 0
M  V30 608 H 64.8072 -2.54473 -4.12878 0
M  V30 609 H 60.6862 -1.35066 -4.4077 0
M  V30 610 H 64.2302 -4.72618 -5.13106 0
M  V30 611 H 60.1272 -3.52316 -5.40873 0
M  V30 612 H 60.8952 -5.49086 -6.06998 0
M  V30 613 N 63.5583 1.46682 -0.576371 0
M  V30 614 C 64.8043 2.02712 -0.0596221 0
M  V30 615 C 65.1373 1.44765 1.29448 0
M  V30 616 O 64.4123 0.610355 1.84675 0
M  V30 617 C 64.6953 3.60098 0.0129503 0
M  V30 618 C 64.5483 4.28441 -1.3696 0
M  V30 619 C 65.8673 4.34224 0.71678 0
M  V30 620 H 62.9863 0.736637 -0.0231407 0
M  V30 621 H 65.6283 1.74898 -0.742351 0
M  V30 622 H 63.7783 3.83926 0.594378 0
M  V30 623 H 65.4503 4.15896 -1.9957 0
M  V30 624 H 63.6933 3.8805 -1.93907 0
M  V30 625 H 64.3643 5.3716 -1.27135 0
M  V30 626 H 66.8403 4.15503 0.222908 0
M  V30 627 H 65.7163 5.43936 0.73657 0
M  V30 628 H 65.9773 4.04823 1.77682 0
M  V30 629 N 65.0364 0.313813 1.54444 0
M  V30 630 C 65.9464 -0.565714 2.27677 0
M  V30 631 C 66.9624 -1.13754 1.31666 0
M  V30 632 O 68.1384 -1.15959 1.64668 0
M  V30 633 C 65.2034 -1.71528 3.01296 0
M  V30 634 C 64.2644 -1.17624 4.12872 0
M  V30 635 C 63.4974 -2.27102 4.8297 0
M  V30 636 O 63.7204 -3.47256 4.52514 0
M  V30 637 O 62.6544 -1.9307 5.70094 0
M  V30 638 H 66.4804 0.0287296 3.03686 0
M  V30 639 H 64.0654 0.0798312 1.49187 0
M  V30 640 H 65.9474 -2.38476 3.4743 0
M  V30 641 H 64.6224 -2.29608 2.2817 0
M  V30 642 H 63.5294 -0.472124 3.71109 0
M  V30 643 H 64.8624 -0.640695 4.88012 0
M  V30 644 N 66.5145 -1.57545 0.0417849 0
M  V30 645 C 67.4645 -2.07483 -0.945247 0
M  V30 646 C 68.4485 -0.977983 -1.27767 0
M  V30 647 O 69.6405 -1.24142 -1.26166 0
M  V30 648 C 66.7695 -2.61576 -2.22335 0
M  V30 649 C 65.8555 -3.78213 -1.91874 0
M  V30 650 N 66.2465 -4.88344 -1.31733 0
M  V30 651 C 64.5445 -3.8694 -2.21796 0
M  V30 652 C 65.2455 -5.69462 -1.1869 0
M  V30 653 N 64.2215 -5.16771 -1.68666 0
M  V30 654 H 68.0235 -2.90029 -0.475441 0
M  V30 655 H 65.5375 -1.61581 -0.162911 0
M  V30 656 H 67.5345 -2.95651 -2.93932 0
M  V30 657 H 66.1945 -1.80465 -2.69931 0
M  V30 658 H 67.2055 -5.08335 -0.990729 0
M  V30 659 H 63.8825 -3.16757 -2.71977 0
M  V30 660 H 65.2725 -6.68023 -0.720793 0
M  V30 661 N 67.9926 0.231505 -1.5589 0
M  V30 662 C 69.2176 0.978689 -1.82856 0
M  V30 663 C 69.6426 1.77559 -0.620846 0
M  V30 664 O 69.0006 1.76119 0.430305 0
M  V30 665 C 69.0486 1.87997 -3.07716 0
M  V30 666 O 68.1526 2.97393 -2.85712 0
M  V30 667 H 67.4936 0.277663 -0.603158 0
M  V30 668 H 70.0236 0.24783 -2.03093 0
M  V30 669 H 70.0336 2.2917 -3.37558 0
M  V30 670 H 68.7086 1.29417 -3.95252 0
M  V30 671 H 67.2856 2.60238 -2.67078 0
M  V30 672 N 69.4707 1.49531 0.497807 0
M  V30 673 C 70.7167 1.59415 1.25358 0
M  V30 674 C 71.0497 0.281422 1.9215 0
M  V30 675 O 70.3247 -0.715249 1.80871 0
M  V30 676 C 70.6077 2.75566 2.3181 0
M  V30 677 C 70.4607 4.16642 1.69498 0
M  V30 678 C 71.7797 2.87347 3.33346 0
M  V30 679 H 68.8987 0.580244 0.454408 0
M  V30 680 H 71.5407 1.81827 0.551262 0
M  V30 681 H 69.6907 2.56587 2.91711 0
M  V30 682 H 71.3627 4.47145 1.13399 0
M  V30 683 H 69.6057 4.22141 0.998978 0
M  V30 684 H 70.2767 4.93792 2.46725 0
M  V30 685 H 72.7527 3.04634 2.83438 0
M  V30 686 H 71.6287 3.70289 4.05188 0
M  V30 687 H 71.8897 1.96834 3.95865 0
M  V30 688 N 70.9488 -0.749086 1.3866 0
M  V30 689 C 72.3648 -1.05276 1.19955 0
M  V30 690 C 72.5648 -2.01435 0.05134 0
M  V30 691 O 71.6208 -2.45232 -0.60147 0
M  V30 692 C 72.9338 -1.62853 2.52783 0
M  V30 693 C 74.4818 -1.75002 2.59506 0
M  V30 694 C 74.9568 -2.35991 3.92521 0
M  V30 695 N 76.4478 -2.43416 3.94085 0
M  V30 696 C 77.1828 -2.91511 4.9377 0
M  V30 697 N 76.6788 -3.39608 6.03853 0
M  V30 698 N 78.4718 -2.90592 4.81157 0
M  V30 699 H 70.6228 -0.111066 2.12109 0
M  V30 700 H 72.8858 -0.111901 0.941373 0
M  V30 701 H 72.5918 -0.99664 3.37283 0
M  V30 702 H 72.4658 -2.61854 2.715 0
M  V30 703 H 74.8528 -2.37317 1.75398 0
M  V30 704 H 74.9338 -0.74693 2.44652 0
M  V30 705 H 74.5778 -1.74308 4.77053 0
M  V30 706 H 74.5078 -3.3695 4.04688 0
M  V30 707 H 76.9988 -2.09405 3.14576 0
M  V30 708 H 77.3118 -3.74775 6.75843 0
M  V30 709 H 75.6568 -3.37653 6.07466 0
M  V30 710 H 78.8478 -2.52332 3.94267 0
M  V30 711 H 79.0208 -3.27762 5.58996 0
M  V30 712 N 72.4269 -1.23603 -0.977757 0
M  V30 713 C 73.6569 -1.09487 -1.75203 0
M  V30 714 C 74.0649 0.356321 -1.85814 0
M  V30 715 O 73.4079 1.25816 -1.33851 0
M  V30 716 C 73.4699 -1.64905 -3.19447 0
M  V30 717 C 73.1339 -3.13688 -3.32338 0
M  V30 718 C 74.1309 -4.10953 -3.18455 0
M  V30 719 C 71.8159 -3.53449 -3.56902 0
M  V30 720 C 73.8099 -5.45962 -3.28944 0
M  V30 721 C 71.4969 -4.88602 -3.6703 0
M  V30 722 C 72.4949 -5.84668 -3.53062 0
M  V30 723 O 72.1829 -7.17365 -3.62826 0
M  V30 724 H 71.9149 -0.38367 -0.556573 0
M  V30 725 H 74.4689 -1.6398 -1.23693 0
M  V30 726 H 72.6989 -1.04835 -3.72218 0
M  V30 727 H 74.3879 -1.46226 -3.78646 0
M  V30 728 H 75.1539 -3.81577 -2.99372 0
M  V30 729 H 71.0329 -2.79188 -3.66844 0
M  V30 730 H 74.5769 -6.20925 -3.17958 0
M  V30 731 H 70.4739 -5.17653 -3.85623 0
M  V30 732 H 71.2419 -7.2515 -3.79605 0
M  V30 733 N 73.905 1.17692 -1.04816 0
M  V30 734 C 74.837 2.21103 -0.603822 0
M  V30 735 C 75.85 1.59411 0.33046 0
M  V30 736 O 77.039 1.7807 0.12379 0
M  V30 737 C 74.139 3.38623 0.136898 0
M  V30 738 C 73.312 4.29888 -0.807137 0
M  V30 739 C 72.371 5.26088 -0.10836 0
M  V30 740 O 71.397 5.64353 -0.741232 0
M  V30 741 N 72.599 5.68882 1.15558 0
M  V30 742 H 75.364 2.59848 -1.49329 0
M  V30 743 H 72.925 1.32553 -0.929587 0
M  V30 744 H 74.917 4.00009 0.614401 0
M  V30 745 H 73.487 2.98508 0.927993 0
M  V30 746 H 72.707 3.65993 -1.46434 0
M  V30 747 H 73.995 4.87759 -1.44807 0
M  V30 748 H 73.393 5.39861 1.69015 0
M  V30 749 H 71.95 6.32429 1.57722 0
M  V30 750 N 75.3831 0.828654 1.34056 0
M  V30 751 C 76.6231 0.425394 1.99924 0
M  V30 752 C 76.9871 -0.994294 1.64249 0
M  V30 753 O 78.1881 -1.50074 2.23005 0
M  V30 754 C 76.4591 0.628071 3.51838 0
M  V30 755 S 78.0181 0.318511 4.37642 0
M  V30 756 H 74.8361 0.160465 0.692656 0
M  V30 757 H 77.4381 1.07572 1.63244 0
M  V30 758 H 76.1421 1.66089 3.7529 0
M  V30 759 H 75.6731 -0.0367799 3.93383 0
M  V30 760 H 77.6881 -0.865632 4.88591 0
M  V30 761 N 76.8612 -1.46375 0.584142 0
M  V30 762 C 77.8082 -2.30323 -0.148286 0
M  V30 763 C 78.7782 -1.40703 -0.882713 0
M  V30 764 O 79.9632 -1.69651 -0.873099 0
M  V30 765 C 77.1032 -3.25196 -1.15507 0
M  V30 766 C 76.2162 -4.29915 -0.423943 0
M  V30 767 C 75.3512 -5.11914 -1.41838 0
M  V30 768 C 74.3902 -6.08381 -0.673736 0
M  V30 769 N 73.5272 -6.83242 -1.6163 0
M  V30 770 H 78.3672 -2.92427 0.573644 0
M  V30 771 H 75.9042 -1.44118 0.294703 0
M  V30 772 H 77.8622 -3.78646 -1.75166 0
M  V30 773 H 76.4922 -2.64898 -1.8447 0
M  V30 774 H 75.5442 -3.7931 0.287714 0
M  V30 775 H 76.8562 -4.98549 0.158128 0
M  V30 776 H 76.0102 -5.69648 -2.08773 0
M  V30 777 H 74.7492 -4.43243 -2.03438 0
M  V30 778 H 73.7542 -5.49799 0.00938483 0
M  V30 779 H 74.9792 -6.79071 -0.0631082 0
M  V30 780 H 72.9252 -6.1728 -2.22038 0
M  V30 781 H 72.8422 -7.48144 -1.08707 0
M  V30 782 H 74.1102 -7.45534 -2.27596 0
M  V30 783 N 78.3393 -0.321999 -1.54275 0
M  V30 784 C 79.2873 0.560206 -2.25753 0
M  V30 785 C 80.2813 1.11984 -1.27106 0
M  V30 786 O 81.4873 1.06806 -1.44888 0
M  V30 787 H 77.8623 0.199304 -0.725108 0
M  V30 788 H 79.8333 -0.0649365 -2.98329 0
M  V30 789 C 78.5823 1.71023 -3.02731 0
M  V30 790 H 77.9053 1.28885 -3.78456 0
M  V30 791 H 79.3453 2.30314 -3.55993 0
M  V30 792 C 77.8043 2.62692 -2.10938 0
M  V30 793 O 78.3343 3.64364 -1.6912 0
M  V30 794 N 76.5403 2.30891 -1.76459 0
M  V30 795 H 76.0873 1.48253 -2.10663 0
M  V30 796 H 76.0453 2.92487 -1.1532 0
M  V30 797 N 79.8174 1.5752 -0.0501392 0
M  V30 798 C 81.0474 1.96678 0.632573 0
M  V30 799 C 81.4554 0.926298 1.64974 0
M  V30 800 O 80.7984 -0.09802 1.83438 0
M  V30 801 C 80.8604 3.32068 1.37735 0
M  V30 802 C 80.5244 4.54076 0.516131 0
M  V30 803 C 81.5214 5.19445 -0.217357 0
M  V30 804 C 79.2064 5.00304 0.44736 0
M  V30 805 C 81.2004 6.29378 -1.00807 0
M  V30 806 C 78.8874 6.10114 -0.347038 0
M  V30 807 C 79.8854 6.74512 -1.07344 0
M  V30 808 O 79.5734 7.82211 -1.85477 0
M  V30 809 H 79.3054 0.652193 0.177821 0
M  V30 810 H 81.8594 2.05091 -0.112543 0
M  V30 811 H 80.0894 3.20206 2.16807 0
M  V30 812 H 81.7784 3.55981 1.95019 0
M  V30 813 H 82.5444 4.84689 -0.173688 0
M  V30 814 H 78.4234 4.49971 1.00235 0
M  V30 815 H 81.9674 6.79575 -1.57556 0
M  V30 816 H 77.8644 6.44307 -0.392349 0
M  V30 817 H 78.6324 7.98982 -1.77678 0
M  V30 818 N 81.2955 -0.223234 1.56011 0
M  V30 819 C 82.5255 -0.963413 1.82762 0
M  V30 820 C 82.9335 -1.78516 0.626804 0
M  V30 821 O 82.2765 -1.78974 -0.414014 0
M  V30 822 C 82.3385 -1.93126 3.0322 0
M  V30 823 C 82.0025 -1.2942 4.38291 0
M  V30 824 C 82.9995 -0.684916 5.15369 0
M  V30 825 C 80.6845 -1.30647 4.85012 0
M  V30 826 C 82.6785 -0.0963971 6.37327 0
M  V30 827 C 80.3655 -0.71411 6.06913 0
M  V30 828 C 81.3635 -0.110123 6.82911 0
M  V30 829 O 81.0515 0.47303 8.02507 0
M  V30 830 H 80.7835 -0.288011 0.611576 0
M  V30 831 H 83.3375 -0.244103 2.03944 0
M  V30 832 H 81.5675 -2.68952 2.77852 0
M  V30 833 H 83.2565 -2.53685 3.16857 0
M  V30 834 H 84.0225 -0.667774 4.80381 0
M  V30 835 H 79.9015 -1.76598 4.25833 0
M  V30 836 H 83.4455 0.375657 6.96588 0
M  V30 837 H 79.3425 -0.728659 6.41374 0
M  V30 838 H 80.1105 0.367186 8.17676 0
M  V30 839 N 82.7736 -1.49793 -0.48987 0
M  V30 840 C 83.7206 -1.67281 -1.59014 0
M  V30 841 C 84.6906 -0.514177 -1.57941 0
M  V30 842 O 85.8756 -0.742533 -1.75759 0
M  V30 843 C 83.0156 -1.75569 -2.97102 0
M  V30 844 C 82.1286 -3.0281 -3.08107 0
M  V30 845 C 81.2636 -3.02008 -4.36995 0
M  V30 846 C 80.3026 -4.23782 -4.41673 0
M  V30 847 N 79.4396 -4.20826 -5.62005 0
M  V30 848 H 84.2796 -2.61224 -1.43409 0
M  V30 849 H 81.8166 -1.29508 -0.697565 0
M  V30 850 H 83.7746 -1.78354 -3.77155 0
M  V30 851 H 82.4046 -0.850827 -3.11385 0
M  V30 852 H 81.4566 -3.09584 -2.21047 0
M  V30 853 H 82.7686 -3.92801 -3.07423 0
M  V30 854 H 81.9226 -3.03418 -5.25378 0
M  V30 855 H 80.6616 -2.09815 -4.4026 0
M  V30 856 H 79.6666 -4.22604 -3.5169 0
M  V30 857 H 80.8916 -5.17181 -4.40115 0
M  V30 858 H 78.8376 -3.31476 -5.66091 0
M  V30 859 H 78.7546 -5.04564 -5.62984 0
M  V30 860 H 80.0226 -4.26355 -6.52565 0
M  V30 861 N 84.2517 0.741722 -1.39055 0
M  V30 862 C 85.1817 1.869 -1.39966 0
M  V30 863 C 86.1627 1.6804 -0.26392 0
M  V30 864 O 87.3477 1.88458 -0.468755 0
M  V30 865 C 84.4777 3.24572 -1.23574 0
M  V30 866 C 83.4317 3.58056 -2.34477 0
M  V30 867 C 82.7577 4.94593 -2.0318 0
M  V30 868 C 84.0577 3.61716 -3.76774 0
M  V30 869 H 85.7517 1.86395 -2.34302 0
M  V30 870 H 83.2977 0.895361 -1.1278 0
M  V30 871 H 85.2507 4.031 -1.22834 0
M  V30 872 H 83.9747 3.25587 -0.257045 0
M  V30 873 H 82.6337 2.81854 -2.34423 0
M  V30 874 H 82.2817 4.92181 -1.03765 0
M  V30 875 H 81.9817 5.17964 -2.77465 0
M  V30 876 H 83.5057 5.75486 -2.04079 0
M  V30 877 H 84.9197 4.30335 -3.78794 0
M  V30 878 H 83.3167 3.96603 -4.50362 0
M  V30 879 H 84.3867 2.61672 -4.08235 0
M  V30 880 N 85.7298 1.2412 0.971189 0
M  V30 881 C 87.1458 1.00584 1.23916 0
M  V30 882 C 87.3458 -0.287481 1.99439 0
M  V30 883 O 86.4018 -1.00454 2.31658 0
M  V30 884 C 87.7148 2.21864 2.0297 0
M  V30 885 C 89.2628 2.26452 2.16076 0
M  V30 886 C 89.7378 3.47343 2.98524 0
M  V30 887 N 91.2288 3.47639 3.06107 0
M  V30 888 C 91.9638 4.37837 3.70251 0
M  V30 889 N 91.4598 5.38286 4.36142 0
M  V30 890 N 93.2528 4.25558 3.67228 0
M  V30 891 H 85.4038 2.07236 0.465499 0
M  V30 892 H 87.6668 0.909236 0.268315 0
M  V30 893 H 87.3728 3.15771 1.54861 0
M  V30 894 H 87.2468 2.23698 3.03709 0
M  V30 895 H 89.6338 1.33078 2.6339 0
M  V30 896 H 89.7148 2.28645 1.14696 0
M  V30 897 H 89.3588 4.41029 2.51905 0
M  V30 898 H 89.2888 3.42393 4.00093 0
M  V30 899 H 91.7798 2.74966 2.59233 0
M  V30 900 H 92.0928 6.03352 4.82894 0
M  V30 901 H 90.4378 5.42176 4.34822 0
M  V30 902 H 93.6288 3.46322 3.14927 0
M  V30 903 H 93.8018 4.96054 4.16935 0
M  V30 904 N 87.2079 -1.17134 1.05439 0
M  V30 905 C 88.4359 -1.91372 0.786414 0
M  V30 906 C 88.8509 -1.76955 -0.658202 0
M  V30 907 O 88.2079 -1.10838 -1.44987 0
M  V30 908 C 88.2589 -3.42356 1.1608 0
M  V30 909 O 87.9799 -3.56332 2.54871 0
M  V30 910 C 89.4809 -4.33663 0.919322 0
M  V30 911 H 86.7009 -0.607118 0.285743 0
M  V30 912 H 89.2449 -1.48525 1.40572 0
M  V30 913 H 87.3999 -3.82939 0.586191 0
M  V30 914 H 87.8139 -4.49896 2.69618 0
M  V30 915 H 89.2879 -5.38099 1.231 0
M  V30 916 H 89.7649 -4.38959 -0.145359 0
M  V30 917 H 90.3709 -3.98796 1.47789 0
M  V30 918 N 88.686 -0.835752 -1.33615 0
M  V30 919 C 89.596 -0.269088 -2.33052 0
M  V30 920 C 90.612 0.603251 -1.63208 0
M  V30 921 O 91.788 0.508112 -1.94885 0
M  V30 922 C 88.853 0.549091 -3.42324 0
M  V30 923 C 87.914 -0.347156 -4.27894 0
M  V30 924 C 87.147 0.43207 -5.31948 0
M  V30 925 O 87.37 1.66409 -5.45586 0
M  V30 926 O 86.304 -0.192298 -6.01593 0
M  V30 927 H 90.13 -1.09243 -2.83372 0
M  V30 928 H 87.715 -0.598198 -1.36901 0
M  V30 929 H 89.597 1.01414 -4.09015 0
M  V30 930 H 88.272 1.34955 -2.94226 0
M  V30 931 H 87.179 -0.859979 -3.64081 0
M  V30 932 H 88.512 -1.1123 -4.79467 0
M  V30 933 N 90.1641 1.46063 -0.591896 0
M  V30 934 C 91.4121 2.01938 -0.0808391 0
M  V30 935 C 91.7331 1.46475 1.28725 0
M  V30 936 O 91.0031 0.652944 1.84698 0
M  V30 937 H 89.5831 0.746516 -0.0268938 0
M  V30 938 H 92.2451 1.79055 -0.769752 0
M  V30 939 H 91.3411 3.12094 -0.0187578 0
M  V30 940 N 91.6422 0.330177 1.54103 0
M  V30 941 C 92.9192 -0.325007 1.92881 0
M  V30 942 C 93.2992 -1.6934 1.26045 0
M  V30 943 O 92.6472 -2.24855 0.406526 0
M  V30 944 C 92.8572 -0.410634 3.46576 0
M  V30 945 C 94.2052 -0.667801 4.19316 0
M  V30 946 O 95.2292 -0.49329 3.52768 0
M  V30 947 O 94.0882 -1.00491 5.37181 0
M  V30 948 H 91.1822 -0.186873 0.80561 0
M  V30 949 H 93.7282 0.380376 1.65382 0
M  V30 950 H 92.5002 0.550164 3.87413 0
M  V30 951 H 92.1232 -1.16333 3.802 0
M  V30 952 N 93.1203 -1.57491 0.0584922 0
M  V30 953 C 94.3683 -1.92597 -0.612436 0
M  V30 954 C 94.6893 -0.938162 -1.70949 0
M  V30 955 O 93.9593 0.0158301 -1.95894 0
M  V30 956 H 92.5393 -0.710964 -0.229214 0
M  V30 957 H 95.2013 -1.94571 0.113218 0
M  V30 958 H 94.2973 -2.94038 -1.04633 0
M  V30 959 N 94.5984 0.214957 -1.56127 0
M  V30 960 C 95.8444 0.939762 -1.79712 0
M  V30 961 C 96.1774 1.83723 -0.629247 0
M  V30 962 O 95.4524 1.90925 0.371197 0
M  V30 963 C 95.7354 1.77306 -3.13424 0
M  V30 964 C 95.5884 0.90164 -4.40671 0
M  V30 965 C 96.9074 2.74956 -3.43638 0
M  V30 966 H 94.0264 0.340214 -0.653776 0
M  V30 967 H 96.6684 0.20824 -1.88855 0
M  V30 968 H 94.8184 2.39673 -3.0576 0
M  V30 969 H 96.4904 0.294206 -4.60361 0
M  V30 970 H 94.7334 0.207368 -4.33304 0
M  V30 971 H 95.4044 1.51923 -5.30682 0
M  V30 972 H 97.8804 2.22724 -3.51473 0
M  V30 973 H 96.7564 3.30358 -4.38355 0
M  V30 974 H 97.0174 3.53023 -2.66134 0
M  V30 975 N 96.0765 1.50051 0.48192 0
M  V30 976 C 97.3065 1.63999 1.2565 0
M  V30 977 C 97.7145 0.318288 1.86504 0
M  V30 978 O 97.0575 -0.708534 1.69486 0
M  V30 979 C 97.1195 2.66504 2.4128 0
M  V30 980 C 96.7835 4.10352 2.01148 0
M  V30 981 C 97.7805 4.96562 1.54021 0
M  V30 982 C 95.4655 4.56203 2.10199 0
M  V30 983 C 97.4595 6.26668 1.16473 0
M  V30 984 C 95.1465 5.86318 1.72264 0
M  V30 985 C 96.1445 6.71375 1.25477 0
M  V30 986 O 95.8325 7.99062 0.880626 0
M  V30 987 H 95.5645 0.55456 0.386574 0
M  V30 988 H 98.1185 1.96954 0.582944 0
M  V30 989 H 96.3485 2.28769 3.11772 0
M  V30 990 H 98.0375 2.69783 3.03268 0
M  V30 991 H 98.8035 4.62358 1.46458 0
M  V30 992 H 94.6825 3.90152 2.45566 0
M  V30 993 H 98.2265 6.93011 0.798841 0
M  V30 994 H 94.1235 6.20046 1.79482 0
M  V30 995 H 94.8915 8.12239 1.01043 0
M  V30 996 N 97.5546 -0.734337 1.39446 0
M  V30 997 C 98.7826 -1.52358 1.39981 0
M  V30 998 C 99.1976 -1.88799 -0.0054975 0
M  V30 999 O 98.5546 -1.54146 -0.976998 0
M  V30 1000 C 98.6056 -2.81072 2.27333 0
M  V30 1001 O 98.3266 -2.46178 3.62392 0
M  V30 1002 C 99.8276 -3.75096 2.36259 0
M  V30 1003 H 97.0476 -0.470806 0.478103 0
M  V30 1004 H 99.5916 -0.907339 1.83269 0
M  V30 1005 H 97.7466 -3.39026 1.87457 0
M  V30 1006 H 98.1606 -3.28866 4.08592 0
M  V30 1007 H 99.6346 -4.62305 3.01626 0
M  V30 1008 H 100.112 -4.16892 1.38194 0
M  V30 1009 H 100.718 -3.23061 2.76608 0
M  V30 1010 N 99.0327 -1.24633 -0.964593 0
M  V30 1011 C 99.9627 -1.06611 -2.07741 0
M  V30 1012 C 100.944 0.0218666 -1.70086 0
M  V30 1013 O 102.129 -0.145793 -1.93652 0
M  V30 1014 C 99.2587 -0.673444 -3.40708 0
M  V30 1015 C 98.2127 -1.71054 -3.92332 0
M  V30 1016 C 97.5387 -1.17285 -5.21678 0
M  V30 1017 C 98.8387 -3.10718 -4.19824 0
M  V30 1018 H 100.533 -1.99693 -2.23076 0
M  V30 1019 H 98.0787 -0.96152 -1.07195 0
M  V30 1020 H 100.032 -0.534345 -4.17998 0
M  V30 1021 H 98.7557 0.293073 -3.25282 0
M  V30 1022 H 97.4147 -1.83791 -3.17201 0
M  V30 1023 H 97.0627 -0.196847 -5.02615 0
M  V30 1024 H 96.7627 -1.86592 -5.57187 0
M  V30 1025 H 98.2867 -1.04593 -6.01575 0
M  V30 1026 H 99.7007 -3.01192 -4.87808 0
M  V30 1027 H 98.0977 -3.77406 -4.66567 0
M  V30 1028 H 99.1677 -3.58524 -3.26479 0
M  V30 1029 N 100.511 1.16574 -1.06058 0
M  V30 1030 C 101.459 2.22941 -0.663343 0
M  V30 1031 C 102.453 1.66358 0.319593 0
M  V30 1032 O 103.659 1.7905 0.184713 0
M  V30 1033 H 100.034 0.725907 -0.196376 0
M  V30 1034 H 102.005 2.53736 -1.57037 0
M  V30 1035 C 100.754 3.47642 -0.0632808 0
M  V30 1036 H 100.077 3.91493 -0.810733 0
M  V30 1037 H 101.517 4.2363 0.177177 0
M  V30 1038 C 99.9758 3.1509 1.19248 0
M  V30 1039 O 100.506 3.30673 2.28075 0
M  V30 1040 N 98.7118 2.6924 1.09353 0
M  V30 1041 H 98.2588 2.5676 0.207912 0
M  V30 1042 H 98.2168 2.47833 1.93458 0
M  V30 1043 N 101.989 0.842826 1.3317 0
M  V30 1044 C 103.266 0.362216 1.92217 0
M  V30 1045 C 103.646 -1.15289 1.76838 0
M  V30 1046 O 102.994 -1.96914 1.15919 0
M  V30 1047 C 103.204 0.813495 3.39387 0
M  V30 1048 C 104.552 0.823804 4.16532 0
M  V30 1049 O 105.576 0.757358 3.48055 0
M  V30 1050 O 104.435 0.915193 5.38782 0
M  V30 1051 H 101.529 0.103317 0.820521 0
M  V30 1052 H 104.075 0.928942 1.42017 0
M  V30 1053 H 102.847 1.85624 3.4447 0
M  V30 1054 H 102.47 0.223561 3.96971 0
M  V30 1055 N 103.467 -1.45747 0.599634 0
M  V30 1056 C 104.414 -2.30467 -0.123849 0
M  V30 1057 C 105.384 -1.41632 -0.86774 0
M  V30 1058 O 106.569 -1.70568 -0.855056 0
M  V30 1059 C 103.709 -3.26402 -1.12051 0
M  V30 1060 C 102.822 -4.3034 -0.37832 0
M  V30 1061 C 101.957 -5.13389 -1.364 0
M  V30 1062 C 100.996 -6.09061 -0.609171 0
M  V30 1063 N 100.133 -6.84918 -1.54374 0
M  V30 1064 H 104.973 -2.91802 0.604627 0
M  V30 1065 H 102.51 -1.43797 0.309972 0
M  V30 1066 H 104.468 -3.80482 -1.7114 0
M  V30 1067 H 103.098 -2.66839 -1.8165 0
M  V30 1068 H 102.15 -3.78984 0.327929 0
M  V30 1069 H 103.462 -4.98354 0.210997 0
M  V30 1070 H 102.616 -5.7183 -2.02719 0
M  V30 1071 H 101.355 -4.45376 -1.98725 0
M  V30 1072 H 100.36 -5.49758 0.0676979 0
M  V30 1073 H 101.585 -6.79099 0.00891991 0
M  V30 1074 H 99.531 -6.19601 -2.15478 0
M  V30 1075 H 99.448 -7.49254 -1.00766 0
M  V30 1076 H 100.716 -7.47906 -2.19676 0
M  V30 1077 N 104.945 -0.338344 -1.53925 0
M  V30 1078 C 105.892 0.520845 -2.24846 0
M  V30 1079 C 106.862 1.09976 -1.24477 0
M  V30 1080 O 108.047 1.13735 -1.53196 0
M  V30 1081 C 105.187 1.6685 -3.02084 0
M  V30 1082 C 104.3 1.11739 -4.17299 0
M  V30 1083 C 103.435 2.23193 -4.82036 0
M  V30 1084 C 102.474 1.65407 -5.89328 0
M  V30 1085 N 101.611 2.70582 -6.47866 0
M  V30 1086 H 106.451 -0.0904881 -2.97863 0
M  V30 1087 H 103.988 -0.0564282 -1.46992 0
M  V30 1088 H 105.946 2.34407 -3.45122 0
M  V30 1089 H 104.576 2.2509 -2.31375 0
M  V30 1090 H 103.628 0.332919 -3.7894 0
M  V30 1091 H 104.94 0.654677 -4.94485 0
M  V30 1092 H 104.094 2.98626 -5.28117 0
M  V30 1093 H 102.833 2.72807 -4.04262 0
M  V30 1094 H 101.838 0.884779 -5.42634 0
M  V30 1095 H 103.063 1.16652 -6.69006 0
M  V30 1096 H 101.009 3.1946 -5.72959 0
M  V30 1097 H 100.926 2.28917 -7.20509 0
M  V30 1098 H 102.194 3.45799 -6.98601 0
M  V30 1099 N 106.423 1.57458 -0.0668435 0
M  V30 1100 C 107.355 2.09413 0.931601 0
M  V30 1101 C 108.368 1.02522 1.26464 0
M  V30 1102 O 109.557 1.30049 1.22269 0
M  V30 1103 C 106.657 2.53537 2.24882 0
M  V30 1104 C 105.83 3.83944 2.09537 0
M  V30 1105 C 104.889 4.14214 3.2452 0
M  V30 1106 O 103.915 4.83891 2.9973 0
M  V30 1107 N 105.117 3.67367 4.49469 0
M  V30 1108 H 107.882 2.95699 0.488048 0
M  V30 1109 H 105.443 1.61462 0.119009 0
M  V30 1110 H 107.435 2.70853 3.00701 0
M  V30 1111 H 106.005 1.72415 2.60753 0
M  V30 1112 H 105.225 3.76057 1.18215 0
M  V30 1113 H 106.513 4.69312 1.96529 0
M  V30 1114 H 105.911 3.11068 4.72497 0
M  V30 1115 H 104.468 3.89891 5.2233 0
M  V30 1116 N 107.901 -0.206675 1.56239 0
M  V30 1117 C 109.147 -0.925733 1.81113 0
M  V30 1118 C 109.502 -1.81368 0.642135 0
M  V30 1119 O 108.795 -1.88126 -0.363211 0
M  V30 1120 C 108.989 -1.78675 3.09532 0
M  V30 1121 C 108.818 -0.98365 4.3881 0
M  V30 1122 C 107.588 -0.672661 5.00803 0
M  V30 1123 C 109.786 -0.341847 5.13163 0
M  V30 1124 N 107.768 0.150283 6.13716 0
M  V30 1125 C 109.139 0.343815 6.19046 0
M  V30 1126 C 111.194 -0.256392 4.97239 0
M  V30 1127 C 109.897 1.10678 7.10734 0
M  V30 1128 C 111.923 0.493142 5.8934 0
M  V30 1129 C 111.285 1.16729 6.94661 0
M  V30 1130 H 107.384 -0.318524 0.714189 0
M  V30 1131 H 109.968 -0.195378 1.93717 0
M  V30 1132 H 108.139 -2.4888 2.98183 0
M  V30 1133 H 109.871 -2.44441 3.22538 0
M  V30 1134 H 106.626 -0.994294 4.63045 0
M  V30 1135 H 107.05 0.551026 6.74754 0
M  V30 1136 H 111.692 -0.763249 4.15854 0
M  V30 1137 H 109.41 1.6251 7.91591 0
M  V30 1138 H 112.996 0.560465 5.79094 0
M  V30 1139 H 111.876 1.738 7.64698 0
M  V30 1140 N 109.379 -1.50304 -0.473955 0
M  V30 1141 C 110.628 -1.60392 -1.22301 0
M  V30 1142 C 110.941 -0.308411 -1.93153 0
M  V30 1143 O 112.147 -0.288156 -2.69966 0
M  V30 1144 C 110.603 -2.83109 -2.2221 0
M  V30 1145 C 110.211 -4.19524 -1.57173 0
M  V30 1146 C 111.955 -3.0254 -2.97775 0
M  V30 1147 C 109.862 -5.33431 -2.55353 0
M  V30 1148 H 108.792 -0.597286 -0.460179 0
M  V30 1149 H 111.443 -1.76731 -0.493803 0
M  V30 1150 H 109.825 -2.60322 -2.9841 0
M  V30 1151 H 110.999 -4.52554 -0.867824 0
M  V30 1152 H 109.314 -4.05674 -0.939002 0
M  V30 1153 H 111.911 -3.84811 -3.71248 0
M  V30 1154 H 112.254 -2.14154 -3.56992 0
M  V30 1155 H 112.787 -3.25494 -2.28688 0
M  V30 1156 H 109.526 -6.23962 -2.00878 0
M  V30 1157 H 109.046 -5.04823 -3.23904 0
M  V30 1158 H 110.725 -5.63887 -3.17239 0
M  V30 1159 N 110.857 0.726932 -1.39834 0
M  V30 1160 C 111.805 1.86235 -1.39353 0
M  V30 1161 C 112.799 1.67144 -0.275555 0
M  V30 1162 O 114.005 1.74387 -0.44601 0
M  V30 1163 H 110.38 0.613174 -0.43534 0
M  V30 1164 H 112.351 1.83756 -2.35109 0
M  V30 1165 C 111.1 3.23995 -1.26185 0
M  V30 1166 H 110.423 3.39285 -2.11484 0
M  V30 1167 H 111.863 4.03609 -1.29907 0
M  V30 1168 C 110.322 3.36888 0.0290018 0
M  V30 1169 O 110.852 3.89152 0.99619 0
M  V30 1170 N 109.058 2.90446 0.0947437 0
M  V30 1171 H 108.605 2.48102 -0.693035 0
M  V30 1172 H 108.563 2.99451 0.957932 0
M  V30 1173 N 112.336 1.25143 0.95797 0
M  V30 1174 C 113.283 1.05235 2.05412 0
M  V30 1175 C 114.253 -0.0374561 1.66058 0
M  V30 1176 O 115.438 0.119073 1.90428 0
M  V30 1177 C 112.578 0.673589 3.38462 0
M  V30 1178 C 111.691 1.8379 3.90954 0
M  V30 1179 C 110.826 1.40381 5.12315 0
M  V30 1180 C 109.865 2.53746 5.57027 0
M  V30 1181 N 109.002 2.11136 6.69601 0
M  V30 1182 H 113.842 1.99048 2.21774 0
M  V30 1183 H 111.379 0.991277 1.08683 0
M  V30 1184 H 113.337 0.434964 4.14926 0
M  V30 1185 H 111.967 -0.227554 3.21997 0
M  V30 1186 H 111.019 2.18992 3.11041 0
M  V30 1187 H 112.331 2.68937 4.20089 0
M  V30 1188 H 111.485 1.12464 5.96185 0
M  V30 1189 H 110.224 0.523015 4.84887 0
M  V30 1190 H 109.229 2.82412 4.71724 0
M  V30 1191 H 110.454 3.42398 5.86464 0
M  V30 1192 H 108.4 1.25468 6.4389 0
M  V30 1193 H 108.317 2.89832 6.98236 0
M  V30 1194 H 109.585 1.86385 7.56889 0
M  V30 1195 N 113.814 -1.1601 1.06675 0
M  V30 1196 C 114.777 -2.18724 0.685001 0
M  V30 1197 C 115.777 -1.58496 -0.271246 0
M  V30 1198 O 116.967 -1.74119 -0.0531156 0
M  V30 1199 C 114.099 -3.40899 0.00853648 0
M  V30 1200 H 115.292 -2.54011 1.59431 0
M  V30 1201 H 112.845 -1.30352 0.862441 0
M  V30 1202 H 113.58 -3.11173 -0.913337 0
M  V30 1203 H 113.365 -3.8587 0.696204 0
M  V30 1204 H 114.855 -4.16886 -0.24414 0
M  V30 1205 N 115.292 -0.849877 -1.32721 0
M  V30 1206 C 116.538 -0.451591 -1.97708 0
M  V30 1207 C 116.871 0.989175 -1.6712 0
M  V30 1208 O 116.146 1.69334 -0.956891 0
M  V30 1209 C 116.429 -0.685598 -3.53513 0
M  V30 1210 C 116.282 -2.17444 -3.93749 0
M  V30 1211 C 117.601 -0.138874 -4.39881 0
M  V30 1212 H 114.72 -0.16555 -0.718166 0
M  V30 1213 H 117.362 -1.06742 -1.57182 0
M  V30 1214 H 115.512 -0.161416 -3.88165 0
M  V30 1215 H 117.184 -2.76433 -3.693 0
M  V30 1216 H 115.427 -2.65476 -3.43081 0
M  V30 1217 H 116.098 -2.28888 -5.02309 0
M  V30 1218 H 118.574 -0.587068 -4.11938 0
M  V30 1219 H 117.45 -0.332213 -5.47894 0
M  V30 1220 H 117.711 0.95806 -4.31594 0
M  V30 1221 N 116.77 1.45427 -0.607355 0
M  V30 1222 C 118.018 2.01841 -0.102253 0
M  V30 1223 C 118.339 1.47832 1.27164 0
M  V30 1224 O 117.609 0.672497 1.83995 0
M  V30 1225 H 116.189 0.746188 -0.0348101 0
M  V30 1226 H 118.851 1.78229 -0.7887 0
M  V30 1227 H 117.947 3.12057 -0.0518585 0
M  V30 1228 N 118.248 0.346503 1.53744 0
M  V30 1229 C 119.525 -0.304532 1.93215 0
M  V30 1230 C 119.905 -1.67993 1.27834 0
M  V30 1231 O 119.253 -2.24411 0.430352 0
M  V30 1232 C 119.463 -0.373852 3.46992 0
M  V30 1233 C 120.811 -0.62329 4.2 0
M  V30 1234 O 121.835 -0.455847 3.53271 0
M  V30 1235 O 120.694 -0.947879 5.38217 0
M  V30 1236 H 117.788 -0.178318 0.807547 0
M  V30 1237 H 120.334 0.397895 1.64969 0
M  V30 1238 H 119.106 0.591224 3.86808 0
M  V30 1239 H 118.729 -1.12294 3.81413 0
M  V30 1240 N 119.726 -1.57421 0.075193 0
M  V30 1241 C 120.673 -2.12915 -0.890843 0
M  V30 1242 C 121.643 -1.04252 -1.29309 0
M  V30 1243 O 122.828 -1.31933 -1.37834 0
M  V30 1244 C 119.968 -2.69795 -2.15186 0
M  V30 1245 C 119.081 -3.92624 -1.80194 0
M  V30 1246 C 118.216 -4.37736 -3.00933 0
M  V30 1247 C 117.255 -5.53205 -2.61974 0
M  V30 1248 N 116.392 -5.9326 -3.75483 0
M  V30 1249 H 121.232 -2.95156 -0.410735 0
M  V30 1250 H 118.769 -1.45854 -0.191086 0
M  V30 1251 H 120.727 -3.00883 -2.89008 0
M  V30 1252 H 119.357 -1.90313 -2.60731 0
M  V30 1253 H 118.409 -3.67977 -0.964218 0
M  V30 1254 H 119.721 -4.76482 -1.47534 0
M  V30 1255 H 118.875 -4.70503 -3.8303 0
M  V30 1256 H 117.614 -3.52739 -3.36789 0
M  V30 1257 H 116.619 -5.20086 -1.783 0
M  V30 1258 H 117.844 -6.39936 -2.27284 0
M  V30 1259 H 115.79 -5.11212 -4.11094 0
M  V30 1260 H 115.707 -6.71865 -3.46602 0
M  V30 1261 H 116.975 -6.30651 -4.58148 0
M  V30 1262 N 121.204 0.198386 -1.56346 0
M  V30 1263 C 122.134 1.24865 -1.9731 0
M  V30 1264 C 123.115 1.47651 -0.844576 0
M  V30 1265 O 124.3 1.59444 -1.10866 0
M  V30 1266 C 121.43 2.59358 -2.30977 0
M  V30 1267 C 120.384 2.5119 -3.46537 0
M  V30 1268 C 119.71 3.89926 -3.65871 0
M  V30 1269 C 121.01 2.03977 -4.80823 0
M  V30 1270 H 122.704 0.908252 -2.85291 0
M  V30 1271 H 120.25 0.435462 -1.37258 0
M  V30 1272 H 122.203 3.33011 -2.58228 0
M  V30 1273 H 120.927 2.95132 -1.39874 0
M  V30 1274 H 119.586 1.79993 -3.19371 0
M  V30 1275 H 119.234 4.23046 -2.72105 0
M  V30 1276 H 118.934 3.85336 -4.4361 0
M  V30 1277 H 120.458 4.65205 -3.95495 0
M  V30 1278 H 121.872 2.67386 -5.07127 0
M  V30 1279 H 120.269 2.10397 -5.62008 0
M  V30 1280 H 121.339 0.992861 -4.74626 0
M  V30 1281 N 122.682 1.50554 0.465978 0
M  V30 1282 C 124.093 1.54599 1.04671 0
M  V30 1283 C 124.444 0.352488 1.93008 0
M  V30 1284 O 123.569 -0.534044 2.09707 0
M  V30 1285 C 124.164 2.80166 1.90505 0
M  V30 1286 C 122.723 2.86876 2.43678 0
M  V30 1287 C 121.87 2.48947 1.22151 0
M  V30 1288 H 124.821 1.56744 0.248384 0
M  V30 1289 H 124.842 2.62311 2.75633 0
M  V30 1290 H 124.354 3.67013 1.26186 0
M  V30 1291 H 122.455 2.04393 3.11536 0
M  V30 1292 H 122.568 3.89885 2.78436 0
M  V30 1293 H 120.932 2.01498 1.5579 0
M  V30 1294 H 121.715 3.38107 0.594866 0
M  V30 1295 N 124.16 -0.719506 1.40217 0
M  V30 1296 C 125.07 -1.86378 1.42479 0
M  V30 1297 C 126.086 -1.71073 0.317834 0
M  V30 1298 O 127.262 -1.93406 0.561794 0
M  V30 1299 C 124.327 -3.22136 1.28178 0
M  V30 1300 C 123.388 -3.49723 2.48982 0
M  V30 1301 C 122.621 -4.79004 2.35353 0
M  V30 1302 O 122.844 -5.53821 1.36524 0
M  V30 1303 O 121.778 -5.06839 3.2465 0
M  V30 1304 H 125.604 -1.87425 2.38968 0
M  V30 1305 H 123.189 -0.869405 1.21498 0
M  V30 1306 H 125.071 -4.03234 1.22395 0
M  V30 1307 H 123.746 -3.21825 0.347934 0
M  V30 1308 H 122.653 -2.6865 2.60342 0
M  V30 1309 H 123.986 -3.54828 3.41113 0
M  V30 1310 N 125.638 -1.25649 -0.95132 0
M  V30 1311 C 126.878 -1.11802 -1.71113 0
M  V30 1312 C 127.242 0.334758 -1.89059 0
M  V30 1313 O 128.443 0.595121 -2.62129 0
M  V30 1314 C 126.714 -1.85512 -3.05483 0
M  V30 1315 S 128.273 -1.87597 -3.96677 0
M  V30 1316 H 125.091 -0.399552 -0.588115 0
M  V30 1317 H 127.693 -1.59222 -1.1344 0
M  V30 1318 H 126.397 -2.90299 -2.90094 0
M  V30 1319 H 125.928 -1.38493 -3.68216 0
M  V30 1320 H 127.943 -0.955389 -4.86916 0
M  V30 1321 N 127.117 1.15442 -1.07289 0
M  V30 1322 C 128.027 2.23786 -0.704057 0
M  V30 1323 C 129.043 1.7166 0.284413 0
M  V30 1324 O 130.219 2.00972 0.131205 0
M  V30 1325 C 127.284 3.46535 -0.106792 0
M  V30 1326 C 126.345 4.13654 -1.14842 0
M  V30 1327 C 125.578 5.30544 -0.57956 0
M  V30 1328 O 125.801 5.67187 0.604585 0
M  V30 1329 O 124.735 5.87154 -1.32414 0
M  V30 1330 H 128.561 2.57664 -1.60757 0
M  V30 1331 H 126.146 1.23152 -0.845803 0
M  V30 1332 H 128.028 4.20804 0.224048 0
M  V30 1333 H 126.703 3.14407 0.770049 0
M  V30 1334 H 125.61 3.4131 -1.5316 0
M  V30 1335 H 126.943 4.49861 -1.99714 0
M  V30 1336 N 128.595 0.856903 1.32268 0
M  V30 1337 C 129.558 0.308171 2.27119 0
M  V30 1338 C 130.558 -0.533421 1.51695 0
M  V30 1339 O 131.748 -0.344607 1.70757 0
M  V30 1340 C 128.88 -0.563757 3.36206 0
M  V30 1341 H 130.073 1.14535 2.77167 0
M  V30 1342 H 127.626 0.631421 1.42978 0
M  V30 1343 H 128.361 -1.42266 2.91429 0
M  V30 1344 H 128.146 0.0386749 3.92081 0
M  V30 1345 H 129.636 -0.940386 4.06874 0
M  V30 1346 N 130.073 -1.45103 0.615059 0
M  V30 1347 C 131.35 -1.95549 0.0448276 0
M  V30 1348 C 131.73 -1.55737 -1.4251 0
M  V30 1349 O 131.078 -0.823556 -2.13143 0
M  V30 1350 C 131.288 -3.48098 0.250785 0
M  V30 1351 C 132.636 -4.24384 0.135509 0
M  V30 1352 O 133.66 -3.55738 0.181299 0
M  V30 1353 O 132.519 -5.46493 0.0268878 0
M  V30 1354 H 129.613 -0.8264 -0.0314845 0
M  V30 1355 H 132.159 -1.55232 0.685642 0
M  V30 1356 H 130.931 -3.7007 1.27139 0
M  V30 1357 H 130.554 -3.95323 -0.424937 0
M  V30 1358 N 131.551 -0.354651 -1.53558 0
M  V30 1359 C 132.828 0.294281 -1.93374 0
M  V30 1360 C 133.208 1.67313 -1.28723 0
M  V30 1361 O 132.556 2.24179 -0.442247 0
M  V30 1362 C 132.766 0.355445 -3.47185 0
M  V30 1363 C 134.114 0.601007 -4.20325 0
M  V30 1364 O 135.138 0.437106 -3.53508 0
M  V30 1365 O 133.997 0.919322 -5.38712 0
M  V30 1366 H 131.091 0.174033 -0.808481 0
M  V30 1367 H 133.637 -0.406638 -1.64756 0
M  V30 1368 H 132.409 -0.611729 -3.86489 0
M  V30 1369 H 132.032 1.1027 -3.82003 0
M  V30 1370 N 133.029 1.57378 -0.0835403 0
M  V30 1371 C 134.277 1.93547 0.581718 0
M  V30 1372 C 134.598 0.96524 1.69435 0
M  V30 1373 O 133.868 0.0153369 1.95894 0
M  V30 1374 H 132.448 0.714521 0.217874 0
M  V30 1375 H 135.11 1.94366 -0.144158 0
M  V30 1376 H 134.206 2.95665 0.999423 0
M  V30 1377 N 134.507 -0.190092 1.56449 0
M  V30 1378 C 135.747 -0.916414 1.82705 0
M  V30 1379 C 136.111 -1.80235 0.661763 0
M  V30 1380 O 137.312 -2.56484 0.80433 0
M  V30 1381 C 135.583 -1.70691 3.14005 0
M  V30 1382 S 137.142 -2.48457 3.61683 0
M  V30 1383 H 133.96 -0.307281 0.64117 0
M  V30 1384 H 136.562 -0.179433 1.94675 0
M  V30 1385 H 135.266 -1.04677 3.96826 0
M  V30 1386 H 134.797 -2.48562 3.04927 0
M  V30 1387 H 136.812 -3.72756 3.27517 0
M  V30 1388 N 135.985 -1.50799 -0.457987 0
M  V30 1389 C 137.396 -1.55152 -1.0385 0
M  V30 1390 C 137.747 -0.362719 -1.92818 0
M  V30 1391 O 136.872 0.522915 -2.09987 0
M  V30 1392 C 137.467 -2.81173 -1.89017 0
M  V30 1393 C 136.026 -2.88164 -2.42154 0
M  V30 1394 C 135.173 -2.49591 -1.20829 0
M  V30 1395 H 138.124 -1.56874 -0.240068 0
M  V30 1396 H 138.145 -2.63769 -2.74238 0
M  V30 1397 H 137.657 -3.67677 -1.24238 0
M  V30 1398 H 135.758 -2.06042 -3.10447 0
M  V30 1399 H 135.871 -3.91356 -2.76364 0
M  V30 1400 H 134.235 -2.02322 -1.54719 0
M  V30 1401 H 135.018 -3.38418 -0.576927 0
M  V30 1402 N 137.463 0.71206 -1.40597 0
M  V30 1403 C 138.41 1.82613 -1.41142 0
M  V30 1404 C 139.38 1.63925 -0.267903 0
M  V30 1405 O 140.565 1.85009 -0.466495 0
M  V30 1406 C 137.705 3.20354 -1.28324 0
M  V30 1407 C 136.818 3.50589 -2.52411 0
M  V30 1408 C 135.953 4.77855 -2.32009 0
M  V30 1409 C 134.992 5.01005 -3.51654 0
M  V30 1410 N 134.129 6.19487 -3.30425 0
M  V30 1411 H 138.969 1.81482 -2.36365 0
M  V30 1412 H 136.506 0.886475 -1.17388 0
M  V30 1413 H 138.464 3.99899 -1.18899 0
M  V30 1414 H 137.094 3.20705 -0.367189 0
M  V30 1415 H 136.146 2.65573 -2.72351 0
M  V30 1416 H 137.458 3.63604 -3.41458 0
M  V30 1417 H 136.612 5.65424 -2.19956 0
M  V30 1418 H 135.351 4.67056 -1.40392 0
M  V30 1419 H 134.356 4.1189 -3.64179 0
M  V30 1420 H 135.581 5.13674 -4.44202 0
M  V30 1421 H 133.527 6.09932 -2.41494 0
M  V30 1422 H 133.444 6.33194 -4.13039 0
M  V30 1423 H 134.712 7.09834 -3.22113 0
M  V30 1424 N 138.941 1.26152 0.944643 0
M  V30 1425 C 140.352 1.10454 1.50522 0
M  V30 1426 C 140.703 -0.31635 1.93633 0
M  V30 1427 O 139.828 -1.20746 1.79581 0
M  V30 1428 C 140.423 1.99891 2.73549 0
M  V30 1429 C 138.982 1.88348 3.25886 0
M  V30 1430 C 138.129 1.93447 1.9868 0
M  V30 1431 H 141.08 1.39292 0.760489 0
M  V30 1432 H 141.101 1.54477 3.47732 0
M  V30 1433 H 140.613 3.03297 2.42141 0
M  V30 1434 H 138.714 0.878636 3.62092 0
M  V30 1435 H 138.827 2.73696 3.93227 0
M  V30 1436 H 137.191 1.37456 2.14425 0
M  V30 1437 H 137.974 2.98476 1.69607 0
M  V30 1438 N 140.419 -1.14872 1.07899 0
M  V30 1439 C 141.83 -1.67367 0.827363 0
M  V30 1440 C 142.181 -1.85236 -0.646693 0
M  V30 1441 O 141.306 -1.55974 -1.50004 0
M  V30 1442 C 141.901 -3.04016 1.49532 0
M  V30 1443 C 140.46 -3.53566 1.29106 0
M  V30 1444 C 139.607 -2.29161 1.56143 0
M  V30 1445 H 142.558 -0.990083 1.24028 0
M  V30 1446 H 142.579 -3.69219 0.919643 0
M  V30 1447 H 142.091 -2.90978 2.56814 0
M  V30 1448 H 140.192 -3.71835 0.238713 0
M  V30 1449 H 140.305 -4.34661 2.01511 0
M  V30 1450 H 138.669 -2.34978 0.982717 0
M  V30 1451 H 139.452 -2.18705 2.64619 0
M  V30 1452 N 141.898 -0.863906 -1.31812 0
M  V30 1453 C 142.808 -0.318461 -2.32428 0
M  V30 1454 C 143.824 0.568496 -1.64451 0
M  V30 1455 O 145 0.46666 -1.95919 0
M  V30 1456 C 142.065 0.476355 -3.43412 0
M  V30 1457 C 141.126 -0.43784 -4.27061 0
M  V30 1458 C 140.359 0.319138 -5.32745 0
M  V30 1459 O 140.582 1.54799 -5.48993 0
M  V30 1460 O 139.516 -0.319861 -6.01049 0
M  V30 1461 H 143.342 -1.15229 -2.80991 0
M  V30 1462 H 140.927 -0.627103 -1.35602 0
M  V30 1463 H 142.809 0.927156 -4.11074 0
M  V30 1464 H 141.484 1.28683 -2.97022 0
M  V30 1465 H 140.391 -0.937013 -3.62175 0
M  V30 1466 H 141.724 -1.21375 -4.77 0
M  V30 1467 N 143.376 1.44774 -0.622745 0
M  V30 1468 C 144.625 2.01334 -0.121397 0
M  V30 1469 C 144.938 1.49505 1.26125 0
M  V30 1470 O 146.144 1.98139 1.85616 0
M  V30 1471 C 144.6 3.59516 -0.166298 0
M  V30 1472 C 144.208 4.20342 -1.54974 0
M  V30 1473 C 145.952 4.23582 0.279021 0
M  V30 1474 C 143.859 5.70721 -1.55021 0
M  V30 1475 H 142.789 0.752851 -0.0416172 0
M  V30 1476 H 145.44 1.66083 -0.780309 0
M  V30 1477 H 143.822 3.92027 0.559557 0
M  V30 1478 H 144.996 3.99381 -2.29851 0
M  V30 1479 H 143.311 3.68529 -1.93843 0
M  V30 1480 H 145.908 5.33868 0.298083 0
M  V30 1481 H 146.251 3.95327 1.30471 0
M  V30 1482 H 146.784 3.95843 -0.394063 0
M  V30 1483 H 143.523 6.03698 -2.55399 0
M  V30 1484 H 143.043 5.93829 -0.844245 0
M  V30 1485 H 144.722 6.34203 -1.28047 0
M  V30 1486 N 144.854 0.36279 1.53368 0
M  V30 1487 C 145.817 -0.472679 2.24273 0
M  V30 1488 C 146.817 -1.012 1.24961 0
M  V30 1489 O 148.007 -0.898194 1.49259 0
M  V30 1490 C 145.139 -1.66039 2.97731 0
M  V30 1491 H 146.332 0.14773 2.99536 0
M  V30 1492 H 143.885 0.114434 1.55881 0
M  V30 1493 H 144.62 -2.31896 2.26704 0
M  V30 1494 H 144.405 -1.28066 3.70596 0
M  V30 1495 H 145.895 -2.25252 3.51641 0
M  V30 1496 N 146.332 -1.57332 0.0918853 0
M  V30 1497 C 147.282 -2.10385 -0.87876 0
M  V30 1498 C 148.266 -1.01814 -1.24591 0
M  V30 1499 O 149.458 -1.28093 -1.22152 0
M  V30 1500 C 146.587 -2.68517 -2.13901 0
M  V30 1501 C 145.673 -3.84126 -1.79744 0
M  V30 1502 N 146.064 -4.92288 -1.1613 0
M  V30 1503 C 144.362 -3.93801 -2.09373 0
M  V30 1504 C 145.063 -5.7295 -1.00513 0
M  V30 1505 N 144.039 -5.21876 -1.5214 0
M  V30 1506 H 147.841 -2.91395 -0.38293 0
M  V30 1507 H 145.355 -1.62017 -0.111423 0
M  V30 1508 H 147.352 -3.04852 -2.84378 0
M  V30 1509 H 146.012 -1.88961 -2.64053 0
M  V30 1510 H 147.023 -5.1123 -0.828504 0
M  V30 1511 H 143.7 -3.25249 -2.61762 0
M  V30 1512 H 145.09 -6.69978 -0.507902 0
M  V30 1513 N 147.81 0.181792 -1.56548 0
M  V30 1514 C 149.058 0.89832 -1.81038 0
M  V30 1515 C 149.379 1.83232 -0.667164 0
M  V30 1516 O 148.649 1.93372 0.313673 0
M  V30 1517 H 147.229 0.33471 -0.667816 0
M  V30 1518 H 149.891 0.184116 -1.94028 0
M  V30 1519 H 148.987 1.4815 -2.74696 0
M  V30 1520 N 149.288 1.51039 0.449983 0
M  V30 1521 C 150.518 1.66627 1.22143 0
M  V30 1522 C 150.926 0.357776 1.85786 0
M  V30 1523 O 150.269 -0.672424 1.70951 0
M  V30 1524 C 150.331 2.71562 2.35573 0
M  V30 1525 C 149.995 4.14526 1.92399 0
M  V30 1526 C 150.992 4.99717 1.43453 0
M  V30 1527 C 148.677 4.60559 2.00475 0
M  V30 1528 C 150.671 6.28998 1.03155 0
M  V30 1529 C 148.358 5.8984 1.59788 0
M  V30 1530 C 149.356 6.73886 1.11208 0
M  V30 1531 O 149.044 8.0075 0.710935 0
M  V30 1532 H 148.776 0.562635 0.374724 0
M  V30 1533 H 151.33 1.98146 0.541036 0
M  V30 1534 H 149.56 2.3533 3.06849 0
M  V30 1535 H 151.249 2.76156 2.97478 0
M  V30 1536 H 152.015 4.65361 1.36618 0
M  V30 1537 H 147.894 3.95273 2.37235 0
M  V30 1538 H 151.438 6.9455 0.651663 0
M  V30 1539 H 147.335 6.23713 1.66289 0
M  V30 1540 H 148.103 8.142 0.837913 0
M  V30 1541 N 150.766 -0.704594 1.40972 0
M  V30 1542 C 152.012 -1.46675 1.40051 0
M  V30 1543 C 152.345 -1.94199 0.00641102 0
M  V30 1544 O 151.62 -1.68916 -0.964235 0
M  V30 1545 C 151.903 -2.68505 2.39952 0
M  V30 1546 C 151.756 -2.26805 3.88432 0
M  V30 1547 C 153.075 -3.70686 2.37233 0
M  V30 1548 H 150.194 -0.532015 0.510028 0
M  V30 1549 H 152.836 -0.803255 1.72185 0
M  V30 1550 H 150.986 -3.25114 2.1268 0
M  V30 1551 H 152.658 -1.75592 4.26574 0
M  V30 1552 H 150.901 -1.58685 4.03734 0
M  V30 1553 H 151.572 -3.14181 4.53866 0
M  V30 1554 H 154.048 -3.23731 2.61415 0
M  V30 1555 H 152.924 -4.53553 3.09162 0
M  V30 1556 H 153.185 -4.19754 1.38777 0
M  V30 1557 N 152.244 -1.26651 -0.937939 0
M  V30 1558 C 153.154 -1.10276 -2.07066 0
M  V30 1559 C 154.17 -0.0354197 -1.73964 0
M  V30 1560 O 155.346 -0.239816 -1.99967 0
M  V30 1561 C 152.411 -0.740887 -3.38691 0
M  V30 1562 C 151.472 -1.88799 -3.85556 0
M  V30 1563 C 150.705 -1.54329 -5.10899 0
M  V30 1564 O 150.928 -0.446494 -5.6865 0
M  V30 1565 O 149.862 -2.37911 -5.52885 0
M  V30 1566 H 153.688 -2.05309 -2.23789 0
M  V30 1567 H 151.273 -1.05743 -1.0554 0
M  V30 1568 H 153.155 -0.55195 -4.1777 0
M  V30 1569 H 151.83 0.180022 -3.23199 0
M  V30 1570 H 150.737 -2.13191 -3.07409 0
M  V30 1571 H 152.07 -2.78874 -4.05574 0
M  V30 1572 N 153.722 1.14298 -1.08507 0
M  V30 1573 C 154.672 2.17449 -0.685569 0
M  V30 1574 C 155.656 1.58167 0.295315 0
M  V30 1575 O 156.848 1.76675 0.107172 0
M  V30 1576 C 153.977 3.43161 -0.0975318 0
M  V30 1577 C 153.063 4.09471 -1.10426 0
M  V30 1578 N 153.454 4.51089 -2.28806 0
M  V30 1579 C 151.752 4.35976 -0.940258 0
M  V30 1580 C 152.453 5.02654 -2.9277 0
M  V30 1581 N 151.429 4.96927 -2.20374 0
M  V30 1582 H 155.231 2.47369 -1.587 0
M  V30 1583 H 152.745 1.30992 -0.959936 0
M  V30 1584 H 154.742 4.16388 0.20664 0
M  V30 1585 H 153.402 3.14719 0.798872 0
M  V30 1586 H 154.413 4.44097 -2.66455 0
M  V30 1587 H 151.09 4.17386 -0.0977441 0
M  V30 1588 H 152.48 5.44723 -3.93352 0
M  V30 1589 N 155.201 0.870884 1.31352 0
M  V30 1590 C 156.426 0.495957 2.01383 0
M  V30 1591 C 156.851 -0.904324 1.64935 0
M  V30 1592 O 156.209 -1.59687 0.858466 0
M  V30 1593 C 156.257 0.661433 3.54482 0
M  V30 1594 O 155.361 -0.298851 4.11316 0
M  V30 1595 H 154.702 0.197158 0.634054 0
M  V30 1596 H 157.232 1.17455 1.67527 0
M  V30 1597 H 157.242 0.555072 4.04207 0
M  V30 1598 H 155.917 1.68246 3.8035 0
M  V30 1599 H 154.494 -0.147368 3.72609 0
M  V30 1600 N 156.679 -1.44442 0.630414 0
M  V30 1601 C 157.925 -2.02351 0.134816 0
M  V30 1602 C 158.258 -1.4947 -1.23986 0
M  V30 1603 O 157.533 -0.678475 -1.82283 0
M  V30 1604 C 157.816 -3.59898 0.120707 0
M  V30 1605 C 157.669 -4.23063 1.52767 0
M  V30 1606 C 158.988 -4.36585 -0.555127 0
M  V30 1607 H 156.107 -0.73527 0.0504646 0
M  V30 1608 H 158.749 -1.72022 0.806751 0
M  V30 1609 H 156.899 -3.85868 -0.451477 0
M  V30 1610 H 158.571 -4.08202 2.14869 0
M  V30 1611 H 156.814 -3.80586 2.08175 0
M  V30 1612 H 157.485 -5.32071 1.46984 0
M  V30 1613 H 159.961 -4.16044 -0.0685429 0
M  V30 1614 H 158.837 -5.46294 -0.534185 0
M  V30 1615 H 159.098 -4.11138 -1.62535 0
M  V30 1616 N 158.157 -0.370918 -1.53173 0
M  V30 1617 C 159.573 -0.0200818 -1.59587 0
M  V30 1618 C 159.773 1.46279 -1.38581 0
M  V30 1619 O 158.829 2.22506 -1.19363 0
M  V30 1620 C 160.142 -0.4808 -2.96831 0
M  V30 1621 C 161.69 -0.435477 -3.09956 0
M  V30 1622 C 162.165 -0.872092 -4.4962 0
M  V30 1623 N 163.656 -0.827364 -4.55751 0
M  V30 1624 C 164.391 -1.13683 -5.62018 0
M  V30 1625 N 163.887 -1.51584 -6.76014 0
M  V30 1626 N 165.68 -1.05927 -5.52029 0
M  V30 1627 H 157.831 -1.33652 -1.65079 0
M  V30 1628 H 160.094 -0.546634 -0.774529 0
M  V30 1629 H 159.8 -1.51577 -3.1736 0
M  V30 1630 H 159.674 0.129796 -3.76977 0
M  V30 1631 H 162.061 0.590371 -2.89134 0
M  V30 1632 H 162.142 -1.08164 -2.31806 0
M  V30 1633 H 161.786 -1.89608 -4.71181 0
M  V30 1634 H 161.716 -0.203127 -5.26208 0
M  V30 1635 H 164.207 -0.548216 -3.73902 0
M  V30 1636 H 164.52 -1.73609 -7.53047 0
M  V30 1637 H 162.865 -1.55454 -6.77391 0
M  V30 1638 H 166.056 -0.762321 -4.61851 0
M  V30 1639 H 166.229 -1.30378 -6.34749 0
M  V30 1640 N 159.635 1.57281 -0.100228 0
M  V30 1641 C 160.865 1.98591 0.569681 0
M  V30 1642 C 161.273 0.978315 1.61943 0
M  V30 1643 O 160.616 -0.0396108 1.83657 0
M  V30 1644 C 160.678 3.36282 1.271 0
M  V30 1645 C 160.342 4.55488 0.371409 0
M  V30 1646 C 161.339 5.18491 -0.382504 0
M  V30 1647 C 159.024 5.01474 0.287965 0
M  V30 1648 C 161.018 6.25852 -1.20779 0
M  V30 1649 C 158.705 6.08701 -0.540965 0
M  V30 1650 C 159.703 6.70755 -1.28749 0
M  V30 1651 O 159.391 7.75914 -2.10269 0
M  V30 1652 H 159.123 0.65752 0.156982 0
M  V30 1653 H 161.677 2.0463 -0.177734 0
M  V30 1654 H 159.907 3.26941 2.0651 0
M  V30 1655 H 161.596 3.62005 1.83595 0
M  V30 1656 H 162.362 4.83891 -0.3278 0
M  V30 1657 H 158.241 4.52932 0.858689 0
M  V30 1658 H 161.785 6.74218 -1.79096 0
M  V30 1659 H 157.682 6.42732 -0.597131 0
M  V30 1660 H 158.45 7.92925 -2.03007 0
M  V30 1661 N 161.113 -0.173488 1.56642 0
M  V30 1662 C 162.045 -1.23935 1.92802 0
M  V30 1663 C 163.058 -1.40589 0.820889 0
M  V30 1664 O 164.247 -1.40631 1.09933 0
M  V30 1665 C 161.347 -2.60837 2.16373 0
M  V30 1666 C 160.52 -2.6551 3.47596 0
M  V30 1667 C 159.579 -3.8376 3.60021 0
M  V30 1668 O 158.605 -3.69859 4.32658 0
M  V30 1669 N 159.807 -5.00127 2.94709 0
M  V30 1670 H 162.572 -0.932236 2.84832 0
M  V30 1671 H 160.133 -0.363268 1.57772 0
M  V30 1672 H 162.125 -3.38407 2.21952 0
M  V30 1673 H 160.695 -2.83948 1.30738 0
M  V30 1674 H 159.915 -1.74052 3.53694 0
M  V30 1675 H 161.203 -2.65641 4.33949 0
M  V30 1676 H 160.601 -5.14322 2.35563 0
M  V30 1677 H 159.158 -5.75567 3.05886 0
M  V30 1678 N 162.591 -1.51276 -0.441967 0
M  V30 1679 C 163.831 -1.65372 -1.20132 0
M  V30 1680 C 164.195 -0.359871 -1.88597 0
M  V30 1681 O 165.396 -0.376551 -2.66149 0
M  V30 1682 C 163.667 -2.8207 -2.1948 0
M  V30 1683 S 165.226 -3.16467 -3.03964 0
M  V30 1684 H 162.044 -0.582669 -0.407453 0
M  V30 1685 H 164.646 -1.89166 -0.493609 0
M  V30 1686 H 163.35 -3.74523 -1.67812 0
M  V30 1687 H 162.881 -2.6045 -2.94838 0
M  V30 1688 H 164.896 -2.62543 -4.21053 0
M  V30 1689 N 164.069 0.697108 -1.41344 0
M  V30 1690 C 165.016 1.81106 -1.43071 0
M  V30 1691 C 165.986 1.63632 -0.285275 0
M  V30 1692 O 167.171 1.84504 -0.486091 0
M  V30 1693 C 164.311 3.18975 -1.31715 0
M  V30 1694 C 163.424 3.47892 -2.56115 0
M  V30 1695 C 162.559 4.75367 -2.37064 0
M  V30 1696 C 161.598 4.97247 -3.56948 0
M  V30 1697 N 160.735 6.15947 -3.36977 0
M  V30 1698 H 165.575 1.78965 -2.38276 0
M  V30 1699 H 163.112 0.873975 -1.18322 0
M  V30 1700 H 165.07 3.98615 -1.23133 0
M  V30 1701 H 163.7 3.20297 -0.401183 0
M  V30 1702 H 162.752 2.62669 -2.75153 0
M  V30 1703 H 164.064 3.59962 -3.45295 0
M  V30 1704 H 163.218 5.63059 -2.25941 0
M  V30 1705 H 161.957 4.65541 -1.45338 0
M  V30 1706 H 160.962 4.08004 -3.68527 0
M  V30 1707 H 162.187 5.08934 -4.49626 0
M  V30 1708 H 160.133 6.07336 -2.47949 0
M  V30 1709 H 160.05 6.28777 -4.19732 0
M  V30 1710 H 161.318 7.06377 -3.29623 0
M  V30 1711 N 165.547 1.27147 0.931209 0
M  V30 1712 C 166.495 1.09398 2.05268 0
M  V30 1713 C 167.489 0.0180591 1.6939 0
M  V30 1714 O 168.695 0.17551 1.79142 0
M  V30 1715 H 165.07 0.336986 0.672268 0
M  V30 1716 H 167.041 2.04416 2.17386 0
M  V30 1717 C 165.79 0.75424 3.39421 0
M  V30 1718 H 165.113 1.57404 3.67511 0
M  V30 1719 H 166.553 0.669903 4.18674 0
M  V30 1720 C 165.012 -0.541197 3.32525 0
M  V30 1721 O 165.542 -1.57664 3.69466 0
M  V30 1722 N 163.748 -0.535517 2.85623 0
M  V30 1723 H 163.295 0.307511 2.55758 0
M  V30 1724 H 163.253 -1.40236 2.81392 0
M  V30 1725 N 167.025 -1.13721 1.09112 0
M  V30 1726 C 168.255 -1.88499 0.845671 0
M  V30 1727 C 168.663 -1.79218 -0.606432 0
M  V30 1728 O 168.006 -1.1544 -1.42896 0
M  V30 1729 C 168.068 -3.38954 1.19793 0
M  V30 1730 C 167.732 -3.72018 2.65428 0
M  V30 1731 C 168.729 -3.7153 3.63677 0
M  V30 1732 C 166.414 -4.01775 3.01467 0
M  V30 1733 C 168.408 -4.00336 4.95994 0
M  V30 1734 C 166.095 -4.30243 4.33975 0
M  V30 1735 C 167.093 -4.29508 5.31048 0
M  V30 1736 O 166.781 -4.5728 6.61173 0
M  V30 1737 H 166.513 -0.603702 0.304171 0
M  V30 1738 H 169.067 -1.44903 1.45576 0
M  V30 1739 H 167.297 -3.83039 0.530871 0
M  V30 1740 H 168.986 -3.95052 0.932146 0
M  V30 1741 H 169.752 -3.4862 3.37179 0
M  V30 1742 H 165.631 -4.01496 2.26544 0
M  V30 1743 H 169.175 -3.99678 5.71755 0
M  V30 1744 H 165.072 -4.52625 4.60219 0
M  V30 1745 H 165.84 -4.74964 6.66597 0
M  V30 1746 N 168.503 -0.877838 -1.30888 0
M  V30 1747 C 169.733 -0.506678 -2.00291 0
M  V30 1748 C 170.141 0.907449 -1.66018 0
M  V30 1749 O 169.484 1.60719 -0.88967 0
M  V30 1750 C 169.546 -0.59323 -3.54572 0
M  V30 1751 C 169.21 -1.97038 -4.12341 0
M  V30 1752 C 170.207 -2.93889 -4.28865 0
M  V30 1753 C 167.892 -2.27383 -4.47886 0
M  V30 1754 C 169.886 -4.19224 -4.80136 0
M  V30 1755 C 167.573 -3.52965 -4.98857 0
M  V30 1756 C 168.571 -4.48701 -5.14934 0
M  V30 1757 O 168.259 -5.72056 -5.64808 0
M  V30 1758 H 167.991 -0.1951 -0.647234 0
M  V30 1759 H 170.545 -1.18301 -1.6791 0
M  V30 1760 H 168.775 0.140057 -3.86446 0
M  V30 1761 H 170.464 -0.234372 -4.05223 0
M  V30 1762 H 171.23 -2.71756 -4.01714 0
M  V30 1763 H 167.109 -1.53639 -4.34645 0
M  V30 1764 H 170.653 -4.93956 -4.92599 0
M  V30 1765 H 166.55 -3.74939 -5.25443 0
M  V30 1766 H 167.318 -5.74337 -5.83163 0
M  V30 1767 N 169.982 1.44106 -0.638065 0
M  V30 1768 C 170.929 2.30715 0.062701 0
M  V30 1769 C 171.899 1.43882 0.829883 0
M  V30 1770 O 173.084 1.72775 0.809532 0
M  V30 1771 C 170.224 3.29258 1.03358 0
M  V30 1772 C 169.337 4.31192 0.26409 0
M  V30 1773 C 168.472 5.16825 1.22741 0
M  V30 1774 C 167.511 6.10462 0.447475 0
M  V30 1775 N 166.648 6.8877 1.36161 0
M  V30 1776 H 171.488 2.90096 -0.681781 0
M  V30 1777 H 169.025 1.42925 -0.347988 0
M  V30 1778 H 170.983 3.84886 1.60992 0
M  V30 1779 H 169.613 2.71562 1.74511 0
M  V30 1780 H 168.665 3.77981 -0.428295 0
M  V30 1781 H 169.977 4.97619 -0.343052 0
M  V30 1782 H 169.131 5.77004 1.87487 0
M  V30 1783 H 167.87 4.50488 1.86847 0
M  V30 1784 H 166.875 5.49386 -0.213433 0
M  V30 1785 H 168.1 6.78837 -0.188968 0
M  V30 1786 H 166.046 6.25096 1.98975 0
M  V30 1787 H 165.963 7.51663 0.808656 0
M  V30 1788 H 167.231 7.53467 1.99769 0
M  V30 1789 N 171.46 0.379036 1.52974 0
M  V30 1790 C 172.39 -0.452706 2.29069 0
M  V30 1791 C 173.371 -1.07237 1.32039 0
M  V30 1792 O 174.556 -1.08708 1.60923 0
M  V30 1793 C 171.686 -1.5856 3.08992 0
M  V30 1794 C 170.64 -1.0925 4.13822 0
M  V30 1795 C 169.966 -2.31668 4.81907 0
M  V30 1796 C 171.266 -0.167702 5.22031 0
M  V30 1797 H 172.96 0.182181 2.98845 0
M  V30 1798 H 170.506 0.0890592 1.43724 0
M  V30 1799 H 172.459 -2.1742 3.6098 0
M  V30 1800 H 171.183 -2.24792 2.36931 0
M  V30 1801 H 169.842 -0.526494 3.628 0
M  V30 1802 H 169.49 -2.96386 4.06404 0
M  V30 1803 H 169.19 -1.9934 5.52754 0
M  V30 1804 H 170.714 -2.91189 5.36695 0
M  V30 1805 H 172.128 -0.664186 5.6944 0
M  V30 1806 H 170.525 0.0653265 6.00064 0
M  V30 1807 H 171.595 0.786347 4.78482 0
M  V30 1808 N 172.938 -1.57226 0.108567 0
M  V30 1809 C 174.354 -1.5766 -0.248058 0
M  V30 1810 C 174.554 -1.12063 -1.67464 0
M  V30 1811 O 173.61 -0.803236 -2.39383 0
M  V30 1812 C 174.923 -3.0069 -0.0242287 0
M  V30 1813 C 176.471 -3.12868 -0.0909372 0
M  V30 1814 C 176.946 -4.57879 0.105067 0
M  V30 1815 N 178.437 -4.63172 0.0506846 0
M  V30 1816 C 179.172 -5.73126 0.177396 0
M  V30 1817 N 178.668 -6.91866 0.359696 0
M  V30 1818 N 180.461 -5.61977 0.117709 0
M  V30 1819 H 172.612 -1.85169 1.04049 0
M  V30 1820 H 174.875 -0.85529 0.40888 0
M  V30 1821 H 174.581 -3.38299 0.961604 0
M  V30 1822 H 174.455 -3.6945 -0.76068 0
M  V30 1823 H 176.842 -2.75124 -1.06729 0
M  V30 1824 H 176.923 -2.46672 0.677225 0
M  V30 1825 H 176.567 -4.96321 1.07834 0
M  V30 1826 H 176.497 -5.22153 -0.682954 0
M  V30 1827 H 178.988 -3.778 -0.0871266 0
M  V30 1828 H 179.301 -7.71503 0.447529 0
M  V30 1829 H 177.646 -6.93874 0.395536 0
M  V30 1830 H 180.837 -4.68094 -0.0236741 0
M  V30 1831 H 181.01 -6.47627 0.219905 0
M  V30 1832 N 174.416 0.165178 -1.56732 0
M  V30 1833 C 175.644 0.896218 -1.86482 0
M  V30 1834 C 176.059 1.75555 -0.694675 0
M  V30 1835 O 175.416 1.79379 0.33607 0
M  V30 1836 C 175.467 1.76792 -3.1532 0
M  V30 1837 O 175.188 0.943239 -4.27825 0
M  V30 1838 C 176.689 2.6081 -3.58459 0
M  V30 1839 H 173.909 0.260064 -0.618553 0
M  V30 1840 H 176.453 0.163428 -2.03846 0
M  V30 1841 H 174.608 2.45398 -2.99764 0
M  V30 1842 H 175.022 1.53998 -5.01383 0
M  V30 1843 H 176.496 3.17579 -4.51495 0
M  V30 1844 H 176.973 3.35977 -2.82872 0
M  V30 1845 H 177.579 1.97526 -3.76648 0
M  V30 1846 N 175.894 1.51508 0.433938 0
M  V30 1847 C 176.804 1.75917 1.5521 0
M  V30 1848 C 177.82 0.643545 1.61662 0
M  V30 1849 O 178.996 0.926183 1.7884 0
M  V30 1850 C 176.061 1.88213 2.91164 0
M  V30 1851 C 175.122 3.12074 2.94802 0
M  V30 1852 C 174.355 3.23774 4.24271 0
M  V30 1853 O 174.578 2.4133 5.16833 0
M  V30 1854 O 173.512 4.16774 4.34262 0
M  V30 1855 H 177.338 2.70777 1.37527 0
M  V30 1856 H 174.923 1.36051 0.617293 0
M  V30 1857 H 176.805 1.98267 3.71845 0
M  V30 1858 H 175.48 0.965413 3.08968 0
M  V30 1859 H 174.387 3.07497 2.13065 0
M  V30 1860 H 175.72 4.03446 2.81943 0
M  V30 1861 N 177.372 -0.689602 1.41712 0
M  V30 1862 C 178.62 -1.4468 1.4111 0
M  V30 1863 C 178.941 -1.94986 0.0232196 0
M  V30 1864 O 178.211 -1.72097 -0.935913 0
M  V30 1865 H 176.791 -0.536847 0.519427 0
M  V30 1866 H 179.453 -0.815825 1.77004 0
M  V30 1867 H 178.549 -2.30706 2.10193 0
M  V30 1868 N 178.85 -1.27639 -0.924453 0
M  V30 1869 C 180.127 -1.04887 -1.651 0
M  V30 1870 C 180.507 0.415327 -2.06974 0
M  V30 1871 O 179.855 1.39923 -1.80648 0
M  V30 1872 C 180.065 -2.01348 -2.85061 0
M  V30 1873 C 181.413 -2.30899 -3.56329 0
M  V30 1874 O 182.437 -1.99348 -2.95193 0
M  V30 1875 O 181.296 -2.84699 -4.66485 0
M  V30 1876 H 178.39 -0.400083 -0.723784 0
M  V30 1877 H 180.936 -1.38916 -0.974703 0
M  V30 1878 H 179.708 -3.0008 -2.51133 0
M  V30 1879 H 179.331 -1.679 -3.6041 0
M  V30 1880 N 180.328 1.1314 -1.09713 0
M  V30 1881 C 181.576 1.84119 -0.833338 0
M  V30 1882 C 181.897 1.84097 0.642904 0
M  V30 1883 O 181.167 1.29881 1.46655 0
M  V30 1884 H 179.747 0.681766 -0.305293 0
M  V30 1885 H 182.409 1.37038 -1.38588 0
M  V30 1886 H 181.505 2.88543 -1.18951 0
M  V30 1887 N 181.806 0.884767 1.30421 0
M  V30 1888 C 183.052 0.503851 1.96441 0
M  V30 1889 C 183.385 -0.944518 1.69684 0
M  V30 1890 O 182.66 -1.66737 1.00145 0
M  V30 1891 C 182.943 0.779085 3.51571 0
M  V30 1892 C 182.796 2.27807 3.87846 0
M  V30 1893 C 184.115 0.255452 4.39358 0
M  V30 1894 H 181.234 0.184533 0.713524 0
M  V30 1895 H 183.876 1.10872 1.54297 0
M  V30 1896 H 182.026 0.264274 3.876 0
M  V30 1897 H 183.698 2.86127 3.61841 0
M  V30 1898 H 181.941 2.74479 3.35922 0
M  V30 1899 H 182.612 2.42125 4.96064 0
M  V30 1900 H 185.088 0.696079 4.10236 0
M  V30 1901 H 183.964 0.477361 5.4682 0
M  V30 1902 H 184.225 -0.843293 4.33983 0
M  V30 1903 N 183.284 -1.43765 0.645699 0
M  V30 1904 C 184.514 -2.05953 0.163318 0
M  V30 1905 C 184.922 -1.48432 -1.17322 0
M  V30 1906 O 184.265 -0.607295 -1.73371 0
M  V30 1907 C 184.327 -3.59499 -0.0103065 0
M  V30 1908 C 183.991 -4.39563 1.25035 0
M  V30 1909 C 184.988 -4.72108 2.17739 0
M  V30 1910 C 182.673 -4.79697 1.48983 0
M  V30 1911 C 184.667 -5.43688 3.3269 0
M  V30 1912 C 182.354 -5.51023 2.64229 0
M  V30 1913 C 183.352 -5.8294 3.55908 0
M  V30 1914 O 183.04 -6.5281 4.69142 0
M  V30 1915 H 182.772 -0.670798 0.0836986 0
M  V30 1916 H 185.326 -1.85384 0.884407 0
M  V30 1917 H 183.556 -3.78613 -0.78669 0
M  V30 1918 H 185.245 -4.03408 -0.449087 0
M  V30 1919 H 186.011 -4.41627 2.00476 0
M  V30 1920 H 181.89 -4.54266 0.785078 0
M  V30 1921 H 185.434 -5.68517 4.04269 0
M  V30 1922 H 181.331 -5.8092 2.81429 0
M  V30 1923 H 182.099 -6.71288 4.6831 0
M  V30 1924 N 184.763 -0.387143 -1.52771 0
M  V30 1925 C 185.991 0.195869 -2.05971 0
M  V30 1926 C 186.406 1.40691 -1.25903 0
M  V30 1927 O 185.763 1.79931 -0.305134 0
M  V30 1928 C 185.814 0.56812 -3.57008 0
M  V30 1929 O 185.535 -0.594803 -4.34043 0
M  V30 1930 C 187.036 1.20723 -4.26545 0
M  V30 1931 H 184.256 0.0300578 -0.670326 0
M  V30 1932 H 186.8 -0.551749 -1.96916 0
M  V30 1933 H 184.955 1.26564 -3.66143 0
M  V30 1934 H 185.369 -0.289322 -5.23701 0
M  V30 1935 H 186.843 1.41807 -5.33474 0
M  V30 1936 H 187.32 2.17395 -3.81623 0
M  V30 1937 H 187.926 0.550535 -4.21722 0
M  V30 1938 N 186.241 1.57166 -0.116904 0
M  V30 1939 C 187.171 2.18222 0.830759 0
M  V30 1940 C 188.152 1.12167 1.27877 0
M  V30 1941 O 189.337 1.40394 1.34176 0
M  V30 1942 C 186.467 2.77996 2.08172 0
M  V30 1943 C 185.421 3.89614 1.77157 0
M  V30 1944 C 184.747 4.36187 3.09265 0
M  V30 1945 C 186.047 5.1181 1.04151 0
M  V30 1946 H 187.741 2.97664 0.321992 0
M  V30 1947 H 185.287 1.4318 0.153434 0
M  V30 1948 H 187.24 3.19366 2.74924 0
M  V30 1949 H 185.964 1.9584 2.6137 0
M  V30 1950 H 184.623 3.48816 1.12796 0
M  V30 1951 H 184.271 3.50893 3.60393 0
M  V30 1952 H 183.971 5.11455 2.89288 0
M  V30 1953 H 185.495 4.80207 3.77139 0
M  V30 1954 H 186.909 5.50214 1.61052 0
M  V30 1955 H 185.306 5.92648 0.942762 0
M  V30 1956 H 186.376 4.84892 0.0279022 0
M  V30 1957 N 187.719 -0.156864 1.56817 0
M  V30 1958 C 188.667 -1.21319 1.98455 0
M  V30 1959 C 189.661 -1.45025 0.875444 0
M  V30 1960 O 190.867 -1.45435 1.0606 0
M  V30 1961 H 187.242 -0.408142 0.631605 0
M  V30 1962 H 189.213 -0.835244 2.86472 0
M  V30 1963 C 187.962 -2.54148 2.37285 0
M  V30 1964 H 187.285 -2.36733 3.22176 0
M  V30 1965 H 188.725 -3.26712 2.70251 0
M  V30 1966 C 187.184 -3.13967 1.22173 0
M  V30 1967 O 187.714 -3.98357 0.517149 0
M  V30 1968 N 185.92 -2.7327 0.988536 0
M  V30 1969 H 185.467 -2.04744 1.56326 0
M  V30 1970 H 185.425 -3.13628 0.220209 0
M  V30 1971 N 189.197 -1.51736 -0.425897 0
M  V30 1972 C 190.145 -1.74464 -1.53834 0
M  V30 1973 C 191.139 -0.611241 -1.57988 0
M  V30 1974 O 192.345 -0.792899 -1.61596 0
M  V30 1975 H 188.72 -0.551437 -0.511293 0
M  V30 1976 H 190.691 -2.67694 -1.31843 0
M  V30 1977 C 189.44 -1.8972 -2.91379 0
M  V30 1978 H 188.763 -2.76344 -2.88919 0
M  V30 1979 H 190.203 -2.09629 -3.68553 0
M  V30 1980 C 188.662 -0.65992 -3.30374 0
M  V30 1981 O 189.192 0.180083 -4.01296 0
M  V30 1982 N 187.398 -0.500677 -2.86254 0
M  V30 1983 H 186.945 -1.18532 -2.28709 0
M  V30 1984 H 186.903 0.325903 -3.12706 0
M  V30 1985 N 190.675 0.682077 -1.42076 0
M  V30 1986 C 191.585 1.82535 -1.47371 0
M  V30 1987 C 192.601 1.7017 -0.363079 0
M  V30 1988 O 193.777 1.91848 -0.612875 0
M  V30 1989 C 190.842 3.18624 -1.36674 0
M  V30 1990 C 189.903 3.42999 -2.58167 0
M  V30 1991 C 189.136 4.72595 -2.4797 0
M  V30 1992 O 189.359 5.50006 -1.5116 0
M  V30 1993 O 188.293 4.98054 -3.37974 0
M  V30 1994 H 192.119 1.81023 -2.43853 0
M  V30 1995 H 189.704 0.836887 -1.2376 0
M  V30 1996 H 191.586 3.99847 -1.33043 0
M  V30 1997 H 190.261 3.20789 -0.433138 0
M  V30 1998 H 189.168 2.61653 -2.67373 0
M  V30 1999 H 190.501 3.45659 -3.50401 0
M  V30 2000 N 192.153 1.28127 0.917671 0
M  V30 2001 C 193.1 1.11717 2.0196 0
M  V30 2002 C 194.07 0.0153929 1.66093 0
M  V30 2003 O 195.255 0.179596 1.89953 0
M  V30 2004 C 192.395 0.780927 3.36148 0
M  V30 2005 C 191.508 1.96135 3.84909 0
M  V30 2006 C 190.643 1.56609 5.0759 0
M  V30 2007 C 189.682 2.71339 5.48673 0
M  V30 2008 N 188.819 2.32332 6.62545 0
M  V30 2009 H 193.659 2.06003 2.15329 0
M  V30 2010 H 191.196 1.02535 1.05475 0
M  V30 2011 H 193.154 0.56675 4.13333 0
M  V30 2012 H 191.784 -0.124998 3.22558 0
M  V30 2013 H 190.836 2.28777 3.03916 0
M  V30 2014 H 192.148 2.82165 4.1132 0
M  V30 2015 H 191.302 1.31374 5.92305 0
M  V30 2016 H 190.041 0.677014 4.82978 0
M  V30 2017 H 189.046 2.97276 4.62501 0
M  V30 2018 H 190.271 3.60882 5.75274 0
M  V30 2019 H 188.217 1.45889 6.39572 0
M  V30 2020 H 188.134 3.11899 6.88662 0
M  V30 2021 H 189.402 2.10371 7.50576 0
M  V30 2022 N 193.631 -1.12557 1.10312 0
M  V30 2023 C 194.563 -2.17971 0.708625 0
M  V30 2024 C 195.576 -1.60806 -0.254027 0
M  V30 2025 O 196.765 -1.78458 -0.0386891 0
M  V30 2026 C 193.865 -3.38891 0.0248198 0
M  V30 2027 C 193.038 -4.25548 1.01132 0
M  V30 2028 C 192.097 -5.24972 0.35924 0
M  V30 2029 O 191.123 -5.60174 1.00965 0
M  V30 2030 N 192.325 -5.73747 -0.882847 0
M  V30 2031 H 195.09 -2.52427 1.61557 0
M  V30 2032 H 192.651 -1.27967 0.991771 0
M  V30 2033 H 194.643 -4.02485 -0.422852 0
M  V30 2034 H 193.213 -3.02596 -0.784514 0
M  V30 2035 H 192.433 -3.58589 1.6373 0
M  V30 2036 H 193.721 -4.80294 1.67914 0
M  V30 2037 H 193.119 -5.4731 -1.43065 0
M  V30 2038 H 191.676 -6.39234 -1.27369 0
M  V30 2039 N 195.109 -0.891671 -1.2995 0
M  V30 2040 C 196.355 -0.523649 -1.96544 0
M  V30 2041 C 196.71 0.918394 -1.69066 0
M  V30 2042 O 196.003 1.64122 -0.988659 0
M  V30 2043 C 196.197 -0.742868 -3.49594 0
M  V30 2044 C 196.026 -2.20467 -3.9195 0
M  V30 2045 C 194.796 -2.85055 -4.17219 0
M  V30 2046 C 196.994 -3.17912 -4.04273 0
M  V30 2047 N 194.976 -4.21762 -4.46083 0
M  V30 2048 C 196.347 -4.39712 -4.37097 0
M  V30 2049 C 198.402 -3.1361 -3.86721 0
M  V30 2050 C 197.105 -5.5776 -4.54199 0
M  V30 2051 C 199.131 -4.30936 -4.05028 0
M  V30 2052 C 198.493 -5.51504 -4.38204 0
M  V30 2053 H 194.592 -0.241072 -0.743914 0
M  V30 2054 H 197.176 -1.15081 -1.5705 0
M  V30 2055 H 195.347 -0.14515 -3.88129 0
M  V30 2056 H 197.079 -0.341081 -4.0326 0
M  V30 2057 H 193.834 -2.35889 -4.10674 0
M  V30 2058 H 194.258 -4.92382 -4.64638 0
M  V30 2059 H 198.9 -2.21489 -3.60142 0
M  V30 2060 H 196.618 -6.50379 -4.79618 0
M  V30 2061 H 200.204 -4.29085 -3.92909 0
M  V30 2062 H 199.084 -6.40778 -4.52077 0
M  V30 2063 N 196.587 1.43421 -0.653314 0
M  V30 2064 C 197.836 2.01032 -0.164076 0
M  V30 2065 C 198.149 1.52147 1.22926 0
M  V30 2066 O 199.355 2.02031 1.81371 0
M  V30 2067 C 197.811 3.59082 -0.24252 0
M  V30 2068 C 197.419 4.1696 -1.63855 0
M  V30 2069 C 199.163 4.24079 0.18911 0
M  V30 2070 C 197.07 5.67304 -1.67092 0
M  V30 2071 H 196 0.751798 -0.0575769 0
M  V30 2072 H 198.651 1.6439 -0.815362 0
M  V30 2073 H 197.033 3.93125 0.476276 0
M  V30 2074 H 198.207 3.94416 -2.38271 0
M  V30 2075 H 196.522 3.64335 -2.01616 0
M  V30 2076 H 199.119 5.34381 0.184775 0
M  V30 2077 H 199.462 3.98005 1.22056 0
M  V30 2078 H 199.995 3.94918 -0.477938 0
M  V30 2079 H 196.734 5.98145 -2.68146 0
M  V30 2080 H 196.254 5.91904 -0.970014 0
M  V30 2081 H 197.933 6.31344 -1.4147 0
M  V30 2082 N 198.065 0.39524 1.52563 0
M  V30 2083 C 199.013 -0.451859 2.28169 0
M  V30 2084 C 200.007 -1.05792 1.32304 0
M  V30 2085 O 201.213 -0.997718 1.49818 0
M  V30 2086 H 197.588 -0.164481 0.733792 0
M  V30 2087 H 199.559 0.207199 2.9768 0
M  V30 2088 C 198.308 -1.56385 3.10546 0
M  V30 2089 H 197.631 -1.10682 3.84174 0
M  V30 2090 H 199.071 -2.13067 3.66577 0
M  V30 2091 C 197.53 -2.52328 2.23231 0
M  V30 2092 O 198.06 -3.5588 1.86312 0
M  V30 2093 N 196.266 -2.22209 1.87274 0
M  V30 2094 H 195.813 -1.38033 2.17496 0
M  V30 2095 H 195.771 -2.86652 1.29143 0
M  V30 2096 N 199.544 -1.57102 0.125237 0
M  V30 2097 C 200.491 -2.15641 -0.822655 0
M  V30 2098 C 201.461 -1.08313 -1.25927 0
M  V30 2099 O 202.646 -1.36251 -1.33567 0
M  V30 2100 C 199.786 -2.76504 -2.06494 0
M  V30 2101 C 198.899 -3.98158 -1.67612 0
M  V30 2102 C 198.034 -4.47088 -2.86854 0
M  V30 2103 C 197.073 -5.6126 -2.44242 0
M  V30 2104 N 196.21 -6.04905 -3.56419 0
M  V30 2105 H 201.05 -2.96313 -0.316625 0
M  V30 2106 H 198.587 -1.46388 -0.144588 0
M  V30 2107 H 200.545 -3.09925 -2.79289 0
M  V30 2108 H 199.175 -1.98512 -2.54545 0
M  V30 2109 H 198.227 -3.70858 -0.846661 0
M  V30 2110 H 199.539 -4.80934 -1.32301 0
M  V30 2111 H 198.693 -4.82451 -3.67867 0
M  V30 2112 H 197.432 -3.63275 -3.25396 0
M  V30 2113 H 196.437 -5.25495 -1.61663 0
M  V30 2114 H 197.662 -6.46843 -2.0681 0
M  V30 2115 H 195.608 -5.24032 -3.94623 0
M  V30 2116 H 195.525 -6.82552 -3.25051 0
M  V30 2117 H 196.793 -6.44907 -4.37853 0
M  V30 2118 N 201.022 0.148545 -1.56898 0
M  V30 2119 C 201.985 1.16736 -1.97244 0
M  V30 2120 C 202.985 1.35947 -0.858777 0
M  V30 2121 O 204.175 1.32966 -1.12542 0
M  V30 2122 C 201.307 2.52798 -2.28705 0
M  V30 2123 H 202.5 0.821279 -2.88435 0
M  V30 2124 H 200.053 0.391831 -1.51309 0
M  V30 2125 H 200.788 2.92381 -1.403 0
M  V30 2126 H 200.573 2.40216 -3.09901 0
M  V30 2127 H 202.063 3.26179 -2.60762 0
M  V30 2128 N 202.5 1.5196 0.417844 0
M  V30 2129 C 203.746 1.65836 1.16732 0
M  V30 2130 C 204.079 0.382881 1.90388 0
M  V30 2131 O 203.354 -0.618368 1.84408 0
M  V30 2132 C 203.637 2.87466 2.16876 0
M  V30 2133 C 203.49 4.25041 1.47174 0
M  V30 2134 C 204.809 3.04613 3.17646 0
M  V30 2135 H 201.928 0.603515 0.423011 0
M  V30 2136 H 204.57 1.84494 0.454105 0
M  V30 2137 H 202.72 2.71689 2.777 0
M  V30 2138 H 204.392 4.52527 0.895376 0
M  V30 2139 H 202.635 4.26843 0.773806 0
M  V30 2140 H 203.306 5.06176 2.20204 0
M  V30 2141 H 205.782 3.1923 2.66892 0
M  V30 2142 H 204.658 3.91247 3.8499 0
M  V30 2143 H 204.919 2.17541 3.84874 0
M  V30 2144 N 203.978 -0.674533 1.42435 0
M  V30 2145 C 205.226 -1.43175 1.42637 0
M  V30 2146 C 205.547 -1.94951 0.0438992 0
M  V30 2147 O 204.817 -1.7308 -0.917607 0
M  V30 2148 H 203.397 -0.531307 0.525092 0
M  V30 2149 H 206.059 -0.797006 1.77859 0
M  V30 2150 H 205.155 -2.28463 2.12629 0
M  V30 2151 N 205.456 -1.28612 -0.910864 0
M  V30 2152 C 206.733 -1.06632 -1.63979 0
M  V30 2153 C 207.113 0.393351 -2.07403 0
M  V30 2154 O 206.461 1.37999 -1.82122 0
M  V30 2155 C 206.671 -2.0436 -2.8291 0
M  V30 2156 C 208.019 -2.34666 -3.5386 0
M  V30 2157 O 209.043 -2.02467 -2.93062 0
M  V30 2158 O 207.902 -2.89631 -4.63439 0
M  V30 2159 H 204.996 -0.407737 -0.7195 0
M  V30 2160 H 207.542 -1.39942 -0.959914 0
M  V30 2161 H 206.314 -3.02727 -2.47936 0
M  V30 2162 H 205.937 -1.71714 -3.58609 0
M  V30 2163 N 206.934 1.1197 -1.10907 0
M  V30 2164 C 207.881 2.17846 -0.762345 0
M  V30 2165 C 208.851 1.63995 0.263599 0
M  V30 2166 O 210.036 1.90273 0.141773 0
M  V30 2167 C 207.176 3.44487 -0.205651 0
M  V30 2168 C 206.289 4.12369 -1.28748 0
M  V30 2169 C 205.424 5.26674 -0.691919 0
M  V30 2170 C 204.463 5.86431 -1.75399 0
M  V30 2171 N 203.6 6.92142 -1.17833 0
M  V30 2172 H 208.44 2.46851 -1.6694 0
M  V30 2173 H 205.977 1.21188 -0.833776 0
M  V30 2174 H 207.935 4.16981 0.135037 0
M  V30 2175 H 206.565 3.15884 0.664613 0
M  V30 2176 H 205.617 3.38003 -1.74522 0
M  V30 2177 H 206.929 4.52844 -2.09125 0
M  V30 2178 H 206.083 6.05953 -0.300963 0
M  V30 2179 H 204.822 4.8749 0.143232 0
M  V30 2180 H 203.827 5.05835 -2.15432 0
M  V30 2181 H 205.052 6.27685 -2.59208 0
M  V30 2182 H 202.998 6.54985 -0.364725 0
M  V30 2183 H 202.915 7.31242 -1.91887 0
M  V30 2184 H 204.183 7.75237 -0.81408 0
M  V30 2185 N 208.412 0.89855 1.29475 0
M  V30 2186 C 209.342 0.39201 2.30186 0
M  V30 2187 C 210.323 -0.532359 1.61555 0
M  V30 2188 O 211.508 -0.443331 1.89072 0
M  V30 2189 C 208.638 -0.382353 3.45189 0
M  V30 2190 C 207.592 0.451483 4.25612 0
M  V30 2191 C 206.918 -0.450307 5.328 0
M  V30 2192 C 208.218 1.70079 4.93832 0
M  V30 2193 H 209.912 1.23362 2.72804 0
M  V30 2194 H 207.458 0.594638 1.31149 0
M  V30 2195 H 209.411 -0.747451 4.14718 0
M  V30 2196 H 208.135 -1.25774 3.01411 0
M  V30 2197 H 206.794 0.798897 3.57789 0
M  V30 2198 H 206.442 -1.32379 4.85268 0
M  V30 2199 H 206.142 0.103902 5.87508 0
M  V30 2200 H 207.666 -0.811623 6.05182 0
M  V30 2201 H 209.08 1.40549 5.55805 0
M  V30 2202 H 207.477 2.19623 5.58467 0
M  V30 2203 H 208.547 2.43744 4.19186 0
M  V30 2204 N 209.89 -1.43072 0.660911 0
M  V30 2205 C 211.301 -1.84932 0.256348 0
M  V30 2206 C 211.652 -1.55325 -1.19868 0
M  V30 2207 O 210.777 -1.00607 -1.91591 0
M  V30 2208 C 211.372 -3.35684 0.458475 0
M  V30 2209 C 209.931 -3.76245 0.108161 0
M  V30 2210 C 209.078 -2.66749 0.757641 0
M  V30 2211 H 212.029 -1.33116 0.864051 0
M  V30 2212 H 212.05 -3.79365 -0.293683 0
M  V30 2213 H 211.562 -3.572 1.51755 0
M  V30 2214 H 209.663 -3.60338 -0.948014 0
M  V30 2215 H 209.776 -4.76058 0.538992 0
M  V30 2216 H 208.14 -2.53989 0.190185 0
M  V30 2217 H 208.923 -2.91092 1.81989 0
M  V30 2218 N 211.368 -0.403325 -1.52352 0
M  V30 2219 C 212.278 0.432009 -2.30588 0
M  V30 2220 C 213.294 1.05884 -1.38075 0
M  V30 2221 O 214.47 1.06161 -1.71148 0
M  V30 2222 C 211.535 1.53669 -3.10784 0
M  V30 2223 C 210.596 0.933525 -4.19027 0
M  V30 2224 C 209.829 1.98557 -4.9539 0
M  V30 2225 O 210.052 3.20283 -4.71991 0
M  V30 2226 O 208.986 1.59504 -5.80381 0
M  V30 2227 H 212.812 -0.205739 -3.03002 0
M  V30 2228 H 210.397 -0.166675 -1.48467 0
M  V30 2229 H 212.279 2.17814 -3.60742 0
M  V30 2230 H 210.954 2.15915 -2.41169 0
M  V30 2231 H 209.861 0.254954 -3.7323 0
M  V30 2232 H 211.194 0.35508 -4.90918 0
M  V30 2233 N 212.846 1.57033 -0.133567 0
M  V30 2234 C 214.086 1.97575 0.523789 0
M  V30 2235 C 214.45 1.01605 1.62912 0
M  V30 2236 O 215.651 1.3114 2.3464 0
M  V30 2237 C 213.922 3.42256 1.02935 0
M  V30 2238 S 215.481 4.04817 1.69319 0
M  V30 2239 H 212.299 0.690427 0.169799 0
M  V30 2240 H 214.901 1.94234 -0.222101 0
M  V30 2241 H 213.605 4.09842 0.213917 0
M  V30 2242 H 213.136 3.4928 1.81017 0
M  V30 2243 H 215.151 3.96767 2.97977 0
M  V30 2244 N 214.325 -0.140222 1.56975 0
M  V30 2245 C 215.235 -1.19223 2.02047 0
M  V30 2246 C 216.251 -1.46612 0.937062 0
M  V30 2247 O 217.427 -1.58148 1.24704 0
M  V30 2248 C 214.492 -2.50414 2.39778 0
M  V30 2249 C 213.553 -2.30612 3.621 0
M  V30 2250 C 212.786 -3.55547 3.98023 0
M  V30 2251 O 213.009 -4.62004 3.34528 0
M  V30 2252 O 211.943 -3.47808 4.91237 0
M  V30 2253 H 215.769 -0.839559 2.91865 0
M  V30 2254 H 213.354 -0.349453 1.45256 0
M  V30 2255 H 215.236 -3.27747 2.64877 0
M  V30 2256 H 213.911 -2.85198 1.53114 0
M  V30 2257 H 212.818 -1.51207 3.4218 0
M  V30 2258 H 214.151 -2.00741 4.49404 0
M  V30 2259 N 215.803 -1.52179 -0.40978 0
M  V30 2260 C 216.766 -1.74853 -1.48186 0
M  V30 2261 C 217.766 -0.618417 -1.48433 0
M  V30 2262 O 218.956 -0.886286 -1.49969 0
M  V30 2263 C 216.088 -1.8303 -2.87598 0
M  V30 2264 H 217.281 -2.70559 -1.29374 0
M  V30 2265 H 214.834 -1.42586 -0.640233 0
M  V30 2266 H 215.569 -0.89236 -3.11781 0
M  V30 2267 H 215.354 -2.65187 -2.88822 0
M  V30 2268 H 216.844 -2.02316 -3.65319 0
M  V30 2269 N 217.281 0.66697 -1.42791 0
M  V30 2270 C 218.527 1.4291 -1.43891 0
M  V30 2271 C 218.86 1.94114 -0.0578972 0
M  V30 2272 O 218.135 1.71414 0.91911 0
M  V30 2273 C 218.418 2.62049 -2.46987 0
M  V30 2274 C 218.271 2.16426 -3.94309 0
M  V30 2275 C 219.59 3.64266 -2.46978 0
M  V30 2276 H 216.709 0.518306 -0.523954 0
M  V30 2277 H 219.351 0.757321 -1.74255 0
M  V30 2278 H 217.501 3.19361 -2.21225 0
M  V30 2279 H 219.173 1.64221 -4.31079 0
M  V30 2280 H 217.416 1.47925 -4.078 0
M  V30 2281 H 218.087 3.02038 -4.62036 0
M  V30 2282 H 220.563 3.16686 -2.69906 0
M  V30 2283 H 219.439 4.45196 -3.21079 0
M  V30 2284 H 219.7 4.15927 -1.49857 0
M  V30 2285 N 218.759 1.29093 0.90403 0
M  V30 2286 C 219.999 1.18076 1.66845 0
M  V30 2287 C 220.363 -0.26436 1.90171 0
M  V30 2288 O 221.564 -0.497423 2.64157 0
M  V30 2289 C 219.835 1.96722 2.98388 0
M  V30 2290 S 221.394 2.0219 3.89441 0
M  V30 2291 H 218.212 0.421104 0.572881 0
M  V30 2292 H 220.814 1.63322 1.07453 0
M  V30 2293 H 219.518 3.00866 2.7912 0
M  V30 2294 H 219.049 1.52064 3.62823 0
M  V30 2295 H 221.064 1.13545 4.83034 0
M  V30 2296 N 220.237 -1.11381 1.11499 0
M  V30 2297 C 221.485 -1.8277 0.862524 0
M  V30 2298 C 221.806 -1.85097 -0.613534 0
M  V30 2299 O 221.076 -1.32198 -1.4457 0
M  V30 2300 H 219.656 -0.676823 0.316101 0
M  V30 2301 H 222.318 -1.34816 1.4075 0
M  V30 2302 H 221.414 -2.86614 1.23527 0
M  V30 2303 N 221.715 -0.905404 -1.28997 0
M  V30 2304 C 222.662 -0.385892 -2.27551 0
M  V30 2305 C 223.632 0.535113 -1.57244 0
M  V30 2306 O 224.817 0.459119 -1.85194 0
M  V30 2307 C 221.957 0.375461 -3.43051 0
M  V30 2308 C 221.07 -0.577092 -4.28128 0
M  V30 2309 C 220.205 0.201879 -5.30816 0
M  V30 2310 C 219.244 -0.744829 -6.07551 0
M  V30 2311 N 218.381 9.42587e-05 -7.021 0
M  V30 2312 H 223.221 -1.23139 -2.71368 0
M  V30 2313 H 220.758 -0.618542 -1.33463 0
M  V30 2314 H 222.716 0.832992 -4.088 0
M  V30 2315 H 221.346 1.18537 -3.00248 0
M  V30 2316 H 220.398 -1.15315 -3.62501 0
M  V30 2317 H 221.71 -1.30152 -4.8152 0
M  V30 2318 H 220.864 0.720351 -6.02408 0
M  V30 2319 H 219.603 0.959413 -4.7817 0
M  V30 2320 H 218.608 -1.27475 -5.34818 0
M  V30 2321 H 219.833 -1.50178 -6.62286 0
M  V30 2322 H 217.779 0.739791 -6.51815 0
M  V30 2323 H 217.696 -0.664321 -7.53076 0
M  V30 2324 H 218.964 0.498644 -7.77903 0
M  V30 2325 N 223.193 1.4272 -0.668489 0
M  V30 2326 C 224.604 1.84793 -0.266151 0
M  V30 2327 C 224.955 1.55959 1.19043 0
M  V30 2328 O 224.08 1.01622 1.91055 0
M  V30 2329 C 224.675 3.35436 -0.476271 0
M  V30 2330 C 223.234 3.76182 -0.128113 0
M  V30 2331 C 222.381 2.66344 -0.771777 0
M  V30 2332 H 225.332 1.32656 -0.871098 0
M  V30 2333 H 225.353 3.79515 0.273561 0
M  V30 2334 H 224.865 3.5639 -1.53647 0
M  V30 2335 H 222.966 3.60836 0.928891 0
M  V30 2336 H 223.079 4.75766 -0.564231 0
M  V30 2337 H 221.443 2.53885 -0.203652 0
M  V30 2338 H 222.226 2.90123 -1.83531 0
M  V30 2339 N 224.671 0.411399 1.52136 0
M  V30 2340 C 225.618 -0.412975 2.27075 0
M  V30 2341 C 226.588 -1.03912 1.29582 0
M  V30 2342 O 227.773 -1.06296 1.58448 0
M  V30 2343 C 224.913 -1.52247 3.09701 0
M  V30 2344 C 224.026 -0.917021 4.22155 0
M  V30 2345 C 223.161 -1.9994 4.92135 0
M  V30 2346 C 222.2 -1.37101 5.96548 0
M  V30 2347 N 221.337 -2.39364 6.60038 0
M  V30 2348 H 226.177 0.232499 2.97092 0
M  V30 2349 H 223.714 0.126496 1.46555 0
M  V30 2350 H 225.672 -2.17674 3.55913 0
M  V30 2351 H 224.302 -2.13794 2.41851 0
M  V30 2352 H 223.354 -0.151742 3.80097 0
M  V30 2353 H 224.666 -0.418006 4.97045 0
M  V30 2354 H 223.82 -2.73088 5.41763 0
M  V30 2355 H 222.559 -2.53208 4.16818 0
M  V30 2356 H 221.564 -0.624873 5.46237 0
M  V30 2357 H 222.789 -0.845998 6.7381 0
M  V30 2358 H 220.735 -2.91759 5.87548 0
M  V30 2359 H 220.652 -1.9428 7.3061 0
M  V30 2360 H 221.92 -3.12074 7.14304 0
M  V30 2361 N 226.149 -1.5696 0.141893 0
M  V30 2362 C 227.097 -2.17784 -0.816874 0
M  V30 2363 C 228.091 -1.1334 -1.25899 0
M  V30 2364 O 229.297 -1.316 -1.22806 0
M  V30 2365 H 225.672 -0.697278 -0.281615 0
M  V30 2366 H 227.643 -2.97087 -0.279621 0
M  V30 2367 C 226.392 -2.80983 -2.04802 0
M  V30 2368 H 225.715 -3.61062 -1.7168 0
M  V30 2369 H 227.155 -3.2705 -2.69841 0
M  V30 2370 C 225.614 -1.79228 -2.8527 0
M  V30 2371 O 226.144 -1.25962 -3.8144 0
M  V30 2372 N 224.35 -1.48647 -2.49704 0
M  V30 2373 H 223.897 -1.92155 -1.71564 0
M  V30 2374 H 223.855 -0.808115 -3.03837 0
M  V30 2375 N 227.627 0.131896 -1.57047 0
M  V30 2376 C 229.038 0.690407 -1.73465 0
M  V30 2377 C 229.389 1.8094 -0.758629 0
M  V30 2378 O 228.514 2.16282 0.0713813 0
M  V30 2379 C 229.109 1.25916 -3.14532 0
M  V30 2380 C 227.668 1.76409 -3.32501 0
M  V30 2381 C 226.815 0.658579 -2.69366 0
M  V30 2382 H 229.766 -0.0939144 -1.58422 0
M  V30 2383 H 229.787 2.12892 -3.15369 0
M  V30 2384 H 229.299 0.444515 -3.85546 0
M  V30 2385 H 227.4 2.60391 -2.66509 0
M  V30 2386 H 227.513 1.88241 -4.4057 0
M  V30 2387 H 225.877 1.08899 -2.30246 0
M  V30 2388 H 226.66 -0.14487 -3.42994 0
M  V30 2389 N 229.106 1.52395 0.401703 0
M  V30 2390 C 230.069 1.75636 1.47257 0
M  V30 2391 C 231.069 0.62628 1.48103 0
M  V30 2392 O 232.259 0.894227 1.49497 0
M  V30 2393 C 229.391 1.84553 2.86624 0
M  V30 2394 H 230.584 2.71241 1.27938 0
M  V30 2395 H 228.137 1.42923 0.632662 0
M  V30 2396 H 228.872 0.908882 3.11303 0
M  V30 2397 H 228.657 2.66715 2.87412 0
M  V30 2398 H 230.147 2.04251 3.64241 0
M  V30 2399 N 230.584 -0.659388 1.43143 0
M  V30 2400 C 231.532 -1.79374 1.4808 0
M  V30 2401 C 232.526 -1.65639 0.354988 0
M  V30 2402 O 233.732 -1.7206 0.528704 0
M  V30 2403 H 230.107 -0.591705 0.4641 0
M  V30 2404 H 232.078 -1.72329 2.43609 0
M  V30 2405 C 230.827 -3.17606 1.41499 0
M  V30 2406 H 230.15 -3.28809 2.27431 0
M  V30 2407 H 231.59 -3.96951 1.49015 0
M  V30 2408 C 230.049 -3.36642 0.131765 0
M  V30 2409 O 230.579 -3.93461 -0.809386 0
M  V30 2410 N 228.785 -2.90567 0.0439396 0
M  V30 2411 H 228.332 -2.44513 0.810619 0
M  V30 2412 H 228.29 -3.03681 -0.813969 0
M  V30 2413 N 232.062 -1.29571 -0.897171 0
M  V30 2414 C 233.473 -1.15964 -1.46319 0
M  V30 2415 C 233.824 0.244267 -1.94674 0
M  V30 2416 O 232.949 1.13998 -1.83939 0
M  V30 2417 C 233.544 -2.09906 -2.65942 0
M  V30 2418 C 232.103 -2.00314 -3.18671 0
M  V30 2419 C 231.25 -2.00687 -1.91363 0
M  V30 2420 H 234.201 -1.42019 -0.708268 0
M  V30 2421 H 234.222 -1.67276 -3.41759 0
M  V30 2422 H 233.734 -3.12075 -2.30718 0
M  V30 2423 H 231.835 -1.01242 -3.58582 0
M  V30 2424 H 231.948 -2.88102 -3.82798 0
M  V30 2425 H 230.312 -1.45319 -2.09175 0
M  V30 2426 H 231.095 -3.04566 -1.58413 0
M  V30 2427 N 233.54 1.10788 -1.12088 0
M  V30 2428 C 234.786 1.82942 -0.875226 0
M  V30 2429 C 235.119 1.84779 0.597538 0
M  V30 2430 O 234.394 1.30578 1.44152 0
M  V30 2431 C 234.677 3.29789 -1.44606 0
M  V30 2432 C 234.53 3.36307 -2.98693 0
M  V30 2433 C 235.849 4.26064 -1.10261 0
M  V30 2434 H 232.968 0.664195 -0.319397 0
M  V30 2435 H 235.61 1.29867 -1.38689 0
M  V30 2436 H 233.76 3.75118 -1.01089 0
M  V30 2437 H 235.432 2.99487 -3.50864 0
M  V30 2438 H 233.675 2.76318 -3.34411 0
M  V30 2439 H 234.346 4.39694 -3.33726 0
M  V30 2440 H 236.822 3.88951 -1.4784 0
M  V30 2441 H 235.698 5.27183 -1.52869 0
M  V30 2442 H 235.959 4.42098 -0.0142953 0
M  V30 2443 N 235.018 0.912232 1.28515 0
M  V30 2444 C 235.95 0.35676 2.26406 0
M  V30 2445 C 236.963 -0.503933 1.54804 0
M  V30 2446 O 238.152 -0.319059 1.75625 0
M  V30 2447 C 235.252 -0.508825 3.35058 0
M  V30 2448 C 234.425 0.329007 4.36161 0
M  V30 2449 C 233.484 -0.471422 5.24084 0
M  V30 2450 O 232.51 0.115482 5.69083 0
M  V30 2451 N 233.712 -1.77479 5.52704 0
M  V30 2452 H 236.477 1.19818 2.74707 0
M  V30 2453 H 234.038 0.778022 1.4198 0
M  V30 2454 H 236.03 -1.051 3.90815 0
M  V30 2455 H 234.6 -1.25095 2.86478 0
M  V30 2456 H 233.82 1.05256 3.79888 0
M  V30 2457 H 235.108 0.90234 5.00735 0
M  V30 2458 H 234.506 -2.27417 5.17975 0
M  V30 2459 H 233.063 -2.26382 6.11224 0
M  V30 2460 N 236.496 -1.42363 0.676048 0
M  V30 2461 C 237.912 -1.55811 0.345718 0
M  V30 2462 C 238.112 -1.65544 -1.14879 0
M  V30 2463 O 237.168 -1.62306 -1.93424 0
M  V30 2464 C 238.481 -2.80746 1.07713 0
M  V30 2465 C 240.029 -2.9452 1.05958 0
M  V30 2466 C 240.504 -4.22318 1.77233 0
M  V30 2467 N 241.995 -4.29233 1.74108 0
M  V30 2468 C 242.73 -5.26935 2.26113 0
M  V30 2469 N 242.226 -6.30783 2.86505 0
M  V30 2470 N 244.019 -5.18741 2.1648 0
M  V30 2471 H 236.17 -1.34289 1.6456 0
M  V30 2472 H 238.433 -0.646506 0.69335 0
M  V30 2473 H 238.139 -2.79696 2.13221 0
M  V30 2474 H 238.013 -3.71676 0.64316 0
M  V30 2475 H 240.4 -2.95097 0.0128255 0
M  V30 2476 H 240.481 -2.04817 1.53244 0
M  V30 2477 H 240.125 -4.22502 2.81877 0
M  V30 2478 H 240.055 -5.10958 1.27396 0
M  V30 2479 H 242.546 -3.54814 1.30059 0
M  V30 2480 H 242.859 -7.01691 3.23805 0
M  V30 2481 H 241.204 -6.31341 2.90575 0
M  V30 2482 H 244.395 -4.36533 1.68987 0
M  V30 2483 H 244.568 -5.94721 2.57316 0
M  V30 2484 N 237.974 -0.419461 -1.51915 0
M  V30 2485 C 239.223 0.154346 -2.01109 0
M  V30 2486 C 239.536 1.45338 -1.30905 0
M  V30 2487 O 240.742 2.10906 -1.7097 0
M  V30 2488 C 239.198 0.325615 -3.58424 0
M  V30 2489 C 238.806 -0.961934 -4.37551 0
M  V30 2490 C 240.55 0.854155 -4.15818 0
M  V30 2491 C 238.457 -0.757287 -5.86531 0
M  V30 2492 H 237.387 0.0614563 -0.751491 0
M  V30 2493 H 240.038 -0.54649 -1.75173 0
M  V30 2494 H 238.42 1.08903 -3.80731 0
M  V30 2495 H 239.594 -1.7323 -4.26999 0
M  V30 2496 H 237.909 -1.41766 -3.91524 0
M  V30 2497 H 240.506 1.02346 -5.24814 0
M  V30 2498 H 240.849 1.83172 -3.73837 0
M  V30 2499 H 241.382 0.149528 -3.97519 0
M  V30 2500 H 238.121 -1.70671 -6.32892 0
M  V30 2501 H 237.641 -0.0264061 -5.99794 0
M  V30 2502 H 239.32 -0.403482 -6.45741 0
M  V30 2503 N 239.452 1.56882 -0.150215 0
M  V30 2504 C 240.382 2.19935 0.784284 0
M  V30 2505 C 241.363 1.14854 1.25469 0
M  V30 2506 O 242.548 1.43209 1.31168 0
M  V30 2507 C 239.678 2.82349 2.02229 0
M  V30 2508 C 238.632 3.93285 1.68853 0
M  V30 2509 C 237.958 4.42649 2.99944 0
M  V30 2510 C 239.258 5.13904 0.932714 0
M  V30 2511 H 240.952 2.9828 0.258781 0
M  V30 2512 H 238.498 1.43473 0.123029 0
M  V30 2513 H 240.451 3.25126 2.68088 0
M  V30 2514 H 239.175 2.0134 2.57157 0
M  V30 2515 H 237.834 3.5113 1.05371 0
M  V30 2516 H 237.482 3.58458 3.52869 0
M  V30 2517 H 237.182 5.17476 2.78374 0
M  V30 2518 H 238.706 4.88099 3.66868 0
M  V30 2519 H 240.12 5.53506 1.49345 0
M  V30 2520 H 238.517 5.94515 0.81684 0
M  V30 2521 H 239.587 4.84842 -0.0749568 0
M  V30 2522 N 240.93 -0.123565 1.57115 0
M  V30 2523 C 242.178 -0.83051 1.84247 0
M  V30 2524 C 242.499 -1.80629 0.73471 0
M  V30 2525 O 241.769 -1.94403 -0.241688 0
M  V30 2526 H 240.349 -0.309694 0.679778 0
M  V30 2527 H 243.011 -0.111976 1.94578 0
M  V30 2528 H 242.107 -1.37852 2.80006 0
M  V30 2529 N 242.408 -1.52605 -0.393616 0
M  V30 2530 C 243.656 -1.67093 -1.13685 0
M  V30 2531 C 243.977 -0.411011 -1.90619 0
M  V30 2532 O 243.247 0.574491 -1.87287 0
M  V30 2533 H 241.827 -0.615923 -0.422668 0
M  V30 2534 H 244.489 -1.89704 -0.447039 0
M  V30 2535 H 243.585 -2.51922 -1.84232 0
M  V30 2536 N 243.887 0.651787 -1.4349 0
M  V30 2537 C 244.837 1.75783 -1.45205 0
M  V30 2538 C 245.821 1.57679 -0.320328 0
M  V30 2539 O 247.013 1.67767 -0.564211 0
M  V30 2540 C 244.142 3.14377 -1.3792 0
M  V30 2541 C 243.228 3.38023 -2.56127 0
M  V30 2542 N 243.619 3.32135 -3.81471 0
M  V30 2543 C 241.917 3.68747 -2.50882 0
M  V30 2544 C 242.618 3.55902 -4.60118 0
M  V30 2545 N 241.594 3.77783 -3.90872 0
M  V30 2546 H 245.396 1.69657 -2.39987 0
M  V30 2547 H 242.91 0.853508 -1.38163 0
M  V30 2548 H 244.907 3.93666 -1.37231 0
M  V30 2549 H 243.567 3.21683 -0.441596 0
M  V30 2550 H 244.578 3.11515 -4.13738 0
M  V30 2551 H 241.255 3.8316 -1.65816 0
M  V30 2552 H 242.645 3.57116 -5.69138 0
M  V30 2553 N 245.365 1.30045 0.890287 0
M  V30 2554 C 246.295 1.18541 2.01172 0
M  V30 2555 C 247.276 0.0773356 1.69924 0
M  V30 2556 O 248.461 0.25845 1.92473 0
M  V30 2557 C 245.591 0.870941 3.36202 0
M  V30 2558 C 244.545 1.93637 3.81692 0
M  V30 2559 C 243.871 1.475 5.13953 0
M  V30 2560 C 245.171 3.34666 4.00994 0
M  V30 2561 H 246.865 2.12359 2.11054 0
M  V30 2562 H 244.411 1.02238 1.01407 0
M  V30 2563 H 246.364 0.777141 4.14172 0
M  V30 2564 H 245.088 -0.102926 3.26438 0
M  V30 2565 H 243.747 2.01972 3.05946 0
M  V30 2566 H 243.395 0.489551 5.00612 0
M  V30 2567 H 243.095 2.1876 5.4536 0
M  V30 2568 H 244.619 1.39489 5.94454 0
M  V30 2569 H 246.033 3.2912 4.69417 0
M  V30 2570 H 244.43 4.03966 4.43769 0
M  V30 2571 H 245.5 3.76949 3.05021 0
M  V30 2572 N 246.843 -1.10192 1.12674 0
M  V30 2573 C 248.12 -1.78717 0.794965 0
M  V30 2574 C 248.5 -1.98628 -0.714853 0
M  V30 2575 O 247.848 -1.58135 -1.64941 0
M  V30 2576 C 248.058 -3.11546 1.5729 0
M  V30 2577 C 249.406 -3.86382 1.76052 0
M  V30 2578 O 250.43 -3.21274 1.53823 0
M  V30 2579 O 249.289 -5.03246 2.13087 0
M  V30 2580 H 246.383 -0.774702 0.289423 0
M  V30 2581 H 248.929 -1.16819 1.23091 0
M  V30 2582 H 247.701 -2.92489 2.59935 0
M  V30 2583 H 247.324 -3.81164 1.13137 0
M  V30 2584 N 248.321 -0.919034 -1.28029 0
M  V30 2585 C 249.284 -0.416182 -2.2539 0
M  V30 2586 C 250.284 0.460438 -1.54067 0
M  V30 2587 O 251.474 0.262744 -1.72207 0
M  V30 2588 C 248.606 0.402707 -3.38513 0
M  V30 2589 H 249.799 -1.27629 -2.71387 0
M  V30 2590 H 247.352 -0.698919 -1.39803 0
M  V30 2591 H 248.087 1.282 -2.97885 0
M  V30 2592 H 247.872 -0.225698 -3.9145 0
M  V30 2593 H 249.362 0.745191 -4.10897 0
M  V30 2594 N 249.799 1.42003 -0.683588 0
M  V30 2595 C 250.746 2.30798 -0.0107309 0
M  V30 2596 C 251.716 1.4645 0.783688 0
M  V30 2597 O 252.901 1.75263 0.754156 0
M  V30 2598 C 250.041 3.3238 0.928306 0
M  V30 2599 C 249.154 4.31814 0.126776 0
M  V30 2600 C 248.289 5.20468 1.06236 0
M  V30 2601 C 247.328 6.11577 0.253035 0
M  V30 2602 N 246.465 6.92754 1.14179 0
M  V30 2603 H 251.305 2.8778 -0.773727 0
M  V30 2604 H 248.842 1.41745 -0.393283 0
M  V30 2605 H 250.8 3.89813 1.48666 0
M  V30 2606 H 249.43 2.76976 1.65783 0
M  V30 2607 H 248.482 3.76427 -0.54833 0
M  V30 2608 H 249.794 4.96276 -0.501192 0
M  V30 2609 H 248.948 5.82677 1.69035 0
M  V30 2610 H 247.687 4.56204 1.7242 0
M  V30 2611 H 246.692 5.48428 -0.388108 0
M  V30 2612 H 247.917 6.77892 -0.404839 0
M  V30 2613 H 245.863 6.3111 1.78987 0
M  V30 2614 H 245.78 7.53855 0.569111 0
M  V30 2615 H 247.048 7.59441 1.75697 0
M  V30 2616 N 251.277 0.427512 1.51691 0
M  V30 2617 C 252.525 -0.141948 2.01601 0
M  V30 2618 C 252.846 -1.44067 1.31414 0
M  V30 2619 O 252.116 -1.90763 0.445658 0
M  V30 2620 H 250.696 -0.0554468 0.744939 0
M  V30 2621 H 253.358 0.567968 1.86441 0
M  V30 2622 H 252.454 -0.324913 3.10404 0
M  V30 2623 N 252.755 -1.56801 0.158532 0
M  V30 2624 C 253.98 -2.01295 -0.499516 0
M  V30 2625 C 254.405 -1.03799 -1.56867 0
M  V30 2626 O 253.763 -0.0155162 -1.81293 0
M  V30 2627 C 253.811 -3.44469 -1.06647 0
M  V30 2628 O 252.915 -3.50012 -2.18095 0
M  V30 2629 H 252.256 -0.652884 -0.12099 0
M  V30 2630 H 254.786 -2.02958 0.258661 0
M  V30 2631 H 254.796 -3.8351 -1.39227 0
M  V30 2632 H 253.471 -4.14932 -0.283581 0
M  V30 2633 H 252.048 -3.22822 -1.86656 0
M  V30 2634 N 254.233 0.115231 -1.57178 0
M  V30 2635 C 255.48 0.822351 -1.8505 0
M  V30 2636 C 255.808 1.79701 -0.744168 0
M  V30 2637 O 255.063 1.93909 0.26414 0
M  V30 2638 C 255.362 1.60324 -3.19423 0
M  V30 2639 C 255.028 0.772536 -4.44233 0
M  V30 2640 C 253.69 0.543468 -4.78121 0
M  V30 2641 C 256.042 0.193746 -5.2084 0
M  V30 2642 C 253.37 -0.274583 -5.86057 0
M  V30 2643 C 255.722 -0.611517 -6.29637 0
M  V30 2644 C 254.386 -0.850867 -6.62055 0
M  V30 2645 H 253.656 0.30092 -0.677147 0
M  V30 2646 H 256.303 0.0845802 -1.91313 0
M  V30 2647 H 254.608 2.41203 -3.08753 0
M  V30 2648 H 256.305 2.1544 -3.38211 0
M  V30 2649 H 252.895 0.96117 -4.17683 0
M  V30 2650 H 257.079 0.357926 -4.95008 0
M  V30 2651 H 252.335 -0.469206 -6.09597 0
M  V30 2652 H 256.509 -1.06697 -6.88178 0
M  V30 2653 H 254.136 -1.48657 -7.45523 0
M  V30 2654 N 255.711 1.52812 0.385517 0
M  V30 2655 C 257.122 1.5993 0.963293 0
M  V30 2656 C 257.473 0.454302 1.90868 0
M  V30 2657 O 256.598 -0.422132 2.12243 0
M  V30 2658 C 257.193 2.89871 1.75387 0
M  V30 2659 C 255.752 2.99389 2.28129 0
M  V30 2660 C 254.899 2.55071 1.08783 0
M  V30 2661 H 257.85 1.5784 0.164948 0
M  V30 2662 H 257.871 2.76553 2.61341 0
M  V30 2663 H 257.383 3.73186 1.06554 0
M  V30 2664 H 255.484 2.20619 3.00263 0
M  V30 2665 H 255.597 4.04096 2.57377 0
M  V30 2666 H 253.961 2.09473 1.4489 0
M  V30 2667 H 254.744 3.40785 0.414807 0
M  V30 2668 N 257.189 -0.644168 1.43834 0
M  V30 2669 C 258.435 -1.40431 1.47141 0
M  V30 2670 C 258.79 -1.92153 0.0975577 0
M  V30 2671 O 258.083 -1.69924 -0.885232 0
M  V30 2672 C 258.277 -2.59615 2.45631 0
M  V30 2673 C 258.106 -2.1956 3.92458 0
M  V30 2674 C 256.876 -2.07456 4.60749 0
M  V30 2675 C 259.074 -1.79281 4.8204 0
M  V30 2676 N 257.056 -1.60827 5.92459 0
M  V30 2677 C 258.427 -1.43801 6.03093 0
M  V30 2678 C 260.482 -1.66545 4.6922 0
M  V30 2679 C 259.185 -0.968599 7.12749 0
M  V30 2680 C 261.211 -1.21008 5.78888 0
M  V30 2681 C 260.573 -0.864711 6.99072 0
M  V30 2682 H 256.672 -0.509182 0.593513 0
M  V30 2683 H 259.256 -0.740351 1.80075 0
M  V30 2684 H 257.427 -3.23658 2.1471 0
M  V30 2685 H 259.159 -3.26357 2.39318 0
M  V30 2686 H 255.914 -2.275 4.1538 0
M  V30 2687 H 256.338 -1.39848 6.62398 0
M  V30 2688 H 260.98 -1.91883 3.7675 0
M  V30 2689 H 258.698 -0.702715 8.05039 0
M  V30 2690 H 262.284 -1.11631 5.7099 0
M  V30 2691 H 261.164 -0.517736 7.82489 0
M  V30 2692 N 258.668 -1.30515 -0.883378 0
M  V30 2693 C 259.6 -1.12846 -1.99496 0
M  V30 2694 C 260.613 -0.0712571 -1.62644 0
M  V30 2695 O 261.802 -0.317432 -1.75655 0
M  V30 2696 C 258.902 -0.699123 -3.3161 0
M  V30 2697 C 258.075 -1.83842 -3.96889 0
M  V30 2698 C 257.134 -1.39737 -5.07307 0
M  V30 2699 O 256.16 -2.10485 -5.28852 0
M  V30 2700 N 257.362 -0.277279 -5.79837 0
M  V30 2701 H 260.127 -2.08585 -2.15203 0
M  V30 2702 H 257.688 -1.22672 -1.05656 0
M  V30 2703 H 259.68 -0.387044 -4.02845 0
M  V30 2704 H 258.25 0.166276 -3.12157 0
M  V30 2705 H 257.47 -2.31853 -3.18807 0
M  V30 2706 H 258.758 -2.60187 -4.37241 0
M  V30 2707 H 258.156 0.3122 -5.64838 0
M  V30 2708 H 256.713 -0.0246623 -6.51795 0
M  V30 2709 N 260.146 1.09593 -1.13257 0
M  V30 2710 C 261.109 2.14359 -0.811358 0
M  V30 2711 C 262.109 1.59808 0.178377 0
M  V30 2712 O 263.299 1.74132 -0.0484911 0
M  V30 2713 C 260.431 3.40269 -0.207276 0
M  V30 2714 H 261.624 2.44284 -1.73969 0
M  V30 2715 H 259.177 1.25102 -0.936973 0
M  V30 2716 H 259.912 3.15969 0.73036 0
M  V30 2717 H 259.697 3.81154 -0.919992 0
M  V30 2718 H 261.187 4.176 0.000667944 0
M  V30 2719 N 261.624 0.925811 1.2754 0
M  V30 2720 C 262.571 0.422045 2.26908 0
M  V30 2721 C 263.541 -0.510029 1.58076 0
M  V30 2722 O 264.726 -0.429599 1.85901 0
M  V30 2723 C 261.866 -0.320837 3.43605 0
M  V30 2724 C 260.979 0.64513 4.27156 0
M  V30 2725 C 260.114 -0.117405 5.3107 0
M  V30 2726 C 259.153 0.841391 6.0629 0
M  V30 2727 N 258.29 0.111604 7.02011 0
M  V30 2728 H 263.13 1.27441 2.69375 0
M  V30 2729 H 260.667 0.639697 1.32462 0
M  V30 2730 H 262.625 -0.76785 4.10073 0
M  V30 2731 H 261.255 -1.13745 3.02096 0
M  V30 2732 H 260.307 1.21067 3.6062 0
M  V30 2733 H 261.619 1.37797 4.79389 0
M  V30 2734 H 260.773 -0.624422 6.03478 0
M  V30 2735 H 259.512 -0.883219 4.79636 0
M  V30 2736 H 258.517 1.35967 5.32722 0
M  V30 2737 H 259.742 1.60696 6.59813 0
M  V30 2738 H 257.688 -0.635999 6.5291 0
M  V30 2739 H 257.605 0.784044 7.51923 0
M  V30 2740 H 258.873 -0.374823 7.78598 0
M  V30 2741 N 263.102 -1.41638 0.69111 0
M  V30 2742 C 264.035 -2.28183 -0.0274913 0
M  V30 2743 C 265.013 -1.41984 -0.792424 0
M  V30 2744 O 266.197 -1.71415 -0.784169 0
M  V30 2745 C 263.324 -3.22135 -1.04628 0
M  V30 2746 C 262.37 -4.24848 -0.375037 0
M  V30 2747 S 263.203 -5.28231 0.879321 0
M  V30 2748 C 264.359 -6.25748 -0.137983 0
M  V30 2749 H 264.592 -2.88782 0.706553 0
M  V30 2750 H 262.125 -1.46709 0.481222 0
M  V30 2751 H 264.083 -3.76797 -1.62894 0
M  V30 2752 H 262.744 -2.6064 -1.75287 0
M  V30 2753 H 261.937 -4.90837 -1.14433 0
M  V30 2754 H 261.539 -3.73758 0.134434 0
M  V30 2755 H 263.831 -6.70188 -0.992659 0
M  V30 2756 H 264.774 -7.06417 0.487867 0
M  V30 2757 H 265.182 -5.62363 -0.490762 0
M  V30 2758 N 264.58 -0.43555 -1.51462 0
M  V30 2759 C 265.826 0.131709 -2.02372 0
M  V30 2760 C 266.159 1.42516 -1.3192 0
M  V30 2761 O 265.434 1.89606 -0.433573 0
M  V30 2762 C 265.717 0.352301 -3.58373 0
M  V30 2763 C 265.57 -0.959676 -4.39443 0
M  V30 2764 C 266.889 1.12286 -4.25535 0
M  V30 2765 H 264.008 0.0463936 -0.735538 0
M  V30 2766 H 266.65 -0.574197 -1.81116 0
M  V30 2767 H 264.8 0.9536 -3.76615 0
M  V30 2768 H 266.472 -1.59482 -4.32855 0
M  V30 2769 H 264.715 -1.56468 -4.04599 0
M  V30 2770 H 265.386 -0.759394 -5.46752 0
M  V30 2771 H 267.862 0.613545 -4.11552 0
M  V30 2772 H 266.738 1.24598 -5.34571 0
M  V30 2773 H 266.999 2.15048 -3.86273 0
M  V30 2774 N 266.058 1.56714 -0.166846 0
M  V30 2775 C 267.283 2.01557 0.488833 0
M  V30 2776 C 267.708 1.0463 1.56314 0
M  V30 2777 O 267.066 0.0251304 1.81283 0
M  V30 2778 C 267.114 3.4503 1.04818 0
M  V30 2779 O 266.218 3.51163 2.16236 0
M  V30 2780 H 265.559 0.653516 0.117526 0
M  V30 2781 H 268.089 2.02818 -0.269421 0
M  V30 2782 H 268.099 3.84243 1.37191 0
M  V30 2783 H 266.774 4.15077 0.261572 0
M  V30 2784 H 265.351 3.23807 1.84942 0
M  V30 2785 N 267.536 -0.106894 1.57237 0
M  V30 2786 C 268.486 -1.1366 1.9765 0
M  V30 2787 C 269.47 -1.36416 0.853203 0
M  V30 2788 O 270.662 -1.37305 1.11697 0
M  V30 2789 C 267.791 -2.46 2.39455 0
M  V30 2790 C 266.877 -2.26668 3.58445 0
M  V30 2791 N 267.268 -1.77176 4.73754 0
M  V30 2792 C 265.566 -2.57279 3.64312 0
M  V30 2793 C 266.267 -1.71836 5.5574 0
M  V30 2794 N 265.243 -2.16623 4.98573 0
M  V30 2795 H 269.045 -0.74669 2.84256 0
M  V30 2796 H 266.559 -0.314483 1.59326 0
M  V30 2797 H 268.556 -3.2049 2.6663 0
M  V30 2798 H 267.216 -2.85738 1.54219 0
M  V30 2799 H 268.227 -1.46545 4.96734 0
M  V30 2800 H 264.904 -3.00622 2.89711 0
M  V30 2801 H 266.294 -1.34723 6.58255 0
M  V30 2802 N 269.014 -1.53014 -0.377408 0
M  V30 2803 C 269.964 -1.74996 -1.46152 0
M  V30 2804 C 270.948 -0.604236 -1.49123 0
M  V30 2805 O 272.14 -0.862489 -1.54564 0
M  V30 2806 C 269.269 -1.93267 -2.8373 0
M  V30 2807 C 268.355 -3.13807 -2.85283 0
M  V30 2808 N 268.746 -4.35941 -2.56493 0
M  V30 2809 C 267.044 -3.14288 -3.16448 0
M  V30 2810 C 267.745 -5.17615 -2.65424 0
M  V30 2811 N 266.721 -4.53559 -2.99641 0
M  V30 2812 H 270.523 -2.67044 -1.22738 0
M  V30 2813 H 268.037 -1.51479 -0.585479 0
M  V30 2814 H 270.034 -2.0714 -3.61799 0
M  V30 2815 H 268.694 -1.0244 -3.08117 0
M  V30 2816 H 269.705 -4.63876 -2.30302 0
M  V30 2817 H 266.382 -2.33312 -3.46225 0
M  V30 2818 H 267.772 -6.25006 -2.46612 0
M  V30 2819 N 270.492 0.636531 -1.44174 0
M  V30 2820 C 271.44 1.76995 -1.50915 0
M  V30 2821 C 272.434 1.65053 -0.381295 0
M  V30 2822 O 273.64 1.71197 -0.55601 0
M  V30 2823 H 270.015 0.584247 -0.473455 0
M  V30 2824 H 271.986 1.68432 -2.4632 0
M  V30 2825 C 270.735 3.15314 -1.46534 0
M  V30 2826 H 270.058 3.25149 -2.32633 0
M  V30 2827 H 271.498 3.9453 -1.55312 0
M  V30 2828 C 269.957 3.3639 -0.185305 0
M  V30 2829 O 270.487 3.94699 0.746688 0
M  V30 2830 N 268.693 2.9046 -0.0901606 0
M  V30 2831 H 268.24 2.43193 -0.849416 0
M  V30 2832 H 268.198 3.04937 0.765553 0
M  V30 2833 N 271.97 1.30982 0.876444 0
M  V30 2834 C 272.9 1.20668 1.99903 0
M  V30 2835 C 273.881 0.095354 1.69833 0
M  V30 2836 O 275.066 0.27885 1.92188 0
M  V30 2837 C 272.196 0.90655 3.3526 0
M  V30 2838 C 271.15 1.97675 3.79617 0
M  V30 2839 C 270.476 1.52943 5.1236 0
M  V30 2840 C 271.776 3.389 3.97422 0
M  V30 2841 H 273.47 2.14586 2.0879 0
M  V30 2842 H 271.016 1.03308 1.00317 0
M  V30 2843 H 272.969 0.821025 4.13324 0
M  V30 2844 H 271.693 -0.0682969 3.26529 0
M  V30 2845 H 270.352 2.05205 3.03787 0
M  V30 2846 H 270 0.54262 5.00065 0
M  V30 2847 H 269.7 2.24532 5.43009 0
M  V30 2848 H 271.224 1.45786 5.92941 0
M  V30 2849 H 272.638 3.34081 4.659 0
M  V30 2850 H 271.035 4.0865 4.3946 0
M  V30 2851 H 272.105 3.80163 3.01006 0
M  V30 2852 N 273.449 -1.08991 1.13837 0
M  V30 2853 C 274.677 -1.85011 0.926202 0
M  V30 2854 C 275.092 -1.8135 -0.525127 0
M  V30 2855 O 274.449 -1.21287 -1.36366 0
M  V30 2856 C 274.5 -3.32802 1.41155 0
M  V30 2857 O 274.221 -3.36444 2.80601 0
M  V30 2858 C 275.722 -4.25649 1.23847 0
M  V30 2859 H 272.942 -0.584249 0.32999 0
M  V30 2860 H 275.486 -1.37688 1.51202 0
M  V30 2861 H 273.641 -3.77536 0.868631 0
M  V30 2862 H 274.055 -4.28657 3.02248 0
M  V30 2863 H 275.529 -5.27485 1.62675 0
M  V30 2864 H 276.006 -4.38828 0.18065 0
M  V30 2865 H 276.612 -3.86735 1.76964 0
M  V30 2866 N 274.927 -0.932562 -1.27047 0
M  V30 2867 C 276.155 -0.592031 -1.98249 0
M  V30 2868 C 276.57 0.831062 -1.69525 0
M  V30 2869 O 275.927 1.55299 -0.958561 0
M  V30 2870 C 275.978 -0.814279 -3.5221 0
M  V30 2871 O 275.699 -2.18139 -3.7993 0
M  V30 2872 C 277.2 -0.483121 -4.4066 0
M  V30 2873 H 274.42 -0.223896 -0.632544 0
M  V30 2874 H 276.964 -1.25091 -1.61779 0
M  V30 2875 H 275.119 -0.20213 -3.86872 0
M  V30 2876 H 275.533 -2.235 -4.74498 0
M  V30 2877 H 277.007 -0.689298 -5.47679 0
M  V30 2878 H 277.484 0.581546 -4.35333 0
M  V30 2879 H 278.09 -1.07362 -4.11526 0
M  V30 2880 N 276.405 1.4127 -0.698611 0
M  V30 2881 C 277.653 2.00782 -0.230409 0
M  V30 2882 C 277.974 1.5562 1.17505 0
M  V30 2883 O 277.244 0.78815 1.79346 0
M  V30 2884 H 275.824 0.742464 -0.0821944 0
M  V30 2885 H 278.486 1.72852 -0.90045 0
M  V30 2886 H 277.582 3.11095 -0.25021 0
M  V30 2887 N 277.883 0.443576 1.51229 0
M  V30 2888 C 278.846 -0.353132 2.26463 0
M  V30 2889 C 279.846 -0.944338 1.3015 0
M  V30 2890 O 281.036 -0.817813 1.5381 0
M  V30 2891 C 278.168 -1.50023 3.06114 0
M  V30 2892 H 279.361 0.3063 2.98332 0
M  V30 2893 H 276.914 0.196902 1.55055 0
M  V30 2894 H 277.649 -2.19553 2.38677 0
M  V30 2895 H 277.434 -1.08241 3.76864 0
M  V30 2896 H 278.924 -2.06296 3.63087 0
M  V30 2897 N 279.361 -1.56624 0.175154 0
M  V30 2898 C 280.589 -2.01374 -0.474971 0
M  V30 2899 C 281.004 -1.05537 -1.56548 0
M  V30 2900 O 280.361 -0.0568668 -1.82411 0
M  V30 2901 C 280.412 -3.45923 -1.04975 0
M  V30 2902 O 280.133 -4.381 -0.00276605 0
M  V30 2903 C 281.634 -4.06093 -1.77773 0
M  V30 2904 H 278.854 -0.659962 -0.121206 0
M  V30 2905 H 281.398 -2.02601 0.27801 0
M  V30 2906 H 279.553 -3.45458 -1.75321 0
M  V30 2907 H 279.967 -5.22753 -0.427681 0
M  V30 2908 H 281.441 -5.09147 -2.13245 0
M  V30 2909 H 281.918 -3.48405 -2.67414 0
M  V30 2910 H 282.524 -4.10272 -1.12059 0
M  V30 2911 N 280.839 0.0985539 -1.57292 0
M  V30 2912 C 281.769 1.12064 -2.04851 0
M  V30 2913 C 282.75 1.41981 -0.936767 0
M  V30 2914 O 283.935 1.52071 -1.20781 0
M  V30 2915 C 281.065 2.44144 -2.47004 0
M  V30 2916 C 280.019 2.28643 -3.6181 0
M  V30 2917 C 279.345 3.65869 -3.89929 0
M  V30 2918 C 280.645 1.72986 -4.92822 0
M  V30 2919 H 282.339 0.724979 -2.9049 0
M  V30 2920 H 279.885 0.34729 -1.39749 0
M  V30 2921 H 281.838 3.15914 -2.78884 0
M  V30 2922 H 280.562 2.85639 -1.5836 0
M  V30 2923 H 279.221 1.59318 -3.30172 0
M  V30 2924 H 278.869 4.04885 -2.98458 0
M  V30 2925 H 278.569 3.56344 -4.67218 0
M  V30 2926 H 280.093 4.39112 -4.2428 0
M  V30 2927 H 281.507 2.34593 -5.23105 0
M  V30 2928 H 279.904 1.74229 -5.74251 0
M  V30 2929 H 280.974 0.689007 -4.7998 0
M  V30 2930 N 282.317 1.53212 0.369288 0
M  V30 2931 C 283.566 1.68436 1.10961 0
M  V30 2932 C 283.879 0.440738 1.9057 0
M  V30 2933 O 285.085 0.473446 2.6734 0
M  V30 2934 C 283.541 2.97744 2.0218 0
M  V30 2935 C 283.149 4.29355 1.279 0
M  V30 2936 C 284.893 3.22334 2.76226 0
M  V30 2937 C 282.8 5.49755 2.17999 0
M  V30 2938 H 281.73 0.627568 0.41794 0
M  V30 2939 H 284.381 1.79713 0.370884 0
M  V30 2940 H 282.763 2.8026 2.79768 0
M  V30 2941 H 283.937 4.57458 0.554007 0
M  V30 2942 H 282.252 4.11179 0.657311 0
M  V30 2943 H 284.849 4.09471 3.43857 0
M  V30 2944 H 285.192 2.38238 3.41392 0
M  V30 2945 H 285.725 3.40475 2.05723 0
M  V30 2946 H 282.464 6.36318 1.57417 0
M  V30 2947 H 281.984 5.25937 2.88359 0
M  V30 2948 H 283.663 5.84401 2.77641 0
M  V30 2949 N 283.795 -0.628877 1.44509 0
M  V30 2950 C 284.743 -1.76193 1.51852 0
M  V30 2951 C 285.737 -1.64849 0.390042 0
M  V30 2952 O 286.943 -1.709 0.565082 0
M  V30 2953 H 283.318 -0.581728 0.476547 0
M  V30 2954 H 285.289 -1.67123 2.47209 0
M  V30 2955 C 284.038 -3.14533 1.48204 0
M  V30 2956 H 283.361 -3.23911 2.34354 0
M  V30 2957 H 284.801 -3.93701 1.57402 0
M  V30 2958 C 283.26 -3.36287 0.203142 0
M  V30 2959 O 283.79 -3.9509 -0.725745 0
M  V30 2960 N 281.996 -2.90408 0.105563 0
M  V30 2961 H 281.543 -2.42739 0.862301 0
M  V30 2962 H 281.501 -3.05339 -0.749371 0
M  V30 2963 N 285.273 -1.31445 -0.869486 0
M  V30 2964 C 286.183 -1.21097 -2.0093 0
M  V30 2965 C 287.199 -0.127584 -1.73532 0
M  V30 2966 O 288.375 -0.345477 -1.98415 0
M  V30 2967 C 285.44 -0.919378 -3.34288 0
M  V30 2968 C 284.501 -2.08971 -3.75006 0
M  V30 2969 C 283.734 -1.81194 -5.02001 0
M  V30 2970 O 283.957 -0.747296 -5.65484 0
M  V30 2971 O 282.891 -2.66883 -5.39497 0
M  V30 2972 H 286.717 -2.16883 -2.12592 0
M  V30 2973 H 284.302 -1.11189 -0.997868 0
M  V30 2974 H 286.184 -0.772625 -4.14257 0
M  V30 2975 H 284.859 0.00844772 -3.23699 0
M  V30 2976 H 283.766 -2.29187 -2.95676 0
M  V30 2977 H 285.099 -2.9998 -3.90221 0
M  V30 2978 N 286.751 1.08385 -1.14413 0
M  V30 2979 C 287.683 2.1519 -0.789036 0
M  V30 2980 C 288.696 1.61638 0.19417 0
M  V30 2981 O 289.885 1.78479 -0.0275711 0
M  V30 2982 C 286.985 3.38565 -0.15058 0
M  V30 2983 C 286.158 4.21501 -1.16857 0
M  V30 2984 C 285.217 5.23277 -0.553832 0
M  V30 2985 O 284.243 5.56041 -1.21686 0
M  V30 2986 N 285.445 5.76629 0.669296 0
M  V30 2987 H 288.21 2.46257 -1.70814 0
M  V30 2988 H 285.771 1.24198 -1.03858 0
M  V30 2989 H 287.763 4.03777 0.273181 0
M  V30 2990 H 286.333 3.05299 0.671667 0
M  V30 2991 H 285.553 3.52265 -1.76926 0
M  V30 2992 H 286.841 4.73731 -1.85624 0
M  V30 2993 H 286.239 5.52243 1.22654 0
M  V30 2994 H 284.796 6.43521 1.03556 0
M  V30 2995 N 288.23 0.939286 1.26551 0
M  V30 2996 C 289.476 0.596234 1.94465 0
M  V30 2997 C 289.831 -0.855013 1.72358 0
M  V30 2998 O 289.124 -1.6034 1.04889 0
M  V30 2999 C 289.318 0.872106 3.46596 0
M  V30 3000 C 289.147 2.34862 3.83497 0
M  V30 3001 C 287.917 3.00344 4.06352 0
M  V30 3002 C 290.115 3.32697 3.92195 0
M  V30 3003 N 288.097 4.38027 4.30123 0
M  V30 3004 C 289.468 4.55631 4.20476 0
M  V30 3005 C 291.523 3.27747 3.74815 0
M  V30 3006 C 290.226 5.74233 4.33185 0
M  V30 3007 C 292.252 4.45672 3.88755 0
M  V30 3008 C 291.614 5.67388 4.17433 0
M  V30 3009 H 287.713 0.268515 0.734455 0
M  V30 3010 H 290.297 1.2083 1.5267 0
M  V30 3011 H 288.468 0.289102 3.87323 0
M  V30 3012 H 290.2 0.490513 4.01716 0
M  V30 3013 H 286.955 2.50969 4.01636 0
M  V30 3014 H 287.379 5.09288 4.46044 0
M  V30 3015 H 292.021 2.34703 3.51673 0
M  V30 3016 H 289.739 6.67731 4.55149 0
M  V30 3017 H 293.325 4.43372 3.76713 0
M  V30 3018 H 292.205 6.57115 4.27983 0
M  V30 3019 N 289.708 -1.40897 0.706093 0
M  V30 3020 C 290.638 -2.33418 0.0620085 0
M  V30 3021 C 291.619 -1.52385 -0.755827 0
M  V30 3022 O 292.804 -1.80886 -0.706674 0
M  V30 3023 C 289.934 -3.36293 -0.867445 0
M  V30 3024 C 288.888 -4.27716 -0.155932 0
M  V30 3025 C 288.214 -5.2105 -1.20046 0
M  V30 3026 C 289.514 -5.12944 0.984149 0
M  V30 3027 H 291.208 -2.87527 0.83477 0
M  V30 3028 H 288.754 -1.38249 0.402875 0
M  V30 3029 H 290.707 -3.99949 -1.32735 0
M  V30 3030 H 289.431 -2.80556 -1.67199 0
M  V30 3031 H 288.09 -3.65498 0.284047 0
M  V30 3032 H 287.738 -4.61624 -1.99781 0
M  V30 3033 H 287.438 -5.83056 -0.729328 0
M  V30 3034 H 288.962 -5.87584 -1.66066 0
M  V30 3035 H 290.376 -5.70109 0.604048 0
M  V30 3036 H 288.773 -5.83945 1.38304 0
M  V30 3037 H 289.843 -4.49485 1.81911 0
M  V30 3038 N 291.186 -0.45159 -1.50991 0
M  V30 3039 C 292.116 0.342898 -2.30969 0
M  V30 3040 C 293.097 1.00815 -1.37005 0
M  V30 3041 O 294.282 1.00907 -1.65926 0
M  V30 3042 C 291.412 1.43637 -3.16205 0
M  V30 3043 C 290.366 0.893818 -4.18563 0
M  V30 3044 C 289.692 2.08411 -4.92411 0
M  V30 3045 C 290.992 -0.0815568 -5.22236 0
M  V30 3046 H 292.686 -0.324556 -2.97636 0
M  V30 3047 H 290.232 -0.157531 -1.43136 0
M  V30 3048 H 292.185 1.9995 -3.70942 0
M  V30 3049 H 290.909 2.13232 -2.47386 0
M  V30 3050 H 289.568 0.352798 -3.64898 0
M  V30 3051 H 289.216 2.76658 -4.20082 0
M  V30 3052 H 288.916 1.72741 -5.61636 0
M  V30 3053 H 290.44 2.65251 -5.49976 0
M  V30 3054 H 291.854 0.391742 -5.7196 0
M  V30 3055 H 290.251 -0.351551 -5.99069 0
M  V30 3056 H 291.321 -1.01374 -4.74185 0
M  V30 3057 N 292.664 1.56529 -0.183458 0
M  V30 3058 C 293.892 2.01623 0.464285 0
M  V30 3059 C 294.307 1.06366 1.55986 0
M  V30 3060 O 293.664 0.0665398 1.82379 0
M  V30 3061 C 293.715 3.46475 1.03139 0
M  V30 3062 O 293.436 4.38095 -0.0204675 0
M  V30 3063 C 294.937 4.0703 1.75617 0
M  V30 3064 H 292.157 0.660596 0.117704 0
M  V30 3065 H 294.701 2.02451 -0.288751 0
M  V30 3066 H 292.856 3.46383 1.73486 0
M  V30 3067 H 293.27 5.22973 0.399952 0
M  V30 3068 H 294.744 5.10271 2.10542 0
M  V30 3069 H 295.221 3.49819 2.65563 0
M  V30 3070 H 295.827 4.1086 1.09882 0
M  V30 3071 N 294.142 -0.090211 1.57342 0
M  V30 3072 C 295.37 -0.806224 1.90546 0
M  V30 3073 C 295.785 -1.72041 0.777644 0
M  V30 3074 O 295.142 -1.80778 -0.250103 0
M  V30 3075 C 295.193 -1.61546 3.23396 0
M  V30 3076 O 294.914 -0.738043 4.31839 0
M  V30 3077 C 296.415 -2.4341 3.70495 0
M  V30 3078 H 293.635 -0.230256 0.630257 0
M  V30 3079 H 296.179 -0.0659843 2.04394 0
M  V30 3080 H 294.334 -2.30816 3.11131 0
M  V30 3081 H 294.748 -1.29901 5.08159 0
M  V30 3082 H 296.222 -2.95676 4.66133 0
M  V30 3083 H 296.699 -3.22098 2.98579 0
M  V30 3084 H 297.305 -1.79331 3.85643 0
M  V30 3085 N 295.62 -1.53406 -0.361157 0
M  V30 3086 C 296.583 -1.79479 -1.42548 0
M  V30 3087 C 297.583 -0.665327 -1.4639 0
M  V30 3088 O 298.773 -0.933549 -1.47073 0
M  V30 3089 C 295.905 -1.92087 -2.8163 0
M  V30 3090 H 297.098 -2.74538 -1.20701 0
M  V30 3091 H 294.651 -1.4455 -0.594546 0
M  V30 3092 H 295.386 -0.991099 -3.08784 0
M  V30 3093 H 295.171 -2.74241 -2.80239 0
M  V30 3094 H 296.661 -2.13836 -3.58697 0
M  V30 3095 N 297.098 0.621204 -1.44841 0
M  V30 3096 C 298.045 1.73267 -1.5247 0
M  V30 3097 C 299.015 1.6189 -0.371611 0
M  V30 3098 O 300.2 1.81668 -0.58321 0
M  V30 3099 C 297.34 3.11545 -1.48438 0
M  V30 3100 C 296.453 3.33827 -2.74196 0
M  V30 3101 C 295.588 4.62133 -2.61929 0
M  V30 3102 C 294.627 4.77627 -3.82804 0
M  V30 3103 N 293.764 5.97219 -3.69153 0
M  V30 3104 H 298.604 1.66082 -2.47428 0
M  V30 3105 H 296.141 0.810026 -1.22788 0
M  V30 3106 H 298.099 3.91528 -1.4409 0
M  V30 3107 H 296.729 3.1772 -0.570402 0
M  V30 3108 H 295.781 2.47715 -2.88689 0
M  V30 3109 H 297.093 3.41153 -3.6389 0
M  V30 3110 H 296.247 5.50291 -2.5547 0
M  V30 3111 H 294.986 4.57182 -1.69811 0
M  V30 3112 H 293.991 3.87896 -3.89637 0
M  V30 3113 H 295.216 4.84385 -4.75971 0
M  V30 3114 H 293.162 5.93339 -2.79794 0
M  V30 3115 H 293.079 6.05644 -4.52472 0
M  V30 3116 H 294.347 6.87912 -3.66603 0
M  V30 3117 N 298.576 1.31904 0.862503 0
M  V30 3118 C 299.524 1.20125 1.9918 0
M  V30 3119 C 300.518 0.107824 1.69056 0
M  V30 3120 O 301.724 0.270223 1.7796 0
M  V30 3121 H 298.099 0.372148 0.65346 0
M  V30 3122 H 300.07 2.15652 2.06244 0
M  V30 3123 C 298.819 0.933099 3.34946 0
M  V30 3124 H 298.142 1.76664 3.5865 0
M  V30 3125 H 299.582 0.890892 4.14535 0
M  V30 3126 C 298.041 -0.364172 3.34926 0
M  V30 3127 O 298.571 -1.37858 3.77304 0
M  V30 3128 N 296.777 -0.383362 2.8806 0
M  V30 3129 H 296.324 0.442651 2.53768 0
M  V30 3130 H 296.282 -1.25123 2.8843 0
M  V30 3131 N 300.054 -1.07777 1.14986 0
M  V30 3132 C 300.984 -2.16865 0.865557 0
M  V30 3133 C 301.965 -1.69123 -0.182083 0
M  V30 3134 O 303.15 -1.94164 -0.0373815 0
M  V30 3135 C 300.28 -3.45539 0.349313 0
M  V30 3136 C 299.234 -4.06708 1.33313 0
M  V30 3137 C 298.56 -5.30411 0.675918 0
M  V30 3138 C 299.86 -4.47241 2.69764 0
M  V30 3139 H 301.554 -2.40905 1.77778 0
M  V30 3140 H 299.1 -1.15781 0.856203 0
M  V30 3141 H 301.053 -4.21174 0.137983 0
M  V30 3142 H 299.777 -3.21072 -0.598362 0
M  V30 3143 H 298.436 -3.33112 1.53075 0
M  V30 3144 H 298.084 -5.02232 -0.277767 0
M  V30 3145 H 297.784 -5.72293 1.33244 0
M  V30 3146 H 299.308 -6.08755 0.474262 0
M  V30 3147 H 300.722 -5.14025 2.53873 0
M  V30 3148 H 299.119 -5.00062 3.3175 0
M  V30 3149 H 300.189 -3.58818 3.26156 0
M  V30 3150 N 301.532 -0.945985 -1.26051 0
M  V30 3151 C 302.779 -0.596118 -1.93527 0
M  V30 3152 C 303.107 0.865559 -1.74179 0
M  V30 3153 O 302.362 1.63524 -1.0751 0
M  V30 3154 C 302.661 -0.890475 -3.46129 0
M  V30 3155 C 302.327 -2.3368 -3.85622 0
M  V30 3156 C 300.989 -2.73216 -3.96114 0
M  V30 3157 C 303.341 -3.27648 -4.05334 0
M  V30 3158 C 300.669 -4.05806 -4.2372 0
M  V30 3159 C 303.021 -4.59841 -4.3443 0
M  V30 3160 C 301.685 -4.99185 -4.43137 0
M  V30 3161 H 300.955 -0.218135 -0.708165 0
M  V30 3162 H 303.602 -1.1934 -1.49768 0
M  V30 3163 H 301.907 -0.210711 -3.91233 0
M  V30 3164 H 303.604 -0.598478 -3.96509 0
M  V30 3165 H 300.194 -2.02015 -3.78005 0
M  V30 3166 H 304.378 -2.98298 -3.96651 0
M  V30 3167 H 299.634 -4.35945 -4.28675 0
M  V30 3168 H 303.808 -5.32641 -4.48628 0
M  V30 3169 H 301.435 -6.01952 -4.64282 0
M  V30 3170 N 303.011 1.40521 -0.713556 0
M  V30 3171 C 303.941 2.33381 -0.0743864 0
M  V30 3172 C 304.922 1.52784 0.747735 0
M  V30 3173 O 306.107 1.81258 0.697071 0
M  V30 3174 C 303.237 3.36748 0.849598 0
M  V30 3175 C 302.191 4.27793 0.133247 0
M  V30 3176 C 301.517 5.21679 1.17281 0
M  V30 3177 C 302.817 5.12415 -1.01134 0
M  V30 3178 H 304.511 2.87081 -0.850007 0
M  V30 3179 H 302.057 1.38034 -0.410201 0
M  V30 3180 H 304.01 4.00648 1.30612 0
M  V30 3181 H 302.734 2.81439 1.65709 0
M  V30 3182 H 301.393 3.65342 -0.303426 0
M  V30 3183 H 301.041 4.62677 1.9733 0
M  V30 3184 H 300.741 5.83435 0.698397 0
M  V30 3185 H 302.265 5.88456 1.62947 0
M  V30 3186 H 303.679 5.69781 -0.634274 0
M  V30 3187 H 302.076 5.83203 -1.41399 0
M  V30 3188 H 303.146 4.48514 -1.84292 0
M  V30 3189 N 304.489 0.459591 1.5075 0
M  V30 3190 C 305.437 -0.354678 2.2988 0
M  V30 3191 C 306.431 -1.00086 1.36672 0
M  V30 3192 O 307.637 -0.933277 1.53915 0
M  V30 3193 H 304.012 -0.13321 0.740107 0
M  V30 3194 H 305.983 0.333269 2.96533 0
M  V30 3195 C 304.732 -1.43073 3.169 0
M  V30 3196 H 304.055 -0.942882 3.88523 0
M  V30 3197 H 305.495 -1.97328 3.75284 0
M  V30 3198 C 303.954 -2.42633 2.33732 0
M  V30 3199 O 304.484 -3.47658 2.01238 0
M  V30 3200 N 302.69 -2.14066 1.9653 0
M  V30 3201 H 302.237 -1.28685 2.23155 0
M  V30 3202 H 302.195 -2.80917 1.41185 0
M  V30 3203 N 305.967 -1.56429 0.191757 0
M  V30 3204 C 306.917 -2.15548 -0.743184 0
M  V30 3205 C 307.901 -1.09531 -1.17863 0
M  V30 3206 O 309.093 -1.35602 -1.13759 0
M  V30 3207 C 306.222 -2.81577 -1.96391 0
M  V30 3208 C 305.308 -3.9478 -1.54951 0
M  V30 3209 N 305.699 -4.98677 -0.845876 0
M  V30 3210 C 303.997 -4.06319 -1.83905 0
M  V30 3211 C 304.698 -5.78183 -0.638724 0
M  V30 3212 N 303.674 -5.30495 -1.18643 0
M  V30 3213 H 307.476 -2.9324 -0.196839 0
M  V30 3214 H 304.99 -1.62398 -0.0081603 0
M  V30 3215 H 306.987 -3.22321 -2.64415 0
M  V30 3216 H 305.647 -2.05371 -2.51501 0
M  V30 3217 H 306.658 -5.15464 -0.501704 0
M  V30 3218 H 303.335 -3.41238 -2.40548 0
M  V30 3219 H 304.725 -6.71851 -0.0807929 0
M  V30 3220 N 307.445 0.0818655 -1.57387 0
M  V30 3221 C 308.67 0.799946 -1.91352 0
M  V30 3222 C 309.095 1.70833 -0.787258 0
M  V30 3223 O 308.453 1.79419 0.26048 0
M  V30 3224 C 308.501 1.57812 -3.24234 0
M  V30 3225 O 307.605 2.68806 -3.12757 0
M  V30 3226 H 306.946 0.21891 -0.626877 0
M  V30 3227 H 309.476 0.0531256 -2.04531 0
M  V30 3228 H 309.486 1.95952 -3.57864 0
M  V30 3229 H 308.161 0.911548 -4.05788 0
M  V30 3230 H 306.738 2.33597 -2.90666 0
M  V30 3231 N 308.923 1.53595 0.353017 0
M  V30 3232 C 309.833 1.83897 1.45667 0
M  V30 3233 C 310.849 0.728334 1.58023 0
M  V30 3234 O 312.025 1.01968 1.73679 0
M  V30 3235 C 309.09 2.03383 2.80778 0
M  V30 3236 C 308.151 3.27262 2.77845 0
M  V30 3237 C 307.384 3.45809 4.06512 0
M  V30 3238 O 307.607 2.68387 5.03314 0
M  V30 3239 O 306.541 4.39207 4.11559 0
M  V30 3240 H 310.367 2.77686 1.2298 0
M  V30 3241 H 307.952 1.39132 0.544308 0
M  V30 3242 H 309.834 2.17698 3.60812 0
M  V30 3243 H 308.509 1.12783 3.03417 0
M  V30 3244 H 307.416 3.18359 1.96465 0
M  V30 3245 H 308.749 4.17824 2.60161 0
M  V30 3246 N 310.401 -0.613514 1.45168 0
M  V30 3247 C 311.349 -1.74572 1.53712 0
M  V30 3248 C 312.343 -1.64426 0.407505 0
M  V30 3249 O 313.549 -1.70291 0.583176 0
M  V30 3250 H 309.924 -0.576641 0.48269 0
M  V30 3251 H 311.895 -1.64492 2.48968 0
M  V30 3252 C 310.644 -3.12943 1.51532 0
M  V30 3253 H 309.967 -3.21407 2.37776 0
M  V30 3254 H 311.407 -3.9201 1.61569 0
M  V30 3255 C 309.866 -3.36053 0.238798 0
M  V30 3256 O 310.396 -3.95837 -0.6838 0
M  V30 3257 N 308.602 -2.9028 0.136359 0
M  V30 3258 H 308.149 -2.41811 0.887999 0
M  V30 3259 H 308.107 -3.06116 -0.716944 0
M  V30 3260 N 311.879 -1.3236 -0.855495 0
M  V30 3261 C 312.842 -1.21164 -1.94556 0
M  V30 3262 C 313.842 -0.134908 -1.60233 0
M  V30 3263 O 315.032 -0.385249 -1.69887 0
M  V30 3264 C 312.164 -0.863192 -3.29791 0
M  V30 3265 H 313.357 -2.18038 -2.05911 0
M  V30 3266 H 310.91 -1.16179 -1.04557 0
M  V30 3267 H 311.645 0.103769 -3.24134 0
M  V30 3268 H 311.43 -1.64166 -3.56078 0
M  V30 3269 H 312.92 -0.809156 -4.09686 0
M  V30 3270 N 313.357 1.07166 -1.15556 0
M  V30 3271 C 314.585 1.83514 -0.955519 0
M  V30 3272 C 315 1.82163 0.49621 0
M  V30 3273 O 314.357 1.23441 1.34419 0
M  V30 3274 C 314.408 3.30515 -1.46432 0
M  V30 3275 O 314.129 3.31937 -2.85918 0
M  V30 3276 C 315.63 4.23625 -1.30603 0
M  V30 3277 H 312.85 0.578926 -0.339244 0
M  V30 3278 H 315.394 1.35265 -1.53374 0
M  V30 3279 H 313.549 3.76106 -0.928584 0
M  V30 3280 H 313.963 4.23794 -3.09029 0
M  V30 3281 H 315.437 5.24831 -1.71047 0
M  V30 3282 H 315.914 4.38485 -0.250441 0
M  V30 3283 H 316.52 3.83871 -1.83094 0
M  V30 3284 N 314.835 0.952656 1.25548 0
M  V30 3285 C 315.798 0.475794 2.24207 0
M  V30 3286 C 316.798 -0.419428 1.55234 0
M  V30 3287 O 317.988 -0.216994 1.72843 0
M  V30 3288 C 315.12 -0.312814 3.39462 0
M  V30 3289 H 316.313 1.34779 2.67908 0
M  V30 3290 H 313.866 0.735739 1.37901 0
M  V30 3291 H 314.601 -1.20257 3.01179 0
M  V30 3292 H 314.386 0.329404 3.90714 0
M  V30 3293 H 315.876 -0.635986 4.12729 0
M  V30 3294 N 316.313 -1.40141 0.720998 0
M  V30 3295 C 317.26 -2.30688 0.071919 0
M  V30 3296 C 318.23 -1.48476 -0.744584 0
M  V30 3297 O 319.415 -1.77201 -0.707423 0
M  V30 3298 C 316.555 -3.34724 -0.839855 0
M  V30 3299 C 315.668 -4.31998 -0.0122438 0
M  V30 3300 C 314.803 -5.23102 -0.923995 0
M  V30 3301 C 313.842 -6.12033 -0.0907969 0
M  V30 3302 N 312.979 -6.95537 -0.957718 0
M  V30 3303 H 317.819 -2.85628 0.849755 0
M  V30 3304 H 315.356 -1.40653 0.430726 0
M  V30 3305 H 317.314 -3.93618 -1.38279 0
M  V30 3306 H 315.944 -2.81274 -1.58381 0
M  V30 3307 H 314.996 -3.74841 0.64794 0
M  V30 3308 H 316.308 -4.94772 0.632595 0
M  V30 3309 H 315.462 -5.86953 -1.53527 0
M  V30 3310 H 314.201 -4.60615 -1.60264 0
M  V30 3311 H 313.206 -5.47207 0.533377 0
M  V30 3312 H 314.431 -6.76581 0.584428 0
M  V30 3313 H 312.377 -6.35633 -1.62192 0
M  V30 3314 H 312.294 -7.55099 -0.36904 0
M  V30 3315 H 313.562 -7.63832 -1.555 0
M  V30 3316 N 317.792 -0.46758 -1.50504 0
M  V30 3317 C 319.069 0.15003 -1.95024 0
M  V30 3318 C 319.449 1.57304 -1.40779 0
M  V30 3319 O 318.797 2.20281 -0.607319 0
M  V30 3320 C 319.007 0.0969324 -3.48865 0
M  V30 3321 C 320.355 0.287565 -4.23625 0
M  V30 3322 O 321.379 0.173678 -3.55776 0
M  V30 3323 O 320.238 0.517186 -5.44047 0
M  V30 3324 H 317.332 0.113582 -0.819163 0
M  V30 3325 H 319.878 -0.52773 -1.61286 0
M  V30 3326 H 318.65 -0.896732 -3.80886 0
M  V30 3327 H 318.273 0.816303 -3.8913 0
M  V30 3328 N 319.27 1.56325 -0.20005 0
M  V30 3329 C 320.519 1.96895 0.437652 0
M  V30 3330 C 320.832 1.08999 1.62415 0
M  V30 3331 O 322.038 1.39372 2.32997 0
M  V30 3332 C 320.494 3.50198 0.830025 0
M  V30 3333 C 320.102 4.46765 -0.332461 0
M  V30 3334 C 321.846 3.99526 1.43453 0
M  V30 3335 C 319.753 5.91344 0.0811468 0
M  V30 3336 H 318.683 0.735209 0.167282 0
M  V30 3337 H 321.334 1.81148 -0.292853 0
M  V30 3338 H 319.716 3.61467 1.61734 0
M  V30 3339 H 320.89 4.47231 -1.11 0
M  V30 3340 H 319.205 4.07657 -0.848789 0
M  V30 3341 H 321.802 5.05025 1.75652 0
M  V30 3342 H 322.145 3.44122 2.34277 0
M  V30 3343 H 322.678 3.91393 0.71109 0
M  V30 3344 H 319.417 6.50685 -0.793033 0
M  V30 3345 H 318.937 5.94121 0.823445 0
M  V30 3346 H 320.616 6.44945 0.515252 0
M  V30 3347 N 320.748 -0.0735177 1.57428 0
M  V30 3348 C 321.711 -1.07192 2.02589 0
M  V30 3349 C 322.711 -1.31695 0.922661 0
M  V30 3350 O 323.901 -1.27445 1.18758 0
M  V30 3351 C 321.033 -2.41599 2.40506 0
M  V30 3352 H 322.226 -0.682727 2.92025 0
M  V30 3353 H 319.779 -0.319193 1.53006 0
M  V30 3354 H 320.514 -2.85354 1.5409 0
M  V30 3355 H 320.299 -2.25156 3.21009 0
M  V30 3356 H 321.789 -3.13367 2.76027 0
M  V30 3357 N 322.226 -1.5378 -0.344866 0
M  V30 3358 C 323.637 -1.62428 -0.920552 0
M  V30 3359 C 323.988 -0.504747 -1.89596 0
M  V30 3360 O 323.113 0.365711 -2.13287 0
M  V30 3361 C 323.708 -2.94419 -1.67639 0
M  V30 3362 C 322.267 -3.05333 -2.20111 0
M  V30 3363 C 321.414 -2.57866 -1.01982 0
M  V30 3364 H 324.365 -1.58222 -0.123042 0
M  V30 3365 H 324.386 -2.83384 -2.53917 0
M  V30 3366 H 323.898 -3.7588 -0.966224 0
M  V30 3367 H 321.999 -2.28502 -2.94308 0
M  V30 3368 H 322.112 -4.10778 -2.46573 0
M  V30 3369 H 320.476 -2.13241 -1.39285 0
M  V30 3370 H 321.259 -3.41765 -0.324308 0
M  V30 3371 N 323.704 0.605807 -1.45491 0
M  V30 3372 C 324.932 1.39136 -1.5313 0
M  V30 3373 C 325.347 1.88082 -0.164507 0
M  V30 3374 O 324.704 1.62316 0.834247 0
M  V30 3375 C 324.755 2.59463 -2.51716 0
M  V30 3376 O 324.476 2.12551 -3.83084 0
M  V30 3377 C 325.977 3.52301 -2.6907 0
M  V30 3378 H 323.197 0.425849 -0.51855 0
M  V30 3379 H 325.741 0.73865 -1.90694 0
M  V30 3380 H 323.896 3.20772 -2.17219 0
M  V30 3381 H 324.31 2.90744 -4.36541 0
M  V30 3382 H 325.784 4.33271 -3.42024 0
M  V30 3383 H 326.261 4.02757 -1.75167 0
M  V30 3384 H 326.867 2.96845 -3.04571 0
M  V30 3385 N 325.182 1.32811 0.848464 0
M  V30 3386 C 326.112 1.24882 1.97299 0
M  V30 3387 C 327.093 0.131357 1.69592 0
M  V30 3388 O 328.278 0.319553 1.91553 0
M  V30 3389 C 325.408 0.97746 3.33261 0
M  V30 3390 C 324.362 2.05682 3.75338 0
M  V30 3391 C 323.688 1.63777 5.09 0
M  V30 3392 C 324.988 3.47254 3.90144 0
M  V30 3393 H 326.682 2.18966 2.04191 0
M  V30 3394 H 324.228 1.05413 0.981029 0
M  V30 3395 H 326.181 0.908513 4.1149 0
M  V30 3396 H 324.905 0.000980011 3.266 0
M  V30 3397 H 323.564 2.11603 2.99366 0
M  V30 3398 H 323.212 0.648569 4.98801 0
M  V30 3399 H 322.912 2.36 5.38124 0
M  V30 3400 H 324.436 1.5833 5.89715 0
M  V30 3401 H 325.85 3.43888 4.58709 0
M  V30 3402 H 324.247 4.1788 4.30693 0
M  V30 3403 H 325.317 3.86462 2.92874 0
M  V30 3404 N 326.66 -1.06551 1.16123 0
M  V30 3405 C 327.888 -1.83005 0.965237 0
M  V30 3406 C 328.303 -1.82423 -0.486542 0
M  V30 3407 O 327.66 -1.24152 -1.33763 0
M  V30 3408 C 327.711 -3.29733 1.48183 0
M  V30 3409 O 327.432 -3.30416 2.87674 0
M  V30 3410 C 328.933 -4.22926 1.32848 0
M  V30 3411 H 326.153 -0.577118 0.342309 0
M  V30 3412 H 328.697 -1.3445 1.54089 0
M  V30 3413 H 326.852 -3.75609 0.948517 0
M  V30 3414 H 327.266 -4.22149 3.11272 0
M  V30 3415 H 328.74 -5.23916 1.73827 0
M  V30 3416 H 329.217 -4.38346 0.273692 0
M  V30 3417 H 329.823 -3.82894 1.85127 0
M  V30 3418 N 328.138 -0.959301 -1.25041 0
M  V30 3419 C 329.068 -0.501388 -2.28053 0
M  V30 3420 C 330.049 0.454673 -1.63911 0
M  V30 3421 O 331.234 0.352618 -1.90972 0
M  V30 3422 C 328.364 0.217224 -3.4662 0
M  V30 3423 C 327.318 -0.654034 -4.22973 0
M  V30 3424 C 326.644 0.195589 -5.34342 0
M  V30 3425 C 327.944 -1.93447 -4.85155 0
M  V30 3426 H 329.638 -1.36238 -2.66608 0
M  V30 3427 H 327.184 -0.656534 -1.28163 0
M  V30 3428 H 329.137 0.548732 -4.17812 0
M  V30 3429 H 327.861 1.1125 -3.07068 0
M  V30 3430 H 326.52 -0.968693 -3.5357 0
M  V30 3431 H 326.168 1.09076 -4.91031 0
M  V30 3432 H 325.868 -0.384091 -5.86343 0
M  V30 3433 H 327.392 0.521958 -6.08365 0
M  V30 3434 H 328.806 -1.66908 -5.48466 0
M  V30 3435 H 327.203 -2.46018 -5.47353 0
M  V30 3436 H 328.273 -2.63466 -4.07079 0
M  V30 3437 N 329.616 1.39756 -0.72842 0
M  V30 3438 C 330.846 2.04651 -0.283117 0
M  V30 3439 C 331.254 1.5502 1.08469 0
M  V30 3440 O 330.597 0.707343 1.69536 0
M  V30 3441 C 330.659 3.58947 -0.199309 0
M  V30 3442 C 330.323 4.31525 -1.5045 0
M  V30 3443 C 331.32 4.5861 -2.44894 0
M  V30 3444 C 329.005 4.70195 -1.76698 0
M  V30 3445 C 330.999 5.23366 -3.63822 0
M  V30 3446 C 328.686 5.3468 -2.95906 0
M  V30 3447 C 329.684 5.61198 -3.89289 0
M  V30 3448 O 329.372 6.24347 -5.06404 0
M  V30 3449 H 329.104 0.664777 -0.122666 0
M  V30 3450 H 331.658 1.79913 -0.990987 0
M  V30 3451 H 329.888 3.82556 0.56461 0
M  V30 3452 H 331.577 4.0534 0.213125 0
M  V30 3453 H 332.343 4.29187 -2.25883 0
M  V30 3454 H 328.222 4.48916 -1.04859 0
M  V30 3455 H 331.766 5.4398 -4.36728 0
M  V30 3456 H 327.663 5.63524 -3.14819 0
M  V30 3457 H 328.431 6.42842 -5.06652 0
M  V30 3458 N 331.094 0.475555 1.50254 0
M  V30 3459 C 332.34 -0.0780073 2.0265 0
M  V30 3460 C 332.673 -1.38968 1.35652 0
M  V30 3461 O 331.948 -1.8839 0.483691 0
M  V30 3462 C 332.231 -0.257161 3.59181 0
M  V30 3463 C 332.084 1.07585 4.36744 0
M  V30 3464 C 333.403 -1.00965 4.28362 0
M  V30 3465 H 330.522 -0.0268758 0.73651 0
M  V30 3466 H 333.164 0.622015 1.7953 0
M  V30 3467 H 331.314 -0.853412 3.79011 0
M  V30 3468 H 332.986 1.70902 4.28474 0
M  V30 3469 H 331.229 1.6714 4.00308 0
M  V30 3470 H 331.9 0.904088 5.44546 0
M  V30 3471 H 334.376 -0.504214 4.13034 0
M  V30 3472 H 333.252 -1.10381 5.37687 0
M  V30 3473 H 333.513 -2.04731 3.91839 0
M  V30 3474 N 332.573 -1.56217 0.208337 0
M  V30 3475 C 333.821 -1.97558 -0.426076 0
M  V30 3476 C 334.142 -1.09683 -1.61229 0
M  V30 3477 O 333.412 -0.170956 -1.95153 0
M  V30 3478 H 331.992 -0.729575 -0.160405 0
M  V30 3479 H 334.654 -1.92606 0.298155 0
M  V30 3480 H 333.75 -3.02672 -0.761312 0
M  V30 3481 N 334.051 0.0651679 -1.57465 0
M  V30 3482 C 334.998 1.07675 -2.04144 0
M  V30 3483 C 335.968 1.38071 -0.923335 0
M  V30 3484 O 337.153 1.49026 -1.19146 0
M  V30 3485 C 334.293 2.38337 -2.49579 0
M  V30 3486 C 333.406 2.14413 -3.75035 0
M  V30 3487 C 332.541 3.38686 -4.09225 0
M  V30 3488 C 331.58 3.10156 -5.27702 0
M  V30 3489 N 330.717 4.26778 -5.57499 0
M  V30 3490 H 335.557 0.671716 -2.90331 0
M  V30 3491 H 333.094 0.3201 -1.43575 0
M  V30 3492 H 335.052 3.14632 -2.73975 0
M  V30 3493 H 333.682 2.7663 -1.6636 0
M  V30 3494 H 332.734 1.2878 -3.57939 0
M  V30 3495 H 334.046 1.89344 -4.61466 0
M  V30 3496 H 333.2 4.23373 -4.34558 0
M  V30 3497 H 331.939 3.66837 -3.21374 0
M  V30 3498 H 330.944 2.23866 -5.02159 0
M  V30 3499 H 332.169 2.8332 -6.17176 0
M  V30 3500 H 330.115 4.54948 -4.72608 0
M  V30 3501 H 330.032 4.05005 -6.38362 0
M  V30 3502 H 331.3 5.12443 -5.87386 0
M  V30 3503 N 335.529 1.53961 0.336706 0
M  V30 3504 C 336.476 1.82428 1.41381 0
M  V30 3505 C 337.446 0.670444 1.51968 0
M  V30 3506 O 338.631 0.915565 1.67398 0
M  V30 3507 C 335.771 2.04564 2.77934 0
M  V30 3508 C 334.884 3.32267 2.76084 0
M  V30 3509 C 334.019 3.44434 4.04399 0
M  V30 3510 C 333.058 4.66061 3.96804 0
M  V30 3511 N 332.195 4.75224 5.16823 0
M  V30 3512 H 337.035 2.74324 1.16405 0
M  V30 3513 H 334.572 1.35869 0.563752 0
M  V30 3514 H 336.53 2.15388 3.57301 0
M  V30 3515 H 335.16 1.15974 3.01247 0
M  V30 3516 H 334.212 3.3025 1.88784 0
M  V30 3517 H 335.524 4.21733 2.66351 0
M  V30 3518 H 334.678 3.54728 4.92192 0
M  V30 3519 H 333.417 2.53037 4.16921 0
M  V30 3520 H 332.422 4.55838 3.07396 0
M  V30 3521 H 333.647 5.58829 3.85858 0
M  V30 3522 H 331.593 3.86739 5.29876 0
M  V30 3523 H 331.51 5.58636 5.09374 0
M  V30 3524 H 332.778 4.89835 6.06367 0
M  V30 3525 N 337.007 -0.598083 1.45811 0
M  V30 3526 C 337.939 -1.72231 1.51225 0
M  V30 3527 C 338.952 -1.57757 0.402059 0
M  V30 3528 O 340.141 -1.65464 0.669624 0
M  V30 3529 C 337.241 -3.10331 1.3619 0
M  V30 3530 C 336.414 -3.50955 2.61054 0
M  V30 3531 C 335.473 -4.68055 2.40439 0
M  V30 3532 O 334.499 -4.74691 3.14097 0
M  V30 3533 N 335.701 -5.61941 1.45612 0
M  V30 3534 H 338.466 -1.68046 2.48154 0
M  V30 3535 H 336.027 -0.783637 1.41671 0
M  V30 3536 H 338.019 -3.86439 1.20195 0
M  V30 3537 H 336.589 -3.0897 0.475015 0
M  V30 3538 H 335.809 -2.64711 2.92099 0
M  V30 3539 H 337.097 -3.74858 3.44034 0
M  V30 3540 H 336.495 -5.59301 0.848431 0
M  V30 3541 H 335.052 -6.37542 1.35585 0
M  V30 3542 N 338.485 -1.33259 -0.841409 0
M  V30 3543 C 339.415 -1.25926 -1.96634 0
M  V30 3544 C 340.396 -0.140349 -1.6952 0
M  V30 3545 O 341.581 -0.329707 -1.91381 0
M  V30 3546 C 338.711 -0.99512 -3.32738 0
M  V30 3547 C 337.665 -2.0767 -3.74242 0
M  V30 3548 C 336.991 -1.66474 -5.08125 0
M  V30 3549 C 338.291 -3.49318 -3.88297 0
M  V30 3550 H 339.985 -2.20046 -2.03027 0
M  V30 3551 H 337.531 -1.05931 -0.975425 0
M  V30 3552 H 339.484 -0.930323 -4.11002 0
M  V30 3553 H 338.208 -0.0183004 -3.26595 0
M  V30 3554 H 336.867 -2.13187 -2.98239 0
M  V30 3555 H 336.515 -0.675012 -4.9845 0
M  V30 3556 H 336.215 -2.3885 -5.36865 0
M  V30 3557 H 337.739 -1.61455 -5.88867 0
M  V30 3558 H 339.153 -3.46316 -4.56879 0
M  V30 3559 H 337.55 -4.20158 -4.28471 0
M  V30 3560 H 338.62 -3.8801 -2.9082 0
M  V30 3561 N 339.963 1.05934 -1.16686 0
M  V30 3562 C 341.209 1.79065 -0.95203 0
M  V30 3563 C 341.542 1.87147 0.518629 0
M  V30 3564 O 340.817 1.36574 1.38484 0
M  V30 3565 C 341.1 3.23359 -1.58464 0
M  V30 3566 C 340.953 3.23336 -3.12689 0
M  V30 3567 C 342.272 4.21004 -1.28232 0
M  V30 3568 H 339.391 0.65005 -0.34728 0
M  V30 3569 H 342.033 1.23868 -1.44072 0
M  V30 3570 H 340.183 3.70493 -1.16908 0
M  V30 3571 H 341.855 2.84336 -3.6325 0
M  V30 3572 H 340.098 2.61886 -3.4583 0
M  V30 3573 H 340.769 4.25144 -3.52075 0
M  V30 3574 H 343.245 3.8233 -1.64203 0
M  V30 3575 H 342.121 5.20225 -1.75092 0
M  V30 3576 H 342.382 4.41639 -0.201791 0
M  V30 3577 N 341.441 0.965919 1.2453 0
M  V30 3578 C 342.351 0.502154 2.29163 0
M  V30 3579 C 343.367 -0.436017 1.68448 0
M  V30 3580 O 344.543 -0.309497 1.99008 0
M  V30 3581 C 341.608 -0.201956 3.46111 0
M  V30 3582 C 340.669 0.775821 4.22232 0
M  V30 3583 C 339.902 0.105217 5.33596 0
M  V30 3584 O 340.125 -1.10683 5.59558 0
M  V30 3585 O 339.059 0.796475 5.96607 0
M  V30 3586 H 342.885 1.37194 2.70946 0
M  V30 3587 H 340.47 0.732875 1.30189 0
M  V30 3588 H 342.352 -0.597564 4.17142 0
M  V30 3589 H 341.027 -1.04673 3.06309 0
M  V30 3590 H 339.934 1.22185 3.53584 0
M  V30 3591 H 341.267 1.58896 4.65846 0
M  V30 3592 N 342.919 -1.39368 0.735821 0
M  V30 3593 C 344.168 -1.99733 0.281004 0
M  V30 3594 C 344.481 -1.59055 -1.13846 0
M  V30 3595 O 345.687 -2.12262 -1.69284 0
M  V30 3596 C 344.143 -3.57057 0.451462 0
M  V30 3597 C 343.751 -4.06697 1.87886 0
M  V30 3598 C 345.495 -4.2446 0.0584616 0
M  V30 3599 C 343.402 -5.56598 1.99883 0
M  V30 3600 H 342.332 -0.747163 0.101311 0
M  V30 3601 H 344.983 -1.59357 0.909819 0
M  V30 3602 H 343.365 -3.95234 -0.246263 0
M  V30 3603 H 344.539 -3.79853 2.60861 0
M  V30 3604 H 342.854 -3.5196 2.22515 0
M  V30 3605 H 345.451 -5.34549 0.127099 0
M  V30 3606 H 345.794 -4.04444 -0.986433 0
M  V30 3607 H 346.327 -3.9146 0.707374 0
M  V30 3608 H 343.066 -5.81494 3.02564 0
M  V30 3609 H 342.586 -5.85242 1.31346 0
M  V30 3610 H 344.265 -6.22022 1.78039 0
M  V30 3611 N 344.397 -0.483516 -1.5 0
M  V30 3612 C 345.307 0.309172 -2.32554 0
M  V30 3613 C 346.323 0.984159 -1.43493 0
M  V30 3614 O 347.499 0.969399 -1.76535 0
M  V30 3615 C 344.564 1.36979 -3.18493 0
M  V30 3616 C 343.625 0.710095 -4.23387 0
M  V30 3617 C 342.858 1.72018 -5.05218 0
M  V30 3618 O 343.081 2.94813 -4.88305 0
M  V30 3619 O 342.015 1.28515 -5.8802 0
M  V30 3620 H 345.841 -0.366064 -3.01486 0
M  V30 3621 H 343.426 -0.24514 -1.47375 0
M  V30 3622 H 345.308 1.98385 -3.71781 0
M  V30 3623 H 343.983 2.02828 -2.52275 0
M  V30 3624 H 342.89 0.0567539 -3.74057 0
M  V30 3625 H 344.223 0.0943557 -4.9211 0
M  V30 3626 N 345.875 1.56104 -0.216619 0
M  V30 3627 C 346.822 2.2007 0.695531 0
M  V30 3628 C 347.792 1.15471 1.19397 0
M  V30 3629 O 348.977 1.43807 1.25396 0
M  V30 3630 C 346.117 2.88073 1.90021 0
M  V30 3631 C 345.23 4.07253 1.44113 0
M  V30 3632 C 344.365 4.63052 2.603 0
M  V30 3633 C 343.404 5.74545 2.11103 0
M  V30 3634 N 342.541 6.24656 3.20545 0
M  V30 3635 H 347.381 2.97655 0.143327 0
M  V30 3636 H 344.918 1.46982 0.0589934 0
M  V30 3637 H 346.876 3.25681 2.60745 0
M  V30 3638 H 345.506 2.13015 2.42538 0
M  V30 3639 H 344.558 3.75164 0.628999 0
M  V30 3640 H 345.87 4.8783 1.04036 0
M  V30 3641 H 345.024 5.03078 3.39113 0
M  V30 3642 H 343.763 3.81628 3.03663 0
M  V30 3643 H 342.768 5.34027 1.3075 0
M  V30 3644 H 343.993 6.57801 1.68746 0
M  V30 3645 H 341.939 5.46148 3.63399 0
M  V30 3646 H 341.856 7.00343 2.84704 0
M  V30 3647 H 343.124 6.69338 3.99508 0
M  V30 3648 N 347.353 -0.0568162 1.57498 0
M  V30 3649 C 348.599 -0.75422 1.88253 0
M  V30 3650 C 348.932 -1.76461 0.810865 0
M  V30 3651 O 348.207 -1.93691 -0.177259 0
M  V30 3652 C 348.49 -1.44878 3.2967 0
M  V30 3653 C 348.343 -0.453789 4.47505 0
M  V30 3654 C 349.662 -2.38994 3.69554 0
M  V30 3655 H 346.781 -0.272724 0.684683 0
M  V30 3656 H 349.423 -0.0172113 1.89992 0
M  V30 3657 H 347.573 -2.077 3.28318 0
M  V30 3658 H 349.245 0.170371 4.60985 0
M  V30 3659 H 347.488 0.229552 4.33192 0
M  V30 3660 H 348.159 -0.977699 5.43273 0
M  V30 3661 H 350.635 -1.86239 3.72095 0
M  V30 3662 H 349.511 -2.84587 4.69363 0
M  V30 3663 H 349.772 -3.24461 3.00296 0
M  V30 3664 N 348.832 -1.54138 -0.328536 0
M  V30 3665 C 350.078 -1.7236 -1.06865 0
M  V30 3666 C 350.411 -0.493231 -1.87832 0
M  V30 3667 O 349.686 0.5098 -1.877 0
M  V30 3668 C 349.969 -2.99621 -1.99747 0
M  V30 3669 C 349.822 -4.32899 -1.22143 0
M  V30 3670 C 351.141 -3.22615 -2.99345 0
M  V30 3671 H 348.26 -0.627151 -0.387105 0
M  V30 3672 H 350.902 -1.86827 -0.345767 0
M  V30 3673 H 349.052 -2.87418 -2.61387 0
M  V30 3674 H 350.724 -4.56978 -0.630017 0
M  V30 3675 H 348.967 -4.30628 -0.523628 0
M  V30 3676 H 349.638 -5.18154 -1.90318 0
M  V30 3677 H 352.114 -3.34248 -2.47826 0
M  V30 3678 H 350.99 -4.13027 -3.61524 0
M  V30 3679 H 351.251 -2.3961 -3.71536 0
M  V30 3680 N 350.31 0.590341 -1.46126 0
M  V30 3681 C 351.24 1.71032 -1.58966 0
M  V30 3682 C 352.221 1.64302 -0.440335 0
M  V30 3683 O 353.406 1.82436 -0.665634 0
M  V30 3684 C 350.536 3.09665 -1.57241 0
M  V30 3685 C 349.49 3.31221 -2.71066 0
M  V30 3686 C 348.816 4.70303 -2.54399 0
M  V30 3687 C 350.116 3.19796 -4.1295 0
M  V30 3688 H 351.81 1.60543 -2.52718 0
M  V30 3689 H 349.356 0.770933 -1.21625 0
M  V30 3690 H 351.309 3.87831 -1.64819 0
M  V30 3691 H 350.033 3.21036 -0.600289 0
M  V30 3692 H 348.692 2.55452 -2.62944 0
M  V30 3693 H 348.34 4.78429 -1.55288 0
M  V30 3694 H 348.04 4.85679 -3.30741 0
M  V30 3695 H 349.564 5.50647 -2.63857 0
M  V30 3696 H 350.978 3.87815 -4.22223 0
M  V30 3697 H 349.375 3.46696 -4.89818 0
M  V30 3698 H 350.445 2.16983 -4.33643 0
M  V30 3699 N 351.788 1.33704 0.83433 0
M  V30 3700 C 352.738 1.20899 1.93306 0
M  V30 3701 C 353.722 0.110783 1.60518 0
M  V30 3702 O 354.914 0.339331 1.73717 0
M  V30 3703 C 352.043 0.955018 3.29749 0
M  V30 3704 C 351.129 2.09587 3.68692 0
M  V30 3705 N 351.52 3.34621 3.79292 0
M  V30 3706 C 349.818 2.00358 3.98463 0
M  V30 3707 C 350.519 4.09472 4.13167 0
M  V30 3708 N 349.495 3.37954 4.25779 0
M  V30 3709 H 353.297 2.15665 1.99664 0
M  V30 3710 H 350.811 1.25777 1.02732 0
M  V30 3711 H 352.808 0.844208 4.08263 0
M  V30 3712 H 351.468 0.0159317 3.24696 0
M  V30 3713 H 352.479 3.69313 3.63082 0
M  V30 3714 H 349.156 1.14137 4.01596 0
M  V30 3715 H 350.546 5.17391 4.28668 0
M  V30 3716 N 353.266 -1.05314 1.17247 0
M  V30 3717 C 354.677 -1.59753 0.96623 0
M  V30 3718 C 355.028 -1.9005 -0.487378 0
M  V30 3719 O 354.153 -1.68126 -1.36245 0
M  V30 3720 C 354.748 -2.90249 1.74759 0
M  V30 3721 C 353.307 -3.41352 1.58606 0
M  V30 3722 C 352.454 -2.15103 1.75002 0
M  V30 3723 H 355.405 -0.881406 1.31973 0
M  V30 3724 H 355.426 -3.60097 1.22925 0
M  V30 3725 H 354.938 -2.68166 2.8055 0
M  V30 3726 H 353.039 -3.68474 0.552985 0
M  V30 3727 H 353.152 -4.16019 2.37624 0
M  V30 3728 H 351.516 -2.25804 1.17833 0
M  V30 3729 H 352.299 -1.95491 2.82202 0
M  V30 3730 N 354.744 -0.972509 -1.24016 0
M  V30 3731 C 355.692 -0.498562 -2.27194 0
M  V30 3732 C 356.686 0.440372 -1.63576 0
M  V30 3733 O 357.892 0.315133 -1.7722 0
M  V30 3734 H 354.267 -0.142775 -0.738322 0
M  V30 3735 H 356.238 -1.38065 -2.64539 0
M  V30 3736 C 354.987 0.191072 -3.47175 0
M  V30 3737 H 354.31 -0.522318 -3.96373 0
M  V30 3738 H 355.75 0.486445 -4.212 0
M  V30 3739 C 354.209 1.41967 -3.05527 0
M  V30 3740 O 354.739 2.51642 -3.13112 0
M  V30 3741 N 352.945 1.28746 -2.60524 0
M  V30 3742 H 352.492 0.395089 -2.54552 0
M  V30 3743 H 352.45 2.11061 -2.33025 0
M  V30 3744 N 356.222 1.38976 -0.743202 0
M  V30 3745 C 357.452 2.04339 -0.304807 0
M  V30 3746 C 357.86 1.56162 1.06819 0
M  V30 3747 O 357.203 0.725284 1.68776 0
M  V30 3748 C 357.265 3.58716 -0.237369 0
M  V30 3749 C 356.929 4.29905 -1.55018 0
M  V30 3750 C 357.926 4.55987 -2.49744 0
M  V30 3751 C 355.611 4.68294 -1.81675 0
M  V30 3752 C 357.605 5.19478 -3.69353 0
M  V30 3753 C 355.292 5.31512 -3.0156 0
M  V30 3754 C 356.29 5.57037 -3.9522 0
M  V30 3755 O 355.978 6.18941 -5.12998 0
M  V30 3756 H 355.71 0.663439 -0.12971 0
M  V30 3757 H 358.264 1.78852 -1.01001 0
M  V30 3758 H 356.494 3.83133 0.524003 0
M  V30 3759 H 358.183 4.05543 0.170121 0
M  V30 3760 H 358.949 4.26767 -2.30423 0
M  V30 3761 H 354.828 4.47779 -1.09615 0
M  V30 3762 H 358.372 5.39318 -4.42473 0
M  V30 3763 H 354.269 5.60153 -3.20778 0
M  V30 3764 H 355.037 6.37433 -5.13441 0
M  V30 3765 N 357.7 0.491464 1.49741 0
M  V30 3766 C 358.925 -0.0557177 2.07325 0
M  V30 3767 C 359.35 -1.30925 1.35056 0
M  V30 3768 O 358.708 -1.76733 0.404365 0
M  V30 3769 C 358.756 -0.302074 3.59333 0
M  V30 3770 O 357.86 -1.37868 3.88672 0
M  V30 3771 H 357.201 0.0219956 0.663636 0
M  V30 3772 H 359.731 0.688352 1.92673 0
M  V30 3773 H 359.741 -0.536464 4.04458 0
M  V30 3774 H 358.416 0.61383 4.11345 0
M  V30 3775 H 356.993 -1.12999 3.55367 0
M  V30 3776 N 359.178 -1.55987 0.224894 0
M  V30 3777 C 360.11 -2.17722 -0.716224 0
M  V30 3778 C 361.123 -1.14723 -1.15509 0
M  V30 3779 O 362.312 -1.41688 -1.08567 0
M  V30 3780 C 359.412 -2.74873 -1.98238 0
M  V30 3781 C 358.585 -4.03074 -1.69853 0
M  V30 3782 C 357.644 -4.44757 -2.81208 0
M  V30 3783 O 356.67 -5.11587 -2.49534 0
M  V30 3784 N 357.872 -4.10716 -4.10235 0
M  V30 3785 H 360.637 -2.99109 -0.188123 0
M  V30 3786 H 358.198 -1.6184 0.0440123 0
M  V30 3787 H 360.19 -2.99727 -2.7193 0
M  V30 3788 H 358.76 -1.9777 -2.42086 0
M  V30 3789 H 357.98 -3.86041 -0.797875 0
M  V30 3790 H 359.268 -4.86701 -1.48324 0
M  V30 3791 H 358.666 -3.57019 -4.38809 0
M  V30 3792 H 357.223 -4.40455 -4.80461 0
M  V30 3793 N 360.656 0.0484629 -1.57525 0
M  V30 3794 C 361.902 0.744226 -1.88651 0
M  V30 3795 C 362.235 1.76029 -0.820212 0
M  V30 3796 O 361.51 1.93782 0.166985 0
M  V30 3797 C 361.793 1.43128 -3.30434 0
M  V30 3798 C 361.646 0.43005 -4.47739 0
M  V30 3799 C 362.965 2.37031 -3.70816 0
M  V30 3800 H 360.084 0.269089 -0.68612 0
M  V30 3801 H 362.726 0.00713532 -1.89999 0
M  V30 3802 H 360.876 2.05956 -3.29415 0
M  V30 3803 H 362.548 -0.194816 -4.60888 0
M  V30 3804 H 360.791 -0.252522 -4.33064 0
M  V30 3805 H 361.462 0.948874 -5.43783 0
M  V30 3806 H 363.938 1.84263 -3.73077 0
M  V30 3807 H 362.814 2.82094 -4.70865 0
M  V30 3808 H 363.075 3.22864 -3.02012 0
M  V30 3809 N 362.134 1.5431 0.320358 0
M  V30 3810 C 363.411 1.63322 1.07635 0
M  V30 3811 C 363.791 0.46912 2.05821 0
M  V30 3812 O 363.139 -0.536274 2.22118 0
M  V30 3813 C 363.349 3.00465 1.77544 0
M  V30 3814 C 364.697 3.56621 2.30449 0
M  V30 3815 O 365.721 3.02791 1.87606 0
M  V30 3816 O 364.58 4.5083 3.08892 0
M  V30 3817 H 361.674 0.661502 0.496331 0
M  V30 3818 H 364.22 1.66656 0.319992 0
M  V30 3819 H 362.992 3.76629 1.06143 0
M  V30 3820 H 362.615 3.00824 2.59982 0
M  V30 3821 N 363.613 -0.582584 1.46437 0
M  V30 3822 C 364.862 -1.337 1.5102 0
M  V30 3823 C 365.175 -1.94891 0.166359 0
M  V30 3824 O 366.381 -2.71351 0.0899954 0
M  V30 3825 C 364.837 -2.42315 2.66104 0
M  V30 3826 C 364.445 -1.87427 4.06909 0
M  V30 3827 C 366.189 -3.19099 2.79958 0
M  V30 3828 C 364.096 -2.93672 5.13333 0
M  V30 3829 H 363.026 -0.502619 0.562041 0
M  V30 3830 H 365.677 -0.621701 1.72647 0
M  V30 3831 H 364.059 -3.16645 2.37807 0
M  V30 3832 H 365.233 -1.19639 4.44998 0
M  V30 3833 H 363.548 -1.2331 3.97723 0
M  V30 3834 H 366.145 -3.9839 3.56636 0
M  V30 3835 H 366.488 -3.71695 1.87479 0
M  V30 3836 H 367.021 -2.51875 3.07902 0
M  V30 3837 H 363.76 -2.45962 6.07604 0
M  V30 3838 H 363.28 -3.59948 4.79789 0
M  V30 3839 H 364.959 -3.5762 5.39182 0
M  V30 3840 N 365.091 -1.34144 -0.827227 0
M  V30 3841 C 366.339 -1.26009 -1.58007 0
M  V30 3842 C 366.66 0.170971 -1.94249 0
M  V30 3843 O 365.93 1.10256 -1.61927 0
M  V30 3844 H 364.51 -0.463414 -0.585881 0
M  V30 3845 H 367.172 -1.68005 -0.987951 0
M  V30 3846 H 366.268 -1.86187 -2.50481 0
M  V30 3847 N 366.569 1.04691 -1.17803 0
M  V30 3848 C 367.499 2.14494 -0.92275 0
M  V30 3849 C 368.48 1.69546 0.137179 0
M  V30 3850 O 369.665 1.94195 -0.0141108 0
M  V30 3851 C 366.795 3.44491 -0.440803 0
M  V30 3852 C 365.749 4.03031 -1.4405 0
M  V30 3853 C 365.075 5.28432 -0.81631 0
M  V30 3854 C 366.375 4.39932 -2.81527 0
M  V30 3855 H 368.069 2.36107 -1.84103 0
M  V30 3856 H 365.615 1.1347 -0.886599 0
M  V30 3857 H 367.568 4.2066 -0.249602 0
M  V30 3858 H 366.292 3.22546 0.513025 0
M  V30 3859 H 364.951 3.28937 -1.61853 0
M  V30 3860 H 364.599 5.02792 0.144511 0
M  V30 3861 H 364.299 5.68559 -1.48371 0
M  V30 3862 H 365.823 6.07284 -0.635496 0
M  V30 3863 H 367.237 5.07113 -2.67412 0
M  V30 3864 H 365.634 4.9109 -3.44892 0
M  V30 3865 H 366.704 3.50045 -3.35554 0
M  V30 3866 N 368.047 0.979072 1.23499 0
M  V30 3867 C 369.296 0.642751 1.91185 0
M  V30 3868 C 369.609 -0.827253 1.77245 0
M  V30 3869 O 370.815 -1.27458 2.39722 0
M  V30 3870 C 369.271 1.09901 3.42709 0
M  V30 3871 C 368.879 2.59327 3.65313 0
M  V30 3872 C 370.623 0.836371 4.16179 0
M  V30 3873 C 368.53 2.98627 5.10467 0
M  V30 3874 H 367.46 0.236698 0.715884 0
M  V30 3875 H 370.111 1.1868 1.39955 0
M  V30 3876 H 368.493 0.48319 3.93041 0
M  V30 3877 H 369.667 3.26136 3.25533 0
M  V30 3878 H 367.982 2.83323 3.05151 0
M  V30 3879 H 370.579 1.10586 5.23139 0
M  V30 3880 H 370.922 -0.227509 4.15678 0
M  V30 3881 H 371.455 1.41371 3.71832 0
M  V30 3882 H 368.194 4.04133 5.16098 0
M  V30 3883 H 367.714 2.3651 5.51201 0
M  V30 3884 H 369.393 2.89159 5.78788 0
M  V30 3885 N 369.525 -1.3858 0.750561 0
M  V30 3886 C 370.472 -2.30483 0.120835 0
M  V30 3887 C 371.442 -1.50022 -0.712923 0
M  V30 3888 O 372.627 -1.78662 -0.669676 0
M  V30 3889 C 369.767 -3.36431 -0.768666 0
M  V30 3890 C 368.88 -4.31927 0.0793922 0
M  V30 3891 C 368.015 -5.24944 -0.81283 0
M  V30 3892 C 367.054 -6.12088 0.0390447 0
M  V30 3893 N 366.191 -6.97412 -0.809969 0
M  V30 3894 H 371.031 -2.83761 0.91015 0
M  V30 3895 H 368.568 -1.39707 0.460463 0
M  V30 3896 H 370.526 -3.96462 -1.29898 0
M  V30 3897 H 369.156 -2.8457 -1.5238 0
M  V30 3898 H 368.208 -3.73382 0.727303 0
M  V30 3899 H 369.52 -4.93319 0.737401 0
M  V30 3900 H 368.674 -5.90078 -1.41042 0
M  V30 3901 H 367.413 -4.63911 -1.50458 0
M  V30 3902 H 366.418 -5.45952 0.649328 0
M  V30 3903 H 367.643 -6.75189 0.727809 0
M  V30 3904 H 365.589 -6.38931 -1.48672 0
M  V30 3905 H 365.506 -7.55712 -0.208789 0
M  V30 3906 H 366.774 -7.66959 -1.39263 0
M  V30 3907 N 371.003 -0.499398 -1.49478 0
M  V30 3908 C 371.933 0.269244 -2.31943 0
M  V30 3909 C 372.914 0.964054 -1.40143 0
M  V30 3910 O 374.099 0.955767 -1.69052 0
M  V30 3911 C 371.229 1.33504 -3.20615 0
M  V30 3912 C 370.183 0.760202 -4.21195 0
M  V30 3913 C 369.509 1.9264 -4.98792 0
M  V30 3914 C 370.809 -0.247661 -5.21712 0
M  V30 3915 H 372.503 -0.419082 -2.96452 0
M  V30 3916 H 370.049 -0.202988 -1.42562 0
M  V30 3917 H 372.002 1.88048 -3.77115 0
M  V30 3918 H 370.726 2.05253 -2.54045 0
M  V30 3919 H 369.385 0.23653 -3.65836 0
M  V30 3920 H 369.033 2.63154 -4.28671 0
M  V30 3921 H 368.733 1.54785 -5.66847 0
M  V30 3922 H 370.257 2.4762 -5.58137 0
M  V30 3923 H 371.671 0.209579 -5.72917 0
M  V30 3924 H 370.068 -0.541962 -5.97648 0
M  V30 3925 H 371.138 -1.16409 -4.7072 0
M  V30 3926 N 372.481 1.55866 -0.233164 0
M  V30 3927 C 373.428 2.20796 0.67215 0
M  V30 3928 C 374.398 1.16731 1.18166 0
M  V30 3929 O 375.583 1.45129 1.23864 0
M  V30 3930 C 372.723 2.90072 1.86955 0
M  V30 3931 C 371.836 4.08759 1.39786 0
M  V30 3932 C 370.971 4.65787 2.55374 0
M  V30 3933 C 370.01 5.76752 2.04998 0
M  V30 3934 N 369.147 6.28021 3.13901 0
M  V30 3935 H 373.987 2.9779 0.111749 0
M  V30 3936 H 371.524 1.47036 0.0434007 0
M  V30 3937 H 373.482 3.28428 2.57276 0
M  V30 3938 H 372.112 2.15575 2.40265 0
M  V30 3939 H 371.164 3.7581 0.589173 0
M  V30 3940 H 372.476 4.88906 0.98856 0
M  V30 3941 H 371.63 5.06646 3.33758 0
M  V30 3942 H 370.369 3.84828 2.99598 0
M  V30 3943 H 369.374 5.35383 1.25079 0
M  V30 3944 H 370.599 6.59553 1.61759 0
M  V30 3945 H 368.545 5.49971 3.57586 0
M  V30 3946 H 368.462 7.03323 2.7726 0
M  V30 3947 H 369.73 6.73538 3.92386 0
M  V30 3948 N 373.959 -0.0401083 1.57549 0
M  V30 3949 C 374.891 -1.07149 2.02612 0
M  V30 3950 C 375.904 -1.33126 0.937085 0
M  V30 3951 O 377.093 -1.30808 1.21456 0
M  V30 3952 C 374.193 -2.41561 2.37701 0
M  V30 3953 C 373.366 -2.35096 3.68848 0
M  V30 3954 C 372.425 -3.51867 3.91249 0
M  V30 3955 O 371.451 -3.3186 4.62447 0
M  V30 3956 N 372.653 -4.73351 3.36035 0
M  V30 3957 H 375.418 -0.687485 2.91708 0
M  V30 3958 H 372.979 -0.228248 1.60283 0
M  V30 3959 H 374.971 -3.18379 2.49833 0
M  V30 3960 H 373.541 -2.71846 1.54332 0
M  V30 3961 H 372.761 -1.4345 3.67173 0
M  V30 3962 H 374.049 -2.27908 4.54901 0
M  V30 3963 H 373.447 -4.92507 2.78304 0
M  V30 3964 H 372.004 -5.47572 3.53565 0
M  V30 3965 N 375.437 -1.54477 -0.31217 0
M  V30 3966 C 376.384 -1.84655 -1.38461 0
M  V30 3967 C 377.354 -0.694536 -1.50882 0
M  V30 3968 O 378.539 -0.942081 -1.6592 0
M  V30 3969 C 375.679 -2.0896 -2.74645 0
M  V30 3970 C 374.792 -3.36618 -2.70763 0
M  V30 3971 C 373.927 -3.50824 -3.98868 0
M  V30 3972 C 372.966 -4.72315 -3.89339 0
M  V30 3973 N 372.103 -4.83387 -5.09197 0
M  V30 3974 H 376.943 -2.76142 -1.12026 0
M  V30 3975 H 374.48 -1.36748 -0.542065 0
M  V30 3976 H 376.438 -2.21045 -3.53829 0
M  V30 3977 H 375.068 -1.20752 -2.99364 0
M  V30 3978 H 374.12 -3.33211 -1.83506 0
M  V30 3979 H 375.432 -4.25917 -2.59608 0
M  V30 3980 H 374.586 -3.62513 -4.86486 0
M  V30 3981 H 373.325 -2.59638 -4.12843 0
M  V30 3982 H 372.33 -4.6067 -3.00105 0
M  V30 3983 H 373.555 -5.64897 -3.76919 0
M  V30 3984 H 371.501 -3.9512 -5.23657 0
M  V30 3985 H 371.418 -5.66669 -5.00422 0
M  V30 3986 H 372.686 -4.9942 -5.98498 0
M  V30 3987 N 376.915 0.57481 -1.46744 0
M  V30 3988 C 378.161 1.3347 -1.52688 0
M  V30 3989 C 378.494 1.93353 -0.181229 0
M  V30 3990 O 377.769 1.76912 0.808237 0
M  V30 3991 C 378.052 2.45811 -2.63152 0
M  V30 3992 C 377.905 1.90912 -4.07275 0
M  V30 3993 C 379.224 3.47822 -2.69644 0
M  V30 3994 H 376.343 0.483935 -0.555856 0
M  V30 3995 H 378.985 0.644968 -1.78718 0
M  V30 3996 H 377.135 3.04646 -2.41088 0
M  V30 3997 H 378.807 1.36473 -4.4065 0
M  V30 3998 H 377.05 1.21691 -4.16382 0
M  V30 3999 H 377.721 2.72042 -4.80309 0
M  V30 4000 H 380.197 2.9888 -2.895 0
M  V30 4001 H 379.073 4.23876 -3.48742 0
M  V30 4002 H 379.334 4.05555 -1.76005 0
M  V30 4003 N 378.394 1.34581 0.820102 0
M  V30 4004 C 379.619 1.30333 1.61332 0
M  V30 4005 C 380.044 -0.119339 1.87721 0
M  V30 4006 O 379.402 -1.08197 1.45475 0
M  V30 4007 C 379.45 2.10258 2.92957 0
M  V30 4008 O 378.554 1.47404 3.85157 0
M  V30 4009 H 377.895 0.447488 0.490561 0
M  V30 4010 H 380.425 1.77425 1.01889 0
M  V30 4011 H 380.435 2.21718 3.42498 0
M  V30 4012 H 379.11 3.13693 2.73074 0
M  V30 4013 H 377.687 1.44703 3.43679 0
M  V30 4014 N 379.872 -1.04064 1.18357 0
M  V30 4015 C 381.118 -1.77528 0.980397 0
M  V30 4016 C 381.451 -1.87948 -0.48879 0
M  V30 4017 O 380.726 -1.3876 -1.36293 0
M  V30 4018 C 381.009 -3.20797 1.63588 0
M  V30 4019 C 380.862 -3.1832 3.17793 0
M  V30 4020 C 382.181 -4.18911 1.34914 0
M  V30 4021 H 379.3 -0.644443 0.357578 0
M  V30 4022 H 381.942 -1.2156 1.46024 0
M  V30 4023 H 380.092 -3.68586 1.22788 0
M  V30 4024 H 381.764 -2.78521 3.67728 0
M  V30 4025 H 380.007 -2.56351 3.49952 0
M  V30 4026 H 380.678 -4.19489 3.58794 0
M  V30 4027 H 383.154 -3.7967 1.70265 0
M  V30 4028 H 382.03 -5.17374 1.83346 0
M  V30 4029 H 382.291 -4.41262 0.272027 0
M  V30 4030 N 381.35 -0.985608 -1.22978 0
M  V30 4031 C 382.298 -0.522631 -2.26652 0
M  V30 4032 C 383.292 0.422998 -1.64034 0
M  V30 4033 O 384.498 0.296319 -1.77544 0
M  V30 4034 H 380.873 -0.150597 -0.736766 0
M  V30 4035 H 382.844 -1.40863 -2.63059 0
M  V30 4036 C 381.593 0.154238 -3.47358 0
M  V30 4037 H 380.916 -0.564329 -3.95797 0
M  V30 4038 H 382.356 0.441744 -4.21693 0
M  V30 4039 C 380.815 1.38719 -3.07016 0
M  V30 4040 O 381.345 2.48307 -3.15764 0
M  V30 4041 N 379.551 1.25975 -2.61875 0
M  V30 4042 H 379.098 0.368068 -2.54957 0
M  V30 4043 H 379.056 2.08578 -2.3525 0
M  V30 4044 N 382.828 1.3818 -0.7579 0
M  V30 4045 C 383.738 2.3421 -0.135247 0
M  V30 4046 C 384.754 1.59487 0.695683 0
M  V30 4047 O 385.93 1.91657 0.618832 0
M  V30 4048 C 382.995 3.3862 0.744139 0
M  V30 4049 C 382.056 4.2918 -0.101658 0
M  V30 4050 C 381.289 5.28603 0.735851 0
M  V30 4051 O 381.512 5.35166 1.97366 0
M  V30 4052 O 380.446 6.01707 0.152372 0
M  V30 4053 H 384.272 2.8916 -0.928436 0
M  V30 4054 H 381.857 1.40101 -0.518855 0
M  V30 4055 H 383.739 4.02539 1.2466 0
M  V30 4056 H 382.414 2.86019 1.51575 0
M  V30 4057 H 381.321 3.68407 -0.650167 0
M  V30 4058 H 382.654 4.85048 -0.836024 0
M  V30 4059 N 384.306 0.507319 1.49211 0
M  V30 4060 C 385.722 0.163682 1.58758 0
M  V30 4061 C 385.922 -1.33208 1.51188 0
M  V30 4062 O 384.978 -2.10855 1.38911 0
M  V30 4063 C 386.291 0.746095 2.91297 0
M  V30 4064 C 387.839 0.712773 3.04776 0
M  V30 4065 C 388.314 1.27336 4.39943 0
M  V30 4066 N 389.805 1.23433 4.46451 0
M  V30 4067 C 390.54 1.63821 5.495 0
M  V30 4068 N 390.036 2.11832 6.5962 0
M  V30 4069 N 391.829 1.55198 5.4025 0
M  V30 4070 H 383.98 1.47972 1.52375 0
M  V30 4071 H 386.243 0.614147 0.722168 0
M  V30 4072 H 385.949 1.79534 3.02424 0
M  V30 4073 H 385.823 0.210137 3.76614 0
M  V30 4074 H 388.21 -0.327656 2.93275 0
M  V30 4075 H 388.291 1.28595 2.21127 0
M  V30 4076 H 387.935 2.3126 4.52196 0
M  V30 4077 H 387.865 0.676066 5.22242 0
M  V30 4078 H 390.356 0.882627 3.67448 0
M  V30 4079 H 390.669 2.40703 7.34358 0
M  V30 4080 H 389.014 2.1581 6.60644 0
M  V30 4081 H 392.205 1.17505 4.53112 0
M  V30 4082 H 392.378 1.86997 6.20432 0
M  V30 4083 N 385.784 -1.5574 0.241426 0
M  V30 4084 C 387.03 -1.99104 -0.385406 0
M  V30 4085 C 387.363 -1.1293 -1.57988 0
M  V30 4086 O 386.638 -0.191449 -1.93555 0
M  V30 4087 C 386.921 -3.51087 -0.800616 0
M  V30 4088 C 386.774 -4.48028 0.398874 0
M  V30 4089 C 388.093 -4.08015 -1.64959 0
M  V30 4090 H 385.212 -0.723848 -0.138614 0
M  V30 4091 H 387.854 -1.86903 0.341642 0
M  V30 4092 H 386.004 -3.61615 -1.4201 0
M  V30 4093 H 387.676 -4.49487 1.03726 0
M  V30 4094 H 385.919 -4.21077 1.04293 0
M  V30 4095 H 386.59 -5.51962 0.0651056 0
M  V30 4096 H 389.066 -4.00555 -1.12672 0
M  V30 4097 H 387.942 -5.14635 -1.90898 0
M  V30 4098 H 388.203 -3.56131 -2.61961 0
M  V30 4099 N 387.262 0.0317525 -1.57568 0
M  V30 4100 C 388.195 1.06621 -2.0176 0
M  V30 4101 C 389.173 1.35323 -0.901462 0
M  V30 4102 O 390.357 1.48025 -1.16708 0
M  V30 4103 C 387.484 2.40155 -2.38837 0
M  V30 4104 C 386.53 2.27327 -3.60867 0
M  V30 4105 S 387.363 1.62925 -5.10113 0
M  V30 4106 C 388.519 2.97955 -5.5043 0
M  V30 4107 H 388.752 0.689781 -2.89187 0
M  V30 4108 H 386.285 0.24164 -1.52497 0
M  V30 4109 H 388.243 3.1695 -2.6087 0
M  V30 4110 H 386.904 2.74946 -1.51867 0
M  V30 4111 H 386.097 3.25898 -3.84456 0
M  V30 4112 H 385.699 1.58675 -3.38671 0
M  V30 4113 H 387.991 3.94285 -5.5095 0
M  V30 4114 H 388.934 2.79102 -6.50775 0
M  V30 4115 H 389.342 3.00404 -4.77931 0
M  V30 4116 N 388.74 1.54641 0.303973 0
M  V30 4117 C 390.151 1.64811 0.877163 0
M  V30 4118 C 390.502 0.554838 1.88191 0
M  V30 4119 O 389.627 -0.309033 2.14182 0
M  V30 4120 C 390.222 2.9876 1.59775 0
M  V30 4121 C 388.781 3.11061 2.11938 0
M  V30 4122 C 387.928 2.60479 0.951097 0
M  V30 4123 H 390.879 1.58493 0.0810486 0
M  V30 4124 H 390.9 2.90017 2.46314 0
M  V30 4125 H 390.412 3.7831 0.866226 0
M  V30 4126 H 388.513 2.36225 2.88146 0
M  V30 4127 H 388.626 4.17171 2.35595 0
M  V30 4128 H 386.99 2.16859 1.33583 0
M  V30 4129 H 387.773 3.42504 0.233581 0
M  V30 4130 N 390.218 -0.567019 1.47046 0
M  V30 4131 C 391.467 -1.32091 1.5243 0
M  V30 4132 C 391.78 -1.94704 0.187021 0
M  V30 4133 O 392.986 -2.7124 0.118771 0
M  V30 4134 C 391.442 -2.39479 2.68659 0
M  V30 4135 C 391.05 -1.831 4.08874 0
M  V30 4136 C 392.794 -3.16111 2.83327 0
M  V30 4137 C 390.701 -2.8821 5.16419 0
M  V30 4138 H 389.631 -0.496629 0.56734 0
M  V30 4139 H 392.282 -0.603354 1.73297 0
M  V30 4140 H 390.664 -3.14105 2.41152 0
M  V30 4141 H 391.838 -1.14913 4.46242 0
M  V30 4142 H 390.153 -1.19085 3.99008 0
M  V30 4143 H 392.75 -3.94585 3.60842 0
M  V30 4144 H 393.093 -3.69686 1.91411 0
M  V30 4145 H 393.626 -2.48595 3.10556 0
M  V30 4146 H 390.365 -2.39504 6.10179 0
M  V30 4147 H 389.885 -3.54839 4.8358 0
M  V30 4148 H 391.564 -3.51881 5.42945 0
M  V30 4149 N 391.696 -1.35014 -0.812953 0
M  V30 4150 C 392.936 -1.29289 -1.58315 0
M  V30 4151 C 393.3 0.132727 -1.91541 0
M  V30 4152 O 394.501 0.314269 -2.66957 0
M  V30 4153 C 392.772 -2.1681 -2.84127 0
M  V30 4154 S 394.331 -2.28538 -3.74588 0
M  V30 4155 H 391.149 -0.459569 -0.542511 0
M  V30 4156 H 393.751 -1.70336 -0.959467 0
M  V30 4157 H 392.455 -3.19379 -2.57731 0
M  V30 4158 H 391.986 -1.76697 -3.51485 0
M  V30 4159 H 394.001 -1.4655 -4.74065 0
M  V30 4160 N 393.175 1.03435 -1.18907 0
M  V30 4161 C 394.105 2.13503 -0.945448 0
M  V30 4162 C 395.086 1.69682 0.119189 0
M  V30 4163 O 396.271 1.94169 -0.034707 0
M  V30 4164 C 393.401 3.44004 -0.477316 0
M  V30 4165 C 392.355 4.0148 -1.48316 0
M  V30 4166 C 391.681 5.27537 -0.872311 0
M  V30 4167 C 392.981 4.36921 -2.86177 0
M  V30 4168 H 394.675 2.34141 -1.86597 0
M  V30 4169 H 392.221 1.12523 -0.898584 0
M  V30 4170 H 394.174 4.20372 -0.294204 0
M  V30 4171 H 392.898 3.23072 0.478786 0
M  V30 4172 H 391.557 3.27201 -1.65332 0
M  V30 4173 H 391.205 5.02917 0.0911752 0
M  V30 4174 H 390.905 5.66954 -1.54393 0
M  V30 4175 H 392.429 6.06576 -0.699871 0
M  V30 4176 H 393.843 5.04248 -2.72776 0
M  V30 4177 H 392.24 4.87405 -3.50081 0
M  V30 4178 H 393.31 3.46466 -3.39248 0
M  V30 4179 N 394.653 0.992116 1.22453 0
M  V30 4180 C 396.064 0.702776 1.72968 0
M  V30 4181 C 396.415 -0.780399 1.80012 0
M  V30 4182 O 395.54 -1.61007 1.44589 0
M  V30 4183 C 396.135 1.26903 3.14135 0
M  V30 4184 C 394.694 1.02909 3.62059 0
M  V30 4185 C 393.841 1.38969 2.39964 0
M  V30 4186 H 396.792 1.16457 1.07812 0
M  V30 4187 H 396.813 0.647223 3.74955 0
M  V30 4188 H 396.325 2.34851 3.08977 0
M  V30 4189 H 394.426 -0.0337979 3.72585 0
M  V30 4190 H 394.539 1.69191 4.48231 0
M  V30 4191 H 392.903 0.808279 2.41535 0
M  V30 4192 H 393.686 2.4792 2.37467 0
M  V30 4193 N 396.131 -1.37776 0.765217 0
M  V30 4194 C 397.356 -2.04651 0.336537 0
M  V30 4195 C 397.781 -1.57337 -1.03086 0
M  V30 4196 O 397.139 -0.730621 -1.65927 0
M  V30 4197 C 397.187 -3.58577 0.381468 0
M  V30 4198 O 396.291 -4.07706 -0.62042 0
M  V30 4199 H 395.632 -0.64756 0.146838 0
M  V30 4200 H 398.162 -1.76221 1.03959 0
M  V30 4201 H 398.172 -4.07314 0.236448 0
M  V30 4202 H 396.847 -3.9237 1.37907 0
M  V30 4203 H 395.424 -3.70306 -0.439056 0
M  V30 4204 N 397.609 -0.515225 -1.4894 0
M  V30 4205 C 398.556 0.255567 -2.29381 0
M  V30 4206 C 399.526 0.947387 -1.36432 0
M  V30 4207 O 400.711 0.951288 -1.65394 0
M  V30 4208 C 397.851 1.30551 -3.19453 0
M  V30 4209 C 396.964 0.624029 -4.27469 0
M  V30 4210 C 396.099 1.65563 -5.0474 0
M  V30 4211 C 395.138 0.956802 -6.04576 0
M  V30 4212 N 394.275 1.93326 -6.74959 0
M  V30 4213 H 399.115 -0.436607 -2.94784 0
M  V30 4214 H 396.652 -0.227154 -1.45336 0
M  V30 4215 H 398.61 1.92639 -3.70062 0
M  V30 4216 H 397.24 1.96626 -2.56004 0
M  V30 4217 H 396.292 -0.110459 -3.8024 0
M  V30 4218 H 397.604 0.0746092 -4.98744 0
M  V30 4219 H 396.758 2.35119 -5.59289 0
M  V30 4220 H 395.497 2.23893 -4.3327 0
M  V30 4221 H 394.502 0.247097 -5.49244 0
M  V30 4222 H 395.727 0.379814 -6.78037 0
M  V30 4223 H 393.673 2.50591 -6.06251 0
M  V30 4224 H 393.59 1.43489 -7.42258 0
M  V30 4225 H 394.858 2.62126 -7.34105 0
M  V30 4226 N 399.087 1.5561 -0.249682 0
M  V30 4227 C 400.364 1.90932 0.424761 0
M  V30 4228 C 400.744 1.17078 1.75658 0
M  V30 4229 O 400.092 0.289176 2.26663 0
M  V30 4230 C 400.302 3.43975 0.590109 0
M  V30 4231 C 401.65 4.15281 0.884714 0
M  V30 4232 O 402.674 3.49729 0.67587 0
M  V30 4233 O 401.533 5.31236 1.28259 0
M  V30 4234 H 398.627 0.794815 0.228468 0
M  V30 4235 H 401.173 1.67135 -0.293954 0
M  V30 4236 H 399.945 3.89748 -0.34818 0
M  V30 4237 H 399.568 3.73644 1.35926 0
M  V30 4238 N 400.565 -0.0233959 1.57583 0
M  V30 4239 C 401.795 -0.723631 1.93513 0
M  V30 4240 C 402.203 -1.69115 0.848333 0
M  V30 4241 O 401.546 -1.82781 -0.183484 0
M  V30 4242 C 401.608 -1.53075 3.25282 0
M  V30 4243 C 401.272 -0.727388 4.51174 0
M  V30 4244 C 402.269 -0.0251924 5.19894 0
M  V30 4245 C 399.954 -0.680256 4.97672 0
M  V30 4246 C 401.948 0.713374 6.33395 0
M  V30 4247 C 399.635 0.0620523 6.11068 0
M  V30 4248 C 400.633 0.757622 6.78785 0
M  V30 4249 O 400.321 1.48787 7.90011 0
M  V30 4250 H 400.053 -0.208051 0.643188 0
M  V30 4251 H 402.607 0.0167489 2.05393 0
M  V30 4252 H 400.837 -2.31508 3.09744 0
M  V30 4253 H 402.526 -2.11413 3.46496 0
M  V30 4254 H 403.292 -0.0526003 4.84971 0
M  V30 4255 H 399.171 -1.21116 4.44805 0
M  V30 4256 H 402.715 1.25683 6.86185 0
M  V30 4257 H 398.612 0.0913634 6.45435 0
M  V30 4258 H 399.38 1.40213 8.06401 0
M  V30 4259 N 402.043 -1.548 -0.295768 0
M  V30 4260 C 403.006 -1.85363 -1.34808 0
M  V30 4261 C 404.006 -0.726817 -1.43436 0
M  V30 4262 O 405.196 -0.995088 -1.42981 0
M  V30 4263 C 402.328 -2.03859 -2.73229 0
M  V30 4264 H 403.521 -2.7941 -1.08949 0
M  V30 4265 H 401.074 -1.46942 -0.532702 0
M  V30 4266 H 401.809 -1.12117 -3.04303 0
M  V30 4267 H 401.594 -2.8588 -2.68356 0
M  V30 4268 H 403.084 -2.28857 -3.49305 0
M  V30 4269 N 403.521 0.559213 -1.47345 0
M  V30 4270 C 404.431 1.69388 -1.62311 0
M  V30 4271 C 405.447 1.6648 -0.505993 0
M  V30 4272 O 406.623 1.85964 -0.773262 0
M  V30 4273 C 403.688 3.05894 -1.63185 0
M  V30 4274 C 402.749 3.19885 -2.86307 0
M  V30 4275 C 401.982 4.49879 -2.87131 0
M  V30 4276 O 402.205 5.35217 -1.97229 0
M  V30 4277 O 401.139 4.67618 -3.78968 0
M  V30 4278 H 404.965 1.59706 -2.58317 0
M  V30 4279 H 402.55 0.728989 -1.30407 0
M  V30 4280 H 404.432 3.87133 -1.66451 0
M  V30 4281 H 403.107 3.15964 -0.70345 0
M  V30 4282 H 402.014 2.38052 -2.88587 0
M  V30 4283 H 403.347 3.14718 -3.78435 0
M  V30 4284 N 404.999 1.35443 0.805782 0
M  V30 4285 C 406.245 1.28952 1.56522 0
M  V30 4286 C 406.578 -0.135597 1.93726 0
M  V30 4287 O 405.853 -1.08516 1.61414 0
M  V30 4288 C 406.136 2.19678 2.85331 0
M  V30 4289 C 405.989 3.7081 2.54598 0
M  V30 4290 C 407.308 2.09495 3.8704 0
M  V30 4291 H 404.427 0.469764 0.567883 0
M  V30 4292 H 407.069 1.65851 0.927001 0
M  V30 4293 H 405.219 1.8834 3.39795 0
M  V30 4294 H 406.891 4.12593 2.06312 0
M  V30 4295 H 405.134 3.91051 1.8778 0
M  V30 4296 H 405.805 4.29679 3.46525 0
M  V30 4297 H 408.281 2.37045 3.41978 0
M  V30 4298 H 407.157 2.75173 4.74943 0
M  V30 4299 H 407.418 1.07714 4.28777 0
M  V30 4300 N 406.477 -1.02803 1.19454 0
M  V30 4301 C 407.725 -1.75869 0.995722 0
M  V30 4302 C 408.046 -1.89138 -0.474543 0
M  V30 4303 O 407.316 -1.42558 -1.34366 0
M  V30 4304 H 405.896 -0.651511 0.365435 0
M  V30 4305 H 408.558 -1.24004 1.50363 0
M  V30 4306 H 407.654 -2.76661 1.44447 0
M  V30 4307 N 407.956 -0.998596 -1.21925 0
M  V30 4308 C 409.372 -0.710303 -1.42923 0
M  V30 4309 C 409.572 0.716933 -1.88314 0
M  V30 4310 O 408.628 1.48712 -2.04062 0
M  V30 4311 C 409.941 -1.72072 -2.466 0
M  V30 4312 C 411.489 -1.73681 -2.60392 0
M  V30 4313 C 411.964 -2.73601 -3.67296 0
M  V30 4314 N 413.455 -2.7223 -3.7476 0
M  V30 4315 C 414.19 -3.46206 -4.57087 0
M  V30 4316 N 413.686 -4.29802 -5.43362 0
M  V30 4317 N 415.479 -3.34886 -4.51451 0
M  V30 4318 H 407.63 -1.92028 -0.9077 0
M  V30 4319 H 409.893 -0.828487 -0.460775 0
M  V30 4320 H 409.599 -2.74231 -2.20206 0
M  V30 4321 H 409.473 -1.51818 -3.45299 0
M  V30 4322 H 411.86 -0.722173 -2.86127 0
M  V30 4323 H 411.941 -1.98005 -1.61949 0
M  V30 4324 H 411.585 -3.75217 -3.42307 0
M  V30 4325 H 411.515 -2.46545 -4.65321 0
M  V30 4326 H 414.006 -2.11576 -3.1312 0
M  V30 4327 H 414.319 -4.83061 -6.03218 0
M  V30 4328 H 412.664 -4.33887 -5.42925 0
M  V30 4329 H 415.855 -2.69015 -3.83078 0
M  V30 4330 H 416.028 -3.92796 -5.15379 0
M  V30 4331 N 409.434 1.37368 -0.772513 0
M  V30 4332 C 410.68 1.99969 -0.337681 0
M  V30 4333 C 411.013 1.61184 1.08321 0
M  V30 4334 O 410.288 0.858395 1.74533 0
M  V30 4335 C 410.571 3.56858 -0.482121 0
M  V30 4336 C 410.424 4.0555 -1.94549 0
M  V30 4337 C 411.743 4.39955 0.113143 0
M  V30 4338 H 408.862 0.726464 -0.124171 0
M  V30 4339 H 411.504 1.63034 -0.975699 0
M  V30 4340 H 409.654 3.88452 0.0610361 0
M  V30 4341 H 411.326 3.84518 -2.54841 0
M  V30 4342 H 409.569 3.57715 -2.45403 0
M  V30 4343 H 410.24 5.14587 -1.9976 0
M  V30 4344 H 412.716 4.14623 -0.35031 0
M  V30 4345 H 411.592 5.48897 -0.0180514 0
M  V30 4346 H 411.853 4.25403 1.20354 0
M  V30 4347 N 410.912 0.523116 1.48665 0
M  V30 4348 C 412.16 -0.0134497 2.02096 0
M  V30 4349 C 412.481 -1.35418 1.40311 0
M  V30 4350 O 411.751 -1.87543 0.566074 0
M  V30 4351 H 410.331 -0.00795915 0.746958 0
M  V30 4352 H 412.993 0.685388 1.82451 0
M  V30 4353 H 412.089 -0.126849 3.11842 0
M  V30 4354 N 412.39 -1.55475 0.257931 0
M  V30 4355 C 413.62 -2.03314 -0.367026 0
M  V30 4356 C 414.028 -1.13625 -1.51281 0
M  V30 4357 O 413.371 -0.145334 -1.83124 0
M  V30 4358 C 413.433 -3.47362 -0.926284 0
M  V30 4359 C 413.097 -4.56914 0.0886584 0
M  V30 4360 C 414.094 -5.12013 0.902123 0
M  V30 4361 C 411.779 -5.01827 0.217936 0
M  V30 4362 C 413.773 -6.10529 1.83122 0
M  V30 4363 C 411.46 -6.00172 1.15052 0
M  V30 4364 C 412.458 -6.54402 1.95568 0
M  V30 4365 O 412.146 -7.50827 2.87253 0
M  V30 4366 H 411.878 -0.669976 -0.0900443 0
M  V30 4367 H 414.432 -2.01804 0.382673 0
M  V30 4368 H 412.662 -3.46056 -1.72575 0
M  V30 4369 H 414.351 -3.78637 -1.46249 0
M  V30 4370 H 415.117 -4.78139 0.812891 0
M  V30 4371 H 410.996 -4.59272 -0.398721 0
M  V30 4372 H 414.54 -6.52783 2.46008 0
M  V30 4373 H 410.437 -6.33465 1.24064 0
M  V30 4374 H 411.205 -7.68483 2.81739 0
M  V30 4375 N 413.868 0.0150385 -1.57593 0
M  V30 4376 C 415.114 0.704043 -1.90187 0
M  V30 4377 C 415.447 1.74249 -0.857366 0
M  V30 4378 O 414.722 1.94092 0.125843 0
M  V30 4379 C 415.005 1.36087 -3.33395 0
M  V30 4380 C 414.858 0.334981 -4.48551 0
M  V30 4381 C 416.177 2.29112 -3.7576 0
M  V30 4382 H 413.296 0.254475 -0.691673 0
M  V30 4383 H 415.938 -0.0331678 -1.89971 0
M  V30 4384 H 414.088 1.98922 -3.3371 0
M  V30 4385 H 415.76 -0.292534 -4.60372 0
M  V30 4386 H 414.003 -0.344325 -4.32431 0
M  V30 4387 H 414.674 0.833316 -5.45674 0
M  V30 4388 H 417.15 1.76308 -3.76902 0
M  V30 4389 H 416.026 2.72043 -4.76743 0
M  V30 4390 H 416.287 3.16385 -3.08793 0
M  V30 4391 N 415.346 1.54954 0.287554 0
M  V30 4392 C 416.571 1.79209 1.04397 0
M  V30 4393 C 416.996 0.556431 1.79682 0
M  V30 4394 O 416.354 -0.493518 1.74454 0
M  V30 4395 C 416.402 3.00739 1.98969 0
M  V30 4396 O 415.506 2.74805 3.075 0
M  V30 4397 H 414.847 0.592755 0.299227 0
M  V30 4398 H 417.377 2.02068 0.320886 0
M  V30 4399 H 417.387 3.29077 2.4119 0
M  V30 4400 H 416.062 3.90329 1.43582 0
M  V30 4401 H 414.639 2.57523 2.69697 0
M  V30 4402 N 416.824 -0.551391 1.4764 0
M  V30 4403 C 418.072 -1.30572 1.54258 0
M  V30 4404 C 418.393 -1.93877 0.208963 0
M  V30 4405 O 417.663 -1.80234 -0.767619 0
M  V30 4406 H 416.243 -0.484894 0.568231 0
M  V30 4407 H 418.905 -0.643402 1.83974 0
M  V30 4408 H 418.001 -2.09621 2.31226 0
M  V30 4409 N 418.302 -1.35869 -0.798587 0
M  V30 4410 C 419.548 -1.30788 -1.55775 0
M  V30 4411 C 419.903 0.114558 -1.92059 0
M  V30 4412 O 419.196 1.06691 -1.59147 0
M  V30 4413 C 419.39 -2.1556 -2.85077 0
M  V30 4414 C 419.219 -3.65904 -2.61428 0
M  V30 4415 C 417.989 -4.35112 -2.56915 0
M  V30 4416 C 420.187 -4.59375 -2.31255 0
M  V30 4417 N 418.169 -5.71155 -2.25068 0
M  V30 4418 C 419.54 -5.83598 -2.09316 0
M  V30 4419 C 421.595 -4.48035 -2.17185 0
M  V30 4420 C 420.298 -6.97755 -1.74731 0
M  V30 4421 C 422.324 -5.62049 -1.83998 0
M  V30 4422 C 421.686 -6.85305 -1.629 0
M  V30 4423 H 417.785 -0.533855 -0.571422 0
M  V30 4424 H 420.369 -1.7083 -0.934079 0
M  V30 4425 H 418.54 -1.77776 -3.45326 0
M  V30 4426 H 420.272 -2.01938 -3.50718 0
M  V30 4427 H 417.027 -3.87812 -2.71843 0
M  V30 4428 H 417.451 -6.42978 -2.11916 0
M  V30 4429 H 422.093 -3.53338 -2.3219 0
M  V30 4430 H 419.811 -7.92411 -1.58464 0
M  V30 4431 H 423.397 -5.55232 -1.73808 0
M  V30 4432 H 422.277 -7.72034 -1.37596 0
M  V30 4433 N 419.78 1.02168 -1.19998 0
M  V30 4434 C 421.028 1.75338 -1.00504 0
M  V30 4435 C 421.349 1.89387 0.464506 0
M  V30 4436 O 420.619 1.43268 1.33608 0
M  V30 4437 H 419.199 0.649564 -0.368885 0
M  V30 4438 H 421.861 1.23205 -1.51018 0
M  V30 4439 H 420.957 2.75892 -1.45912 0
M  V30 4440 N 421.258 1.00505 1.21394 0
M  V30 4441 C 422.674 0.717873 1.42544 0
M  V30 4442 C 422.874 -0.706936 1.88692 0
M  V30 4443 O 421.93 -1.47627 2.04847 0
M  V30 4444 C 423.243 1.73377 2.45684 0
M  V30 4445 C 424.791 1.75059 2.59467 0
M  V30 4446 C 425.266 2.75545 3.6584 0
M  V30 4447 N 426.757 2.74213 3.73311 0
M  V30 4448 C 427.492 3.48626 4.55245 0
M  V30 4449 N 426.988 4.32678 5.41075 0
M  V30 4450 N 428.781 3.37276 4.49668 0
M  V30 4451 H 420.932 1.92506 0.897503 0
M  V30 4452 H 423.195 0.830919 0.456375 0
M  V30 4453 H 422.901 2.75395 2.18748 0
M  V30 4454 H 422.775 1.53647 3.44489 0
M  V30 4455 H 425.162 0.737337 2.8574 0
M  V30 4456 H 425.243 1.98861 1.60897 0
M  V30 4457 H 424.887 3.77028 3.40313 0
M  V30 4458 H 424.817 2.49009 4.64007 0
M  V30 4459 H 427.308 2.13234 3.11993 0
M  V30 4460 H 427.621 4.86253 6.00648 0
M  V30 4461 H 425.966 4.3676 5.40616 0
M  V30 4462 H 429.157 2.71043 3.81646 0
M  V30 4463 H 429.33 3.95524 5.13288 0
M  V30 4464 N 422.737 -1.36956 0.779787 0
M  V30 4465 C 423.685 -2.32053 0.15942 0
M  V30 4466 C 424.679 -1.55333 -0.675878 0
M  V30 4467 O 425.885 -1.70668 -0.57204 0
M  V30 4468 H 422.26 -0.751286 0.0327707 0
M  V30 4469 H 424.231 -2.8195 0.977078 0
M  V30 4470 C 422.98 -3.40602 -0.698977 0
M  V30 4471 H 422.303 -3.99746 -0.0655966 0
M  V30 4472 H 423.743 -4.09486 -1.09989 0
M  V30 4473 C 422.202 -2.81359 -1.85307 0
M  V30 4474 O 422.732 -2.72751 -2.94906 0
M  V30 4475 N 420.938 -2.38786 -1.65619 0
M  V30 4476 H 420.485 -2.45987 -0.764725 0
M  V30 4477 H 420.443 -1.99493 -2.43002 0
M  V30 4478 N 424.215 -0.530993 -1.48385 0
M  V30 4479 C 425.178 0.220497 -2.28137 0
M  V30 4480 C 426.178 0.866851 -1.35434 0
M  V30 4481 O 427.368 0.726746 -1.58316 0
M  V30 4482 C 424.5 1.31921 -3.1434 0
M  V30 4483 H 425.693 -0.479714 -2.96038 0
M  V30 4484 H 423.246 -0.286968 -1.53643 0
M  V30 4485 H 423.981 2.05264 -2.51072 0
M  V30 4486 H 423.766 0.86085 -3.82533 0
M  V30 4487 H 425.256 1.84776 -3.74497 0
M  V30 4488 N 425.693 1.55336 -0.266172 0
M  V30 4489 C 426.641 2.23587 0.641228 0
M  V30 4490 C 427.635 1.22986 1.16494 0
M  V30 4491 O 428.841 1.40943 1.1196 0
M  V30 4492 H 425.216 0.717452 0.225315 0
M  V30 4493 H 427.187 2.9837 0.0426561 0
M  V30 4494 C 425.936 2.96369 1.81826 0
M  V30 4495 H 425.259 3.73563 1.42445 0
M  V30 4496 H 426.699 3.47459 2.42998 0
M  V30 4497 C 425.158 2.0133 2.70125 0
M  V30 4498 O 425.688 1.55875 3.70224 0
M  V30 4499 N 423.894 1.6802 2.37102 0
M  V30 4500 H 423.441 2.05181 1.55751 0
M  V30 4501 H 423.399 1.047 2.96454 0
M  V30 4502 N 427.171 -0.0066808 1.57599 0
M  V30 4503 C 428.418 -0.69292 1.90276 0
M  V30 4504 C 428.746 -1.74148 0.866192 0
M  V30 4505 O 428.001 -1.95268 -0.129933 0
M  V30 4506 C 428.3 -1.37939 3.29708 0
M  V30 4507 C 427.966 -0.464679 4.48499 0
M  V30 4508 C 426.628 -0.212809 4.80729 0
M  V30 4509 C 428.98 0.16551 5.20937 0
M  V30 4510 C 426.308 0.677653 5.82773 0
M  V30 4511 C 428.66 1.04381 6.23929 0
M  V30 4512 C 427.324 1.30492 6.54621 0
M  V30 4513 H 426.594 -0.253558 0.696268 0
M  V30 4514 H 429.241 0.0474123 1.91441 0
M  V30 4515 H 427.546 -2.1936 3.24636 0
M  V30 4516 H 429.243 -1.9163 3.52249 0
M  V30 4517 H 425.833 -0.671153 4.23313 0
M  V30 4518 H 430.017 -0.0160756 4.96297 0
M  V30 4519 H 425.273 0.88803 6.04917 0
M  V30 4520 H 429.447 1.53851 6.79193 0
M  V30 4521 H 427.074 1.99662 7.33512 0
M  V30 4522 N 428.649 -1.55105 -0.279332 0
M  V30 4523 C 429.596 -1.8755 -1.34513 0
M  V30 4524 C 430.566 -0.726384 -1.49375 0
M  V30 4525 O 431.751 -0.977063 -1.63884 0
M  V30 4526 C 428.891 -2.14738 -2.70151 0
M  V30 4527 C 428.004 -3.42285 -2.63562 0
M  V30 4528 C 427.139 -3.59206 -3.91337 0
M  V30 4529 C 426.178 -4.80467 -3.79233 0
M  V30 4530 N 425.315 -4.94079 -4.98829 0
M  V30 4531 H 430.155 -2.78456 -1.06143 0
M  V30 4532 H 427.692 -1.37867 -0.512936 0
M  V30 4533 H 429.65 -2.28501 -3.49061 0
M  V30 4534 H 428.28 -1.27075 -2.96735 0
M  V30 4535 H 427.332 -3.37029 -1.76397 0
M  V30 4536 H 428.644 -4.31328 -2.50515 0
M  V30 4537 H 427.798 -3.72751 -4.78687 0
M  V30 4538 H 426.537 -2.68337 -4.07243 0
M  V30 4539 H 425.542 -4.66932 -2.90266 0
M  V30 4540 H 426.767 -5.72765 -3.64852 0
M  V30 4541 H 424.713 -4.06139 -5.15158 0
M  V30 4542 H 424.63 -5.77156 -4.8829 0
M  V30 4543 H 425.898 -5.12003 -5.8777 0
M  V30 4544 N 430.127 0.543554 -1.4793 0
M  V30 4545 C 431.374 1.30008 -1.55255 0
M  V30 4546 C 431.702 1.93245 -0.220612 0
M  V30 4547 O 430.957 1.79141 0.787843 0
M  V30 4548 C 431.256 2.42078 -2.62932 0
M  V30 4549 C 430.922 1.96583 -4.0579 0
M  V30 4550 C 429.584 1.83893 -4.44676 0
M  V30 4551 C 431.936 1.62034 -4.95373 0
M  V30 4552 C 429.264 1.34969 -5.70964 0
M  V30 4553 C 431.616 1.14577 -6.22137 0
M  V30 4554 C 430.28 1.00493 -6.59892 0
M  V30 4555 H 429.55 0.475735 -0.568117 0
M  V30 4556 H 432.197 0.608075 -1.81589 0
M  V30 4557 H 430.502 3.16892 -2.30406 0
M  V30 4558 H 432.199 3.00236 -2.65818 0
M  V30 4559 H 428.789 2.07407 -3.75074 0
M  V30 4560 H 432.973 1.70705 -4.66019 0
M  V30 4561 H 428.229 1.2274 -5.98953 0
M  V30 4562 H 432.403 0.869109 -6.90955 0
M  V30 4563 H 430.03 0.623624 -7.57638 0
M  V30 4564 N 431.605 1.3629 0.791371 0
M  V30 4565 C 432.833 1.33562 1.58016 0
M  V30 4566 C 433.248 -0.0835616 1.88615 0
M  V30 4567 O 432.605 -1.0399 1.49974 0
M  V30 4568 C 432.656 2.15517 2.90232 0
M  V30 4569 O 432.377 3.51902 2.60953 0
M  V30 4570 C 433.878 2.20546 3.84544 0
M  V30 4571 H 431.098 0.458226 0.490173 0
M  V30 4572 H 433.642 1.79361 0.982345 0
M  V30 4573 H 431.797 1.73278 3.46487 0
M  V30 4574 H 432.211 3.94644 3.4548 0
M  V30 4575 H 433.685 2.82252 4.74382 0
M  V30 4576 H 434.162 1.20838 4.2225 0
M  V30 4577 H 434.768 2.63013 3.34222 0
M  V30 4578 N 433.083 -1.0153 1.20538 0
M  V30 4579 C 434.36 -1.72327 0.925343 0
M  V30 4580 C 434.74 -2.03383 -0.565547 0
M  V30 4581 O 434.088 -1.69934 -1.52757 0
M  V30 4582 C 434.298 -2.9902 1.79967 0
M  V30 4583 C 435.646 -3.72258 2.04228 0
M  V30 4584 O 436.67 -3.08979 1.77231 0
M  V30 4585 O 435.529 -4.86053 2.4983 0
M  V30 4586 H 432.623 -0.751099 0.346092 0
M  V30 4587 H 435.169 -1.07366 1.31417 0
M  V30 4588 H 433.941 -2.72402 2.80915 0
M  V30 4589 H 433.564 -3.71721 1.41099 0
M  V30 4590 N 434.561 -1.01147 -1.20859 0
M  V30 4591 C 435.511 -0.548247 -2.2131 0
M  V30 4592 C 436.495 0.393646 -1.5601 0
M  V30 4593 O 437.687 0.217445 -1.75659 0
M  V30 4594 C 434.816 0.117252 -3.431 0
M  V30 4595 C 433.902 -0.846043 -4.15575 0
M  V30 4596 N 434.293 -2.00149 -4.64515 0
M  V30 4597 C 432.591 -0.665783 -4.41003 0
M  V30 4598 C 433.292 -2.60764 -5.19978 0
M  V30 4599 N 432.268 -1.88868 -5.09735 0
M  V30 4600 H 436.07 -1.42921 -2.56809 0
M  V30 4601 H 433.584 -0.876142 -1.36739 0
M  V30 4602 H 435.581 0.46662 -4.1428 0
M  V30 4603 H 434.241 0.994115 -3.09107 0
M  V30 4604 H 435.252 -2.38162 -4.5989 0
M  V30 4605 H 431.929 0.163456 -4.1718 0
M  V30 4606 H 433.319 -3.58519 -5.68255 0
M  V30 4607 N 436.039 1.36541 -0.78704 0
M  V30 4608 C 436.969 2.32659 -0.197992 0
M  V30 4609 C 437.95 1.56533 0.665697 0
M  V30 4610 O 439.135 1.84698 0.60001 0
M  V30 4611 C 436.265 3.40778 0.669901 0
M  V30 4612 C 435.219 4.27897 -0.0937039 0
M  V30 4613 C 434.545 5.27163 0.894629 0
M  V30 4614 C 435.845 5.06334 -1.28154 0
M  V30 4615 H 437.539 2.82171 -1.00099 0
M  V30 4616 H 435.085 1.35665 -0.482793 0
M  V30 4617 H 437.038 4.07008 1.09191 0
M  V30 4618 H 435.762 2.89827 1.50558 0
M  V30 4619 H 434.421 3.6322 -0.49666 0
M  V30 4620 H 434.069 4.72486 1.72527 0
M  V30 4621 H 433.769 5.86317 0.388149 0
M  V30 4622 H 435.293 5.96266 1.31525 0
M  V30 4623 H 436.707 5.65617 -0.93541 0
M  V30 4624 H 435.104 5.74888 -1.72115 0
M  V30 4625 H 436.174 4.38114 -2.07807 0
M  V30 4626 N 437.518 0.538854 1.48102 0
M  V30 4627 C 438.465 -0.219042 2.29758 0
M  V30 4628 C 439.435 -0.925562 1.37922 0
M  V30 4629 O 440.62 -0.924855 1.66886 0
M  V30 4630 C 437.76 -1.25452 3.2149 0
M  V30 4631 C 436.873 -0.555943 4.28408 0
M  V30 4632 C 436.008 -1.57512 5.0731 0
M  V30 4633 C 435.047 -0.860498 6.06021 0
M  V30 4634 N 434.184 -1.82564 6.77949 0
M  V30 4635 H 439.024 0.483449 2.94052 0
M  V30 4636 H 436.561 0.250247 1.44956 0
M  V30 4637 H 438.519 -1.86727 3.7308 0
M  V30 4638 H 437.149 -1.92528 2.591 0
M  V30 4639 H 436.201 0.170938 3.80016 0
M  V30 4640 H 437.513 0.00474616 4.988 0
M  V30 4641 H 436.667 -2.26191 5.62959 0
M  V30 4642 H 435.406 -2.16972 4.36778 0
M  V30 4643 H 434.411 -0.159686 5.49568 0
M  V30 4644 H 435.636 -0.271897 6.78555 0
M  V30 4645 H 433.582 -2.40915 6.10161 0
M  V30 4646 H 433.499 -1.31662 7.44447 0
M  V30 4647 H 434.767 -2.50414 7.38182 0
M  V30 4648 N 438.996 -1.55193 0.274407 0
M  V30 4649 C 440.226 -2.03692 -0.345442 0
M  V30 4650 C 440.634 -1.15224 -1.50067 0
M  V30 4651 O 439.977 -0.164749 -1.8296 0
M  V30 4652 C 440.039 -3.48325 -0.88939 0
M  V30 4653 C 439.703 -4.56794 0.137115 0
M  V30 4654 C 440.7 -5.11028 0.956378 0
M  V30 4655 C 438.385 -5.01568 0.27115 0
M  V30 4656 C 440.379 -6.08552 1.89587 0
M  V30 4657 C 438.066 -5.98918 1.21412 0
M  V30 4658 C 439.064 -6.52291 2.02498 0
M  V30 4659 O 438.752 -7.47738 2.952 0
M  V30 4660 H 438.484 -0.670893 -0.0829332 0
M  V30 4661 H 441.038 -2.01387 0.404056 0
M  V30 4662 H 439.268 -3.47867 -1.68895 0
M  V30 4663 H 440.957 -3.80167 -1.42225 0
M  V30 4664 H 441.723 -4.7725 0.863559 0
M  V30 4665 H 437.602 -4.5967 -0.349987 0
M  V30 4666 H 441.146 -6.50137 2.52918 0
M  V30 4667 H 437.043 -6.32114 1.30776 0
M  V30 4668 H 437.811 -7.65451 2.89874 0
M  V30 4669 N 440.474 -0.00167713 -1.576 0
M  V30 4670 C 441.72 0.683832 -1.90923 0
M  V30 4671 C 442.053 1.7333 -0.875799 0
M  V30 4672 O 441.328 1.94215 0.10525 0
M  V30 4673 C 441.611 1.32543 -3.3482 0
M  V30 4674 C 441.464 0.287387 -4.48881 0
M  V30 4675 C 442.783 2.25114 -3.78169 0
M  V30 4676 H 439.902 0.247125 -0.694333 0
M  V30 4677 H 442.544 -0.0533149 -1.89925 0
M  V30 4678 H 440.694 1.95372 -3.35801 0
M  V30 4679 H 442.366 -0.341346 -4.60035 0
M  V30 4680 H 440.609 -0.39017 -4.32042 0
M  V30 4681 H 441.28 0.775393 -5.46527 0
M  V30 4682 H 443.756 1.723 -3.7875 0
M  V30 4683 H 442.632 2.66971 -4.79602 0
M  V30 4684 H 442.893 3.13092 -3.12131 0
M  V30 4685 N 441.952 1.55251 0.271103 0
M  V30 4686 C 442.885 1.83191 1.36075 0
M  V30 4687 C 443.863 0.685091 1.47463 0
M  V30 4688 O 445.047 0.928292 1.64058 0
M  V30 4689 C 442.174 1.99521 2.73696 0
M  V30 4690 C 441.22 3.22081 2.79582 0
M  V30 4691 S 442.053 4.79388 2.38636 0
M  V30 4692 C 443.209 4.98693 3.78228 0
M  V30 4693 H 443.442 2.75327 1.12171 0
M  V30 4694 H 440.975 1.47046 0.470833 0
M  V30 4695 H 442.933 2.09613 3.52948 0
M  V30 4696 H 441.594 1.0827 2.9485 0
M  V30 4697 H 440.787 3.304 3.80594 0
M  V30 4698 H 440.389 3.10589 2.08352 0
M  V30 4699 H 442.681 4.84551 4.73515 0
M  V30 4700 H 443.624 6.00738 3.7486 0
M  V30 4701 H 444.032 4.26665 3.69618 0
M  V30 4702 N 443.43 -0.535701 1.48216 0
M  V30 4703 C 444.36 -1.65014 1.65204 0
M  V30 4704 C 445.341 -1.62554 0.501011 0
M  V30 4705 O 446.526 -1.7984 0.732886 0
M  V30 4706 C 443.656 -3.03616 1.68626 0
M  V30 4707 C 442.61 -3.20932 2.83172 0
M  V30 4708 C 441.936 -4.60537 2.71679 0
M  V30 4709 C 443.236 -3.04249 4.24535 0
M  V30 4710 H 444.93 -1.51053 2.58502 0
M  V30 4711 H 442.476 -0.725262 1.24402 0
M  V30 4712 H 444.429 -3.81446 1.79099 0
M  V30 4713 H 443.153 -3.18587 0.719026 0
M  V30 4714 H 441.812 -2.45517 2.72244 0
M  V30 4715 H 441.46 -4.72336 1.72937 0
M  V30 4716 H 441.16 -4.73069 3.48538 0
M  V30 4717 H 442.684 -5.40475 2.84112 0
M  V30 4718 H 444.098 -3.71877 4.36326 0
M  V30 4719 H 442.495 -3.28278 5.02348 0
M  V30 4720 H 443.565 -2.00739 4.41397 0
M  V30 4721 N 444.908 -1.36708 -0.784132 0
M  V30 4722 C 446.319 -1.27947 -1.35965 0
M  V30 4723 C 446.67 0.0784013 -1.96043 0
M  V30 4724 O 445.795 0.979989 -1.92938 0
M  V30 4725 C 446.39 -2.31689 -2.47195 0
M  V30 4726 C 444.949 -2.26601 -3.00548 0
M  V30 4727 C 444.096 -2.16184 -1.73666 0
M  V30 4728 H 447.047 -1.4751 -0.585358 0
M  V30 4729 H 447.068 -1.95638 -3.26352 0
M  V30 4730 H 446.58 -3.30506 -2.03439 0
M  V30 4731 H 444.681 -1.31268 -3.48711 0
M  V30 4732 H 444.794 -3.19508 -3.57004 0
M  V30 4733 H 443.158 -1.62524 -1.96107 0
M  V30 4734 H 443.941 -3.16896 -1.32031 0
M  V30 4735 N 446.386 1.0089 -1.21074 0
M  V30 4736 C 447.632 1.74866 -1.02712 0
M  V30 4737 C 447.965 1.89178 0.438787 0
M  V30 4738 O 447.24 1.42325 1.32567 0
M  V30 4739 C 447.523 3.16347 -1.72036 0
M  V30 4740 C 447.376 3.09782 -3.26121 0
M  V30 4741 C 448.695 4.15187 -1.45973 0
M  V30 4742 H 445.814 0.634736 -0.374539 0
M  V30 4743 H 448.456 1.17646 -1.49196 0
M  V30 4744 H 446.606 3.65201 -1.32517 0
M  V30 4745 H 448.278 2.68673 -3.74983 0
M  V30 4746 H 446.521 2.46982 -3.56626 0
M  V30 4747 H 447.192 4.09829 -3.6979 0
M  V30 4748 H 449.668 3.75022 -1.80272 0
M  V30 4749 H 448.544 5.12331 -1.96999 0
M  V30 4750 H 448.805 4.40386 -0.388924 0
M  V30 4751 N 447.864 1.01787 1.20321 0
M  V30 4752 C 448.827 0.593972 2.2137 0
M  V30 4753 C 449.827 -0.336553 1.57239 0
M  V30 4754 O 451.017 -0.125069 1.7375 0
M  V30 4755 C 448.149 -0.132433 3.40643 0
M  V30 4756 H 449.342 1.48791 2.60387 0
M  V30 4757 H 446.895 0.807803 1.33807 0
M  V30 4758 H 447.63 -1.04123 3.0713 0
M  V30 4759 H 447.415 0.53605 3.88418 0
M  V30 4760 H 448.905 -0.416314 4.1552 0
M  V30 4761 N 449.342 -1.36122 0.79427 0
M  V30 4762 C 450.619 -1.93398 0.292685 0
M  V30 4763 C 450.999 -1.72567 -1.21589 0
M  V30 4764 O 450.347 -1.08745 -2.00965 0
M  V30 4765 C 450.557 -3.42099 0.690614 0
M  V30 4766 C 451.905 -4.19231 0.673105 0
M  V30 4767 O 452.929 -3.50559 0.631389 0
M  V30 4768 O 451.788 -5.41732 0.720362 0
M  V30 4769 H 448.882 -0.823712 0.0736693 0
M  V30 4770 H 451.428 -1.45273 0.87714 0
M  V30 4771 H 450.2 -3.50938 1.73085 0
M  V30 4772 H 449.823 -3.97519 0.0803036 0
M  V30 4773 N 450.82 -0.546701 -1.47814 0
M  V30 4774 C 451.752 0.244196 -2.27895 0
M  V30 4775 C 452.765 0.88911 -1.36377 0
M  V30 4776 O 453.954 0.764733 -1.61289 0
M  V30 4777 C 451.054 1.36252 -3.10304 0
M  V30 4778 C 450.227 0.816382 -4.29714 0
M  V30 4779 C 449.286 1.81789 -4.93801 0
M  V30 4780 O 448.312 1.36818 -5.52512 0
M  V30 4781 N 449.514 3.15085 -4.87547 0
M  V30 4782 H 452.279 -0.442694 -2.96412 0
M  V30 4783 H 449.84 -0.382095 -1.57327 0
M  V30 4784 H 451.832 2.03102 -3.50045 0
M  V30 4785 H 450.402 1.95281 -2.44099 0
M  V30 4786 H 449.622 -0.0285981 -3.9419 0
M  V30 4787 H 450.91 0.430668 -5.06974 0
M  V30 4788 H 450.308 3.54275 -4.41028 0
M  V30 4789 H 448.865 3.77522 -5.31339 0
M  V30 4790 N 452.299 1.55045 -0.282633 0
M  V30 4791 C 453.576 1.9179 0.384166 0
M  V30 4792 C 453.956 1.20778 1.73136 0
M  V30 4793 O 453.304 0.33719 2.25998 0
M  V30 4794 C 453.514 3.45149 0.517014 0
M  V30 4795 C 454.862 4.17064 0.796427 0
M  V30 4796 O 455.886 3.51084 0.601535 0
M  V30 4797 O 454.745 5.33837 1.16962 0
M  V30 4798 H 451.839 0.799483 0.211558 0
M  V30 4799 H 454.385 1.66474 -0.32934 0
M  V30 4800 H 453.157 3.88922 -0.430772 0
M  V30 4801 H 452.78 3.76443 1.2797 0
M  V30 4802 N 453.777 0.010035 1.57597 0
M  V30 4803 C 454.709 -1.00649 2.05918 0
M  V30 4804 C 455.722 -1.30077 0.978964 0
M  V30 4805 O 456.911 -1.26878 1.25556 0
M  V30 4806 C 454.011 -2.33876 2.45265 0
M  V30 4807 C 453.184 -2.23242 3.7614 0
M  V30 4808 C 452.243 -3.39242 4.02245 0
M  V30 4809 O 451.269 -3.1698 4.72771 0
M  V30 4810 N 452.471 -4.6242 3.50924 0
M  V30 4811 H 455.236 -0.594333 2.93748 0
M  V30 4812 H 452.797 -0.17714 1.60928 0
M  V30 4813 H 454.789 -3.1027 2.59836 0
M  V30 4814 H 453.359 -2.66799 1.62902 0
M  V30 4815 H 452.579 -1.31696 3.71551 0
M  V30 4816 H 453.867 -2.13321 4.61922 0
M  V30 4817 H 453.265 -4.83404 2.93832 0
M  V30 4818 H 451.822 -5.36046 3.70807 0
M  V30 4819 N 455.255 -1.55392 -0.262866 0
M  V30 4820 C 456.495 -1.78231 -1.00064 0
M  V30 4821 C 456.859 -0.576966 -1.83126 0
M  V30 4822 O 458.06 -0.683809 -2.59957 0
M  V30 4823 C 456.331 -3.05701 -1.85153 0
M  V30 4824 S 457.89 -3.49699 -2.65058 0
M  V30 4825 H 454.708 -0.626138 -0.336856 0
M  V30 4826 H 457.31 -1.93626 -0.27005 0
M  V30 4827 H 456.014 -3.91511 -1.23074 0
M  V30 4828 H 455.545 -2.93 -2.62515 0
M  V30 4829 H 457.56 -3.09772 -3.87629 0
M  V30 4830 N 456.733 0.527833 -1.48498 0
M  V30 4831 C 457.982 1.28003 -1.55878 0
M  V30 4832 C 458.295 1.9414 -0.238577 0
M  V30 4833 O 459.501 2.7083 -0.190643 0
M  V30 4834 C 457.957 2.32272 -2.74914 0
M  V30 4835 C 457.565 1.72196 -4.13585 0
M  V30 4836 C 459.309 3.08488 -2.91608 0
M  V30 4837 C 457.216 2.74417 -5.23879 0
M  V30 4838 H 456.146 0.481413 -0.580308 0
M  V30 4839 H 458.797 0.557195 -1.74836 0
M  V30 4840 H 457.179 3.07601 -2.49395 0
M  V30 4841 H 458.353 1.03041 -4.49132 0
M  V30 4842 H 456.668 1.08464 -4.02025 0
M  V30 4843 H 459.265 3.84879 -3.71177 0
M  V30 4844 H 459.608 3.64481 -2.01145 0
M  V30 4845 H 460.141 2.40274 -3.17038 0
M  V30 4846 H 456.88 2.23242 -6.16314 0
M  V30 4847 H 456.4 3.41893 -4.92818 0
M  V30 4848 H 458.079 3.37362 -5.52083 0
M  V30 4849 N 458.211 1.37122 0.776871 0
M  V30 4850 C 459.627 1.1781 1.07671 0
M  V30 4851 C 459.827 0.0107454 2.01497 0
M  V30 4852 O 458.883 -0.650756 2.4397 0
M  V30 4853 C 460.196 2.49451 1.67913 0
M  V30 4854 C 461.744 2.55927 1.80195 0
M  V30 4855 C 462.219 3.87686 2.43851 0
M  V30 4856 N 463.71 3.891 2.51307 0
M  V30 4857 C 464.445 4.87797 3.014 0
M  V30 4858 N 463.941 5.96888 3.51705 0
M  V30 4859 N 465.734 4.75205 3.00227 0
M  V30 4860 H 457.885 2.11843 0.153778 0
M  V30 4861 H 460.148 0.938927 0.130844 0
M  V30 4862 H 459.854 3.35207 1.06439 0
M  V30 4863 H 459.728 2.66169 2.67271 0
M  V30 4864 H 462.115 1.70582 2.40803 0
M  V30 4865 H 462.196 2.43097 0.796069 0
M  V30 4866 H 461.84 4.73444 1.83884 0
M  V30 4867 H 461.77 3.97817 3.45035 0
M  V30 4868 H 464.261 3.10293 2.157 0
M  V30 4869 H 464.574 6.68155 3.88316 0
M  V30 4870 H 462.919 6.0054 3.49824 0
M  V30 4871 H 466.11 3.89103 2.60224 0
M  V30 4872 H 466.283 5.52279 3.38957 0
M  V30 4873 N 459.689 -1.00246 1.21608 0
M  V30 4874 C 460.639 -2.07492 0.945051 0
M  V30 4875 C 461.623 -1.60585 -0.100675 0
M  V30 4876 O 462.815 -1.76667 0.10859 0
M  V30 4877 C 459.944 -3.39425 0.514342 0
M  V30 4878 C 459.03 -3.92993 1.59428 0
M  V30 4879 N 459.421 -4.19898 2.81991 0
M  V30 4880 C 457.719 -4.21297 1.46374 0
M  V30 4881 C 458.42 -4.63297 3.51754 0
M  V30 4882 N 457.396 -4.66421 2.79199 0
M  V30 4883 H 461.198 -2.26222 1.87619 0
M  V30 4884 H 458.712 -1.18339 1.11219 0
M  V30 4885 H 460.709 -4.15808 0.301527 0
M  V30 4886 H 459.369 -3.22101 -0.410008 0
M  V30 4887 H 460.38 -4.08377 3.1851 0
M  V30 4888 H 457.057 -4.13095 0.604863 0
M  V30 4889 H 458.447 -4.92816 4.56708 0
M  V30 4890 N 461.167 -1.02423 -1.1978 0
M  V30 4891 C 462.397 -0.736387 -1.93031 0
M  V30 4892 C 462.805 0.708023 -1.75453 0
M  V30 4893 O 462.148 1.4927 -1.07071 0
M  V30 4894 C 462.21 -1.00194 -3.45255 0
M  V30 4895 C 461.874 -2.43698 -3.86601 0
M  V30 4896 C 462.871 -3.41814 -3.91738 0
M  V30 4897 C 460.556 -2.77975 -4.18372 0
M  V30 4898 C 462.55 -4.72265 -4.28071 0
M  V30 4899 C 460.237 -4.08636 -4.54378 0
M  V30 4900 C 461.235 -5.05592 -4.59201 0
M  V30 4901 O 460.923 -6.33914 -4.94376 0
M  V30 4902 H 460.655 -0.269116 -0.620123 0
M  V30 4903 H 463.209 -1.37043 -1.52998 0
M  V30 4904 H 461.439 -0.310747 -3.85449 0
M  V30 4905 H 463.128 -0.704488 -3.9974 0
M  V30 4906 H 463.894 -3.16671 -3.67348 0
M  V30 4907 H 459.773 -2.0319 -4.13805 0
M  V30 4908 H 463.317 -5.4794 -4.3175 0
M  V30 4909 H 459.214 -4.33556 -4.78226 0
M  V30 4910 H 459.982 -6.38317 -5.12341 0
M  V30 4911 N 462.645 1.35699 -0.801477 0
M  V30 4912 C 463.555 2.33661 -0.209691 0
M  V30 4913 C 464.571 1.6162 0.644591 0
M  V30 4914 O 465.747 1.93529 0.557545 0
M  V30 4915 C 462.812 3.40816 0.636033 0
M  V30 4916 C 461.873 4.28639 -0.238147 0
M  V30 4917 C 461.106 5.30676 0.567307 0
M  V30 4918 O 461.329 5.41174 1.8024 0
M  V30 4919 O 460.263 6.01887 -0.0391336 0
M  V30 4920 H 464.089 2.8606 -1.01996 0
M  V30 4921 H 461.674 1.38379 -0.563164 0
M  V30 4922 H 463.556 4.06301 1.11791 0
M  V30 4923 H 462.231 2.90696 1.42399 0
M  V30 4924 H 461.138 3.66152 -0.767044 0
M  V30 4925 H 462.471 4.82143 -0.989915 0
M  V30 4926 N 464.123 0.554532 1.47522 0
M  V30 4927 C 465.371 0.0294208 2.02079 0
M  V30 4928 C 465.692 -1.32411 1.43151 0
M  V30 4929 O 464.962 -1.863 0.605728 0
M  V30 4930 H 463.542 0.00788672 0.746958 0
M  V30 4931 H 466.204 0.723934 1.80956 0
M  V30 4932 H 465.3 -0.0606745 3.12041 0
M  V30 4933 N 465.601 -1.54893 0.290851 0
M  V30 4934 C 466.826 -2.04804 -0.32712 0
M  V30 4935 C 467.251 -1.16721 -1.47506 0
M  V30 4936 O 466.609 -0.169107 -1.8051 0
M  V30 4937 C 466.657 -3.52268 -0.770689 0
M  V30 4938 O 465.761 -3.67236 -1.87647 0
M  V30 4939 H 465.102 -0.660789 -0.0652227 0
M  V30 4940 H 467.632 -2.00036 0.429739 0
M  V30 4941 H 467.642 -3.9393 -1.06223 0
M  V30 4942 H 466.317 -4.15843 0.069096 0
M  V30 4943 H 464.894 -3.37479 -1.58626 0
M  V30 4944 N 467.08 -0.0183926 -1.57589 0
M  V30 4945 C 468.308 0.673046 -1.95647 0
M  V30 4946 C 468.723 1.66275 -0.894312 0
M  V30 4947 O 468.08 1.82072 0.124975 0
M  V30 4948 C 468.131 1.38884 -3.33756 0
M  V30 4949 O 467.852 0.438806 -4.35897 0
M  V30 4950 C 469.353 2.1731 -3.86383 0
M  V30 4951 H 466.573 0.186292 -0.644621 0
M  V30 4952 H 469.117 -0.0749748 -2.04363 0
M  V30 4953 H 467.272 2.08835 -3.26293 0
M  V30 4954 H 467.686 0.945869 -5.15901 0
M  V30 4955 H 469.16 2.62863 -4.85394 0
M  V30 4956 H 469.637 3.00764 -3.20059 0
M  V30 4957 H 470.243 1.52339 -3.97081 0
M  V30 4958 N 468.558 1.5553 0.254621 0
M  V30 4959 C 469.804 1.77262 0.985193 0
M  V30 4960 C 470.137 0.582286 1.85265 0
M  V30 4961 O 469.412 -0.419666 1.89919 0
M  V30 4962 C 469.695 3.0881 1.85225 0
M  V30 4963 C 469.548 4.38233 1.0135 0
M  V30 4964 C 470.867 3.3653 2.83612 0
M  V30 4965 H 467.986 0.644906 0.356742 0
M  V30 4966 H 470.628 1.88264 0.256236 0
M  V30 4967 H 468.778 2.99562 2.47376 0
M  V30 4968 H 470.45 4.59463 0.411269 0
M  V30 4969 H 468.693 4.32636 0.317574 0
M  V30 4970 H 469.364 5.26644 1.65379 0
M  V30 4971 H 471.84 3.45691 2.31596 0
M  V30 4972 H 470.716 4.29805 3.41407 0
M  V30 4973 H 470.977 2.57064 3.59681 0
M  V30 4974 N 470.036 -0.519951 1.48776 0
M  V30 4975 C 471.447 -1.10177 1.50725 0
M  V30 4976 C 471.798 -1.94153 0.282678 0
M  V30 4977 O 470.923 -2.07645 -0.609298 0
M  V30 4978 C 471.518 -2.00482 2.73116 0
M  V30 4979 C 470.077 -2.53862 2.77905 0
M  V30 4980 C 469.224 -1.31047 2.44381 0
M  V30 4981 H 472.175 -0.30473 1.55747 0
M  V30 4982 H 472.196 -2.8491 2.52203 0
M  V30 4983 H 471.708 -1.39335 3.62225 0
M  V30 4984 H 469.809 -3.18702 1.93029 0
M  V30 4985 H 469.922 -2.9231 3.79594 0
M  V30 4986 H 468.286 -1.62953 1.95751 0
M  V30 4987 H 469.069 -0.71637 3.35743 0
M  V30 4988 N 471.514 -1.37532 -0.769588 0
M  V30 4989 C 472.424 -1.35668 -1.91393 0
M  V30 4990 C 473.44 -0.255954 -1.72107 0
M  V30 4991 O 474.616 -0.491704 -1.95305 0
M  V30 4992 C 471.681 -1.16481 -3.26547 0
M  V30 4993 C 470.742 -2.36212 -3.58472 0
M  V30 4994 C 469.975 -2.17932 -4.87177 0
M  V30 4995 O 470.198 -1.1647 -5.58382 0
M  V30 4996 O 469.132 -3.06167 -5.18214 0
M  V30 4997 H 472.958 -2.32055 -1.95918 0
M  V30 4998 H 470.543 -1.18284 -0.912641 0
M  V30 4999 H 472.425 -1.07778 -4.07384 0
M  V30 5000 H 471.1 -0.231687 -3.2287 0
M  V30 5001 H 470.007 -2.50488 -2.77861 0
M  V30 5002 H 471.34 -3.281 -3.66894 0
M  V30 5003 N 472.992 0.995999 -1.22138 0
M  V30 5004 C 473.939 2.08551 -0.988687 0
M  V30 5005 C 474.909 1.65864 0.0885021 0
M  V30 5006 O 476.094 1.90704 -0.0604589 0
M  V30 5007 C 473.234 3.40374 -0.569191 0
M  V30 5008 C 472.347 3.96421 -1.71681 0
M  V30 5009 C 471.482 5.1639 -1.2456 0
M  V30 5010 C 470.521 5.64567 -2.36497 0
M  V30 5011 N 469.658 6.75777 -1.90445 0
M  V30 5012 H 474.498 2.2779 -1.92135 0
M  V30 5013 H 472.035 1.1168 -0.957388 0
M  V30 5014 H 473.993 4.16068 -0.307166 0
M  V30 5015 H 472.623 3.21145 0.326462 0
M  V30 5016 H 471.675 3.17628 -2.09324 0
M  V30 5017 H 472.987 4.2816 -2.55891 0
M  V30 5018 H 472.141 5.99362 -0.940774 0
M  V30 5019 H 470.88 4.86266 -0.373662 0
M  V30 5020 H 469.885 4.80185 -2.67772 0
M  V30 5021 H 471.11 5.96716 -3.24202 0
M  V30 5022 H 469.056 6.47443 -1.05609 0
M  V30 5023 H 468.973 7.06818 -2.68223 0
M  V30 5024 H 470.241 7.62262 -1.63022 0
M  V30 5025 N 474.47 1.03057 1.19235 0
M  V30 5026 C 475.417 0.612832 2.22515 0
M  V30 5027 C 476.387 -0.374224 1.61829 0
M  V30 5028 O 477.572 -0.270501 1.88873 0
M  V30 5029 C 474.712 -0.028475 3.45088 0
M  V30 5030 C 473.825 1.00483 4.20151 0
M  V30 5031 C 472.96 0.333102 5.30155 0
M  V30 5032 C 471.999 1.3522 5.96977 0
M  V30 5033 N 471.136 0.70616 6.9854 0
M  V30 5034 H 475.976 1.49812 2.57605 0
M  V30 5035 H 473.513 0.749658 1.26564 0
M  V30 5036 H 475.471 -0.417548 4.15105 0
M  V30 5037 H 474.101 -0.877334 3.10649 0
M  V30 5038 H 473.153 1.51194 3.49062 0
M  V30 5039 H 474.465 1.77929 4.65986 0
M  V30 5040 H 473.619 -0.110725 6.06599 0
M  V30 5041 H 472.358 -0.473547 4.85396 0
M  V30 5042 H 471.363 1.80627 5.19282 0
M  V30 5043 H 472.588 2.16037 6.4382 0
M  V30 5044 H 470.534 -0.0803667 6.55951 0
M  V30 5045 H 470.451 1.41848 7.42573 0
M  V30 5046 H 471.719 0.286391 7.78974 0
M  V30 5047 N 475.948 -1.35272 0.808662 0
M  V30 5048 C 477.176 -2.02946 0.402537 0
M  V30 5049 C 477.591 -1.60937 -0.987147 0
M  V30 5050 O 476.948 -0.807917 -1.63643 0
M  V30 5051 C 476.999 -3.58317 0.47868 0
M  V30 5052 O 476.72 -3.98799 1.81358 0
M  V30 5053 C 478.221 -4.43251 0.0656281 0
M  V30 5054 H 475.441 -0.650831 0.163279 0
M  V30 5055 H 477.985 -1.72849 1.09286 0
M  V30 5056 H 476.14 -3.87055 -0.163415 0
M  V30 5057 H 476.554 -4.93451 1.77781 0
M  V30 5058 H 478.028 -5.51738 0.170017 0
M  V30 5059 H 478.505 -4.27913 -0.989278 0
M  V30 5060 H 479.111 -4.19813 0.68096 0
M  V30 5061 N 477.426 -0.562348 -1.47226 0
M  V30 5062 C 478.837 -0.130325 -1.86245 0
M  V30 5063 C 479.188 1.30128 -1.46838 0
M  V30 5064 O 478.313 1.97974 -0.873805 0
M  V30 5065 C 478.908 -0.229738 -3.3802 0
M  V30 5066 C 477.467 0.14728 -3.76112 0
M  V30 5067 C 476.614 -0.574971 -2.71274 0
M  V30 5068 H 479.565 -0.771773 -1.3867 0
M  V30 5069 H 479.586 0.550316 -3.76499 0
M  V30 5070 H 479.098 -1.27178 -3.66671 0
M  V30 5071 H 477.199 1.19023 -3.53078 0
M  V30 5072 H 477.312 -0.214858 -4.78618 0
M  V30 5073 H 475.676 -0.0174756 -2.54694 0
M  V30 5074 H 476.459 -1.61827 -3.02766 0
M  V30 5075 N 478.904 1.54736 -0.299062 0
M  V30 5076 C 479.851 2.23448 0.577899 0
M  V30 5077 C 480.821 1.21637 1.13109 0
M  V30 5078 O 482.006 1.50252 1.17597 0
M  V30 5079 C 479.146 2.9774 1.74484 0
M  V30 5080 C 478.259 4.1432 1.22323 0
M  V30 5081 C 477.394 4.76199 2.35388 0
M  V30 5082 C 476.433 5.84927 1.80351 0
M  V30 5083 N 475.57 6.4077 2.86982 0
M  V30 5084 H 480.41 2.97996 -0.0146545 0
M  V30 5085 H 477.947 1.47088 -0.0190013 0
M  V30 5086 H 479.905 3.39045 2.43114 0
M  V30 5087 H 478.535 2.25572 2.30905 0
M  V30 5088 H 477.587 3.7797 0.429249 0
M  V30 5089 H 478.899 4.92659 0.780309 0
M  V30 5090 H 478.053 5.20346 3.11969 0
M  V30 5091 H 476.792 3.97188 2.83006 0
M  V30 5092 H 475.797 5.40207 1.02259 0
M  V30 5093 H 477.022 6.65821 1.3364 0
M  V30 5094 H 474.968 5.64643 3.33938 0
M  V30 5095 H 474.885 7.1445 2.4718 0
M  V30 5096 H 476.153 6.89574 3.63466 0
M  V30 5097 N 480.382 0.0267497 1.57577 0
M  V30 5098 C 481.607 -0.666227 1.96408 0
M  V30 5099 C 482.032 -1.65004 0.903071 0
M  V30 5100 O 481.39 -1.80787 -0.136263 0
M  V30 5101 C 481.438 -1.35101 3.34335 0
M  V30 5102 O 480.542 -2.46623 3.30531 0
M  V30 5103 H 479.883 -0.175206 0.640468 0
M  V30 5104 H 482.413 0.0878977 2.04411 0
M  V30 5105 H 482.423 -1.70834 3.70513 0
M  V30 5106 H 481.098 -0.629844 4.11103 0
M  V30 5107 H 479.675 -2.13019 3.06068 0
M  V30 5108 N 481.861 -1.55662 -0.24637 0
M  V30 5109 C 483.272 -1.67953 -0.81539 0
M  V30 5110 C 483.623 -0.624302 -1.86002 0
M  V30 5111 O 482.748 0.229328 -2.15181 0
M  V30 5112 C 483.343 -3.04484 -1.48576 0
M  V30 5113 C 481.902 -3.18713 -2.00248 0
M  V30 5114 C 481.049 -2.6383 -0.853766 0
M  V30 5115 H 484 -1.58685 -0.0221692 0
M  V30 5116 H 484.021 -2.98959 -2.3538 0
M  V30 5117 H 483.533 -3.81264 -0.725222 0
M  V30 5118 H 481.634 -2.46757 -2.79181 0
M  V30 5119 H 481.747 -4.25628 -2.1995 0
M  V30 5120 H 480.111 -2.21667 -1.25442 0
M  V30 5121 H 480.894 -3.43135 -0.106302 0
M  V30 5122 N 483.339 0.512053 -1.4905 0
M  V30 5123 C 484.585 1.26874 -1.58212 0
M  V30 5124 C 484.918 1.9241 -0.263073 0
M  V30 5125 O 484.193 1.80181 0.732476 0
M  V30 5126 C 484.476 2.34428 -2.73341 0
M  V30 5127 C 484.329 1.73466 -4.15006 0
M  V30 5128 C 485.648 3.36073 -2.84154 0
M  V30 5129 H 482.767 0.459924 -0.575881 0
M  V30 5130 H 485.409 0.568587 -1.81293 0
M  V30 5131 H 483.559 2.94146 -2.53792 0
M  V30 5132 H 485.231 1.17661 -4.46042 0
M  V30 5133 H 483.474 1.03921 -4.21168 0
M  V30 5134 H 484.145 2.51426 -4.91415 0
M  V30 5135 H 486.621 2.86332 -3.01916 0
M  V30 5136 H 485.497 4.08703 -3.66406 0
M  V30 5137 H 485.758 3.97725 -1.93048 0
M  V30 5138 N 484.817 1.37938 0.762283 0
M  V30 5139 C 486.065 1.33404 1.51815 0
M  V30 5140 C 486.386 -0.0780975 1.94844 0
M  V30 5141 O 485.656 -1.02405 1.67003 0
M  V30 5142 H 484.236 0.490839 0.563104 0
M  V30 5143 H 486.898 1.72527 0.906669 0
M  V30 5144 H 485.994 1.97926 2.41313 0
M  V30 5145 N 486.295 -0.989507 1.22664 0
M  V30 5146 C 487.541 -1.7321 1.05481 0
M  V30 5147 C 487.874 -1.89852 -0.408635 0
M  V30 5148 O 487.149 -1.44416 -1.30285 0
M  V30 5149 C 487.432 -3.1357 1.77047 0
M  V30 5150 C 487.285 -3.04555 3.31008 0
M  V30 5151 C 488.604 -4.12812 1.5256 0
M  V30 5152 H 485.723 -0.628697 0.384589 0
M  V30 5153 H 488.365 -1.15258 1.51049 0
M  V30 5154 H 486.515 -3.63046 1.3831 0
M  V30 5155 H 488.187 -2.62674 3.7921 0
M  V30 5156 H 486.43 -2.41278 3.6051 0
M  V30 5157 H 487.101 -4.03894 3.76263 0
M  V30 5158 H 489.577 -3.72106 1.86215 0
M  V30 5159 H 488.453 -5.09132 2.05124 0
M  V30 5160 H 488.714 -4.39711 0.458936 0
M  V30 5161 N 487.773 -1.03688 -1.18687 0
M  V30 5162 C 488.705 -0.582696 -2.21669 0
M  V30 5163 C 489.718 0.345656 -1.59088 0
M  V30 5164 O 490.907 0.140776 -1.77944 0
M  V30 5165 C 488.007 0.169204 -3.38477 0
M  V30 5166 C 487.18 -0.766079 -4.30639 0
M  V30 5167 C 486.239 -0.0581541 -5.26168 0
M  V30 5168 O 485.265 -0.687346 -5.65035 0
M  V30 5169 N 486.467 1.20981 -5.67753 0
M  V30 5170 H 489.232 -1.46843 -2.61261 0
M  V30 5171 H 486.793 -0.916896 -1.33434 0
M  V30 5172 H 488.785 0.652543 -3.99405 0
M  V30 5173 H 487.355 0.956435 -2.97609 0
M  V30 5174 H 486.575 -1.42935 -3.67373 0
M  V30 5175 H 487.863 -1.40146 -4.89118 0
M  V30 5176 H 487.261 1.74159 -5.38224 0
M  V30 5177 H 485.818 1.6375 -6.30896 0
M  V30 5178 N 489.251 1.34841 -0.815825 0
M  V30 5179 C 490.662 1.80937 -0.46029 0
M  V30 5180 C 491.013 1.67685 1.01863 0
M  V30 5181 O 490.138 1.21277 1.79223 0
M  V30 5182 C 490.733 3.28509 -0.828708 0
M  V30 5183 C 489.292 3.72712 -0.525644 0
M  V30 5184 C 488.439 2.56676 -1.04941 0
M  V30 5185 H 491.39 1.22688 -1.00664 0
M  V30 5186 H 491.411 3.80279 -0.129757 0
M  V30 5187 H 490.923 3.38122 -1.90513 0
M  V30 5188 H 489.024 3.68642 0.541666 0
M  V30 5189 H 489.137 4.67119 -1.06474 0
M  V30 5190 H 487.501 2.50302 -0.471286 0
M  V30 5191 H 488.284 2.69063 -2.13214 0
M  V30 5192 N 490.729 0.570148 1.46925 0
M  V30 5193 C 491.978 0.0487352 2.01641 0
M  V30 5194 C 492.291 -1.31433 1.44861 0
M  V30 5195 O 493.497 -1.92638 1.91318 0
M  V30 5196 C 491.953 0.0365817 3.59881 0
M  V30 5197 C 491.561 1.39719 4.25655 0
M  V30 5198 C 493.305 -0.431545 4.22301 0
M  V30 5199 C 491.212 1.34345 5.75939 0
M  V30 5200 H 490.142 0.0144492 0.753862 0
M  V30 5201 H 492.793 0.719928 1.68788 0
M  V30 5202 H 491.175 -0.700522 3.89755 0
M  V30 5203 H 492.349 2.15303 4.07408 0
M  V30 5204 H 490.664 1.80431 3.75278 0
M  V30 5205 H 493.261 -0.490354 5.32447 0
M  V30 5206 H 493.604 -1.44638 3.90366 0
M  V30 5207 H 494.137 0.251102 3.97007 0
M  V30 5208 H 490.876 2.33469 6.12513 0
M  V30 5209 H 490.396 0.629615 5.96486 0
M  V30 5210 H 492.075 1.051 6.38407 0
M  V30 5211 N 492.207 -1.54576 0.307264 0
M  V30 5212 C 493.137 -2.26708 -0.55907 0
M  V30 5213 C 494.118 -1.26893 -1.1328 0
M  V30 5214 O 495.303 -1.55677 -1.16097 0
M  V30 5215 C 492.433 -3.01259 -1.72801 0
M  V30 5216 C 491.387 -4.08275 -1.28435 0
M  V30 5217 C 490.713 -4.70575 -2.53895 0
M  V30 5218 C 492.013 -5.2068 -0.411038 0
M  V30 5219 H 493.707 -2.9937 0.042576 0
M  V30 5220 H 491.253 -1.43983 0.0219173 0
M  V30 5221 H 493.206 -3.50444 -2.34023 0
M  V30 5222 H 491.93 -2.26187 -2.356 0
M  V30 5223 H 490.589 -3.59949 -0.695161 0
M  V30 5224 H 490.237 -3.92136 -3.15021 0
M  V30 5225 H 489.937 -5.42854 -2.24908 0
M  V30 5226 H 491.461 -5.22527 -3.15908 0
M  V30 5227 H 492.875 -5.65721 -0.929097 0
M  V30 5228 H 491.272 -5.99716 -0.214664 0
M  V30 5229 H 492.342 -4.81629 0.562287 0
M  V30 5230 N 493.685 -0.035106 -1.57561 0
M  V30 5231 C 494.633 0.962707 -2.11742 0
M  V30 5232 C 495.627 1.33296 -1.0454 0
M  V30 5233 O 496.833 1.31449 -1.22968 0
M  V30 5234 H 493.208 0.32826 -0.676572 0
M  V30 5235 H 495.179 0.48048 -2.94506 0
M  V30 5236 C 493.928 2.23388 -2.66445 0
M  V30 5237 H 493.251 1.95774 -3.48587 0
M  V30 5238 H 494.691 2.91402 -3.07995 0
M  V30 5239 C 493.15 2.96769 -1.59467 0
M  V30 5240 O 493.68 3.89105 -0.998 0
M  V30 5241 N 491.886 2.59212 -1.31369 0
M  V30 5242 H 491.433 1.84202 -1.80076 0
M  V30 5243 H 491.391 3.08618 -0.600173 0
M  V30 5244 N 495.163 1.55791 0.238111 0
M  V30 5245 C 496.073 1.94196 1.31625 0
M  V30 5246 C 497.089 0.843545 1.52185 0
M  V30 5247 O 498.265 1.1457 1.65637 0
M  V30 5248 C 495.33 2.2365 2.64918 0
M  V30 5249 C 494.391 3.46971 2.52804 0
M  V30 5250 C 493.624 3.7501 3.79741 0
M  V30 5251 O 493.847 3.04982 4.82019 0
M  V30 5252 O 492.781 4.68525 3.77846 0
M  V30 5253 H 496.607 2.86044 1.02043 0
M  V30 5254 H 494.192 1.42786 0.439603 0
M  V30 5255 H 496.074 2.43863 3.4367 0
M  V30 5256 H 494.749 1.34979 2.94215 0
M  V30 5257 H 493.656 3.32055 1.72309 0
M  V30 5258 H 494.989 4.35971 2.28451 0
M  V30 5259 N 496.642 -0.504142 1.49319 0
M  V30 5260 C 497.592 -1.60284 1.62151 0
M  V30 5261 C 498.576 -1.53657 0.477315 0
M  V30 5262 O 499.768 -1.6124 0.730108 0
M  V30 5263 C 496.897 -2.98909 1.68844 0
M  V30 5264 C 495.983 -3.10544 2.8883 0
M  V30 5265 N 496.374 -2.92078 4.12946 0
M  V30 5266 C 494.672 -3.4164 2.86702 0
M  V30 5267 C 495.373 -3.07812 4.93585 0
M  V30 5268 N 494.349 -3.36549 4.26891 0
M  V30 5269 H 498.151 -1.44656 2.55835 0
M  V30 5270 H 495.665 -0.710198 1.46048 0
M  V30 5271 H 497.662 -3.77865 1.76134 0
M  V30 5272 H 496.322 -3.15609 0.762943 0
M  V30 5273 H 497.333 -2.68316 4.42975 0
M  V30 5274 H 494.01 -3.64537 2.03517 0
M  V30 5275 H 495.4 -2.98054 6.02174 0
M  V30 5276 N 498.12 -1.38341 -0.754957 0
M  V30 5277 C 499.348 -1.37704 -1.54419 0
M  V30 5278 C 499.763 0.0335243 -1.8877 0
M  V30 5279 O 499.12 0.999773 -1.52679 0
M  V30 5280 C 499.171 -2.23136 -2.84416 0
M  V30 5281 O 498.892 -3.58697 -2.51531 0
M  V30 5282 C 500.393 -2.30664 -3.78562 0
M  V30 5283 H 497.613 -0.471061 -0.477852 0
M  V30 5284 H 500.157 -1.81902 -0.934446 0
M  V30 5285 H 498.312 -1.82403 -3.41772 0
M  V30 5286 H 498.726 -4.03665 -3.34896 0
M  V30 5287 H 500.2 -2.9473 -4.66732 0
M  V30 5288 H 500.677 -1.3199 -4.18898 0
M  V30 5289 H 501.283 -2.71781 -3.27131 0
M  V30 5290 N 499.598 0.982988 -1.23187 0
M  V30 5291 C 500.845 1.72392 -1.06241 0
M  V30 5292 C 501.173 1.9032 0.40108 0
M  V30 5293 O 500.428 1.45084 1.31336 0
M  V30 5294 C 500.727 3.12736 -1.73006 0
M  V30 5295 C 500.393 3.14695 -3.22921 0
M  V30 5296 C 499.055 3.14937 -3.63824 0
M  V30 5297 C 501.407 3.10211 -4.1883 0
M  V30 5298 C 498.735 3.08408 -4.99101 0
M  V30 5299 C 501.087 3.05224 -5.54095 0
M  V30 5300 C 499.751 3.03787 -5.94365 0
M  V30 5301 H 499.021 0.630829 -0.388762 0
M  V30 5302 H 501.668 1.15053 -1.53085 0
M  V30 5303 H 499.973 3.73446 -1.18514 0
M  V30 5304 H 501.67 3.68828 -1.57374 0
M  V30 5305 H 498.26 3.15262 -2.90358 0
M  V30 5306 H 502.444 3.09166 -3.8824 0
M  V30 5307 H 497.7 3.05646 -5.29519 0
M  V30 5308 H 501.874 3.00712 -6.28128 0
M  V30 5309 H 499.501 2.98483 -6.99151 0
M  V30 5310 N 501.076 1.04316 1.18135 0
M  V30 5311 C 502.316 0.756937 1.89868 0
M  V30 5312 C 502.68 -0.702609 1.78682 0
M  V30 5313 O 503.881 -1.10255 2.45148 0
M  V30 5314 C 502.152 1.21327 3.36176 0
M  V30 5315 S 503.711 1.05307 4.25976 0
M  V30 5316 H 500.529 0.275143 0.655604 0
M  V30 5317 H 503.131 1.33597 1.42731 0
M  V30 5318 H 501.835 2.27086 3.41848 0
M  V30 5319 H 501.366 0.628137 3.88353 0
M  V30 5320 H 503.381 -0.0280093 4.96192 0
M  V30 5321 N 502.554 -1.34406 0.822964 0
M  V30 5322 C 503.517 -2.2783 0.250271 0
M  V30 5323 C 504.517 -1.50288 -0.571854 0
M  V30 5324 O 505.707 -1.69825 -0.387952 0
M  V30 5325 C 502.839 -3.34663 -0.649137 0
M  V30 5326 H 504.032 -2.79992 1.07444 0
M  V30 5327 H 501.585 -1.44539 0.594829 0
M  V30 5328 H 502.32 -2.87714 -1.49637 0
M  V30 5329 H 502.105 -3.92052 -0.0611199 0
M  V30 5330 H 503.595 -4.04349 -1.04363 0
M  V30 5331 N 504.032 -0.577932 -1.46621 0
M  V30 5332 C 505.28 -0.061566 -2.02006 0
M  V30 5333 C 505.601 1.30117 -1.4524 0
M  V30 5334 O 504.871 1.85313 -0.63529 0
M  V30 5335 H 503.451 -0.0197692 -0.746738 0
M  V30 5336 H 506.113 -0.752631 -1.79782 0
M  V30 5337 H 505.209 0.0110238 -3.12098 0
M  V30 5338 N 505.51 1.54411 -0.315457 0
M  V30 5339 C 506.443 2.20265 0.596522 0
M  V30 5340 C 507.421 1.17693 1.12192 0
M  V30 5341 O 508.605 1.46397 1.18744 0
M  V30 5342 C 505.732 2.85794 1.81767 0
M  V30 5343 C 504.778 4.02017 1.42424 0
M  V30 5344 S 505.611 5.33452 0.467836 0
M  V30 5345 C 506.767 6.02471 1.69645 0
M  V30 5346 H 507 2.97277 0.0370896 0
M  V30 5347 H 504.533 1.54079 -0.0995562 0
M  V30 5348 H 506.491 3.24172 2.51839 0
M  V30 5349 H 505.152 2.08601 2.34828 0
M  V30 5350 H 504.345 4.46701 2.33396 0
M  V30 5351 H 503.947 3.65271 0.803311 0
M  V30 5352 H 506.239 6.24157 2.63504 0
M  V30 5353 H 507.182 6.96215 1.29192 0
M  V30 5354 H 507.59 5.32284 1.87974 0
M  V30 5355 N 506.988 0.0434614 1.5754 0
M  V30 5356 C 508.213 -0.645358 1.97104 0
M  V30 5357 C 508.638 -1.64037 0.920521 0
M  V30 5358 O 507.996 -1.80922 -0.11708 0
M  V30 5359 C 508.044 -1.31547 3.35749 0
M  V30 5360 O 507.148 -2.43103 3.33129 0
M  V30 5361 H 506.489 -0.168403 0.64229 0
M  V30 5362 H 509.019 0.109573 2.04306 0
M  V30 5363 H 509.029 -1.66895 3.72304 0
M  V30 5364 H 507.704 -0.586205 4.11748 0
M  V30 5365 H 506.281 -2.0976 3.0831 0
M  V30 5366 N 508.466 -1.55915 -0.229846 0
M  V30 5367 C 509.413 -1.91734 -1.28478 0
M  V30 5368 C 510.383 -0.773539 -1.46988 0
M  V30 5369 O 511.568 -1.02871 -1.60693 0
M  V30 5370 C 508.708 -2.23224 -2.63182 0
M  V30 5371 C 507.821 -3.50497 -2.52539 0
M  V30 5372 C 506.956 -3.71474 -3.79711 0
M  V30 5373 C 505.995 -4.92289 -3.63755 0
M  V30 5374 N 505.132 -5.09698 -4.82858 0
M  V30 5375 H 509.972 -2.81692 -0.972308 0
M  V30 5376 H 507.509 -1.39429 -0.468815 0
M  V30 5377 H 509.467 -2.3949 -3.41614 0
M  V30 5378 H 508.097 -1.36451 -2.92542 0
M  V30 5379 H 507.149 -3.4247 -1.65585 0
M  V30 5380 H 508.461 -4.39079 -2.36666 0
M  V30 5381 H 507.615 -3.87791 -4.66586 0
M  V30 5382 H 506.354 -2.81157 -3.985 0
M  V30 5383 H 505.359 -4.7593 -2.75264 0
M  V30 5384 H 506.584 -5.84083 -3.46445 0
M  V30 5385 H 504.53 -4.22322 -5.01976 0
M  V30 5386 H 504.447 -5.92399 -4.69681 0
M  V30 5387 H 505.715 -5.30443 -5.71183 0
M  V30 5388 N 509.944 0.496216 -1.49584 0
M  V30 5389 C 511.174 1.27209 -1.62793 0
M  V30 5390 C 511.582 1.86799 -0.300476 0
M  V30 5391 O 510.925 1.68802 0.724674 0
M  V30 5392 C 510.987 2.43812 -2.64189 0
M  V30 5393 C 510.651 2.05055 -4.08414 0
M  V30 5394 C 511.648 1.58752 -4.9507 0
M  V30 5395 C 509.333 2.14543 -4.54177 0
M  V30 5396 C 511.327 1.22448 -6.25528 0
M  V30 5397 C 509.014 1.77851 -5.84647 0
M  V30 5398 C 510.012 1.31878 -6.70147 0
M  V30 5399 O 509.7 0.956834 -7.98185 0
M  V30 5400 H 509.432 0.391848 -0.550846 0
M  V30 5401 H 511.986 0.601712 -1.96389 0
M  V30 5402 H 510.216 3.13941 -2.25783 0
M  V30 5403 H 511.905 3.05829 -2.66877 0
M  V30 5404 H 512.671 1.50863 -4.60939 0
M  V30 5405 H 508.55 2.49277 -3.87791 0
M  V30 5406 H 512.094 0.864933 -6.92217 0
M  V30 5407 H 507.991 1.8539 -6.18305 0
M  V30 5408 H 508.759 1.08789 -8.11238 0
M  V30 5409 N 511.423 1.38739 0.74761 0
M  V30 5410 C 512.355 1.32341 1.87132 0
M  V30 5411 C 513.368 0.234502 1.61102 0
M  V30 5412 O 514.557 0.492516 1.71571 0
M  V30 5413 C 511.657 1.02915 3.22896 0
M  V30 5414 C 510.83 2.22834 3.76383 0
M  V30 5415 C 509.889 1.90059 4.90677 0
M  V30 5416 O 508.915 2.62615 5.04997 0
M  V30 5417 N 510.117 0.859141 5.74107 0
M  V30 5418 H 512.882 2.29175 1.93129 0
M  V30 5419 H 510.443 1.32678 0.927805 0
M  V30 5420 H 512.435 0.79031 3.96908 0
M  V30 5421 H 511.005 0.148572 3.12247 0
M  V30 5422 H 510.225 2.62747 2.93867 0
M  V30 5423 H 511.513 3.02851 4.08851 0
M  V30 5424 H 510.911 0.257564 5.65113 0
M  V30 5425 H 509.468 0.680189 6.48241 0
M  V30 5426 N 512.901 -0.976442 1.23707 0
M  V30 5427 C 513.811 -2.10359 1.03856 0
M  V30 5428 C 514.827 -1.73991 -0.0180919 0
M  V30 5429 O 516.003 -2.0061 0.178211 0
M  V30 5430 C 513.068 -3.40809 0.636387 0
M  V30 5431 C 512.129 -3.91179 1.76854 0
M  V30 5432 C 511.362 -5.15404 1.38546 0
M  V30 5433 O 511.585 -5.69754 0.27142 0
M  V30 5434 O 510.519 -5.5994 2.20797 0
M  V30 5435 H 514.345 -2.29997 1.98331 0
M  V30 5436 H 511.93 -1.08742 1.02448 0
M  V30 5437 H 513.812 -4.19269 0.423223 0
M  V30 5438 H 512.487 -3.22493 -0.279322 0
M  V30 5439 H 511.394 -3.13819 2.03638 0
M  V30 5440 H 512.727 -4.13958 2.6627 0
M  V30 5441 N 514.379 -1.04941 -1.1758 0
M  V30 5442 C 515.656 -0.671918 -1.83697 0
M  V30 5443 C 516.036 0.847929 -1.93322 0
M  V30 5444 O 515.384 1.75287 -1.46583 0
M  V30 5445 C 515.594 -1.35797 -3.21497 0
M  V30 5446 C 516.942 -1.4944 -3.97433 0
M  V30 5447 O 517.966 -1.31678 -3.30967 0
M  V30 5448 O 516.825 -1.78463 -5.1654 0
M  V30 5449 H 513.919 -0.236212 -0.792548 0
M  V30 5450 H 516.465 -1.14884 -1.24899 0
M  V30 5451 H 515.237 -2.39498 -3.09446 0
M  V30 5452 H 514.86 -0.870236 -3.8796 0
M  V30 5453 N 515.857 1.33968 -0.830081 0
M  V30 5454 C 517.085 2.0228 -0.434773 0
M  V30 5455 C 517.5 1.62487 0.961419 0
M  V30 5456 O 516.857 0.833849 1.62337 0
M  V30 5457 C 516.908 3.5751 -0.535625 0
M  V30 5458 O 516.629 3.95864 -1.87679 0
M  V30 5459 C 518.13 4.43091 -0.136137 0
M  V30 5460 H 515.35 0.648151 -0.173613 0
M  V30 5461 H 517.894 1.71089 -1.12022 0
M  V30 5462 H 516.049 3.87266 0.101817 0
M  V30 5463 H 516.463 4.9056 -1.85609 0
M  V30 5464 H 517.937 5.51398 -0.257772 0
M  V30 5465 H 518.414 4.29433 0.921076 0
M  V30 5466 H 519.02 4.18677 -0.747662 0
M  V30 5467 N 517.335 0.585699 1.46312 0
M  V30 5468 C 518.575 0.0751432 2.04262 0
M  V30 5469 C 518.939 -1.26201 1.44697 0
M  V30 5470 O 520.14 -1.86198 1.93865 0
M  V30 5471 C 518.411 0.013478 3.57397 0
M  V30 5472 S 519.97 -0.439068 4.36598 0
M  V30 5473 H 516.788 0.0389228 0.709934 0
M  V30 5474 H 519.39 0.778871 1.79315 0
M  V30 5475 H 518.094 0.990558 3.98266 0
M  V30 5476 H 517.625 -0.712927 3.86886 0
M  V30 5477 H 519.64 -1.6932 4.66417 0
M  V30 5478 N 518.813 -1.54241 0.323641 0
M  V30 5479 C 520.043 -2.04687 -0.280464 0
M  V30 5480 C 520.451 -1.19939 -1.46326 0
M  V30 5481 O 519.794 -0.222872 -1.82343 0
M  V30 5482 C 519.856 -3.50978 -0.778123 0
M  V30 5483 C 519.52 -4.56127 0.282371 0
M  V30 5484 C 520.517 -5.07726 1.11847 0
M  V30 5485 C 518.202 -5.00451 0.430582 0
M  V30 5486 C 520.196 -6.02212 2.08851 0
M  V30 5487 C 517.883 -5.94752 1.40404 0
M  V30 5488 C 518.881 -6.45519 2.23147 0
M  V30 5489 O 518.569 -7.37968 3.1884 0
M  V30 5490 H 518.301 -0.673192 -0.0615473 0
M  V30 5491 H 520.855 -1.99999 0.467921 0
M  V30 5492 H 519.085 -3.53064 -1.57742 0
M  V30 5493 H 520.774 -3.84499 -1.30058 0
M  V30 5494 H 521.54 -4.74261 1.01496 0
M  V30 5495 H 517.419 -4.6055 -0.203569 0
M  V30 5496 H 520.963 -6.41761 2.73474 0
M  V30 5497 H 516.86 -6.27633 1.5082 0
M  V30 5498 H 517.628 -7.55841 3.14079 0
M  V30 5499 N 520.291 -0.0518155 -1.57515 0
M  V30 5500 C 521.539 0.620595 -1.92336 0
M  V30 5501 C 521.86 1.71345 -0.930907 0
M  V30 5502 O 521.13 1.95885 0.0241341 0
M  V30 5503 H 519.71 0.232226 -0.709986 0
M  V30 5504 H 522.372 -0.104969 -1.94617 0
M  V30 5505 H 521.468 1.05879 -2.93592 0
M  V30 5506 N 521.769 1.56035 0.221574 0
M  V30 5507 C 523.046 1.69837 0.970301 0
M  V30 5508 C 523.426 0.599065 2.02421 0
M  V30 5509 O 522.774 -0.393929 2.25079 0
M  V30 5510 C 522.984 3.11148 1.58076 0
M  V30 5511 C 524.332 3.70555 2.07302 0
M  V30 5512 O 525.356 3.14109 1.6797 0
M  V30 5513 O 524.215 4.69562 2.79596 0
M  V30 5514 H 521.309 0.691727 0.453257 0
M  V30 5515 H 523.855 1.68353 0.213358 0
M  V30 5516 H 522.627 3.82617 0.819759 0
M  V30 5517 H 522.25 3.16749 2.40324 0
M  V30 5518 N 523.247 -0.488276 1.49845 0
M  V30 5519 C 524.21 -1.57069 1.66919 0
M  V30 5520 C 525.21 -1.51445 0.540479 0
M  V30 5521 O 526.4 -1.5437 0.807188 0
M  V30 5522 C 523.532 -2.96718 1.67844 0
M  V30 5523 H 524.725 -1.43254 2.63474 0
M  V30 5524 H 522.278 -0.713435 1.39068 0
M  V30 5525 H 523.013 -3.15996 0.7292 0
M  V30 5526 H 522.798 -3.02208 2.49826 0
M  V30 5527 H 524.288 -3.75335 1.83066 0
M  V30 5528 N 524.725 -1.39134 -0.740242 0
M  V30 5529 C 525.973 -1.35803 -1.49673 0
M  V30 5530 C 526.294 0.0470897 -1.94943 0
M  V30 5531 O 525.564 0.997347 -1.68611 0
M  V30 5532 H 524.144 -0.499736 -0.555224 0
M  V30 5533 H 526.806 -1.73947 -0.879107 0
M  V30 5534 H 525.902 -2.0174 -2.38133 0
M  V30 5535 N 526.204 0.969867 -1.24223 0
M  V30 5536 C 527.429 1.75289 -1.10853 0
M  V30 5537 C 527.854 1.85091 0.335079 0
M  V30 5538 O 527.212 1.32024 1.24255 0
M  V30 5539 C 527.26 3.15255 -1.75062 0
M  V30 5540 O 526.364 3.99589 -1.01992 0
M  V30 5541 H 525.705 0.538904 -0.387915 0
M  V30 5542 H 528.235 1.21675 -1.64488 0
M  V30 5543 H 528.245 3.65787 -1.80731 0
M  V30 5544 H 526.92 3.07436 -2.801 0
M  V30 5545 H 525.497 3.58077 -1.04094 0
M  V30 5546 N 527.682 1.05563 1.17022 0
M  V30 5547 C 528.645 0.664098 2.19368 0
M  V30 5548 C 529.645 -0.286358 1.5823 0
M  V30 5549 O 530.835 -0.069728 1.7406 0
M  V30 5550 C 527.967 -0.0239932 3.40892 0
M  V30 5551 H 529.16 1.57 2.55521 0
M  V30 5552 H 526.713 0.849964 1.31169 0
M  V30 5553 H 527.448 -0.942988 3.10287 0
M  V30 5554 H 527.233 0.659351 3.86516 0
M  V30 5555 H 528.723 -0.283909 4.16634 0
M  V30 5556 N 529.16 -1.33526 0.837174 0
M  V30 5557 C 530.407 -1.97837 0.432064 0
M  V30 5558 C 530.735 -1.66324 -1.00829 0
M  V30 5559 O 529.99 -0.93448 -1.71948 0
M  V30 5560 C 530.289 -3.52367 0.597675 0
M  V30 5561 C 529.955 -4.03826 2.00587 0
M  V30 5562 C 528.617 -4.1759 2.39106 0
M  V30 5563 C 530.969 -4.31333 2.92576 0
M  V30 5564 C 528.297 -4.56195 3.68921 0
M  V30 5565 C 530.649 -4.7139 4.2187 0
M  V30 5566 C 529.313 -4.8336 4.60347 0
M  V30 5567 H 528.583 -0.723937 0.158104 0
M  V30 5568 H 531.23 -1.5923 1.06387 0
M  V30 5569 H 529.535 -3.91624 -0.117452 0
M  V30 5570 H 531.232 -4.00126 0.26454 0
M  V30 5571 H 527.822 -3.93586 1.69671 0
M  V30 5572 H 532.006 -4.20224 2.64056 0
M  V30 5573 H 527.262 -4.63655 3.9854 0
M  V30 5574 H 531.436 -4.91631 4.93226 0
M  V30 5575 H 529.063 -5.1303 5.60985 0
M  V30 5576 N 530.638 -0.59345 -1.46 0
M  V30 5577 C 531.601 0.123538 -2.28867 0
M  V30 5578 C 532.601 0.808628 -1.38989 0
M  V30 5579 O 533.791 0.658945 -1.61256 0
M  V30 5580 C 530.923 1.1847 -3.19653 0
M  V30 5581 H 532.116 -0.604843 -2.93737 0
M  V30 5582 H 529.669 -0.351875 -1.52288 0
M  V30 5583 H 530.404 1.94431 -2.59552 0
M  V30 5584 H 530.189 0.69783 -3.8584 0
M  V30 5585 H 531.679 1.68726 -3.81997 0
M  V30 5586 N 532.116 1.54067 -0.331816 0
M  V30 5587 C 533.362 2.01012 0.268667 0
M  V30 5588 C 533.695 1.2195 1.51136 0
M  V30 5589 O 532.97 0.303972 1.9211 0
M  V30 5590 C 533.253 3.55158 0.59456 0
M  V30 5591 C 533.106 4.4494 -0.659409 0
M  V30 5592 C 534.425 4.16939 1.4089 0
M  V30 5593 H 531.544 0.730698 0.0961756 0
M  V30 5594 H 534.186 1.84593 -0.450031 0
M  V30 5595 H 532.336 3.6928 1.20685 0
M  V30 5596 H 534.008 4.42675 -1.29756 0
M  V30 5597 H 532.251 4.1428 -1.28665 0
M  V30 5598 H 532.922 5.50643 -0.386804 0
M  V30 5599 H 535.398 4.06443 0.891272 0
M  V30 5600 H 534.274 5.24889 1.60569 0
M  V30 5601 H 534.535 3.70798 2.40752 0
M  V30 5602 N 533.594 0.0601682 1.57485 0
M  V30 5603 C 534.544 -0.920969 2.08572 0
M  V30 5604 C 535.528 -1.26617 0.992827 0
M  V30 5605 O 536.72 -1.24708 1.25606 0
M  V30 5606 C 533.849 -2.19267 2.64153 0
M  V30 5607 C 532.935 -1.87447 3.80427 0
M  V30 5608 N 533.326 -1.26025 4.89848 0
M  V30 5609 C 531.624 -2.17265 3.89502 0
M  V30 5610 C 532.325 -1.12036 5.70809 0
M  V30 5611 N 531.301 -1.62624 5.18705 0
M  V30 5612 H 535.103 -0.441561 2.90564 0
M  V30 5613 H 532.617 -0.144043 1.6176 0
M  V30 5614 H 534.614 -2.90462 2.99061 0
M  V30 5615 H 533.274 -2.67806 1.83603 0
M  V30 5616 H 534.285 -0.931336 5.09457 0
M  V30 5617 H 530.962 -2.68262 3.19909 0
M  V30 5618 H 532.352 -0.642783 6.68818 0
M  V30 5619 N 535.072 -1.5615 -0.213296 0
M  V30 5620 C 536.349 -1.70349 -0.961281 0
M  V30 5621 C 536.729 -0.609791 -2.02101 0
M  V30 5622 O 536.077 0.381987 -2.25285 0
M  V30 5623 C 536.287 -3.11982 -1.56424 0
M  V30 5624 C 537.635 -3.71649 -2.05334 0
M  V30 5625 O 538.659 -3.14995 -1.66302 0
M  V30 5626 O 537.518 -4.71038 -2.77102 0
M  V30 5627 H 534.612 -0.694121 -0.449582 0
M  V30 5628 H 537.158 -1.68464 -0.204426 0
M  V30 5629 H 535.93 -3.83046 -0.799457 0
M  V30 5630 H 535.553 -3.18019 -2.38641 0
M  V30 5631 N 536.55 0.480323 -1.50102 0
M  V30 5632 C 537.48 1.58769 -1.71215 0
M  V30 5633 C 538.461 1.60583 -0.560997 0
M  V30 5634 O 539.646 1.76996 -0.799127 0
M  V30 5635 C 536.776 2.97148 -1.79778 0
M  V30 5636 C 535.73 3.10201 -2.94888 0
M  V30 5637 C 535.056 4.50137 -2.88584 0
M  V30 5638 C 536.356 2.88283 -4.35534 0
M  V30 5639 H 538.05 1.41354 -2.6393 0
M  V30 5640 H 535.596 0.678591 -1.27008 0
M  V30 5641 H 537.549 3.74536 -1.93133 0
M  V30 5642 H 536.273 3.15699 -0.836772 0
M  V30 5643 H 534.932 2.35244 -2.81169 0
M  V30 5644 H 534.58 4.65593 -1.90349 0
M  V30 5645 H 534.28 4.59808 -3.65856 0
M  V30 5646 H 535.804 5.29558 -3.03976 0
M  V30 5647 H 537.218 3.55427 -4.49827 0
M  V30 5648 H 535.615 3.09408 -5.14186 0
M  V30 5649 H 536.685 1.84219 -4.48544 0
M  V30 5650 N 538.028 1.39524 0.732853 0
M  V30 5651 C 538.938 1.40695 1.87729 0
M  V30 5652 C 539.954 0.301496 1.71368 0
M  V30 5653 O 541.13 0.543313 1.93933 0
M  V30 5654 C 538.195 1.25098 3.23344 0
M  V30 5655 C 537.256 2.45634 3.52083 0
M  V30 5656 C 536.489 2.30772 4.81228 0
M  V30 5657 O 536.712 1.31233 5.55098 0
M  V30 5658 O 535.646 3.19799 5.09914 0
M  V30 5659 H 539.472 2.37168 1.89697 0
M  V30 5660 H 537.057 1.20663 0.880959 0
M  V30 5661 H 538.939 1.18541 4.04383 0
M  V30 5662 H 537.614 0.317209 3.22142 0
M  V30 5663 H 536.521 2.57767 2.71122 0
M  V30 5664 H 537.854 3.37712 3.58066 0
M  V30 5665 N 539.506 -0.963266 1.24736 0
M  V30 5666 C 540.416 -2.09246 1.06082 0
M  V30 5667 C 541.432 -1.74 0.000363101 0
M  V30 5668 O 542.608 -2.0041 0.199479 0
M  V30 5669 C 539.673 -3.40115 0.672498 0
M  V30 5670 C 538.734 -3.89282 1.80993 0
M  V30 5671 C 537.967 -5.13905 1.44004 0
M  V30 5672 O 538.19 -5.69434 0.331835 0
M  V30 5673 O 537.124 -5.57566 2.26723 0
M  V30 5674 H 540.95 -2.27881 2.00759 0
M  V30 5675 H 538.535 -1.07649 1.03595 0
M  V30 5676 H 540.417 -4.18797 0.467668 0
M  V30 5677 H 539.092 -3.22771 -0.245102 0
M  V30 5678 H 537.999 -3.11642 2.06955 0
M  V30 5679 H 539.332 -4.1111 2.70646 0
M  V30 5680 N 540.985 -1.06182 -1.16461 0
M  V30 5681 C 542.262 -0.691364 -1.82974 0
M  V30 5682 C 542.642 0.827377 -1.9421 0
M  V30 5683 O 541.99 1.73723 -1.48434 0
M  V30 5684 C 542.2 -1.39199 -3.20038 0
M  V30 5685 C 543.548 -1.53647 -3.95825 0
M  V30 5686 O 544.572 -1.35181 -3.29552 0
M  V30 5687 O 543.431 -1.83932 -5.14618 0
M  V30 5688 H 540.525 -0.244605 -0.789998 0
M  V30 5689 H 543.071 -1.16203 -1.23673 0
M  V30 5690 H 541.843 -2.42766 -3.06888 0
M  V30 5691 H 541.466 -0.911335 -3.87015 0
M  V30 5692 N 542.463 1.3308 -0.844243 0
M  V30 5693 C 543.691 2.01808 -0.456203 0
M  V30 5694 C 544.106 1.63498 0.944131 0
M  V30 5695 O 543.463 0.85102 1.61443 0
M  V30 5696 C 543.514 3.56922 -0.573513 0
M  V30 5697 O 543.235 3.93851 -1.91868 0
M  V30 5698 C 544.736 4.42922 -0.183125 0
M  V30 5699 H 541.956 0.646273 -0.180477 0
M  V30 5700 H 544.5 1.69891 -1.1383 0
M  V30 5701 H 542.655 3.87352 0.0607367 0
M  V30 5702 H 543.069 4.88564 -1.90802 0
M  V30 5703 H 544.543 5.51093 -0.316241 0
M  V30 5704 H 545.02 4.30386 0.875477 0
M  V30 5705 H 545.626 4.1786 -0.792027 0
M  V30 5706 N 543.941 0.601185 1.45683 0
M  V30 5707 C 545.187 0.102425 2.03142 0
M  V30 5708 C 545.542 -1.25066 1.46207 0
M  V30 5709 O 544.835 -1.81126 0.624806 0
M  V30 5710 C 545.029 -0.00222425 3.574 0
M  V30 5711 C 544.858 1.33917 4.29298 0
M  V30 5712 C 543.628 1.91818 4.67476 0
M  V30 5713 C 545.826 2.26652 4.61664 0
M  V30 5714 N 543.808 3.19504 5.24204 0
M  V30 5715 C 545.179 3.38933 5.19157 0
M  V30 5716 C 547.234 2.26103 4.43601 0
M  V30 5717 C 545.937 4.50823 5.60492 0
M  V30 5718 C 547.963 3.37036 4.85964 0
M  V30 5719 C 547.325 4.48039 5.43545 0
M  V30 5720 H 543.424 0.0806974 0.777825 0
M  V30 5721 H 546.008 0.798134 1.77589 0
M  V30 5722 H 544.179 -0.66714 3.82627 0
M  V30 5723 H 545.911 -0.507058 4.01511 0
M  V30 5724 H 542.666 1.45097 4.50826 0
M  V30 5725 H 543.09 3.84705 5.57073 0
M  V30 5726 H 547.732 1.41547 3.98402 0
M  V30 5727 H 545.45 5.36108 6.0466 0
M  V30 5728 H 549.036 3.37752 4.73725 0
M  V30 5729 H 547.916 5.32459 5.75723 0
M  V30 5730 N 545.419 -1.53889 0.339982 0
M  V30 5731 C 546.649 -2.04973 -0.258738 0
M  V30 5732 C 547.057 -1.21485 -1.45045 0
M  V30 5733 O 546.4 -0.2422 -1.82096 0
M  V30 5734 C 546.462 -3.51783 -0.740853 0
M  V30 5735 C 546.126 -4.55802 0.330734 0
M  V30 5736 C 547.123 -5.06512 1.17226 0
M  V30 5737 C 544.808 -4.99966 0.483637 0
M  V30 5738 C 546.802 -5.99963 2.15227 0
M  V30 5739 C 544.489 -5.93229 1.46704 0
M  V30 5740 C 545.487 -6.43115 2.29981 0
M  V30 5741 O 545.175 -7.34545 3.26649 0
M  V30 5742 H 544.907 -0.673807 -0.0544037 0
M  V30 5743 H 547.461 -1.99492 0.489107 0
M  V30 5744 H 545.691 -3.54717 -1.53988 0
M  V30 5745 H 547.38 -3.85857 -1.25973 0
M  V30 5746 H 548.146 -4.73158 1.0652 0
M  V30 5747 H 544.025 -4.6074 -0.15471 0
M  V30 5748 H 547.569 -6.38825 2.80265 0
M  V30 5749 H 543.466 -6.25998 1.57468 0
M  V30 5750 H 544.234 -7.52468 3.22078 0
M  V30 5751 N 546.897 -0.0685191 -1.57451 0
M  V30 5752 C 547.86 0.885173 -2.11417 0
M  V30 5753 C 548.86 1.22853 -1.03748 0
M  V30 5754 O 550.05 1.16235 -1.2975 0
M  V30 5755 C 547.182 2.18964 -2.61281 0
M  V30 5756 H 548.375 0.417034 -2.96986 0
M  V30 5757 H 545.928 0.18014 -1.55258 0
M  V30 5758 H 546.663 2.70321 -1.79156 0
M  V30 5759 H 546.448 1.9534 -3.39977 0
M  V30 5760 H 547.938 2.87242 -3.0312 0
M  V30 5761 N 548.375 1.56261 0.205012 0
M  V30 5762 C 549.603 1.84141 0.943386 0
M  V30 5763 C 550.018 0.649772 1.77266 0
M  V30 5764 O 549.375 -0.381612 1.78466 0
M  V30 5765 C 549.426 3.10719 1.84759 0
M  V30 5766 O 549.147 4.25286 1.05181 0
M  V30 5767 C 550.648 3.51706 2.69848 0
M  V30 5768 H 547.868 0.611734 0.275721 0
M  V30 5769 H 550.412 2.03364 0.215253 0
M  V30 5770 H 548.567 2.93422 2.52947 0
M  V30 5771 H 548.981 4.97301 1.66709 0
M  V30 5772 H 550.455 4.43266 3.28967 0
M  V30 5773 H 550.932 2.7423 3.43067 0
M  V30 5774 H 551.538 3.71499 2.07047 0
M  V30 5775 N 549.853 -0.472356 1.50355 0
M  V30 5776 C 551.101 -1.22211 1.60962 0
M  V30 5777 C 551.422 -1.92497 0.311439 0
M  V30 5778 O 550.692 -1.8405 -0.671002 0
M  V30 5779 H 549.272 -0.454092 0.593135 0
M  V30 5780 H 551.934 -0.544977 1.87126 0
M  V30 5781 H 551.03 -1.9707 2.42012 0
M  V30 5782 N 551.331 -1.39911 -0.725443 0
M  V30 5783 C 552.58 -1.36963 -1.48068 0
M  V30 5784 C 552.893 0.0284478 -1.95579 0
M  V30 5785 O 554.099 0.180535 -2.70899 0
M  V30 5786 C 552.555 -2.40664 -2.67598 0
M  V30 5787 C 552.163 -3.86234 -2.26997 0
M  V30 5788 C 553.907 -2.46807 -3.45379 0
M  V30 5789 C 551.814 -4.81554 -3.43307 0
M  V30 5790 H 550.744 -0.509223 -0.556065 0
M  V30 5791 H 553.395 -1.65602 -0.790454 0
M  V30 5792 H 551.777 -2.05109 -3.38742 0
M  V30 5793 H 552.951 -4.3088 -1.63337 0
M  V30 5794 H 551.266 -3.83475 -1.62284 0
M  V30 5795 H 553.863 -3.15213 -4.31909 0
M  V30 5796 H 554.206 -1.49552 -3.8851 0
M  V30 5797 H 554.739 -2.81303 -2.81271 0
M  V30 5798 H 551.478 -5.80106 -3.05217 0
M  V30 5799 H 550.998 -4.4158 -4.05915 0
M  V30 5800 H 552.677 -5.0091 -4.0951 0
M  V30 5801 N 552.809 0.956637 -1.25245 0
M  V30 5802 C 553.739 2.07058 -1.07931 0
M  V30 5803 C 554.72 1.70096 0.0110361 0
M  V30 5804 O 555.905 1.93555 -0.158121 0
M  V30 5805 C 553.035 3.40272 -0.695124 0
M  V30 5806 C 551.989 3.91235 -1.73549 0
M  V30 5807 C 551.315 5.20921 -1.20604 0
M  V30 5808 C 552.615 4.17837 -3.13385 0
M  V30 5809 H 554.309 2.218 -2.01109 0
M  V30 5810 H 551.855 1.06581 -0.968326 0
M  V30 5811 H 553.808 4.1765 -0.560949 0
M  V30 5812 H 552.532 3.25462 0.272355 0
M  V30 5813 H 551.191 3.16025 -1.85807 0
M  V30 5814 H 550.839 5.02479 -0.228846 0
M  V30 5815 H 550.539 5.55987 -1.90136 0
M  V30 5816 H 552.063 6.00897 -1.08421 0
M  V30 5817 H 553.477 4.8588 -3.04292 0
M  V30 5818 H 551.874 4.64154 -3.80369 0
M  V30 5819 H 552.944 3.2419 -3.60595 0
M  V30 5820 N 554.287 1.06798 1.15896 0
M  V30 5821 C 555.512 0.808739 1.90982 0
M  V30 5822 C 555.937 -0.6316 1.77179 0
M  V30 5823 O 555.295 -1.4407 1.10061 0
M  V30 5824 C 555.343 1.21468 3.39526 0
M  V30 5825 O 554.447 0.356562 4.10856 0
M  V30 5826 H 553.788 0.29512 0.594811 0
M  V30 5827 H 556.318 1.42513 1.46804 0
M  V30 5828 H 556.328 1.18844 3.90308 0
M  V30 5829 H 555.003 2.26379 3.48891 0
M  V30 5830 H 553.58 0.444808 3.70238 0
M  V30 5831 N 555.766 -1.3263 0.851289 0
M  V30 5832 C 557.013 -1.97368 0.453023 0
M  V30 5833 C 557.341 -1.67384 -0.990596 0
M  V30 5834 O 556.596 -0.952665 -1.70947 0
M  V30 5835 C 556.895 -3.51713 0.635015 0
M  V30 5836 C 556.561 -4.01676 2.04859 0
M  V30 5837 C 555.223 -4.15031 2.43522 0
M  V30 5838 C 557.575 -4.28206 2.97135 0
M  V30 5839 C 554.903 -4.52257 3.73739 0
M  V30 5840 C 557.255 -4.66889 4.26846 0
M  V30 5841 C 555.919 -4.7845 4.65448 0
M  V30 5842 H 555.189 -0.722219 0.165773 0
M  V30 5843 H 557.836 -1.58092 1.0807 0
M  V30 5844 H 556.141 -3.91726 -0.0759081 0
M  V30 5845 H 557.838 -3.99823 0.306964 0
M  V30 5846 H 554.428 -3.91764 1.73836 0
M  V30 5847 H 558.612 -4.174 2.68498 0
M  V30 5848 H 553.868 -4.59402 4.03435 0
M  V30 5849 H 558.042 -4.86372 4.98413 0
M  V30 5850 H 555.669 -5.07052 5.66395 0
M  V30 5851 N 557.244 -0.608902 -1.45362 0
M  V30 5852 C 558.521 -0.0365378 -1.95566 0
M  V30 5853 C 558.901 1.43169 -1.55131 0
M  V30 5854 O 558.249 2.1349 -0.814513 0
M  V30 5855 C 558.459 -0.236026 -3.48201 0
M  V30 5856 C 559.807 -0.117518 -4.24437 0
M  V30 5857 O 560.831 -0.166217 -3.55812 0
M  V30 5858 O 559.69 -0.00372127 -5.465 0
M  V30 5859 H 556.784 0.0349874 -0.82626 0
M  V30 5860 H 559.33 -0.679055 -1.55521 0
M  V30 5861 H 558.102 -1.25569 -3.70605 0
M  V30 5862 H 557.725 0.441691 -3.95139 0
M  V30 5863 N 558.722 1.53707 -0.348139 0
M  V30 5864 C 559.669 2.25173 0.506518 0
M  V30 5865 C 560.639 1.25174 1.09182 0
M  V30 5866 O 561.824 1.53917 1.12757 0
M  V30 5867 C 558.964 3.03141 1.64923 0
M  V30 5868 C 558.077 4.18002 1.0908 0
M  V30 5869 C 557.212 4.83447 2.20119 0
M  V30 5870 C 556.251 5.90369 1.61651 0
M  V30 5871 N 555.388 6.49575 2.66451 0
M  V30 5872 H 560.228 2.97799 -0.109452 0
M  V30 5873 H 557.765 1.46953 -0.0657866 0
M  V30 5874 H 559.723 3.46607 2.32205 0
M  V30 5875 H 558.353 2.32803 2.23612 0
M  V30 5876 H 557.405 3.79145 0.308783 0
M  V30 5877 H 558.717 4.94892 0.623178 0
M  V30 5878 H 557.871 5.30008 2.95257 0
M  V30 5879 H 556.61 4.05991 2.70227 0
M  V30 5880 H 555.615 5.43186 0.850209 0
M  V30 5881 H 556.84 6.69735 1.1239 0
M  V30 5882 H 554.786 5.74981 3.15805 0
M  V30 5883 H 554.703 7.21952 2.24325 0
M  V30 5884 H 555.971 7.00789 3.41344 0
M  V30 5885 N 560.2 0.0768682 1.57412 0
M  V30 5886 C 561.425 -0.603404 1.98428 0
M  V30 5887 C 561.85 -1.62047 0.955108 0
M  V30 5888 O 561.208 -1.81129 -0.0786778 0
M  V30 5889 C 561.256 -1.24396 3.38464 0
M  V30 5890 O 560.36 -2.35982 3.3821 0
M  V30 5891 H 559.701 -0.154741 0.645718 0
M  V30 5892 H 562.231 0.152885 2.04028 0
M  V30 5893 H 562.241 -1.5896 3.7576 0
M  V30 5894 H 560.916 -0.498735 4.12899 0
M  V30 5895 H 559.493 -2.03173 3.1269 0
M  V30 5896 N 561.678 -1.56367 -0.196722 0
M  V30 5897 C 562.918 -1.82315 -0.92415 0
M  V30 5898 C 563.282 -0.654117 -1.80514 0
M  V30 5899 O 564.483 -0.79345 -2.56823 0
M  V30 5900 C 562.754 -3.13279 -1.72021 0
M  V30 5901 S 564.313 -3.60627 -2.49988 0
M  V30 5902 H 561.131 -0.639862 -0.309997 0
M  V30 5903 H 563.733 -1.94597 -0.187684 0
M  V30 5904 H 562.437 -3.96379 -1.06358 0
M  V30 5905 H 561.968 -3.03871 -2.49852 0
M  V30 5906 H 563.983 -3.25934 -3.74141 0
M  V30 5907 N 563.156 0.464375 -1.50603 0
M  V30 5908 C 564.119 1.54393 -1.69397 0
M  V30 5909 C 565.119 1.50566 -0.564504 0
M  V30 5910 O 566.309 1.53066 -0.831645 0
M  V30 5911 C 563.441 2.9401 -1.72543 0
M  V30 5912 H 564.634 1.39044 -2.65719 0
M  V30 5913 H 562.187 0.69122 -1.40185 0
M  V30 5914 H 562.922 3.14795 -0.77938 0
M  V30 5915 H 562.707 2.98195 -2.54602 0
M  V30 5916 H 564.197 3.72375 -1.89015 0
M  V30 5917 N 564.634 1.40294 0.718013 0
M  V30 5918 C 565.88 1.38645 1.48005 0
M  V30 5919 C 566.213 -0.0121202 1.94196 0
M  V30 5920 O 565.488 -0.980309 1.67989 0
M  V30 5921 C 565.771 2.37379 2.70782 0
M  V30 5922 C 565.624 3.8625 2.30501 0
M  V30 5923 C 566.943 2.33685 3.72933 0
M  V30 5924 H 564.062 0.504928 0.536858 0
M  V30 5925 H 566.704 1.71411 0.819649 0
M  V30 5926 H 564.854 2.09568 3.27129 0
M  V30 5927 H 566.526 4.24879 1.79655 0
M  V30 5928 H 564.769 4.02202 1.6253 0
M  V30 5929 H 565.44 4.50847 3.18498 0
M  V30 5930 H 567.916 2.58314 3.2621 0
M  V30 5931 H 566.792 3.0482 4.56482 0
M  V30 5932 H 567.053 1.34765 4.21059 0
M  V30 5933 N 566.112 -0.949982 1.2575 0
M  V30 5934 C 567.075 -2.02894 1.06615 0
M  V30 5935 C 568.075 -1.60791 0.0173905 0
M  V30 5936 O 569.265 -1.72249 0.260003 0
M  V30 5937 C 566.397 -3.35219 0.619751 0
M  V30 5938 H 567.59 -2.21302 2.02399 0
M  V30 5939 H 565.143 -1.12772 1.08223 0
M  V30 5940 H 565.878 -3.22508 -0.340486 0
M  V30 5941 H 565.663 -3.67129 1.37692 0
M  V30 5942 H 567.153 -4.14505 0.507443 0
M  V30 5943 N 567.59 -1.07411 -1.15328 0
M  V30 5944 C 568.5 -0.706438 -2.23711 0
M  V30 5945 C 569.516 0.282586 -1.7169 0
M  V30 5946 O 570.692 0.129066 -2.00986 0
M  V30 5947 C 567.757 -0.11048 -3.46524 0
M  V30 5948 C 566.818 -1.15282 -4.13532 0
M  V30 5949 C 566.051 -0.585205 -5.30482 0
M  V30 5950 O 566.274 0.598549 -5.67251 0
M  V30 5951 O 565.208 -1.33039 -5.87013 0
M  V30 5952 H 569.034 -1.61031 -2.57493 0
M  V30 5953 H 566.619 -0.847113 -1.23062 0
M  V30 5954 H 568.501 0.21957 -4.20828 0
M  V30 5955 H 567.176 0.766703 -3.14489 0
M  V30 5956 H 566.083 -1.53523 -3.41147 0
M  V30 5957 H 567.416 -2.00192 -4.49649 0
M  V30 5958 N 569.068 1.32177 -0.85831 0
M  V30 5959 C 570.298 2.01021 -0.476889 0
M  V30 5960 C 570.706 1.64653 0.931995 0
M  V30 5961 O 570.049 0.865713 1.62022 0
M  V30 5962 C 570.111 3.55413 -0.540528 0
M  V30 5963 C 569.775 4.1522 -1.90895 0
M  V30 5964 C 570.772 4.3318 -2.87491 0
M  V30 5965 C 568.457 4.51212 -2.20709 0
M  V30 5966 C 570.451 4.86306 -4.1205 0
M  V30 5967 C 568.138 5.04042 -3.45521 0
M  V30 5968 C 569.136 5.21538 -4.41007 0
M  V30 5969 O 568.824 5.73238 -5.63608 0
M  V30 5970 H 568.556 0.650059 -0.18547 0
M  V30 5971 H 571.11 1.69648 -1.15796 0
M  V30 5972 H 569.34 3.86196 0.19741 0
M  V30 5973 H 571.029 4.05526 -0.174191 0
M  V30 5974 H 571.795 4.05704 -2.65762 0
M  V30 5975 H 567.674 4.36878 -1.4717 0
M  V30 5976 H 571.218 4.99877 -4.86589 0
M  V30 5977 H 567.115 5.30952 -3.67098 0
M  V30 5978 H 567.883 5.91625 -5.65617 0
M  V30 5979 N 570.547 0.616602 1.45037 0
M  V30 5980 C 571.795 0.115103 2.01772 0
M  V30 5981 C 572.116 -1.2622 1.48639 0
M  V30 5982 O 571.386 -1.83563 0.684199 0
M  V30 5983 H 569.966 0.0395607 0.745952 0
M  V30 5984 H 572.628 0.800032 1.77723 0
M  V30 5985 H 571.724 0.0717274 3.12018 0
M  V30 5986 N 572.025 -1.5352 0.356285 0
M  V30 5987 C 573.271 -2.01414 -0.236653 0
M  V30 5988 C 573.604 -1.24339 -1.49176 0
M  V30 5989 O 572.879 -0.334496 -1.91602 0
M  V30 5990 C 573.162 -3.56059 -0.537982 0
M  V30 5991 C 573.015 -4.43835 0.730112 0
M  V30 5992 C 574.334 -4.19127 -1.34239 0
M  V30 5993 H 571.453 -0.732135 -0.0845386 0
M  V30 5994 H 574.095 -1.83854 0.479341 0
M  V30 5995 H 572.245 -3.71153 -1.14795 0
M  V30 5996 H 573.917 -4.40555 1.36782 0
M  V30 5997 H 572.16 -4.1218 1.3524 0
M  V30 5998 H 572.831 -5.49958 0.474358 0
M  V30 5999 H 575.307 -4.07809 -0.826498 0
M  V30 6000 H 574.183 -5.27378 -1.52198 0
M  V30 6001 H 574.444 -3.74581 -2.34822 0
M  V30 6002 N 573.503 -0.0852151 -1.57369 0
M  V30 6003 C 574.733 0.588605 -1.98038 0
M  V30 6004 C 575.141 1.62869 -0.962817 0
M  V30 6005 O 574.484 1.83611 0.057134 0
M  V30 6006 C 574.546 1.30303 -3.35054 0
M  V30 6007 C 574.21 0.414855 -4.55113 0
M  V30 6008 C 575.207 -0.333011 -5.18832 0
M  V30 6009 C 572.892 0.335804 -5.01176 0
M  V30 6010 C 574.886 -1.14801 -6.26976 0
M  V30 6011 C 572.573 -0.482857 -6.09189 0
M  V30 6012 C 573.571 -1.22342 -6.71953 0
M  V30 6013 O 573.259 -2.02855 -7.77885 0
M  V30 6014 H 572.991 0.163249 -0.655992 0
M  V30 6015 H 575.545 -0.1582 -2.0479 0
M  V30 6016 H 573.775 2.0962 -3.24956 0
M  V30 6017 H 575.464 1.87041 -3.60237 0
M  V30 6018 H 576.23 -0.281611 -4.84182 0
M  V30 6019 H 572.109 0.901869 -4.52092 0
M  V30 6020 H 575.653 -1.72654 -6.75897 0
M  V30 6021 H 571.55 -0.535773 -6.43273 0
M  V30 6022 H 572.318 -1.95432 -7.94826 0
M  V30 6023 N 574.981 1.5647 0.188427 0
M  V30 6024 C 576.227 1.81281 0.909124 0
M  V30 6025 C 576.56 0.66034 1.82628 0
M  V30 6026 O 575.835 -0.338737 1.91528 0
M  V30 6027 C 576.118 3.16388 1.7196 0
M  V30 6028 C 575.971 4.42137 0.826714 0
M  V30 6029 C 577.29 3.48256 2.69083 0
M  V30 6030 H 574.409 0.659457 0.329068 0
M  V30 6031 H 577.051 1.89182 0.176156 0
M  V30 6032 H 575.201 3.09784 2.34448 0
M  V30 6033 H 576.873 4.60794 0.216025 0
M  V30 6034 H 575.116 4.33594 0.133792 0
M  V30 6035 H 575.787 5.33184 1.42893 0
M  V30 6036 H 578.263 3.55203 2.16726 0
M  V30 6037 H 577.139 4.43899 3.2287 0
M  V30 6038 H 577.4 2.72088 3.48455 0
M  V30 6039 N 576.459 -0.456382 1.50847 0
M  V30 6040 C 577.406 -1.55249 1.70782 0
M  V30 6041 C 578.376 -1.56757 0.549231 0
M  V30 6042 O 579.561 -1.74061 0.7815 0
M  V30 6043 C 576.701 -2.93118 1.82143 0
M  V30 6044 C 575.814 -3.01285 3.09598 0
M  V30 6045 C 574.949 -4.30159 3.11667 0
M  V30 6046 C 573.988 -4.32124 4.33515 0
M  V30 6047 N 573.125 -5.52492 4.3324 0
M  V30 6048 H 577.965 -1.37555 2.64353 0
M  V30 6049 H 575.502 -0.668543 1.3103 0
M  V30 6050 H 577.46 -3.73088 1.86711 0
M  V30 6051 H 576.09 -3.09413 0.919978 0
M  V30 6052 H 575.142 -2.14096 3.14431 0
M  V30 6053 H 576.454 -2.98597 3.99551 0
M  V30 6054 H 575.608 -5.18489 3.15046 0
M  V30 6055 H 574.347 -4.35477 2.1957 0
M  V30 6056 H 573.352 -3.42189 4.30333 0
M  V30 6057 H 574.577 -4.28485 5.26856 0
M  V30 6058 H 572.523 -5.58567 3.44004 0
M  V30 6059 H 572.44 -5.51605 5.16979 0
M  V30 6060 H 573.708 -6.42906 4.40786 0
M  V30 6061 N 577.937 -1.40673 -0.710563 0
M  V30 6062 C 579.183 -1.39428 -1.47267 0
M  V30 6063 C 579.516 0.00182129 -1.942 0
M  V30 6064 O 578.791 0.971387 -1.68506 0
M  V30 6065 C 579.074 -2.38812 -2.6952 0
M  V30 6066 C 578.927 -3.87467 -2.28449 0
M  V30 6067 C 580.246 -2.3566 -3.71689 0
M  V30 6068 H 577.365 -0.507768 -0.534173 0
M  V30 6069 H 580.007 -1.71843 -0.810547 0
M  V30 6070 H 578.157 -2.113 -3.26013 0
M  V30 6071 H 579.829 -4.25825 -1.77399 0
M  V30 6072 H 578.072 -4.03058 -1.60395 0
M  V30 6073 H 578.743 -4.5253 -3.16103 0
M  V30 6074 H 581.219 -2.6004 -3.24836 0
M  V30 6075 H 580.095 -3.07237 -4.54859 0
M  V30 6076 H 580.356 -1.36996 -4.20339 0
M  V30 6077 N 579.415 0.9433 -1.26252 0
M  V30 6078 C 580.643 1.72367 -1.14443 0
M  V30 6079 C 581.058 1.86392 0.300572 0
M  V30 6080 O 580.415 1.36978 1.20596 0
M  V30 6081 C 580.466 3.13155 -1.806 0
M  V30 6082 O 580.187 2.99803 -3.19452 0
M  V30 6083 C 581.688 4.07417 -1.74717 0
M  V30 6084 H 578.908 0.539758 -0.398626 0
M  V30 6085 H 581.452 1.18268 -1.66832 0
M  V30 6086 H 579.607 3.64162 -1.32154 0
M  V30 6087 H 580.021 3.88697 -3.52158 0
M  V30 6088 H 581.495 5.03773 -2.25647 0
M  V30 6089 H 581.972 4.3337 -0.713244 0
M  V30 6090 H 582.578 3.6233 -2.22704 0
M  V30 6091 N 580.893 1.08022 1.14757 0
M  V30 6092 C 582.118 0.82895 1.90114 0
M  V30 6093 C 582.543 -0.612772 1.77839 0
M  V30 6094 O 581.901 -1.42895 1.11583 0
M  V30 6095 C 581.949 1.25062 3.38219 0
M  V30 6096 O 581.053 0.400119 4.10454 0
M  V30 6097 H 580.394 0.301412 0.591648 0
M  V30 6098 H 582.924 1.44062 1.45284 0
M  V30 6099 H 582.934 1.22977 3.89025 0
M  V30 6100 H 581.609 2.30067 3.46471 0
M  V30 6101 H 580.186 0.484052 3.69745 0
M  V30 6102 N 582.371 -1.3172 0.865308 0
M  V30 6103 C 583.62 -1.96145 0.470098 0
M  V30 6104 C 583.933 -1.69182 -0.981674 0
M  V30 6105 O 585.139 -2.27431 -1.48281 0
M  V30 6106 C 583.595 -3.51129 0.789732 0
M  V30 6107 C 583.203 -3.86938 2.25795 0
M  V30 6108 C 584.947 -4.2197 0.462765 0
M  V30 6109 C 582.854 -5.35012 2.52024 0
M  V30 6110 H 581.784 -0.734105 0.172065 0
M  V30 6111 H 584.435 -1.49959 1.05757 0
M  V30 6112 H 582.817 -3.95781 0.131571 0
M  V30 6113 H 583.991 -3.5326 2.95879 0
M  V30 6114 H 582.306 -3.29149 2.55049 0
M  V30 6115 H 584.903 -5.30904 0.636019 0
M  V30 6116 H 585.246 -4.12005 -0.59645 0
M  V30 6117 H 585.779 -3.82936 1.07727 0
M  V30 6118 H 582.518 -5.50008 3.56611 0
M  V30 6119 H 582.038 -5.70058 1.8653 0
M  V30 6120 H 583.717 -6.0222 2.36515 0
M  V30 6121 N 583.85 -0.624285 -1.44708 0
M  V30 6122 C 584.782 0.12305 -2.28869 0
M  V30 6123 C 585.795 0.81557 -1.40898 0
M  V30 6124 O 586.984 0.678162 -1.65116 0
M  V30 6125 C 584.084 1.19612 -3.1709 0
M  V30 6126 C 583.257 0.587452 -4.33437 0
M  V30 6127 C 582.316 1.55358 -5.02743 0
M  V30 6128 O 581.341 1.07338 -5.58988 0
M  V30 6129 N 582.543 2.88798 -5.03563 0
M  V30 6130 H 585.308 -0.599193 -2.93649 0
M  V30 6131 H 582.87 -0.464954 -1.5508 0
M  V30 6132 H 584.861 1.84261 -3.60319 0
M  V30 6133 H 583.432 1.82067 -2.54107 0
M  V30 6134 H 582.652 -0.237509 -3.93484 0
M  V30 6135 H 583.94 0.161326 -5.08544 0
M  V30 6136 H 583.338 3.30399 -4.59188 0
M  V30 6137 H 581.894 3.48826 -5.50603 0
M  V30 6138 N 585.328 1.53329 -0.364422 0
M  V30 6139 C 586.605 1.93557 0.281962 0
M  V30 6140 C 586.985 1.29786 1.6649 0
M  V30 6141 O 586.333 0.456512 2.23893 0
M  V30 6142 C 586.543 3.47405 0.333331 0
M  V30 6143 C 587.891 4.20699 0.574231 0
M  V30 6144 O 588.915 3.53779 0.414588 0
M  V30 6145 O 587.774 5.39287 0.885002 0
M  V30 6146 H 584.868 0.809573 0.168881 0
M  V30 6147 H 587.414 1.64494 -0.417121 0
M  V30 6148 H 586.186 3.86091 -0.636326 0
M  V30 6149 H 585.809 3.82697 1.07836 0
M  V30 6150 N 586.806 0.0935595 1.57322 0
M  V30 6151 C 588.052 -0.565234 1.95388 0
M  V30 6152 C 588.407 -1.65888 0.974632 0
M  V30 6153 O 587.7 -1.916 0.000376385 0
M  V30 6154 C 587.894 -1.16692 3.37813 0
M  V30 6155 C 587.723 -0.133091 4.49503 0
M  V30 6156 C 586.493 0.289884 5.04468 0
M  V30 6157 C 588.691 0.638141 5.10326 0
M  V30 6158 N 586.673 1.31214 5.99713 0
M  V30 6159 C 588.044 1.51227 6.01274 0
M  V30 6160 C 590.099 0.691827 4.9307 0
M  V30 6161 C 588.802 2.43536 6.76818 0
M  V30 6162 C 590.828 1.60251 5.69274 0
M  V30 6163 C 590.19 2.46427 6.59889 0
M  V30 6164 H 586.289 -0.177212 0.761656 0
M  V30 6165 H 588.873 0.175769 1.93905 0
M  V30 6166 H 587.044 -1.87775 3.39993 0
M  V30 6167 H 588.776 -1.78795 3.63063 0
M  V30 6168 H 585.531 -0.0975541 4.735 0
M  V30 6169 H 585.955 1.82143 6.52038 0
M  V30 6170 H 590.597 0.0397431 4.22781 0
M  V30 6171 H 588.315 3.0977 7.4637 0
M  V30 6172 H 591.901 1.64917 5.57937 0
M  V30 6173 H 590.781 3.15751 7.17824 0
M  V30 6174 N 588.284 -1.56567 -0.180126 0
M  V30 6175 C 589.53 -1.81761 -0.899497 0
M  V30 6176 C 589.863 -0.670015 -1.82276 0
M  V30 6177 O 589.138 0.328575 -1.91705 0
M  V30 6178 C 589.421 -3.17296 -1.7028 0
M  V30 6179 C 589.274 -4.4257 -0.803255 0
M  V30 6180 C 590.593 -3.49678 -2.67233 0
M  V30 6181 H 587.712 -0.661192 -0.325567 0
M  V30 6182 H 590.354 -1.89272 -0.16612 0
M  V30 6183 H 588.504 -3.11023 -2.32802 0
M  V30 6184 H 590.176 -4.60902 -0.191585 0
M  V30 6185 H 588.419 -4.33658 -0.110796 0
M  V30 6186 H 589.09 -5.33935 -1.40064 0
M  V30 6187 H 591.566 -3.56347 -2.14839 0
M  V30 6188 H 590.442 -4.45605 -3.20511 0
M  V30 6189 H 590.703 -2.73932 -3.47007 0
M  V30 6190 N 589.762 0.448376 -1.51087 0
M  V30 6191 C 590.694 1.56146 -1.67783 0
M  V30 6192 C 591.707 1.52913 -0.55871 0
M  V30 6193 O 592.896 1.57889 -0.83267 0
M  V30 6194 C 589.996 2.95057 -1.66716 0
M  V30 6195 C 589.169 3.22915 -2.95033 0
M  V30 6196 C 588.228 4.41495 -2.86302 0
M  V30 6197 O 587.254 4.40688 -3.60254 0
M  V30 6198 N 588.456 5.44443 -2.014 0
M  V30 6199 H 591.221 1.42232 -2.638 0
M  V30 6200 H 588.782 0.637153 -1.48835 0
M  V30 6201 H 590.774 3.72388 -1.58458 0
M  V30 6202 H 589.344 3.02624 -0.783403 0
M  V30 6203 H 588.564 2.33985 -3.17245 0
M  V30 6204 H 589.852 3.38349 -3.79996 0
M  V30 6205 H 589.25 5.4793 -1.40674 0
M  V30 6206 H 587.807 6.2067 -1.99029 0
M  V30 6207 N 591.24 1.41047 0.703093 0
M  V30 6208 C 592.187 1.42302 1.81711 0
M  V30 6209 C 593.157 0.278336 1.63751 0
M  V30 6210 O 594.342 0.478266 1.84709 0
M  V30 6211 C 591.482 1.30362 3.19531 0
M  V30 6212 C 590.595 2.54638 3.48975 0
M  V30 6213 C 589.73 2.35047 4.76368 0
M  V30 6214 C 588.769 3.54837 4.98756 0
M  V30 6215 N 587.906 3.34363 6.1737 0
M  V30 6216 H 592.746 2.37516 1.79973 0
M  V30 6217 H 590.283 1.1795 0.878983 0
M  V30 6218 H 592.241 1.21443 3.99134 0
M  V30 6219 H 590.871 0.387602 3.20464 0
M  V30 6220 H 589.923 2.74037 2.63833 0
M  V30 6221 H 591.235 3.43766 3.61423 0
M  V30 6222 H 590.389 2.23552 5.64012 0
M  V30 6223 H 589.128 1.43363 4.66153 0
M  V30 6224 H 588.133 3.66795 4.09563 0
M  V30 6225 H 589.358 4.47464 5.10835 0
M  V30 6226 H 587.304 2.45373 6.08382 0
M  V30 6227 H 587.221 4.17063 6.30551 0
M  V30 6228 H 588.489 3.26626 7.07768 0
M  V30 6229 N 592.718 -0.936591 1.26751 0
M  V30 6230 C 593.946 -1.71758 1.15355 0
M  V30 6231 C 594.361 -1.86549 -0.290683 0
M  V30 6232 O 593.718 -1.37616 -1.19868 0
M  V30 6233 C 593.769 -3.12193 1.82258 0
M  V30 6234 O 593.49 -2.98105 3.21038 0
M  V30 6235 C 594.991 -4.06485 1.76875 0
M  V30 6236 H 592.211 -0.537636 0.401483 0
M  V30 6237 H 594.755 -1.17382 1.67457 0
M  V30 6238 H 592.91 -3.63456 1.34083 0
M  V30 6239 H 593.324 -3.86824 3.54214 0
M  V30 6240 H 594.798 -5.02569 2.28316 0
M  V30 6241 H 595.275 -4.32986 0.736216 0
M  V30 6242 H 595.881 -3.61144 2.24623 0
M  V30 6243 N 594.196 -1.08629 -1.14182 0
M  V30 6244 C 595.445 -0.812271 -1.84621 0
M  V30 6245 C 595.758 0.664313 -1.83973 0
M  V30 6246 O 596.964 1.05357 -2.50224 0
M  V30 6247 C 595.42 -1.4031 -3.31423 0
M  V30 6248 C 595.028 -2.91164 -3.40481 0
M  V30 6249 C 596.772 -1.20767 -4.06959 0
M  V30 6250 C 594.679 -3.43373 -4.81507 0
M  V30 6251 H 593.609 -0.30019 -0.691666 0
M  V30 6252 H 596.26 -1.30798 -1.28701 0
M  V30 6253 H 594.642 -0.835096 -3.87094 0
M  V30 6254 H 595.816 -3.5412 -2.94848 0
M  V30 6255 H 594.131 -3.09646 -2.78403 0
M  V30 6256 H 596.728 -1.57237 -5.11058 0
M  V30 6257 H 597.071 -0.147664 -4.16038 0
M  V30 6258 H 597.604 -1.74274 -3.57594 0
M  V30 6259 H 594.343 -4.48958 -4.77616 0
M  V30 6260 H 593.863 -2.85176 -5.27669 0
M  V30 6261 H 595.542 -3.40095 -5.50404 0
M  V30 6262 N 595.674 1.31259 -0.872281 0
M  V30 6263 C 596.637 2.26744 -0.334656 0
M  V30 6264 C 597.637 1.52307 0.515681 0
M  V30 6265 O 598.827 1.71148 0.324656 0
M  V30 6266 C 595.959 3.36841 0.524482 0
M  V30 6267 H 597.152 2.75812 -1.17762 0
M  V30 6268 H 594.705 1.42232 -0.648064 0
M  V30 6269 H 595.44 2.93069 1.38855 0
M  V30 6270 H 595.225 3.92009 -0.0844299 0
M  V30 6271 H 596.715 4.07944 0.892838 0
M  V30 6272 N 597.152 0.631951 1.44375 0
M  V30 6273 C 598.062 -0.073674 2.34484 0
M  V30 6274 C 599.078 -0.834825 1.52665 0
M  V30 6275 O 600.254 -0.786902 1.85391 0
M  V30 6276 C 597.319 -1.04247 3.30656 0
M  V30 6277 C 596.38 -0.280602 4.28382 0
M  V30 6278 C 595.613 -1.20325 5.19959 0
M  V30 6279 O 595.836 -2.44199 5.15484 0
M  V30 6280 O 594.77 -0.687128 5.97965 0
M  V30 6281 H 598.596 0.667477 2.96274 0
M  V30 6282 H 596.181 0.392144 1.44162 0
M  V30 6283 H 598.063 -1.59981 3.89851 0
M  V30 6284 H 596.738 -1.76422 2.71398 0
M  V30 6285 H 595.645 0.319804 3.72731 0
M  V30 6286 H 596.978 0.401144 4.90563 0
M  V30 6287 N 598.631 -1.53133 0.372548 0
M  V30 6288 C 599.579 -2.27473 -0.485681 0
M  V30 6289 C 600.573 -1.30719 -1.07745 0
M  V30 6290 O 601.779 -1.48321 -1.01985 0
M  V30 6291 H 598.154 -0.731269 -0.175356 0
M  V30 6292 H 600.125 -2.97955 0.162986 0
M  V30 6293 C 598.874 -3.08191 -1.60978 0
M  V30 6294 H 598.197 -3.82488 -1.16373 0
M  V30 6295 H 599.637 -3.63373 -2.18485 0
M  V30 6296 C 598.096 -2.19461 -2.55614 0
M  V30 6297 O 598.626 -1.81008 -3.58607 0
M  V30 6298 N 596.832 -1.83955 -2.24965 0
M  V30 6299 H 596.379 -2.15423 -1.41247 0
M  V30 6300 H 596.337 -1.24874 -2.88538 0
M  V30 6301 O 600.148 -0.242051 -1.59676 0
M  V30 6302 H 600.839 0.334494 -1.9079 0
M  V30 END ATOM
M  V30 BEGIN BOND
M  V30 END BOND
M  V30 END CTAB
M  END
$$$$
