drugbank_target|P00739 Haptoglobin-related protein (DB01593; DB09130; DB14487)
 OpenBabel12092121073D

  0  0  0     0  0            999 V3000
M  V30 BEGIN CTAB
M  V30 COUNTS 5464 5535 0 0 0
M  V30 BEGIN ATOM
M  V30 1 H -0.908 1.98254 -0.117106 0
M  V30 2 N 0 1.576 0 0
M  V30 3 C 0.933 2.03868 1.02534 0
M  V30 4 C 1.911 0.928543 1.3348 0
M  V30 5 O 3.095 1.19667 1.45644 0
M  V30 6 C 0.222 2.43627 2.35294 0
M  V30 7 C -0.732 3.65373 2.2001 0
M  V30 8 S 0.101 5.13292 1.52614 0
M  V30 9 C 1.257 5.56322 2.86805 0
M  V30 10 H 1.49 2.90518 0.631377 0
M  V30 11 H -0.977 1.52953 0.210867 0
M  V30 12 H 0.981 2.67203 3.11629 0
M  V30 13 H -0.358 1.57376 2.7183 0
M  V30 14 H -1.165 3.90944 3.18086 0
M  V30 15 H -1.563 3.418 1.51819 0
M  V30 16 H 0.729 5.58782 3.83104 0
M  V30 17 H 1.672 6.56266 2.65933 0
M  V30 18 H 2.08 4.83886 2.90714 0
M  V30 19 N 1.4781 -0.272755 1.55222 0
M  V30 20 C 2.7031 -1.02683 1.80197 0
M  V30 21 C 3.1281 -1.79142 0.573551 0
M  V30 22 O 2.4861 -1.74917 -0.476849 0
M  V30 23 C 2.5341 -1.9609 3.02624 0
M  V30 24 O 1.6381 -3.04863 2.77727 0
M  V30 25 H 0.9791 -0.293557 0.595584 0
M  V30 26 H 3.5091 -0.30159 2.02365 0
M  V30 27 H 3.5191 -2.38039 3.31363 0
M  V30 28 H 2.1941 -1.39851 3.91682 0
M  V30 29 H 0.7711 -2.67228 2.60084 0
M  V30 30 N 2.9562 -1.48159 -0.537278 0
M  V30 31 C 4.2332 -1.46291 -1.29839 0
M  V30 32 C 4.6132 -0.170613 -2.10409 0
M  V30 33 O 3.9612 0.847746 -2.12192 0
M  V30 34 C 4.1712 -2.72055 -2.18603 0
M  V30 35 C 5.5192 -3.20087 -2.7898 0
M  V30 36 O 6.5432 -2.72921 -2.28894 0
M  V30 37 O 5.4022 -4.02138 -3.70064 0
M  V30 38 H 2.4962 -0.583906 -0.585647 0
M  V30 39 H 5.0422 -1.60384 -0.554534 0
M  V30 40 H 3.8142 -3.57628 -1.58801 0
M  V30 41 H 3.4372 -2.60646 -3.00249 0
M  V30 42 N 4.4343 0.785586 -1.36625 0
M  V30 43 C 5.3643 1.91259 -1.33949 0
M  V30 44 C 6.3453 1.68795 -0.210325 0
M  V30 45 O 7.5303 1.89854 -0.408561 0
M  V30 46 C 4.6603 3.28339 -1.13186 0
M  V30 47 C 3.6143 3.65335 -2.22967 0
M  V30 48 C 2.9403 5.00806 -1.87342 0
M  V30 49 C 4.2403 3.7352 -3.65075 0
M  V30 50 H 5.9343 1.93755 -2.28253 0
M  V30 51 H 3.4803 0.930788 -1.09874 0
M  V30 52 H 5.4333 4.06804 -1.09948 0
M  V30 53 H 4.1573 3.2624 -0.153332 0
M  V30 54 H 2.8163 2.89169 -2.25337 0
M  V30 55 H 2.4643 4.95233 -0.880545 0
M  V30 56 H 2.1643 5.26529 -2.60846 0
M  V30 57 H 3.6883 5.81687 -1.85667 0
M  V30 58 H 5.1023 4.42168 -3.64911 0
M  V30 59 H 3.4993 4.10731 -4.37516 0
M  V30 60 H 4.5693 2.74527 -3.99703 0
M  V30 61 N 5.9124 1.20967 1.01018 0
M  V30 62 C 7.1604 1.02172 1.74371 0
M  V30 63 C 7.4814 -0.446414 1.89821 0
M  V30 64 O 6.7514 -1.32234 1.44537 0
M  V30 65 H 5.3314 0.375066 0.646014 0
M  V30 66 H 7.9934 1.52187 1.21758 0
M  V30 67 H 7.0894 1.48538 2.74487 0
M  V30 68 N 7.3905 -1.2043 1.01659 0
M  V30 69 C 8.3535 -2.21433 0.591616 0
M  V30 70 C 9.3535 -1.57203 -0.338226 0
M  V30 71 O 10.5435 -1.73737 -0.126918 0
M  V30 72 C 7.6755 -3.40628 -0.136058 0
M  V30 73 H 8.8685 -2.60545 1.48514 0
M  V30 74 H 6.4215 -1.33893 0.806379 0
M  V30 75 H 7.1565 -3.07019 -1.04449 0
M  V30 76 H 6.9415 -3.88475 0.531917 0
M  V30 77 H 8.4315 -4.15475 -0.420735 0
M  V30 78 N 8.8686 -0.792821 -1.36206 0
M  V30 79 C 10.1146 -0.36733 -1.99446 0
M  V30 80 C 10.4476 1.05917 -1.62774 0
M  V30 81 O 9.7226 1.7324 -0.88421 0
M  V30 82 C 10.0056 -0.535044 -3.56103 0
M  V30 83 C 9.8586 -2.00548 -4.02617 0
M  V30 84 C 11.1776 0.0478191 -4.40074 0
M  V30 85 H 8.2966 -0.134941 -0.724541 0
M  V30 86 H 10.9386 -0.999794 -1.61568 0
M  V30 87 H 9.0886 0.00336329 -3.885 0
M  V30 88 H 10.7606 -2.60521 -3.80692 0
M  V30 89 H 9.0036 -2.50686 -3.54032 0
M  V30 90 H 9.6746 -2.07377 -5.11565 0
M  V30 91 H 12.1506 -0.411822 -4.14057 0
M  V30 92 H 11.0266 -0.0995336 -5.4881 0
M  V30 93 H 11.2876 1.14025 -4.27142 0
M  V30 94 N 10.3467 1.47872 -0.545128 0
M  V30 95 C 11.5957 2.01695 -0.0145033 0
M  V30 96 C 11.9087 1.42609 1.33873 0
M  V30 97 O 13.1147 1.88021 1.95858 0
M  V30 98 C 11.5707 3.59892 0.0245068 0
M  V30 99 C 11.1787 4.27966 -1.32475 0
M  V30 100 C 12.9227 4.21507 0.50316 0
M  V30 101 C 10.8297 5.78136 -1.2455 0
M  V30 102 H 9.7597 0.753998 -0.00165172 0
M  V30 103 H 12.4107 1.69985 -0.691175 0
M  V30 104 H 10.7927 3.88509 0.766575 0
M  V30 105 H 11.9667 4.11003 -2.08357 0
M  V30 106 H 10.2817 3.78286 -1.74036 0
M  V30 107 H 12.8787 5.31538 0.580656 0
M  V30 108 H 13.2217 3.87855 1.51243 0
M  V30 109 H 13.7547 3.97376 -0.183681 0
M  V30 110 H 10.4937 6.16388 -2.23039 0
M  V30 111 H 10.0137 5.97469 -0.528282 0
M  V30 112 H 11.6927 6.40099 -0.942488 0
M  V30 113 N 11.8248 0.280983 1.55075 0
M  V30 114 C 13.0498 -0.340154 2.04592 0
M  V30 115 C 13.4748 -1.48246 1.15779 0
M  V30 116 O 12.8328 -1.80614 0.15761 0
M  V30 117 C 12.8808 -0.793104 3.5177 0
M  V30 118 O 11.9848 -1.89981 3.66034 0
M  V30 119 H 11.3258 -0.0694289 0.66036 0
M  V30 120 H 13.8558 0.416993 2.00306 0
M  V30 121 H 13.8658 -1.08729 3.93245 0
M  V30 122 H 12.5408 0.0426163 4.15878 0
M  V30 123 H 11.1178 -1.60771 3.36463 0
M  V30 124 N 13.3029 -1.57598 0.00835791 0
M  V30 125 C 14.2329 -2.1198 -0.979113 0
M  V30 126 C 15.2139 -1.03091 -1.35301 0
M  V30 127 O 16.3989 -1.30818 -1.43528 0
M  V30 128 C 13.5289 -2.62995 -2.26828 0
M  V30 129 C 12.4829 -3.76485 -2.03576 0
M  V30 130 C 11.8089 -4.13846 -3.38579 0
M  V30 131 C 13.1089 -5.0342 -1.39161 0
M  V30 132 H 14.8029 -2.94738 -0.526281 0
M  V30 133 H 12.3489 -1.41783 -0.251704 0
M  V30 134 H 14.3019 -2.99669 -2.96271 0
M  V30 135 H 13.0259 -1.7737 -2.7424 0
M  V30 136 H 11.6849 -3.40217 -1.36557 0
M  V30 137 H 11.3329 -3.25232 -3.83709 0
M  V30 138 H 11.0329 -4.90312 -3.23834 0
M  V30 139 H 12.5569 -4.53086 -4.09323 0
M  V30 140 H 13.9709 -5.37812 -1.98573 0
M  V30 141 H 12.3679 -5.84746 -1.34878 0
M  V30 142 H 13.4379 -4.83548 -0.361868 0
M  V30 143 N 14.781 0.264519 -1.55364 0
M  V30 144 C 15.711 1.33121 -1.91836 0
M  V30 145 C 16.692 1.51101 -0.781192 0
M  V30 146 O 17.877 1.64003 -1.04003 0
M  V30 147 C 15.007 2.68921 -2.19769 0
M  V30 148 C 13.961 2.65661 -3.35571 0
M  V30 149 C 13.287 4.05093 -3.49004 0
M  V30 150 C 14.587 2.24187 -4.71739 0
M  V30 151 H 16.281 1.02844 -2.81182 0
M  V30 152 H 13.827 0.493286 -1.35287 0
M  V30 153 H 15.78 3.43663 -2.43872 0
M  V30 154 H 14.504 3.00799 -1.27231 0
M  V30 155 H 13.163 1.93377 -3.1145 0
M  V30 156 H 12.811 4.34206 -2.53917 0
M  V30 157 H 12.511 4.03804 -4.26868 0
M  V30 158 H 14.035 4.81561 -3.75408 0
M  V30 159 H 15.449 2.88654 -4.9533 0
M  V30 160 H 13.846 2.34044 -5.52579 0
M  V30 161 H 14.916 1.19327 -4.69988 0
M  V30 162 N 16.2591 1.48442 0.529413 0
M  V30 163 C 17.1891 1.65902 1.64313 0
M  V30 164 C 18.1701 0.507897 1.6234 0
M  V30 165 O 19.3551 0.740503 1.79528 0
M  V30 166 C 16.4851 1.69911 3.02898 0
M  V30 167 C 15.4391 2.8453 3.19729 0
M  V30 168 C 14.7651 2.73629 4.59381 0
M  V30 169 C 16.0651 4.25821 3.02447 0
M  V30 170 H 17.7591 2.5914 1.49955 0
M  V30 171 H 15.3051 1.24709 0.719982 0
M  V30 172 H 17.2581 1.80715 3.80684 0
M  V30 173 H 15.9821 0.732524 3.18279 0
M  V30 174 H 14.6411 2.73283 2.44361 0
M  V30 175 H 14.2891 1.74938 4.71599 0
M  V30 176 H 13.9891 3.50541 4.71588 0
M  V30 177 H 15.5131 2.86401 5.39265 0
M  V30 178 H 16.9271 4.37898 3.70024 0
M  V30 179 H 15.3241 5.03735 3.26146 0
M  V30 180 H 16.3941 4.42244 1.98867 0
M  V30 181 N 17.7372 -0.778329 1.37039 0
M  V30 182 C 18.9832 -1.53817 1.33086 0
M  V30 183 C 19.3382 -1.92208 -0.0860346 0
M  V30 184 O 18.6312 -1.60713 -1.04316 0
M  V30 185 C 18.8252 -2.81845 2.19768 0
M  V30 186 C 18.6542 -2.55967 3.69744 0
M  V30 187 C 17.4242 -2.50428 4.38878 0
M  V30 188 C 19.6222 -2.2441 4.62758 0
M  V30 189 N 17.6042 -2.16564 5.74433 0
M  V30 190 C 18.9752 -2.0063 5.86641 0
M  V30 191 C 21.0302 -2.1051 4.5121 0
M  V30 192 C 19.7332 -1.64354 7.00272 0
M  V30 193 C 21.7592 -1.75634 5.64718 0
M  V30 194 C 21.1212 -1.52709 6.87648 0
M  V30 195 H 17.2202 -0.563434 0.542279 0
M  V30 196 H 19.8042 -0.908617 1.72198 0
M  V30 197 H 17.9752 -3.42649 1.82883 0
M  V30 198 H 19.7072 -3.47682 2.07122 0
M  V30 199 H 16.4622 -2.66056 3.91805 0
M  V30 200 H 16.8862 -2.02348 6.46053 0
M  V30 201 H 21.5282 -2.26919 3.56746 0
M  V30 202 H 19.2462 -1.46683 7.94676 0
M  V30 203 H 22.8322 -1.65546 5.57751 0
M  V30 204 H 21.7122 -1.2612 7.73992 0
M  V30 205 N 19.2153 -1.21501 -1.00376 0
M  V30 206 C 20.4633 -1.03095 -1.73827 0
M  V30 207 C 20.7843 0.436341 -1.90055 0
M  V30 208 O 20.0543 1.31466 -1.45236 0
M  V30 209 H 18.6343 -0.378487 -0.644016 0
M  V30 210 H 21.2963 -1.52831 -1.20949 0
M  V30 211 H 20.3923 -1.49991 -2.73695 0
M  V30 212 N 20.6934 1.19889 -1.02296 0
M  V30 213 C 22.1094 1.41462 -0.738954 0
M  V30 214 C 22.3094 1.89721 0.678846 0
M  V30 215 O 21.3654 2.07016 1.4457 0
M  V30 216 C 22.6784 2.43083 -1.77005 0
M  V30 217 C 24.2264 2.5684 -1.78892 0
M  V30 218 C 24.7014 3.61709 -2.80945 0
M  V30 219 N 26.1924 3.69199 -2.79725 0
M  V30 220 C 26.9274 4.50019 -3.55345 0
M  V30 221 N 26.4234 5.34592 -4.40662 0
M  V30 222 N 28.2164 4.44612 -3.43914 0
M  V30 223 H 20.3674 0.868827 -1.93817 0
M  V30 224 H 22.6304 0.44399 -0.837602 0
M  V30 225 H 22.3364 2.14636 -2.78612 0
M  V30 226 H 22.2104 3.4217 -1.58744 0
M  V30 227 H 24.5974 2.84614 -0.779674 0
M  V30 228 H 24.6784 1.57927 -2.01228 0
M  V30 229 H 24.3224 3.34678 -3.82038 0
M  V30 230 H 24.2524 4.60259 -2.5587 0
M  V30 231 H 26.7434 3.08794 -2.17842 0
M  V30 232 H 27.0564 5.93363 -4.95116 0
M  V30 233 H 25.4014 5.34073 -4.44737 0
M  V30 234 H 28.5924 3.7758 -2.76679 0
M  V30 235 H 28.7654 5.0736 -4.031 0
M  V30 236 N 22.1715 0.800033 1.35784 0
M  V30 237 C 23.1035 0.163596 2.28615 0
M  V30 238 C 24.1165 -0.633317 1.49976 0
M  V30 239 O 25.3055 -0.466754 1.72289 0
M  V30 240 C 22.4055 -0.790958 3.29541 0
M  V30 241 C 21.5785 -0.0418255 4.3738 0
M  V30 242 C 20.6375 -0.91389 5.18203 0
M  V30 243 O 19.6635 -0.367234 5.68014 0
M  V30 244 N 20.8655 -2.23682 5.35674 0
M  V30 245 H 23.6305 0.96105 2.83873 0
M  V30 246 H 21.1915 0.654894 1.48063 0
M  V30 247 H 23.1835 -1.37844 3.80501 0
M  V30 248 H 21.7535 -1.48925 2.74846 0
M  V30 249 H 20.9735 0.726813 3.87442 0
M  V30 250 H 22.2615 0.474719 5.06581 0
M  V30 251 H 21.6595 -2.70497 4.96838 0
M  V30 252 H 20.2165 -2.77369 5.89839 0
M  V30 253 N 23.6496 -1.47581 0.552962 0
M  V30 254 C 24.5796 -2.32762 -0.185451 0
M  V30 255 C 25.5606 -1.43527 -0.912905 0
M  V30 256 O 26.7456 -1.72388 -0.894201 0
M  V30 257 C 23.8756 -3.25219 -1.21859 0
M  V30 258 C 22.8296 -4.23661 -0.607864 0
M  V30 259 C 22.1556 -5.05413 -1.74533 0
M  V30 260 C 23.4556 -5.20481 0.435582 0
M  V30 261 H 25.1496 -2.94749 0.525684 0
M  V30 262 H 22.6956 -1.41738 0.254251 0
M  V30 263 H 24.6486 -3.8365 -1.7433 0
M  V30 264 H 23.3726 -2.61279 -1.95961 0
M  V30 265 H 22.0316 -3.66451 -0.104489 0
M  V30 266 H 21.6796 -4.3788 -2.47529 0
M  V30 267 H 21.3796 -5.72059 -1.34249 0
M  V30 268 H 22.9036 -5.66701 -2.27338 0
M  V30 269 H 24.3176 -5.733 -0.00290157 0
M  V30 270 H 22.7146 -5.95305 0.757067 0
M  V30 271 H 23.7846 -4.66217 1.33303 0
M  V30 272 N 25.1277 -0.289203 -1.54924 0
M  V30 273 C 26.3747 0.323519 -1.99899 0
M  V30 274 C 26.7027 1.54797 -1.17762 0
M  V30 275 O 25.9577 1.94237 -0.238835 0
M  V30 276 C 26.2567 0.736119 -3.49737 0
M  V30 277 C 25.9227 -0.385276 -4.49251 0
M  V30 278 C 24.5847 -0.693156 -4.76181 0
M  V30 279 C 26.9367 -1.14021 -5.08575 0
M  V30 280 C 24.2647 -1.7593 -5.59701 0
M  V30 281 C 26.6167 -2.19619 -5.93254 0
M  V30 282 C 25.2807 -2.51026 -6.185 0
M  V30 283 H 24.5507 0.118384 -0.731482 0
M  V30 284 H 27.1977 -0.405847 -1.8715 0
M  V30 285 H 25.5027 1.54539 -3.60035 0
M  V30 286 H 27.1997 1.22118 -3.81953 0
M  V30 287 H 23.7897 -0.135202 -4.28387 0
M  V30 288 H 27.9737 -0.915611 -4.87781 0
M  V30 289 H 23.2297 -2.0075 -5.77503 0
M  V30 290 H 27.4037 -2.78581 -6.38252 0
M  V30 291 H 25.0307 -3.33772 -6.83008 0
M  V30 292 N 26.6058 1.57591 -0.0167156 0
M  V30 293 C 27.5688 2.08393 0.954204 0
M  V30 294 C 28.5688 0.996531 1.26198 0
M  V30 295 O 29.7588 1.25858 1.20438 0
M  V30 296 C 26.8908 2.5394 2.27436 0
M  V30 297 H 28.0838 2.95455 0.514451 0
M  V30 298 H 25.6368 1.54582 0.231089 0
M  V30 299 H 26.3718 1.70171 2.76066 0
M  V30 300 H 26.1568 3.33371 2.06412 0
M  V30 301 H 27.6468 2.93512 2.97053 0
M  V30 302 N 28.0839 -0.256276 1.55502 0
M  V30 303 C 29.0139 -1.32102 1.92539 0
M  V30 304 C 29.9949 -1.50684 0.789194 0
M  V30 305 O 31.1799 -1.63449 1.04872 0
M  V30 306 C 28.3099 -2.67752 2.21192 0
M  V30 307 C 27.2639 -2.63878 3.36975 0
M  V30 308 C 26.5899 -4.03236 3.51147 0
M  V30 309 C 27.8899 -2.21682 4.72921 0
M  V30 310 H 29.5839 -1.01351 2.81724 0
M  V30 311 H 27.1299 -0.486105 1.35547 0
M  V30 312 H 29.0829 -3.42365 2.45691 0
M  V30 313 H 27.8069 -3.0012 1.28824 0
M  V30 314 H 26.4659 -1.91722 3.12471 0
M  V30 315 H 26.1139 -4.32854 2.56216 0
M  V30 316 H 25.8139 -4.01535 4.29003 0
M  V30 317 H 27.3379 -4.79563 3.77957 0
M  V30 318 H 28.7519 -2.86023 4.96854 0
M  V30 319 H 27.1489 -2.3111 5.53812 0
M  V30 320 H 28.2189 -1.16833 4.70615 0
M  V30 321 N 29.562 -1.4872 -0.521534 0
M  V30 322 C 30.792 -1.6061 -1.29954 0
M  V30 323 C 31.2 -0.268728 -1.87282 0
M  V30 324 O 30.543 0.753221 -1.67548 0
M  V30 325 C 30.605 -2.60013 -2.48261 0
M  V30 326 C 30.269 -4.04874 -2.11957 0
M  V30 327 C 31.266 -4.92304 -1.67132 0
M  V30 328 C 28.951 -4.5047 -2.22221 0
M  V30 329 C 30.945 -6.2336 -1.33047 0
M  V30 330 C 28.632 -5.81544 -1.87748 0
M  V30 331 C 29.63 -6.67812 -1.43234 0
M  V30 332 O 29.318 -7.96446 -1.09217 0
M  V30 333 H 29.05 -0.544116 -0.401141 0
M  V30 334 H 31.604 -1.95339 -0.634958 0
M  V30 335 H 29.834 -2.20422 -3.17728 0
M  V30 336 H 31.523 -2.61648 -3.10315 0
M  V30 337 H 32.289 -4.58312 -1.58665 0
M  V30 338 H 28.168 -3.83504 -2.55823 0
M  V30 339 H 31.712 -6.90649 -0.982299 0
M  V30 340 H 27.609 -6.15069 -1.95858 0
M  V30 341 H 28.377 -8.09275 -1.22542 0
M  V30 342 N 31.0401 0.771051 -1.3745 0
M  V30 343 C 32.2651 1.56529 -1.36065 0
M  V30 344 C 32.6901 1.88029 0.0515859 0
M  V30 345 O 32.0481 1.49282 1.02882 0
M  V30 346 C 32.0961 2.85187 -2.20683 0
M  V30 347 O 31.2001 3.79593 -1.61193 0
M  V30 348 H 30.5411 0.47411 -0.464883 0
M  V30 349 H 33.0711 0.954269 -1.80983 0
M  V30 350 H 33.0811 3.34283 -2.33921 0
M  V30 351 H 31.7561 2.61588 -3.23334 0
M  V30 352 H 30.3331 3.38239 -1.56999 0
M  V30 353 N 32.5182 1.22032 0.997298 0
M  V30 354 C 33.7662 1.04016 1.73278 0
M  V30 355 C 34.0872 -0.426255 1.90284 0
M  V30 356 O 33.3572 -1.30694 1.45931 0
M  V30 357 H 31.9372 0.381897 0.642 0
M  V30 358 H 34.5992 1.5347 1.20137 0
M  V30 359 H 33.6952 1.51441 2.72896 0
M  V30 360 N 33.9963 -1.19345 1.0293 0
M  V30 361 C 34.9443 -2.24621 0.604001 0
M  V30 362 C 35.9383 -1.65452 -0.363587 0
M  V30 363 O 37.1443 -1.78497 -0.23212 0
M  V30 364 H 33.5193 -0.730858 0.177061 0
M  V30 365 H 35.4903 -2.5781 1.50255 0
M  V30 366 C 34.2393 -3.47688 -0.0289127 0
M  V30 367 H 33.5623 -3.93505 0.706651 0
M  V30 368 H 35.0023 -4.23011 -0.289432 0
M  V30 369 C 33.4613 -3.11817 -1.2756 0
M  V30 370 O 33.9913 -3.2451 -2.36762 0
M  V30 371 N 32.1973 -2.66246 -1.16453 0
M  V30 372 H 31.7443 -2.56118 -0.275914 0
M  V30 373 H 31.7023 -2.42617 -1.99961 0
M  V30 374 N 35.4744 -0.807222 -1.35358 0
M  V30 375 C 36.7514 -0.311126 -1.9311 0
M  V30 376 C 37.1314 1.19937 -1.73719 0
M  V30 377 O 36.4794 1.99918 -1.10657 0
M  V30 378 C 36.6894 -0.723226 -3.41424 0
M  V30 379 C 38.0374 -0.713078 -4.18569 0
M  V30 380 O 39.0614 -0.664811 -3.49941 0
M  V30 381 O 37.9204 -0.772022 -5.41019 0
M  V30 382 H 35.0144 -0.081526 -0.822972 0
M  V30 383 H 37.5604 -0.890962 -1.4443 0
M  V30 384 H 36.3324 -1.76426 -3.4927 0
M  V30 385 H 35.9554 -0.118232 -3.97424 0
M  V30 386 N 36.9525 1.47285 -0.560781 0
M  V30 387 C 38.1985 2.02764 -0.0381184 0
M  V30 388 C 38.5315 1.43384 1.30976 0
M  V30 389 O 37.8065 0.590733 1.85312 0
M  V30 390 C 38.0895 3.60064 0.0511427 0
M  V30 391 C 37.9425 4.2987 -1.32408 0
M  V30 392 C 39.2615 4.33439 0.762795 0
M  V30 393 H 36.3805 0.736841 -0.0153264 0
M  V30 394 H 39.0225 1.75675 -0.723759 0
M  V30 395 H 37.1725 3.83274 0.635065 0
M  V30 396 H 38.8445 4.17989 -1.95148 0
M  V30 397 H 37.0875 3.90085 -1.8978 0
M  V30 398 H 37.7585 5.38478 -1.21431 0
M  V30 399 H 40.2345 4.15243 0.266965 0
M  V30 400 H 39.1105 5.43124 0.794221 0
M  V30 401 H 39.3715 4.02915 1.81966 0
M  V30 402 N 38.4306 0.297415 1.54768 0
M  V30 403 C 39.6586 -0.315623 2.04478 0
M  V30 404 C 40.0736 -1.47792 1.17486 0
M  V30 405 O 39.4306 -1.81404 0.19971 0
M  V30 406 C 39.4816 -0.7753 3.53088 0
M  V30 407 O 39.2026 0.340732 4.36773 0
M  V30 408 C 40.7036 -1.45386 4.18781 0
M  V30 409 H 37.9236 -0.0690887 0.667434 0
M  V30 410 H 40.4676 0.436003 1.99798 0
M  V30 411 H 38.6226 -1.47696 3.58141 0
M  V30 412 H 39.0366 -0.0165035 5.24497 0
M  V30 413 H 40.5106 -1.72669 5.24299 0
M  V30 414 H 40.9876 -2.39275 3.68299 0
M  V30 415 H 41.5936 -0.795475 4.17795 0
M  V30 416 N 39.9087 -1.5758 0.0250728 0
M  V30 417 C 41.1857 -1.82917 -0.692873 0
M  V30 418 C 41.5657 -0.908137 -1.90568 0
M  V30 419 O 40.9137 0.0372298 -2.2847 0
M  V30 420 C 41.1237 -3.32034 -1.07492 0
M  V30 421 C 42.4717 -3.98406 -1.46826 0
M  V30 422 O 43.4957 -3.36505 -1.16801 0
M  V30 423 O 42.3547 -5.07497 -2.02754 0
M  V30 424 H 39.4487 -0.754079 -0.33955 0
M  V30 425 H 41.9947 -1.69619 0.0524456 0
M  V30 426 H 40.7667 -3.90728 -0.211552 0
M  V30 427 H 40.3897 -3.50424 -1.87854 0
M  V30 428 N 41.3868 0.248026 -1.55636 0
M  V30 429 C 42.6358 0.974134 -1.76617 0
M  V30 430 C 42.9488 1.86528 -0.588796 0
M  V30 431 O 44.1548 2.62805 -0.681594 0
M  V30 432 C 42.6108 1.78213 -3.12679 0
M  V30 433 C 42.2188 0.93843 -4.38061 0
M  V30 434 C 43.9628 2.50104 -3.42999 0
M  V30 435 C 41.8698 1.74225 -5.65155 0
M  V30 436 H 40.7998 0.36745 -0.658405 0
M  V30 437 H 43.4508 0.22884 -1.82067 0
M  V30 438 H 41.8328 2.56933 -3.01333 0
M  V30 439 H 43.0068 0.193635 -4.60393 0
M  V30 440 H 41.3218 0.332905 -4.15067 0
M  V30 441 H 43.9188 3.10694 -4.3517 0
M  V30 442 H 44.2618 3.21662 -2.64271 0
M  V30 443 H 44.7948 1.78395 -3.55556 0
M  V30 444 H 41.5338 1.07043 -6.46701 0
M  V30 445 H 41.0538 2.46235 -5.46926 0
M  V30 446 H 42.7328 2.30967 -6.0437 0
M  V30 447 N 42.8649 1.48995 0.513639 0
M  V30 448 C 44.0899 1.61792 1.29762 0
M  V30 449 C 44.5149 0.284475 1.85936 0
M  V30 450 O 43.8729 -0.746185 1.65232 0
M  V30 451 C 43.9209 2.67993 2.41272 0
M  V30 452 O 43.0249 2.26287 3.44772 0
M  V30 453 H 42.3659 0.541963 0.38363 0
M  V30 454 H 44.8959 1.95097 0.616307 0
M  V30 455 H 44.9059 2.89772 2.87221 0
M  V30 456 H 43.5809 3.64791 1.9975 0
M  V30 457 H 42.1579 2.14788 3.04829 0
M  V30 458 N 44.343 -0.763751 1.37857 0
M  V30 459 C 45.62 -1.51244 1.24035 0
M  V30 460 C 46 -2.10472 -0.162649 0
M  V30 461 O 45.348 -1.96206 -1.17112 0
M  V30 462 C 45.558 -2.58694 2.34261 0
M  V30 463 C 46.906 -3.25878 2.72193 0
M  V30 464 O 47.93 -2.68993 2.33497 0
M  V30 465 O 46.789 -4.2874 3.38887 0
M  V30 466 H 43.883 -0.670243 0.484462 0
M  V30 467 H 46.429 -0.800031 1.49658 0
M  V30 468 H 45.201 -2.13105 3.2818 0
M  V30 469 H 44.824 -3.37527 2.10146 0
M  V30 470 N 45.8211 -1.22559 -0.990812 0
M  V30 471 C 47.0981 -0.959875 -1.70428 0
M  V30 472 C 47.4781 0.524455 -2.04481 0
M  V30 473 O 46.8261 1.49302 -1.72977 0
M  V30 474 C 47.0361 -1.85955 -2.95333 0
M  V30 475 C 48.3841 -2.11687 -3.68068 0
M  V30 476 O 49.4081 -1.8342 -3.05345 0
M  V30 477 O 48.2671 -2.59572 -4.80921 0
M  V30 478 H 45.3611 -0.361154 -0.743974 0
M  V30 479 H 47.9071 -1.33554 -1.04697 0
M  V30 480 H 46.6791 -2.86346 -2.66687 0
M  V30 481 H 46.3021 -1.4856 -3.68803 0
M  V30 482 N 47.2992 1.18797 -1.03562 0
M  V30 483 C 48.7152 1.40671 -0.753917 0
M  V30 484 C 48.9152 1.9043 0.658686 0
M  V30 485 O 47.9712 2.08538 1.42366 0
M  V30 486 C 49.2842 2.41192 -1.79574 0
M  V30 487 C 50.8322 2.54928 -1.81606 0
M  V30 488 C 51.3072 3.58709 -2.84766 0
M  V30 489 N 52.7982 3.66212 -2.83625 0
M  V30 490 C 53.5332 4.46225 -3.60098 0
M  V30 491 N 53.0292 5.29888 -4.46308 0
M  V30 492 N 54.8222 4.40939 -3.4861 0
M  V30 493 H 46.9732 0.848221 -1.94728 0
M  V30 494 H 49.2362 0.435081 -0.842264 0
M  V30 495 H 48.9422 2.11669 -2.80872 0
M  V30 496 H 48.8162 3.40467 -1.62365 0
M  V30 497 H 51.2032 2.83771 -0.809817 0
M  V30 498 H 51.2842 1.55784 -2.02891 0
M  V30 499 H 50.9282 3.30607 -3.85566 0
M  V30 500 H 50.8582 4.57519 -2.60737 0
M  V30 501 H 53.3492 3.06466 -2.21105 0
M  V30 502 H 53.6622 5.88078 -5.01382 0
M  V30 503 H 52.0072 5.29326 -4.50377 0
M  V30 504 H 55.1982 3.74624 -2.80668 0
M  V30 505 H 55.3712 5.03056 -4.08459 0
M  V30 506 N 48.7773 0.814389 1.34928 0
M  V30 507 C 50.0243 0.398423 1.98542 0
M  V30 508 C 50.3523 -1.03638 1.64589 0
M  V30 509 O 49.6073 -1.73509 0.90516 0
M  V30 510 C 49.9063 0.537781 3.53331 0
M  V30 511 C 49.5723 1.93704 4.07172 0
M  V30 512 C 48.2343 2.31984 4.21589 0
M  V30 513 C 50.5863 2.85213 4.36237 0
M  V30 514 C 47.9143 3.61125 4.62391 0
M  V30 515 C 50.2663 4.13809 4.78482 0
M  V30 516 C 48.9303 4.52077 4.91104 0
M  V30 517 H 48.2003 0.145793 0.726516 0
M  V30 518 H 50.8473 1.03669 1.61012 0
M  V30 519 H 49.1523 -0.183906 3.91368 0
M  V30 520 H 50.8493 0.196588 4.00518 0
M  V30 521 H 47.4393 1.62966 3.96409 0
M  V30 522 H 51.6233 2.56885 4.24645 0
M  V30 523 H 46.8793 3.90612 4.70353 0
M  V30 524 H 51.0533 4.84811 4.99932 0
M  V30 525 H 48.6803 5.52196 5.22478 0
M  V30 526 N 50.2554 -1.46986 0.568584 0
M  V30 527 C 51.6664 -1.86188 0.138219 0
M  V30 528 C 52.0174 -1.47388 -1.29504 0
M  V30 529 O 51.1424 -0.88219 -1.97602 0
M  V30 530 C 51.7374 -3.3792 0.244065 0
M  V30 531 C 50.2964 -3.76171 -0.131335 0
M  V30 532 C 49.4434 -2.71027 0.586465 0
M  V30 533 H 52.3944 -1.38342 0.777645 0
M  V30 534 H 52.4154 -3.76729 -0.534351 0
M  V30 535 H 51.9274 -3.66128 1.28731 0
M  V30 536 H 50.0284 -3.5358 -1.17526 0
M  V30 537 H 50.1414 -4.78523 0.235146 0
M  V30 538 H 48.5054 -2.54684 0.0282722 0
M  V30 539 H 49.2884 -3.02077 1.63109 0
M  V30 540 N 51.7335 -0.305618 -1.54608 0
M  V30 541 C 52.6805 0.568421 -2.23691 0
M  V30 542 C 53.6505 1.12592 -1.22116 0
M  V30 543 O 54.8355 1.16959 -1.50749 0
M  V30 544 C 51.9755 1.7322 -2.98477 0
M  V30 545 C 51.0885 1.20566 -4.14835 0
M  V30 546 C 50.2235 2.33368 -4.77193 0
M  V30 547 C 49.2625 1.7787 -5.85686 0
M  V30 548 N 48.3995 2.84263 -6.4198 0
M  V30 549 H 53.2395 -0.0272867 -2.97988 0
M  V30 550 H 50.7765 -0.0252363 -1.47078 0
M  V30 551 H 52.7345 2.41675 -3.40072 0
M  V30 552 H 51.3645 2.29947 -2.26548 0
M  V30 553 H 50.4165 0.413223 -3.78149 0
M  V30 554 H 51.7285 0.759417 -4.92985 0
M  V30 555 H 50.8825 3.09761 -5.21664 0
M  V30 556 H 49.6215 2.8132 -3.98385 0
M  V30 557 H 48.6265 0.99968 -5.40635 0
M  V30 558 H 49.8515 1.30816 -6.66381 0
M  V30 559 H 47.7975 3.31541 -5.66053 0
M  V30 560 H 47.7145 2.44149 -7.15491 0
M  V30 561 H 48.9825 3.6054 -6.91109 0
M  V30 562 N 53.2116 1.57565 -0.0334293 0
M  V30 563 C 54.6226 1.79746 0.504798 0
M  V30 564 C 54.9736 0.944091 1.71992 0
M  V30 565 O 54.0986 0.155694 2.15839 0
M  V30 566 C 54.6936 3.25997 0.922567 0
M  V30 567 C 53.2526 3.49159 1.40588 0
M  V30 568 C 52.3996 2.74785 0.372633 0
M  V30 569 H 55.3506 1.56565 -0.259436 0
M  V30 570 H 55.3716 3.35945 1.78666 0
M  V30 571 H 54.8836 3.88081 0.0379825 0
M  V30 572 H 52.9846 2.92332 2.31025 0
M  V30 573 H 53.0976 4.57873 1.41028 0
M  V30 574 H 51.4616 2.40391 0.841672 0
M  V30 575 H 52.2446 3.39587 -0.503559 0
M  V30 576 N 54.6897 -0.239769 1.55765 0
M  V30 577 C 56.1007 -0.808263 1.68297 0
M  V30 578 C 56.4517 -1.85736 0.632181 0
M  V30 579 O 55.5767 -2.15277 -0.220204 0
M  V30 580 C 56.1717 -1.47284 3.05111 0
M  V30 581 C 54.7307 -1.98895 3.19559 0
M  V30 582 C 53.8777 -0.842575 2.64189 0
M  V30 583 H 56.8287 -0.0154422 1.58692 0
M  V30 584 H 56.8497 -2.34111 2.99954 0
M  V30 585 H 56.3617 -0.709053 3.81568 0
M  V30 586 H 54.4627 -2.78132 2.47938 0
M  V30 587 H 54.5757 -2.18143 4.26556 0
M  V30 588 H 52.9397 -1.24501 2.22197 0
M  V30 589 H 53.7227 -0.0917552 3.43177 0
M  V30 590 N 56.1678 -1.49265 -0.50573 0
M  V30 591 C 57.0778 -1.68312 -1.63427 0
M  V30 592 C 58.0938 -0.565682 -1.64548 0
M  V30 593 O 59.2698 -0.839801 -1.83055 0
M  V30 594 C 56.3348 -1.74107 -2.99813 0
M  V30 595 C 55.3958 -2.97653 -3.09356 0
M  V30 596 C 54.6288 -3.03163 -4.39236 0
M  V30 597 O 54.8518 -2.16396 -5.27758 0
M  V30 598 O 53.7858 -3.9558 -4.53652 0
M  V30 599 H 57.6118 -2.63907 -1.50289 0
M  V30 600 H 55.1968 -1.32951 -0.681502 0
M  V30 601 H 57.0788 -1.803 -3.80881 0
M  V30 602 H 55.7538 -0.816901 -3.13223 0
M  V30 603 H 54.6608 -2.96981 -2.27493 0
M  V30 604 H 55.9938 -3.89535 -3.00871 0
M  V30 605 N 57.6459 0.756429 -1.3826 0
M  V30 606 C 58.8949 1.51082 -1.3363 0
M  V30 607 C 59.2079 1.95467 0.0720068 0
M  V30 608 O 60.4139 2.7043 0.240834 0
M  V30 609 C 58.8699 2.72893 -2.34644 0
M  V30 610 C 58.4779 2.35544 -3.81081 0
M  V30 611 C 60.2219 3.50791 -2.39052 0
M  V30 612 C 58.1289 3.53948 -4.73787 0
M  V30 613 H 57.0589 0.56727 -0.49671 0
M  V30 614 H 59.7099 0.827147 -1.638 0
M  V30 615 H 58.0919 3.43227 -1.97513 0
M  V30 616 H 59.2659 1.72894 -4.27135 0
M  V30 617 H 57.5809 1.70786 -3.79764 0
M  V30 618 H 60.1779 4.38823 -3.05513 0
M  V30 619 H 60.5209 3.91745 -1.40861 0
M  V30 620 H 61.0539 2.87467 -2.74968 0
M  V30 621 H 57.7929 3.18064 -5.73163 0
M  V30 622 H 57.3129 4.15651 -4.32428 0
M  V30 623 H 58.9919 4.20566 -4.91663 0
M  V30 624 N 59.124 1.23083 0.984299 0
M  V30 625 C 60.087 1.00979 2.05757 0
M  V30 626 C 61.087 -0.0269573 1.60777 0
M  V30 627 O 62.277 0.212403 1.729 0
M  V30 628 C 59.409 0.527072 3.36801 0
M  V30 629 H 60.602 1.9622 2.26799 0
M  V30 630 H 58.155 1.05072 1.15714 0
M  V30 631 H 58.89 -0.429294 3.21446 0
M  V30 632 H 58.675 1.27515 3.70786 0
M  V30 633 H 60.165 0.392942 4.15747 0
M  V30 634 N 60.6021 -1.18246 1.0419 0
M  V30 635 C 61.5501 -2.23968 0.627792 0
M  V30 636 C 62.5441 -1.65828 -0.346019 0
M  V30 637 O 63.7501 -1.78733 -0.213175 0
M  V30 638 H 60.1251 -0.728939 0.184802 0
M  V30 639 H 62.0961 -2.56202 1.52981 0
M  V30 640 C 60.8451 -3.47699 0.00796591 0
M  V30 641 H 60.1681 -3.92734 0.748347 0
M  V30 642 H 61.6081 -4.23294 -0.24455 0
M  V30 643 C 60.0671 -3.13153 -1.24246 0
M  V30 644 O 60.5971 -3.27003 -2.33307 0
M  V30 645 N 58.8031 -2.67467 -1.13622 0
M  V30 646 H 58.3501 -2.56396 -0.248734 0
M  V30 647 H 58.3081 -2.44724 -1.97377 0
M  V30 648 N 62.0802 -0.821533 -1.34494 0
M  V30 649 C 63.3282 -0.408139 -1.97936 0
M  V30 650 C 63.6492 1.03193 -1.65457 0
M  V30 651 O 62.9192 1.71622 -0.944595 0
M  V30 652 H 61.4992 -0.147928 -0.732206 0
M  V30 653 H 64.1612 -1.05067 -1.64155 0
M  V30 654 H 63.2572 -0.52601 -3.07635 0
M  V30 655 N 63.5583 1.46682 -0.576371 0
M  V30 656 C 64.7883 2.06498 -0.0648694 0
M  V30 657 C 65.1963 1.42665 1.24271 0
M  V30 658 O 64.5393 0.523886 1.76071 0
M  V30 659 C 64.6013 3.5904 0.181816 0
M  V30 660 C 64.2653 4.45028 -1.0392 0
M  V30 661 C 65.2623 4.81959 -1.94966 0
M  V30 662 C 62.9473 4.86259 -1.25927 0
M  V30 663 C 64.9413 5.58942 -3.06371 0
M  V30 664 C 62.6283 5.63002 -2.37638 0
M  V30 665 C 63.6263 5.99257 -3.2769 0
M  V30 666 O 63.3143 6.7445 -4.37461 0
M  V30 667 H 63.0463 0.674028 -0.0515987 0
M  V30 668 H 65.6003 1.89393 -0.794951 0
M  V30 669 H 63.8303 3.74429 0.966436 0
M  V30 670 H 65.5193 4.00806 0.641047 0
M  V30 671 H 66.2853 4.50689 -1.79177 0
M  V30 672 H 62.1643 4.57494 -0.567448 0
M  V30 673 H 65.7083 5.87158 -3.76684 0
M  V30 674 H 61.6053 5.93686 -2.53392 0
M  V30 675 H 62.3733 6.92867 -4.35749 0
M  V30 676 N 65.0364 0.313813 1.54444 0
M  V30 677 C 66.2824 -0.292108 2.00685 0
M  V30 678 C 66.6154 -1.52548 1.20177 0
M  V30 679 O 65.8904 -1.92452 0.281531 0
M  V30 680 C 66.1734 -0.635968 3.5444 0
M  V30 681 C 66.0264 0.607437 4.4568 0
M  V30 682 C 67.3454 -1.45747 4.15266 0
M  V30 683 H 64.4644 -0.104697 0.729526 0
M  V30 684 H 67.1064 0.428457 1.85106 0
M  V30 685 H 65.2564 -1.24986 3.67846 0
M  V30 686 H 66.9284 1.24581 4.44159 0
M  V30 687 H 65.1714 1.23822 4.15753 0
M  V30 688 H 65.8424 0.322515 5.51057 0
M  V30 689 H 68.3184 -0.938645 4.05375 0
M  V30 690 H 67.1944 -1.66683 5.2298 0
M  V30 691 H 67.4554 -2.45063 3.67963 0
M  V30 692 N 66.5145 -1.57545 0.0417849 0
M  V30 693 C 67.4245 -2.14451 -0.951213 0
M  V30 694 C 68.4405 -1.09992 -1.34825 0
M  V30 695 O 69.6165 -1.42114 -1.42708 0
M  V30 696 C 66.6815 -2.67063 -2.21084 0
M  V30 697 C 65.7425 -3.86284 -1.87304 0
M  V30 698 C 64.9755 -4.36378 -3.07261 0
M  V30 699 O 65.1985 -3.85587 -4.20332 0
M  V30 700 O 64.1325 -5.28077 -2.88822 0
M  V30 701 H 67.9585 -2.99601 -0.497287 0
M  V30 702 H 65.5435 -1.48317 -0.179567 0
M  V30 703 H 67.4255 -3.00914 -2.95006 0
M  V30 704 H 66.1005 -1.84989 -2.65633 0
M  V30 705 H 65.0075 -3.57338 -1.10727 0
M  V30 706 H 66.3405 -4.6956 -1.47562 0
M  V30 707 N 67.9926 0.231505 -1.5589 0
M  V30 708 C 68.9426 1.29007 -1.87993 0
M  V30 709 C 69.9266 1.42764 -0.742102 0
M  V30 710 O 71.1186 1.45747 -1.00433 0
M  V30 711 C 68.2476 2.6425 -2.1915 0
M  V30 712 C 67.3336 2.54435 -3.39299 0
M  V30 713 N 67.7246 2.14262 -4.58176 0
M  V30 714 C 66.0226 2.85416 -3.42715 0
M  V30 715 C 66.7236 2.15455 -5.40328 0
M  V30 716 N 65.6996 2.55558 -4.79783 0
M  V30 717 H 69.5016 0.970213 -2.77424 0
M  V30 718 H 67.0156 0.440097 -1.56323 0
M  V30 719 H 69.0126 3.40665 -2.40319 0
M  V30 720 H 67.6726 2.9709 -1.31025 0
M  V30 721 H 68.6836 1.85554 -4.83518 0
M  V30 722 H 65.3606 3.22693 -2.64906 0
M  V30 723 H 66.7506 1.86605 -6.45467 0
M  V30 724 N 69.4707 1.49531 0.497807 0
M  V30 725 C 70.4007 1.6935 1.60757 0
M  V30 726 C 71.3817 0.542218 1.61227 0
M  V30 727 O 72.5667 0.778417 1.77917 0
M  V30 728 C 69.6967 1.76298 2.99226 0
M  V30 729 C 68.6507 2.91248 3.13622 0
M  V30 730 C 67.9767 2.83312 4.53474 0
M  V30 731 C 69.2767 4.3214 2.93346 0
M  V30 732 H 70.9707 2.62263 1.44425 0
M  V30 733 H 68.5167 1.26208 0.693367 0
M  V30 734 H 70.4697 1.88749 3.76765 0
M  V30 735 H 69.1937 0.799871 3.16654 0
M  V30 736 H 67.8527 2.78404 2.38509 0
M  V30 737 H 67.5007 1.84902 4.67782 0
M  V30 738 H 67.2007 3.60465 4.64046 0
M  V30 739 H 68.7247 2.97775 5.33069 0
M  V30 740 H 70.1387 4.45649 3.60652 0
M  V30 741 H 68.5357 5.1054 3.15387 0
M  V30 742 H 69.6057 4.46363 1.89441 0
M  V30 743 N 70.9488 -0.749086 1.3866 0
M  V30 744 C 72.1958 -1.50833 1.35114 0
M  V30 745 C 72.5238 -1.94415 -0.0574049 0
M  V30 746 O 71.7788 -1.66065 -1.03541 0
M  V30 747 C 72.0778 -2.7712 2.25697 0
M  V30 748 C 71.7438 -2.52477 3.73585 0
M  V30 749 C 70.4058 -2.45466 4.13884 0
M  V30 750 C 72.7578 -2.31066 4.67181 0
M  V30 751 C 70.0858 -2.15064 5.45861 0
M  V30 752 C 72.4378 -2.02183 5.9942 0
M  V30 753 C 71.1018 -1.93631 6.38798 0
M  V30 754 H 70.3718 -0.551936 0.494416 0
M  V30 755 H 73.0188 -0.860979 1.71054 0
M  V30 756 H 71.3238 -3.46528 1.82827 0
M  V30 757 H 73.0208 -3.35096 2.20254 0
M  V30 758 H 69.6108 -2.58807 3.41638 0
M  V30 759 H 73.7948 -2.35459 4.3689 0
M  V30 760 H 69.0508 -2.06954 5.75308 0
M  V30 761 H 73.2248 -1.8462 6.71482 0
M  V30 762 H 70.8518 -1.69839 7.40985 0
M  V30 763 N 72.4269 -1.23603 -0.977757 0
M  V30 764 C 73.8429 -0.999251 -1.24447 0
M  V30 765 C 74.0429 0.298053 -1.99283 0
M  V30 766 O 73.0989 1.01681 -2.31122 0
M  V30 767 C 74.4119 -2.20784 -2.04144 0
M  V30 768 C 75.9599 -2.25303 -2.17273 0
M  V30 769 C 76.4349 -3.45755 -3.00362 0
M  V30 770 N 77.9259 -3.4601 -3.07947 0
M  V30 771 C 78.6609 -4.35868 -3.72568 0
M  V30 772 N 78.1569 -5.35966 -4.38991 0
M  V30 773 N 79.9499 -4.23605 -3.6948 0
M  V30 774 H 72.1009 -2.06986 -0.476483 0
M  V30 775 H 74.3639 -0.907801 -0.273134 0
M  V30 776 H 74.0699 -3.14945 -1.56533 0
M  V30 777 H 73.9439 -2.22085 -3.04891 0
M  V30 778 H 76.3309 -1.3168 -2.64092 0
M  V30 779 H 76.4119 -2.28033 -1.15907 0
M  V30 780 H 76.0559 -4.39687 -2.5424 0
M  V30 781 H 75.9859 -3.40266 -4.01904 0
M  V30 782 H 78.4769 -2.73588 -2.60688 0
M  V30 783 H 78.7899 -6.00783 -4.86086 0
M  V30 784 H 77.1349 -5.39863 -4.37691 0
M  V30 785 H 80.3259 -3.44647 -3.16759 0
M  V30 786 H 80.4989 -4.93836 -4.1956 0
M  V30 787 N 73.905 1.17692 -1.04816 0
M  V30 788 C 75.135 1.91508 -0.775128 0
M  V30 789 C 75.543 1.76844 0.67253 0
M  V30 790 O 74.886 1.10057 1.47082 0
M  V30 791 C 74.948 3.43167 -1.0713 0
M  V30 792 C 74.612 3.81612 -2.51438 0
M  V30 793 C 75.609 3.84772 -3.49638 0
M  V30 794 C 73.294 4.12687 -2.86348 0
M  V30 795 C 75.288 4.18469 -4.80794 0
M  V30 796 C 72.975 4.46053 -4.17708 0
M  V30 797 C 73.973 4.48921 -5.14741 0
M  V30 798 O 73.661 4.81504 -6.43746 0
M  V30 799 H 73.393 0.614575 -0.281555 0
M  V30 800 H 75.947 1.50206 -1.40098 0
M  V30 801 H 74.177 3.84745 -0.388342 0
M  V30 802 H 75.866 3.98239 -0.784883 0
M  V30 803 H 76.632 3.60893 -3.24008 0
M  V30 804 H 72.511 4.09627 -2.11486 0
M  V30 805 H 76.055 4.20623 -5.56527 0
M  V30 806 H 71.952 4.69393 -4.43103 0
M  V30 807 H 72.72 4.99377 -6.4851 0
M  V30 808 N 75.3831 0.828654 1.34056 0
M  V30 809 C 76.3151 0.212052 2.28217 0
M  V30 810 C 77.3281 -0.601362 1.51286 0
M  V30 811 O 78.5171 -0.430104 1.73241 0
M  V30 812 C 75.6171 -0.72088 3.31144 0
M  V30 813 C 74.7901 0.0509587 4.3737 0
M  V30 814 C 73.8491 -0.803766 5.20025 0
M  V30 815 O 72.8751 -0.246667 5.68665 0
M  V30 816 N 74.0771 -2.1227 5.40298 0
M  V30 817 H 76.8421 1.02105 2.81771 0
M  V30 818 H 74.4031 0.686153 1.46641 0
M  V30 819 H 76.3951 -1.29742 3.8334 0
M  V30 820 H 74.9651 -1.43061 2.77943 0
M  V30 821 H 74.1851 0.808831 3.85813 0
M  V30 822 H 75.4731 0.582065 5.0546 0
M  V30 823 H 74.8711 -2.59898 5.02464 0
M  V30 824 H 73.4281 -2.64796 5.95589 0
M  V30 825 N 76.8612 -1.46375 0.584142 0
M  V30 826 C 78.1012 -2.0427 0.0729695 0
M  V30 827 C 78.4652 -1.44563 -1.26355 0
M  V30 828 O 79.6662 -1.93667 -1.86405 0
M  V30 829 C 77.9372 -3.57399 0.00967464 0
M  V30 830 S 79.4962 -4.36551 -0.443714 0
M  V30 831 H 76.3142 -0.709975 0.0381673 0
M  V30 832 H 78.9162 -1.79398 0.776962 0
M  V30 833 H 77.6202 -3.98372 0.986319 0
M  V30 834 H 77.1512 -3.8681 -0.717044 0
M  V30 835 H 79.1662 -4.66237 -1.69816 0
M  V30 836 N 78.3393 -0.321999 -1.54275 0
M  V30 837 C 79.2863 0.544664 -2.24281 0
M  V30 838 C 80.2563 1.1129 -1.23303 0
M  V30 839 O 81.4413 1.15354 -1.51981 0
M  V30 840 C 78.5813 1.70045 -3.00298 0
M  V30 841 C 77.6943 1.16159 -4.1609 0
M  V30 842 C 76.8293 2.28293 -4.79641 0
M  V30 843 C 75.8683 1.71648 -5.8754 0
M  V30 844 N 75.0053 2.77438 -6.44959 0
M  V30 845 H 79.8453 -0.0588907 -2.97942 0
M  V30 846 H 77.3823 -0.0408345 -1.47043 0
M  V30 847 H 79.3403 2.38054 -3.42616 0
M  V30 848 H 77.9703 2.27531 -2.28975 0
M  V30 849 H 77.0223 0.373092 -3.78566 0
M  V30 850 H 78.3343 0.707087 -4.93763 0
M  V30 851 H 77.4883 3.0421 -5.2492 0
M  V30 852 H 76.2273 2.77079 -4.01346 0
M  V30 853 H 75.2323 0.942282 -5.41665 0
M  V30 854 H 76.4573 1.23741 -6.67731 0
M  V30 855 H 74.4033 3.25519 -5.69538 0
M  V30 856 H 74.3203 2.36547 -7.1804 0
M  V30 857 H 75.5883 3.53189 -6.94894 0
M  V30 858 N 79.8174 1.5752 -0.0501392 0
M  V30 859 C 80.7654 2.12651 0.942459 0
M  V30 860 C 81.7594 1.05807 1.32292 0
M  V30 861 O 82.9654 1.24217 1.3027 0
M  V30 862 H 79.3404 0.679673 0.321789 0
M  V30 863 H 81.3114 2.94951 0.452356 0
M  V30 864 C 80.0604 2.68565 2.20836 0
M  V30 865 H 79.3834 3.50439 1.92439 0
M  V30 866 H 80.8234 3.10761 2.8845 0
M  V30 867 C 79.2824 1.62291 2.95234 0
M  V30 868 O 79.8124 1.03508 3.88135 0
M  V30 869 N 78.0184 1.33836 2.57946 0
M  V30 870 H 77.5654 1.81826 1.82475 0
M  V30 871 H 77.5234 0.629595 3.08032 0
M  V30 872 N 81.2955 -0.223234 1.56011 0
M  V30 873 C 82.5255 -0.963413 1.82762 0
M  V30 874 C 82.9335 -1.78516 0.626804 0
M  V30 875 O 82.2765 -1.78974 -0.414014 0
M  V30 876 C 82.3385 -1.93126 3.0322 0
M  V30 877 C 82.0025 -1.2942 4.38291 0
M  V30 878 C 82.9995 -0.684916 5.15369 0
M  V30 879 C 80.6845 -1.30647 4.85012 0
M  V30 880 C 82.6785 -0.0963971 6.37327 0
M  V30 881 C 80.3655 -0.71411 6.06913 0
M  V30 882 C 81.3635 -0.110123 6.82911 0
M  V30 883 O 81.0515 0.47303 8.02507 0
M  V30 884 H 80.7835 -0.288011 0.611576 0
M  V30 885 H 83.3375 -0.244103 2.03944 0
M  V30 886 H 81.5675 -2.68952 2.77852 0
M  V30 887 H 83.2565 -2.53685 3.16857 0
M  V30 888 H 84.0225 -0.667774 4.80381 0
M  V30 889 H 79.9015 -1.76598 4.25833 0
M  V30 890 H 83.4455 0.375657 6.96588 0
M  V30 891 H 79.3425 -0.728659 6.41374 0
M  V30 892 H 80.1105 0.367186 8.17676 0
M  V30 893 N 82.7736 -1.49793 -0.48987 0
M  V30 894 C 84.0036 -1.6333 -1.26518 0
M  V30 895 C 84.4116 -0.308392 -1.8667 0
M  V30 896 O 83.7546 0.717512 -1.69108 0
M  V30 897 C 83.8166 -2.6522 -2.4269 0
M  V30 898 C 83.4806 -4.09279 -2.03321 0
M  V30 899 C 84.4776 -4.95738 -1.56652 0
M  V30 900 C 82.1626 -4.55082 -2.12616 0
M  V30 901 C 84.1566 -6.26041 -1.19795 0
M  V30 902 C 81.8436 -5.85396 -1.75371 0
M  V30 903 C 82.8416 -6.707 -1.29036 0
M  V30 904 O 82.5296 -7.98584 -0.92299 0
M  V30 905 H 82.2616 -0.552502 -0.389509 0
M  V30 906 H 84.8156 -1.96642 -0.593381 0
M  V30 907 H 83.0456 -2.27112 -3.12981 0
M  V30 908 H 84.7346 -2.68171 -3.04695 0
M  V30 909 H 85.5006 -4.61575 -1.48908 0
M  V30 910 H 81.3796 -3.88844 -2.47631 0
M  V30 911 H 84.9236 -6.92578 -0.835582 0
M  V30 912 H 80.8206 -6.19085 -1.82768 0
M  V30 913 H 81.5886 -8.11692 -1.05349 0
M  V30 914 N 84.2517 0.741722 -1.39055 0
M  V30 915 C 85.6677 1.04638 -1.20512 0
M  V30 916 C 85.8677 2.01405 -0.0620218 0
M  V30 917 O 84.9237 2.45547 0.588457 0
M  V30 918 C 86.2367 1.6151 -2.53643 0
M  V30 919 C 87.7847 1.73623 -2.6043 0
M  V30 920 C 88.2597 2.33906 -3.93767 0
M  V30 921 N 89.7507 2.41323 -3.9537 0
M  V30 922 C 90.4857 2.88888 -4.95309 0
M  V30 923 N 89.9817 3.36401 -6.05645 0
M  V30 924 N 91.7747 2.88037 -4.82692 0
M  V30 925 H 83.9257 0.0998155 -2.12165 0
M  V30 926 H 86.1887 0.106907 -0.941953 0
M  V30 927 H 85.8947 0.978739 -3.37807 0
M  V30 928 H 85.7687 2.60411 -2.72885 0
M  V30 929 H 88.1557 2.36384 -1.76655 0
M  V30 930 H 88.2367 0.733945 -2.45045 0
M  V30 931 H 87.8807 1.71776 -4.7797 0
M  V30 932 H 87.8107 3.34799 -4.06469 0
M  V30 933 H 90.3017 2.07734 -3.15682 0
M  V30 934 H 90.6147 3.71186 -6.77821 0
M  V30 935 H 88.9597 3.34427 -6.09248 0
M  V30 936 H 92.1507 2.50237 -3.95599 0
M  V30 937 H 92.3237 3.24792 -5.60726 0
M  V30 938 N 85.7298 1.2412 0.971189 0
M  V30 939 C 86.6598 1.05508 2.08304 0
M  V30 940 C 87.6408 -0.0308864 1.70072 0
M  V30 941 O 88.8258 0.135521 1.93727 0
M  V30 942 C 85.9558 0.655365 3.4106 0
M  V30 943 C 84.9098 1.68971 3.93234 0
M  V30 944 C 84.2358 1.14516 5.22293 0
M  V30 945 C 85.5358 3.08487 4.21465 0
M  V30 946 H 87.2298 1.98507 2.24132 0
M  V30 947 H 84.7758 0.955821 1.07704 0
M  V30 948 H 86.7288 0.51217 4.18276 0
M  V30 949 H 85.4528 -0.31032 3.25122 0
M  V30 950 H 84.1118 1.82106 3.18171 0
M  V30 951 H 83.7598 0.170189 5.02712 0
M  V30 952 H 83.4598 1.83635 5.58168 0
M  V30 953 H 84.9838 1.01401 6.02121 0
M  V30 954 H 86.3978 2.98601 4.89398 0
M  V30 955 H 84.7948 3.74926 4.68562 0
M  V30 956 H 85.8648 3.56787 3.28376 0
M  V30 957 N 87.2079 -1.17134 1.05439 0
M  V30 958 C 88.6239 -1.39454 0.776201 0
M  V30 959 C 88.8239 -1.91454 -0.628307 0
M  V30 960 O 87.8799 -2.10777 -1.39031 0
M  V30 961 C 89.1929 -2.38305 1.83388 0
M  V30 962 C 90.7409 -2.52006 1.85639 0
M  V30 963 C 91.2159 -3.54133 2.90437 0
M  V30 964 N 92.7069 -3.61653 2.89415 0
M  V30 965 C 93.4419 -4.4044 3.67152 0
M  V30 966 N 92.9379 -5.22721 4.54681 0
M  V30 967 N 94.7309 -4.35337 3.55581 0
M  V30 968 H 86.8819 -0.817134 1.96053 0
M  V30 969 H 89.1449 -0.421626 0.849079 0
M  V30 970 H 88.8509 -2.07173 2.84204 0
M  V30 971 H 88.7249 -3.37841 1.67761 0
M  V30 972 H 91.1119 -2.82447 0.85486 0
M  V30 973 H 91.1929 -1.52537 2.05344 0
M  V30 974 H 90.8369 -3.24431 3.90777 0
M  V30 975 H 90.7669 -4.53313 2.67983 0
M  V30 976 H 93.2579 -3.02909 2.25952 0
M  V30 977 H 93.5709 -5.80027 5.10674 0
M  V30 978 H 91.9159 -5.22093 4.58741 0
M  V30 979 H 95.1069 -3.70112 2.86592 0
M  V30 980 H 95.2799 -4.96494 4.1641 0
M  V30 981 N 88.686 -0.835752 -1.33615 0
M  V30 982 C 89.914 -0.443344 -2.02094 0
M  V30 983 C 90.329 0.954522 -1.62894 0
M  V30 984 O 89.686 1.61982 -0.840723 0
M  V30 985 C 89.737 -0.550775 -3.5728 0
M  V30 986 O 89.458 -1.89356 -3.95065 0
M  V30 987 C 90.959 -0.154919 -4.43029 0
M  V30 988 H 88.179 -0.176359 -0.647409 0
M  V30 989 H 90.723 -1.12746 -1.70612 0
M  V30 990 H 88.878 0.0853997 -3.87306 0
M  V30 991 H 89.292 -1.87687 -4.89769 0
M  V30 992 H 90.766 -0.281144 -5.51284 0
M  V30 993 H 91.243 0.902863 -4.2982 0
M  V30 994 H 91.849 -0.765404 -4.18356 0
M  V30 995 N 90.1641 1.46063 -0.591896 0
M  V30 996 C 91.0741 2.34192 0.13831 0
M  V30 997 C 92.0901 1.50305 0.876608 0
M  V30 998 O 93.2661 1.8315 0.837728 0
M  V30 999 C 90.3311 3.27656 1.13326 0
M  V30 1000 C 89.3921 4.27445 0.39863 0
M  V30 1001 C 88.6251 5.16443 1.34618 0
M  V30 1002 O 88.8481 5.08553 2.58321 0
M  V30 1003 O 87.7821 5.95843 0.851768 0
M  V30 1004 H 91.6081 2.98002 -0.58552 0
M  V30 1005 H 89.1931 1.45188 -0.352239 0
M  V30 1006 H 91.0751 3.85291 1.70671 0
M  V30 1007 H 89.7501 2.6643 1.83839 0
M  V30 1008 H 88.6571 3.73471 -0.216895 0
M  V30 1009 H 89.9901 4.91482 -0.265709 0
M  V30 1010 N 91.6422 0.330177 1.54103 0
M  V30 1011 C 92.8902 -0.269871 2.0029 0
M  V30 1012 C 93.2112 -1.52133 1.21986 0
M  V30 1013 O 92.4812 -1.93212 0.323438 0
M  V30 1014 H 91.0612 -0.10271 0.739905 0
M  V30 1015 H 93.7232 0.448249 1.89675 0
M  V30 1016 H 92.8192 -0.52166 3.07709 0
M  V30 1017 N 93.1203 -1.57491 0.0584922 0
M  V30 1018 C 94.3973 -1.84346 -0.653918 0
M  V30 1019 C 94.7773 -0.948355 -1.88599 0
M  V30 1020 O 94.1253 -0.0112403 -2.28497 0
M  V30 1021 C 94.3353 -3.34239 -1.00425 0
M  V30 1022 C 95.6833 -4.01431 -1.38342 0
M  V30 1023 O 96.7073 -3.38907 -1.09637 0
M  V30 1024 O 95.5663 -5.11683 -1.91943 0
M  V30 1025 H 92.6603 -0.761112 -0.323478 0
M  V30 1026 H 95.2063 -1.6947 0.0884125 0
M  V30 1027 H 93.9783 -3.91089 -0.128625 0
M  V30 1028 H 93.6013 -3.54329 -1.80378 0
M  V30 1029 N 94.5984 0.214957 -1.56127 0
M  V30 1030 C 95.8464 0.936518 -1.79091 0
M  V30 1031 C 96.1674 1.84606 -0.628148 0
M  V30 1032 O 95.4374 1.92664 0.35462 0
M  V30 1033 H 94.0174 0.3488 -0.660566 0
M  V30 1034 H 96.6794 0.22523 -1.93594 0
M  V30 1035 H 95.7754 1.53943 -2.71492 0
M  V30 1036 N 96.0765 1.50051 0.48192 0
M  V30 1037 C 97.3225 1.60736 1.2366 0
M  V30 1038 C 97.6555 0.301786 1.91841 0
M  V30 1039 O 96.9305 -0.696025 1.8162 0
M  V30 1040 C 97.2135 2.78009 2.28874 0
M  V30 1041 C 97.0665 4.18416 1.65069 0
M  V30 1042 C 98.3855 2.90867 3.30279 0
M  V30 1043 H 95.5045 0.585031 0.448228 0
M  V30 1044 H 98.1465 1.82402 0.531946 0
M  V30 1045 H 96.2965 2.59667 2.88973 0
M  V30 1046 H 97.9685 4.48322 1.0865 0
M  V30 1047 H 96.2115 4.23177 0.954148 0
M  V30 1048 H 96.8825 4.96381 2.41474 0
M  V30 1049 H 99.3585 3.07623 2.80191 0
M  V30 1050 H 98.2345 3.74566 4.01238 0
M  V30 1051 H 98.4955 2.01021 3.93755 0
M  V30 1052 N 97.5546 -0.734337 1.39446 0
M  V30 1053 C 98.7846 -1.52137 1.39778 0
M  V30 1054 C 99.1926 -1.89198 -0.00929312 0
M  V30 1055 O 98.5356 -1.54666 -0.991168 0
M  V30 1056 C 98.5976 -2.83762 2.20724 0
M  V30 1057 C 98.2616 -2.69131 3.69347 0
M  V30 1058 C 99.2586 -2.37635 4.62413 0
M  V30 1059 C 96.9436 -2.85982 4.1294 0
M  V30 1060 C 98.9376 -2.23172 5.97054 0
M  V30 1061 C 96.6246 -2.71137 5.47657 0
M  V30 1062 C 97.6226 -2.39777 6.39528 0
M  V30 1063 O 97.3106 -2.25026 7.71763 0
M  V30 1064 H 97.0426 -0.476717 0.479288 0
M  V30 1065 H 99.5966 -0.915012 1.83893 0
M  V30 1066 H 97.8266 -3.4666 1.71359 0
M  V30 1067 H 99.5156 -3.45383 2.13226 0
M  V30 1068 H 100.282 -2.24267 4.30034 0
M  V30 1069 H 96.1606 -3.09383 3.41765 0
M  V30 1070 H 99.7046 -1.98617 6.68728 0
M  V30 1071 H 95.6016 -2.84083 5.79626 0
M  V30 1072 H 96.3696 -2.40091 7.82495 0
M  V30 1073 N 99.0327 -1.24633 -0.964593 0
M  V30 1074 C 100.261 -1.11501 -1.74285 0
M  V30 1075 C 100.676 0.332165 -1.85855 0
M  V30 1076 O 100.033 1.22903 -1.34911 0
M  V30 1077 C 100.084 -1.75258 -3.16175 0
M  V30 1078 O 99.8047 -3.14318 -3.05182 0
M  V30 1079 C 101.306 -1.67776 -4.10324 0
M  V30 1080 H 98.5257 -0.389407 -0.546446 0
M  V30 1081 H 101.07 -1.64801 -1.21083 0
M  V30 1082 H 99.2247 -1.25954 -3.66353 0
M  V30 1083 H 99.6387 -3.4551 -3.94618 0
M  V30 1084 H 101.113 -2.17064 -5.0753 0
M  V30 1085 H 101.59 -0.639584 -4.34518 0
M  V30 1086 H 102.196 -2.16522 -3.66058 0
M  V30 1087 N 100.511 1.16574 -1.06058 0
M  V30 1088 C 101.441 2.23057 -0.690488 0
M  V30 1089 C 102.422 1.67141 0.315901 0
M  V30 1090 O 103.607 1.93253 0.191556 0
M  V30 1091 C 100.737 3.47222 -0.073625 0
M  V30 1092 C 99.6908 4.16016 -1.00573 0
M  V30 1093 C 99.0168 5.34104 -0.252289 0
M  V30 1094 C 100.317 4.67264 -2.33371 0
M  V30 1095 H 102.011 2.54271 -1.58072 0
M  V30 1096 H 99.5568 1.22218 -0.76149 0
M  V30 1097 H 101.51 4.20939 0.19714 0
M  V30 1098 H 100.234 3.15302 0.85161 0
M  V30 1099 H 98.8928 3.44223 -1.2612 0
M  V30 1100 H 98.5408 4.98437 0.675988 0
M  V30 1101 H 98.2408 5.81072 -0.873455 0
M  V30 1102 H 99.7648 6.10599 0.0109857 0
M  V30 1103 H 101.179 5.32573 -2.12223 0
M  V30 1104 H 99.5758 5.24843 -2.90963 0
M  V30 1105 H 100.646 3.83602 -2.96611 0
M  V30 1106 N 101.989 0.842826 1.3317 0
M  V30 1107 C 102.937 0.267495 2.31057 0
M  V30 1108 C 103.931 -0.602682 1.58316 0
M  V30 1109 O 105.137 -0.491803 1.73151 0
M  V30 1110 H 101.512 0.0677813 0.748939 0
M  V30 1111 H 103.483 1.10754 2.77085 0
M  V30 1112 C 102.232 -0.539331 3.43492 0
M  V30 1113 H 101.555 0.12095 3.99617 0
M  V30 1114 H 102.995 -0.90767 4.14171 0
M  V30 1115 C 101.454 -1.71981 2.89697 0
M  V30 1116 O 101.984 -2.81862 2.86211 0
M  V30 1117 N 100.19 -1.54299 2.46252 0
M  V30 1118 H 99.7369 -0.649143 2.49287 0
M  V30 1119 H 99.6949 -2.33431 2.10612 0
M  V30 1120 N 103.467 -1.45747 0.599634 0
M  V30 1121 C 104.744 -1.95585 0.0240846 0
M  V30 1122 C 105.124 -1.54217 -1.44154 0
M  V30 1123 O 104.472 -0.800903 -2.14004 0
M  V30 1124 C 104.682 -3.48344 0.21385 0
M  V30 1125 C 106.03 -4.24504 0.0904902 0
M  V30 1126 O 107.054 -3.55911 0.143558 0
M  V30 1127 O 105.913 -5.46491 -0.0310766 0
M  V30 1128 H 103.007 -0.82602 -0.0402478 0
M  V30 1129 H 105.553 -1.55951 0.669139 0
M  V30 1130 H 104.325 -3.71397 1.23206 0
M  V30 1131 H 103.948 -3.9485 -0.466842 0
M  V30 1132 N 104.945 -0.338344 -1.53925 0
M  V30 1133 C 105.892 0.520845 -2.24846 0
M  V30 1134 C 106.862 1.09976 -1.24477 0
M  V30 1135 O 108.047 1.13735 -1.53196 0
M  V30 1136 C 105.187 1.6685 -3.02084 0
M  V30 1137 C 104.3 1.11739 -4.17299 0
M  V30 1138 C 103.435 2.23193 -4.82036 0
M  V30 1139 C 102.474 1.65407 -5.89328 0
M  V30 1140 N 101.611 2.70582 -6.47866 0
M  V30 1141 H 106.451 -0.0904881 -2.97863 0
M  V30 1142 H 103.988 -0.0564282 -1.46992 0
M  V30 1143 H 105.946 2.34407 -3.45122 0
M  V30 1144 H 104.576 2.2509 -2.31375 0
M  V30 1145 H 103.628 0.332919 -3.7894 0
M  V30 1146 H 104.94 0.654677 -4.94485 0
M  V30 1147 H 104.094 2.98626 -5.28117 0
M  V30 1148 H 102.833 2.72807 -4.04262 0
M  V30 1149 H 101.838 0.884779 -5.42634 0
M  V30 1150 H 103.063 1.16652 -6.69006 0
M  V30 1151 H 101.009 3.1946 -5.72959 0
M  V30 1152 H 100.926 2.28917 -7.20509 0
M  V30 1153 H 102.194 3.45799 -6.98601 0
M  V30 1154 N 106.423 1.57458 -0.0668435 0
M  V30 1155 C 107.37 2.12439 0.902122 0
M  V30 1156 C 108.34 1.03565 1.2986 0
M  V30 1157 O 109.525 1.312 1.38532 0
M  V30 1158 C 106.665 2.6865 2.16614 0
M  V30 1159 C 105.778 3.91663 1.82274 0
M  V30 1160 C 104.913 4.36134 3.0325 0
M  V30 1161 C 103.952 5.51808 2.64904 0
M  V30 1162 N 103.089 5.9126 3.78624 0
M  V30 1163 H 107.929 2.94934 0.426382 0
M  V30 1164 H 105.466 1.4575 0.198819 0
M  V30 1165 H 107.424 2.99346 2.90599 0
M  V30 1166 H 106.054 1.88928 2.61737 0
M  V30 1167 H 105.106 3.6746 0.983719 0
M  V30 1168 H 106.418 4.75693 1.50059 0
M  V30 1169 H 105.572 4.68465 3.85519 0
M  V30 1170 H 104.311 3.50948 3.38655 0
M  V30 1171 H 103.316 5.19133 1.81055 0
M  V30 1172 H 104.541 6.38722 2.30675 0
M  V30 1173 H 102.487 5.09024 4.138 0
M  V30 1174 H 102.404 6.70018 3.5016 0
M  V30 1175 H 103.672 6.28212 4.61486 0
M  V30 1176 N 107.901 -0.206675 1.56239 0
M  V30 1177 C 108.833 -1.27997 1.9013 0
M  V30 1178 C 109.846 -1.42299 0.790883 0
M  V30 1179 O 111.035 -1.42931 1.06925 0
M  V30 1180 C 108.135 -2.65368 2.10792 0
M  V30 1181 C 107.308 -2.72824 3.41886 0
M  V30 1182 C 106.367 -3.9131 3.51799 0
M  V30 1183 O 105.393 -3.78953 4.24716 0
M  V30 1184 N 106.595 -5.06265 2.84035 0
M  V30 1185 H 109.36 -0.992444 2.82791 0
M  V30 1186 H 106.921 -0.396652 1.56966 0
M  V30 1187 H 108.913 -3.43039 2.14724 0
M  V30 1188 H 107.483 -2.86657 1.24685 0
M  V30 1189 H 106.703 -1.81515 3.49923 0
M  V30 1190 H 107.991 -2.74786 4.28217 0
M  V30 1191 H 107.389 -5.19203 2.246 0
M  V30 1192 H 105.946 -5.81925 2.93609 0
M  V30 1193 N 109.379 -1.50304 -0.473955 0
M  V30 1194 C 110.625 -1.62358 -1.22521 0
M  V30 1195 C 110.98 -0.318555 -1.89745 0
M  V30 1196 O 110.273 0.683315 -1.79001 0
M  V30 1197 C 110.467 -2.73938 -2.29549 0
M  V30 1198 C 110.296 -4.15165 -1.72825 0
M  V30 1199 C 109.066 -4.81604 -1.52924 0
M  V30 1200 C 111.264 -4.99503 -1.22481 0
M  V30 1201 N 109.246 -6.07056 -0.91413 0
M  V30 1202 C 110.617 -6.15655 -0.732743 0
M  V30 1203 C 112.672 -4.85299 -1.11308 0
M  V30 1204 C 111.375 -7.19164 -0.139976 0
M  V30 1205 C 113.401 -5.88982 -0.534258 0
M  V30 1206 C 112.763 -7.0438 -0.0525562 0
M  V30 1207 H 108.862 -0.648286 -0.437321 0
M  V30 1208 H 111.446 -1.87413 -0.527692 0
M  V30 1209 H 109.617 -2.50611 -2.9673 0
M  V30 1210 H 111.349 -2.75366 -2.96573 0
M  V30 1211 H 108.104 -4.3885 -1.78067 0
M  V30 1212 H 108.528 -6.74108 -0.625071 0
M  V30 1213 H 113.17 -3.96369 -1.47144 0
M  V30 1214 H 110.888 -8.07771 0.230591 0
M  V30 1215 H 114.474 -5.80055 -0.450219 0
M  V30 1216 H 113.354 -7.83238 0.388324 0
M  V30 1217 N 110.857 0.726932 -1.39834 0
M  V30 1218 C 112.106 1.48214 -1.36805 0
M  V30 1219 C 112.419 1.95576 0.0305291 0
M  V30 1220 O 113.625 2.7088 0.183417 0
M  V30 1221 C 112.081 2.67854 -2.40379 0
M  V30 1222 C 111.689 2.27408 -3.85992 0
M  V30 1223 C 113.433 3.45641 -2.46439 0
M  V30 1224 C 111.34 3.43819 -4.81189 0
M  V30 1225 H 110.27 0.556606 -0.508631 0
M  V30 1226 H 112.921 0.792216 -1.65518 0
M  V30 1227 H 111.303 3.3896 -2.04749 0
M  V30 1228 H 112.477 1.63795 -4.30706 0
M  V30 1229 H 110.792 1.62692 -3.83302 0
M  V30 1230 H 113.389 4.32244 -3.14753 0
M  V30 1231 H 113.732 3.88669 -1.49139 0
M  V30 1232 H 114.265 2.8157 -2.81004 0
M  V30 1233 H 111.004 3.05834 -5.79781 0
M  V30 1234 H 110.524 4.06385 -4.41148 0
M  V30 1235 H 112.203 4.10043 -5.00474 0
M  V30 1236 N 112.336 1.25143 0.95797 0
M  V30 1237 C 113.284 1.05019 2.07542 0
M  V30 1238 C 114.278 -0.0178751 1.69391 0
M  V30 1239 O 115.484 0.137472 1.79474 0
M  V30 1240 H 111.859 0.32265 0.679265 0
M  V30 1241 H 113.83 1.99759 2.21673 0
M  V30 1242 C 112.579 0.682074 3.40944 0
M  V30 1243 H 111.902 1.49573 3.70767 0
M  V30 1244 H 113.342 0.580945 4.20001 0
M  V30 1245 C 111.801 -0.611608 3.31302 0
M  V30 1246 O 112.331 -1.65465 3.66038 0
M  V30 1247 N 110.537 -0.595982 2.84423 0
M  V30 1248 H 110.084 0.253192 2.56353 0
M  V30 1249 H 110.042 -1.46173 2.78354 0
M  V30 1250 N 113.814 -1.1601 1.06675 0
M  V30 1251 C 114.761 -2.20525 0.680967 0
M  V30 1252 C 115.731 -1.62904 -0.324283 0
M  V30 1253 O 116.916 -1.89615 -0.212294 0
M  V30 1254 C 114.056 -3.45013 0.0776551 0
M  V30 1255 C 113.169 -4.16863 1.13355 0
M  V30 1256 C 112.304 -5.2888 0.49597 0
M  V30 1257 C 111.343 -5.92537 1.53513 0
M  V30 1258 N 110.48 -6.96038 0.920631 0
M  V30 1259 H 115.32 -2.52876 1.57663 0
M  V30 1260 H 112.857 -1.24199 0.788223 0
M  V30 1261 H 114.815 -4.16193 -0.289704 0
M  V30 1262 H 113.445 -3.132 -0.781393 0
M  V30 1263 H 112.497 -3.44248 1.61857 0
M  V30 1264 H 113.809 -4.60294 1.92174 0
M  V30 1265 H 112.963 -6.06653 0.0758604 0
M  V30 1266 H 111.702 -4.86622 -0.324062 0
M  V30 1267 H 110.707 -5.13482 1.9651 0
M  V30 1268 H 111.932 -6.36873 2.35733 0
M  V30 1269 H 109.878 -6.55888 0.12138 0
M  V30 1270 H 109.795 -7.3786 1.64616 0
M  V30 1271 H 111.063 -7.77725 0.525795 0
M  V30 1272 N 115.292 -0.849877 -1.32721 0
M  V30 1273 C 116.255 -0.296122 -2.27279 0
M  V30 1274 C 117.255 0.541458 -1.5141 0
M  V30 1275 O 118.445 0.353658 -1.70572 0
M  V30 1276 C 115.577 0.581579 -3.35902 0
M  V30 1277 H 116.77 -1.13064 -2.77771 0
M  V30 1278 H 114.323 -0.62383 -1.43311 0
M  V30 1279 H 115.058 1.43809 -2.9067 0
M  V30 1280 H 114.843 -0.0178814 -3.92096 0
M  V30 1281 H 116.333 0.961951 -4.0637 0
M  V30 1282 N 116.77 1.45427 -0.607355 0
M  V30 1283 C 118.016 2.0254 -0.102607 0
M  V30 1284 C 118.349 1.47478 1.26348 0
M  V30 1285 O 117.624 0.64939 1.83339 0
M  V30 1286 C 117.907 3.60044 -0.0634347 0
M  V30 1287 C 117.76 4.2544 -1.46017 0
M  V30 1288 C 119.079 4.35646 0.624514 0
M  V30 1289 H 116.198 0.73598 -0.0387607 0
M  V30 1290 H 118.84 1.73284 -0.779282 0
M  V30 1291 H 116.99 3.85101 0.512808 0
M  V30 1292 H 118.662 4.11569 -2.08347 0
M  V30 1293 H 116.905 3.83849 -2.02094 0
M  V30 1294 H 117.576 5.34342 -1.385 0
M  V30 1295 H 120.052 4.15882 0.134723 0
M  V30 1296 H 118.928 5.45376 0.621028 0
M  V30 1297 H 119.189 4.08501 1.69055 0
M  V30 1298 N 118.248 0.346503 1.53744 0
M  V30 1299 C 119.496 -0.248612 2.00565 0
M  V30 1300 C 119.817 -1.5083 1.23593 0
M  V30 1301 O 119.087 -1.92858 0.343912 0
M  V30 1302 H 117.667 -0.0948564 0.740953 0
M  V30 1303 H 120.329 0.468341 1.89189 0
M  V30 1304 H 119.425 -0.488994 3.08245 0
M  V30 1305 N 119.726 -1.57421 0.075193 0
M  V30 1306 C 121.003 -1.85029 -0.634329 0
M  V30 1307 C 121.383 -0.968305 -1.87582 0
M  V30 1308 O 120.731 -0.0354749 -2.28472 0
M  V30 1309 C 120.941 -3.35286 -0.968742 0
M  V30 1310 C 122.289 -4.02875 -1.34077 0
M  V30 1311 O 123.313 -3.40051 -1.06037 0
M  V30 1312 O 122.172 -5.13691 -1.86506 0
M  V30 1313 H 119.266 -0.7645 -0.315387 0
M  V30 1314 H 121.812 -1.69366 0.106382 0
M  V30 1315 H 120.584 -3.91203 -0.0871376 0
M  V30 1316 H 120.207 -3.56223 -1.7661 0
M  V30 1317 N 121.204 0.198386 -1.56346 0
M  V30 1318 C 122.151 1.24589 -1.94284 0
M  V30 1319 C 123.121 1.454 -0.802997 0
M  V30 1320 O 124.306 1.58588 -1.06087 0
M  V30 1321 C 121.446 2.58631 -2.28482 0
M  V30 1322 C 120.559 2.45426 -3.55514 0
M  V30 1323 C 119.694 3.7215 -3.79049 0
M  V30 1324 C 118.733 3.53763 -4.99518 0
M  V30 1325 N 117.87 4.72491 -5.19323 0
M  V30 1326 H 122.71 0.915356 -2.83593 0
M  V30 1327 H 120.247 0.440629 -1.40346 0
M  V30 1328 H 122.205 3.3672 -2.46324 0
M  V30 1329 H 120.835 2.89734 -1.42317 0
M  V30 1330 H 119.887 1.58652 -3.45737 0
M  V30 1331 H 121.199 2.27772 -4.43758 0
M  V30 1332 H 120.353 4.58679 -3.97113 0
M  V30 1333 H 119.092 3.92754 -2.89129 0
M  V30 1334 H 118.097 2.65619 -4.8138 0
M  V30 1335 H 119.322 3.34607 -5.90944 0
M  V30 1336 H 117.268 4.93365 -4.3235 0
M  V30 1337 H 117.185 4.5765 -6.01741 0
M  V30 1338 H 118.453 5.6038 -5.41843 0
M  V30 1339 N 122.682 1.50554 0.465978 0
M  V30 1340 C 123.612 1.72722 1.57128 0
M  V30 1341 C 124.593 0.576294 1.6004 0
M  V30 1342 O 125.778 0.81598 1.76225 0
M  V30 1343 C 122.908 1.82605 2.95419 0
M  V30 1344 C 121.862 2.97835 3.07373 0
M  V30 1345 C 121.188 2.92867 4.47363 0
M  V30 1346 C 122.488 4.38265 2.84114 0
M  V30 1347 H 124.182 2.65267 1.38829 0
M  V30 1348 H 121.728 1.2765 0.666441 0
M  V30 1349 H 123.681 1.96698 3.72677 0
M  V30 1350 H 122.405 0.866858 3.14886 0
M  V30 1351 H 121.064 2.83401 2.3255 0
M  V30 1352 H 120.712 1.94783 4.63755 0
M  V30 1353 H 120.412 3.70227 4.56296 0
M  V30 1354 H 121.936 3.09015 5.26633 0
M  V30 1355 H 123.35 4.53198 3.51118 0
M  V30 1356 H 121.747 5.17115 3.04487 0
M  V30 1357 H 122.817 4.50281 1.7993 0
M  V30 1358 N 124.16 -0.719506 1.40217 0
M  V30 1359 C 125.571 -1.29848 1.34151 0
M  V30 1360 C 125.922 -1.96196 0.0131349 0
M  V30 1361 O 125.047 -1.973 -0.88892 0
M  V30 1362 C 125.642 -2.36118 2.42968 0
M  V30 1363 C 124.201 -2.8965 2.40374 0
M  V30 1364 C 123.348 -1.63393 2.24049 0
M  V30 1365 H 126.299 -0.51591 1.5008 0
M  V30 1366 H 126.32 -3.16871 2.10649 0
M  V30 1367 H 125.832 -1.878 3.39636 0
M  V30 1368 H 123.933 -3.42208 1.47392 0
M  V30 1369 H 124.046 -3.4171 3.35814 0
M  V30 1370 H 122.41 -1.88312 1.71495 0
M  V30 1371 H 123.193 -1.17104 3.2271 0
M  V30 1372 N 125.638 -1.25649 -0.95132 0
M  V30 1373 C 126.548 -1.08073 -2.08224 0
M  V30 1374 C 127.564 -0.0169666 -1.73992 0
M  V30 1375 O 128.74 -0.218593 -2.0021 0
M  V30 1376 C 125.805 -0.704922 -3.39458 0
M  V30 1377 C 124.866 -1.84699 -3.87537 0
M  V30 1378 C 124.099 -1.48902 -5.12508 0
M  V30 1379 O 124.322 -0.386156 -5.69091 0
M  V30 1380 O 123.256 -2.32033 -5.55378 0
M  V30 1381 H 127.082 -2.02924 -2.25954 0
M  V30 1382 H 124.667 -1.04618 -1.06656 0
M  V30 1383 H 126.549 -0.507609 -4.18332 0
M  V30 1384 H 125.224 0.214291 -3.2299 0
M  V30 1385 H 124.131 -2.09919 -3.09653 0
M  V30 1386 H 125.464 -2.74557 -4.08509 0
M  V30 1387 N 127.117 1.15442 -1.07289 0
M  V30 1388 C 128.357 1.8788 -0.805012 0
M  V30 1389 C 128.721 1.80413 0.656907 0
M  V30 1390 O 129.922 2.47874 1.0398 0
M  V30 1391 C 128.193 3.3298 -1.29843 0
M  V30 1392 S 129.752 4.23158 -1.16114 0
M  V30 1393 H 126.57 0.64839 -0.291739 0
M  V30 1394 H 129.172 1.39285 -1.37186 0
M  V30 1395 H 127.876 3.35958 -2.35712 0
M  V30 1396 H 127.407 3.86629 -0.726767 0
M  V30 1397 H 129.422 4.96103 -0.0982778 0
M  V30 1398 N 128.595 0.856903 1.32268 0
M  V30 1399 C 129.505 0.306131 2.32594 0
M  V30 1400 C 130.521 -0.577209 1.64147 0
M  V30 1401 O 131.697 -0.477043 1.95669 0
M  V30 1402 C 128.762 -0.494561 3.43154 0
M  V30 1403 C 127.823 0.415186 4.27288 0
M  V30 1404 C 127.056 -0.347387 5.32568 0
M  V30 1405 O 127.279 -1.57708 5.48165 0
M  V30 1406 O 126.213 0.287982 6.01211 0
M  V30 1407 H 130.039 1.13737 2.81598 0
M  V30 1408 H 127.624 0.619902 1.35932 0
M  V30 1409 H 129.506 -0.948944 4.10576 0
M  V30 1410 H 128.181 -1.30257 2.96336 0
M  V30 1411 H 127.088 0.917793 3.62667 0
M  V30 1412 H 128.421 1.18844 4.77637 0
M  V30 1413 N 130.073 -1.45103 0.615059 0
M  V30 1414 C 131.036 -2.29025 -0.0895485 0
M  V30 1415 C 132.036 -1.40174 -0.787906 0
M  V30 1416 O 133.226 -1.62217 -0.634933 0
M  V30 1417 C 130.358 -3.21376 -1.13711 0
M  V30 1418 H 131.551 -2.92807 0.648382 0
M  V30 1419 H 129.104 -1.51749 0.374444 0
M  V30 1420 H 129.839 -2.6241 -1.90556 0
M  V30 1421 H 129.624 -3.86834 -0.640475 0
M  V30 1422 H 131.114 -3.84459 -1.63036 0
M  V30 1423 N 131.551 -0.354651 -1.53558 0
M  V30 1424 C 132.797 0.238797 -2.01389 0
M  V30 1425 C 133.13 1.49309 -1.2418 0
M  V30 1426 O 132.405 1.91638 -0.332457 0
M  V30 1427 C 132.688 0.541771 -3.56001 0
M  V30 1428 C 132.541 -0.725388 -4.43912 0
M  V30 1429 C 133.86 1.34685 -4.18984 0
M  V30 1430 H 130.979 0.0853177 -0.732045 0
M  V30 1431 H 133.621 -0.477384 -1.83905 0
M  V30 1432 H 131.771 1.15189 -3.71031 0
M  V30 1433 H 133.443 -1.36313 -4.407 0
M  V30 1434 H 131.686 -1.34801 -4.12324 0
M  V30 1435 H 132.357 -0.468505 -5.50008 0
M  V30 1436 H 134.833 0.830837 -4.07721 0
M  V30 1437 H 133.709 1.52759 -5.27215 0
M  V30 1438 H 133.97 2.35221 -3.74331 0
M  V30 1439 N 133.029 1.57378 -0.0835403 0
M  V30 1440 C 134.269 1.95808 0.586381 0
M  V30 1441 C 134.633 0.963706 1.66062 0
M  V30 1442 O 135.834 1.23608 2.38693 0
M  V30 1443 C 134.105 3.38808 1.13771 0
M  V30 1444 S 135.664 3.99225 1.82112 0
M  V30 1445 H 132.482 0.684675 0.191679 0
M  V30 1446 H 135.084 1.94843 -0.160194 0
M  V30 1447 H 133.788 4.08954 0.344197 0
M  V30 1448 H 133.319 3.43344 1.92038 0
M  V30 1449 H 135.334 3.87087 3.10449 0
M  V30 1450 N 134.507 -0.190092 1.56449 0
M  V30 1451 C 135.755 -0.907908 1.80559 0
M  V30 1452 C 136.076 -1.83583 0.657438 0
M  V30 1453 O 135.346 -1.93203 -0.323924 0
M  V30 1454 H 133.926 -0.338247 0.666032 0
M  V30 1455 H 136.588 -0.194403 1.93928 0
M  V30 1456 H 135.684 -1.49604 2.73907 0
M  V30 1457 N 135.985 -1.50799 -0.457987 0
M  V30 1458 C 136.932 -1.70617 -1.5543 0
M  V30 1459 C 137.902 -0.547562 -1.56815 0
M  V30 1460 O 139.087 -0.779647 -1.74144 0
M  V30 1461 C 136.227 -1.81831 -2.93311 0
M  V30 1462 C 135.34 -3.09278 -3.01615 0
M  V30 1463 C 134.475 -3.11209 -4.30491 0
M  V30 1464 C 133.514 -4.33055 -4.32585 0
M  V30 1465 N 132.651 -4.32652 -5.52952 0
M  V30 1466 H 137.491 -2.64207 -1.37836 0
M  V30 1467 H 135.028 -1.30959 -0.669937 0
M  V30 1468 H 136.986 -1.86314 -3.73287 0
M  V30 1469 H 135.616 -0.916685 -3.0951 0
M  V30 1470 H 134.668 -3.14203 -2.1443 0
M  V30 1471 H 135.98 -3.99233 -2.99022 0
M  V30 1472 H 135.134 -3.14494 -5.18824 0
M  V30 1473 H 133.873 -2.19106 -4.35711 0
M  V30 1474 H 132.878 -4.29969 -3.42647 0
M  V30 1475 H 134.103 -5.264 -4.29046 0
M  V30 1476 H 132.049 -3.43409 -5.58933 0
M  V30 1477 H 131.966 -5.16392 -5.52155 0
M  V30 1478 H 133.234 -4.40101 -6.43375 0
M  V30 1479 N 137.463 0.71206 -1.40597 0
M  V30 1480 C 138.874 1.29135 -1.34837 0
M  V30 1481 C 139.225 1.96186 -0.0235395 0
M  V30 1482 O 138.35 1.97768 0.878444 0
M  V30 1483 C 138.945 2.34827 -2.44217 0
M  V30 1484 C 137.504 2.88371 -2.41907 0
M  V30 1485 C 136.651 1.62202 -2.24913 0
M  V30 1486 H 139.602 0.507944 -1.50352 0
M  V30 1487 H 139.623 3.15749 -2.12327 0
M  V30 1488 H 139.135 1.85996 -3.40627 0
M  V30 1489 H 137.236 3.41422 -1.49204 0
M  V30 1490 H 137.349 3.39925 -3.37621 0
M  V30 1491 H 135.713 1.874 -1.72492 0
M  V30 1492 H 136.496 1.15391 -3.23326 0
M  V30 1493 N 138.941 1.26152 0.944643 0
M  V30 1494 C 139.888 1.07408 2.04285 0
M  V30 1495 C 140.858 -0.0198413 1.66088 0
M  V30 1496 O 142.043 0.139264 1.90291 0
M  V30 1497 C 139.183 0.70945 3.37729 0
M  V30 1498 C 138.296 1.87926 3.88983 0
M  V30 1499 C 137.431 1.45807 5.10797 0
M  V30 1500 C 136.47 2.5964 5.54305 0
M  V30 1501 N 135.607 2.18226 6.67324 0
M  V30 1502 H 140.447 2.01389 2.1965 0
M  V30 1503 H 137.984 1.00275 1.07626 0
M  V30 1504 H 139.942 0.478948 4.14442 0
M  V30 1505 H 138.572 -0.193389 3.2222 0
M  V30 1506 H 137.624 2.22279 3.08701 0
M  V30 1507 H 138.936 2.73377 4.17213 0
M  V30 1508 H 138.09 1.18781 5.94959 0
M  V30 1509 H 136.829 0.574414 4.84305 0
M  V30 1510 H 135.834 2.87399 4.68702 0
M  V30 1511 H 137.059 3.48599 5.828 0
M  V30 1512 H 135.005 1.3229 6.42523 0
M  V30 1513 H 134.922 2.97221 6.95123 0
M  V30 1514 H 136.19 1.94403 7.54869 0
M  V30 1515 N 140.419 -1.14872 1.07899 0
M  V30 1516 C 141.367 -2.21857 0.698727 0
M  V30 1517 C 142.361 -1.66845 -0.293086 0
M  V30 1518 O 143.567 -1.79321 -0.156204 0
M  V30 1519 H 139.942 -0.722691 0.207899 0
M  V30 1520 H 141.913 -2.51205 1.61054 0
M  V30 1521 C 140.662 -3.47498 0.11858 0
M  V30 1522 H 139.985 -3.90154 0.872914 0
M  V30 1523 H 141.425 -4.23858 -0.109759 0
M  V30 1524 C 139.884 -3.16947 -1.1422 0
M  V30 1525 O 140.414 -3.3426 -2.22785 0
M  V30 1526 N 138.62 -2.70946 -1.05055 0
M  V30 1527 H 138.167 -2.57058 -0.167038 0
M  V30 1528 H 138.125 -2.50879 -1.89491 0
M  V30 1529 N 141.898 -0.863906 -1.31812 0
M  V30 1530 C 143.309 -0.52522 -1.7916 0
M  V30 1531 C 143.66 0.957518 -1.71248 0
M  V30 1532 O 142.785 1.74734 -1.27659 0
M  V30 1533 C 143.38 -0.9466 -3.25307 0
M  V30 1534 C 141.939 -0.659668 -3.70574 0
M  V30 1535 C 141.086 -1.14126 -2.52726 0
M  V30 1536 H 144.037 -1.05022 -1.1898 0
M  V30 1537 H 144.058 -0.266766 -3.79564 0
M  V30 1538 H 143.57 -2.02579 -3.31034 0
M  V30 1539 H 141.671 0.408416 -3.70355 0
M  V30 1540 H 141.784 -1.23245 -4.62977 0
M  V30 1541 H 140.148 -0.561216 -2.4844 0
M  V30 1542 H 140.931 -2.22775 -2.61201 0
M  V30 1543 N 143.376 1.44774 -0.622745 0
M  V30 1544 C 144.339 2.29069 0.0774015 0
M  V30 1545 C 145.339 1.4059 0.780461 0
M  V30 1546 O 146.529 1.62551 0.626322 0
M  V30 1547 C 143.661 3.21974 1.12006 0
M  V30 1548 H 144.854 2.92459 -0.663901 0
M  V30 1549 H 142.407 1.51548 -0.382486 0
M  V30 1550 H 143.142 2.63417 1.89162 0
M  V30 1551 H 142.927 3.87168 0.619951 0
M  V30 1552 H 144.417 3.85318 1.60995 0
M  V30 1553 N 144.854 0.36279 1.53368 0
M  V30 1554 C 145.802 -0.500155 2.27159 0
M  V30 1555 C 146.796 -1.08575 1.3003 0
M  V30 1556 O 148.002 -1.02927 1.47668 0
M  V30 1557 H 144.377 -0.180009 0.730138 0
M  V30 1558 H 146.348 0.14401 2.98052 0
M  V30 1559 C 145.097 -1.62937 3.07159 0
M  V30 1560 H 144.42 -1.18806 3.8174 0
M  V30 1561 H 145.86 -2.20795 3.61975 0
M  V30 1562 C 144.319 -2.57007 2.17829 0
M  V30 1563 O 144.849 -3.59752 1.78721 0
M  V30 1564 N 143.055 -2.26131 1.82518 0
M  V30 1565 H 142.602 -1.42616 2.14519 0
M  V30 1566 H 142.56 -2.89327 1.23034 0
M  V30 1567 N 146.332 -1.57332 0.0918853 0
M  V30 1568 C 147.743 -1.81496 -0.437739 0
M  V30 1569 C 148.094 -1.00727 -1.6837 0
M  V30 1570 O 147.219 -0.235694 -2.15113 0
M  V30 1571 C 147.814 -3.29197 -0.800939 0
M  V30 1572 C 146.373 -3.54136 -1.27532 0
M  V30 1573 C 145.52 -2.75979 -0.270392 0
M  V30 1574 H 148.471 -1.55494 0.317366 0
M  V30 1575 H 148.492 -3.42344 -1.66074 0
M  V30 1576 H 148.004 -3.87955 0.106078 0
M  V30 1577 H 146.105 -3.00705 -2.20016 0
M  V30 1578 H 146.218 -4.62792 -1.23938 0
M  V30 1579 H 144.582 -2.43349 -0.751872 0
M  V30 1580 H 145.365 -3.37484 0.629248 0
M  V30 1581 N 147.81 0.181792 -1.56548 0
M  V30 1582 C 149.056 0.901431 -1.81665 0
M  V30 1583 C 149.389 1.82347 -0.668075 0
M  V30 1584 O 148.664 1.91669 0.330615 0
M  V30 1585 C 148.947 1.70618 -3.17115 0
M  V30 1586 C 148.8 0.807964 -4.42484 0
M  V30 1587 C 150.119 2.67605 -3.49393 0
M  V30 1588 H 147.238 0.32627 -0.660846 0
M  V30 1589 H 149.88 0.168134 -1.89255 0
M  V30 1590 H 148.03 2.33133 -3.10775 0
M  V30 1591 H 149.702 0.19649 -4.60881 0
M  V30 1592 H 147.945 0.115411 -4.33646 0
M  V30 1593 H 148.616 1.40632 -5.33785 0
M  V30 1594 H 151.092 2.15218 -3.56118 0
M  V30 1595 H 149.968 3.20985 -4.45264 0
M  V30 1596 H 150.229 3.47298 -2.73563 0
M  V30 1597 N 149.288 1.51039 0.449983 0
M  V30 1598 C 150.22 1.67617 1.56324 0
M  V30 1599 C 151.233 0.557083 1.52972 0
M  V30 1600 O 152.422 0.830989 1.57977 0
M  V30 1601 C 149.522 1.66402 2.95235 0
M  V30 1602 C 148.695 2.9469 3.23229 0
M  V30 1603 C 147.754 2.85832 4.41799 0
M  V30 1604 O 146.78 3.59785 4.41071 0
M  V30 1605 N 147.982 2.00821 5.44657 0
M  V30 1606 H 150.747 2.63648 1.42512 0
M  V30 1607 H 148.308 1.48767 0.638737 0
M  V30 1608 H 150.3 1.58062 3.72557 0
M  V30 1609 H 148.87 0.780182 3.02708 0
M  V30 1610 H 148.09 3.16996 2.34323 0
M  V30 1611 H 149.378 3.79636 3.38754 0
M  V30 1612 H 148.776 1.40091 5.48079 0
M  V30 1613 H 147.333 1.98368 6.20881 0
M  V30 1614 N 150.766 -0.704594 1.40972 0
M  V30 1615 C 152.182 -1.01406 1.23244 0
M  V30 1616 C 152.382 -2.01169 0.115399 0
M  V30 1617 O 151.438 -2.47021 -0.523147 0
M  V30 1618 C 152.751 -1.54728 2.57836 0
M  V30 1619 C 154.299 -1.66658 2.64942 0
M  V30 1620 C 154.774 -2.23383 3.9983 0
M  V30 1621 N 156.265 -2.30756 4.01629 0
M  V30 1622 C 157 -2.75655 5.02794 0
M  V30 1623 N 156.496 -3.20225 6.14352 0
M  V30 1624 N 158.289 -2.75138 4.90159 0
M  V30 1625 H 150.44 -0.0435285 2.12355 0
M  V30 1626 H 152.703 -0.0818951 0.944456 0
M  V30 1627 H 152.409 -0.888832 3.40283 0
M  V30 1628 H 152.283 -2.53084 2.79693 0
M  V30 1629 H 154.67 -2.31617 1.8286 0
M  V30 1630 H 154.751 -0.668717 2.46904 0
M  V30 1631 H 154.395 -1.59043 4.82357 0
M  V30 1632 H 154.325 -3.23904 4.15203 0
M  V30 1633 H 156.816 -1.99291 3.21079 0
M  V30 1634 H 157.129 -3.53084 6.87424 0
M  V30 1635 H 155.474 -3.18156 6.17901 0
M  V30 1636 H 158.665 -2.39661 4.02095 0
M  V30 1637 H 158.838 -3.09812 5.6914 0
M  V30 1638 N 152.244 -1.26651 -0.937939 0
M  V30 1639 C 153.493 -1.11775 -1.67897 0
M  V30 1640 C 153.806 0.33794 -1.92659 0
M  V30 1641 O 155.012 0.607434 -2.64618 0
M  V30 1642 C 153.468 -1.9523 -3.02346 0
M  V30 1643 C 153.076 -3.45393 -2.8532 0
M  V30 1644 C 154.82 -1.88972 -3.80118 0
M  V30 1645 C 152.727 -4.21083 -4.15263 0
M  V30 1646 H 151.657 -0.414696 -0.629717 0
M  V30 1647 H 154.308 -1.50988 -1.04283 0
M  V30 1648 H 152.69 -1.48853 -3.66959 0
M  V30 1649 H 153.864 -3.99561 -2.29537 0
M  V30 1650 H 152.179 -3.52921 -2.20988 0
M  V30 1651 H 154.776 -2.42805 -4.76392 0
M  V30 1652 H 155.119 -0.86113 -4.07296 0
M  V30 1653 H 155.652 -2.33189 -3.22285 0
M  V30 1654 H 152.391 -5.24425 -3.93267 0
M  V30 1655 H 151.911 -3.71695 -4.70747 0
M  V30 1656 H 153.59 -4.29706 -4.83696 0
M  V30 1657 N 153.722 1.14298 -1.08507 0
M  V30 1658 C 154.652 2.21542 -0.737646 0
M  V30 1659 C 155.633 1.67773 0.280377 0
M  V30 1660 O 156.818 1.93616 0.150521 0
M  V30 1661 C 153.948 3.46988 -0.147259 0
M  V30 1662 C 152.902 4.13789 -1.09374 0
M  V30 1663 C 152.228 5.33449 -0.365524 0
M  V30 1664 C 153.528 4.62208 -2.4323 0
M  V30 1665 H 155.222 2.5086 -1.6343 0
M  V30 1666 H 152.768 1.20576 -0.787243 0
M  V30 1667 H 154.721 4.21262 0.107808 0
M  V30 1668 H 153.445 3.17037 0.784538 0
M  V30 1669 H 152.104 3.4147 -1.33393 0
M  V30 1670 H 151.752 4.99759 0.57011 0
M  V30 1671 H 151.452 5.79088 -0.996512 0
M  V30 1672 H 152.976 6.10485 -0.118534 0
M  V30 1673 H 154.39 5.27952 -2.23472 0
M  V30 1674 H 152.787 5.18553 -3.02031 0
M  V30 1675 H 153.857 3.77224 -3.04681 0
M  V30 1676 N 155.201 0.870884 1.31352 0
M  V30 1677 C 156.449 0.48132 1.96285 0
M  V30 1678 C 156.77 -0.969813 1.69173 0
M  V30 1679 O 156.04 -1.67998 1.00764 0
M  V30 1680 H 154.62 0.175002 0.726212 0
M  V30 1681 H 157.282 1.11087 1.60143 0
M  V30 1682 H 156.378 0.639825 3.05471 0
M  V30 1683 N 156.679 -1.44442 0.630414 0
M  V30 1684 C 157.927 -2.01653 0.134351 0
M  V30 1685 C 158.248 -1.49836 -1.24796 0
M  V30 1686 O 157.518 -0.701684 -1.82902 0
M  V30 1687 H 156.098 -0.74554 0.0466769 0
M  V30 1688 H 158.76 -1.76952 0.816955 0
M  V30 1689 H 157.856 -3.11935 0.101498 0
M  V30 1690 N 158.157 -0.370918 -1.53173 0
M  V30 1691 C 159.107 0.489588 -2.22681 0
M  V30 1692 C 160.091 1.04442 -1.22395 0
M  V30 1693 O 161.283 0.973578 -1.47819 0
M  V30 1694 C 158.412 1.626 -3.02351 0
M  V30 1695 C 157.498 1.08379 -4.10018 0
M  V30 1696 N 157.889 0.265004 -5.05105 0
M  V30 1697 C 156.187 1.35809 -4.2482 0
M  V30 1698 C 156.888 -0.0324755 -5.81691 0
M  V30 1699 N 155.864 0.566581 -5.40639 0
M  V30 1700 H 159.666 -0.142729 -2.93553 0
M  V30 1701 H 157.18 -0.179221 -1.61408 0
M  V30 1702 H 159.177 2.2547 -3.50669 0
M  V30 1703 H 157.837 2.26132 -2.33011 0
M  V30 1704 H 158.848 -0.0962352 -5.17811 0
M  V30 1705 H 155.525 1.9958 -3.66707 0
M  V30 1706 H 156.915 -0.69473 -6.68299 0
M  V30 1707 N 159.635 1.57281 -0.100228 0
M  V30 1708 C 160.565 2.17328 0.853857 0
M  V30 1709 C 161.546 1.10804 1.2906 0
M  V30 1710 O 162.731 1.38963 1.35657 0
M  V30 1711 C 159.861 2.75772 2.11109 0
M  V30 1712 C 158.815 3.87713 1.81279 0
M  V30 1713 C 158.141 4.32882 3.13874 0
M  V30 1714 C 159.441 5.10677 1.09574 0
M  V30 1715 H 161.135 2.97305 0.353545 0
M  V30 1716 H 158.681 1.43009 0.168612 0
M  V30 1717 H 160.634 3.16433 2.78296 0
M  V30 1718 H 159.358 1.93057 2.63432 0
M  V30 1719 H 158.017 3.476 1.16489 0
M  V30 1720 H 157.665 3.47051 3.64095 0
M  V30 1721 H 157.365 5.08358 2.94696 0
M  V30 1722 H 158.889 4.7618 3.82211 0
M  V30 1723 H 160.303 5.48474 1.66879 0
M  V30 1724 H 158.7 5.91615 1.00557 0
M  V30 1725 H 159.77 4.84835 0.0793299 0
M  V30 1726 N 161.113 -0.173488 1.56642 0
M  V30 1727 C 162.39 -0.917617 1.7274 0
M  V30 1728 C 162.77 -2.00484 0.661027 0
M  V30 1729 O 162.118 -2.26184 -0.32453 0
M  V30 1730 C 162.328 -1.48433 3.15862 0
M  V30 1731 C 163.676 -1.95809 3.76754 0
M  V30 1732 O 164.7 -1.58231 3.19126 0
M  V30 1733 O 163.559 -2.65024 4.77938 0
M  V30 1734 H 160.653 -0.431772 0.705338 0
M  V30 1735 H 163.199 -0.161487 1.6893 0
M  V30 1736 H 161.971 -0.701715 3.84957 0
M  V30 1737 H 161.594 -2.30471 3.23989 0
M  V30 1738 N 162.591 -1.51276 -0.441967 0
M  V30 1739 C 163.554 -1.7167 -1.51862 0
M  V30 1740 C 164.554 -0.586793 -1.49711 0
M  V30 1741 O 165.744 -0.854276 -1.51815 0
M  V30 1742 C 162.876 -1.76889 -2.91416 0
M  V30 1743 H 164.069 -2.67754 -1.35084 0
M  V30 1744 H 161.622 -1.41196 -0.670333 0
M  V30 1745 H 162.357 -0.826026 -3.13604 0
M  V30 1746 H 162.142 -2.59001 -2.94382 0
M  V30 1747 H 163.632 -1.94522 -3.69528 0
M  V30 1748 N 164.069 0.697108 -1.41344 0
M  V30 1749 C 165.016 1.81106 -1.43071 0
M  V30 1750 C 165.986 1.63632 -0.285275 0
M  V30 1751 O 167.171 1.84504 -0.486091 0
M  V30 1752 C 164.311 3.18975 -1.31715 0
M  V30 1753 C 163.424 3.47892 -2.56115 0
M  V30 1754 C 162.559 4.75367 -2.37064 0
M  V30 1755 C 161.598 4.97247 -3.56948 0
M  V30 1756 N 160.735 6.15947 -3.36977 0
M  V30 1757 H 165.575 1.78965 -2.38276 0
M  V30 1758 H 163.112 0.873975 -1.18322 0
M  V30 1759 H 165.07 3.98615 -1.23133 0
M  V30 1760 H 163.7 3.20297 -0.401183 0
M  V30 1761 H 162.752 2.62669 -2.75153 0
M  V30 1762 H 164.064 3.59962 -3.45295 0
M  V30 1763 H 163.218 5.63059 -2.25941 0
M  V30 1764 H 161.957 4.65541 -1.45338 0
M  V30 1765 H 160.962 4.08004 -3.68527 0
M  V30 1766 H 162.187 5.08934 -4.49626 0
M  V30 1767 H 160.133 6.07336 -2.47949 0
M  V30 1768 H 160.05 6.28777 -4.19732 0
M  V30 1769 H 161.318 7.06377 -3.29623 0
M  V30 1770 N 165.547 1.27147 0.931209 0
M  V30 1771 C 166.795 1.13055 1.6752 0
M  V30 1772 C 167.116 -0.324791 1.92276 0
M  V30 1773 O 166.386 -1.22775 1.52654 0
M  V30 1774 H 164.966 0.415391 0.620854 0
M  V30 1775 H 167.628 1.59623 1.11833 0
M  V30 1776 H 166.724 1.65694 2.64485 0
M  V30 1777 N 167.025 -1.13721 1.09112 0
M  V30 1778 C 168.25 -1.89314 0.847053 0
M  V30 1779 C 168.675 -1.78416 -0.595774 0
M  V30 1780 O 168.033 -1.12942 -1.41823 0
M  V30 1781 C 168.081 -3.3701 1.28284 0
M  V30 1782 O 167.185 -4.10054 0.439267 0
M  V30 1783 H 166.526 -0.588745 0.307044 0
M  V30 1784 H 169.056 -1.43902 1.45442 0
M  V30 1785 H 169.066 -3.87834 1.26683 0
M  V30 1786 H 167.741 -3.4426 2.33363 0
M  V30 1787 H 166.318 -3.69266 0.519312 0
M  V30 1788 N 168.503 -0.877838 -1.30888 0
M  V30 1789 C 169.75 -0.492696 -1.96415 0
M  V30 1790 C 170.078 0.956671 -1.69346 0
M  V30 1791 O 169.333 1.68993 -0.986913 0
M  V30 1792 C 169.632 -0.705748 -3.50363 0
M  V30 1793 C 169.298 -2.1291 -3.97467 0
M  V30 1794 C 167.96 -2.51834 -4.1004 0
M  V30 1795 C 170.312 -3.05702 -4.22132 0
M  V30 1796 C 167.64 -3.82775 -4.44635 0
M  V30 1797 C 169.992 -4.36166 -4.58194 0
M  V30 1798 C 168.656 -4.74993 -4.68975 0
M  V30 1799 H 167.926 -0.18029 -0.718733 0
M  V30 1800 H 170.573 -1.11233 -1.55883 0
M  V30 1801 H 168.878 -0.00303058 -3.918 0
M  V30 1802 H 170.575 -0.387456 -3.99124 0
M  V30 1803 H 167.165 -1.81694 -3.88182 0
M  V30 1804 H 171.349 -2.76853 -4.11906 0
M  V30 1805 H 166.605 -4.12609 -4.51181 0
M  V30 1806 H 170.779 -5.08111 -4.76231 0
M  V30 1807 H 168.406 -5.76495 -4.95537 0
M  V30 1808 N 169.982 1.44106 -0.638065 0
M  V30 1809 C 171.393 1.85316 -0.226894 0
M  V30 1810 C 171.744 1.53399 1.22324 0
M  V30 1811 O 170.869 0.975463 1.93167 0
M  V30 1812 C 171.464 3.3637 -0.405013 0
M  V30 1813 C 170.023 3.76369 -0.0482902 0
M  V30 1814 C 169.17 2.67921 -0.715108 0
M  V30 1815 H 172.121 1.34474 -0.842764 0
M  V30 1816 H 172.142 3.7885 0.354 0
M  V30 1817 H 171.654 3.59569 -1.46053 0
M  V30 1818 H 169.755 3.58784 1.00522 0
M  V30 1819 H 169.868 4.76856 -0.463187 0
M  V30 1820 H 168.232 2.54259 -0.149753 0
M  V30 1821 H 169.015 2.93951 -1.77335 0
M  V30 1822 N 171.46 0.379036 1.52974 0
M  V30 1823 C 172.706 -0.199244 2.02422 0
M  V30 1824 C 173.061 -1.4532 1.26095 0
M  V30 1825 O 172.354 -1.88377 0.34996 0
M  V30 1826 C 172.548 -0.53096 3.53434 0
M  V30 1827 C 172.377 0.689298 4.44386 0
M  V30 1828 C 171.147 1.20546 4.9071 0
M  V30 1829 C 173.345 1.55856 4.90116 0
M  V30 1830 N 171.327 2.38434 5.65705 0
M  V30 1831 C 172.698 2.58396 5.63588 0
M  V30 1832 C 174.753 1.57986 4.7217 0
M  V30 1833 C 173.456 3.62939 6.21022 0
M  V30 1834 C 175.482 2.6143 5.30479 0
M  V30 1835 C 174.844 3.62693 6.03849 0
M  V30 1836 H 170.943 -0.0352671 0.781204 0
M  V30 1837 H 173.527 0.526614 1.87443 0
M  V30 1838 H 171.698 -1.22588 3.68547 0
M  V30 1839 H 173.43 -1.0955 3.89591 0
M  V30 1840 H 170.185 0.768022 4.67331 0
M  V30 1841 H 170.609 2.98055 6.07859 0
M  V30 1842 H 175.251 0.810475 4.14959 0
M  V30 1843 H 172.969 4.40751 6.77321 0
M  V30 1844 H 176.555 2.63949 5.18481 0
M  V30 1845 H 175.435 4.41424 6.48163 0
M  V30 1846 N 172.938 -1.57226 0.108567 0
M  V30 1847 C 173.87 -2.11809 -0.875752 0
M  V30 1848 C 174.883 -1.05839 -1.23701 0
M  V30 1849 O 176.072 -1.33245 -1.18778 0
M  V30 1850 C 173.172 -2.59411 -2.18081 0
M  V30 1851 C 172.345 -3.89364 -1.99284 0
M  V30 1852 C 171.404 -4.22672 -3.13424 0
M  V30 1853 O 170.43 -4.91668 -2.86795 0
M  V30 1854 N 171.632 -3.79154 -4.3957 0
M  V30 1855 H 174.397 -2.9689 -0.409477 0
M  V30 1856 H 171.958 -1.61721 -0.076158 0
M  V30 1857 H 173.95 -2.7873 -2.93414 0
M  V30 1858 H 172.52 -1.79268 -2.5609 0
M  V30 1859 H 171.74 -3.79059 -1.08203 0
M  V30 1860 H 173.028 -4.74358 -1.84017 0
M  V30 1861 H 172.426 -3.23486 -4.64083 0
M  V30 1862 H 170.983 -4.03602 -5.11809 0
M  V30 1863 N 174.416 0.165178 -1.56732 0
M  V30 1864 C 175.379 1.18822 -1.95995 0
M  V30 1865 C 176.379 1.3685 -0.84431 0
M  V30 1866 O 177.569 1.34152 -1.11126 0
M  V30 1867 C 174.701 2.5521 -2.26011 0
M  V30 1868 H 175.894 0.851825 -2.87548 0
M  V30 1869 H 173.447 0.407857 -1.50885 0
M  V30 1870 H 174.182 2.93852 -1.37191 0
M  V30 1871 H 173.967 2.43489 -3.07336 0
M  V30 1872 H 175.457 3.28927 -2.57288 0
M  V30 1873 N 175.894 1.51508 0.433938 0
M  V30 1874 C 176.841 1.73068 1.52696 0
M  V30 1875 C 177.811 0.572441 1.55924 0
M  V30 1876 O 178.996 0.807253 1.72882 0
M  V30 1877 C 176.136 1.86474 2.90381 0
M  V30 1878 C 175.249 3.14037 2.96656 0
M  V30 1879 C 174.384 3.18019 4.25485 0
M  V30 1880 C 173.423 4.39882 4.2564 0
M  V30 1881 N 172.56 4.41394 5.45999 0
M  V30 1882 H 177.4 2.66366 1.33615 0
M  V30 1883 H 174.937 1.32008 0.649018 0
M  V30 1884 H 176.895 1.92229 3.70275 0
M  V30 1885 H 175.525 0.965809 3.08013 0
M  V30 1886 H 174.577 3.17575 2.09404 0
M  V30 1887 H 175.889 4.0394 2.92633 0
M  V30 1888 H 175.043 3.22708 5.13755 0
M  V30 1889 H 173.782 2.2601 4.3217 0
M  V30 1890 H 172.787 4.35366 3.35763 0
M  V30 1891 H 174.012 5.33159 4.20617 0
M  V30 1892 H 171.958 3.52258 5.53399 0
M  V30 1893 H 171.875 5.25111 5.4387 0
M  V30 1894 H 173.143 4.50281 6.36292 0
M  V30 1895 N 177.372 -0.689602 1.41712 0
M  V30 1896 C 178.305 -1.81403 1.3845 0
M  V30 1897 C 179.283 -1.60653 0.250874 0
M  V30 1898 O 180.467 -1.83323 0.43874 0
M  V30 1899 C 177.594 -3.18176 1.1611 0
M  V30 1900 C 176.64 -3.57705 2.3227 0
M  V30 1901 S 177.473 -3.61827 3.94767 0
M  V30 1902 C 178.629 -5.01318 3.74742 0
M  V30 1903 H 178.862 -1.83893 2.33603 0
M  V30 1904 H 176.395 -0.858878 1.28307 0
M  V30 1905 H 178.353 -3.97132 1.03907 0
M  V30 1906 H 177.014 -3.13288 0.225668 0
M  V30 1907 H 176.207 -4.57082 2.12349 0
M  V30 1908 H 175.809 -2.86073 2.40911 0
M  V30 1909 H 178.101 -5.88986 3.34817 0
M  V30 1910 H 179.044 -5.26283 4.73743 0
M  V30 1911 H 179.452 -4.73138 3.07898 0
M  V30 1912 N 178.85 -1.27639 -0.924453 0
M  V30 1913 C 180.096 -1.14336 -1.67497 0
M  V30 1914 C 180.429 0.309465 -1.91718 0
M  V30 1915 O 179.704 1.22608 -1.50989 0
M  V30 1916 C 179.987 -1.93096 -3.0395 0
M  V30 1917 C 179.84 -3.46381 -2.8695 0
M  V30 1918 C 181.159 -1.73798 -4.0433 0
M  V30 1919 H 178.278 -0.416728 -0.607871 0
M  V30 1920 H 180.92 -1.56832 -1.07256 0
M  V30 1921 H 179.07 -1.56982 -3.55372 0
M  V30 1922 H 180.742 -3.92343 -2.42621 0
M  V30 1923 H 178.985 -3.72557 -2.22225 0
M  V30 1924 H 179.656 -3.96735 -3.83804 0
M  V30 1925 H 182.132 -2.05293 -3.61931 0
M  V30 1926 H 181.008 -2.31294 -4.97789 0
M  V30 1927 H 181.269 -0.686725 -4.36734 0
M  V30 1928 N 180.328 1.1314 -1.09713 0
M  V30 1929 C 181.553 1.88862 -0.857081 0
M  V30 1930 C 181.978 1.78729 0.586304 0
M  V30 1931 O 181.336 1.13692 1.41222 0
M  V30 1932 C 181.384 3.36325 -1.30069 0
M  V30 1933 O 180.488 4.09815 -0.461007 0
M  V30 1934 H 179.829 0.587108 -0.310162 0
M  V30 1935 H 182.359 1.43129 -1.46203 0
M  V30 1936 H 182.369 3.87157 -1.28738 0
M  V30 1937 H 181.044 3.43017 -2.35185 0
M  V30 1938 H 179.621 3.68986 -0.538888 0
M  V30 1939 N 181.806 0.884767 1.30421 0
M  V30 1940 C 182.756 0.322846 2.25703 0
M  V30 1941 C 183.74 -0.548582 1.51259 0
M  V30 1942 O 184.932 -0.39304 1.72581 0
M  V30 1943 C 182.061 -0.461787 3.4018 0
M  V30 1944 C 181.147 0.423717 4.21978 0
M  V30 1945 N 181.538 1.52408 4.82292 0
M  V30 1946 C 179.836 0.218795 4.45463 0
M  V30 1947 C 180.537 2.07136 5.43571 0
M  V30 1948 N 179.513 1.36635 5.26148 0
M  V30 1949 H 183.315 1.16363 2.69883 0
M  V30 1950 H 180.829 0.73415 1.44859 0
M  V30 1951 H 182.826 -0.880985 4.07485 0
M  V30 1952 H 181.486 -1.30001 2.9754 0
M  V30 1953 H 182.497 1.90693 4.81515 0
M  V30 1954 H 179.174 -0.582275 4.1342 0
M  V30 1955 H 180.564 2.99538 6.01437 0
M  V30 1956 N 183.284 -1.43765 0.645699 0
M  V30 1957 C 184.234 -2.27884 -0.0726442 0
M  V30 1958 C 185.218 -1.39483 -0.802086 0
M  V30 1959 O 186.41 -1.63174 -0.685791 0
M  V30 1960 C 183.539 -3.27055 -1.04356 0
M  V30 1961 C 182.625 -4.22944 -0.312985 0
M  V30 1962 N 183.016 -5.01391 0.666386 0
M  V30 1963 C 181.314 -4.42528 -0.55546 0
M  V30 1964 C 182.015 -5.71217 1.09935 0
M  V30 1965 N 180.991 -5.41856 0.435137 0
M  V30 1966 H 184.793 -2.85949 0.678988 0
M  V30 1967 H 182.307 -1.55378 0.472368 0
M  V30 1968 H 184.304 -3.86089 -1.57292 0
M  V30 1969 H 182.964 -2.70551 -1.79534 0
M  V30 1970 H 183.975 -5.07252 1.04481 0
M  V30 1971 H 180.652 -3.97104 -1.28899 0
M  V30 1972 H 182.042 -6.44202 1.90929 0
M  V30 1973 N 184.763 -0.387143 -1.52771 0
M  V30 1974 C 185.711 0.463953 -2.27926 0
M  V30 1975 C 186.705 1.06493 -1.31741 0
M  V30 1976 O 187.911 1.00565 -1.49287 0
M  V30 1977 H 184.286 0.16837 -0.732909 0
M  V30 1978 H 186.257 -0.19141 -2.97785 0
M  V30 1979 C 185.006 1.5803 -3.09713 0
M  V30 1980 H 184.329 1.12718 -3.83581 0
M  V30 1981 H 185.769 2.15008 -3.65442 0
M  V30 1982 C 184.228 2.53509 -2.2189 0
M  V30 1983 O 184.758 3.56863 -1.84422 0
M  V30 1984 N 182.964 2.23199 -1.86093 0
M  V30 1985 H 182.511 1.39185 -2.16761 0
M  V30 1986 H 182.469 2.87333 -1.27621 0
M  V30 1987 N 186.241 1.57166 -0.116904 0
M  V30 1988 C 187.171 2.18222 0.830759 0
M  V30 1989 C 188.152 1.12167 1.27877 0
M  V30 1990 O 189.337 1.40394 1.34176 0
M  V30 1991 C 186.467 2.77996 2.08172 0
M  V30 1992 C 185.421 3.89614 1.77157 0
M  V30 1993 C 184.747 4.36187 3.09265 0
M  V30 1994 C 186.047 5.1181 1.04151 0
M  V30 1995 H 187.741 2.97664 0.321992 0
M  V30 1996 H 185.287 1.4318 0.153434 0
M  V30 1997 H 187.24 3.19366 2.74924 0
M  V30 1998 H 185.964 1.9584 2.6137 0
M  V30 1999 H 184.623 3.48816 1.12796 0
M  V30 2000 H 184.271 3.50893 3.60393 0
M  V30 2001 H 183.971 5.11455 2.89288 0
M  V30 2002 H 185.495 4.80207 3.77139 0
M  V30 2003 H 186.909 5.50214 1.61052 0
M  V30 2004 H 185.306 5.92648 0.942762 0
M  V30 2005 H 186.376 4.84892 0.0279022 0
M  V30 2006 N 187.719 -0.156864 1.56817 0
M  V30 2007 C 188.947 -0.886316 1.86955 0
M  V30 2008 C 189.362 -1.75185 0.703975 0
M  V30 2009 O 188.719 -1.79555 -0.326552 0
M  V30 2010 C 188.77 -1.75117 3.16253 0
M  V30 2011 O 188.491 -0.920537 4.2832 0
M  V30 2012 C 189.992 -2.58905 3.59837 0
M  V30 2013 H 187.212 -0.25678 0.619923 0
M  V30 2014 H 189.756 -0.152615 2.0393 0
M  V30 2015 H 187.911 -2.43805 3.01062 0
M  V30 2016 H 188.325 -1.51337 5.02192 0
M  V30 2017 H 189.799 -3.1518 4.53172 0
M  V30 2018 H 190.276 -3.34472 2.84649 0
M  V30 2019 H 190.882 -1.95526 3.7769 0
M  V30 2020 N 189.197 -1.51736 -0.425897 0
M  V30 2021 C 190.425 -1.68794 -1.1965 0
M  V30 2022 C 190.84 -0.390164 -1.84725 0
M  V30 2023 O 190.197 0.632376 -1.71194 0
M  V30 2024 C 190.248 -2.81174 -2.27208 0
M  V30 2025 O 189.969 -4.05925 -1.64793 0
M  V30 2026 C 191.47 -3.09599 -3.17275 0
M  V30 2027 H 188.69 -0.566128 -0.360194 0
M  V30 2028 H 191.234 -1.98211 -0.503249 0
M  V30 2029 H 189.389 -2.54324 -2.9223 0
M  V30 2030 H 189.803 -4.68423 -2.35967 0
M  V30 2031 H 191.277 -3.91786 -3.88854 0
M  V30 2032 H 191.754 -2.22468 -3.78688 0
M  V30 2033 H 192.36 -3.38151 -2.57941 0
M  V30 2034 N 190.675 0.682077 -1.42076 0
M  V30 2035 C 191.923 1.4393 -1.41876 0
M  V30 2036 C 192.244 1.94971 -0.0335599 0
M  V30 2037 O 191.514 1.72591 0.926773 0
M  V30 2038 H 190.094 0.534085 -0.522267 0
M  V30 2039 H 192.756 0.806427 -1.77434 0
M  V30 2040 H 191.852 2.29588 -2.11414 0
M  V30 2041 N 192.153 1.28127 0.917671 0
M  V30 2042 C 193.116 1.11744 2.00115 0
M  V30 2043 C 194.116 0.0583052 1.60694 0
M  V30 2044 O 195.306 0.303755 1.71531 0
M  V30 2045 C 192.438 0.704862 3.33533 0
M  V30 2046 H 193.631 2.07966 2.16079 0
M  V30 2047 H 191.184 1.11058 1.09981 0
M  V30 2048 H 191.919 -0.258299 3.2327 0
M  V30 2049 H 191.704 1.4699 3.63505 0
M  V30 2050 H 193.194 0.612768 4.1308 0
M  V30 2051 N 193.631 -1.12557 1.10312 0
M  V30 2052 C 194.859 -1.87864 0.866873 0
M  V30 2053 C 195.274 -1.79588 -0.582557 0
M  V30 2054 O 194.631 -1.16887 -1.40156 0
M  V30 2055 C 194.682 -3.37125 1.30496 0
M  V30 2056 O 194.403 -3.45201 2.69755 0
M  V30 2057 C 195.904 -4.29373 1.10243 0
M  V30 2058 H 193.124 -0.594452 0.311236 0
M  V30 2059 H 195.668 -1.42429 1.46745 0
M  V30 2060 H 193.823 -3.80109 0.748081 0
M  V30 2061 H 194.237 -4.38056 2.88457 0
M  V30 2062 H 195.711 -5.32394 1.45811 0
M  V30 2063 H 196.188 -4.39181 0.0409492 0
M  V30 2064 H 196.794 -3.92169 1.64571 0
M  V30 2065 N 195.109 -0.891671 -1.2995 0
M  V30 2066 C 196.039 -0.379797 -2.30391 0
M  V30 2067 C 197.02 0.540919 -1.6127 0
M  V30 2068 O 198.205 0.453352 -1.88834 0
M  V30 2069 C 195.335 0.400654 -3.44981 0
M  V30 2070 C 194.289 -0.428905 -4.25846 0
M  V30 2071 C 193.615 0.478557 -5.32554 0
M  V30 2072 C 194.915 -1.67458 -4.94727 0
M  V30 2073 H 196.609 -1.21914 -2.73454 0
M  V30 2074 H 194.155 -0.587675 -1.31462 0
M  V30 2075 H 196.108 0.769434 -4.14316 0
M  V30 2076 H 194.832 1.27371 -3.0074 0
M  V30 2077 H 193.491 -0.779911 -3.58208 0
M  V30 2078 H 193.139 1.34951 -4.84559 0
M  V30 2079 H 192.839 -0.0727433 -5.87555 0
M  V30 2080 H 194.363 0.843705 -6.04743 0
M  V30 2081 H 195.777 -1.376 -5.56542 0
M  V30 2082 H 194.174 -2.16659 -5.59624 0
M  V30 2083 H 195.244 -2.41518 -4.20473 0
M  V30 2084 N 196.587 1.43421 -0.653314 0
M  V30 2085 C 197.836 2.01032 -0.164076 0
M  V30 2086 C 198.149 1.52147 1.22926 0
M  V30 2087 O 199.355 2.02031 1.81371 0
M  V30 2088 C 197.811 3.59082 -0.24252 0
M  V30 2089 C 197.419 4.1696 -1.63855 0
M  V30 2090 C 199.163 4.24079 0.18911 0
M  V30 2091 C 197.07 5.67304 -1.67092 0
M  V30 2092 H 196 0.751798 -0.0575769 0
M  V30 2093 H 198.651 1.6439 -0.815362 0
M  V30 2094 H 197.033 3.93125 0.476276 0
M  V30 2095 H 198.207 3.94416 -2.38271 0
M  V30 2096 H 196.522 3.64335 -2.01616 0
M  V30 2097 H 199.119 5.34381 0.184775 0
M  V30 2098 H 199.462 3.98005 1.22056 0
M  V30 2099 H 199.995 3.94918 -0.477938 0
M  V30 2100 H 196.734 5.98145 -2.68146 0
M  V30 2101 H 196.254 5.91904 -0.970014 0
M  V30 2102 H 197.933 6.31344 -1.4147 0
M  V30 2103 N 198.065 0.39524 1.52563 0
M  V30 2104 C 199.013 -0.451859 2.28169 0
M  V30 2105 C 200.007 -1.05792 1.32304 0
M  V30 2106 O 201.213 -0.997718 1.49818 0
M  V30 2107 H 197.588 -0.164481 0.733792 0
M  V30 2108 H 199.559 0.207199 2.9768 0
M  V30 2109 C 198.308 -1.56385 3.10546 0
M  V30 2110 H 197.631 -1.10682 3.84174 0
M  V30 2111 H 199.071 -2.13067 3.66577 0
M  V30 2112 C 197.53 -2.52328 2.23231 0
M  V30 2113 O 198.06 -3.5588 1.86312 0
M  V30 2114 N 196.266 -2.22209 1.87274 0
M  V30 2115 H 195.813 -1.38033 2.17496 0
M  V30 2116 H 195.771 -2.86652 1.29143 0
M  V30 2117 N 199.544 -1.57102 0.125237 0
M  V30 2118 C 200.454 -2.19191 -0.8362 0
M  V30 2119 C 201.47 -1.16985 -1.28805 0
M  V30 2120 O 202.646 -1.49479 -1.34974 0
M  V30 2121 C 199.711 -2.78407 -2.06617 0
M  V30 2122 C 198.772 -3.9567 -1.66565 0
M  V30 2123 C 198.005 -4.52052 -2.83698 0
M  V30 2124 O 198.228 -4.07326 -3.99302 0
M  V30 2125 O 197.162 -5.42645 -2.60423 0
M  V30 2126 H 200.988 -3.01816 -0.337776 0
M  V30 2127 H 198.573 -1.4906 -0.100695 0
M  V30 2128 H 200.455 -3.16129 -2.7864 0
M  V30 2129 H 199.13 -1.9881 -2.55453 0
M  V30 2130 H 198.037 -3.62705 -0.916296 0
M  V30 2131 H 199.37 -4.76722 -1.22464 0
M  V30 2132 N 201.022 0.148545 -1.56898 0
M  V30 2133 C 201.954 1.20852 -1.9475 0
M  V30 2134 C 202.967 1.39265 -0.843152 0
M  V30 2135 O 204.156 1.38864 -1.12156 0
M  V30 2136 C 201.256 2.57362 -2.20495 0
M  V30 2137 C 200.429 2.59947 -3.51776 0
M  V30 2138 C 199.488 3.77984 -3.6608 0
M  V30 2139 O 198.514 3.62929 -4.38487 0
M  V30 2140 N 199.716 4.95375 -3.02629 0
M  V30 2141 H 202.481 0.886804 -2.86279 0
M  V30 2142 H 200.042 0.338121 -1.5833 0
M  V30 2143 H 202.034 3.34833 -2.27307 0
M  V30 2144 H 200.604 2.81832 -1.35238 0
M  V30 2145 H 199.824 1.68403 -3.56419 0
M  V30 2146 H 201.112 2.58704 -4.38121 0
M  V30 2147 H 200.51 5.10509 -2.43715 0
M  V30 2148 H 199.067 5.70627 -3.15004 0
M  V30 2149 N 202.5 1.5196 0.417844 0
M  V30 2150 C 203.746 1.66793 1.16411 0
M  V30 2151 C 204.101 0.388758 1.88432 0
M  V30 2152 O 203.394 -0.616409 1.81414 0
M  V30 2153 C 203.588 2.82269 2.19223 0
M  V30 2154 C 203.417 4.21293 1.57297 0
M  V30 2155 C 202.187 4.86948 1.34944 0
M  V30 2156 C 204.385 5.03704 1.03858 0
M  V30 2157 N 202.367 6.1003 0.688195 0
M  V30 2158 C 203.738 6.1795 0.503742 0
M  V30 2159 C 205.793 4.89095 0.932203 0
M  V30 2160 C 204.496 7.19188 -0.127034 0
M  V30 2161 C 206.522 5.90559 0.315293 0
M  V30 2162 C 205.884 7.0409 -0.208906 0
M  V30 2163 H 201.983 0.66407 0.412959 0
M  V30 2164 H 204.567 1.89242 0.457772 0
M  V30 2165 H 202.738 2.61451 2.87225 0
M  V30 2166 H 204.47 2.86183 2.86149 0
M  V30 2167 H 201.225 4.45156 1.61657 0
M  V30 2168 H 201.649 6.75964 0.374449 0
M  V30 2169 H 206.291 4.01557 1.32332 0
M  V30 2170 H 204.009 8.06359 -0.530231 0
M  V30 2171 H 207.595 5.81327 0.234625 0
M  V30 2172 H 206.475 7.81257 -0.67875 0
M  V30 2173 N 203.978 -0.674533 1.42435 0
M  V30 2174 C 204.908 -1.80009 1.48724 0
M  V30 2175 C 205.889 -1.6659 0.343793 0
M  V30 2176 O 207.074 -1.86007 0.558137 0
M  V30 2177 C 204.204 -3.18306 1.38919 0
M  V30 2178 C 203.158 -3.46461 2.51294 0
M  V30 2179 C 202.484 -4.84335 2.26547 0
M  V30 2180 C 203.784 -3.43328 3.93603 0
M  V30 2181 H 205.478 -1.75004 2.42928 0
M  V30 2182 H 203.024 -0.840533 1.16923 0
M  V30 2183 H 204.977 -3.9678 1.41927 0
M  V30 2184 H 203.701 -3.2399 0.412094 0
M  V30 2185 H 202.36 -2.70348 2.47604 0
M  V30 2186 H 202.008 -4.86669 1.2713 0
M  V30 2187 H 201.708 -5.04136 3.01861 0
M  V30 2188 H 203.232 -5.65094 2.31304 0
M  V30 2189 H 204.646 -4.11772 3.98894 0
M  V30 2190 H 203.043 -3.74664 4.68771 0
M  V30 2191 H 204.113 -2.41897 4.20255 0
M  V30 2192 N 205.456 -1.28612 -0.910864 0
M  V30 2193 C 206.386 -1.15326 -2.03032 0
M  V30 2194 C 207.367 -0.0502924 -1.70026 0
M  V30 2195 O 208.552 -0.227797 -1.92859 0
M  V30 2196 C 205.682 -0.817343 -3.37545 0
M  V30 2197 C 204.636 -1.8754 -3.84724 0
M  V30 2198 C 203.962 -1.39305 -5.16235 0
M  V30 2199 C 205.262 -3.28244 -4.06267 0
M  V30 2200 H 206.956 -2.08975 -2.14406 0
M  V30 2201 H 204.502 -1.00612 -1.03021 0
M  V30 2202 H 206.455 -0.711151 -4.15356 0
M  V30 2203 H 205.179 0.154846 -3.26233 0
M  V30 2204 H 203.838 -1.97079 -3.09121 0
M  V30 2205 H 203.486 -0.409846 -5.01328 0
M  V30 2206 H 203.186 -2.10057 -5.48771 0
M  V30 2207 H 204.71 -1.30014 -5.96598 0
M  V30 2208 H 206.124 -3.21611 -4.74594 0
M  V30 2209 H 204.521 -3.96855 -4.5014 0
M  V30 2210 H 205.591 -3.72048 -3.10979 0
M  V30 2211 N 206.934 1.1197 -1.10907 0
M  V30 2212 C 208.162 1.87402 -0.876824 0
M  V30 2213 C 208.577 1.79894 0.573025 0
M  V30 2214 O 207.934 1.17629 1.39534 0
M  V30 2215 C 207.985 3.36428 -1.32282 0
M  V30 2216 O 207.706 3.43765 -2.71582 0
M  V30 2217 C 209.207 4.28783 -1.12518 0
M  V30 2218 H 206.427 0.592793 -0.314384 0
M  V30 2219 H 208.971 1.41649 -1.47499 0
M  V30 2220 H 207.126 3.79706 -0.768229 0
M  V30 2221 H 207.54 4.3652 -2.90776 0
M  V30 2222 H 209.014 5.31613 -1.48633 0
M  V30 2223 H 209.491 4.39153 -0.0642394 0
M  V30 2224 H 210.097 3.91291 -1.66648 0
M  V30 2225 N 208.412 0.89855 1.29475 0
M  V30 2226 C 209.64 0.539261 1.99749 0
M  V30 2227 C 210.055 -0.875716 1.67262 0
M  V30 2228 O 209.412 -1.57786 0.917049 0
M  V30 2229 C 209.463 0.72061 3.54245 0
M  V30 2230 O 209.184 2.07989 3.8558 0
M  V30 2231 C 210.685 0.366118 4.41786 0
M  V30 2232 H 207.905 0.207047 0.638258 0
M  V30 2233 H 210.449 1.20758 1.65039 0
M  V30 2234 H 208.604 0.0994862 3.87272 0
M  V30 2235 H 209.018 2.10841 4.80257 0
M  V30 2236 H 210.492 0.543848 5.49314 0
M  V30 2237 H 210.969 -0.696763 4.33638 0
M  V30 2238 H 211.575 0.964135 4.14228 0
M  V30 2239 N 209.89 -1.43072 0.660911 0
M  V30 2240 C 210.853 -2.29194 -0.0166406 0
M  V30 2241 C 211.853 -1.42609 -0.742912 0
M  V30 2242 O 213.043 -1.64155 -0.583004 0
M  V30 2243 C 210.175 -3.24831 -1.0343 0
M  V30 2244 H 211.368 -2.90596 0.741208 0
M  V30 2245 H 208.921 -1.5048 0.422532 0
M  V30 2246 H 209.656 -2.68339 -1.82111 0
M  V30 2247 H 209.441 -3.88676 -0.517082 0
M  V30 2248 H 210.931 -3.89451 -1.50723 0
M  V30 2249 N 211.368 -0.403325 -1.52352 0
M  V30 2250 C 212.315 0.425011 -2.26853 0
M  V30 2251 C 213.285 1.04598 -1.29029 0
M  V30 2252 O 214.47 1.07135 -1.57882 0
M  V30 2253 C 211.61 1.53888 -3.08889 0
M  V30 2254 C 210.723 0.939396 -4.21663 0
M  V30 2255 C 209.858 2.02547 -4.91068 0
M  V30 2256 C 208.897 1.40263 -5.95813 0
M  V30 2257 N 208.034 2.4286 -6.58759 0
M  V30 2258 H 212.874 -0.21674 -2.97211 0
M  V30 2259 H 210.411 -0.118722 -1.4662 0
M  V30 2260 H 212.369 2.19558 -3.54753 0
M  V30 2261 H 210.999 2.15074 -2.40714 0
M  V30 2262 H 210.051 0.171898 -3.80011 0
M  V30 2263 H 211.363 0.44436 -4.96817 0
M  V30 2264 H 210.517 2.75958 -5.40308 0
M  V30 2265 H 209.256 2.55415 -4.15469 0
M  V30 2266 H 208.261 0.653833 -5.45898 0
M  V30 2267 H 209.486 0.881719 -6.73352 0
M  V30 2268 H 207.432 2.94871 -5.85992 0
M  V30 2269 H 207.349 1.98152 -7.2957 0
M  V30 2270 H 208.617 3.15858 -7.12639 0
M  V30 2271 N 212.846 1.57033 -0.133567 0
M  V30 2272 C 213.794 2.17348 0.828412 0
M  V30 2273 C 214.788 1.12671 1.26498 0
M  V30 2274 O 215.994 1.30947 1.23502 0
M  V30 2275 H 212.369 0.695775 0.285309 0
M  V30 2276 H 214.34 2.96935 0.295372 0
M  V30 2277 C 213.089 2.79893 2.06289 0
M  V30 2278 H 212.412 3.60147 1.73592 0
M  V30 2279 H 213.852 3.25615 2.71572 0
M  V30 2280 C 212.311 1.77713 2.86216 0
M  V30 2281 O 212.841 1.23937 3.82103 0
M  V30 2282 N 211.047 1.47321 2.50489 0
M  V30 2283 H 210.594 1.91243 1.7258 0
M  V30 2284 H 210.552 0.79199 3.04261 0
M  V30 2285 N 214.325 -0.140222 1.56975 0
M  V30 2286 C 215.255 -1.17456 2.01808 0
M  V30 2287 C 216.236 -1.44415 0.898794 0
M  V30 2288 O 217.421 -1.5522 1.16707 0
M  V30 2289 C 214.551 -2.50607 2.40444 0
M  V30 2290 C 213.505 -2.38155 3.55621 0
M  V30 2291 C 212.831 -3.76078 3.80091 0
M  V30 2292 C 214.131 -1.85991 4.88062 0
M  V30 2293 H 215.825 -0.801743 2.88466 0
M  V30 2294 H 213.371 -0.38422 1.38779 0
M  V30 2295 H 215.324 -3.23197 2.7041 0
M  V30 2296 H 214.048 -2.89737 1.50732 0
M  V30 2297 H 212.707 -1.68016 3.25832 0
M  V30 2298 H 212.355 -4.12656 2.87618 0
M  V30 2299 H 212.055 -3.68606 4.57606 0
M  V30 2300 H 213.579 -4.50206 4.12488 0
M  V30 2301 H 214.993 -2.4838 5.16701 0
M  V30 2302 H 213.39 -1.89393 5.6943 0
M  V30 2303 H 214.46 -0.816023 4.77984 0
M  V30 2304 N 215.803 -1.52179 -0.40978 0
M  V30 2305 C 217.05 -1.66206 -1.15679 0
M  V30 2306 C 217.378 -0.391674 -1.90516 0
M  V30 2307 O 216.633 0.62533 -1.8544 0
M  V30 2308 C 216.932 -2.83428 -2.17723 0
M  V30 2309 C 216.598 -4.21672 -1.59699 0
M  V30 2310 C 215.26 -4.59274 -1.43599 0
M  V30 2311 C 217.612 -5.07825 -1.17317 0
M  V30 2312 C 214.94 -5.80709 -0.836328 0
M  V30 2313 C 217.292 -6.29864 -0.587691 0
M  V30 2314 C 215.956 -6.66216 -0.413818 0
M  V30 2315 H 215.226 -0.608192 -0.423301 0
M  V30 2316 H 217.873 -1.86279 -0.444097 0
M  V30 2317 H 216.178 -2.57687 -2.95135 0
M  V30 2318 H 217.875 -2.91477 -2.75394 0
M  V30 2319 H 214.465 -3.9204 -1.73213 0
M  V30 2320 H 218.649 -4.79359 -1.28565 0
M  V30 2321 H 213.905 -6.07498 -0.689626 0
M  V30 2322 H 218.079 -6.95948 -0.250894 0
M  V30 2323 H 215.706 -7.60182 0.0529471 0
M  V30 2324 N 217.281 0.66697 -1.42791 0
M  V30 2325 C 218.211 1.79218 -1.49677 0
M  V30 2326 C 219.192 1.66405 -0.352623 0
M  V30 2327 O 220.377 1.85708 -0.567993 0
M  V30 2328 C 217.507 3.17565 -1.40605 0
M  V30 2329 C 216.461 3.45124 -2.53127 0
M  V30 2330 C 215.787 4.83127 -2.29112 0
M  V30 2331 C 217.087 3.41236 -3.95418 0
M  V30 2332 H 218.781 1.73713 -2.43853 0
M  V30 2333 H 216.327 0.83432 -1.17367 0
M  V30 2334 H 218.28 3.96022 -1.44029 0
M  V30 2335 H 217.004 3.23767 -0.429271 0
M  V30 2336 H 215.663 2.69031 -2.49034 0
M  V30 2337 H 215.311 4.85988 -1.29709 0
M  V30 2338 H 215.011 5.02528 -3.04531 0
M  V30 2339 H 216.535 5.63859 -2.34297 0
M  V30 2340 H 217.949 4.09651 -4.01073 0
M  V30 2341 H 216.346 3.72173 -4.70752 0
M  V30 2342 H 217.416 2.39665 -4.21532 0
M  V30 2343 N 218.759 1.29093 0.90403 0
M  V30 2344 C 219.707 1.13727 2.02901 0
M  V30 2345 C 220.701 0.0539853 1.69314 0
M  V30 2346 O 221.907 0.213469 1.7873 0
M  V30 2347 H 218.282 0.35117 0.664969 0
M  V30 2348 H 220.253 2.08982 2.13001 0
M  V30 2349 C 219.002 0.826066 3.37745 0
M  V30 2350 H 218.325 1.65164 3.64089 0
M  V30 2351 H 219.765 0.758559 4.17159 0
M  V30 2352 C 218.224 -0.470541 3.33598 0
M  V30 2353 O 218.754 -1.49792 3.72727 0
M  V30 2354 N 216.96 -0.474812 2.86695 0
M  V30 2355 H 216.507 0.361692 2.55048 0
M  V30 2356 H 216.465 -1.34236 2.84303 0
M  V30 2357 N 220.237 -1.11381 1.11499 0
M  V30 2358 C 221.187 -2.15555 0.74298 0
M  V30 2359 C 222.171 -1.58894 -0.253276 0
M  V30 2360 O 223.363 -1.76897 -0.0602918 0
M  V30 2361 C 220.492 -3.42782 0.188481 0
M  V30 2362 C 219.578 -4.064 1.21244 0
M  V30 2363 N 219.969 -4.44864 2.40685 0
M  V30 2364 C 218.267 -4.3333 1.05552 0
M  V30 2365 C 218.968 -4.94715 3.05994 0
M  V30 2366 N 217.944 -4.90909 2.33472 0
M  V30 2367 H 221.746 -2.43074 1.65203 0
M  V30 2368 H 219.26 -1.28401 0.994329 0
M  V30 2369 H 221.257 -4.16789 -0.0961693 0
M  V30 2370 H 219.917 -3.16727 -0.715149 0
M  V30 2371 H 220.928 -4.36876 2.78136 0
M  V30 2372 H 217.605 -4.1698 0.208372 0
M  V30 2373 H 218.995 -5.34103 4.07656 0
M  V30 2374 N 221.715 -0.905404 -1.28997 0
M  V30 2375 C 222.94 -0.549175 -1.99997 0
M  V30 2376 C 223.365 0.860276 -1.67275 0
M  V30 2377 O 222.723 1.57355 -0.900502 0
M  V30 2378 C 222.771 -0.755185 -3.52604 0
M  V30 2379 O 221.875 0.189692 -4.11964 0
M  V30 2380 H 221.216 -0.213899 -0.628604 0
M  V30 2381 H 223.746 -1.21856 -1.64354 0
M  V30 2382 H 223.756 -0.662045 -4.02593 0
M  V30 2383 H 222.431 -1.78271 -3.75755 0
M  V30 2384 H 221.008 0.0485257 -3.72868 0
M  V30 2385 N 223.193 1.4272 -0.668489 0
M  V30 2386 C 224.103 2.34596 0.0139753 0
M  V30 2387 C 225.119 1.5474 0.795703 0
M  V30 2388 O 226.295 1.87334 0.739466 0
M  V30 2389 C 223.36 3.33202 0.957982 0
M  V30 2390 C 222.421 4.28957 0.17149 0
M  V30 2391 C 221.654 5.22853 1.07053 0
M  V30 2392 O 221.877 5.21531 2.31001 0
M  V30 2393 O 220.811 5.9952 0.534727 0
M  V30 2394 H 224.637 2.9448 -0.742661 0
M  V30 2395 H 222.222 1.43117 -0.428705 0
M  V30 2396 H 224.104 3.93796 1.50008 0
M  V30 2397 H 222.779 2.758 1.69458 0
M  V30 2398 H 221.686 3.71796 -0.414558 0
M  V30 2399 H 223.019 4.89383 -0.52586 0
M  V30 2400 N 224.671 0.411399 1.52136 0
M  V30 2401 C 225.619 -0.427633 2.28635 0
M  V30 2402 C 226.613 -1.04383 1.33419 0
M  V30 2403 O 227.819 -0.981772 1.50868 0
M  V30 2404 H 224.194 -0.156689 0.735495 0
M  V30 2405 H 226.165 0.238761 2.97443 0
M  V30 2406 C 224.914 -1.53082 3.12188 0
M  V30 2407 H 224.237 -1.06601 3.85326 0
M  V30 2408 H 225.677 -2.09167 3.68816 0
M  V30 2409 C 224.136 -2.49946 2.25895 0
M  V30 2410 O 224.666 -3.53884 1.90076 0
M  V30 2411 N 222.872 -2.2021 1.8962 0
M  V30 2412 H 222.419 -1.35719 2.18948 0
M  V30 2413 H 222.377 -2.85266 1.32176 0
M  V30 2414 N 226.149 -1.5696 0.141893 0
M  V30 2415 C 227.112 -2.15316 -0.785587 0
M  V30 2416 C 228.112 -1.09366 -1.1788 0
M  V30 2417 O 229.302 -1.35031 -1.10056 0
M  V30 2418 C 226.434 -2.71211 -2.06537 0
M  V30 2419 H 227.627 -2.98608 -0.278041 0
M  V30 2420 H 225.18 -1.5593 -0.107519 0
M  V30 2421 H 225.915 -1.91571 -2.6167 0
M  V30 2422 H 225.7 -3.4872 -1.79268 0
M  V30 2423 H 227.19 -3.16189 -2.72789 0
M  V30 2424 N 227.627 0.131896 -1.57047 0
M  V30 2425 C 228.855 0.856461 -1.88341 0
M  V30 2426 C 229.27 1.74042 -0.731757 0
M  V30 2427 O 228.627 1.80051 0.297945 0
M  V30 2428 C 228.678 1.70064 -3.18999 0
M  V30 2429 O 228.399 0.852278 -4.2973 0
M  V30 2430 C 229.9 2.53148 -3.63911 0
M  V30 2431 H 227.12 0.246885 -0.62393 0
M  V30 2432 H 229.664 0.120152 -2.04147 0
M  V30 2433 H 227.819 2.38984 -3.04902 0
M  V30 2434 H 228.233 1.43329 -5.04537 0
M  V30 2435 H 229.707 3.07931 -4.58129 0
M  V30 2436 H 230.184 3.29901 -2.89935 0
M  V30 2437 H 230.79 1.89492 -3.80753 0
M  V30 2438 N 229.106 1.52395 0.401703 0
M  V30 2439 C 230.069 1.75636 1.47257 0
M  V30 2440 C 231.069 0.62628 1.48103 0
M  V30 2441 O 232.259 0.894227 1.49497 0
M  V30 2442 C 229.391 1.84553 2.86624 0
M  V30 2443 H 230.584 2.71241 1.27938 0
M  V30 2444 H 228.137 1.42923 0.632662 0
M  V30 2445 H 228.872 0.908882 3.11303 0
M  V30 2446 H 228.657 2.66715 2.87412 0
M  V30 2447 H 230.147 2.04251 3.64241 0
M  V30 2448 N 230.584 -0.659388 1.43143 0
M  V30 2449 C 231.531 -1.77249 1.47822 0
M  V30 2450 C 232.501 -1.62818 0.328558 0
M  V30 2451 O 233.686 -1.83151 0.534838 0
M  V30 2452 C 230.826 -3.15371 1.40126 0
M  V30 2453 C 229.939 -3.4098 2.65249 0
M  V30 2454 C 229.074 -4.68915 2.49584 0
M  V30 2455 C 228.113 -4.87608 3.70006 0
M  V30 2456 N 227.25 -6.06796 3.53189 0
M  V30 2457 H 232.09 -1.72584 2.42938 0
M  V30 2458 H 229.627 -0.842297 1.20598 0
M  V30 2459 H 231.585 -3.9521 1.33659 0
M  V30 2460 H 230.215 -3.19121 0.485964 0
M  V30 2461 H 229.267 -2.55282 2.8202 0
M  V30 2462 H 230.579 -3.50681 3.54717 0
M  V30 2463 H 229.733 -5.56871 2.4079 0
M  V30 2464 H 228.472 -4.61524 1.5763 0
M  V30 2465 H 227.477 -3.9809 3.79215 0
M  V30 2466 H 228.702 -4.96834 4.62961 0
M  V30 2467 H 226.648 -6.00549 2.63965 0
M  V30 2468 H 226.565 -6.17428 4.36255 0
M  V30 2469 H 227.833 -6.9739 3.48236 0
M  V30 2470 N 232.062 -1.29571 -0.897171 0
M  V30 2471 C 233.339 -1.08365 -1.62839 0
M  V30 2472 C 233.719 0.371331 -2.07808 0
M  V30 2473 O 233.067 1.3606 -1.83576 0
M  V30 2474 C 233.277 -2.0735 -2.80726 0
M  V30 2475 C 234.625 -2.38406 -3.51351 0
M  V30 2476 O 235.649 -2.05564 -2.90898 0
M  V30 2477 O 234.508 -2.9453 -4.60341 0
M  V30 2478 H 231.602 -0.415345 -0.715134 0
M  V30 2479 H 234.148 -1.40952 -0.945018 0
M  V30 2480 H 232.92 -3.05339 -2.44711 0
M  V30 2481 H 232.543 -1.75507 -3.56767 0
M  V30 2482 N 233.54 1.10788 -1.12088 0
M  V30 2483 C 234.789 1.82036 -0.868659 0
M  V30 2484 C 235.102 1.85929 0.607426 0
M  V30 2485 O 236.308 2.53346 0.97613 0
M  V30 2486 C 234.764 3.26951 -1.50435 0
M  V30 2487 C 234.372 3.31367 -3.01496 0
M  V30 2488 C 236.116 4.03053 -1.33225 0
M  V30 2489 C 234.023 4.7072 -3.58017 0
M  V30 2490 H 232.953 0.682108 -0.321318 0
M  V30 2491 H 235.604 1.24618 -1.34694 0
M  V30 2492 H 233.986 3.84343 -0.953735 0
M  V30 2493 H 235.16 2.83819 -3.6302 0
M  V30 2494 H 233.475 2.6875 -3.18061 0
M  V30 2495 H 236.072 5.05981 -1.72878 0
M  V30 2496 H 236.415 4.15387 -0.275529 0
M  V30 2497 H 236.948 3.52066 -1.85188 0
M  V30 2498 H 233.687 4.63585 -4.63432 0
M  V30 2499 H 233.207 5.1865 -3.01268 0
M  V30 2500 H 234.886 5.39685 -3.56859 0
M  V30 2501 N 235.018 0.912232 1.28515 0
M  V30 2502 C 235.981 0.404223 2.25607 0
M  V30 2503 C 236.981 -0.468602 1.53821 0
M  V30 2504 O 238.171 -0.271873 1.72065 0
M  V30 2505 C 235.303 -0.420653 3.38295 0
M  V30 2506 H 236.496 1.26188 2.7206 0
M  V30 2507 H 234.049 0.691495 1.40171 0
M  V30 2508 H 234.784 -1.29777 2.97201 0
M  V30 2509 H 234.569 0.204935 3.91564 0
M  V30 2510 H 236.059 -0.766971 4.10496 0
M  V30 2511 N 236.496 -1.42363 0.676048 0
M  V30 2512 C 237.907 -1.84649 0.275948 0
M  V30 2513 C 238.258 -1.56588 -1.18214 0
M  V30 2514 O 237.383 -1.02634 -1.90513 0
M  V30 2515 C 237.978 -3.35178 0.494053 0
M  V30 2516 C 236.537 -3.76109 0.148061 0
M  V30 2517 C 235.684 -2.65931 0.785891 0
M  V30 2518 H 238.635 -1.32192 0.878121 0
M  V30 2519 H 238.656 -3.79655 -0.25343 0
M  V30 2520 H 238.168 -3.55571 1.55535 0
M  V30 2521 H 236.269 -3.61323 -0.909742 0
M  V30 2522 H 236.382 -4.7546 0.589454 0
M  V30 2523 H 234.746 -2.53773 0.217113 0
M  V30 2524 H 235.529 -2.89146 1.85067 0
M  V30 2525 N 237.974 -0.419461 -1.51915 0
M  V30 2526 C 239.202 0.152136 -2.0634 0
M  V30 2527 C 239.617 1.37988 -1.28859 0
M  V30 2528 O 238.974 1.79243 -0.343232 0
M  V30 2529 C 239.025 0.492266 -3.58133 0
M  V30 2530 O 238.746 -0.686736 -4.32684 0
M  V30 2531 C 240.247 1.11648 -4.2901 0
M  V30 2532 H 237.467 0.0158325 -0.670813 0
M  V30 2533 H 240.011 -0.593394 -1.95702 0
M  V30 2534 H 238.166 1.18769 -3.68745 0
M  V30 2535 H 238.58 -0.400341 -5.2297 0
M  V30 2536 H 240.054 1.3046 -5.36362 0
M  V30 2537 H 240.531 2.09251 -3.86148 0
M  V30 2538 H 241.137 0.460958 -4.22795 0
M  V30 2539 N 239.452 1.56882 -0.150215 0
M  V30 2540 C 240.382 2.19935 0.784284 0
M  V30 2541 C 241.363 1.14854 1.25469 0
M  V30 2542 O 242.548 1.43209 1.31168 0
M  V30 2543 C 239.678 2.82349 2.02229 0
M  V30 2544 C 238.632 3.93285 1.68853 0
M  V30 2545 C 237.958 4.42649 2.99944 0
M  V30 2546 C 239.258 5.13904 0.932714 0
M  V30 2547 H 240.952 2.9828 0.258781 0
M  V30 2548 H 238.498 1.43473 0.123029 0
M  V30 2549 H 240.451 3.25126 2.68088 0
M  V30 2550 H 239.175 2.0134 2.57157 0
M  V30 2551 H 237.834 3.5113 1.05371 0
M  V30 2552 H 237.482 3.58458 3.52869 0
M  V30 2553 H 237.182 5.17476 2.78374 0
M  V30 2554 H 238.706 4.88099 3.66868 0
M  V30 2555 H 240.12 5.53506 1.49345 0
M  V30 2556 H 238.517 5.94515 0.81684 0
M  V30 2557 H 239.587 4.84842 -0.0749568 0
M  V30 2558 N 240.93 -0.123565 1.57115 0
M  V30 2559 C 242.158 -0.846461 1.88793 0
M  V30 2560 C 242.573 -1.73652 0.740976 0
M  V30 2561 O 241.93 -1.80207 -0.288393 0
M  V30 2562 C 241.981 -1.6837 3.19897 0
M  V30 2563 O 241.702 -0.829477 4.30176 0
M  V30 2564 C 243.203 -2.51214 3.65248 0
M  V30 2565 H 240.423 -0.243573 0.625231 0
M  V30 2566 H 242.967 -0.109324 2.04208 0
M  V30 2567 H 241.122 -2.37364 3.06165 0
M  V30 2568 H 241.536 -1.40651 5.0529 0
M  V30 2569 H 243.01 -3.05497 4.59756 0
M  V30 2570 H 243.487 -3.28359 2.9168 0
M  V30 2571 H 244.093 -1.8747 3.81752 0
M  V30 2572 N 242.408 -1.52605 -0.393616 0
M  V30 2573 C 243.338 -1.80022 -1.48709 0
M  V30 2574 C 244.319 -0.651995 -1.57108 0
M  V30 2575 O 245.504 -0.89913 -1.72132 0
M  V30 2576 C 242.634 -1.96492 -2.86371 0
M  V30 2577 C 241.588 -3.12161 -2.92813 0
M  V30 2578 C 240.914 -3.13877 -4.3288 0
M  V30 2579 C 242.214 -4.51322 -2.6288 0
M  V30 2580 H 243.908 -2.71589 -1.26015 0
M  V30 2581 H 241.454 -1.30684 -0.604778 0
M  V30 2582 H 243.407 -2.14255 -3.62867 0
M  V30 2583 H 242.131 -1.01611 -3.10391 0
M  V30 2584 H 240.79 -2.94173 -2.18764 0
M  V30 2585 H 240.438 -2.16687 -4.53933 0
M  V30 2586 H 240.138 -3.91576 -4.38112 0
M  V30 2587 H 241.662 -3.33789 -5.1129 0
M  V30 2588 H 243.076 -4.69435 -3.29096 0
M  V30 2589 H 241.473 -5.31053 -2.79468 0
M  V30 2590 H 242.543 -4.58353 -1.58242 0
M  V30 2591 N 243.887 0.651787 -1.4349 0
M  V30 2592 C 245.117 1.43728 -1.48411 0
M  V30 2593 C 245.525 1.8893 -0.10103 0
M  V30 2594 O 244.868 1.60182 0.899307 0
M  V30 2595 C 244.93 2.70411 -2.36893 0
M  V30 2596 C 244.594 2.4714 -3.8441 0
M  V30 2597 C 245.591 2.10271 -4.75481 0
M  V30 2598 C 243.276 2.6142 -4.28912 0
M  V30 2599 C 245.27 1.87982 -6.0905 0
M  V30 2600 C 242.957 2.38746 -5.62533 0
M  V30 2601 C 243.955 2.02083 -6.5242 0
M  V30 2602 O 243.643 1.79647 -7.8357 0
M  V30 2603 H 243.375 0.447962 -0.506267 0
M  V30 2604 H 245.929 0.80624 -1.88915 0
M  V30 2605 H 244.159 3.36079 -1.91278 0
M  V30 2606 H 245.848 3.32364 -2.33 0
M  V30 2607 H 246.614 1.98814 -4.42378 0
M  V30 2608 H 242.493 2.88931 -3.59222 0
M  V30 2609 H 246.037 1.5929 -6.7917 0
M  V30 2610 H 241.934 2.49806 -5.95203 0
M  V30 2611 H 242.702 1.9406 -7.95162 0
M  V30 2612 N 245.365 1.30045 0.890287 0
M  V30 2613 C 246.611 1.18737 1.64406 0
M  V30 2614 C 246.944 -0.258525 1.92472 0
M  V30 2615 O 246.219 -1.18562 1.54186 0
M  V30 2616 C 246.502 2.01087 2.98724 0
M  V30 2617 C 246.355 3.53867 2.77665 0
M  V30 2618 C 247.674 1.84457 3.9958 0
M  V30 2619 H 244.793 0.432698 0.596608 0
M  V30 2620 H 247.435 1.5962 1.0306 0
M  V30 2621 H 245.585 1.66349 3.51084 0
M  V30 2622 H 247.257 3.98637 2.32133 0
M  V30 2623 H 245.5 3.78318 2.12269 0
M  V30 2624 H 246.171 4.06772 3.7315 0
M  V30 2625 H 248.647 2.14817 3.56361 0
M  V30 2626 H 247.523 2.44411 4.91482 0
M  V30 2627 H 247.784 0.802276 4.3476 0
M  V30 2628 N 246.843 -1.10192 1.12674 0
M  V30 2629 C 248.091 -1.81845 0.881861 0
M  V30 2630 C 248.412 -1.85737 -0.593867 0
M  V30 2631 O 247.682 -1.33724 -1.4316 0
M  V30 2632 H 246.262 -0.673432 0.323261 0
M  V30 2633 H 248.924 -1.33316 1.42172 0
M  V30 2634 H 248.02 -2.85288 1.2656 0
M  V30 2635 N 248.321 -0.919034 -1.28029 0
M  V30 2636 C 249.268 -0.410005 -2.27129 0
M  V30 2637 C 250.238 0.518405 -1.57803 0
M  V30 2638 O 251.423 0.439451 -1.8567 0
M  V30 2639 C 248.563 0.339054 -3.4343 0
M  V30 2640 C 247.676 -0.622468 -4.27492 0
M  V30 2641 C 246.811 0.145567 -5.31001 0
M  V30 2642 C 245.85 -0.809226 -6.06727 0
M  V30 2643 N 244.987 -0.0743728 -7.02061 0
M  V30 2644 H 249.827 -1.26011 -2.70047 0
M  V30 2645 H 247.364 -0.632663 -1.328 0
M  V30 2646 H 249.322 0.789586 -4.0966 0
M  V30 2647 H 247.952 1.15346 -3.01488 0
M  V30 2648 H 247.004 -1.19153 -3.61257 0
M  V30 2649 H 248.316 -1.35252 -4.80113 0
M  V30 2650 H 247.47 0.656417 -6.03139 0
M  V30 2651 H 246.209 0.908643 -4.79161 0
M  V30 2652 H 245.214 -1.3314 -5.33436 0
M  V30 2653 H 246.439 -1.57194 -6.60656 0
M  V30 2654 H 244.385 0.670616 -6.52563 0
M  V30 2655 H 244.302 -0.744157 -7.52329 0
M  V30 2656 H 245.57 0.416109 -7.78389 0
M  V30 2657 N 249.799 1.42003 -0.683588 0
M  V30 2658 C 250.746 2.30798 -0.0107309 0
M  V30 2659 C 251.716 1.4645 0.783688 0
M  V30 2660 O 252.901 1.75263 0.754156 0
M  V30 2661 C 250.041 3.3238 0.928306 0
M  V30 2662 C 249.154 4.31814 0.126776 0
M  V30 2663 C 248.289 5.20468 1.06236 0
M  V30 2664 C 247.328 6.11577 0.253035 0
M  V30 2665 N 246.465 6.92754 1.14179 0
M  V30 2666 H 251.305 2.8778 -0.773727 0
M  V30 2667 H 248.842 1.41745 -0.393283 0
M  V30 2668 H 250.8 3.89813 1.48666 0
M  V30 2669 H 249.43 2.76976 1.65783 0
M  V30 2670 H 248.482 3.76427 -0.54833 0
M  V30 2671 H 249.794 4.96276 -0.501192 0
M  V30 2672 H 248.948 5.82677 1.69035 0
M  V30 2673 H 247.687 4.56204 1.7242 0
M  V30 2674 H 246.692 5.48428 -0.388108 0
M  V30 2675 H 247.917 6.77892 -0.404839 0
M  V30 2676 H 245.863 6.3111 1.78987 0
M  V30 2677 H 245.78 7.53855 0.569111 0
M  V30 2678 H 247.048 7.59441 1.75697 0
M  V30 2679 N 251.277 0.427512 1.51691 0
M  V30 2680 C 252.209 -0.424521 2.25234 0
M  V30 2681 C 253.222 -0.994671 1.2888 0
M  V30 2682 O 254.411 -0.890483 1.54702 0
M  V30 2683 C 251.511 -1.60479 2.98496 0
M  V30 2684 C 250.684 -1.15527 4.21868 0
M  V30 2685 C 249.743 -2.20454 4.77793 0
M  V30 2686 O 248.769 -1.8029 5.39893 0
M  V30 2687 N 249.971 -3.52831 4.60967 0
M  V30 2688 H 252.736 0.205749 2.98993 0
M  V30 2689 H 250.297 0.255867 1.59865 0
M  V30 2690 H 252.289 -2.30276 3.32799 0
M  V30 2691 H 250.859 -2.14061 2.27809 0
M  V30 2692 H 250.079 -0.284736 3.9317 0
M  V30 2693 H 251.367 -0.832173 5.01949 0
M  V30 2694 H 250.765 -3.88201 4.11481 0
M  V30 2695 H 249.322 -4.18551 4.99658 0
M  V30 2696 N 252.755 -1.56801 0.158532 0
M  V30 2697 C 253.685 -2.20347 -0.772609 0
M  V30 2698 C 254.666 -1.15518 -1.24859 0
M  V30 2699 O 255.851 -1.43902 -1.30406 0
M  V30 2700 C 252.981 -2.83417 -2.00729 0
M  V30 2701 C 251.935 -3.94174 -1.66765 0
M  V30 2702 C 251.261 -4.44233 -2.97592 0
M  V30 2703 C 252.561 -5.14392 -0.905447 0
M  V30 2704 H 254.255 -2.98413 -0.242959 0
M  V30 2705 H 251.801 -1.43537 -0.115419 0
M  V30 2706 H 253.754 -3.26543 -2.6636 0
M  V30 2707 H 252.478 -2.02701 -2.56086 0
M  V30 2708 H 251.137 -3.51684 -1.03508 0
M  V30 2709 H 250.785 -3.60325 -3.50963 0
M  V30 2710 H 250.485 -5.18945 -2.75626 0
M  V30 2711 H 252.009 -4.90037 -3.64274 0
M  V30 2712 H 253.423 -5.5429 -1.46408 0
M  V30 2713 H 251.82 -5.9494 -0.7853 0
M  V30 2714 H 252.89 -4.84795 0.100668 0
M  V30 2715 N 254.233 0.115231 -1.57178 0
M  V30 2716 C 255.479 0.82357 -1.85325 0
M  V30 2717 C 255.812 1.79349 -0.744814 0
M  V30 2718 O 255.087 1.92899 0.249024 0
M  V30 2719 C 255.37 1.57014 -3.24066 0
M  V30 2720 C 255.223 0.619565 -4.45513 0
M  V30 2721 C 256.542 2.52545 -3.60429 0
M  V30 2722 H 253.661 0.297948 -0.674089 0
M  V30 2723 H 256.303 0.0877138 -1.89797 0
M  V30 2724 H 254.453 2.19742 -3.20383 0
M  V30 2725 H 256.125 0.000837639 -4.613 0
M  V30 2726 H 254.368 -0.0686174 -4.33746 0
M  V30 2727 H 255.039 1.17866 -5.3927 0
M  V30 2728 H 257.515 1.9992 -3.64926 0
M  V30 2729 H 256.391 3.01811 -4.58477 0
M  V30 2730 H 256.652 3.35383 -2.88047 0
M  V30 2731 N 255.711 1.52812 0.385517 0
M  V30 2732 C 256.621 1.80766 1.49535 0
M  V30 2733 C 257.637 0.694651 1.59532 0
M  V30 2734 O 258.813 0.982611 1.75803 0
M  V30 2735 C 255.878 1.97381 2.85029 0
M  V30 2736 C 254.939 3.21295 2.84724 0
M  V30 2737 C 254.172 3.37108 4.13756 0
M  V30 2738 O 254.395 2.5765 5.08893 0
M  V30 2739 O 253.329 4.30378 4.20783 0
M  V30 2740 H 257.155 2.75015 1.28842 0
M  V30 2741 H 254.74 1.37946 0.573697 0
M  V30 2742 H 256.622 2.09996 3.65349 0
M  V30 2743 H 255.297 1.06322 3.05741 0
M  V30 2744 H 254.204 3.1412 2.03174 0
M  V30 2745 H 255.537 4.12212 2.68965 0
M  V30 2746 N 257.189 -0.644168 1.43834 0
M  V30 2747 C 258.438 -1.39985 1.45214 0
M  V30 2748 C 258.751 -1.95421 0.0835494 0
M  V30 2749 O 259.957 -2.71488 -0.0251748 0
M  V30 2750 C 258.413 -2.53384 2.55587 0
M  V30 2751 C 258.021 -2.04517 3.98594 0
M  V30 2752 C 259.765 -3.30685 2.66172 0
M  V30 2753 C 257.672 -3.1518 5.00416 0
M  V30 2754 H 256.602 -0.526005 0.540218 0
M  V30 2755 H 259.253 -0.694367 1.69855 0
M  V30 2756 H 257.635 -3.26446 2.24163 0
M  V30 2757 H 258.809 -1.38405 4.39523 0
M  V30 2758 H 257.124 -1.40068 3.92135 0
M  V30 2759 H 259.721 -4.13158 3.39418 0
M  V30 2760 H 260.064 -3.79312 1.71546 0
M  V30 2761 H 260.597 -2.64708 2.96942 0
M  V30 2762 H 257.336 -2.71511 5.96625 0
M  V30 2763 H 256.856 -3.79974 4.64091 0
M  V30 2764 H 258.535 -3.80166 5.23529 0
M  V30 2765 N 258.668 -1.30515 -0.883378 0
M  V30 2766 C 259.578 -1.18959 -2.02203 0
M  V30 2767 C 260.594 -0.109172 -1.73657 0
M  V30 2768 O 261.77 -0.324413 -1.9877 0
M  V30 2769 C 258.835 -0.883871 -3.35244 0
M  V30 2770 C 257.896 -2.04982 -3.77201 0
M  V30 2771 C 257.129 -1.75859 -5.03894 0
M  V30 2772 O 257.352 -0.687276 -5.66244 0
M  V30 2773 O 256.286 -2.61146 -5.42297 0
M  V30 2774 H 260.112 -2.14616 -2.1488 0
M  V30 2775 H 257.697 -1.10124 -1.0096 0
M  V30 2776 H 259.579 -0.728644 -4.15053 0
M  V30 2777 H 258.254 0.0427798 -3.23672 0
M  V30 2778 H 257.161 -2.26038 -2.9809 0
M  V30 2779 H 258.494 -2.95825 -3.93381 0
M  V30 2780 N 260.146 1.09593 -1.13257 0
M  V30 2781 C 261.093 2.1618 -0.808381 0
M  V30 2782 C 262.063 1.64517 0.228754 0
M  V30 2783 O 263.248 1.9053 0.101381 0
M  V30 2784 C 260.388 3.43973 -0.278675 0
M  V30 2785 C 259.501 4.09545 -1.37466 0
M  V30 2786 C 258.636 5.25088 -0.803479 0
M  V30 2787 C 257.675 5.82579 -1.87799 0
M  V30 2788 N 256.812 6.89486 -1.32488 0
M  V30 2789 H 261.652 2.43254 -1.72138 0
M  V30 2790 H 259.189 1.19392 -0.859294 0
M  V30 2791 H 261.147 4.17174 0.0465583 0
M  V30 2792 H 259.777 3.17223 0.597459 0
M  V30 2793 H 258.829 3.34226 -1.81652 0
M  V30 2794 H 260.141 4.48307 -2.18684 0
M  V30 2795 H 259.295 6.05178 -0.429427 0
M  V30 2796 H 258.034 4.87684 0.0397956 0
M  V30 2797 H 257.039 5.01152 -2.26113 0
M  V30 2798 H 258.264 6.22045 -2.72463 0
M  V30 2799 H 256.21 6.54064 -0.503575 0
M  V30 2800 H 256.127 7.27007 -2.07355 0
M  V30 2801 H 257.395 7.73336 -0.978336 0
M  V30 2802 N 261.624 0.925811 1.2754 0
M  V30 2803 C 262.87 0.566092 1.94739 0
M  V30 2804 C 263.203 -0.890057 1.72603 0
M  V30 2805 O 262.478 -1.63467 1.05399 0
M  V30 2806 C 262.761 0.89054 3.48915 0
M  V30 2807 C 262.614 2.4003 3.80402 0
M  V30 2808 C 263.933 0.395101 4.38323 0
M  V30 2809 H 261.052 0.20714 0.707292 0
M  V30 2810 H 263.694 1.15725 1.50691 0
M  V30 2811 H 261.844 0.387452 3.86563 0
M  V30 2812 H 263.516 2.97494 3.52555 0
M  V30 2813 H 261.759 2.85028 3.2702 0
M  V30 2814 H 262.43 2.57785 4.8811 0
M  V30 2815 H 264.906 0.826241 4.07814 0
M  V30 2816 H 263.782 0.651086 5.45025 0
M  V30 2817 H 264.043 -0.704798 4.36446 0
M  V30 2818 N 263.102 -1.41638 0.69111 0
M  V30 2819 C 264.348 -2.01598 0.220519 0
M  V30 2820 C 264.681 -1.54594 -1.17535 0
M  V30 2821 O 263.956 -0.755177 -1.79241 0
M  V30 2822 C 264.239 -3.59062 0.273243 0
M  V30 2823 C 264.092 -4.16203 1.70573 0
M  V30 2824 C 265.411 -4.38546 -0.369457 0
M  V30 2825 H 262.53 -0.732468 0.0816045 0
M  V30 2826 H 265.172 -1.68445 0.878986 0
M  V30 2827 H 263.322 -3.87435 -0.287411 0
M  V30 2828 H 264.994 -3.98722 2.31989 0
M  V30 2829 H 263.237 -3.71414 2.2413 0
M  V30 2830 H 263.908 -5.25358 1.69419 0
M  V30 2831 H 266.384 -4.1596 0.107977 0
M  V30 2832 H 265.26 -5.48069 -0.302002 0
M  V30 2833 H 265.521 -4.17662 -1.44951 0
M  V30 2834 N 264.58 -0.43555 -1.51462 0
M  V30 2835 C 265.51 0.367376 -2.30592 0
M  V30 2836 C 266.491 1.02263 -1.35928 0
M  V30 2837 O 267.676 1.02661 -1.64847 0
M  V30 2838 C 264.806 1.46983 -3.14664 0
M  V30 2839 C 263.76 0.938161 -4.17591 0
M  V30 2840 C 263.086 2.13622 -4.90173 0
M  V30 2841 C 264.386 -0.0261621 -5.22293 0
M  V30 2842 H 266.08 -0.292969 -2.97963 0
M  V30 2843 H 263.626 -0.14234 -1.43295 0
M  V30 2844 H 265.579 2.03873 -3.688 0
M  V30 2845 H 264.303 2.15843 -2.4511 0
M  V30 2846 H 262.962 0.391481 -3.64504 0
M  V30 2847 H 262.61 2.81098 -4.17124 0
M  V30 2848 H 262.31 1.78688 -5.59772 0
M  V30 2849 H 263.834 2.7107 -5.47132 0
M  V30 2850 H 265.248 0.452384 -5.71512 0
M  V30 2851 H 263.645 -0.287992 -5.99409 0
M  V30 2852 H 264.715 -0.963391 -4.75233 0
M  V30 2853 N 266.058 1.56714 -0.166846 0
M  V30 2854 C 267.008 2.14338 0.777382 0
M  V30 2855 C 267.992 1.07642 1.19591 0
M  V30 2856 O 269.184 1.33775 1.15902 0
M  V30 2857 C 266.313 2.78417 2.00846 0
M  V30 2858 C 265.399 3.92264 1.61212 0
M  V30 2859 N 265.79 4.97268 0.925104 0
M  V30 2860 C 264.088 4.03342 1.90346 0
M  V30 2861 C 264.789 5.77093 0.730627 0
M  V30 2862 N 263.765 5.2854 1.27067 0
M  V30 2863 H 267.567 2.9289 0.243466 0
M  V30 2864 H 265.081 1.62364 0.0339954 0
M  V30 2865 H 267.078 3.18073 2.69509 0
M  V30 2866 H 265.738 2.01344 2.54736 0
M  V30 2867 H 266.749 5.14601 0.583646 0
M  V30 2868 H 263.426 3.37368 2.45946 0
M  V30 2869 H 264.816 6.71638 0.187668 0
M  V30 2870 N 267.536 -0.106894 1.57237 0
M  V30 2871 C 268.947 -0.662723 1.74542 0
M  V30 2872 C 269.298 -1.7971 0.787319 0
M  V30 2873 O 268.423 -2.16368 -0.0369636 0
M  V30 2874 C 269.018 -1.20896 3.16496 0
M  V30 2875 C 267.577 -1.71096 3.35266 0
M  V30 2876 C 266.724 -0.615642 2.7038 0
M  V30 2877 H 269.675 0.119106 1.58252 0
M  V30 2878 H 269.696 -2.07847 3.18716 0
M  V30 2879 H 269.208 -0.383122 3.86204 0
M  V30 2880 H 267.309 -2.56119 2.70618 0
M  V30 2881 H 267.422 -1.81208 4.43509 0
M  V30 2882 H 265.786 -1.05222 2.31949 0
M  V30 2883 H 266.569 0.199419 3.4272 0
M  V30 2884 N 269.014 -1.53014 -0.377408 0
M  V30 2885 C 269.962 -1.7927 -1.48206 0
M  V30 2886 C 270.956 -0.661195 -1.55963 0
M  V30 2887 O 272.162 -0.843908 -1.58991 0
M  V30 2888 H 268.537 -0.567425 -0.493491 0
M  V30 2889 H 270.508 -2.71753 -1.2326 0
M  V30 2890 C 269.257 -1.98894 -2.85196 0
M  V30 2891 H 268.58 -2.85395 -2.79981 0
M  V30 2892 H 270.02 -2.21249 -3.61698 0
M  V30 2893 C 268.479 -0.764691 -3.28107 0
M  V30 2894 O 269.009 0.0523226 -4.01666 0
M  V30 2895 N 267.215 -0.591493 -2.84517 0
M  V30 2896 H 266.762 -1.25749 -2.24822 0
M  V30 2897 H 266.72 0.226253 -3.13585 0
M  V30 2898 N 270.492 0.636531 -1.44174 0
M  V30 2899 C 271.722 1.42146 -1.49927 0
M  V30 2900 C 272.13 1.88812 -0.121063 0
M  V30 2901 O 271.473 1.61126 0.882267 0
M  V30 2902 C 271.535 2.67883 -2.39748 0
M  V30 2903 C 271.199 2.43048 -3.8701 0
M  V30 2904 C 272.196 2.05216 -4.77684 0
M  V30 2905 C 269.881 2.56856 -4.3166 0
M  V30 2906 C 271.875 1.81512 -6.11009 0
M  V30 2907 C 269.562 2.32766 -5.65034 0
M  V30 2908 C 270.56 1.95152 -6.54526 0
M  V30 2909 O 270.248 1.71326 -7.85431 0
M  V30 2910 H 269.98 0.442567 -0.51099 0
M  V30 2911 H 272.534 0.786158 -1.8976 0
M  V30 2912 H 270.764 3.34032 -1.94832 0
M  V30 2913 H 272.453 3.29874 -2.36513 0
M  V30 2914 H 273.219 1.94111 -4.44462 0
M  V30 2915 H 269.098 2.85104 -3.62266 0
M  V30 2916 H 272.642 1.52077 -6.80822 0
M  V30 2917 H 268.539 2.43479 -5.97819 0
M  V30 2918 H 269.307 1.85616 -7.97176 0
M  V30 2919 N 271.97 1.30982 0.876444 0
M  V30 2920 C 272.92 1.14688 1.97055 0
M  V30 2921 C 273.904 0.0596593 1.60789 0
M  V30 2922 O 275.096 0.283892 1.74708 0
M  V30 2923 C 272.225 0.849627 3.3262 0
M  V30 2924 C 271.311 1.97752 3.75173 0
M  V30 2925 N 271.702 3.22384 3.89746 0
M  V30 2926 C 270 1.8758 4.04635 0
M  V30 2927 C 270.701 3.96121 4.25985 0
M  V30 2928 N 269.677 3.24237 4.36315 0
M  V30 2929 H 273.479 2.09204 2.06424 0
M  V30 2930 H 270.993 1.22445 1.06682 0
M  V30 2931 H 272.99 0.713895 4.10742 0
M  V30 2932 H 271.65 -0.087376 3.24582 0
M  V30 2933 H 272.661 3.57575 3.74647 0
M  V30 2934 H 269.338 1.01303 4.05024 0
M  V30 2935 H 270.728 5.03491 4.44911 0
M  V30 2936 N 273.449 -1.08991 1.13837 0
M  V30 2937 C 274.381 -2.15606 0.777612 0
M  V30 2938 C 275.394 -1.61533 -0.202739 0
M  V30 2939 O 276.583 -1.78491 0.0181055 0
M  V30 2940 C 273.683 -3.3864 0.132623 0
M  V30 2941 C 272.856 -4.22115 1.1462 0
M  V30 2942 C 271.915 -5.23564 0.526074 0
M  V30 2943 O 270.941 -5.56678 1.18735 0
M  V30 2944 N 272.143 -5.76266 -0.699866 0
M  V30 2945 H 274.908 -2.47159 1.69506 0
M  V30 2946 H 272.469 -1.24747 1.03198 0
M  V30 2947 H 274.461 -4.03626 -0.29459 0
M  V30 2948 H 273.031 -3.04938 -0.687849 0
M  V30 2949 H 272.251 -3.53199 1.75055 0
M  V30 2950 H 273.539 -4.74709 1.83109 0
M  V30 2951 H 272.937 -5.51585 -1.25581 0
M  V30 2952 H 271.494 -6.42963 -1.06968 0
M  V30 2953 N 274.927 -0.932562 -1.27047 0
M  V30 2954 C 276.173 -0.576412 -1.94436 0
M  V30 2955 C 276.506 0.880891 -1.73072 0
M  V30 2956 O 275.781 1.62905 -1.06264 0
M  V30 2957 C 276.064 -0.909031 -3.48437 0
M  V30 2958 C 275.917 -2.42044 -3.79123 0
M  V30 2959 C 277.236 -0.418341 -4.38107 0
M  V30 2960 H 274.355 -0.210888 -0.706184 0
M  V30 2961 H 276.997 -1.16522 -1.50075 0
M  V30 2962 H 275.147 -0.407947 -3.86352 0
M  V30 2963 H 276.819 -2.99359 -3.50973 0
M  V30 2964 H 275.062 -2.86758 -3.25503 0
M  V30 2965 H 275.733 -2.6037 -4.86736 0
M  V30 2966 H 278.209 -0.847856 -4.0737 0
M  V30 2967 H 277.085 -0.679981 -5.44672 0
M  V30 2968 H 277.346 0.681642 -4.36814 0
M  V30 2969 N 276.405 1.4127 -0.698611 0
M  V30 2970 C 277.682 1.94955 -0.158762 0
M  V30 2971 C 278.062 1.63781 1.33188 0
M  V30 2972 O 277.41 0.946423 2.07979 0
M  V30 2973 C 277.62 3.46044 -0.453309 0
M  V30 2974 C 278.968 4.22872 -0.382707 0
M  V30 2975 O 279.992 3.54076 -0.388396 0
M  V30 2976 O 278.851 5.45407 -0.345463 0
M  V30 2977 H 275.945 0.82683 -0.0167505 0
M  V30 2978 H 278.491 1.50971 -0.77498 0
M  V30 2979 H 277.263 3.62028 -1.48498 0
M  V30 2980 H 276.886 3.97128 0.19373 0
M  V30 2981 N 277.883 0.443576 1.51229 0
M  V30 2982 C 279.132 -0.122332 2.01329 0
M  V30 2983 C 279.445 -1.43237 1.33201 0
M  V30 2984 O 280.651 -2.0816 1.74304 0
M  V30 2985 C 279.107 -0.268551 3.58897 0
M  V30 2986 C 278.715 1.03142 4.35965 0
M  V30 2987 C 280.459 -0.787894 4.17124 0
M  V30 2988 C 278.366 0.850504 5.85252 0
M  V30 2989 H 277.296 -0.0494929 0.752374 0
M  V30 2990 H 279.947 0.574289 1.74282 0
M  V30 2991 H 278.329 -1.02832 3.82415 0
M  V30 2992 H 279.503 1.80001 4.24189 0
M  V30 2993 H 277.818 1.47977 3.89219 0
M  V30 2994 H 280.415 -0.939841 5.26375 0
M  V30 2995 H 280.758 -1.77201 3.76703 0
M  V30 2996 H 281.291 -0.0862669 3.97706 0
M  V30 2997 H 278.03 1.80718 6.30096 0
M  V30 2998 H 277.55 0.121825 5.99676 0
M  V30 2999 H 279.229 0.506163 6.45017 0
M  V30 3000 N 279.361 -1.56624 0.175154 0
M  V30 3001 C 280.609 -1.96609 -0.467885 0
M  V30 3002 C 280.93 -1.06238 -1.63519 0
M  V30 3003 O 280.2 -0.129523 -1.95471 0
M  V30 3004 H 278.78 -0.726008 -0.175845 0
M  V30 3005 H 281.442 -1.93195 0.257234 0
M  V30 3006 H 280.538 -3.00989 -0.825342 0
M  V30 3007 N 280.839 0.0985539 -1.57292 0
M  V30 3008 C 281.769 1.12064 -2.04851 0
M  V30 3009 C 282.75 1.41981 -0.936767 0
M  V30 3010 O 283.935 1.52071 -1.20781 0
M  V30 3011 C 281.065 2.44144 -2.47004 0
M  V30 3012 C 280.019 2.28643 -3.6181 0
M  V30 3013 C 279.345 3.65869 -3.89929 0
M  V30 3014 C 280.645 1.72986 -4.92822 0
M  V30 3015 H 282.339 0.724979 -2.9049 0
M  V30 3016 H 279.885 0.34729 -1.39749 0
M  V30 3017 H 281.838 3.15914 -2.78884 0
M  V30 3018 H 280.562 2.85639 -1.5836 0
M  V30 3019 H 279.221 1.59318 -3.30172 0
M  V30 3020 H 278.869 4.04885 -2.98458 0
M  V30 3021 H 278.569 3.56344 -4.67218 0
M  V30 3022 H 280.093 4.39112 -4.2428 0
M  V30 3023 H 281.507 2.34593 -5.23105 0
M  V30 3024 H 279.904 1.74229 -5.74251 0
M  V30 3025 H 280.974 0.689007 -4.7998 0
M  V30 3026 N 282.317 1.53212 0.369288 0
M  V30 3027 C 283.566 1.68436 1.10961 0
M  V30 3028 C 283.879 0.440738 1.9057 0
M  V30 3029 O 285.085 0.473446 2.6734 0
M  V30 3030 C 283.541 2.97744 2.0218 0
M  V30 3031 C 283.149 4.29355 1.279 0
M  V30 3032 C 284.893 3.22334 2.76226 0
M  V30 3033 C 282.8 5.49755 2.17999 0
M  V30 3034 H 281.73 0.627568 0.41794 0
M  V30 3035 H 284.381 1.79713 0.370884 0
M  V30 3036 H 282.763 2.8026 2.79768 0
M  V30 3037 H 283.937 4.57458 0.554007 0
M  V30 3038 H 282.252 4.11179 0.657311 0
M  V30 3039 H 284.849 4.09471 3.43857 0
M  V30 3040 H 285.192 2.38238 3.41392 0
M  V30 3041 H 285.725 3.40475 2.05723 0
M  V30 3042 H 282.464 6.36318 1.57417 0
M  V30 3043 H 281.984 5.25937 2.88359 0
M  V30 3044 H 283.663 5.84401 2.77641 0
M  V30 3045 N 283.795 -0.628877 1.44509 0
M  V30 3046 C 284.742 -1.74074 1.51549 0
M  V30 3047 C 285.712 -1.62084 0.363021 0
M  V30 3048 O 286.897 -1.81975 0.573567 0
M  V30 3049 C 284.037 -3.12328 1.46784 0
M  V30 3050 C 283.15 -3.35277 2.72422 0
M  V30 3051 C 282.285 -4.63515 2.59475 0
M  V30 3052 C 281.324 -4.7965 3.80266 0
M  V30 3053 N 280.461 -5.99168 3.65981 0
M  V30 3054 H 285.301 -1.67392 2.46544 0
M  V30 3055 H 282.838 -0.816527 1.22357 0
M  V30 3056 H 284.796 -3.92286 1.42012 0
M  V30 3057 H 283.426 -3.18018 0.553544 0
M  V30 3058 H 282.478 -2.49242 2.87372 0
M  V30 3059 H 283.79 -3.43078 3.62076 0
M  V30 3060 H 282.944 -5.51638 2.52548 0
M  V30 3061 H 281.683 -4.58076 1.67384 0
M  V30 3062 H 280.688 -3.89957 3.87574 0
M  V30 3063 H 281.913 -4.86902 4.73395 0
M  V30 3064 H 279.859 -5.94814 2.76644 0
M  V30 3065 H 279.776 -6.08035 4.49254 0
M  V30 3066 H 281.044 -6.89846 3.6295 0
M  V30 3067 N 285.273 -1.31445 -0.869486 0
M  V30 3068 C 286.203 -1.21727 -1.99261 0
M  V30 3069 C 287.184 -0.104359 -1.6978 0
M  V30 3070 O 288.369 -0.289038 -1.92037 0
M  V30 3071 C 285.499 -0.924317 -3.34774 0
M  V30 3072 C 284.453 -1.99685 -3.78563 0
M  V30 3073 C 283.779 -1.55658 -5.11541 0
M  V30 3074 C 285.079 -3.41003 -3.95619 0
M  V30 3075 H 286.773 -2.1569 -2.07649 0
M  V30 3076 H 284.319 -1.03839 -0.997675 0
M  V30 3077 H 286.272 -0.842934 -4.12883 0
M  V30 3078 H 284.996 0.0509793 -3.2656 0
M  V30 3079 H 283.655 -2.06813 -3.02694 0
M  V30 3080 H 283.303 -0.569132 -4.9977 0
M  V30 3081 H 283.003 -2.27409 -5.41811 0
M  V30 3082 H 284.527 -1.48928 -5.92159 0
M  V30 3083 H 285.941 -3.36547 -4.64122 0
M  V30 3084 H 284.338 -4.10975 -4.37286 0
M  V30 3085 H 285.408 -3.81754 -2.98985 0
M  V30 3086 N 286.751 1.08385 -1.14413 0
M  V30 3087 C 287.698 2.15311 -0.831265 0
M  V30 3088 C 288.668 1.64751 0.211292 0
M  V30 3089 O 289.853 1.90627 0.0811674 0
M  V30 3090 C 286.993 3.43658 -0.315143 0
M  V30 3091 C 286.106 4.08064 -1.41802 0
M  V30 3092 C 285.241 5.24207 -0.859126 0
M  V30 3093 C 284.28 5.80554 -1.93967 0
M  V30 3094 N 283.417 6.88042 -1.39793 0
M  V30 3095 H 288.257 2.41415 -1.74708 0
M  V30 3096 H 285.794 1.18474 -0.871909 0
M  V30 3097 H 287.752 4.172 0.00230884 0
M  V30 3098 H 286.382 3.17839 0.56378 0
M  V30 3099 H 285.434 3.3228 -1.85187 0
M  V30 3100 H 286.746 4.45962 -2.23427 0
M  V30 3101 H 285.9 6.04689 -0.49359 0
M  V30 3102 H 284.639 4.87699 -0.011932 0
M  V30 3103 H 283.644 4.98725 -2.31415 0
M  V30 3104 H 284.869 6.19121 -2.79046 0
M  V30 3105 H 282.815 6.53493 -0.572919 0
M  V30 3106 H 282.732 7.24767 -2.15054 0
M  V30 3107 H 284 7.72255 -1.0603 0
M  V30 3108 N 288.23 0.939286 1.26551 0
M  V30 3109 C 289.162 0.404704 2.25599 0
M  V30 3110 C 290.175 -0.470983 1.55838 0
M  V30 3111 O 291.364 -0.281734 1.76263 0
M  V30 3112 C 288.464 -0.43764 3.36062 0
M  V30 3113 C 287.637 0.421449 4.35365 0
M  V30 3114 C 286.696 -0.36015 5.24966 0
M  V30 3115 O 285.722 0.236167 5.6871 0
M  V30 3116 N 286.924 -1.65715 5.56344 0
M  V30 3117 H 289.689 1.25618 2.72103 0
M  V30 3118 H 287.25 0.807963 1.40298 0
M  V30 3119 H 289.242 -0.967866 3.92956 0
M  V30 3120 H 287.812 -1.18991 2.89067 0
M  V30 3121 H 287.032 1.1329 3.7757 0
M  V30 3122 H 288.32 1.00835 4.98708 0
M  V30 3123 H 287.718 -2.16378 5.22682 0
M  V30 3124 H 286.275 -2.13366 6.15888 0
M  V30 3125 N 289.708 -1.40897 0.706093 0
M  V30 3126 C 290.655 -2.30751 0.0474474 0
M  V30 3127 C 291.625 -1.47678 -0.76029 0
M  V30 3128 O 292.81 -1.76441 -0.726177 0
M  V30 3129 C 289.95 -3.33815 -0.875309 0
M  V30 3130 C 289.063 -4.31961 -0.0580623 0
M  V30 3131 C 288.198 -5.22093 -0.979425 0
M  V30 3132 C 287.237 -6.11902 -0.155706 0
M  V30 3133 N 286.374 -6.94482 -1.03144 0
M  V30 3134 H 291.214 -2.86513 0.819413 0
M  V30 3135 H 288.751 -1.41102 0.415783 0
M  V30 3136 H 290.709 -3.92129 -1.42446 0
M  V30 3137 H 289.339 -2.79579 -1.61356 0
M  V30 3138 H 288.391 -3.75507 0.608147 0
M  V30 3139 H 289.703 -4.95415 0.580082 0
M  V30 3140 H 288.857 -5.85292 -1.59744 0
M  V30 3141 H 287.596 -4.5889 -1.65141 0
M  V30 3142 H 286.601 -5.47742 0.475309 0
M  V30 3143 H 287.826 -6.77162 0.512635 0
M  V30 3144 H 285.772 -6.33877 -1.68924 0
M  V30 3145 H 285.689 -7.54665 -0.449108 0
M  V30 3146 H 286.957 -7.6214 -1.63593 0
M  V30 3147 N 291.186 -0.45159 -1.50991 0
M  V30 3148 C 292.432 0.110237 -2.025 0
M  V30 3149 C 292.765 1.41109 -1.33424 0
M  V30 3150 O 292.04 1.89135 -0.453659 0
M  V30 3151 C 292.323 0.314271 -3.58726 0
M  V30 3152 C 292.176 -1.00623 -4.38401 0
M  V30 3153 C 293.495 1.07767 -4.26702 0
M  V30 3154 H 290.614 0.0385897 -0.735989 0
M  V30 3155 H 293.256 -0.593374 -1.80497 0
M  V30 3156 H 291.406 0.913601 -3.77605 0
M  V30 3157 H 293.078 -1.64064 -4.31139 0
M  V30 3158 H 291.321 -1.6075 -4.02917 0
M  V30 3159 H 291.992 -0.817341 -5.45915 0
M  V30 3160 H 294.468 0.56986 -4.12179 0
M  V30 3161 H 293.344 1.18921 -5.35863 0
M  V30 3162 H 293.605 2.10939 -3.88532 0
M  V30 3163 N 292.664 1.56529 -0.183458 0
M  V30 3164 C 293.594 2.21549 0.737456 0
M  V30 3165 C 294.575 1.17489 1.23005 0
M  V30 3166 O 295.76 1.45959 1.281 0
M  V30 3167 C 292.89 2.86575 1.96194 0
M  V30 3168 C 291.844 3.96778 1.60473 0
M  V30 3169 C 291.17 4.48911 2.90487 0
M  V30 3170 C 292.47 5.15767 0.823497 0
M  V30 3171 H 294.164 2.98761 0.195453 0
M  V30 3172 H 291.71 1.43702 0.0925686 0
M  V30 3173 H 293.663 3.30739 2.61131 0
M  V30 3174 H 292.387 2.06749 2.52828 0
M  V30 3175 H 291.046 3.53286 0.978997 0
M  V30 3176 H 290.694 3.65862 3.45186 0
M  V30 3177 H 290.394 5.23265 2.67335 0
M  V30 3178 H 291.918 4.95771 3.56432 0
M  V30 3179 H 293.332 5.56549 1.37571 0
M  V30 3180 H 291.729 5.96114 0.690551 0
M  V30 3181 H 292.799 4.84574 -0.177782 0
M  V30 3182 N 294.142 -0.090211 1.57342 0
M  V30 3183 C 295.388 -0.793982 1.86611 0
M  V30 3184 C 295.721 -1.78142 0.773252 0
M  V30 3185 O 294.996 -1.93271 -0.218304 0
M  V30 3186 C 295.279 -1.51839 3.26523 0
M  V30 3187 C 295.132 -0.548609 4.46442 0
M  V30 3188 C 296.451 -2.46779 3.64401 0
M  V30 3189 H 293.57 -0.287186 0.678744 0
M  V30 3190 H 296.212 -0.0575076 1.89913 0
M  V30 3191 H 294.362 -2.14617 3.23839 0
M  V30 3192 H 296.034 0.0725513 4.61243 0
M  V30 3193 H 294.277 0.137614 4.33582 0
M  V30 3194 H 294.948 -1.09271 5.41076 0
M  V30 3195 H 297.424 -1.94089 3.68061 0
M  V30 3196 H 296.3 -2.94479 4.63221 0
M  V30 3197 H 296.561 -3.30758 2.93346 0
M  V30 3198 N 295.62 -1.53406 -0.361157 0
M  V30 3199 C 296.568 -1.80832 -1.46296 0
M  V30 3200 C 297.562 -0.677699 -1.55253 0
M  V30 3201 O 298.768 -0.860723 -1.58087 0
M  V30 3202 H 295.143 -0.572627 -0.487445 0
M  V30 3203 H 297.114 -2.73045 -1.20371 0
M  V30 3204 C 295.863 -2.01907 -2.8307 0
M  V30 3205 H 295.186 -2.88349 -2.76938 0
M  V30 3206 H 296.626 -2.25072 -3.59331 0
M  V30 3207 C 295.085 -0.799449 -3.27277 0
M  V30 3208 O 295.615 0.00971761 -4.01699 0
M  V30 3209 N 293.821 -0.621637 -2.83873 0
M  V30 3210 H 293.368 -1.28126 -2.23476 0
M  V30 3211 H 293.326 0.19298 -3.13807 0
M  V30 3212 N 297.098 0.621204 -1.44841 0
M  V30 3213 C 298.008 1.7612 -1.5498 0
M  V30 3214 C 299.024 1.68477 -0.434927 0
M  V30 3215 O 300.2 1.89076 -0.693693 0
M  V30 3216 C 297.265 3.1254 -1.50065 0
M  V30 3217 C 296.326 3.31741 -2.72482 0
M  V30 3218 C 295.559 4.61653 -2.67792 0
M  V30 3219 O 295.782 5.431 -1.74352 0
M  V30 3220 O 294.716 4.83271 -3.58794 0
M  V30 3221 H 298.542 1.70518 -2.51311 0
M  V30 3222 H 296.127 0.783643 -1.27198 0
M  V30 3223 H 298.009 3.93844 -1.49882 0
M  V30 3224 H 296.684 3.18663 -0.568806 0
M  V30 3225 H 295.591 2.50077 -2.7823 0
M  V30 3226 H 296.924 3.30486 -3.64746 0
M  V30 3227 N 298.576 1.31904 0.862503 0
M  V30 3228 C 299.992 1.10724 1.14945 0
M  V30 3229 C 300.192 -0.117421 2.01158 0
M  V30 3230 O 299.248 -0.804595 2.39338 0
M  V30 3231 C 300.561 2.38267 1.83437 0
M  V30 3232 C 302.109 2.43949 1.96106 0
M  V30 3233 C 302.584 3.71394 2.68013 0
M  V30 3234 N 304.075 3.72331 2.75543 0
M  V30 3235 C 304.81 4.67641 3.31812 0
M  V30 3236 N 304.306 5.73313 3.88953 0
M  V30 3237 N 306.099 4.5515 3.29841 0
M  V30 3238 H 298.25 2.10436 0.288191 0
M  V30 3239 H 300.513 0.928705 0.190292 0
M  V30 3240 H 300.219 3.27759 1.27542 0
M  V30 3241 H 300.093 2.48633 2.83657 0
M  V30 3242 H 302.48 1.54922 2.51164 0
M  V30 3243 H 302.561 2.37543 0.949059 0
M  V30 3244 H 302.205 4.60791 2.13621 0
M  V30 3245 H 302.135 3.75069 3.69636 0
M  V30 3246 H 304.626 2.95947 2.34997 0
M  V30 3247 H 304.939 6.42107 4.30022 0
M  V30 3248 H 303.284 5.77077 3.87308 0
M  V30 3249 H 306.475 3.71766 2.84443 0
M  V30 3250 H 306.648 5.29604 3.73394 0
M  V30 3251 N 300.054 -1.07777 1.14986 0
M  V30 3252 C 301.3 -1.80557 0.923422 0
M  V30 3253 C 301.633 -1.86298 -0.548337 0
M  V30 3254 O 300.908 -1.34354 -1.40639 0
M  V30 3255 C 301.191 -3.25839 1.53299 0
M  V30 3256 C 301.044 -3.28269 3.07505 0
M  V30 3257 C 302.363 -4.22991 1.21518 0
M  V30 3258 H 299.482 -0.655493 0.336894 0
M  V30 3259 H 302.124 -1.26144 1.42083 0
M  V30 3260 H 300.274 -3.72306 1.10999 0
M  V30 3261 H 301.946 -2.90079 3.58681 0
M  V30 3262 H 300.189 -2.67355 3.4162 0
M  V30 3263 H 300.86 -4.30691 3.45266 0
M  V30 3264 H 303.336 -3.84894 1.581 0
M  V30 3265 H 302.212 -5.22945 1.66793 0
M  V30 3266 H 302.473 -4.41904 0.131505 0
M  V30 3267 N 301.532 -0.945985 -1.26051 0
M  V30 3268 C 302.465 -0.403619 -2.24602 0
M  V30 3269 C 303.443 0.510241 -1.54387 0
M  V30 3270 O 304.627 0.446593 -1.83133 0
M  V30 3271 C 301.754 0.419564 -3.36091 0
M  V30 3272 C 300.8 -0.433454 -4.24292 0
M  V30 3273 S 301.633 -1.86037 -5.02146 0
M  V30 3274 C 302.789 -1.04538 -6.17108 0
M  V30 3275 H 303.022 -1.23883 -2.7026 0
M  V30 3276 H 300.555 -0.749438 -1.34992 0
M  V30 3277 H 302.513 0.888595 -4.00767 0
M  V30 3278 H 301.174 1.22951 -2.89036 0
M  V30 3279 H 300.367 0.197486 -5.03613 0
M  V30 3280 H 299.969 -0.837357 -3.64506 0
M  V30 3281 H 302.261 -0.289923 -6.76879 0
M  V30 3282 H 303.204 -1.81222 -6.84518 0
M  V30 3283 H 303.612 -0.579319 -5.61519 0
M  V30 3284 N 303.011 1.40521 -0.713556 0
M  V30 3285 C 304.422 1.83853 -0.324807 0
M  V30 3286 C 304.773 1.59667 1.14021 0
M  V30 3287 O 303.898 1.07649 1.87725 0
M  V30 3288 C 304.493 3.33751 -0.582746 0
M  V30 3289 C 303.052 3.75584 -0.247727 0
M  V30 3290 C 302.199 2.63753 -0.856121 0
M  V30 3291 H 305.15 1.29817 -0.91286 0
M  V30 3292 H 305.171 3.80194 0.152682 0
M  V30 3293 H 304.683 3.51322 -1.64908 0
M  V30 3294 H 302.784 3.63608 0.813624 0
M  V30 3295 H 302.897 4.7373 -0.715307 0
M  V30 3296 H 301.261 2.53108 -0.28432 0
M  V30 3297 H 302.044 2.84137 -1.92668 0
M  V30 3298 N 304.489 0.459591 1.5075 0
M  V30 3299 C 305.738 -0.100971 2.01447 0
M  V30 3300 C 306.051 -1.41816 1.34713 0
M  V30 3301 O 307.257 -2.06299 1.76502 0
M  V30 3302 C 305.713 -0.23047 3.59161 0
M  V30 3303 C 305.321 1.0776 4.34847 0
M  V30 3304 C 307.065 -0.743608 4.17936 0
M  V30 3305 C 304.972 0.91253 5.84317 0
M  V30 3306 H 303.902 -0.0415102 0.752856 0
M  V30 3307 H 306.553 0.592742 1.73663 0
M  V30 3308 H 304.935 -0.987703 3.83485 0
M  V30 3309 H 306.109 1.8449 4.22256 0
M  V30 3310 H 304.424 1.52097 3.87628 0
M  V30 3311 H 307.021 -0.883959 5.27343 0
M  V30 3312 H 307.364 -1.73196 3.78562 0
M  V30 3313 H 307.897 -0.04408 3.97776 0
M  V30 3314 H 304.636 1.87391 6.28144 0
M  V30 3315 H 304.156 0.185422 5.99513 0
M  V30 3316 H 305.835 0.574547 6.44444 0
M  V30 3317 N 305.967 -1.56429 0.191757 0
M  V30 3318 C 307.207 -1.99383 -0.450099 0
M  V30 3319 C 307.571 -1.07581 -1.59029 0
M  V30 3320 O 308.772 -1.39758 -2.29611 0
M  V30 3321 C 307.043 -3.45841 -0.901611 0
M  V30 3322 S 308.602 -4.10822 -1.54177 0
M  V30 3323 H 305.42 -0.696253 -0.144057 0
M  V30 3324 H 308.022 -1.93276 0.294036 0
M  V30 3325 H 306.726 -4.10354 -0.0616596 0
M  V30 3326 H 306.257 -3.55757 -1.67929 0
M  V30 3327 H 308.272 -4.07553 -2.83046 0
M  V30 3328 N 307.445 0.0818655 -1.57387 0
M  V30 3329 C 308.375 1.09885 -2.06028 0
M  V30 3330 C 309.356 1.4098 -0.951774 0
M  V30 3331 O 310.541 1.50781 -1.22387 0
M  V30 3332 C 307.671 2.4151 -2.4958 0
M  V30 3333 C 306.625 2.24792 -3.64215 0
M  V30 3334 C 305.951 3.61712 -3.93787 0
M  V30 3335 C 307.251 1.67749 -4.94629 0
M  V30 3336 H 308.945 0.694128 -2.91243 0
M  V30 3337 H 306.491 0.332448 -1.4011 0
M  V30 3338 H 308.444 3.12939 -2.82219 0
M  V30 3339 H 307.168 2.83943 -1.61381 0
M  V30 3340 H 305.827 1.55807 -3.31843 0
M  V30 3341 H 305.475 4.01697 -3.02735 0
M  V30 3342 H 305.175 3.51368 -4.70971 0
M  V30 3343 H 306.699 4.34587 -4.28913 0
M  V30 3344 H 308.113 2.29032 -5.25564 0
M  V30 3345 H 306.51 1.68128 -5.76067 0
M  V30 3346 H 307.58 0.638059 -4.80684 0
M  V30 3347 N 308.923 1.53595 0.353017 0
M  V30 3348 C 310.334 1.61937 0.929153 0
M  V30 3349 C 310.685 0.494686 1.89861 0
M  V30 3350 O 309.81 -0.377017 2.1309 0
M  V30 3351 C 310.405 2.93526 1.69199 0
M  V30 3352 C 308.964 3.04161 2.21727 0
M  V30 3353 C 308.111 2.57322 1.03348 0
M  V30 3354 H 311.062 1.58155 0.131431 0
M  V30 3355 H 311.083 2.82034 2.55416 0
M  V30 3356 H 310.595 3.75362 0.986144 0
M  V30 3357 H 308.696 2.26938 2.95516 0
M  V30 3358 H 308.809 4.09465 2.48748 0
M  V30 3359 H 307.173 2.12499 1.40414 0
M  V30 3360 H 307.956 3.41588 0.342428 0
M  V30 3361 N 310.401 -0.613514 1.45168 0
M  V30 3362 C 311.626 -1.40437 1.52618 0
M  V30 3363 C 312.051 -1.87438 0.157707 0
M  V30 3364 O 311.409 -1.59791 -0.856537 0
M  V30 3365 C 311.457 -2.58894 2.51011 0
M  V30 3366 O 310.561 -3.59326 2.02382 0
M  V30 3367 H 309.902 -0.419506 0.514695 0
M  V30 3368 H 312.432 -0.747215 1.90467 0
M  V30 3369 H 312.442 -3.06214 2.69624 0
M  V30 3370 H 311.117 -2.24032 3.50403 0
M  V30 3371 H 309.694 -3.18695 1.93618 0
M  V30 3372 N 311.879 -1.3236 -0.855495 0
M  V30 3373 C 312.826 -1.21225 -1.964 0
M  V30 3374 C 313.796 -0.0946204 -1.6583 0
M  V30 3375 O 314.981 -0.27002 -1.8888 0
M  V30 3376 C 312.121 -0.940419 -3.32039 0
M  V30 3377 C 311.234 -2.14276 -3.75113 0
M  V30 3378 C 310.369 -1.80648 -4.9954 0
M  V30 3379 C 309.408 -2.97208 -5.35102 0
M  V30 3380 N 308.545 -2.63678 -6.50706 0
M  V30 3381 H 313.385 -2.16042 -2.05255 0
M  V30 3382 H 310.922 -1.07451 -1.00463 0
M  V30 3383 H 312.88 -0.763311 -4.10158 0
M  V30 3384 H 311.51 -0.0290413 -3.22787 0
M  V30 3385 H 310.562 -2.43017 -2.92655 0
M  V30 3386 H 311.874 -3.01468 -3.97389 0
M  V30 3387 H 311.028 -1.59484 -5.85363 0
M  V30 3388 H 309.767 -0.906678 -4.79198 0
M  V30 3389 H 308.772 -3.19004 -4.47791 0
M  V30 3390 H 309.997 -3.87918 -5.57401 0
M  V30 3391 H 307.943 -1.76238 -6.31883 0
M  V30 3392 H 307.86 -3.444 -6.72997 0
M  V30 3393 H 309.128 -2.45942 -7.39684 0
M  V30 3394 N 313.357 1.07166 -1.15556 0
M  V30 3395 C 314.305 2.16517 -0.8499 0
M  V30 3396 C 315.299 1.68468 0.177454 0
M  V30 3397 O 316.505 1.79971 0.0323026 0
M  V30 3398 H 312.88 0.706652 -0.25719 0
M  V30 3399 H 314.851 2.39514 -1.77976 0
M  V30 3400 C 313.6 3.45855 -0.357682 0
M  V30 3401 H 312.923 3.83214 -1.13961 0
M  V30 3402 H 314.363 4.23607 -0.182489 0
M  V30 3403 C 312.822 3.24062 0.921152 0
M  V30 3404 O 313.352 3.48813 1.9923 0
M  V30 3405 N 311.558 2.77539 0.86141 0
M  V30 3406 H 311.105 2.57598 -0.0104408 0
M  V30 3407 H 311.063 2.63337 1.71758 0
M  V30 3408 N 314.835 0.952656 1.25548 0
M  V30 3409 C 316.065 0.622592 1.96996 0
M  V30 3410 C 316.473 -0.809112 1.71026 0
M  V30 3411 O 315.816 -1.55258 0.981861 0
M  V30 3412 C 315.878 0.798946 3.5051 0
M  V30 3413 C 315.542 2.20744 4.00151 0
M  V30 3414 C 316.539 3.18394 4.11001 0
M  V30 3415 C 314.224 2.5311 4.33867 0
M  V30 3416 C 316.218 4.46504 4.54877 0
M  V30 3417 C 313.905 3.8145 4.7743 0
M  V30 3418 C 314.903 4.77959 4.87897 0
M  V30 3419 O 314.591 6.04012 5.30494 0
M  V30 3420 H 314.323 0.232503 0.634758 0
M  V30 3421 H 316.877 1.2789 1.60728 0
M  V30 3422 H 315.107 0.0854903 3.86605 0
M  V30 3423 H 316.796 0.47023 4.03167 0
M  V30 3424 H 317.562 2.94715 3.85186 0
M  V30 3425 H 313.441 1.78719 4.24948 0
M  V30 3426 H 316.985 5.21835 4.62962 0
M  V30 3427 H 312.882 4.04936 5.0269 0
M  V30 3428 H 313.65 6.0736 5.48685 0
M  V30 3429 N 316.313 -1.40141 0.720998 0
M  V30 3430 C 317.276 -2.29058 0.0805834 0
M  V30 3431 C 318.276 -1.45632 -0.681758 0
M  V30 3432 O 319.466 -1.6648 -0.512856 0
M  V30 3433 C 316.598 -3.28925 -0.895593 0
M  V30 3434 H 317.791 -2.87191 0.863793 0
M  V30 3435 H 315.344 -1.48553 0.485975 0
M  V30 3436 H 316.079 -2.75822 -1.70566 0
M  V30 3437 H 315.864 -3.90519 -0.351766 0
M  V30 3438 H 317.354 -3.95494 -1.34069 0
M  V30 3439 N 317.792 -0.46758 -1.50504 0
M  V30 3440 C 318.702 0.33382 -2.32213 0
M  V30 3441 C 319.718 0.999323 -1.42441 0
M  V30 3442 O 320.894 0.988068 -1.75497 0
M  V30 3443 C 317.959 1.4035 -3.17022 0
M  V30 3444 C 317.02 0.754961 -4.2261 0
M  V30 3445 C 316.253 1.77367 -5.03365 0
M  V30 3446 O 316.476 2.99976 -4.8515 0
M  V30 3447 O 315.41 1.34744 -5.86624 0
M  V30 3448 H 319.236 -0.334067 -3.01857 0
M  V30 3449 H 316.821 -0.229496 -1.47627 0
M  V30 3450 H 318.703 2.02318 -3.69656 0
M  V30 3451 H 317.378 2.05492 -2.5011 0
M  V30 3452 H 316.285 0.0964244 -3.73976 0
M  V30 3453 H 317.618 0.146545 -4.91982 0
M  V30 3454 N 319.27 1.56325 -0.20005 0
M  V30 3455 C 320.516 1.98012 0.438059 0
M  V30 3456 C 320.849 1.08702 1.60927 0
M  V30 3457 O 320.124 0.140064 1.93995 0
M  V30 3458 C 320.407 3.48841 0.893419 0
M  V30 3459 C 320.26 4.48928 -0.279947 0
M  V30 3460 C 321.579 4.03498 1.75719 0
M  V30 3461 H 318.698 0.719918 0.157757 0
M  V30 3462 H 321.34 1.87743 -0.291968 0
M  V30 3463 H 319.49 3.57723 1.51547 0
M  V30 3464 H 321.162 4.52079 -0.91772 0
M  V30 3465 H 319.405 4.23694 -0.930919 0
M  V30 3466 H 320.076 5.5194 0.0812601 0
M  V30 3467 H 322.552 3.97427 1.23253 0
M  V30 3468 H 321.428 5.09393 2.04476 0
M  V30 3469 H 321.689 3.4906 2.71311 0
M  V30 3470 N 320.748 -0.0735177 1.57428 0
M  V30 3471 C 321.996 -0.771472 1.86796 0
M  V30 3472 C 322.317 -1.78201 0.791804 0
M  V30 3473 O 321.587 -1.95074 -0.179718 0
M  V30 3474 H 320.167 -0.28791 0.689287 0
M  V30 3475 H 322.829 -0.0500161 1.94836 0
M  V30 3476 H 321.925 -1.28874 2.8425 0
M  V30 3477 N 322.226 -1.5378 -0.344866 0
M  V30 3478 C 323.642 -1.44015 -0.687888 0
M  V30 3479 C 323.842 -0.595834 -1.92489 0
M  V30 3480 O 322.898 -0.0863064 -2.52352 0
M  V30 3481 C 324.211 -2.87481 -0.881758 0
M  V30 3482 C 325.759 -2.97247 -0.980459 0
M  V30 3483 C 326.234 -4.41819 -1.20665 0
M  V30 3484 N 327.725 -4.45339 -1.27389 0
M  V30 3485 C 328.46 -5.54333 -1.46639 0
M  V30 3486 N 327.956 -6.73335 -1.63071 0
M  V30 3487 N 329.749 -5.41944 -1.49176 0
M  V30 3488 H 321.9 -2.07169 0.468475 0
M  V30 3489 H 324.163 -0.93643 0.147655 0
M  V30 3490 H 323.869 -3.51672 -0.0443444 0
M  V30 3491 H 323.743 -3.32352 -1.78388 0
M  V30 3492 H 326.13 -2.33197 -1.8084 0
M  V30 3493 H 326.211 -2.5574 -0.0552713 0
M  V30 3494 H 325.855 -5.06449 -0.383652 0
M  V30 3495 H 325.785 -4.80917 -2.14539 0
M  V30 3496 H 328.276 -3.59585 -1.1622 0
M  V30 3497 H 328.589 -7.52165 -1.77391 0
M  V30 3498 H 326.934 -6.76282 -1.60209 0
M  V30 3499 H 330.125 -4.47932 -1.3592 0
M  V30 3500 H 330.298 -6.26946 -1.63837 0
M  V30 3501 N 323.704 0.605807 -1.45491 0
M  V30 3502 C 324.95 1.36679 -1.49823 0
M  V30 3503 C 325.283 1.93693 -0.140175 0
M  V30 3504 O 324.558 1.75158 0.845581 0
M  V30 3505 C 324.841 2.51337 -2.57879 0
M  V30 3506 C 324.694 1.99508 -4.03134 0
M  V30 3507 C 326.013 3.53463 -2.62205 0
M  V30 3508 H 323.132 0.495617 -0.545466 0
M  V30 3509 H 325.774 0.682732 -1.7731 0
M  V30 3510 H 323.924 3.09691 -2.34571 0
M  V30 3511 H 325.596 1.45789 -4.37656 0
M  V30 3512 H 323.839 1.30496 -4.13707 0
M  V30 3513 H 324.51 2.82169 -4.74431 0
M  V30 3514 H 326.986 3.04953 -2.83095 0
M  V30 3515 H 325.862 4.31178 -3.39672 0
M  V30 3516 H 326.123 4.09197 -1.67363 0
M  V30 3517 N 325.182 1.32811 0.848464 0
M  V30 3518 C 326.43 1.23479 1.59991 0
M  V30 3519 C 326.751 -0.201853 1.93952 0
M  V30 3520 O 326.021 -1.12818 1.60153 0
M  V30 3521 H 324.601 0.454034 0.593179 0
M  V30 3522 H 327.263 1.66412 1.01455 0
M  V30 3523 H 326.359 1.82178 2.53412 0
M  V30 3524 N 326.66 -1.06551 1.16123 0
M  V30 3525 C 327.89 -1.8274 0.963838 0
M  V30 3526 C 328.298 -1.82712 -0.491228 0
M  V30 3527 O 327.641 -1.24294 -1.35265 0
M  V30 3528 C 327.703 -3.3065 1.41106 0
M  V30 3529 C 327.367 -3.54384 2.88549 0
M  V30 3530 C 328.364 -3.4765 3.86569 0
M  V30 3531 C 326.049 -3.81789 3.26408 0
M  V30 3532 C 328.043 -3.67982 5.2045 0
M  V30 3533 C 325.73 -4.01772 4.60459 0
M  V30 3534 C 326.728 -3.94866 5.57288 0
M  V30 3535 O 326.416 -4.14306 6.88916 0
M  V30 3536 H 326.148 -0.583136 0.341948 0
M  V30 3537 H 328.702 -1.35351 1.54497 0
M  V30 3538 H 326.932 -3.78887 0.773394 0
M  V30 3539 H 328.621 -3.88324 1.1815 0
M  V30 3540 H 329.387 -3.2647 3.58667 0
M  V30 3541 H 325.266 -3.86276 2.51619 0
M  V30 3542 H 328.81 -3.62507 5.96015 0
M  V30 3543 H 324.707 -4.2244 4.88072 0
M  V30 3544 H 325.475 -4.31609 6.95454 0
M  V30 3545 N 328.138 -0.959301 -1.25041 0
M  V30 3546 C 329.384 -0.617525 -1.9317 0
M  V30 3547 C 329.717 0.843981 -1.74902 0
M  V30 3548 O 328.992 1.60615 -1.09696 0
M  V30 3549 C 329.275 -0.982736 -3.46431 0
M  V30 3550 C 329.128 -2.50032 -3.73904 0
M  V30 3551 C 330.447 -0.511176 -4.37121 0
M  V30 3552 H 327.566 -0.22582 -0.701552 0
M  V30 3553 H 330.208 -1.19679 -1.4757 0
M  V30 3554 H 328.358 -0.489806 -3.854 0
M  V30 3555 H 330.03 -3.06737 -3.44544 0
M  V30 3556 H 328.273 -2.93598 -3.19348 0
M  V30 3557 H 328.944 -2.70635 -4.81103 0
M  V30 3558 H 331.42 -0.934075 -4.0548 0
M  V30 3559 H 330.296 -0.795361 -5.43107 0
M  V30 3560 H 330.557 0.588834 -4.38161 0
M  V30 3561 N 329.616 1.39756 -0.72842 0
M  V30 3562 C 330.841 2.05472 -0.282159 0
M  V30 3563 C 331.266 1.54549 1.07221 0
M  V30 3564 O 330.624 0.686372 1.67805 0
M  V30 3565 C 330.672 3.59462 -0.286264 0
M  V30 3566 O 329.776 4.05918 0.728298 0
M  V30 3567 H 329.117 0.651226 -0.129618 0
M  V30 3568 H 331.647 1.78915 -0.992499 0
M  V30 3569 H 331.657 4.07798 -0.128373 0
M  V30 3570 H 330.332 3.95889 -1.27456 0
M  V30 3571 H 328.909 3.69012 0.537081 0
M  V30 3572 N 331.094 0.475555 1.50254 0
M  V30 3573 C 332.342 -0.077738 2.0195 0
M  V30 3574 C 332.663 -1.39813 1.35931 0
M  V30 3575 O 331.933 -1.89249 0.506123 0
M  V30 3576 H 330.513 -0.031719 0.746326 0
M  V30 3577 H 333.175 0.626995 1.84539 0
M  V30 3578 H 332.271 -0.225995 3.11281 0
M  V30 3579 N 332.573 -1.56217 0.208337 0
M  V30 3580 C 333.819 -1.98998 -0.42086 0
M  V30 3581 C 334.174 -1.09331 -1.58317 0
M  V30 3582 O 333.467 -0.140466 -1.91084 0
M  V30 3583 C 333.661 -3.45441 -0.916797 0
M  V30 3584 C 333.49 -4.49273 0.195925 0
M  V30 3585 C 332.26 -5.00998 0.657956 0
M  V30 3586 C 334.458 -5.04294 1.00956 0
M  V30 3587 N 332.44 -5.88514 1.74712 0
M  V30 3588 C 333.811 -5.88607 1.94785 0
M  V30 3589 C 335.866 -4.86692 1.05049 0
M  V30 3590 C 334.569 -6.572 2.9237 0
M  V30 3591 C 336.595 -5.56034 2.01446 0
M  V30 3592 C 335.957 -6.40105 2.94016 0
M  V30 3593 H 332.056 -0.772574 -0.121048 0
M  V30 3594 H 334.64 -1.92101 0.317075 0
M  V30 3595 H 332.811 -3.52812 -1.62413 0
M  V30 3596 H 334.543 -3.75164 -1.51771 0
M  V30 3597 H 331.298 -4.72945 0.248912 0
M  V30 3598 H 331.722 -6.36975 2.2933 0
M  V30 3599 H 336.364 -4.21359 0.348759 0
M  V30 3600 H 334.082 -7.21723 3.63512 0
M  V30 3601 H 337.668 -5.44385 2.0527 0
M  V30 3602 H 336.548 -6.92816 3.6739 0
M  V30 3603 N 334.051 0.0651679 -1.57465 0
M  V30 3604 C 335.299 0.761555 -1.87202 0
M  V30 3605 C 335.62 1.77778 -0.801243 0
M  V30 3606 O 334.89 1.95166 0.16937 0
M  V30 3607 H 333.47 0.284251 -0.690804 0
M  V30 3608 H 336.132 0.0396827 -1.9486 0
M  V30 3609 H 335.228 1.27365 -2.84929 0
M  V30 3610 N 335.529 1.53961 0.336706 0
M  V30 3611 C 336.461 1.78751 1.4346 0
M  V30 3612 C 337.474 0.669019 1.48418 0
M  V30 3613 O 338.663 0.945884 1.51378 0
M  V30 3614 C 335.763 1.87844 2.82078 0
M  V30 3615 C 334.936 3.17854 3.00479 0
M  V30 3616 C 333.995 3.17816 4.19379 0
M  V30 3617 O 333.021 3.91511 4.13168 0
M  V30 3618 N 334.223 2.40669 5.2826 0
M  V30 3619 H 336.988 2.73493 1.22563 0
M  V30 3620 H 334.549 1.53096 0.526625 0
M  V30 3621 H 336.541 1.85261 3.59806 0
M  V30 3622 H 335.111 1.00257 2.96086 0
M  V30 3623 H 334.331 3.33504 2.10163 0
M  V30 3624 H 335.619 4.03718 3.0966 0
M  V30 3625 H 335.017 1.8036 5.36178 0
M  V30 3626 H 333.574 2.43877 6.04456 0
M  V30 3627 N 337.007 -0.598083 1.45811 0
M  V30 3628 C 338.232 -1.3881 1.54099 0
M  V30 3629 C 338.657 -1.8726 0.177578 0
M  V30 3630 O 338.015 -1.6069 -0.839541 0
M  V30 3631 C 338.063 -2.56217 2.53743 0
M  V30 3632 O 337.167 -3.5716 2.06182 0
M  V30 3633 H 336.508 -0.414024 0.519115 0
M  V30 3634 H 339.038 -0.726971 1.91249 0
M  V30 3635 H 339.048 -3.03337 2.72856 0
M  V30 3636 H 337.723 -2.20303 3.5276 0
M  V30 3637 H 336.3 -3.16624 1.96987 0
M  V30 3638 N 338.485 -1.33259 -0.841409 0
M  V30 3639 C 339.762 -1.15174 -1.58096 0
M  V30 3640 C 340.142 0.282858 -2.09196 0
M  V30 3641 O 339.49 1.28151 -1.89181 0
M  V30 3642 C 339.7 -2.1907 -2.71679 0
M  V30 3643 C 341.048 -2.53093 -3.40924 0
M  V30 3644 O 342.072 -2.17717 -2.81918 0
M  V30 3645 O 340.931 -3.1379 -4.47435 0
M  V30 3646 H 338.025 -0.445303 -0.696875 0
M  V30 3647 H 340.571 -1.44833 -0.884385 0
M  V30 3648 H 339.343 -3.15443 -2.31541 0
M  V30 3649 H 338.966 -1.90481 -3.49002 0
M  V30 3650 N 339.963 1.05934 -1.16686 0
M  V30 3651 C 340.911 2.15603 -0.872817 0
M  V30 3652 C 341.905 1.68647 0.159576 0
M  V30 3653 O 343.111 1.79995 0.0132125 0
M  V30 3654 H 339.486 0.703885 -0.264671 0
M  V30 3655 H 341.457 2.37613 -1.80507 0
M  V30 3656 C 340.206 3.45457 -0.394344 0
M  V30 3657 H 339.529 3.81984 -1.18019 0
M  V30 3658 H 340.969 4.2339 -0.227408 0
M  V30 3659 C 339.428 3.25021 0.88673 0
M  V30 3660 O 339.958 3.50906 1.95519 0
M  V30 3661 N 338.164 2.78437 0.831925 0
M  V30 3662 H 337.711 2.57572 -0.0377619 0
M  V30 3663 H 337.669 2.65144 1.68956 0
M  V30 3664 N 341.441 0.965919 1.2453 0
M  V30 3665 C 342.688 0.626831 1.92554 0
M  V30 3666 C 343.016 -0.837739 1.75534 0
M  V30 3667 O 342.271 -1.61793 1.10098 0
M  V30 3668 C 342.57 0.945428 3.44669 0
M  V30 3669 C 342.236 2.39785 3.81856 0
M  V30 3670 C 340.898 2.79483 3.91718 0
M  V30 3671 C 343.25 3.34055 4.00071 0
M  V30 3672 C 340.578 4.12496 4.1721 0
M  V30 3673 C 342.93 4.66694 4.27059 0
M  V30 3674 C 341.594 5.06172 4.3514 0
M  V30 3675 H 340.864 0.229374 0.704605 0
M  V30 3676 H 343.511 1.21707 1.4785 0
M  V30 3677 H 341.816 0.272926 3.90848 0
M  V30 3678 H 343.513 0.661484 3.95507 0
M  V30 3679 H 340.103 2.08003 3.74743 0
M  V30 3680 H 344.287 3.04571 3.91855 0
M  V30 3681 H 339.543 4.42709 4.21685 0
M  V30 3682 H 343.717 5.3971 4.40097 0
M  V30 3683 H 341.344 6.09262 4.54646 0
M  V30 3684 N 342.919 -1.39368 0.735821 0
M  V30 3685 C 343.866 -2.30599 0.0963825 0
M  V30 3686 C 344.836 -1.49257 -0.728794 0
M  V30 3687 O 346.021 -1.77941 -0.688588 0
M  V30 3688 C 343.161 -3.35596 -0.804305 0
M  V30 3689 C 342.274 -4.31987 0.0335761 0
M  V30 3690 C 341.409 -5.24053 -0.868461 0
M  V30 3691 C 340.448 -6.12095 -0.0258776 0
M  V30 3692 N 339.585 -6.96514 -0.883893 0
M  V30 3693 H 344.425 -2.8471 0.880002 0
M  V30 3694 H 341.962 -1.40188 0.445619 0
M  V30 3695 H 343.92 -3.95062 -1.34096 0
M  V30 3696 H 342.55 -2.82938 -1.55389 0
M  V30 3697 H 341.602 -3.74133 0.68766 0
M  V30 3698 H 342.914 -4.94074 0.685036 0
M  V30 3699 H 342.068 -5.88549 -1.47293 0
M  V30 3700 H 340.807 -4.62289 -1.5537 0
M  V30 3701 H 339.812 -5.4661 0.591386 0
M  V30 3702 H 341.037 -6.75923 0.656156 0
M  V30 3703 H 338.983 -6.37318 -1.55441 0
M  V30 3704 H 338.9 -7.55448 -0.288931 0
M  V30 3705 H 340.168 -7.65439 -1.4739 0
M  V30 3706 N 344.397 -0.483516 -1.5 0
M  V30 3707 C 345.327 0.293829 -2.31644 0
M  V30 3708 C 346.308 0.978864 -1.39112 0
M  V30 3709 O 347.493 0.973644 -1.68029 0
M  V30 3710 C 344.623 1.36897 -3.19181 0
M  V30 3711 C 343.577 0.804833 -4.20365 0
M  V30 3712 C 342.903 1.9792 -4.96721 0
M  V30 3713 C 344.203 -0.192313 -5.21946 0
M  V30 3714 H 345.897 -0.387616 -2.9688 0
M  V30 3715 H 343.443 -0.187856 -1.42769 0
M  V30 3716 H 345.396 1.92037 -3.751 0
M  V30 3717 H 344.12 2.07936 -2.51853 0
M  V30 3718 H 342.779 0.275319 -3.65565 0
M  V30 3719 H 342.427 2.67686 -4.25856 0
M  V30 3720 H 342.127 1.60789 -5.65173 0
M  V30 3721 H 343.651 2.53526 -5.55479 0
M  V30 3722 H 345.065 0.270333 -5.72662 0
M  V30 3723 H 343.462 -0.478543 -5.98189 0
M  V30 3724 H 344.532 -1.11409 -4.71928 0
M  V30 3725 N 345.875 1.56104 -0.216619 0
M  V30 3726 C 347.103 2.02563 0.421413 0
M  V30 3727 C 347.518 1.0965 1.53695 0
M  V30 3728 O 346.875 0.10521 1.82196 0
M  V30 3729 C 346.926 3.48584 0.957665 0
M  V30 3730 O 346.647 4.37953 -0.113389 0
M  V30 3731 C 348.148 4.10664 1.66943 0
M  V30 3732 H 345.368 0.662944 0.103665 0
M  V30 3733 H 347.912 2.01793 -0.331629 0
M  V30 3734 H 346.067 3.49985 1.661 0
M  V30 3735 H 346.481 5.23704 0.288932 0
M  V30 3736 H 347.955 5.14622 1.99671 0
M  V30 3737 H 348.432 3.55373 2.58083 0
M  V30 3738 H 349.038 4.13098 1.01142 0
M  V30 3739 N 347.353 -0.0568162 1.57498 0
M  V30 3740 C 348.63 -0.786954 1.79071 0
M  V30 3741 C 349.01 -1.95028 0.80792 0
M  V30 3742 O 348.358 -2.27968 -0.155858 0
M  V30 3743 C 348.568 -1.24594 3.26002 0
M  V30 3744 C 349.916 -1.67323 3.90241 0
M  V30 3745 O 350.94 -1.34124 3.29984 0
M  V30 3746 O 349.799 -2.28842 4.9628 0
M  V30 3747 H 346.893 -0.378262 0.735423 0
M  V30 3748 H 349.439 -0.035734 1.69662 0
M  V30 3749 H 348.211 -0.41423 3.89101 0
M  V30 3750 H 347.834 -2.05803 3.40192 0
M  V30 3751 N 348.832 -1.54138 -0.328536 0
M  V30 3752 C 349.782 -1.79557 -1.4051 0
M  V30 3753 C 350.766 -0.651373 -1.47126 0
M  V30 3754 O 351.958 -0.911226 -1.51742 0
M  V30 3755 C 349.087 -2.02196 -2.77438 0
M  V30 3756 C 348.173 -3.22724 -2.75155 0
M  V30 3757 N 348.564 -4.43881 -2.42494 0
M  V30 3758 C 346.862 -3.24196 -3.06289 0
M  V30 3759 C 347.563 -5.25797 -2.48822 0
M  V30 3760 N 346.539 -4.62862 -2.8506 0
M  V30 3761 H 350.341 -2.70814 -1.1418 0
M  V30 3762 H 347.855 -1.53265 -0.536991 0
M  V30 3763 H 349.852 -2.18546 -3.55026 0
M  V30 3764 H 348.512 -1.12191 -3.04702 0
M  V30 3765 H 349.523 -4.70969 -2.15428 0
M  V30 3766 H 346.2 -2.44208 -3.38627 0
M  V30 3767 H 347.59 -6.32535 -2.26603 0
M  V30 3768 N 350.31 0.590341 -1.46126 0
M  V30 3769 C 351.24 1.71032 -1.58966 0
M  V30 3770 C 352.221 1.64302 -0.440335 0
M  V30 3771 O 353.406 1.82436 -0.665634 0
M  V30 3772 C 350.536 3.09665 -1.57241 0
M  V30 3773 C 349.49 3.31221 -2.71066 0
M  V30 3774 C 348.816 4.70303 -2.54399 0
M  V30 3775 C 350.116 3.19796 -4.1295 0
M  V30 3776 H 351.81 1.60543 -2.52718 0
M  V30 3777 H 349.356 0.770933 -1.21625 0
M  V30 3778 H 351.309 3.87831 -1.64819 0
M  V30 3779 H 350.033 3.21036 -0.600289 0
M  V30 3780 H 348.692 2.55452 -2.62944 0
M  V30 3781 H 348.34 4.78429 -1.55288 0
M  V30 3782 H 348.04 4.85679 -3.30741 0
M  V30 3783 H 349.564 5.50647 -2.63857 0
M  V30 3784 H 350.978 3.87815 -4.22223 0
M  V30 3785 H 349.375 3.46696 -4.89818 0
M  V30 3786 H 350.445 2.16983 -4.33643 0
M  V30 3787 N 351.788 1.33704 0.83433 0
M  V30 3788 C 352.735 1.24335 1.94447 0
M  V30 3789 C 353.705 0.120991 1.65659 0
M  V30 3790 O 354.89 0.300035 1.88426 0
M  V30 3791 C 352.03 0.993124 3.30501 0
M  V30 3792 C 351.143 2.20217 3.71657 0
M  V30 3793 C 350.278 1.88572 4.96602 0
M  V30 3794 C 349.317 3.05683 5.30306 0
M  V30 3795 N 348.454 2.73997 6.46429 0
M  V30 3796 H 353.294 2.1928 2.01792 0
M  V30 3797 H 350.831 1.09035 0.987404 0
M  V30 3798 H 352.789 0.828467 4.08892 0
M  V30 3799 H 351.419 0.0803902 3.227 0
M  V30 3800 H 350.471 2.47642 2.88752 0
M  V30 3801 H 351.783 3.07752 3.92543 0
M  V30 3802 H 350.937 1.68776 5.82752 0
M  V30 3803 H 349.676 0.982799 4.77695 0
M  V30 3804 H 348.681 3.26088 4.42659 0
M  V30 3805 H 349.906 3.96737 5.51159 0
M  V30 3806 H 347.852 1.86268 6.28999 0
M  V30 3807 H 347.769 3.55064 6.67432 0
M  V30 3808 H 349.037 2.57679 7.35678 0
M  V30 3809 N 353.266 -1.05314 1.17247 0
M  V30 3810 C 354.496 -1.81707 0.983166 0
M  V30 3811 C 354.904 -1.83222 -0.471822 0
M  V30 3812 O 354.247 -1.25721 -1.3394 0
M  V30 3813 C 354.309 -3.29134 1.44606 0
M  V30 3814 C 353.973 -3.51304 2.92292 0
M  V30 3815 C 354.97 -3.4353 3.90235 0
M  V30 3816 C 352.655 -3.78306 3.30439 0
M  V30 3817 C 354.649 -3.62442 5.24323 0
M  V30 3818 C 352.336 -3.96866 4.64694 0
M  V30 3819 C 353.334 -3.88933 5.61445 0
M  V30 3820 O 353.022 -4.06976 6.93272 0
M  V30 3821 H 352.754 -0.579476 0.348114 0
M  V30 3822 H 355.308 -1.33705 1.55924 0
M  V30 3823 H 353.538 -3.78046 0.813537 0
M  V30 3824 H 355.227 -3.87049 1.22262 0
M  V30 3825 H 355.993 -3.22648 3.62109 0
M  V30 3826 H 351.872 -3.83585 2.55702 0
M  V30 3827 H 355.416 -3.56165 5.99827 0
M  V30 3828 H 351.313 -4.1724 4.92525 0
M  V30 3829 H 352.081 -4.24209 6.99992 0
M  V30 3830 N 354.744 -0.972509 -1.24016 0
M  V30 3831 C 355.99 -0.637978 -1.92504 0
M  V30 3832 C 356.323 0.825383 -1.75787 0
M  V30 3833 O 355.598 1.59442 -1.11393 0
M  V30 3834 C 355.881 -1.01942 -3.45369 0
M  V30 3835 C 355.734 -2.53983 -3.71231 0
M  V30 3836 C 357.053 -0.55751 -4.36555 0
M  V30 3837 H 354.172 -0.233248 -0.699117 0
M  V30 3838 H 356.814 -1.21238 -1.46292 0
M  V30 3839 H 354.964 -0.530656 -3.84859 0
M  V30 3840 H 356.636 -3.10374 -3.41271 0
M  V30 3841 H 354.879 -2.96968 -3.16216 0
M  V30 3842 H 355.55 -2.75723 -4.78206 0
M  V30 3843 H 358.026 -0.977029 -4.04467 0
M  V30 3844 H 356.902 -0.85292 -5.42233 0
M  V30 3845 H 357.163 0.542328 -4.38761 0
M  V30 3846 N 356.222 1.38976 -0.743202 0
M  V30 3847 C 357.155 2.28128 -0.0572165 0
M  V30 3848 C 358.133 1.44827 0.739182 0
M  V30 3849 O 359.317 1.74207 0.720009 0
M  V30 3850 C 356.444 3.25796 0.926001 0
M  V30 3851 C 355.49 4.25947 0.217099 0
M  V30 3852 S 356.323 5.24604 -1.07477 0
M  V30 3853 C 357.479 6.25829 -0.0943545 0
M  V30 3854 H 357.712 2.85961 -0.813246 0
M  V30 3855 H 355.245 1.44822 -0.535341 0
M  V30 3856 H 357.203 3.82583 1.48797 0
M  V30 3857 H 355.864 2.66966 1.65493 0
M  V30 3858 H 355.057 4.94746 0.961372 0
M  V30 3859 H 354.659 3.73002 -0.273059 0
M  V30 3860 H 356.951 6.73411 0.743239 0
M  V30 3861 H 357.894 7.0412 -0.749713 0
M  V30 3862 H 358.302 5.63797 0.281706 0
M  V30 3863 N 357.7 0.491464 1.49741 0
M  V30 3864 C 358.63 -0.28154 2.31796 0
M  V30 3865 C 359.611 -0.971473 1.3963 0
M  V30 3866 O 360.796 -0.964719 1.68543 0
M  V30 3867 C 357.926 -1.35203 3.19902 0
M  V30 3868 C 356.88 -0.782529 4.20786 0
M  V30 3869 C 356.206 -1.95283 4.97764 0
M  V30 3870 C 357.506 0.21999 5.21837 0
M  V30 3871 H 359.2 0.403355 2.96671 0
M  V30 3872 H 356.746 0.195425 1.42668 0
M  V30 3873 H 358.699 -1.90045 3.76113 0
M  V30 3874 H 357.423 -2.06598 2.52953 0
M  V30 3875 H 356.082 -0.255928 3.65706 0
M  V30 3876 H 355.73 -2.65423 4.2727 0
M  V30 3877 H 355.43 -1.57789 5.66018 0
M  V30 3878 H 356.954 -2.50577 5.56816 0
M  V30 3879 H 358.368 -0.23996 5.72798 0
M  V30 3880 H 356.765 0.51026 5.97927 0
M  V30 3881 H 357.835 1.13911 4.7133 0
M  V30 3882 N 359.178 -1.55987 0.224894 0
M  V30 3883 C 360.589 -1.84553 -0.282345 0
M  V30 3884 C 360.94 -1.14634 -1.59227 0
M  V30 3885 O 360.065 -0.417155 -2.12341 0
M  V30 3886 C 360.66 -3.348 -0.519062 0
M  V30 3887 C 359.219 -3.63671 -0.970604 0
M  V30 3888 C 358.366 -2.77277 -0.0355261 0
M  V30 3889 H 361.317 -1.52245 0.448006 0
M  V30 3890 H 361.338 -3.55187 -1.36463 0
M  V30 3891 H 360.85 -3.8566 0.43449 0
M  V30 3892 H 358.951 -3.1827 -1.9374 0
M  V30 3893 H 359.064 -4.71631 -0.842698 0
M  V30 3894 H 357.428 -2.48846 -0.542927 0
M  V30 3895 H 358.211 -3.30937 0.913003 0
M  V30 3896 N 360.656 0.0484629 -1.57525 0
M  V30 3897 C 361.902 0.744226 -1.88651 0
M  V30 3898 C 362.235 1.76029 -0.820212 0
M  V30 3899 O 361.51 1.93782 0.166985 0
M  V30 3900 C 361.793 1.43128 -3.30434 0
M  V30 3901 C 361.646 0.43005 -4.47739 0
M  V30 3902 C 362.965 2.37031 -3.70816 0
M  V30 3903 H 360.084 0.269089 -0.68612 0
M  V30 3904 H 362.726 0.00713532 -1.89999 0
M  V30 3905 H 360.876 2.05956 -3.29415 0
M  V30 3906 H 362.548 -0.194816 -4.60888 0
M  V30 3907 H 360.791 -0.252522 -4.33064 0
M  V30 3908 H 361.462 0.948874 -5.43783 0
M  V30 3909 H 363.938 1.84263 -3.73077 0
M  V30 3910 H 362.814 2.82094 -4.70865 0
M  V30 3911 H 363.075 3.22864 -3.02012 0
M  V30 3912 N 362.134 1.5431 0.320358 0
M  V30 3913 C 363.097 1.83195 1.3774 0
M  V30 3914 C 364.097 0.703906 1.44575 0
M  V30 3915 O 365.287 0.972214 1.44546 0
M  V30 3916 C 362.419 1.99487 2.76438 0
M  V30 3917 H 363.612 2.77642 1.1338 0
M  V30 3918 H 361.165 1.46076 0.556012 0
M  V30 3919 H 361.9 1.07262 3.06048 0
M  V30 3920 H 361.685 2.81575 2.7287 0
M  V30 3921 H 363.175 2.23271 3.52902 0
M  V30 3922 N 363.613 -0.582584 1.46437 0
M  V30 3923 C 364.89 -1.34276 1.4223 0
M  V30 3924 C 365.27 -2.10835 0.10583 0
M  V30 3925 O 364.618 -2.09485 -0.912596 0
M  V30 3926 C 364.828 -2.26865 2.65204 0
M  V30 3927 C 366.176 -2.88691 3.11356 0
M  V30 3928 O 367.2 -2.37178 2.65753 0
M  V30 3929 O 366.059 -3.82255 3.90568 0
M  V30 3930 H 363.153 -0.603326 0.565621 0
M  V30 3931 H 365.699 -0.603591 1.58603 0
M  V30 3932 H 364.471 -1.69724 3.52576 0
M  V30 3933 H 364.094 -3.08122 2.5129 0
M  V30 3934 N 365.091 -1.34144 -0.827227 0
M  V30 3935 C 366.023 -1.21206 -1.9453 0
M  V30 3936 C 367.036 -0.140176 -1.62195 0
M  V30 3937 O 368.225 -0.391647 -1.7415 0
M  V30 3938 C 365.325 -0.839141 -3.28347 0
M  V30 3939 C 364.498 -2.0051 -3.88734 0
M  V30 3940 C 363.557 -1.61128 -5.00923 0
M  V30 3941 O 362.583 -2.32726 -5.19449 0
M  V30 3942 N 363.785 -0.522958 -5.7814 0
M  V30 3943 H 366.55 -2.17525 -2.06162 0
M  V30 3944 H 364.111 -1.27043 -1.00358 0
M  V30 3945 H 366.103 -0.557556 -4.00841 0
M  V30 3946 H 364.673 0.0337293 -3.12582 0
M  V30 3947 H 363.893 -2.45166 -3.08686 0
M  V30 3948 H 365.181 -2.78498 -4.25812 0
M  V30 3949 H 364.579 0.0723518 -5.65654 0
M  V30 3950 H 363.136 -0.301089 -6.51104 0
M  V30 3951 N 366.569 1.04691 -1.17803 0
M  V30 3952 C 367.799 1.81183 -0.992788 0
M  V30 3953 C 368.207 1.8347 0.462098 0
M  V30 3954 O 367.55 1.2643 1.33271 0
M  V30 3955 C 367.612 3.28363 -1.46349 0
M  V30 3956 C 367.276 3.49749 -2.94151 0
M  V30 3957 C 368.273 3.41456 -3.92051 0
M  V30 3958 C 365.958 3.76548 -3.32441 0
M  V30 3959 C 367.952 3.59656 -5.26238 0
M  V30 3960 C 365.639 3.94396 -4.66792 0
M  V30 3961 C 366.637 3.8595 -5.635 0
M  V30 3962 O 366.325 4.03294 -6.9542 0
M  V30 3963 H 366.057 0.577622 -0.351182 0
M  V30 3964 H 368.611 1.32876 -1.5663 0
M  V30 3965 H 366.841 3.77609 -0.833574 0
M  V30 3966 H 368.53 3.86395 -1.24313 0
M  V30 3967 H 369.296 3.20723 -3.63815 0
M  V30 3968 H 365.175 3.82224 -2.57732 0
M  V30 3969 H 368.719 3.52979 -6.01707 0
M  V30 3970 H 364.616 4.14622 -4.94731 0
M  V30 3971 H 365.384 4.2049 -7.02232 0
M  V30 3972 N 368.047 0.979072 1.23499 0
M  V30 3973 C 369.324 0.563674 1.87302 0
M  V30 3974 C 369.704 -0.959199 1.88049 0
M  V30 3975 O 369.052 -1.83535 1.36114 0
M  V30 3976 C 369.262 1.16822 3.28867 0
M  V30 3977 C 370.61 1.26014 4.0547 0
M  V30 3978 O 371.634 1.12158 3.38082 0
M  V30 3979 O 370.493 1.48044 5.26066 0
M  V30 3980 H 367.587 0.189602 0.804972 0
M  V30 3981 H 370.133 1.07407 1.31384 0
M  V30 3982 H 368.905 2.21049 3.22883 0
M  V30 3983 H 368.528 0.642564 3.92373 0
M  V30 3984 N 369.525 -1.3858 0.750561 0
M  V30 3985 C 370.765 -2.02032 0.310258 0
M  V30 3986 C 371.129 -1.58288 -1.08668 0
M  V30 3987 O 372.33 -2.14049 -1.62593 0
M  V30 3988 C 370.601 -3.54856 0.425647 0
M  V30 3989 S 372.16 -4.38748 0.0674797 0
M  V30 3990 H 368.978 -0.700705 0.120554 0
M  V30 3991 H 371.58 -1.69134 0.980512 0
M  V30 3992 H 370.284 -3.84182 1.44335 0
M  V30 3993 H 369.815 -3.92527 -0.261894 0
M  V30 3994 H 371.83 -4.82835 -1.14388 0
M  V30 3995 N 371.003 -0.499398 -1.49478 0
M  V30 3996 C 372.252 0.0475259 -2.01644 0
M  V30 3997 C 372.565 1.38195 -1.38425 0
M  V30 3998 O 373.771 2.01547 -1.8191 0
M  V30 3999 C 372.227 0.135164 -3.59646 0
M  V30 4000 C 371.835 -1.19252 -4.31837 0
M  V30 4001 C 373.579 0.632538 -4.19761 0
M  V30 4002 C 371.486 -1.06713 -5.81693 0
M  V30 4003 H 370.416 0.0215349 -0.753692 0
M  V30 4004 H 373.067 -0.638577 -1.7203 0
M  V30 4005 H 371.449 0.885681 -3.85969 0
M  V30 4006 H 372.623 -1.9562 -4.17216 0
M  V30 4007 H 370.938 -1.62321 -3.83459 0
M  V30 4008 H 373.535 0.743833 -5.29501 0
M  V30 4009 H 373.878 1.63098 -3.83021 0
M  V30 4010 H 374.411 -0.0613987 -3.97753 0
M  V30 4011 H 371.15 -2.03979 -6.22955 0
M  V30 4012 H 370.67 -0.344307 -5.98811 0
M  V30 4013 H 372.349 -0.745208 -6.42694 0
M  V30 4014 N 372.481 1.55866 -0.233164 0
M  V30 4015 C 373.709 2.02998 0.399905 0
M  V30 4016 C 374.124 1.11274 1.52524 0
M  V30 4017 O 373.481 0.124528 1.82075 0
M  V30 4018 C 373.532 3.4958 0.920639 0
M  V30 4019 O 373.253 4.37808 -0.159834 0
M  V30 4020 C 374.754 4.12411 1.62578 0
M  V30 4021 H 371.974 0.664006 0.0966281 0
M  V30 4022 H 374.518 2.0143 -0.353013 0
M  V30 4023 H 372.673 3.51727 1.62379 0
M  V30 4024 H 373.087 5.23981 0.23337 0
M  V30 4025 H 374.561 5.16711 1.94201 0
M  V30 4026 H 375.038 3.5809 2.54299 0
M  V30 4027 H 375.644 4.14148 0.967553 0
M  V30 4028 N 373.959 -0.0401083 1.57549 0
M  V30 4029 C 374.909 -1.05175 2.02292 0
M  V30 4030 C 375.893 -1.32674 0.910294 0
M  V30 4031 O 377.085 -1.32444 1.17421 0
M  V30 4032 C 374.214 -2.35622 2.49674 0
M  V30 4033 C 373.3 -2.11261 3.67736 0
M  V30 4034 N 373.691 -1.56923 4.80842 0
M  V30 4035 C 371.989 -2.41596 3.74897 0
M  V30 4036 C 372.69 -1.48111 5.62528 0
M  V30 4037 N 371.666 -1.95282 5.07312 0
M  V30 4038 H 375.468 -0.625455 2.87168 0
M  V30 4039 H 372.982 -0.246624 1.60516 0
M  V30 4040 H 374.979 -3.08893 2.79983 0
M  V30 4041 H 373.639 -2.7894 1.662 0
M  V30 4042 H 374.65 -1.25345 5.02503 0
M  V30 4043 H 371.327 -2.88064 3.02201 0
M  V30 4044 H 372.717 -1.06683 6.63377 0
M  V30 4045 N 375.437 -1.54477 -0.31217 0
M  V30 4046 C 376.667 -1.76948 -1.06645 0
M  V30 4047 C 377.075 -0.523593 -1.81811 0
M  V30 4048 O 376.418 0.51578 -1.76311 0
M  V30 4049 C 376.48 -2.91668 -2.10166 0
M  V30 4050 C 376.144 -4.30165 -1.54296 0
M  V30 4051 C 377.141 -5.10603 -0.978793 0
M  V30 4052 C 374.826 -4.76738 -1.58196 0
M  V30 4053 C 376.82 -6.3573 -0.461048 0
M  V30 4054 C 374.507 -6.01831 -1.06034 0
M  V30 4055 C 375.505 -6.81161 -0.500844 0
M  V30 4056 O 375.193 -8.03899 0.0128958 0
M  V30 4057 H 374.925 -0.594088 -0.322546 0
M  V30 4058 H 377.479 -2.02213 -0.360441 0
M  V30 4059 H 375.709 -2.62001 -2.84416 0
M  V30 4060 H 377.398 -3.01817 -2.71406 0
M  V30 4061 H 378.164 -4.75771 -0.941651 0
M  V30 4062 H 374.043 -4.15027 -2.00683 0
M  V30 4063 H 377.587 -6.97596 -0.0236894 0
M  V30 4064 H 373.484 -6.36152 -1.09459 0
M  V30 4065 H 374.252 -8.18437 -0.101457 0
M  V30 4066 N 376.915 0.57481 -1.46744 0
M  V30 4067 C 377.825 1.711 -1.60505 0
M  V30 4068 C 378.841 1.67008 -0.488307 0
M  V30 4069 O 380.017 1.86774 -0.753495 0
M  V30 4070 C 377.082 3.07608 -1.59932 0
M  V30 4071 C 376.143 3.22904 -2.82898 0
M  V30 4072 C 375.376 4.529 -2.82343 0
M  V30 4073 O 375.599 5.37278 -1.91542 0
M  V30 4074 O 374.533 4.71611 -3.73987 0
M  V30 4075 H 378.359 1.62436 -2.56609 0
M  V30 4076 H 375.944 0.742779 -1.29627 0
M  V30 4077 H 377.826 3.88877 -1.62336 0
M  V30 4078 H 376.501 3.16692 -0.669898 0
M  V30 4079 H 375.408 2.41099 -2.86046 0
M  V30 4080 H 376.741 3.18715 -3.75076 0
M  V30 4081 N 378.394 1.34581 0.820102 0
M  V30 4082 C 379.642 1.26845 1.57336 0
M  V30 4083 C 379.963 -0.160667 1.94337 0
M  V30 4084 O 379.233 -1.09396 1.6251 0
M  V30 4085 H 377.813 0.466514 0.583415 0
M  V30 4086 H 380.475 1.68526 0.979027 0
M  V30 4087 H 379.571 1.87513 2.4949 0
M  V30 4088 N 379.872 -1.04064 1.18357 0
M  V30 4089 C 381.097 -1.81454 1.00445 0
M  V30 4090 C 381.522 -1.82823 -0.442423 0
M  V30 4091 O 380.88 -1.24555 -1.31741 0
M  V30 4092 C 380.928 -3.24925 1.56384 0
M  V30 4093 O 380.032 -4.04856 0.785209 0
M  V30 4094 H 379.373 -0.560604 0.355835 0
M  V30 4095 H 381.903 -1.31059 1.57114 0
M  V30 4096 H 381.913 -3.75702 1.59097 0
M  V30 4097 H 380.588 -3.23244 2.61699 0
M  V30 4098 H 379.165 -3.63537 0.830399 0
M  V30 4099 N 381.35 -0.985608 -1.22978 0
M  V30 4100 C 382.578 -0.675582 -1.95559 0
M  V30 4101 C 382.993 0.758413 -1.72897 0
M  V30 4102 O 382.35 1.51094 -1.02357 0
M  V30 4103 C 382.401 -0.96293 -3.48439 0
M  V30 4104 O 382.122 -2.34057 -3.70336 0
M  V30 4105 C 383.623 -0.669585 -4.38214 0
M  V30 4106 H 380.843 -0.250523 -0.622478 0
M  V30 4107 H 383.387 -1.3184 -1.56328 0
M  V30 4108 H 381.542 -0.366033 -3.85667 0
M  V30 4109 H 381.956 -2.43424 -4.64591 0
M  V30 4110 H 383.43 -0.920967 -5.44263 0
M  V30 4111 H 383.907 0.396383 -4.37408 0
M  V30 4112 H 384.513 -1.2472 -4.06602 0
M  V30 4113 N 382.828 1.3818 -0.7579 0
M  V30 4114 C 384.068 2.01864 -0.320968 0
M  V30 4115 C 384.432 1.58863 1.07827 0
M  V30 4116 O 385.633 2.14908 1.61456 0
M  V30 4117 C 383.904 3.54626 -0.44446 0
M  V30 4118 S 385.463 4.38706 -0.0907467 0
M  V30 4119 H 382.281 0.700056 -0.124268 0
M  V30 4120 H 384.883 1.68611 -0.989468 0
M  V30 4121 H 383.587 3.83411 -1.4637 0
M  V30 4122 H 383.118 3.92661 0.241073 0
M  V30 4123 H 385.133 4.83435 1.11826 0
M  V30 4124 N 384.306 0.507319 1.49211 0
M  V30 4125 C 385.717 0.0611118 1.866 0
M  V30 4126 C 386.068 -1.35488 1.41907 0
M  V30 4127 O 385.193 -2.0108 0.799726 0
M  V30 4128 C 385.788 0.104125 3.3864 0
M  V30 4129 C 384.347 -0.28677 3.75306 0
M  V30 4130 C 383.494 0.473893 2.73221 0
M  V30 4131 H 386.445 0.719775 1.41439 0
M  V30 4132 H 386.466 -0.689672 3.74198 0
M  V30 4133 H 385.978 1.13482 3.71138 0
M  V30 4134 H 384.079 -1.32046 3.48417 0
M  V30 4135 H 384.192 0.0370745 4.79086 0
M  V30 4136 H 382.556 -0.0770644 2.54583 0
M  V30 4137 H 383.339 1.50478 3.08563 0
M  V30 4138 N 385.784 -1.5574 0.241426 0
M  V30 4139 C 386.731 -2.21149 -0.660432 0
M  V30 4140 C 387.701 -1.17356 -1.17545 0
M  V30 4141 O 388.886 -1.45784 -1.23093 0
M  V30 4142 C 386.026 -2.91059 -1.85414 0
M  V30 4143 C 385.139 -4.09495 -1.37616 0
M  V30 4144 C 384.274 -4.67135 -2.529 0
M  V30 4145 C 383.313 -5.77831 -2.01936 0
M  V30 4146 N 382.45 -6.29677 -3.10566 0
M  V30 4147 H 387.29 -2.97845 -0.095955 0
M  V30 4148 H 384.827 -1.47057 -0.0356024 0
M  V30 4149 H 386.785 -3.29788 -2.5553 0
M  V30 4150 H 385.415 -2.16846 -2.39118 0
M  V30 4151 H 384.467 -3.76117 -0.569235 0
M  V30 4152 H 385.779 -4.89423 -0.962618 0
M  V30 4153 H 384.933 -5.08409 -3.31067 0
M  V30 4154 H 383.672 -3.86411 -2.97553 0
M  V30 4155 H 382.677 -5.36039 -1.22238 0
M  V30 4156 H 383.902 -6.60402 -1.58259 0
M  V30 4157 H 381.848 -5.5186 -3.54664 0
M  V30 4158 H 381.765 -7.04783 -2.73526 0
M  V30 4159 H 383.033 -6.75609 -3.88809 0
M  V30 4160 N 387.262 0.0317525 -1.57568 0
M  V30 4161 C 388.508 0.718712 -1.90279 0
M  V30 4162 C 388.863 1.73108 -0.839727 0
M  V30 4163 O 388.156 1.90997 0.15188 0
M  V30 4164 C 388.35 1.43167 -3.27472 0
M  V30 4165 C 388.179 0.489869 -4.47024 0
M  V30 4166 C 386.949 0.111909 -5.05176 0
M  V30 4167 C 389.147 -0.230592 -5.13783 0
M  V30 4168 N 387.129 -0.831427 -6.08244 0
M  V30 4169 C 388.5 -1.02968 -6.1139 0
M  V30 4170 C 390.555 -0.297821 -4.97008 0
M  V30 4171 C 389.258 -1.88982 -6.9403 0
M  V30 4172 C 391.284 -1.14507 -5.80209 0
M  V30 4173 C 390.646 -1.9321 -6.77384 0
M  V30 4174 H 386.745 0.237177 -0.745165 0
M  V30 4175 H 389.329 -0.0211267 -1.94689 0
M  V30 4176 H 387.5 2.14199 -3.23996 0
M  V30 4177 H 389.232 2.0708 -3.47707 0
M  V30 4178 H 385.987 0.473513 -4.71227 0
M  V30 4179 H 386.411 -1.29752 -6.6445 0
M  V30 4180 H 391.053 0.296346 -4.2176 0
M  V30 4181 H 388.771 -2.4948 -7.68626 0
M  V30 4182 H 392.357 -1.20059 -5.69278 0
M  V30 4183 H 391.237 -2.57711 -7.40645 0
M  V30 4184 N 388.74 1.54641 0.303973 0
M  V30 4185 C 389.687 1.85386 1.37479 0
M  V30 4186 C 390.657 0.702528 1.50512 0
M  V30 4187 O 391.842 0.950867 1.65418 0
M  V30 4188 C 388.982 2.10413 2.73533 0
M  V30 4189 C 388.095 3.38049 2.68974 0
M  V30 4190 C 387.23 3.52934 3.97002 0
M  V30 4191 C 386.269 4.74373 3.86829 0
M  V30 4192 N 385.406 4.8608 5.06627 0
M  V30 4193 H 390.246 2.76732 1.1056 0
M  V30 4194 H 387.783 1.37034 0.534805 0
M  V30 4195 H 389.741 2.22919 3.52652 0
M  V30 4196 H 388.371 1.22338 2.98719 0
M  V30 4197 H 387.423 3.3418 1.81736 0
M  V30 4198 H 388.735 4.27288 2.57346 0
M  V30 4199 H 387.889 3.65088 4.84557 0
M  V30 4200 H 386.628 2.61824 4.1146 0
M  V30 4201 H 385.633 4.62255 2.97658 0
M  V30 4202 H 386.858 5.66888 3.73918 0
M  V30 4203 H 384.804 3.97891 5.21554 0
M  V30 4204 H 384.721 5.69315 4.9741 0
M  V30 4205 H 385.989 5.02587 5.95841 0
M  V30 4206 N 390.218 -0.567019 1.47046 0
M  V30 4207 C 391.181 -1.65696 1.58359 0
M  V30 4208 C 392.181 -1.54097 0.459441 0
M  V30 4209 O 393.371 -1.58432 0.724225 0
M  V30 4210 C 390.503 -3.05197 1.51879 0
M  V30 4211 H 391.696 -1.57019 2.5551 0
M  V30 4212 H 389.249 -0.786148 1.3509 0
M  V30 4213 H 389.984 -3.19417 0.560673 0
M  V30 4214 H 389.769 -3.15025 2.33455 0
M  V30 4215 H 391.259 -3.84511 1.62913 0
M  V30 4216 N 391.696 -1.35014 -0.812953 0
M  V30 4217 C 393.107 -1.25035 -1.38648 0
M  V30 4218 C 393.458 0.119967 -1.95833 0
M  V30 4219 O 392.583 1.02069 -1.90816 0
M  V30 4220 C 393.178 -2.26394 -2.52054 0
M  V30 4221 C 391.737 -2.20175 -3.05287 0
M  V30 4222 C 390.884 -2.12451 -1.78213 0
M  V30 4223 H 393.835 -1.46235 -0.616516 0
M  V30 4224 H 393.856 -1.88672 -3.30429 0
M  V30 4225 H 393.368 -3.26116 -2.10404 0
M  V30 4226 H 391.469 -1.23841 -3.51417 0
M  V30 4227 H 391.582 -3.11863 -3.63701 0
M  V30 4228 H 389.946 -1.58328 -1.9951 0
M  V30 4229 H 390.729 -3.14024 -1.38723 0
M  V30 4230 N 393.175 1.03435 -1.18907 0
M  V30 4231 C 394.122 2.11591 -0.921837 0
M  V30 4232 C 395.092 1.65499 0.141226 0
M  V30 4233 O 396.277 1.908 0.000242829 0
M  V30 4234 C 393.417 3.42012 -0.460616 0
M  V30 4235 C 392.53 4.01682 -1.58982 0
M  V30 4236 C 391.665 5.20091 -1.08069 0
M  V30 4237 C 390.704 5.71805 -2.18416 0
M  V30 4238 N 389.841 6.81494 -1.68849 0
M  V30 4239 H 394.681 2.33787 -1.8479 0
M  V30 4240 H 392.218 1.1467 -0.921373 0
M  V30 4241 H 394.176 4.16834 -0.174642 0
M  V30 4242 H 392.806 3.19944 0.428467 0
M  V30 4243 H 391.858 3.24127 -1.99113 0
M  V30 4244 H 393.17 4.36084 -2.4214 0
M  V30 4245 H 392.324 6.02051 -0.749615 0
M  V30 4246 H 391.063 4.87209 -0.218771 0
M  V30 4247 H 390.068 4.88461 -2.5236 0
M  V30 4248 H 391.293 6.06728 -3.05054 0
M  V30 4249 H 389.239 6.50475 -0.849572 0
M  V30 4250 H 389.156 7.14994 -2.45601 0
M  V30 4251 H 390.424 7.67063 -1.38689 0
M  V30 4252 N 394.653 0.992116 1.22453 0
M  V30 4253 C 395.878 0.685644 1.95739 0
M  V30 4254 C 396.303 -0.743 1.72804 0
M  V30 4255 O 395.661 -1.50778 1.00676 0
M  V30 4256 C 395.709 0.996293 3.46564 0
M  V30 4257 O 394.813 0.0945512 4.12292 0
M  V30 4258 H 394.154 0.256694 0.612376 0
M  V30 4259 H 396.684 1.32888 1.5557 0
M  V30 4260 H 396.694 0.93781 3.97076 0
M  V30 4261 H 395.369 2.03733 3.62582 0
M  V30 4262 H 393.946 0.208451 3.72317 0
M  V30 4263 N 396.131 -1.37776 0.765217 0
M  V30 4264 C 397.542 -1.82521 0.392819 0
M  V30 4265 C 397.893 -1.63789 -1.08017 0
M  V30 4266 O 397.018 -1.14542 -1.83601 0
M  V30 4267 C 397.613 -3.31358 0.706214 0
M  V30 4268 C 396.172 -3.74406 0.386952 0
M  V30 4269 C 395.319 -2.60394 0.953422 0
M  V30 4270 H 398.27 -1.2634 0.960412 0
M  V30 4271 H 398.291 -3.80498 -0.0114706 0
M  V30 4272 H 397.803 -3.44959 1.77833 0
M  V30 4273 H 395.904 -3.66377 -0.678112 0
M  V30 4274 H 396.017 -4.70749 0.890636 0
M  V30 4275 H 394.381 -2.51878 0.378064 0
M  V30 4276 H 395.164 -2.76791 2.03081 0
M  V30 4277 N 397.609 -0.515225 -1.4894 0
M  V30 4278 C 398.855 0.0242508 -2.02785 0
M  V30 4279 C 399.188 1.35323 -1.39289 0
M  V30 4280 O 398.463 1.87041 -0.533469 0
M  V30 4281 C 398.746 0.16184 -3.59736 0
M  V30 4282 C 398.599 -1.19127 -4.33738 0
M  V30 4283 C 399.918 0.895719 -4.30888 0
M  V30 4284 H 397.037 0.00733914 -0.736963 0
M  V30 4285 H 399.679 -0.669395 -1.77818 0
M  V30 4286 H 397.829 0.752624 -3.8114 0
M  V30 4287 H 399.501 -1.82202 -4.23792 0
M  V30 4288 H 397.744 -1.77695 -3.95736 0
M  V30 4289 H 398.415 -1.04815 -5.41957 0
M  V30 4290 H 400.891 0.394528 -4.14225 0
M  V30 4291 H 399.767 0.960859 -5.40425 0
M  V30 4292 H 400.028 1.9427 -3.97129 0
M  V30 4293 N 399.087 1.5561 -0.249682 0
M  V30 4294 C 400.335 1.98618 0.373548 0
M  V30 4295 C 400.656 1.13919 1.58264 0
M  V30 4296 O 399.926 0.222637 1.94631 0
M  V30 4297 H 398.506 0.733571 0.141006 0
M  V30 4298 H 401.168 1.91748 -0.349117 0
M  V30 4299 H 400.264 3.04584 0.680796 0
M  V30 4300 N 400.565 -0.0233959 1.57583 0
M  V30 4301 C 401.811 -0.714119 1.89811 0
M  V30 4302 C 402.144 -1.74702 0.848113 0
M  V30 4303 O 401.419 -1.94023 -0.136135 0
M  V30 4304 C 401.702 -1.37853 3.32669 0
M  V30 4305 C 401.555 -0.358764 4.48367 0
M  V30 4306 C 402.874 -2.31101 3.7454 0
M  V30 4307 H 399.993 -0.25814 0.690314 0
M  V30 4308 H 402.635 0.0230927 1.89986 0
M  V30 4309 H 400.785 -2.00689 3.3265 0
M  V30 4310 H 402.457 0.268115 4.6052 0
M  V30 4311 H 400.7 0.321387 4.32608 0
M  V30 4312 H 401.371 -0.862242 5.45224 0
M  V30 4313 H 403.847 -1.78304 3.75961 0
M  V30 4314 H 402.723 -2.74567 4.75294 0
M  V30 4315 H 402.984 -3.18018 3.0711 0
M  V30 4316 N 402.043 -1.548 -0.295768 0
M  V30 4317 C 402.975 -1.82492 -1.3867 0
M  V30 4318 C 403.988 -0.708134 -1.46592 0
M  V30 4319 O 405.177 -0.985686 -1.48817 0
M  V30 4320 C 402.277 -1.95256 -2.76999 0
M  V30 4321 C 401.45 -3.25709 -2.91946 0
M  V30 4322 C 400.509 -3.28824 -4.10806 0
M  V30 4323 O 399.535 -4.02328 -4.02643 0
M  V30 4324 N 400.737 -2.5459 -5.21694 0
M  V30 4325 H 403.502 -2.76646 -1.15269 0
M  V30 4326 H 401.063 -1.54438 -0.485849 0
M  V30 4327 H 403.055 -1.94736 -3.54768 0
M  V30 4328 H 401.625 -1.08072 -2.93324 0
M  V30 4329 H 400.845 -3.38959 -2.01247 0
M  V30 4330 H 402.133 -4.11786 -2.98847 0
M  V30 4331 H 401.531 -1.94512 -5.31208 0
M  V30 4332 H 400.088 -2.59818 -5.97778 0
M  V30 4333 N 403.521 0.559213 -1.47345 0
M  V30 4334 C 404.932 1.14134 -1.47751 0
M  V30 4335 C 405.283 1.94834 -0.231103 0
M  V30 4336 O 404.408 2.05957 0.664137 0
M  V30 4337 C 405.003 2.07653 -2.67705 0
M  V30 4338 C 403.562 2.61141 -2.71076 0
M  V30 4339 C 402.709 1.3748 -2.40821 0
M  V30 4340 H 405.66 0.345917 -1.54884 0
M  V30 4341 H 405.681 2.91497 -2.44561 0
M  V30 4342 H 405.193 1.4889 -3.58404 0
M  V30 4343 H 403.294 3.23707 -1.84511 0
M  V30 4344 H 403.407 3.02272 -3.7171 0
M  V30 4345 H 401.771 1.68086 -1.91362 0
M  V30 4346 H 402.554 0.805135 -3.33725 0
M  V30 4347 N 404.999 1.35443 0.805782 0
M  V30 4348 C 406.248 1.28097 1.55801 0
M  V30 4349 C 406.561 -0.142428 1.95081 0
M  V30 4350 O 407.767 -0.33817 2.69386 0
M  V30 4351 C 406.223 2.24653 2.81174 0
M  V30 4352 C 405.831 3.72342 2.49129 0
M  V30 4353 C 407.575 2.2625 3.59181 0
M  V30 4354 C 405.482 4.60719 3.70799 0
M  V30 4355 H 404.412 0.475937 0.584808 0
M  V30 4356 H 407.063 1.60712 0.885661 0
M  V30 4357 H 405.445 1.85011 3.50124 0
M  V30 4358 H 406.619 4.20624 1.88181 0
M  V30 4359 H 404.934 3.73361 1.84366 0
M  V30 4360 H 407.531 2.89495 4.49552 0
M  V30 4361 H 407.874 1.26647 3.96568 0
M  V30 4362 H 408.407 2.64426 2.97193 0
M  V30 4363 H 405.146 5.61324 3.3852 0
M  V30 4364 H 404.666 4.17163 4.3097 0
M  V30 4365 H 406.345 4.76182 4.38018 0
M  V30 4366 N 406.477 -1.02803 1.19454 0
M  V30 4367 C 407.407 -2.12999 0.956758 0
M  V30 4368 C 408.388 -1.69743 -0.110188 0
M  V30 4369 O 409.573 -1.94148 0.0450038 0
M  V30 4370 C 406.703 -3.43746 0.495553 0
M  V30 4371 C 405.657 -4.00688 1.50443 0
M  V30 4372 C 404.983 -5.27067 0.900275 0
M  V30 4373 C 406.283 -4.35397 2.8849 0
M  V30 4374 H 407.977 -2.33148 1.87836 0
M  V30 4375 H 405.523 -1.12045 0.904539 0
M  V30 4376 H 407.476 -4.2021 0.316493 0
M  V30 4377 H 406.2 -3.23321 -0.461646 0
M  V30 4378 H 404.859 -3.2632 1.67065 0
M  V30 4379 H 404.507 -5.02959 -0.064503 0
M  V30 4380 H 404.207 -5.66127 1.57397 0
M  V30 4381 H 405.731 -6.06196 0.73203 0
M  V30 4382 H 407.145 -5.02795 2.75446 0
M  V30 4383 H 405.542 -4.85541 3.52661 0
M  V30 4384 H 406.612 -3.44662 3.41081 0
M  V30 4385 N 407.956 -0.998596 -1.21925 0
M  V30 4386 C 408.904 -0.546641 -2.26085 0
M  V30 4387 C 409.898 0.405576 -1.64473 0
M  V30 4388 O 411.104 0.277471 -1.77849 0
M  V30 4389 H 407.479 -0.158403 -0.735127 0
M  V30 4390 H 409.45 -1.43645 -2.61551 0
M  V30 4391 C 408.199 0.117388 -3.47502 0
M  V30 4392 H 407.522 -0.606277 -3.95176 0
M  V30 4393 H 408.962 0.396993 -4.22137 0
M  V30 4394 C 407.421 1.35455 -3.0847 0
M  V30 4395 O 407.951 2.44944 -3.18379 0
M  V30 4396 N 406.157 1.23191 -2.63196 0
M  V30 4397 H 405.704 0.341006 -2.55333 0
M  V30 4398 H 405.662 2.06071 -2.37449 0
M  V30 4399 N 409.434 1.37368 -0.772513 0
M  V30 4400 C 410.344 2.34053 -0.160081 0
M  V30 4401 C 411.36 1.60216 0.678728 0
M  V30 4402 O 412.536 1.92303 0.59847 0
M  V30 4403 C 409.601 3.3939 0.708182 0
M  V30 4404 C 408.662 4.29048 -0.147172 0
M  V30 4405 C 407.895 5.29354 0.679744 0
M  V30 4406 O 408.118 5.3723 1.91678 0
M  V30 4407 O 407.052 6.01835 0.0885444 0
M  V30 4408 H 410.878 2.88159 -0.959053 0
M  V30 4409 H 408.463 1.39543 -0.533685 0
M  V30 4410 H 410.345 4.03839 1.20384 0
M  V30 4411 H 409.02 2.8761 1.48533 0
M  V30 4412 H 407.927 3.67697 -0.689205 0
M  V30 4413 H 409.26 4.84134 -0.887423 0
M  V30 4414 N 410.912 0.523116 1.48665 0
M  V30 4415 C 411.862 -0.263106 2.26477 0
M  V30 4416 C 412.846 -0.916005 1.32281 0
M  V30 4417 O 414.038 -0.819946 1.56863 0
M  V30 4418 C 411.167 -1.31361 3.17174 0
M  V30 4419 C 410.253 -0.665849 4.1884 0
M  V30 4420 N 410.644 0.244434 5.05209 0
M  V30 4421 C 408.942 -0.923863 4.36326 0
M  V30 4422 C 409.643 0.617443 5.78414 0
M  V30 4423 N 408.619 -0.0198686 5.43596 0
M  V30 4424 H 412.421 0.437295 2.90629 0
M  V30 4425 H 409.935 0.340675 1.58787 0
M  V30 4426 H 411.932 -1.89052 3.71571 0
M  V30 4427 H 410.592 -2.01546 2.54576 0
M  V30 4428 H 411.603 0.616621 5.14216 0
M  V30 4429 H 408.28 -1.6168 3.84923 0
M  V30 4430 H 409.67 1.36346 6.57921 0
M  V30 4431 N 412.39 -1.55475 0.257931 0
M  V30 4432 C 413.618 -2.03609 -0.367559 0
M  V30 4433 C 414.033 -1.13687 -1.50734 0
M  V30 4434 O 413.39 -0.153479 -1.81853 0
M  V30 4435 C 413.441 -3.51001 -0.864908 0
M  V30 4436 O 413.162 -4.37499 0.229465 0
M  V30 4437 C 414.663 -4.14946 -1.55997 0
M  V30 4438 H 411.883 -0.665459 -0.0860521 0
M  V30 4439 H 414.427 -2.00843 0.385014 0
M  V30 4440 H 412.582 -3.54266 -1.56762 0
M  V30 4441 H 412.996 -5.24286 -0.14998 0
M  V30 4442 H 414.47 -5.19735 -1.85956 0
M  V30 4443 H 414.947 -3.6209 -2.4857 0
M  V30 4444 H 415.553 -4.15635 -0.901543 0
M  V30 4445 N 413.868 0.0150385 -1.57593 0
M  V30 4446 C 415.115 0.703001 -1.89906 0
M  V30 4447 C 415.443 1.74604 -0.856944 0
M  V30 4448 O 414.698 1.95197 0.140287 0
M  V30 4449 C 414.997 1.39686 -3.28972 0
M  V30 4450 C 414.663 0.488457 -4.48246 0
M  V30 4451 C 413.325 0.2383 -4.8061 0
M  V30 4452 C 415.677 -0.137881 -5.21018 0
M  V30 4453 C 413.005 -0.646738 -5.83125 0
M  V30 4454 C 415.357 -1.0107 -6.24474 0
M  V30 4455 C 414.021 -1.27019 -6.55303 0
M  V30 4456 H 413.291 0.257246 -0.694914 0
M  V30 4457 H 415.938 -0.037259 -1.91464 0
M  V30 4458 H 414.243 2.21079 -3.23468 0
M  V30 4459 H 415.94 1.93495 -3.51227 0
M  V30 4460 H 412.53 0.693593 -4.22951 0
M  V30 4461 H 416.714 0.0423953 -4.96282 0
M  V30 4462 H 411.97 -0.855937 -6.05379 0
M  V30 4463 H 416.144 -1.50247 -6.79999 0
M  V30 4464 H 413.771 -1.95769 -7.3456 0
M  V30 4465 N 415.346 1.54954 0.287554 0
M  V30 4466 C 416.586 1.76617 1.02887 0
M  V30 4467 C 416.95 0.547759 1.84021 0
M  V30 4468 O 418.151 0.642365 2.61012 0
M  V30 4469 C 416.422 3.02717 1.89993 0
M  V30 4470 S 417.981 3.45438 2.70588 0
M  V30 4471 H 414.799 0.6207 0.346775 0
M  V30 4472 H 417.401 1.93172 0.30082 0
M  V30 4473 H 416.105 3.89503 1.29287 0
M  V30 4474 H 415.636 2.88787 2.67144 0
M  V30 4475 H 417.651 3.03566 3.92508 0
M  V30 4476 N 416.824 -0.551391 1.4764 0
M  V30 4477 C 418.07 -1.31024 1.54792 0
M  V30 4478 C 418.403 -1.9304 0.211967 0
M  V30 4479 O 417.678 -1.78175 -0.77999 0
M  V30 4480 C 417.961 -2.41593 2.67029 0
M  V30 4481 C 417.814 -1.84408 4.10261 0
M  V30 4482 C 419.133 -3.43488 2.75143 0
M  V30 4483 H 416.252 -0.475031 0.563485 0
M  V30 4484 H 418.894 -0.616454 1.79722 0
M  V30 4485 H 417.044 -3.00772 2.45904 0
M  V30 4486 H 418.716 -1.29445 4.42766 0
M  V30 4487 H 416.959 -1.15051 4.18265 0
M  V30 4488 H 417.63 -2.64367 4.84576 0
M  V30 4489 H 420.106 -2.94236 2.94218 0
M  V30 4490 H 418.982 -4.18274 3.55441 0
M  V30 4491 H 419.243 -4.02703 1.82435 0
M  V30 4492 N 418.302 -1.35869 -0.798587 0
M  V30 4493 C 419.55 -1.29332 -1.55298 0
M  V30 4494 C 419.871 0.129729 -1.94568 0
M  V30 4495 O 419.141 1.06796 -1.6423 0
M  V30 4496 H 417.721 -0.475737 -0.57592 0
M  V30 4497 H 420.383 -1.70062 -0.952093 0
M  V30 4498 H 419.479 -1.91458 -2.46476 0
M  V30 4499 N 419.78 1.02168 -1.19998 0
M  V30 4500 C 420.713 2.10232 -0.887558 0
M  V30 4501 C 421.691 1.61827 0.158317 0
M  V30 4502 O 422.875 1.88471 0.0330249 0
M  V30 4503 C 420.002 3.37092 -0.32964 0
M  V30 4504 C 419.048 4.0438 -1.3557 0
M  V30 4505 S 419.881 4.48956 -2.91888 0
M  V30 4506 C 421.037 5.79024 -2.37658 0
M  V30 4507 H 421.27 2.36409 -1.80272 0
M  V30 4508 H 418.803 1.15211 -1.0279 0
M  V30 4509 H 420.761 4.10498 -0.0142824 0
M  V30 4510 H 419.422 3.08996 0.563941 0
M  V30 4511 H 418.615 4.95632 -0.9146 0
M  V30 4512 H 418.217 3.37176 -1.61828 0
M  V30 4513 H 420.509 6.53942 -1.77103 0
M  V30 4514 H 421.452 6.27924 -3.27287 0
M  V30 4515 H 421.86 5.35043 -1.79971 0
M  V30 4516 N 421.258 1.00505 1.21394 0
M  V30 4517 C 422.483 0.706367 1.95001 0
M  V30 4518 C 422.908 -0.72463 1.73582 0
M  V30 4519 O 422.266 -1.49702 1.0227 0
M  V30 4520 C 422.314 1.03299 3.45487 0
M  V30 4521 O 421.418 0.138275 4.12168 0
M  V30 4522 H 420.759 0.263175 0.609619 0
M  V30 4523 H 423.289 1.34531 1.54151 0
M  V30 4524 H 423.299 0.979872 3.96059 0
M  V30 4525 H 421.974 2.07567 3.60401 0
M  V30 4526 H 420.551 0.247928 3.72075 0
M  V30 4527 N 422.737 -1.36956 0.779787 0
M  V30 4528 C 423.684 -2.30175 0.169697 0
M  V30 4529 C 424.654 -1.51501 -0.68094 0
M  V30 4530 O 425.839 -1.80042 -0.631629 0
M  V30 4531 C 422.979 -3.37985 -0.697131 0
M  V30 4532 C 422.092 -4.31661 0.170992 0
M  V30 4533 C 421.227 -5.2655 -0.701298 0
M  V30 4534 C 420.266 -6.11867 0.168869 0
M  V30 4535 N 419.403 -6.98973 -0.661855 0
M  V30 4536 H 424.243 -2.81767 0.970135 0
M  V30 4537 H 421.78 -1.38699 0.489994 0
M  V30 4538 H 423.738 -3.99128 -1.2146 0
M  V30 4539 H 422.368 -2.87739 -1.46309 0
M  V30 4540 H 421.42 -3.71756 0.80634 0
M  V30 4541 H 422.732 -4.91644 0.841875 0
M  V30 4542 H 421.886 -5.92937 -1.28494 0
M  V30 4543 H 420.625 -4.66998 -1.40584 0
M  V30 4544 H 419.63 -5.44452 0.764986 0
M  V30 4545 H 420.855 -6.73493 0.870863 0
M  V30 4546 H 418.801 -6.41941 -1.35086 0
M  V30 4547 H 418.718 -7.55984 -0.0484447 0
M  V30 4548 H 419.986 -7.6974 -1.22963 0
M  V30 4549 N 424.215 -0.530993 -1.48385 0
M  V30 4550 C 425.445 -0.00133928 -2.066 0
M  V30 4551 C 425.853 1.28599 -1.38777 0
M  V30 4552 O 425.196 1.77599 -0.469495 0
M  V30 4553 C 425.258 0.292137 -3.58311 0
M  V30 4554 C 424.922 -0.901864 -4.48013 0
M  V30 4555 C 425.919 -1.80053 -4.87726 0
M  V30 4556 C 423.604 -1.10915 -4.89901 0
M  V30 4557 C 425.598 -2.89038 -5.68098 0
M  V30 4558 C 423.285 -2.20213 -5.70043 0
M  V30 4559 C 424.283 -3.09107 -6.0905 0
M  V30 4560 O 423.971 -4.16514 -6.87583 0
M  V30 4561 H 423.703 -0.0308475 -0.675296 0
M  V30 4562 H 426.257 -0.736335 -1.91748 0
M  V30 4563 H 424.487 1.08112 -3.7128 0
M  V30 4564 H 426.176 0.763994 -3.98645 0
M  V30 4565 H 426.942 -1.65234 -4.55986 0
M  V30 4566 H 422.821 -0.426498 -4.59023 0
M  V30 4567 H 426.365 -3.58451 -5.98464 0
M  V30 4568 H 422.262 -2.35016 -6.01197 0
M  V30 4569 H 423.03 -4.14237 -7.05939 0
M  V30 4570 N 425.693 1.55336 -0.266172 0
M  V30 4571 C 426.625 2.19544 0.658247 0
M  V30 4572 C 427.638 1.17746 1.12427 0
M  V30 4573 O 428.827 1.44517 1.04772 0
M  V30 4574 C 425.927 2.80032 1.9088 0
M  V30 4575 C 425.1 4.07436 1.59106 0
M  V30 4576 C 424.159 4.52056 2.69317 0
M  V30 4577 O 423.185 5.18023 2.35883 0
M  V30 4578 N 424.387 4.21448 3.99201 0
M  V30 4579 H 427.152 2.99503 0.108754 0
M  V30 4580 H 424.713 1.61667 -0.0869059 0
M  V30 4581 H 426.705 3.06831 2.63888 0
M  V30 4582 H 425.275 2.04119 2.36758 0
M  V30 4583 H 424.495 3.88021 0.695243 0
M  V30 4584 H 425.783 4.90462 1.35367 0
M  V30 4585 H 425.181 3.68528 4.29189 0
M  V30 4586 H 423.738 4.53039 4.68614 0
M  V30 4587 N 427.171 -0.0066808 1.57599 0
M  V30 4588 C 428.081 -1.01671 2.11424 0
M  V30 4589 C 429.097 -1.38143 1.05795 0
M  V30 4590 O 430.273 -1.47011 1.37658 0
M  V30 4591 C 427.338 -2.29192 2.60139 0
M  V30 4592 C 426.399 -1.99094 3.80342 0
M  V30 4593 C 425.632 -3.20535 4.26724 0
M  V30 4594 O 425.855 -4.3199 3.72479 0
M  V30 4595 O 424.789 -3.04924 5.18946 0
M  V30 4596 H 428.615 -0.589181 2.9793 0
M  V30 4597 H 426.2 -0.225091 1.47695 0
M  V30 4598 H 428.082 -3.0412 2.917 0
M  V30 4599 H 426.757 -2.71195 1.76733 0
M  V30 4600 H 425.664 -1.21663 3.53764 0
M  V30 4601 H 426.997 -1.61931 4.648 0
M  V30 4602 N 428.649 -1.55105 -0.279332 0
M  V30 4603 C 429.926 -1.66119 -1.03267 0
M  V30 4604 C 430.306 -0.523525 -2.04505 0
M  V30 4605 O 429.654 0.477194 -2.23462 0
M  V30 4606 C 429.864 -3.05067 -1.69515 0
M  V30 4607 C 431.212 -3.62606 -2.20912 0
M  V30 4608 O 432.236 -3.07659 -1.79512 0
M  V30 4609 O 431.095 -4.58861 -2.96831 0
M  V30 4610 H 428.189 -0.674429 -0.478618 0
M  V30 4611 H 430.735 -1.67446 -0.275694 0
M  V30 4612 H 429.507 -3.79311 -0.9612 0
M  V30 4613 H 429.13 -3.07611 -2.51915 0
M  V30 4614 N 430.127 0.543554 -1.4793 0
M  V30 4615 C 431.355 1.32516 -1.58894 0
M  V30 4616 C 431.77 1.87215 -0.244131 0
M  V30 4617 O 431.127 1.65709 0.764652 0
M  V30 4618 C 431.178 2.48554 -2.62494 0
M  V30 4619 O 430.899 1.96112 -3.91755 0
M  V30 4620 C 432.4 3.40572 -2.8377 0
M  V30 4621 H 429.62 0.403472 -0.536145 0
M  V30 4622 H 432.164 0.657106 -1.93655 0
M  V30 4623 H 430.319 3.1127 -2.30629 0
M  V30 4624 H 430.733 2.71967 -4.4848 0
M  V30 4625 H 432.207 4.18375 -3.60093 0
M  V30 4626 H 432.684 3.94965 -1.92092 0
M  V30 4627 H 433.29 2.8366 -3.16887 0
M  V30 4628 N 431.605 1.3629 0.791371 0
M  V30 4629 C 432.845 1.31792 1.56238 0
M  V30 4630 C 433.209 -0.102237 1.91728 0
M  V30 4631 O 434.41 -0.271759 2.67423 0
M  V30 4632 C 432.681 2.21303 2.80642 0
M  V30 4633 S 434.24 2.34468 3.70904 0
M  V30 4634 H 431.058 0.468141 0.535131 0
M  V30 4635 H 433.66 1.71841 0.932246 0
M  V30 4636 H 432.364 3.23439 2.52617 0
M  V30 4637 H 431.895 1.82266 3.4863 0
M  V30 4638 H 433.91 1.54074 4.71673 0
M  V30 4639 N 433.083 -1.0153 1.20538 0
M  V30 4640 C 434.313 -1.78487 1.04048 0
M  V30 4641 C 434.721 -1.84631 -0.413292 0
M  V30 4642 O 434.064 -1.29919 -1.29872 0
M  V30 4643 C 434.126 -3.24367 1.55003 0
M  V30 4644 C 433.79 -3.41827 3.0332 0
M  V30 4645 C 434.787 -3.30941 4.00966 0
M  V30 4646 C 432.472 -3.67602 3.42307 0
M  V30 4647 C 434.466 -3.45577 5.35589 0
M  V30 4648 C 432.153 -3.81881 4.77085 0
M  V30 4649 C 433.151 -3.70874 5.73534 0
M  V30 4650 O 432.839 -3.84714 7.05868 0
M  V30 4651 H 432.571 -0.568108 0.366373 0
M  V30 4652 H 435.125 -1.28677 1.60098 0
M  V30 4653 H 433.355 -3.75266 0.933397 0
M  V30 4654 H 435.044 -3.82963 1.34514 0
M  V30 4655 H 435.81 -3.10964 3.72191 0
M  V30 4656 H 431.689 -3.75256 2.67776 0
M  V30 4657 H 435.233 -3.36902 6.10854 0
M  V30 4658 H 431.13 -4.01359 5.0555 0
M  V30 4659 H 431.898 -4.01724 7.13134 0
M  V30 4660 N 434.561 -1.01147 -1.20859 0
M  V30 4661 C 435.809 -0.696486 -1.89719 0
M  V30 4662 C 436.13 0.775788 -1.78904 0
M  V30 4663 O 435.4 1.55759 -1.18811 0
M  V30 4664 H 433.98 -0.254628 -0.702263 0
M  V30 4665 H 436.642 -1.28197 -1.46804 0
M  V30 4666 H 435.738 -0.975357 -2.96468 0
M  V30 4667 N 436.039 1.36541 -0.78704 0
M  V30 4668 C 437.316 1.9355 -0.282424 0
M  V30 4669 C 437.696 1.71919 1.22503 0
M  V30 4670 O 437.044 1.07677 2.01539 0
M  V30 4671 C 437.254 3.4246 -0.672462 0
M  V30 4672 C 438.602 4.19582 -0.650863 0
M  V30 4673 O 439.626 3.50889 -0.612789 0
M  V30 4674 O 438.485 5.42106 -0.691623 0
M  V30 4675 H 435.579 0.824091 -0.0693 0
M  V30 4676 H 438.125 1.45736 -0.869423 0
M  V30 4677 H 436.897 3.51851 -1.71221 0
M  V30 4678 H 436.52 3.97556 -0.0592211 0
M  V30 4679 N 437.518 0.538854 1.48102 0
M  V30 4680 C 438.481 -0.208395 2.28251 0
M  V30 4681 C 439.481 -0.859656 1.35892 0
M  V30 4682 O 440.671 -0.71834 1.58699 0
M  V30 4683 C 437.803 -1.30252 3.15035 0
M  V30 4684 H 438.996 0.495407 2.9578 0
M  V30 4685 H 436.549 0.295112 1.53489 0
M  V30 4686 H 437.284 -2.0393 2.52157 0
M  V30 4687 H 437.069 -0.840551 3.82985 0
M  V30 4688 H 438.559 -1.82787 3.75471 0
M  V30 4689 N 438.996 -1.55193 0.274407 0
M  V30 4690 C 440.244 -1.99187 -0.341902 0
M  V30 4691 C 440.565 -1.16422 -1.56431 0
M  V30 4692 O 439.835 -0.253573 -1.94252 0
M  V30 4693 H 438.415 -0.735721 -0.129317 0
M  V30 4694 H 441.077 -1.91168 0.379578 0
M  V30 4695 H 440.173 -3.05629 -0.632253 0
M  V30 4696 N 440.474 -0.00167713 -1.576 0
M  V30 4697 C 441.699 0.69739 -1.95323 0
M  V30 4698 C 442.124 1.6642 -0.876706 0
M  V30 4699 O 441.482 1.80548 0.165007 0
M  V30 4700 C 441.53 1.40403 -3.32144 0
M  V30 4701 O 440.634 2.5185 -3.26566 0
M  V30 4702 H 439.975 0.185373 -0.637599 0
M  V30 4703 H 442.505 -0.0553665 -2.04525 0
M  V30 4704 H 442.515 1.76707 -3.67748 0
M  V30 4705 H 441.19 0.695167 -4.10049 0
M  V30 4706 H 439.767 2.17861 -3.0264 0
M  V30 4707 N 441.952 1.55251 0.271103 0
M  V30 4708 C 442.915 1.87484 1.31842 0
M  V30 4709 C 443.915 0.749545 1.42262 0
M  V30 4710 O 445.105 1.01771 1.4138 0
M  V30 4711 C 442.237 2.0818 2.69951 0
M  V30 4712 H 443.43 2.81108 1.0449 0
M  V30 4713 H 440.983 1.47771 0.509258 0
M  V30 4714 H 441.718 1.16944 3.02481 0
M  V30 4715 H 441.503 2.90114 2.63774 0
M  V30 4716 H 442.993 2.34385 3.4562 0
M  V30 4717 N 443.43 -0.535701 1.48216 0
M  V30 4718 C 444.677 -1.29183 1.55942 0
M  V30 4719 C 445.005 -1.93125 0.230857 0
M  V30 4720 O 444.26 -1.79556 -0.778331 0
M  V30 4721 C 444.559 -2.4068 2.64212 0
M  V30 4722 C 444.225 -1.94428 4.06827 0
M  V30 4723 C 442.887 -1.81532 4.45645 0
M  V30 4724 C 445.239 -1.59405 4.96225 0
M  V30 4725 C 442.567 -1.31939 5.71672 0
M  V30 4726 C 444.919 -1.11276 6.22736 0
M  V30 4727 C 443.583 -0.969924 6.60416 0
M  V30 4728 H 442.853 -0.472715 0.570632 0
M  V30 4729 H 445.5 -0.598437 1.81909 0
M  V30 4730 H 443.805 -3.15666 2.32083 0
M  V30 4731 H 445.502 -2.98822 2.67407 0
M  V30 4732 H 442.092 -2.05415 3.76168 0
M  V30 4733 H 446.276 -1.68231 4.66917 0
M  V30 4734 H 441.532 -1.19562 5.99596 0
M  V30 4735 H 445.706 -0.832453 6.91407 0
M  V30 4736 H 443.333 -0.583436 7.57958 0
M  V30 4737 N 444.908 -1.36708 -0.784132 0
M  V30 4738 C 445.871 -1.31307 -1.87859 0
M  V30 4739 C 446.871 -0.219654 -1.59293 0
M  V30 4740 O 448.061 -0.47476 -1.67606 0
M  V30 4741 C 445.193 -1.03679 -3.24751 0
M  V30 4742 H 446.386 -2.28647 -1.94064 0
M  V30 4743 H 443.939 -1.21558 -0.98252 0
M  V30 4744 H 444.674 -0.0681936 -3.24228 0
M  V30 4745 H 444.459 -1.82811 -3.46876 0
M  V30 4746 H 445.949 -1.02518 -4.04821 0
M  V30 4747 N 446.386 1.0089 -1.21074 0
M  V30 4748 C 447.632 1.74866 -1.02712 0
M  V30 4749 C 447.965 1.89178 0.438787 0
M  V30 4750 O 447.24 1.42325 1.32567 0
M  V30 4751 C 447.523 3.16347 -1.72036 0
M  V30 4752 C 447.376 3.09782 -3.26121 0
M  V30 4753 C 448.695 4.15187 -1.45973 0
M  V30 4754 H 445.814 0.634736 -0.374539 0
M  V30 4755 H 448.456 1.17646 -1.49196 0
M  V30 4756 H 446.606 3.65201 -1.32517 0
M  V30 4757 H 448.278 2.68673 -3.74983 0
M  V30 4758 H 446.521 2.46982 -3.56626 0
M  V30 4759 H 447.192 4.09829 -3.6979 0
M  V30 4760 H 449.668 3.75022 -1.80272 0
M  V30 4761 H 448.544 5.12331 -1.96999 0
M  V30 4762 H 448.805 4.40386 -0.388924 0
M  V30 4763 N 447.864 1.01787 1.20321 0
M  V30 4764 C 448.814 0.559976 2.21016 0
M  V30 4765 C 449.798 -0.385366 1.56217 0
M  V30 4766 O 450.99 -0.208126 1.75772 0
M  V30 4767 C 448.119 -0.0990553 3.43157 0
M  V30 4768 C 447.205 0.86807 4.15121 0
M  V30 4769 N 447.596 2.0261 4.63447 0
M  V30 4770 C 445.894 0.689162 4.40643 0
M  V30 4771 C 446.595 2.63518 5.18588 0
M  V30 4772 N 445.571 1.91569 5.08726 0
M  V30 4773 H 449.373 1.44281 2.56048 0
M  V30 4774 H 446.887 0.883381 1.36272 0
M  V30 4775 H 448.884 -0.444643 4.14522 0
M  V30 4776 H 447.544 -0.977709 3.0963 0
M  V30 4777 H 448.555 2.40598 4.58621 0
M  V30 4778 H 445.232 -0.14133 4.17261 0
M  V30 4779 H 446.622 3.61527 5.66346 0
M  V30 4780 N 449.342 -1.36122 0.79427 0
M  V30 4781 C 450.619 -1.93398 0.292685 0
M  V30 4782 C 450.999 -1.72567 -1.21589 0
M  V30 4783 O 450.347 -1.08745 -2.00965 0
M  V30 4784 C 450.557 -3.42099 0.690614 0
M  V30 4785 C 451.905 -4.19231 0.673105 0
M  V30 4786 O 452.929 -3.50559 0.631389 0
M  V30 4787 O 451.788 -5.41732 0.720362 0
M  V30 4788 H 448.882 -0.823712 0.0736693 0
M  V30 4789 H 451.428 -1.45273 0.87714 0
M  V30 4790 H 450.2 -3.50938 1.73085 0
M  V30 4791 H 449.823 -3.97519 0.0803036 0
M  V30 4792 N 450.82 -0.546701 -1.47814 0
M  V30 4793 C 451.75 0.195317 -2.32682 0
M  V30 4794 C 452.731 0.918981 -1.43139 0
M  V30 4795 O 453.916 0.901501 -1.72008 0
M  V30 4796 C 451.046 1.23237 -3.247 0
M  V30 4797 C 450 0.625818 -4.234 0
M  V30 4798 C 449.326 1.76674 -5.04669 0
M  V30 4799 C 450.626 -0.413515 -5.2066 0
M  V30 4800 H 452.32 -0.513184 -2.94969 0
M  V30 4801 H 449.866 -0.248241 -1.41844 0
M  V30 4802 H 451.819 1.75955 -3.82907 0
M  V30 4803 H 450.543 1.97067 -2.60446 0
M  V30 4804 H 449.202 0.120023 -3.66403 0
M  V30 4805 H 448.85 2.49383 -4.36826 0
M  V30 4806 H 448.55 1.36673 -5.71484 0
M  V30 4807 H 450.074 2.29738 -5.65732 0
M  V30 4808 H 451.488 0.0272042 -5.73294 0
M  V30 4809 H 449.885 -0.731825 -5.95621 0
M  V30 4810 H 450.955 -1.31325 -4.66778 0
M  V30 4811 N 452.299 1.55045 -0.282633 0
M  V30 4812 C 453.209 2.26491 0.61147 0
M  V30 4813 C 454.225 1.29348 1.16384 0
M  V30 4814 O 455.401 1.62298 1.19253 0
M  V30 4815 C 452.466 2.97779 1.77563 0
M  V30 4816 C 451.527 4.10418 1.25919 0
M  V30 4817 C 450.76 4.78297 2.36786 0
M  V30 4818 O 450.983 4.45426 3.56303 0
M  V30 4819 O 449.917 5.66089 2.04517 0
M  V30 4820 H 453.743 3.03683 0.0324615 0
M  V30 4821 H 451.328 1.49317 -0.0497576 0
M  V30 4822 H 453.21 3.42554 2.45427 0
M  V30 4823 H 451.885 2.23498 2.34159 0
M  V30 4824 H 450.792 3.70082 0.546797 0
M  V30 4825 H 452.125 4.86622 0.738887 0
M  V30 4826 N 453.777 0.010035 1.57597 0
M  V30 4827 C 454.687 -0.994226 2.12491 0
M  V30 4828 C 455.703 -1.37013 1.07254 0
M  V30 4829 O 456.879 -1.45542 1.3921 0
M  V30 4830 C 453.944 -2.2642 2.62555 0
M  V30 4831 C 453.005 -1.95049 3.82432 0
M  V30 4832 C 452.238 -3.15991 4.30099 0
M  V30 4833 O 452.461 -4.28015 3.7704 0
M  V30 4834 O 451.395 -2.99403 5.22151 0
M  V30 4835 H 455.221 -0.557549 2.98538 0
M  V30 4836 H 452.806 -0.209413 1.47925 0
M  V30 4837 H 454.688 -3.01009 2.9491 0
M  V30 4838 H 453.363 -2.69306 1.796 0
M  V30 4839 H 452.27 -1.17904 3.55034 0
M  V30 4840 H 453.603 -1.56992 4.66491 0
M  V30 4841 N 455.255 -1.55392 -0.262866 0
M  V30 4842 C 456.532 -1.67204 -1.01499 0
M  V30 4843 C 456.912 -0.545186 -2.03939 0
M  V30 4844 O 456.26 0.453467 -2.23955 0
M  V30 4845 C 456.47 -3.06847 -1.6627 0
M  V30 4846 C 457.818 -3.64928 -2.17054 0
M  V30 4847 O 458.842 -3.09545 -1.76239 0
M  V30 4848 O 457.701 -4.61984 -2.91947 0
M  V30 4849 H 454.795 -0.679467 -0.471438 0
M  V30 4850 H 457.341 -1.67729 -0.257918 0
M  V30 4851 H 456.113 -3.80309 -0.920915 0
M  V30 4852 H 455.736 -3.10266 -2.48638 0
M  V30 4853 N 456.733 0.527833 -1.48498 0
M  V30 4854 C 457.961 1.30823 -1.6029 0
M  V30 4855 C 458.376 1.86945 -0.263974 0
M  V30 4856 O 457.733 1.6651 0.747034 0
M  V30 4857 C 457.784 2.45756 -2.65116 0
M  V30 4858 O 457.505 1.91946 -3.93813 0
M  V30 4859 C 459.006 3.37543 -2.87367 0
M  V30 4860 H 456.226 0.397763 -0.540394 0
M  V30 4861 H 458.77 0.636529 -1.94341 0
M  V30 4862 H 456.925 3.08806 -2.33917 0
M  V30 4863 H 457.339 2.67195 -4.51339 0
M  V30 4864 H 458.813 4.14532 -3.6451 0
M  V30 4865 H 459.29 3.92905 -1.9627 0
M  V30 4866 H 459.896 2.80283 -3.19878 0
M  V30 4867 N 458.211 1.37122 0.776871 0
M  V30 4868 C 459.457 1.3325 1.53675 0
M  V30 4869 C 459.812 -0.0839891 1.92217 0
M  V30 4870 O 459.105 -1.04145 1.60824 0
M  V30 4871 C 459.299 2.20068 2.81611 0
M  V30 4872 C 459.128 3.70016 2.55574 0
M  V30 4873 C 457.898 4.39144 2.4996 0
M  V30 4874 C 460.096 4.62996 2.23917 0
M  V30 4875 N 458.078 5.74663 2.15953 0
M  V30 4876 C 459.449 5.86854 2.00005 0
M  V30 4877 C 461.504 4.51433 2.1003 0
M  V30 4878 C 460.207 7.00446 1.63609 0
M  V30 4879 C 462.233 5.64905 1.75033 0
M  V30 4880 C 461.595 6.8781 1.51977 0
M  V30 4881 H 457.694 0.542878 0.562856 0
M  V30 4882 H 460.278 1.72295 0.906784 0
M  V30 4883 H 458.449 1.83248 3.42454 0
M  V30 4884 H 460.181 2.07492 3.47461 0
M  V30 4885 H 456.936 3.92088 2.65639 0
M  V30 4886 H 457.36 6.46268 2.0166 0
M  V30 4887 H 462.002 3.56987 2.26539 0
M  V30 4888 H 459.72 7.94831 1.45837 0
M  V30 4889 H 463.306 5.57926 1.64952 0
M  V30 4890 H 462.186 7.74126 1.25296 0
M  V30 4891 N 459.689 -1.00246 1.21608 0
M  V30 4892 C 460.919 -1.77373 1.05935 0
M  V30 4893 C 461.327 -1.85059 -0.393686 0
M  V30 4894 O 460.67 -1.31289 -1.28487 0
M  V30 4895 C 460.732 -3.22705 1.58435 0
M  V30 4896 C 460.396 -3.38591 3.06929 0
M  V30 4897 C 461.393 -3.2667 4.04454 0
M  V30 4898 C 459.078 -3.6395 3.46187 0
M  V30 4899 C 461.072 -3.39877 5.39224 0
M  V30 4900 C 458.759 -3.768 4.81108 0
M  V30 4901 C 459.757 -3.6477 5.77436 0
M  V30 4902 O 459.445 -3.77206 7.09909 0
M  V30 4903 H 459.177 -0.56419 0.372378 0
M  V30 4904 H 461.731 -1.26971 1.61454 0
M  V30 4905 H 459.961 -3.74255 0.973147 0
M  V30 4906 H 461.65 -3.81515 1.38568 0
M  V30 4907 H 462.416 -3.06999 3.75468 0
M  V30 4908 H 458.295 -3.72395 2.71741 0
M  V30 4909 H 461.839 -3.30404 6.14393 0
M  V30 4910 H 457.736 -3.95975 5.09779 0
M  V30 4911 H 458.504 -3.94138 7.17355 0
M  V30 4912 N 461.167 -1.02423 -1.1978 0
M  V30 4913 C 462.13 -0.605703 -2.21052 0
M  V30 4914 C 463.13 0.328209 -1.57415 0
M  V30 4915 O 464.32 0.115853 -1.73814 0
M  V30 4916 C 461.452 0.114366 -3.40708 0
M  V30 4917 H 462.645 -1.5017 -2.59594 0
M  V30 4918 H 460.198 -0.814888 -1.33376 0
M  V30 4919 H 460.933 1.02492 -3.07678 0
M  V30 4920 H 460.718 -0.556641 -3.88129 0
M  V30 4921 H 462.208 0.394272 -4.15735 0
M  V30 4922 N 462.645 1.35699 -0.801477 0
M  V30 4923 C 463.608 2.28199 -0.213994 0
M  V30 4924 C 464.608 1.49359 0.595691 0
M  V30 4925 O 465.798 1.69186 0.414921 0
M  V30 4926 C 462.93 3.33587 0.702297 0
M  V30 4927 H 464.123 2.81666 -1.02976 0
M  V30 4928 H 461.676 1.45467 -0.571759 0
M  V30 4929 H 462.411 2.85297 1.54195 0
M  V30 4930 H 462.196 3.91906 0.123484 0
M  V30 4931 H 463.686 4.02638 1.10783 0
M  V30 4932 N 464.123 0.554532 1.47522 0
M  V30 4933 C 465.371 0.0294208 2.02079 0
M  V30 4934 C 465.692 -1.32411 1.43151 0
M  V30 4935 O 464.962 -1.863 0.605728 0
M  V30 4936 H 463.542 0.00788672 0.746958 0
M  V30 4937 H 466.204 0.723934 1.80956 0
M  V30 4938 H 465.3 -0.0606745 3.12041 0
M  V30 4939 N 465.601 -1.54893 0.290851 0
M  V30 4940 C 466.85 -1.99111 -0.322113 0
M  V30 4941 C 467.163 -1.18283 -1.55784 0
M  V30 4942 O 468.369 -1.5272 -2.24475 0
M  V30 4943 C 466.825 -3.54442 -0.624438 0
M  V30 4944 C 466.433 -4.44066 0.592373 0
M  V30 4945 C 468.177 -4.07211 -1.19916 0
M  V30 4946 C 466.084 -5.90812 0.263762 0
M  V30 4947 H 465.014 -0.743712 -0.124133 0
M  V30 4948 H 467.665 -1.79132 0.39797 0
M  V30 4949 H 466.047 -3.70281 -1.40384 0
M  V30 4950 H 467.221 -4.39999 1.36886 0
M  V30 4951 H 465.536 -4.02015 1.08502 0
M  V30 4952 H 468.133 -5.14407 -1.45909 0
M  V30 4953 H 468.476 -3.57196 -2.13815 0
M  V30 4954 H 469.009 -3.94873 -0.481687 0
M  V30 4955 H 465.748 -6.44955 1.17105 0
M  V30 4956 H 465.268 -5.97911 -0.475655 0
M  V30 4957 H 466.947 -6.46852 -0.138354 0
M  V30 4958 N 467.08 -0.0183926 -1.57589 0
M  V30 4959 C 468.01 0.965596 -2.12599 0
M  V30 4960 C 468.991 1.34641 -1.0395 0
M  V30 4961 O 470.176 1.42693 -1.31729 0
M  V30 4962 C 467.306 2.25149 -2.64434 0
M  V30 4963 C 466.26 2.01175 -3.77773 0
M  V30 4964 C 465.586 3.35937 -4.15994 0
M  V30 4965 C 466.886 1.35953 -5.04296 0
M  V30 4966 H 468.58 0.507504 -2.95067 0
M  V30 4967 H 466.126 0.242671 -1.41941 0
M  V30 4968 H 468.079 2.94357 -3.01549 0
M  V30 4969 H 466.803 2.73105 -1.79112 0
M  V30 4970 H 465.462 1.34388 -3.4108 0
M  V30 4971 H 465.11 3.81631 -3.27669 0
M  V30 4972 H 464.81 3.20705 -4.92364 0
M  V30 4973 H 466.334 4.0643 -4.55683 0
M  V30 4974 H 467.748 1.95144 -5.39065 0
M  V30 4975 H 466.145 1.31152 -5.85593 0
M  V30 4976 H 467.215 0.331071 -4.83768 0
M  V30 4977 N 468.558 1.5553 0.254621 0
M  V30 4978 C 469.783 1.81383 1.00573 0
M  V30 4979 C 470.208 0.594419 1.78461 0
M  V30 4980 O 469.566 -0.456403 1.75461 0
M  V30 4981 C 469.614 3.04892 1.92545 0
M  V30 4982 O 468.718 2.81266 3.01601 0
M  V30 4983 H 468.059 0.598969 0.286587 0
M  V30 4984 H 470.589 2.02703 0.277952 0
M  V30 4985 H 470.599 3.34119 2.34155 0
M  V30 4986 H 469.274 3.93287 1.3527 0
M  V30 4987 H 467.851 2.63185 2.64174 0
M  V30 4988 N 470.036 -0.519951 1.48776 0
M  V30 4989 C 471.283 -1.27522 1.57303 0
M  V30 4990 C 471.611 -1.92869 0.251328 0
M  V30 4991 O 470.866 -1.80372 -0.759243 0
M  V30 4992 C 471.165 -2.37864 2.6675 0
M  V30 4993 C 470.831 -1.90103 4.08867 0
M  V30 4994 C 469.493 -1.76795 4.47546 0
M  V30 4995 C 471.845 -1.54133 4.97888 0
M  V30 4996 C 469.173 -1.25868 5.73039 0
M  V30 4997 C 471.525 -1.04665 6.23881 0
M  V30 4998 C 470.189 -0.899823 6.61407 0
M  V30 4999 H 469.459 -0.466636 0.575614 0
M  V30 5000 H 472.106 -0.579109 1.82534 0
M  V30 5001 H 470.411 -3.13186 2.35418 0
M  V30 5002 H 472.108 -2.95969 2.70561 0
M  V30 5003 H 468.698 -2.01414 3.78326 0
M  V30 5004 H 472.882 -1.6327 4.68675 0
M  V30 5005 H 468.138 -1.13196 6.0083 0
M  V30 5006 H 472.312 -0.759074 6.92251 0
M  V30 5007 H 469.939 -0.503011 7.58534 0
M  V30 5008 N 471.514 -1.37532 -0.769588 0
M  V30 5009 C 472.791 -1.23392 -1.51768 0
M  V30 5010 C 473.171 0.17157 -2.10402 0
M  V30 5011 O 472.519 1.17943 -1.95708 0
M  V30 5012 C 472.729 -2.33163 -2.59685 0
M  V30 5013 C 474.077 -2.70809 -3.27028 0
M  V30 5014 O 475.101 -2.32355 -2.69981 0
M  V30 5015 O 473.96 -3.37066 -4.30173 0
M  V30 5016 H 471.054 -0.481617 -0.67229 0
M  V30 5017 H 473.6 -1.49318 -0.806368 0
M  V30 5018 H 472.372 -3.27273 -2.14494 0
M  V30 5019 H 471.995 -2.08713 -3.38415 0
M  V30 5020 N 472.992 0.995999 -1.22138 0
M  V30 5021 C 473.939 2.08551 -0.988687 0
M  V30 5022 C 474.909 1.65864 0.0885021 0
M  V30 5023 O 476.094 1.90704 -0.0604589 0
M  V30 5024 C 473.234 3.40374 -0.569191 0
M  V30 5025 C 472.347 3.96421 -1.71681 0
M  V30 5026 C 471.482 5.1639 -1.2456 0
M  V30 5027 C 470.521 5.64567 -2.36497 0
M  V30 5028 N 469.658 6.75777 -1.90445 0
M  V30 5029 H 474.498 2.2779 -1.92135 0
M  V30 5030 H 472.035 1.1168 -0.957388 0
M  V30 5031 H 473.993 4.16068 -0.307166 0
M  V30 5032 H 472.623 3.21145 0.326462 0
M  V30 5033 H 471.675 3.17628 -2.09324 0
M  V30 5034 H 472.987 4.2816 -2.55891 0
M  V30 5035 H 472.141 5.99362 -0.940774 0
M  V30 5036 H 470.88 4.86266 -0.373662 0
M  V30 5037 H 469.885 4.80185 -2.67772 0
M  V30 5038 H 471.11 5.96716 -3.24202 0
M  V30 5039 H 469.056 6.47443 -1.05609 0
M  V30 5040 H 468.973 7.06818 -2.68223 0
M  V30 5041 H 470.241 7.62262 -1.63022 0
M  V30 5042 N 474.47 1.03057 1.19235 0
M  V30 5043 C 475.695 0.74757 1.93458 0
M  V30 5044 C 476.12 -0.687648 1.7508 0
M  V30 5045 O 475.478 -1.47499 1.05422 0
M  V30 5046 C 475.526 1.10604 3.43219 0
M  V30 5047 O 474.63 0.225671 4.11782 0
M  V30 5048 H 473.971 0.276047 0.603899 0
M  V30 5049 H 476.501 1.3777 1.51263 0
M  V30 5050 H 476.511 1.06366 3.93891 0
M  V30 5051 H 475.186 2.15165 3.55917 0
M  V30 5052 H 473.763 0.326795 3.71465 0
M  V30 5053 N 475.948 -1.35272 0.808662 0
M  V30 5054 C 477.188 -2.00534 0.395668 0
M  V30 5055 C 477.552 -1.62755 -1.01857 0
M  V30 5056 O 478.753 -2.20752 -1.53368 0
M  V30 5057 C 477.024 -3.52732 0.575771 0
M  V30 5058 S 478.583 -4.38067 0.253507 0
M  V30 5059 H 475.401 -0.694962 0.150165 0
M  V30 5060 H 478.003 -1.64823 1.05137 0
M  V30 5061 H 476.707 -3.77714 1.60499 0
M  V30 5062 H 476.238 -3.93285 -0.0951739 0
M  V30 5063 H 478.253 -4.87252 -0.938068 0
M  V30 5064 N 477.426 -0.562348 -1.47226 0
M  V30 5065 C 478.389 0.172056 -2.28553 0
M  V30 5066 C 479.389 0.837928 -1.37242 0
M  V30 5067 O 480.579 0.693001 -1.59822 0
M  V30 5068 C 477.711 1.25223 -3.17068 0
M  V30 5069 H 478.904 -0.542401 -2.94954 0
M  V30 5070 H 476.457 -0.319493 -1.53 0
M  V30 5071 H 477.192 1.99892 -2.55369 0
M  V30 5072 H 476.977 0.779515 -3.84273 0
M  V30 5073 H 478.467 1.76791 -3.78332 0
M  V30 5074 N 478.904 1.54736 -0.299062 0
M  V30 5075 C 480.15 2.00397 0.311244 0
M  V30 5076 C 480.483 1.18716 1.53688 0
M  V30 5077 O 479.758 0.263154 1.92712 0
M  V30 5078 C 480.041 3.53817 0.669761 0
M  V30 5079 C 479.894 4.46239 -0.564882 0
M  V30 5080 C 481.213 4.13856 1.49702 0
M  V30 5081 H 478.332 0.728493 0.111653 0
M  V30 5082 H 480.974 1.85506 -0.410774 0
M  V30 5083 H 479.124 3.66637 1.28491 0
M  V30 5084 H 480.796 4.45328 -1.20337 0
M  V30 5085 H 479.039 4.16916 -1.19849 0
M  V30 5086 H 479.71 5.5134 -0.269918 0
M  V30 5087 H 482.186 4.04461 0.977284 0
M  V30 5088 H 481.062 5.21365 1.71666 0
M  V30 5089 H 481.323 3.65608 2.48563 0
M  V30 5090 N 480.382 0.0267497 1.57577 0
M  V30 5091 C 481.345 -0.940916 2.08996 0
M  V30 5092 C 482.345 -1.25561 1.00455 0
M  V30 5093 O 483.535 -1.19634 1.26623 0
M  V30 5094 C 480.667 -2.25814 2.55384 0
M  V30 5095 H 481.86 -0.495628 2.95776 0
M  V30 5096 H 479.413 -0.221241 1.54726 0
M  V30 5097 H 480.148 -2.74976 1.71926 0
M  V30 5098 H 479.933 -2.04285 3.34679 0
M  V30 5099 H 481.423 -2.95178 2.95398 0
M  V30 5100 N 481.861 -1.55662 -0.24637 0
M  V30 5101 C 482.771 -1.93495 -1.32653 0
M  V30 5102 C 483.787 -0.835462 -1.5263 0
M  V30 5103 O 484.963 -1.1369 -1.66242 0
M  V30 5104 C 482.028 -2.22242 -2.66101 0
M  V30 5105 C 481.089 -3.45625 -2.54641 0
M  V30 5106 C 480.322 -3.72991 -3.81724 0
M  V30 5107 O 480.545 -3.02421 -4.8363 0
M  V30 5108 O 479.479 -4.66515 -3.80325 0
M  V30 5109 H 483.305 -2.85498 -1.03559 0
M  V30 5110 H 480.89 -1.42551 -0.44717 0
M  V30 5111 H 482.772 -2.42037 -3.44958 0
M  V30 5112 H 481.447 -1.33417 -2.94926 0
M  V30 5113 H 480.354 -3.31136 -1.74067 0
M  V30 5114 H 481.687 -4.34754 -2.3076 0
M  V30 5115 N 483.339 0.512053 -1.4905 0
M  V30 5116 C 484.569 1.28928 -1.61434 0
M  V30 5117 C 484.977 1.87107 -0.280647 0
M  V30 5118 O 484.32 1.68024 0.742537 0
M  V30 5119 C 484.382 2.466 -2.61588 0
M  V30 5120 C 484.046 2.09375 -4.06216 0
M  V30 5121 C 485.043 1.63994 -4.93358 0
M  V30 5122 C 482.728 2.19348 -4.51876 0
M  V30 5123 C 484.722 1.29076 -6.24194 0
M  V30 5124 C 482.409 1.84041 -5.82728 0
M  V30 5125 C 483.407 1.38978 -6.68711 0
M  V30 5126 O 483.095 1.04144 -7.97126 0
M  V30 5127 H 482.827 0.397668 -0.546659 0
M  V30 5128 H 485.381 0.622507 -1.9574 0
M  V30 5129 H 483.611 3.16318 -2.22441 0
M  V30 5130 H 485.3 3.08642 -2.63619 0
M  V30 5131 H 486.066 1.55744 -4.59313 0
M  V30 5132 H 481.945 2.53376 -3.85125 0
M  V30 5133 H 485.489 0.938303 -6.91261 0
M  V30 5134 H 481.386 1.91938 -6.16304 0
M  V30 5135 H 482.154 1.17387 -8.10039 0
M  V30 5136 N 484.817 1.37938 0.762283 0
M  V30 5137 C 486.065 1.33404 1.51815 0
M  V30 5138 C 486.386 -0.0780975 1.94844 0
M  V30 5139 O 485.656 -1.02405 1.67003 0
M  V30 5140 H 484.236 0.490839 0.563104 0
M  V30 5141 H 486.898 1.72527 0.906669 0
M  V30 5142 H 485.994 1.97926 2.41313 0
M  V30 5143 N 486.295 -0.989507 1.22664 0
M  V30 5144 C 487.541 -1.7321 1.05481 0
M  V30 5145 C 487.874 -1.89852 -0.408635 0
M  V30 5146 O 487.149 -1.44416 -1.30285 0
M  V30 5147 C 487.432 -3.1357 1.77047 0
M  V30 5148 C 487.285 -3.04555 3.31008 0
M  V30 5149 C 488.604 -4.12812 1.5256 0
M  V30 5150 H 485.723 -0.628697 0.384589 0
M  V30 5151 H 488.365 -1.15258 1.51049 0
M  V30 5152 H 486.515 -3.63046 1.3831 0
M  V30 5153 H 488.187 -2.62674 3.7921 0
M  V30 5154 H 486.43 -2.41278 3.6051 0
M  V30 5155 H 487.101 -4.03894 3.76263 0
M  V30 5156 H 489.577 -3.72106 1.86215 0
M  V30 5157 H 488.453 -5.09132 2.05124 0
M  V30 5158 H 488.714 -4.39711 0.458936 0
M  V30 5159 N 487.773 -1.03688 -1.18687 0
M  V30 5160 C 489.003 -0.756819 -1.92239 0
M  V30 5161 C 489.411 0.689374 -1.76194 0
M  V30 5162 O 488.754 1.48126 -1.08648 0
M  V30 5163 C 488.816 -1.03851 -3.44173 0
M  V30 5164 C 488.48 -2.47785 -3.83994 0
M  V30 5165 C 489.477 -3.4595 -3.88091 0
M  V30 5166 C 487.162 -2.82397 -4.154 0
M  V30 5167 C 489.156 -4.76779 -4.23038 0
M  V30 5168 C 486.843 -4.13433 -4.50018 0
M  V30 5169 C 487.841 -5.10434 -4.53813 0
M  V30 5170 O 487.529 -6.39122 -4.87625 0
M  V30 5171 H 487.261 -0.275678 -0.617234 0
M  V30 5172 H 489.815 -1.38658 -1.51536 0
M  V30 5173 H 488.045 -0.351612 -3.85098 0
M  V30 5174 H 489.734 -0.746846 -3.9897 0
M  V30 5175 H 490.5 -3.20549 -3.63969 0
M  V30 5176 H 486.379 -2.07568 -4.11627 0
M  V30 5177 H 489.923 -5.52488 -4.25914 0
M  V30 5178 H 485.82 -4.38604 -4.736 0
M  V30 5179 H 486.588 -6.43715 -5.05542 0
M  V30 5180 N 489.251 1.34841 -0.815825 0
M  V30 5181 C 490.497 1.98793 -0.401129 0
M  V30 5182 C 490.83 1.64548 1.03139 0
M  V30 5183 O 490.105 0.913487 1.71714 0
M  V30 5184 C 490.388 3.55143 -0.595409 0
M  V30 5185 C 490.241 3.99155 -2.07352 0
M  V30 5186 C 491.56 4.40092 -0.0268823 0
M  V30 5187 H 488.679 0.722146 -0.14722 0
M  V30 5188 H 491.321 1.59847 -1.02707 0
M  V30 5189 H 489.471 3.8845 -0.0625779 0
M  V30 5190 H 491.143 3.76216 -2.66945 0
M  V30 5191 H 489.386 3.49726 -2.56659 0
M  V30 5192 H 490.057 5.07971 -2.1603 0
M  V30 5193 H 492.533 4.13298 -0.482042 0
M  V30 5194 H 491.409 5.48562 -0.19267 0
M  V30 5195 H 491.67 4.29016 1.06759 0
M  V30 5196 N 490.729 0.570148 1.46925 0
M  V30 5197 C 491.676 -0.170257 2.30171 0
M  V30 5198 C 492.646 -0.896099 1.39855 0
M  V30 5199 O 493.831 -0.889248 1.68811 0
M  V30 5200 C 490.971 -1.18605 3.24079 0
M  V30 5201 C 490.084 -0.464947 4.29491 0
M  V30 5202 C 489.219 -1.46716 5.10537 0
M  V30 5203 C 488.258 -0.731758 6.0771 0
M  V30 5204 N 487.395 -1.68142 6.81669 0
M  V30 5205 H 492.235 0.545713 2.92961 0
M  V30 5206 H 489.772 0.280938 1.44392 0
M  V30 5207 H 491.73 -1.78771 3.76957 0
M  V30 5208 H 490.36 -1.86989 2.63125 0
M  V30 5209 H 489.412 0.251506 3.79568 0
M  V30 5210 H 490.724 0.110548 4.98677 0
M  V30 5211 H 489.878 -2.14199 5.6763 0
M  V30 5212 H 488.617 -2.07658 4.41282 0
M  V30 5213 H 487.622 -0.0430787 5.49783 0
M  V30 5214 H 488.847 -0.127904 6.7898 0
M  V30 5215 H 486.793 -2.27918 6.15134 0
M  V30 5216 H 486.71 -1.15841 7.47072 0
M  V30 5217 H 487.978 -2.347 7.43328 0
M  V30 5218 N 492.207 -1.54576 0.307264 0
M  V30 5219 C 493.453 -2.0056 -0.300612 0
M  V30 5220 C 493.786 -1.1953 -1.53057 0
M  V30 5221 O 493.061 -0.27337 -1.92569 0
M  V30 5222 C 493.344 -3.54167 -0.650987 0
M  V30 5223 C 493.197 -4.45933 0.588539 0
M  V30 5224 C 494.516 -4.14645 -1.47506 0
M  V30 5225 H 491.635 -0.729075 -0.107788 0
M  V30 5226 H 494.277 -1.85286 0.420606 0
M  V30 5227 H 492.427 -3.67313 -1.26544 0
M  V30 5228 H 494.099 -4.44683 1.22697 0
M  V30 5229 H 492.342 -4.16274 1.22058 0
M  V30 5230 H 493.013 -5.51189 0.299153 0
M  V30 5231 H 495.489 -4.04973 -0.955821 0
M  V30 5232 H 494.365 -5.22269 -1.68899 0
M  V30 5233 H 494.626 -3.66921 -2.4662 0
M  V30 5234 N 493.685 -0.035106 -1.57561 0
M  V30 5235 C 494.913 0.652258 -1.9635 0
M  V30 5236 C 495.328 1.65317 -0.911897 0
M  V30 5237 O 494.685 1.82194 0.105657 0
M  V30 5238 C 494.736 1.35337 -3.35211 0
M  V30 5239 O 494.457 0.392548 -4.36338 0
M  V30 5240 C 495.958 2.13199 -3.88666 0
M  V30 5241 H 493.178 0.179444 -0.646561 0
M  V30 5242 H 495.722 -0.0966459 -2.04271 0
M  V30 5243 H 493.877 2.05362 -3.28489 0
M  V30 5244 H 494.291 0.891097 -5.16875 0
M  V30 5245 H 495.765 2.577 -4.88154 0
M  V30 5246 H 496.242 2.97353 -3.23231 0
M  V30 5247 H 496.848 1.48118 -3.98674 0
M  V30 5248 N 495.163 1.55791 0.238111 0
M  V30 5249 C 496.388 1.8244 0.986432 0
M  V30 5250 C 496.813 0.613314 1.7782 0
M  V30 5251 O 496.171 -0.437767 1.75935 0
M  V30 5252 C 496.219 3.06917 1.893 0
M  V30 5253 O 495.323 2.84449 2.98601 0
M  V30 5254 H 494.664 0.601975 0.280218 0
M  V30 5255 H 497.194 2.02987 0.256437 0
M  V30 5256 H 497.204 3.36583 2.30598 0
M  V30 5257 H 495.879 3.947 1.31091 0
M  V30 5258 H 494.456 2.65972 2.61368 0
M  V30 5259 N 496.642 -0.504142 1.49319 0
M  V30 5260 C 497.891 -1.25507 1.57895 0
M  V30 5261 C 498.204 -1.93735 0.269433 0
M  V30 5262 O 499.41 -2.70492 0.233706 0
M  V30 5263 C 497.866 -2.27869 2.78574 0
M  V30 5264 C 497.474 -1.65594 4.16272 0
M  V30 5265 C 499.218 -3.0381 2.96479 0
M  V30 5266 C 497.125 -2.66048 5.28178 0
M  V30 5267 H 496.055 -0.47212 0.587894 0
M  V30 5268 H 498.706 -0.52931 1.757 0
M  V30 5269 H 497.088 -3.03594 2.54257 0
M  V30 5270 H 498.262 -0.958826 4.50714 0
M  V30 5271 H 496.577 -1.02055 4.037 0
M  V30 5272 H 499.174 -3.78925 3.77253 0
M  V30 5273 H 499.517 -3.61235 2.06918 0
M  V30 5274 H 500.05 -2.352 3.20821 0
M  V30 5275 H 496.789 -2.13408 6.19788 0
M  V30 5276 H 496.309 -3.34009 4.98195 0
M  V30 5277 H 497.988 -3.28536 5.57381 0
M  V30 5278 N 498.12 -1.38341 -0.754957 0
M  V30 5279 C 499.052 -1.31347 -1.87831 0
M  V30 5280 C 500.065 -0.225955 -1.61224 0
M  V30 5281 O 501.254 -0.48341 -1.7183 0
M  V30 5282 C 498.354 -1.01201 -3.23437 0
M  V30 5283 C 497.527 -2.20834 -3.77559 0
M  V30 5284 C 496.586 -1.87454 -4.91678 0
M  V30 5285 O 495.612 -2.59934 -5.06382 0
M  V30 5286 N 496.814 -0.828682 -5.74555 0
M  V30 5287 H 499.579 -2.28147 -1.94342 0
M  V30 5288 H 497.14 -1.32184 -0.934828 0
M  V30 5289 H 499.132 -0.769249 -3.97322 0
M  V30 5290 H 497.702 -0.132011 -3.12321 0
M  V30 5291 H 496.922 -2.61184 -2.95256 0
M  V30 5292 H 498.21 -3.00678 -4.10451 0
M  V30 5293 H 497.608 -0.227591 -5.65242 0
M  V30 5294 H 496.165 -0.645802 -6.48593 0
M  V30 5295 N 499.598 0.982988 -1.23187 0
M  V30 5296 C 500.548 2.05962 -0.977942 0
M  V30 5297 C 501.532 1.60725 0.0751148 0
M  V30 5298 O 502.724 1.76471 -0.136683 0
M  V30 5299 C 499.853 3.38564 -0.568276 0
M  V30 5300 C 498.939 3.90407 -1.6566 0
M  V30 5301 N 499.33 4.15359 -2.88635 0
M  V30 5302 C 497.628 4.18915 -1.53058 0
M  V30 5303 C 498.329 4.57642 -3.5908 0
M  V30 5304 N 497.305 4.6192 -2.86584 0
M  V30 5305 H 501.107 2.23208 -1.91195 0
M  V30 5306 H 498.621 1.16555 -1.13087 0
M  V30 5307 H 500.618 4.15276 -0.36764 0
M  V30 5308 H 499.278 3.22712 0.358713 0
M  V30 5309 H 500.289 4.03258 -3.24966 0
M  V30 5310 H 496.966 4.12081 -0.670506 0
M  V30 5311 H 498.356 4.85488 -4.6449 0
M  V30 5312 N 501.076 1.04316 1.18135 0
M  V30 5313 C 502.322 0.758899 1.88712 0
M  V30 5314 C 502.677 -0.705863 1.78984 0
M  V30 5315 O 501.97 -1.50874 1.18101 0
M  V30 5316 C 502.164 1.16271 3.37958 0
M  V30 5317 C 501.993 2.66518 3.62213 0
M  V30 5318 C 500.763 3.33702 3.79436 0
M  V30 5319 C 502.961 3.64739 3.62588 0
M  V30 5320 N 500.943 4.72904 3.91452 0
M  V30 5321 C 502.314 4.89627 3.80348 0
M  V30 5322 C 504.369 3.58333 3.4569 0
M  V30 5323 C 503.072 6.08879 3.8296 0
M  V30 5324 C 505.098 4.77016 3.49586 0
M  V30 5325 C 504.46 6.00724 3.67845 0
M  V30 5326 H 500.559 0.329795 0.709055 0
M  V30 5327 H 503.143 1.33334 1.4188 0
M  V30 5328 H 501.314 0.616319 3.83479 0
M  V30 5329 H 503.046 0.829205 3.96114 0
M  V30 5330 H 499.801 2.84105 3.78921 0
M  V30 5331 H 500.225 5.45258 4.01277 0
M  V30 5332 H 504.867 2.63663 3.30517 0
M  V30 5333 H 502.585 7.03903 3.96921 0
M  V30 5334 H 506.171 4.73703 3.37782 0
M  V30 5335 H 505.051 6.91022 3.70753 0
M  V30 5336 N 502.554 -1.34406 0.822964 0
M  V30 5337 C 503.8 -1.98578 0.411666 0
M  V30 5338 C 504.133 -1.65093 -1.02264 0
M  V30 5339 O 503.408 -0.92258 -1.71227 0
M  V30 5340 C 503.691 -3.54823 0.614235 0
M  V30 5341 C 503.544 -3.9805 2.09466 0
M  V30 5342 C 504.863 -4.40071 0.050221 0
M  V30 5343 H 501.982 -0.721355 0.151047 0
M  V30 5344 H 504.624 -1.59301 1.03554 0
M  V30 5345 H 502.774 -3.88411 0.0831774 0
M  V30 5346 H 504.446 -3.74795 2.68936 0
M  V30 5347 H 502.689 -3.4836 2.5851 0
M  V30 5348 H 503.36 -5.06819 2.18721 0
M  V30 5349 H 505.836 -4.13037 0.503953 0
M  V30 5350 H 504.712 -5.48452 0.221759 0
M  V30 5351 H 504.973 -4.29576 -1.04482 0
M  V30 5352 N 504.032 -0.577932 -1.46621 0
M  V30 5353 C 504.964 0.195801 -2.28362 0
M  V30 5354 C 505.977 0.859983 -1.38232 0
M  V30 5355 O 507.166 0.730349 -1.62875 0
M  V30 5356 C 504.266 1.29639 -3.13124 0
M  V30 5357 C 503.439 0.725049 -4.31349 0
M  V30 5358 C 502.498 1.71274 -4.97546 0
M  V30 5359 O 501.524 1.25067 -5.5529 0
M  V30 5360 N 502.726 3.04672 -4.94121 0
M  V30 5361 H 505.491 -0.505468 -2.95407 0
M  V30 5362 H 503.052 -0.415381 -1.56481 0
M  V30 5363 H 505.044 1.95631 -3.54275 0
M  V30 5364 H 503.614 1.90059 -2.48186 0
M  V30 5365 H 502.834 -0.112205 -3.9404 0
M  V30 5366 H 504.122 0.323034 -5.07774 0
M  V30 5367 H 503.52 3.4484 -4.48444 0
M  V30 5368 H 502.077 3.66166 -5.39227 0
M  V30 5369 N 505.51 1.54411 -0.315457 0
M  V30 5370 C 506.457 2.24048 0.554166 0
M  V30 5371 C 507.427 1.2283 1.11812 0
M  V30 5372 O 508.612 1.51491 1.15997 0
M  V30 5373 C 505.752 2.99574 1.71316 0
M  V30 5374 C 504.865 4.15594 1.17922 0
M  V30 5375 C 504 4.78669 2.30324 0
M  V30 5376 C 503.039 5.86807 1.74137 0
M  V30 5377 N 502.176 6.43777 2.8017 0
M  V30 5378 H 507.016 2.97964 -0.0462602 0
M  V30 5379 H 504.553 1.47059 -0.0346009 0
M  V30 5380 H 506.511 3.41604 2.39505 0
M  V30 5381 H 505.141 2.28008 2.285 0
M  V30 5382 H 504.193 3.78404 0.389136 0
M  V30 5383 H 505.505 4.93459 0.728012 0
M  V30 5384 H 504.659 5.23626 3.06433 0
M  V30 5385 H 503.398 4.00168 2.78778 0
M  V30 5386 H 502.403 5.41261 0.965236 0
M  V30 5387 H 503.628 6.67201 1.2657 0
M  V30 5388 H 501.574 5.68153 3.2793 0
M  V30 5389 H 501.491 7.17031 2.39588 0
M  V30 5390 H 502.759 6.9339 3.56132 0
M  V30 5391 N 506.988 0.0434614 1.5754 0
M  V30 5392 C 508.216 -0.641835 1.96693 0
M  V30 5393 C 508.631 -1.64832 0.920652 0
M  V30 5394 O 507.988 -1.82247 -0.095993 0
M  V30 5395 C 508.039 -1.33557 3.35924 0
M  V30 5396 O 507.76 -0.369403 4.3654 0
M  V30 5397 C 509.261 -2.11135 3.89791 0
M  V30 5398 H 506.481 -0.176013 0.647503 0
M  V30 5399 H 509.025 0.107478 2.04217 0
M  V30 5400 H 507.18 -2.03617 3.29574 0
M  V30 5401 H 507.594 -0.863674 5.1734 0
M  V30 5402 H 509.068 -2.55107 4.89514 0
M  V30 5403 H 509.545 -2.95634 3.24803 0
M  V30 5404 H 510.151 -1.46002 3.99454 0
M  V30 5405 N 508.466 -1.55915 -0.229846 0
M  V30 5406 C 509.715 -1.77742 -0.953455 0
M  V30 5407 C 510.028 -0.610524 -1.85828 0
M  V30 5408 O 511.234 -0.712219 -2.61992 0
M  V30 5409 C 509.69 -3.14738 -1.74551 0
M  V30 5410 C 509.298 -4.39126 -0.887242 0
M  V30 5411 C 511.042 -3.45895 -2.46084 0
M  V30 5412 C 508.949 -5.67149 -1.67617 0
M  V30 5413 H 507.879 -0.662648 -0.359741 0
M  V30 5414 H 510.53 -1.82322 -0.207576 0
M  V30 5415 H 508.912 -3.04311 -2.53399 0
M  V30 5416 H 510.086 -4.60588 -0.139892 0
M  V30 5417 H 508.401 -4.15427 -0.284443 0
M  V30 5418 H 510.998 -4.38767 -3.05594 0
M  V30 5419 H 511.341 -2.68007 -3.18556 0
M  V30 5420 H 511.874 -3.57614 -1.74233 0
M  V30 5421 H 508.613 -6.47906 -0.994881 0
M  V30 5422 H 508.133 -5.49763 -2.39836 0
M  V30 5423 H 509.812 -6.07025 -2.23898 0
M  V30 5424 N 509.944 0.496216 -1.49584 0
M  V30 5425 C 510.907 1.57952 -1.66084 0
M  V30 5426 C 511.907 1.51729 -0.53244 0
M  V30 5427 O 513.097 1.54796 -0.79899 0
M  V30 5428 C 510.229 2.97604 -1.66268 0
M  V30 5429 H 511.422 1.44649 -2.6271 0
M  V30 5430 H 508.975 0.7208 -1.38687 0
M  V30 5431 H 509.71 3.16378 -0.712432 0
M  V30 5432 H 509.495 3.03528 -2.4822 0
M  V30 5433 H 510.985 3.76301 -1.81073 0
M  V30 5434 N 511.423 1.38739 0.74761 0
M  V30 5435 C 512.333 1.38696 1.89211 0
M  V30 5436 C 513.349 0.283303 1.71678 0
M  V30 5437 O 514.525 0.522713 1.94498 0
M  V30 5438 C 511.59 1.21662 3.24653 0
M  V30 5439 C 510.651 2.41886 3.54669 0
M  V30 5440 C 509.884 2.25655 4.83648 0
M  V30 5441 O 510.107 1.25339 5.56459 0
M  V30 5442 O 509.041 3.14372 5.13277 0
M  V30 5443 H 512.867 2.35143 1.92202 0
M  V30 5444 H 510.452 1.19721 0.893708 0
M  V30 5445 H 512.334 1.14246 4.05618 0
M  V30 5446 H 511.009 0.283024 3.2246 0
M  V30 5447 H 509.916 2.54877 2.73841 0
M  V30 5448 H 511.249 3.33895 3.61628 0
M  V30 5449 N 512.901 -0.976442 1.23707 0
M  V30 5450 C 513.849 -2.09078 1.01927 0
M  V30 5451 C 514.843 -1.69345 -0.0430193 0
M  V30 5452 O 516.049 -1.79659 0.110814 0
M  V30 5453 H 512.424 -0.68398 0.312531 0
M  V30 5454 H 514.395 -2.24614 1.96447 0
M  V30 5455 C 513.144 -3.41919 0.631385 0
M  V30 5456 H 512.467 -3.72946 1.44053 0
M  V30 5457 H 513.907 -4.20817 0.518532 0
M  V30 5458 C 512.366 -3.30357 -0.660723 0
M  V30 5459 O 512.896 -3.63542 -1.70881 0
M  V30 5460 N 511.102 -2.83507 -0.638139 0
M  V30 5461 H 510.649 -2.567 0.215108 0
M  V30 5462 H 510.607 -2.76153 -1.50289 0
M  V30 5463 O 514.418 -1.17461 -1.10838 0
M  V30 5464 H 515.109 -0.912283 -1.70872 0
M  V30 END ATOM
M  V30 BEGIN BOND
M  V30 END BOND
M  V30 END CTAB
M  END
$$$$
