drugbank_target|P00709 Alpha-lactalbumin (DB03796)
 OpenBabel12092120353D

  0  0  0     0  0            999 V3000
M  V30 BEGIN CTAB
M  V30 COUNTS 2276 2299 0 0 0
M  V30 BEGIN ATOM
M  V30 1 H -0.908 1.98254 -0.117106 0
M  V30 2 N 0 1.576 0 0
M  V30 3 C 0.933 2.03868 1.02534 0
M  V30 4 C 1.911 0.928543 1.3348 0
M  V30 5 O 3.095 1.19667 1.45644 0
M  V30 6 C 0.222 2.43627 2.35294 0
M  V30 7 C -0.732 3.65373 2.2001 0
M  V30 8 S 0.101 5.13292 1.52614 0
M  V30 9 C 1.257 5.56322 2.86805 0
M  V30 10 H 1.49 2.90518 0.631377 0
M  V30 11 H -0.977 1.52953 0.210867 0
M  V30 12 H 0.981 2.67203 3.11629 0
M  V30 13 H -0.358 1.57376 2.7183 0
M  V30 14 H -1.165 3.90944 3.18086 0
M  V30 15 H -1.563 3.418 1.51819 0
M  V30 16 H 0.729 5.58782 3.83104 0
M  V30 17 H 1.672 6.56266 2.65933 0
M  V30 18 H 2.08 4.83886 2.90714 0
M  V30 19 N 1.4781 -0.272755 1.55222 0
M  V30 20 C 2.8941 -0.619959 1.47067 0
M  V30 21 C 3.0941 -1.895 0.684978 0
M  V30 22 O 2.1501 -2.51675 0.203931 0
M  V30 23 C 3.4631 -0.746693 2.91282 0
M  V30 24 C 5.0111 -0.840731 3.01497 0
M  V30 25 C 5.4861 -0.99924 4.46967 0
M  V30 26 N 6.9771 -1.06476 4.50796 0
M  V30 27 C 7.7121 -1.20621 5.6057 0
M  V30 28 N 7.2081 -1.31483 6.80209 0
M  V30 29 N 9.0011 -1.23733 5.48312 0
M  V30 30 H 1.1521 0.564606 2.04758 0
M  V30 31 H 3.4151 0.191177 0.928523 0
M  V30 32 H 3.1211 0.119753 3.51496 0
M  V30 33 H 2.9951 -1.6269 3.40311 0
M  V30 34 H 5.3821 -1.69764 2.41379 0
M  V30 35 H 5.4631 0.0640874 2.5572 0
M  V30 36 H 5.1071 -0.146984 5.07687 0
M  V30 37 H 5.0371 -1.91871 4.90401 0
M  V30 38 H 7.5281 -0.993196 3.64615 0
M  V30 39 H 7.8411 -1.42111 7.59621 0
M  V30 40 H 6.1861 -1.28487 6.8302 0
M  V30 41 H 9.3771 -1.14877 4.53785 0
M  V30 42 H 9.5501 -1.34412 6.33906 0
M  V30 43 N 2.9562 -1.48159 -0.537278 0
M  V30 44 C 4.2032 -1.55804 -1.29349 0
M  V30 45 C 4.5312 -0.228802 -1.9315 0
M  V30 46 O 3.7862 0.780242 -1.79473 0
M  V30 47 C 4.0852 -2.63956 -2.40961 0
M  V30 48 C 3.7512 -4.0662 -1.94861 0
M  V30 49 C 2.4132 -4.45452 -1.82006 0
M  V30 50 C 4.7652 -4.96055 -1.59933 0
M  V30 51 C 2.0932 -5.71531 -1.32547 0
M  V30 52 C 4.4452 -6.22617 -1.11939 0
M  V30 53 C 3.1092 -6.60312 -0.976951 0
M  V30 54 H 2.3792 -0.570129 -0.473322 0
M  V30 55 H 5.0262 -1.81845 -0.600372 0
M  V30 56 H 3.3312 -2.31747 -3.15912 0
M  V30 57 H 5.0282 -2.67089 -2.99107 0
M  V30 58 H 1.6182 -3.75949 -2.05815 0
M  V30 59 H 5.8022 -4.66738 -1.68728 0
M  V30 60 H 1.0582 -5.99468 -1.202 0
M  V30 61 H 5.2322 -6.91318 -0.839811 0
M  V30 62 H 2.8592 -7.57895 -0.591501 0
M  V30 63 N 4.4343 0.785586 -1.36625 0
M  V30 64 C 5.6813 1.54362 -1.31067 0
M  V30 65 C 6.0093 1.94195 0.10893 0
M  V30 66 O 5.2643 1.63262 1.07908 0
M  V30 67 C 5.5633 2.83007 -2.1827 0
M  V30 68 C 5.2293 2.62294 -3.6676 0
M  V30 69 C 3.8913 2.56353 -4.0723 0
M  V30 70 C 6.2433 2.43371 -4.6089 0
M  V30 71 C 3.5713 2.29461 -5.39967 0
M  V30 72 C 5.9233 2.18005 -5.93849 0
M  V30 73 C 4.5873 2.105 -6.3344 0
M  V30 74 H 3.8573 0.564851 -0.479609 0
M  V30 75 H 6.5043 0.906028 -1.68711 0
M  V30 76 H 4.8093 3.51253 -1.73576 0
M  V30 77 H 6.5063 3.40817 -2.11292 0
M  V30 78 H 3.0963 2.67774 -3.34656 0
M  V30 79 H 7.2803 2.46959 -4.30494 0
M  V30 80 H 2.5363 2.22135 -5.69619 0
M  V30 81 H 6.7103 2.02359 -6.66351 0
M  V30 82 H 4.3373 1.89425 -7.36222 0
M  V30 83 N 5.9124 1.20967 1.01018 0
M  V30 84 C 7.1584 1.02526 1.74975 0
M  V30 85 C 7.4914 -0.4408 1.89131 0
M  V30 86 O 6.7664 -1.32718 1.42184 0
M  V30 87 C 7.0494 1.71699 3.1653 0
M  V30 88 C 6.9024 3.25791 3.10129 0
M  V30 89 C 8.2214 1.45531 4.15342 0
M  V30 90 H 5.3404 0.373863 0.635134 0
M  V30 91 H 7.9824 1.49071 1.17805 0
M  V30 92 H 6.1324 1.32128 3.65341 0
M  V30 93 H 7.8044 3.74697 2.69072 0
M  V30 94 H 6.0474 3.56363 2.47362 0
M  V30 95 H 6.7184 3.69353 4.10222 0
M  V30 96 H 9.1944 1.79872 3.75213 0
M  V30 97 H 8.0704 1.96453 5.1254 0
M  V30 98 H 8.3314 0.384237 4.40427 0
M  V30 99 N 7.3905 -1.2043 1.01659 0
M  V30 100 C 8.8015 -1.71517 0.737482 0
M  V30 101 C 9.1525 -1.81547 -0.743973 0
M  V30 102 O 8.2775 -1.47803 -1.58061 0
M  V30 103 C 8.8725 -3.11515 1.33206 0
M  V30 104 C 7.4315 -3.59912 1.10183 0
M  V30 105 C 6.5785 -2.37116 1.43776 0
M  V30 106 H 9.5295 -1.05444 1.18606 0
M  V30 107 H 9.5505 -3.73575 0.722636 0
M  V30 108 H 9.0625 -3.04182 2.41028 0
M  V30 109 H 7.1635 -3.72577 0.0412756 0
M  V30 110 H 7.2765 -4.44731 1.78188 0
M  V30 111 H 5.6405 -2.39857 0.856778 0
M  V30 112 H 6.4235 -2.32424 2.52654 0
M  V30 113 N 8.8686 -0.792821 -1.36206 0
M  V30 114 C 9.7986 -0.207853 -2.32573 0
M  V30 115 C 10.7796 0.659055 -1.56813 0
M  V30 116 O 11.9646 0.592176 -1.84951 0
M  V30 117 C 9.0946 0.655449 -3.41059 0
M  V30 118 C 8.0486 -0.111842 -4.27854 0
M  V30 119 C 7.3746 0.872274 -5.27537 0
M  V30 120 C 8.6746 -1.30299 -5.05786 0
M  V30 121 H 10.3686 -1.01294 -2.81744 0
M  V30 122 H 7.9146 -0.48854 -1.3546 0
M  V30 123 H 9.8676 1.07464 -4.07467 0
M  V30 124 H 8.5916 1.49328 -2.90463 0
M  V30 125 H 7.2506 -0.512053 -3.63006 0
M  V30 126 H 6.8986 1.70523 -4.73214 0
M  V30 127 H 6.5986 0.363291 -5.86476 0
M  V30 128 H 8.1226 1.28996 -5.96818 0
M  V30 129 H 9.5366 -0.959379 -5.65216 0
M  V30 130 H 7.9336 -1.7455 -5.74154 0
M  V30 131 H 9.0036 -2.09663 -4.37229 0
M  V30 132 N 10.3467 1.47872 -0.545128 0
M  V30 133 C 11.5937 2.02493 -0.0165858 0
M  V30 134 C 11.9217 1.42073 1.32836 0
M  V30 135 O 11.1767 0.561459 1.87473 0
M  V30 136 C 11.4757 3.57131 0.13867 0
M  V30 137 C 11.1417 4.36411 -1.13384 0
M  V30 138 C 9.8037 4.57792 -1.48256 0
M  V30 139 C 12.1557 4.82223 -1.97764 0
M  V30 140 C 9.4837 5.22233 -2.67376 0
M  V30 141 C 11.8357 5.47977 -3.16076 0
M  V30 142 C 10.4997 5.67593 -3.51275 0
M  V30 143 H 9.7697 0.740975 -0.00606918 0
M  V30 144 H 12.4167 1.77683 -0.714207 0
M  V30 145 H 10.7217 3.80865 0.919172 0
M  V30 146 H 12.4187 3.97031 0.562782 0
M  V30 147 H 9.0087 4.2004 -0.852297 0
M  V30 148 H 13.1927 4.65493 -1.72132 0
M  V30 149 H 8.4487 5.35616 -2.94831 0
M  V30 150 H 12.6227 5.8244 -3.81755 0
M  V30 151 H 10.2497 6.17298 -4.43675 0
M  V30 152 N 11.8248 0.280983 1.55075 0
M  V30 153 C 12.7548 -0.597469 2.25727 0
M  V30 154 C 13.7358 -1.15417 1.24952 0
M  V30 155 O 14.9208 -1.18722 1.53684 0
M  V30 156 C 12.0508 -1.7789 2.98283 0
M  V30 157 C 11.0048 -1.35347 4.06036 0
M  V30 158 C 10.3308 -2.61846 4.66198 0
M  V30 159 C 11.6308 -0.499354 5.19907 0
M  V30 160 H 13.3248 -0.00824265 2.99399 0
M  V30 161 H 10.8708 -0.0025244 1.44 0
M  V30 162 H 12.8238 -2.39937 3.46422 0
M  V30 163 H 11.5478 -2.39405 2.22155 0
M  V30 164 H 10.2068 -0.756156 3.58717 0
M  V30 165 H 9.8548 -3.21632 3.86732 0
M  V30 166 H 9.5548 -2.3409 5.38958 0
M  V30 167 H 11.0788 -3.24732 5.1709 0
M  V30 168 H 12.4928 -1.02498 5.64063 0
M  V30 169 H 10.8898 -0.316424 5.99265 0
M  V30 170 H 11.9598 0.480459 4.82514 0
M  V30 171 N 13.3029 -1.57598 0.00835791 0
M  V30 172 C 14.5489 -1.91211 -0.675732 0
M  V30 173 C 14.8819 -0.883139 -1.72958 0
M  V30 174 O 14.1569 0.097016 -1.94258 0
M  V30 175 C 14.4399 -3.35379 -1.31123 0
M  V30 176 C 14.2929 -4.48999 -0.268356 0
M  V30 177 C 15.6119 -3.7912 -2.23508 0
M  V30 178 H 12.7309 -0.695374 -0.244179 0
M  V30 179 H 15.3729 -1.89901 0.0613655 0
M  V30 180 H 13.5229 -3.36626 -1.93946 0
M  V30 181 H 15.1949 -4.59887 0.360844 0
M  V30 182 H 13.4379 -4.31873 0.408482 0
M  V30 183 H 14.1089 -5.46851 -0.752218 0
M  V30 184 H 16.5849 -3.79477 -1.70693 0
M  V30 185 H 15.4609 -4.80729 -2.64936 0
M  V30 186 H 15.7219 -3.13455 -3.11766 0
M  V30 187 N 14.781 0.264519 -1.55364 0
M  V30 188 C 16.029 0.993021 -1.76021 0
M  V30 189 C 16.35 1.86511 -0.569099 0
M  V30 190 O 15.62 1.91438 0.415735 0
M  V30 191 H 14.2 0.369639 -0.649135 0
M  V30 192 H 16.862 0.286707 -1.9278 0
M  V30 193 H 15.958 1.62502 -2.66457 0
M  V30 194 N 16.2591 1.48442 0.529413 0
M  V30 195 C 17.5081 1.55742 1.28169 0
M  V30 196 C 17.8211 0.236511 1.94165 0
M  V30 197 O 19.0271 0.187761 2.7085 0
M  V30 198 C 17.4831 2.74667 2.32564 0
M  V30 199 C 17.0911 4.13402 1.72636 0
M  V30 200 C 18.8351 2.9128 3.08798 0
M  V30 201 C 16.7421 5.23587 2.74975 0
M  V30 202 H 15.6721 0.579796 0.48203 0
M  V30 203 H 18.3231 1.74776 0.559056 0
M  V30 204 H 16.7051 2.49067 3.07866 0
M  V30 205 H 17.8791 4.49022 1.03519 0
M  V30 206 H 16.1941 4.0191 1.08892 0
M  V30 207 H 18.7911 3.70767 3.85274 0
M  V30 208 H 19.1341 2.00757 3.64695 0
M  V30 209 H 19.6671 3.16782 2.40611 0
M  V30 210 H 16.4061 6.16076 2.23897 0
M  V30 211 H 15.9261 4.92454 3.42417 0
M  V30 212 H 17.6051 5.51724 3.37949 0
M  V30 213 N 17.7372 -0.778329 1.37039 0
M  V30 214 C 18.6672 -1.90546 1.34962 0
M  V30 215 C 19.6482 -1.68681 0.219274 0
M  V30 216 O 20.8332 -1.89634 0.418624 0
M  V30 217 C 17.9632 -3.27734 1.14925 0
M  V30 218 C 16.9172 -3.64147 2.24902 0
M  V30 219 C 16.2432 -4.99806 1.89996 0
M  V30 220 C 17.5432 -3.71579 3.67051 0
M  V30 221 H 19.2372 -1.92541 2.29277 0
M  V30 222 H 16.7832 -0.924948 1.10366 0
M  V30 223 H 18.7362 -4.06215 1.12104 0
M  V30 224 H 17.4602 -3.26154 0.170631 0
M  V30 225 H 16.1192 -2.8797 2.26868 0
M  V30 226 H 15.7672 -4.94759 0.906796 0
M  V30 227 H 15.4672 -5.25139 2.63634 0
M  V30 228 H 16.9912 -5.80694 1.88749 0
M  V30 229 H 18.4052 -4.40227 3.67251 0
M  V30 230 H 16.8022 -4.08405 4.39688 0
M  V30 231 H 17.8722 -2.72404 4.01154 0
M  V30 232 N 19.2153 -1.21501 -1.00376 0
M  V30 233 C 20.4623 -1.03299 -1.74171 0
M  V30 234 C 20.7903 0.433326 -1.89612 0
M  V30 235 O 20.0453 1.33779 -1.42834 0
M  V30 236 C 20.3443 -1.67673 -3.15627 0
M  V30 237 C 20.0103 -3.17533 -3.2013 0
M  V30 238 C 18.6723 -3.58427 -3.21067 0
M  V30 239 C 21.0243 -4.13504 -3.17275 0
M  V30 240 C 18.3523 -4.93794 -3.16835 0
M  V30 241 C 20.7043 -5.48834 -3.14585 0
M  V30 242 C 19.3683 -5.89123 -3.13831 0
M  V30 243 H 18.6383 -0.377999 -0.637336 0
M  V30 244 H 21.2853 -1.51111 -1.17634 0
M  V30 245 H 19.5903 -1.12158 -3.75404 0
M  V30 246 H 21.2873 -1.51091 -3.71446 0
M  V30 247 H 17.8773 -2.84965 -3.20145 0
M  V30 248 H 22.0613 -3.82936 -3.15711 0
M  V30 249 H 17.3173 -5.24255 -3.1459 0
M  V30 250 H 21.4913 -6.22934 -3.1133 0
M  V30 251 H 19.1183 -6.93984 -3.10307 0
M  V30 252 N 20.6934 1.19889 -1.02296 0
M  V30 253 C 22.1044 1.71124 -0.746568 0
M  V30 254 C 22.4554 1.81939 0.734335 0
M  V30 255 O 21.5804 1.48639 1.57275 0
M  V30 256 C 22.1754 3.10804 -1.34857 0
M  V30 257 C 20.7344 3.59323 -1.1209 0
M  V30 258 C 19.8814 2.3635 -1.45031 0
M  V30 259 H 22.8324 1.04813 -1.19163 0
M  V30 260 H 22.8534 3.73186 -0.742437 0
M  V30 261 H 22.3654 3.029 -2.42638 0
M  V30 262 H 20.4664 3.7255 -0.0610337 0
M  V30 263 H 20.5794 4.4378 -1.80544 0
M  V30 264 H 18.9434 2.39399 -0.869487 0
M  V30 265 H 19.7264 2.31081 -2.53883 0
M  V30 266 N 22.1715 0.800033 1.35784 0
M  V30 267 C 23.1345 0.211565 2.28221 0
M  V30 268 C 24.1345 -0.59728 1.49296 0
M  V30 269 O 25.3245 -0.416721 1.69142 0
M  V30 270 C 22.4565 -0.705846 3.33513 0
M  V30 271 H 23.6495 1.02677 2.81776 0
M  V30 272 H 21.2025 0.570211 1.45528 0
M  V30 273 H 21.9375 -1.54498 2.85133 0
M  V30 274 H 21.7225 -0.127655 3.91892 0
M  V30 275 H 23.2125 -1.11211 4.02519 0
M  V30 276 N 23.6496 -1.47581 0.552962 0
M  V30 277 C 24.8986 -2.01684 0.0251995 0
M  V30 278 C 25.2116 -1.43317 -1.33115 0
M  V30 279 O 26.4176 -1.89057 -1.94858 0
M  V30 280 C 24.8736 -3.599 -0.00542052 0
M  V30 281 C 24.4816 -4.27257 1.34742 0
M  V30 282 C 26.2256 -4.21768 -0.4808 0
M  V30 283 C 24.1326 -5.77467 1.27614 0
M  V30 284 H 23.0626 -0.753979 0.00565033 0
M  V30 285 H 25.7136 -1.69616 0.70018 0
M  V30 286 H 24.0956 -3.88911 -0.745961 0
M  V30 287 H 25.2696 -4.09893 2.10534 0
M  V30 288 H 23.5846 -3.77358 1.76039 0
M  V30 289 H 26.1816 -5.31838 -0.55246 0
M  V30 290 H 26.5246 -3.88651 -1.49184 0
M  V30 291 H 27.0576 -3.97273 0.204752 0
M  V30 292 H 23.7966 -6.15196 2.26304 0
M  V30 293 H 23.3166 -5.9718 0.55996 0
M  V30 294 H 24.9956 -6.3959 0.976421 0
M  V30 295 N 25.1277 -0.289203 -1.54924 0
M  V30 296 C 26.0577 0.58549 -2.2604 0
M  V30 297 C 27.0387 1.14753 -1.25562 0
M  V30 298 O 28.2237 1.17906 -1.54311 0
M  V30 299 C 25.3537 1.76305 -2.99222 0
M  V30 300 C 24.3077 1.33191 -4.06748 0
M  V30 301 C 23.6337 2.5937 -4.6758 0
M  V30 302 C 24.9337 0.471775 -5.20165 0
M  V30 303 H 26.6277 -0.00763532 -2.99399 0
M  V30 304 H 24.1737 -0.00511229 -1.43999 0
M  V30 305 H 26.1267 2.38097 -3.47689 0
M  V30 306 H 24.8507 2.38223 -2.23422 0
M  V30 307 H 23.5097 0.737121 -3.59113 0
M  V30 308 H 23.1577 3.19576 -3.88433 0
M  V30 309 H 22.8577 2.31228 -5.40192 0
M  V30 310 H 24.3817 3.21985 -5.18804 0
M  V30 311 H 25.7957 0.995056 -5.64599 0
M  V30 312 H 24.1927 0.284639 -5.99425 0
M  V30 313 H 25.2627 -0.506041 -4.82252 0
M  V30 314 N 26.6058 1.57591 -0.0167156 0
M  V30 315 C 27.5688 2.08393 0.954204 0
M  V30 316 C 28.5688 0.996531 1.26198 0
M  V30 317 O 29.7588 1.25858 1.20438 0
M  V30 318 C 26.8908 2.5394 2.27436 0
M  V30 319 H 28.0838 2.95455 0.514451 0
M  V30 320 H 25.6368 1.54582 0.231089 0
M  V30 321 H 26.3718 1.70171 2.76066 0
M  V30 322 H 26.1568 3.33371 2.06412 0
M  V30 323 H 27.6468 2.93512 2.97053 0
M  V30 324 N 28.0839 -0.256276 1.55502 0
M  V30 325 C 29.0309 -1.31714 1.89526 0
M  V30 326 C 30.0009 -1.4828 0.748479 0
M  V30 327 O 31.1859 -1.62416 1.00128 0
M  V30 328 C 28.3259 -2.66933 2.18725 0
M  V30 329 C 27.4389 -2.58452 3.4616 0
M  V30 330 C 26.5739 -3.85961 3.64976 0
M  V30 331 C 25.6129 -3.72059 4.86044 0
M  V30 332 N 24.7499 -4.9144 5.01429 0
M  V30 333 H 29.5899 -1.01998 2.80001 0
M  V30 334 H 27.1269 -0.492413 1.38613 0
M  V30 335 H 29.0849 -3.4563 2.33657 0
M  V30 336 H 27.7149 -2.94816 1.31466 0
M  V30 337 H 26.7669 -1.71374 3.3961 0
M  V30 338 H 28.0789 -2.44085 4.34999 0
M  V30 339 H 27.2329 -4.73101 3.79816 0
M  V30 340 H 25.9719 -4.03215 2.74353 0
M  V30 341 H 24.9769 -2.83302 4.7119 0
M  V30 342 H 26.2019 -3.56309 5.78118 0
M  V30 343 H 24.1479 -5.09072 4.13741 0
M  V30 344 H 24.0649 -4.79668 5.84341 0
M  V30 345 H 25.3329 -5.80104 5.20672 0
M  V30 346 N 29.562 -1.4872 -0.521534 0
M  V30 347 C 30.494 -1.59968 -1.64143 0
M  V30 348 C 31.507 -0.483463 -1.55456 0
M  V30 349 O 32.696 -0.75467 -1.61762 0
M  V30 350 C 29.796 -1.52127 -3.02838 0
M  V30 351 C 28.969 -2.78932 -3.36921 0
M  V30 352 C 28.028 -2.64428 -4.54933 0
M  V30 353 O 27.054 -3.38331 -4.57735 0
M  V30 354 N 28.256 -1.74606 -5.53618 0
M  V30 355 H 31.021 -2.56548 -1.54929 0
M  V30 356 H 28.582 -1.45551 -0.708988 0
M  V30 357 H 30.574 -1.40106 -3.79674 0
M  V30 358 H 29.144 -0.634868 -3.06085 0
M  V30 359 H 28.364 -3.05455 -2.4918 0
M  V30 360 H 29.652 -3.63041 -3.56481 0
M  V30 361 H 29.05 -1.13782 -5.54139 0
M  V30 362 H 27.607 -1.6852 -6.29638 0
M  V30 363 N 31.0401 0.771051 -1.3745 0
M  V30 364 C 32.2871 1.52963 -1.32697 0
M  V30 365 C 32.6151 1.94299 0.0883274 0
M  V30 366 O 31.8701 1.64397 1.0617 0
M  V30 367 C 32.1691 2.80676 -2.2126 0
M  V30 368 C 31.8351 2.58389 -3.69521 0
M  V30 369 C 30.4971 2.52019 -4.09927 0
M  V30 370 C 32.8491 2.38469 -4.63446 0
M  V30 371 C 30.1771 2.23721 -5.42371 0
M  V30 372 C 32.5291 2.11694 -5.96128 0
M  V30 373 C 31.1931 2.03769 -6.35637 0
M  V30 374 H 30.4631 0.559732 -0.485573 0
M  V30 375 H 33.1101 0.888083 -1.69662 0
M  V30 376 H 31.4151 3.49392 -1.77291 0
M  V30 377 H 33.1121 3.38557 -2.14895 0
M  V30 378 H 29.7021 2.6421 -3.37478 0
M  V30 379 H 33.8861 2.4238 -4.33089 0
M  V30 380 H 29.1421 2.16081 -5.71943 0
M  V30 381 H 33.3161 1.9528 -6.6846 0
M  V30 382 H 30.9431 1.81606 -7.38189 0
M  V30 383 N 32.5182 1.22032 0.997298 0
M  V30 384 C 33.7462 1.06841 1.7718 0
M  V30 385 C 34.1612 -0.381325 1.84909 0
M  V30 386 O 33.5182 -1.26437 1.31605 0
M  V30 387 C 33.5692 1.66814 3.20711 0
M  V30 388 O 33.2902 3.06116 3.13408 0
M  V30 389 C 34.7912 1.56838 4.14628 0
M  V30 390 H 32.0112 0.374782 0.556578 0
M  V30 391 H 34.5552 1.61532 1.2541 0
M  V30 392 H 32.7102 1.16196 3.69564 0
M  V30 393 H 33.1242 3.34926 4.0364 0
M  V30 394 H 34.5982 2.03532 5.13107 0
M  V30 395 H 35.0752 0.524155 4.36061 0
M  V30 396 H 35.6812 2.06741 3.7167 0
M  V30 397 N 33.9963 -1.19345 1.0293 0
M  V30 398 C 34.9433 -2.2258 0.610464 0
M  V30 399 C 35.9133 -1.6179 -0.375946 0
M  V30 400 O 37.0983 -1.88844 -0.272511 0
M  V30 401 C 34.2383 -3.45085 -0.0321473 0
M  V30 402 C 33.3513 -4.20258 1.00035 0
M  V30 403 C 32.4863 -5.3019 0.32746 0
M  V30 404 C 31.5253 -5.97121 1.34584 0
M  V30 405 N 30.6623 -6.98615 0.698726 0
M  V30 406 H 35.5023 -2.57764 1.49538 0
M  V30 407 H 33.0393 -1.26644 0.748311 0
M  V30 408 H 34.9973 -4.15061 -0.421966 0
M  V30 409 H 33.6273 -3.10555 -0.88064 0
M  V30 410 H 32.6793 -3.49223 1.50823 0
M  V30 411 H 33.9913 -4.66175 1.77433 0
M  V30 412 H 33.1453 -6.06587 -0.11718 0
M  V30 413 H 31.8843 -4.85345 -0.478713 0
M  V30 414 H 30.8893 -5.19474 1.80074 0
M  V30 415 H 32.1143 -6.4405 2.15352 0
M  V30 416 H 30.0603 -6.55942 -0.0873471 0
M  V30 417 H 29.9773 -7.42724 1.41058 0
M  V30 418 H 31.2453 -7.79004 0.278102 0
M  V30 419 N 35.4744 -0.807222 -1.35358 0
M  V30 420 C 36.7144 -0.393534 -2.00576 0
M  V30 421 C 37.0784 1.0203 -1.62647 0
M  V30 422 O 38.2794 1.53603 -2.20589 0
M  V30 423 C 36.5504 -0.572017 -3.52793 0
M  V30 424 S 38.1094 -0.248845 -4.38094 0
M  V30 425 H 34.9274 -0.149425 -0.695121 0
M  V30 426 H 37.5294 -1.04961 -1.64935 0
M  V30 427 H 36.2334 -1.60097 -3.77885 0
M  V30 428 H 35.7644 0.099359 -3.93275 0
M  V30 429 H 37.7794 0.943253 -4.87152 0
M  V30 430 N 36.9525 1.47285 -0.560781 0
M  V30 431 C 37.8625 2.33846 0.187954 0
M  V30 432 C 38.8785 1.48412 0.908293 0
M  V30 433 O 40.0545 1.81332 0.876388 0
M  V30 434 C 37.1195 3.25178 1.2025 0
M  V30 435 C 36.1805 4.26504 0.489208 0
M  V30 436 C 35.4135 5.13472 1.45542 0
M  V30 437 O 35.6365 5.02959 2.6905 0
M  V30 438 O 34.5705 5.93902 0.977963 0
M  V30 439 H 38.3965 2.99177 -0.522177 0
M  V30 440 H 35.9815 1.45903 -0.321364 0
M  V30 441 H 37.8635 3.81584 1.78805 0
M  V30 442 H 36.5385 2.6247 1.89449 0
M  V30 443 H 35.4455 3.73847 -0.137627 0
M  V30 444 H 36.7785 4.91935 -0.161399 0
M  V30 445 N 38.4306 0.297415 1.54768 0
M  V30 446 C 39.3606 -0.573494 2.26348 0
M  V30 447 C 40.3416 -1.14085 1.26169 0
M  V30 448 O 41.5266 -1.17086 1.54934 0
M  V30 449 C 38.6566 -1.74716 3.00153 0
M  V30 450 C 37.6106 -1.31032 4.07449 0
M  V30 451 C 36.9366 -2.56887 4.68949 0
M  V30 452 C 38.2366 -0.444183 5.20408 0
M  V30 453 H 39.9306 0.0235131 2.99391 0
M  V30 454 H 37.4766 0.0127488 1.43994 0
M  V30 455 H 39.4296 -2.3625 3.48947 0
M  V30 456 H 38.1536 -2.37035 2.24682 0
M  V30 457 H 36.8126 -0.718066 3.59499 0
M  V30 458 H 36.4606 -3.17512 3.90122 0
M  V30 459 H 36.1606 -2.2836 5.41411 0
M  V30 460 H 37.6846 -3.19229 5.20505 0
M  V30 461 H 39.0986 -0.9651 5.65118 0
M  V30 462 H 37.4956 -0.252846 5.99567 0
M  V30 463 H 38.5656 0.531609 4.81977 0
M  V30 464 N 39.9087 -1.5758 0.0250728 0
M  V30 465 C 41.1337 -1.96337 -0.668317 0
M  V30 466 C 41.5587 -0.901314 -1.651 0
M  V30 467 O 40.9167 0.138187 -1.80773 0
M  V30 468 C 40.9647 -3.34191 -1.35457 0
M  V30 469 O 40.0687 -3.30269 -2.46974 0
M  V30 470 H 39.4097 -0.640281 -0.175887 0
M  V30 471 H 41.9397 -2.0442 0.0857224 0
M  V30 472 H 41.9497 -3.70331 -1.71228 0
M  V30 473 H 40.6247 -4.11036 -0.634218 0
M  V30 474 H 39.2017 -3.05841 -2.13344 0
M  V30 475 N 41.3868 0.248026 -1.55636 0
M  V30 476 C 42.3188 1.32993 -1.8667 0
M  V30 477 C 43.3318 1.44345 -0.752877 0
M  V30 478 O 44.5208 1.45715 -1.03098 0
M  V30 479 C 41.6208 2.70863 -2.03682 0
M  V30 480 C 40.7938 2.81792 -3.34532 0
M  V30 481 C 39.8528 4.005 -3.41301 0
M  V30 482 O 38.8788 3.9008 -4.14519 0
M  V30 483 N 40.0808 5.13618 -2.70512 0
M  V30 484 H 42.8458 1.06707 -2.8006 0
M  V30 485 H 40.4068 0.438129 -1.55859 0
M  V30 486 H 42.3988 3.48612 -2.05553 0
M  V30 487 H 40.9688 2.89862 -1.17041 0
M  V30 488 H 40.1888 1.90729 -3.44987 0
M  V30 489 H 41.4768 2.86043 -4.20781 0
M  V30 490 H 40.8748 5.24975 -2.10755 0
M  V30 491 H 39.4318 5.89505 -2.78077 0
M  V30 492 N 42.8649 1.48995 0.513639 0
M  V30 493 C 43.7949 1.67636 1.62544 0
M  V30 494 C 44.7759 0.525087 1.61793 0
M  V30 495 O 45.9609 0.759502 1.78732 0
M  V30 496 C 43.0909 1.73114 3.01079 0
M  V30 497 C 42.0449 2.87905 3.16693 0
M  V30 498 C 41.3709 2.78486 4.56453 0
M  V30 499 C 42.6709 4.29005 2.97913 0
M  V30 500 H 44.3649 2.60716 1.47198 0
M  V30 501 H 41.9109 1.25465 0.706714 0
M  V30 502 H 43.8639 1.84742 3.78746 0
M  V30 503 H 42.5879 0.766241 3.17484 0
M  V30 504 H 41.2469 2.75859 2.41448 0
M  V30 505 H 40.8949 1.7993 4.69717 0
M  V30 506 H 40.5949 3.55523 4.67843 0
M  V30 507 H 42.1189 2.92104 5.36197 0
M  V30 508 H 43.5329 4.41798 3.65359 0
M  V30 509 H 41.9299 5.07166 3.20785 0
M  V30 510 H 42.9999 4.44329 1.94165 0
M  V30 511 N 44.343 -0.763751 1.37857 0
M  V30 512 C 45.273 -1.89103 1.36975 0
M  V30 513 C 46.254 -1.68439 0.237152 0
M  V30 514 O 47.439 -1.8918 0.438713 0
M  V30 515 C 44.569 -3.26496 1.18395 0
M  V30 516 C 43.523 -3.61741 2.28751 0
M  V30 517 C 42.849 -4.97762 1.95286 0
M  V30 518 C 44.149 -3.67665 3.70972 0
M  V30 519 H 45.843 -1.90099 2.31307 0
M  V30 520 H 43.389 -0.91319 1.11341 0
M  V30 521 H 45.342 -4.05003 1.16406 0
M  V30 522 H 44.066 -3.25955 0.205215 0
M  V30 523 H 42.725 -2.85547 2.29909 0
M  V30 524 H 42.373 -4.93769 0.959221 0
M  V30 525 H 42.073 -5.22313 2.69189 0
M  V30 526 H 43.597 -5.7866 1.94898 0
M  V30 527 H 45.011 -4.36307 3.719 0
M  V30 528 H 43.408 -4.03718 4.43995 0
M  V30 529 H 44.478 -2.68134 4.0402 0
M  V30 530 N 45.8211 -1.22559 -0.990812 0
M  V30 531 C 46.7681 -0.997519 -2.0813 0
M  V30 532 C 47.7381 0.0814702 -1.659 0
M  V30 533 O 48.9231 -0.0685424 -1.90677 0
M  V30 534 C 46.0631 -0.583615 -3.40129 0
M  V30 535 C 45.1761 -1.7336 -3.9569 0
M  V30 536 C 44.3111 -1.26748 -5.15857 0
M  V30 537 C 43.3501 -2.38888 -5.63559 0
M  V30 538 N 42.4871 -1.93308 -6.74964 0
M  V30 539 H 47.3271 -1.93099 -2.26973 0
M  V30 540 H 44.8641 -0.962114 -1.11273 0
M  V30 541 H 46.8221 -0.324801 -4.15934 0
M  V30 542 H 45.4521 0.312845 -3.2128 0
M  V30 543 H 44.5041 -2.10669 -3.16738 0
M  V30 544 H 45.8161 -2.57704 -4.27071 0
M  V30 545 H 44.9701 -0.966173 -5.98957 0
M  V30 546 H 43.7091 -0.394272 -4.86104 0
M  V30 547 H 42.7141 -2.69805 -4.79046 0
M  V30 548 H 43.9391 -3.26728 -5.95336 0
M  V30 549 H 41.8851 -1.08352 -6.4699 0
M  V30 550 H 41.8021 -2.71217 -7.05675 0
M  V30 551 H 43.0701 -1.66252 -7.61564 0
M  V30 552 N 47.2992 1.18797 -1.03562 0
M  V30 553 C 48.5762 1.84469 -0.650434 0
M  V30 554 C 48.9562 1.92319 0.870433 0
M  V30 555 O 48.3042 1.44528 1.76986 0
M  V30 556 C 48.5142 3.2306 -1.32036 0
M  V30 557 C 49.8622 3.9915 -1.44792 0
M  V30 558 O 50.8862 3.32481 -1.27806 0
M  V30 559 O 49.7452 5.18587 -1.72423 0
M  V30 560 H 46.8392 0.795251 -0.226946 0
M  V30 561 H 49.3852 1.26231 -1.13419 0
M  V30 562 H 48.1572 3.1222 -2.3587 0
M  V30 563 H 47.7802 3.88949 -0.8249 0
M  V30 564 N 48.7773 0.814389 1.34928 0
M  V30 565 C 50.0263 0.394871 1.97797 0
M  V30 566 C 50.3393 -1.04555 1.65311 0
M  V30 567 O 51.5453 -1.56856 2.21604 0
M  V30 568 C 50.0013 0.655103 3.53888 0
M  V30 569 C 49.6093 2.10858 3.95276 0
M  V30 570 C 51.3533 0.301329 4.23429 0
M  V30 571 C 49.2603 2.31415 5.44244 0
M  V30 572 H 48.1903 0.143913 0.740139 0
M  V30 573 H 50.8413 0.999544 1.53888 0
M  V30 574 H 49.2233 -0.0196253 3.95995 0
M  V30 575 H 50.3973 2.82176 3.64298 0
M  V30 576 H 48.7123 2.42297 3.38646 0
M  V30 577 H 51.3093 0.432869 5.32945 0
M  V30 578 H 51.6523 -0.75331 4.09428 0
M  V30 579 H 52.1853 0.930288 3.86769 0
M  V30 580 H 48.9243 3.35353 5.63222 0
M  V30 581 H 48.4443 1.6463 5.76764 0
M  V30 582 H 50.1233 2.13352 6.10811 0
M  V30 583 N 50.2554 -1.46986 0.568584 0
M  V30 584 C 51.5324 -1.95592 -0.0174074 0
M  V30 585 C 51.9124 -1.51124 -1.47393 0
M  V30 586 O 51.2604 -0.755329 -2.15655 0
M  V30 587 C 51.4704 -3.48719 0.139913 0
M  V30 588 C 52.8184 -4.246 0.000426376 0
M  V30 589 O 53.8424 -3.56135 0.0680316 0
M  V30 590 O 52.7014 -5.46302 -0.146988 0
M  V30 591 H 49.7954 -0.82498 -0.0577599 0
M  V30 592 H 52.3414 -1.57335 0.635909 0
M  V30 593 H 51.1134 -3.73927 1.15301 0
M  V30 594 H 50.7364 -3.93771 -0.550491 0
M  V30 595 N 51.7335 -0.305618 -1.54608 0
M  V30 596 C 52.9815 0.301701 -1.99835 0
M  V30 597 C 53.3025 1.54054 -1.19551 0
M  V30 598 O 52.5725 1.93702 -0.292658 0
M  V30 599 H 51.1525 0.114468 -0.738178 0
M  V30 600 H 53.8145 -0.418016 -1.90364 0
M  V30 601 H 52.9105 0.570548 -3.06841 0
M  V30 602 N 53.2116 1.57565 -0.0334293 0
M  V30 603 C 54.4416 1.95996 0.653398 0
M  V30 604 C 54.8496 0.908749 1.65947 0
M  V30 605 O 54.1926 -0.117471 1.83324 0
M  V30 606 C 54.2546 3.30589 1.41249 0
M  V30 607 C 53.9186 4.53503 0.564263 0
M  V30 608 C 54.9156 5.19647 -0.16225 0
M  V30 609 C 52.6006 4.99801 0.500398 0
M  V30 610 C 54.5946 6.30412 -0.941255 0
M  V30 611 C 52.2816 6.10448 -0.282308 0
M  V30 612 C 53.2796 6.75612 -1.00184 0
M  V30 613 O 52.9676 7.84134 -1.77171 0
M  V30 614 H 52.6996 0.65027 0.184728 0
M  V30 615 H 55.2536 2.05199 -0.0907841 0
M  V30 616 H 53.4836 3.17888 2.20191 0
M  V30 617 H 55.1726 3.53892 1.98784 0
M  V30 618 H 55.9386 4.84846 -0.12227 0
M  V30 619 H 51.8176 4.48883 1.05002 0
M  V30 620 H 55.3616 6.81208 -1.50339 0
M  V30 621 H 51.2586 6.44686 -0.323989 0
M  V30 622 H 52.0266 8.00822 -1.69194 0
M  V30 623 N 54.6897 -0.239769 1.55765 0
M  V30 624 C 55.9377 -0.964892 1.77579 0
M  V30 625 C 56.2587 -1.85582 0.598699 0
M  V30 626 O 55.5287 -1.92075 -0.385226 0
M  V30 627 H 54.1087 -0.359265 0.654933 0
M  V30 628 H 56.7707 -0.256001 1.93211 0
M  V30 629 H 55.8667 -1.58243 2.69009 0
M  V30 630 N 56.1678 -1.49265 -0.50573 0
M  V30 631 C 57.4158 -1.582 -1.25766 0
M  V30 632 C 57.7368 -0.268482 -1.93143 0
M  V30 633 O 57.0068 0.711833 -1.8251 0
M  V30 634 H 55.5868 -0.582873 -0.467191 0
M  V30 635 H 58.2488 -1.85865 -0.586525 0
M  V30 636 H 57.3448 -2.37563 -2.02412 0
M  V30 637 N 57.6459 0.756429 -1.3826 0
M  V30 638 C 58.8949 1.51082 -1.3363 0
M  V30 639 C 59.2079 1.95467 0.0720068 0
M  V30 640 O 60.4139 2.7043 0.240834 0
M  V30 641 C 58.8699 2.72893 -2.34644 0
M  V30 642 C 58.4779 2.35544 -3.81081 0
M  V30 643 C 60.2219 3.50791 -2.39052 0
M  V30 644 C 58.1289 3.53948 -4.73787 0
M  V30 645 H 57.0589 0.56727 -0.49671 0
M  V30 646 H 59.7099 0.827147 -1.638 0
M  V30 647 H 58.0919 3.43227 -1.97513 0
M  V30 648 H 59.2659 1.72894 -4.27135 0
M  V30 649 H 57.5809 1.70786 -3.79764 0
M  V30 650 H 60.1779 4.38823 -3.05513 0
M  V30 651 H 60.5209 3.91745 -1.40861 0
M  V30 652 H 61.0539 2.87467 -2.74968 0
M  V30 653 H 57.7929 3.18064 -5.73163 0
M  V30 654 H 57.3129 4.15651 -4.32428 0
M  V30 655 H 58.9919 4.20566 -4.91663 0
M  V30 656 N 59.124 1.23083 0.984299 0
M  V30 657 C 60.087 1.00979 2.05757 0
M  V30 658 C 61.087 -0.0269573 1.60777 0
M  V30 659 O 62.277 0.212403 1.729 0
M  V30 660 C 59.409 0.527072 3.36801 0
M  V30 661 H 60.602 1.9622 2.26799 0
M  V30 662 H 58.155 1.05072 1.15714 0
M  V30 663 H 58.89 -0.429294 3.21446 0
M  V30 664 H 58.675 1.27515 3.70786 0
M  V30 665 H 60.165 0.392942 4.15747 0
M  V30 666 N 60.6021 -1.18246 1.0419 0
M  V30 667 C 61.5321 -2.24127 0.654914 0
M  V30 668 C 62.5131 -1.66617 -0.342451 0
M  V30 669 O 63.6981 -1.92924 -0.222277 0
M  V30 670 C 60.8281 -3.47295 0.0183757 0
M  V30 671 C 59.7821 -4.17563 0.939414 0
M  V30 672 C 59.1081 -5.34438 0.167286 0
M  V30 673 C 60.4081 -4.70917 2.25908 0
M  V30 674 H 62.1021 -2.56753 1.54007 0
M  V30 675 H 59.6481 -1.23414 0.74195 0
M  V30 676 H 61.6011 -4.20572 -0.264082 0
M  V30 677 H 60.3251 -3.13907 -0.901664 0
M  V30 678 H 58.9841 -3.46186 1.20628 0
M  V30 679 H 58.6321 -4.97298 -0.7552 0
M  V30 680 H 58.3321 -5.82388 0.780901 0
M  V30 681 H 59.8561 -6.10504 -0.108125 0
M  V30 682 H 61.2701 -5.35882 2.03724 0
M  V30 683 H 59.6671 -5.29406 2.82577 0
M  V30 684 H 60.7371 -3.88272 2.9047 0
M  V30 685 N 62.0802 -0.821533 -1.34494 0
M  V30 686 C 63.4912 -0.467956 -1.8074 0
M  V30 687 C 63.8422 1.01151 -1.68116 0
M  V30 688 O 62.9672 1.78707 -1.22036 0
M  V30 689 C 63.5622 -0.842627 -3.28154 0
M  V30 690 C 62.1212 -0.541439 -3.72485 0
M  V30 691 C 61.2682 -1.06028 -2.56229 0
M  V30 692 H 64.2192 -1.01183 -1.22261 0
M  V30 693 H 64.2402 -0.145876 -3.8022 0
M  V30 694 H 63.7522 -1.91945 -3.37311 0
M  V30 695 H 61.8532 0.526034 -3.68868 0
M  V30 696 H 61.9662 -1.08453 -4.66663 0
M  V30 697 H 60.3302 -0.481892 -2.501 0
M  V30 698 H 61.1132 -2.14352 -2.68157 0
M  V30 699 N 63.5583 1.46682 -0.576371 0
M  V30 700 C 64.4683 2.34032 0.163141 0
M  V30 701 C 65.4843 1.49367 0.892501 0
M  V30 702 O 66.6603 1.82252 0.857106 0
M  V30 703 C 63.7253 3.26435 1.16795 0
M  V30 704 C 62.7863 4.26998 0.443944 0
M  V30 705 C 62.0193 5.14986 1.40088 0
M  V30 706 O 62.2423 5.05785 2.637 0
M  V30 707 O 61.1763 5.94906 0.914917 0
M  V30 708 H 65.0023 2.98607 -0.55388 0
M  V30 709 H 62.5873 1.45554 -0.336821 0
M  V30 710 H 64.4693 3.83459 1.74748 0
M  V30 711 H 63.1443 2.64465 1.86655 0
M  V30 712 H 62.0513 3.7368 -0.177271 0
M  V30 713 H 63.3843 4.91736 -0.213566 0
M  V30 714 N 65.0364 0.313813 1.54444 0
M  V30 715 C 65.9664 -0.549454 2.26943 0
M  V30 716 C 66.9474 -1.12741 1.27372 0
M  V30 717 O 68.1324 -1.15436 1.56167 0
M  V30 718 C 65.2624 -1.71523 3.01989 0
M  V30 719 C 64.2164 -1.26703 4.08816 0
M  V30 720 C 63.5424 -2.51898 4.71647 0
M  V30 721 C 64.8424 -0.388962 5.2085 0
M  V30 722 H 66.5364 0.0552661 2.99349 0
M  V30 723 H 64.0824 0.0280207 1.43973 0
M  V30 724 H 66.0354 -2.32535 3.51433 0
M  V30 725 H 64.7594 -2.34639 2.27183 0
M  V30 726 H 63.4184 -0.679896 3.6024 0
M  V30 727 H 63.0664 -3.13356 3.93468 0
M  V30 728 H 62.7664 -2.22605 5.43802 0
M  V30 729 H 64.2904 -3.1369 5.23861 0
M  V30 730 H 65.7044 -0.905107 5.6611 0
M  V30 731 H 64.1014 -0.18924 5.99802 0
M  V30 732 H 65.1714 0.582699 4.81386 0
M  V30 733 N 66.5145 -1.57545 0.0417849 0
M  V30 734 C 67.7635 -1.91494 -0.633492 0
M  V30 735 C 68.0765 -0.921084 -1.72556 0
M  V30 736 O 69.2825 -1.15228 -2.45835 0
M  V30 737 C 67.7385 -3.40072 -1.17808 0
M  V30 738 C 67.3465 -4.47843 -0.118633 0
M  V30 739 C 69.0905 -3.8307 -1.82915 0
M  V30 740 C 66.9975 -5.87529 -0.675578 0
M  V30 741 H 65.9275 -0.714653 -0.24039 0
M  V30 742 H 68.5785 -1.83175 0.109148 0
M  V30 743 H 66.9605 -3.43364 -1.97274 0
M  V30 744 H 68.1345 -4.56128 0.654494 0
M  V30 745 H 66.4495 -4.14128 0.434414 0
M  V30 746 H 69.0465 -4.84794 -2.25563 0
M  V30 747 H 69.3895 -3.1881 -2.67705 0
M  V30 748 H 69.9225 -3.82255 -1.10119 0
M  V30 749 H 66.6615 -6.55362 0.134475 0
M  V30 750 H 66.1815 -5.82824 -1.4169 0
M  V30 751 H 67.8605 -6.36491 -1.1614 0
M  V30 752 N 67.9926 0.231505 -1.5589 0
M  V30 753 C 69.2326 0.964533 -1.80211 0
M  V30 754 C 69.5966 1.81926 -0.613744 0
M  V30 755 O 70.7976 2.58526 -0.736045 0
M  V30 756 C 69.0686 1.78956 -3.09369 0
M  V30 757 S 70.6276 2.57959 -3.54969 0
M  V30 758 H 67.4456 0.324173 -0.632798 0
M  V30 759 H 70.0476 0.230985 -1.94131 0
M  V30 760 H 68.7516 1.15161 -3.93911 0
M  V30 761 H 68.2826 2.56559 -2.9823 0
M  V30 762 H 70.2976 3.81309 -3.17519 0
M  V30 763 N 69.4707 1.49531 0.497807 0
M  V30 764 C 70.6987 1.62893 1.27567 0
M  V30 765 C 71.1137 0.301585 1.86376 0
M  V30 766 O 70.4707 -0.713335 1.67982 0
M  V30 767 C 70.5217 2.70013 2.40364 0
M  V30 768 O 70.2427 3.976 1.83972 0
M  V30 769 C 71.7437 2.94109 3.31685 0
M  V30 770 H 68.9637 0.548298 0.386794 0
M  V30 771 H 71.5077 1.95584 0.597245 0
M  V30 772 H 69.6627 2.40092 3.04031 0
M  V30 773 H 70.0767 4.56631 2.58047 0
M  V30 774 H 71.5507 3.72788 4.07104 0
M  V30 775 H 72.0277 2.04147 3.88871 0
M  V30 776 H 72.6337 3.2546 2.73781 0
M  V30 777 N 70.9488 -0.749086 1.3866 0
M  V30 778 C 71.8818 -1.87111 1.30631 0
M  V30 779 C 72.8598 -1.61572 0.18251 0
M  V30 780 O 74.0438 -1.85019 0.360592 0
M  V30 781 C 71.1708 -3.22815 1.02511 0
M  V30 782 C 70.2168 -3.67234 2.1689 0
M  V30 783 S 71.0498 -3.78245 3.79066 0
M  V30 784 C 72.2058 -5.16761 3.53142 0
M  V30 785 H 72.4388 -1.93636 2.25594 0
M  V30 786 H 69.9718 -0.912525 1.24549 0
M  V30 787 H 71.9298 -4.01181 0.869701 0
M  V30 788 H 70.5908 -3.13964 0.0925884 0
M  V30 789 H 69.7838 -4.65677 1.92771 0
M  V30 790 H 69.3858 -2.96034 2.28561 0
M  V30 791 H 71.6778 -6.02656 3.09534 0
M  V30 792 H 72.6208 -5.45902 4.50995 0
M  V30 793 H 73.0288 -4.85771 2.87554 0
M  V30 794 N 72.4269 -1.23603 -0.977757 0
M  V30 795 C 73.6739 -1.06971 -1.71941 0
M  V30 796 C 74.0019 0.393009 -1.90488 0
M  V30 797 O 73.2569 1.30719 -1.4564 0
M  V30 798 C 73.5559 -1.7433 -3.11999 0
M  V30 799 C 73.2219 -3.24252 -3.13323 0
M  V30 800 C 71.8839 -3.65156 -3.13392 0
M  V30 801 C 74.2359 -4.20141 -3.08433 0
M  V30 802 C 71.5639 -5.00403 -3.0629 0
M  V30 803 C 73.9159 -5.55384 -3.02873 0
M  V30 804 C 72.5799 -5.95647 -3.01265 0
M  V30 805 H 71.8499 -0.391433 -0.629175 0
M  V30 806 H 74.4969 -1.53572 -1.14403 0
M  V30 807 H 72.8019 -1.20096 -3.7294 0
M  V30 808 H 74.4989 -1.58936 -3.68158 0
M  V30 809 H 71.0889 -2.91692 -3.14029 0
M  V30 810 H 75.2729 -3.89547 -3.07517 0
M  V30 811 H 70.5289 -5.3081 -3.03399 0
M  V30 812 H 74.7029 -6.29398 -2.98046 0
M  V30 813 H 72.3299 -7.0041 -2.95516 0
M  V30 814 N 73.905 1.17692 -1.04816 0
M  V30 815 C 74.855 2.1952 -0.616042 0
M  V30 816 C 75.839 1.57147 0.345485 0
M  V30 817 O 77.031 1.76245 0.163325 0
M  V30 818 C 74.16 3.43298 0.0116917 0
M  V30 819 C 73.246 4.12777 -0.973435 0
M  V30 820 N 73.637 4.5814 -2.14339 0
M  V30 821 C 71.935 4.38747 -0.80108 0
M  V30 822 C 72.636 5.11713 -2.7663 0
M  V30 823 N 71.612 5.03686 -2.04453 0
M  V30 824 H 75.414 2.52293 -1.5075 0
M  V30 825 H 72.928 1.3398 -0.917776 0
M  V30 826 H 74.925 4.15519 0.339006 0
M  V30 827 H 73.585 3.12018 0.898593 0
M  V30 828 H 74.596 4.52349 -2.52191 0
M  V30 829 H 71.273 4.17485 0.0350934 0
M  V30 830 H 72.663 5.56962 -3.75823 0
M  V30 831 N 75.3831 0.828654 1.34056 0
M  V30 832 C 76.6111 0.43262 2.02326 0
M  V30 833 C 77.0261 -0.963147 1.62385 0
M  V30 834 O 76.3831 -1.62425 0.832121 0
M  V30 835 C 76.4341 0.53182 3.57567 0
M  V30 836 O 76.1551 1.87258 3.96063 0
M  V30 837 C 77.6561 0.131422 4.43105 0
M  V30 838 H 74.8761 0.172923 0.648335 0
M  V30 839 H 77.4201 1.1184 1.71208 0
M  V30 840 H 75.5751 -0.105938 3.87255 0
M  V30 841 H 75.9891 1.85087 4.90758 0
M  V30 842 H 77.4631 0.251904 5.51425 0
M  V30 843 H 77.9401 -0.925645 4.29335 0
M  V30 844 H 78.5461 0.743207 4.18756 0
M  V30 845 N 76.8612 -1.46375 0.584142 0
M  V30 846 C 78.0862 -2.07268 0.0740405 0
M  V30 847 C 78.5112 -1.42979 -1.22223 0
M  V30 848 O 77.8692 -0.514092 -1.73859 0
M  V30 849 C 77.9172 -3.60518 -0.0767769 0
M  V30 850 O 77.0212 -3.96533 -1.13292 0
M  V30 851 H 76.3622 -0.660961 0.0634524 0
M  V30 852 H 78.8922 -1.87991 0.807492 0
M  V30 853 H 78.9022 -4.07021 -0.282489 0
M  V30 854 H 77.5772 -4.06702 0.86986 0
M  V30 855 H 76.1542 -3.61738 -0.905553 0
M  V30 856 N 78.3393 -0.321999 -1.54275 0
M  V30 857 C 79.5873 0.280489 -2.00144 0
M  V30 858 C 79.9083 1.52777 -1.21178 0
M  V30 859 O 79.1783 1.9338 -0.313187 0
M  V30 860 H 77.7583 0.106632 -0.73935 0
M  V30 861 H 80.4203 -0.438184 -1.8991 0
M  V30 862 H 79.5163 0.537972 -3.07428 0
M  V30 863 N 79.8174 1.5752 -0.0501392 0
M  V30 864 C 81.0474 1.96678 0.632573 0
M  V30 865 C 81.4554 0.926298 1.64974 0
M  V30 866 O 80.7984 -0.09802 1.83438 0
M  V30 867 C 80.8604 3.32068 1.37735 0
M  V30 868 C 80.5244 4.54076 0.516131 0
M  V30 869 C 81.5214 5.19445 -0.217357 0
M  V30 870 C 79.2064 5.00304 0.44736 0
M  V30 871 C 81.2004 6.29378 -1.00807 0
M  V30 872 C 78.8874 6.10114 -0.347038 0
M  V30 873 C 79.8854 6.74512 -1.07344 0
M  V30 874 O 79.5734 7.82211 -1.85477 0
M  V30 875 H 79.3054 0.652193 0.177821 0
M  V30 876 H 81.8594 2.05091 -0.112543 0
M  V30 877 H 80.0894 3.20206 2.16807 0
M  V30 878 H 81.7784 3.55981 1.95019 0
M  V30 879 H 82.5444 4.84689 -0.173688 0
M  V30 880 H 78.4234 4.49971 1.00235 0
M  V30 881 H 81.9674 6.79575 -1.57556 0
M  V30 882 H 77.8644 6.44307 -0.392349 0
M  V30 883 H 78.6324 7.98982 -1.77678 0
M  V30 884 N 81.2955 -0.223234 1.56011 0
M  V30 885 C 82.5725 -0.972108 1.69733 0
M  V30 886 C 82.9525 -2.02485 0.59691 0
M  V30 887 O 82.3005 -2.25037 -0.396324 0
M  V30 888 C 82.5105 -1.58407 3.10979 0
M  V30 889 C 83.8585 -2.07696 3.70334 0
M  V30 890 O 84.8825 -1.68304 3.1393 0
M  V30 891 O 83.7415 -2.80096 4.69264 0
M  V30 892 H 80.8355 -0.453993 0.691245 0
M  V30 893 H 83.3815 -0.215149 1.68331 0
M  V30 894 H 82.1535 -0.823831 3.82529 0
M  V30 895 H 81.7765 -2.40661 3.16493 0
M  V30 896 N 82.7736 -1.49793 -0.48987 0
M  V30 897 C 84.0016 -1.63568 -1.26701 0
M  V30 898 C 84.4166 -0.311465 -1.86213 0
M  V30 899 O 83.7736 0.704416 -1.68357 0
M  V30 900 C 83.8246 -2.71284 -2.38929 0
M  V30 901 O 83.5456 -3.9857 -1.81861 0
M  V30 902 C 85.0466 -2.95864 -3.3012 0
M  V30 903 H 82.2666 -0.550342 -0.383881 0
M  V30 904 H 84.8106 -1.95898 -0.586864 0
M  V30 905 H 82.9656 -2.417 -3.02753 0
M  V30 906 H 83.3796 -4.57993 -2.55622 0
M  V30 907 H 84.8536 -3.74941 -4.05121 0
M  V30 908 H 85.3306 -2.06206 -3.87783 0
M  V30 909 H 85.9366 -3.26907 -2.72051 0
M  V30 910 N 84.2517 0.741722 -1.39055 0
M  V30 911 C 85.1837 1.8657 -1.33133 0
M  V30 912 C 86.1967 1.61001 -0.241329 0
M  V30 913 O 87.3857 1.7136 -0.499784 0
M  V30 914 C 84.4857 3.22457 -1.04283 0
M  V30 915 C 83.6587 3.75435 -2.24427 0
M  V30 916 C 82.7177 4.89867 -1.92138 0
M  V30 917 O 81.7437 5.03879 -2.64754 0
M  V30 918 N 82.9457 5.73738 -0.88347 0
M  V30 919 H 85.7107 1.92156 -2.29991 0
M  V30 920 H 83.2717 0.922172 -1.3307 0
M  V30 921 H 85.2637 3.9657 -0.807128 0
M  V30 922 H 83.8337 3.12181 -0.161807 0
M  V30 923 H 83.0537 2.92751 -2.6399 0
M  V30 924 H 84.3417 4.07563 -3.04581 0
M  V30 925 H 83.7397 5.64999 -0.281517 0
M  V30 926 H 82.2967 6.47947 -0.707662 0
M  V30 927 N 85.7298 1.2412 0.971189 0
M  V30 928 C 86.6928 1.03156 2.04674 0
M  V30 929 C 87.6928 -0.00990322 1.60797 0
M  V30 930 O 88.8828 0.230729 1.72665 0
M  V30 931 C 86.0148 0.562765 3.36223 0
M  V30 932 H 87.2078 1.98614 2.24705 0
M  V30 933 H 84.7608 1.06293 1.14593 0
M  V30 934 H 85.4958 -0.395176 3.21883 0
M  V30 935 H 85.2808 1.31441 3.69413 0
M  V30 936 H 86.7708 0.437015 4.15307 0
M  V30 937 N 87.2079 -1.17134 1.05439 0
M  V30 938 C 88.4569 -1.86791 0.761049 0
M  V30 939 C 88.7699 -1.82072 -0.714795 0
M  V30 940 O 89.9759 -2.47223 -1.12218 0
M  V30 941 C 88.4319 -3.35166 1.31117 0
M  V30 942 C 88.0399 -3.48381 2.81664 0
M  V30 943 C 89.7839 -4.10134 1.09499 0
M  V30 944 C 87.6909 -4.90793 3.29964 0
M  V30 945 H 86.6209 -0.699681 0.281002 0
M  V30 946 H 89.2719 -1.3226 1.27199 0
M  V30 947 H 87.6539 -3.8925 0.72803 0
M  V30 948 H 88.8279 -3.04502 3.45855 0
M  V30 949 H 87.1429 -2.86836 3.01851 0
M  V30 950 H 89.7399 -5.152 1.43084 0
M  V30 951 H 90.0829 -4.16287 0.0328772 0
M  V30 952 H 90.6159 -3.62264 1.64346 0
M  V30 953 H 87.3549 -4.89816 4.35616 0
M  V30 954 H 86.8749 -5.35333 2.70516 0
M  V30 955 H 88.5539 -5.59573 3.24787 0
M  V30 956 N 88.686 -0.835752 -1.33615 0
M  V30 957 C 89.932 -0.430596 -1.98176 0
M  V30 958 C 90.265 1.00684 -1.66061 0
M  V30 959 O 89.54 1.70339 -0.938877 0
M  V30 960 C 89.823 -0.648065 -3.5422 0
M  V30 961 C 89.676 -2.13255 -3.96033 0
M  V30 962 C 90.995 -0.0922113 -4.40003 0
M  V30 963 H 88.114 -0.157924 -0.719881 0
M  V30 964 H 90.756 -1.05069 -1.58305 0
M  V30 965 H 88.906 -0.120237 -3.88314 0
M  V30 966 H 90.578 -2.725 -3.72211 0
M  V30 967 H 88.821 -2.61823 -3.45878 0
M  V30 968 H 89.492 -2.23547 -5.04708 0
M  V30 969 H 91.968 -0.543343 -4.12537 0
M  V30 970 H 90.844 -0.274083 -5.48215 0
M  V30 971 H 91.105 1.00378 -4.30554 0
M  V30 972 N 90.1641 1.46063 -0.591896 0
M  V30 973 C 91.0741 2.34192 0.13831 0
M  V30 974 C 92.0901 1.50305 0.876608 0
M  V30 975 O 93.2661 1.8315 0.837728 0
M  V30 976 C 90.3311 3.27656 1.13326 0
M  V30 977 C 89.3921 4.27445 0.39863 0
M  V30 978 C 88.6251 5.16443 1.34618 0
M  V30 979 O 88.8481 5.08553 2.58321 0
M  V30 980 O 87.7821 5.95843 0.851768 0
M  V30 981 H 91.6081 2.98002 -0.58552 0
M  V30 982 H 89.1931 1.45188 -0.352239 0
M  V30 983 H 91.0751 3.85291 1.70671 0
M  V30 984 H 89.7501 2.6643 1.83839 0
M  V30 985 H 88.6571 3.73471 -0.216895 0
M  V30 986 H 89.9901 4.91482 -0.265709 0
M  V30 987 N 91.6422 0.330177 1.54103 0
M  V30 988 C 92.5902 -0.548226 2.26047 0
M  V30 989 C 93.5842 -1.11309 1.27698 0
M  V30 990 O 94.7902 -1.06036 1.45452 0
M  V30 991 H 91.1652 -0.195456 0.726155 0
M  V30 992 H 93.1362 0.0807567 2.98291 0
M  V30 993 C 91.8852 -1.69415 3.03634 0
M  V30 994 H 91.2082 -1.26876 3.79134 0
M  V30 995 H 92.6482 -2.28423 3.5721 0
M  V30 996 C 91.1072 -2.61569 2.12328 0
M  V30 997 O 91.6372 -3.63462 1.7105 0
M  V30 998 N 89.8432 -2.29952 1.77681 0
M  V30 999 H 89.3902 -1.47134 2.11446 0
M  V30 1000 H 89.3482 -2.91871 1.16869 0
M  V30 1001 N 93.1203 -1.57491 0.0584922 0
M  V30 1002 C 94.0683 -2.13148 -0.931168 0
M  V30 1003 C 95.0623 -1.06507 -1.31729 0
M  V30 1004 O 96.2683 -1.24906 -1.29609 0
M  V30 1005 H 92.6433 -0.68137 -0.31818 0
M  V30 1006 H 94.6143 -2.95187 -0.436707 0
M  V30 1007 C 93.3633 -2.69732 -2.19408 0
M  V30 1008 H 92.6863 -3.51454 -1.90578 0
M  V30 1009 H 94.1263 -3.12287 -2.86798 0
M  V30 1010 C 92.5853 -1.63855 -2.94369 0
M  V30 1011 O 93.1153 -1.05565 -3.87581 0
M  V30 1012 N 91.3213 -1.35202 -2.57233 0
M  V30 1013 H 90.8683 -1.82791 -1.81508 0
M  V30 1014 H 90.8263 -0.645922 -3.07693 0
M  V30 1015 N 94.5984 0.214957 -1.56127 0
M  V30 1016 C 95.5084 1.28727 -1.96129 0
M  V30 1017 C 96.5244 1.50916 -0.866044 0
M  V30 1018 O 97.7004 1.63918 -1.17016 0
M  V30 1019 C 94.7654 2.61569 -2.27558 0
M  V30 1020 C 93.8264 2.47625 -3.50685 0
M  V30 1021 C 93.0594 3.74132 -3.80606 0
M  V30 1022 O 93.2824 4.77438 -3.12104 0
M  V30 1023 O 92.2164 3.70849 -4.74083 0
M  V30 1024 H 96.0424 0.977855 -2.87527 0
M  V30 1025 H 93.6274 0.418358 -1.43423 0
M  V30 1026 H 95.5094 3.40012 -2.48938 0
M  V30 1027 H 94.1844 2.92178 -1.39332 0
M  V30 1028 H 93.0914 1.67361 -3.34576 0
M  V30 1029 H 94.4244 2.21954 -4.39315 0
M  V30 1030 N 96.0765 1.50051 0.48192 0
M  V30 1031 C 97.3015 1.64508 1.26301 0
M  V30 1032 C 97.7265 0.323851 1.85291 0
M  V30 1033 O 97.0845 -0.710969 1.66778 0
M  V30 1034 C 97.1325 2.7305 2.35533 0
M  V30 1035 O 96.2365 2.3355 3.39895 0
M  V30 1036 H 95.5775 0.549978 0.372048 0
M  V30 1037 H 98.1075 1.9636 0.574786 0
M  V30 1038 H 98.1175 2.95799 2.8101 0
M  V30 1039 H 96.7925 3.68946 1.91967 0
M  V30 1040 H 95.3695 2.21205 3.00204 0
M  V30 1041 N 97.5546 -0.734337 1.39446 0
M  V30 1042 C 98.7826 -1.52358 1.39981 0
M  V30 1043 C 99.1976 -1.88799 -0.0054975 0
M  V30 1044 O 98.5546 -1.54146 -0.976998 0
M  V30 1045 C 98.6056 -2.81072 2.27333 0
M  V30 1046 O 98.3266 -2.46178 3.62392 0
M  V30 1047 C 99.8276 -3.75096 2.36259 0
M  V30 1048 H 97.0476 -0.470806 0.478103 0
M  V30 1049 H 99.5916 -0.907339 1.83269 0
M  V30 1050 H 97.7466 -3.39026 1.87457 0
M  V30 1051 H 98.1606 -3.28866 4.08592 0
M  V30 1052 H 99.6346 -4.62305 3.01626 0
M  V30 1053 H 100.112 -4.16892 1.38194 0
M  V30 1054 H 100.718 -3.23061 2.76608 0
M  V30 1055 N 99.0327 -1.24633 -0.964593 0
M  V30 1056 C 99.9427 -1.05859 -2.09359 0
M  V30 1057 C 100.959 0.00148855 -1.74 0
M  V30 1058 O 102.135 -0.197346 -2.00431 0
M  V30 1059 C 99.1997 -0.668879 -3.40187 0
M  V30 1060 C 98.2607 -1.80578 -3.89474 0
M  V30 1061 C 97.4937 -1.43457 -5.14058 0
M  V30 1062 O 97.7167 -0.325775 -5.69469 0
M  V30 1063 O 96.6507 -2.2613 -5.57807 0
M  V30 1064 H 100.477 -2.00516 -2.28094 0
M  V30 1065 H 98.0617 -1.03481 -1.0776 0
M  V30 1066 H 99.9437 -0.463211 -4.18846 0
M  V30 1067 H 98.6187 0.248536 -3.22744 0
M  V30 1068 H 97.5257 -2.06623 -3.11862 0
M  V30 1069 H 98.8587 -2.70208 -4.11398 0
M  V30 1070 N 100.511 1.16574 -1.06058 0
M  V30 1071 C 101.741 1.90675 -0.795397 0
M  V30 1072 C 102.149 1.77547 0.653735 0
M  V30 1073 O 101.492 1.11611 1.45907 0
M  V30 1074 C 101.554 3.42011 -1.10764 0
M  V30 1075 C 101.218 3.78924 -2.55471 0
M  V30 1076 C 102.215 3.81042 -3.53699 0
M  V30 1077 C 99.8998 4.09626 -2.90708 0
M  V30 1078 C 101.894 4.13346 -4.85205 0
M  V30 1079 C 99.5808 4.41597 -4.22416 0
M  V30 1080 C 100.579 4.43436 -5.19474 0
M  V30 1081 O 100.267 4.74649 -6.48817 0
M  V30 1082 H 99.9988 0.611554 -0.288058 0
M  V30 1083 H 102.553 1.48711 -1.41683 0
M  V30 1084 H 100.783 3.84312 -0.429128 0
M  V30 1085 H 102.472 3.97384 -0.827077 0
M  V30 1086 H 103.238 3.57437 -3.27817 0
M  V30 1087 H 99.1168 4.07361 -2.15819 0
M  V30 1088 H 102.661 4.14696 -5.60957 0
M  V30 1089 H 98.5578 4.64667 -4.48056 0
M  V30 1090 H 99.3258 4.9247 -6.5377 0
M  V30 1091 N 101.989 0.842826 1.3317 0
M  V30 1092 C 103.237 0.439577 1.97262 0
M  V30 1093 C 103.558 -1.00548 1.67078 0
M  V30 1094 O 102.828 -1.70098 0.971779 0
M  V30 1095 H 101.408 0.159558 0.72976 0
M  V30 1096 H 104.07 1.07665 1.62463 0
M  V30 1097 H 103.166 0.574886 3.0676 0
M  V30 1098 N 103.467 -1.45747 0.599634 0
M  V30 1099 C 104.397 -2.33235 -0.111306 0
M  V30 1100 C 105.378 -1.46359 -0.866781 0
M  V30 1101 O 106.563 -1.75146 -0.838904 0
M  V30 1102 C 103.693 -3.28932 -1.11451 0
M  V30 1103 C 102.647 -4.25381 -0.472772 0
M  V30 1104 C 101.973 -5.1071 -1.58365 0
M  V30 1105 C 103.273 -5.18831 0.600948 0
M  V30 1106 H 104.967 -2.92927 0.61919 0
M  V30 1107 H 102.513 -1.40857 0.299215 0
M  V30 1108 H 104.466 -3.89002 -1.62036 0
M  V30 1109 H 103.19 -2.67381 -1.8755 0
M  V30 1110 H 101.849 -3.66598 0.0121472 0
M  V30 1111 H 101.497 -4.45533 -2.33473 0
M  V30 1112 H 101.197 -5.7604 -1.15982 0
M  V30 1113 H 102.721 -5.73647 -2.09194 0
M  V30 1114 H 104.135 -5.73019 0.179491 0
M  V30 1115 H 102.532 -5.92595 0.946076 0
M  V30 1116 H 103.602 -4.6174 1.48068 0
M  V30 1117 N 104.945 -0.338344 -1.53925 0
M  V30 1118 C 106.192 0.259758 -2.00827 0
M  V30 1119 C 106.52 1.50973 -1.22628 0
M  V30 1120 O 105.775 1.93379 -0.300509 0
M  V30 1121 C 106.074 0.62448 -3.51902 0
M  V30 1122 C 105.74 -0.528006 -4.47798 0
M  V30 1123 C 104.402 -0.844298 -4.73735 0
M  V30 1124 C 106.754 -1.30143 -5.0469 0
M  V30 1125 C 104.082 -1.93648 -5.53821 0
M  V30 1126 C 106.434 -2.38382 -5.85967 0
M  V30 1127 C 105.098 -2.70576 -6.10201 0
M  V30 1128 H 104.368 0.0950523 -0.734878 0
M  V30 1129 H 107.015 -0.465182 -1.85764 0
M  V30 1130 H 105.32 1.43006 -3.64769 0
M  V30 1131 H 107.017 1.09905 -3.85645 0
M  V30 1132 H 103.607 -0.271421 -4.2774 0
M  V30 1133 H 107.791 -1.07033 -4.84621 0
M  V30 1134 H 103.047 -2.19021 -5.70824 0
M  V30 1135 H 107.221 -2.98746 -6.29066 0
M  V30 1136 H 104.848 -3.55333 -6.72044 0
M  V30 1137 N 106.423 1.57458 -0.0668435 0
M  V30 1138 C 107.355 2.09413 0.931601 0
M  V30 1139 C 108.368 1.02522 1.26464 0
M  V30 1140 O 109.557 1.30049 1.22269 0
M  V30 1141 C 106.657 2.53537 2.24882 0
M  V30 1142 C 105.83 3.83944 2.09537 0
M  V30 1143 C 104.889 4.14214 3.2452 0
M  V30 1144 O 103.915 4.83891 2.9973 0
M  V30 1145 N 105.117 3.67367 4.49469 0
M  V30 1146 H 107.882 2.95699 0.488048 0
M  V30 1147 H 105.443 1.61462 0.119009 0
M  V30 1148 H 107.435 2.70853 3.00701 0
M  V30 1149 H 106.005 1.72415 2.60753 0
M  V30 1150 H 105.225 3.76057 1.18215 0
M  V30 1151 H 106.513 4.69312 1.96529 0
M  V30 1152 H 105.911 3.11068 4.72497 0
M  V30 1153 H 104.468 3.89891 5.2233 0
M  V30 1154 N 107.901 -0.206675 1.56239 0
M  V30 1155 C 109.15 -0.926964 1.79138 0
M  V30 1156 C 109.463 -1.84901 0.638043 0
M  V30 1157 O 110.669 -2.60906 0.751033 0
M  V30 1158 C 109.125 -1.6986 3.17294 0
M  V30 1159 C 108.733 -0.821956 4.40395 0
M  V30 1160 C 110.477 -2.40922 3.4951 0
M  V30 1161 C 108.384 -1.59179 5.69575 0
M  V30 1162 H 107.314 -0.349864 0.667915 0
M  V30 1163 H 109.965 -0.180487 1.8261 0
M  V30 1164 H 108.347 -2.48853 3.08039 0
M  V30 1165 H 109.521 -0.0715019 4.60745 0
M  V30 1166 H 107.836 -0.222741 4.15804 0
M  V30 1167 H 110.433 -2.99047 4.43255 0
M  V30 1168 H 110.776 -3.14542 2.72707 0
M  V30 1169 H 111.309 -1.68905 3.60161 0
M  V30 1170 H 108.048 -0.898589 6.49312 0
M  V30 1171 H 107.568 -2.31648 5.53262 0
M  V30 1172 H 109.247 -2.14862 6.10281 0
M  V30 1173 N 109.379 -1.50304 -0.473955 0
M  V30 1174 C 110.604 -1.65175 -1.25427 0
M  V30 1175 C 111.029 -0.333673 -1.85117 0
M  V30 1176 O 110.387 0.702114 -1.67153 0
M  V30 1177 C 110.435 -2.74295 -2.34082 0
M  V30 1178 O 109.539 -2.35349 -3.38651 0
M  V30 1179 H 108.88 -0.551944 -0.369126 0
M  V30 1180 H 111.41 -1.96662 -0.564364 0
M  V30 1181 H 111.42 -2.97285 -2.79438 0
M  V30 1182 H 110.095 -3.69959 -1.90008 0
M  V30 1183 H 108.672 -2.22794 -2.99027 0
M  V30 1184 N 110.857 0.726932 -1.39834 0
M  V30 1185 C 111.805 1.86235 -1.39353 0
M  V30 1186 C 112.799 1.67144 -0.275555 0
M  V30 1187 O 114.005 1.74387 -0.44601 0
M  V30 1188 H 110.38 0.613174 -0.43534 0
M  V30 1189 H 112.351 1.83756 -2.35109 0
M  V30 1190 C 111.1 3.23995 -1.26185 0
M  V30 1191 H 110.423 3.39285 -2.11484 0
M  V30 1192 H 111.863 4.03609 -1.29907 0
M  V30 1193 C 110.322 3.36888 0.0290018 0
M  V30 1194 O 110.852 3.89152 0.99619 0
M  V30 1195 N 109.058 2.90446 0.0947437 0
M  V30 1196 H 108.605 2.48102 -0.693035 0
M  V30 1197 H 108.563 2.99451 0.957932 0
M  V30 1198 N 112.336 1.25143 0.95797 0
M  V30 1199 C 113.283 1.05235 2.05412 0
M  V30 1200 C 114.253 -0.0374561 1.66058 0
M  V30 1201 O 115.438 0.119073 1.90428 0
M  V30 1202 C 112.578 0.673589 3.38462 0
M  V30 1203 C 111.691 1.8379 3.90954 0
M  V30 1204 C 110.826 1.40381 5.12315 0
M  V30 1205 C 109.865 2.53746 5.57027 0
M  V30 1206 N 109.002 2.11136 6.69601 0
M  V30 1207 H 113.842 1.99048 2.21774 0
M  V30 1208 H 111.379 0.991277 1.08683 0
M  V30 1209 H 113.337 0.434964 4.14926 0
M  V30 1210 H 111.967 -0.227554 3.21997 0
M  V30 1211 H 111.019 2.18992 3.11041 0
M  V30 1212 H 112.331 2.68937 4.20089 0
M  V30 1213 H 111.485 1.12464 5.96185 0
M  V30 1214 H 110.224 0.523015 4.84887 0
M  V30 1215 H 109.229 2.82412 4.71724 0
M  V30 1216 H 110.454 3.42398 5.86464 0
M  V30 1217 H 108.4 1.25468 6.4389 0
M  V30 1218 H 108.317 2.89832 6.98236 0
M  V30 1219 H 109.585 1.86385 7.56889 0
M  V30 1220 N 113.814 -1.1601 1.06675 0
M  V30 1221 C 114.744 -2.22688 0.702307 0
M  V30 1222 C 115.725 -1.67306 -0.307032 0
M  V30 1223 O 116.91 -1.93352 -0.181305 0
M  V30 1224 C 114.04 -3.47178 0.092038 0
M  V30 1225 C 112.994 -4.15477 1.02777 0
M  V30 1226 C 112.32 -5.33963 0.28061 0
M  V30 1227 C 113.62 -4.66019 2.35846 0
M  V30 1228 H 115.314 -2.53429 1.59419 0
M  V30 1229 H 112.86 -1.21813 0.767961 0
M  V30 1230 H 114.813 -4.21037 -0.174814 0
M  V30 1231 H 113.537 -3.15749 -0.834877 0
M  V30 1232 H 112.196 -3.43549 1.27944 0
M  V30 1233 H 111.844 -4.98788 -0.649545 0
M  V30 1234 H 111.544 -5.806 0.904258 0
M  V30 1235 H 113.068 -6.10596 0.021396 0
M  V30 1236 H 114.482 -5.3144 2.15045 0
M  V30 1237 H 112.879 -5.23293 2.93743 0
M  V30 1238 H 113.949 -3.82023 2.98641 0
M  V30 1239 N 115.292 -0.849877 -1.32721 0
M  V30 1240 C 116.538 -0.460855 -1.9811 0
M  V30 1241 C 116.893 0.971716 -1.66059 0
M  V30 1242 O 116.186 1.67184 -0.935944 0
M  V30 1243 C 116.38 -0.631272 -3.51781 0
M  V30 1244 C 116.209 -2.07886 -3.98765 0
M  V30 1245 C 114.979 -2.71637 -4.26077 0
M  V30 1246 C 117.177 -3.04889 -4.14182 0
M  V30 1247 N 115.159 -4.07356 -4.59276 0
M  V30 1248 C 116.53 -4.25583 -4.50865 0
M  V30 1249 C 118.585 -3.01148 -3.96503 0
M  V30 1250 C 117.288 -5.43027 -4.71714 0
M  V30 1251 C 119.314 -4.17832 -4.18533 0
M  V30 1252 C 118.676 -5.37284 -4.55528 0
M  V30 1253 H 114.775 -0.217283 -0.751207 0
M  V30 1254 H 117.359 -1.10026 -1.60631 0
M  V30 1255 H 115.53 -0.0215966 -3.88394 0
M  V30 1256 H 117.262 -0.212614 -4.04141 0
M  V30 1257 H 114.017 -2.22705 -4.17971 0
M  V30 1258 H 114.441 -4.77351 -4.80068 0
M  V30 1259 H 119.083 -2.0992 -3.67006 0
M  V30 1260 H 116.801 -6.34791 -5.00066 0
M  V30 1261 H 120.387 -4.16368 -4.06361 0
M  V30 1262 H 119.267 -6.26071 -4.72234 0
M  V30 1263 N 116.77 1.45427 -0.607355 0
M  V30 1264 C 118.01 2.04128 -0.105458 0
M  V30 1265 C 118.374 1.46555 1.24039 0
M  V30 1266 O 119.575 1.96608 1.833 0
M  V30 1267 C 117.846 3.57338 -0.0665324 0
M  V30 1268 S 119.405 4.37201 0.374207 0
M  V30 1269 H 116.223 0.709278 -0.0494575 0
M  V30 1270 H 118.825 1.78139 -0.805404 0
M  V30 1271 H 117.529 3.96752 -1.04957 0
M  V30 1272 H 117.06 3.87902 0.655415 0
M  V30 1273 H 119.075 4.6888 1.62377 0
M  V30 1274 N 118.248 0.346503 1.53744 0
M  V30 1275 C 119.195 -0.508914 2.25119 0
M  V30 1276 C 120.165 -1.09315 1.25058 0
M  V30 1277 O 121.35 -1.12921 1.53797 0
M  V30 1278 C 118.49 -1.65246 3.02965 0
M  V30 1279 C 117.603 -1.09525 4.17886 0
M  V30 1280 C 116.738 -2.20634 4.83212 0
M  V30 1281 C 115.777 -1.62279 5.90196 0
M  V30 1282 N 114.914 -2.67143 6.49291 0
M  V30 1283 H 119.754 0.106283 2.9781 0
M  V30 1284 H 117.291 0.0642227 1.4696 0
M  V30 1285 H 119.249 -2.32574 3.4636 0
M  V30 1286 H 117.879 -2.2386 2.32565 0
M  V30 1287 H 116.931 -0.312818 3.79112 0
M  V30 1288 H 118.243 -0.628444 4.94825 0
M  V30 1289 H 117.397 -2.95821 5.29693 0
M  V30 1290 H 116.136 -2.70659 4.05703 0
M  V30 1291 H 115.141 -0.855989 5.43096 0
M  V30 1292 H 116.366 -1.13102 6.69615 0
M  V30 1293 H 114.312 -3.16417 5.74645 0
M  V30 1294 H 114.229 -2.25093 7.21713 0
M  V30 1295 H 115.497 -3.4209 7.00425 0
M  V30 1296 N 119.726 -1.57421 0.075193 0
M  V30 1297 C 120.951 -1.98364 -0.605515 0
M  V30 1298 C 121.376 -0.953383 -1.62149 0
M  V30 1299 O 120.734 0.0806053 -1.81121 0
M  V30 1300 C 120.782 -3.38332 -1.24756 0
M  V30 1301 O 119.886 -3.37959 -2.36342 0
M  V30 1302 H 119.227 -0.645553 -0.155428 0
M  V30 1303 H 121.757 -2.04044 0.150714 0
M  V30 1304 H 121.767 -3.75591 -1.5936 0
M  V30 1305 H 120.442 -4.12846 -0.503129 0
M  V30 1306 H 119.019 -3.12474 -2.03506 0
M  V30 1307 N 121.204 0.198386 -1.56346 0
M  V30 1308 C 122.429 0.939682 -1.84891 0
M  V30 1309 C 122.854 1.76202 -0.658369 0
M  V30 1310 O 122.212 1.76993 0.392851 0
M  V30 1311 C 122.26 1.81428 -3.11635 0
M  V30 1312 O 121.364 2.91265 -2.91956 0
M  V30 1313 H 120.705 0.264807 -0.608912 0
M  V30 1314 H 123.235 0.204695 -2.03573 0
M  V30 1315 H 123.245 2.21958 -3.42343 0
M  V30 1316 H 121.92 1.21004 -3.97908 0
M  V30 1317 H 120.497 2.54514 -2.72538 0
M  V30 1318 N 122.682 1.50554 0.465978 0
M  V30 1319 C 123.614 1.65949 1.58093 0
M  V30 1320 C 124.627 0.540827 1.53554 0
M  V30 1321 O 125.816 0.814187 1.5885 0
M  V30 1322 C 122.916 1.63261 2.96983 0
M  V30 1323 C 122.089 2.91245 3.26336 0
M  V30 1324 C 121.148 2.8113 4.44806 0
M  V30 1325 O 120.174 3.55086 4.44862 0
M  V30 1326 N 121.376 1.95032 5.46756 0
M  V30 1327 H 124.141 2.62122 1.45301 0
M  V30 1328 H 121.702 1.48082 0.65448 0
M  V30 1329 H 123.694 1.54101 3.74212 0
M  V30 1330 H 122.264 0.748032 3.03518 0
M  V30 1331 H 121.484 3.14493 2.37672 0
M  V30 1332 H 122.772 3.76022 3.42761 0
M  V30 1333 H 122.17 1.3427 5.49534 0
M  V30 1334 H 120.727 1.91772 6.2295 0
M  V30 1335 N 124.16 -0.719506 1.40217 0
M  V30 1336 C 125.406 -1.48152 1.38488 0
M  V30 1337 C 125.739 -1.94195 -0.0141867 0
M  V30 1338 O 125.014 -1.67884 -0.982096 0
M  V30 1339 C 125.297 -2.71035 2.37091 0
M  V30 1340 C 125.15 -2.30912 3.86005 0
M  V30 1341 C 126.469 -3.73182 2.33288 0
M  V30 1342 H 123.588 -0.537395 0.504357 0
M  V30 1343 H 126.23 -0.821472 1.71324 0
M  V30 1344 H 124.38 -3.27352 2.0922 0
M  V30 1345 H 126.052 -1.80107 4.24687 0
M  V30 1346 H 124.295 -1.62958 4.02029 0
M  V30 1347 H 124.966 -3.18978 4.50508 0
M  V30 1348 H 127.442 -3.26485 2.57966 0
M  V30 1349 H 126.318 -4.56806 3.04334 0
M  V30 1350 H 126.579 -4.21202 1.34317 0
M  V30 1351 N 125.638 -1.25649 -0.95132 0
M  V30 1352 C 127.049 -1.09654 -1.51106 0
M  V30 1353 C 127.4 0.326615 -1.93462 0
M  V30 1354 O 126.525 1.21697 -1.78938 0
M  V30 1355 C 127.12 -1.98437 -2.74605 0
M  V30 1356 C 125.679 -1.86618 -3.2688 0
M  V30 1357 C 124.826 -1.9239 -1.99703 0
M  V30 1358 H 127.777 -1.38887 -0.767865 0
M  V30 1359 H 127.798 -1.5263 -3.48546 0
M  V30 1360 H 127.31 -3.02009 -2.43746 0
M  V30 1361 H 125.411 -0.859421 -3.62553 0
M  V30 1362 H 125.524 -2.71607 -3.94673 0
M  V30 1363 H 123.888 -1.36317 -2.15151 0
M  V30 1364 H 124.671 -2.97573 -1.71188 0
M  V30 1365 N 127.117 1.15442 -1.07289 0
M  V30 1366 C 128.049 2.19773 -0.650585 0
M  V30 1367 C 129.062 1.60076 0.296572 0
M  V30 1368 O 130.251 1.78293 0.0859905 0
M  V30 1369 C 127.351 3.38838 0.0650398 0
M  V30 1370 C 126.524 4.2808 -0.898141 0
M  V30 1371 C 125.583 5.2574 -0.219926 0
M  V30 1372 O 124.609 5.62654 -0.860773 0
M  V30 1373 N 125.811 5.71205 1.03466 0
M  V30 1374 H 128.576 2.56622 -1.54808 0
M  V30 1375 H 126.137 1.30551 -0.957494 0
M  V30 1376 H 128.129 4.01222 0.529415 0
M  V30 1377 H 126.699 3.00409 0.864466 0
M  V30 1378 H 125.919 3.62804 -1.54165 0
M  V30 1379 H 127.207 4.84577 -1.5512 0
M  V30 1380 H 126.605 5.43325 1.57526 0
M  V30 1381 H 125.162 6.35633 1.44272 0
M  V30 1382 N 128.595 0.856903 1.32268 0
M  V30 1383 C 129.82 0.474569 2.01897 0
M  V30 1384 C 130.245 -0.921766 1.63967 0
M  V30 1385 O 129.603 -1.60589 0.84148 0
M  V30 1386 C 129.651 0.623799 3.55164 0
M  V30 1387 O 128.755 -0.342459 4.10976 0
M  V30 1388 H 128.096 0.190422 0.63611 0
M  V30 1389 H 130.626 1.15672 1.68764 0
M  V30 1390 H 130.636 0.512169 4.04773 0
M  V30 1391 H 129.311 1.64202 3.82113 0
M  V30 1392 H 127.888 -0.18688 3.72431 0
M  V30 1393 N 130.073 -1.45103 0.615059 0
M  V30 1394 C 131.489 -1.57137 0.279322 0
M  V30 1395 C 131.689 -1.60523 -1.21797 0
M  V30 1396 O 130.745 -1.53956 -2.00134 0
M  V30 1397 C 132.058 -2.85062 0.957083 0
M  V30 1398 C 133.606 -2.98749 0.933706 0
M  V30 1399 C 134.081 -4.29455 1.59162 0
M  V30 1400 N 135.572 -4.36231 1.55746 0
M  V30 1401 C 136.307 -5.36051 2.0356 0
M  V30 1402 N 135.803 -6.42367 2.59494 0
M  V30 1403 N 137.596 -5.27456 1.94284 0
M  V30 1404 H 129.747 -1.41148 1.58717 0
M  V30 1405 H 132.01 -0.675331 0.665306 0
M  V30 1406 H 131.716 -2.88488 2.01166 0
M  V30 1407 H 131.59 -3.7407 0.48494 0
M  V30 1408 H 133.977 -2.94886 -0.112347 0
M  V30 1409 H 134.058 -2.11132 1.44419 0
M  V30 1410 H 133.702 -4.34077 2.63704 0
M  V30 1411 H 133.632 -5.15901 1.0561 0
M  V30 1412 H 136.123 -3.60011 1.14893 0
M  V30 1413 H 136.436 -7.14793 2.93752 0
M  V30 1414 H 134.781 -6.43097 2.63537 0
M  V30 1415 H 137.972 -4.43308 1.5032 0
M  V30 1416 H 138.145 -6.05099 2.3186 0
M  V30 1417 N 131.551 -0.354651 -1.53558 0
M  V30 1418 C 132.499 0.512195 -2.26891 0
M  V30 1419 C 133.493 1.09263 -1.29452 0
M  V30 1420 O 134.699 1.03709 -1.47121 0
M  V30 1421 H 131.074 0.183878 -0.729173 0
M  V30 1422 H 133.045 -0.128202 -2.98124 0
M  V30 1423 C 131.794 1.64563 -3.06291 0
M  V30 1424 H 131.117 1.20829 -3.81104 0
M  V30 1425 H 132.557 2.22711 -3.60799 0
M  V30 1426 C 131.016 2.58158 -2.16462 0
M  V30 1427 O 131.546 3.60695 -1.76811 0
M  V30 1428 N 129.752 2.27096 -1.81317 0
M  V30 1429 H 129.299 1.43751 -2.1376 0
M  V30 1430 H 129.257 2.89975 -1.21498 0
M  V30 1431 N 133.029 1.57378 -0.0835403 0
M  V30 1432 C 134.278 1.93106 0.582498 0
M  V30 1433 C 134.591 0.96651 1.70053 0
M  V30 1434 O 135.797 1.21705 2.42693 0
M  V30 1435 C 134.253 3.43076 1.08751 0
M  V30 1436 C 133.861 4.48 -0.000146404 0
M  V30 1437 C 135.605 3.87785 1.72694 0
M  V30 1438 C 133.512 5.89113 0.519568 0
M  V30 1439 H 132.442 0.720775 0.221358 0
M  V30 1440 H 135.093 1.82821 -0.157675 0
M  V30 1441 H 133.475 3.48474 1.88101 0
M  V30 1442 H 134.649 4.54233 -0.775199 0
M  V30 1443 H 132.964 4.1283 -0.54406 0
M  V30 1444 H 135.561 4.90604 2.1263 0
M  V30 1445 H 135.904 3.25796 2.59158 0
M  V30 1446 H 136.437 3.8504 0.999457 0
M  V30 1447 H 133.176 6.54775 -0.308186 0
M  V30 1448 H 132.696 5.86376 1.26188 0
M  V30 1449 H 134.375 6.39346 0.992237 0
M  V30 1450 N 134.507 -0.190092 1.56449 0
M  V30 1451 C 135.747 -0.916414 1.82705 0
M  V30 1452 C 136.111 -1.80235 0.661763 0
M  V30 1453 O 137.312 -2.56484 0.80433 0
M  V30 1454 C 135.583 -1.70691 3.14005 0
M  V30 1455 S 137.142 -2.48457 3.61683 0
M  V30 1456 H 133.96 -0.307281 0.64117 0
M  V30 1457 H 136.562 -0.179433 1.94675 0
M  V30 1458 H 135.266 -1.04677 3.96826 0
M  V30 1459 H 134.797 -2.48562 3.04927 0
M  V30 1460 H 136.812 -3.72756 3.27517 0
M  V30 1461 N 135.985 -1.50799 -0.457987 0
M  V30 1462 C 137.262 -1.52968 -1.21902 0
M  V30 1463 C 137.642 -0.281906 -2.09209 0
M  V30 1464 O 136.99 0.734076 -2.16388 0
M  V30 1465 C 137.2 -2.8326 -2.03875 0
M  V30 1466 C 138.548 -3.34425 -2.6162 0
M  V30 1467 O 139.572 -2.8467 -2.14106 0
M  V30 1468 O 138.431 -4.21188 -3.48228 0
M  V30 1469 H 135.525 -0.614129 -0.553873 0
M  V30 1470 H 138.071 -1.63098 -0.468739 0
M  V30 1471 H 136.843 -3.65543 -1.39621 0
M  V30 1472 H 136.466 -2.76195 -2.8601 0
M  V30 1473 N 137.463 0.71206 -1.40597 0
M  V30 1474 C 138.712 1.46754 -1.38369 0
M  V30 1475 C 139.025 1.95598 0.0097839 0
M  V30 1476 O 140.231 2.71059 0.154677 0
M  V30 1477 C 138.687 2.65289 -2.43207 0
M  V30 1478 C 138.295 2.23301 -3.88382 0
M  V30 1479 C 140.039 3.43008 -2.50091 0
M  V30 1480 C 137.946 3.38696 -4.84808 0
M  V30 1481 H 136.876 0.55118 -0.514506 0
M  V30 1482 H 139.527 0.774616 -1.66349 0
M  V30 1483 H 137.909 3.36769 -2.08332 0
M  V30 1484 H 139.083 1.59218 -4.32419 0
M  V30 1485 H 137.398 1.58618 -3.85006 0
M  V30 1486 H 139.995 4.28881 -3.1932 0
M  V30 1487 H 140.338 3.87065 -1.53253 0
M  V30 1488 H 140.871 2.78574 -2.83974 0
M  V30 1489 H 137.61 2.99668 -5.82992 0
M  V30 1490 H 137.13 4.01683 -4.45433 0
M  V30 1491 H 138.809 4.04712 -5.04794 0
M  V30 1492 N 138.941 1.26152 0.944643 0
M  V30 1493 C 140.166 1.14363 1.7302 0
M  V30 1494 C 140.591 -0.29772 1.85729 0
M  V30 1495 O 139.949 -1.2157 1.34501 0
M  V30 1496 C 139.997 1.81378 3.11664 0
M  V30 1497 O 139.101 1.10022 3.97453 0
M  V30 1498 H 138.442 0.398694 0.53098 0
M  V30 1499 H 140.972 1.66906 1.18337 0
M  V30 1500 H 140.982 1.88064 3.62072 0
M  V30 1501 H 139.657 2.86237 3.0173 0
M  V30 1502 H 138.234 1.11287 3.55907 0
M  V30 1503 N 140.419 -1.14872 1.07899 0
M  V30 1504 C 141.659 -1.8745 0.814965 0
M  V30 1505 C 142.023 -1.80758 -0.64733 0
M  V30 1506 O 143.224 -2.48422 -1.02664 0
M  V30 1507 C 141.495 -3.32286 1.31607 0
M  V30 1508 S 143.054 -4.22537 1.18357 0
M  V30 1509 H 139.872 -0.646833 0.295174 0
M  V30 1510 H 142.474 -1.38555 1.37923 0
M  V30 1511 H 141.178 -3.34703 2.37491 0
M  V30 1512 H 140.709 -3.86238 0.747261 0
M  V30 1513 H 142.724 -4.96044 0.124586 0
M  V30 1514 N 141.898 -0.863906 -1.31812 0
M  V30 1515 C 143.175 -0.39275 -1.91616 0
M  V30 1516 C 143.555 1.12461 -1.7865 0
M  V30 1517 O 142.903 1.95045 -1.19037 0
M  V30 1518 C 143.113 -0.867385 -3.38049 0
M  V30 1519 C 144.461 -0.889966 -4.15168 0
M  V30 1520 O 145.485 -0.812635 -3.46806 0
M  V30 1521 O 144.344 -1.00079 -5.37258 0
M  V30 1522 H 141.438 -0.116358 -0.818773 0
M  V30 1523 H 143.984 -0.951418 -1.40521 0
M  V30 1524 H 142.756 -1.91081 -3.41473 0
M  V30 1525 H 142.379 -0.286687 -3.96565 0
M  V30 1526 N 143.376 1.44774 -0.622745 0
M  V30 1527 C 144.323 2.30635 0.0871679 0
M  V30 1528 C 145.293 1.42994 0.845097 0
M  V30 1529 O 146.478 1.71907 0.827812 0
M  V30 1530 C 143.618 3.28144 1.06844 0
M  V30 1531 C 142.731 4.30888 0.309809 0
M  V30 1532 C 141.866 5.15494 1.28215 0
M  V30 1533 C 140.905 6.09953 0.512198 0
M  V30 1534 N 140.042 6.87287 1.43458 0
M  V30 1535 H 144.882 2.90803 -0.650974 0
M  V30 1536 H 142.419 1.43286 -0.33281 0
M  V30 1537 H 144.377 3.83157 1.65066 0
M  V30 1538 H 143.007 2.69695 1.77382 0
M  V30 1539 H 142.059 3.78414 -0.388181 0
M  V30 1540 H 143.371 4.97955 -0.290254 0
M  V30 1541 H 142.525 5.74983 1.93596 0
M  V30 1542 H 141.264 4.48481 1.91614 0
M  V30 1543 H 140.269 5.49581 -0.155151 0
M  V30 1544 H 141.494 6.78999 -0.116958 0
M  V30 1545 H 139.44 6.2295 2.05594 0
M  V30 1546 H 139.357 7.50763 0.888335 0
M  V30 1547 H 140.625 7.51306 2.07749 0
M  V30 1548 N 144.854 0.36279 1.53368 0
M  V30 1549 C 146.101 -0.227776 2.01215 0
M  V30 1550 C 146.429 -1.49003 1.25014 0
M  V30 1551 O 145.684 -1.92876 0.331236 0
M  V30 1552 C 145.983 -0.568417 3.52851 0
M  V30 1553 C 145.649 0.59918 4.46901 0
M  V30 1554 C 144.311 0.919559 4.72332 0
M  V30 1555 C 146.663 1.38156 5.02556 0
M  V30 1556 C 143.991 2.02434 5.5067 0
M  V30 1557 C 146.343 2.47674 5.821 0
M  V30 1558 C 145.007 2.8025 6.05819 0
M  V30 1559 H 144.277 -0.083349 0.736297 0
M  V30 1560 H 146.924 0.494677 1.85001 0
M  V30 1561 H 145.229 -1.37185 3.66998 0
M  V30 1562 H 146.926 -1.03756 3.87344 0
M  V30 1563 H 143.516 0.339437 4.27254 0
M  V30 1564 H 147.7 1.14729 4.82857 0
M  V30 1565 H 142.956 2.28075 5.67267 0
M  V30 1566 H 147.13 3.08716 6.24234 0
M  V30 1567 H 144.757 3.65979 6.66306 0
M  V30 1568 N 146.332 -1.57332 0.0918853 0
M  V30 1569 C 147.262 -2.16872 -0.865371 0
M  V30 1570 C 148.243 -1.10118 -1.29646 0
M  V30 1571 O 149.428 -1.38242 -1.36392 0
M  V30 1572 C 146.558 -2.74649 -2.12569 0
M  V30 1573 C 145.512 -3.86747 -1.83333 0
M  V30 1574 C 144.838 -4.31212 -3.16166 0
M  V30 1575 C 146.138 -5.10089 -1.1228 0
M  V30 1576 H 147.832 -2.97114 -0.369307 0
M  V30 1577 H 145.378 -1.42918 -0.176194 0
M  V30 1578 H 147.331 -3.14952 -2.7997 0
M  V30 1579 H 146.055 -1.91657 -2.64452 0
M  V30 1580 H 144.714 -3.46978 -1.18331 0
M  V30 1581 H 144.362 -3.45115 -3.6593 0
M  V30 1582 H 144.062 -5.06788 -2.97388 0
M  V30 1583 H 145.586 -4.74146 -3.84731 0
M  V30 1584 H 147 -5.47582 -1.69785 0
M  V30 1585 H 145.397 -5.91073 -1.03693 0
M  V30 1586 H 146.467 -4.84786 -0.105041 0
M  V30 1587 N 147.81 0.181792 -1.56548 0
M  V30 1588 C 149.087 0.926765 -1.72251 0
M  V30 1589 C 149.467 2.00831 -0.650386 0
M  V30 1590 O 148.815 2.26008 0.336521 0
M  V30 1591 C 149.025 1.50106 -3.1507 0
M  V30 1592 C 150.373 1.97805 -3.75711 0
M  V30 1593 O 151.397 1.59922 -3.18282 0
M  V30 1594 O 150.256 2.67555 -4.76525 0
M  V30 1595 H 147.35 0.435506 -0.703039 0
M  V30 1596 H 149.896 0.170443 -1.68842 0
M  V30 1597 H 148.668 0.72212 -3.84579 0
M  V30 1598 H 148.291 2.32186 -3.22763 0
M  V30 1599 N 149.288 1.51039 0.449983 0
M  V30 1600 C 150.565 1.53612 1.21089 0
M  V30 1601 C 150.945 0.292997 2.09057 0
M  V30 1602 O 150.293 -0.72259 2.16774 0
M  V30 1603 C 150.503 2.84337 2.0237 0
M  V30 1604 C 151.851 3.35807 2.59843 0
M  V30 1605 O 152.875 2.85802 2.12593 0
M  V30 1606 O 151.734 4.23029 3.45989 0
M  V30 1607 H 148.828 0.617057 0.550608 0
M  V30 1608 H 151.374 1.63344 0.460082 0
M  V30 1609 H 150.146 3.66278 1.37681 0
M  V30 1610 H 149.769 2.77708 2.84542 0
M  V30 1611 N 150.766 -0.704594 1.40972 0
M  V30 1612 C 152.043 -1.45847 1.30338 0
M  V30 1613 C 152.423 -2.10973 -0.0732344 0
M  V30 1614 O 151.771 -2.00997 -1.08685 0
M  V30 1615 C 151.981 -2.48525 2.45023 0
M  V30 1616 C 153.329 -3.1404 2.8577 0
M  V30 1617 O 154.353 -2.58848 2.44696 0
M  V30 1618 O 153.212 -4.13981 3.56766 0
M  V30 1619 H 150.306 -0.649092 0.512454 0
M  V30 1620 H 152.852 -0.735836 1.52917 0
M  V30 1621 H 151.624 -1.98994 3.36923 0
M  V30 1622 H 151.247 -3.2831 2.24272 0
M  V30 1623 N 152.244 -1.26651 -0.937939 0
M  V30 1624 C 153.493 -1.11775 -1.67897 0
M  V30 1625 C 153.806 0.33794 -1.92659 0
M  V30 1626 O 155.012 0.607434 -2.64618 0
M  V30 1627 C 153.468 -1.9523 -3.02346 0
M  V30 1628 C 153.076 -3.45393 -2.8532 0
M  V30 1629 C 154.82 -1.88972 -3.80118 0
M  V30 1630 C 152.727 -4.21083 -4.15263 0
M  V30 1631 H 151.657 -0.414696 -0.629717 0
M  V30 1632 H 154.308 -1.50988 -1.04283 0
M  V30 1633 H 152.69 -1.48853 -3.66959 0
M  V30 1634 H 153.864 -3.99561 -2.29537 0
M  V30 1635 H 152.179 -3.52921 -2.20988 0
M  V30 1636 H 154.776 -2.42805 -4.76392 0
M  V30 1637 H 155.119 -0.86113 -4.07296 0
M  V30 1638 H 155.652 -2.33189 -3.22285 0
M  V30 1639 H 152.391 -5.24425 -3.93267 0
M  V30 1640 H 151.911 -3.71695 -4.70747 0
M  V30 1641 H 153.59 -4.29706 -4.83696 0
M  V30 1642 N 153.722 1.14298 -1.08507 0
M  V30 1643 C 154.95 1.89219 -0.836876 0
M  V30 1644 C 155.365 1.78638 0.611054 0
M  V30 1645 O 154.722 1.14643 1.41998 0
M  V30 1646 C 154.773 3.39158 -1.25116 0
M  V30 1647 O 154.494 3.49449 -2.64229 0
M  V30 1648 C 155.995 4.31073 -1.03398 0
M  V30 1649 H 153.215 0.599328 -0.301739 0
M  V30 1650 H 155.759 1.44746 -1.44461 0
M  V30 1651 H 153.914 3.81251 -0.687514 0
M  V30 1652 H 154.328 4.42589 -2.81452 0
M  V30 1653 H 155.802 5.34646 -1.37323 0
M  V30 1654 H 156.279 4.3919 0.0289259 0
M  V30 1655 H 156.885 3.94738 -1.58311 0
M  V30 1656 N 155.201 0.870884 1.31352 0
M  V30 1657 C 156.478 0.402907 1.91405 0
M  V30 1658 C 156.858 -1.11512 1.79244 0
M  V30 1659 O 156.206 -1.94411 1.2007 0
M  V30 1660 C 156.416 0.885301 3.37585 0
M  V30 1661 C 157.764 0.911971 4.14691 0
M  V30 1662 O 158.788 0.831016 3.46371 0
M  V30 1663 O 157.647 1.02927 5.3672 0
M  V30 1664 H 154.741 0.120698 0.818145 0
M  V30 1665 H 157.287 0.958857 1.40014 0
M  V30 1666 H 156.059 1.92889 3.40455 0
M  V30 1667 H 155.682 0.307714 3.96407 0
M  V30 1668 N 156.679 -1.44442 0.630414 0
M  V30 1669 C 157.956 -1.9549 0.0655657 0
M  V30 1670 C 158.336 -1.5724 -1.40851 0
M  V30 1671 O 157.684 -0.846116 -2.12257 0
M  V30 1672 C 157.894 -3.47812 0.287691 0
M  V30 1673 C 159.242 -4.24216 0.180513 0
M  V30 1674 O 160.266 -3.55526 0.219019 0
M  V30 1675 O 159.125 -5.46434 0.0848493 0
M  V30 1676 H 156.219 -0.826688 -0.0227177 0
M  V30 1677 H 158.765 -1.54496 0.702068 0
M  V30 1678 H 157.537 -3.687 1.31056 0
M  V30 1679 H 157.16 -3.95751 -0.382984 0
M  V30 1680 N 158.157 -0.370918 -1.53173 0
M  V30 1681 C 159.406 0.218249 -2.00516 0
M  V30 1682 C 159.719 1.49429 -1.26215 0
M  V30 1683 O 160.925 2.16239 -1.64174 0
M  V30 1684 C 159.381 0.43948 -3.57207 0
M  V30 1685 C 158.989 -0.822244 -4.4039 0
M  V30 1686 C 160.733 0.986012 -4.1289 0
M  V30 1687 C 158.64 -0.570304 -5.88644 0
M  V30 1688 H 157.57 0.0853333 -0.749156 0
M  V30 1689 H 160.221 -0.490483 -1.76823 0
M  V30 1690 H 158.603 1.20961 -3.77074 0
M  V30 1691 H 159.777 -1.59557 -4.32294 0
M  V30 1692 H 158.092 -1.29238 -3.95836 0
M  V30 1693 H 160.689 1.18991 -5.21292 0
M  V30 1694 H 161.032 1.94972 -3.6782 0
M  V30 1695 H 161.565 0.27592 -3.96842 0
M  V30 1696 H 158.304 -1.50449 -6.38001 0
M  V30 1697 H 157.824 0.164427 -5.99575 0
M  V30 1698 H 159.503 -0.19784 -6.46697 0
M  V30 1699 N 159.635 1.57281 -0.100228 0
M  V30 1700 C 160.568 2.09976 0.893612 0
M  V30 1701 C 161.546 1.01155 1.27304 0
M  V30 1702 O 162.73 1.28687 1.37739 0
M  V30 1703 C 159.857 2.58098 2.19324 0
M  V30 1704 C 158.903 3.78626 1.96328 0
M  V30 1705 S 159.736 5.21959 1.19662 0
M  V30 1706 C 160.892 5.73435 2.50844 0
M  V30 1707 H 161.125 2.93946 0.44534 0
M  V30 1708 H 158.658 1.53985 0.113167 0
M  V30 1709 H 160.616 2.8648 2.94005 0
M  V30 1710 H 159.277 1.74344 2.61272 0
M  V30 1711 H 158.47 4.10382 2.92579 0
M  V30 1712 H 158.072 3.50763 1.29775 0
M  V30 1713 H 160.364 5.82015 3.46792 0
M  V30 1714 H 161.307 6.7185 2.23659 0
M  V30 1715 H 161.715 5.01395 2.59352 0
M  V30 1716 N 161.113 -0.173488 1.56642 0
M  V30 1717 C 162.353 -0.896984 1.83667 0
M  V30 1718 C 162.717 -1.79523 0.680842 0
M  V30 1719 O 163.918 -2.55616 0.831488 0
M  V30 1720 C 162.189 -1.67351 3.15798 0
M  V30 1721 S 163.748 -2.44607 3.64298 0
M  V30 1722 H 160.566 -0.300464 0.644393 0
M  V30 1723 H 163.168 -0.158775 1.94854 0
M  V30 1724 H 161.872 -1.00462 3.97914 0
M  V30 1725 H 161.403 -2.45313 3.07546 0
M  V30 1726 H 163.418 -3.69261 3.31452 0
M  V30 1727 N 162.591 -1.51276 -0.441967 0
M  V30 1728 C 163.554 -1.7167 -1.51862 0
M  V30 1729 C 164.554 -0.586793 -1.49711 0
M  V30 1730 O 165.744 -0.854276 -1.51815 0
M  V30 1731 C 162.876 -1.76889 -2.91416 0
M  V30 1732 H 164.069 -2.67754 -1.35084 0
M  V30 1733 H 161.622 -1.41196 -0.670333 0
M  V30 1734 H 162.357 -0.826026 -3.13604 0
M  V30 1735 H 162.142 -2.59001 -2.94382 0
M  V30 1736 H 163.632 -1.94522 -3.69528 0
M  V30 1737 N 164.069 0.697108 -1.41344 0
M  V30 1738 C 165.016 1.81106 -1.43071 0
M  V30 1739 C 165.986 1.63632 -0.285275 0
M  V30 1740 O 167.171 1.84504 -0.486091 0
M  V30 1741 C 164.311 3.18975 -1.31715 0
M  V30 1742 C 163.424 3.47892 -2.56115 0
M  V30 1743 C 162.559 4.75367 -2.37064 0
M  V30 1744 C 161.598 4.97247 -3.56948 0
M  V30 1745 N 160.735 6.15947 -3.36977 0
M  V30 1746 H 165.575 1.78965 -2.38276 0
M  V30 1747 H 163.112 0.873975 -1.18322 0
M  V30 1748 H 165.07 3.98615 -1.23133 0
M  V30 1749 H 163.7 3.20297 -0.401183 0
M  V30 1750 H 162.752 2.62669 -2.75153 0
M  V30 1751 H 164.064 3.59962 -3.45295 0
M  V30 1752 H 163.218 5.63059 -2.25941 0
M  V30 1753 H 161.957 4.65541 -1.45338 0
M  V30 1754 H 160.962 4.08004 -3.68527 0
M  V30 1755 H 162.187 5.08934 -4.49626 0
M  V30 1756 H 160.133 6.07336 -2.47949 0
M  V30 1757 H 160.05 6.28777 -4.19732 0
M  V30 1758 H 161.318 7.06377 -3.29623 0
M  V30 1759 N 165.547 1.27147 0.931209 0
M  V30 1760 C 166.494 1.09568 2.03134 0
M  V30 1761 C 167.464 -0.00222433 1.661 0
M  V30 1762 O 168.649 0.159439 1.90133 0
M  V30 1763 C 165.789 0.745231 3.36957 0
M  V30 1764 C 164.902 1.92041 3.86968 0
M  V30 1765 C 164.037 1.51216 5.09222 0
M  V30 1766 C 163.076 2.65504 5.5152 0
M  V30 1767 N 162.213 2.25291 6.64972 0
M  V30 1768 H 167.053 2.03708 2.17502 0
M  V30 1769 H 164.59 1.01411 1.06556 0
M  V30 1770 H 166.548 0.522878 4.1391 0
M  V30 1771 H 165.178 -0.159202 3.22407 0
M  V30 1772 H 164.23 2.25541 3.06326 0
M  V30 1773 H 165.542 2.77787 4.1429 0
M  V30 1774 H 164.696 1.25084 5.93666 0
M  V30 1775 H 163.435 0.625749 4.83669 0
M  V30 1776 H 162.44 2.92354 4.65628 0
M  V30 1777 H 163.665 3.54761 5.7907 0
M  V30 1778 H 161.611 1.39098 6.41083 0
M  V30 1779 H 161.528 3.04577 6.91931 0
M  V30 1780 H 162.796 2.02398 7.52765 0
M  V30 1781 N 167.025 -1.13721 1.09112 0
M  V30 1782 C 168.274 -1.84275 0.82009 0
M  V30 1783 C 168.587 -1.84253 -0.656509 0
M  V30 1784 O 169.793 -2.50668 -1.04296 0
M  V30 1785 C 168.249 -3.30825 1.41714 0
M  V30 1786 C 167.857 -3.39244 2.92605 0
M  V30 1787 C 169.601 -4.06443 1.22492 0
M  V30 1788 C 167.508 -4.80047 3.45411 0
M  V30 1789 H 166.438 -0.690387 0.30312 0
M  V30 1790 H 169.089 -1.28146 1.31343 0
M  V30 1791 H 167.471 -3.86737 0.851498 0
M  V30 1792 H 168.645 -2.93344 3.55367 0
M  V30 1793 H 166.96 -2.77088 3.10823 0
M  V30 1794 H 169.557 -5.10387 1.59402 0
M  V30 1795 H 169.9 -4.15972 0.165299 0
M  V30 1796 H 170.433 -3.56852 1.75788 0
M  V30 1797 H 167.172 -4.75709 4.50978 0
M  V30 1798 H 166.692 -5.26455 2.87411 0
M  V30 1799 H 168.371 -5.48957 3.42425 0
M  V30 1800 N 168.503 -0.877838 -1.30888 0
M  V30 1801 C 169.433 -0.35534 -2.3078 0
M  V30 1802 C 170.414 0.557994 -1.60687 0
M  V30 1803 O 171.599 0.473355 -1.88343 0
M  V30 1804 C 168.729 0.437221 -3.44537 0
M  V30 1805 C 167.683 -0.383715 -4.26276 0
M  V30 1806 C 167.009 0.535014 -5.32017 0
M  V30 1807 C 168.309 -1.62201 -4.96476 0
M  V30 1808 H 170.003 -1.19007 -2.74732 0
M  V30 1809 H 167.549 -0.573698 -1.32078 0
M  V30 1810 H 169.502 0.813334 -4.13477 0
M  V30 1811 H 168.226 1.30553 -2.99372 0
M  V30 1812 H 166.885 -0.741874 -3.59015 0
M  V30 1813 H 166.533 1.40083 -4.831 0
M  V30 1814 H 166.233 -0.0104211 -5.87599 0
M  V30 1815 H 167.757 0.907799 -6.03814 0
M  V30 1816 H 169.171 -1.31689 -5.5797 0
M  V30 1817 H 167.568 -2.10711 -5.61891 0
M  V30 1818 H 168.638 -2.37044 -4.23011 0
M  V30 1819 N 169.982 1.44106 -0.638065 0
M  V30 1820 C 171.259 1.95453 -0.0759321 0
M  V30 1821 C 171.639 1.57984 1.40015 0
M  V30 1822 O 170.987 0.857361 2.11806 0
M  V30 1823 C 171.197 3.47655 -0.306132 0
M  V30 1824 C 172.545 4.24114 -0.203008 0
M  V30 1825 O 173.569 3.55405 -0.237871 0
M  V30 1826 O 172.428 5.46381 -0.113827 0
M  V30 1827 H 169.522 0.826797 0.0183332 0
M  V30 1828 H 172.068 1.54122 -0.710251 0
M  V30 1829 H 170.84 3.68 -1.3301 0
M  V30 1830 H 170.463 3.95949 0.361991 0
M  V30 1831 N 171.46 0.379036 1.52974 0
M  V30 1832 C 172.709 -0.207612 2.00629 0
M  V30 1833 C 173.022 -1.48758 1.27006 0
M  V30 1834 O 174.228 -2.15365 1.65318 0
M  V30 1835 C 172.684 -0.42053 3.57435 0
M  V30 1836 C 172.292 0.845587 4.39948 0
M  V30 1837 C 174.036 -0.964102 4.13407 0
M  V30 1838 C 171.943 0.601513 5.88333 0
M  V30 1839 H 170.873 -0.0813591 0.749598 0
M  V30 1840 H 173.524 0.499853 1.76561 0
M  V30 1841 H 171.906 -1.18959 3.7771 0
M  V30 1842 H 173.08 1.61848 4.31442 0
M  V30 1843 H 171.395 1.31336 3.95145 0
M  V30 1844 H 173.992 -1.16225 5.21916 0
M  V30 1845 H 174.335 -1.93019 3.68849 0
M  V30 1846 H 174.868 -0.25487 3.96983 0
M  V30 1847 H 171.607 1.53831 6.37194 0
M  V30 1848 H 171.127 -0.132628 5.99653 0
M  V30 1849 H 172.806 0.232134 6.46583 0
M  V30 1850 N 172.938 -1.57226 0.108567 0
M  V30 1851 C 173.885 -2.14756 -0.845481 0
M  V30 1852 C 174.855 -1.06971 -1.27068 0
M  V30 1853 O 176.04 -1.34827 -1.35005 0
M  V30 1854 C 173.18 -2.74298 -2.09415 0
M  V30 1855 C 172.293 -3.96358 -1.71826 0
M  V30 1856 C 171.428 -4.44021 -2.9158 0
M  V30 1857 C 170.467 -5.58637 -2.50181 0
M  V30 1858 N 169.604 -6.01091 -3.62814 0
M  V30 1859 H 174.444 -2.95961 -0.348035 0
M  V30 1860 H 171.981 -1.46226 -0.160106 0
M  V30 1861 H 173.939 -3.06945 -2.82561 0
M  V30 1862 H 172.569 -1.95801 -2.56636 0
M  V30 1863 H 171.621 -3.69939 -0.885947 0
M  V30 1864 H 172.933 -4.79504 -1.37394 0
M  V30 1865 H 172.087 -4.78522 -3.72963 0
M  V30 1866 H 170.826 -3.59803 -3.29231 0
M  V30 1867 H 169.831 -5.23751 -1.67228 0
M  V30 1868 H 171.056 -6.44613 -2.13659 0
M  V30 1869 H 169.002 -5.19817 -4.00158 0
M  V30 1870 H 168.919 -6.79066 -3.32273 0
M  V30 1871 H 170.187 -6.40227 -4.44668 0
M  V30 1872 N 174.416 0.165178 -1.56732 0
M  V30 1873 C 175.664 0.879068 -1.8198 0
M  V30 1874 C 175.985 1.82514 -0.686561 0
M  V30 1875 O 175.255 1.93694 0.293146 0
M  V30 1876 H 173.835 0.327608 -0.671329 0
M  V30 1877 H 176.497 0.163526 -1.94213 0
M  V30 1878 H 175.593 1.45228 -2.76252 0
M  V30 1879 N 175.894 1.51508 0.433938 0
M  V30 1880 C 177.143 1.63578 1.18005 0
M  V30 1881 C 177.456 0.359514 1.92268 0
M  V30 1882 O 178.662 0.359632 2.69108 0
M  V30 1883 C 177.118 2.88901 2.14626 0
M  V30 1884 C 176.726 4.23544 1.45995 0
M  V30 1885 C 178.47 3.10328 2.89649 0
M  V30 1886 C 176.377 5.40014 2.4112 0
M  V30 1887 H 175.307 0.609277 0.444182 0
M  V30 1888 H 177.958 1.77978 0.446773 0
M  V30 1889 H 176.34 2.68142 2.91403 0
M  V30 1890 H 177.514 4.54696 0.747532 0
M  V30 1891 H 175.829 4.08021 0.831115 0
M  V30 1892 H 178.426 3.94518 3.60915 0
M  V30 1893 H 178.769 2.23544 3.51189 0
M  V30 1894 H 179.302 3.31443 2.19978 0
M  V30 1895 H 176.041 6.29068 1.84264 0
M  V30 1896 H 175.561 5.13233 3.10406 0
M  V30 1897 H 177.24 5.72099 3.02177 0
M  V30 1898 N 177.372 -0.689602 1.41712 0
M  V30 1899 C 178.649 -1.44457 1.31877 0
M  V30 1900 C 179.029 -2.11039 -0.0508537 0
M  V30 1901 O 178.377 -2.02138 -1.06547 0
M  V30 1902 C 178.587 -2.45913 2.47645 0
M  V30 1903 C 179.935 -3.10991 2.89084 0
M  V30 1904 O 180.959 -2.56238 2.47428 0
M  V30 1905 O 179.818 -4.10174 3.61137 0
M  V30 1906 H 176.912 -0.64362 0.519309 0
M  V30 1907 H 179.458 -0.719576 1.53689 0
M  V30 1908 H 178.23 -1.95409 3.39015 0
M  V30 1909 H 177.853 -3.25913 2.27742 0
M  V30 1910 N 178.85 -1.27639 -0.924453 0
M  V30 1911 C 180.08 -1.16819 -1.70402 0
M  V30 1912 C 180.488 0.277191 -1.87158 0
M  V30 1913 O 179.831 1.20025 -1.39067 0
M  V30 1914 C 179.893 -1.78305 -3.12166 0
M  V30 1915 C 179.557 -3.27502 -3.18734 0
M  V30 1916 C 180.554 -4.2409 -3.00738 0
M  V30 1917 C 178.239 -3.68269 -3.4159 0
M  V30 1918 C 180.233 -5.59422 -3.05492 0
M  V30 1919 C 177.92 -5.0373 -3.45977 0
M  V30 1920 C 178.918 -5.99116 -3.27946 0
M  V30 1921 O 178.606 -7.32108 -3.32074 0
M  V30 1922 H 178.338 -0.406931 -0.539799 0
M  V30 1923 H 180.892 -1.69078 -1.16626 0
M  V30 1924 H 179.122 -1.20528 -3.67437 0
M  V30 1925 H 180.811 -1.62154 -3.72103 0
M  V30 1926 H 181.577 -3.93931 -2.82919 0
M  V30 1927 H 177.456 -2.94496 -3.54673 0
M  V30 1928 H 181 -6.33852 -2.91337 0
M  V30 1929 H 176.897 -5.33543 -3.63321 0
M  V30 1930 H 177.665 -7.40598 -3.48507 0
M  V30 1931 N 180.328 1.1314 -1.09713 0
M  V30 1932 C 181.574 1.84967 -0.846104 0
M  V30 1933 C 181.929 1.82082 0.621601 0
M  V30 1934 O 181.222 1.2501 1.452 0
M  V30 1935 C 181.416 3.32167 -1.3191 0
M  V30 1936 C 181.245 3.49386 -2.83125 0
M  V30 1937 C 180.015 3.63456 -3.51038 0
M  V30 1938 C 182.213 3.45179 -3.81256 0
M  V30 1939 N 180.195 3.68966 -4.9065 0
M  V30 1940 C 181.566 3.57094 -5.06837 0
M  V30 1941 C 183.621 3.28598 -3.74069 0
M  V30 1942 C 182.324 3.5414 -6.26081 0
M  V30 1943 C 184.35 3.26953 -4.92804 0
M  V30 1944 C 183.712 3.39422 -6.17229 0
M  V30 1945 H 179.811 0.692899 -0.362512 0
M  V30 1946 H 182.395 1.35506 -1.39808 0
M  V30 1947 H 180.566 3.80186 -0.794535 0
M  V30 1948 H 182.298 3.91815 -1.01308 0
M  V30 1949 H 179.053 3.65256 -3.01471 0
M  V30 1950 H 179.477 3.75404 -5.63383 0
M  V30 1951 H 184.119 3.17858 -2.78794 0
M  V30 1952 H 181.837 3.63653 -7.21653 0
M  V30 1953 H 185.423 3.15316 -4.88945 0
M  V30 1954 H 184.303 3.38114 -7.07565 0
M  V30 1955 N 181.806 0.884767 1.30421 0
M  V30 1956 C 182.736 0.367574 2.30589 0
M  V30 1957 C 183.717 -0.549464 1.60981 0
M  V30 1958 O 184.902 -0.46336 1.88591 0
M  V30 1959 C 182.032 -0.418944 3.44764 0
M  V30 1960 C 180.986 0.406316 4.26067 0
M  V30 1961 C 180.312 -0.506793 5.32293 0
M  V30 1962 C 181.612 1.64832 4.95608 0
M  V30 1963 H 183.306 1.20462 2.74097 0
M  V30 1964 H 180.852 0.580695 1.31772 0
M  V30 1965 H 182.805 -0.791395 4.13902 0
M  V30 1966 H 181.529 -1.28964 3.0006 0
M  V30 1967 H 180.188 0.760903 3.58617 0
M  V30 1968 H 179.836 -1.37519 4.83836 0
M  V30 1969 H 179.536 0.0415828 5.87585 0
M  V30 1970 H 181.06 -0.875764 6.04287 0
M  V30 1971 H 182.474 1.34646 5.57264 0
M  V30 1972 H 180.871 2.13688 5.60765 0
M  V30 1973 H 181.941 2.39284 4.21748 0
M  V30 1974 N 183.284 -1.43765 0.645699 0
M  V30 1975 C 184.247 -2.29163 -0.0409488 0
M  V30 1976 C 185.247 -1.41813 -0.757996 0
M  V30 1977 O 186.437 -1.63527 -0.600382 0
M  V30 1978 C 183.569 -3.23716 -1.06869 0
M  V30 1979 H 184.762 -2.91366 0.710345 0
M  V30 1980 H 182.315 -1.5092 0.406547 0
M  V30 1981 H 183.05 -2.66393 -1.84947 0
M  V30 1982 H 182.835 -3.88105 -0.558277 0
M  V30 1983 H 184.325 -3.87831 -1.54845 0
M  V30 1984 N 184.763 -0.387143 -1.52771 0
M  V30 1985 C 185.713 0.465942 -2.23188 0
M  V30 1986 C 186.697 1.03138 -1.23496 0
M  V30 1987 O 187.889 0.957845 -1.48843 0
M  V30 1988 C 185.018 1.59384 -3.04059 0
M  V30 1989 C 184.104 1.04024 -4.11144 0
M  V30 1990 N 184.495 0.211416 -5.05358 0
M  V30 1991 C 182.793 1.31295 -4.26237 0
M  V30 1992 C 183.494 -0.0941698 -5.81624 0
M  V30 1993 N 182.47 0.509207 -5.4121 0
M  V30 1994 H 186.272 -0.173856 -2.93385 0
M  V30 1995 H 183.786 -0.19633 -1.61209 0
M  V30 1996 H 185.783 2.21738 -3.53041 0
M  V30 1997 H 184.443 2.23648 -2.35397 0
M  V30 1998 H 185.454 -0.151151 -5.17679 0
M  V30 1999 H 182.131 1.95679 -3.68803 0
M  V30 2000 H 183.521 -0.765572 -6.67524 0
M  V30 2001 N 186.241 1.57166 -0.116904 0
M  V30 2002 C 187.188 2.15202 0.83408 0
M  V30 2003 C 188.158 1.07644 1.26499 0
M  V30 2004 O 189.343 1.35541 1.34288 0
M  V30 2005 C 186.483 2.75405 2.07957 0
M  V30 2006 C 185.596 3.97264 1.69721 0
M  V30 2007 C 184.731 4.45561 2.89221 0
M  V30 2008 C 183.77 5.59956 2.47215 0
M  V30 2009 N 182.907 6.03006 3.59622 0
M  V30 2010 H 187.747 2.96141 0.332335 0
M  V30 2011 H 185.284 1.46309 0.152349 0
M  V30 2012 H 187.242 3.08439 2.80929 0
M  V30 2013 H 185.872 1.97159 2.55594 0
M  V30 2014 H 184.924 3.70404 0.866316 0
M  V30 2015 H 186.236 4.80226 1.34849 0
M  V30 2016 H 185.39 4.80493 3.7042 0
M  V30 2017 H 184.129 3.61544 3.27318 0
M  V30 2018 H 183.134 5.2463 1.64448 0
M  V30 2019 H 184.359 6.45738 2.10238 0
M  V30 2020 H 182.305 5.21931 3.97396 0
M  V30 2021 H 182.222 6.80819 3.28667 0
M  V30 2022 H 183.49 6.42576 4.41267 0
M  V30 2023 N 187.719 -0.156864 1.56817 0
M  V30 2024 C 188.682 -1.17781 1.96622 0
M  V30 2025 C 189.682 -1.36401 0.851555 0
M  V30 2026 O 190.872 -1.33561 1.11836 0
M  V30 2027 C 188.004 -2.54008 2.27361 0
M  V30 2028 H 189.197 -0.836564 2.87996 0
M  V30 2029 H 186.75 -0.39985 1.51099 0
M  V30 2030 H 187.485 -2.9312 1.38748 0
M  V30 2031 H 187.27 -2.41856 3.08623 0
M  V30 2032 H 188.76 -3.27558 2.59029 0
M  V30 2033 N 189.197 -1.51736 -0.425897 0
M  V30 2034 C 190.127 -1.76827 -1.52494 0
M  V30 2035 C 191.108 -0.618524 -1.58456 0
M  V30 2036 O 192.293 -0.862416 -1.74 0
M  V30 2037 C 189.423 -1.90374 -2.90474 0
M  V30 2038 C 188.377 -3.0588 -2.99369 0
M  V30 2039 C 187.703 -3.04625 -4.3944 0
M  V30 2040 C 189.003 -4.45644 -2.72394 0
M  V30 2041 H 190.697 -2.68855 -1.31748 0
M  V30 2042 H 188.243 -1.29372 -0.632362 0
M  V30 2043 H 190.196 -2.0651 -3.6733 0
M  V30 2044 H 188.92 -0.95004 -3.12477 0
M  V30 2045 H 187.579 -2.89467 -2.24954 0
M  V30 2046 H 187.227 -2.0701 -4.58428 0
M  V30 2047 H 186.927 -3.82195 -4.46319 0
M  V30 2048 H 188.451 -3.22869 -5.18255 0
M  V30 2049 H 189.865 -4.62348 -3.38979 0
M  V30 2050 H 188.262 -5.25006 -2.9067 0
M  V30 2051 H 189.332 -4.54893 -1.67929 0
M  V30 2052 N 190.675 0.682077 -1.42076 0
M  V30 2053 C 191.915 1.45424 -1.43636 0
M  V30 2054 C 192.279 1.91939 -0.0484001 0
M  V30 2055 O 193.48 2.6873 0.0612514 0
M  V30 2056 C 191.751 2.62427 -2.42625 0
M  V30 2057 S 193.31 3.51379 -2.62827 0
M  V30 2058 H 190.128 0.496779 -0.508657 0
M  V30 2059 H 192.73 0.794645 -1.78621 0
M  V30 2060 H 191.434 2.26481 -3.42249 0
M  V30 2061 H 190.965 3.33266 -2.09039 0
M  V30 2062 H 192.98 4.58141 -1.9058 0
M  V30 2063 N 192.153 1.28127 0.917671 0
M  V30 2064 C 193.381 1.17892 1.70026 0
M  V30 2065 C 193.796 -0.262958 1.8696 0
M  V30 2066 O 193.153 -1.17811 1.3938 0
M  V30 2067 C 193.204 1.86872 3.09453 0
M  V30 2068 O 192.925 3.25428 2.93306 0
M  V30 2069 C 194.426 1.8289 4.03815 0
M  V30 2070 H 191.646 0.40942 0.531617 0
M  V30 2071 H 194.19 1.69181 1.14883 0
M  V30 2072 H 192.345 1.39464 3.61426 0
M  V30 2073 H 192.759 3.59918 3.81523 0
M  V30 2074 H 194.233 2.35751 4.99125 0
M  V30 2075 H 194.71 0.800412 4.31845 0
M  V30 2076 H 195.316 2.29959 3.57769 0
M  V30 2077 N 193.631 -1.12557 1.10312 0
M  V30 2078 C 194.541 -2.21841 0.763142 0
M  V30 2079 C 195.557 -1.72354 -0.238801 0
M  V30 2080 O 196.733 -2.01249 -0.0778746 0
M  V30 2081 C 193.798 -3.46131 0.198632 0
M  V30 2082 C 192.859 -4.10464 1.25769 0
M  V30 2083 C 192.092 -5.28821 0.72002 0
M  V30 2084 O 192.315 -5.6859 -0.453993 0
M  V30 2085 O 191.249 -5.83437 1.47935 0
M  V30 2086 H 195.075 -2.53312 1.67532 0
M  V30 2087 H 192.66 -1.20867 0.878157 0
M  V30 2088 H 194.542 -4.2125 -0.112401 0
M  V30 2089 H 193.217 -3.16338 -0.686419 0
M  V30 2090 H 192.124 -3.3713 1.62156 0
M  V30 2091 H 193.457 -4.44408 2.11571 0
M  V30 2092 N 195.109 -0.891671 -1.2995 0
M  V30 2093 C 196.056 -0.361736 -2.27948 0
M  V30 2094 C 197.026 0.551761 -1.56668 0
M  V30 2095 O 198.211 0.478736 -1.84696 0
M  V30 2096 C 195.351 0.411825 -3.42634 0
M  V30 2097 C 194.464 -0.531651 -4.28716 0
M  V30 2098 C 193.599 0.258167 -5.30572 0
M  V30 2099 C 192.638 -0.680349 -6.08307 0
M  V30 2100 N 191.775 0.0745613 -7.0206 0
M  V30 2101 H 196.615 -1.20254 -2.72659 0
M  V30 2102 H 194.152 -0.604352 -1.34112 0
M  V30 2103 H 196.11 0.876304 -4.07893 0
M  V30 2104 H 194.74 1.21715 -2.98974 0
M  V30 2105 H 193.792 -1.11463 -3.63703 0
M  V30 2106 H 195.104 -1.25038 -4.82874 0
M  V30 2107 H 194.258 0.784204 -6.0161 0
M  V30 2108 H 192.997 1.01008 -4.77126 0
M  V30 2109 H 192.002 -1.21796 -5.3614 0
M  V30 2110 H 193.227 -1.43145 -6.63842 0
M  V30 2111 H 191.173 0.808883 -6.50994 0
M  V30 2112 H 191.09 -0.584409 -7.53738 0
M  V30 2113 H 192.358 0.581123 -7.77331 0
M  V30 2114 N 196.587 1.43421 -0.653314 0
M  V30 2115 C 197.517 2.33487 0.0246656 0
M  V30 2116 C 198.498 1.49475 0.811863 0
M  V30 2117 O 199.683 1.78139 0.773322 0
M  V30 2118 C 196.813 3.32841 0.99166 0
M  V30 2119 C 195.767 4.26842 0.314568 0
M  V30 2120 C 195.093 5.16236 1.39302 0
M  V30 2121 C 196.393 5.16243 -0.793095 0
M  V30 2122 H 198.087 2.90427 -0.727481 0
M  V30 2123 H 195.633 1.39649 -0.351287 0
M  V30 2124 H 197.586 3.94747 1.47487 0
M  V30 2125 H 196.31 2.74158 1.77497 0
M  V30 2126 H 194.969 3.663 -0.148199 0
M  V30 2127 H 194.617 4.53891 2.16776 0
M  V30 2128 H 194.317 5.79948 0.945223 0
M  V30 2129 H 195.841 5.81015 1.87759 0
M  V30 2130 H 197.255 5.71958 -0.392039 0
M  V30 2131 H 195.652 5.88676 -1.16536 0
M  V30 2132 H 196.722 4.55927 -1.65103 0
M  V30 2133 N 198.065 0.39524 1.52563 0
M  V30 2134 C 198.975 -0.444232 2.30356 0
M  V30 2135 C 199.991 -1.06615 1.37511 0
M  V30 2136 O 201.167 -1.07067 1.70583 0
M  V30 2137 C 198.232 -1.55315 3.09964 0
M  V30 2138 C 197.293 -0.955734 4.18526 0
M  V30 2139 C 196.526 -2.01181 4.9433 0
M  V30 2140 O 196.749 -3.22781 4.70285 0
M  V30 2141 O 195.683 -1.62579 5.79527 0
M  V30 2142 H 199.509 0.189667 3.03107 0
M  V30 2143 H 197.094 0.1588 1.48554 0
M  V30 2144 H 198.976 -2.19724 3.59582 0
M  V30 2145 H 197.651 -2.17191 2.4002 0
M  V30 2146 H 196.558 -0.274743 3.7309 0
M  V30 2147 H 197.891 -0.381109 4.90722 0
M  V30 2148 N 199.544 -1.57102 0.125237 0
M  V30 2149 C 200.476 -2.12726 -0.853237 0
M  V30 2150 C 201.489 -1.07145 -1.22571 0
M  V30 2151 O 202.678 -1.34497 -1.17358 0
M  V30 2152 C 199.778 -2.61709 -2.15317 0
M  V30 2153 C 198.951 -3.91456 -1.95143 0
M  V30 2154 C 198.01 -4.25973 -3.08923 0
M  V30 2155 O 197.036 -4.94682 -2.81564 0
M  V30 2156 N 198.238 -3.83795 -4.35524 0
M  V30 2157 H 201.003 -2.97307 -0.377964 0
M  V30 2158 H 198.564 -1.61792 -0.0590011 0
M  V30 2159 H 200.556 -2.81826 -2.90441 0
M  V30 2160 H 199.126 -1.81974 -2.54174 0
M  V30 2161 H 198.346 -3.80185 -1.04177 0
M  V30 2162 H 199.634 -4.76283 -1.78976 0
M  V30 2163 H 199.032 -3.2839 -4.60626 0
M  V30 2164 H 197.589 -4.09008 -5.07499 0
M  V30 2165 N 201.022 0.148545 -1.56898 0
M  V30 2166 C 202.268 0.857877 -1.84424 0
M  V30 2167 C 202.623 1.7886 -0.709006 0
M  V30 2168 O 201.916 1.89344 0.293139 0
M  V30 2169 C 202.11 1.67064 -3.1595 0
M  V30 2170 C 201.939 0.82011 -4.42159 0
M  V30 2171 C 200.709 0.486328 -5.02954 0
M  V30 2172 C 202.907 0.151155 -5.14078 0
M  V30 2173 N 200.889 -0.377956 -6.12735 0
M  V30 2174 C 202.26 -0.573333 -6.17343 0
M  V30 2175 C 204.315 0.0716685 -4.97848 0
M  V30 2176 C 203.018 -1.3698 -7.06137 0
M  V30 2177 C 205.044 -0.711532 -5.87104 0
M  V30 2178 C 204.406 -1.42431 -6.8985 0
M  V30 2179 H 200.505 0.291798 -0.725519 0
M  V30 2180 H 203.089 0.123347 -1.94309 0
M  V30 2181 H 201.26 2.37642 -3.07215 0
M  V30 2182 H 202.992 2.32302 -3.31388 0
M  V30 2183 H 199.747 0.821753 -4.66416 0
M  V30 2184 H 200.171 -0.801077 -6.72244 0
M  V30 2185 H 204.813 0.608381 -4.184 0
M  V30 2186 H 202.531 -1.91778 -7.85014 0
M  V30 2187 H 206.117 -0.775005 -5.76615 0
M  V30 2188 H 204.997 -2.02061 -7.57721 0
M  V30 2189 N 202.5 1.5196 0.417844 0
M  V30 2190 C 203.43 1.77634 1.51554 0
M  V30 2191 C 204.411 0.626918 1.58126 0
M  V30 2192 O 205.596 0.871632 1.7354 0
M  V30 2193 C 202.726 1.91911 2.8946 0
M  V30 2194 C 201.68 3.07463 2.97743 0
M  V30 2195 C 201.006 3.06951 4.37819 0
M  V30 2196 C 202.306 4.47082 2.70027 0
M  V30 2197 H 204 2.6955 1.3032 0
M  V30 2198 H 201.546 1.29706 0.625492 0
M  V30 2199 H 203.499 2.08455 3.6623 0
M  V30 2200 H 202.223 0.966598 3.11969 0
M  V30 2201 H 200.882 2.90656 2.23416 0
M  V30 2202 H 200.53 2.09438 4.57323 0
M  V30 2203 H 200.23 3.84556 4.44286 0
M  V30 2204 H 201.754 3.25613 5.16535 0
M  V30 2205 H 203.168 4.6414 3.36522 0
M  V30 2206 H 201.565 5.2654 2.87881 0
M  V30 2207 H 202.635 4.55777 1.65514 0
M  V30 2208 N 203.978 -0.674533 1.42435 0
M  V30 2209 C 205.218 -1.4466 1.44405 0
M  V30 2210 C 205.582 -1.91911 0.0585784 0
M  V30 2211 O 206.783 -2.68759 -0.0469991 0
M  V30 2212 C 205.054 -2.61136 2.44013 0
M  V30 2213 S 206.613 -3.49981 2.64687 0
M  V30 2214 H 203.431 -0.494074 0.511284 0
M  V30 2215 H 206.033 -0.785162 1.7904 0
M  V30 2216 H 204.737 -2.24662 3.43446 0
M  V30 2217 H 204.268 -3.32153 2.10803 0
M  V30 2218 H 206.283 -4.57124 1.93007 0
M  V30 2219 N 205.456 -1.28612 -0.910864 0
M  V30 2220 C 206.366 -1.14643 -2.0468 0
M  V30 2221 C 207.382 -0.0723121 -1.7385 0
M  V30 2222 O 208.558 -0.282178 -1.99413 0
M  V30 2223 C 205.623 -0.812561 -3.37044 0
M  V30 2224 C 204.684 -1.96935 -3.81465 0
M  V30 2225 C 203.917 -1.65131 -5.07511 0
M  V30 2226 O 204.14 -0.567013 -5.67575 0
M  V30 2227 O 203.074 -2.49585 -5.47714 0
M  V30 2228 H 206.9 -2.1001 -2.19384 0
M  V30 2229 H 204.485 -1.07958 -1.03274 0
M  V30 2230 H 206.367 -0.640441 -4.16505 0
M  V30 2231 H 205.042 0.111426 -3.23508 0
M  V30 2232 H 203.949 -2.19664 -3.02818 0
M  V30 2233 H 205.282 -2.87414 -3.99567 0
M  V30 2234 N 206.934 1.1197 -1.10907 0
M  V30 2235 C 207.881 2.17846 -0.762345 0
M  V30 2236 C 208.851 1.63995 0.263599 0
M  V30 2237 O 210.036 1.90273 0.141773 0
M  V30 2238 C 207.176 3.44487 -0.205651 0
M  V30 2239 C 206.289 4.12369 -1.28748 0
M  V30 2240 C 205.424 5.26674 -0.691919 0
M  V30 2241 C 204.463 5.86431 -1.75399 0
M  V30 2242 N 203.6 6.92142 -1.17833 0
M  V30 2243 H 208.44 2.46851 -1.6694 0
M  V30 2244 H 205.977 1.21188 -0.833776 0
M  V30 2245 H 207.935 4.16981 0.135037 0
M  V30 2246 H 206.565 3.15884 0.664613 0
M  V30 2247 H 205.617 3.38003 -1.74522 0
M  V30 2248 H 206.929 4.52844 -2.09125 0
M  V30 2249 H 206.083 6.05953 -0.300963 0
M  V30 2250 H 204.822 4.8749 0.143232 0
M  V30 2251 H 203.827 5.05835 -2.15432 0
M  V30 2252 H 205.052 6.27685 -2.59208 0
M  V30 2253 H 202.998 6.54985 -0.364725 0
M  V30 2254 H 202.915 7.31242 -1.91887 0
M  V30 2255 H 204.183 7.75237 -0.81408 0
M  V30 2256 N 208.412 0.89855 1.29475 0
M  V30 2257 C 209.342 0.39201 2.30186 0
M  V30 2258 C 210.323 -0.532359 1.61555 0
M  V30 2259 O 211.508 -0.443331 1.89072 0
M  V30 2260 C 208.638 -0.382353 3.45189 0
M  V30 2261 C 207.592 0.451483 4.25612 0
M  V30 2262 C 206.918 -0.450307 5.328 0
M  V30 2263 C 208.218 1.70079 4.93832 0
M  V30 2264 H 209.912 1.23362 2.72804 0
M  V30 2265 H 207.458 0.594638 1.31149 0
M  V30 2266 H 209.411 -0.747451 4.14718 0
M  V30 2267 H 208.135 -1.25774 3.01411 0
M  V30 2268 H 206.794 0.798897 3.57789 0
M  V30 2269 H 206.442 -1.32379 4.85268 0
M  V30 2270 H 206.142 0.103902 5.87508 0
M  V30 2271 H 207.666 -0.811623 6.05182 0
M  V30 2272 H 209.08 1.40549 5.55805 0
M  V30 2273 H 207.477 2.19623 5.58467 0
M  V30 2274 H 208.547 2.43744 4.19186 0
M  V30 2275 O 209.929 -1.40275 0.80033 0
M  V30 2276 H 210.62 -1.90048 0.374337 0
M  V30 END ATOM
M  V30 BEGIN BOND
M  V30 END BOND
M  V30 END CTAB
M  END
$$$$
