drugbank_target|P00746 Complement factor D (DB03058; DB04459)
 OpenBabel12092120013D

  0  0  0     0  0            999 V3000
M  V30 BEGIN CTAB
M  V30 COUNTS 3795 3835 0 0 0
M  V30 BEGIN ATOM
M  V30 1 H -0.908 1.98254 -0.117106 0
M  V30 2 N 0 1.576 0 0
M  V30 3 C 0.933 2.03868 1.02534 0
M  V30 4 C 1.911 0.928543 1.3348 0
M  V30 5 O 3.095 1.19667 1.45644 0
M  V30 6 C 0.222 2.43627 2.35294 0
M  V30 7 C -0.732 3.65373 2.2001 0
M  V30 8 S 0.101 5.13292 1.52614 0
M  V30 9 C 1.257 5.56322 2.86805 0
M  V30 10 H 1.49 2.90518 0.631377 0
M  V30 11 H -0.977 1.52953 0.210867 0
M  V30 12 H 0.981 2.67203 3.11629 0
M  V30 13 H -0.358 1.57376 2.7183 0
M  V30 14 H -1.165 3.90944 3.18086 0
M  V30 15 H -1.563 3.418 1.51819 0
M  V30 16 H 0.729 5.58782 3.83104 0
M  V30 17 H 1.672 6.56266 2.65933 0
M  V30 18 H 2.08 4.83886 2.90714 0
M  V30 19 N 1.4781 -0.272755 1.55222 0
M  V30 20 C 2.4281 -1.33946 1.84506 0
M  V30 21 C 3.4121 -1.44682 0.70399 0
M  V30 22 O 4.6041 -1.48358 0.965338 0
M  V30 23 C 1.7331 -2.69968 2.12067 0
M  V30 24 C 0.8191 -2.63341 3.32434 0
M  V30 25 N 1.2101 -2.26335 4.52334 0
M  V30 26 C -0.4919 -2.94402 3.35028 0
M  V30 27 C 0.2091 -2.29705 5.34425 0
M  V30 28 N -0.8149 -2.68188 4.72838 0
M  V30 29 H 2.9871 -1.04343 2.74754 0
M  V30 30 H 0.5011 -0.481389 1.55101 0
M  V30 31 H 2.4981 -3.46916 2.31202 0
M  V30 32 H 1.1581 -3.00459 1.23103 0
M  V30 33 H 2.1691 -1.98309 4.78429 0
M  V30 34 H -1.1539 -3.29603 2.56257 0
M  V30 35 H 0.2361 -2.03653 6.40293 0
M  V30 36 N 2.9562 -1.48159 -0.537278 0
M  V30 37 C 4.1812 -1.59707 -1.32319 0
M  V30 38 C 4.6062 -0.254859 -1.86365 0
M  V30 39 O 3.9642 0.772378 -1.64024 0
M  V30 40 C 4.0122 -2.6412 -2.45505 0
M  V30 41 O 3.1162 -2.20774 -3.48328 0
M  V30 42 H 2.4572 -0.535791 -0.392204 0
M  V30 43 H 4.9872 -1.94092 -0.647268 0
M  V30 44 H 4.9972 -2.85166 -2.91795 0
M  V30 45 H 3.6722 -3.61567 -2.05528 0
M  V30 46 H 2.2492 -2.09911 -3.08207 0
M  V30 47 N 4.4343 0.785586 -1.36625 0
M  V30 48 C 5.6803 1.5452 -1.32269 0
M  V30 49 C 6.0353 1.92159 0.0962266 0
M  V30 50 O 5.3283 1.60158 1.05167 0
M  V30 51 C 5.5223 2.83007 -2.1827 0
M  V30 52 C 5.3513 2.57925 -3.68382 0
M  V30 53 C 4.1213 2.52752 -4.37544 0
M  V30 54 C 6.3193 2.26861 -4.61561 0
M  V30 55 N 4.3013 2.19608 -5.73276 0
M  V30 56 C 5.6723 2.03738 -5.85569 0
M  V30 57 C 7.7273 2.129 -4.50087 0
M  V30 58 C 6.4303 1.68065 -6.9939 0
M  V30 59 C 8.4563 1.78626 -5.63779 0
M  V30 60 C 7.8183 1.56353 -6.86828 0
M  V30 61 H 3.9173 0.566301 -0.539283 0
M  V30 62 H 6.5013 0.917736 -1.71714 0
M  V30 63 H 4.6723 3.43614 -1.81063 0
M  V30 64 H 6.4043 3.48775 -2.05275 0
M  V30 65 H 3.1593 2.6813 -3.90389 0
M  V30 66 H 3.5833 2.05771 -6.44971 0
M  V30 67 H 8.2253 2.28808 -3.55537 0
M  V30 68 H 5.9433 1.50895 -7.93887 0
M  V30 69 H 9.5293 1.68502 -5.56865 0
M  V30 70 H 8.4093 1.30223 -7.73312 0
M  V30 71 N 5.9124 1.20967 1.01018 0
M  V30 72 C 6.8224 0.980157 2.13143 0
M  V30 73 C 7.8384 -0.0660665 1.73875 0
M  V30 74 O 9.0144 0.122821 2.01025 0
M  V30 75 C 6.0794 0.54216 3.42435 0
M  V30 76 C 5.1404 1.65999 3.95908 0
M  V30 77 C 4.3734 1.2428 5.19028 0
M  V30 78 O 4.5964 0.114196 5.70286 0
M  V30 79 O 3.5304 2.05271 5.65816 0
M  V30 80 H 7.3564 1.91913 2.35379 0
M  V30 81 H 4.9414 0.994099 1.11526 0
M  V30 82 H 6.8234 0.30744 4.20277 0
M  V30 83 H 5.4984 -0.36815 3.216 0
M  V30 84 H 4.4054 1.94906 3.19316 0
M  V30 85 H 5.7384 2.54753 4.21143 0
M  V30 86 N 7.3905 -1.2043 1.01659 0
M  V30 87 C 8.8065 -1.41852 0.731442 0
M  V30 88 C 9.0065 -1.89358 -0.688898 0
M  V30 89 O 8.0625 -2.06247 -1.45666 0
M  V30 90 C 9.3755 -2.44019 1.75714 0
M  V30 91 C 10.9235 -2.57785 1.77527 0
M  V30 92 C 11.3985 -3.63194 2.79023 0
M  V30 93 N 12.8895 -3.70678 2.77763 0
M  V30 94 C 13.6245 -4.51897 3.52954 0
M  V30 95 N 13.1205 -5.36921 4.37821 0
M  V30 96 N 14.9135 -4.4643 3.41551 0
M  V30 97 H 7.0645 -0.879093 1.93354 0
M  V30 98 H 9.3275 -0.448425 0.835236 0
M  V30 99 H 9.0335 -2.1611 2.77469 0
M  V30 100 H 8.9075 -3.43007 1.56927 0
M  V30 101 H 11.2945 -2.85023 0.764569 0
M  V30 102 H 11.3755 -1.58992 2.00387 0
M  V30 103 H 11.0195 -3.36699 3.80258 0
M  V30 104 H 10.9495 -4.61609 2.53425 0
M  V30 105 H 13.4405 -3.09944 2.16201 0
M  V30 106 H 13.7535 -5.95981 4.91962 0
M  V30 107 H 12.0985 -5.36424 4.41899 0
M  V30 108 H 15.2895 -3.79042 2.74672 0
M  V30 109 H 15.4625 -5.09491 4.00404 0
M  V30 110 N 8.8686 -0.792821 -1.36206 0
M  V30 111 C 9.7986 -0.207853 -2.32573 0
M  V30 112 C 10.7796 0.659055 -1.56813 0
M  V30 113 O 11.9646 0.592176 -1.84951 0
M  V30 114 C 9.0946 0.655449 -3.41059 0
M  V30 115 C 8.0486 -0.111842 -4.27854 0
M  V30 116 C 7.3746 0.872274 -5.27537 0
M  V30 117 C 8.6746 -1.30299 -5.05786 0
M  V30 118 H 10.3686 -1.01294 -2.81744 0
M  V30 119 H 7.9146 -0.48854 -1.3546 0
M  V30 120 H 9.8676 1.07464 -4.07467 0
M  V30 121 H 8.5916 1.49328 -2.90463 0
M  V30 122 H 7.2506 -0.512053 -3.63006 0
M  V30 123 H 6.8986 1.70523 -4.73214 0
M  V30 124 H 6.5986 0.363291 -5.86476 0
M  V30 125 H 8.1226 1.28996 -5.96818 0
M  V30 126 H 9.5366 -0.959379 -5.65216 0
M  V30 127 H 7.9336 -1.7455 -5.74154 0
M  V30 128 H 9.0036 -2.09663 -4.37229 0
M  V30 129 N 10.3467 1.47872 -0.545128 0
M  V30 130 C 11.3097 2.28337 0.198717 0
M  V30 131 C 12.3097 1.36255 0.853888 0
M  V30 132 O 13.4997 1.59003 0.711606 0
M  V30 133 C 10.6317 3.15585 1.28915 0
M  V30 134 H 11.8247 2.95567 -0.507941 0
M  V30 135 H 9.3777 1.53362 -0.301616 0
M  V30 136 H 10.1127 2.53019 2.02859 0
M  V30 137 H 9.8977 3.83337 0.824309 0
M  V30 138 H 11.3877 3.76243 1.81194 0
M  V30 139 N 11.8248 0.280983 1.55075 0
M  V30 140 C 13.0708 -0.33461 2.00021 0
M  V30 141 C 13.4038 -1.55063 1.16915 0
M  V30 142 O 12.6788 -1.93006 0.240646 0
M  V30 143 C 12.9618 -0.711007 3.53011 0
M  V30 144 C 12.8148 0.512766 4.46868 0
M  V30 145 C 14.1338 -1.54522 4.12081 0
M  V30 146 H 11.2528 -0.120147 0.727141 0
M  V30 147 H 13.8948 0.389097 1.85973 0
M  V30 148 H 12.0448 -1.32761 3.65112 0
M  V30 149 H 13.7168 1.15131 4.46702 0
M  V30 150 H 11.9598 1.14975 4.18286 0
M  V30 151 H 12.6308 0.205556 5.51617 0
M  V30 152 H 15.1068 -1.02442 4.03293 0
M  V30 153 H 13.9828 -1.77739 5.19327 0
M  V30 154 H 14.2438 -2.52813 3.62682 0
M  V30 155 N 13.3029 -1.57598 0.00835791 0
M  V30 156 C 14.2329 -2.1198 -0.979113 0
M  V30 157 C 15.2139 -1.03091 -1.35301 0
M  V30 158 O 16.3989 -1.30818 -1.43528 0
M  V30 159 C 13.5289 -2.62995 -2.26828 0
M  V30 160 C 12.4829 -3.76485 -2.03576 0
M  V30 161 C 11.8089 -4.13846 -3.38579 0
M  V30 162 C 13.1089 -5.0342 -1.39161 0
M  V30 163 H 14.8029 -2.94738 -0.526281 0
M  V30 164 H 12.3489 -1.41783 -0.251704 0
M  V30 165 H 14.3019 -2.99669 -2.96271 0
M  V30 166 H 13.0259 -1.7737 -2.7424 0
M  V30 167 H 11.6849 -3.40217 -1.36557 0
M  V30 168 H 11.3329 -3.25232 -3.83709 0
M  V30 169 H 11.0329 -4.90312 -3.23834 0
M  V30 170 H 12.5569 -4.53086 -4.09323 0
M  V30 171 H 13.9709 -5.37812 -1.98573 0
M  V30 172 H 12.3679 -5.84746 -1.34878 0
M  V30 173 H 13.4379 -4.83548 -0.361868 0
M  V30 174 N 14.781 0.264519 -1.55364 0
M  V30 175 C 16.027 0.99646 -1.76631 0
M  V30 176 C 16.36 1.85632 -0.570478 0
M  V30 177 O 15.635 1.89647 0.43175 0
M  V30 178 C 15.918 1.87187 -3.07625 0
M  V30 179 C 15.771 1.04138 -4.37579 0
M  V30 180 C 17.09 2.85749 -3.34717 0
M  V30 181 H 14.209 0.360841 -0.642622 0
M  V30 182 H 16.851 0.268218 -1.88097 0
M  V30 183 H 15.001 2.49279 -2.9798 0
M  V30 184 H 16.673 0.440517 -4.59192 0
M  V30 185 H 14.916 0.345115 -4.32425 0
M  V30 186 H 15.587 1.68729 -5.2558 0
M  V30 187 H 18.063 2.33793 -3.4421 0
M  V30 188 H 16.939 3.44136 -4.27623 0
M  V30 189 H 17.2 3.61311 -2.54768 0
M  V30 190 N 16.2591 1.48442 0.529413 0
M  V30 191 C 17.1891 1.65902 1.64313 0
M  V30 192 C 18.1701 0.507897 1.6234 0
M  V30 193 O 19.3551 0.740503 1.79528 0
M  V30 194 C 16.4851 1.69911 3.02898 0
M  V30 195 C 15.4391 2.8453 3.19729 0
M  V30 196 C 14.7651 2.73629 4.59381 0
M  V30 197 C 16.0651 4.25821 3.02447 0
M  V30 198 H 17.7591 2.5914 1.49955 0
M  V30 199 H 15.3051 1.24709 0.719982 0
M  V30 200 H 17.2581 1.80715 3.80684 0
M  V30 201 H 15.9821 0.732524 3.18279 0
M  V30 202 H 14.6411 2.73283 2.44361 0
M  V30 203 H 14.2891 1.74938 4.71599 0
M  V30 204 H 13.9891 3.50541 4.71588 0
M  V30 205 H 15.5131 2.86401 5.39265 0
M  V30 206 H 16.9271 4.37898 3.70024 0
M  V30 207 H 15.3241 5.03735 3.26146 0
M  V30 208 H 16.3941 4.42244 1.98867 0
M  V30 209 N 17.7372 -0.778329 1.37039 0
M  V30 210 C 18.6672 -1.90546 1.34962 0
M  V30 211 C 19.6482 -1.68681 0.219274 0
M  V30 212 O 20.8332 -1.89634 0.418624 0
M  V30 213 C 17.9632 -3.27734 1.14925 0
M  V30 214 C 16.9172 -3.64147 2.24902 0
M  V30 215 C 16.2432 -4.99806 1.89996 0
M  V30 216 C 17.5432 -3.71579 3.67051 0
M  V30 217 H 19.2372 -1.92541 2.29277 0
M  V30 218 H 16.7832 -0.924948 1.10366 0
M  V30 219 H 18.7362 -4.06215 1.12104 0
M  V30 220 H 17.4602 -3.26154 0.170631 0
M  V30 221 H 16.1192 -2.8797 2.26868 0
M  V30 222 H 15.7672 -4.94759 0.906796 0
M  V30 223 H 15.4672 -5.25139 2.63634 0
M  V30 224 H 16.9912 -5.80694 1.88749 0
M  V30 225 H 18.4052 -4.40227 3.67251 0
M  V30 226 H 16.8022 -4.08405 4.39688 0
M  V30 227 H 17.8722 -2.72404 4.01154 0
M  V30 228 N 19.2153 -1.21501 -1.00376 0
M  V30 229 C 20.4633 -1.03095 -1.73827 0
M  V30 230 C 20.7843 0.436341 -1.90055 0
M  V30 231 O 20.0543 1.31466 -1.45236 0
M  V30 232 H 18.6343 -0.378487 -0.644016 0
M  V30 233 H 21.2963 -1.52831 -1.20949 0
M  V30 234 H 20.3923 -1.49991 -2.73695 0
M  V30 235 N 20.6934 1.19889 -1.02296 0
M  V30 236 C 21.6564 2.21116 -0.603351 0
M  V30 237 C 22.6564 1.5738 0.329884 0
M  V30 238 O 23.8464 1.73802 0.117702 0
M  V30 239 C 20.9784 3.40696 0.117992 0
M  V30 240 H 22.1714 2.59754 -1.49893 0
M  V30 241 H 19.7244 1.33463 -0.813468 0
M  V30 242 H 20.4594 3.07569 1.0282 0
M  V30 243 H 20.2444 3.88188 -0.552511 0
M  V30 244 H 21.7344 4.15692 0.398696 0
M  V30 245 N 22.1715 0.800033 1.35784 0
M  V30 246 C 23.1345 0.211565 2.28221 0
M  V30 247 C 24.1345 -0.59728 1.49296 0
M  V30 248 O 25.3245 -0.416721 1.69142 0
M  V30 249 C 22.4565 -0.705846 3.33513 0
M  V30 250 H 23.6495 1.02677 2.81776 0
M  V30 251 H 21.2025 0.570211 1.45528 0
M  V30 252 H 21.9375 -1.54498 2.85133 0
M  V30 253 H 21.7225 -0.127655 3.91892 0
M  V30 254 H 23.2125 -1.11211 4.02519 0
M  V30 255 N 23.6496 -1.47581 0.552962 0
M  V30 256 C 24.6126 -2.28439 -0.186605 0
M  V30 257 C 25.6126 -1.36706 -0.84665 0
M  V30 258 O 26.8026 -1.59378 -0.703164 0
M  V30 259 C 23.9346 -3.16264 -1.2724 0
M  V30 260 H 25.1276 -2.95294 0.523609 0
M  V30 261 H 22.6806 -1.532 0.309745 0
M  V30 262 H 23.4156 -2.54091 -2.01514 0
M  V30 263 H 23.2006 -3.83769 -0.803968 0
M  V30 264 H 24.6906 -3.77198 -1.79196 0
M  V30 265 N 25.1277 -0.289203 -1.54924 0
M  V30 266 C 26.3677 0.324536 -2.01807 0
M  V30 267 C 26.7317 1.5199 -1.17316 0
M  V30 268 O 27.9327 2.20422 -1.53843 0
M  V30 269 C 26.2037 0.683578 -3.50802 0
M  V30 270 S 27.7627 1.28185 -4.19659 0
M  V30 271 H 24.5807 0.100236 -0.703899 0
M  V30 272 H 27.1827 -0.414325 -1.91059 0
M  V30 273 H 25.8867 -0.195073 -4.09936 0
M  V30 274 H 25.4177 1.45354 -3.65562 0
M  V30 275 H 27.4327 2.57006 -4.24456 0
M  V30 276 N 26.6058 1.57591 -0.0167156 0
M  V30 277 C 27.5688 2.08393 0.954204 0
M  V30 278 C 28.5688 0.996531 1.26198 0
M  V30 279 O 29.7588 1.25858 1.20438 0
M  V30 280 C 26.8908 2.5394 2.27436 0
M  V30 281 H 28.0838 2.95455 0.514451 0
M  V30 282 H 25.6368 1.54582 0.231089 0
M  V30 283 H 26.3718 1.70171 2.76066 0
M  V30 284 H 26.1568 3.33371 2.06412 0
M  V30 285 H 27.6468 2.93512 2.97053 0
M  V30 286 N 28.0839 -0.256276 1.55502 0
M  V30 287 C 29.0469 -1.30047 1.88734 0
M  V30 288 C 30.0469 -1.4154 0.763086 0
M  V30 289 O 31.2369 -1.40403 1.03115 0
M  V30 290 C 28.3689 -2.67953 2.10747 0
M  V30 291 H 29.5619 -1.01802 2.82093 0
M  V30 292 H 27.1149 -0.495134 1.4825 0
M  V30 293 H 27.8499 -3.01351 1.19825 0
M  V30 294 H 27.6349 -2.60993 2.92617 0
M  V30 295 H 29.1249 -3.43368 2.37673 0
M  V30 296 N 29.562 -1.4872 -0.521534 0
M  V30 297 C 30.973 -1.50607 -1.10337 0
M  V30 298 C 31.324 -0.280612 -1.94183 0
M  V30 299 O 30.449 0.611507 -2.0758 0
M  V30 300 C 31.044 -2.72903 -2.00772 0
M  V30 301 C 29.603 -2.77634 -2.54158 0
M  V30 302 C 28.75 -2.44241 -1.31307 0
M  V30 303 H 31.701 -1.55714 -0.306388 0
M  V30 304 H 31.722 -2.519 -2.85178 0
M  V30 305 H 31.234 -3.62077 -1.39721 0
M  V30 306 H 29.335 -1.92689 -3.18907 0
M  V30 307 H 29.448 -3.79283 -2.92714 0
M  V30 308 H 27.812 -1.95577 -1.63161 0
M  V30 309 H 28.595 -3.35666 -0.719943 0
M  V30 310 N 31.0401 0.771051 -1.3745 0
M  V30 311 C 32.4511 1.34737 -1.29239 0
M  V30 312 C 32.8021 1.96109 0.0596908 0
M  V30 313 O 31.9271 1.93865 0.961534 0
M  V30 314 C 32.5221 2.44973 -2.34037 0
M  V30 315 C 31.0811 2.98372 -2.29458 0
M  V30 316 C 30.2281 1.71595 -2.17831 0
M  V30 317 H 33.1791 0.571256 -1.48062 0
M  V30 318 H 33.2001 3.24471 -1.98744 0
M  V30 319 H 32.7121 2.00276 -3.32432 0
M  V30 320 H 30.8131 3.47443 -1.34589 0
M  V30 321 H 30.9261 3.53939 -3.229 0
M  V30 322 H 29.2901 1.94547 -1.64388 0
M  V30 323 H 30.0731 1.29001 -3.18141 0
M  V30 324 N 32.5182 1.22032 0.997298 0
M  V30 325 C 33.9342 0.979326 1.26021 0
M  V30 326 C 34.1342 -0.32972 1.98784 0
M  V30 327 O 33.1902 -1.05345 2.29475 0
M  V30 328 C 34.5032 2.17509 2.07631 0
M  V30 329 C 36.0512 2.21817 2.2083 0
M  V30 330 C 36.5262 3.40933 3.05825 0
M  V30 331 N 38.0172 3.41067 3.13412 0
M  V30 332 C 38.7522 4.29885 3.79455 0
M  V30 333 N 38.2482 5.28914 4.47462 0
M  V30 334 N 40.0412 4.17673 3.76173 0
M  V30 335 H 32.1922 2.06202 0.509352 0
M  V30 336 H 34.4552 0.90334 0.287541 0
M  V30 337 H 34.1612 3.12415 1.61524 0
M  V30 338 H 34.0352 2.17206 3.08385 0
M  V30 339 H 36.4222 1.27462 2.66153 0
M  V30 340 H 36.5032 2.2616 1.1952 0
M  V30 341 H 36.1472 4.35586 2.61203 0
M  V30 342 H 36.0772 3.33829 4.07266 0
M  V30 343 H 38.5682 2.69406 2.65007 0
M  V30 344 H 38.8812 5.92973 4.95583 0
M  V30 345 H 37.2262 5.32831 4.46224 0
M  V30 346 H 40.4172 3.39564 3.22202 0
M  V30 347 H 40.5902 4.87098 4.27363 0
M  V30 348 N 33.9963 -1.19345 1.0293 0
M  V30 349 C 35.2443 -1.88665 0.724574 0
M  V30 350 C 35.5653 -1.80036 -0.749144 0
M  V30 351 O 34.8353 -1.2111 -1.53978 0
M  V30 352 H 33.4153 -0.698406 0.265025 0
M  V30 353 H 36.0773 -1.44885 1.30362 0
M  V30 354 H 35.1733 -2.94987 1.01926 0
M  V30 355 N 35.4744 -0.807222 -1.35358 0
M  V30 356 C 36.8904 -0.491038 -1.51858 0
M  V30 357 C 37.0904 0.987648 -1.75635 0
M  V30 358 O 36.1464 1.77265 -1.79815 0
M  V30 359 C 37.4594 -1.33695 -2.69344 0
M  V30 360 C 39.0074 -1.33246 -2.83222 0
M  V30 361 C 39.4824 -2.1625 -4.03733 0
M  V30 362 N 40.9734 -2.1379 -4.10911 0
M  V30 363 C 41.7084 -2.74772 -5.03277 0
M  V30 364 N 41.2044 -3.44684 -6.0097 0
M  V30 365 N 42.9974 -2.6441 -4.96028 0
M  V30 366 H 35.1484 -1.76485 -1.18181 0
M  V30 367 H 37.4114 -0.751199 -0.578276 0
M  V30 368 H 37.1174 -2.38634 -2.58354 0
M  V30 369 H 36.9914 -0.990618 -3.6396 0
M  V30 370 H 39.3784 -0.290911 -2.93663 0
M  V30 371 H 39.4594 -1.71866 -1.89461 0
M  V30 372 H 39.1034 -3.20445 -3.94052 0
M  V30 373 H 39.0334 -1.74989 -4.96675 0
M  V30 374 H 41.5244 -1.62923 -3.40976 0
M  V30 375 H 41.8374 -3.88501 -6.68047 0
M  V30 376 H 40.1824 -3.48788 -6.01142 0
M  V30 377 H 43.3734 -2.0938 -4.18662 0
M  V30 378 H 43.5464 -3.12225 -5.6782 0
M  V30 379 N 36.9525 1.47285 -0.560781 0
M  V30 380 C 38.2015 2.01668 -0.035895 0
M  V30 381 C 38.5145 1.44021 1.32353 0
M  V30 382 O 39.7205 1.90088 1.93853 0
M  V30 383 C 38.1765 3.59897 -0.0136659 0
M  V30 384 C 37.7845 4.26536 -1.37006 0
M  V30 385 C 39.5285 4.22017 0.458425 0
M  V30 386 C 37.4355 5.76782 -1.30675 0
M  V30 387 H 36.3655 0.753938 -0.00964879 0
M  V30 388 H 39.0165 1.69243 -0.709166 0
M  V30 389 H 37.3985 3.89301 0.725325 0
M  V30 390 H 38.5725 4.0877 -2.12705 0
M  V30 391 H 36.8875 3.76419 -1.78038 0
M  V30 392 H 39.4845 5.32124 0.524247 0
M  V30 393 H 39.8275 3.89437 1.4712 0
M  V30 394 H 40.3605 3.97159 -0.225818 0
M  V30 395 H 37.0995 6.13988 -2.29564 0
M  V30 396 H 36.6195 5.96875 -0.591622 0
M  V30 397 H 38.2985 6.39063 -1.01033 0
M  V30 398 N 38.4306 0.297415 1.54768 0
M  V30 399 C 39.3606 -0.573494 2.26348 0
M  V30 400 C 40.3416 -1.14085 1.26169 0
M  V30 401 O 41.5266 -1.17086 1.54934 0
M  V30 402 C 38.6566 -1.74716 3.00153 0
M  V30 403 C 37.6106 -1.31032 4.07449 0
M  V30 404 C 36.9366 -2.56887 4.68949 0
M  V30 405 C 38.2366 -0.444183 5.20408 0
M  V30 406 H 39.9306 0.0235131 2.99391 0
M  V30 407 H 37.4766 0.0127488 1.43994 0
M  V30 408 H 39.4296 -2.3625 3.48947 0
M  V30 409 H 38.1536 -2.37035 2.24682 0
M  V30 410 H 36.8126 -0.718066 3.59499 0
M  V30 411 H 36.4606 -3.17512 3.90122 0
M  V30 412 H 36.1606 -2.2836 5.41411 0
M  V30 413 H 37.6846 -3.19229 5.20505 0
M  V30 414 H 39.0986 -0.9651 5.65118 0
M  V30 415 H 37.4956 -0.252846 5.99567 0
M  V30 416 H 38.5656 0.531609 4.81977 0
M  V30 417 N 39.9087 -1.5758 0.0250728 0
M  V30 418 C 41.1567 -1.91255 -0.653151 0
M  V30 419 C 41.4777 -0.901691 -1.729 0
M  V30 420 O 40.7477 0.0573785 -1.95816 0
M  V30 421 H 39.3277 -0.705942 -0.244243 0
M  V30 422 H 41.9897 -1.94767 0.0719209 0
M  V30 423 H 41.0857 -2.91752 -1.10847 0
M  V30 424 N 41.3868 0.248026 -1.55636 0
M  V30 425 C 42.6348 0.974295 -1.77065 0
M  V30 426 C 42.9558 1.85897 -0.588849 0
M  V30 427 O 42.2258 1.91868 0.395407 0
M  V30 428 H 40.8058 0.362733 -0.653019 0
M  V30 429 H 43.4678 0.266244 -1.93073 0
M  V30 430 H 42.5638 1.59667 -2.68166 0
M  V30 431 N 42.8649 1.48995 0.513639 0
M  V30 432 C 44.2809 1.35478 0.843682 0
M  V30 433 C 44.4809 0.378213 1.97919 0
M  V30 434 O 43.5369 -0.194689 2.51748 0
M  V30 435 C 44.8499 2.75901 1.1958 0
M  V30 436 C 46.3979 2.84509 1.30474 0
M  V30 437 C 46.8729 4.25671 1.69021 0
M  V30 438 N 48.3639 4.28422 1.76094 0
M  V30 439 C 49.0989 5.34601 2.07338 0
M  V30 440 N 48.5949 6.5104 2.36894 0
M  V30 441 N 50.3879 5.22007 2.08483 0
M  V30 442 H 42.5389 2.11092 -0.235328 0
M  V30 443 H 44.8019 0.947039 -0.0426669 0
M  V30 444 H 44.5079 3.49001 0.434913 0
M  V30 445 H 44.3819 3.10467 2.1422 0
M  V30 446 H 46.7689 2.11655 2.05637 0
M  V30 447 H 46.8499 2.53542 0.339155 0
M  V30 448 H 46.4939 4.99048 0.944135 0
M  V30 449 H 46.4239 4.54094 2.66658 0
M  V30 450 H 48.9149 3.44441 1.55464 0
M  V30 451 H 49.2279 7.2779 2.59887 0
M  V30 452 H 47.5729 6.54287 2.34378 0
M  V30 453 H 50.7639 4.30051 1.84861 0
M  V30 454 H 50.9369 6.04854 2.325 0
M  V30 455 N 44.343 -0.763751 1.37857 0
M  V30 456 C 45.253 -1.90817 1.36478 0
M  V30 457 C 46.269 -1.71997 0.263248 0
M  V30 458 O 47.445 -1.95095 0.499979 0
M  V30 459 C 44.51 -3.2605 1.17864 0
M  V30 460 C 43.571 -3.57467 2.3773 0
M  V30 461 C 42.804 -4.86249 2.19995 0
M  V30 462 O 43.027 -5.57884 1.18836 0
M  V30 463 O 41.961 -5.16911 3.08361 0
M  V30 464 H 45.787 -1.94933 2.32884 0
M  V30 465 H 43.372 -0.907619 1.1867 0
M  V30 466 H 45.254 -4.06924 1.09504 0
M  V30 467 H 43.929 -3.22769 0.245372 0
M  V30 468 H 42.836 -2.76796 2.51664 0
M  V30 469 H 44.169 -3.655 3.29652 0
M  V30 470 N 45.8211 -1.22559 -0.990812 0
M  V30 471 C 46.7841 -0.998863 -2.0629 0
M  V30 472 C 47.7841 0.0354834 -1.60761 0
M  V30 473 O 48.9741 -0.203231 -1.7301 0
M  V30 474 C 46.1061 -0.509203 -3.37076 0
M  V30 475 H 47.2991 -1.95014 -2.27837 0
M  V30 476 H 44.8521 -1.04456 -1.16269 0
M  V30 477 H 45.5871 0.446335 -3.21214 0
M  V30 478 H 45.3721 -1.25547 -3.71457 0
M  V30 479 H 46.8621 -0.370888 -4.1595 0
M  V30 480 N 47.2992 1.18797 -1.03562 0
M  V30 481 C 48.2092 2.25913 -0.632505 0
M  V30 482 C 49.2252 1.70668 0.338882 0
M  V30 483 O 50.4012 2.00453 0.195076 0
M  V30 484 C 47.4662 3.467 0.00350942 0
M  V30 485 C 46.5272 4.17098 -1.01624 0
M  V30 486 C 45.7602 5.32119 -0.410478 0
M  V30 487 O 45.9832 5.64976 0.784725 0
M  V30 488 O 44.9172 5.9107 -1.13667 0
M  V30 489 H 48.7432 2.62648 -1.52478 0
M  V30 490 H 46.3282 1.25781 -0.806195 0
M  V30 491 H 48.2102 4.19878 0.35781 0
M  V30 492 H 46.8852 3.11798 0.869686 0
M  V30 493 H 45.7922 3.4601 -1.42224 0
M  V30 494 H 47.1252 4.55987 -1.85301 0
M  V30 495 N 48.7773 0.814389 1.34928 0
M  V30 496 C 49.7403 0.235759 2.27984 0
M  V30 497 C 50.7403 -0.581412 1.49921 0
M  V30 498 O 51.9303 -0.398758 1.69575 0
M  V30 499 C 49.0623 -0.670433 3.34242 0
M  V30 500 H 50.2553 1.05659 2.80671 0
M  V30 501 H 47.8083 0.585614 1.44915 0
M  V30 502 H 48.5433 -1.51466 2.86755 0
M  V30 503 H 48.3283 -0.0860822 3.92005 0
M  V30 504 H 49.8183 -1.06935 4.03676 0
M  V30 505 N 50.2554 -1.46986 0.568584 0
M  V30 506 C 51.2054 -2.27179 -0.193339 0
M  V30 507 C 52.1894 -1.35035 -0.874895 0
M  V30 508 O 53.3814 -1.5931 -0.771322 0
M  V30 509 C 50.5104 -3.21063 -1.21546 0
M  V30 510 C 49.5964 -4.2069 -0.536738 0
M  V30 511 N 49.9874 -5.04218 0.399673 0
M  V30 512 C 48.2854 -4.38961 -0.789254 0
M  V30 513 C 48.9864 -5.76242 0.795017 0
M  V30 514 N 47.9624 -5.434 0.1473 0
M  V30 515 H 51.7644 -2.89146 0.526458 0
M  V30 516 H 49.2784 -1.57664 0.389342 0
M  V30 517 H 51.2754 -3.77209 -1.77536 0
M  V30 518 H 49.9354 -2.60654 -1.93623 0
M  V30 519 H 50.9464 -5.12077 0.774454 0
M  V30 520 H 47.6234 -3.89713 -1.49767 0
M  V30 521 H 49.0134 -6.53417 1.56513 0
M  V30 522 N 51.7335 -0.305618 -1.54608 0
M  V30 523 C 52.6965 0.555591 -2.22364 0
M  V30 524 C 53.6965 1.05768 -1.21119 0
M  V30 525 O 54.8865 0.952972 -1.45822 0
M  V30 526 C 52.0185 1.76974 -2.91364 0
M  V30 527 H 53.2115 -0.0364572 -2.99878 0
M  V30 528 H 50.7645 -0.0565007 -1.56198 0
M  V30 529 H 51.4995 2.40151 -2.17941 0
M  V30 530 H 51.2845 1.41732 -3.65588 0
M  V30 531 H 52.7745 2.38148 -3.43038 0
M  V30 532 N 53.2116 1.57565 -0.0334293 0
M  V30 533 C 54.6276 1.56297 0.322997 0
M  V30 534 C 54.8276 1.03945 1.7262 0
M  V30 535 O 53.8836 0.688109 2.42943 0
M  V30 536 C 55.1966 3.00232 0.167664 0
M  V30 537 C 56.7446 3.12078 0.240107 0
M  V30 538 C 57.2196 4.57859 0.113513 0
M  V30 539 N 58.7106 4.62887 0.170359 0
M  V30 540 C 59.4456 5.73319 0.0962517 0
M  V30 541 N 58.9416 6.92794 -0.0291881 0
M  V30 542 N 60.7346 5.61898 0.150551 0
M  V30 543 H 52.8856 1.89923 -0.950956 0
M  V30 544 H 55.1486 0.873824 -0.367608 0
M  V30 545 H 54.8546 3.42501 -0.799102 0
M  V30 546 H 54.7286 3.654 0.936083 0
M  V30 547 H 57.1156 2.69718 1.19733 0
M  V30 548 H 57.1966 2.49623 -0.558763 0
M  V30 549 H 56.8406 5.009 -0.840314 0
M  V30 550 H 56.7706 5.18299 0.931302 0
M  V30 551 H 59.2616 3.76954 0.26728 0
M  V30 552 H 59.5746 7.7276 -0.0789252 0
M  V30 553 H 57.9196 6.94971 -0.0640299 0
M  V30 554 H 61.1106 4.67448 0.246981 0
M  V30 555 H 61.2836 6.47938 0.0893365 0
M  V30 556 N 54.6897 -0.239769 1.55765 0
M  V30 557 C 56.1007 -0.808263 1.68297 0
M  V30 558 C 56.4517 -1.85736 0.632181 0
M  V30 559 O 55.5767 -2.15277 -0.220204 0
M  V30 560 C 56.1717 -1.47284 3.05111 0
M  V30 561 C 54.7307 -1.98895 3.19559 0
M  V30 562 C 53.8777 -0.842575 2.64189 0
M  V30 563 H 56.8287 -0.0154422 1.58692 0
M  V30 564 H 56.8497 -2.34111 2.99954 0
M  V30 565 H 56.3617 -0.709053 3.81568 0
M  V30 566 H 54.4627 -2.78132 2.47938 0
M  V30 567 H 54.5757 -2.18143 4.26556 0
M  V30 568 H 52.9397 -1.24501 2.22197 0
M  V30 569 H 53.7227 -0.0917552 3.43177 0
M  V30 570 N 56.1678 -1.49265 -0.50573 0
M  V30 571 C 57.3978 -1.61979 -1.28243 0
M  V30 572 C 57.8058 -0.288576 -1.86986 0
M  V30 573 O 57.1488 0.735408 -1.68337 0
M  V30 574 C 57.2108 -2.62632 -2.45489 0
M  V30 575 C 56.8748 -4.071 -2.07651 0
M  V30 576 C 57.8718 -4.94049 -1.61901 0
M  V30 577 C 55.5568 -4.52801 -2.17431 0
M  V30 578 C 57.5508 -6.24736 -1.26428 0
M  V30 579 C 55.2378 -5.83503 -1.8157 0
M  V30 580 C 56.2358 -6.69294 -1.36142 0
M  V30 581 O 55.9238 -7.9756 -1.00764 0
M  V30 582 H 55.6558 -0.54834 -0.395347 0
M  V30 583 H 58.2098 -1.96002 -0.614204 0
M  V30 584 H 56.4398 -2.2378 -3.15372 0
M  V30 585 H 58.1288 -2.64925 -3.07522 0
M  V30 586 H 58.8948 -4.5997 -1.53795 0
M  V30 587 H 54.7738 -3.86196 -2.51742 0
M  V30 588 H 58.3178 -6.91652 -0.908992 0
M  V30 589 H 54.2148 -6.17112 -1.89324 0
M  V30 590 H 54.9828 -8.10529 -1.13952 0
M  V30 591 N 57.6459 0.756429 -1.3826 0
M  V30 592 C 58.5789 1.87802 -1.29637 0
M  V30 593 C 59.5569 1.61667 -0.173939 0
M  V30 594 O 60.7409 1.85208 -0.350775 0
M  V30 595 C 57.8679 3.23354 -1.00797 0
M  V30 596 C 56.9139 3.68379 -2.14939 0
M  V30 597 S 57.7469 3.8025 -3.77054 0
M  V30 598 C 58.9029 5.18626 -3.50396 0
M  V30 599 H 59.1359 1.94829 -2.24564 0
M  V30 600 H 56.6689 0.919117 -1.24063 0
M  V30 601 H 58.6269 4.01637 -0.848413 0
M  V30 602 H 57.2879 3.14008 -0.0759369 0
M  V30 603 H 56.4809 4.66693 -1.90299 0
M  V30 604 H 56.0829 2.97242 -2.26988 0
M  V30 605 H 58.3749 6.04289 -3.06334 0
M  V30 606 H 59.3179 5.48286 -4.48094 0
M  V30 607 H 59.7259 4.87289 -2.84973 0
M  V30 608 N 59.124 1.23083 0.984299 0
M  V30 609 C 60.087 1.00979 2.05757 0
M  V30 610 C 61.087 -0.0269573 1.60777 0
M  V30 611 O 62.277 0.212403 1.729 0
M  V30 612 C 59.409 0.527072 3.36801 0
M  V30 613 H 60.602 1.9622 2.26799 0
M  V30 614 H 58.155 1.05072 1.15714 0
M  V30 615 H 58.89 -0.429294 3.21446 0
M  V30 616 H 58.675 1.27515 3.70786 0
M  V30 617 H 60.165 0.392942 4.15747 0
M  V30 618 N 60.6021 -1.18246 1.0419 0
M  V30 619 C 61.8271 -1.92736 0.765996 0
M  V30 620 C 62.2521 -1.75728 -0.67091 0
M  V30 621 O 61.6101 -1.06825 -1.46486 0
M  V30 622 C 61.6581 -3.42148 1.13875 0
M  V30 623 O 60.7621 -4.11548 0.264954 0
M  V30 624 H 60.1031 -0.601238 0.281797 0
M  V30 625 H 62.6331 -1.49942 1.39207 0
M  V30 626 H 62.6431 -3.92858 1.1012 0
M  V30 627 H 61.3181 -3.53848 2.18551 0
M  V30 628 H 59.8951 -3.71137 0.362226 0
M  V30 629 N 62.0802 -0.821533 -1.34494 0
M  V30 630 C 63.3262 -0.409552 -1.98622 0
M  V30 631 C 63.6592 1.0244 -1.64984 0
M  V30 632 O 62.9342 1.71325 -0.920758 0
M  V30 633 C 63.2172 -0.610458 -3.54888 0
M  V30 634 C 63.0702 -2.09043 -3.98273 0
M  V30 635 C 64.3892 -0.0455379 -4.40076 0
M  V30 636 H 61.5082 -0.15028 -0.721516 0
M  V30 637 H 64.1502 -1.03384 -1.59411 0
M  V30 638 H 62.3002 -0.079044 -3.8842 0
M  V30 639 H 63.9722 -2.68537 -3.75081 0
M  V30 640 H 62.2152 -2.58139 -3.48635 0
M  V30 641 H 62.8862 -2.18182 -5.07051 0
M  V30 642 H 65.3622 -0.499557 -4.1309 0
M  V30 643 H 64.2382 -0.215922 -5.48475 0
M  V30 644 H 64.4992 1.04939 -4.29465 0
M  V30 645 N 63.5583 1.46682 -0.576371 0
M  V30 646 C 64.4903 2.28341 0.198231 0
M  V30 647 C 65.5033 1.38141 0.861453 0
M  V30 648 O 66.6923 1.62797 0.732082 0
M  V30 649 C 63.7923 3.12986 1.29972 0
M  V30 650 C 62.9653 4.31271 0.729639 0
M  V30 651 C 62.0243 4.97363 1.71803 0
M  V30 652 O 61.0503 5.55156 1.25658 0
M  V30 653 N 62.2523 4.93796 3.05198 0
M  V30 654 H 65.0173 2.9546 -0.502324 0
M  V30 655 H 62.5783 1.56525 -0.413715 0
M  V30 656 H 64.5703 3.54066 1.96008 0
M  V30 657 H 63.1403 2.47984 1.90323 0
M  V30 658 H 62.3603 3.94052 -0.108012 0
M  V30 659 H 63.6483 5.07739 0.328438 0
M  V30 660 H 63.0463 4.48077 3.45317 0
M  V30 661 H 61.6033 5.38837 3.6674 0
M  V30 662 N 65.0364 0.313813 1.54444 0
M  V30 663 C 65.9664 -0.549454 2.26943 0
M  V30 664 C 66.9474 -1.12741 1.27372 0
M  V30 665 O 68.1324 -1.15436 1.56167 0
M  V30 666 C 65.2624 -1.71523 3.01989 0
M  V30 667 C 64.2164 -1.26703 4.08816 0
M  V30 668 C 63.5424 -2.51898 4.71647 0
M  V30 669 C 64.8424 -0.388962 5.2085 0
M  V30 670 H 66.5364 0.0552661 2.99349 0
M  V30 671 H 64.0824 0.0280207 1.43973 0
M  V30 672 H 66.0354 -2.32535 3.51433 0
M  V30 673 H 64.7594 -2.34639 2.27183 0
M  V30 674 H 63.4184 -0.679896 3.6024 0
M  V30 675 H 63.0664 -3.13356 3.93468 0
M  V30 676 H 62.7664 -2.22605 5.43802 0
M  V30 677 H 64.2904 -3.1369 5.23861 0
M  V30 678 H 65.7044 -0.905107 5.6611 0
M  V30 679 H 64.1014 -0.18924 5.99802 0
M  V30 680 H 65.1714 0.582699 4.81386 0
M  V30 681 N 66.5145 -1.57545 0.0417849 0
M  V30 682 C 67.4625 -2.12148 -0.953723 0
M  V30 683 C 68.4565 -1.05104 -1.32852 0
M  V30 684 O 69.6625 -1.23524 -1.30927 0
M  V30 685 H 66.0375 -0.677957 -0.325389 0
M  V30 686 H 68.0085 -2.94707 -0.467991 0
M  V30 687 C 66.7575 -2.6739 -2.22257 0
M  V30 688 H 66.0805 -3.49413 -1.94295 0
M  V30 689 H 67.5205 -3.09227 -2.90094 0
M  V30 690 C 65.9795 -1.60723 -2.96091 0
M  V30 691 O 66.5095 -1.01449 -3.88679 0
M  V30 692 N 64.7155 -1.32466 -2.58652 0
M  V30 693 H 64.2625 -1.80856 -1.83437 0
M  V30 694 H 64.2205 -0.61325 -3.08361 0
M  V30 695 N 67.9926 0.231505 -1.5589 0
M  V30 696 C 69.2406 0.955461 -1.78088 0
M  V30 697 C 69.5616 1.85262 -0.608533 0
M  V30 698 O 68.8316 1.92277 0.375035 0
M  V30 699 H 67.4116 0.355787 -0.656829 0
M  V30 700 H 70.0736 0.245751 -1.93344 0
M  V30 701 H 69.1696 1.56814 -2.69844 0
M  V30 702 N 69.4707 1.49531 0.497807 0
M  V30 703 C 70.4337 1.65916 1.58128 0
M  V30 704 C 71.4337 0.530825 1.51786 0
M  V30 705 O 72.6237 0.797342 1.54881 0
M  V30 706 C 69.7557 1.65951 2.9778 0
M  V30 707 H 70.9487 2.62556 1.44929 0
M  V30 708 H 68.5017 1.38611 0.722275 0
M  V30 709 H 69.2367 0.709065 3.16453 0
M  V30 710 H 69.0217 2.47897 3.03792 0
M  V30 711 H 70.5117 1.80673 3.76493 0
M  V30 712 N 70.9488 -0.749086 1.3866 0
M  V30 713 C 71.8988 -1.85368 1.32751 0
M  V30 714 C 72.8828 -1.59511 0.210945 0
M  V30 715 O 74.0748 -1.71255 0.447299 0
M  V30 716 C 71.2038 -3.23131 1.15935 0
M  V30 717 C 70.2898 -3.54864 2.32233 0
M  V30 718 N 70.6808 -3.57625 3.57684 0
M  V30 719 C 68.9788 -3.85154 2.24883 0
M  V30 720 C 69.6798 -3.86753 4.34508 0
M  V30 721 N 68.6558 -4.03812 3.63918 0
M  V30 722 H 72.4578 -1.85787 2.27729 0
M  V30 723 H 69.9718 -0.946658 1.31955 0
M  V30 724 H 71.9688 -4.02185 1.09786 0
M  V30 725 H 70.6288 -3.23961 0.218947 0
M  V30 726 H 71.6398 -3.39276 3.91295 0
M  V30 727 H 68.3168 -3.93672 1.39027 0
M  V30 728 H 69.7068 -3.95474 5.43185 0
M  V30 729 N 72.4269 -1.23603 -0.977757 0
M  V30 730 C 73.3569 -1.04401 -2.0886 0
M  V30 731 C 74.3379 0.0399052 -1.70053 0
M  V30 732 O 75.5229 -0.125246 -1.93796 0
M  V30 733 C 72.6529 -0.637269 -3.41403 0
M  V30 734 C 71.6069 -1.66883 -3.94124 0
M  V30 735 C 70.9329 -1.11745 -5.22893 0
M  V30 736 C 72.2329 -3.06247 -4.23096 0
M  V30 737 H 73.9269 -1.97316 -2.25182 0
M  V30 738 H 71.4729 -0.950096 -1.08209 0
M  V30 739 H 73.4259 -0.48998 -4.18542 0
M  V30 740 H 72.1499 0.327557 -3.24953 0
M  V30 741 H 70.8089 -1.80416 -3.19133 0
M  V30 742 H 70.4569 -0.143527 -5.02795 0
M  V30 743 H 70.1569 -1.80672 -5.59134 0
M  V30 744 H 71.6809 -0.982067 -6.02651 0
M  V30 745 H 73.0949 -2.96001 -4.90975 0
M  V30 746 H 71.4919 -3.72436 -4.70544 0
M  V30 747 H 72.5619 -3.55041 -3.30263 0
M  V30 748 N 73.905 1.17692 -1.04816 0
M  V30 749 C 75.145 1.89545 -0.764979 0
M  V30 750 C 75.509 1.78979 0.695028 0
M  V30 751 O 76.71 2.45613 1.09215 0
M  V30 752 C 74.981 3.35659 -1.22751 0
M  V30 753 S 76.54 4.25526 -1.07112 0
M  V30 754 H 73.358 0.654432 -0.27792 0
M  V30 755 H 75.96 1.42163 -1.34201 0
M  V30 756 H 74.664 3.40882 -2.28533 0
M  V30 757 H 74.195 3.88083 -0.644594 0
M  V30 758 H 76.21 4.962 0.00697508 0
M  V30 759 N 75.3831 0.828654 1.34056 0
M  V30 760 C 76.6311 0.41863 1.97717 0
M  V30 761 C 76.9521 -1.02314 1.66002 0
M  V30 762 O 76.2221 -1.71119 0.953683 0
M  V30 763 H 74.8021 0.151809 0.731412 0
M  V30 764 H 77.4641 1.05936 1.63596 0
M  V30 765 H 76.5601 0.542318 3.07352 0
M  V30 766 N 76.8612 -1.46375 0.584142 0
M  V30 767 C 78.1092 -2.01978 0.0701287 0
M  V30 768 C 78.4302 -1.4579 -1.295 0
M  V30 769 O 77.7002 -0.64314 -1.85042 0
M  V30 770 H 76.2802 -0.746648 0.0229345 0
M  V30 771 H 78.9422 -1.79461 0.760245 0
M  V30 772 H 78.0382 -3.121 0.0022064 0
M  V30 773 N 78.3393 -0.321999 -1.54275 0
M  V30 774 C 79.5853 0.281461 -2.00837 0
M  V30 775 C 79.9183 1.51909 -1.20985 0
M  V30 776 O 79.1933 1.923 -0.291733 0
M  V30 777 C 79.4763 0.617162 -3.54772 0
M  V30 778 C 79.3293 -0.631064 -4.45351 0
M  V30 779 C 80.6483 1.43542 -4.16033 0
M  V30 780 H 77.7673 0.100826 -0.730071 0
M  V30 781 H 80.4093 -0.438268 -1.84876 0
M  V30 782 H 78.5593 1.23034 -3.68504 0
M  V30 783 H 80.2313 -1.26934 -4.43492 0
M  V30 784 H 78.4743 -1.26025 -4.15091 0
M  V30 785 H 79.1453 -0.351735 -5.50878 0
M  V30 786 H 81.6213 0.917134 -4.05867 0
M  V30 787 H 80.4973 1.63907 -5.23856 0
M  V30 788 H 80.7583 2.43108 -3.69257 0
M  V30 789 N 79.8174 1.5752 -0.0501392 0
M  V30 790 C 80.7474 2.14502 0.922566 0
M  V30 791 C 81.7284 1.06642 1.3252 0
M  V30 792 O 82.9134 1.34577 1.4001 0
M  V30 793 C 80.0434 2.68916 2.19776 0
M  V30 794 C 78.9974 3.8175 1.93523 0
M  V30 795 C 78.3234 4.22677 3.27487 0
M  V30 796 C 79.6234 5.06932 1.25765 0
M  V30 797 H 81.3174 2.9603 0.447952 0
M  V30 798 H 78.8634 1.42401 0.214024 0
M  V30 799 H 80.8164 3.07419 2.88222 0
M  V30 800 H 79.5404 1.84578 2.69441 0
M  V30 801 H 78.1994 3.43718 1.27489 0
M  V30 802 H 77.8474 3.35291 3.74952 0
M  V30 803 H 77.5474 4.98725 3.1072 0
M  V30 804 H 79.0714 4.63779 3.97166 0
M  V30 805 H 80.4854 5.42888 1.84244 0
M  V30 806 H 78.8824 5.88116 1.19328 0
M  V30 807 H 79.9524 4.84337 0.233536 0
M  V30 808 N 81.2955 -0.223234 1.56011 0
M  V30 809 C 82.5415 -0.949279 1.79211 0
M  V30 810 C 82.8745 -1.84054 0.619494 0
M  V30 811 O 82.1495 -1.90726 -0.381317 0
M  V30 812 C 82.4325 -1.78965 3.12479 0
M  V30 813 C 82.2855 -0.924997 4.40186 0
M  V30 814 C 83.6045 -2.76774 3.42175 0
M  V30 815 H 80.7235 -0.343676 0.651963 0
M  V30 816 H 83.3655 -0.218253 1.88742 0
M  V30 817 H 81.5155 -2.41291 3.04485 0
M  V30 818 H 83.1875 -0.318615 4.60198 0
M  V30 819 H 81.4305 -0.230344 4.33188 0
M  V30 820 H 82.1015 -1.54735 5.29869 0
M  V30 821 H 84.5775 -2.24584 3.50287 0
M  V30 822 H 83.4535 -3.32678 4.36597 0
M  V30 823 H 83.7145 -3.54429 2.64258 0
M  V30 824 N 82.7736 -1.49793 -0.48987 0
M  V30 825 C 83.7366 -1.66752 -1.57246 0
M  V30 826 C 84.7366 -0.538867 -1.51502 0
M  V30 827 O 85.9266 -0.805545 -1.54456 0
M  V30 828 C 83.0586 -1.67528 -2.96896 0
M  V30 829 H 84.2516 -2.63321 -1.43534 0
M  V30 830 H 81.8046 -1.38992 -0.714914 0
M  V30 831 H 82.5396 -0.725837 -3.16073 0
M  V30 832 H 82.3246 -2.49504 -3.02473 0
M  V30 833 H 83.8146 -1.82667 -3.7553 0
M  V30 834 N 84.2517 0.741722 -1.39055 0
M  V30 835 C 85.1617 1.88621 -1.39496 0
M  V30 836 C 86.1777 1.71557 -0.290578 0
M  V30 837 O 87.3537 1.94275 -0.530954 0
M  V30 838 C 84.4187 3.24134 -1.23037 0
M  V30 839 C 83.4797 3.5364 -2.43387 0
M  V30 840 C 82.7127 4.82687 -2.27703 0
M  V30 841 O 82.9357 5.55922 -1.27696 0
M  V30 842 O 81.8697 5.1194 -3.16545 0
M  V30 843 H 85.6957 1.91203 -2.35956 0
M  V30 844 H 83.2807 0.888625 -1.20099 0
M  V30 845 H 85.1627 4.0513 -1.15964 0
M  V30 846 H 83.8377 3.22337 -0.296691 0
M  V30 847 H 82.7447 2.72758 -2.56035 0
M  V30 848 H 84.0777 3.60209 -3.35425 0
M  V30 849 N 85.7298 1.2412 0.971189 0
M  V30 850 C 86.6618 0.988349 2.06795 0
M  V30 851 C 87.6748 -0.0409541 1.62748 0
M  V30 852 O 88.8638 0.195673 1.77424 0
M  V30 853 C 85.9638 0.469023 3.35639 0
M  V30 854 C 85.1368 1.56065 4.08611 0
M  V30 855 C 84.1958 1.04458 5.15728 0
M  V30 856 O 83.2218 1.73553 5.42096 0
M  V30 857 N 84.4238 -0.122817 5.8037 0
M  V30 858 H 87.1888 1.93265 2.29061 0
M  V30 859 H 84.7498 1.15102 1.13856 0
M  V30 860 H 86.7418 0.108613 4.04554 0
M  V30 861 H 85.3118 -0.380919 3.1027 0
M  V30 862 H 84.5318 2.09341 3.34021 0
M  V30 863 H 85.8198 2.29449 4.54126 0
M  V30 864 H 85.2178 -0.700563 5.61345 0
M  V30 865 H 83.7748 -0.424404 6.50417 0
M  V30 866 N 87.2079 -1.17134 1.05439 0
M  V30 867 C 88.4539 -1.87979 0.776872 0
M  V30 868 C 88.8089 -1.7965 -0.688751 0
M  V30 869 O 88.1019 -1.19535 -1.4974 0
M  V30 870 C 88.2959 -3.36833 1.19491 0
M  V30 871 C 88.1249 -3.59653 2.69963 0
M  V30 872 C 86.8949 -3.76234 3.37307 0
M  V30 873 C 89.0929 -3.59091 3.68182 0
M  V30 874 N 87.0749 -3.86922 4.76618 0
M  V30 875 C 88.4459 -3.75659 4.93235 0
M  V30 876 C 90.5009 -3.42255 3.61616 0
M  V30 877 C 89.2039 -3.77133 6.12506 0
M  V30 878 C 91.2299 -3.45018 4.8033 0
M  V30 879 C 90.5919 -3.62096 6.04207 0
M  V30 880 H 86.6909 -0.705876 0.336546 0
M  V30 881 H 89.2749 -1.40602 1.34682 0
M  V30 882 H 87.4459 -3.82873 0.652884 0
M  V30 883 H 89.1779 -3.95305 0.866966 0
M  V30 884 H 85.9329 -3.76193 2.87708 0
M  V30 885 H 86.3569 -3.96055 5.49062 0
M  V30 886 H 90.9989 -3.27986 2.66805 0
M  V30 887 H 88.7169 -3.90186 7.07659 0
M  V30 888 H 92.3029 -3.33246 4.76905 0
M  V30 889 H 91.1829 -3.64142 6.94529 0
M  V30 890 N 88.686 -0.835752 -1.33615 0
M  V30 891 C 89.932 -0.430596 -1.98176 0
M  V30 892 C 90.265 1.00684 -1.66061 0
M  V30 893 O 89.54 1.70339 -0.938877 0
M  V30 894 C 89.823 -0.648065 -3.5422 0
M  V30 895 C 89.676 -2.13255 -3.96033 0
M  V30 896 C 90.995 -0.0922113 -4.40003 0
M  V30 897 H 88.114 -0.157924 -0.719881 0
M  V30 898 H 90.756 -1.05069 -1.58305 0
M  V30 899 H 88.906 -0.120237 -3.88314 0
M  V30 900 H 90.578 -2.725 -3.72211 0
M  V30 901 H 88.821 -2.61823 -3.45878 0
M  V30 902 H 89.492 -2.23547 -5.04708 0
M  V30 903 H 91.968 -0.543343 -4.12537 0
M  V30 904 H 90.844 -0.274083 -5.48215 0
M  V30 905 H 91.105 1.00378 -4.30554 0
M  V30 906 N 90.1641 1.46063 -0.591896 0
M  V30 907 C 91.0941 2.33172 0.123673 0
M  V30 908 C 92.0751 1.45897 0.87453 0
M  V30 909 O 93.2601 1.74698 0.848181 0
M  V30 910 C 90.3901 3.28336 1.13194 0
M  V30 911 C 89.3441 4.25124 0.495324 0
M  V30 912 C 88.6701 5.09863 1.61071 0
M  V30 913 C 89.9701 5.19143 -0.573425 0
M  V30 914 H 91.6641 2.93252 -0.603646 0
M  V30 915 H 89.2101 1.41014 -0.291741 0
M  V30 916 H 91.1631 3.88137 1.64097 0
M  V30 917 H 89.8871 2.66383 1.88965 0
M  V30 918 H 88.5461 3.66599 0.00729452 0
M  V30 919 H 88.1941 4.44288 2.35832 0
M  V30 920 H 87.8941 5.75417 1.19035 0
M  V30 921 H 89.4181 5.72529 2.12233 0
M  V30 922 H 90.8321 5.73106 -0.1491 0
M  V30 923 H 89.2291 5.93089 -0.914636 0
M  V30 924 H 90.2991 4.62519 -1.45617 0
M  V30 925 N 91.6422 0.330177 1.54103 0
M  V30 926 C 92.8672 -0.274893 2.0557 0
M  V30 927 C 93.2922 -1.44487 1.20437 0
M  V30 928 O 92.6502 -1.80021 0.214991 0
M  V30 929 C 92.6982 -0.68079 3.54115 0
M  V30 930 O 91.8022 -1.7824 3.71893 0
M  V30 931 H 91.1432 -0.0483849 0.662235 0
M  V30 932 H 93.6732 0.480508 1.98878 0
M  V30 933 H 93.6832 -0.961635 3.96505 0
M  V30 934 H 92.3582 0.174903 4.15532 0
M  V30 935 H 90.9352 -1.49985 3.41407 0
M  V30 936 N 93.1203 -1.57491 0.0584922 0
M  V30 937 C 94.0833 -2.1085 -0.898617 0
M  V30 938 C 95.0833 -1.02964 -1.23511 0
M  V30 939 O 96.2733 -1.29007 -1.17059 0
M  V30 940 C 93.4053 -2.59881 -2.20623 0
M  V30 941 H 94.5983 -2.96715 -0.435936 0
M  V30 942 H 92.1513 -1.55141 -0.190023 0
M  V30 943 H 92.8863 -1.77431 -2.71457 0
M  V30 944 H 92.6713 -3.38727 -1.97501 0
M  V30 945 H 94.1613 -3.01285 -2.89166 0
M  V30 946 N 94.5984 0.214957 -1.56127 0
M  V30 947 C 95.5614 1.24997 -1.92116 0
M  V30 948 C 96.5614 1.39467 -0.800344 0
M  V30 949 O 97.7514 1.37619 -1.06802 0
M  V30 950 C 94.8834 2.62271 -2.17777 0
M  V30 951 H 96.0764 0.942875 -2.84693 0
M  V30 952 H 93.6294 0.455654 -1.49511 0
M  V30 953 H 94.3644 2.98068 -1.27773 0
M  V30 954 H 94.1494 2.53143 -2.99434 0
M  V30 955 H 95.6394 3.36946 -2.46693 0
M  V30 956 N 96.0765 1.50051 0.48192 0
M  V30 957 C 97.0265 1.64512 1.5786 0
M  V30 958 C 98.0105 0.500073 1.52932 0
M  V30 959 O 99.2025 0.753964 1.60139 0
M  V30 960 C 96.3315 1.73263 2.9637 0
M  V30 961 C 95.4175 2.93409 3.06222 0
M  V30 962 N 95.8085 4.17236 2.85915 0
M  V30 963 C 94.1065 2.91742 3.37346 0
M  V30 964 C 94.8075 4.981 3.00451 0
M  V30 965 N 93.7835 4.3184 3.30174 0
M  V30 966 H 97.5855 2.57955 1.40842 0
M  V30 967 H 95.0995 1.47086 0.688439 0
M  V30 968 H 97.0965 1.81724 3.75209 0
M  V30 969 H 95.7565 0.809711 3.14442 0
M  V30 970 H 96.7675 4.46909 2.6171 0
M  V30 971 H 93.4445 2.08907 3.61475 0
M  V30 972 H 94.8345 6.06532 2.89082 0
M  V30 973 N 97.5546 -0.734337 1.39446 0
M  V30 974 C 98.7946 -1.50655 1.38139 0
M  V30 975 C 99.1586 -1.91986 -0.0228701 0
M  V30 976 O 100.36 -2.68318 -0.160947 0
M  V30 977 C 98.6306 -2.71251 2.32718 0
M  V30 978 S 100.19 -3.60892 2.49605 0
M  V30 979 H 97.0076 -0.515315 0.489869 0
M  V30 980 H 99.6096 -0.860392 1.75549 0
M  V30 981 H 98.3136 -2.39027 3.33608 0
M  V30 982 H 97.8446 -3.40795 1.96526 0
M  V30 983 H 99.8596 -4.64899 1.73446 0
M  V30 984 N 99.0327 -1.24633 -0.964593 0
M  V30 985 C 99.9627 -1.06611 -2.07741 0
M  V30 986 C 100.944 0.0218666 -1.70086 0
M  V30 987 O 102.129 -0.145793 -1.93652 0
M  V30 988 C 99.2587 -0.673444 -3.40708 0
M  V30 989 C 98.2127 -1.71054 -3.92332 0
M  V30 990 C 97.5387 -1.17285 -5.21678 0
M  V30 991 C 98.8387 -3.10718 -4.19824 0
M  V30 992 H 100.533 -1.99693 -2.23076 0
M  V30 993 H 98.0787 -0.96152 -1.07195 0
M  V30 994 H 100.032 -0.534345 -4.17998 0
M  V30 995 H 98.7557 0.293073 -3.25282 0
M  V30 996 H 97.4147 -1.83791 -3.17201 0
M  V30 997 H 97.0627 -0.196847 -5.02615 0
M  V30 998 H 96.7627 -1.86592 -5.57187 0
M  V30 999 H 98.2867 -1.04593 -6.01575 0
M  V30 1000 H 99.7007 -3.01192 -4.87808 0
M  V30 1001 H 98.0977 -3.77406 -4.66567 0
M  V30 1002 H 99.1677 -3.58524 -3.26479 0
M  V30 1003 N 100.511 1.16574 -1.06058 0
M  V30 1004 C 101.421 2.2452 -0.680282 0
M  V30 1005 C 102.437 1.71348 0.302604 0
M  V30 1006 O 103.613 2.00822 0.152513 0
M  V30 1007 C 100.678 3.46629 -0.0700315 0
M  V30 1008 C 99.7388 4.14849 -1.10448 0
M  V30 1009 C 98.9718 5.31129 -0.523256 0
M  V30 1010 O 99.1948 5.66514 0.664709 0
M  V30 1011 O 98.1288 5.88526 -1.26179 0
M  V30 1012 H 101.955 2.59355 -1.58015 0
M  V30 1013 H 99.5398 1.24043 -0.832694 0
M  V30 1014 H 101.422 4.20543 0.268667 0
M  V30 1015 H 100.097 3.13573 0.803353 0
M  V30 1016 H 99.0038 3.42916 -1.49532 0
M  V30 1017 H 100.337 4.51954 -1.94931 0
M  V30 1018 N 101.989 0.842826 1.3317 0
M  V30 1019 C 103.266 0.362216 1.92217 0
M  V30 1020 C 103.646 -1.15289 1.76838 0
M  V30 1021 O 102.994 -1.96914 1.15919 0
M  V30 1022 C 103.204 0.813495 3.39387 0
M  V30 1023 C 104.552 0.823804 4.16532 0
M  V30 1024 O 105.576 0.757358 3.48055 0
M  V30 1025 O 104.435 0.915193 5.38782 0
M  V30 1026 H 101.529 0.103317 0.820521 0
M  V30 1027 H 104.075 0.928942 1.42017 0
M  V30 1028 H 102.847 1.85624 3.4447 0
M  V30 1029 H 102.47 0.223561 3.96971 0
M  V30 1030 N 103.467 -1.45747 0.599634 0
M  V30 1031 C 104.43 -2.28917 -0.113835 0
M  V30 1032 C 105.43 -1.3933 -0.802729 0
M  V30 1033 O 106.62 -1.61534 -0.652103 0
M  V30 1034 C 103.752 -3.20152 -1.17114 0
M  V30 1035 H 104.945 -2.93478 0.617289 0
M  V30 1036 H 102.498 -1.52137 0.358327 0
M  V30 1037 H 103.233 -2.60374 -1.93329 0
M  V30 1038 H 103.018 -3.86133 -0.681468 0
M  V30 1039 H 104.508 -3.82708 -1.67105 0
M  V30 1040 N 104.945 -0.338344 -1.53925 0
M  V30 1041 C 105.908 0.508299 -2.23493 0
M  V30 1042 C 106.908 1.03175 -1.23335 0
M  V30 1043 O 108.098 0.921826 -1.47811 0
M  V30 1044 C 105.23 1.70754 -2.95052 0
M  V30 1045 H 106.423 -0.100058 -2.99733 0
M  V30 1046 H 103.976 -0.0896198 -1.56043 0
M  V30 1047 H 104.711 2.35474 -2.22986 0
M  V30 1048 H 104.496 1.33946 -3.68512 0
M  V30 1049 H 105.986 2.30818 -3.48013 0
M  V30 1050 N 106.423 1.57458 -0.0668435 0
M  V30 1051 C 107.7 1.8469 0.644132 0
M  V30 1052 C 108.08 0.958343 1.88093 0
M  V30 1053 O 107.428 0.0233579 2.28488 0
M  V30 1054 C 107.638 3.34767 0.986509 0
M  V30 1055 C 108.986 4.02159 1.36212 0
M  V30 1056 O 110.01 3.39484 1.07839 0
M  V30 1057 O 108.869 5.12694 1.89227 0
M  V30 1058 H 105.963 0.762816 0.319437 0
M  V30 1059 H 108.509 1.6942 -0.0973986 0
M  V30 1060 H 107.281 3.91151 0.107883 0
M  V30 1061 H 106.904 3.55281 1.78497 0
M  V30 1062 N 107.901 -0.206675 1.56239 0
M  V30 1063 C 109.149 -0.927007 1.79586 0
M  V30 1064 C 109.47 -1.8427 0.637929 0
M  V30 1065 O 108.74 -1.92849 -0.344398 0
M  V30 1066 H 107.32 -0.345292 0.662407 0
M  V30 1067 H 109.982 -0.21496 1.93711 0
M  V30 1068 H 109.078 -1.52501 2.72305 0
M  V30 1069 N 109.379 -1.50304 -0.473955 0
M  V30 1070 C 110.326 -1.68959 -1.57231 0
M  V30 1071 C 111.296 -0.530899 -1.57387 0
M  V30 1072 O 112.481 -0.761133 -1.74961 0
M  V30 1073 C 109.621 -1.7871 -2.95223 0
M  V30 1074 C 108.734 -3.06061 -3.04878 0
M  V30 1075 C 107.869 -3.06626 -4.33767 0
M  V30 1076 C 106.908 -4.28443 -4.37154 0
M  V30 1077 N 106.045 -4.26763 -5.5751 0
M  V30 1078 H 110.885 -2.6273 -1.40631 0
M  V30 1079 H 108.422 -1.30241 -0.683789 0
M  V30 1080 H 110.38 -1.82344 -3.75242 0
M  V30 1081 H 109.01 -0.883806 -3.10465 0
M  V30 1082 H 108.062 -3.11911 -2.17751 0
M  V30 1083 H 109.374 -3.96039 -3.0324 0
M  V30 1084 H 108.528 -3.08973 -5.22131 0
M  V30 1085 H 107.267 -2.14473 -4.3801 0
M  V30 1086 H 106.272 -4.2631 -3.47188 0
M  V30 1087 H 107.497 -5.2182 -4.34605 0
M  V30 1088 H 105.443 -3.37462 -5.62544 0
M  V30 1089 H 105.36 -5.10507 -5.57601 0
M  V30 1090 H 106.628 -4.33253 -6.48006 0
M  V30 1091 N 110.857 0.726932 -1.39834 0
M  V30 1092 C 112.103 1.48884 -1.377 0
M  V30 1093 C 112.436 1.94185 0.0244852 0
M  V30 1094 O 111.711 1.67361 0.990986 0
M  V30 1095 C 111.994 2.72288 -2.3565 0
M  V30 1096 C 111.847 2.32956 -3.84775 0
M  V30 1097 C 113.166 3.74414 -2.31306 0
M  V30 1098 H 110.285 0.540062 -0.5015 0
M  V30 1099 H 112.927 0.830547 -1.70886 0
M  V30 1100 H 111.077 3.28457 -2.07481 0
M  V30 1101 H 112.749 1.82356 -4.23726 0
M  V30 1102 H 110.992 1.65088 -4.01159 0
M  V30 1103 H 111.663 3.21362 -4.4881 0
M  V30 1104 H 114.139 3.27849 -2.56231 0
M  V30 1105 H 113.015 4.58414 -3.01907 0
M  V30 1106 H 113.276 4.21909 -1.32081 0
M  V30 1107 N 112.336 1.25143 0.95797 0
M  V30 1108 C 113.268 1.01023 2.05735 0
M  V30 1109 C 114.281 -0.0236902 1.62783 0
M  V30 1110 O 115.47 0.21448 1.77207 0
M  V30 1111 C 112.57 0.504595 3.35122 0
M  V30 1112 C 111.743 1.6039 4.06932 0
M  V30 1113 C 110.802 1.09922 5.14591 0
M  V30 1114 O 109.828 1.79293 5.40225 0
M  V30 1115 N 111.03 -0.0612545 5.80468 0
M  V30 1116 H 113.795 1.95683 2.26998 0
M  V30 1117 H 111.356 1.16303 1.12629 0
M  V30 1118 H 113.348 0.151516 4.04416 0
M  V30 1119 H 111.918 -0.347989 3.10657 0
M  V30 1120 H 111.138 2.12872 3.31782 0
M  V30 1121 H 112.426 2.34252 4.51667 0
M  V30 1122 H 111.824 -0.640985 5.62057 0
M  V30 1123 H 110.381 -0.355395 6.5083 0
M  V30 1124 N 113.814 -1.1601 1.06675 0
M  V30 1125 C 115.06 -1.86909 0.786945 0
M  V30 1126 C 115.393 -1.81717 -0.685018 0
M  V30 1127 O 114.668 -1.23551 -1.50218 0
M  V30 1128 C 114.951 -3.36313 1.28707 0
M  V30 1129 C 114.804 -3.50175 2.82308 0
M  V30 1130 C 116.123 -4.3084 0.898071 0
M  V30 1131 H 113.242 -0.678677 0.287343 0
M  V30 1132 H 115.884 -1.36336 1.32334 0
M  V30 1133 H 114.034 -3.79513 0.830768 0
M  V30 1134 H 115.706 -3.15886 3.36175 0
M  V30 1135 H 113.949 -2.91959 3.20847 0
M  V30 1136 H 114.62 -4.55116 3.12368 0
M  V30 1137 H 117.096 -3.95561 1.29114 0
M  V30 1138 H 115.972 -5.33876 1.27543 0
M  V30 1139 H 116.233 -4.41662 -0.196651 0
M  V30 1140 N 115.292 -0.849877 -1.32721 0
M  V30 1141 C 116.222 -0.306308 -2.31482 0
M  V30 1142 C 117.203 0.591952 -1.59468 0
M  V30 1143 O 118.388 0.513199 -1.87296 0
M  V30 1144 C 115.518 0.510204 -3.43532 0
M  V30 1145 C 114.472 -0.293209 -4.26994 0
M  V30 1146 C 113.798 0.647743 -5.30762 0
M  V30 1147 C 115.098 -1.51634 -4.99804 0
M  V30 1148 H 116.792 -1.13153 -2.77195 0
M  V30 1149 H 114.338 -0.545553 -1.33266 0
M  V30 1150 H 116.291 0.900856 -4.11658 0
M  V30 1151 H 115.015 1.36874 -2.96535 0
M  V30 1152 H 113.674 -0.665555 -3.60508 0
M  V30 1153 H 113.322 1.50299 -4.8002 0
M  V30 1154 H 113.022 0.11422 -5.87489 0
M  V30 1155 H 114.546 1.03567 -6.01753 0
M  V30 1156 H 115.96 -1.19824 -5.60638 0
M  V30 1157 H 114.357 -1.98745 -5.66234 0
M  V30 1158 H 115.427 -2.28018 -4.27943 0
M  V30 1159 N 116.77 1.45427 -0.607355 0
M  V30 1160 C 117.7 2.3329 0.0989352 0
M  V30 1161 C 118.681 1.46816 0.859007 0
M  V30 1162 O 119.866 1.75588 0.829604 0
M  V30 1163 C 116.996 3.29518 1.09705 0
M  V30 1164 C 115.95 4.25626 0.450206 0
M  V30 1165 C 115.276 5.11542 1.55655 0
M  V30 1166 C 116.576 5.18505 -0.628455 0
M  V30 1167 H 118.27 2.92595 -0.634716 0
M  V30 1168 H 115.816 1.40696 -0.306681 0
M  V30 1169 H 117.769 3.89855 1.59971 0
M  V30 1170 H 116.493 2.68372 1.86129 0
M  V30 1171 H 115.152 3.66586 -0.0315886 0
M  V30 1172 H 114.8 4.46765 2.31107 0
M  V30 1173 H 114.5 5.76647 1.12925 0
M  V30 1174 H 116.024 5.74748 2.06148 0
M  V30 1175 H 117.438 5.72916 -0.209877 0
M  V30 1176 H 115.835 5.92085 -0.977489 0
M  V30 1177 H 116.905 4.60948 -1.50514 0
M  V30 1178 N 118.248 0.346503 1.53744 0
M  V30 1179 C 119.496 -0.248612 2.00565 0
M  V30 1180 C 119.817 -1.5083 1.23593 0
M  V30 1181 O 119.087 -1.92858 0.343912 0
M  V30 1182 H 117.667 -0.0948564 0.740953 0
M  V30 1183 H 120.329 0.468341 1.89189 0
M  V30 1184 H 119.425 -0.488994 3.08245 0
M  V30 1185 N 119.726 -1.57421 0.075193 0
M  V30 1186 C 120.689 -2.11791 -0.876203 0
M  V30 1187 C 121.689 -1.04268 -1.22412 0
M  V30 1188 O 122.879 -1.30242 -1.15684 0
M  V30 1189 C 120.011 -2.62207 -2.17854 0
M  V30 1190 H 121.204 -2.9716 -0.40444 0
M  V30 1191 H 118.757 -1.55333 -0.173557 0
M  V30 1192 H 119.492 -1.803 -2.6956 0
M  V30 1193 H 119.277 -3.40802 -1.93897 0
M  V30 1194 H 120.767 -3.04335 -2.85955 0
M  V30 1195 N 121.204 0.198386 -1.56346 0
M  V30 1196 C 122.154 1.2499 -1.90687 0
M  V30 1197 C 123.138 1.41158 -0.772217 0
M  V30 1198 O 124.33 1.43584 -1.03502 0
M  V30 1199 C 121.459 2.59542 -2.24706 0
M  V30 1200 C 120.545 2.47181 -3.44619 0
M  V30 1201 N 120.936 2.04495 -4.62618 0
M  V30 1202 C 119.234 2.78082 -3.48692 0
M  V30 1203 C 119.935 2.03945 -5.44776 0
M  V30 1204 N 118.911 2.45323 -4.85095 0
M  V30 1205 H 122.713 0.911149 -2.7942 0
M  V30 1206 H 120.227 0.40684 -1.57221 0
M  V30 1207 H 122.224 3.3549 -2.47491 0
M  V30 1208 H 120.884 2.94244 -1.37298 0
M  V30 1209 H 121.895 1.75256 -4.87345 0
M  V30 1210 H 118.572 3.17002 -2.71691 0
M  V30 1211 H 119.962 1.72872 -6.4928 0
M  V30 1212 N 122.682 1.50554 0.465978 0
M  V30 1213 C 123.907 1.65838 1.24549 0
M  V30 1214 C 124.332 0.343486 1.84937 0
M  V30 1215 O 123.69 -0.69324 1.67523 0
M  V30 1216 C 123.738 2.75533 2.32624 0
M  V30 1217 O 122.842 2.37142 3.37398 0
M  V30 1218 H 122.183 0.553893 0.366194 0
M  V30 1219 H 124.713 1.96959 0.553927 0
M  V30 1220 H 124.723 2.98763 2.77857 0
M  V30 1221 H 123.398 3.70962 1.88043 0
M  V30 1222 H 121.975 2.24377 2.97841 0
M  V30 1223 N 124.16 -0.719506 1.40217 0
M  V30 1224 C 125.09 -1.8465 1.42922 0
M  V30 1225 C 126.071 -1.67599 0.29062 0
M  V30 1226 O 127.256 -1.87688 0.498677 0
M  V30 1227 C 124.386 -3.22565 1.28722 0
M  V30 1228 C 123.34 -3.54281 2.40144 0
M  V30 1229 C 122.666 -4.91298 2.11023 0
M  V30 1230 C 123.966 -3.55676 3.82481 0
M  V30 1231 H 125.66 -1.82644 2.37237 0
M  V30 1232 H 123.206 -0.877305 1.1419 0
M  V30 1233 H 125.159 -4.01095 1.29232 0
M  V30 1234 H 123.883 -3.25137 0.308811 0
M  V30 1235 H 122.542 -2.78088 2.38877 0
M  V30 1236 H 122.19 -4.90468 1.11582 0
M  V30 1237 H 121.89 -5.13485 2.8567 0
M  V30 1238 H 123.414 -5.72166 2.13209 0
M  V30 1239 H 124.828 -4.24254 3.85592 0
M  V30 1240 H 123.225 -3.89388 4.56614 0
M  V30 1241 H 124.295 -2.55144 4.12346 0
M  V30 1242 N 125.638 -1.25649 -0.95132 0
M  V30 1243 C 126.863 -1.13443 -1.73624 0
M  V30 1244 C 127.288 0.307565 -1.85568 0
M  V30 1245 O 126.646 1.22282 -1.33854 0
M  V30 1246 C 126.694 -1.79723 -3.12621 0
M  V30 1247 O 125.798 -1.07912 -3.98031 0
M  V30 1248 H 125.139 -0.395872 -0.533086 0
M  V30 1249 H 127.669 -1.66276 -1.1922 0
M  V30 1250 H 127.679 -1.86141 -3.63064 0
M  V30 1251 H 126.354 -2.84633 -3.03244 0
M  V30 1252 H 124.931 -1.09398 -3.56492 0
M  V30 1253 N 127.117 1.15442 -1.07289 0
M  V30 1254 C 128.049 2.19773 -0.650585 0
M  V30 1255 C 129.062 1.60076 0.296572 0
M  V30 1256 O 130.251 1.78293 0.0859905 0
M  V30 1257 C 127.351 3.38838 0.0650398 0
M  V30 1258 C 126.524 4.2808 -0.898141 0
M  V30 1259 C 125.583 5.2574 -0.219926 0
M  V30 1260 O 124.609 5.62654 -0.860773 0
M  V30 1261 N 125.811 5.71205 1.03466 0
M  V30 1262 H 128.576 2.56622 -1.54808 0
M  V30 1263 H 126.137 1.30551 -0.957494 0
M  V30 1264 H 128.129 4.01222 0.529415 0
M  V30 1265 H 126.699 3.00409 0.864466 0
M  V30 1266 H 125.919 3.62804 -1.54165 0
M  V30 1267 H 127.207 4.84577 -1.5512 0
M  V30 1268 H 126.605 5.43325 1.57526 0
M  V30 1269 H 125.162 6.35633 1.44272 0
M  V30 1270 N 128.595 0.856903 1.32268 0
M  V30 1271 C 130.006 0.515711 1.79436 0
M  V30 1272 C 130.357 -0.966586 1.70738 0
M  V30 1273 O 129.482 -1.75409 1.26731 0
M  V30 1274 C 130.077 0.929335 3.25805 0
M  V30 1275 C 128.636 0.640006 3.70919 0
M  V30 1276 C 127.783 1.12784 2.53328 0
M  V30 1277 H 130.734 1.04389 1.19535 0
M  V30 1278 H 130.755 0.246633 3.797 0
M  V30 1279 H 130.267 2.00821 3.32103 0
M  V30 1280 H 128.368 -0.428051 3.70133 0
M  V30 1281 H 128.481 1.20788 4.63624 0
M  V30 1282 H 126.845 0.548033 2.48734 0
M  V30 1283 H 127.628 2.21387 2.62379 0
M  V30 1284 N 130.073 -1.45103 0.615059 0
M  V30 1285 C 130.983 -2.34382 -0.101034 0
M  V30 1286 C 131.999 -1.51681 -0.852585 0
M  V30 1287 O 133.175 -1.8446 -0.808484 0
M  V30 1288 C 130.24 -3.29417 -1.08099 0
M  V30 1289 C 129.301 -4.28025 -0.330577 0
M  V30 1290 C 128.534 -5.1852 -1.26385 0
M  V30 1291 O 128.757 -5.12598 -2.50198 0
M  V30 1292 O 127.691 -5.97122 -0.756866 0
M  V30 1293 H 131.517 -2.97033 0.632855 0
M  V30 1294 H 129.102 -1.4461 0.375293 0
M  V30 1295 H 130.984 -3.87958 -1.6452 0
M  V30 1296 H 129.659 -2.69321 -1.79577 0
M  V30 1297 H 128.566 -3.73078 0.276283 0
M  V30 1298 H 129.899 -4.90997 0.343866 0
M  V30 1299 N 131.551 -0.354651 -1.53558 0
M  V30 1300 C 132.962 0.126902 -1.86268 0
M  V30 1301 C 133.313 1.49075 -1.27558 0
M  V30 1302 O 132.438 2.08105 -0.5934 0
M  V30 1303 C 133.033 0.237046 -3.3797 0
M  V30 1304 C 131.592 0.662842 -3.70518 0
M  V30 1305 C 130.739 -0.196652 -2.76602 0
M  V30 1306 H 133.69 -0.573849 -1.47962 0
M  V30 1307 H 133.711 1.06259 -3.65362 0
M  V30 1308 H 133.223 -0.755725 -3.80671 0
M  V30 1309 H 131.324 1.66424 -3.33367 0
M  V30 1310 H 131.437 0.445034 -4.77029 0
M  V30 1311 H 129.801 0.332763 -2.52517 0
M  V30 1312 H 130.584 -1.18676 -3.22135 0
M  V30 1313 N 133.029 1.57378 -0.0835403 0
M  V30 1314 C 134.254 1.98682 0.594987 0
M  V30 1315 C 134.679 0.961969 1.61641 0
M  V30 1316 O 134.037 -0.0709989 1.81161 0
M  V30 1317 C 134.085 3.38988 1.2296 0
M  V30 1318 O 133.189 3.39208 2.34546 0
M  V30 1319 H 132.53 0.646368 0.152002 0
M  V30 1320 H 135.06 2.03961 -0.161533 0
M  V30 1321 H 135.07 3.76431 1.57366 0
M  V30 1322 H 133.745 4.13107 0.481228 0
M  V30 1323 H 132.322 3.13548 2.01846 0
M  V30 1324 N 134.507 -0.190092 1.56449 0
M  V30 1325 C 135.454 -1.23557 1.94942 0
M  V30 1326 C 136.424 -1.44972 0.810696 0
M  V30 1327 O 137.609 -1.58023 1.06927 0
M  V30 1328 C 134.749 -2.57416 2.2985 0
M  V30 1329 C 133.862 -2.43537 3.5681 0
M  V30 1330 C 132.997 -3.70134 3.81017 0
M  V30 1331 C 132.036 -3.51109 5.01387 0
M  V30 1332 N 131.173 -4.6973 5.21822 0
M  V30 1333 H 136.013 -0.900304 2.84075 0
M  V30 1334 H 133.55 -0.43318 1.40577 0
M  V30 1335 H 135.508 -3.35409 2.48106 0
M  V30 1336 H 134.138 -2.88975 1.43852 0
M  V30 1337 H 133.19 -1.56816 3.46573 0
M  V30 1338 H 134.502 -2.25415 4.4496 0
M  V30 1339 H 133.656 -4.56566 3.9954 0
M  V30 1340 H 132.395 -3.91215 2.91207 0
M  V30 1341 H 131.4 -2.63063 4.82782 0
M  V30 1342 H 132.625 -3.31468 5.9271 0
M  V30 1343 H 130.571 -4.91065 4.34961 0
M  V30 1344 H 130.488 -4.54452 6.0416 0
M  V30 1345 H 131.756 -5.57499 5.44808 0
M  V30 1346 N 135.985 -1.50799 -0.457987 0
M  V30 1347 C 137.401 -1.38515 -0.792819 0
M  V30 1348 C 137.601 -0.451409 -1.96379 0
M  V30 1349 O 136.657 0.10112 -2.52297 0
M  V30 1350 C 137.97 -2.80149 -1.09258 0
M  V30 1351 C 139.518 -2.89156 -1.19825 0
M  V30 1352 C 139.993 -4.31651 -1.53106 0
M  V30 1353 N 141.484 -4.34662 -1.60072 0
M  V30 1354 C 142.219 -5.41928 -1.87354 0
M  V30 1355 N 141.715 -6.59384 -2.12568 0
M  V30 1356 N 143.508 -5.29385 -1.88965 0
M  V30 1357 H 135.659 -2.10073 0.313511 0
M  V30 1358 H 137.922 -0.944803 0.0777862 0
M  V30 1359 H 137.628 -3.50374 -0.305084 0
M  V30 1360 H 137.502 -3.18204 -2.02549 0
M  V30 1361 H 139.889 -2.19141 -1.97639 0
M  V30 1362 H 139.97 -2.54626 -0.244821 0
M  V30 1363 H 139.614 -5.02208 -0.758266 0
M  V30 1364 H 139.544 -4.63678 -2.49621 0
M  V30 1365 H 142.035 -3.49973 -1.42573 0
M  V30 1366 H 142.348 -7.36934 -2.32696 0
M  V30 1367 H 140.693 -6.62535 -2.09933 0
M  V30 1368 H 143.884 -4.36616 -1.68772 0
M  V30 1369 H 144.057 -6.13066 -2.09891 0
M  V30 1370 N 137.463 0.71206 -1.40597 0
M  V30 1371 C 138.393 1.83889 -1.43899 0
M  V30 1372 C 139.374 1.67442 -0.299504 0
M  V30 1373 O 140.559 1.87421 -0.508624 0
M  V30 1374 C 137.689 3.21877 -1.30431 0
M  V30 1375 C 136.643 3.53002 -2.42019 0
M  V30 1376 C 135.969 4.90172 -2.13626 0
M  V30 1377 C 137.269 3.53643 -3.84362 0
M  V30 1378 H 138.963 1.81383 -2.38203 0
M  V30 1379 H 136.509 0.871237 -1.14654 0
M  V30 1380 H 138.462 4.00404 -1.31357 0
M  V30 1381 H 137.186 3.24968 -0.326049 0
M  V30 1382 H 135.845 2.76818 -2.40349 0
M  V30 1383 H 135.493 4.89869 -1.14182 0
M  V30 1384 H 135.193 5.11962 -2.88389 0
M  V30 1385 H 136.717 5.71028 -2.1624 0
M  V30 1386 H 138.131 4.22203 -3.87837 0
M  V30 1387 H 136.528 3.86961 -4.58673 0
M  V30 1388 H 137.598 2.52954 -4.13693 0
M  V30 1389 N 138.941 1.26152 0.944643 0
M  V30 1390 C 140.171 1.14094 1.72239 0
M  V30 1391 C 140.579 -0.306931 1.86694 0
M  V30 1392 O 139.922 -1.22222 1.3714 0
M  V30 1393 C 139.984 1.73316 3.14963 0
M  V30 1394 C 139.648 3.2239 3.23904 0
M  V30 1395 C 140.645 4.19252 3.07447 0
M  V30 1396 C 138.33 3.62788 3.47405 0
M  V30 1397 C 140.324 5.54491 3.14353 0
M  V30 1398 C 138.011 4.98162 3.53947 0
M  V30 1399 C 139.009 5.93823 3.37436 0
M  V30 1400 O 138.697 7.26732 3.43679 0
M  V30 1401 H 138.429 0.398292 0.546205 0
M  V30 1402 H 140.983 1.67201 1.19301 0
M  V30 1403 H 139.213 1.14667 3.69308 0
M  V30 1404 H 140.902 1.56214 3.74636 0
M  V30 1405 H 141.668 3.8938 2.8915 0
M  V30 1406 H 137.547 2.88816 3.59313 0
M  V30 1407 H 141.091 6.29137 3.01384 0
M  V30 1408 H 136.988 5.27695 3.71763 0
M  V30 1409 H 137.756 7.3496 3.60245 0
M  V30 1410 N 140.419 -1.14872 1.07899 0
M  V30 1411 C 141.696 -1.81928 0.71845 0
M  V30 1412 C 142.076 -1.95417 -0.798455 0
M  V30 1413 O 141.424 -1.50997 -1.715 0
M  V30 1414 C 141.634 -3.17937 1.43935 0
M  V30 1415 C 142.982 -3.93501 1.59506 0
M  V30 1416 O 144.006 -3.27509 1.40058 0
M  V30 1417 O 142.865 -5.1183 1.91551 0
M  V30 1418 H 139.959 -0.78628 0.256305 0
M  V30 1419 H 142.505 -1.21934 1.18026 0
M  V30 1420 H 141.277 -3.0325 2.47295 0
M  V30 1421 H 140.9 -3.85619 0.968687 0
M  V30 1422 N 141.898 -0.863906 -1.31812 0
M  V30 1423 C 143.144 -0.472535 -1.97218 0
M  V30 1424 C 143.477 0.971394 -1.68159 0
M  V30 1425 O 142.752 1.68309 -0.974798 0
M  V30 1426 C 143.035 -0.723054 -3.52766 0
M  V30 1427 C 142.888 -2.21608 -3.91421 0
M  V30 1428 C 144.207 -0.185522 -4.39709 0
M  V30 1429 H 141.326 -0.173158 -0.71637 0
M  V30 1430 H 143.968 -1.08403 -1.56041 0
M  V30 1431 H 142.118 -0.202577 -3.87971 0
M  V30 1432 H 143.79 -2.80334 -3.66347 0
M  V30 1433 H 142.033 -2.691 -3.40246 0
M  V30 1434 H 142.704 -2.34203 -4.99853 0
M  V30 1435 H 145.18 -0.630726 -4.11292 0
M  V30 1436 H 144.056 -0.390306 -5.47511 0
M  V30 1437 H 144.317 0.912229 -4.32586 0
M  V30 1438 N 143.376 1.44774 -0.622745 0
M  V30 1439 C 144.306 2.33382 0.0741861 0
M  V30 1440 C 145.287 1.47719 0.843387 0
M  V30 1441 O 146.472 1.76458 0.810934 0
M  V30 1442 C 143.602 3.30663 1.06204 0
M  V30 1443 C 142.556 4.26079 0.405037 0
M  V30 1444 C 141.882 5.13165 1.5022 0
M  V30 1445 C 143.182 5.1781 -0.683414 0
M  V30 1446 H 144.876 2.91905 -0.665713 0
M  V30 1447 H 142.422 1.40363 -0.321587 0
M  V30 1448 H 144.375 3.9153 1.55827 0
M  V30 1449 H 143.099 2.70331 1.83272 0
M  V30 1450 H 141.758 3.66532 -0.0704683 0
M  V30 1451 H 141.406 4.49191 2.26355 0
M  V30 1452 H 141.106 5.77812 1.06803 0
M  V30 1453 H 142.63 5.76902 2.00041 0
M  V30 1454 H 144.044 5.72661 -0.270631 0
M  V30 1455 H 142.441 5.91015 -1.04023 0
M  V30 1456 H 143.511 4.59326 -1.55395 0
M  V30 1457 N 144.854 0.36279 1.53368 0
M  V30 1458 C 146.27 0.0116182 1.59596 0
M  V30 1459 C 146.47 -1.47012 1.37803 0
M  V30 1460 O 145.526 -2.23136 1.18181 0
M  V30 1461 C 146.839 0.465052 2.97082 0
M  V30 1462 C 148.387 0.419033 3.10182 0
M  V30 1463 C 148.862 0.848235 4.50077 0
M  V30 1464 N 150.353 0.803183 4.56183 0
M  V30 1465 C 151.088 1.107 5.62613 0
M  V30 1466 N 150.584 1.47996 6.76808 0
M  V30 1467 N 152.377 1.02998 5.52583 0
M  V30 1468 H 144.528 1.32775 1.65785 0
M  V30 1469 H 146.791 0.542518 0.777417 0
M  V30 1470 H 146.497 1.49892 3.18159 0
M  V30 1471 H 146.371 -0.149786 3.76902 0
M  V30 1472 H 148.758 -0.605696 2.88817 0
M  V30 1473 H 148.839 1.06933 2.32377 0
M  V30 1474 H 148.483 1.87107 4.7218 0
M  V30 1475 H 148.413 0.175218 5.26308 0
M  V30 1476 H 150.904 0.52838 3.74188 0
M  V30 1477 H 151.217 1.69613 7.53957 0
M  V30 1478 H 149.562 1.51859 6.78206 0
M  V30 1479 H 152.753 0.737817 4.62249 0
M  V30 1480 H 152.926 1.2701 6.35431 0
M  V30 1481 N 146.332 -1.57332 0.0918853 0
M  V30 1482 C 147.295 -2.12708 -0.85369 0
M  V30 1483 C 148.295 -1.05561 -1.213 0
M  V30 1484 O 149.485 -1.31461 -1.14296 0
M  V30 1485 C 146.617 -2.64503 -2.15061 0
M  V30 1486 H 147.81 -2.97573 -0.3729 0
M  V30 1487 H 145.363 -1.55509 -0.157072 0
M  V30 1488 H 146.098 -1.83149 -2.67632 0
M  V30 1489 H 145.883 -3.4284 -1.90272 0
M  V30 1490 H 147.373 -3.07351 -2.82711 0
M  V30 1491 N 147.81 0.181792 -1.56548 0
M  V30 1492 C 149.056 0.901431 -1.81665 0
M  V30 1493 C 149.389 1.82347 -0.668075 0
M  V30 1494 O 148.664 1.91669 0.330615 0
M  V30 1495 C 148.947 1.70618 -3.17115 0
M  V30 1496 C 148.8 0.807964 -4.42484 0
M  V30 1497 C 150.119 2.67605 -3.49393 0
M  V30 1498 H 147.238 0.32627 -0.660846 0
M  V30 1499 H 149.88 0.168134 -1.89255 0
M  V30 1500 H 148.03 2.33133 -3.10775 0
M  V30 1501 H 149.702 0.19649 -4.60881 0
M  V30 1502 H 147.945 0.115411 -4.33646 0
M  V30 1503 H 148.616 1.40632 -5.33785 0
M  V30 1504 H 151.092 2.15218 -3.56118 0
M  V30 1505 H 149.968 3.20985 -4.45264 0
M  V30 1506 H 150.229 3.47298 -2.73563 0
M  V30 1507 N 149.288 1.51039 0.449983 0
M  V30 1508 C 150.699 1.557 1.03026 0
M  V30 1509 C 151.05 0.372939 1.92623 0
M  V30 1510 O 150.175 -0.511771 2.10261 0
M  V30 1511 C 150.77 2.82171 1.87523 0
M  V30 1512 C 149.329 2.89444 2.40622 0
M  V30 1513 C 148.476 2.50228 1.19504 0
M  V30 1514 H 151.427 1.56999 0.231745 0
M  V30 1515 H 151.448 2.65219 2.72835 0
M  V30 1516 H 150.96 3.68331 1.22286 0
M  V30 1517 H 149.061 2.07685 3.0935 0
M  V30 1518 H 149.174 3.92816 2.74285 0
M  V30 1519 H 147.538 2.03139 1.53644 0
M  V30 1520 H 148.321 3.38719 0.558972 0
M  V30 1521 N 150.766 -0.704594 1.40972 0
M  V30 1522 C 151.716 -1.81051 1.38581 0
M  V30 1523 C 152.7 -1.58759 0.261585 0
M  V30 1524 O 153.892 -1.69745 0.501556 0
M  V30 1525 C 151.021 -3.19279 1.26157 0
M  V30 1526 C 150.107 -3.47296 2.43405 0
M  V30 1527 N 150.498 -3.46064 3.68881 0
M  V30 1528 C 148.796 -3.77804 2.37023 0
M  V30 1529 C 149.497 -3.72733 4.46592 0
M  V30 1530 N 148.473 -3.9203 3.76581 0
M  V30 1531 H 152.275 -1.78448 2.33525 0
M  V30 1532 H 149.789 -0.904198 1.349 0
M  V30 1533 H 151.786 -3.98488 1.22526 0
M  V30 1534 H 150.446 -3.231 0.321902 0
M  V30 1535 H 151.457 -3.26656 4.01891 0
M  V30 1536 H 148.134 -3.8905 1.51481 0
M  V30 1537 H 149.524 -3.77993 5.55492 0
M  V30 1538 N 152.244 -1.26651 -0.937939 0
M  V30 1539 C 153.655 -1.1125 -1.49934 0
M  V30 1540 C 154.006 0.306077 -1.93798 0
M  V30 1541 O 153.131 1.19792 -1.80219 0
M  V30 1542 C 153.726 -2.01339 -2.72485 0
M  V30 1543 C 152.285 -1.90074 -3.24883 0
M  V30 1544 C 151.432 -1.94498 -1.97651 0
M  V30 1545 H 154.383 -1.39693 -0.753091 0
M  V30 1546 H 154.404 -1.56319 -3.46907 0
M  V30 1547 H 153.916 -3.04577 -2.40529 0
M  V30 1548 H 152.017 -0.897827 -3.61621 0
M  V30 1549 H 152.13 -2.75778 -3.9177 0
M  V30 1550 H 150.494 -1.38591 -2.13693 0
M  V30 1551 H 151.277 -2.99372 -1.68022 0
M  V30 1552 N 153.722 1.14298 -1.08507 0
M  V30 1553 C 154.999 1.81544 -0.728088 0
M  V30 1554 C 155.379 1.95838 0.78808 0
M  V30 1555 O 154.727 1.51904 1.70697 0
M  V30 1556 C 154.937 3.17169 -1.45619 0
M  V30 1557 C 156.285 3.9265 -1.61591 0
M  V30 1558 O 157.309 3.26762 -1.41793 0
M  V30 1559 O 156.168 5.10807 -1.94263 0
M  V30 1560 H 153.262 0.78491 -0.260471 0
M  V30 1561 H 155.808 1.21307 -1.18671 0
M  V30 1562 H 154.58 3.01934 -2.489 0
M  V30 1563 H 154.203 3.851 -0.989124 0
M  V30 1564 N 155.201 0.870884 1.31352 0
M  V30 1565 C 156.426 0.495957 2.01383 0
M  V30 1566 C 156.851 -0.904324 1.64935 0
M  V30 1567 O 156.209 -1.59687 0.858466 0
M  V30 1568 C 156.257 0.661433 3.54482 0
M  V30 1569 O 155.361 -0.298851 4.11316 0
M  V30 1570 H 154.702 0.197158 0.634054 0
M  V30 1571 H 157.232 1.17455 1.67527 0
M  V30 1572 H 157.242 0.555072 4.04207 0
M  V30 1573 H 155.917 1.68246 3.8035 0
M  V30 1574 H 154.494 -0.147368 3.72609 0
M  V30 1575 N 156.679 -1.44442 0.630414 0
M  V30 1576 C 157.611 -2.2892 -0.113347 0
M  V30 1577 C 158.624 -1.41243 -0.80959 0
M  V30 1578 O 159.813 -1.65402 -0.671156 0
M  V30 1579 C 156.913 -3.17594 -1.18266 0
M  V30 1580 C 156.086 -4.33682 -0.569073 0
M  V30 1581 C 155.145 -5.03397 -1.53226 0
M  V30 1582 O 154.171 -5.59438 -1.04967 0
M  V30 1583 N 155.373 -5.04783 -2.86661 0
M  V30 1584 H 158.138 -2.93392 0.611636 0
M  V30 1585 H 155.699 -1.54881 0.471523 0
M  V30 1586 H 157.691 -3.61097 -1.82732 0
M  V30 1587 H 156.261 -2.54876 -1.80988 0
M  V30 1588 H 155.481 -3.9338 0.254187 0
M  V30 1589 H 156.769 -5.08608 -0.139767 0
M  V30 1590 H 156.167 -4.60584 -3.28449 0
M  V30 1591 H 154.724 -5.52077 -3.46489 0
M  V30 1592 N 158.157 -0.370918 -1.53173 0
M  V30 1593 C 159.568 0.107139 -1.86392 0
M  V30 1594 C 159.919 1.47714 -1.29132 0
M  V30 1595 O 159.044 2.07464 -0.615439 0
M  V30 1596 C 159.639 0.201187 -3.38202 0
M  V30 1597 C 158.198 0.623507 -3.712 0
M  V30 1598 C 157.345 -0.225978 -2.76378 0
M  V30 1599 H 160.296 -0.58951 -1.47345 0
M  V30 1600 H 160.317 1.02377 -3.66468 0
M  V30 1601 H 159.829 -0.796058 -3.79848 0
M  V30 1602 H 157.93 1.62879 -3.35114 0
M  V30 1603 H 158.043 0.394414 -4.77474 0
M  V30 1604 H 156.407 0.305962 -2.52856 0
M  V30 1605 H 157.19 -1.22086 -3.20858 0
M  V30 1606 N 159.635 1.57281 -0.100228 0
M  V30 1607 C 160.912 1.86014 0.604812 0
M  V30 1608 C 161.292 0.998025 1.86018 0
M  V30 1609 O 160.64 0.0718184 2.28387 0
M  V30 1610 C 160.85 3.36784 0.915278 0
M  V30 1611 C 162.198 4.04957 1.27651 0
M  V30 1612 O 163.222 3.41695 1.00613 0
M  V30 1613 O 162.081 5.16593 1.7831 0
M  V30 1614 H 159.175 0.76942 0.303185 0
M  V30 1615 H 161.721 1.69176 -0.133313 0
M  V30 1616 H 160.493 3.91292 0.0248896 0
M  V30 1617 H 160.116 3.58987 1.70921 0
M  V30 1618 N 161.113 -0.173488 1.56642 0
M  V30 1619 C 162.341 -0.906095 1.86004 0
M  V30 1620 C 162.756 -1.75921 0.685355 0
M  V30 1621 O 162.113 -1.79198 -0.345578 0
M  V30 1622 C 162.164 -1.78462 3.14378 0
M  V30 1623 O 161.885 -0.965914 4.27319 0
M  V30 1624 C 163.386 -2.62707 3.57071 0
M  V30 1625 H 160.606 -0.263341 0.617165 0
M  V30 1626 H 163.15 -0.174236 2.03756 0
M  V30 1627 H 161.305 -2.46984 2.98459 0
M  V30 1628 H 161.719 -1.56655 5.00559 0
M  V30 1629 H 163.193 -3.19969 4.49804 0
M  V30 1630 H 163.67 -3.37472 2.81086 0
M  V30 1631 H 164.276 -1.99521 3.75595 0
M  V30 1632 N 162.591 -1.51276 -0.441967 0
M  V30 1633 C 163.84 -1.6295 -1.18871 0
M  V30 1634 C 164.153 -0.349312 -1.92456 0
M  V30 1635 O 165.359 -0.345355 -2.69295 0
M  V30 1636 C 163.815 -2.87759 -2.16155 0
M  V30 1637 C 163.423 -4.22764 -1.48239 0
M  V30 1638 C 165.167 -3.08788 -2.91291 0
M  V30 1639 C 163.074 -5.38728 -2.4398 0
M  V30 1640 H 162.004 -0.606913 -0.447406 0
M  V30 1641 H 164.655 -1.77739 -0.456205 0
M  V30 1642 H 163.037 -2.66593 -2.92821 0
M  V30 1643 H 164.211 -4.54293 -0.771635 0
M  V30 1644 H 162.526 -4.07575 -0.852741 0
M  V30 1645 H 165.123 -3.92599 -3.63002 0
M  V30 1646 H 165.466 -2.21679 -3.5237 0
M  V30 1647 H 165.999 -3.30272 -2.21733 0
M  V30 1648 H 162.738 -6.28082 -1.87598 0
M  V30 1649 H 162.258 -5.1158 -3.13123 0
M  V30 1650 H 163.937 -5.70489 -3.05207 0
M  V30 1651 N 164.069 0.697108 -1.41344 0
M  V30 1652 C 165.346 1.45154 -1.31109 0
M  V30 1653 C 165.726 2.11009 0.0620449 0
M  V30 1654 O 165.074 2.01571 1.07618 0
M  V30 1655 C 165.284 2.47223 -2.46337 0
M  V30 1656 C 166.632 3.1252 -2.87431 0
M  V30 1657 O 167.656 2.57547 -2.46065 0
M  V30 1658 O 166.515 4.12083 -3.58957 0
M  V30 1659 H 163.609 0.646365 -0.515889 0
M  V30 1660 H 166.155 0.727716 -1.53305 0
M  V30 1661 H 164.927 1.97204 -3.37974 0
M  V30 1662 H 164.55 3.27116 -2.2601 0
M  V30 1663 N 165.547 1.27147 0.931209 0
M  V30 1664 C 166.497 1.06227 2.01742 0
M  V30 1665 C 167.481 -0.00859065 1.60898 0
M  V30 1666 O 168.673 0.209537 1.75755 0
M  V30 1667 C 165.802 0.707787 3.35924 0
M  V30 1668 C 164.888 1.81661 3.83223 0
M  V30 1669 N 165.279 3.05564 4.03069 0
M  V30 1670 C 163.577 1.70249 4.12227 0
M  V30 1671 C 164.278 3.77697 4.42403 0
M  V30 1672 N 163.254 3.0544 4.49675 0
M  V30 1673 H 167.056 2.00261 2.15111 0
M  V30 1674 H 164.57 1.1781 1.11779 0
M  V30 1675 H 166.567 0.539043 4.134 0
M  V30 1676 H 165.227 -0.224964 3.2392 0
M  V30 1677 H 166.238 3.41363 3.89476 0
M  V30 1678 H 162.915 0.840329 4.08956 0
M  V30 1679 H 164.305 4.84168 4.65866 0
M  V30 1680 N 167.025 -1.13721 1.09112 0
M  V30 1681 C 168.302 -1.81155 0.737706 0
M  V30 1682 C 168.682 -1.96253 -0.777683 0
M  V30 1683 O 168.03 -1.52807 -1.69889 0
M  V30 1684 C 168.24 -3.16392 1.47299 0
M  V30 1685 C 169.588 -3.91787 1.63671 0
M  V30 1686 O 170.612 -3.26005 1.43524 0
M  V30 1687 O 169.471 -5.0977 1.96969 0
M  V30 1688 H 166.565 -0.783518 0.26463 0
M  V30 1689 H 169.111 -1.20676 1.19312 0
M  V30 1690 H 167.883 -3.0061 2.50498 0
M  V30 1691 H 167.506 -3.8457 1.00953 0
M  V30 1692 N 168.503 -0.877838 -1.30888 0
M  V30 1693 C 169.433 -0.35534 -2.3078 0
M  V30 1694 C 170.414 0.557994 -1.60687 0
M  V30 1695 O 171.599 0.473355 -1.88343 0
M  V30 1696 C 168.729 0.437221 -3.44537 0
M  V30 1697 C 167.683 -0.383715 -4.26276 0
M  V30 1698 C 167.009 0.535014 -5.32017 0
M  V30 1699 C 168.309 -1.62201 -4.96476 0
M  V30 1700 H 170.003 -1.19007 -2.74732 0
M  V30 1701 H 167.549 -0.573698 -1.32078 0
M  V30 1702 H 169.502 0.813334 -4.13477 0
M  V30 1703 H 168.226 1.30553 -2.99372 0
M  V30 1704 H 166.885 -0.741874 -3.59015 0
M  V30 1705 H 166.533 1.40083 -4.831 0
M  V30 1706 H 166.233 -0.0104211 -5.87599 0
M  V30 1707 H 167.757 0.907799 -6.03814 0
M  V30 1708 H 169.171 -1.31689 -5.5797 0
M  V30 1709 H 167.568 -2.10711 -5.61891 0
M  V30 1710 H 168.638 -2.37044 -4.23011 0
M  V30 1711 N 169.982 1.44106 -0.638065 0
M  V30 1712 C 170.912 2.33448 0.0494287 0
M  V30 1713 C 171.893 1.48606 0.827672 0
M  V30 1714 O 173.078 1.77308 0.792173 0
M  V30 1715 C 170.208 3.31771 1.02691 0
M  V30 1716 C 169.162 4.26485 0.359823 0
M  V30 1717 C 168.488 5.14729 1.44769 0
M  V30 1718 C 169.788 5.17056 -0.738296 0
M  V30 1719 H 171.482 2.91183 -0.696636 0
M  V30 1720 H 169.028 1.40014 -0.336456 0
M  V30 1721 H 170.981 3.93161 1.51666 0
M  V30 1722 H 169.705 2.7226 1.80395 0
M  V30 1723 H 168.364 3.66437 -0.10934 0
M  V30 1724 H 168.012 4.51566 2.21578 0
M  V30 1725 H 167.712 5.78913 1.00668 0
M  V30 1726 H 169.236 5.78991 1.93911 0
M  V30 1727 H 170.65 5.72342 -0.331354 0
M  V30 1728 H 169.047 5.89879 -1.10286 0
M  V30 1729 H 170.117 4.57652 -1.60258 0
M  V30 1730 N 171.46 0.379036 1.52974 0
M  V30 1731 C 172.39 -0.452706 2.29069 0
M  V30 1732 C 173.371 -1.07237 1.32039 0
M  V30 1733 O 174.556 -1.08708 1.60923 0
M  V30 1734 C 171.686 -1.5856 3.08992 0
M  V30 1735 C 170.64 -1.0925 4.13822 0
M  V30 1736 C 169.966 -2.31668 4.81907 0
M  V30 1737 C 171.266 -0.167702 5.22031 0
M  V30 1738 H 172.96 0.182181 2.98845 0
M  V30 1739 H 170.506 0.0890592 1.43724 0
M  V30 1740 H 172.459 -2.1742 3.6098 0
M  V30 1741 H 171.183 -2.24792 2.36931 0
M  V30 1742 H 169.842 -0.526494 3.628 0
M  V30 1743 H 169.49 -2.96386 4.06404 0
M  V30 1744 H 169.19 -1.9934 5.52754 0
M  V30 1745 H 170.714 -2.91189 5.36695 0
M  V30 1746 H 172.128 -0.664186 5.6944 0
M  V30 1747 H 170.525 0.0653265 6.00064 0
M  V30 1748 H 171.595 0.786347 4.78482 0
M  V30 1749 N 172.938 -1.57226 0.108567 0
M  V30 1750 C 173.868 -2.17778 -0.84232 0
M  V30 1751 C 174.849 -1.11487 -1.2847 0
M  V30 1752 O 176.034 -1.39681 -1.34918 0
M  V30 1753 C 173.164 -2.76888 -2.09644 0
M  V30 1754 C 172.118 -3.88669 -1.79221 0
M  V30 1755 C 171.444 -4.34541 -3.11574 0
M  V30 1756 C 172.744 -5.11251 -1.06864 0
M  V30 1757 H 174.438 -2.97489 -0.337774 0
M  V30 1758 H 171.984 -1.43097 -0.161025 0
M  V30 1759 H 173.937 -3.17904 -2.76614 0
M  V30 1760 H 172.661 -1.94451 -2.62405 0
M  V30 1761 H 171.32 -3.48213 -1.14644 0
M  V30 1762 H 170.968 -3.48977 -3.62249 0
M  V30 1763 H 170.668 -5.09914 -2.91996 0
M  V30 1764 H 172.192 -4.782 -3.7968 0
M  V30 1765 H 173.606 -5.49352 -1.63968 0
M  V30 1766 H 172.003 -5.9214 -0.974178 0
M  V30 1767 H 173.073 -4.8487 -0.0536168 0
M  V30 1768 N 174.416 0.165178 -1.56732 0
M  V30 1769 C 175.348 1.22911 -1.93457 0
M  V30 1770 C 176.361 1.40152 -0.828333 0
M  V30 1771 O 177.55 1.40046 -1.10677 0
M  V30 1772 C 174.65 2.59686 -2.17753 0
M  V30 1773 C 173.823 2.63663 -3.48999 0
M  V30 1774 C 172.882 3.81845 -3.62051 0
M  V30 1775 O 171.908 3.67559 -4.34613 0
M  V30 1776 N 173.11 4.98557 -2.97357 0
M  V30 1777 H 175.875 0.917118 -2.85323 0
M  V30 1778 H 173.436 0.354895 -1.57962 0
M  V30 1779 H 175.428 3.37225 -2.23743 0
M  V30 1780 H 173.998 2.83251 -1.32242 0
M  V30 1781 H 173.218 1.72173 -3.54612 0
M  V30 1782 H 174.506 2.63336 -4.35352 0
M  V30 1783 H 173.904 5.13065 -2.38287 0
M  V30 1784 H 172.461 5.73936 -3.08934 0
M  V30 1785 N 175.894 1.51508 0.433938 0
M  V30 1786 C 176.824 1.76016 1.53429 0
M  V30 1787 C 177.805 0.610112 1.58782 0
M  V30 1788 O 178.99 0.853177 1.74455 0
M  V30 1789 C 176.12 1.88831 2.9148 0
M  V30 1790 C 175.074 3.04288 3.00987 0
M  V30 1791 C 174.4 3.0229 4.4105 0
M  V30 1792 C 175.7 4.44193 2.74754 0
M  V30 1793 H 177.394 2.68152 1.33171 0
M  V30 1794 H 174.94 1.29035 0.639214 0
M  V30 1795 H 176.893 2.04559 3.6842 0
M  V30 1796 H 175.617 0.933455 3.12976 0
M  V30 1797 H 174.276 2.8827 2.26486 0
M  V30 1798 H 173.924 2.04576 4.59519 0
M  V30 1799 H 173.624 3.79822 4.4834 0
M  V30 1800 H 175.148 3.20116 5.1996 0
M  V30 1801 H 176.562 4.60544 3.41426 0
M  V30 1802 H 174.959 5.23457 2.9345 0
M  V30 1803 H 176.029 4.53996 1.70339 0
M  V30 1804 N 177.372 -0.689602 1.41712 0
M  V30 1805 C 178.597 -1.48329 1.44959 0
M  V30 1806 C 179.022 -1.8801 0.0581283 0
M  V30 1807 O 178.38 -1.55026 -0.940035 0
M  V30 1808 C 178.428 -2.71835 2.36935 0
M  V30 1809 O 177.532 -3.69549 1.8305 0
M  V30 1810 H 176.873 -0.446199 0.491734 0
M  V30 1811 H 179.403 -0.847127 1.86239 0
M  V30 1812 H 179.413 -3.20076 2.53013 0
M  V30 1813 H 178.088 -2.42291 3.38035 0
M  V30 1814 H 176.665 -3.2851 1.76452 0
M  V30 1815 N 178.85 -1.27639 -0.924453 0
M  V30 1816 C 179.76 -1.12466 -2.05885 0
M  V30 1817 C 180.776 -0.053869 -1.73917 0
M  V30 1818 O 181.952 -0.261012 -1.99702 0
M  V30 1819 C 179.017 -0.776768 -3.37886 0
M  V30 1820 C 178.078 -1.92878 -3.83532 0
M  V30 1821 C 177.311 -1.59739 -5.09234 0
M  V30 1822 O 177.534 -0.506782 -5.68144 0
M  V30 1823 O 176.468 -2.43761 -5.50331 0
M  V30 1824 H 180.294 -2.07671 -2.21599 0
M  V30 1825 H 177.879 -1.06857 -1.04413 0
M  V30 1826 H 179.761 -0.596229 -4.17161 0
M  V30 1827 H 178.436 0.145732 -3.23372 0
M  V30 1828 H 177.343 -2.1644 -3.0513 0
M  V30 1829 H 178.676 -2.8316 -4.02593 0
M  V30 1830 N 180.328 1.1314 -1.09713 0
M  V30 1831 C 181.275 2.18642 -0.739196 0
M  V30 1832 C 182.245 1.63706 0.280978 0
M  V30 1833 O 183.43 1.90111 0.161946 0
M  V30 1834 C 180.57 3.44685 -0.169102 0
M  V30 1835 C 179.683 4.13711 -1.24367 0
M  V30 1836 C 178.818 5.27379 -0.636019 0
M  V30 1837 C 177.857 5.88259 -1.69169 0
M  V30 1838 N 176.994 6.93352 -1.10485 0
M  V30 1839 H 181.834 2.48607 -1.64312 0
M  V30 1840 H 179.371 1.22066 -0.820875 0
M  V30 1841 H 181.329 4.16815 0.179256 0
M  V30 1842 H 179.959 3.15161 0.698079 0
M  V30 1843 H 179.011 3.39835 -1.70927 0
M  V30 1844 H 180.323 4.55037 -2.04311 0
M  V30 1845 H 179.477 6.06238 -0.236677 0
M  V30 1846 H 178.216 4.8731 0.194928 0
M  V30 1847 H 177.221 5.08092 -2.10055 0
M  V30 1848 H 178.446 6.30399 -2.52536 0
M  V30 1849 H 176.392 6.55335 -0.295234 0
M  V30 1850 H 176.309 7.33236 -1.84121 0
M  V30 1851 H 177.577 7.76057 -0.73181 0
M  V30 1852 N 181.806 0.884767 1.30421 0
M  V30 1853 C 182.769 0.356277 2.26414 0
M  V30 1854 C 183.769 -0.501124 1.52792 0
M  V30 1855 O 184.959 -0.30831 1.7145 0
M  V30 1856 C 182.091 -0.492316 3.37326 0
M  V30 1857 H 183.284 1.20389 2.74675 0
M  V30 1858 H 180.837 0.661607 1.41607 0
M  V30 1859 H 181.572 -1.36052 2.94381 0
M  V30 1860 H 181.357 0.121832 3.91911 0
M  V30 1861 H 182.847 -0.853871 4.08777 0
M  V30 1862 N 183.284 -1.43765 0.645699 0
M  V30 1863 C 184.512 -2.06253 0.163556 0
M  V30 1864 C 184.927 -1.48352 -1.16778 0
M  V30 1865 O 184.284 -0.611932 -1.71935 0
M  V30 1866 C 184.335 -3.61453 0.0583186 0
M  V30 1867 O 184.056 -4.172 1.33702 0
M  V30 1868 C 185.557 -4.41002 -0.450795 0
M  V30 1869 H 182.777 -0.665413 0.0864077 0
M  V30 1870 H 185.321 -1.84396 0.884222 0
M  V30 1871 H 183.476 -3.82522 -0.612865 0
M  V30 1872 H 183.89 -5.10791 1.19131 0
M  V30 1873 H 185.364 -5.49966 -0.473403 0
M  V30 1874 H 185.841 -4.13488 -1.48068 0
M  V30 1875 H 186.447 -4.24886 0.187637 0
M  V30 1876 N 184.763 -0.387143 -1.52771 0
M  V30 1877 C 185.693 0.440551 -2.29306 0
M  V30 1878 C 186.674 1.06535 -1.32606 0
M  V30 1879 O 187.859 1.07853 -1.61497 0
M  V30 1880 C 184.989 1.56919 -3.09829 0
M  V30 1881 C 183.943 1.07054 -4.14395 0
M  V30 1882 C 183.269 2.29109 -4.83129 0
M  V30 1883 C 184.569 0.140015 -5.22112 0
M  V30 1884 H 186.263 -0.198026 -2.98744 0
M  V30 1885 H 183.809 -0.09668 -1.43675 0
M  V30 1886 H 185.762 2.15503 -3.62128 0
M  V30 1887 H 184.486 2.23532 -2.3812 0
M  V30 1888 H 183.145 0.507247 -3.63074 0
M  V30 1889 H 182.793 2.94227 -4.0797 0
M  V30 1890 H 182.493 1.96406 -5.53804 0
M  V30 1891 H 184.017 2.88339 -5.38231 0
M  V30 1892 H 185.431 0.633978 -5.69784 0
M  V30 1893 H 183.828 -0.0971485 -6.00021 0
M  V30 1894 H 184.898 -0.811711 -4.78058 0
M  V30 1895 N 186.241 1.57166 -0.116904 0
M  V30 1896 C 187.489 1.94737 0.540533 0
M  V30 1897 C 187.81 1.00096 1.67349 0
M  V30 1898 O 187.08 0.0568854 1.95817 0
M  V30 1899 H 185.66 0.718981 0.202669 0
M  V30 1900 H 188.322 1.94017 -0.185353 0
M  V30 1901 H 187.418 2.97719 0.936483 0
M  V30 1902 N 187.719 -0.156864 1.56817 0
M  V30 1903 C 189.13 -0.717916 1.72345 0
M  V30 1904 C 189.481 -1.82124 0.729747 0
M  V30 1905 O 188.606 -2.16141 -0.105781 0
M  V30 1906 C 189.201 -1.30904 3.12489 0
M  V30 1907 C 187.76 -1.81676 3.29653 0
M  V30 1908 C 186.907 -0.701349 2.68284 0
M  V30 1909 H 189.858 0.0686989 1.58551 0
M  V30 1910 H 189.879 -2.17882 3.11942 0
M  V30 1911 H 189.391 -0.505796 3.8479 0
M  V30 1912 H 187.492 -2.64598 2.62333 0
M  V30 1913 H 187.605 -1.95226 4.3752 0
M  V30 1914 H 185.969 -1.12548 2.28484 0
M  V30 1915 H 186.752 0.0902846 3.43181 0
M  V30 1916 N 189.197 -1.51736 -0.425897 0
M  V30 1917 C 190.16 -1.73271 -1.50032 0
M  V30 1918 C 191.16 -0.602639 -1.4908 0
M  V30 1919 O 192.35 -0.87033 -1.509 0
M  V30 1920 C 189.482 -1.79969 -2.89523 0
M  V30 1921 H 190.675 -2.69172 -1.32237 0
M  V30 1922 H 188.228 -1.41899 -0.65532 0
M  V30 1923 H 188.963 -0.859241 -3.1271 0
M  V30 1924 H 188.748 -2.62109 -2.91619 0
M  V30 1925 H 190.238 -1.9843 -3.67444 0
M  V30 1926 N 190.675 0.682077 -1.42076 0
M  V30 1927 C 191.921 1.44428 -1.42367 0
M  V30 1928 C 192.254 1.94164 -0.0373056 0
M  V30 1929 O 191.529 1.70429 0.937239 0
M  V30 1930 C 191.812 2.64654 -2.44194 0
M  V30 1931 C 191.665 2.20596 -3.91991 0
M  V30 1932 C 192.984 3.66865 -2.431 0
M  V30 1933 H 190.103 0.523834 -0.518428 0
M  V30 1934 H 192.745 0.77576 -1.73442 0
M  V30 1935 H 190.895 3.2169 -2.17826 0
M  V30 1936 H 192.567 1.68783 -4.29313 0
M  V30 1937 H 190.81 1.52242 -4.06208 0
M  V30 1938 H 191.481 3.06921 -4.58807 0
M  V30 1939 H 193.957 3.19531 -2.66532 0
M  V30 1940 H 192.833 4.48577 -3.16339 0
M  V30 1941 H 193.094 4.17493 -1.45437 0
M  V30 1942 N 192.153 1.28127 0.917671 0
M  V30 1943 C 193.569 1.05749 1.19538 0
M  V30 1944 C 193.769 -0.202633 2.00479 0
M  V30 1945 O 192.825 -0.905382 2.3571 0
M  V30 1946 C 194.138 2.30273 1.93378 0
M  V30 1947 C 195.686 2.35412 2.06277 0
M  V30 1948 C 196.161 3.59692 2.83524 0
M  V30 1949 N 197.652 3.60309 2.91087 0
M  V30 1950 C 198.387 4.53147 3.51348 0
M  V30 1951 N 197.883 5.563 4.12919 0
M  V30 1952 N 199.676 4.40751 3.48849 0
M  V30 1953 H 191.827 2.09024 0.377184 0
M  V30 1954 H 194.09 0.919798 0.22951 0
M  V30 1955 H 193.796 3.22055 1.41328 0
M  V30 1956 H 193.67 2.36378 2.93947 0
M  V30 1957 H 196.057 1.4413 2.57508 0
M  V30 1958 H 196.138 2.33304 1.04895 0
M  V30 1959 H 195.782 4.51316 2.32973 0
M  V30 1960 H 195.712 3.59054 3.85211 0
M  V30 1961 H 198.203 2.85714 2.47338 0
M  V30 1962 H 198.516 6.2329 4.56869 0
M  V30 1963 H 196.861 5.60131 4.11435 0
M  V30 1964 H 200.052 3.59367 2.99955 0
M  V30 1965 H 200.225 5.13291 3.9552 0
M  V30 1966 N 193.631 -1.12557 1.10312 0
M  V30 1967 C 195.042 -1.65574 0.862678 0
M  V30 1968 C 195.393 -1.86566 -0.607256 0
M  V30 1969 O 194.518 -1.59121 -1.46662 0
M  V30 1970 C 195.113 -3.00776 1.55947 0
M  V30 1971 C 193.672 -3.50748 1.36576 0
M  V30 1972 C 192.819 -2.25797 1.60968 0
M  V30 1973 H 195.77 -0.963552 1.26101 0
M  V30 1974 H 195.791 -3.67185 0.997753 0
M  V30 1975 H 195.303 -2.85465 2.62928 0
M  V30 1976 H 193.404 -3.71245 0.317531 0
M  V30 1977 H 193.517 -4.30289 2.10686 0
M  V30 1978 H 191.881 -2.32841 1.03234 0
M  V30 1979 H 192.664 -2.13043 2.69198 0
M  V30 1980 N 195.109 -0.891671 -1.2995 0
M  V30 1981 C 196.039 -0.379797 -2.30391 0
M  V30 1982 C 197.02 0.540919 -1.6127 0
M  V30 1983 O 198.205 0.453352 -1.88834 0
M  V30 1984 C 195.335 0.400654 -3.44981 0
M  V30 1985 C 194.289 -0.428905 -4.25846 0
M  V30 1986 C 193.615 0.478557 -5.32554 0
M  V30 1987 C 194.915 -1.67458 -4.94727 0
M  V30 1988 H 196.609 -1.21914 -2.73454 0
M  V30 1989 H 194.155 -0.587675 -1.31462 0
M  V30 1990 H 196.108 0.769434 -4.14316 0
M  V30 1991 H 194.832 1.27371 -3.0074 0
M  V30 1992 H 193.491 -0.779911 -3.58208 0
M  V30 1993 H 193.139 1.34951 -4.84559 0
M  V30 1994 H 192.839 -0.0727433 -5.87555 0
M  V30 1995 H 194.363 0.843705 -6.04743 0
M  V30 1996 H 195.777 -1.376 -5.56542 0
M  V30 1997 H 194.174 -2.16659 -5.59624 0
M  V30 1998 H 195.244 -2.41518 -4.20473 0
M  V30 1999 N 196.587 1.43421 -0.653314 0
M  V30 2000 C 197.998 1.85065 -0.246537 0
M  V30 2001 C 198.349 1.54688 1.2069 0
M  V30 2002 O 197.474 0.995896 1.92122 0
M  V30 2003 C 198.069 3.35922 -0.440666 0
M  V30 2004 C 196.628 3.76297 -0.0882064 0
M  V30 2005 C 195.775 2.67147 -0.743484 0
M  V30 2006 H 198.726 1.33572 -0.856979 0
M  V30 2007 H 198.747 3.79204 0.313798 0
M  V30 2008 H 198.259 3.58 -1.49858 0
M  V30 2009 H 196.36 3.5983 0.96711 0
M  V30 2010 H 196.473 4.76338 -0.513738 0
M  V30 2011 H 194.837 2.54086 -0.176712 0
M  V30 2012 H 195.62 2.92053 -1.80443 0
M  V30 2013 N 198.065 0.39524 1.52563 0
M  V30 2014 C 199.311 -0.177763 2.02622 0
M  V30 2015 C 199.666 -1.43974 1.27629 0
M  V30 2016 O 198.959 -1.87995 0.36992 0
M  V30 2017 C 199.153 -0.493444 3.53977 0
M  V30 2018 C 198.982 0.736392 4.4363 0
M  V30 2019 C 197.752 1.25744 4.89404 0
M  V30 2020 C 199.95 1.61046 4.88435 0
M  V30 2021 N 197.932 2.44421 5.63145 0
M  V30 2022 C 199.303 2.64359 5.60816 0
M  V30 2023 C 201.358 1.62985 4.70468 0
M  V30 2024 C 200.061 3.69505 6.17137 0
M  V30 2025 C 202.087 2.67042 5.27677 0
M  V30 2026 C 201.449 3.69077 5.99968 0
M  V30 2027 H 197.548 -0.0269794 0.781534 0
M  V30 2028 H 200.132 0.546466 1.86874 0
M  V30 2029 H 198.303 -1.18672 3.69826 0
M  V30 2030 H 200.035 -1.05412 3.90731 0
M  V30 2031 H 196.79 0.817546 4.6649 0
M  V30 2032 H 197.214 3.04485 6.04663 0
M  V30 2033 H 201.856 0.854442 4.14076 0
M  V30 2034 H 199.574 4.4791 6.72608 0
M  V30 2035 H 203.16 2.69433 5.15652 0
M  V30 2036 H 202.04 4.48273 6.43444 0
M  V30 2037 N 199.544 -1.57102 0.125237 0
M  V30 2038 C 200.476 -2.12726 -0.853237 0
M  V30 2039 C 201.489 -1.07145 -1.22571 0
M  V30 2040 O 202.678 -1.34497 -1.17358 0
M  V30 2041 C 199.778 -2.61709 -2.15317 0
M  V30 2042 C 198.951 -3.91456 -1.95143 0
M  V30 2043 C 198.01 -4.25973 -3.08923 0
M  V30 2044 O 197.036 -4.94682 -2.81564 0
M  V30 2045 N 198.238 -3.83795 -4.35524 0
M  V30 2046 H 201.003 -2.97307 -0.377964 0
M  V30 2047 H 198.564 -1.61792 -0.0590011 0
M  V30 2048 H 200.556 -2.81826 -2.90441 0
M  V30 2049 H 199.126 -1.81974 -2.54174 0
M  V30 2050 H 198.346 -3.80185 -1.04177 0
M  V30 2051 H 199.634 -4.76283 -1.78976 0
M  V30 2052 H 199.032 -3.2839 -4.60626 0
M  V30 2053 H 197.589 -4.09008 -5.07499 0
M  V30 2054 N 201.022 0.148545 -1.56898 0
M  V30 2055 C 202.438 0.501131 -1.51528 0
M  V30 2056 C 202.638 1.83458 -0.833399 0
M  V30 2057 O 201.694 2.49259 -0.40328 0
M  V30 2058 C 203.007 0.512864 -2.96294 0
M  V30 2059 C 204.555 0.598487 -3.07225 0
M  V30 2060 C 205.03 0.640897 -4.53494 0
M  V30 2061 N 206.521 0.703163 -4.57832 0
M  V30 2062 C 207.256 0.756935 -5.68382 0
M  V30 2063 N 206.752 0.770147 -6.88506 0
M  V30 2064 N 208.545 0.797698 -5.56411 0
M  V30 2065 H 200.696 -0.725532 -1.99624 0
M  V30 2066 H 202.959 -0.264358 -0.910395 0
M  V30 2067 H 202.665 -0.398691 -3.49433 0
M  V30 2068 H 202.539 1.35133 -3.52163 0
M  V30 2069 H 204.926 1.50046 -2.54106 0
M  V30 2070 H 205.007 -0.267093 -2.54402 0
M  V30 2071 H 204.651 -0.256915 -5.0725 0
M  V30 2072 H 204.581 1.52295 -5.04097 0
M  V30 2073 H 207.072 0.700314 -3.71354 0
M  V30 2074 H 207.385 0.812983 -7.68512 0
M  V30 2075 H 205.73 0.738049 -6.9107 0
M  V30 2076 H 208.921 0.784535 -4.61479 0
M  V30 2077 H 209.094 0.83614 -6.42583 0
M  V30 2078 N 202.5 1.5196 0.417844 0
M  V30 2079 C 203.746 1.65836 1.16732 0
M  V30 2080 C 204.079 0.382881 1.90388 0
M  V30 2081 O 203.354 -0.618368 1.84408 0
M  V30 2082 C 203.637 2.87466 2.16876 0
M  V30 2083 C 203.49 4.25041 1.47174 0
M  V30 2084 C 204.809 3.04613 3.17646 0
M  V30 2085 H 201.928 0.603515 0.423011 0
M  V30 2086 H 204.57 1.84494 0.454105 0
M  V30 2087 H 202.72 2.71689 2.777 0
M  V30 2088 H 204.392 4.52527 0.895376 0
M  V30 2089 H 202.635 4.26843 0.773806 0
M  V30 2090 H 203.306 5.06176 2.20204 0
M  V30 2091 H 205.782 3.1923 2.66892 0
M  V30 2092 H 204.658 3.91247 3.8499 0
M  V30 2093 H 204.919 2.17541 3.84874 0
M  V30 2094 N 203.978 -0.674533 1.42435 0
M  V30 2095 C 205.255 -1.4305 1.33402 0
M  V30 2096 C 205.635 -2.11081 -0.0284674 0
M  V30 2097 O 204.983 -2.03257 -1.04397 0
M  V30 2098 C 205.193 -2.43272 2.50239 0
M  V30 2099 C 206.541 -3.07907 2.92367 0
M  V30 2100 O 207.565 -2.53599 2.50132 0
M  V30 2101 O 206.424 -4.0632 3.65467 0
M  V30 2102 H 203.518 -0.638076 0.526106 0
M  V30 2103 H 206.064 -0.703235 1.54443 0
M  V30 2104 H 204.836 -1.91803 3.41068 0
M  V30 2105 H 204.459 -3.23479 2.31186 0
M  V30 2106 N 205.456 -1.28612 -0.910864 0
M  V30 2107 C 206.872 -1.06381 -1.18976 0
M  V30 2108 C 207.072 0.191998 -2.00583 0
M  V30 2109 O 206.128 0.892869 -2.36187 0
M  V30 2110 C 207.441 -2.31295 -1.92154 0
M  V30 2111 C 208.989 -2.36503 -2.05025 0
M  V30 2112 C 209.464 -3.61191 -2.81612 0
M  V30 2113 N 210.955 -3.61847 -2.89172 0
M  V30 2114 C 211.69 -4.55004 -3.4894 0
M  V30 2115 N 211.186 -5.58482 -4.09963 0
M  V30 2116 N 212.979 -4.42594 -3.46506 0
M  V30 2117 H 205.13 -2.09221 -0.366094 0
M  V30 2118 H 207.393 -0.921003 -0.224629 0
M  V30 2119 H 207.099 -3.228 -1.39618 0
M  V30 2120 H 206.973 -2.37934 -2.9269 0
M  V30 2121 H 209.36 -1.45494 -2.5674 0
M  V30 2122 H 209.441 -2.33857 -1.03657 0
M  V30 2123 H 209.085 -4.52545 -2.30576 0
M  V30 2124 H 209.015 -3.61092 -3.83302 0
M  V30 2125 H 211.506 -2.87022 -2.45819 0
M  V30 2126 H 211.819 -6.25704 -4.53557 0
M  V30 2127 H 210.164 -5.62305 -4.08459 0
M  V30 2128 H 213.355 -3.60953 -2.98045 0
M  V30 2129 H 213.528 -5.15381 -3.92793 0
M  V30 2130 N 206.934 1.1197 -1.10907 0
M  V30 2131 C 208.211 1.79959 -0.766432 0
M  V30 2132 C 208.591 1.97466 0.746363 0
M  V30 2133 O 207.939 1.55491 1.67436 0
M  V30 2134 C 208.149 3.14009 -1.52314 0
M  V30 2135 C 209.497 3.89134 -1.69883 0
M  V30 2136 O 210.521 3.2368 -1.48692 0
M  V30 2137 O 209.38 5.06572 -2.05054 0
M  V30 2138 H 206.474 0.779208 -0.277062 0
M  V30 2139 H 209.02 1.18762 -1.21217 0
M  V30 2140 H 207.792 2.96587 -2.55249 0
M  V30 2141 H 207.415 3.82915 -1.07059 0
M  V30 2142 N 208.412 0.89855 1.29475 0
M  V30 2143 C 209.658 0.524658 1.95896 0
M  V30 2144 C 209.991 -0.926468 1.70676 0
M  V30 2145 O 209.266 -1.65665 1.01908 0
M  V30 2146 C 209.549 0.81633 3.50725 0
M  V30 2147 C 209.402 2.31907 3.85408 0
M  V30 2148 C 210.721 0.302038 4.39062 0
M  V30 2149 H 207.84 0.19209 0.711527 0
M  V30 2150 H 210.482 1.12502 1.53112 0
M  V30 2151 H 208.632 0.305369 3.87298 0
M  V30 2152 H 210.304 2.89949 3.58786 0
M  V30 2153 H 208.547 2.78027 3.32992 0
M  V30 2154 H 209.218 2.47373 4.93468 0
M  V30 2155 H 211.694 0.739551 4.09475 0
M  V30 2156 H 210.57 0.535331 5.46283 0
M  V30 2157 H 210.831 -0.797216 4.34853 0
M  V30 2158 N 209.89 -1.43072 0.660911 0
M  V30 2159 C 210.853 -2.29194 -0.0166406 0
M  V30 2160 C 211.853 -1.42609 -0.742912 0
M  V30 2161 O 213.043 -1.64155 -0.583004 0
M  V30 2162 C 210.175 -3.24831 -1.0343 0
M  V30 2163 H 211.368 -2.90596 0.741208 0
M  V30 2164 H 208.921 -1.5048 0.422532 0
M  V30 2165 H 209.656 -2.68339 -1.82111 0
M  V30 2166 H 209.441 -3.88676 -0.517082 0
M  V30 2167 H 210.931 -3.89451 -1.50723 0
M  V30 2168 N 211.368 -0.403325 -1.52352 0
M  V30 2169 C 212.779 0.0675782 -1.86578 0
M  V30 2170 C 213.13 1.44941 -1.32236 0
M  V30 2171 O 212.255 2.06112 -0.659307 0
M  V30 2172 C 212.85 0.129404 -3.38553 0
M  V30 2173 C 211.409 0.544629 -3.72439 0
M  V30 2174 C 210.556 -0.284551 -2.75836 0
M  V30 2175 H 213.507 -0.620631 -1.46061 0
M  V30 2176 H 213.528 0.94581 -3.68558 0
M  V30 2177 H 213.04 -0.87645 -3.78074 0
M  V30 2178 H 211.141 1.55734 -3.38493 0
M  V30 2179 H 211.254 0.293046 -4.78203 0
M  V30 2180 H 209.618 0.252258 -2.53448 0
M  V30 2181 H 210.401 -1.28865 -3.18196 0
M  V30 2182 N 212.846 1.57033 -0.133567 0
M  V30 2183 C 214.094 1.953 0.519848 0
M  V30 2184 C 214.415 1.01866 1.66278 0
M  V30 2185 O 213.685 0.0776513 1.95746 0
M  V30 2186 H 212.265 0.721091 0.195032 0
M  V30 2187 H 214.927 1.93809 -0.205921 0
M  V30 2188 H 214.023 2.98695 0.904854 0
M  V30 2189 N 214.325 -0.140222 1.56975 0
M  V30 2190 C 215.553 -0.866437 1.87884 0
M  V30 2191 C 215.968 -1.74428 0.722517 0
M  V30 2192 O 215.325 -1.79891 -0.30749 0
M  V30 2193 C 215.376 -1.71753 3.18093 0
M  V30 2194 O 215.097 -0.875056 4.29272 0
M  V30 2195 C 216.598 -2.55074 3.62563 0
M  V30 2196 H 213.818 -0.25019 0.622612 0
M  V30 2197 H 216.362 -0.130977 2.0408 0
M  V30 2198 H 214.517 -2.40598 3.03631 0
M  V30 2199 H 214.931 -1.46002 5.03769 0
M  V30 2200 H 216.405 -3.10356 4.5649 0
M  V30 2201 H 216.882 -3.31434 2.88181 0
M  V30 2202 H 217.488 -1.91509 3.79743 0
M  V30 2203 N 215.803 -1.52179 -0.40978 0
M  V30 2204 C 216.733 -1.78435 -1.5061 0
M  V30 2205 C 217.714 -0.635295 -1.57791 0
M  V30 2206 O 218.899 -0.880823 -1.73076 0
M  V30 2207 C 216.029 -1.93444 -2.88439 0
M  V30 2208 C 214.983 -3.09038 -2.96108 0
M  V30 2209 C 214.309 -3.09268 -4.36185 0
M  V30 2210 C 215.609 -4.48508 -2.67652 0
M  V30 2211 H 217.303 -2.70237 -1.28889 0
M  V30 2212 H 214.849 -1.30036 -0.618605 0
M  V30 2213 H 216.802 -2.10394 -3.65119 0
M  V30 2214 H 215.526 -0.983129 -3.11452 0
M  V30 2215 H 214.185 -2.91837 -2.21872 0
M  V30 2216 H 213.833 -2.11861 -4.56206 0
M  V30 2217 H 213.533 -3.86907 -4.42241 0
M  V30 2218 H 215.057 -3.28348 -5.14801 0
M  V30 2219 H 216.471 -4.65918 -3.34056 0
M  V30 2220 H 214.868 -5.28059 -2.85085 0
M  V30 2221 H 215.938 -4.56649 -1.63095 0
M  V30 2222 N 217.281 0.66697 -1.42791 0
M  V30 2223 C 218.521 1.43892 -1.4517 0
M  V30 2224 C 218.885 1.91877 -0.0687551 0
M  V30 2225 O 220.086 2.6878 0.0327455 0
M  V30 2226 C 218.357 2.59839 -2.45395 0
M  V30 2227 S 219.916 3.48572 -2.66539 0
M  V30 2228 H 216.734 0.491356 -0.513897 0
M  V30 2229 H 219.336 0.775656 -1.79454 0
M  V30 2230 H 218.04 2.22838 -3.44632 0
M  V30 2231 H 217.571 3.3103 -2.12562 0
M  V30 2232 H 219.586 4.56094 -1.95429 0
M  V30 2233 N 218.759 1.29093 0.90403 0
M  V30 2234 C 220.036 1.075 1.63411 0
M  V30 2235 C 220.416 -0.382346 2.07609 0
M  V30 2236 O 219.764 -1.37031 1.82851 0
M  V30 2237 C 219.974 2.05858 2.81822 0
M  V30 2238 C 221.322 2.36539 3.52611 0
M  V30 2239 O 222.346 2.04019 2.91984 0
M  V30 2240 O 221.205 2.92085 4.61897 0
M  V30 2241 H 218.299 0.411547 0.717327 0
M  V30 2242 H 220.845 1.40449 0.952479 0
M  V30 2243 H 219.617 3.04037 2.46327 0
M  V30 2244 H 219.24 1.73613 3.57693 0
M  V30 2245 N 220.237 -1.11381 1.11499 0
M  V30 2246 C 221.483 -1.83403 0.865512 0
M  V30 2247 C 221.816 -1.84459 -0.607329 0
M  V30 2248 O 221.091 -1.29811 -1.44842 0
M  V30 2249 C 221.374 -3.30552 1.42855 0
M  V30 2250 C 221.227 -3.37886 2.96906 0
M  V30 2251 C 222.546 -4.26643 1.08 0
M  V30 2252 H 219.665 -0.665879 0.31587 0
M  V30 2253 H 222.307 -1.30601 1.37998 0
M  V30 2254 H 220.457 -3.75648 0.990985 0
M  V30 2255 H 222.129 -3.01343 3.49271 0
M  V30 2256 H 220.372 -2.78088 3.32941 0
M  V30 2257 H 221.043 -4.41458 3.31389 0
M  V30 2258 H 223.519 -3.89729 1.45775 0
M  V30 2259 H 222.395 -5.27986 1.50072 0
M  V30 2260 H 222.656 -4.42099 -0.00915037 0
M  V30 2261 N 221.715 -0.905404 -1.28997 0
M  V30 2262 C 222.678 -0.392253 -2.25819 0
M  V30 2263 C 223.678 0.476753 -1.5357 0
M  V30 2264 O 224.868 0.280994 -1.71919 0
M  V30 2265 C 222 0.438588 -3.38067 0
M  V30 2266 H 223.193 -1.24743 -2.72725 0
M  V30 2267 H 220.746 -0.684051 -1.40536 0
M  V30 2268 H 221.481 1.31352 -2.96508 0
M  V30 2269 H 221.266 -0.184167 -3.91667 0
M  V30 2270 H 222.756 0.78873 -4.10084 0
M  V30 2271 N 223.193 1.4272 -0.668489 0
M  V30 2272 C 224.441 2.01226 -0.187769 0
M  V30 2273 C 224.762 1.53092 1.2078 0
M  V30 2274 O 224.032 0.74993 1.80977 0
M  V30 2275 H 222.612 0.744041 -0.0664272 0
M  V30 2276 H 225.274 1.74723 -0.863583 0
M  V30 2277 H 224.37 3.11556 -0.184166 0
M  V30 2278 N 224.671 0.411399 1.52136 0
M  V30 2279 C 225.917 -0.156262 2.02799 0
M  V30 2280 C 226.272 -1.42613 1.29149 0
M  V30 2281 O 225.565 -1.87592 0.389839 0
M  V30 2282 C 225.759 -0.455872 3.54481 0
M  V30 2283 C 225.588 0.783404 4.42824 0
M  V30 2284 C 224.358 1.30928 4.88043 0
M  V30 2285 C 226.556 1.66217 4.86699 0
M  V30 2286 N 224.538 2.5038 5.6052 0
M  V30 2287 C 225.909 2.70292 5.5798 0
M  V30 2288 C 227.964 1.67966 4.68713 0
M  V30 2289 C 226.667 3.7603 6.13184 0
M  V30 2290 C 228.693 2.72624 5.24815 0
M  V30 2291 C 228.055 3.7542 5.9602 0
M  V30 2292 H 224.154 -0.0186886 0.781777 0
M  V30 2293 H 226.738 0.566255 1.86284 0
M  V30 2294 H 224.909 -1.14743 3.71064 0
M  V30 2295 H 226.641 -1.01261 3.91827 0
M  V30 2296 H 223.396 0.866977 4.65597 0
M  V30 2297 H 223.82 3.10881 6.014 0
M  V30 2298 H 228.462 0.898312 4.13147 0
M  V30 2299 H 226.18 4.55019 6.6782 0
M  V30 2300 H 229.766 2.74887 5.12765 0
M  V30 2301 H 228.646 4.55073 6.38654 0
M  V30 2302 N 226.149 -1.5696 0.141893 0
M  V30 2303 C 227.397 -1.95573 -0.509484 0
M  V30 2304 C 227.718 -1.02746 -1.65736 0
M  V30 2305 O 226.988 -0.0880311 -1.95702 0
M  V30 2306 H 225.568 -0.722115 -0.191205 0
M  V30 2307 H 228.23 -1.93697 0.216196 0
M  V30 2308 H 227.326 -2.99171 -0.889 0
M  V30 2309 N 227.627 0.131896 -1.57047 0
M  V30 2310 C 228.876 0.84044 -1.83356 0
M  V30 2311 C 229.189 1.81646 -0.725535 0
M  V30 2312 O 230.395 2.57025 -0.874659 0
M  V30 2313 C 228.851 1.54528 -3.25037 0
M  V30 2314 C 228.459 0.610902 -4.43815 0
M  V30 2315 C 230.203 2.23972 -3.60606 0
M  V30 2316 C 228.11 1.31823 -5.76521 0
M  V30 2317 H 227.04 0.317599 -0.683847 0
M  V30 2318 H 229.691 0.0931561 -1.83263 0
M  V30 2319 H 228.073 2.33873 -3.19561 0
M  V30 2320 H 229.247 -0.148407 -4.60561 0
M  V30 2321 H 227.562 0.0241016 -4.16393 0
M  V30 2322 H 230.159 2.77558 -4.57018 0
M  V30 2323 H 230.502 3.01173 -2.87403 0
M  V30 2324 H 231.035 1.51529 -3.6781 0
M  V30 2325 H 227.774 0.587771 -6.52859 0
M  V30 2326 H 227.294 2.04987 -5.63685 0
M  V30 2327 H 228.973 1.855 -6.19838 0
M  V30 2328 N 229.106 1.52395 0.401703 0
M  V30 2329 C 230.352 1.67065 1.14966 0
M  V30 2330 C 230.685 0.403052 1.89971 0
M  V30 2331 O 229.96 -0.598774 1.85054 0
M  V30 2332 C 230.243 2.8975 2.13815 0
M  V30 2333 C 230.096 4.26578 1.42658 0
M  V30 2334 C 231.415 3.07965 3.14397 0
M  V30 2335 H 228.534 0.607968 0.416587 0
M  V30 2336 H 231.176 1.84965 0.434511 0
M  V30 2337 H 229.326 2.74619 2.74803 0
M  V30 2338 H 230.998 4.53451 0.847329 0
M  V30 2339 H 229.241 4.27639 0.72849 0
M  V30 2340 H 229.912 5.08483 2.14823 0
M  V30 2341 H 232.388 3.22043 2.63491 0
M  V30 2342 H 231.264 3.95308 3.80819 0
M  V30 2343 H 231.525 2.21611 3.82545 0
M  V30 2344 N 230.584 -0.659388 1.43143 0
M  V30 2345 C 231.532 -1.79374 1.4808 0
M  V30 2346 C 232.526 -1.65639 0.354988 0
M  V30 2347 O 233.732 -1.7206 0.528704 0
M  V30 2348 H 230.107 -0.591705 0.4641 0
M  V30 2349 H 232.078 -1.72329 2.43609 0
M  V30 2350 C 230.827 -3.17606 1.41499 0
M  V30 2351 H 230.15 -3.28809 2.27431 0
M  V30 2352 H 231.59 -3.96951 1.49015 0
M  V30 2353 C 230.049 -3.36642 0.131765 0
M  V30 2354 O 230.579 -3.93461 -0.809386 0
M  V30 2355 N 228.785 -2.90567 0.0439396 0
M  V30 2356 H 228.332 -2.44513 0.810619 0
M  V30 2357 H 228.29 -3.03681 -0.813969 0
M  V30 2358 N 232.062 -1.29571 -0.897171 0
M  V30 2359 C 233.012 -1.11539 -1.98855 0
M  V30 2360 C 233.996 -0.0340716 -1.60864 0
M  V30 2361 O 235.188 -0.256062 -1.75138 0
M  V30 2362 C 232.317 -0.796603 -3.3393 0
M  V30 2363 C 231.403 -1.91758 -3.78272 0
M  V30 2364 N 231.794 -3.16143 -3.94826 0
M  V30 2365 C 230.092 -1.81119 -4.07568 0
M  V30 2366 C 230.793 -3.89293 -4.32233 0
M  V30 2367 N 229.769 -3.17255 -4.41419 0
M  V30 2368 H 233.571 -2.05894 -2.09726 0
M  V30 2369 H 231.085 -1.20732 -1.08616 0
M  V30 2370 H 233.082 -0.648459 -4.11826 0
M  V30 2371 H 231.742 0.139003 -3.24402 0
M  V30 2372 H 232.753 -3.5157 -3.80288 0
M  V30 2373 H 229.43 -0.948461 -4.06584 0
M  V30 2374 H 230.82 -4.9635 -4.52865 0
M  V30 2375 N 233.54 1.10788 -1.12088 0
M  V30 2376 C 234.503 2.15207 -0.788577 0
M  V30 2377 C 235.503 1.59609 0.195317 0
M  V30 2378 O 236.693 1.74174 -0.0300193 0
M  V30 2379 C 233.825 3.4047 -0.171174 0
M  V30 2380 H 235.018 2.46116 -1.71368 0
M  V30 2381 H 232.571 1.26089 -0.923652 0
M  V30 2382 H 233.306 3.15176 0.763832 0
M  V30 2383 H 233.091 3.82109 -0.879514 0
M  V30 2384 H 234.581 4.17576 0.04496 0
M  V30 2385 N 235.018 0.912232 1.28515 0
M  V30 2386 C 236.266 0.543523 1.94654 0
M  V30 2387 C 236.587 -0.9155 1.72173 0
M  V30 2388 O 235.857 -1.64708 1.06058 0
M  V30 2389 H 234.437 0.198017 0.720277 0
M  V30 2390 H 237.099 1.16126 1.56527 0
M  V30 2391 H 236.195 0.736684 3.03281 0
M  V30 2392 N 236.496 -1.42363 0.676048 0
M  V30 2393 C 237.912 -1.55811 0.345718 0
M  V30 2394 C 238.112 -1.65544 -1.14879 0
M  V30 2395 O 237.168 -1.62306 -1.93424 0
M  V30 2396 C 238.481 -2.80746 1.07713 0
M  V30 2397 C 240.029 -2.9452 1.05958 0
M  V30 2398 C 240.504 -4.22318 1.77233 0
M  V30 2399 N 241.995 -4.29233 1.74108 0
M  V30 2400 C 242.73 -5.26935 2.26113 0
M  V30 2401 N 242.226 -6.30783 2.86505 0
M  V30 2402 N 244.019 -5.18741 2.1648 0
M  V30 2403 H 236.17 -1.34289 1.6456 0
M  V30 2404 H 238.433 -0.646506 0.69335 0
M  V30 2405 H 238.139 -2.79696 2.13221 0
M  V30 2406 H 238.013 -3.71676 0.64316 0
M  V30 2407 H 240.4 -2.95097 0.0128255 0
M  V30 2408 H 240.481 -2.04817 1.53244 0
M  V30 2409 H 240.125 -4.22502 2.81877 0
M  V30 2410 H 240.055 -5.10958 1.27396 0
M  V30 2411 H 242.546 -3.54814 1.30059 0
M  V30 2412 H 242.859 -7.01691 3.23805 0
M  V30 2413 H 241.204 -6.31341 2.90575 0
M  V30 2414 H 244.395 -4.36533 1.68987 0
M  V30 2415 H 244.568 -5.94721 2.57316 0
M  V30 2416 N 237.974 -0.419461 -1.51915 0
M  V30 2417 C 239.39 -0.0708431 -1.59443 0
M  V30 2418 C 239.59 1.41796 -1.43164 0
M  V30 2419 O 238.646 2.18596 -1.26381 0
M  V30 2420 C 239.959 -0.574991 -2.95151 0
M  V30 2421 C 241.507 -0.533867 -3.08413 0
M  V30 2422 C 241.982 -1.01469 -4.46618 0
M  V30 2423 N 243.473 -0.971939 -4.52888 0
M  V30 2424 C 244.208 -1.31505 -5.58116 0
M  V30 2425 N 243.704 -1.73014 -6.70849 0
M  V30 2426 N 245.497 -1.23436 -5.48379 0
M  V30 2427 H 237.648 -1.38836 -1.60743 0
M  V30 2428 H 239.911 -0.570998 -0.756747 0
M  V30 2429 H 239.617 -1.61597 -3.12377 0
M  V30 2430 H 239.491 0.00979777 -3.77199 0
M  V30 2431 H 241.878 0.498086 -2.90866 0
M  V30 2432 H 241.959 -1.15484 -2.28248 0
M  V30 2433 H 241.603 -2.04502 -4.6491 0
M  V30 2434 H 241.533 -0.370433 -5.25295 0
M  V30 2435 H 244.024 -0.666893 -3.71969 0
M  V30 2436 H 244.337 -1.97479 -7.47143 0
M  V30 2437 H 242.682 -1.76926 -6.72103 0
M  V30 2438 H 245.873 -0.908869 -4.59192 0
M  V30 2439 H 246.046 -1.50506 -6.30279 0
M  V30 2440 N 239.452 1.56882 -0.150215 0
M  V30 2441 C 240.863 1.82995 0.370076 0
M  V30 2442 C 241.214 1.06907 1.64515 0
M  V30 2443 O 240.339 0.315369 2.1409 0
M  V30 2444 C 240.934 3.31942 0.678208 0
M  V30 2445 C 239.493 3.58625 1.14301 0
M  V30 2446 C 238.64 2.76792 0.167778 0
M  V30 2447 H 241.591 1.54209 -0.374858 0
M  V30 2448 H 241.612 3.48272 1.53254 0
M  V30 2449 H 241.124 3.87294 -0.249991 0
M  V30 2450 H 239.225 3.08664 2.08704 0
M  V30 2451 H 239.338 4.67073 1.06676 0
M  V30 2452 H 237.702 2.45972 0.661037 0
M  V30 2453 H 238.485 3.34916 -0.754069 0
M  V30 2454 N 240.93 -0.123565 1.57115 0
M  V30 2455 C 242.207 -0.862196 1.75572 0
M  V30 2456 C 242.587 -1.98279 0.724475 0
M  V30 2457 O 241.935 -2.27102 -0.252407 0
M  V30 2458 C 242.145 -1.38309 3.20424 0
M  V30 2459 C 243.493 -1.83724 3.82793 0
M  V30 2460 O 244.517 -1.47999 3.23998 0
M  V30 2461 O 243.376 -2.49685 4.86127 0
M  V30 2462 H 240.47 -0.409113 0.718718 0
M  V30 2463 H 243.016 -0.107661 1.69358 0
M  V30 2464 H 241.788 -0.578889 3.86994 0
M  V30 2465 H 241.411 -2.20046 3.31158 0
M  V30 2466 N 242.408 -1.52605 -0.393616 0
M  V30 2467 C 243.633 -1.71592 -1.16495 0
M  V30 2468 C 244.058 -0.43133 -1.83088 0
M  V30 2469 O 243.416 0.612523 -1.7064 0
M  V30 2470 C 243.464 -2.86318 -2.19213 0
M  V30 2471 O 242.568 -2.52969 -3.257 0
M  V30 2472 H 241.909 -0.570734 -0.33935 0
M  V30 2473 H 244.439 -1.99377 -0.459324 0
M  V30 2474 H 244.449 -3.1168 -2.63286 0
M  V30 2475 H 243.124 -3.79511 -1.7013 0
M  V30 2476 H 241.701 -2.38332 -2.86797 0
M  V30 2477 N 243.887 0.651787 -1.4349 0
M  V30 2478 C 244.817 1.77621 -1.51569 0
M  V30 2479 C 245.798 1.66022 -0.370253 0
M  V30 2480 O 246.983 1.85095 -0.587658 0
M  V30 2481 C 244.113 3.16056 -1.43966 0
M  V30 2482 C 243.067 3.4242 -2.56774 0
M  V30 2483 C 242.393 4.8067 -2.34223 0
M  V30 2484 C 243.693 3.37023 -3.99015 0
M  V30 2485 H 245.387 1.71117 -2.45681 0
M  V30 2486 H 242.933 0.821825 -1.18246 0
M  V30 2487 H 244.886 3.94472 -1.48221 0
M  V30 2488 H 243.61 3.23293 -0.463586 0
M  V30 2489 H 242.269 2.66375 -2.51873 0
M  V30 2490 H 241.917 4.84585 -1.34856 0
M  V30 2491 H 241.617 4.9927 -3.09844 0
M  V30 2492 H 243.141 5.61342 -2.40265 0
M  V30 2493 H 244.555 4.05374 -4.05395 0
M  V30 2494 H 242.952 3.67159 -4.74673 0
M  V30 2495 H 244.022 2.3518 -4.2405 0
M  V30 2496 N 245.365 1.30045 0.890287 0
M  V30 2497 C 246.297 1.11786 2.00091 0
M  V30 2498 C 247.31 0.0626307 1.62679 0
M  V30 2499 O 248.499 0.308112 1.75821 0
M  V30 2500 C 245.599 0.681527 3.31977 0
M  V30 2501 C 244.772 1.81735 3.97858 0
M  V30 2502 C 243.831 1.37045 5.08041 0
M  V30 2503 O 242.857 2.07677 5.29961 0
M  V30 2504 N 244.059 0.246525 5.79976 0
M  V30 2505 H 246.824 2.07441 2.16306 0
M  V30 2506 H 244.385 1.2211 1.06305 0
M  V30 2507 H 246.377 0.365675 4.03045 0
M  V30 2508 H 244.947 -0.182828 3.12065 0
M  V30 2509 H 244.167 2.30159 3.20032 0
M  V30 2510 H 245.455 2.57865 4.38615 0
M  V30 2511 H 244.853 -0.34215 5.64664 0
M  V30 2512 H 243.41 -0.00990438 6.51799 0
M  V30 2513 N 246.843 -1.10192 1.12674 0
M  V30 2514 C 247.793 -2.14754 0.765801 0
M  V30 2515 C 248.777 -1.59154 -0.236409 0
M  V30 2516 O 249.969 -1.76951 -0.0415261 0
M  V30 2517 C 247.098 -3.42563 0.224827 0
M  V30 2518 C 246.184 -4.05091 1.25548 0
M  V30 2519 N 246.575 -4.42287 2.4539 0
M  V30 2520 C 244.873 -4.32186 1.10142 0
M  V30 2521 C 245.574 -4.91441 3.11224 0
M  V30 2522 N 244.55 -4.88405 2.38666 0
M  V30 2523 H 248.352 -2.41309 1.67772 0
M  V30 2524 H 245.866 -1.27339 1.00789 0
M  V30 2525 H 247.863 -4.16868 -0.0519578 0
M  V30 2526 H 246.523 -3.17467 -0.681515 0
M  V30 2527 H 247.534 -4.33902 2.82754 0
M  V30 2528 H 244.211 -4.16735 0.252587 0
M  V30 2529 H 245.601 -5.29749 4.13298 0
M  V30 2530 N 248.321 -0.919034 -1.28029 0
M  V30 2531 C 249.567 -0.555757 -1.95036 0
M  V30 2532 C 249.9 0.899198 -1.72128 0
M  V30 2533 O 249.175 1.64023 -1.04531 0
M  V30 2534 C 249.458 -0.872024 -3.49382 0
M  V30 2535 C 249.311 -2.3801 -3.81669 0
M  V30 2536 C 250.63 -0.37185 -4.38526 0
M  V30 2537 H 247.749 -0.203386 -0.708381 0
M  V30 2538 H 250.391 -1.14924 -1.51303 0
M  V30 2539 H 248.541 -0.366946 -3.86763 0
M  V30 2540 H 250.213 -2.9562 -3.54128 0
M  V30 2541 H 248.456 -2.83289 -3.28526 0
M  V30 2542 H 249.127 -2.55192 -4.8947 0
M  V30 2543 H 251.603 -0.804602 -4.08247 0
M  V30 2544 H 250.479 -0.622173 -5.45362 0
M  V30 2545 H 250.74 0.727934 -4.36066 0
M  V30 2546 N 249.799 1.42003 -0.683588 0
M  V30 2547 C 250.729 2.33487 -0.024866 0
M  V30 2548 C 251.71 1.51163 0.779975 0
M  V30 2549 O 252.895 1.79739 0.735362 0
M  V30 2550 C 250.025 3.3487 0.920836 0
M  V30 2551 C 248.979 4.27414 0.223958 0
M  V30 2552 C 248.305 5.19074 1.2832 0
M  V30 2553 C 249.605 5.14445 -0.90242 0
M  V30 2554 H 251.299 2.88819 -0.788921 0
M  V30 2555 H 248.845 1.38873 -0.38083 0
M  V30 2556 H 250.798 3.97787 1.39081 0
M  V30 2557 H 249.522 2.77861 1.71642 0
M  V30 2558 H 248.181 3.65904 -0.225864 0
M  V30 2559 H 247.829 4.58387 2.071 0
M  V30 2560 H 247.529 5.81822 0.821995 0
M  V30 2561 H 249.053 5.84867 1.75392 0
M  V30 2562 H 250.467 5.70998 -0.513272 0
M  V30 2563 H 248.864 5.86072 -1.28997 0
M  V30 2564 H 249.934 4.52322 -1.74737 0
M  V30 2565 N 251.277 0.427512 1.51691 0
M  V30 2566 C 252.207 -0.3796 2.30394 0
M  V30 2567 C 253.188 -1.02982 1.35384 0
M  V30 2568 O 254.373 -1.03534 1.643 0
M  V30 2569 C 251.503 -1.48649 3.1388 0
M  V30 2570 C 250.457 -0.960294 4.17088 0
M  V30 2571 C 249.783 -2.16219 4.89033 0
M  V30 2572 C 251.083 -0.00153679 5.223 0
M  V30 2573 H 252.777 0.277164 2.98114 0
M  V30 2574 H 250.323 0.134739 1.43368 0
M  V30 2575 H 252.276 -2.05826 3.67714 0
M  V30 2576 H 251 -2.1714 2.43962 0
M  V30 2577 H 249.659 -0.410806 3.64291 0
M  V30 2578 H 249.307 -2.83307 4.15628 0
M  V30 2579 H 249.007 -1.81654 5.58816 0
M  V30 2580 H 250.531 -2.73968 5.45687 0
M  V30 2581 H 251.945 -0.482687 5.71264 0
M  V30 2582 H 250.342 0.256199 5.99553 0
M  V30 2583 H 251.412 0.938174 4.75738 0
M  V30 2584 N 252.755 -1.56801 0.158532 0
M  V30 2585 C 254.166 -1.83189 -0.360366 0
M  V30 2586 C 254.517 -1.07778 -1.63946 0
M  V30 2587 O 253.642 -0.326718 -2.13919 0
M  V30 2588 C 254.237 -3.32297 -0.660595 0
M  V30 2589 C 252.796 -3.59227 -1.12398 0
M  V30 2590 C 251.943 -2.76877 -0.153097 0
M  V30 2591 H 254.894 -1.54008 0.383031 0
M  V30 2592 H 254.915 -3.4908 -1.51405 0
M  V30 2593 H 254.427 -3.87156 0.270527 0
M  V30 2594 H 252.528 -3.09766 -2.07064 0
M  V30 2595 H 252.641 -4.67632 -1.04197 0
M  V30 2596 H 251.005 -2.46319 -0.647983 0
M  V30 2597 H 251.788 -3.34511 0.77182 0
M  V30 2598 N 254.233 0.115231 -1.57178 0
M  V30 2599 C 255.479 0.82357 -1.85325 0
M  V30 2600 C 255.812 1.79349 -0.744814 0
M  V30 2601 O 255.087 1.92899 0.249024 0
M  V30 2602 C 255.37 1.57014 -3.24066 0
M  V30 2603 C 255.223 0.619565 -4.45513 0
M  V30 2604 C 256.542 2.52545 -3.60429 0
M  V30 2605 H 253.661 0.297948 -0.674089 0
M  V30 2606 H 256.303 0.0877138 -1.89797 0
M  V30 2607 H 254.453 2.19742 -3.20383 0
M  V30 2608 H 256.125 0.000837639 -4.613 0
M  V30 2609 H 254.368 -0.0686174 -4.33746 0
M  V30 2610 H 255.039 1.17866 -5.3927 0
M  V30 2611 H 257.515 1.9992 -3.64926 0
M  V30 2612 H 256.391 3.01811 -4.58477 0
M  V30 2613 H 256.652 3.35383 -2.88047 0
M  V30 2614 N 255.711 1.52812 0.385517 0
M  V30 2615 C 256.641 1.80808 1.47752 0
M  V30 2616 C 257.622 0.660318 1.5676 0
M  V30 2617 O 258.807 0.908246 1.71652 0
M  V30 2618 C 255.937 1.98008 2.85324 0
M  V30 2619 C 254.891 3.13709 2.91154 0
M  V30 2620 C 254.217 3.16169 4.31209 0
M  V30 2621 C 255.517 4.52709 2.60483 0
M  V30 2622 H 257.211 2.72253 1.24573 0
M  V30 2623 H 254.757 1.31003 0.597839 0
M  V30 2624 H 256.71 2.16176 3.61726 0
M  V30 2625 H 255.434 1.03255 3.09848 0
M  V30 2626 H 254.093 2.95329 2.17201 0
M  V30 2627 H 253.741 2.19092 4.52778 0
M  V30 2628 H 253.441 3.93894 4.36029 0
M  V30 2629 H 254.965 3.36496 5.09512 0
M  V30 2630 H 256.379 4.71173 3.26602 0
M  V30 2631 H 254.776 5.32528 2.76648 0
M  V30 2632 H 255.846 4.59186 1.55809 0
M  V30 2633 N 257.189 -0.644168 1.43834 0
M  V30 2634 C 258.466 -1.40188 1.36406 0
M  V30 2635 C 258.846 -2.11094 0.0163124 0
M  V30 2636 O 258.194 -2.05426 -1.00062 0
M  V30 2637 C 258.404 -2.3791 2.55343 0
M  V30 2638 C 259.752 -3.01637 2.98832 0
M  V30 2639 O 260.776 -2.48237 2.55455 0
M  V30 2640 O 259.635 -3.98477 3.74003 0
M  V30 2641 H 256.729 -0.626773 0.539523 0
M  V30 2642 H 259.275 -0.670317 1.559 0
M  V30 2643 H 258.047 -1.84525 3.4506 0
M  V30 2644 H 257.67 -3.18503 2.37995 0
M  V30 2645 N 258.668 -1.30515 -0.883378 0
M  V30 2646 C 260.084 -1.08881 -1.16692 0
M  V30 2647 C 260.284 0.149409 -2.00945 0
M  V30 2648 O 259.34 0.84257 -2.38027 0
M  V30 2649 C 260.653 -2.35319 -1.87204 0
M  V30 2650 C 262.201 -2.40799 -1.99962 0
M  V30 2651 C 262.676 -3.67083 -2.73887 0
M  V30 2652 N 264.167 -3.679 -2.81432 0
M  V30 2653 C 264.902 -4.62303 -3.3921 0
M  V30 2654 N 264.398 -5.67052 -3.98025 0
M  V30 2655 N 266.191 -4.49845 -3.3704 0
M  V30 2656 H 258.342 -2.09951 -0.321633 0
M  V30 2657 H 260.605 -0.92556 -0.205043 0
M  V30 2658 H 260.311 -3.25689 -1.3274 0
M  V30 2659 H 260.185 -2.44089 -2.87577 0
M  V30 2660 H 262.572 -1.50907 -2.53597 0
M  V30 2661 H 262.653 -2.36003 -0.98673 0
M  V30 2662 H 262.297 -4.57334 -2.20925 0
M  V30 2663 H 262.227 -3.69141 -3.75556 0
M  V30 2664 H 264.718 -2.92171 -2.39676 0
M  V30 2665 H 265.031 -6.35184 -4.40183 0
M  V30 2666 H 263.376 -5.70842 -3.96439 0
M  V30 2667 H 266.567 -3.67194 -2.90321 0
M  V30 2668 H 266.74 -5.23597 -3.81772 0
M  V30 2669 N 260.146 1.09593 -1.13257 0
M  V30 2670 C 261.109 2.14359 -0.811358 0
M  V30 2671 C 262.109 1.59808 0.178377 0
M  V30 2672 O 263.299 1.74132 -0.0484911 0
M  V30 2673 C 260.431 3.40269 -0.207276 0
M  V30 2674 H 261.624 2.44284 -1.73969 0
M  V30 2675 H 259.177 1.25102 -0.936973 0
M  V30 2676 H 259.912 3.15969 0.73036 0
M  V30 2677 H 259.697 3.81154 -0.919992 0
M  V30 2678 H 261.187 4.176 0.000667944 0
M  V30 2679 N 261.624 0.925811 1.2754 0
M  V30 2680 C 262.852 0.581509 1.9856 0
M  V30 2681 C 263.267 -0.840041 1.69082 0
M  V30 2682 O 262.624 -1.55805 0.950312 0
M  V30 2683 C 262.675 0.795589 3.52637 0
M  V30 2684 O 262.396 2.16121 3.81082 0
M  V30 2685 C 263.897 0.459744 4.4091 0
M  V30 2686 H 261.117 0.220538 0.633722 0
M  V30 2687 H 263.661 1.24232 1.6244 0
M  V30 2688 H 261.816 0.18161 3.86974 0
M  V30 2689 H 262.23 2.2098 4.75676 0
M  V30 2690 H 263.704 0.660244 5.48037 0
M  V30 2691 H 264.181 -0.604625 4.35018 0
M  V30 2692 H 264.787 1.05178 4.12089 0
M  V30 2693 N 263.102 -1.41638 0.69111 0
M  V30 2694 C 264.342 -2.03166 0.224291 0
M  V30 2695 C 264.706 -1.53537 -1.15284 0
M  V30 2696 O 265.907 -2.0696 -1.71525 0
M  V30 2697 C 264.178 -3.56342 0.274758 0
M  V30 2698 S 265.737 -4.3864 -0.118669 0
M  V30 2699 H 262.555 -0.705188 0.0907263 0
M  V30 2700 H 265.157 -1.7314 0.907895 0
M  V30 2701 H 263.861 -3.89958 1.2791 0
M  V30 2702 H 263.392 -3.91063 -0.428142 0
M  V30 2703 H 265.407 -4.77549 -1.34764 0
M  V30 2704 N 264.58 -0.43555 -1.51462 0
M  V30 2705 C 265.528 0.391205 -2.29287 0
M  V30 2706 C 266.522 1.02247 -1.35062 0
M  V30 2707 O 267.728 0.957646 -1.52411 0
M  V30 2708 H 264.103 0.144968 -0.737895 0
M  V30 2709 H 266.074 -0.286051 -2.97026 0
M  V30 2710 C 264.823 1.48096 -3.14583 0
M  V30 2711 H 264.146 1.00457 -3.86973 0
M  V30 2712 H 265.586 2.03273 -3.72097 0
M  V30 2713 C 264.045 2.46321 -2.29843 0
M  V30 2714 O 264.575 3.50815 -1.95682 0
M  V30 2715 N 262.781 2.17166 -1.931 0
M  V30 2716 H 262.328 1.32218 -2.21079 0
M  V30 2717 H 262.286 2.83127 -1.36698 0
M  V30 2718 N 266.058 1.56714 -0.166846 0
M  V30 2719 C 267.474 1.58473 0.189372 0
M  V30 2720 C 267.674 1.18201 1.63189 0
M  V30 2721 O 266.73 0.891528 2.36237 0
M  V30 2722 C 268.043 3.00573 -0.0873872 0
M  V30 2723 C 269.591 3.1299 -0.0252443 0
M  V30 2724 C 270.066 4.57174 -0.274934 0
M  V30 2725 N 271.557 4.62665 -0.222553 0
M  V30 2726 C 272.292 5.72072 -0.389985 0
M  V30 2727 N 271.788 6.90054 -0.616229 0
M  V30 2728 N 273.581 5.61153 -0.326202 0
M  V30 2729 H 265.732 1.8118 -1.10849 0
M  V30 2730 H 267.995 0.839525 -0.440342 0
M  V30 2731 H 267.701 3.34497 -1.0865 0
M  V30 2732 H 267.575 3.72019 0.623037 0
M  V30 2733 H 269.962 2.78895 0.96444 0
M  V30 2734 H 270.043 2.43989 -0.768309 0
M  V30 2735 H 269.687 4.91976 -1.26181 0
M  V30 2736 H 269.617 5.24328 0.48869 0
M  V30 2737 H 272.108 3.77863 -0.0531512 0
M  V30 2738 H 272.421 7.69311 -0.733559 0
M  V30 2739 H 270.766 6.91927 -0.652791 0
M  V30 2740 H 273.957 4.67859 -0.150072 0
M  V30 2741 H 274.13 6.46364 -0.460116 0
M  V30 2742 N 267.536 -0.106894 1.57237 0
M  V30 2743 C 268.952 -0.46078 1.52804 0
M  V30 2744 C 269.152 -1.81184 0.881746 0
M  V30 2745 O 268.208 -2.48102 0.469224 0
M  V30 2746 C 269.521 -0.434127 2.9755 0
M  V30 2747 C 271.069 -0.516821 3.08704 0
M  V30 2748 C 271.544 -0.520436 4.55033 0
M  V30 2749 N 273.035 -0.58153 4.59535 0
M  V30 2750 C 273.77 -0.605973 5.70189 0
M  V30 2751 N 273.266 -0.587331 6.90306 0
M  V30 2752 N 275.059 -0.649895 5.5833 0
M  V30 2753 H 267.21 0.778203 1.9763 0
M  V30 2754 H 269.473 0.288403 0.903066 0
M  V30 2755 H 269.179 0.491197 3.48253 0
M  V30 2756 H 269.053 -1.25748 3.55622 0
M  V30 2757 H 271.44 -1.43256 2.57995 0
M  V30 2758 H 271.521 0.334449 2.53604 0
M  V30 2759 H 271.165 0.391313 5.0639 0
M  V30 2760 H 271.095 -1.38876 5.07958 0
M  V30 2761 H 273.586 -0.60161 3.73081 0
M  V30 2762 H 273.899 -0.60894 7.70397 0
M  V30 2763 H 272.244 -0.554564 6.92784 0
M  V30 2764 H 275.435 -0.661907 4.63397 0
M  V30 2765 H 275.608 -0.665476 6.44574 0
M  V30 2766 N 269.014 -1.53014 -0.377408 0
M  V30 2767 C 270.242 -1.72515 -1.14219 0
M  V30 2768 C 270.657 -0.448735 -1.8339 0
M  V30 2769 O 270.014 0.577592 -1.73119 0
M  V30 2770 C 270.065 -2.8826 -2.18148 0
M  V30 2771 O 269.786 -4.10962 -1.51795 0
M  V30 2772 C 271.287 -3.19536 -3.07264 0
M  V30 2773 H 268.507 -0.577301 -0.342001 0
M  V30 2774 H 271.051 -1.99712 -0.439935 0
M  V30 2775 H 269.206 -2.63492 -2.83991 0
M  V30 2776 H 269.62 -4.75693 -2.20945 0
M  V30 2777 H 271.094 -4.03959 -3.76193 0
M  V30 2778 H 271.571 -2.34403 -3.71419 0
M  V30 2779 H 272.177 -3.46186 -2.47053 0
M  V30 2780 N 270.492 0.636531 -1.44174 0
M  V30 2781 C 271.442 1.74233 -1.47061 0
M  V30 2782 C 272.426 1.57331 -0.337034 0
M  V30 2783 O 273.618 1.67159 -0.581973 0
M  V30 2784 C 270.747 3.12897 -1.41246 0
M  V30 2785 C 269.833 3.35288 -2.59698 0
M  V30 2786 N 270.224 3.2807 -3.84972 0
M  V30 2787 C 268.522 3.66065 -2.54778 0
M  V30 2788 C 269.223 3.51001 -4.63867 0
M  V30 2789 N 268.199 3.73616 -3.94857 0
M  V30 2790 H 272.001 1.67103 -2.41773 0
M  V30 2791 H 269.515 0.838806 -1.3906 0
M  V30 2792 H 271.512 3.92189 -1.41398 0
M  V30 2793 H 270.172 3.21197 -0.47569 0
M  V30 2794 H 271.183 3.07109 -4.17019 0
M  V30 2795 H 267.86 3.81379 -1.6987 0
M  V30 2796 H 269.25 3.51059 -5.72894 0
M  V30 2797 N 271.97 1.30982 0.876444 0
M  V30 2798 C 272.92 1.14688 1.97055 0
M  V30 2799 C 273.904 0.0596593 1.60789 0
M  V30 2800 O 275.096 0.283892 1.74708 0
M  V30 2801 C 272.225 0.849627 3.3262 0
M  V30 2802 C 271.311 1.97752 3.75173 0
M  V30 2803 N 271.702 3.22384 3.89746 0
M  V30 2804 C 270 1.8758 4.04635 0
M  V30 2805 C 270.701 3.96121 4.25985 0
M  V30 2806 N 269.677 3.24237 4.36315 0
M  V30 2807 H 273.479 2.09204 2.06424 0
M  V30 2808 H 270.993 1.22445 1.06682 0
M  V30 2809 H 272.99 0.713895 4.10742 0
M  V30 2810 H 271.65 -0.087376 3.24582 0
M  V30 2811 H 272.661 3.57575 3.74647 0
M  V30 2812 H 269.338 1.01303 4.05024 0
M  V30 2813 H 270.728 5.03491 4.44911 0
M  V30 2814 N 273.449 -1.08991 1.13837 0
M  V30 2815 C 274.726 -1.77863 0.813876 0
M  V30 2816 C 275.106 -1.99375 -0.693746 0
M  V30 2817 O 274.454 -1.59875 -1.63255 0
M  V30 2818 C 274.664 -3.0986 1.60586 0
M  V30 2819 C 276.012 -3.84493 1.8014 0
M  V30 2820 O 277.036 -3.19624 1.57222 0
M  V30 2821 O 275.895 -5.00957 2.18413 0
M  V30 2822 H 272.989 -0.771589 0.297624 0
M  V30 2823 H 275.535 -1.15507 1.24323 0
M  V30 2824 H 274.307 -2.89715 2.63022 0
M  V30 2825 H 273.93 -3.79942 1.17173 0
M  V30 2826 N 274.927 -0.932562 -1.27047 0
M  V30 2827 C 276.175 -0.574422 -1.93765 0
M  V30 2828 C 276.496 0.887993 -1.73608 0
M  V30 2829 O 275.766 1.62999 -1.08665 0
M  V30 2830 H 274.346 -0.209451 -0.717035 0
M  V30 2831 H 277.008 -1.18601 -1.5466 0
M  V30 2832 H 276.104 -0.784841 -3.02071 0
M  V30 2833 N 276.405 1.4127 -0.698611 0
M  V30 2834 C 277.368 2.29158 -0.044132 0
M  V30 2835 C 278.368 1.44529 0.704841 0
M  V30 2836 O 279.558 1.65643 0.539276 0
M  V30 2837 C 276.69 3.27459 0.947809 0
M  V30 2838 H 277.883 2.88529 -0.817994 0
M  V30 2839 H 275.436 1.49307 -0.46228 0
M  V30 2840 H 276.171 2.73073 1.74933 0
M  V30 2841 H 275.956 3.8991 0.41385 0
M  V30 2842 H 277.446 3.93311 1.40344 0
M  V30 2843 N 277.883 0.443576 1.51229 0
M  V30 2844 C 279.132 -0.122332 2.01329 0
M  V30 2845 C 279.445 -1.43237 1.33201 0
M  V30 2846 O 280.651 -2.0816 1.74304 0
M  V30 2847 C 279.107 -0.268551 3.58897 0
M  V30 2848 C 278.715 1.03142 4.35965 0
M  V30 2849 C 280.459 -0.787894 4.17124 0
M  V30 2850 C 278.366 0.850504 5.85252 0
M  V30 2851 H 277.296 -0.0494929 0.752374 0
M  V30 2852 H 279.947 0.574289 1.74282 0
M  V30 2853 H 278.329 -1.02832 3.82415 0
M  V30 2854 H 279.503 1.80001 4.24189 0
M  V30 2855 H 277.818 1.47977 3.89219 0
M  V30 2856 H 280.415 -0.939841 5.26375 0
M  V30 2857 H 280.758 -1.77201 3.76703 0
M  V30 2858 H 281.291 -0.0862669 3.97706 0
M  V30 2859 H 278.03 1.80718 6.30096 0
M  V30 2860 H 277.55 0.121825 5.99676 0
M  V30 2861 H 279.229 0.506163 6.45017 0
M  V30 2862 N 279.361 -1.56624 0.175154 0
M  V30 2863 C 280.589 -2.01374 -0.474971 0
M  V30 2864 C 281.004 -1.05537 -1.56548 0
M  V30 2865 O 280.361 -0.0568668 -1.82411 0
M  V30 2866 C 280.412 -3.45923 -1.04975 0
M  V30 2867 O 280.133 -4.381 -0.00276605 0
M  V30 2868 C 281.634 -4.06093 -1.77773 0
M  V30 2869 H 278.854 -0.659962 -0.121206 0
M  V30 2870 H 281.398 -2.02601 0.27801 0
M  V30 2871 H 279.553 -3.45458 -1.75321 0
M  V30 2872 H 279.967 -5.22753 -0.427681 0
M  V30 2873 H 281.441 -5.09147 -2.13245 0
M  V30 2874 H 281.918 -3.48405 -2.67414 0
M  V30 2875 H 282.524 -4.10272 -1.12059 0
M  V30 2876 N 280.839 0.0985539 -1.57292 0
M  V30 2877 C 281.749 1.13824 -2.05137 0
M  V30 2878 C 282.765 1.44076 -0.975604 0
M  V30 2879 O 283.941 1.54786 -1.28853 0
M  V30 2880 C 281.006 2.43969 -2.46333 0
M  V30 2881 C 280.067 2.2093 -3.68087 0
M  V30 2882 C 279.3 3.44869 -4.0731 0
M  V30 2883 O 279.523 4.52972 -3.46659 0
M  V30 2884 O 278.457 3.34661 -5.00285 0
M  V30 2885 H 282.283 0.761881 -2.93988 0
M  V30 2886 H 279.868 0.310818 -1.46131 0
M  V30 2887 H 281.75 3.20609 -2.73473 0
M  V30 2888 H 280.425 2.81038 -1.60621 0
M  V30 2889 H 279.332 1.42081 -3.46069 0
M  V30 2890 H 280.665 1.88755 -4.54568 0
M  V30 2891 N 282.317 1.53212 0.369288 0
M  V30 2892 C 283.733 1.42902 0.710712 0
M  V30 2893 C 283.933 0.565135 1.93413 0
M  V30 2894 O 282.989 0.0461484 2.52458 0
M  V30 2895 C 284.302 2.86042 0.927382 0
M  V30 2896 C 285.85 2.9565 1.02762 0
M  V30 2897 C 286.325 4.39843 1.27679 0
M  V30 2898 N 287.816 4.43256 1.34457 0
M  V30 2899 C 288.551 5.51929 1.55439 0
M  V30 2900 N 288.047 6.70655 1.73762 0
M  V30 2901 N 289.84 5.39502 1.57779 0
M  V30 2902 H 281.991 2.07888 -0.435457 0
M  V30 2903 H 284.254 0.938661 -0.132739 0
M  V30 2904 H 283.96 3.51557 0.100287 0
M  V30 2905 H 283.834 3.29472 1.83653 0
M  V30 2906 H 286.221 2.30291 1.84527 0
M  V30 2907 H 286.302 2.5562 0.0959504 0
M  V30 2908 H 285.946 5.05774 0.464175 0
M  V30 2909 H 285.876 4.77443 2.22162 0
M  V30 2910 H 288.367 3.5769 1.21926 0
M  V30 2911 H 288.68 7.49248 1.89335 0
M  V30 2912 H 287.025 6.73648 1.70948 0
M  V30 2913 H 290.216 4.45713 1.43029 0
M  V30 2914 H 290.389 6.2426 1.7379 0
M  V30 2915 N 283.795 -0.628877 1.44509 0
M  V30 2916 C 284.725 -1.75187 1.54376 0
M  V30 2917 C 285.706 -1.65411 0.396618 0
M  V30 2918 O 286.891 -1.84137 0.617031 0
M  V30 2919 C 284.021 -3.13725 1.48976 0
M  V30 2920 C 282.975 -3.38291 2.62189 0
M  V30 2921 C 282.301 -4.76883 2.41841 0
M  V30 2922 C 283.601 -3.30632 4.04326 0
M  V30 2923 H 285.295 -1.67187 2.48373 0
M  V30 2924 H 282.841 -0.802909 1.19538 0
M  V30 2925 H 284.794 -3.92064 1.54478 0
M  V30 2926 H 283.518 -3.22515 0.514961 0
M  V30 2927 H 282.177 -2.62334 2.56079 0
M  V30 2928 H 281.825 -4.82378 1.42548 0
M  V30 2929 H 281.525 -4.94278 3.17747 0
M  V30 2930 H 283.049 -5.57449 2.49165 0
M  V30 2931 H 284.463 -3.98873 4.11793 0
M  V30 2932 H 282.86 -3.59561 4.80454 0
M  V30 2933 H 283.93 -2.28404 4.27738 0
M  V30 2934 N 285.273 -1.31445 -0.869486 0
M  V30 2935 C 286.206 -1.13465 -1.97992 0
M  V30 2936 C 287.184 -0.0380291 -1.62556 0
M  V30 2937 O 288.368 -0.194544 -1.87493 0
M  V30 2938 C 285.495 -0.733822 -3.30655 0
M  V30 2939 C 284.541 -1.83356 -3.85075 0
M  V30 2940 S 285.374 -3.43909 -4.10472 0
M  V30 2941 C 286.53 -3.05763 -5.46132 0
M  V30 2942 H 286.763 -2.07471 -2.1294 0
M  V30 2943 H 284.296 -1.15936 -1.01972 0
M  V30 2944 H 286.254 -0.509306 -4.07328 0
M  V30 2945 H 284.915 0.187123 -3.13542 0
M  V30 2946 H 284.108 -1.50574 -4.80982 0
M  V30 2947 H 283.71 -2.01315 -3.15195 0
M  V30 2948 H 286.002 -2.54686 -6.27807 0
M  V30 2949 H 286.945 -4.00635 -5.83864 0
M  V30 2950 H 287.353 -2.43192 -5.09429 0
M  V30 2951 N 286.751 1.08385 -1.14413 0
M  V30 2952 C 287.991 1.8238 -0.922868 0
M  V30 2953 C 288.355 1.84225 0.540842 0
M  V30 2954 O 289.556 2.53985 0.880058 0
M  V30 2955 C 287.827 3.24048 -1.50757 0
M  V30 2956 S 289.386 4.14917 -1.4279 0
M  V30 2957 H 286.204 0.628524 -0.332384 0
M  V30 2958 H 288.806 1.30278 -1.45766 0
M  V30 2959 H 287.51 3.20288 -2.56601 0
M  V30 2960 H 287.041 3.81224 -0.971178 0
M  V30 2961 H 289.056 4.94473 -0.413582 0
M  V30 2962 N 288.23 0.939286 1.26551 0
M  V30 2963 C 289.193 0.451987 2.24699 0
M  V30 2964 C 290.193 -0.435869 1.5478 0
M  V30 2965 O 291.383 -0.235314 1.72603 0
M  V30 2966 C 288.515 -0.348801 3.39111 0
M  V30 2967 H 289.708 1.3193 2.69322 0
M  V30 2968 H 287.261 0.721072 1.38673 0
M  V30 2969 H 287.996 -1.23444 2.99887 0
M  V30 2970 H 287.781 0.287945 3.91041 0
M  V30 2971 H 289.271 -0.679726 4.12031 0
M  V30 2972 N 289.708 -1.40897 0.706093 0
M  V30 2973 C 290.618 -2.3455 0.0482286 0
M  V30 2974 C 291.634 -1.56796 -0.754396 0
M  V30 2975 O 292.81 -1.89228 -0.689538 0
M  V30 2976 C 289.875 -3.35625 -0.869303 0
M  V30 2977 C 288.936 -4.29261 -0.0576994 0
M  V30 2978 C 288.169 -5.25508 -0.931531 0
M  V30 2979 O 288.392 -5.27472 -2.17092 0
M  V30 2980 O 287.326 -6.00727 -0.375587 0
M  V30 2981 H 291.152 -2.92407 0.820476 0
M  V30 2982 H 288.737 -1.4193 0.4665 0
M  V30 2983 H 290.619 -3.97635 -1.39514 0
M  V30 2984 H 289.294 -2.80196 -1.62086 0
M  V30 2985 H 288.201 -3.70566 0.512988 0
M  V30 2986 H 289.534 -4.87817 0.655426 0
M  V30 2987 N 291.186 -0.45159 -1.50991 0
M  V30 2988 C 292.411 0.110667 -2.07105 0
M  V30 2989 C 292.836 1.3446 -1.31538 0
M  V30 2990 O 292.194 1.77743 -0.357365 0
M  V30 2991 C 292.242 0.397238 -3.58405 0
M  V30 2992 O 291.346 1.48124 -3.84881 0
M  V30 2993 H 290.687 -0.00439271 -0.663985 0
M  V30 2994 H 293.217 -0.637026 -1.9443 0
M  V30 2995 H 293.227 0.64351 -4.02893 0
M  V30 2996 H 291.902 -0.504553 -4.12828 0
M  V30 2997 H 290.479 1.22381 -3.52246 0
M  V30 2998 N 292.664 1.56529 -0.183458 0
M  V30 2999 C 293.612 2.19873 0.758845 0
M  V30 3000 C 294.606 1.16638 1.22849 0
M  V30 3001 O 295.812 1.3481 1.19274 0
M  V30 3002 H 292.187 0.7045 0.263029 0
M  V30 3003 H 294.158 2.97724 0.200755 0
M  V30 3004 C 292.907 2.86314 1.9728 0
M  V30 3005 H 292.23 3.65487 1.62047 0
M  V30 3006 H 293.67 3.3409 2.61075 0
M  V30 3007 C 292.129 1.86729 2.80418 0
M  V30 3008 O 292.659 1.36031 3.77966 0
M  V30 3009 N 290.865 1.55216 2.45675 0
M  V30 3010 H 290.412 1.96636 1.66409 0
M  V30 3011 H 290.37 0.888388 3.01588 0
M  V30 3012 N 294.142 -0.090211 1.57342 0
M  V30 3013 C 295.558 -0.444547 1.53284 0
M  V30 3014 C 295.758 -1.80238 0.900914 0
M  V30 3015 O 294.814 -2.4759 0.495513 0
M  V30 3016 C 296.127 -0.402543 2.97993 0
M  V30 3017 C 297.675 -0.48405 3.09234 0
M  V30 3018 C 298.15 -0.472144 4.5556 0
M  V30 3019 N 299.641 -0.532757 4.60126 0
M  V30 3020 C 300.376 -0.545462 5.708 0
M  V30 3021 N 299.872 -0.514082 6.9089 0
M  V30 3022 N 301.665 -0.59064 5.58988 0
M  V30 3023 H 293.816 0.799121 1.96794 0
M  V30 3024 H 296.079 0.297965 0.899956 0
M  V30 3025 H 295.785 0.528106 3.47712 0
M  V30 3026 H 295.659 -1.21969 3.56936 0
M  V30 3027 H 298.046 -1.40512 2.595 0
M  V30 3028 H 298.127 0.361328 2.53235 0
M  V30 3029 H 297.771 0.445 5.05947 0
M  V30 3030 H 297.701 -1.3348 5.09402 0
M  V30 3031 H 300.192 -0.562006 3.73698 0
M  V30 3032 H 300.505 -0.527195 7.71 0
M  V30 3033 H 298.85 -0.481054 6.93333 0
M  V30 3034 H 302.041 -0.61272 4.64073 0
M  V30 3035 H 302.214 -0.597073 6.45243 0
M  V30 3036 N 295.62 -1.53406 -0.361157 0
M  V30 3037 C 297.036 -1.43277 -0.703124 0
M  V30 3038 C 297.236 -0.575384 -1.9311 0
M  V30 3039 O 296.292 -0.0595362 -2.5243 0
M  V30 3040 C 297.605 -2.8653 -0.9122 0
M  V30 3041 C 299.153 -2.96191 -1.01193 0
M  V30 3042 C 299.628 -4.40514 -1.25345 0
M  V30 3043 N 301.119 -4.43962 -1.32105 0
M  V30 3044 C 301.854 -5.52746 -1.5251 0
M  V30 3045 N 301.35 -6.71567 -1.70203 0
M  V30 3046 N 303.143 -5.40331 -1.54916 0
M  V30 3047 H 295.294 -2.07654 0.446475 0
M  V30 3048 H 297.557 -0.937944 0.137715 0
M  V30 3049 H 297.263 -3.51605 -0.0816414 0
M  V30 3050 H 297.137 -3.30441 -1.81903 0
M  V30 3051 H 299.524 -2.31266 -1.83303 0
M  V30 3052 H 299.605 -2.55667 -0.0823929 0
M  V30 3053 H 299.249 -5.06014 -0.437346 0
M  V30 3054 H 299.179 -4.78614 -2.19627 0
M  V30 3055 H 301.67 -3.58332 -1.20028 0
M  V30 3056 H 301.983 -7.50241 -1.85359 0
M  V30 3057 H 300.328 -6.74545 -1.67373 0
M  V30 3058 H 303.519 -4.46465 -1.40663 0
M  V30 3059 H 303.692 -6.25173 -1.70477 0
M  V30 3060 N 297.098 0.621204 -1.44841 0
M  V30 3061 C 298.375 1.38 -1.38619 0
M  V30 3062 C 298.755 2.11041 -0.0498935 0
M  V30 3063 O 298.103 2.06992 0.967816 0
M  V30 3064 C 298.313 2.33817 -2.59096 0
M  V30 3065 C 299.661 2.96844 -3.03593 0
M  V30 3066 O 300.685 2.44141 -2.59371 0
M  V30 3067 O 299.544 3.92476 -3.80296 0
M  V30 3068 H 296.638 0.61811 -0.549426 0
M  V30 3069 H 299.184 0.645429 -1.56947 0
M  V30 3070 H 297.956 1.79012 -3.47952 0
M  V30 3071 H 297.579 3.14676 -2.43032 0
M  V30 3072 N 298.576 1.31904 0.862503 0
M  V30 3073 C 299.801 1.25135 1.65397 0
M  V30 3074 C 300.226 -0.179 1.87246 0
M  V30 3075 O 299.584 -1.1277 1.4196 0
M  V30 3076 C 299.632 2.00832 2.99498 0
M  V30 3077 O 298.736 1.35075 3.89652 0
M  V30 3078 H 298.077 0.431655 0.504549 0
M  V30 3079 H 300.607 1.74094 1.07483 0
M  V30 3080 H 300.617 2.10709 3.49379 0
M  V30 3081 H 299.292 3.04847 2.82916 0
M  V30 3082 H 297.869 1.33696 3.48109 0
M  V30 3083 N 300.054 -1.07777 1.14986 0
M  V30 3084 C 301.294 -1.81888 0.932527 0
M  V30 3085 C 301.658 -1.84509 -0.531064 0
M  V30 3086 O 302.859 -2.54448 -0.866577 0
M  V30 3087 C 301.13 -3.23244 1.52473 0
M  V30 3088 S 302.689 -4.14154 1.44989 0
M  V30 3089 H 299.507 -0.626752 0.335712 0
M  V30 3090 H 302.109 -1.29503 1.46455 0
M  V30 3091 H 300.813 -3.18922 2.58296 0
M  V30 3092 H 300.344 -3.80704 0.991381 0
M  V30 3093 H 302.359 -4.94247 0.439799 0
M  V30 3094 N 301.532 -0.945985 -1.26051 0
M  V30 3095 C 302.479 -0.45809 -2.26208 0
M  V30 3096 C 303.449 0.484816 -1.58867 0
M  V30 3097 O 304.634 0.399969 -1.86561 0
M  V30 3098 C 301.774 0.266131 -3.44072 0
M  V30 3099 C 300.887 -0.713005 -4.26075 0
M  V30 3100 C 300.022 0.0329013 -5.3119 0
M  V30 3101 C 299.061 -0.93774 -6.04874 0
M  V30 3102 N 298.198 -0.223274 -7.01745 0
M  V30 3103 H 303.038 -1.3171 -2.67313 0
M  V30 3104 H 300.575 -0.66069 -1.31428 0
M  V30 3105 H 302.533 0.702514 -4.11243 0
M  V30 3106 H 301.163 1.08925 -3.03867 0
M  V30 3107 H 300.215 -1.26789 -3.58648 0
M  V30 3108 H 301.527 -1.45406 -4.77136 0
M  V30 3109 H 300.681 0.528335 -6.04395 0
M  V30 3110 H 299.42 0.806801 -4.8098 0
M  V30 3111 H 298.425 -1.44425 -5.30492 0
M  V30 3112 H 299.65 -1.71172 -6.57173 0
M  V30 3113 H 297.596 0.532046 -6.53839 0
M  V30 3114 H 297.513 -0.90357 -7.50581 0
M  V30 3115 H 298.781 0.250907 -7.79096 0
M  V30 3116 N 303.011 1.40521 -0.713556 0
M  V30 3117 C 304.259 2.00527 -0.251692 0
M  V30 3118 C 304.58 1.56857 1.15848 0
M  V30 3119 O 303.85 0.807127 1.785 0
M  V30 3120 H 302.43 0.741551 -0.0900646 0
M  V30 3121 H 305.092 1.71887 -0.918733 0
M  V30 3122 H 304.188 3.10813 -0.283192 0
M  V30 3123 N 304.489 0.459591 1.5075 0
M  V30 3124 C 305.766 -0.160371 1.94941 0
M  V30 3125 C 306.146 -1.58048 1.39943 0
M  V30 3126 O 305.494 -2.206 0.595629 0
M  V30 3127 C 305.704 -0.115432 3.48809 0
M  V30 3128 C 307.052 -0.310026 4.23467 0
M  V30 3129 O 308.076 -0.192543 3.55679 0
M  V30 3130 O 306.935 -0.546031 5.43765 0
M  V30 3131 H 304.029 -0.117925 0.818549 0
M  V30 3132 H 306.575 0.519169 1.61563 0
M  V30 3133 H 305.347 0.87652 3.81357 0
M  V30 3134 H 304.97 -0.836928 3.88692 0
M  V30 3135 N 305.967 -1.56429 0.191757 0
M  V30 3136 C 307.192 -2.02309 -0.456706 0
M  V30 3137 C 307.617 -1.07103 -1.5463 0
M  V30 3138 O 306.975 -0.0539677 -1.8122 0
M  V30 3139 C 307.023 -3.46654 -0.993159 0
M  V30 3140 O 306.127 -3.54559 -2.10622 0
M  V30 3141 H 305.468 -0.655303 -0.107114 0
M  V30 3142 H 307.998 -2.02364 0.301653 0
M  V30 3143 H 308.008 -3.86377 -1.31061 0
M  V30 3144 H 306.683 -4.1544 -0.195504 0
M  V30 3145 H 305.26 -3.26708 -1.79767 0
M  V30 3146 N 307.445 0.0818655 -1.57387 0
M  V30 3147 C 308.693 0.781368 -1.86384 0
M  V30 3148 C 309.014 1.78618 -0.782342 0
M  V30 3149 O 308.284 1.94976 0.190061 0
M  V30 3150 H 306.864 0.291562 -0.687751 0
M  V30 3151 H 309.526 0.060348 -1.94807 0
M  V30 3152 H 308.622 1.3038 -2.83562 0
M  V30 3153 N 308.923 1.53595 0.353017 0
M  V30 3154 C 310.171 1.70049 1.09215 0
M  V30 3155 C 310.492 0.461406 1.89463 0
M  V30 3156 O 309.762 -0.524633 1.88744 0
M  V30 3157 H 308.342 0.626912 0.40619 0
M  V30 3158 H 311.004 1.90822 0.396585 0
M  V30 3159 H 310.1 2.56718 1.77488 0
M  V30 3160 N 310.401 -0.613514 1.45168 0
M  V30 3161 C 311.812 -1.19539 1.43413 0
M  V30 3162 C 312.163 -1.95558 0.158632 0
M  V30 3163 O 311.288 -2.0335 -0.740119 0
M  V30 3164 C 311.883 -2.17445 2.59813 0
M  V30 3165 C 310.442 -2.71022 2.61197 0
M  V30 3166 C 309.589 -1.46323 2.35552 0
M  V30 3167 H 312.54 -0.403163 1.53494 0
M  V30 3168 H 312.561 -3.00373 2.33574 0
M  V30 3169 H 312.073 -1.62089 3.52631 0
M  V30 3170 H 310.174 -3.30332 1.7237 0
M  V30 3171 H 310.287 -3.15859 3.60236 0
M  V30 3172 H 308.651 -1.75072 1.84992 0
M  V30 3173 H 309.434 -0.92844 3.30507 0
M  V30 3174 N 311.879 -1.3236 -0.855495 0
M  V30 3175 C 312.809 -1.23833 -1.97958 0
M  V30 3176 C 313.79 -0.122361 -1.69659 0
M  V30 3177 O 314.975 -0.30939 -1.9172 0
M  V30 3178 C 312.105 -0.959772 -3.33775 0
M  V30 3179 C 311.059 -2.03689 -3.76424 0
M  V30 3180 C 310.385 -1.61075 -5.09862 0
M  V30 3181 C 311.685 -3.4518 -3.9198 0
M  V30 3182 H 313.379 -2.1788 -2.0535 0
M  V30 3183 H 310.925 -1.04891 -0.986605 0
M  V30 3184 H 312.878 -0.886678 -4.11966 0
M  V30 3185 H 311.602 0.0163404 -3.26596 0
M  V30 3186 H 310.261 -2.10012 -3.00484 0
M  V30 3187 H 309.909 -0.622107 -4.99138 0
M  V30 3188 H 309.609 -2.33143 -5.39368 0
M  V30 3189 H 311.133 -1.55201 -5.90546 0
M  V30 3190 H 312.547 -3.4145 -4.60526 0
M  V30 3191 H 310.944 -4.1559 -4.32903 0
M  V30 3192 H 312.014 -3.84903 -2.94919 0
M  V30 3193 N 313.357 1.07166 -1.15556 0
M  V30 3194 C 314.603 1.80065 -0.932984 0
M  V30 3195 C 314.936 1.86586 0.53845 0
M  V30 3196 O 314.211 1.35098 1.39924 0
M  V30 3197 C 314.494 3.25022 -1.55025 0
M  V30 3198 C 314.347 3.26634 -3.09242 0
M  V30 3199 C 315.666 4.22341 -1.2376 0
M  V30 3200 H 312.785 0.653697 -0.340366 0
M  V30 3201 H 315.427 1.25389 -1.4275 0
M  V30 3202 H 313.577 3.71712 -1.12972 0
M  V30 3203 H 315.249 2.88173 -3.60214 0
M  V30 3204 H 313.492 2.65539 -3.43033 0
M  V30 3205 H 314.163 4.28854 -3.47546 0
M  V30 3206 H 316.639 3.8405 -1.60139 0
M  V30 3207 H 315.515 5.22053 -1.69564 0
M  V30 3208 H 315.776 4.41828 -0.154938 0
M  V30 3209 N 314.835 0.952656 1.25548 0
M  V30 3210 C 316.075 0.614013 1.9496 0
M  V30 3211 C 316.439 -0.833215 1.72978 0
M  V30 3212 O 317.64 -1.28135 2.36294 0
M  V30 3213 C 315.911 0.960562 3.4425 0
M  V30 3214 S 317.47 0.734195 4.32614 0
M  V30 3215 H 314.288 0.225754 0.674208 0
M  V30 3216 H 316.89 1.22641 1.52248 0
M  V30 3217 H 315.594 2.01103 3.57751 0
M  V30 3218 H 315.125 0.338336 3.91942 0
M  V30 3219 H 317.14 -0.395995 4.94617 0
M  V30 3220 N 316.313 -1.40141 0.720998 0
M  V30 3221 C 317.561 -2.0039 0.262323 0
M  V30 3222 C 317.882 -1.57469 -1.15015 0
M  V30 3223 O 317.152 -0.816582 -1.78069 0
M  V30 3224 H 315.732 -0.741063 0.093996 0
M  V30 3225 H 318.394 -1.71398 0.927835 0
M  V30 3226 H 317.49 -3.10658 0.299671 0
M  V30 3227 N 317.792 -0.46758 -1.50504 0
M  V30 3228 C 319.04 0.0884469 -2.01906 0
M  V30 3229 C 319.361 1.40532 -1.35188 0
M  V30 3230 O 318.631 1.89515 -0.496079 0
M  V30 3231 H 317.211 0.0356765 -0.746148 0
M  V30 3232 H 319.873 -0.6172 -1.84869 0
M  V30 3233 H 318.969 0.2425 -3.11156 0
M  V30 3234 N 319.27 1.56325 -0.20005 0
M  V30 3235 C 320.516 1.98012 0.438059 0
M  V30 3236 C 320.849 1.08702 1.60927 0
M  V30 3237 O 320.124 0.140064 1.93995 0
M  V30 3238 C 320.407 3.48841 0.893419 0
M  V30 3239 C 320.26 4.48928 -0.279947 0
M  V30 3240 C 321.579 4.03498 1.75719 0
M  V30 3241 H 318.698 0.719918 0.157757 0
M  V30 3242 H 321.34 1.87743 -0.291968 0
M  V30 3243 H 319.49 3.57723 1.51547 0
M  V30 3244 H 321.162 4.52079 -0.91772 0
M  V30 3245 H 319.405 4.23694 -0.930919 0
M  V30 3246 H 320.076 5.5194 0.0812601 0
M  V30 3247 H 322.552 3.97427 1.23253 0
M  V30 3248 H 321.428 5.09393 2.04476 0
M  V30 3249 H 321.689 3.4906 2.71311 0
M  V30 3250 N 320.748 -0.0735177 1.57428 0
M  V30 3251 C 321.678 -1.0879 2.06608 0
M  V30 3252 C 322.659 -1.40473 0.959237 0
M  V30 3253 O 323.844 -1.5013 1.23185 0
M  V30 3254 C 320.974 -2.40183 2.50857 0
M  V30 3255 C 319.928 -2.22858 3.65402 0
M  V30 3256 C 319.254 -3.59619 3.957 0
M  V30 3257 C 320.554 -1.65123 4.95511 0
M  V30 3258 H 322.248 -0.678673 2.91607 0
M  V30 3259 H 319.794 -0.325013 1.40284 0
M  V30 3260 H 321.747 -3.11437 2.83874 0
M  V30 3261 H 320.471 -2.83083 1.62885 0
M  V30 3262 H 319.13 -1.54045 3.32664 0
M  V30 3263 H 318.778 -4.00086 3.04861 0
M  V30 3264 H 318.478 -3.48866 4.72828 0
M  V30 3265 H 320.002 -4.32306 4.31212 0
M  V30 3266 H 321.416 -2.26241 5.26771 0
M  V30 3267 H 319.813 -1.65071 5.7695 0
M  V30 3268 H 320.883 -0.612559 4.81015 0
M  V30 3269 N 322.226 -1.5378 -0.344866 0
M  V30 3270 C 323.136 -1.84667 -1.4469 0
M  V30 3271 C 324.152 -0.736704 -1.57635 0
M  V30 3272 O 325.328 -1.02888 -1.73136 0
M  V30 3273 C 322.393 -2.04869 -2.79696 0
M  V30 3274 C 321.454 -3.28731 -2.76106 0
M  V30 3275 C 320.687 -3.4796 -4.04673 0
M  V30 3276 O 320.91 -2.71052 -5.01883 0
M  V30 3277 O 319.844 -4.41383 -4.09224 0
M  V30 3278 H 323.67 -2.78334 -1.21506 0
M  V30 3279 H 321.255 -1.39418 -0.536921 0
M  V30 3280 H 323.137 -2.19609 -3.59652 0
M  V30 3281 H 321.812 -1.14391 -3.02814 0
M  V30 3282 H 320.719 -3.19396 -1.94774 0
M  V30 3283 H 322.052 -4.19198 -2.57941 0
M  V30 3284 N 323.704 0.605807 -1.45491 0
M  V30 3285 C 324.952 1.36207 -1.49305 0
M  V30 3286 C 325.273 1.94519 -0.136863 0
M  V30 3287 O 324.543 1.77261 0.833983 0
M  V30 3288 H 323.123 0.50565 -0.549843 0
M  V30 3289 H 325.785 0.711239 -1.81459 0
M  V30 3290 H 324.881 2.18058 -2.23287 0
M  V30 3291 N 325.182 1.32811 0.848464 0
M  V30 3292 C 326.428 1.23907 1.60546 0
M  V30 3293 C 326.761 -0.197161 1.93197 0
M  V30 3294 O 326.036 -1.13596 1.5788 0
M  V30 3295 C 326.319 2.10489 2.92175 0
M  V30 3296 C 326.172 3.62522 2.66266 0
M  V30 3297 C 327.491 1.97075 3.93509 0
M  V30 3298 H 324.61 0.451459 0.58254 0
M  V30 3299 H 327.252 1.62818 0.979296 0
M  V30 3300 H 325.402 1.77434 3.45614 0
M  V30 3301 H 327.074 4.05821 2.19334 0
M  V30 3302 H 325.317 3.84879 2.00126 0
M  V30 3303 H 325.988 4.18437 3.6002 0
M  V30 3304 H 328.464 2.26045 3.49346 0
M  V30 3305 H 327.34 2.59923 4.83457 0
M  V30 3306 H 327.601 0.940186 4.31987 0
M  V30 3307 N 326.66 -1.06551 1.16123 0
M  V30 3308 C 327.906 -1.79567 0.94252 0
M  V30 3309 C 328.239 -1.86869 -0.528547 0
M  V30 3310 O 327.514 -1.35838 -1.39206 0
M  V30 3311 C 327.797 -3.24195 1.56747 0
M  V30 3312 C 327.65 -3.24989 3.10969 0
M  V30 3313 C 328.969 -4.21678 1.25998 0
M  V30 3314 H 326.088 -0.651883 0.343828 0
M  V30 3315 H 328.73 -1.2463 1.43413 0
M  V30 3316 H 326.88 -3.71107 1.14942 0
M  V30 3317 H 328.552 -2.86258 3.61737 0
M  V30 3318 H 326.795 -2.63716 3.44436 0
M  V30 3319 H 327.466 -4.27005 3.49815 0
M  V30 3320 H 329.942 -3.83196 1.62174 0
M  V30 3321 H 328.818 -5.21146 1.7233 0
M  V30 3322 H 329.079 -4.4174 0.178367 0
M  V30 3323 N 328.138 -0.959301 -1.25041 0
M  V30 3324 C 329.366 -0.633949 -1.96948 0
M  V30 3325 C 329.781 0.794916 -1.7125 0
M  V30 3326 O 329.138 1.53231 -0.991287 0
M  V30 3327 C 329.189 -0.888805 -3.50403 0
M  V30 3328 O 328.91 -2.26149 -3.75218 0
M  V30 3329 C 330.411 -0.576482 -4.39536 0
M  V30 3330 H 327.631 -0.237263 -0.627652 0
M  V30 3331 H 330.175 -1.28495 -1.59089 0
M  V30 3332 H 328.33 -0.284145 -3.86357 0
M  V30 3333 H 328.744 -2.33514 -4.6965 0
M  V30 3334 H 330.218 -0.805314 -5.46094 0
M  V30 3335 H 330.695 0.489075 -4.36468 0
M  V30 3336 H 331.301 -1.16067 -4.09156 0
M  V30 3337 N 329.616 1.39756 -0.72842 0
M  V30 3338 C 330.841 2.05472 -0.282159 0
M  V30 3339 C 331.266 1.54549 1.07221 0
M  V30 3340 O 330.624 0.686372 1.67805 0
M  V30 3341 C 330.672 3.59462 -0.286264 0
M  V30 3342 O 329.776 4.05918 0.728298 0
M  V30 3343 H 329.117 0.651226 -0.129618 0
M  V30 3344 H 331.647 1.78915 -0.992499 0
M  V30 3345 H 331.657 4.07798 -0.128373 0
M  V30 3346 H 330.332 3.95889 -1.27456 0
M  V30 3347 H 328.909 3.69012 0.537081 0
M  V30 3348 N 331.094 0.475555 1.50254 0
M  V30 3349 C 332.342 -0.077738 2.0195 0
M  V30 3350 C 332.663 -1.39813 1.35931 0
M  V30 3351 O 331.933 -1.89249 0.506123 0
M  V30 3352 H 330.513 -0.031719 0.746326 0
M  V30 3353 H 333.175 0.626995 1.84539 0
M  V30 3354 H 332.271 -0.225995 3.11281 0
M  V30 3355 N 332.573 -1.56217 0.208337 0
M  V30 3356 C 333.798 -2.02782 -0.435222 0
M  V30 3357 C 334.223 -1.08738 -1.53485 0
M  V30 3358 O 333.581 -0.0731855 -1.81152 0
M  V30 3359 C 333.629 -3.47687 -0.956335 0
M  V30 3360 O 332.733 -3.56773 -2.06849 0
M  V30 3361 H 332.074 -0.656403 -0.100158 0
M  V30 3362 H 334.604 -2.02033 0.3231 0
M  V30 3363 H 334.614 -3.87745 -1.26955 0
M  V30 3364 H 333.289 -4.15624 -0.15143 0
M  V30 3365 H 331.866 -3.28597 -1.76292 0
M  V30 3366 N 334.051 0.0651679 -1.57465 0
M  V30 3367 C 335.467 0.420105 -1.53972 0
M  V30 3368 C 335.667 1.78782 -0.929474 0
M  V30 3369 O 334.723 2.46771 -0.534839 0
M  V30 3370 C 336.036 0.355084 -2.98596 0
M  V30 3371 C 337.584 0.434792 -3.09965 0
M  V30 3372 C 338.059 0.399609 -4.56253 0
M  V30 3373 N 339.55 0.459488 -4.60915 0
M  V30 3374 C 340.285 0.454584 -5.71595 0
M  V30 3375 N 339.781 0.404102 -6.9162 0
M  V30 3376 N 341.574 0.501635 -5.59857 0
M  V30 3377 H 333.725 -0.830328 -1.95498 0
M  V30 3378 H 335.988 -0.312244 -0.895102 0
M  V30 3379 H 335.694 -0.583357 -3.46828 0
M  V30 3380 H 335.568 1.16275 -3.58831 0
M  V30 3381 H 337.955 1.36366 -2.61703 0
M  V30 3382 H 338.036 -0.40157 -2.52628 0
M  V30 3383 H 337.68 -0.525436 -5.05175 0
M  V30 3384 H 337.61 1.25359 -5.11461 0
M  V30 3385 H 340.101 0.502482 -3.74544 0
M  V30 3386 H 340.414 0.404468 -7.71741 0
M  V30 3387 H 338.759 0.37069 -6.94011 0
M  V30 3388 H 341.95 0.538812 -4.64989 0
M  V30 3389 H 342.123 0.494345 -6.46112 0
M  V30 3390 N 335.529 1.53961 0.336706 0
M  V30 3391 C 336.775 1.7179 1.07777 0
M  V30 3392 C 337.108 0.483263 1.88091 0
M  V30 3393 O 336.383 -0.519747 1.87427 0
M  V30 3394 C 336.666 2.98558 2.01334 0
M  V30 3395 C 336.519 4.32245 1.24437 0
M  V30 3396 C 337.838 3.21023 3.01052 0
M  V30 3397 H 334.957 0.625089 0.390426 0
M  V30 3398 H 337.599 1.86641 0.35567 0
M  V30 3399 H 335.749 2.86028 2.62908 0
M  V30 3400 H 337.421 4.56637 0.654243 0
M  V30 3401 H 335.664 4.30344 0.546458 0
M  V30 3402 H 336.335 5.17137 1.93063 0
M  V30 3403 H 338.811 3.32929 2.49595 0
M  V30 3404 H 337.687 4.11104 3.6371 0
M  V30 3405 H 337.948 2.37637 3.72802 0
M  V30 3406 N 337.007 -0.598083 1.45811 0
M  V30 3407 C 338.247 -1.36802 1.5187 0
M  V30 3408 C 338.611 -1.9133 0.160224 0
M  V30 3409 O 339.812 -2.6863 0.0955302 0
M  V30 3410 C 338.083 -2.47835 2.57513 0
M  V30 3411 S 339.642 -3.35458 2.82866 0
M  V30 3412 H 336.46 -0.466278 0.536755 0
M  V30 3413 H 339.062 -0.689152 1.82951 0
M  V30 3414 H 337.766 -2.06141 3.54872 0
M  V30 3415 H 337.297 -3.20512 2.28114 0
M  V30 3416 H 339.312 -4.46251 2.16967 0
M  V30 3417 N 338.485 -1.33259 -0.841409 0
M  V30 3418 C 339.733 -1.24326 -1.59334 0
M  V30 3419 C 340.054 0.191564 -1.94057 0
M  V30 3420 O 339.324 1.11967 -1.60749 0
M  V30 3421 H 337.904 -0.457174 -0.590763 0
M  V30 3422 H 340.566 -1.66947 -1.00571 0
M  V30 3423 H 339.662 -1.8352 -2.52442 0
M  V30 3424 N 339.963 1.05934 -1.16686 0
M  V30 3425 C 340.911 2.15603 -0.872817 0
M  V30 3426 C 341.905 1.68647 0.159576 0
M  V30 3427 O 343.111 1.79995 0.0132125 0
M  V30 3428 H 339.486 0.703885 -0.264671 0
M  V30 3429 H 341.457 2.37613 -1.80507 0
M  V30 3430 C 340.206 3.45457 -0.394344 0
M  V30 3431 H 339.529 3.81984 -1.18019 0
M  V30 3432 H 340.969 4.2339 -0.227408 0
M  V30 3433 C 339.428 3.25021 0.88673 0
M  V30 3434 O 339.958 3.50906 1.95519 0
M  V30 3435 N 338.164 2.78437 0.831925 0
M  V30 3436 H 337.711 2.57572 -0.0377619 0
M  V30 3437 H 337.669 2.65144 1.68956 0
M  V30 3438 N 341.441 0.965919 1.2453 0
M  V30 3439 C 342.857 0.67216 1.44756 0
M  V30 3440 C 343.057 -0.766609 1.86347 0
M  V30 3441 O 342.113 -1.5407 2.00047 0
M  V30 3442 C 343.426 1.65473 2.51076 0
M  V30 3443 C 344.974 1.66716 2.64905 0
M  V30 3444 C 345.449 2.63766 3.74421 0
M  V30 3445 N 346.94 2.62198 3.81846 0
M  V30 3446 C 347.675 3.33966 4.66106 0
M  V30 3447 N 347.171 4.15245 5.54566 0
M  V30 3448 N 348.964 3.22799 4.60171 0
M  V30 3449 H 341.115 1.89553 0.958293 0
M  V30 3450 H 343.378 0.815979 0.482579 0
M  V30 3451 H 343.084 2.68296 2.27399 0
M  V30 3452 H 342.958 1.4261 3.49202 0
M  V30 3453 H 345.345 0.646057 2.87941 0
M  V30 3454 H 345.426 1.93642 1.67142 0
M  V30 3455 H 345.07 3.6601 3.52135 0
M  V30 3456 H 345 2.34121 4.71694 0
M  V30 3457 H 347.491 2.032 3.18619 0
M  V30 3458 H 347.804 4.66898 6.15814 0
M  V30 3459 H 346.149 4.1934 5.54237 0
M  V30 3460 H 349.34 2.58764 3.90075 0
M  V30 3461 H 349.513 3.78994 5.25612 0
M  V30 3462 N 342.919 -1.39368 0.735821 0
M  V30 3463 C 343.866 -2.30599 0.0963825 0
M  V30 3464 C 344.836 -1.49257 -0.728794 0
M  V30 3465 O 346.021 -1.77941 -0.688588 0
M  V30 3466 C 343.161 -3.35596 -0.804305 0
M  V30 3467 C 342.274 -4.31987 0.0335761 0
M  V30 3468 C 341.409 -5.24053 -0.868461 0
M  V30 3469 C 340.448 -6.12095 -0.0258776 0
M  V30 3470 N 339.585 -6.96514 -0.883893 0
M  V30 3471 H 344.425 -2.8471 0.880002 0
M  V30 3472 H 341.962 -1.40188 0.445619 0
M  V30 3473 H 343.92 -3.95062 -1.34096 0
M  V30 3474 H 342.55 -2.82938 -1.55389 0
M  V30 3475 H 341.602 -3.74133 0.68766 0
M  V30 3476 H 342.914 -4.94074 0.685036 0
M  V30 3477 H 342.068 -5.88549 -1.47293 0
M  V30 3478 H 340.807 -4.62289 -1.5537 0
M  V30 3479 H 339.812 -5.4661 0.591386 0
M  V30 3480 H 341.037 -6.75923 0.656156 0
M  V30 3481 H 338.983 -6.37318 -1.55441 0
M  V30 3482 H 338.9 -7.55448 -0.288931 0
M  V30 3483 H 340.168 -7.65439 -1.4739 0
M  V30 3484 N 344.397 -0.483516 -1.5 0
M  V30 3485 C 345.344 0.304164 -2.28787 0
M  V30 3486 C 346.314 0.976114 -1.34392 0
M  V30 3487 O 347.499 0.986156 -1.63339 0
M  V30 3488 C 344.639 1.37298 -3.16612 0
M  V30 3489 C 343.752 0.714561 -4.26049 0
M  V30 3490 C 342.887 1.76232 -5.01114 0
M  V30 3491 C 341.926 1.08483 -6.0241 0
M  V30 3492 N 341.063 2.076 -6.70706 0
M  V30 3493 H 345.903 -0.373981 -2.95644 0
M  V30 3494 H 343.44 -0.196275 -1.45785 0
M  V30 3495 H 345.398 2.00445 -3.65893 0
M  V30 3496 H 344.028 2.02012 -2.51776 0
M  V30 3497 H 343.08 -0.0297798 -3.80388 0
M  V30 3498 H 344.392 0.180383 -4.98474 0
M  V30 3499 H 343.546 2.46929 -5.54176 0
M  V30 3500 H 342.285 2.33033 -4.28424 0
M  V30 3501 H 341.29 0.363545 -5.48597 0
M  V30 3502 H 342.515 0.523551 -6.77079 0
M  V30 3503 H 340.461 2.63394 -6.00799 0
M  V30 3504 H 340.378 1.59201 -7.39047 0
M  V30 3505 H 341.646 2.77639 -7.2838 0
M  V30 3506 N 345.875 1.56104 -0.216619 0
M  V30 3507 C 347.286 1.844 0.292128 0
M  V30 3508 C 347.637 1.13788 1.59833 0
M  V30 3509 O 346.762 0.405888 2.12559 0
M  V30 3510 C 347.357 3.3452 0.53681 0
M  V30 3511 C 345.916 3.63151 0.989876 0
M  V30 3512 C 345.063 2.77255 0.0502302 0
M  V30 3513 H 348.014 1.52481 -0.439926 0
M  V30 3514 H 348.035 3.54459 1.38345 0
M  V30 3515 H 347.547 3.85885 -0.414031 0
M  V30 3516 H 345.648 3.17238 1.95425 0
M  V30 3517 H 345.761 4.71177 0.867698 0
M  V30 3518 H 344.125 2.48555 0.556117 0
M  V30 3519 H 344.908 3.31416 -0.89544 0
M  V30 3520 N 347.353 -0.0568162 1.57498 0
M  V30 3521 C 348.601 -0.751617 1.87604 0
M  V30 3522 C 348.922 -1.77351 0.81066 0
M  V30 3523 O 348.192 -1.95254 -0.159018 0
M  V30 3524 H 346.772 -0.280583 0.692302 0
M  V30 3525 H 349.434 -0.0293483 1.94878 0
M  V30 3526 H 348.53 -1.25852 2.856 0
M  V30 3527 N 348.832 -1.54138 -0.328536 0
M  V30 3528 C 350.081 -1.71318 -1.06456 0
M  V30 3529 C 350.394 -0.491109 -1.89334 0
M  V30 3530 O 351.6 -0.54416 -2.65991 0
M  V30 3531 C 350.056 -3.03 -1.94214 0
M  V30 3532 C 349.664 -4.32595 -1.16471 0
M  V30 3533 C 351.408 -3.29544 -2.67583 0
M  V30 3534 C 349.315 -5.55341 -2.03347 0
M  V30 3535 H 348.245 -0.638429 -0.401155 0
M  V30 3536 H 350.896 -1.80633 -0.323106 0
M  V30 3537 H 349.278 -2.87579 -2.72239 0
M  V30 3538 H 350.452 -4.58766 -0.432525 0
M  V30 3539 H 348.767 -4.12777 -0.548063 0
M  V30 3540 H 351.364 -4.18444 -3.3288 0
M  V30 3541 H 351.707 -2.47206 -3.34955 0
M  V30 3542 H 352.24 -3.45809 -1.96623 0
M  V30 3543 H 348.979 -6.40268 -1.40491 0
M  V30 3544 H 348.499 -5.33397 -2.74313 0
M  V30 3545 H 350.178 -5.91557 -2.62049 0
M  V30 3546 N 350.31 0.590341 -1.46126 0
M  V30 3547 C 351.54 1.37304 -1.54373 0
M  V30 3548 C 351.948 1.88332 -0.181071 0
M  V30 3549 O 351.291 1.63852 0.830559 0
M  V30 3550 C 351.353 2.6012 -2.48149 0
M  V30 3551 C 351.017 2.30613 -3.94546 0
M  V30 3552 C 352.014 1.89915 -4.83971 0
M  V30 3553 C 349.699 2.42993 -4.39613 0
M  V30 3554 C 351.693 1.61981 -6.16475 0
M  V30 3555 C 349.38 2.14672 -5.72153 0
M  V30 3556 C 350.378 1.7423 -6.60404 0
M  V30 3557 O 350.066 1.46251 -7.90485 0
M  V30 3558 H 349.798 0.426086 -0.524811 0
M  V30 3559 H 352.352 0.72539 -1.92165 0
M  V30 3560 H 350.582 3.27664 -2.05361 0
M  V30 3561 H 352.271 3.22182 -2.46887 0
M  V30 3562 H 353.037 1.79872 -4.50412 0
M  V30 3563 H 348.916 2.73435 -3.71153 0
M  V30 3564 H 352.46 1.30341 -6.85315 0
M  V30 3565 H 348.357 2.24337 -6.05263 0
M  V30 3566 H 349.125 1.6016 -8.02677 0
M  V30 3567 N 351.788 1.33704 0.83433 0
M  V30 3568 C 353.016 1.28467 1.62185 0
M  V30 3569 C 353.431 -0.143526 1.88254 0
M  V30 3570 O 352.788 -1.08709 1.4659 0
M  V30 3571 C 352.839 2.06174 2.96942 0
M  V30 3572 O 352.56 3.43422 2.72016 0
M  V30 3573 C 354.061 2.08201 3.91366 0
M  V30 3574 H 351.281 0.4424 0.504503 0
M  V30 3575 H 353.825 1.76145 1.03891 0
M  V30 3576 H 351.98 1.62167 3.51825 0
M  V30 3577 H 352.394 3.83453 3.57861 0
M  V30 3578 H 353.868 2.67017 4.83121 0
M  V30 3579 H 354.345 1.07343 4.2588 0
M  V30 3580 H 354.951 2.52246 3.42421 0
M  V30 3581 N 353.266 -1.05314 1.17247 0
M  V30 3582 C 354.682 -1.30452 0.919473 0
M  V30 3583 C 354.882 -1.9703 -0.42209 0
M  V30 3584 O 353.938 -2.24311 -1.15935 0
M  V30 3585 C 355.251 -2.17551 2.07586 0
M  V30 3586 C 356.799 -2.30937 2.11275 0
M  V30 3587 C 357.274 -3.21396 3.26296 0
M  V30 3588 N 358.765 -3.28981 3.26076 0
M  V30 3589 C 359.5 -3.99095 4.11716 0
M  V30 3590 N 358.996 -4.71648 5.07465 0
M  V30 3591 N 360.789 -3.95247 3.9967 0
M  V30 3592 H 352.94 -0.604988 2.03602 0
M  V30 3593 H 355.203 -0.329368 0.888944 0
M  V30 3594 H 354.909 -1.75921 3.0454 0
M  V30 3595 H 354.783 -3.18182 2.02584 0
M  V30 3596 H 357.17 -2.71809 1.14907 0
M  V30 3597 H 357.251 -1.2994 2.20339 0
M  V30 3598 H 356.895 -2.81238 4.22927 0
M  V30 3599 H 356.825 -4.22395 3.14467 0
M  V30 3600 H 359.316 -2.77286 2.5675 0
M  V30 3601 H 359.629 -5.22705 5.6921 0
M  V30 3602 H 357.974 -4.70594 5.11435 0
M  V30 3603 H 361.165 -3.37691 3.24164 0
M  V30 3604 H 361.338 -4.4962 4.66632 0
M  V30 3605 N 354.744 -0.972509 -1.24016 0
M  V30 3606 C 355.99 -0.637978 -1.92504 0
M  V30 3607 C 356.323 0.825383 -1.75787 0
M  V30 3608 O 355.598 1.59442 -1.11393 0
M  V30 3609 C 355.881 -1.01942 -3.45369 0
M  V30 3610 C 355.734 -2.53983 -3.71231 0
M  V30 3611 C 357.053 -0.55751 -4.36555 0
M  V30 3612 H 354.172 -0.233248 -0.699117 0
M  V30 3613 H 356.814 -1.21238 -1.46292 0
M  V30 3614 H 354.964 -0.530656 -3.84859 0
M  V30 3615 H 356.636 -3.10374 -3.41271 0
M  V30 3616 H 354.879 -2.96968 -3.16216 0
M  V30 3617 H 355.55 -2.75723 -4.78206 0
M  V30 3618 H 358.026 -0.977029 -4.04467 0
M  V30 3619 H 356.902 -0.85292 -5.42233 0
M  V30 3620 H 357.163 0.542328 -4.38761 0
M  V30 3621 N 356.222 1.38976 -0.743202 0
M  V30 3622 C 357.185 2.28901 -0.117014 0
M  V30 3623 C 358.185 1.46698 0.658503 0
M  V30 3624 O 359.375 1.67274 0.486305 0
M  V30 3625 C 356.507 3.30309 0.84315 0
M  V30 3626 H 357.7 2.8578 -0.909373 0
M  V30 3627 H 355.253 1.47761 -0.509547 0
M  V30 3628 H 355.988 2.785 1.66157 0
M  V30 3629 H 355.773 3.91029 0.289594 0
M  V30 3630 H 357.263 3.97577 1.2776 0
M  V30 3631 N 357.7 0.491464 1.49741 0
M  V30 3632 C 358.925 -0.0557177 2.07325 0
M  V30 3633 C 359.35 -1.30925 1.35056 0
M  V30 3634 O 358.708 -1.76733 0.404365 0
M  V30 3635 C 358.756 -0.302074 3.59333 0
M  V30 3636 O 357.86 -1.37868 3.88672 0
M  V30 3637 H 357.201 0.0219956 0.663636 0
M  V30 3638 H 359.731 0.688352 1.92673 0
M  V30 3639 H 359.741 -0.536464 4.04458 0
M  V30 3640 H 358.416 0.61383 4.11345 0
M  V30 3641 H 356.993 -1.12999 3.55367 0
M  V30 3642 N 359.178 -1.55987 0.224894 0
M  V30 3643 C 360.408 -2.02489 -0.41007 0
M  V30 3644 C 360.816 -1.10391 -1.53657 0
M  V30 3645 O 360.159 -0.106458 -1.83391 0
M  V30 3646 C 360.221 -3.45319 -0.999757 0
M  V30 3647 C 359.885 -4.56999 -0.00827976 0
M  V30 3648 C 360.882 -5.13812 0.793314 0
M  V30 3649 C 358.567 -5.02176 0.111442 0
M  V30 3650 C 360.561 -6.14276 1.7013 0
M  V30 3651 C 358.248 -6.02477 1.02296 0
M  V30 3652 C 359.246 -6.58403 1.81643 0
M  V30 3653 O 358.934 -7.56751 2.71262 0
M  V30 3654 H 358.666 -0.667915 -0.104235 0
M  V30 3655 H 361.22 -2.0257 0.339782 0
M  V30 3656 H 359.45 -3.42318 -1.79876 0
M  V30 3657 H 361.139 -3.7545 -1.54248 0
M  V30 3658 H 361.905 -4.79756 0.711288 0
M  V30 3659 H 357.784 -4.58323 -0.49605 0
M  V30 3660 H 361.328 -6.57854 2.32107 0
M  V30 3661 H 357.225 -6.35954 1.10599 0
M  V30 3662 H 357.993 -7.74286 2.65375 0
M  V30 3663 N 360.656 0.0484629 -1.57525 0
M  V30 3664 C 361.619 1.03956 -2.04269 0
M  V30 3665 C 362.619 1.30211 -0.943496 0
M  V30 3666 O 363.809 1.25539 -1.20771 0
M  V30 3667 C 360.941 2.37742 -2.44319 0
M  V30 3668 H 362.134 0.636182 -2.93075 0
M  V30 3669 H 359.687 0.294811 -1.53494 0
M  V30 3670 H 360.422 2.82866 -1.5861 0
M  V30 3671 H 360.207 2.20021 -3.24551 0
M  V30 3672 H 361.697 3.08936 -2.80978 0
M  V30 3673 N 362.134 1.5431 0.320358 0
M  V30 3674 C 363.097 1.83195 1.3774 0
M  V30 3675 C 364.097 0.703906 1.44575 0
M  V30 3676 O 365.287 0.972214 1.44546 0
M  V30 3677 C 362.419 1.99487 2.76438 0
M  V30 3678 H 363.612 2.77642 1.1338 0
M  V30 3679 H 361.165 1.46076 0.556012 0
M  V30 3680 H 361.9 1.07262 3.06048 0
M  V30 3681 H 361.685 2.81575 2.7287 0
M  V30 3682 H 363.175 2.23271 3.52902 0
M  V30 3683 N 363.613 -0.582584 1.46437 0
M  V30 3684 C 364.859 -1.34064 1.52965 0
M  V30 3685 C 365.214 -1.91566 0.178968 0
M  V30 3686 O 364.507 -1.73526 -0.812365 0
M  V30 3687 C 364.701 -2.48964 2.56421 0
M  V30 3688 C 364.53 -2.02717 4.01417 0
M  V30 3689 C 363.3 -1.87728 4.69134 0
M  V30 3690 C 365.498 -1.58675 4.8921 0
M  V30 3691 N 363.48 -1.35554 5.98747 0
M  V30 3692 C 364.851 -1.18093 6.08649 0
M  V30 3693 C 366.906 -1.46494 4.75861 0
M  V30 3694 C 365.609 -0.665427 7.16215 0
M  V30 3695 C 367.635 -0.96347 5.83499 0
M  V30 3696 C 366.997 -0.567432 7.02111 0
M  V30 3697 H 363.096 -0.483551 0.614575 0
M  V30 3698 H 365.68 -0.663309 1.83053 0
M  V30 3699 H 363.851 -3.1426 2.28244 0
M  V30 3700 H 365.583 -3.15913 2.52944 0
M  V30 3701 H 362.338 -2.09678 4.24655 0
M  V30 3702 H 362.762 -1.11628 6.67734 0
M  V30 3703 H 367.404 -1.75731 3.8455 0
M  V30 3704 H 365.122 -0.360639 8.07295 0
M  V30 3705 H 368.708 -0.873129 5.75211 0
M  V30 3706 H 367.588 -0.185389 7.83981 0
M  V30 3707 N 365.091 -1.34144 -0.827227 0
M  V30 3708 C 366.34 -1.25602 -1.5782 0
M  V30 3709 C 366.653 0.173445 -1.94829 0
M  V30 3710 O 367.859 0.380984 -2.68814 0
M  V30 3711 C 366.315 -2.20151 -2.84713 0
M  V30 3712 C 365.923 -3.68331 -2.55021 0
M  V30 3713 C 367.667 -2.20508 -3.62735 0
M  V30 3714 C 365.574 -4.54762 -3.78082 0
M  V30 3715 H 364.504 -0.466573 -0.592306 0
M  V30 3716 H 367.155 -1.59283 -0.911116 0
M  V30 3717 H 365.537 -1.79417 -3.53023 0
M  V30 3718 H 366.711 -4.17577 -1.94849 0
M  V30 3719 H 365.026 -3.7038 -1.90283 0
M  V30 3720 H 367.623 -2.82306 -4.54101 0
M  V30 3721 H 367.966 -1.20322 -3.98533 0
M  V30 3722 H 368.499 -2.59664 -3.01362 0
M  V30 3723 H 365.238 -5.55867 -3.47407 0
M  V30 3724 H 364.758 -4.10254 -4.37552 0
M  V30 3725 H 366.437 -4.69153 -4.45538 0
M  V30 3726 N 366.569 1.04691 -1.17803 0
M  V30 3727 C 367.846 1.7472 -0.879328 0
M  V30 3728 C 368.226 2.01812 0.619271 0
M  V30 3729 O 367.574 1.65824 1.57209 0
M  V30 3730 C 367.784 3.03686 -1.71976 0
M  V30 3731 C 369.132 3.77542 -1.94286 0
M  V30 3732 O 370.156 3.13569 -1.68976 0
M  V30 3733 O 369.015 4.92506 -2.36855 0
M  V30 3734 H 366.109 0.760011 -0.326056 0
M  V30 3735 H 368.655 1.10813 -1.28525 0
M  V30 3736 H 367.427 2.79754 -2.73594 0
M  V30 3737 H 367.05 3.75332 -1.31194 0
M  V30 3738 N 368.047 0.979072 1.23499 0
M  V30 3739 C 369.272 0.664845 1.96455 0
M  V30 3740 C 369.697 -0.761287 1.72006 0
M  V30 3741 O 369.055 -1.51837 0.990713 0
M  V30 3742 C 369.103 0.959479 3.47601 0
M  V30 3743 O 368.207 0.0508168 4.12369 0
M  V30 3744 H 367.548 0.250185 0.615064 0
M  V30 3745 H 370.078 1.31231 1.5697 0
M  V30 3746 H 370.088 0.895642 3.98048 0
M  V30 3747 H 368.763 1.99876 3.64723 0
M  V30 3748 H 367.34 0.16895 3.72517 0
M  V30 3749 N 369.525 -1.3858 0.750561 0
M  V30 3750 C 370.771 -2.00481 0.305825 0
M  V30 3751 C 371.104 -1.5944 -1.10872 0
M  V30 3752 O 370.379 -0.83052 -1.75877 0
M  V30 3753 C 370.662 -3.5758 0.425287 0
M  V30 3754 C 370.515 -4.08594 1.88072 0
M  V30 3755 C 371.834 -4.39719 -0.183122 0
M  V30 3756 H 368.953 -0.728348 0.112598 0
M  V30 3757 H 371.595 -1.64566 0.949638 0
M  V30 3758 H 369.745 -3.88306 -0.122828 0
M  V30 3759 H 371.417 -3.88523 2.48691 0
M  V30 3760 H 369.66 -3.61574 2.39681 0
M  V30 3761 H 370.331 -5.177 1.91548 0
M  V30 3762 H 372.807 -4.15128 0.284303 0
M  V30 3763 H 371.683 -5.48856 -0.0692757 0
M  V30 3764 H 371.944 -4.23434 -1.27106 0
M  V30 3765 N 371.003 -0.499398 -1.49478 0
M  V30 3766 C 371.933 0.269244 -2.31943 0
M  V30 3767 C 372.914 0.964054 -1.40143 0
M  V30 3768 O 374.099 0.955767 -1.69052 0
M  V30 3769 C 371.229 1.33504 -3.20615 0
M  V30 3770 C 370.183 0.760202 -4.21195 0
M  V30 3771 C 369.509 1.9264 -4.98792 0
M  V30 3772 C 370.809 -0.247661 -5.21712 0
M  V30 3773 H 372.503 -0.419082 -2.96452 0
M  V30 3774 H 370.049 -0.202988 -1.42562 0
M  V30 3775 H 372.002 1.88048 -3.77115 0
M  V30 3776 H 370.726 2.05253 -2.54045 0
M  V30 3777 H 369.385 0.23653 -3.65836 0
M  V30 3778 H 369.033 2.63154 -4.28671 0
M  V30 3779 H 368.733 1.54785 -5.66847 0
M  V30 3780 H 370.257 2.4762 -5.58137 0
M  V30 3781 H 371.671 0.209579 -5.72917 0
M  V30 3782 H 370.068 -0.541962 -5.97648 0
M  V30 3783 H 371.138 -1.16409 -4.7072 0
M  V30 3784 N 372.481 1.55866 -0.233164 0
M  V30 3785 C 373.444 2.1953 0.658715 0
M  V30 3786 C 374.444 1.16053 1.11303 0
M  V30 3787 O 375.634 1.41218 1.01996 0
M  V30 3788 C 372.766 2.82791 1.90373 0
M  V30 3789 H 373.959 2.99721 0.10347 0
M  V30 3790 H 371.512 1.56291 0.0164245 0
M  V30 3791 H 372.247 2.06501 2.50056 0
M  V30 3792 H 372.032 3.58578 1.58632 0
M  V30 3793 H 373.522 3.31556 2.53891 0
M  V30 3794 O 373.998 0.0973059 1.61207 0
M  V30 3795 H 374.689 -0.50491 1.87004 0
M  V30 END ATOM
M  V30 BEGIN BOND
M  V30 END BOND
M  V30 END CTAB
M  END
$$$$
