drugbank_target|P00750 Tissue-type plasminogen activator (DB00513; DB01088; DB06404; DB07684; DB09213; DB09228)
 OpenBabel12092119473D

  0  0  0     0  0            999 V3000
M  V30 BEGIN CTAB
M  V30 COUNTS 8616 8730 0 0 0
M  V30 BEGIN ATOM
M  V30 1 H -0.908 1.98254 -0.117106 0
M  V30 2 N 0 1.576 0 0
M  V30 3 C 0.933 2.03868 1.02534 0
M  V30 4 C 1.911 0.928543 1.3348 0
M  V30 5 O 3.095 1.19667 1.45644 0
M  V30 6 C 0.222 2.43627 2.35294 0
M  V30 7 C -0.732 3.65373 2.2001 0
M  V30 8 S 0.101 5.13292 1.52614 0
M  V30 9 C 1.257 5.56322 2.86805 0
M  V30 10 H 1.49 2.90518 0.631377 0
M  V30 11 H -0.977 1.52953 0.210867 0
M  V30 12 H 0.981 2.67203 3.11629 0
M  V30 13 H -0.358 1.57376 2.7183 0
M  V30 14 H -1.165 3.90944 3.18086 0
M  V30 15 H -1.563 3.418 1.51819 0
M  V30 16 H 0.729 5.58782 3.83104 0
M  V30 17 H 1.672 6.56266 2.65933 0
M  V30 18 H 2.08 4.83886 2.90714 0
M  V30 19 N 1.4781 -0.272755 1.55222 0
M  V30 20 C 2.7551 -1.02562 1.66555 0
M  V30 21 C 3.1351 -2.04282 0.532189 0
M  V30 22 O 2.4831 -2.23662 -0.467717 0
M  V30 23 C 2.6931 -1.6822 3.05782 0
M  V30 24 C 4.0411 -2.19373 3.63539 0
M  V30 25 O 5.0651 -1.78206 3.08417 0
M  V30 26 O 3.9241 -2.94883 4.60115 0
M  V30 27 H 1.0181 -0.475755 0.676451 0
M  V30 28 H 3.5641 -0.268593 1.67561 0
M  V30 29 H 2.3361 -0.945112 3.79715 0
M  V30 30 H 1.9591 -2.50609 3.08676 0
M  V30 31 N 2.9562 -1.48159 -0.537278 0
M  V30 32 C 3.9192 -1.61665 -1.62472 0
M  V30 33 C 4.9192 -0.490395 -1.5314 0
M  V30 34 O 6.1092 -0.755998 -1.5694 0
M  V30 35 C 3.2412 -1.57997 -3.02076 0
M  V30 36 H 4.4342 -2.58621 -1.51839 0
M  V30 37 H 1.9872 -1.36647 -0.758771 0
M  V30 38 H 2.7222 -0.624913 -3.18222 0
M  V30 39 H 2.5072 -2.39755 -3.10258 0
M  V30 40 H 3.9972 -1.70627 -3.81151 0
M  V30 41 N 4.4343 0.785586 -1.36625 0
M  V30 42 C 5.3673 1.90509 -1.25625 0
M  V30 43 C 6.3453 1.62 -0.139607 0
M  V30 44 O 7.5293 1.8591 -0.31141 0
M  V30 45 C 4.6563 3.25419 -0.939158 0
M  V30 46 C 3.7023 3.72856 -2.07077 0
M  V30 47 S 4.5353 3.88162 -3.68904 0
M  V30 48 C 5.6913 5.25942 -3.39317 0
M  V30 49 H 5.9243 1.99549 -2.20381 0
M  V30 50 H 3.4573 0.945226 -1.22085 0
M  V30 51 H 5.4153 4.03346 -0.763029 0
M  V30 52 H 4.0763 3.14099 -0.00931402 0
M  V30 53 H 3.2693 4.70624 -1.80357 0
M  V30 54 H 2.8713 3.01989 -2.20632 0
M  V30 55 H 5.1633 6.10651 -2.93447 0
M  V30 56 H 6.1063 5.57668 -4.36363 0
M  V30 57 H 6.5143 4.93224 -2.74573 0
M  V30 58 N 5.9124 1.20967 1.01018 0
M  V30 59 C 6.8594 0.964281 2.09691 0
M  V30 60 C 7.8294 -0.107853 1.65749 0
M  V30 61 O 9.0144 0.0381987 1.90762 0
M  V30 62 C 6.1544 0.52943 3.41015 0
M  V30 63 C 5.2674 1.67043 3.98398 0
M  V30 64 C 4.4024 1.18525 5.17808 0
M  V30 65 C 3.4414 2.29892 5.67288 0
M  V30 66 N 2.5784 1.82546 6.77954 0
M  V30 67 H 7.4184 1.89463 2.30017 0
M  V30 68 H 4.9554 0.944289 1.1279 0
M  V30 69 H 6.9134 0.258588 4.16398 0
M  V30 70 H 5.5434 -0.363919 3.20742 0
M  V30 71 H 4.5954 2.05603 3.20049 0
M  V30 72 H 5.9074 2.50877 4.31117 0
M  V30 73 H 5.0614 0.870762 6.00419 0
M  V30 74 H 3.8004 0.316887 4.86669 0
M  V30 75 H 2.8054 2.6215 4.83278 0
M  V30 76 H 4.0304 3.17216 6.00459 0
M  V30 77 H 1.9764 0.980454 6.48632 0
M  V30 78 H 1.8934 2.59956 7.09901 0
M  V30 79 H 3.1614 1.54115 7.64113 0
M  V30 80 N 7.3905 -1.2043 1.01659 0
M  V30 81 C 8.8065 -1.41852 0.731442 0
M  V30 82 C 9.0065 -1.89358 -0.688898 0
M  V30 83 O 8.0625 -2.06247 -1.45666 0
M  V30 84 C 9.3755 -2.44019 1.75714 0
M  V30 85 C 10.9235 -2.57785 1.77527 0
M  V30 86 C 11.3985 -3.63194 2.79023 0
M  V30 87 N 12.8895 -3.70678 2.77763 0
M  V30 88 C 13.6245 -4.51897 3.52954 0
M  V30 89 N 13.1205 -5.36921 4.37821 0
M  V30 90 N 14.9135 -4.4643 3.41551 0
M  V30 91 H 7.0645 -0.879093 1.93354 0
M  V30 92 H 9.3275 -0.448425 0.835236 0
M  V30 93 H 9.0335 -2.1611 2.77469 0
M  V30 94 H 8.9075 -3.43007 1.56927 0
M  V30 95 H 11.2945 -2.85023 0.764569 0
M  V30 96 H 11.3755 -1.58992 2.00387 0
M  V30 97 H 11.0195 -3.36699 3.80258 0
M  V30 98 H 10.9495 -4.61609 2.53425 0
M  V30 99 H 13.4405 -3.09944 2.16201 0
M  V30 100 H 13.7535 -5.95981 4.91962 0
M  V30 101 H 12.0985 -5.36424 4.41899 0
M  V30 102 H 15.2895 -3.79042 2.74672 0
M  V30 103 H 15.4625 -5.09491 4.00404 0
M  V30 104 N 8.8686 -0.792821 -1.36206 0
M  V30 105 C 10.1166 -0.366062 -1.98757 0
M  V30 106 C 10.4376 1.0668 -1.63231 0
M  V30 107 O 9.7076 1.73587 -0.907978 0
M  V30 108 H 8.2876 -0.132364 -0.735179 0
M  V30 109 H 10.9496 -1.01562 -1.66347 0
M  V30 110 H 10.0456 -0.460638 -3.08682 0
M  V30 111 N 10.3467 1.47872 -0.545128 0
M  V30 112 C 11.2767 2.32661 0.197793 0
M  V30 113 C 12.2577 1.43041 0.920504 0
M  V30 114 O 13.4427 1.71912 0.90333 0
M  V30 115 C 10.5727 3.24569 1.23582 0
M  V30 116 C 9.5267 4.23333 0.630323 0
M  V30 117 C 8.8527 5.0448 1.77211 0
M  V30 118 C 10.1527 5.20704 -0.407974 0
M  V30 119 H 11.8467 2.95024 -0.510045 0
M  V30 120 H 9.3927 1.4187 -0.246731 0
M  V30 121 H 11.3457 3.8272 1.76362 0
M  V30 122 H 10.0697 2.60236 1.97344 0
M  V30 123 H 8.7287 3.6639 0.123922 0
M  V30 124 H 8.3767 4.36561 2.49847 0
M  V30 125 H 8.0767 5.71339 1.37281 0
M  V30 126 H 9.6007 5.65487 2.3034 0
M  V30 127 H 11.0147 5.7329 0.033305 0
M  V30 128 H 9.4117 5.95699 -0.725486 0
M  V30 129 H 10.4817 4.66917 -1.30828 0
M  V30 130 N 11.8248 0.280983 1.55075 0
M  V30 131 C 13.0648 -0.335234 2.01632 0
M  V30 132 C 13.4288 -1.5261 1.16508 0
M  V30 133 O 14.6298 -2.21235 1.52672 0
M  V30 134 C 12.9008 -0.702172 3.50434 0
M  V30 135 S 14.4598 -1.30409 4.18974 0
M  V30 136 H 11.2778 -0.103967 0.703358 0
M  V30 137 H 13.8798 0.404187 1.91276 0
M  V30 138 H 12.5838 0.17333 4.10034 0
M  V30 139 H 12.1148 -1.4729 3.64786 0
M  V30 140 H 14.1298 -2.59253 4.23087 0
M  V30 141 N 13.3029 -1.57598 0.00835791 0
M  V30 142 C 14.5429 -1.92788 -0.679136 0
M  V30 143 C 14.9069 -0.883378 -1.70471 0
M  V30 144 O 16.1079 -1.12079 -2.44319 0
M  V30 145 C 14.3789 -3.32994 -1.29807 0
M  V30 146 S 15.9379 -3.90082 -2.00952 0
M  V30 147 H 12.7559 -0.67475 -0.224127 0
M  V30 148 H 15.3579 -1.95385 0.0670497 0
M  V30 149 H 14.0619 -4.06846 -0.538922 0
M  V30 150 H 13.5929 -3.33791 -2.082 0
M  V30 151 H 15.6079 -3.71834 -3.28563 0
M  V30 152 N 14.781 0.264519 -1.55364 0
M  V30 153 C 16.027 0.99646 -1.76631 0
M  V30 154 C 16.36 1.85632 -0.570478 0
M  V30 155 O 15.635 1.89647 0.43175 0
M  V30 156 C 15.918 1.87187 -3.07625 0
M  V30 157 C 15.771 1.04138 -4.37579 0
M  V30 158 C 17.09 2.85749 -3.34717 0
M  V30 159 H 14.209 0.360841 -0.642622 0
M  V30 160 H 16.851 0.268218 -1.88097 0
M  V30 161 H 15.001 2.49279 -2.9798 0
M  V30 162 H 16.673 0.440517 -4.59192 0
M  V30 163 H 14.916 0.345115 -4.32425 0
M  V30 164 H 15.587 1.68729 -5.2558 0
M  V30 165 H 18.063 2.33793 -3.4421 0
M  V30 166 H 16.939 3.44136 -4.27623 0
M  V30 167 H 17.2 3.61311 -2.54768 0
M  V30 168 N 16.2591 1.48442 0.529413 0
M  V30 169 C 17.1891 1.65902 1.64313 0
M  V30 170 C 18.1701 0.507897 1.6234 0
M  V30 171 O 19.3551 0.740503 1.79528 0
M  V30 172 C 16.4851 1.69911 3.02898 0
M  V30 173 C 15.4391 2.8453 3.19729 0
M  V30 174 C 14.7651 2.73629 4.59381 0
M  V30 175 C 16.0651 4.25821 3.02447 0
M  V30 176 H 17.7591 2.5914 1.49955 0
M  V30 177 H 15.3051 1.24709 0.719982 0
M  V30 178 H 17.2581 1.80715 3.80684 0
M  V30 179 H 15.9821 0.732524 3.18279 0
M  V30 180 H 14.6411 2.73283 2.44361 0
M  V30 181 H 14.2891 1.74938 4.71599 0
M  V30 182 H 13.9891 3.50541 4.71588 0
M  V30 183 H 15.5131 2.86401 5.39265 0
M  V30 184 H 16.9271 4.37898 3.70024 0
M  V30 185 H 15.3241 5.03735 3.26146 0
M  V30 186 H 16.3941 4.42244 1.98867 0
M  V30 187 N 17.7372 -0.778329 1.37039 0
M  V30 188 C 18.6672 -1.90546 1.34962 0
M  V30 189 C 19.6482 -1.68681 0.219274 0
M  V30 190 O 20.8332 -1.89634 0.418624 0
M  V30 191 C 17.9632 -3.27734 1.14925 0
M  V30 192 C 16.9172 -3.64147 2.24902 0
M  V30 193 C 16.2432 -4.99806 1.89996 0
M  V30 194 C 17.5432 -3.71579 3.67051 0
M  V30 195 H 19.2372 -1.92541 2.29277 0
M  V30 196 H 16.7832 -0.924948 1.10366 0
M  V30 197 H 18.7362 -4.06215 1.12104 0
M  V30 198 H 17.4602 -3.26154 0.170631 0
M  V30 199 H 16.1192 -2.8797 2.26868 0
M  V30 200 H 15.7672 -4.94759 0.906796 0
M  V30 201 H 15.4672 -5.25139 2.63634 0
M  V30 202 H 16.9912 -5.80694 1.88749 0
M  V30 203 H 18.4052 -4.40227 3.67251 0
M  V30 204 H 16.8022 -4.08405 4.39688 0
M  V30 205 H 17.8722 -2.72404 4.01154 0
M  V30 206 N 19.2153 -1.21501 -1.00376 0
M  V30 207 C 20.1453 -0.999478 -2.11028 0
M  V30 208 C 21.1263 0.0759671 -1.6993 0
M  V30 209 O 22.3113 -0.0841106 -1.94018 0
M  V30 210 C 19.4413 -0.564709 -3.42678 0
M  V30 211 C 18.3953 -1.58486 -3.97576 0
M  V30 212 C 17.7213 -1.00628 -5.25146 0
M  V30 213 C 19.0213 -2.97204 -4.29496 0
M  V30 214 H 20.7153 -1.92495 -2.29317 0
M  V30 215 H 18.2613 -0.92693 -1.102 0
M  V30 216 H 20.2143 -0.401091 -4.19487 0
M  V30 217 H 18.9383 0.396411 -3.24185 0
M  V30 218 H 17.5973 -1.73606 -3.22888 0
M  V30 219 H 17.2453 -0.0368439 -5.02987 0
M  V30 220 H 16.9453 -1.68771 -5.62841 0
M  V30 221 H 18.4693 -0.854015 -6.04598 0
M  V30 222 H 19.8833 -2.8552 -4.97143 0
M  V30 223 H 18.2803 -3.62372 -4.78338 0
M  V30 224 H 19.3503 -3.47956 -3.3772 0
M  V30 225 N 20.6934 1.19889 -1.02296 0
M  V30 226 C 21.9334 1.91125 -0.724602 0
M  V30 227 C 22.2974 1.77464 0.732835 0
M  V30 228 O 23.4984 2.43241 1.144 0
M  V30 229 C 21.7694 3.38187 -1.15604 0
M  V30 230 S 23.3284 4.27702 -0.980621 0
M  V30 231 H 20.1464 0.66018 -0.263976 0
M  V30 232 H 22.7484 1.44978 -1.31155 0
M  V30 233 H 21.4524 3.45653 -2.21251 0
M  V30 234 H 20.9834 3.89363 -0.562131 0
M  V30 235 H 22.9984 4.96073 0.112225 0
M  V30 236 N 22.1715 0.800033 1.35784 0
M  V30 237 C 23.4195 0.376597 1.9856 0
M  V30 238 C 23.7405 -1.05812 1.63795 0
M  V30 239 O 23.0105 -1.73103 0.917171 0
M  V30 240 H 21.5905 0.136261 0.734467 0
M  V30 241 H 24.2525 1.02442 1.65806 0
M  V30 242 H 23.3485 0.477002 3.08433 0
M  V30 243 N 23.6496 -1.47581 0.552962 0
M  V30 244 C 24.6126 -2.28439 -0.186605 0
M  V30 245 C 25.6126 -1.36706 -0.84665 0
M  V30 246 O 26.8026 -1.59378 -0.703164 0
M  V30 247 C 23.9346 -3.16264 -1.2724 0
M  V30 248 H 25.1276 -2.95294 0.523609 0
M  V30 249 H 22.6806 -1.532 0.309745 0
M  V30 250 H 23.4156 -2.54091 -2.01514 0
M  V30 251 H 23.2006 -3.83769 -0.803968 0
M  V30 252 H 24.6906 -3.77198 -1.79196 0
M  V30 253 N 25.1277 -0.289203 -1.54924 0
M  V30 254 C 26.3737 0.323998 -2.00195 0
M  V30 255 C 26.7067 1.54441 -1.17735 0
M  V30 256 O 25.9817 1.92875 -0.250878 0
M  V30 257 C 26.2647 0.692276 -3.53383 0
M  V30 258 C 26.1177 -0.536457 -4.46589 0
M  V30 259 C 27.4367 1.52335 -4.12895 0
M  V30 260 H 24.5557 0.116289 -0.727768 0
M  V30 261 H 27.1977 -0.398954 -1.85764 0
M  V30 262 H 25.3477 1.30822 -3.65811 0
M  V30 263 H 27.0197 -1.17499 -4.46085 0
M  V30 264 H 25.2627 -1.17192 -4.1767 0
M  V30 265 H 25.9337 -0.234806 -5.515 0
M  V30 266 H 28.4097 1.00302 -4.0383 0
M  V30 267 H 27.2857 1.74982 -5.20262 0
M  V30 268 H 27.5467 2.50886 -3.64018 0
M  V30 269 N 26.6058 1.57591 -0.0167156 0
M  V30 270 C 27.8528 1.91283 0.664597 0
M  V30 271 C 28.1808 0.891949 1.72842 0
M  V30 272 O 27.4358 -0.100931 1.9544 0
M  V30 273 C 27.7348 3.3172 1.33029 0
M  V30 274 C 27.4008 4.4914 0.398047 0
M  V30 275 C 26.0628 4.80992 0.141421 0
M  V30 276 C 28.4148 5.20634 -0.242825 0
M  V30 277 C 25.7428 5.81703 -0.764092 0
M  V30 278 C 28.0948 6.22311 -1.13632 0
M  V30 279 C 26.7588 6.52611 -1.40196 0
M  V30 280 H 26.0288 0.699956 0.243193 0
M  V30 281 H 28.6758 1.9135 -0.0758267 0
M  V30 282 H 26.9808 3.27856 2.14517 0
M  V30 283 H 28.6778 3.55055 1.86379 0
M  V30 284 H 25.2678 4.24262 0.608238 0
M  V30 285 H 29.4518 4.96267 -0.0576019 0
M  V30 286 H 24.7078 6.03532 -0.977732 0
M  V30 287 H 28.8818 6.76834 -1.63917 0
M  V30 288 H 26.5088 7.30467 -2.10529 0
M  V30 289 N 28.0839 -0.256276 1.55502 0
M  V30 290 C 29.3299 -0.987079 1.77157 0
M  V30 291 C 29.6629 -1.85327 0.580315 0
M  V30 292 O 28.9379 -1.89874 -0.421686 0
M  V30 293 C 29.2209 -1.85553 3.08613 0
M  V30 294 C 29.0739 -1.01816 4.38125 0
M  V30 295 C 30.3929 -2.8397 3.36228 0
M  V30 296 H 27.5119 -0.357428 0.644526 0
M  V30 297 H 30.1539 -0.258239 1.88237 0
M  V30 298 H 28.3039 -2.47695 2.99298 0
M  V30 299 H 29.9759 -0.416159 4.59419 0
M  V30 300 H 28.2189 -0.322178 4.32602 0
M  V30 301 H 28.8899 -1.65939 5.26468 0
M  V30 302 H 31.3659 -2.31964 3.45445 0
M  V30 303 H 30.2419 -3.41864 4.29442 0
M  V30 304 H 30.5029 -3.59955 2.56681 0
M  V30 305 N 29.562 -1.4872 -0.521534 0
M  V30 306 C 30.787 -1.61101 -1.30618 0
M  V30 307 C 31.212 -0.274611 -1.86085 0
M  V30 308 O 30.57 0.754937 -1.64834 0
M  V30 309 C 30.618 -2.66709 -2.4269 0
M  V30 310 O 29.722 -2.24456 -3.45967 0
M  V30 311 H 29.063 -0.539921 -0.386499 0
M  V30 312 H 31.593 -1.94767 -0.626645 0
M  V30 313 H 31.603 -2.88245 -2.88754 0
M  V30 314 H 30.278 -3.63727 -2.01682 0
M  V30 315 H 28.855 -2.13168 -3.05964 0
M  V30 316 N 31.0401 0.771051 -1.3745 0
M  V30 317 C 32.4511 1.34737 -1.29239 0
M  V30 318 C 32.8021 1.96109 0.0596908 0
M  V30 319 O 31.9271 1.93865 0.961534 0
M  V30 320 C 32.5221 2.44973 -2.34037 0
M  V30 321 C 31.0811 2.98372 -2.29458 0
M  V30 322 C 30.2281 1.71595 -2.17831 0
M  V30 323 H 33.1791 0.571256 -1.48062 0
M  V30 324 H 33.2001 3.24471 -1.98744 0
M  V30 325 H 32.7121 2.00276 -3.32432 0
M  V30 326 H 30.8131 3.47443 -1.34589 0
M  V30 327 H 30.9261 3.53939 -3.229 0
M  V30 328 H 29.2901 1.94547 -1.64388 0
M  V30 329 H 30.0731 1.29001 -3.18141 0
M  V30 330 N 32.5182 1.22032 0.997298 0
M  V30 331 C 33.7432 1.06921 1.77715 0
M  V30 332 C 34.1682 -0.376226 1.84299 0
M  V30 333 O 33.5262 -1.27165 1.29223 0
M  V30 334 C 33.5742 1.67996 3.19076 0
M  V30 335 O 32.6782 0.930653 4.01762 0
M  V30 336 H 32.0192 0.375814 0.547412 0
M  V30 337 H 34.5492 1.61737 1.25309 0
M  V30 338 H 34.5592 1.72538 3.69723 0
M  V30 339 H 33.2342 2.73182 3.13599 0
M  V30 340 H 31.8112 0.960917 3.60307 0
M  V30 341 N 33.9963 -1.19345 1.0293 0
M  V30 342 C 34.9283 -2.22036 0.56857 0
M  V30 343 C 35.9413 -1.58865 -0.355779 0
M  V30 344 O 37.1303 -1.77851 -0.152103 0
M  V30 345 C 34.2303 -3.38363 -0.190752 0
M  V30 346 C 33.4033 -4.31118 0.738643 0
M  V30 347 C 32.4623 -5.26194 0.0246497 0
M  V30 348 O 31.4883 -5.65461 0.651354 0
M  V30 349 N 32.6903 -5.66971 -1.24594 0
M  V30 350 H 35.4553 -2.6219 1.45177 0
M  V30 351 H 33.0163 -1.34015 0.908381 0
M  V30 352 H 35.0083 -3.98981 -0.677961 0
M  V30 353 H 33.5783 -2.96994 -0.975366 0
M  V30 354 H 32.7983 -3.68276 1.40593 0
M  V30 355 H 34.0863 -4.90001 1.37029 0
M  V30 356 H 33.4843 -5.37104 -1.77583 0
M  V30 357 H 32.0413 -6.2984 -1.67764 0
M  V30 358 N 35.4744 -0.807222 -1.35358 0
M  V30 359 C 36.3844 -0.219594 -2.3357 0
M  V30 360 C 37.4004 0.637734 -1.61892 0
M  V30 361 O 38.5764 0.549336 -1.93763 0
M  V30 362 C 35.6414 0.62158 -3.41083 0
M  V30 363 C 34.7024 -0.256315 -4.28534 0
M  V30 364 C 33.9354 0.544807 -5.30912 0
M  V30 365 O 34.1584 1.77944 -5.41934 0
M  V30 366 O 33.0924 -0.0646478 -6.01865 0
M  V30 367 H 36.9184 -1.03208 -2.85625 0
M  V30 368 H 34.5034 -0.569025 -1.38139 0
M  V30 369 H 36.3854 1.10067 -4.06772 0
M  V30 370 H 35.0604 1.41165 -2.91297 0
M  V30 371 H 33.9674 -0.782559 -3.65823 0
M  V30 372 H 35.3004 -1.01034 -4.81719 0
M  V30 373 N 36.9525 1.47285 -0.560781 0
M  V30 374 C 38.2015 2.01668 -0.035895 0
M  V30 375 C 38.5145 1.44021 1.32353 0
M  V30 376 O 39.7205 1.90088 1.93853 0
M  V30 377 C 38.1765 3.59897 -0.0136659 0
M  V30 378 C 37.7845 4.26536 -1.37006 0
M  V30 379 C 39.5285 4.22017 0.458425 0
M  V30 380 C 37.4355 5.76782 -1.30675 0
M  V30 381 H 36.3655 0.753938 -0.00964879 0
M  V30 382 H 39.0165 1.69243 -0.709166 0
M  V30 383 H 37.3985 3.89301 0.725325 0
M  V30 384 H 38.5725 4.0877 -2.12705 0
M  V30 385 H 36.8875 3.76419 -1.78038 0
M  V30 386 H 39.4845 5.32124 0.524247 0
M  V30 387 H 39.8275 3.89437 1.4712 0
M  V30 388 H 40.3605 3.97159 -0.225818 0
M  V30 389 H 37.0995 6.13988 -2.29564 0
M  V30 390 H 36.6195 5.96875 -0.591622 0
M  V30 391 H 38.2985 6.39063 -1.01033 0
M  V30 392 N 38.4306 0.297415 1.54768 0
M  V30 393 C 39.3806 -0.595275 2.20092 0
M  V30 394 C 40.3646 -1.10163 1.17273 0
M  V30 395 O 41.5566 -1.043 1.43006 0
M  V30 396 C 38.6856 -1.7684 2.94249 0
M  V30 397 C 37.7716 -1.27818 4.0438 0
M  V30 398 N 38.1626 -0.505695 5.03266 0
M  V30 399 C 36.4606 -1.55923 4.17857 0
M  V30 400 C 37.1616 -0.245094 5.81183 0
M  V30 401 N 36.1376 -0.823881 5.3732 0
M  V30 402 H 39.9396 0.00250837 2.939 0
M  V30 403 H 37.4536 0.102007 1.62079 0
M  V30 404 H 39.4506 -2.41944 3.39513 0
M  V30 405 H 38.1106 -2.36992 2.21957 0
M  V30 406 H 39.1216 -0.150928 5.1768 0
M  V30 407 H 35.7986 -2.16849 3.56767 0
M  V30 408 H 37.1886 0.375084 6.70852 0
M  V30 409 N 39.9087 -1.5758 0.0250728 0
M  V30 410 C 40.8717 -2.08896 -0.943139 0
M  V30 411 C 41.8717 -1.00321 -1.25668 0
M  V30 412 O 43.0617 -1.26495 -1.19769 0
M  V30 413 C 40.1937 -2.55143 -2.26086 0
M  V30 414 H 41.3867 -2.95723 -0.498775 0
M  V30 415 H 38.9397 -1.54703 -0.222888 0
M  V30 416 H 39.6747 -1.71633 -2.75159 0
M  V30 417 H 39.4597 -3.34461 -2.04641 0
M  V30 418 H 40.9497 -2.95083 -2.95492 0
M  V30 419 N 41.3868 0.248026 -1.55636 0
M  V30 420 C 42.8028 0.596483 -1.48035 0
M  V30 421 C 43.0028 1.88386 -0.715039 0
M  V30 422 O 42.0588 2.51319 -0.243944 0
M  V30 423 C 43.3718 0.700258 -2.92433 0
M  V30 424 C 44.9198 0.792659 -3.02797 0
M  V30 425 C 45.3948 0.928005 -4.485 0
M  V30 426 N 46.8858 0.992903 -4.52433 0
M  V30 427 C 47.6208 1.11687 -5.62418 0
M  V30 428 N 47.1168 1.20645 -6.82214 0
M  V30 429 N 48.9098 1.14994 -5.50212 0
M  V30 430 H 41.0608 -0.597109 -2.03834 0
M  V30 431 H 43.3238 -0.205925 -0.925364 0
M  V30 432 H 43.0298 -0.175658 -3.51261 0
M  V30 433 H 42.9038 1.57255 -3.42857 0
M  V30 434 H 45.2908 1.65903 -2.4405 0
M  V30 435 H 45.3718 -0.104762 -2.55585 0
M  V30 436 H 45.0158 0.0661971 -5.07857 0
M  V30 437 H 44.9458 1.84045 -4.93391 0
M  V30 438 H 47.4368 0.935064 -3.66149 0
M  V30 439 H 47.7498 1.30008 -7.61786 0
M  V30 440 H 46.0948 1.17605 -6.84977 0
M  V30 441 H 49.2858 1.07643 -4.55555 0
M  V30 442 H 49.4588 1.24311 -6.35965 0
M  V30 443 N 42.8649 1.48995 0.513639 0
M  V30 444 C 44.1119 1.57843 1.26854 0
M  V30 445 C 44.4399 0.259501 1.92761 0
M  V30 446 O 43.6949 -0.75159 1.80692 0
M  V30 447 C 43.9939 2.67756 2.36731 0
M  V30 448 C 43.6599 4.09669 1.88368 0
M  V30 449 C 42.3219 4.48291 1.74896 0
M  V30 450 C 44.6739 4.98537 1.52021 0
M  V30 451 C 42.0019 5.73568 1.23438 0
M  V30 452 C 44.3539 6.24319 1.0202 0
M  V30 453 C 43.0179 6.61783 0.871778 0
M  V30 454 H 42.2879 0.577587 0.464192 0
M  V30 455 H 44.9349 1.82778 0.571366 0
M  V30 456 H 43.2399 2.36743 3.12185 0
M  V30 457 H 44.9369 2.71813 2.9482 0
M  V30 458 H 41.5269 3.79176 1.99808 0
M  V30 459 H 45.7109 4.69363 1.61281 0
M  V30 460 H 40.9669 6.01304 1.10648 0
M  V30 461 H 45.1409 6.92566 0.729722 0
M  V30 462 H 42.7679 7.5874 0.470852 0
M  V30 463 N 44.343 -0.763751 1.37857 0
M  V30 464 C 45.759 -1.06542 1.18832 0
M  V30 465 C 45.959 -2.01478 0.0299722 0
M  V30 466 O 45.015 -2.4458 -0.627447 0
M  V30 467 C 46.328 -1.65525 2.51042 0
M  V30 468 C 47.876 -1.77745 2.57635 0
M  V30 469 C 48.351 -2.4014 3.89996 0
M  V30 470 N 49.842 -2.47582 3.91481 0
M  V30 471 C 50.577 -2.96732 4.9065 0
M  V30 472 N 50.073 -3.45993 6.00217 0
M  V30 473 N 51.866 -2.95679 4.78048 0
M  V30 474 H 44.017 -0.133556 2.1198 0
M  V30 475 H 46.28 -0.121879 0.940133 0
M  V30 476 H 45.986 -1.03236 3.36207 0
M  V30 477 H 45.86 -2.64719 2.68707 0
M  V30 478 H 48.247 -2.39164 1.72872 0
M  V30 479 H 48.328 -0.772836 2.43846 0
M  V30 480 H 47.972 -1.79358 4.75177 0
M  V30 481 H 47.902 -3.41223 4.01092 0
M  V30 482 H 50.393 -2.1273 3.12337 0
M  V30 483 H 50.706 -3.81922 6.7183 0
M  V30 484 H 49.051 -3.44077 6.03851 0
M  V30 485 H 52.242 -2.56499 3.91568 0
M  V30 486 H 52.415 -3.33672 5.55488 0
M  V30 487 N 45.8211 -1.22559 -0.990812 0
M  V30 488 C 47.2371 -0.985996 -1.255 0
M  V30 489 C 47.4371 0.319173 -1.98956 0
M  V30 490 O 46.4931 1.04127 -2.3003 0
M  V30 491 C 47.8061 -2.18607 -2.06474 0
M  V30 492 C 49.3541 -2.22985 -2.19651 0
M  V30 493 C 49.8291 -3.4255 -3.04012 0
M  V30 494 N 51.3201 -3.42725 -3.11599 0
M  V30 495 C 52.0551 -4.31892 -3.7717 0
M  V30 496 N 51.5511 -5.31279 -4.44651 0
M  V30 497 N 53.3441 -4.19662 -3.73952 0
M  V30 498 H 45.4951 -2.06469 -0.49841 0
M  V30 499 H 47.7581 -0.904853 -0.282747 0
M  V30 500 H 47.4641 -3.13267 -1.59865 0
M  V30 501 H 47.3381 -2.18838 -3.07229 0
M  V30 502 H 49.7251 -1.28871 -2.65474 0
M  V30 503 H 49.8061 -2.26791 -1.18319 0
M  V30 504 H 49.4501 -4.36965 -2.58889 0
M  V30 505 H 49.3801 -3.35984 -4.0549 0
M  V30 506 H 51.8711 -2.70807 -2.63575 0
M  V30 507 H 52.1841 -5.95593 -4.92431 0
M  V30 508 H 50.5291 -5.3519 -4.43392 0
M  V30 509 H 53.7201 -3.41268 -3.20396 0
M  V30 510 H 53.8931 -4.89358 -4.24774 0
M  V30 511 N 47.2992 1.18797 -1.03562 0
M  V30 512 C 48.5472 1.88278 -0.734569 0
M  V30 513 C 48.8682 1.8043 0.739586 0
M  V30 514 O 48.1382 1.21925 1.53333 0
M  V30 515 H 46.7182 0.696991 -0.268725 0
M  V30 516 H 49.3802 1.44192 -1.31129 0
M  V30 517 H 48.4762 2.94443 -1.03489 0
M  V30 518 N 48.7773 0.814389 1.34928 0
M  V30 519 C 49.7403 0.235759 2.27984 0
M  V30 520 C 50.7403 -0.581412 1.49921 0
M  V30 521 O 51.9303 -0.398758 1.69575 0
M  V30 522 C 49.0623 -0.670433 3.34242 0
M  V30 523 H 50.2553 1.05659 2.80671 0
M  V30 524 H 47.8083 0.585614 1.44915 0
M  V30 525 H 48.5433 -1.51466 2.86755 0
M  V30 526 H 48.3283 -0.0860822 3.92005 0
M  V30 527 H 49.8183 -1.06935 4.03676 0
M  V30 528 N 50.2554 -1.46986 0.568584 0
M  V30 529 C 51.6714 -1.57946 0.229189 0
M  V30 530 C 51.8714 -1.56567 -1.26843 0
M  V30 531 O 50.9274 -1.47511 -2.04931 0
M  V30 532 C 52.2404 -2.87963 0.865909 0
M  V30 533 C 53.7884 -3.01568 0.838188 0
M  V30 534 C 54.2634 -4.34301 1.45419 0
M  V30 535 N 55.7544 -4.40965 1.41788 0
M  V30 536 C 56.4894 -5.42256 1.86403 0
M  V30 537 N 55.9854 -6.50297 2.38926 0
M  V30 538 N 57.7784 -5.3337 1.77405 0
M  V30 539 H 49.9294 -1.46126 1.54146 0
M  V30 540 H 52.1924 -0.696156 0.643484 0
M  V30 541 H 51.8984 -2.94742 1.91886 0
M  V30 542 H 51.7724 -3.75423 0.365687 0
M  V30 543 H 54.1594 -2.94379 -0.206106 0
M  V30 544 H 54.2404 -2.1562 1.37629 0
M  V30 545 H 53.8844 -4.42247 2.49761 0
M  V30 546 H 53.8144 -5.19 0.891435 0
M  V30 547 H 56.3054 -3.63484 1.03381 0
M  V30 548 H 56.6184 -7.23777 2.70863 0
M  V30 549 H 54.9634 -6.51155 2.42944 0
M  V30 550 H 58.1544 -4.47865 1.3614 0
M  V30 551 H 58.3274 -6.12169 2.12492 0
M  V30 552 N 51.7335 -0.305618 -1.54608 0
M  V30 553 C 52.9585 0.307562 -2.05107 0
M  V30 554 C 53.3835 1.46385 -1.18123 0
M  V30 555 O 52.7415 1.8034 -0.186324 0
M  V30 556 C 52.7895 0.73704 -3.52987 0
M  V30 557 O 51.8935 1.84134 -3.6901 0
M  V30 558 H 51.2345 0.0589143 -0.661381 0
M  V30 559 H 53.7645 -0.448807 -1.99617 0
M  V30 560 H 53.7745 1.02459 -3.94925 0
M  V30 561 H 52.4495 -0.108773 -4.15758 0
M  V30 562 H 51.0265 1.55398 -3.38978 0
M  V30 563 N 53.2116 1.57565 -0.0334293 0
M  V30 564 C 54.4416 1.95996 0.653398 0
M  V30 565 C 54.8496 0.908749 1.65947 0
M  V30 566 O 54.1926 -0.117471 1.83324 0
M  V30 567 C 54.2546 3.30589 1.41249 0
M  V30 568 C 53.9186 4.53503 0.564263 0
M  V30 569 C 54.9156 5.19647 -0.16225 0
M  V30 570 C 52.6006 4.99801 0.500398 0
M  V30 571 C 54.5946 6.30412 -0.941255 0
M  V30 572 C 52.2816 6.10448 -0.282308 0
M  V30 573 C 53.2796 6.75612 -1.00184 0
M  V30 574 O 52.9676 7.84134 -1.77171 0
M  V30 575 H 52.6996 0.65027 0.184728 0
M  V30 576 H 55.2536 2.05199 -0.0907841 0
M  V30 577 H 53.4836 3.17888 2.20191 0
M  V30 578 H 55.1726 3.53892 1.98784 0
M  V30 579 H 55.9386 4.84846 -0.12227 0
M  V30 580 H 51.8176 4.48883 1.05002 0
M  V30 581 H 55.3616 6.81208 -1.50339 0
M  V30 582 H 51.2586 6.44686 -0.323989 0
M  V30 583 H 52.0266 8.00822 -1.69194 0
M  V30 584 N 54.6897 -0.239769 1.55765 0
M  V30 585 C 55.6217 -1.32001 1.87372 0
M  V30 586 C 56.6347 -1.43944 0.760522 0
M  V30 587 O 57.8237 -1.45167 1.0387 0
M  V30 588 C 54.9237 -2.69779 2.05115 0
M  V30 589 C 54.0967 -2.80014 3.36022 0
M  V30 590 C 53.1557 -3.98684 3.4342 0
M  V30 591 O 52.1817 -3.87877 4.16582 0
M  V30 592 N 53.3837 -5.12176 2.73232 0
M  V30 593 H 56.1487 -1.0522 2.80622 0
M  V30 594 H 53.7097 -0.429857 1.56089 0
M  V30 595 H 55.7017 -3.47517 2.07399 0
M  V30 596 H 54.2717 -2.89237 1.18577 0
M  V30 597 H 53.4917 -1.88896 3.45994 0
M  V30 598 H 54.7797 -2.83808 4.22292 0
M  V30 599 H 54.1777 -5.2385 2.13536 0
M  V30 600 H 52.7347 -5.88022 2.81199 0
M  V30 601 N 56.1678 -1.49265 -0.50573 0
M  V30 602 C 57.4138 -1.58748 -1.26202 0
M  V30 603 C 57.7468 -0.271227 -1.92297 0
M  V30 604 O 57.0218 0.724831 -1.80489 0
M  V30 605 C 57.3048 -2.74332 -2.33268 0
M  V30 606 C 57.1578 -4.15737 -1.71705 0
M  V30 607 C 58.4768 -2.85576 -3.34865 0
M  V30 608 H 55.5958 -0.577826 -0.457478 0
M  V30 609 H 58.2378 -1.81532 -0.560897 0
M  V30 610 H 56.3878 -2.55036 -2.93068 0
M  V30 611 H 58.0598 -4.46537 -1.15769 0
M  V30 612 H 56.3028 -4.21605 -1.02135 0
M  V30 613 H 56.9738 -4.92477 -2.49341 0
M  V30 614 H 59.4498 -3.03127 -2.8505 0
M  V30 615 H 58.3258 -3.68135 -4.07146 0
M  V30 616 H 58.5868 -1.94732 -3.96903 0
M  V30 617 N 57.6459 0.756429 -1.3826 0
M  V30 618 C 58.8949 1.51082 -1.3363 0
M  V30 619 C 59.2079 1.95467 0.0720068 0
M  V30 620 O 60.4139 2.7043 0.240834 0
M  V30 621 C 58.8699 2.72893 -2.34644 0
M  V30 622 C 58.4779 2.35544 -3.81081 0
M  V30 623 C 60.2219 3.50791 -2.39052 0
M  V30 624 C 58.1289 3.53948 -4.73787 0
M  V30 625 H 57.0589 0.56727 -0.49671 0
M  V30 626 H 59.7099 0.827147 -1.638 0
M  V30 627 H 58.0919 3.43227 -1.97513 0
M  V30 628 H 59.2659 1.72894 -4.27135 0
M  V30 629 H 57.5809 1.70786 -3.79764 0
M  V30 630 H 60.1779 4.38823 -3.05513 0
M  V30 631 H 60.5209 3.91745 -1.40861 0
M  V30 632 H 61.0539 2.87467 -2.74968 0
M  V30 633 H 57.7929 3.18064 -5.73163 0
M  V30 634 H 57.3129 4.15651 -4.32428 0
M  V30 635 H 58.9919 4.20566 -4.91663 0
M  V30 636 N 59.124 1.23083 0.984299 0
M  V30 637 C 60.364 1.07226 1.74017 0
M  V30 638 C 60.728 -0.384766 1.88105 0
M  V30 639 O 61.929 -0.664411 2.60459 0
M  V30 640 C 60.2 1.77348 3.10294 0
M  V30 641 S 61.759 1.77014 4.01512 0
M  V30 642 H 58.577 0.383819 0.598502 0
M  V30 643 H 61.179 1.56158 1.17622 0
M  V30 644 H 59.883 2.82506 2.97689 0
M  V30 645 H 59.414 1.28682 3.71759 0
M  V30 646 H 61.429 0.825956 4.89277 0
M  V30 647 N 60.6021 -1.18246 1.0419 0
M  V30 648 C 62.0181 -1.40269 0.761366 0
M  V30 649 C 62.2181 -1.90777 -0.648578 0
M  V30 650 O 61.2741 -2.0929 -1.41258 0
M  V30 651 C 62.5871 -2.40237 1.8085 0
M  V30 652 C 64.1351 -2.53961 1.82955 0
M  V30 653 C 64.6101 -3.57194 2.86664 0
M  V30 654 N 66.1011 -3.64702 2.85563 0
M  V30 655 C 66.8361 -4.44309 3.6246 0
M  V30 656 N 66.3321 -5.27514 4.49111 0
M  V30 657 N 68.1251 -4.39084 3.50944 0
M  V30 658 H 60.2761 -0.837882 1.95175 0
M  V30 659 H 62.5391 -0.430608 0.84456 0
M  V30 660 H 62.2451 -2.10176 2.81991 0
M  V30 661 H 62.1191 -3.39601 1.64168 0
M  V30 662 H 64.5061 -2.83338 0.824855 0
M  V30 663 H 64.5871 -1.54706 2.03715 0
M  V30 664 H 64.2311 -3.28558 3.87314 0
M  V30 665 H 64.1611 -4.5613 2.6316 0
M  V30 666 H 66.6521 -3.05289 2.22727 0
M  V30 667 H 66.9651 -5.85411 5.04493 0
M  V30 668 H 65.3101 -5.2693 4.53178 0
M  V30 669 H 68.5011 -3.7313 2.82651 0
M  V30 670 H 68.6741 -5.00883 4.11121 0
M  V30 671 N 62.0802 -0.821533 -1.34494 0
M  V30 672 C 63.3572 -0.33159 -1.92769 0
M  V30 673 C 63.7372 1.18088 -1.74981 0
M  V30 674 O 63.0852 1.98733 -1.12772 0
M  V30 675 C 63.2952 -0.759398 -3.40638 0
M  V30 676 C 64.6432 -0.757433 -4.1779 0
M  V30 677 O 65.6672 -0.70189 -3.49216 0
M  V30 678 O 64.5262 -0.829361 -5.4017 0
M  V30 679 H 61.6202 -0.0902502 -0.822061 0
M  V30 680 H 64.1662 -0.906231 -1.43477 0
M  V30 681 H 62.9382 -1.8012 -3.47379 0
M  V30 682 H 62.5612 -0.160378 -3.97276 0
M  V30 683 N 63.5583 1.46682 -0.576371 0
M  V30 684 C 64.4683 2.34032 0.163141 0
M  V30 685 C 65.4843 1.49367 0.892501 0
M  V30 686 O 66.6603 1.82252 0.857106 0
M  V30 687 C 63.7253 3.26435 1.16795 0
M  V30 688 C 62.7863 4.26998 0.443944 0
M  V30 689 C 62.0193 5.14986 1.40088 0
M  V30 690 O 62.2423 5.05785 2.637 0
M  V30 691 O 61.1763 5.94906 0.914917 0
M  V30 692 H 65.0023 2.98607 -0.55388 0
M  V30 693 H 62.5873 1.45554 -0.336821 0
M  V30 694 H 64.4693 3.83459 1.74748 0
M  V30 695 H 63.1443 2.64465 1.86655 0
M  V30 696 H 62.0513 3.7368 -0.177271 0
M  V30 697 H 63.3843 4.91736 -0.213566 0
M  V30 698 N 65.0364 0.313813 1.54444 0
M  V30 699 C 65.9834 -0.55655 2.23989 0
M  V30 700 C 66.9534 -1.11943 1.22711 0
M  V30 701 O 68.1384 -1.16158 1.51367 0
M  V30 702 C 65.2784 -1.71635 2.99392 0
M  V30 703 C 64.3914 -1.18364 4.15468 0
M  V30 704 C 63.5264 -2.30834 4.78424 0
M  V30 705 C 62.5654 -1.74762 5.86622 0
M  V30 706 N 61.7024 -2.80855 6.43479 0
M  V30 707 H 66.5424 0.0430893 2.97969 0
M  V30 708 H 64.0794 0.0330359 1.47063 0
M  V30 709 H 66.0374 -2.39868 3.41349 0
M  V30 710 H 64.6674 -2.28742 2.27765 0
M  V30 711 H 63.7194 -0.393163 3.78363 0
M  V30 712 H 65.0314 -0.733262 4.93381 0
M  V30 713 H 64.1854 -3.0699 5.23299 0
M  V30 714 H 62.9244 -2.79204 3.99871 0
M  V30 715 H 61.9294 -0.970995 5.41158 0
M  V30 716 H 63.1544 -1.2728 6.67066 0
M  V30 717 H 61.1004 -3.28535 5.67804 0
M  V30 718 H 61.0174 -2.40351 7.16776 0
M  V30 719 H 62.2854 -3.5687 6.93011 0
M  V30 720 N 66.5145 -1.57545 0.0417849 0
M  V30 721 C 67.7425 -1.96624 -0.643928 0
M  V30 722 C 68.1575 -0.918897 -1.64929 0
M  V30 723 O 67.5145 0.0979323 -1.82237 0
M  V30 724 C 67.5655 -3.35781 -1.33914 0
M  V30 725 O 67.2865 -4.365 -0.374048 0
M  V30 726 C 68.7875 -3.89566 -2.1155 0
M  V30 727 H 66.0075 -0.647316 -0.176702 0
M  V30 728 H 68.5515 -2.04229 0.105304 0
M  V30 729 H 66.7065 -3.29357 -2.03968 0
M  V30 730 H 67.1205 -5.17248 -0.869179 0
M  V30 731 H 68.5945 -4.89242 -2.55628 0
M  V30 732 H 69.0715 -3.24488 -2.9598 0
M  V30 733 H 69.6775 -3.99298 -1.46427 0
M  V30 734 N 67.9926 0.231505 -1.5589 0
M  V30 735 C 68.9246 1.31006 -1.8807 0
M  V30 736 C 69.9376 1.43539 -0.768145 0
M  V30 737 O 71.1266 1.44614 -1.04638 0
M  V30 738 C 68.2266 2.68688 -2.06543 0
M  V30 739 C 67.3996 2.78228 -3.37502 0
M  V30 740 C 66.4586 3.96857 -3.4553 0
M  V30 741 O 65.4846 3.85662 -4.18633 0
M  V30 742 N 66.6866 5.1072 -2.75944 0
M  V30 743 H 69.4516 1.03731 -2.81176 0
M  V30 744 H 67.0126 0.421573 -1.56315 0
M  V30 745 H 69.0046 3.46412 -2.09239 0
M  V30 746 H 67.5746 2.88605 -1.20109 0
M  V30 747 H 66.7946 1.87059 -3.46991 0
M  V30 748 H 68.0826 2.81564 -4.23791 0
M  V30 749 H 67.4806 5.2271 -2.16311 0
M  V30 750 H 66.0376 5.86523 -2.84314 0
M  V30 751 N 69.4707 1.49531 0.497807 0
M  V30 752 C 70.4037 1.61043 1.6168 0
M  V30 753 C 71.3817 0.459386 1.55976 0
M  V30 754 O 72.5657 0.675358 1.75986 0
M  V30 755 C 69.6927 1.56833 3.00202 0
M  V30 756 C 68.7387 2.77173 3.24156 0
M  V30 757 S 69.5717 4.38808 3.06933 0
M  V30 758 C 70.7277 4.37248 4.47845 0
M  V30 759 H 70.9607 2.55702 1.51671 0
M  V30 760 H 68.4937 1.38462 0.683201 0
M  V30 761 H 70.4517 1.55089 3.80076 0
M  V30 762 H 69.1127 0.634561 3.07623 0
M  V30 763 H 68.3057 2.70456 4.25288 0
M  V30 764 H 67.9077 2.76346 2.5201 0
M  V30 765 H 70.1997 4.09164 5.39992 0
M  V30 766 H 71.1427 5.38668 4.59612 0
M  V30 767 H 71.5507 3.67286 4.28674 0
M  V30 768 N 70.9488 -0.749086 1.3866 0
M  V30 769 C 72.1978 -1.50371 1.3443 0
M  V30 770 C 72.5108 -1.95503 -0.0616397 0
M  V30 771 O 73.7168 -2.70554 -0.226489 0
M  V30 772 C 72.1728 -2.71644 2.36088 0
M  V30 773 C 71.7808 -2.3352 3.82325 0
M  V30 774 C 73.5248 -3.49518 2.40909 0
M  V30 775 C 71.4318 -3.51431 4.75658 0
M  V30 776 H 70.3618 -0.564628 0.499712 0
M  V30 777 H 73.0128 -0.818449 1.64237 0
M  V30 778 H 71.3948 -3.42175 1.9933 0
M  V30 779 H 72.5688 -1.70627 4.28046 0
M  V30 780 H 70.8838 -1.6877 3.80665 0
M  V30 781 H 73.4808 -4.37197 3.07836 0
M  V30 782 H 73.8238 -3.90992 1.42937 0
M  V30 783 H 74.3568 -2.86005 2.76489 0
M  V30 784 H 71.0958 -3.15019 5.74842 0
M  V30 785 H 70.6158 -4.13352 4.34627 0
M  V30 786 H 72.2948 -4.17953 4.93887 0
M  V30 787 N 72.4269 -1.23603 -0.977757 0
M  V30 788 C 73.6569 -1.09487 -1.75203 0
M  V30 789 C 74.0649 0.356321 -1.85814 0
M  V30 790 O 73.4079 1.25816 -1.33851 0
M  V30 791 C 73.4699 -1.64905 -3.19447 0
M  V30 792 C 73.1339 -3.13688 -3.32338 0
M  V30 793 C 74.1309 -4.10953 -3.18455 0
M  V30 794 C 71.8159 -3.53449 -3.56902 0
M  V30 795 C 73.8099 -5.45962 -3.28944 0
M  V30 796 C 71.4969 -4.88602 -3.6703 0
M  V30 797 C 72.4949 -5.84668 -3.53062 0
M  V30 798 O 72.1829 -7.17365 -3.62826 0
M  V30 799 H 71.9149 -0.38367 -0.556573 0
M  V30 800 H 74.4689 -1.6398 -1.23693 0
M  V30 801 H 72.6989 -1.04835 -3.72218 0
M  V30 802 H 74.3879 -1.46226 -3.78646 0
M  V30 803 H 75.1539 -3.81577 -2.99372 0
M  V30 804 H 71.0329 -2.79188 -3.66844 0
M  V30 805 H 74.5769 -6.20925 -3.17958 0
M  V30 806 H 70.4739 -5.17653 -3.85623 0
M  V30 807 H 71.2419 -7.2515 -3.79605 0
M  V30 808 N 73.905 1.17692 -1.04816 0
M  V30 809 C 74.837 2.21103 -0.603822 0
M  V30 810 C 75.85 1.59411 0.33046 0
M  V30 811 O 77.039 1.7807 0.12379 0
M  V30 812 C 74.139 3.38623 0.136898 0
M  V30 813 C 73.312 4.29888 -0.807137 0
M  V30 814 C 72.371 5.26088 -0.10836 0
M  V30 815 O 71.397 5.64353 -0.741232 0
M  V30 816 N 72.599 5.68882 1.15558 0
M  V30 817 H 75.364 2.59848 -1.49329 0
M  V30 818 H 72.925 1.32553 -0.929587 0
M  V30 819 H 74.917 4.00009 0.614401 0
M  V30 820 H 73.487 2.98508 0.927993 0
M  V30 821 H 72.707 3.65993 -1.46434 0
M  V30 822 H 73.995 4.87759 -1.44807 0
M  V30 823 H 73.393 5.39861 1.69015 0
M  V30 824 H 71.95 6.32429 1.57722 0
M  V30 825 N 75.3831 0.828654 1.34056 0
M  V30 826 C 76.3151 0.212052 2.28217 0
M  V30 827 C 77.3281 -0.601362 1.51286 0
M  V30 828 O 78.5171 -0.430104 1.73241 0
M  V30 829 C 75.6171 -0.72088 3.31144 0
M  V30 830 C 74.7901 0.0509587 4.3737 0
M  V30 831 C 73.8491 -0.803766 5.20025 0
M  V30 832 O 72.8751 -0.246667 5.68665 0
M  V30 833 N 74.0771 -2.1227 5.40298 0
M  V30 834 H 76.8421 1.02105 2.81771 0
M  V30 835 H 74.4031 0.686153 1.46641 0
M  V30 836 H 76.3951 -1.29742 3.8334 0
M  V30 837 H 74.9651 -1.43061 2.77943 0
M  V30 838 H 74.1851 0.808831 3.85813 0
M  V30 839 H 75.4731 0.582065 5.0546 0
M  V30 840 H 74.8711 -2.59898 5.02464 0
M  V30 841 H 73.4281 -2.64796 5.95589 0
M  V30 842 N 76.8612 -1.46375 0.584142 0
M  V30 843 C 77.8112 -2.27371 -0.169232 0
M  V30 844 C 78.7952 -1.35955 -0.860523 0
M  V30 845 O 79.9872 -1.60119 -0.754382 0
M  V30 846 C 77.1162 -3.22334 -1.18134 0
M  V30 847 C 76.2022 -4.21235 -0.492088 0
M  V30 848 N 76.5932 -5.03766 0.453129 0
M  V30 849 C 74.8912 -4.39773 -0.742652 0
M  V30 850 C 75.5922 -5.75366 0.85609 0
M  V30 851 N 74.5682 -5.43214 0.204926 0
M  V30 852 H 78.3702 -2.88572 0.557097 0
M  V30 853 H 75.8842 -1.57242 0.406042 0
M  V30 854 H 77.8812 -3.79071 -1.73525 0
M  V30 855 H 76.5412 -2.62693 -1.90847 0
M  V30 856 H 77.5522 -5.11227 0.828723 0
M  V30 857 H 74.2292 -3.91279 -1.45625 0
M  V30 858 H 75.6192 -6.5172 1.63434 0
M  V30 859 N 78.3393 -0.321999 -1.54275 0
M  V30 860 C 79.2713 0.578671 -2.21775 0
M  V30 861 C 80.2843 1.08109 -1.21722 0
M  V30 862 O 81.4733 0.994938 -1.482 0
M  V30 863 C 78.5733 1.80661 -2.86731 0
M  V30 864 C 77.7463 1.44314 -4.12907 0
M  V30 865 C 76.8053 2.52845 -4.61472 0
M  V30 866 O 75.8313 2.17054 -5.2619 0
M  V30 867 N 77.0333 3.83748 -4.35566 0
M  V30 868 H 79.7983 0.000709447 -2.997 0
M  V30 869 H 77.3593 -0.145132 -1.61248 0
M  V30 870 H 79.3513 2.52655 -3.16145 0
M  V30 871 H 77.9213 2.29245 -2.12521 0
M  V30 872 H 77.1413 0.554906 -3.90275 0
M  V30 873 H 78.4293 1.17598 -4.95023 0
M  V30 874 H 77.8273 4.15625 -3.83761 0
M  V30 875 H 76.3843 4.51977 -4.69638 0
M  V30 876 N 79.8174 1.5752 -0.0501392 0
M  V30 877 C 81.0424 1.97376 0.636997 0
M  V30 878 C 81.4674 0.927466 1.63645 0
M  V30 879 O 80.8254 -0.10941 1.8097 0
M  V30 880 C 80.8734 3.36304 1.30123 0
M  V30 881 O 79.9774 3.34156 2.41689 0
M  V30 882 H 79.3184 0.642998 0.165679 0
M  V30 883 H 81.8484 2.04258 -0.118233 0
M  V30 884 H 81.8584 3.73008 1.65315 0
M  V30 885 H 80.5334 4.11993 0.568746 0
M  V30 886 H 79.1104 3.09196 2.08451 0
M  V30 887 N 81.2955 -0.223234 1.56011 0
M  V30 888 C 82.5415 -0.944891 1.8012 0
M  V30 889 C 82.8965 -1.82039 0.622862 0
M  V30 890 O 82.1895 -1.8773 -0.383143 0
M  V30 891 C 82.3835 -1.81948 3.0762 0
M  V30 892 C 82.2125 -1.03014 4.37742 0
M  V30 893 C 80.9825 -0.72574 5.00061 0
M  V30 894 C 83.1805 -0.396256 5.12771 0
M  V30 895 N 81.1625 0.0851816 6.13841 0
M  V30 896 C 82.5335 0.278137 6.19376 0
M  V30 897 C 84.5885 -0.309117 4.9694 0
M  V30 898 C 83.2915 1.03133 7.11868 0
M  V30 899 C 85.3175 0.430607 5.8983 0
M  V30 900 C 84.6795 1.09355 6.9586 0
M  V30 901 H 80.7785 -0.326081 0.710771 0
M  V30 902 H 83.3625 -0.215914 1.93499 0
M  V30 903 H 81.5335 -2.52029 2.95527 0
M  V30 904 H 83.2655 -2.47848 3.19927 0
M  V30 905 H 80.0205 -1.04335 4.61964 0
M  V30 906 H 80.4445 0.479428 6.753 0
M  V30 907 H 85.0865 -0.807313 4.15021 0
M  V30 908 H 82.8045 1.54105 7.9327 0
M  V30 909 H 86.3905 0.499012 5.79656 0
M  V30 910 H 85.2705 1.65679 7.66499 0
M  V30 911 N 82.7736 -1.49793 -0.48987 0
M  V30 912 C 83.7036 -1.70201 -1.59856 0
M  V30 913 C 84.6846 -0.55076 -1.60937 0
M  V30 914 O 85.8696 -0.787841 -1.77501 0
M  V30 915 C 82.9996 -1.77882 -2.98287 0
M  V30 916 C 81.9536 -2.92907 -3.12073 0
M  V30 917 C 81.2796 -2.85712 -4.51965 0
M  V30 918 C 82.5796 -4.3369 -2.91051 0
M  V30 919 H 84.2736 -2.63025 -1.43032 0
M  V30 920 H 81.8196 -1.26574 -0.686664 0
M  V30 921 H 83.7726 -1.90744 -3.75759 0
M  V30 922 H 82.4966 -0.816653 -3.16225 0
M  V30 923 H 81.1556 -2.79665 -2.37029 0
M  V30 924 H 80.8036 -1.8738 -4.66795 0
M  V30 925 H 80.5036 -3.62921 -4.62128 0
M  V30 926 H 82.0276 -3.00598 -5.31482 0
M  V30 927 H 83.4416 -4.47555 -3.58284 0
M  V30 928 H 81.8386 -5.12205 -3.12675 0
M  V30 929 H 82.9086 -4.47362 -1.87071 0
M  V30 930 N 84.2517 0.741722 -1.39055 0
M  V30 931 C 85.6677 1.04638 -1.20512 0
M  V30 932 C 85.8677 2.01405 -0.0620218 0
M  V30 933 O 84.9237 2.45547 0.588457 0
M  V30 934 C 86.2367 1.6151 -2.53643 0
M  V30 935 C 87.7847 1.73623 -2.6043 0
M  V30 936 C 88.2597 2.33906 -3.93767 0
M  V30 937 N 89.7507 2.41323 -3.9537 0
M  V30 938 C 90.4857 2.88888 -4.95309 0
M  V30 939 N 89.9817 3.36401 -6.05645 0
M  V30 940 N 91.7747 2.88037 -4.82692 0
M  V30 941 H 83.9257 0.0998155 -2.12165 0
M  V30 942 H 86.1887 0.106907 -0.941953 0
M  V30 943 H 85.8947 0.978739 -3.37807 0
M  V30 944 H 85.7687 2.60411 -2.72885 0
M  V30 945 H 88.1557 2.36384 -1.76655 0
M  V30 946 H 88.2367 0.733945 -2.45045 0
M  V30 947 H 87.8807 1.71776 -4.7797 0
M  V30 948 H 87.8107 3.34799 -4.06469 0
M  V30 949 H 90.3017 2.07734 -3.15682 0
M  V30 950 H 90.6147 3.71186 -6.77821 0
M  V30 951 H 88.9597 3.34427 -6.09248 0
M  V30 952 H 92.1507 2.50237 -3.95599 0
M  V30 953 H 92.3237 3.24792 -5.60726 0
M  V30 954 N 85.7298 1.2412 0.971189 0
M  V30 955 C 87.1408 1.07236 1.52831 0
M  V30 956 C 87.4918 -0.357352 1.92918 0
M  V30 957 O 86.6168 -1.24528 1.76979 0
M  V30 958 C 87.2118 1.94043 2.77728 0
M  V30 959 C 85.7708 1.81394 3.29808 0
M  V30 960 C 84.9178 1.89189 2.02738 0
M  V30 961 H 87.8688 1.37648 0.789864 0
M  V30 962 H 87.8898 1.47066 3.5093 0
M  V30 963 H 87.4018 2.98093 2.4852 0
M  V30 964 H 85.5028 0.801634 3.63874 0
M  V30 965 H 85.6158 2.65294 3.98944 0
M  V30 966 H 83.9798 1.32877 2.17292 0
M  V30 967 H 84.7628 2.94812 1.759 0
M  V30 968 N 87.2079 -1.17134 1.05439 0
M  V30 969 C 88.4539 -1.87733 0.767077 0
M  V30 970 C 88.7869 -1.8098 -0.704253 0
M  V30 971 O 88.0619 -1.21951 -1.5152 0
M  V30 972 C 88.3449 -3.37659 1.25133 0
M  V30 973 C 88.1979 -3.53149 2.78578 0
M  V30 974 C 89.5169 -4.31768 0.852324 0
M  V30 975 H 86.6359 -0.681687 0.280129 0
M  V30 976 H 89.2779 -1.37732 1.30881 0
M  V30 977 H 87.4279 -3.80373 0.790469 0
M  V30 978 H 89.0999 -3.19434 3.32806 0
M  V30 979 H 87.3429 -2.95345 3.17732 0
M  V30 980 H 88.0139 -4.58403 3.07523 0
M  V30 981 H 90.4899 -3.96909 1.24911 0
M  V30 982 H 89.3659 -5.35199 1.21873 0
M  V30 983 H 89.6269 -4.41429 -0.243485 0
M  V30 984 N 88.686 -0.835752 -1.33615 0
M  V30 985 C 89.616 -0.281739 -2.31794 0
M  V30 986 C 90.597 0.608833 -1.58831 0
M  V30 987 O 91.782 0.533035 -1.86741 0
M  V30 988 C 88.912 0.546612 -3.42971 0
M  V30 989 C 87.866 -0.247904 -4.27281 0
M  V30 990 C 87.192 0.704001 -5.30045 0
M  V30 991 C 88.492 -1.46324 -5.01385 0
M  V30 992 H 90.186 -1.10206 -2.78379 0
M  V30 993 H 87.732 -0.531388 -1.33837 0
M  V30 994 H 89.685 0.944467 -4.1068 0
M  V30 995 H 88.409 1.40011 -2.95067 0
M  V30 996 H 87.068 -0.627281 -3.61194 0
M  V30 997 H 86.716 1.55381 -4.78399 0
M  V30 998 H 86.416 0.176524 -5.87335 0
M  V30 999 H 87.94 1.09944 -6.0062 0
M  V30 1000 H 89.354 -1.13871 -5.61877 0
M  V30 1001 H 87.751 -1.92728 -5.6831 0
M  V30 1002 H 88.821 -2.23467 -4.30338 0
M  V30 1003 N 90.1641 1.46063 -0.591896 0
M  V30 1004 C 91.5801 1.57561 -0.254288 0
M  V30 1005 C 91.7801 1.58565 1.24336 0
M  V30 1006 O 90.8361 1.50753 2.02558 0
M  V30 1007 C 92.1491 2.86549 -0.911611 0
M  V30 1008 C 93.6971 3.00197 -0.886059 0
M  V30 1009 C 94.1721 4.31933 -1.5231 0
M  V30 1010 N 95.6631 4.38654 -1.48786 0
M  V30 1011 C 96.3981 5.39222 -1.95006 0
M  V30 1012 N 95.8941 6.46414 -2.49241 0
M  V30 1013 N 97.6871 5.3048 -1.85868 0
M  V30 1014 H 89.8381 1.43655 -1.56451 0
M  V30 1015 H 92.1011 0.68583 -0.654478 0
M  V30 1016 H 91.8071 2.91651 -1.96551 0
M  V30 1017 H 91.6811 3.74794 -0.425368 0
M  V30 1018 H 94.0681 2.9467 0.159246 0
M  V30 1019 H 94.1491 2.13403 -1.41041 0
M  V30 1020 H 93.7931 4.38217 -2.56765 0
M  V30 1021 H 93.7231 5.17516 -0.973891 0
M  V30 1022 H 96.2141 3.61793 -1.09151 0
M  V30 1023 H 96.5271 7.19376 -2.82344 0
M  V30 1024 H 94.8721 6.47208 -2.53272 0
M  V30 1025 H 98.0631 4.45643 -1.43248 0
M  V30 1026 H 98.2361 6.08711 -2.22204 0
M  V30 1027 N 91.6422 0.330177 1.54103 0
M  V30 1028 C 92.8672 -0.274893 2.0557 0
M  V30 1029 C 93.2922 -1.44487 1.20437 0
M  V30 1030 O 92.6502 -1.80021 0.214991 0
M  V30 1031 C 92.6982 -0.68079 3.54115 0
M  V30 1032 O 91.8022 -1.7824 3.71893 0
M  V30 1033 H 91.1432 -0.0483849 0.662235 0
M  V30 1034 H 93.6732 0.480508 1.98878 0
M  V30 1035 H 93.6832 -0.961635 3.96505 0
M  V30 1036 H 92.3582 0.174903 4.15532 0
M  V30 1037 H 90.9352 -1.49985 3.41407 0
M  V30 1038 N 93.1203 -1.57491 0.0584922 0
M  V30 1039 C 94.0683 -2.13148 -0.931168 0
M  V30 1040 C 95.0623 -1.06507 -1.31729 0
M  V30 1041 O 96.2683 -1.24906 -1.29609 0
M  V30 1042 H 92.6433 -0.68137 -0.31818 0
M  V30 1043 H 94.6143 -2.95187 -0.436707 0
M  V30 1044 C 93.3633 -2.69732 -2.19408 0
M  V30 1045 H 92.6863 -3.51454 -1.90578 0
M  V30 1046 H 94.1263 -3.12287 -2.86798 0
M  V30 1047 C 92.5853 -1.63855 -2.94369 0
M  V30 1048 O 93.1153 -1.05565 -3.87581 0
M  V30 1049 N 91.3213 -1.35202 -2.57233 0
M  V30 1050 H 90.8683 -1.82791 -1.81508 0
M  V30 1051 H 90.8263 -0.645922 -3.07693 0
M  V30 1052 N 94.5984 0.214957 -1.56127 0
M  V30 1053 C 96.0144 0.564948 -1.49267 0
M  V30 1054 C 96.2144 1.86827 -0.754838 0
M  V30 1055 O 95.2704 2.50745 -0.297198 0
M  V30 1056 C 96.5834 0.638071 -2.93852 0
M  V30 1057 C 98.1314 0.728253 -3.0441 0
M  V30 1058 C 98.6064 0.832663 -4.50367 0
M  V30 1059 N 100.097 0.896712 -4.54437 0
M  V30 1060 C 100.832 0.997324 -5.6466 0
M  V30 1061 N 100.328 1.06147 -6.8462 0
M  V30 1062 N 102.121 1.03297 -5.52527 0
M  V30 1063 H 94.2724 -0.640211 -2.02522 0
M  V30 1064 H 96.5354 -0.225507 -0.920788 0
M  V30 1065 H 96.2414 -0.250126 -3.50809 0
M  V30 1066 H 96.1154 1.49947 -3.46115 0
M  V30 1067 H 98.5024 1.60689 -2.47514 0
M  V30 1068 H 98.5834 -0.158952 -2.55306 0
M  V30 1069 H 98.2274 -0.0415417 -5.07883 0
M  V30 1070 H 98.1574 1.73538 -4.97184 0
M  V30 1071 H 100.648 0.857188 -3.6805 0
M  V30 1072 H 100.961 1.1382 -7.64372 0
M  V30 1073 H 99.3064 1.03049 -6.87318 0
M  V30 1074 H 102.497 0.979558 -4.57736 0
M  V30 1075 H 102.67 1.10793 -6.38458 0
M  V30 1076 N 96.0765 1.50051 0.48192 0
M  V30 1077 C 97.3225 1.60736 1.2366 0
M  V30 1078 C 97.6555 0.301786 1.91841 0
M  V30 1079 O 96.9305 -0.696025 1.8162 0
M  V30 1080 C 97.2135 2.78009 2.28874 0
M  V30 1081 C 97.0665 4.18416 1.65069 0
M  V30 1082 C 98.3855 2.90867 3.30279 0
M  V30 1083 H 95.5045 0.585031 0.448228 0
M  V30 1084 H 98.1465 1.82402 0.531946 0
M  V30 1085 H 96.2965 2.59667 2.88973 0
M  V30 1086 H 97.9685 4.48322 1.0865 0
M  V30 1087 H 96.2115 4.23177 0.954148 0
M  V30 1088 H 96.8825 4.96381 2.41474 0
M  V30 1089 H 99.3585 3.07623 2.80191 0
M  V30 1090 H 98.2345 3.74566 4.01238 0
M  V30 1091 H 98.4955 2.01021 3.93755 0
M  V30 1092 N 97.5546 -0.734337 1.39446 0
M  V30 1093 C 98.4646 -1.87879 1.40495 0
M  V30 1094 C 99.4806 -1.714 0.299672 0
M  V30 1095 O 100.657 -1.93991 0.541249 0
M  V30 1096 C 97.7216 -3.23477 1.24754 0
M  V30 1097 C 96.7826 -3.52344 2.45259 0
M  V30 1098 C 96.0156 -4.81473 2.30259 0
M  V30 1099 O 96.2386 -5.55237 1.30643 0
M  V30 1100 O 95.1726 -5.10254 3.19256 0
M  V30 1101 H 98.9986 -1.89949 2.36966 0
M  V30 1102 H 96.5836 -0.882243 1.20569 0
M  V30 1103 H 98.4656 -4.04509 1.18111 0
M  V30 1104 H 97.1406 -3.22176 0.313781 0
M  V30 1105 H 96.0476 -2.71396 2.57478 0
M  V30 1106 H 97.3806 -3.58426 3.37331 0
M  V30 1107 N 99.0327 -1.24633 -0.964593 0
M  V30 1108 C 100.263 -1.11339 -1.74032 0
M  V30 1109 C 100.671 0.336593 -1.86182 0
M  V30 1110 O 100.014 1.24389 -1.35178 0
M  V30 1111 C 100.076 -1.68284 -3.1768 0
M  V30 1112 C 99.7397 -3.17196 -3.28992 0
M  V30 1113 C 100.737 -4.14308 -3.14078 0
M  V30 1114 C 98.4217 -3.57215 -3.53133 0
M  V30 1115 C 100.416 -5.4942 -3.23135 0
M  V30 1116 C 98.1027 -4.92468 -3.61827 0
M  V30 1117 C 99.1007 -5.8838 -3.46841 0
M  V30 1118 O 98.7887 -7.21173 -3.55197 0
M  V30 1119 H 98.5207 -0.389551 -0.552472 0
M  V30 1120 H 101.075 -1.65282 -1.21946 0
M  V30 1121 H 99.3047 -1.08777 -3.71085 0
M  V30 1122 H 100.994 -1.50234 -3.77074 0
M  V30 1123 H 101.76 -3.84731 -2.95308 0
M  V30 1124 H 97.6387 -2.83063 -3.63863 0
M  V30 1125 H 101.183 -6.24263 -3.11355 0
M  V30 1126 H 97.0797 -5.21714 -3.80111 0
M  V30 1127 H 97.8477 -7.29135 -3.71892 0
M  V30 1128 N 100.511 1.16574 -1.06058 0
M  V30 1129 C 101.751 1.88723 -0.78504 0
M  V30 1130 C 102.115 1.79706 0.676006 0
M  V30 1131 O 103.316 2.46757 1.06603 0
M  V30 1132 C 101.587 3.34338 -1.26304 0
M  V30 1133 S 103.146 4.24366 -1.1162 0
M  V30 1134 H 99.9638 0.651448 -0.284846 0
M  V30 1135 H 102.566 1.40732 -1.35701 0
M  V30 1136 H 101.27 3.38439 -2.32136 0
M  V30 1137 H 100.801 3.87378 -0.685719 0
M  V30 1138 H 102.816 4.96179 -0.0456539 0
M  V30 1139 N 101.989 0.842826 1.3317 0
M  V30 1140 C 103.235 0.450342 1.98352 0
M  V30 1141 C 103.59 -0.980508 1.65541 0
M  V30 1142 O 102.883 -1.67678 0.927065 0
M  V30 1143 C 103.077 0.612607 3.52111 0
M  V30 1144 C 102.906 2.05768 3.99862 0
M  V30 1145 C 101.676 2.69374 4.27511 0
M  V30 1146 C 103.874 3.02688 4.15794 0
M  V30 1147 N 101.856 4.04915 4.61429 0
M  V30 1148 C 103.227 4.23186 4.53115 0
M  V30 1149 C 105.282 2.99041 3.98094 0
M  V30 1150 C 103.985 5.40518 4.74587 0
M  V30 1151 C 106.011 4.15607 4.20743 0
M  V30 1152 C 105.373 5.3486 4.58371 0
M  V30 1153 H 101.472 0.213296 0.752349 0
M  V30 1154 H 104.056 1.09173 1.61212 0
M  V30 1155 H 102.227 0.000998822 3.884 0
M  V30 1156 H 103.959 0.191179 4.04248 0
M  V30 1157 H 100.714 2.20485 4.19146 0
M  V30 1158 H 101.138 4.74798 4.82593 0
M  V30 1159 H 105.78 2.0797 3.68114 0
M  V30 1160 H 103.498 6.3213 5.03425 0
M  V30 1161 H 107.084 4.14207 4.08563 0
M  V30 1162 H 105.964 6.23558 4.75547 0
M  V30 1163 N 103.467 -1.45747 0.599634 0
M  V30 1164 C 104.707 -2.04181 0.0946309 0
M  V30 1165 C 105.071 -1.45895 -1.24815 0
M  V30 1166 O 106.272 -1.95633 -1.8434 0
M  V30 1167 C 104.543 -3.57368 0.047581 0
M  V30 1168 S 106.102 -4.36997 -0.397387 0
M  V30 1169 H 102.92 -0.70953 0.0456954 0
M  V30 1170 H 105.522 -1.78564 0.795946 0
M  V30 1171 H 104.226 -3.97303 1.02852 0
M  V30 1172 H 103.757 -3.87549 -0.675977 0
M  V30 1173 H 105.772 -4.68012 -1.64862 0
M  V30 1174 N 104.945 -0.338344 -1.53925 0
M  V30 1175 C 105.893 0.536231 -2.26335 0
M  V30 1176 C 106.887 1.1063 -1.28286 0
M  V30 1177 O 108.093 1.05264 -1.46012 0
M  V30 1178 H 104.468 0.191602 -0.727181 0
M  V30 1179 H 106.439 -0.0965747 -2.98244 0
M  V30 1180 C 105.188 1.67803 -3.04528 0
M  V30 1181 H 104.511 1.24864 -3.79801 0
M  V30 1182 H 105.951 2.26526 -3.58416 0
M  V30 1183 C 104.41 2.60439 -2.13712 0
M  V30 1184 O 104.94 3.6255 -1.72975 0
M  V30 1185 N 103.146 2.29006 -1.78898 0
M  V30 1186 H 102.693 1.46011 -2.12223 0
M  V30 1187 H 102.651 2.91248 -1.18416 0
M  V30 1188 N 106.423 1.57458 -0.0668435 0
M  V30 1189 C 107.648 1.9804 0.616027 0
M  V30 1190 C 108.073 0.944771 1.62652 0
M  V30 1191 O 107.431 -0.0902094 1.81075 0
M  V30 1192 C 107.479 3.37665 1.26549 0
M  V30 1193 O 106.583 3.36701 2.38131 0
M  V30 1194 H 105.924 0.644719 0.158849 0
M  V30 1195 H 108.454 2.04121 -0.139891 0
M  V30 1196 H 108.464 3.7474 1.6135 0
M  V30 1197 H 107.139 4.12573 0.525016 0
M  V30 1198 H 105.716 3.1139 2.0516 0
M  V30 1199 N 107.901 -0.206675 1.56239 0
M  V30 1200 C 109.149 -0.927007 1.79586 0
M  V30 1201 C 109.47 -1.8427 0.637929 0
M  V30 1202 O 108.74 -1.92849 -0.344398 0
M  V30 1203 H 107.32 -0.345292 0.662407 0
M  V30 1204 H 109.982 -0.21496 1.93711 0
M  V30 1205 H 109.078 -1.52501 2.72305 0
M  V30 1206 N 109.379 -1.50304 -0.473955 0
M  V30 1207 C 110.795 -1.37667 -0.807466 0
M  V30 1208 C 110.995 -0.430555 -1.96846 0
M  V30 1209 O 110.051 0.127874 -2.52176 0
M  V30 1210 C 111.364 -2.78974 -1.12223 0
M  V30 1211 C 112.912 -2.87868 -1.22885 0
M  V30 1212 C 113.387 -4.30003 -1.57676 0
M  V30 1213 N 114.878 -4.3294 -1.64673 0
M  V30 1214 C 115.613 -5.3991 -1.93091 0
M  V30 1215 N 115.109 -6.57092 -2.1955 0
M  V30 1216 N 116.902 -5.27351 -1.94569 0
M  V30 1217 H 109.053 -2.10394 0.291212 0
M  V30 1218 H 111.316 -0.945575 0.0677609 0
M  V30 1219 H 111.022 -3.50031 -0.342229 0
M  V30 1220 H 110.896 -3.16038 -2.05913 0
M  V30 1221 H 113.283 -2.17032 -1.99953 0
M  V30 1222 H 113.364 -2.54352 -0.271814 0
M  V30 1223 H 113.008 -5.01375 -0.81149 0
M  V30 1224 H 112.938 -4.61004 -2.54525 0
M  V30 1225 H 115.429 -3.48441 -1.46277 0
M  V30 1226 H 115.742 -7.34425 -2.405 0
M  V30 1227 H 114.087 -6.60272 -2.16948 0
M  V30 1228 H 117.278 -4.34801 -1.73394 0
M  V30 1229 H 117.451 -6.10805 -2.16381 0
M  V30 1230 N 110.857 0.726932 -1.39834 0
M  V30 1231 C 111.82 1.82269 -1.38962 0
M  V30 1232 C 112.82 1.58248 -0.285334 0
M  V30 1233 O 114.01 1.65499 -0.54366 0
M  V30 1234 C 111.142 3.20186 -1.17019 0
M  V30 1235 H 112.335 1.84443 -2.36476 0
M  V30 1236 H 109.888 0.931416 -1.25516 0
M  V30 1237 H 110.623 3.23669 -0.202204 0
M  V30 1238 H 110.408 3.3902 -1.96998 0
M  V30 1239 H 111.898 4.00235 -1.1917 0
M  V30 1240 N 112.336 1.25143 0.95797 0
M  V30 1241 C 113.268 1.01023 2.05735 0
M  V30 1242 C 114.281 -0.0236902 1.62783 0
M  V30 1243 O 115.47 0.21448 1.77207 0
M  V30 1244 C 112.57 0.504595 3.35122 0
M  V30 1245 C 111.743 1.6039 4.06932 0
M  V30 1246 C 110.802 1.09922 5.14591 0
M  V30 1247 O 109.828 1.79293 5.40225 0
M  V30 1248 N 111.03 -0.0612545 5.80468 0
M  V30 1249 H 113.795 1.95683 2.26998 0
M  V30 1250 H 111.356 1.16303 1.12629 0
M  V30 1251 H 113.348 0.151516 4.04416 0
M  V30 1252 H 111.918 -0.347989 3.10657 0
M  V30 1253 H 111.138 2.12872 3.31782 0
M  V30 1254 H 112.426 2.34252 4.51667 0
M  V30 1255 H 111.824 -0.640985 5.62057 0
M  V30 1256 H 110.381 -0.355395 6.5083 0
M  V30 1257 N 113.814 -1.1601 1.06675 0
M  V30 1258 C 115.054 -1.88304 0.795037 0
M  V30 1259 C 115.418 -1.80062 -0.666466 0
M  V30 1260 O 116.619 -2.47319 -1.05293 0
M  V30 1261 C 114.89 -3.33664 1.28076 0
M  V30 1262 S 116.449 -4.23768 1.13868 0
M  V30 1263 H 113.267 -0.649928 0.288296 0
M  V30 1264 H 115.869 -1.4001 1.36445 0
M  V30 1265 H 114.573 -3.37203 2.33927 0
M  V30 1266 H 114.104 -3.87009 0.706253 0
M  V30 1267 H 116.119 -4.96148 0.0719668 0
M  V30 1268 N 115.292 -0.849877 -1.32721 0
M  V30 1269 C 116.242 -0.262892 -2.26479 0
M  V30 1270 C 117.226 0.588493 -1.49752 0
M  V30 1271 O 118.418 0.438659 -1.71478 0
M  V30 1272 C 115.547 0.551818 -3.38836 0
M  V30 1273 C 114.633 -0.311689 -4.22953 0
M  V30 1274 N 115.024 -1.39567 -4.86163 0
M  V30 1275 C 113.322 -0.100611 -4.45887 0
M  V30 1276 C 114.023 -1.92651 -5.48872 0
M  V30 1277 N 112.999 -1.22637 -5.29586 0
M  V30 1278 H 116.801 -1.09166 -2.72873 0
M  V30 1279 H 114.315 -0.695486 -1.46754 0
M  V30 1280 H 116.312 0.988713 -4.05006 0
M  V30 1281 H 114.972 1.37844 -2.93988 0
M  V30 1282 H 115.983 -1.77859 -4.86402 0
M  V30 1283 H 112.66 0.691681 -4.11731 0
M  V30 1284 H 114.05 -2.83487 -6.09167 0
M  V30 1285 N 116.77 1.45427 -0.607355 0
M  V30 1286 C 117.995 2.07124 -0.107006 0
M  V30 1287 C 118.42 1.44906 1.19933 0
M  V30 1288 O 117.778 0.541687 1.73019 0
M  V30 1289 C 117.826 3.60595 0.0194119 0
M  V30 1290 O 116.93 3.98285 1.0697 0
M  V30 1291 H 116.271 0.659868 -0.0739597 0
M  V30 1292 H 118.801 1.86683 -0.837297 0
M  V30 1293 H 118.811 4.07419 0.2177 0
M  V30 1294 H 117.486 4.05266 -0.934453 0
M  V30 1295 H 116.063 3.63133 0.847889 0
M  V30 1296 N 118.248 0.346503 1.53744 0
M  V30 1297 C 119.494 -0.249473 2.0126 0
M  V30 1298 C 119.827 -1.49965 1.23386 0
M  V30 1299 O 119.102 -1.91811 0.32229 0
M  V30 1300 C 119.385 -0.560643 3.55709 0
M  V30 1301 C 119.238 0.701836 4.44291 0
M  V30 1302 C 120.557 -1.36905 4.18264 0
M  V30 1303 H 117.676 -0.0891987 0.731582 0
M  V30 1304 H 120.318 0.467624 1.84156 0
M  V30 1305 H 118.468 -1.17156 3.70414 0
M  V30 1306 H 120.14 1.33974 4.41417 0
M  V30 1307 H 118.383 1.32612 4.13033 0
M  V30 1308 H 119.054 0.43933 5.50249 0
M  V30 1309 H 121.53 -0.852448 4.07275 0
M  V30 1310 H 120.406 -1.55553 5.26398 0
M  V30 1311 H 120.667 -2.37203 3.73078 0
M  V30 1312 N 119.726 -1.57421 0.075193 0
M  V30 1313 C 121.137 -1.81021 -0.456964 0
M  V30 1314 C 121.488 -0.98936 -1.69429 0
M  V30 1315 O 120.613 -0.212865 -2.15351 0
M  V30 1316 C 121.208 -3.28329 -0.83581 0
M  V30 1317 C 119.767 -3.52764 -1.31281 0
M  V30 1318 C 118.914 -2.75676 -0.299648 0
M  V30 1319 H 121.865 -1.55822 0.300856 0
M  V30 1320 H 121.886 -3.40564 -1.69696 0
M  V30 1321 H 121.398 -3.88046 0.0649238 0
M  V30 1322 H 119.499 -2.98355 -2.23193 0
M  V30 1323 H 119.612 -4.61451 -1.28839 0
M  V30 1324 H 117.976 -2.42538 -0.777641 0
M  V30 1325 H 118.759 -3.38132 0.593417 0
M  V30 1326 N 121.204 0.198386 -1.56346 0
M  V30 1327 C 122.45 0.920648 -1.80698 0
M  V30 1328 C 122.783 1.83045 -0.648697 0
M  V30 1329 O 122.058 1.91308 0.350925 0
M  V30 1330 C 122.341 1.73971 -3.15287 0
M  V30 1331 C 122.194 0.85485 -4.41602 0
M  V30 1332 C 123.513 2.71296 -3.46535 0
M  V30 1333 H 120.632 0.333261 -0.657348 0
M  V30 1334 H 123.274 0.188198 -1.89066 0
M  V30 1335 H 121.424 2.36416 -3.08285 0
M  V30 1336 H 123.096 0.245362 -4.60647 0
M  V30 1337 H 121.339 0.161398 -4.335 0
M  V30 1338 H 122.01 1.46286 -5.32264 0
M  V30 1339 H 124.486 2.18983 -3.53816 0
M  V30 1340 H 123.362 3.2569 -4.41834 0
M  V30 1341 H 123.623 3.5018 -2.69864 0
M  V30 1342 N 122.682 1.50554 0.465978 0
M  V30 1343 C 123.629 1.6979 1.56333 0
M  V30 1344 C 124.599 0.539239 1.57103 0
M  V30 1345 O 125.784 0.770401 1.74555 0
M  V30 1346 C 122.924 1.80273 2.94271 0
M  V30 1347 C 122.037 3.07674 3.0325 0
M  V30 1348 C 121.172 3.08922 4.32135 0
M  V30 1349 C 120.211 4.30755 4.34875 0
M  V30 1350 N 119.348 4.29714 5.55239 0
M  V30 1351 H 124.188 2.63472 1.39235 0
M  V30 1352 H 121.725 1.30602 0.676873 0
M  V30 1353 H 123.683 1.84332 3.74269 0
M  V30 1354 H 122.313 0.900258 3.09992 0
M  V30 1355 H 121.365 3.13062 2.16094 0
M  V30 1356 H 122.677 3.97642 3.01135 0
M  V30 1357 H 121.831 3.11738 5.20485 0
M  V30 1358 H 120.57 2.16792 4.36866 0
M  V30 1359 H 119.575 4.28146 3.44922 0
M  V30 1360 H 120.8 5.24117 4.31831 0
M  V30 1361 H 118.746 3.4044 5.60746 0
M  V30 1362 H 118.663 5.13456 5.54886 0
M  V30 1363 H 119.931 4.36683 6.457 0
M  V30 1364 N 124.16 -0.719506 1.40217 0
M  V30 1365 C 125.385 -1.51371 1.4178 0
M  V30 1366 C 125.81 -1.88091 0.0182355 0
M  V30 1367 O 125.168 -1.52997 -0.972707 0
M  V30 1368 C 125.216 -2.768 2.31115 0
M  V30 1369 O 124.32 -3.73349 1.7517 0
M  V30 1370 H 123.661 -0.456529 0.482159 0
M  V30 1371 H 126.191 -0.88644 1.844 0
M  V30 1372 H 126.201 -3.25371 2.46167 0
M  V30 1373 H 124.876 -2.49407 3.3282 0
M  V30 1374 H 123.453 -3.32179 1.69444 0
M  V30 1375 N 125.638 -1.25649 -0.95132 0
M  V30 1376 C 126.878 -1.11802 -1.71113 0
M  V30 1377 C 127.242 0.334758 -1.89059 0
M  V30 1378 O 128.443 0.595121 -2.62129 0
M  V30 1379 C 126.714 -1.85512 -3.05483 0
M  V30 1380 S 128.273 -1.87597 -3.96677 0
M  V30 1381 H 125.091 -0.399552 -0.588115 0
M  V30 1382 H 127.693 -1.59222 -1.1344 0
M  V30 1383 H 126.397 -2.90299 -2.90094 0
M  V30 1384 H 125.928 -1.38493 -3.68216 0
M  V30 1385 H 127.943 -0.955389 -4.86916 0
M  V30 1386 N 127.117 1.15442 -1.07289 0
M  V30 1387 C 128.342 1.90638 -0.816828 0
M  V30 1388 C 128.767 1.77445 0.624083 0
M  V30 1389 O 128.125 1.10671 1.43602 0
M  V30 1390 C 128.173 3.39008 -1.22906 0
M  V30 1391 O 127.277 4.10701 -0.373975 0
M  V30 1392 H 126.618 0.593555 -0.297638 0
M  V30 1393 H 129.148 1.46198 -1.43134 0
M  V30 1394 H 129.158 3.89801 -1.20497 0
M  V30 1395 H 127.833 3.47929 -2.27856 0
M  V30 1396 H 126.41 3.70046 -0.460499 0
M  V30 1397 N 128.595 0.856903 1.32268 0
M  V30 1398 C 129.505 0.306131 2.32594 0
M  V30 1399 C 130.521 -0.577209 1.64147 0
M  V30 1400 O 131.697 -0.477043 1.95669 0
M  V30 1401 C 128.762 -0.494561 3.43154 0
M  V30 1402 C 127.823 0.415186 4.27288 0
M  V30 1403 C 127.056 -0.347387 5.32568 0
M  V30 1404 O 127.279 -1.57708 5.48165 0
M  V30 1405 O 126.213 0.287982 6.01211 0
M  V30 1406 H 130.039 1.13737 2.81598 0
M  V30 1407 H 127.624 0.619902 1.35932 0
M  V30 1408 H 129.506 -0.948944 4.10576 0
M  V30 1409 H 128.181 -1.30257 2.96336 0
M  V30 1410 H 127.088 0.917793 3.62667 0
M  V30 1411 H 128.421 1.18844 4.77637 0
M  V30 1412 N 130.073 -1.45103 0.615059 0
M  V30 1413 C 131.484 -1.85654 0.197383 0
M  V30 1414 C 131.835 -1.51433 -1.24749 0
M  V30 1415 O 130.96 -0.944608 -1.94695 0
M  V30 1416 C 131.555 -3.36972 0.351448 0
M  V30 1417 C 130.114 -3.76398 -0.011593 0
M  V30 1418 C 129.261 -2.69024 0.672394 0
M  V30 1419 H 132.212 -1.35797 0.821263 0
M  V30 1420 H 132.233 -3.78239 -0.414227 0
M  V30 1421 H 131.745 -3.61847 1.40314 0
M  V30 1422 H 129.846 -3.5714 -1.06217 0
M  V30 1423 H 129.959 -4.77532 0.387265 0
M  V30 1424 H 128.323 -2.54465 0.109284 0
M  V30 1425 H 129.106 -2.96735 1.72636 0
M  V30 1426 N 131.551 -0.354651 -1.53558 0
M  V30 1427 C 132.967 -0.00315426 -1.596 0
M  V30 1428 C 133.167 1.47741 -1.37021 0
M  V30 1429 O 132.223 2.23759 -1.16996 0
M  V30 1430 C 133.536 -0.44929 -2.97325 0
M  V30 1431 C 135.084 -0.402578 -3.104 0
M  V30 1432 C 135.559 -0.824355 -4.5052 0
M  V30 1433 N 137.05 -0.778979 -4.56603 0
M  V30 1434 C 137.785 -1.07715 -5.63192 0
M  V30 1435 N 137.281 -1.44405 -6.77583 0
M  V30 1436 N 139.074 -1.00066 -5.53121 0
M  V30 1437 H 131.225 -1.31893 -1.66487 0
M  V30 1438 H 133.488 -0.538388 -0.780284 0
M  V30 1439 H 133.194 -1.48202 -3.1895 0
M  V30 1440 H 133.068 0.169772 -3.76818 0
M  V30 1441 H 135.455 0.621004 -2.88492 0
M  V30 1442 H 135.536 -1.05699 -2.32941 0
M  V30 1443 H 135.18 -1.846 -4.73165 0
M  V30 1444 H 135.11 -0.147304 -5.26394 0
M  V30 1445 H 137.601 -0.508528 -3.74463 0
M  V30 1446 H 137.914 -1.65612 -7.54846 0
M  V30 1447 H 136.259 -1.4826 -6.79002 0
M  V30 1448 H 139.45 -0.713293 -4.62633 0
M  V30 1449 H 139.623 -1.23638 -6.36096 0
M  V30 1450 N 133.029 1.57378 -0.0835403 0
M  V30 1451 C 134.269 1.95808 0.586381 0
M  V30 1452 C 134.633 0.963706 1.66062 0
M  V30 1453 O 135.834 1.23608 2.38693 0
M  V30 1454 C 134.105 3.38808 1.13771 0
M  V30 1455 S 135.664 3.99225 1.82112 0
M  V30 1456 H 132.482 0.684675 0.191679 0
M  V30 1457 H 135.084 1.94843 -0.160194 0
M  V30 1458 H 133.788 4.08954 0.344197 0
M  V30 1459 H 133.319 3.43344 1.92038 0
M  V30 1460 H 135.334 3.87087 3.10449 0
M  V30 1461 N 134.507 -0.190092 1.56449 0
M  V30 1462 C 135.754 -0.909705 1.80916 0
M  V30 1463 C 136.082 -1.83047 0.657583 0
M  V30 1464 O 135.337 -1.92428 -0.356356 0
M  V30 1465 C 135.636 -1.75382 3.1141 0
M  V30 1466 C 135.302 -0.983606 4.40041 0
M  V30 1467 C 133.964 -0.770967 4.74984 0
M  V30 1468 C 136.316 -0.442024 5.19322 0
M  V30 1469 C 133.644 -0.0053448 5.867 0
M  V30 1470 C 135.996 0.310412 6.31838 0
M  V30 1471 C 134.66 0.534023 6.6536 0
M  V30 1472 H 133.93 -0.332885 0.662019 0
M  V30 1473 H 136.577 -0.175762 1.90692 0
M  V30 1474 H 134.882 -2.55659 2.96893 0
M  V30 1475 H 136.579 -2.31331 3.27547 0
M  V30 1476 H 133.169 -1.15936 4.12622 0
M  V30 1477 H 137.353 -0.593693 4.92736 0
M  V30 1478 H 132.609 0.177825 6.11141 0
M  V30 1479 H 136.783 0.737419 6.92485 0
M  V30 1480 H 134.41 1.12918 7.51767 0
M  V30 1481 N 135.985 -1.50799 -0.457987 0
M  V30 1482 C 136.933 -1.71162 -1.575 0
M  V30 1483 C 137.927 -0.577592 -1.59249 0
M  V30 1484 O 139.133 -0.758443 -1.63241 0
M  V30 1485 H 135.508 -0.540468 -0.522875 0
M  V30 1486 H 137.479 -2.64837 -1.37492 0
M  V30 1487 C 136.228 -1.83496 -2.95338 0
M  V30 1488 H 135.551 -2.70153 -2.94716 0
M  V30 1489 H 136.991 -2.01765 -3.72917 0
M  V30 1490 C 135.45 -0.589694 -3.31699 0
M  V30 1491 O 135.98 0.265163 -4.00824 0
M  V30 1492 N 134.186 -0.439845 -2.87252 0
M  V30 1493 H 133.733 -1.13655 -2.31172 0
M  V30 1494 H 133.691 0.392159 -3.11945 0
M  V30 1495 N 137.463 0.71206 -1.40597 0
M  V30 1496 C 138.711 1.46907 -1.38791 0
M  V30 1497 C 139.032 1.94998 0.00780391 0
M  V30 1498 O 138.302 1.70587 0.963174 0
M  V30 1499 H 136.882 0.545043 -0.51082 0
M  V30 1500 H 139.544 0.843882 -1.75683 0
M  V30 1501 H 138.64 2.34021 -2.06496 0
M  V30 1502 N 138.941 1.26152 0.944643 0
M  V30 1503 C 140.189 1.11271 1.6871 0
M  V30 1504 C 140.51 -0.345166 1.91921 0
M  V30 1505 O 139.78 -1.24387 1.51343 0
M  V30 1506 H 138.36 0.408783 0.625224 0
M  V30 1507 H 141.022 1.58427 1.1352 0
M  V30 1508 H 140.118 1.62879 2.66227 0
M  V30 1509 N 140.419 -1.14872 1.07899 0
M  V30 1510 C 141.647 -1.89661 0.82683 0
M  V30 1511 C 142.062 -1.78312 -0.620519 0
M  V30 1512 O 141.419 -1.13888 -1.42604 0
M  V30 1513 C 141.47 -3.39817 1.23316 0
M  V30 1514 O 141.191 -3.50845 2.62372 0
M  V30 1515 C 142.692 -4.31615 1.0111 0
M  V30 1516 H 139.912 -0.60092 0.298557 0
M  V30 1517 H 142.456 -1.4551 1.43691 0
M  V30 1518 H 140.611 -3.8161 0.667286 0
M  V30 1519 H 141.025 -4.44076 2.79101 0
M  V30 1520 H 142.499 -5.35367 1.34486 0
M  V30 1521 H 142.976 -4.39169 -0.0522168 0
M  V30 1522 H 143.582 -3.95572 1.56215 0
M  V30 1523 N 141.898 -0.863906 -1.31812 0
M  V30 1524 C 143.138 -0.47825 -1.98726 0
M  V30 1525 C 143.502 0.950397 -1.66828 0
M  V30 1526 O 144.703 1.44109 -2.26905 0
M  V30 1527 C 142.974 -0.721134 -3.50049 0
M  V30 1528 S 144.533 -0.434432 -4.36644 0
M  V30 1529 H 141.351 -0.178773 -0.688158 0
M  V30 1530 H 143.953 -1.11862 -1.60334 0
M  V30 1531 H 142.657 -1.75981 -3.70755 0
M  V30 1532 H 142.188 -0.0675315 -3.93342 0
M  V30 1533 H 144.203 0.735786 -4.90714 0
M  V30 1534 N 143.376 1.44774 -0.622745 0
M  V30 1535 C 144.308 2.28856 0.125485 0
M  V30 1536 C 145.321 1.40811 0.817069 0
M  V30 1537 O 146.51 1.65044 0.679918 0
M  V30 1538 C 143.61 3.16963 1.19949 0
M  V30 1539 C 142.783 4.33374 0.592064 0
M  V30 1540 C 141.842 5.02577 1.55893 0
M  V30 1541 O 140.868 5.58873 1.07933 0
M  V30 1542 N 142.07 5.03256 2.89334 0
M  V30 1543 H 144.835 2.93713 -0.596068 0
M  V30 1544 H 142.396 1.55129 -0.463303 0
M  V30 1545 H 144.388 3.60123 1.84644 0
M  V30 1546 H 142.958 2.53913 1.82337 0
M  V30 1547 H 142.178 3.93509 -0.233322 0
M  V30 1548 H 143.466 5.08527 0.166738 0
M  V30 1549 H 142.864 4.58836 3.30887 0
M  V30 1550 H 141.421 5.50232 3.49412 0
M  V30 1551 N 144.854 0.36279 1.53368 0
M  V30 1552 C 145.786 -0.519668 2.23231 0
M  V30 1553 C 146.799 -1.04844 1.24546 0
M  V30 1554 O 147.988 -0.955296 1.50786 0
M  V30 1555 C 145.088 -1.72995 2.9142 0
M  V30 1556 C 144.261 -1.33316 4.16588 0
M  V30 1557 C 143.32 -2.40521 4.68013 0
M  V30 1558 O 142.346 -2.03027 5.3176 0
M  V30 1559 N 143.548 -3.72065 4.45587 0
M  V30 1560 H 146.313 0.078751 2.99597 0
M  V30 1561 H 143.874 0.187833 1.60807 0
M  V30 1562 H 145.866 -2.44184 3.22733 0
M  V30 1563 H 144.436 -2.2353 2.18525 0
M  V30 1564 H 143.656 -0.451236 3.91609 0
M  V30 1565 H 144.944 -1.04432 4.97967 0
M  V30 1566 H 144.342 -4.05304 3.94646 0
M  V30 1567 H 142.899 -4.39366 4.81457 0
M  V30 1568 N 146.332 -1.57332 0.0918853 0
M  V30 1569 C 147.295 -2.12708 -0.85369 0
M  V30 1570 C 148.295 -1.05561 -1.213 0
M  V30 1571 O 149.485 -1.31461 -1.14296 0
M  V30 1572 C 146.617 -2.64503 -2.15061 0
M  V30 1573 H 147.81 -2.97573 -0.3729 0
M  V30 1574 H 145.363 -1.55509 -0.157072 0
M  V30 1575 H 146.098 -1.83149 -2.67632 0
M  V30 1576 H 145.883 -3.4284 -1.90272 0
M  V30 1577 H 147.373 -3.07351 -2.82711 0
M  V30 1578 N 147.81 0.181792 -1.56548 0
M  V30 1579 C 148.74 1.22765 -1.98623 0
M  V30 1580 C 149.721 1.46747 -0.860189 0
M  V30 1581 O 150.906 1.58259 -1.12551 0
M  V30 1582 C 148.036 2.56894 -2.33715 0
M  V30 1583 C 146.99 2.475 -3.49182 0
M  V30 1584 C 146.316 3.86023 -3.69986 0
M  V30 1585 C 147.616 1.98866 -4.82959 0
M  V30 1586 H 149.31 0.877942 -2.86239 0
M  V30 1587 H 146.856 0.42088 -1.37712 0
M  V30 1588 H 148.809 3.30253 -2.61746 0
M  V30 1589 H 147.533 2.93632 -1.42997 0
M  V30 1590 H 146.192 1.76596 -3.21262 0
M  V30 1591 H 145.84 4.20136 -2.76576 0
M  V30 1592 H 145.54 3.80609 -4.47672 0
M  V30 1593 H 147.064 4.60984 -4.00407 0
M  V30 1594 H 148.478 2.61992 -5.09934 0
M  V30 1595 H 146.875 2.04424 -5.64208 0
M  V30 1596 H 147.945 0.942465 -4.75653 0
M  V30 1597 N 149.288 1.51039 0.449983 0
M  V30 1598 C 150.518 1.66627 1.22143 0
M  V30 1599 C 150.926 0.357776 1.85786 0
M  V30 1600 O 150.269 -0.672424 1.70951 0
M  V30 1601 C 150.331 2.71562 2.35573 0
M  V30 1602 C 149.995 4.14526 1.92399 0
M  V30 1603 C 150.992 4.99717 1.43453 0
M  V30 1604 C 148.677 4.60559 2.00475 0
M  V30 1605 C 150.671 6.28998 1.03155 0
M  V30 1606 C 148.358 5.8984 1.59788 0
M  V30 1607 C 149.356 6.73886 1.11208 0
M  V30 1608 O 149.044 8.0075 0.710935 0
M  V30 1609 H 148.776 0.562635 0.374724 0
M  V30 1610 H 151.33 1.98146 0.541036 0
M  V30 1611 H 149.56 2.3533 3.06849 0
M  V30 1612 H 151.249 2.76156 2.97478 0
M  V30 1613 H 152.015 4.65361 1.36618 0
M  V30 1614 H 147.894 3.95273 2.37235 0
M  V30 1615 H 151.438 6.9455 0.651663 0
M  V30 1616 H 147.335 6.23713 1.66289 0
M  V30 1617 H 148.103 8.142 0.837913 0
M  V30 1618 N 150.766 -0.704594 1.40972 0
M  V30 1619 C 152.013 -1.46458 1.39844 0
M  V30 1620 C 152.341 -1.94499 0.00447594 0
M  V30 1621 O 151.596 -1.69275 -0.982057 0
M  V30 1622 C 151.895 -2.698 2.34399 0
M  V30 1623 C 151.561 -2.40464 3.81429 0
M  V30 1624 C 150.223 -2.32174 4.21484 0
M  V30 1625 C 152.575 -2.16086 4.74296 0
M  V30 1626 C 149.903 -1.97589 5.52427 0
M  V30 1627 C 152.255 -1.83011 6.05549 0
M  V30 1628 C 150.919 -1.7321 6.44635 0
M  V30 1629 H 150.189 -0.535927 0.511725 0
M  V30 1630 H 152.836 -0.806124 1.73706 0
M  V30 1631 H 151.141 -3.40536 1.93759 0
M  V30 1632 H 152.838 -3.27919 2.30804 0
M  V30 1633 H 149.428 -2.47808 3.49699 0
M  V30 1634 H 153.612 -2.2144 4.4416 0
M  V30 1635 H 148.868 -1.88547 5.81601 0
M  V30 1636 H 153.042 -1.63164 6.77016 0
M  V30 1637 H 150.669 -1.46179 7.46013 0
M  V30 1638 N 152.244 -1.26651 -0.937939 0
M  V30 1639 C 153.469 -1.15279 -1.72411 0
M  V30 1640 C 153.894 0.287866 -1.85884 0
M  V30 1641 O 153.252 1.20855 -1.35143 0
M  V30 1642 C 153.3 -1.83028 -3.10698 0
M  V30 1643 O 152.404 -1.12128 -3.96864 0
M  V30 1644 H 151.745 -0.401504 -0.528858 0
M  V30 1645 H 154.275 -1.67531 -1.1745 0
M  V30 1646 H 154.285 -1.89981 -3.6107 0
M  V30 1647 H 152.96 -2.87833 -3.00208 0
M  V30 1648 H 151.537 -1.13173 -3.55312 0
M  V30 1649 N 153.722 1.14298 -1.08507 0
M  V30 1650 C 154.999 1.81544 -0.728088 0
M  V30 1651 C 155.379 1.95838 0.78808 0
M  V30 1652 O 154.727 1.51904 1.70697 0
M  V30 1653 C 154.937 3.17169 -1.45619 0
M  V30 1654 C 156.285 3.9265 -1.61591 0
M  V30 1655 O 157.309 3.26762 -1.41793 0
M  V30 1656 O 156.168 5.10807 -1.94263 0
M  V30 1657 H 153.262 0.78491 -0.260471 0
M  V30 1658 H 155.808 1.21307 -1.18671 0
M  V30 1659 H 154.58 3.01934 -2.489 0
M  V30 1660 H 154.203 3.851 -0.989124 0
M  V30 1661 N 155.201 0.870884 1.31352 0
M  V30 1662 C 156.448 0.482273 1.96673 0
M  V30 1663 C 156.776 -0.965638 1.68836 0
M  V30 1664 O 156.031 -1.69514 0.977937 0
M  V30 1665 C 156.33 0.687157 3.50732 0
M  V30 1666 C 155.996 2.108 3.9859 0
M  V30 1667 C 154.658 2.49656 4.1137 0
M  V30 1668 C 157.01 3.03459 4.23748 0
M  V30 1669 C 154.338 3.80412 4.46659 0
M  V30 1670 C 156.69 4.3373 4.60501 0
M  V30 1671 C 155.354 4.725 4.71487 0
M  V30 1672 H 154.624 0.176476 0.719679 0
M  V30 1673 H 157.271 1.10405 1.56471 0
M  V30 1674 H 155.576 -0.0177476 3.91796 0
M  V30 1675 H 157.273 0.366284 3.99324 0
M  V30 1676 H 153.863 1.79633 3.8914 0
M  V30 1677 H 158.047 2.74665 4.13368 0
M  V30 1678 H 153.303 4.1021 4.53362 0
M  V30 1679 H 157.477 5.05578 4.78919 0
M  V30 1680 H 155.104 5.73859 4.98588 0
M  V30 1681 N 156.679 -1.44442 0.630414 0
M  V30 1682 C 157.925 -2.02351 0.134816 0
M  V30 1683 C 158.258 -1.4947 -1.23986 0
M  V30 1684 O 157.533 -0.678475 -1.82283 0
M  V30 1685 C 157.816 -3.59898 0.120707 0
M  V30 1686 C 157.669 -4.23063 1.52767 0
M  V30 1687 C 158.988 -4.36585 -0.555127 0
M  V30 1688 H 156.107 -0.73527 0.0504646 0
M  V30 1689 H 158.749 -1.72022 0.806751 0
M  V30 1690 H 156.899 -3.85868 -0.451477 0
M  V30 1691 H 158.571 -4.08202 2.14869 0
M  V30 1692 H 156.814 -3.80586 2.08175 0
M  V30 1693 H 157.485 -5.32071 1.46984 0
M  V30 1694 H 159.961 -4.16044 -0.0685429 0
M  V30 1695 H 158.837 -5.46294 -0.534185 0
M  V30 1696 H 159.098 -4.11138 -1.62535 0
M  V30 1697 N 158.157 -0.370918 -1.53173 0
M  V30 1698 C 159.397 0.217106 -2.03244 0
M  V30 1699 C 159.761 1.45558 -1.25207 0
M  V30 1700 O 160.962 2.11957 -1.65311 0
M  V30 1701 C 159.233 0.496664 -3.53932 0
M  V30 1702 S 160.792 1.0576 -4.25864 0
M  V30 1703 H 157.61 0.0627827 -0.708223 0
M  V30 1704 H 160.212 -0.515019 -1.88594 0
M  V30 1705 H 158.916 -0.412096 -4.08326 0
M  V30 1706 H 158.447 1.25772 -3.72753 0
M  V30 1707 H 160.462 2.34145 -4.37482 0
M  V30 1708 N 159.635 1.57281 -0.100228 0
M  V30 1709 C 160.567 2.11342 0.886972 0
M  V30 1710 C 161.58 1.05182 1.24261 0
M  V30 1711 O 162.769 1.32613 1.19483 0
M  V30 1712 C 159.869 2.5825 2.19454 0
M  V30 1713 C 159.042 3.88302 2.01346 0
M  V30 1714 C 158.101 4.21004 3.15661 0
M  V30 1715 O 157.127 4.9014 2.89398 0
M  V30 1716 N 158.329 3.76818 4.41575 0
M  V30 1717 H 161.094 2.96668 0.425216 0
M  V30 1718 H 158.655 1.61678 0.0847334 0
M  V30 1719 H 160.647 2.7717 2.94888 0
M  V30 1720 H 159.217 1.77907 2.57037 0
M  V30 1721 H 158.437 3.7848 1.10212 0
M  V30 1722 H 159.725 4.73375 1.8653 0
M  V30 1723 H 159.123 3.2102 4.65792 0
M  V30 1724 H 157.68 4.00882 5.13942 0
M  V30 1725 N 161.113 -0.173488 1.56642 0
M  V30 1726 C 162.353 -0.896984 1.83667 0
M  V30 1727 C 162.717 -1.79523 0.680842 0
M  V30 1728 O 163.918 -2.55616 0.831488 0
M  V30 1729 C 162.189 -1.67351 3.15798 0
M  V30 1730 S 163.748 -2.44607 3.64298 0
M  V30 1731 H 160.566 -0.300464 0.644393 0
M  V30 1732 H 163.168 -0.158775 1.94854 0
M  V30 1733 H 161.872 -1.00462 3.97914 0
M  V30 1734 H 161.403 -2.45313 3.07546 0
M  V30 1735 H 163.418 -3.69261 3.31452 0
M  V30 1736 N 162.591 -1.51276 -0.441967 0
M  V30 1737 C 164.002 -1.56244 -1.02199 0
M  V30 1738 C 164.353 -0.383149 -1.92422 0
M  V30 1739 O 163.478 0.500613 -2.1053 0
M  V30 1740 C 164.073 -2.83162 -1.86024 0
M  V30 1741 C 162.632 -2.90716 -2.39084 0
M  V30 1742 C 161.779 -2.50858 -1.18175 0
M  V30 1743 H 164.73 -1.5712 -0.223416 0
M  V30 1744 H 164.751 -2.66663 -2.71425 0
M  V30 1745 H 164.263 -3.68974 -1.20331 0
M  V30 1746 H 162.364 -2.09323 -3.08244 0
M  V30 1747 H 162.477 -3.94266 -2.72198 0
M  V30 1748 H 160.841 -2.03951 -1.52565 0
M  V30 1749 H 161.624 -3.3901 -0.541001 0
M  V30 1750 N 164.069 0.697108 -1.41344 0
M  V30 1751 C 164.979 1.84088 -1.45427 0
M  V30 1752 C 165.995 1.70545 -0.34501 0
M  V30 1753 O 167.171 1.92488 -0.592492 0
M  V30 1754 C 164.236 3.20056 -1.33286 0
M  V30 1755 C 163.297 3.45718 -2.54514 0
M  V30 1756 C 162.53 4.75199 -2.42944 0
M  V30 1757 O 162.753 5.51579 -1.45318 0
M  V30 1758 O 161.687 5.0161 -3.32672 0
M  V30 1759 H 165.513 1.836 -2.41919 0
M  V30 1760 H 163.098 0.849966 -1.22866 0
M  V30 1761 H 164.98 4.01236 -1.28794 0
M  V30 1762 H 163.655 3.2123 -0.39909 0
M  V30 1763 H 162.562 2.64474 -2.64583 0
M  V30 1764 H 163.895 3.49356 -3.46715 0
M  V30 1765 N 165.547 1.27147 0.931209 0
M  V30 1766 C 166.795 1.13055 1.6752 0
M  V30 1767 C 167.116 -0.324791 1.92276 0
M  V30 1768 O 166.386 -1.22775 1.52654 0
M  V30 1769 H 164.966 0.415391 0.620854 0
M  V30 1770 H 167.628 1.59623 1.11833 0
M  V30 1771 H 166.724 1.65694 2.64485 0
M  V30 1772 N 167.025 -1.13721 1.09112 0
M  V30 1773 C 168.272 -1.84924 0.825192 0
M  V30 1774 C 168.6 -1.83347 -0.649151 0
M  V30 1775 O 167.855 -1.26449 -1.49362 0
M  V30 1776 C 168.154 -3.32861 1.30146 0
M  V30 1777 C 167.82 -3.54621 2.78486 0
M  V30 1778 C 166.482 -3.60268 3.18999 0
M  V30 1779 C 168.834 -3.62855 3.74146 0
M  V30 1780 C 166.162 -3.71679 4.53951 0
M  V30 1781 C 168.514 -3.75793 5.08883 0
M  V30 1782 C 167.178 -3.79692 5.4899 0
M  V30 1783 H 166.448 -0.676684 0.301959 0
M  V30 1784 H 169.095 -1.3428 1.36533 0
M  V30 1785 H 167.4 -3.85835 0.681064 0
M  V30 1786 H 169.097 -3.86395 1.07236 0
M  V30 1787 H 165.687 -3.50879 2.46134 0
M  V30 1788 H 169.871 -3.57775 3.43963 0
M  V30 1789 H 165.127 -3.72963 4.84467 0
M  V30 1790 H 169.301 -3.81107 5.82864 0
M  V30 1791 H 166.928 -3.88287 6.53558 0
M  V30 1792 N 168.503 -0.877838 -1.30888 0
M  V30 1793 C 169.466 -0.344265 -2.266 0
M  V30 1794 C 170.466 0.50922 -1.52524 0
M  V30 1795 O 171.656 0.317398 -1.71284 0
M  V30 1796 C 168.788 0.510198 -3.37061 0
M  V30 1797 H 169.981 -1.1893 -2.7531 0
M  V30 1798 H 167.534 -0.654088 -1.41956 0
M  V30 1799 H 168.269 1.37612 -2.93655 0
M  V30 1800 H 168.054 -0.101047 -3.9197 0
M  V30 1801 H 169.544 0.875537 -4.08319 0
M  V30 1802 N 169.982 1.44106 -0.638065 0
M  V30 1803 C 171.23 2.01579 -0.145043 0
M  V30 1804 C 171.551 1.50496 1.24 0
M  V30 1805 O 170.821 0.711374 1.82527 0
M  V30 1806 H 169.401 0.745282 -0.05063 0
M  V30 1807 H 172.063 1.76516 -0.826327 0
M  V30 1808 H 171.159 3.11877 -0.118039 0
M  V30 1809 N 171.46 0.379036 1.52974 0
M  V30 1810 C 172.407 -0.461048 2.26148 0
M  V30 1811 C 173.377 -1.06637 1.27349 0
M  V30 1812 O 174.562 -1.09633 1.56157 0
M  V30 1813 C 171.702 -1.58782 3.06402 0
M  V30 1814 C 170.815 -1.00636 4.20115 0
M  V30 1815 C 169.95 -2.10334 4.87784 0
M  V30 1816 C 168.989 -1.49724 5.93506 0
M  V30 1817 N 168.126 -2.5331 6.54812 0
M  V30 1818 H 172.966 0.169429 2.97518 0
M  V30 1819 H 170.503 0.0953806 1.4679 0
M  V30 1820 H 172.461 -2.25174 3.51215 0
M  V30 1821 H 171.091 -2.18876 2.37261 0
M  V30 1822 H 170.143 -0.232332 3.7969 0
M  V30 1823 H 171.455 -0.523343 4.96047 0
M  V30 1824 H 170.609 -2.84519 5.35849 0
M  V30 1825 H 169.348 -2.61992 4.11353 0
M  V30 1826 H 168.353 -0.740598 5.44789 0
M  V30 1827 H 169.578 -0.988732 6.71864 0
M  V30 1828 H 167.524 -3.04156 5.81227 0
M  V30 1829 H 167.441 -2.09734 7.26325 0
M  V30 1830 H 168.709 -3.27155 7.07524 0
M  V30 1831 N 172.938 -1.57226 0.108567 0
M  V30 1832 C 174.178 -1.96717 -0.555155 0
M  V30 1833 C 174.542 -0.990003 -1.64508 0
M  V30 1834 O 175.743 -1.2739 -2.36696 0
M  V30 1835 C 174.014 -3.40575 -1.08367 0
M  V30 1836 S 175.573 -4.02072 -1.75737 0
M  V30 1837 H 172.391 -0.687638 -0.180762 0
M  V30 1838 H 174.993 -1.94563 0.191172 0
M  V30 1839 H 173.697 -4.0945 -0.279092 0
M  V30 1840 H 173.228 -3.46356 -1.86551 0
M  V30 1841 H 175.243 -3.91977 -3.04251 0
M  V30 1842 N 174.416 0.165178 -1.56732 0
M  V30 1843 C 175.656 0.887231 -1.8414 0
M  V30 1844 C 176.02 1.79159 -0.690353 0
M  V30 1845 O 177.221 2.55172 -0.845032 0
M  V30 1846 C 175.492 1.65674 -3.16681 0
M  V30 1847 S 177.051 2.42671 -3.6559 0
M  V30 1848 H 173.869 0.297042 -0.645978 0
M  V30 1849 H 176.471 0.148439 -1.94936 0
M  V30 1850 H 175.175 0.983507 -3.98441 0
M  V30 1851 H 174.706 2.43679 -3.08843 0
M  V30 1852 H 176.721 3.67499 -3.33406 0
M  V30 1853 N 175.894 1.51508 0.433938 0
M  V30 1854 C 176.804 1.75917 1.5521 0
M  V30 1855 C 177.82 0.643545 1.61662 0
M  V30 1856 O 178.996 0.926183 1.7884 0
M  V30 1857 C 176.061 1.88213 2.91164 0
M  V30 1858 C 175.122 3.12074 2.94802 0
M  V30 1859 C 174.355 3.23774 4.24271 0
M  V30 1860 O 174.578 2.4133 5.16833 0
M  V30 1861 O 173.512 4.16774 4.34262 0
M  V30 1862 H 177.338 2.70777 1.37527 0
M  V30 1863 H 174.923 1.36051 0.617293 0
M  V30 1864 H 176.805 1.98267 3.71845 0
M  V30 1865 H 175.48 0.965413 3.08968 0
M  V30 1866 H 174.387 3.07497 2.13065 0
M  V30 1867 H 175.72 4.03446 2.81943 0
M  V30 1868 N 177.372 -0.689602 1.41712 0
M  V30 1869 C 178.621 -1.44534 1.40686 0
M  V30 1870 C 178.934 -1.95588 0.0213352 0
M  V30 1871 O 180.14 -2.71271 -0.111534 0
M  V30 1872 C 178.596 -2.61387 2.47396 0
M  V30 1873 C 178.204 -2.17094 3.91885 0
M  V30 1874 C 179.948 -3.38986 2.55517 0
M  V30 1875 C 177.855 -3.3094 4.90135 0
M  V30 1876 H 176.785 -0.542925 0.52321 0
M  V30 1877 H 179.436 -0.748054 1.6756 0
M  V30 1878 H 177.818 -3.33412 2.13664 0
M  V30 1879 H 178.992 -1.52318 4.34897 0
M  V30 1880 H 177.307 -1.52473 3.8748 0
M  V30 1881 H 179.904 -4.23747 3.26102 0
M  V30 1882 H 180.247 -3.84578 1.59391 0
M  V30 1883 H 180.78 -2.74021 2.8837 0
M  V30 1884 H 177.519 -2.90355 5.87685 0
M  V30 1885 H 177.039 -3.94546 4.51767 0
M  V30 1886 H 178.718 -3.9663 5.11169 0
M  V30 1887 N 178.85 -1.27639 -0.924453 0
M  V30 1888 C 180.127 -1.04887 -1.651 0
M  V30 1889 C 180.507 0.415327 -2.06974 0
M  V30 1890 O 179.855 1.39923 -1.80648 0
M  V30 1891 C 180.065 -2.01348 -2.85061 0
M  V30 1892 C 181.413 -2.30899 -3.56329 0
M  V30 1893 O 182.437 -1.99348 -2.95193 0
M  V30 1894 O 181.296 -2.84699 -4.66485 0
M  V30 1895 H 178.39 -0.400083 -0.723784 0
M  V30 1896 H 180.936 -1.38916 -0.974703 0
M  V30 1897 H 179.708 -3.0008 -2.51133 0
M  V30 1898 H 179.331 -1.679 -3.6041 0
M  V30 1899 N 180.328 1.1314 -1.09713 0
M  V30 1900 C 181.556 1.88321 -0.856898 0
M  V30 1901 C 181.971 1.79276 0.592073 0
M  V30 1902 O 181.328 1.16142 1.40774 0
M  V30 1903 C 181.379 3.37812 -1.28706 0
M  V30 1904 O 181.1 3.46627 -2.67921 0
M  V30 1905 C 182.601 4.29952 -1.07964 0
M  V30 1906 H 179.821 0.596094 -0.308079 0
M  V30 1907 H 182.365 1.43205 -1.45988 0
M  V30 1908 H 180.52 3.805 -0.727912 0
M  V30 1909 H 180.934 4.39579 -2.8613 0
M  V30 1910 H 182.408 5.33159 -1.42986 0
M  V30 1911 H 182.885 4.39196 -0.0176577 0
M  V30 1912 H 183.491 3.93036 -1.62489 0
M  V30 1913 N 181.806 0.884767 1.30421 0
M  V30 1914 C 183.222 0.57874 1.48737 0
M  V30 1915 C 183.422 -0.883567 1.81095 0
M  V30 1916 O 182.478 -1.6648 1.89844 0
M  V30 1917 C 183.791 1.49171 2.61091 0
M  V30 1918 C 185.339 1.49532 2.74971 0
M  V30 1919 C 185.814 2.39421 3.90438 0
M  V30 1920 N 187.305 2.37383 3.97748 0
M  V30 1921 C 188.04 3.03647 4.86401 0
M  V30 1922 N 187.536 3.79136 5.79852 0
M  V30 1923 N 189.329 2.9288 4.79768 0
M  V30 1924 H 181.48 1.83075 1.0769 0
M  V30 1925 H 183.743 0.783637 0.533495 0
M  V30 1926 H 183.449 2.53291 2.44001 0
M  V30 1927 H 183.323 1.20113 3.57565 0
M  V30 1928 H 185.71 0.46163 2.91467 0
M  V30 1929 H 185.791 1.8262 1.79119 0
M  V30 1930 H 185.435 3.42874 3.74699 0
M  V30 1931 H 185.365 2.03649 4.85628 0
M  V30 1932 H 187.856 1.82525 3.30897 0
M  V30 1933 H 188.169 4.26789 6.4426 0
M  V30 1934 H 186.514 3.83243 5.79784 0
M  V30 1935 H 189.705 2.33433 4.05742 0
M  V30 1936 H 189.878 3.448 5.4865 0
M  V30 1937 N 183.284 -1.43765 0.645699 0
M  V30 1938 C 184.247 -2.29163 -0.0409488 0
M  V30 1939 C 185.247 -1.41813 -0.757996 0
M  V30 1940 O 186.437 -1.63527 -0.600382 0
M  V30 1941 C 183.569 -3.23716 -1.06869 0
M  V30 1942 H 184.762 -2.91366 0.710345 0
M  V30 1943 H 182.315 -1.5092 0.406547 0
M  V30 1944 H 183.05 -2.66393 -1.84947 0
M  V30 1945 H 182.835 -3.88105 -0.558277 0
M  V30 1946 H 184.325 -3.87831 -1.54845 0
M  V30 1947 N 184.763 -0.387143 -1.52771 0
M  V30 1948 C 185.991 0.195869 -2.05971 0
M  V30 1949 C 186.406 1.40691 -1.25903 0
M  V30 1950 O 185.763 1.79931 -0.305134 0
M  V30 1951 C 185.814 0.56812 -3.57008 0
M  V30 1952 O 185.535 -0.594803 -4.34043 0
M  V30 1953 C 187.036 1.20723 -4.26545 0
M  V30 1954 H 184.256 0.0300578 -0.670326 0
M  V30 1955 H 186.8 -0.551749 -1.96916 0
M  V30 1956 H 184.955 1.26564 -3.66143 0
M  V30 1957 H 185.369 -0.289322 -5.23701 0
M  V30 1958 H 186.843 1.41807 -5.33474 0
M  V30 1959 H 187.32 2.17395 -3.81623 0
M  V30 1960 H 187.926 0.550535 -4.21722 0
M  V30 1961 N 186.241 1.57166 -0.116904 0
M  V30 1962 C 187.481 1.97008 0.544715 0
M  V30 1963 C 187.845 0.998713 1.63981 0
M  V30 1964 O 189.046 1.28644 2.36018 0
M  V30 1965 C 187.317 3.41145 1.06559 0
M  V30 1966 S 188.876 4.02998 1.73603 0
M  V30 1967 H 185.694 0.688587 0.177112 0
M  V30 1968 H 188.296 1.94459 -0.201487 0
M  V30 1969 H 187 4.09592 0.257374 0
M  V30 1970 H 186.531 3.4734 1.84712 0
M  V30 1971 H 188.546 3.93585 3.02168 0
M  V30 1972 N 187.719 -0.156864 1.56817 0
M  V30 1973 C 188.949 -0.885031 1.86684 0
M  V30 1974 C 189.357 -1.75696 0.701954 0
M  V30 1975 O 188.7 -1.80569 -0.337732 0
M  V30 1976 C 188.762 -1.80092 3.11138 0
M  V30 1977 C 188.426 -1.10714 4.43386 0
M  V30 1978 C 189.423 -0.465714 5.1781 0
M  V30 1979 C 187.108 -1.09959 4.90117 0
M  V30 1980 C 189.102 0.174002 6.37162 0
M  V30 1981 C 186.789 -0.456055 6.09396 0
M  V30 1982 C 187.787 0.179622 6.82764 0
M  V30 1983 O 187.475 0.812975 7.99779 0
M  V30 1984 H 187.207 -0.261813 0.623242 0
M  V30 1985 H 189.761 -0.157383 2.04796 0
M  V30 1986 H 187.991 -2.56926 2.89009 0
M  V30 1987 H 189.68 -2.40018 3.27332 0
M  V30 1988 H 190.446 -0.463427 4.82781 0
M  V30 1989 H 186.325 -1.58378 4.3294 0
M  V30 1990 H 189.869 0.670765 6.94368 0
M  V30 1991 H 185.766 -0.455975 6.43888 0
M  V30 1992 H 186.534 0.71366 8.15383 0
M  V30 1993 N 189.197 -1.51736 -0.425897 0
M  V30 1994 C 190.107 -1.76738 -1.54275 0
M  V30 1995 C 191.123 -0.65211 -1.61318 0
M  V30 1996 O 192.299 -0.935654 -1.78346 0
M  V30 1997 C 189.364 -1.89755 -2.90162 0
M  V30 1998 C 188.425 -3.13633 -2.93143 0
M  V30 1999 C 187.658 -3.2602 -4.22548 0
M  V30 2000 O 187.881 -2.44067 -5.15546 0
M  V30 2001 O 186.815 -4.19071 -4.32046 0
M  V30 2002 H 190.641 -2.71502 -1.36089 0
M  V30 2003 H 188.226 -1.36376 -0.610069 0
M  V30 2004 H 190.108 -2.00236 -3.70788 0
M  V30 2005 H 188.783 -0.981785 -3.08452 0
M  V30 2006 H 187.69 -3.08622 -2.11431 0
M  V30 2007 H 189.023 -4.04936 -2.798 0
M  V30 2008 N 190.675 0.682077 -1.42076 0
M  V30 2009 C 191.952 1.43755 -1.32642 0
M  V30 2010 C 192.332 2.11063 0.0396611 0
M  V30 2011 O 191.68 2.02701 1.05474 0
M  V30 2012 C 191.89 2.44596 -2.48946 0
M  V30 2013 C 193.238 3.09454 -2.9073 0
M  V30 2014 O 194.262 2.54922 -2.48783 0
M  V30 2015 O 193.121 4.08253 -3.63307 0
M  V30 2016 H 190.215 0.640857 -0.522715 0
M  V30 2017 H 192.761 0.711415 -1.54068 0
M  V30 2018 H 191.533 1.93609 -3.40046 0
M  V30 2019 H 191.156 3.24701 -2.29467 0
M  V30 2020 N 192.153 1.28127 0.917671 0
M  V30 2021 C 193.085 1.07517 2.02417 0
M  V30 2022 C 194.098 0.0281099 1.62776 0
M  V30 2023 O 195.287 0.270748 1.76435 0
M  V30 2024 C 192.387 0.610957 3.33347 0
M  V30 2025 C 191.56 1.73255 4.01624 0
M  V30 2026 C 190.619 1.26238 5.10833 0
M  V30 2027 O 189.645 1.96389 5.34247 0
M  V30 2028 N 190.847 0.123448 5.80369 0
M  V30 2029 H 193.612 2.02806 2.20658 0
M  V30 2030 H 191.173 1.19827 1.08871 0
M  V30 2031 H 193.165 0.280101 4.0373 0
M  V30 2032 H 191.735 -0.24898 3.11607 0
M  V30 2033 H 190.955 2.23319 3.24842 0
M  V30 2034 H 192.243 2.48503 4.43986 0
M  V30 2035 H 191.641 -0.461847 5.63812 0
M  V30 2036 H 190.198 -0.148158 6.51632 0
M  V30 2037 N 193.631 -1.12557 1.10312 0
M  V30 2038 C 194.879 -1.83675 0.843091 0
M  V30 2039 C 195.2 -1.84435 -0.633131 0
M  V30 2040 O 194.47 -1.30657 -1.45964 0
M  V30 2041 H 193.05 -0.680138 0.308904 0
M  V30 2042 H 195.712 -1.36301 1.39313 0
M  V30 2043 H 194.808 -2.87908 1.2048 0
M  V30 2044 N 195.109 -0.891671 -1.2995 0
M  V30 2045 C 196.358 -0.509521 -1.95158 0
M  V30 2046 C 196.671 0.947388 -1.71125 0
M  V30 2047 O 197.877 1.43669 -2.30372 0
M  V30 2048 C 196.333 -0.860315 -3.49466 0
M  V30 2049 C 195.941 -2.33545 -3.8231 0
M  V30 2050 C 197.685 -0.547687 -4.20952 0
M  V30 2051 C 195.592 -2.62752 -5.29826 0
M  V30 2052 H 194.522 -0.18682 -0.730489 0
M  V30 2053 H 197.173 -1.08756 -1.47798 0
M  V30 2054 H 195.555 -0.211285 -3.95436 0
M  V30 2055 H 196.729 -3.02936 -3.47227 0
M  V30 2056 H 195.044 -2.61629 -3.23944 0
M  V30 2057 H 197.641 -0.742854 -5.29515 0
M  V30 2058 H 197.984 0.51332 -4.13123 0
M  V30 2059 H 198.517 -1.1542 -3.80688 0
M  V30 2060 H 195.256 -3.6762 -5.42712 0
M  V30 2061 H 194.776 -1.97977 -5.66185 0
M  V30 2062 H 196.455 -2.48601 -5.97333 0
M  V30 2063 N 196.587 1.43421 -0.653314 0
M  V30 2064 C 197.812 2.06678 -0.172846 0
M  V30 2065 C 198.237 1.48648 1.15262 0
M  V30 2066 O 197.595 0.596457 1.71208 0
M  V30 2067 C 197.643 3.60474 -0.0953184 0
M  V30 2068 O 196.747 4.01487 0.942442 0
M  V30 2069 H 196.088 0.657181 -0.0949155 0
M  V30 2070 H 198.618 1.83925 -0.896265 0
M  V30 2071 H 198.628 4.07905 0.0879728 0
M  V30 2072 H 197.303 4.02088 -1.06291 0
M  V30 2073 H 195.88 3.65646 0.731932 0
M  V30 2074 N 198.065 0.39524 1.52563 0
M  V30 2075 C 199.295 -0.184675 2.05773 0
M  V30 2076 C 199.703 -1.40571 1.26635 0
M  V30 2077 O 199.046 -1.81105 0.30769 0
M  V30 2078 C 199.108 -0.613551 3.54226 0
M  V30 2079 C 198.772 0.49484 4.54313 0
M  V30 2080 C 199.769 1.3541 5.01956 0
M  V30 2081 C 197.454 0.663565 4.97898 0
M  V30 2082 C 199.448 2.36716 5.91814 0
M  V30 2083 C 197.135 1.67996 5.87555 0
M  V30 2084 C 198.133 2.53017 6.34406 0
M  V30 2085 O 197.821 3.52917 7.22291 0
M  V30 2086 H 197.553 -0.030077 0.675331 0
M  V30 2087 H 200.107 0.560708 1.97599 0
M  V30 2088 H 198.337 -1.411 3.60038 0
M  V30 2089 H 200.026 -1.11981 3.90148 0
M  V30 2090 H 200.792 1.23509 4.6901 0
M  V30 2091 H 196.671 0.0114913 4.60999 0
M  V30 2092 H 200.215 3.03113 6.28306 0
M  V30 2093 H 196.112 1.79933 6.19915 0
M  V30 2094 H 196.88 3.48996 7.40367 0
M  V30 2095 N 199.544 -1.57102 0.125237 0
M  V30 2096 C 200.96 -1.57915 -0.231322 0
M  V30 2097 C 201.16 -1.13833 -1.66266 0
M  V30 2098 O 200.216 -0.828581 -2.38518 0
M  V30 2099 C 201.529 -3.00699 0.00766489 0
M  V30 2100 C 203.077 -3.12947 -0.0577483 0
M  V30 2101 C 203.552 -4.57742 0.153626 0
M  V30 2102 N 205.043 -4.63092 0.0998073 0
M  V30 2103 C 205.778 -5.72905 0.238174 0
M  V30 2104 N 205.274 -6.91445 0.433057 0
M  V30 2105 N 207.067 -5.6182 0.177308 0
M  V30 2106 H 199.218 -1.84055 1.06007 0
M  V30 2107 H 201.481 -0.850905 0.417929 0
M  V30 2108 H 201.187 -3.3726 0.997431 0
M  V30 2109 H 201.061 -3.70236 -0.721452 0
M  V30 2110 H 203.448 -2.7624 -1.03804 0
M  V30 2111 H 203.529 -2.4594 0.70335 0
M  V30 2112 H 203.173 -4.95149 1.13092 0
M  V30 2113 H 203.103 -5.22848 -0.627534 0
M  V30 2114 H 205.594 -3.77871 -0.047051 0
M  V30 2115 H 205.907 -7.70985 0.529332 0
M  V30 2116 H 204.252 -6.93415 0.469109 0
M  V30 2117 H 207.443 -4.68093 0.0259748 0
M  V30 2118 H 207.616 -6.47357 0.288582 0
M  V30 2119 N 201.022 0.148545 -1.56898 0
M  V30 2120 C 202.27 0.859717 -1.82902 0
M  V30 2121 C 202.591 1.81775 -0.70588 0
M  V30 2122 O 201.861 1.93994 0.272586 0
M  V30 2123 H 200.441 0.320469 -0.674766 0
M  V30 2124 H 203.103 0.142918 -1.94375 0
M  V30 2125 H 202.199 1.4229 -2.77777 0
M  V30 2126 N 202.5 1.5196 0.417844 0
M  V30 2127 C 203.728 1.69426 1.18753 0
M  V30 2128 C 204.143 0.399955 1.84515 0
M  V30 2129 O 203.5 -0.623288 1.71527 0
M  V30 2130 C 203.551 2.82375 2.25714 0
M  V30 2131 O 203.272 4.06793 1.62638 0
M  V30 2132 C 204.773 3.11277 3.15628 0
M  V30 2133 H 201.993 0.568031 0.357186 0
M  V30 2134 H 204.537 1.98475 0.49273 0
M  V30 2135 H 202.692 2.5587 2.90877 0
M  V30 2136 H 203.106 4.69667 2.3348 0
M  V30 2137 H 204.58 3.93843 3.86771 0
M  V30 2138 H 205.057 2.24473 3.77503 0
M  V30 2139 H 205.663 3.39515 2.56144 0
M  V30 2140 N 203.978 -0.674533 1.42435 0
M  V30 2141 C 205.224 -1.43521 1.4413 0
M  V30 2142 C 205.579 -1.92316 0.0567773 0
M  V30 2143 O 204.872 -1.68008 -0.921076 0
M  V30 2144 C 205.066 -2.64767 2.40069 0
M  V30 2145 C 204.895 -2.27836 3.87713 0
M  V30 2146 C 203.665 -2.17183 4.56245 0
M  V30 2147 C 205.863 -1.89466 4.78129 0
M  V30 2148 N 203.845 -1.73358 5.88915 0
M  V30 2149 C 205.216 -1.56561 5.99907 0
M  V30 2150 C 207.271 -1.7646 4.65582 0
M  V30 2151 C 205.974 -1.11957 7.10534 0
M  V30 2152 C 208 -1.3326 5.76191 0
M  V30 2153 C 207.362 -1.0128 6.97081 0
M  V30 2154 H 203.461 -0.521656 0.582579 0
M  V30 2155 H 206.045 -0.778381 1.78464 0
M  V30 2156 H 204.216 -3.28139 2.07796 0
M  V30 2157 H 205.948 -3.3136 2.32342 0
M  V30 2158 H 202.703 -2.3626 4.10461 0
M  V30 2159 H 203.127 -1.53867 6.59283 0
M  V30 2160 H 207.769 -1.99831 3.72595 0
M  V30 2161 H 205.487 -0.873318 8.03367 0
M  V30 2162 H 209.073 -1.23717 5.68494 0
M  V30 2163 H 207.953 -0.683597 7.81215 0
M  V30 2164 N 205.456 -1.28612 -0.910864 0
M  V30 2165 C 206.681 -1.1891 -1.69927 0
M  V30 2166 C 207.106 0.248372 -1.86453 0
M  V30 2167 O 206.464 1.17961 -1.37676 0
M  V30 2168 C 206.512 -1.89578 -3.06745 0
M  V30 2169 O 205.616 -1.20521 -3.94396 0
M  V30 2170 H 204.957 -0.412632 -0.520222 0
M  V30 2171 H 207.487 -1.69985 -1.1387 0
M  V30 2172 H 207.497 -1.97597 -3.56958 0
M  V30 2173 H 206.172 -2.94136 -2.94035 0
M  V30 2174 H 204.749 -1.20684 -3.52831 0
M  V30 2175 N 206.934 1.1197 -1.10907 0
M  V30 2176 C 208.162 1.87402 -0.876824 0
M  V30 2177 C 208.577 1.79894 0.573025 0
M  V30 2178 O 207.934 1.17629 1.39534 0
M  V30 2179 C 207.985 3.36428 -1.32282 0
M  V30 2180 O 207.706 3.43765 -2.71582 0
M  V30 2181 C 209.207 4.28783 -1.12518 0
M  V30 2182 H 206.427 0.592793 -0.314384 0
M  V30 2183 H 208.971 1.41649 -1.47499 0
M  V30 2184 H 207.126 3.79706 -0.768229 0
M  V30 2185 H 207.54 4.3652 -2.90776 0
M  V30 2186 H 209.014 5.31613 -1.48633 0
M  V30 2187 H 209.491 4.39153 -0.0642394 0
M  V30 2188 H 210.097 3.91291 -1.66648 0
M  V30 2189 N 208.412 0.89855 1.29475 0
M  V30 2190 C 209.375 0.380272 2.26023 0
M  V30 2191 C 210.375 -0.484891 1.53315 0
M  V30 2192 O 211.565 -0.290108 1.71767 0
M  V30 2193 C 208.697 -0.45651 3.3783 0
M  V30 2194 H 209.89 1.23295 2.73383 0
M  V30 2195 H 207.443 0.676589 1.40897 0
M  V30 2196 H 208.178 -1.32922 2.95808 0
M  V30 2197 H 207.963 0.163393 3.91759 0
M  V30 2198 H 209.453 -0.810466 4.0966 0
M  V30 2199 N 209.89 -1.43072 0.660911 0
M  V30 2200 C 210.8 -2.34585 -0.0264163 0
M  V30 2201 C 211.816 -1.54316 -0.803898 0
M  V30 2202 O 212.992 -1.86939 -0.749391 0
M  V30 2203 C 210.057 -3.32689 -0.975639 0
M  V30 2204 C 209.118 -4.2886 -0.194236 0
M  V30 2205 C 208.351 -5.22278 -1.09825 0
M  V30 2206 O 208.574 -5.20299 -2.33763 0
M  V30 2207 O 207.508 -5.99228 -0.566513 0
M  V30 2208 H 211.334 -2.94869 0.727034 0
M  V30 2209 H 208.919 -1.43342 0.42111 0
M  V30 2210 H 210.801 -3.92995 -1.52094 0
M  V30 2211 H 209.476 -2.74898 -1.70918 0
M  V30 2212 H 208.383 -3.72011 0.394835 0
M  V30 2213 H 209.716 -4.89655 0.499899 0
M  V30 2214 N 211.368 -0.403325 -1.52352 0
M  V30 2215 C 212.593 0.176499 -2.06648 0
M  V30 2216 C 213.018 1.38577 -1.27193 0
M  V30 2217 O 212.376 1.7879 -0.300637 0
M  V30 2218 C 212.424 0.511061 -3.5696 0
M  V30 2219 O 211.528 1.60294 -3.79973 0
M  V30 2220 H 210.869 0.0167337 -0.663789 0
M  V30 2221 H 213.399 -0.574848 -1.96359 0
M  V30 2222 H 213.409 0.771362 -4.00642 0
M  V30 2223 H 212.084 -0.37296 -4.14224 0
M  V30 2224 H 210.661 1.33526 -3.48174 0
M  V30 2225 N 212.846 1.57033 -0.133567 0
M  V30 2226 C 214.094 1.953 0.519848 0
M  V30 2227 C 214.415 1.01866 1.66278 0
M  V30 2228 O 213.685 0.0776513 1.95746 0
M  V30 2229 H 212.265 0.721091 0.195032 0
M  V30 2230 H 214.927 1.93809 -0.205921 0
M  V30 2231 H 214.023 2.98695 0.904854 0
M  V30 2232 N 214.325 -0.140222 1.56975 0
M  V30 2233 C 215.288 -1.15689 1.97861 0
M  V30 2234 C 216.288 -1.3549 0.865974 0
M  V30 2235 O 217.478 -1.32367 1.13246 0
M  V30 2236 C 214.61 -2.51582 2.30042 0
M  V30 2237 H 215.803 -0.805971 2.88867 0
M  V30 2238 H 213.356 -0.383801 1.51515 0
M  V30 2239 H 214.091 -2.91632 1.41849 0
M  V30 2240 H 213.876 -2.38569 3.11171 0
M  V30 2241 H 215.366 -3.24792 2.62488 0
M  V30 2242 N 215.803 -1.52179 -0.40978 0
M  V30 2243 C 216.713 -1.78364 -1.52392 0
M  V30 2244 C 217.729 -0.669183 -1.60617 0
M  V30 2245 O 218.905 -0.954518 -1.77344 0
M  V30 2246 C 215.97 -1.92822 -2.88133 0
M  V30 2247 C 215.031 -3.16725 -2.898 0
M  V30 2248 C 214.264 -3.30483 -4.19067 0
M  V30 2249 O 214.487 -2.49522 -5.12928 0
M  V30 2250 O 213.421 -4.2363 -4.27576 0
M  V30 2251 H 217.247 -2.72931 -1.33201 0
M  V30 2252 H 214.832 -1.37016 -0.59557 0
M  V30 2253 H 216.714 -2.04157 -3.68643 0
M  V30 2254 H 215.389 -1.01444 -3.07393 0
M  V30 2255 H 214.296 -3.10848 -2.08146 0
M  V30 2256 H 215.629 -4.07881 -2.75489 0
M  V30 2257 N 217.281 0.66697 -1.42791 0
M  V30 2258 C 218.521 1.43892 -1.4517 0
M  V30 2259 C 218.885 1.91877 -0.0687551 0
M  V30 2260 O 220.086 2.6878 0.0327455 0
M  V30 2261 C 218.357 2.59839 -2.45395 0
M  V30 2262 S 219.916 3.48572 -2.66539 0
M  V30 2263 H 216.734 0.491356 -0.513897 0
M  V30 2264 H 219.336 0.775656 -1.79454 0
M  V30 2265 H 218.04 2.22838 -3.44632 0
M  V30 2266 H 217.571 3.3103 -2.12562 0
M  V30 2267 H 219.586 4.56094 -1.95429 0
M  V30 2268 N 218.759 1.29093 0.90403 0
M  V30 2269 C 219.987 1.19689 1.68766 0
M  V30 2270 C 220.402 -0.243113 1.87228 0
M  V30 2271 O 219.759 -1.16326 1.40621 0
M  V30 2272 C 219.81 1.90144 3.07453 0
M  V30 2273 O 219.531 3.2852 2.89838 0
M  V30 2274 C 221.032 1.87162 4.01852 0
M  V30 2275 H 218.252 0.415035 0.527244 0
M  V30 2276 H 220.796 1.7039 1.13082 0
M  V30 2277 H 218.951 1.43289 3.59926 0
M  V30 2278 H 219.365 3.63944 3.77684 0
M  V30 2279 H 220.839 2.41032 4.96596 0
M  V30 2280 H 221.316 0.84617 4.30972 0
M  V30 2281 H 221.922 2.33741 3.5531 0
M  V30 2282 N 220.237 -1.11381 1.11499 0
M  V30 2283 C 221.185 -2.19522 0.768956 0
M  V30 2284 C 222.179 -1.67693 -0.239857 0
M  V30 2285 O 223.385 -1.79727 -0.0990755 0
M  V30 2286 H 219.76 -0.715711 0.230786 0
M  V30 2287 H 221.731 -2.45954 1.68964 0
M  V30 2288 C 220.48 -3.46945 0.229073 0
M  V30 2289 H 219.803 -3.8718 0.996596 0
M  V30 2290 H 221.243 -4.23993 0.0251441 0
M  V30 2291 C 219.702 -3.2042 -1.04079 0
M  V30 2292 O 220.232 -3.41178 -2.12038 0
M  V30 2293 N 218.438 -2.74151 -0.963823 0
M  V30 2294 H 217.985 -2.57459 -0.0851722 0
M  V30 2295 H 217.943 -2.56781 -1.81414 0
M  V30 2296 N 221.715 -0.905404 -1.28997 0
M  V30 2297 C 222.961 -0.544465 -1.95977 0
M  V30 2298 C 223.316 0.90041 -1.70031 0
M  V30 2299 O 222.609 1.63064 -1.00601 0
M  V30 2300 C 222.803 -0.779906 -3.48787 0
M  V30 2301 C 222.632 -2.24612 -3.89589 0
M  V30 2302 C 221.402 -2.89464 -4.14172 0
M  V30 2303 C 223.6 -3.22182 -4.00878 0
M  V30 2304 N 221.582 -4.26469 -4.41585 0
M  V30 2305 C 222.953 -4.44323 -4.32409 0
M  V30 2306 C 225.008 -3.17694 -3.83373 0
M  V30 2307 C 223.711 -5.62546 -4.48258 0
M  V30 2308 C 225.737 -4.35208 -4.00435 0
M  V30 2309 C 225.099 -5.56121 -4.3233 0
M  V30 2310 H 221.198 -0.248948 -0.741316 0
M  V30 2311 H 223.782 -1.1674 -1.5582 0
M  V30 2312 H 221.953 -0.186308 -3.87953 0
M  V30 2313 H 223.685 -0.383833 -4.02876 0
M  V30 2314 H 220.44 -2.40232 -4.08149 0
M  V30 2315 H 220.864 -4.97283 -4.5939 0
M  V30 2316 H 225.506 -2.25297 -3.57773 0
M  V30 2317 H 223.224 -6.55429 -4.72692 0
M  V30 2318 H 226.81 -4.33228 -3.88336 0
M  V30 2319 H 225.69 -6.45537 -4.45255 0
M  V30 2320 N 223.193 1.4272 -0.668489 0
M  V30 2321 C 224.141 2.32586 0.0254857 0
M  V30 2322 C 225.135 1.49471 0.797176 0
M  V30 2323 O 226.341 1.65583 0.705853 0
M  V30 2324 H 222.716 0.751514 0.0270339 0
M  V30 2325 H 224.687 2.88823 -0.749936 0
M  V30 2326 C 223.436 3.3397 0.967427 0
M  V30 2327 H 222.759 3.97961 0.383048 0
M  V30 2328 H 224.199 3.9945 1.42181 0
M  V30 2329 C 222.658 2.65744 2.0708 0
M  V30 2330 O 223.188 2.48454 3.15648 0
M  V30 2331 N 221.394 2.2487 1.8407 0
M  V30 2332 H 220.941 2.39132 0.95778 0
M  V30 2333 H 220.899 1.79552 2.58086 0
M  V30 2334 N 224.671 0.411399 1.52136 0
M  V30 2335 C 225.896 -0.165538 2.06738 0
M  V30 2336 C 226.321 -1.379 1.27926 0
M  V30 2337 O 225.679 -1.78628 0.310114 0
M  V30 2338 C 225.727 -0.492124 3.57226 0
M  V30 2339 O 224.831 -1.58276 3.80818 0
M  V30 2340 H 224.172 -0.0132132 0.663869 0
M  V30 2341 H 226.702 0.585253 1.96051 0
M  V30 2342 H 226.712 -0.750104 4.01045 0
M  V30 2343 H 225.387 0.394922 4.14021 0
M  V30 2344 H 223.964 -1.31677 3.48877 0
M  V30 2345 N 226.149 -1.5696 0.141893 0
M  V30 2346 C 227.374 -2.00754 -0.520838 0
M  V30 2347 C 227.799 -1.0213 -1.57959 0
M  V30 2348 O 227.157 0.00371324 -1.813 0
M  V30 2349 C 227.205 -3.43318 -1.10294 0
M  V30 2350 O 226.309 -3.47679 -2.21795 0
M  V30 2351 H 225.65 -0.651564 -0.127908 0
M  V30 2352 H 228.18 -2.03221 0.23712 0
M  V30 2353 H 228.19 -3.82012 -1.43287 0
M  V30 2354 H 226.865 -4.14608 -0.327574 0
M  V30 2355 H 225.442 -3.20824 -1.9007 0
M  V30 2356 N 227.627 0.131896 -1.57047 0
M  V30 2357 C 228.59 1.14638 -1.98471 0
M  V30 2358 C 229.59 1.35029 -0.873148 0
M  V30 2359 O 230.78 1.31764 -1.13946 0
M  V30 2360 C 227.912 2.50358 -2.31373 0
M  V30 2361 H 229.105 0.79064 -2.8929 0
M  V30 2362 H 226.658 0.375761 -1.51716 0
M  V30 2363 H 227.393 2.90876 -1.43393 0
M  V30 2364 H 227.178 2.36915 -3.12432 0
M  V30 2365 H 228.668 3.23395 -2.64207 0
M  V30 2366 N 229.106 1.52395 0.401703 0
M  V30 2367 C 230.036 1.79231 1.49661 0
M  V30 2368 C 231.017 0.643654 1.57452 0
M  V30 2369 O 232.202 0.889989 1.72606 0
M  V30 2370 C 229.332 1.94971 2.87409 0
M  V30 2371 C 228.286 3.10604 2.94465 0
M  V30 2372 C 227.612 3.11577 4.34538 0
M  V30 2373 C 228.912 4.49921 2.6527 0
M  V30 2374 H 230.606 2.70917 1.27454 0
M  V30 2375 H 228.152 1.30362 0.6117 0
M  V30 2376 H 230.105 2.12328 3.63999 0
M  V30 2377 H 228.829 0.999632 3.10926 0
M  V30 2378 H 227.488 2.93009 2.20321 0
M  V30 2379 H 227.136 2.14277 4.55076 0
M  V30 2380 H 226.836 3.89247 4.40183 0
M  V30 2381 H 228.36 3.31073 5.13053 0
M  V30 2382 H 229.774 4.67683 3.31581 0
M  V30 2383 H 228.171 5.29564 2.82281 0
M  V30 2384 H 229.241 4.57507 1.60671 0
M  V30 2385 N 230.584 -0.659388 1.43143 0
M  V30 2386 C 231.547 -1.75432 1.47501 0
M  V30 2387 C 232.547 -1.56707 0.360512 0
M  V30 2388 O 233.737 -1.62717 0.622002 0
M  V30 2389 C 230.869 -3.14239 1.32162 0
M  V30 2390 H 232.062 -1.7295 2.45006 0
M  V30 2391 H 229.615 -0.870469 1.29817 0
M  V30 2392 H 230.35 -3.22336 0.356401 0
M  V30 2393 H 230.135 -3.29235 2.12948 0
M  V30 2394 H 231.625 -3.94094 1.3813 0
M  V30 2395 N 232.062 -1.29571 -0.897171 0
M  V30 2396 C 232.994 -1.10724 -2.00681 0
M  V30 2397 C 234.007 -0.0540026 -1.6271 0
M  V30 2398 O 235.196 -0.298783 -1.75982 0
M  V30 2399 C 232.296 -0.663912 -3.32333 0
M  V30 2400 C 231.469 -1.79622 -3.98816 0
M  V30 2401 C 230.528 -1.34349 -5.0876 0
M  V30 2402 O 229.554 -2.04864 -5.31055 0
M  V30 2403 N 230.756 -0.215764 -5.80099 0
M  V30 2404 H 233.521 -2.06291 -2.17403 0
M  V30 2405 H 231.082 -1.21544 -1.06951 0
M  V30 2406 H 233.074 -0.344295 -4.03233 0
M  V30 2407 H 231.644 0.199375 -3.11964 0
M  V30 2408 H 230.864 -2.28459 -3.21248 0
M  V30 2409 H 232.152 -2.55535 -4.39976 0
M  V30 2410 H 231.55 0.372091 -5.64475 0
M  V30 2411 H 230.107 0.0444707 -6.51785 0
M  V30 2412 N 233.54 1.10788 -1.12088 0
M  V30 2413 C 234.487 2.17025 -0.785407 0
M  V30 2414 C 235.457 1.64265 0.246191 0
M  V30 2415 O 236.642 1.90412 0.121584 0
M  V30 2416 C 233.782 3.44249 -0.242177 0
M  V30 2417 C 232.895 4.1098 -1.33115 0
M  V30 2418 C 232.03 5.25911 -0.747741 0
M  V30 2419 C 231.069 5.84538 -1.81609 0
M  V30 2420 N 230.206 6.90853 -1.25167 0
M  V30 2421 H 235.046 2.45066 -1.69548 0
M  V30 2422 H 232.583 1.20297 -0.846582 0
M  V30 2423 H 234.541 4.17101 0.0908026 0
M  V30 2424 H 233.171 3.16571 0.631072 0
M  V30 2425 H 232.223 3.36133 -1.78097 0
M  V30 2426 H 233.535 4.50601 -2.13917 0
M  V30 2427 H 232.689 6.056 -0.365216 0
M  V30 2428 H 231.428 4.87614 0.0915188 0
M  V30 2429 H 230.433 5.03522 -2.20785 0
M  V30 2430 H 231.658 6.249 -2.6585 0
M  V30 2431 H 229.604 6.54562 -0.434174 0
M  V30 2432 H 229.521 7.29166 -1.99633 0
M  V30 2433 H 230.789 7.7433 -0.896259 0
M  V30 2434 N 235.018 0.912232 1.28515 0
M  V30 2435 C 236.429 0.591352 1.77087 0
M  V30 2436 C 236.78 -0.8933 1.74684 0
M  V30 2437 O 235.905 -1.69876 1.34056 0
M  V30 2438 C 236.5 1.06668 3.2157 0
M  V30 2439 C 235.059 0.79675 3.67871 0
M  V30 2440 C 234.206 1.23427 2.48316 0
M  V30 2441 H 237.157 1.09365 1.15 0
M  V30 2442 H 237.178 0.407455 3.78312 0
M  V30 2443 H 236.69 2.14726 3.23287 0
M  V30 2444 H 234.791 -0.270679 3.71616 0
M  V30 2445 H 234.904 1.40343 4.58084 0
M  V30 2446 H 233.268 0.653036 2.46186 0
M  V30 2447 H 234.051 2.32316 2.52753 0
M  V30 2448 N 236.496 -1.42363 0.676048 0
M  V30 2449 C 237.726 -2.05561 0.206967 0
M  V30 2450 C 238.134 -1.50887 -1.14148 0
M  V30 2451 O 237.477 -0.643933 -1.72044 0
M  V30 2452 C 237.539 -3.5944 0.0659508 0
M  V30 2453 C 237.203 -4.36812 1.34331 0
M  V30 2454 C 238.2 -4.67383 2.27704 0
M  V30 2455 C 235.885 -4.76429 1.59125 0
M  V30 2456 C 237.879 -5.36509 3.44147 0
M  V30 2457 C 235.566 -5.45294 2.75857 0
M  V30 2458 C 236.564 -5.75259 3.68193 0
M  V30 2459 O 236.252 -6.42712 4.82883 0
M  V30 2460 H 235.984 -0.668872 0.0979084 0
M  V30 2461 H 238.538 -1.83467 0.923531 0
M  V30 2462 H 236.768 -3.80197 -0.706204 0
M  V30 2463 H 238.457 -4.0427 -0.363418 0
M  V30 2464 H 239.223 -4.37275 2.09799 0
M  V30 2465 H 235.102 -4.52498 0.881258 0
M  V30 2466 H 238.646 -5.59814 4.16238 0
M  V30 2467 H 234.543 -5.7482 2.93688 0
M  V30 2468 H 235.311 -6.61204 4.82444 0
M  V30 2469 N 237.974 -0.419461 -1.51915 0
M  V30 2470 C 239.199 0.154572 -2.06823 0
M  V30 2471 C 239.624 1.3722 -1.28656 0
M  V30 2472 O 238.982 1.78461 -0.319583 0
M  V30 2473 C 239.03 0.473172 -3.57482 0
M  V30 2474 O 238.134 1.56255 -3.81652 0
M  V30 2475 H 237.475 0.0096924 -0.663929 0
M  V30 2476 H 240.005 -0.595642 -1.95738 0
M  V30 2477 H 240.015 0.728825 -4.01438 0
M  V30 2478 H 238.69 -0.416873 -4.13805 0
M  V30 2479 H 237.267 1.29825 -3.49571 0
M  V30 2480 N 239.452 1.56882 -0.150215 0
M  V30 2481 C 240.7 1.9584 0.499105 0
M  V30 2482 C 241.021 1.03623 1.65188 0
M  V30 2483 O 240.291 0.0984084 1.95653 0
M  V30 2484 H 238.871 0.723119 0.187373 0
M  V30 2485 H 241.533 1.9358 -0.226466 0
M  V30 2486 H 240.629 2.99638 0.873122 0
M  V30 2487 N 240.93 -0.123565 1.57115 0
M  V30 2488 C 242.346 -0.476961 1.52306 0
M  V30 2489 C 242.546 -1.82109 0.86248 0
M  V30 2490 O 241.602 -2.48586 0.442884 0
M  V30 2491 C 242.915 -0.465661 2.97073 0
M  V30 2492 C 244.463 -0.549534 3.08138 0
M  V30 2493 C 244.938 -0.568669 4.54456 0
M  V30 2494 N 246.429 -0.630237 4.58892 0
M  V30 2495 C 247.164 -0.666415 5.69514 0
M  V30 2496 N 246.66 -0.660514 6.89644 0
M  V30 2497 N 248.453 -0.709077 5.5761 0
M  V30 2498 H 240.604 0.757198 1.98445 0
M  V30 2499 H 242.867 0.278808 0.906074 0
M  V30 2500 H 242.573 0.454232 3.48754 0
M  V30 2501 H 242.447 -1.29513 3.54269 0
M  V30 2502 H 244.834 -1.45985 2.56461 0
M  V30 2503 H 244.915 0.307532 2.53945 0
M  V30 2504 H 244.559 0.337581 5.06777 0
M  V30 2505 H 244.489 -1.44256 5.06456 0
M  V30 2506 H 246.98 -0.641146 3.72421 0
M  V30 2507 H 247.293 -0.690616 7.69708 0
M  V30 2508 H 245.638 -0.628012 6.92157 0
M  V30 2509 H 248.829 -0.711019 4.62668 0
M  V30 2510 H 249.002 -0.733804 6.43832 0
M  V30 2511 N 242.408 -1.52605 -0.393616 0
M  V30 2512 C 243.824 -1.41753 -0.733357 0
M  V30 2513 C 244.024 -0.534293 -1.94287 0
M  V30 2514 O 243.08 -0.0059787 -2.52499 0
M  V30 2515 C 244.393 -2.84531 -0.972772 0
M  V30 2516 C 245.941 -2.93978 -1.07453 0
M  V30 2517 C 246.416 -4.37756 -1.3466 0
M  V30 2518 N 247.907 -4.4106 -1.41492 0
M  V30 2519 C 248.642 -5.49387 -1.642 0
M  V30 2520 N 248.138 -6.67806 -1.8441 0
M  V30 2521 N 249.931 -5.36923 -1.66342 0
M  V30 2522 H 242.082 -2.08555 0.402328 0
M  V30 2523 H 244.345 -0.940654 0.117789 0
M  V30 2524 H 244.051 -3.51353 -0.156204 0
M  V30 2525 H 243.925 -3.26508 -1.88871 0
M  V30 2526 H 246.312 -2.27326 -1.88167 0
M  V30 2527 H 246.393 -2.55435 -0.136605 0
M  V30 2528 H 246.037 -5.04972 -0.544581 0
M  V30 2529 H 245.967 -4.73848 -2.2973 0
M  V30 2530 H 248.458 -3.55705 -1.27601 0
M  V30 2531 H 248.771 -7.46141 -2.01231 0
M  V30 2532 H 247.116 -6.70843 -1.81644 0
M  V30 2533 H 250.307 -4.43381 -1.50102 0
M  V30 2534 H 250.48 -6.21416 -1.837 0
M  V30 2535 N 243.887 0.651787 -1.4349 0
M  V30 2536 C 245.298 1.233 -1.40193 0
M  V30 2537 C 245.649 1.9591 -0.106727 0
M  V30 2538 O 244.774 2.01316 0.793773 0
M  V30 2539 C 245.369 2.24257 -2.53957 0
M  V30 2540 C 243.928 2.77852 -2.5392 0
M  V30 2541 C 243.075 1.52517 -2.3159 0
M  V30 2542 H 246.026 0.443717 -1.52371 0
M  V30 2543 H 246.047 3.0646 -2.25528 0
M  V30 2544 H 245.559 1.71382 -3.4821 0
M  V30 2545 H 243.66 3.34786 -1.63551 0
M  V30 2546 H 243.773 3.25299 -3.51735 0
M  V30 2547 H 242.137 1.79915 -1.80285 0
M  V30 2548 H 242.92 1.01574 -3.27929 0
M  V30 2549 N 245.365 1.30045 0.890287 0
M  V30 2550 C 246.642 1.09227 1.62262 0
M  V30 2551 C 247.022 -0.360305 2.08002 0
M  V30 2552 O 246.37 -1.35084 1.84295 0
M  V30 2553 C 246.58 2.08835 2.79623 0
M  V30 2554 C 247.928 2.40266 3.50082 0
M  V30 2555 O 248.952 2.07104 2.89804 0
M  V30 2556 O 247.811 2.96967 4.58773 0
M  V30 2557 H 244.905 0.419132 0.712922 0
M  V30 2558 H 247.451 1.41451 0.937529 0
M  V30 2559 H 246.223 3.06633 2.43089 0
M  V30 2560 H 245.846 1.77397 3.55832 0
M  V30 2561 N 246.843 -1.10192 1.12674 0
M  V30 2562 C 247.806 -2.14786 0.799979 0
M  V30 2563 C 248.806 -1.59711 -0.18685 0
M  V30 2564 O 249.996 -1.74156 0.0392558 0
M  V30 2565 C 247.128 -3.40374 0.189228 0
M  V30 2566 H 248.321 -2.45203 1.72671 0
M  V30 2567 H 245.874 -1.25597 0.930326 0
M  V30 2568 H 246.609 -3.15577 -0.747107 0
M  V30 2569 H 246.394 -3.81637 0.899766 0
M  V30 2570 H 247.884 -4.17594 -0.0228143 0
M  V30 2571 N 248.321 -0.919034 -1.28029 0
M  V30 2572 C 249.57 -0.550802 -1.94034 0
M  V30 2573 C 249.883 0.910877 -1.73096 0
M  V30 2574 O 251.089 1.3875 -2.33368 0
M  V30 2575 C 249.545 -0.934249 -3.47563 0
M  V30 2576 C 249.153 -2.41602 -3.7727 0
M  V30 2577 C 250.897 -0.636854 -4.19696 0
M  V30 2578 C 248.804 -2.73932 -5.24133 0
M  V30 2579 H 247.734 -0.202273 -0.726362 0
M  V30 2580 H 250.385 -1.11867 -1.45458 0
M  V30 2581 H 248.767 -0.295115 -3.94899 0
M  V30 2582 H 249.941 -3.10233 -3.40723 0
M  V30 2583 H 248.256 -2.68441 -3.18321 0
M  V30 2584 H 250.853 -0.855005 -5.2782 0
M  V30 2585 H 251.196 0.425575 -4.14119 0
M  V30 2586 H 251.729 -1.23469 -3.78154 0
M  V30 2587 H 248.468 -3.79049 -5.34792 0
M  V30 2588 H 247.988 -2.09942 -5.61858 0
M  V30 2589 H 249.667 -2.61215 -5.91925 0
M  V30 2590 N 249.799 1.42003 -0.683588 0
M  V30 2591 C 251.215 1.55625 -0.353976 0
M  V30 2592 C 251.415 1.66151 1.14 0
M  V30 2593 O 250.471 1.63329 1.92561 0
M  V30 2594 C 251.784 2.80171 -1.092 0
M  V30 2595 C 253.332 2.93954 -1.07518 0
M  V30 2596 C 253.807 4.21372 -1.79471 0
M  V30 2597 N 255.298 4.28303 -1.76381 0
M  V30 2598 C 256.033 5.25729 -2.28904 0
M  V30 2599 N 255.529 6.29254 -2.89846 0
M  V30 2600 N 257.322 5.17586 -2.19228 0
M  V30 2601 H 249.473 1.33415 -1.6527 0
M  V30 2602 H 251.736 0.64282 -0.696769 0
M  V30 2603 H 251.442 2.78561 -2.14701 0
M  V30 2604 H 251.316 3.7133 -0.662862 0
M  V30 2605 H 253.703 2.95086 -0.028475 0
M  V30 2606 H 253.784 2.04002 -1.54328 0
M  V30 2607 H 253.428 4.21001 -2.84114 0
M  V30 2608 H 253.358 5.10275 -1.30104 0
M  V30 2609 H 255.849 3.54119 -1.31939 0
M  V30 2610 H 256.162 6.99964 -3.27522 0
M  V30 2611 H 254.507 6.29791 -2.93919 0
M  V30 2612 H 257.698 4.35631 -1.71299 0
M  V30 2613 H 257.871 5.93348 -2.60466 0
M  V30 2614 N 251.277 0.427512 1.51691 0
M  V30 2615 C 252.207 -0.3796 2.30394 0
M  V30 2616 C 253.188 -1.02982 1.35384 0
M  V30 2617 O 254.373 -1.03534 1.643 0
M  V30 2618 C 251.503 -1.48649 3.1388 0
M  V30 2619 C 250.457 -0.960294 4.17088 0
M  V30 2620 C 249.783 -2.16219 4.89033 0
M  V30 2621 C 251.083 -0.00153679 5.223 0
M  V30 2622 H 252.777 0.277164 2.98114 0
M  V30 2623 H 250.323 0.134739 1.43368 0
M  V30 2624 H 252.276 -2.05826 3.67714 0
M  V30 2625 H 251 -2.1714 2.43962 0
M  V30 2626 H 249.659 -0.410806 3.64291 0
M  V30 2627 H 249.307 -2.83307 4.15628 0
M  V30 2628 H 249.007 -1.81654 5.58816 0
M  V30 2629 H 250.531 -2.73968 5.45687 0
M  V30 2630 H 251.945 -0.482687 5.71264 0
M  V30 2631 H 250.342 0.256199 5.99553 0
M  V30 2632 H 251.412 0.938174 4.75738 0
M  V30 2633 N 252.755 -1.56801 0.158532 0
M  V30 2634 C 254.003 -1.96102 -0.488712 0
M  V30 2635 C 254.324 -1.04498 -1.64636 0
M  V30 2636 O 253.594 -0.108783 -1.95598 0
M  V30 2637 H 252.174 -0.724102 -0.183535 0
M  V30 2638 H 254.836 -1.93457 0.236728 0
M  V30 2639 H 253.932 -3.00097 -0.857219 0
M  V30 2640 N 254.233 0.115231 -1.57178 0
M  V30 2641 C 255.163 1.1423 -2.03651 0
M  V30 2642 C 256.144 1.42967 -0.921655 0
M  V30 2643 O 257.329 1.53343 -1.19162 0
M  V30 2644 C 254.459 2.4675 -2.44401 0
M  V30 2645 C 253.413 2.32467 -3.59365 0
M  V30 2646 C 252.739 3.69984 -3.86026 0
M  V30 2647 C 254.039 1.78203 -4.90959 0
M  V30 2648 H 255.733 0.755749 -2.89705 0
M  V30 2649 H 253.279 0.362093 -1.39373 0
M  V30 2650 H 255.232 3.18854 -2.75517 0
M  V30 2651 H 253.956 2.87302 -1.55322 0
M  V30 2652 H 252.615 1.62811 -3.28463 0
M  V30 2653 H 252.263 4.08028 -2.94147 0
M  V30 2654 H 251.963 3.61279 -4.63412 0
M  V30 2655 H 253.487 4.43587 -4.19599 0
M  V30 2656 H 254.901 2.40128 -5.20587 0
M  V30 2657 H 253.298 1.8031 -5.72371 0
M  V30 2658 H 254.368 0.739876 -4.79222 0
M  V30 2659 N 255.711 1.52812 0.385517 0
M  V30 2660 C 256.959 1.67694 1.12797 0
M  V30 2661 C 257.28 0.421115 1.90399 0
M  V30 2662 O 256.55 -0.564551 1.87589 0
M  V30 2663 H 255.13 0.618155 0.419396 0
M  V30 2664 H 257.792 1.89938 0.436972 0
M  V30 2665 H 256.888 2.52896 1.82894 0
M  V30 2666 N 257.189 -0.644168 1.43834 0
M  V30 2667 C 258.137 -1.77793 1.49974 0
M  V30 2668 C 259.131 -1.65253 0.372536 0
M  V30 2669 O 260.337 -1.7149 0.546924 0
M  V30 2670 H 256.712 -0.58675 0.47035 0
M  V30 2671 H 258.683 -1.69736 2.45423 0
M  V30 2672 C 257.432 -3.16087 1.4486 0
M  V30 2673 H 256.755 -3.26378 2.30905 0
M  V30 2674 H 258.195 -3.95349 1.53217 0
M  V30 2675 C 256.654 -3.36484 0.167463 0
M  V30 2676 O 257.184 -3.94298 -0.767609 0
M  V30 2677 N 255.39 -2.90504 0.0747556 0
M  V30 2678 H 254.937 -2.4364 0.836507 0
M  V30 2679 H 254.895 -3.04527 -0.781714 0
M  V30 2680 N 258.668 -1.30515 -0.883378 0
M  V30 2681 C 259.618 -1.13641 -1.9766 0
M  V30 2682 C 260.602 -0.0511314 -1.60819 0
M  V30 2683 O 261.794 -0.274623 -1.74857 0
M  V30 2684 C 258.923 -0.831976 -3.33066 0
M  V30 2685 C 258.009 -1.95759 -3.76217 0
M  V30 2686 N 258.4 -3.20313 -3.9145 0
M  V30 2687 C 256.698 -1.85431 -4.05625 0
M  V30 2688 C 257.399 -3.93856 -4.2808 0
M  V30 2689 N 256.375 -3.21919 -4.38029 0
M  V30 2690 H 260.177 -2.08106 -2.07531 0
M  V30 2691 H 257.691 -1.21877 -1.0733 0
M  V30 2692 H 259.688 -0.692102 -4.11115 0
M  V30 2693 H 258.348 0.104588 -3.24532 0
M  V30 2694 H 259.359 -3.55583 -3.76538 0
M  V30 2695 H 256.036 -0.991531 -4.05555 0
M  V30 2696 H 257.426 -5.01125 -4.47575 0
M  V30 2697 N 260.146 1.09593 -1.13257 0
M  V30 2698 C 261.094 2.18271 -0.803783 0
M  V30 2699 C 262.088 1.68054 0.213148 0
M  V30 2700 O 263.294 1.79862 0.0704699 0
M  V30 2701 H 259.669 0.711949 -0.242143 0
M  V30 2702 H 261.64 2.43235 -1.72856 0
M  V30 2703 C 260.389 3.46536 -0.28424 0
M  V30 2704 H 259.712 3.85545 -1.05807 0
M  V30 2705 H 261.152 4.23899 -0.0925945 0
M  V30 2706 C 259.611 3.22036 0.989684 0
M  V30 2707 O 260.141 3.44509 2.06584 0
M  V30 2708 N 258.347 2.7565 0.920086 0
M  V30 2709 H 257.894 2.57562 0.0442019 0
M  V30 2710 H 257.852 2.59635 1.77306 0
M  V30 2711 N 261.624 0.925811 1.2754 0
M  V30 2712 C 262.854 0.580666 1.98272 0
M  V30 2713 C 263.262 -0.845207 1.69272 0
M  V30 2714 O 262.605 -1.57306 0.948707 0
M  V30 2715 C 262.667 0.724418 3.52126 0
M  V30 2716 C 262.331 2.12206 4.04744 0
M  V30 2717 C 263.328 3.09604 4.17662 0
M  V30 2718 C 261.013 2.4385 4.39138 0
M  V30 2719 C 263.007 4.36755 4.64246 0
M  V30 2720 C 260.694 3.71237 4.85414 0
M  V30 2721 C 261.692 4.67503 4.97926 0
M  V30 2722 O 261.38 5.92624 5.43187 0
M  V30 2723 H 261.112 0.218987 0.639547 0
M  V30 2724 H 263.666 1.24452 1.63404 0
M  V30 2725 H 261.896 0.0034663 3.867 0
M  V30 2726 H 263.585 0.384607 4.04074 0
M  V30 2727 H 264.351 2.86478 3.91351 0
M  V30 2728 H 260.23 1.69665 4.28643 0
M  V30 2729 H 263.774 5.11898 4.73927 0
M  V30 2730 H 259.671 3.94182 5.11166 0
M  V30 2731 H 260.439 5.95585 5.61445 0
M  V30 2732 N 263.102 -1.41638 0.69111 0
M  V30 2733 C 264.342 -2.03166 0.224291 0
M  V30 2734 C 264.706 -1.53537 -1.15284 0
M  V30 2735 O 265.907 -2.0696 -1.71525 0
M  V30 2736 C 264.178 -3.56342 0.274758 0
M  V30 2737 S 265.737 -4.3864 -0.118669 0
M  V30 2738 H 262.555 -0.705188 0.0907263 0
M  V30 2739 H 265.157 -1.7314 0.907895 0
M  V30 2740 H 263.861 -3.89958 1.2791 0
M  V30 2741 H 263.392 -3.91063 -0.428142 0
M  V30 2742 H 265.407 -4.77549 -1.34764 0
M  V30 2743 N 264.58 -0.43555 -1.51462 0
M  V30 2744 C 265.996 -0.0877501 -1.59359 0
M  V30 2745 C 266.196 1.4027 -1.4466 0
M  V30 2746 O 265.252 2.17243 -1.28693 0
M  V30 2747 C 266.565 -0.606264 -2.94525 0
M  V30 2748 C 268.113 -0.566548 -3.0783 0
M  V30 2749 C 268.588 -1.06201 -4.45517 0
M  V30 2750 N 270.079 -1.01992 -4.51832 0
M  V30 2751 C 270.814 -1.37417 -5.5669 0
M  V30 2752 N 270.31 -1.80119 -6.68976 0
M  V30 2753 N 272.103 -1.29245 -5.47039 0
M  V30 2754 H 264.254 -1.40533 -1.59261 0
M  V30 2755 H 266.517 -0.578992 -0.750648 0
M  V30 2756 H 266.223 -1.64901 -3.10645 0
M  V30 2757 H 266.097 -0.0302097 -3.77188 0
M  V30 2758 H 268.484 0.467208 -2.91378 0
M  V30 2759 H 268.565 -1.17898 -2.2701 0
M  V30 2760 H 268.209 -2.09422 -4.62715 0
M  V30 2761 H 268.139 -0.426127 -5.24873 0
M  V30 2762 H 270.63 -0.706308 -3.71241 0
M  V30 2763 H 270.943 -2.05392 -7.45006 0
M  V30 2764 H 269.288 -1.84044 -6.70189 0
M  V30 2765 H 272.479 -0.957522 -4.58202 0
M  V30 2766 H 272.652 -1.57182 -6.28648 0
M  V30 2767 N 266.058 1.56714 -0.166846 0
M  V30 2768 C 267.006 2.19056 0.782123 0
M  V30 2769 C 268 1.15328 1.24079 0
M  V30 2770 O 269.206 1.33537 1.20697 0
M  V30 2771 H 265.581 0.70167 0.270486 0
M  V30 2772 H 267.552 2.97494 0.232322 0
M  V30 2773 C 266.301 2.84206 2.00306 0
M  V30 2774 H 265.624 3.63748 1.65914 0
M  V30 2775 H 267.064 3.31302 2.64604 0
M  V30 2776 C 265.523 1.83744 2.82382 0
M  V30 2777 O 266.053 1.32014 3.79388 0
M  V30 2778 N 264.259 1.52601 2.47308 0
M  V30 2779 H 263.806 1.9486 1.68485 0
M  V30 2780 H 263.764 0.856351 3.02513 0
M  V30 2781 N 267.536 -0.106894 1.57237 0
M  V30 2782 C 268.947 -0.662723 1.74542 0
M  V30 2783 C 269.298 -1.7971 0.787319 0
M  V30 2784 O 268.423 -2.16368 -0.0369636 0
M  V30 2785 C 269.018 -1.20896 3.16496 0
M  V30 2786 C 267.577 -1.71096 3.35266 0
M  V30 2787 C 266.724 -0.615642 2.7038 0
M  V30 2788 H 269.675 0.119106 1.58252 0
M  V30 2789 H 269.696 -2.07847 3.18716 0
M  V30 2790 H 269.208 -0.383122 3.86204 0
M  V30 2791 H 267.309 -2.56119 2.70618 0
M  V30 2792 H 267.422 -1.81208 4.43509 0
M  V30 2793 H 265.786 -1.05222 2.31949 0
M  V30 2794 H 266.569 0.199419 3.4272 0
M  V30 2795 N 269.014 -1.53014 -0.377408 0
M  V30 2796 C 270.291 -1.59215 -1.13622 0
M  V30 2797 C 270.671 -0.392407 -2.07421 0
M  V30 2798 O 270.019 0.618342 -2.19975 0
M  V30 2799 C 270.229 -2.93669 -1.88573 0
M  V30 2800 C 271.577 -3.47822 -2.43526 0
M  V30 2801 O 272.601 -2.9562 -1.98715 0
M  V30 2802 O 271.46 -4.39055 -3.25412 0
M  V30 2803 H 268.554 -0.642625 -0.52054 0
M  V30 2804 H 271.1 -1.65353 -0.381625 0
M  V30 2805 H 269.872 -3.7243 -1.20048 0
M  V30 2806 H 269.495 -2.90968 -2.70968 0
M  V30 2807 N 270.492 0.636531 -1.44174 0
M  V30 2808 C 271.908 0.954104 -1.27941 0
M  V30 2809 C 272.108 2.0039 -0.211248 0
M  V30 2810 O 271.164 2.49236 0.404695 0
M  V30 2811 C 272.477 1.4225 -2.64925 0
M  V30 2812 C 274.025 1.53827 -2.72592 0
M  V30 2813 C 274.5 2.04053 -4.10032 0
M  V30 2814 N 275.991 2.11331 -4.12182 0
M  V30 2815 C 276.726 2.51352 -5.15374 0
M  V30 2816 N 276.222 2.90549 -6.2893 0
M  V30 2817 N 278.015 2.51438 -5.02728 0
M  V30 2818 H 270.166 -0.0578386 -2.12321 0
M  V30 2819 H 272.429 0.0367406 -0.947288 0
M  V30 2820 H 272.135 0.725466 -3.44136 0
M  V30 2821 H 272.009 2.39451 -2.9145 0
M  V30 2822 H 274.396 2.22628 -1.93702 0
M  V30 2823 H 274.477 0.550154 -2.49814 0
M  V30 2824 H 274.121 1.35848 -4.89395 0
M  V30 2825 H 274.051 3.03726 -4.30184 0
M  V30 2826 H 276.542 1.83745 -3.30222 0
M  V30 2827 H 276.855 3.19884 -7.03487 0
M  V30 2828 H 275.2 2.88313 -6.32377 0
M  V30 2829 H 278.391 2.20203 -4.13072 0
M  V30 2830 H 278.564 2.82304 -5.83274 0
M  V30 2831 N 271.97 1.30982 0.876444 0
M  V30 2832 C 273.247 1.10942 1.61094 0
M  V30 2833 C 273.627 -0.338223 2.08373 0
M  V30 2834 O 272.975 -1.33122 1.85717 0
M  V30 2835 C 273.185 2.11789 2.77392 0
M  V30 2836 C 274.533 2.43965 3.47514 0
M  V30 2837 O 275.557 2.10166 2.87591 0
M  V30 2838 O 274.416 3.01817 4.55597 0
M  V30 2839 H 271.51 0.42667 0.708436 0
M  V30 2840 H 274.056 1.42438 0.922474 0
M  V30 2841 H 272.828 3.09194 2.39823 0
M  V30 2842 H 272.451 1.81161 3.5393 0
M  V30 2843 N 273.449 -1.08991 1.13837 0
M  V30 2844 C 274.674 -1.85551 0.926585 0
M  V30 2845 C 275.099 -1.80782 -0.519566 0
M  V30 2846 O 274.457 -1.18855 -1.36906 0
M  V30 2847 C 274.505 -3.31266 1.42462 0
M  V30 2848 O 273.609 -4.07822 0.612789 0
M  V30 2849 H 272.95 -0.575192 0.331738 0
M  V30 2850 H 275.48 -1.37604 1.51414 0
M  V30 2851 H 275.49 -3.82112 1.43019 0
M  V30 2852 H 274.165 -3.34052 2.47754 0
M  V30 2853 H 272.742 -3.66731 0.675463 0
M  V30 2854 N 274.927 -0.932562 -1.27047 0
M  V30 2855 C 275.874 -0.434072 -2.26681 0
M  V30 2856 C 276.844 0.501639 -1.58344 0
M  V30 2857 O 278.029 0.419734 -1.86126 0
M  V30 2858 C 275.169 0.30261 -3.43771 0
M  V30 2859 C 274.282 -0.667774 -4.26808 0
M  V30 2860 C 273.417 0.0892393 -5.31125 0
M  V30 2861 C 272.456 -0.873532 -6.05835 0
M  V30 2862 N 271.593 -0.148832 -7.01942 0
M  V30 2863 H 276.433 -1.28868 -2.68695 0
M  V30 2864 H 273.97 -0.646713 -1.32121 0
M  V30 2865 H 275.928 0.746092 -4.10474 0
M  V30 2866 H 274.558 1.12142 -3.02695 0
M  V30 2867 H 273.61 -1.22978 -3.59973 0
M  V30 2868 H 274.922 -1.40337 -4.78651 0
M  V30 2869 H 274.076 0.592409 -6.03801 0
M  V30 2870 H 272.815 0.85777 -4.80097 0
M  V30 2871 H 271.82 -1.38791 -5.31994 0
M  V30 2872 H 273.045 -1.64193 -6.58952 0
M  V30 2873 H 270.991 0.601365 -6.53238 0
M  V30 2874 H 270.908 -0.82391 -7.51497 0
M  V30 2875 H 272.176 0.333527 -7.78786 0
M  V30 2876 N 276.405 1.4127 -0.698611 0
M  V30 2877 C 277.816 1.84187 -0.305289 0
M  V30 2878 C 278.167 1.58449 1.15708 0
M  V30 2879 O 277.292 1.05651 1.88856 0
M  V30 2880 C 277.887 3.3435 -0.547314 0
M  V30 2881 C 276.446 3.75826 -0.207878 0
M  V30 2882 C 275.593 2.64647 -0.828099 0
M  V30 2883 H 278.544 1.30778 -0.89904 0
M  V30 2884 H 278.565 3.8001 0.192998 0
M  V30 2885 H 278.077 3.53051 -1.61172 0
M  V30 2886 H 276.178 3.62725 0.852143 0
M  V30 2887 H 276.291 4.74462 -0.665021 0
M  V30 2888 H 274.655 2.53395 -0.257458 0
M  V30 2889 H 275.438 2.86165 -1.89643 0
M  V30 2890 N 277.883 0.443576 1.51229 0
M  V30 2891 C 279.129 -0.11321 2.03085 0
M  V30 2892 C 279.484 -1.39841 1.32145 0
M  V30 2893 O 278.777 -1.86723 0.429542 0
M  V30 2894 C 278.971 -0.380579 3.55368 0
M  V30 2895 C 278.8 0.877157 4.41062 0
M  V30 2896 C 277.57 1.4125 4.85156 0
M  V30 2897 C 279.768 1.76503 4.83064 0
M  V30 2898 N 277.75 2.62213 5.55083 0
M  V30 2899 C 279.121 2.82067 5.52122 0
M  V30 2900 C 281.176 1.7787 4.65045 0
M  V30 2901 C 279.879 3.88952 6.05069 0
M  V30 2902 C 281.905 2.83694 5.18914 0
M  V30 2903 C 281.267 3.87978 5.87922 0
M  V30 2904 H 277.366 -0.00210178 0.781997 0
M  V30 2905 H 279.95 0.605641 1.85041 0
M  V30 2906 H 278.121 -1.06847 3.73414 0
M  V30 2907 H 279.853 -0.929274 3.93887 0
M  V30 2908 H 276.608 0.965542 4.63653 0
M  V30 2909 H 277.032 3.23568 5.9467 0
M  V30 2910 H 281.674 0.985744 4.11148 0
M  V30 2911 H 279.392 4.69082 6.58018 0
M  V30 2912 H 282.978 2.85702 5.06819 0
M  V30 2913 H 281.858 4.68517 6.28857 0
M  V30 2914 N 279.361 -1.56624 0.175154 0
M  V30 2915 C 280.601 -1.98894 -0.471221 0
M  V30 2916 C 280.965 -1.05889 -1.60161 0
M  V30 2917 O 282.166 -1.37315 -2.3108 0
M  V30 2918 C 280.437 -3.44865 -0.938241 0
M  V30 2919 S 281.996 -4.09164 -1.58526 0
M  V30 2920 H 278.814 -0.694686 -0.151434 0
M  V30 2921 H 281.416 -1.93577 0.27352 0
M  V30 2922 H 280.12 -4.10265 -0.10518 0
M  V30 2923 H 279.651 -3.53956 -1.71693 0
M  V30 2924 H 281.666 -4.04528 -2.87352 0
M  V30 2925 N 280.839 0.0985539 -1.57292 0
M  V30 2926 C 282.069 0.815135 -1.8984 0
M  V30 2927 C 282.477 1.7297 -0.766679 0
M  V30 2928 O 281.82 1.81698 0.270483 0
M  V30 2929 C 281.882 1.6842 -3.17608 0
M  V30 2930 C 281.546 0.94182 -4.4719 0
M  V30 2931 C 282.543 0.273212 -5.19182 0
M  V30 2932 C 280.228 0.916927 -4.9386 0
M  V30 2933 C 282.222 -0.410361 -6.36078 0
M  V30 2934 C 279.909 0.229567 -6.10669 0
M  V30 2935 C 280.907 -0.432902 -6.81627 0
M  V30 2936 O 280.595 -1.10925 -7.9621 0
M  V30 2937 H 280.327 0.238501 -0.632529 0
M  V30 2938 H 282.881 0.0812659 -2.05239 0
M  V30 2939 H 281.111 2.46022 -2.98345 0
M  V30 2940 H 282.8 2.27704 -3.36015 0
M  V30 2941 H 283.566 0.283927 -4.84168 0
M  V30 2942 H 279.445 1.42201 -4.3852 0
M  V30 2943 H 282.989 -0.928013 -6.914 0
M  V30 2944 H 278.886 0.216686 -6.45136 0
M  V30 2945 H 279.654 -1.01579 -8.12172 0
M  V30 2946 N 282.317 1.53212 0.369288 0
M  V30 2947 C 283.563 1.69466 1.11397 0
M  V30 2948 C 283.896 0.443257 1.89074 0
M  V30 2949 O 283.171 -0.559386 1.86282 0
M  V30 2950 C 283.454 2.9422 2.07621 0
M  V30 2951 C 283.307 4.29508 1.33577 0
M  V30 2952 C 284.626 3.14565 3.07794 0
M  V30 2953 H 281.745 0.616667 0.403597 0
M  V30 2954 H 284.387 1.85845 0.395179 0
M  V30 2955 H 282.537 2.80387 2.68916 0
M  V30 2956 H 284.209 4.55147 0.750955 0
M  V30 2957 H 282.452 4.29088 0.637618 0
M  V30 2958 H 283.123 5.12926 2.03989 0
M  V30 2959 H 285.599 3.2756 2.56601 0
M  V30 2960 H 284.475 4.03297 3.72348 0
M  V30 2961 H 284.736 2.29675 3.77759 0
M  V30 2962 N 283.795 -0.628877 1.44509 0
M  V30 2963 C 285.042 -1.38839 1.47411 0
M  V30 2964 C 285.37 -1.94202 0.10757 0
M  V30 2965 O 284.625 -1.74243 -0.890947 0
M  V30 2966 C 284.924 -2.56995 2.48371 0
M  V30 2967 C 284.59 -2.19908 3.93639 0
M  V30 2968 C 283.252 -2.09506 4.33198 0
M  V30 2969 C 285.604 -1.9064 4.85083 0
M  V30 2970 C 282.932 -1.68028 5.62124 0
M  V30 2971 C 285.284 -1.50655 6.14399 0
M  V30 2972 C 283.948 -1.38796 6.5291 0
M  V30 2973 H 283.218 -0.508048 0.539414 0
M  V30 2974 H 285.865 -0.712913 1.77735 0
M  V30 2975 H 284.17 -3.29786 2.11538 0
M  V30 2976 H 285.867 -3.15223 2.47861 0
M  V30 2977 H 282.457 -2.28922 3.62343 0
M  V30 2978 H 286.641 -1.97585 4.55273 0
M  V30 2979 H 281.897 -1.57452 5.90778 0
M  V30 2980 H 286.071 -1.27048 6.84713 0
M  V30 2981 H 283.698 -1.06429 7.52713 0
M  V30 2982 N 285.273 -1.31445 -0.869486 0
M  V30 2983 C 286.22 -1.19135 -1.97675 0
M  V30 2984 C 287.19 -0.0770266 -1.65921 0
M  V30 2985 O 288.375 -0.249972 -1.89155 0
M  V30 2986 C 285.515 -0.905149 -3.33018 0
M  V30 2987 C 284.628 -2.10285 -3.77365 0
M  V30 2988 C 283.763 -1.75339 -5.01427 0
M  V30 2989 C 282.802 -2.91515 -5.38224 0
M  V30 2990 N 281.939 -2.56762 -6.53466 0
M  V30 2991 H 286.779 -2.13853 -2.07535 0
M  V30 2992 H 284.316 -1.06379 -1.01597 0
M  V30 2993 H 286.274 -0.719765 -4.10944 0
M  V30 2994 H 284.904 0.00519624 -3.228 0
M  V30 2995 H 283.956 -2.39899 -2.95216 0
M  V30 2996 H 285.268 -2.97237 -4.00564 0
M  V30 2997 H 284.422 -1.53266 -5.87022 0
M  V30 2998 H 283.161 -0.855801 -4.80133 0
M  V30 2999 H 282.166 -3.14237 -4.51149 0
M  V30 3000 H 283.391 -3.81985 -5.61484 0
M  V30 3001 H 281.337 -1.69526 -6.33717 0
M  V30 3002 H 281.254 -3.37243 -6.76612 0
M  V30 3003 H 282.522 -2.38083 -7.42251 0
M  V30 3004 N 286.751 1.08385 -1.14413 0
M  V30 3005 C 287.714 2.13486 -0.834048 0
M  V30 3006 C 288.714 1.59988 0.161418 0
M  V30 3007 O 289.904 1.74071 -0.0669575 0
M  V30 3008 C 287.036 3.4003 -0.243354 0
M  V30 3009 H 288.229 2.42425 -1.7655 0
M  V30 3010 H 285.782 1.24101 -0.950189 0
M  V30 3011 H 286.517 3.16726 0.696807 0
M  V30 3012 H 286.302 3.80157 -0.960367 0
M  V30 3013 H 287.792 4.17577 -0.0436242 0
M  V30 3014 N 288.23 0.939286 1.26551 0
M  V30 3015 C 289.478 0.58469 1.93457 0
M  V30 3016 C 289.799 -0.878774 1.74076 0
M  V30 3017 O 289.069 -1.62421 1.09528 0
M  V30 3018 H 287.649 0.21325 0.715914 0
M  V30 3019 H 290.311 1.1942 1.54029 0
M  V30 3020 H 289.407 0.800849 3.0165 0
M  V30 3021 N 289.708 -1.40897 0.706093 0
M  V30 3022 C 290.655 -2.30751 0.0474474 0
M  V30 3023 C 291.625 -1.47678 -0.76029 0
M  V30 3024 O 292.81 -1.76441 -0.726177 0
M  V30 3025 C 289.95 -3.33815 -0.875309 0
M  V30 3026 C 289.063 -4.31961 -0.0580623 0
M  V30 3027 C 288.198 -5.22093 -0.979425 0
M  V30 3028 C 287.237 -6.11902 -0.155706 0
M  V30 3029 N 286.374 -6.94482 -1.03144 0
M  V30 3030 H 291.214 -2.86513 0.819413 0
M  V30 3031 H 288.751 -1.41102 0.415783 0
M  V30 3032 H 290.709 -3.92129 -1.42446 0
M  V30 3033 H 289.339 -2.79579 -1.61356 0
M  V30 3034 H 288.391 -3.75507 0.608147 0
M  V30 3035 H 289.703 -4.95415 0.580082 0
M  V30 3036 H 288.857 -5.85292 -1.59744 0
M  V30 3037 H 287.596 -4.5889 -1.65141 0
M  V30 3038 H 286.601 -5.47742 0.475309 0
M  V30 3039 H 287.826 -6.77162 0.512635 0
M  V30 3040 H 285.772 -6.33877 -1.68924 0
M  V30 3041 H 285.689 -7.54665 -0.449108 0
M  V30 3042 H 286.957 -7.6214 -1.63593 0
M  V30 3043 N 291.186 -0.45159 -1.50991 0
M  V30 3044 C 292.416 0.108177 -2.06317 0
M  V30 3045 C 292.824 1.35774 -1.31765 0
M  V30 3046 O 292.167 1.79838 -0.374694 0
M  V30 3047 C 292.229 0.481659 -3.56259 0
M  V30 3048 C 291.893 -0.663114 -4.52163 0
M  V30 3049 C 292.89 -1.53947 -4.96585 0
M  V30 3050 C 290.575 -0.8479 -4.95092 0
M  V30 3051 C 292.569 -2.58518 -5.82621 0
M  V30 3052 C 290.256 -1.89686 -5.80915 0
M  V30 3053 C 291.254 -2.76388 -6.24579 0
M  V30 3054 O 290.942 -3.79482 -7.08695 0
M  V30 3055 H 290.674 0.00499183 -0.675982 0
M  V30 3056 H 293.228 -0.633659 -1.95381 0
M  V30 3057 H 291.458 1.27641 -3.65027 0
M  V30 3058 H 293.147 0.974233 -3.94035 0
M  V30 3059 H 293.913 -1.4083 -4.64103 0
M  V30 3060 H 289.792 -0.18258 -4.60638 0
M  V30 3061 H 293.336 -3.26224 -6.16623 0
M  V30 3062 H 289.233 -2.02817 -6.12809 0
M  V30 3063 H 290.001 -3.76234 -7.26905 0
M  V30 3064 N 292.664 1.56529 -0.183458 0
M  V30 3065 C 293.889 2.02064 0.467428 0
M  V30 3066 C 294.314 1.06282 1.55196 0
M  V30 3067 O 293.672 0.0443565 1.81246 0
M  V30 3068 C 293.72 3.46122 1.01153 0
M  V30 3069 O 292.824 3.53437 2.12499 0
M  V30 3070 H 292.165 0.654726 0.110588 0
M  V30 3071 H 294.695 2.02521 -0.290917 0
M  V30 3072 H 294.705 3.85676 1.33108 0
M  V30 3073 H 293.38 4.15331 0.217533 0
M  V30 3074 H 291.957 3.2575 1.81497 0
M  V30 3075 N 294.142 -0.090211 1.57342 0
M  V30 3076 C 295.367 -0.810082 1.90925 0
M  V30 3077 C 295.792 -1.71248 0.778187 0
M  V30 3078 O 295.15 -1.79278 -0.269991 0
M  V30 3079 C 295.198 -1.59529 3.23393 0
M  V30 3080 O 294.302 -2.70461 3.11327 0
M  V30 3081 H 293.643 -0.222231 0.625707 0
M  V30 3082 H 296.173 -0.0639716 2.045 0
M  V30 3083 H 296.183 -1.97847 3.5682 0
M  V30 3084 H 294.858 -0.933055 4.05299 0
M  V30 3085 H 293.435 -2.35135 2.89423 0
M  V30 3086 N 295.62 -1.53406 -0.361157 0
M  V30 3087 C 296.53 -1.83122 -1.4664 0
M  V30 3088 C 297.546 -0.719943 -1.58407 0
M  V30 3089 O 298.722 -1.01046 -1.74218 0
M  V30 3090 C 295.787 -2.01891 -2.81853 0
M  V30 3091 C 294.848 -3.25784 -2.79577 0
M  V30 3092 C 294.081 -3.43648 -4.0834 0
M  V30 3093 O 294.304 -2.65714 -5.0473 0
M  V30 3094 O 293.238 -4.37018 -4.13883 0
M  V30 3095 H 297.064 -2.7703 -1.24451 0
M  V30 3096 H 294.649 -1.38841 -0.551678 0
M  V30 3097 H 296.531 -2.15782 -3.61962 0
M  V30 3098 H 295.206 -1.11173 -3.0401 0
M  V30 3099 H 294.113 -3.17312 -1.98151 0
M  V30 3100 H 295.446 -4.16439 -2.62373 0
M  V30 3101 N 297.098 0.621204 -1.44841 0
M  V30 3102 C 298.345 1.38055 -1.48145 0
M  V30 3103 C 298.673 1.94143 -0.117867 0
M  V30 3104 O 297.928 1.74713 0.881694 0
M  V30 3105 C 298.227 2.55675 -2.4973 0
M  V30 3106 C 297.893 2.17817 -3.94799 0
M  V30 3107 C 296.555 2.07205 -4.34303 0
M  V30 3108 C 298.907 1.88065 -4.86087 0
M  V30 3109 C 296.235 1.65045 -5.63007 0
M  V30 3110 C 298.587 1.47394 -6.15189 0
M  V30 3111 C 297.251 1.35331 -6.53637 0
M  V30 3112 H 296.521 0.505181 -0.542101 0
M  V30 3113 H 299.168 0.703477 -1.78111 0
M  V30 3114 H 297.473 3.2866 -2.13284 0
M  V30 3115 H 299.17 3.13904 -2.4953 0
M  V30 3116 H 295.76 2.26998 -3.63552 0
M  V30 3117 H 299.944 1.95168 -4.56315 0
M  V30 3118 H 295.2 1.54317 -5.91605 0
M  V30 3119 H 299.374 1.23415 -6.85377 0
M  V30 3120 H 297.001 1.02435 -7.53267 0
M  V30 3121 N 298.576 1.31904 0.862503 0
M  V30 3122 C 299.816 1.23324 1.63004 0
M  V30 3123 C 300.18 -0.203724 1.90916 0
M  V30 3124 O 301.381 -0.413132 2.65606 0
M  V30 3125 C 299.652 2.06116 2.91978 0
M  V30 3126 S 301.211 2.14478 3.82812 0
M  V30 3127 H 298.029 0.439117 0.559193 0
M  V30 3128 H 300.631 1.66658 1.02202 0
M  V30 3129 H 299.335 3.09593 2.69407 0
M  V30 3130 H 298.866 1.6353 3.57801 0
M  V30 3131 H 300.881 1.28855 4.79177 0
M  V30 3132 N 300.054 -1.07777 1.14986 0
M  V30 3133 C 301.279 -1.84558 0.946213 0
M  V30 3134 C 301.704 -1.81323 -0.500362 0
M  V30 3135 O 301.062 -1.20301 -1.35637 0
M  V30 3136 C 301.11 -3.29736 1.45968 0
M  V30 3137 O 300.214 -4.07149 0.65601 0
M  V30 3138 H 299.555 -0.571641 0.33782 0
M  V30 3139 H 302.085 -1.35991 1.52865 0
M  V30 3140 H 302.095 -3.80574 1.47063 0
M  V30 3141 H 300.77 -3.31406 2.51283 0
M  V30 3142 H 299.347 -3.65994 0.714322 0
M  V30 3143 N 301.532 -0.945985 -1.26051 0
M  V30 3144 C 302.76 -0.613025 -1.9761 0
M  V30 3145 C 303.175 0.813035 -1.70397 0
M  V30 3146 O 302.532 1.54274 -0.974979 0
M  V30 3147 C 302.583 -0.85159 -3.51326 0
M  V30 3148 O 302.304 -2.22157 -3.77595 0
M  V30 3149 C 303.805 -0.529831 -4.40122 0
M  V30 3150 H 301.025 -0.230593 -0.630133 0
M  V30 3151 H 303.569 -1.268 -1.60443 0
M  V30 3152 H 301.724 -0.243151 -3.86636 0
M  V30 3153 H 302.138 -2.2852 -4.721 0
M  V30 3154 H 303.612 -0.747348 -5.46917 0
M  V30 3155 H 304.089 0.535341 -4.35925 0
M  V30 3156 H 304.695 -1.11721 -4.10364 0
M  V30 3157 N 303.011 1.40521 -0.713556 0
M  V30 3158 C 304.422 1.83853 -0.324807 0
M  V30 3159 C 304.773 1.59667 1.14021 0
M  V30 3160 O 303.898 1.07649 1.87725 0
M  V30 3161 C 304.493 3.33751 -0.582746 0
M  V30 3162 C 303.052 3.75584 -0.247727 0
M  V30 3163 C 302.199 2.63753 -0.856121 0
M  V30 3164 H 305.15 1.29817 -0.91286 0
M  V30 3165 H 305.171 3.80194 0.152682 0
M  V30 3166 H 304.683 3.51322 -1.64908 0
M  V30 3167 H 302.784 3.63608 0.813624 0
M  V30 3168 H 302.897 4.7373 -0.715307 0
M  V30 3169 H 301.261 2.53108 -0.28432 0
M  V30 3170 H 302.044 2.84137 -1.92668 0
M  V30 3171 N 304.489 0.459591 1.5075 0
M  V30 3172 C 305.452 -0.329093 2.26825 0
M  V30 3173 C 306.452 -0.930481 1.31144 0
M  V30 3174 O 307.642 -0.801453 1.54669 0
M  V30 3175 C 304.774 -1.46768 3.07688 0
M  V30 3176 H 305.967 0.337924 2.9799 0
M  V30 3177 H 303.52 0.213336 1.54837 0
M  V30 3178 H 304.255 -2.17009 2.40993 0
M  V30 3179 H 304.04 -1.04238 3.77991 0
M  V30 3180 H 305.53 -2.02433 3.65254 0
M  V30 3181 N 305.967 -1.56429 0.191757 0
M  V30 3182 C 307.207 -1.99383 -0.450099 0
M  V30 3183 C 307.571 -1.07581 -1.59029 0
M  V30 3184 O 308.772 -1.39758 -2.29611 0
M  V30 3185 C 307.043 -3.45841 -0.901611 0
M  V30 3186 S 308.602 -4.10822 -1.54177 0
M  V30 3187 H 305.42 -0.696253 -0.144057 0
M  V30 3188 H 308.022 -1.93276 0.294036 0
M  V30 3189 H 306.726 -4.10354 -0.0616596 0
M  V30 3190 H 306.257 -3.55757 -1.67929 0
M  V30 3191 H 308.272 -4.07553 -2.83046 0
M  V30 3192 N 307.445 0.0818655 -1.57387 0
M  V30 3193 C 308.67 0.799946 -1.91352 0
M  V30 3194 C 309.095 1.70833 -0.787258 0
M  V30 3195 O 308.453 1.79419 0.26048 0
M  V30 3196 C 308.501 1.57812 -3.24234 0
M  V30 3197 O 307.605 2.68806 -3.12757 0
M  V30 3198 H 306.946 0.21891 -0.626877 0
M  V30 3199 H 309.476 0.0531256 -2.04531 0
M  V30 3200 H 309.486 1.95952 -3.57864 0
M  V30 3201 H 308.161 0.911548 -4.05788 0
M  V30 3202 H 306.738 2.33597 -2.90666 0
M  V30 3203 N 308.923 1.53595 0.353017 0
M  V30 3204 C 309.833 1.83897 1.45667 0
M  V30 3205 C 310.849 0.728334 1.58023 0
M  V30 3206 O 312.025 1.01968 1.73679 0
M  V30 3207 C 309.09 2.03383 2.80778 0
M  V30 3208 C 308.151 3.27262 2.77845 0
M  V30 3209 C 307.384 3.45809 4.06512 0
M  V30 3210 O 307.607 2.68387 5.03314 0
M  V30 3211 O 306.541 4.39207 4.11559 0
M  V30 3212 H 310.367 2.77686 1.2298 0
M  V30 3213 H 307.952 1.39132 0.544308 0
M  V30 3214 H 309.834 2.17698 3.60812 0
M  V30 3215 H 308.509 1.12783 3.03417 0
M  V30 3216 H 307.416 3.18359 1.96465 0
M  V30 3217 H 308.749 4.17824 2.60161 0
M  V30 3218 N 310.401 -0.613514 1.45168 0
M  V30 3219 C 311.649 -1.36997 1.48581 0
M  V30 3220 C 311.97 -1.94589 0.126545 0
M  V30 3221 O 311.24 -1.76816 -0.843372 0
M  V30 3222 H 309.82 -0.508558 0.547154 0
M  V30 3223 H 312.482 -0.720853 1.81079 0
M  V30 3224 H 311.578 -2.1924 2.22127 0
M  V30 3225 N 311.879 -1.3236 -0.855495 0
M  V30 3226 C 312.827 -1.2118 -1.9854 0
M  V30 3227 C 313.821 -0.116788 -1.68997 0
M  V30 3228 O 315.027 -0.279657 -1.77814 0
M  V30 3229 H 311.402 -0.375608 -0.651477 0
M  V30 3230 H 313.373 -2.16743 -2.05098 0
M  V30 3231 C 312.122 -0.950849 -3.34446 0
M  V30 3232 H 311.445 -1.78563 -3.57708 0
M  V30 3233 H 312.885 -0.912863 -4.14057 0
M  V30 3234 C 311.344 0.346404 -3.35114 0
M  V30 3235 O 311.874 1.35855 -3.7803 0
M  V30 3236 N 310.08 0.36808 -2.88259 0
M  V30 3237 H 309.627 -0.456102 -2.5353 0
M  V30 3238 H 309.585 1.23591 -2.89089 0
M  V30 3239 N 313.357 1.07166 -1.15556 0
M  V30 3240 C 314.582 1.84053 -0.955988 0
M  V30 3241 C 315.007 1.81586 0.490739 0
M  V30 3242 O 314.365 1.21018 1.34997 0
M  V30 3243 C 314.413 3.28957 -1.47714 0
M  V30 3244 O 313.517 4.06795 -0.677593 0
M  V30 3245 H 312.858 0.569842 -0.340847 0
M  V30 3246 H 315.388 1.35178 -1.53584 0
M  V30 3247 H 315.398 3.79788 -1.4908 0
M  V30 3248 H 314.073 3.30068 -2.53037 0
M  V30 3249 H 312.65 3.6561 -0.733721 0
M  V30 3250 N 314.835 0.952656 1.25548 0
M  V30 3251 C 316.112 0.523818 1.88456 0
M  V30 3252 C 316.492 -0.998871 1.85973 0
M  V30 3253 O 315.84 -1.86381 1.3219 0
M  V30 3254 C 316.05 1.0982 3.31271 0
M  V30 3255 C 317.398 1.17385 4.08051 0
M  V30 3256 O 318.422 1.04961 3.40384 0
M  V30 3257 O 317.281 1.36852 5.29088 0
M  V30 3258 H 314.375 0.172485 0.808813 0
M  V30 3259 H 316.921 1.04596 1.33633 0
M  V30 3260 H 315.693 2.1415 3.27499 0
M  V30 3261 H 315.316 0.559191 3.93648 0
M  V30 3262 N 316.313 -1.40141 0.720998 0
M  V30 3263 C 317.553 -2.02644 0.267335 0
M  V30 3264 C 317.917 -1.55948 -1.12001 0
M  V30 3265 O 319.118 -2.10552 -1.67097 0
M  V30 3266 C 317.389 -3.55679 0.350281 0
M  V30 3267 S 318.948 -4.38793 -0.0256004 0
M  V30 3268 H 315.766 -0.703105 0.105664 0
M  V30 3269 H 318.368 -1.71175 0.944416 0
M  V30 3270 H 317.072 -3.87157 1.36153 0
M  V30 3271 H 316.603 -3.91883 -0.345096 0
M  V30 3272 H 318.618 -4.803 -1.24604 0
M  V30 3273 N 317.792 -0.46758 -1.50504 0
M  V30 3274 C 319.022 0.086288 -2.0642 0
M  V30 3275 C 319.43 1.34369 -1.33197 0
M  V30 3276 O 318.773 1.79431 -0.393747 0
M  V30 3277 C 318.835 0.443846 -3.5675 0
M  V30 3278 C 318.499 -0.711035 -4.51435 0
M  V30 3279 C 319.496 -1.59205 -4.94924 0
M  V30 3280 C 317.181 -0.900363 -4.94165 0
M  V30 3281 C 319.175 -2.64683 -5.79846 0
M  V30 3282 C 316.862 -1.95837 -5.7887 0
M  V30 3283 C 317.86 -2.82997 -6.21612 0
M  V30 3284 O 317.548 -3.86977 -7.0463 0
M  V30 3285 H 317.28 -0.00217814 -0.675996 0
M  V30 3286 H 319.834 -0.654346 -1.94698 0
M  V30 3287 H 318.064 1.23762 -3.6636 0
M  V30 3288 H 319.753 0.932386 -3.95046 0
M  V30 3289 H 320.519 -1.45745 -4.62583 0
M  V30 3290 H 316.398 -0.231427 -4.60419 0
M  V30 3291 H 319.942 -3.32745 -6.13128 0
M  V30 3292 H 315.839 -2.09305 -6.10624 0
M  V30 3293 H 316.607 -3.83923 -7.22873 0
M  V30 3294 N 319.27 1.56325 -0.20005 0
M  V30 3295 C 320.517 1.97719 0.437411 0
M  V30 3296 C 320.845 1.08709 1.61284 0
M  V30 3297 O 320.1 0.127261 1.95286 0
M  V30 3298 C 320.399 3.4495 0.935103 0
M  V30 3299 C 320.065 4.5072 -0.12749 0
M  V30 3300 C 318.727 4.79368 -0.419451 0
M  V30 3301 C 321.079 5.14268 -0.847231 0
M  V30 3302 C 318.407 5.68854 -1.43604 0
M  V30 3303 C 320.759 6.04852 -1.85301 0
M  V30 3304 C 319.423 6.31855 -2.15211 0
M  V30 3305 H 318.693 0.723507 0.16006 0
M  V30 3306 H 321.34 1.89166 -0.298056 0
M  V30 3307 H 319.645 3.50599 1.74894 0
M  V30 3308 H 321.342 3.74337 1.43781 0
M  V30 3309 H 317.932 4.28458 0.11023 0
M  V30 3310 H 322.116 4.92222 -0.634901 0
M  V30 3311 H 317.372 5.88047 -1.67364 0
M  V30 3312 H 321.546 6.53152 -2.41591 0
M  V30 3313 H 319.173 7.00994 -2.94129 0
M  V30 3314 N 320.748 -0.0735177 1.57428 0
M  V30 3315 C 321.996 -0.771472 1.86796 0
M  V30 3316 C 322.317 -1.78201 0.791804 0
M  V30 3317 O 321.587 -1.95074 -0.179718 0
M  V30 3318 H 320.167 -0.28791 0.689287 0
M  V30 3319 H 322.829 -0.0500161 1.94836 0
M  V30 3320 H 321.925 -1.28874 2.8425 0
M  V30 3321 N 322.226 -1.5378 -0.344866 0
M  V30 3322 C 323.174 -1.82373 -1.4437 0
M  V30 3323 C 324.168 -0.694128 -1.54526 0
M  V30 3324 O 325.374 -0.877442 -1.57165 0
M  V30 3325 H 321.749 -0.577765 -0.481344 0
M  V30 3326 H 323.72 -2.74306 -1.17468 0
M  V30 3327 C 322.469 -2.04898 -2.80913 0
M  V30 3328 H 321.792 -2.9127 -2.73865 0
M  V30 3329 H 323.232 -2.28871 -3.56923 0
M  V30 3330 C 321.691 -0.834116 -3.26411 0
M  V30 3331 O 322.221 -0.0328885 -4.01687 0
M  V30 3332 N 320.427 -0.65171 -2.83198 0
M  V30 3333 H 319.974 -1.30489 -2.22104 0
M  V30 3334 H 319.932 0.159686 -3.13994 0
M  V30 3335 N 323.704 0.605807 -1.45491 0
M  V30 3336 C 324.952 1.36207 -1.49305 0
M  V30 3337 C 325.273 1.94519 -0.136863 0
M  V30 3338 O 324.543 1.77261 0.833983 0
M  V30 3339 H 323.123 0.50565 -0.549843 0
M  V30 3340 H 325.785 0.711239 -1.81459 0
M  V30 3341 H 324.881 2.18058 -2.23287 0
M  V30 3342 N 325.182 1.32811 0.848464 0
M  V30 3343 C 326.407 1.26882 1.6406 0
M  V30 3344 C 326.832 -0.15913 1.87426 0
M  V30 3345 O 326.19 -1.11258 1.43148 0
M  V30 3346 C 326.238 2.03997 2.97351 0
M  V30 3347 O 325.342 1.39201 3.88197 0
M  V30 3348 H 324.683 0.436982 0.499943 0
M  V30 3349 H 327.213 1.75224 1.0563 0
M  V30 3350 H 327.223 2.14403 3.47124 0
M  V30 3351 H 325.898 3.0783 2.79666 0
M  V30 3352 H 324.475 1.37381 3.46671 0
M  V30 3353 N 326.66 -1.06551 1.16123 0
M  V30 3354 C 327.623 -2.12132 0.867906 0
M  V30 3355 C 328.623 -1.60224 -0.135944 0
M  V30 3356 O 329.813 -1.73943 0.0946422 0
M  V30 3357 C 326.945 -3.396 0.297419 0
M  V30 3358 H 328.138 -2.39586 1.80385 0
M  V30 3359 H 325.691 -1.22574 0.969812 0
M  V30 3360 H 326.426 -3.17794 -0.64633 0
M  V30 3361 H 326.211 -3.78581 1.02073 0
M  V30 3362 H 327.701 -4.17455 0.110052 0
M  V30 3363 N 328.138 -0.959301 -1.25041 0
M  V30 3364 C 329.368 -0.63303 -1.96663 0
M  V30 3365 C 329.776 0.800031 -1.71453 0
M  V30 3366 O 329.119 1.54736 -0.99008 0
M  V30 3367 C 329.181 -0.817523 -3.50081 0
M  V30 3368 C 328.845 -2.22863 -3.98975 0
M  V30 3369 C 329.842 -3.20569 -4.09306 0
M  V30 3370 C 327.527 -2.55407 -4.32519 0
M  V30 3371 C 329.521 -4.4891 -4.52503 0
M  V30 3372 C 327.208 -3.83976 -4.754 0
M  V30 3373 C 328.206 -4.8054 -4.85356 0
M  V30 3374 O 327.894 -6.06817 -5.27284 0
M  V30 3375 H 327.626 -0.235866 -0.633516 0
M  V30 3376 H 330.18 -1.2874 -1.60047 0
M  V30 3377 H 328.41 -0.105992 -3.86555 0
M  V30 3378 H 330.099 -0.491604 -4.02912 0
M  V30 3379 H 330.865 -2.96753 -3.83618 0
M  V30 3380 H 326.744 -1.8097 -4.23994 0
M  V30 3381 H 330.288 -5.24283 -4.60188 0
M  V30 3382 H 326.185 -4.07596 -5.00535 0
M  V30 3383 H 326.953 -6.10262 -5.45457 0
M  V30 3384 N 329.616 1.39756 -0.72842 0
M  V30 3385 C 331.032 1.5442 -0.403308 0
M  V30 3386 C 331.232 1.69694 1.08656 0
M  V30 3387 O 330.288 1.69373 1.87267 0
M  V30 3388 C 331.601 2.76555 -1.18058 0
M  V30 3389 C 333.149 2.90384 -1.16815 0
M  V30 3390 C 333.624 4.15449 -1.92785 0
M  V30 3391 N 335.115 4.22475 -1.89918 0
M  V30 3392 C 335.85 5.1818 -2.45514 0
M  V30 3393 N 335.346 6.19714 -3.09719 0
M  V30 3394 N 337.139 5.1035 -2.35584 0
M  V30 3395 H 329.29 1.28089 -1.69431 0
M  V30 3396 H 331.553 0.620327 -0.716867 0
M  V30 3397 H 331.259 2.7159 -2.23455 0
M  V30 3398 H 331.133 3.69033 -0.780662 0
M  V30 3399 H 333.52 2.94846 -0.12234 0
M  V30 3400 H 333.601 1.98988 -1.6074 0
M  V30 3401 H 333.245 4.11749 -2.97364 0
M  V30 3402 H 333.175 5.05877 -1.46272 0
M  V30 3403 H 335.666 3.49743 -1.43138 0
M  V30 3404 H 335.979 6.8919 -3.49625 0
M  V30 3405 H 334.324 6.20121 -3.13807 0
M  V30 3406 H 337.515 4.2996 -1.85072 0
M  V30 3407 H 337.688 5.84761 -2.79211 0
M  V30 3408 N 331.094 0.475555 1.50254 0
M  V30 3409 C 332.342 -0.077738 2.0195 0
M  V30 3410 C 332.663 -1.39813 1.35931 0
M  V30 3411 O 331.933 -1.89249 0.506123 0
M  V30 3412 H 330.513 -0.031719 0.746326 0
M  V30 3413 H 333.175 0.626995 1.84539 0
M  V30 3414 H 332.271 -0.225995 3.11281 0
M  V30 3415 N 332.573 -1.56217 0.208337 0
M  V30 3416 C 333.801 -2.02337 -0.43215 0
M  V30 3417 C 334.216 -1.08834 -1.54275 0
M  V30 3418 O 333.573 -0.0955462 -1.8225 0
M  V30 3419 C 333.624 -3.48072 -0.976138 0
M  V30 3420 O 333.345 -4.38007 0.0901621 0
M  V30 3421 C 334.846 -4.09773 -1.69119 0
M  V30 3422 H 332.066 -0.662385 -0.10718 0
M  V30 3423 H 334.61 -2.01966 0.320923 0
M  V30 3424 H 332.765 -3.49099 -1.67954 0
M  V30 3425 H 333.179 -5.23543 -0.316701 0
M  V30 3426 H 334.653 -5.13556 -2.02397 0
M  V30 3427 H 335.13 -3.53999 -2.59964 0
M  V30 3428 H 335.736 -4.12556 -1.03332 0
M  V30 3429 N 334.051 0.0651679 -1.57465 0
M  V30 3430 C 335.001 1.0838 -2.00594 0
M  V30 3431 C 335.985 1.34106 -0.889071 0
M  V30 3432 O 337.177 1.34295 -1.15299 0
M  V30 3433 C 334.306 2.39565 -2.45894 0
M  V30 3434 C 333.392 2.17085 -3.64328 0
M  V30 3435 N 333.783 1.64553 -4.78285 0
M  V30 3436 C 332.081 2.4753 -3.71006 0
M  V30 3437 C 332.782 1.57042 -5.60101 0
M  V30 3438 N 331.758 2.03328 -5.04141 0
M  V30 3439 H 335.56 0.671062 -2.86136 0
M  V30 3440 H 333.074 0.27213 -1.60104 0
M  V30 3441 H 335.071 3.13308 -2.75034 0
M  V30 3442 H 333.731 2.81549 -1.61741 0
M  V30 3443 H 334.742 1.33323 -5.00445 0
M  V30 3444 H 331.419 2.92835 -2.9758 0
M  V30 3445 H 332.809 1.17223 -6.61595 0
M  V30 3446 N 335.529 1.53961 0.336706 0
M  V30 3447 C 336.754 1.75797 1.10046 0
M  V30 3448 C 337.179 0.498985 1.81361 0
M  V30 3449 O 336.537 -0.548769 1.72795 0
M  V30 3450 C 336.585 2.94257 2.08436 0
M  V30 3451 O 335.689 2.64883 3.16087 0
M  V30 3452 H 335.03 0.582936 0.317934 0
M  V30 3453 H 337.56 2.00945 0.38501 0
M  V30 3454 H 337.57 3.21237 2.51537 0
M  V30 3455 H 336.245 3.85564 1.55927 0
M  V30 3456 H 334.822 2.48812 2.77753 0
M  V30 3457 N 337.007 -0.598083 1.45811 0
M  V30 3458 C 337.937 -1.71873 1.58057 0
M  V30 3459 C 338.918 -1.64533 0.431615 0
M  V30 3460 O 340.103 -1.82787 0.65595 0
M  V30 3461 C 337.233 -3.10495 1.55597 0
M  V30 3462 C 336.187 -3.32654 2.69305 0
M  V30 3463 C 335.513 -4.71646 2.51902 0
M  V30 3464 C 336.813 -3.21981 4.11248 0
M  V30 3465 H 338.507 -1.61881 2.51863 0
M  V30 3466 H 336.053 -0.777372 1.21214 0
M  V30 3467 H 338.006 -3.88699 1.6276 0
M  V30 3468 H 336.73 -3.2135 0.583255 0
M  V30 3469 H 335.389 -2.56843 2.61586 0
M  V30 3470 H 335.037 -4.79246 1.52748 0
M  V30 3471 H 334.737 -4.87426 3.2816 0
M  V30 3472 H 336.261 -5.52038 2.60933 0
M  V30 3473 H 337.675 -3.90049 4.20161 0
M  V30 3474 H 336.072 -3.49289 4.87972 0
M  V30 3475 H 337.142 -2.1928 4.32486 0
M  V30 3476 N 338.485 -1.33259 -0.841409 0
M  V30 3477 C 339.713 -1.27605 -1.62864 0
M  V30 3478 C 340.128 0.153507 -1.88175 0
M  V30 3479 O 339.485 1.09485 -1.46011 0
M  V30 3480 C 339.536 -2.04596 -2.98031 0
M  V30 3481 O 339.257 -3.41975 -2.73834 0
M  V30 3482 C 340.758 -2.06122 -3.92465 0
M  V30 3483 H 337.978 -0.439718 -0.506842 0
M  V30 3484 H 340.522 -1.75591 -1.04824 0
M  V30 3485 H 338.677 -1.60299 -3.5268 0
M  V30 3486 H 339.091 -3.81549 -3.59889 0
M  V30 3487 H 340.565 -2.64451 -4.84531 0
M  V30 3488 H 341.042 -1.05083 -4.26444 0
M  V30 3489 H 341.648 -2.50427 -3.43753 0
M  V30 3490 N 339.963 1.05934 -1.16686 0
M  V30 3491 C 340.873 2.17014 -0.891183 0
M  V30 3492 C 341.889 1.73453 0.137907 0
M  V30 3493 O 343.065 2.01361 -0.039592 0
M  V30 3494 C 340.13 3.44384 -0.400099 0
M  V30 3495 C 339.191 4.02433 -1.49486 0
M  V30 3496 C 338.424 5.23723 -1.02711 0
M  V30 3497 O 338.647 5.7027 0.121716 0
M  V30 3498 O 337.581 5.7382 -1.81699 0
M  V30 3499 H 341.407 2.43113 -1.82015 0
M  V30 3500 H 338.992 1.15541 -0.947132 0
M  V30 3501 H 340.874 4.21189 -0.133392 0
M  V30 3502 H 339.549 3.19802 0.500817 0
M  V30 3503 H 338.456 3.27102 -1.81535 0
M  V30 3504 H 339.789 4.31317 -2.37121 0
M  V30 3505 N 341.441 0.965919 1.2453 0
M  V30 3506 C 342.666 0.643971 1.97149 0
M  V30 3507 C 343.091 -0.779487 1.71189 0
M  V30 3508 O 342.449 -1.5288 0.974553 0
M  V30 3509 C 342.497 0.922557 3.48599 0
M  V30 3510 O 341.601 0.00707672 4.12399 0
M  V30 3511 H 340.942 0.243647 0.617683 0
M  V30 3512 H 343.472 1.29558 1.58353 0
M  V30 3513 H 343.482 0.853373 3.98976 0
M  V30 3514 H 342.157 1.95996 3.66822 0
M  V30 3515 H 340.734 0.12943 3.72675 0
M  V30 3516 N 342.919 -1.39368 0.735821 0
M  V30 3517 C 344.167 -2.00101 0.283562 0
M  V30 3518 C 344.488 -1.5868 -1.13338 0
M  V30 3519 O 343.758 -0.835423 -1.77193 0
M  V30 3520 H 342.338 -0.740024 0.101851 0
M  V30 3521 H 345 -1.70404 0.945962 0
M  V30 3522 H 344.096 -3.10323 0.332604 0
M  V30 3523 N 344.397 -0.483516 -1.5 0
M  V30 3524 C 345.36 0.292965 -2.2732 0
M  V30 3525 C 346.36 0.909499 -1.32608 0
M  V30 3526 O 347.55 0.776745 -1.55924 0
M  V30 3527 C 344.682 1.41854 -3.09984 0
M  V30 3528 H 345.875 -0.385289 -2.97415 0
M  V30 3529 H 343.428 -0.237942 -1.54478 0
M  V30 3530 H 344.163 2.13148 -2.44414 0
M  V30 3531 H 343.948 0.982114 -3.79601 0
M  V30 3532 H 345.438 1.96597 -3.68429 0
M  V30 3533 N 345.875 1.56104 -0.216619 0
M  V30 3534 C 347.1 2.0301 0.424462 0
M  V30 3535 C 347.525 1.0955 1.52907 0
M  V30 3536 O 346.883 0.0827914 1.81111 0
M  V30 3537 C 346.931 3.4819 0.937883 0
M  V30 3538 O 346.035 3.57865 2.04955 0
M  V30 3539 H 345.376 0.656925 0.0966755 0
M  V30 3540 H 347.906 2.01859 -0.33381 0
M  V30 3541 H 347.916 3.88413 1.24897 0
M  V30 3542 H 346.591 4.15699 0.129387 0
M  V30 3543 H 345.168 3.29527 1.74546 0
M  V30 3544 N 347.353 -0.0568162 1.57498 0
M  V30 3545 C 348.593 -0.758273 1.89815 0
M  V30 3546 C 348.957 -1.73978 0.812132 0
M  V30 3547 O 350.158 -2.48744 1.01881 0
M  V30 3548 C 348.429 -1.43465 3.27342 0
M  V30 3549 S 349.988 -2.1691 3.81439 0
M  V30 3550 H 346.806 -0.251836 0.664906 0
M  V30 3551 H 349.408 -0.0137997 1.95495 0
M  V30 3552 H 348.112 -0.706693 4.0427 0
M  V30 3553 H 347.643 -2.21825 3.24896 0
M  V30 3554 H 349.658 -3.43658 3.5793 0
M  V30 3555 N 348.832 -1.54138 -0.328536 0
M  V30 3556 C 349.762 -1.86167 -1.40939 0
M  V30 3557 C 350.743 -0.718044 -1.54202 0
M  V30 3558 O 351.928 -0.971328 -1.68163 0
M  V30 3559 C 349.058 -2.08461 -2.77779 0
M  V30 3560 C 348.012 -3.24299 -2.7931 0
M  V30 3561 C 347.338 -3.31955 -4.19178 0
M  V30 3562 C 348.638 -4.62065 -2.43502 0
M  V30 3563 H 350.332 -2.76689 -1.14383 0
M  V30 3564 H 347.878 -1.33132 -0.548806 0
M  V30 3565 H 349.831 -2.29453 -3.53454 0
M  V30 3566 H 348.555 -1.14684 -3.05802 0
M  V30 3567 H 347.214 -3.03187 -2.0609 0
M  V30 3568 H 346.862 -2.35745 -4.44335 0
M  V30 3569 H 346.562 -4.09805 -4.2111 0
M  V30 3570 H 348.086 -3.55175 -4.96672 0
M  V30 3571 H 349.5 -4.8297 -3.08889 0
M  V30 3572 H 347.897 -5.42429 -2.56693 0
M  V30 3573 H 348.967 -4.64652 -1.38659 0
M  V30 3574 N 350.31 0.590341 -1.46126 0
M  V30 3575 C 351.721 1.17243 -1.45296 0
M  V30 3576 C 352.072 1.95281 -0.189723 0
M  V30 3577 O 351.197 2.04502 0.707674 0
M  V30 3578 C 351.792 2.13284 -2.6324 0
M  V30 3579 C 350.351 2.66832 -2.65476 0
M  V30 3580 C 349.498 1.42557 -2.3785 0
M  V30 3581 H 352.449 0.378692 -1.54116 0
M  V30 3582 H 352.47 2.96619 -2.38323 0
M  V30 3583 H 351.982 1.56459 -3.55165 0
M  V30 3584 H 350.083 3.27548 -1.77603 0
M  V30 3585 H 350.196 3.10088 -3.65215 0
M  V30 3586 H 348.56 1.72107 -1.87753 0
M  V30 3587 H 349.343 0.875741 -3.31942 0
M  V30 3588 N 351.788 1.33704 0.83433 0
M  V30 3589 C 353.034 1.26612 1.59188 0
M  V30 3590 C 353.389 -0.165439 1.91687 0
M  V30 3591 O 352.682 -1.10873 1.56262 0
M  V30 3592 C 352.876 2.07926 2.90692 0
M  V30 3593 C 352.705 3.58844 2.71038 0
M  V30 3594 C 351.475 4.28148 2.68361 0
M  V30 3595 C 353.673 4.53082 2.43353 0
M  V30 3596 N 351.655 5.64987 2.40132 0
M  V30 3597 C 353.026 5.77843 2.24716 0
M  V30 3598 C 355.081 4.42119 2.28987 0
M  V30 3599 C 353.784 6.92877 1.9317 0
M  V30 3600 C 355.81 5.56973 1.98835 0
M  V30 3601 C 355.172 6.80745 1.81012 0
M  V30 3602 H 351.271 0.518517 0.585375 0
M  V30 3603 H 353.855 1.68294 0.979044 0
M  V30 3604 H 352.026 1.68558 3.49918 0
M  V30 3605 H 353.758 1.92568 3.55949 0
M  V30 3606 H 350.513 3.80469 2.82029 0
M  V30 3607 H 350.937 6.37133 2.28889 0
M  V30 3608 H 355.579 3.47058 2.41477 0
M  V30 3609 H 353.297 7.87931 1.79418 0
M  V30 3610 H 356.883 5.50428 1.88468 0
M  V30 3611 H 355.763 7.68115 1.58017 0
M  V30 3612 N 353.266 -1.05314 1.17247 0
M  V30 3613 C 354.214 -2.15137 0.884238 0
M  V30 3614 C 355.208 -1.68729 -0.15063 0
M  V30 3615 O 356.414 -1.8 -0.00366673 0
M  V30 3616 H 352.789 -0.702471 0.2684 0
M  V30 3617 H 354.76 -2.36652 1.81764 0
M  V30 3618 C 353.509 -3.45243 0.412659 0
M  V30 3619 H 352.832 -3.81352 1.20043 0
M  V30 3620 H 354.272 -4.23263 0.249858 0
M  V30 3621 C 352.731 -3.25487 -0.86948 0
M  V30 3622 O 353.261 -3.51938 -1.93655 0
M  V30 3623 N 351.467 -2.78875 -0.817147 0
M  V30 3624 H 351.014 -2.57549 0.0514211 0
M  V30 3625 H 350.972 -2.66036 -1.67547 0
M  V30 3626 N 354.744 -0.972509 -1.24016 0
M  V30 3627 C 355.969 -0.654417 -1.96805 0
M  V30 3628 C 356.394 0.770398 -1.716 0
M  V30 3629 O 355.752 1.52361 -0.982647 0
M  V30 3630 C 355.8 -0.941031 -3.48105 0
M  V30 3631 O 354.904 -0.0289472 -4.1239 0
M  V30 3632 H 354.245 -0.24692 -0.616382 0
M  V30 3633 H 356.775 -1.30396 -1.57664 0
M  V30 3634 H 356.785 -0.87452 -3.98517 0
M  V30 3635 H 355.46 -1.97939 -3.65777 0
M  V30 3636 H 354.037 -0.149192 -3.72601 0
M  V30 3637 N 356.222 1.38976 -0.743202 0
M  V30 3638 C 357.155 2.28128 -0.0572165 0
M  V30 3639 C 358.133 1.44827 0.739182 0
M  V30 3640 O 359.317 1.74207 0.720009 0
M  V30 3641 C 356.444 3.25796 0.926001 0
M  V30 3642 C 355.49 4.25947 0.217099 0
M  V30 3643 S 356.323 5.24604 -1.07477 0
M  V30 3644 C 357.479 6.25829 -0.0943545 0
M  V30 3645 H 357.712 2.85961 -0.813246 0
M  V30 3646 H 355.245 1.44822 -0.535341 0
M  V30 3647 H 357.203 3.82583 1.48797 0
M  V30 3648 H 355.864 2.66966 1.65493 0
M  V30 3649 H 355.057 4.94746 0.961372 0
M  V30 3650 H 354.659 3.73002 -0.273059 0
M  V30 3651 H 356.951 6.73411 0.743239 0
M  V30 3652 H 357.894 7.0412 -0.749713 0
M  V30 3653 H 358.302 5.63797 0.281706 0
M  V30 3654 N 357.7 0.491464 1.49741 0
M  V30 3655 C 358.949 -0.0582189 2.01616 0
M  V30 3656 C 359.262 -1.38927 1.3769 0
M  V30 3657 O 360.468 -2.02509 1.80838 0
M  V30 3658 C 358.924 -0.154235 3.59569 0
M  V30 3659 C 358.532 1.1696 4.32463 0
M  V30 3660 C 360.276 -0.65479 4.1942 0
M  V30 3661 C 358.183 1.03627 5.8225 0
M  V30 3662 H 357.113 -0.0255317 0.753568 0
M  V30 3663 H 359.764 0.629445 1.72367 0
M  V30 3664 H 358.146 -0.906138 3.85493 0
M  V30 3665 H 359.32 1.93405 4.18248 0
M  V30 3666 H 357.635 1.60285 3.84315 0
M  V30 3667 H 360.232 -0.771903 5.29099 0
M  V30 3668 H 360.575 -1.65127 3.8215 0
M  V30 3669 H 361.108 0.040304 3.9778 0
M  V30 3670 H 357.847 2.00672 6.24028 0
M  V30 3671 H 357.367 0.312546 5.98985 0
M  V30 3672 H 359.046 0.711114 6.4308 0
M  V30 3673 N 359.178 -1.55987 0.224894 0
M  V30 3674 C 360.108 -2.23426 -0.678457 0
M  V30 3675 C 361.089 -1.20709 -1.19847 0
M  V30 3676 O 362.274 -1.49304 -1.24186 0
M  V30 3677 C 359.404 -2.91676 -1.88527 0
M  V30 3678 C 358.358 -4.00893 -1.49896 0
M  V30 3679 C 357.684 -4.56455 -2.78483 0
M  V30 3680 C 358.984 -5.17769 -0.686461 0
M  V30 3681 H 360.678 -2.99175 -0.116173 0
M  V30 3682 H 358.224 -1.43897 -0.054436 0
M  V30 3683 H 360.177 -3.37547 -2.5227 0
M  V30 3684 H 358.901 -2.1338 -2.47258 0
M  V30 3685 H 357.56 -3.55758 -0.884985 0
M  V30 3686 H 357.208 -3.74886 -3.35365 0
M  V30 3687 H 356.908 -5.30169 -2.53368 0
M  V30 3688 H 358.432 -5.05047 -3.43162 0
M  V30 3689 H 359.846 -5.60001 -1.22767 0
M  V30 3690 H 358.243 -5.97735 -0.532259 0
M  V30 3691 H 359.313 -4.83932 0.306196 0
M  V30 3692 N 360.656 0.0484629 -1.57525 0
M  V30 3693 C 361.905 0.742065 -1.87553 0
M  V30 3694 C 362.218 1.77545 -0.820802 0
M  V30 3695 O 363.424 2.52027 -1.00967 0
M  V30 3696 C 361.88 1.37081 -3.32771 0
M  V30 3697 C 361.488 0.374786 -4.4643 0
M  V30 3698 C 363.232 2.04542 -3.71972 0
M  V30 3699 C 361.139 1.01077 -5.82698 0
M  V30 3700 H 360.069 0.280903 -0.699721 0
M  V30 3701 H 362.72 -0.00411877 -1.835 0
M  V30 3702 H 361.102 2.16605 -3.31509 0
M  V30 3703 H 362.276 -0.392331 -4.59127 0
M  V30 3704 H 360.591 -0.196653 -4.15935 0
M  V30 3705 H 363.188 2.52943 -4.71088 0
M  V30 3706 H 363.531 2.85515 -3.02964 0
M  V30 3707 H 364.064 1.31819 -3.75325 0
M  V30 3708 H 360.803 0.240878 -6.55057 0
M  V30 3709 H 360.323 1.74819 -5.73758 0
M  V30 3710 H 362.002 1.52383 -6.28799 0
M  V30 3711 N 362.134 1.5431 0.320358 0
M  V30 3712 C 363.382 1.72327 1.05583 0
M  V30 3713 C 363.703 0.50149 1.88441 0
M  V30 3714 O 362.973 -0.48448 1.89815 0
M  V30 3715 H 361.553 0.635387 0.3928 0
M  V30 3716 H 364.215 1.91621 0.356019 0
M  V30 3717 H 363.311 2.60426 1.72003 0
M  V30 3718 N 363.613 -0.582584 1.46437 0
M  V30 3719 C 364.56 -1.69164 1.5701 0
M  V30 3720 C 365.53 -1.60847 0.414403 0
M  V30 3721 O 366.715 -1.80058 0.631171 0
M  V30 3722 C 363.855 -3.075 1.56646 0
M  V30 3723 C 362.968 -3.2644 2.82951 0
M  V30 3724 C 362.103 -4.55026 2.7409 0
M  V30 3725 C 361.142 -4.6731 3.95333 0
M  V30 3726 N 360.279 -5.87221 3.84858 0
M  V30 3727 H 365.119 -1.59464 2.51744 0
M  V30 3728 H 362.656 -0.777186 1.24893 0
M  V30 3729 H 364.614 -3.8757 1.5442 0
M  V30 3730 H 363.244 -3.16096 0.654439 0
M  V30 3731 H 362.296 -2.39974 2.95155 0
M  V30 3732 H 363.608 -3.31385 3.72808 0
M  V30 3733 H 362.762 -5.43324 2.6997 0
M  V30 3734 H 361.501 -4.52519 1.81873 0
M  V30 3735 H 360.506 -3.77429 3.99784 0
M  V30 3736 H 361.731 -4.71595 4.88646 0
M  V30 3737 H 359.677 -5.85712 2.95427 0
M  V30 3738 H 359.594 -5.93435 4.6837 0
M  V30 3739 H 360.862 -6.7795 3.84713 0
M  V30 3740 N 365.091 -1.34144 -0.827227 0
M  V30 3741 C 366.337 -1.26446 -1.58554 0
M  V30 3742 C 366.67 0.1664 -1.93486 0
M  V30 3743 O 365.945 1.1107 -1.59667 0
M  V30 3744 C 366.228 -2.15111 -2.8879 0
M  V30 3745 C 366.081 -3.66712 -2.60465 0
M  V30 3746 C 367.4 -2.03311 -3.90324 0
M  V30 3747 H 364.519 -0.46067 -0.575284 0
M  V30 3748 H 367.161 -1.64356 -0.953269 0
M  V30 3749 H 365.311 -1.8291 -3.42748 0
M  V30 3750 H 366.983 -4.09259 -2.1285 0
M  V30 3751 H 365.226 -3.88014 -1.93978 0
M  V30 3752 H 365.897 -4.24112 -3.53317 0
M  V30 3753 H 368.373 -2.31574 -3.45706 0
M  V30 3754 H 367.249 -2.67582 -4.79261 0
M  V30 3755 H 367.51 -1.00879 -4.30437 0
M  V30 3756 N 366.569 1.04691 -1.17803 0
M  V30 3757 C 367.799 1.81183 -0.992788 0
M  V30 3758 C 368.207 1.8347 0.462098 0
M  V30 3759 O 367.55 1.2643 1.33271 0
M  V30 3760 C 367.612 3.28363 -1.46349 0
M  V30 3761 C 367.276 3.49749 -2.94151 0
M  V30 3762 C 368.273 3.41456 -3.92051 0
M  V30 3763 C 365.958 3.76548 -3.32441 0
M  V30 3764 C 367.952 3.59656 -5.26238 0
M  V30 3765 C 365.639 3.94396 -4.66792 0
M  V30 3766 C 366.637 3.8595 -5.635 0
M  V30 3767 O 366.325 4.03294 -6.9542 0
M  V30 3768 H 366.057 0.577622 -0.351182 0
M  V30 3769 H 368.611 1.32876 -1.5663 0
M  V30 3770 H 366.841 3.77609 -0.833574 0
M  V30 3771 H 368.53 3.86395 -1.24313 0
M  V30 3772 H 369.296 3.20723 -3.63815 0
M  V30 3773 H 365.175 3.82224 -2.57732 0
M  V30 3774 H 368.719 3.52979 -6.01707 0
M  V30 3775 H 364.616 4.14622 -4.94731 0
M  V30 3776 H 365.384 4.2049 -7.02232 0
M  V30 3777 N 368.047 0.979072 1.23499 0
M  V30 3778 C 369.275 0.665202 1.95915 0
M  V30 3779 C 369.69 -0.767571 1.72493 0
M  V30 3780 O 369.047 -1.51635 1.01554 0
M  V30 3781 C 369.098 0.944438 3.48945 0
M  V30 3782 O 368.819 2.3209 3.71572 0
M  V30 3783 C 370.32 0.646336 4.38563 0
M  V30 3784 H 367.54 0.247218 0.623798 0
M  V30 3785 H 370.084 1.31009 1.57025 0
M  V30 3786 H 368.239 0.345575 3.85856 0
M  V30 3787 H 368.653 2.40957 4.65876 0
M  V30 3788 H 370.127 0.892091 5.44744 0
M  V30 3789 H 370.604 -0.419575 4.37191 0
M  V30 3790 H 371.21 1.22562 4.07258 0
M  V30 3791 N 369.525 -1.3858 0.750561 0
M  V30 3792 C 370.488 -2.28836 0.129152 0
M  V30 3793 C 371.488 -1.47045 -0.650714 0
M  V30 3794 O 372.678 -1.6753 -0.477428 0
M  V30 3795 C 369.81 -3.30751 -0.825622 0
M  V30 3796 H 371.003 -2.85294 0.924516 0
M  V30 3797 H 368.556 -1.47489 0.517376 0
M  V30 3798 H 369.291 -2.79378 -1.64677 0
M  V30 3799 H 369.076 -3.91177 -0.268852 0
M  V30 3800 H 370.566 -3.98249 -1.2565 0
M  V30 3801 N 371.003 -0.499398 -1.49478 0
M  V30 3802 C 371.935 0.316575 -2.27003 0
M  V30 3803 C 372.948 0.932047 -1.33479 0
M  V30 3804 O 374.137 0.815658 -1.58774 0
M  V30 3805 C 371.237 1.46055 -3.05812 0
M  V30 3806 C 370.41 0.952679 -4.26899 0
M  V30 3807 C 369.469 1.97407 -4.87767 0
M  V30 3808 O 368.495 1.54326 -5.4788 0
M  V30 3809 N 369.697 3.30436 -4.77276 0
M  V30 3810 H 372.462 -0.348168 -2.97671 0
M  V30 3811 H 370.023 -0.33185 -1.58463 0
M  V30 3812 H 372.015 2.14135 -3.43407 0
M  V30 3813 H 370.585 2.02948 -2.37762 0
M  V30 3814 H 369.805 0.0968248 -3.94081 0
M  V30 3815 H 371.093 0.59174 -5.05347 0
M  V30 3816 H 370.491 3.68126 -4.29534 0
M  V30 3817 H 369.048 3.94235 -5.19059 0
M  V30 3818 N 372.481 1.55866 -0.233164 0
M  V30 3819 C 373.429 2.22176 0.68851 0
M  V30 3820 C 374.423 1.20487 1.19076 0
M  V30 3821 O 375.629 1.38536 1.14925 0
M  V30 3822 H 372.004 0.712511 0.240483 0
M  V30 3823 H 373.975 2.98212 0.105935 0
M  V30 3824 C 372.724 2.92446 1.88071 0
M  V30 3825 H 372.047 3.70458 1.50337 0
M  V30 3826 H 373.487 3.42226 2.50314 0
M  V30 3827 C 371.946 1.95555 2.74335 0
M  V30 3828 O 372.476 1.47986 3.73447 0
M  V30 3829 N 370.682 1.62953 2.40613 0
M  V30 3830 H 370.229 2.01831 1.60069 0
M  V30 3831 H 370.187 0.983886 2.98609 0
M  V30 3832 N 373.959 -0.0401083 1.57549 0
M  V30 3833 C 375.37 -0.588097 1.77196 0
M  V30 3834 C 375.721 -1.76209 0.862832 0
M  V30 3835 O 374.846 -2.16331 0.0548389 0
M  V30 3836 C 375.441 -1.07363 3.21339 0
M  V30 3837 C 374 -1.56723 3.42221 0
M  V30 3838 C 373.147 -0.50041 2.72747 0
M  V30 3839 H 376.098 0.186119 1.57605 0
M  V30 3840 H 376.119 -1.94143 3.27244 0
M  V30 3841 H 375.631 -0.218975 3.87482 0
M  V30 3842 H 373.732 -2.4441 2.81237 0
M  V30 3843 H 373.845 -1.62234 4.50796 0
M  V30 3844 H 372.209 -0.952894 2.36203 0
M  V30 3845 H 372.992 0.344599 3.41566 0
M  V30 3846 N 375.437 -1.54477 -0.31217 0
M  V30 3847 C 376.662 -1.77526 -1.07235 0
M  V30 3848 C 377.087 -0.527775 -1.80544 0
M  V30 3849 O 376.445 0.52121 -1.73646 0
M  V30 3850 C 376.493 -2.97535 -2.03728 0
M  V30 3851 O 375.597 -2.69878 -3.11833 0
M  V30 3852 H 374.938 -0.58792 -0.30862 0
M  V30 3853 H 377.468 -2.01532 -0.352993 0
M  V30 3854 H 377.478 -3.25198 -2.46395 0
M  V30 3855 H 376.153 -3.87996 -1.49774 0
M  V30 3856 H 374.73 -2.53199 -2.7376 0
M  V30 3857 N 376.915 0.57481 -1.46744 0
M  V30 3858 C 377.878 1.66533 -1.57478 0
M  V30 3859 C 378.878 1.54338 -0.451263 0
M  V30 3860 O 380.068 1.58814 -0.715813 0
M  V30 3861 C 377.2 3.05999 -1.50259 0
M  V30 3862 H 378.393 1.58372 -2.54673 0
M  V30 3863 H 375.946 0.793301 -1.34672 0
M  V30 3864 H 376.681 3.19709 -0.543725 0
M  V30 3865 H 376.466 3.16259 -2.31781 0
M  V30 3866 H 377.956 3.8537 -1.60872 0
M  V30 3867 N 378.394 1.34581 0.820102 0
M  V30 3868 C 379.326 1.22236 1.93884 0
M  V30 3869 C 380.339 0.148776 1.62119 0
M  V30 3870 O 381.528 0.400877 1.7394 0
M  V30 3871 C 378.628 0.856542 3.27897 0
M  V30 3872 C 377.801 2.02569 3.87666 0
M  V30 3873 C 376.86 1.63782 5.00062 0
M  V30 3874 O 375.886 2.35477 5.18208 0
M  V30 3875 N 377.088 0.553611 5.77854 0
M  V30 3876 H 379.853 2.18615 2.05006 0
M  V30 3877 H 377.414 1.27573 0.99683 0
M  V30 3878 H 379.406 0.578806 4.0054 0
M  V30 3879 H 377.976 -0.0171518 3.12595 0
M  V30 3880 H 377.196 2.468 3.07382 0
M  V30 3881 H 378.484 2.80752 4.24329 0
M  V30 3882 H 377.882 -0.0423528 5.65684 0
M  V30 3883 H 376.439 0.335614 6.50935 0
M  V30 3884 N 379.872 -1.04064 1.18357 0
M  V30 3885 C 380.835 -2.10243 0.912707 0
M  V30 3886 C 381.835 -1.60477 -0.101928 0
M  V30 3887 O 383.025 -1.73703 0.131517 0
M  V30 3888 C 380.157 -3.38893 0.369387 0
M  V30 3889 H 381.35 -2.35706 1.85426 0
M  V30 3890 H 378.903 -1.20489 0.995594 0
M  V30 3891 H 379.638 -3.19094 -0.578776 0
M  V30 3892 H 379.423 -3.76331 1.1008 0
M  V30 3893 H 380.913 -4.17128 0.198575 0
M  V30 3894 N 381.35 -0.985608 -1.22978 0
M  V30 3895 C 382.28 -0.549649 -2.26939 0
M  V30 3896 C 383.261 0.419803 -1.64838 0
M  V30 3897 O 384.446 0.31203 -1.91677 0
M  V30 3898 C 381.576 0.143652 -3.47003 0
M  V30 3899 C 380.53 -0.743606 -4.21491 0
M  V30 3900 C 379.856 0.0822027 -5.34637 0
M  V30 3901 C 381.156 -2.03694 -4.80943 0
M  V30 3902 H 382.85 -1.41862 -2.63658 0
M  V30 3903 H 380.396 -0.683571 -1.26741 0
M  V30 3904 H 382.349 0.459985 -4.18882 0
M  V30 3905 H 381.073 1.04711 -3.09359 0
M  V30 3906 H 379.732 -1.04347 -3.51436 0
M  V30 3907 H 379.38 0.986359 -4.93234 0
M  V30 3908 H 379.08 -0.508377 -5.85397 0
M  V30 3909 H 380.604 0.392797 -6.09335 0
M  V30 3910 H 382.018 -1.78504 -5.44802 0
M  V30 3911 H 380.415 -2.57573 -5.42011 0
M  V30 3912 H 381.485 -2.72042 -4.01399 0
M  V30 3913 N 382.828 1.3818 -0.7579 0
M  V30 3914 C 384.076 1.99624 -0.315361 0
M  V30 3915 C 384.397 1.60464 1.10799 0
M  V30 3916 O 383.667 0.863507 1.75842 0
M  V30 3917 H 382.247 0.73831 -0.113611 0
M  V30 3918 H 384.909 1.68878 -0.972952 0
M  V30 3919 H 384.005 3.09754 -0.381931 0
M  V30 3920 N 384.306 0.507319 1.49211 0
M  V30 3921 C 385.236 -0.256939 2.32082 0
M  V30 3922 C 386.217 -0.956609 1.40652 0
M  V30 3923 O 387.402 -0.946788 1.69557 0
M  V30 3924 C 384.532 -1.31802 3.21318 0
M  V30 3925 C 383.486 -0.737855 4.21592 0
M  V30 3926 C 382.812 -1.89992 4.99807 0
M  V30 3927 C 384.112 0.275325 5.21574 0
M  V30 3928 H 385.806 0.434798 2.96226 0
M  V30 3929 H 383.352 0.210546 1.42452 0
M  V30 3930 H 385.305 -1.86045 3.78107 0
M  V30 3931 H 384.029 -2.03903 2.5513 0
M  V30 3932 H 382.688 -0.217126 3.65956 0
M  V30 3933 H 382.336 -2.60877 4.30061 0
M  V30 3934 H 382.036 -1.51777 5.6766 0
M  V30 3935 H 383.56 -2.44657 5.59442 0
M  V30 3936 H 384.974 -0.179193 5.7302 0
M  V30 3937 H 383.371 0.573649 5.97352 0
M  V30 3938 H 384.441 1.18903 4.70096 0
M  V30 3939 N 385.784 -1.5574 0.241426 0
M  V30 3940 C 387.032 -1.98417 -0.384075 0
M  V30 3941 C 387.353 -1.13078 -1.58866 0
M  V30 3942 O 386.623 -0.212312 -1.94746 0
M  V30 3943 H 385.203 -0.732813 -0.144894 0
M  V30 3944 H 387.865 -1.9193 0.338943 0
M  V30 3945 H 386.961 -3.04219 -0.696939 0
M  V30 3946 N 387.262 0.0317525 -1.57568 0
M  V30 3947 C 388.209 1.0332 -2.06382 0
M  V30 3948 C 389.179 1.36082 -0.952414 0
M  V30 3949 O 390.364 1.46466 -1.2228 0
M  V30 3950 C 387.504 2.32989 -2.54578 0
M  V30 3951 C 386.617 2.0641 -3.79498 0
M  V30 3952 C 385.752 3.2993 -4.16317 0
M  V30 3953 C 384.791 2.98893 -5.34162 0
M  V30 3954 N 383.928 4.14857 -5.66426 0
M  V30 3955 H 388.768 0.609982 -2.9169 0
M  V30 3956 H 386.305 0.289573 -1.44222 0
M  V30 3957 H 388.263 3.0875 -2.80587 0
M  V30 3958 H 386.893 2.73039 -1.7219 0
M  V30 3959 H 385.945 1.21158 -3.6059 0
M  V30 3960 H 387.257 1.79513 -4.65378 0
M  V30 3961 H 386.411 4.1406 -4.4344 0
M  V30 3962 H 385.15 3.59938 -3.29083 0
M  V30 3963 H 384.155 2.13164 -5.06795 0
M  V30 3964 H 385.38 2.70165 -6.23047 0
M  V30 3965 H 383.326 4.44821 -4.82151 0
M  V30 3966 H 383.243 3.91374 -6.4681 0
M  V30 3967 H 384.511 4.99868 -5.98124 0
M  V30 3968 N 388.74 1.54641 0.303973 0
M  V30 3969 C 389.69 1.8177 1.37636 0
M  V30 3970 C 390.674 0.674697 1.46071 0
M  V30 3971 O 391.866 0.935251 1.50273 0
M  V30 3972 C 388.995 2.06584 2.74186 0
M  V30 3973 C 388.081 3.2706 2.69986 0
M  V30 3974 N 388.472 4.47682 2.35402 0
M  V30 3975 C 386.77 3.29028 3.01092 0
M  V30 3976 C 387.471 5.29689 2.40426 0
M  V30 3977 N 386.447 4.67339 2.7766 0
M  V30 3978 H 390.249 2.72596 1.09857 0
M  V30 3979 H 387.763 1.541 0.51254 0
M  V30 3980 H 389.76 2.24166 3.51504 0
M  V30 3981 H 388.42 1.17024 3.02879 0
M  V30 3982 H 389.431 4.74336 2.07908 0
M  V30 3983 H 386.108 2.49565 3.34699 0
M  V30 3984 H 387.498 6.3606 2.16512 0
M  V30 3985 N 390.218 -0.567019 1.47046 0
M  V30 3986 C 391.166 -1.69593 1.59188 0
M  V30 3987 C 392.16 -1.63046 0.459609 0
M  V30 3988 O 393.366 -1.6835 0.637058 0
M  V30 3989 H 389.741 -0.560993 0.500791 0
M  V30 3990 H 391.712 -1.56488 2.54075 0
M  V30 3991 C 390.461 -3.07964 1.61411 0
M  V30 3992 H 389.784 -3.13679 2.47881 0
M  V30 3993 H 391.224 -3.86671 1.73958 0
M  V30 3994 C 389.683 -3.35123 0.34559 0
M  V30 3995 O 390.213 -3.97812 -0.557521 0
M  V30 3996 N 388.419 -2.89699 0.22864 0
M  V30 3997 H 387.966 -2.38863 0.964479 0
M  V30 3998 H 387.924 -3.08242 -0.619192 0
M  V30 3999 N 391.696 -1.35014 -0.812953 0
M  V30 4000 C 392.926 -1.30841 -1.59888 0
M  V30 4001 C 393.334 0.117576 -1.88834 0
M  V30 4002 O 392.677 1.07807 -1.48739 0
M  V30 4003 C 392.739 -2.0412 -2.95931 0
M  V30 4004 C 392.403 -3.53336 -2.89832 0
M  V30 4005 C 393.4 -4.48052 -2.63714 0
M  V30 4006 C 391.085 -3.95894 -3.0915 0
M  V30 4007 C 393.079 -5.833 -2.56982 0
M  V30 4008 C 390.766 -5.31239 -3.0204 0
M  V30 4009 C 391.764 -6.24754 -2.75991 0
M  V30 4010 O 391.452 -7.57617 -2.68833 0
M  V30 4011 H 391.184 -0.451215 -0.50337 0
M  V30 4012 H 393.738 -1.78354 -1.01877 0
M  V30 4013 H 391.968 -1.51235 -3.559 0
M  V30 4014 H 393.657 -1.93107 -3.57022 0
M  V30 4015 H 394.423 -4.16492 -2.48515 0
M  V30 4016 H 390.302 -3.23495 -3.28438 0
M  V30 4017 H 393.846 -6.56263 -2.36569 0
M  V30 4018 H 389.743 -5.62415 -3.16796 0
M  V30 4019 H 390.511 -7.67469 -2.84487 0
M  V30 4020 N 393.175 1.03435 -1.18907 0
M  V30 4021 C 394.415 1.78302 -0.999391 0
M  V30 4022 C 394.779 1.86353 0.462219 0
M  V30 4023 O 395.98 2.57489 0.771543 0
M  V30 4024 C 394.251 3.17362 -1.64365 0
M  V30 4025 S 395.81 4.08488 -1.6026 0
M  V30 4026 H 392.628 0.613861 -0.358742 0
M  V30 4027 H 395.23 1.23979 -1.51161 0
M  V30 4028 H 393.934 3.09116 -2.69955 0
M  V30 4029 H 393.465 3.76762 -1.13199 0
M  V30 4030 H 395.48 4.92274 -0.622932 0
M  V30 4031 N 394.653 0.992116 1.22453 0
M  V30 4032 C 396.069 0.702713 1.43297 0
M  V30 4033 C 396.269 -0.726909 1.87932 0
M  V30 4034 O 395.325 -1.49792 2.0327 0
M  V30 4035 C 396.638 1.70762 2.47509 0
M  V30 4036 C 398.186 1.72298 2.61309 0
M  V30 4037 C 398.661 2.71649 3.68742 0
M  V30 4038 N 400.152 2.70239 3.76199 0
M  V30 4039 C 400.887 3.43778 4.58917 0
M  V30 4040 N 400.383 4.26914 5.45633 0
M  V30 4041 N 402.176 3.32487 4.5322 0
M  V30 4042 H 394.327 1.91543 0.917871 0
M  V30 4043 H 396.59 0.826031 0.465162 0
M  V30 4044 H 396.296 2.73059 2.21657 0
M  V30 4045 H 396.17 1.49985 3.46099 0
M  V30 4046 H 398.557 0.706989 2.86506 0
M  V30 4047 H 398.638 1.97143 1.62997 0
M  V30 4048 H 398.282 3.73397 3.44292 0
M  V30 4049 H 398.212 2.44074 4.66622 0
M  V30 4050 H 400.703 2.09912 3.14237 0
M  V30 4051 H 401.016 4.79855 6.05771 0
M  V30 4052 H 399.361 4.31002 5.45218 0
M  V30 4053 H 402.552 2.6698 3.84499 0
M  V30 4054 H 402.725 3.90058 5.17454 0
M  V30 4055 N 396.131 -1.37776 0.765217 0
M  V30 4056 C 397.079 -2.32209 0.134798 0
M  V30 4057 C 398.073 -1.54607 -0.692315 0
M  V30 4058 O 399.279 -1.70052 -0.590109 0
M  V30 4059 H 395.654 -0.751591 0.0248005 0
M  V30 4060 H 397.625 -2.8297 0.947119 0
M  V30 4061 C 396.374 -3.39841 -0.735063 0
M  V30 4062 H 395.697 -3.99654 -0.107991 0
M  V30 4063 H 397.137 -4.08296 -1.14326 0
M  V30 4064 C 395.596 -2.79378 -1.88281 0
M  V30 4065 O 396.126 -2.69608 -2.97783 0
M  V30 4066 N 394.332 -2.37016 -1.68142 0
M  V30 4067 H 393.879 -2.45162 -0.790772 0
M  V30 4068 H 393.837 -1.96905 -2.45104 0
M  V30 4069 N 397.609 -0.515225 -1.4894 0
M  V30 4070 C 399.02 -0.0710067 -1.86565 0
M  V30 4071 C 399.371 1.34733 -1.42623 0
M  V30 4072 O 398.496 2.00653 -0.810379 0
M  V30 4073 C 399.091 -0.122083 -3.3858 0
M  V30 4074 C 397.65 0.266863 -3.75453 0
M  V30 4075 C 396.797 -0.488376 -2.72966 0
M  V30 4076 H 399.748 -0.727266 -1.41055 0
M  V30 4077 H 399.769 0.669818 -3.74558 0
M  V30 4078 H 399.281 -1.15448 -3.70531 0
M  V30 4079 H 397.382 1.30196 -3.49113 0
M  V30 4080 H 397.495 -0.0624811 -4.79059 0
M  V30 4081 H 395.859 0.0635622 -2.54621 0
M  V30 4082 H 396.642 -1.52113 -3.07761 0
M  V30 4083 N 399.087 1.5561 -0.249682 0
M  V30 4084 C 400.364 1.90932 0.424761 0
M  V30 4085 C 400.744 1.17078 1.75658 0
M  V30 4086 O 400.092 0.289176 2.26663 0
M  V30 4087 C 400.302 3.43975 0.590109 0
M  V30 4088 C 401.65 4.15281 0.884714 0
M  V30 4089 O 402.674 3.49729 0.67587 0
M  V30 4090 O 401.533 5.31236 1.28259 0
M  V30 4091 H 398.627 0.794815 0.228468 0
M  V30 4092 H 401.173 1.67135 -0.293954 0
M  V30 4093 H 399.945 3.89748 -0.34818 0
M  V30 4094 H 399.568 3.73644 1.35926 0
M  V30 4095 N 400.565 -0.0233959 1.57583 0
M  V30 4096 C 401.813 -0.711654 1.89156 0
M  V30 4097 C 402.134 -1.75591 0.848096 0
M  V30 4098 O 401.404 -1.95547 -0.117566 0
M  V30 4099 H 399.984 -0.265835 0.698098 0
M  V30 4100 H 402.646 0.0119948 1.94896 0
M  V30 4101 H 401.742 -1.19766 2.88206 0
M  V30 4102 N 402.043 -1.548 -0.295768 0
M  V30 4103 C 403.32 -1.65014 -1.05023 0
M  V30 4104 C 403.7 -0.501805 -2.05049 0
M  V30 4105 O 403.048 0.500869 -2.22943 0
M  V30 4106 C 403.258 -3.03252 -1.72741 0
M  V30 4107 C 404.606 -3.60242 -2.24746 0
M  V30 4108 O 405.63 -3.05737 -1.82765 0
M  V30 4109 O 404.489 -4.55687 -3.01681 0
M  V30 4110 H 401.583 -0.669314 -0.485744 0
M  V30 4111 H 404.129 -1.67144 -0.293438 0
M  V30 4112 H 402.901 -3.7827 -1.00138 0
M  V30 4113 H 402.524 -3.04922 -2.55163 0
M  V30 4114 N 403.521 0.559213 -1.47345 0
M  V30 4115 C 404.484 1.64854 -1.59235 0
M  V30 4116 C 405.484 1.53851 -0.467607 0
M  V30 4117 O 406.674 1.58045 -0.732617 0
M  V30 4118 C 403.806 3.04388 -1.53496 0
M  V30 4119 H 404.999 1.55662 -2.56339 0
M  V30 4120 H 402.552 0.778973 -1.35505 0
M  V30 4121 H 403.287 3.19115 -0.577604 0
M  V30 4122 H 403.072 3.13783 -2.35123 0
M  V30 4123 H 404.562 3.83642 -1.6495 0
M  V30 4124 N 404.999 1.35443 0.805782 0
M  V30 4125 C 405.946 1.28431 1.91766 0
M  V30 4126 C 406.916 0.156102 1.65365 0
M  V30 4127 O 408.101 0.339936 1.87747 0
M  V30 4128 C 405.241 1.06301 3.2832 0
M  V30 4129 C 404.354 2.2805 3.66902 0
M  V30 4130 C 403.489 1.99064 4.92491 0
M  V30 4131 C 402.528 3.16863 5.23703 0
M  V30 4132 N 401.665 2.87647 6.40471 0
M  V30 4133 H 406.505 2.23511 1.97096 0
M  V30 4134 H 404.042 1.11105 0.964054 0
M  V30 4135 H 406 0.915012 4.07042 0
M  V30 4136 H 404.63 0.148822 3.22457 0
M  V30 4137 H 403.682 2.53711 2.83434 0
M  V30 4138 H 404.994 3.1601 3.85927 0
M  V30 4139 H 404.148 1.81099 5.7904 0
M  V30 4140 H 402.887 1.0839 4.75503 0
M  V30 4141 H 401.892 3.35404 4.35642 0
M  V30 4142 H 403.117 4.08339 5.4262 0
M  V30 4143 H 401.063 1.99568 6.24907 0
M  V30 4144 H 400.98 3.69141 6.59751 0
M  V30 4145 H 402.248 2.73226 7.30047 0
M  V30 4146 N 406.477 -1.02803 1.19454 0
M  V30 4147 C 407.888 -1.57667 0.999899 0
M  V30 4148 C 408.239 -1.91041 -0.446956 0
M  V30 4149 O 407.364 -1.70978 -1.32648 0
M  V30 4150 C 407.959 -2.86477 1.80877 0
M  V30 4151 C 406.518 -3.37911 1.65811 0
M  V30 4152 C 405.665 -2.11343 1.79526 0
M  V30 4153 H 408.616 -0.853214 1.33813 0
M  V30 4154 H 408.637 -3.57408 1.30536 0
M  V30 4155 H 408.149 -2.62155 2.86175 0
M  V30 4156 H 406.25 -3.67218 0.63102 0
M  V30 4157 H 406.363 -4.10885 2.46395 0
M  V30 4158 H 404.727 -2.23254 1.22596 0
M  V30 4159 H 405.51 -1.89461 2.86285 0
M  V30 4160 N 407.956 -0.998596 -1.21925 0
M  V30 4161 C 409.202 -0.688337 -1.91399 0
M  V30 4162 C 409.557 0.771805 -1.76241 0
M  V30 4163 O 408.85 1.55153 -1.1242 0
M  V30 4164 C 409.044 -1.03648 -3.42041 0
M  V30 4165 C 408.873 -2.52892 -3.71855 0
M  V30 4166 C 407.643 -3.19389 -3.91559 0
M  V30 4167 C 409.841 -3.5103 -3.75875 0
M  V30 4168 N 407.823 -4.5805 -4.08734 0
M  V30 4169 C 409.194 -4.75174 -3.98259 0
M  V30 4170 C 411.249 -3.45257 -3.58751 0
M  V30 4171 C 409.952 -5.94247 -4.05294 0
M  V30 4172 C 411.978 -4.63712 -3.67049 0
M  V30 4173 C 411.34 -5.86658 -3.89887 0
M  V30 4174 H 407.439 -0.303251 -0.720807 0
M  V30 4175 H 410.023 -1.27977 -1.46731 0
M  V30 4176 H 408.194 -0.473569 -3.85502 0
M  V30 4177 H 409.926 -0.681619 -3.98919 0
M  V30 4178 H 406.681 -2.69846 -3.89205 0
M  V30 4179 H 407.105 -5.29989 -4.21237 0
M  V30 4180 H 411.747 -2.51215 -3.40075 0
M  V30 4181 H 409.465 -6.88687 -4.22772 0
M  V30 4182 H 413.051 -4.6084 -3.5513 0
M  V30 4183 H 411.931 -6.76786 -3.96144 0
M  V30 4184 N 409.434 1.37368 -0.772513 0
M  V30 4185 C 410.674 2.01512 -0.342361 0
M  V30 4186 C 411.038 1.59997 1.06136 0
M  V30 4187 O 412.239 2.16609 1.59167 0
M  V30 4188 C 410.51 3.54134 -0.482048 0
M  V30 4189 S 412.069 4.38585 -0.137272 0
M  V30 4190 H 408.887 0.698699 -0.131686 0
M  V30 4191 H 411.489 1.67552 -1.0073 0
M  V30 4192 H 410.193 3.81837 -1.50428 0
M  V30 4193 H 409.724 3.92894 0.199413 0
M  V30 4194 H 411.739 4.84594 1.06692 0
M  V30 4195 N 410.912 0.523116 1.48665 0
M  V30 4196 C 411.862 -0.263106 2.26477 0
M  V30 4197 C 412.846 -0.916005 1.32281 0
M  V30 4198 O 414.038 -0.819946 1.56863 0
M  V30 4199 C 411.167 -1.31361 3.17174 0
M  V30 4200 C 410.253 -0.665849 4.1884 0
M  V30 4201 N 410.644 0.244434 5.05209 0
M  V30 4202 C 408.942 -0.923863 4.36326 0
M  V30 4203 C 409.643 0.617443 5.78414 0
M  V30 4204 N 408.619 -0.0198686 5.43596 0
M  V30 4205 H 412.421 0.437295 2.90629 0
M  V30 4206 H 409.935 0.340675 1.58787 0
M  V30 4207 H 411.932 -1.89052 3.71571 0
M  V30 4208 H 410.592 -2.01546 2.54576 0
M  V30 4209 H 411.603 0.616621 5.14216 0
M  V30 4210 H 408.28 -1.6168 3.84923 0
M  V30 4211 H 409.67 1.36346 6.57921 0
M  V30 4212 N 412.39 -1.55475 0.257931 0
M  V30 4213 C 413.636 -1.99502 -0.364266 0
M  V30 4214 C 413.969 -1.146 -1.56782 0
M  V30 4215 O 413.244 -0.211968 -1.93342 0
M  V30 4216 C 413.527 -3.51917 -0.763333 0
M  V30 4217 C 413.38 -4.4758 0.446371 0
M  V30 4218 C 414.699 -4.09742 -1.60623 0
M  V30 4219 H 411.818 -0.725277 -0.130929 0
M  V30 4220 H 414.46 -1.8653 0.361446 0
M  V30 4221 H 412.61 -3.63101 -1.38166 0
M  V30 4222 H 414.282 -4.48362 1.08487 0
M  V30 4223 H 412.525 -4.19947 1.08753 0
M  V30 4224 H 413.196 -5.51862 0.123645 0
M  V30 4225 H 415.672 -4.01727 -1.08418 0
M  V30 4226 H 414.548 -5.16631 -1.85429 0
M  V30 4227 H 414.809 -3.58889 -2.58169 0
M  V30 4228 N 413.868 0.0150385 -1.57593 0
M  V30 4229 C 414.798 1.01047 -2.10503 0
M  V30 4230 C 415.779 1.36816 -1.01071 0
M  V30 4231 O 416.964 1.45455 -1.28672 0
M  V30 4232 C 414.094 2.30708 -2.59598 0
M  V30 4233 C 413.048 2.09142 -3.73421 0
M  V30 4234 C 412.374 3.44685 -4.08774 0
M  V30 4235 C 413.674 1.46619 -5.01298 0
M  V30 4236 H 415.368 0.569978 -2.93925 0
M  V30 4237 H 412.914 0.272724 -1.41394 0
M  V30 4238 H 414.867 3.00687 -2.95238 0
M  V30 4239 H 413.591 2.76843 -1.73279 0
M  V30 4240 H 412.25 1.41592 -3.38153 0
M  V30 4241 H 411.898 3.88495 -3.195 0
M  V30 4242 H 411.598 3.31077 -4.8545 0
M  V30 4243 H 413.122 4.16004 -4.4696 0
M  V30 4244 H 414.536 2.06535 -5.34805 0
M  V30 4245 H 412.933 1.43544 -5.82679 0
M  V30 4246 H 414.003 0.433611 -4.82957 0
M  V30 4247 N 415.346 1.54954 0.287554 0
M  V30 4248 C 416.293 1.86834 1.35505 0
M  V30 4249 C 417.263 0.718452 1.49758 0
M  V30 4250 O 418.448 0.968358 1.644 0
M  V30 4251 C 415.588 2.13303 2.71286 0
M  V30 4252 C 414.701 3.40883 2.65373 0
M  V30 4253 C 413.836 3.57125 3.93236 0
M  V30 4254 C 412.875 4.78449 3.81776 0
M  V30 4255 N 412.012 4.91426 5.01443 0
M  V30 4256 H 416.852 2.77889 1.07619 0
M  V30 4257 H 414.389 1.37593 0.520241 0
M  V30 4258 H 416.347 2.26646 3.50267 0
M  V30 4259 H 414.977 1.25499 2.97405 0
M  V30 4260 H 414.029 3.36088 1.78182 0
M  V30 4261 H 415.341 4.29993 2.52799 0
M  V30 4262 H 414.495 3.70207 4.80658 0
M  V30 4263 H 413.234 2.66173 4.0866 0
M  V30 4264 H 412.239 4.65386 2.92738 0
M  V30 4265 H 413.464 5.70822 3.67884 0
M  V30 4266 H 411.41 4.03401 5.17304 0
M  V30 4267 H 411.327 5.74559 4.91343 0
M  V30 4268 H 412.595 5.08879 5.90477 0
M  V30 4269 N 416.824 -0.551391 1.4764 0
M  V30 4270 C 417.772 -1.67896 1.60978 0
M  V30 4271 C 418.766 -1.62549 0.476877 0
M  V30 4272 O 419.972 -1.67664 0.654878 0
M  V30 4273 H 416.347 -0.555649 0.506713 0
M  V30 4274 H 418.318 -1.53784 2.55721 0
M  V30 4275 C 417.067 -3.06234 1.64669 0
M  V30 4276 H 416.39 -3.11033 2.51194 0
M  V30 4277 H 417.83 -3.84804 1.7805 0
M  V30 4278 C 416.289 -3.34737 0.381115 0
M  V30 4279 O 416.819 -3.98381 -0.515297 0
M  V30 4280 N 415.025 -2.8944 0.259354 0
M  V30 4281 H 414.572 -2.37827 0.98976 0
M  V30 4282 H 414.53 -3.08882 -0.586464 0
M  V30 4283 N 418.302 -1.35869 -0.798587 0
M  V30 4284 C 419.718 -1.16082 -1.09532 0
M  V30 4285 C 419.918 0.0213124 -2.01489 0
M  V30 4286 O 418.974 0.689488 -2.42904 0
M  V30 4287 C 420.287 -2.46748 -1.7186 0
M  V30 4288 C 421.835 -2.53028 -1.84244 0
M  V30 4289 C 422.31 -3.83758 -2.49988 0
M  V30 4290 N 423.801 -3.85053 -2.57465 0
M  V30 4291 C 424.536 -4.8294 -3.09122 0
M  V30 4292 N 424.032 -5.91217 -3.61157 0
M  V30 4293 N 425.825 -4.70369 -3.0775 0
M  V30 4294 H 417.976 -2.11571 -0.187461 0
M  V30 4295 H 420.239 -0.936726 -0.145765 0
M  V30 4296 H 419.945 -3.33471 -1.11759 0
M  V30 4297 H 419.819 -2.61883 -2.71472 0
M  V30 4298 H 422.206 -1.66729 -2.43486 0
M  V30 4299 H 422.287 -2.418 -0.834643 0
M  V30 4300 H 421.931 -4.70459 -1.91393 0
M  V30 4301 H 421.861 -3.92278 -3.5132 0
M  V30 4302 H 424.352 -3.06822 -2.20609 0
M  V30 4303 H 424.665 -6.61892 -3.98896 0
M  V30 4304 H 423.01 -5.94899 -3.59333 0
M  V30 4305 H 426.201 -3.84914 -2.66381 0
M  V30 4306 H 426.374 -5.46816 -3.47701 0
M  V30 4307 N 419.78 1.02168 -1.19998 0
M  V30 4308 C 421.196 1.27969 -0.953737 0
M  V30 4309 C 421.396 1.98079 0.369703 0
M  V30 4310 O 420.452 2.27306 1.09947 0
M  V30 4311 C 421.765 2.11971 -2.13281 0
M  V30 4312 C 423.313 2.25255 -2.17323 0
M  V30 4313 C 423.788 3.12632 -3.34702 0
M  V30 4314 N 425.279 3.2022 -3.34684 0
M  V30 4315 C 426.014 3.88039 -4.22153 0
M  V30 4316 N 425.51 4.58027 -5.19791 0
M  V30 4317 N 427.303 3.84511 -4.10009 0
M  V30 4318 H 419.454 0.550794 -2.05134 0
M  V30 4319 H 421.717 0.305683 -0.897364 0
M  V30 4320 H 421.423 1.67785 -3.09097 0
M  V30 4321 H 421.297 3.12699 -2.10949 0
M  V30 4322 H 423.684 2.68667 -1.22073 0
M  V30 4323 H 423.765 1.24053 -2.23706 0
M  V30 4324 H 423.409 2.69926 -4.30235 0
M  V30 4325 H 423.339 4.13909 -3.25556 0
M  V30 4326 H 425.83 2.70382 -2.64012 0
M  V30 4327 H 426.143 5.07429 -5.82868 0
M  V30 4328 H 424.488 4.56869 -5.23733 0
M  V30 4329 H 427.679 3.28978 -3.33003 0
M  V30 4330 H 427.852 4.3709 -4.78389 0
M  V30 4331 N 421.258 1.00505 1.21394 0
M  V30 4332 C 422.188 0.585684 2.26035 0
M  V30 4333 C 423.169 -0.393525 1.65485 0
M  V30 4334 O 424.354 -0.281497 1.92149 0
M  V30 4335 C 421.484 -0.0884283 3.47187 0
M  V30 4336 C 420.438 0.810567 4.20254 0
M  V30 4337 C 419.764 0.00286382 5.347 0
M  V30 4338 C 421.064 2.1132 4.77641 0
M  V30 4339 H 422.758 1.46039 2.61368 0
M  V30 4340 H 420.304 0.703648 1.25638 0
M  V30 4341 H 422.257 -0.393286 4.19561 0
M  V30 4342 H 420.981 -0.997766 3.10986 0
M  V30 4343 H 419.64 1.09925 3.49731 0
M  V30 4344 H 419.288 -0.907765 4.94741 0
M  V30 4345 H 418.988 0.601444 5.84514 0
M  V30 4346 H 420.512 -0.295808 6.09883 0
M  V30 4347 H 421.926 1.87148 5.41893 0
M  V30 4348 H 420.323 2.66164 5.37845 0
M  V30 4349 H 421.393 2.78393 3.9702 0
M  V30 4350 N 422.737 -1.36956 0.779787 0
M  V30 4351 C 423.965 -2.03755 0.359398 0
M  V30 4352 C 424.38 -1.58807 -1.02106 0
M  V30 4353 O 423.737 -0.773024 -1.6532 0
M  V30 4354 C 423.788 -3.59251 0.402568 0
M  V30 4355 O 423.509 -4.02557 1.72858 0
M  V30 4356 C 425.01 -4.43291 -0.0284068 0
M  V30 4357 H 422.23 -0.654148 0.149437 0
M  V30 4358 H 424.774 -1.75128 1.05595 0
M  V30 4359 H 422.929 -3.86621 -0.245478 0
M  V30 4360 H 423.343 -4.97111 1.67275 0
M  V30 4361 H 424.817 -5.51975 0.0529466 0
M  V30 4362 H 425.294 -4.25719 -1.07982 0
M  V30 4363 H 425.9 -4.21163 0.591758 0
M  V30 4364 N 424.215 -0.530993 -1.48385 0
M  V30 4365 C 425.461 -0.00538653 -2.03399 0
M  V30 4366 C 425.816 1.31899 -1.40073 0
M  V30 4367 O 425.109 1.83901 -0.537676 0
M  V30 4368 C 425.303 0.172742 -3.56982 0
M  V30 4369 C 425.132 -1.13282 -4.35198 0
M  V30 4370 C 423.902 -1.69296 -4.76096 0
M  V30 4371 C 426.1 -2.04367 -4.71952 0
M  V30 4372 N 424.082 -2.9413 -5.38851 0
M  V30 4373 C 425.453 -3.13777 -5.34737 0
M  V30 4374 C 427.508 -2.04681 -4.53883 0
M  V30 4375 C 426.211 -4.23567 -5.81363 0
M  V30 4376 C 428.237 -3.13466 -5.01491 0
M  V30 4377 C 427.599 -4.21595 -5.64302 0
M  V30 4378 H 423.698 -0.0434945 -0.780789 0
M  V30 4379 H 426.282 -0.712495 -1.81195 0
M  V30 4380 H 424.453 0.848937 -3.79009 0
M  V30 4381 H 426.185 0.698046 -3.98634 0
M  V30 4382 H 422.94 -1.23422 -4.57235 0
M  V30 4383 H 423.364 -3.57689 -5.74794 0
M  V30 4384 H 428.006 -1.22378 -4.04702 0
M  V30 4385 H 425.724 -5.06648 -6.2955 0
M  V30 4386 H 429.31 -3.14765 -4.893 0
M  V30 4387 H 428.19 -5.04384 -6.00472 0
M  V30 4388 N 425.693 1.55336 -0.266172 0
M  V30 4389 C 426.603 2.2583 0.635458 0
M  V30 4390 C 427.619 1.28106 1.17749 0
M  V30 4391 O 428.795 1.61024 1.20968 0
M  V30 4392 C 425.86 2.95879 1.80712 0
M  V30 4393 C 424.921 4.09059 1.30265 0
M  V30 4394 C 424.154 4.75759 2.41846 0
M  V30 4395 O 424.377 4.41622 3.61007 0
M  V30 4396 O 423.311 5.63888 2.1051 0
M  V30 4397 H 427.137 3.03631 0.0646693 0
M  V30 4398 H 424.722 1.49361 -0.0339177 0
M  V30 4399 H 426.604 3.39932 2.49047 0
M  V30 4400 H 425.279 2.21002 2.36516 0
M  V30 4401 H 424.186 3.69482 0.586019 0
M  V30 4402 H 425.519 4.85811 0.790458 0
M  V30 4403 N 427.171 -0.0066808 1.57599 0
M  V30 4404 C 428.401 -0.703066 1.94269 0
M  V30 4405 C 428.809 -1.68206 0.866222 0
M  V30 4406 O 428.152 -1.82966 -0.164087 0
M  V30 4407 C 428.214 -1.49616 3.26887 0
M  V30 4408 C 427.878 -0.679494 4.5192 0
M  V30 4409 C 428.875 0.0299508 5.19891 0
M  V30 4410 C 426.56 -0.627433 4.98366 0
M  V30 4411 C 428.554 0.780514 6.32603 0
M  V30 4412 C 426.241 0.126861 6.10968 0
M  V30 4413 C 427.239 0.829574 6.77943 0
M  V30 4414 O 426.927 1.57157 7.88389 0
M  V30 4415 H 426.659 -0.201217 0.645359 0
M  V30 4416 H 429.213 0.0385326 2.05364 0
M  V30 4417 H 427.443 -2.28209 3.12182 0
M  V30 4418 H 429.132 -2.07726 3.48719 0
M  V30 4419 H 429.898 -0.00115963 4.85 0
M  V30 4420 H 425.777 -1.16392 4.46065 0
M  V30 4421 H 429.321 1.32954 6.84813 0
M  V30 4422 H 425.218 0.159815 6.45302 0
M  V30 4423 H 425.986 1.48758 8.04868 0
M  V30 4424 N 428.649 -1.55105 -0.279332 0
M  V30 4425 C 429.889 -1.7716 -1.01949 0
M  V30 4426 C 430.253 -0.557511 -1.83728 0
M  V30 4427 O 431.454 -0.656198 -2.60667 0
M  V30 4428 C 429.725 -3.0372 -1.88385 0
M  V30 4429 S 431.284 -3.46868 -2.68752 0
M  V30 4430 H 428.102 -0.62253 -0.343478 0
M  V30 4431 H 430.704 -1.93329 -0.290572 0
M  V30 4432 H 429.408 -3.90184 -1.2722 0
M  V30 4433 H 428.939 -2.902 -2.65608 0
M  V30 4434 H 430.954 -3.05643 -3.90892 0
M  V30 4435 N 430.127 0.543554 -1.4793 0
M  V30 4436 C 431.404 1.30458 -1.4574 0
M  V30 4437 C 431.784 2.1048 -0.161692 0
M  V30 4438 O 431.132 2.11831 0.856734 0
M  V30 4439 C 431.342 2.19754 -2.71126 0
M  V30 4440 C 432.69 2.80334 -3.18901 0
M  V30 4441 O 433.714 2.30049 -2.71948 0
M  V30 4442 O 432.573 3.71766 -4.00565 0
M  V30 4443 H 429.667 0.588117 -0.581418 0
M  V30 4444 H 432.213 0.561328 -1.60147 0
M  V30 4445 H 430.985 1.60316 -3.56952 0
M  V30 4446 H 430.608 3.01351 -2.59371 0
M  V30 4447 N 431.605 1.3629 0.791371 0
M  V30 4448 C 432.851 1.30605 1.55146 0
M  V30 4449 C 433.184 -0.115042 1.93859 0
M  V30 4450 O 432.459 -1.06798 1.62556 0
M  V30 4451 C 432.742 2.22692 2.82985 0
M  V30 4452 C 432.595 3.73489 2.50651 0
M  V30 4453 C 433.914 2.13588 3.84796 0
M  V30 4454 H 431.033 0.475761 0.562868 0
M  V30 4455 H 433.675 1.66825 0.909358 0
M  V30 4456 H 431.825 1.91933 3.37778 0
M  V30 4457 H 433.497 4.14758 2.01924 0
M  V30 4458 H 431.74 3.93021 1.83622 0
M  V30 4459 H 432.411 4.3333 3.41949 0
M  V30 4460 H 434.887 2.40659 3.39445 0
M  V30 4461 H 433.763 2.80195 4.71998 0
M  V30 4462 H 434.024 1.12256 4.27611 0
M  V30 4463 N 433.083 -1.0153 1.20538 0
M  V30 4464 C 434.494 -1.56598 1.01657 0
M  V30 4465 C 434.845 -1.91505 -0.426668 0
M  V30 4466 O 433.97 -1.72375 -1.30827 0
M  V30 4467 C 434.565 -2.84542 1.83905 0
M  V30 4468 C 433.124 -3.36133 1.69386 0
M  V30 4469 C 432.271 -2.09427 1.81757 0
M  V30 4470 H 435.222 -0.838974 1.34711 0
M  V30 4471 H 435.243 -3.56004 1.34319 0
M  V30 4472 H 434.755 -2.59105 2.8894 0
M  V30 4473 H 432.856 -3.66528 0.669933 0
M  V30 4474 H 432.969 -4.08248 2.50739 0
M  V30 4475 H 431.333 -2.21941 1.24957 0
M  V30 4476 H 432.116 -1.86414 2.88279 0
M  V30 4477 N 434.561 -1.01147 -1.20859 0
M  V30 4478 C 435.786 -0.716698 -1.94623 0
M  V30 4479 C 436.211 0.715415 -1.73964 0
M  V30 4480 O 435.569 1.49157 -1.03062 0
M  V30 4481 C 435.617 -1.0513 -3.44935 0
M  V30 4482 O 434.721 -0.160131 -4.12089 0
M  V30 4483 H 434.062 -0.266404 -0.608214 0
M  V30 4484 H 436.592 -1.35346 -1.53436 0
M  V30 4485 H 436.602 -1.00086 -3.95533 0
M  V30 4486 H 435.277 -2.09475 -3.59295 0
M  V30 4487 H 433.854 -0.267657 -3.71938 0
M  V30 4488 N 436.039 1.36541 -0.78704 0
M  V30 4489 C 437.279 2.01138 -0.363714 0
M  V30 4490 C 437.643 1.61114 1.04433 0
M  V30 4491 O 438.844 2.18285 1.56861 0
M  V30 4492 C 437.115 3.53603 -0.519582 0
M  V30 4493 S 438.674 4.38415 -0.183782 0
M  V30 4494 H 435.492 0.697263 -0.13909 0
M  V30 4495 H 438.094 1.66475 -1.02501 0
M  V30 4496 H 436.798 3.8022 -1.5447 0
M  V30 4497 H 436.329 3.93084 0.15773 0
M  V30 4498 H 438.344 4.85698 1.01547 0
M  V30 4499 N 437.518 0.538854 1.48102 0
M  V30 4500 C 438.743 0.0102694 2.07397 0
M  V30 4501 C 439.168 -1.26562 1.39153 0
M  V30 4502 O 438.526 -1.75357 0.460387 0
M  V30 4503 C 438.574 -0.187602 3.60112 0
M  V30 4504 O 437.678 -1.25432 3.92862 0
M  V30 4505 H 437.019 0.0430975 0.6626 0
M  V30 4506 H 439.549 0.749301 1.90385 0
M  V30 4507 H 439.559 -0.407517 4.0596 0
M  V30 4508 H 438.234 0.744386 4.09184 0
M  V30 4509 H 436.811 -1.01636 3.58782 0
M  V30 4510 N 438.996 -1.55193 0.274407 0
M  V30 4511 C 440.224 -2.03987 -0.345943 0
M  V30 4512 C 440.639 -1.15279 -1.4952 0
M  V30 4513 O 439.996 -0.172759 -1.8168 0
M  V30 4514 C 440.047 -3.51898 -0.827631 0
M  V30 4515 O 439.768 -4.37231 0.275855 0
M  V30 4516 C 441.269 -4.16577 -1.51587 0
M  V30 4517 H 438.489 -0.666335 -0.0789892 0
M  V30 4518 H 441.033 -2.00423 0.406294 0
M  V30 4519 H 439.188 -3.55909 -1.52996 0
M  V30 4520 H 439.602 -5.24415 -0.0943638 0
M  V30 4521 H 441.076 -5.21678 -1.80433 0
M  V30 4522 H 441.553 -3.64707 -2.44716 0
M  V30 4523 H 442.159 -4.16568 -0.857409 0
M  V30 4524 N 440.474 -0.00167713 -1.576 0
M  V30 4525 C 441.714 0.687302 -1.92498 0
M  V30 4526 C 442.078 1.70844 -0.876144 0
M  V30 4527 O 443.279 2.44792 -1.11043 0
M  V30 4528 C 441.55 1.31217 -3.32441 0
M  V30 4529 S 443.109 2.02604 -3.89226 0
M  V30 4530 H 439.927 0.226985 -0.673794 0
M  V30 4531 H 442.529 -0.0587666 -1.95412 0
M  V30 4532 H 441.233 0.556164 -4.06614 0
M  V30 4533 H 440.764 2.09613 -3.32905 0
M  V30 4534 H 442.779 3.30137 -3.70438 0
M  V30 4535 N 441.952 1.55251 0.271103 0
M  V30 4536 C 443.2 1.75599 1.00047 0
M  V30 4537 C 443.521 0.561188 1.8675 0
M  V30 4538 O 442.791 -0.423846 1.9126 0
M  V30 4539 H 441.371 0.647562 0.372387 0
M  V30 4540 H 444.033 1.92656 0.294876 0
M  V30 4541 H 443.129 2.65766 1.6363 0
M  V30 4542 N 443.43 -0.535701 1.48216 0
M  V30 4543 C 444.36 -1.65014 1.65204 0
M  V30 4544 C 445.341 -1.62554 0.501011 0
M  V30 4545 O 446.526 -1.7984 0.732886 0
M  V30 4546 C 443.656 -3.03616 1.68626 0
M  V30 4547 C 442.61 -3.20932 2.83172 0
M  V30 4548 C 441.936 -4.60537 2.71679 0
M  V30 4549 C 443.236 -3.04249 4.24535 0
M  V30 4550 H 444.93 -1.51053 2.58502 0
M  V30 4551 H 442.476 -0.725262 1.24402 0
M  V30 4552 H 444.429 -3.81446 1.79099 0
M  V30 4553 H 443.153 -3.18587 0.719026 0
M  V30 4554 H 441.812 -2.45517 2.72244 0
M  V30 4555 H 441.46 -4.72336 1.72937 0
M  V30 4556 H 441.16 -4.73069 3.48538 0
M  V30 4557 H 442.684 -5.40475 2.84112 0
M  V30 4558 H 444.098 -3.71877 4.36326 0
M  V30 4559 H 442.495 -3.28278 5.02348 0
M  V30 4560 H 443.565 -2.00739 4.41397 0
M  V30 4561 N 444.908 -1.36708 -0.784132 0
M  V30 4562 C 446.324 -1.17237 -1.08294 0
M  V30 4563 C 446.524 -5.93947e-05 -2.015 0
M  V30 4564 O 445.58 0.663686 -2.43622 0
M  V30 4565 C 446.893 -2.48557 -1.69233 0
M  V30 4566 C 448.441 -2.54968 -1.8155 0
M  V30 4567 C 448.916 -3.86388 -2.45904 0
M  V30 4568 N 450.407 -3.87762 -2.53367 0
M  V30 4569 C 451.142 -4.86191 -3.03983 0
M  V30 4570 N 450.638 -5.95015 -3.54866 0
M  V30 4571 N 452.431 -4.73606 -3.02743 0
M  V30 4572 H 444.582 -2.11758 -0.16501 0
M  V30 4573 H 446.845 -0.93822 -0.135822 0
M  V30 4574 H 446.551 -3.34638 -1.08215 0
M  V30 4575 H 446.425 -2.64748 -2.68679 0
M  V30 4576 H 448.812 -1.69302 -2.41704 0
M  V30 4577 H 448.893 -2.42672 -0.80895 0
M  V30 4578 H 448.537 -4.72462 -1.86392 0
M  V30 4579 H 448.467 -3.95982 -3.4714 0
M  V30 4580 H 450.958 -3.09145 -2.17343 0
M  V30 4581 H 451.271 -6.66086 -3.91854 0
M  V30 4582 H 449.616 -5.98676 -3.53003 0
M  V30 4583 H 452.807 -3.87717 -2.62284 0
M  V30 4584 H 452.98 -5.50473 -3.41881 0
M  V30 4585 N 446.386 1.0089 -1.21074 0
M  V30 4586 C 447.318 2.09737 -0.924291 0
M  V30 4587 C 448.331 1.62546 0.0909809 0
M  V30 4588 O 449.52 1.77942 -0.141021 0
M  V30 4589 C 446.62 3.36922 -0.36559 0
M  V30 4590 C 445.793 4.13216 -1.43426 0
M  V30 4591 C 444.852 5.18696 -0.885496 0
M  V30 4592 O 443.878 5.47176 -1.56801 0
M  V30 4593 N 445.08 5.79718 0.301227 0
M  V30 4594 H 447.845 2.34895 -1.8613 0
M  V30 4595 H 445.406 1.17341 -1.11546 0
M  V30 4596 H 447.398 4.04697 0.0158407 0
M  V30 4597 H 445.968 3.08952 0.476149 0
M  V30 4598 H 445.188 3.40301 -1.9897 0
M  V30 4599 H 446.476 4.60967 -2.15376 0
M  V30 4600 H 445.874 5.58926 0.872849 0
M  V30 4601 H 444.431 6.48804 0.624211 0
M  V30 4602 N 447.864 1.01787 1.20321 0
M  V30 4603 C 449.094 0.72614 1.93419 0
M  V30 4604 C 449.502 -0.717317 1.75075 0
M  V30 4605 O 448.845 -1.49836 1.06278 0
M  V30 4606 C 448.907 0.983621 3.45782 0
M  V30 4607 C 448.571 2.41645 3.87888 0
M  V30 4608 C 449.568 3.39732 3.93545 0
M  V30 4609 C 447.253 2.75752 4.19841 0
M  V30 4610 C 449.247 4.69988 4.30569 0
M  V30 4611 C 446.934 4.06221 4.56539 0
M  V30 4612 C 447.932 5.0315 4.61876 0
M  V30 4613 O 447.62 6.31284 4.97731 0
M  V30 4614 H 447.352 0.265824 0.621541 0
M  V30 4615 H 449.906 1.3623 1.53722 0
M  V30 4616 H 448.136 0.290301 3.85609 0
M  V30 4617 H 449.825 0.683279 4.00108 0
M  V30 4618 H 450.591 3.14718 3.69022 0
M  V30 4619 H 446.47 2.00993 4.14877 0
M  V30 4620 H 450.014 5.45642 4.3465 0
M  V30 4621 H 445.911 4.31013 4.80518 0
M  V30 4622 H 446.679 6.35591 5.15719 0
M  V30 4623 N 449.342 -1.36122 0.79427 0
M  V30 4624 C 450.567 -2.03891 0.379871 0
M  V30 4625 C 450.992 -1.59488 -0.997251 0
M  V30 4626 O 450.35 -0.765652 -1.64339 0
M  V30 4627 C 450.398 -3.57687 0.457442 0
M  V30 4628 O 449.502 -4.08931 -0.5338 0
M  V30 4629 H 448.843 -0.6443 0.160541 0
M  V30 4630 H 451.373 -1.73976 1.07673 0
M  V30 4631 H 451.383 -4.06721 0.322792 0
M  V30 4632 H 450.058 -3.89357 1.46199 0
M  V30 4633 H 448.635 -3.71154 -0.360409 0
M  V30 4634 N 450.82 -0.546701 -1.47814 0
M  V30 4635 C 451.752 0.244196 -2.27895 0
M  V30 4636 C 452.765 0.88911 -1.36377 0
M  V30 4637 O 453.954 0.764733 -1.61289 0
M  V30 4638 C 451.054 1.36252 -3.10304 0
M  V30 4639 C 450.227 0.816382 -4.29714 0
M  V30 4640 C 449.286 1.81789 -4.93801 0
M  V30 4641 O 448.312 1.36818 -5.52512 0
M  V30 4642 N 449.514 3.15085 -4.87547 0
M  V30 4643 H 452.279 -0.442694 -2.96412 0
M  V30 4644 H 449.84 -0.382095 -1.57327 0
M  V30 4645 H 451.832 2.03102 -3.50045 0
M  V30 4646 H 450.402 1.95281 -2.44099 0
M  V30 4647 H 449.622 -0.0285981 -3.9419 0
M  V30 4648 H 450.91 0.430668 -5.06974 0
M  V30 4649 H 450.308 3.54275 -4.41028 0
M  V30 4650 H 448.865 3.77522 -5.31339 0
M  V30 4651 N 452.299 1.55045 -0.282633 0
M  V30 4652 C 453.71 1.85473 0.213655 0
M  V30 4653 C 454.061 1.20465 1.54863 0
M  V30 4654 O 453.186 0.495676 2.10647 0
M  V30 4655 C 453.781 3.36496 0.394445 0
M  V30 4656 C 452.34 3.67022 0.834961 0
M  V30 4657 C 451.487 2.77218 -0.0674081 0
M  V30 4658 H 454.438 1.50478 -0.504202 0
M  V30 4659 H 454.459 3.60007 1.23186 0
M  V30 4660 H 453.971 3.83782 -0.577326 0
M  V30 4661 H 452.072 3.25241 1.81794 0
M  V30 4662 H 452.185 4.74433 0.667075 0
M  V30 4663 H 450.549 2.5069 0.450196 0
M  V30 4664 H 451.332 3.2732 -1.0352 0
M  V30 4665 N 453.777 0.010035 1.57597 0
M  V30 4666 C 454.709 -1.00649 2.05918 0
M  V30 4667 C 455.722 -1.30077 0.978964 0
M  V30 4668 O 456.911 -1.26878 1.25556 0
M  V30 4669 C 454.011 -2.33876 2.45265 0
M  V30 4670 C 453.184 -2.23242 3.7614 0
M  V30 4671 C 452.243 -3.39242 4.02245 0
M  V30 4672 O 451.269 -3.1698 4.72771 0
M  V30 4673 N 452.471 -4.6242 3.50924 0
M  V30 4674 H 455.236 -0.594333 2.93748 0
M  V30 4675 H 452.797 -0.17714 1.60928 0
M  V30 4676 H 454.789 -3.1027 2.59836 0
M  V30 4677 H 453.359 -2.66799 1.62902 0
M  V30 4678 H 452.579 -1.31696 3.71551 0
M  V30 4679 H 453.867 -2.13321 4.61922 0
M  V30 4680 H 453.265 -4.83404 2.93832 0
M  V30 4681 H 451.822 -5.36046 3.70807 0
M  V30 4682 N 455.255 -1.55392 -0.262866 0
M  V30 4683 C 456.502 -1.76476 -0.993109 0
M  V30 4684 C 456.83 -0.571479 -1.85915 0
M  V30 4685 O 456.085 0.445733 -1.90556 0
M  V30 4686 C 456.384 -3.02889 -1.89718 0
M  V30 4687 C 456.05 -4.34974 -1.18781 0
M  V30 4688 C 454.712 -4.7087 -0.991699 0
M  V30 4689 C 457.064 -5.16695 -0.683798 0
M  V30 4690 C 454.392 -5.86036 -0.279024 0
M  V30 4691 C 456.744 -6.32598 0.0153327 0
M  V30 4692 C 455.408 -6.67127 0.223062 0
M  V30 4693 H 454.678 -0.64577 -0.363404 0
M  V30 4694 H 457.325 -1.89664 -0.264525 0
M  V30 4695 H 455.63 -2.84644 -2.6923 0
M  V30 4696 H 457.327 -3.16399 -2.46359 0
M  V30 4697 H 453.917 -4.06765 -1.35058 0
M  V30 4698 H 458.101 -4.8943 -0.8229 0
M  V30 4699 H 453.357 -6.11306 -0.107456 0
M  V30 4700 H 457.531 -6.95171 0.413584 0
M  V30 4701 H 455.158 -7.56216 0.777265 0
M  V30 4702 N 456.733 0.527833 -1.48498 0
M  V30 4703 C 458.149 0.856571 -1.34666 0
M  V30 4704 C 458.349 1.98271 -0.35931 0
M  V30 4705 O 457.405 2.51551 0.218703 0
M  V30 4706 C 458.718 1.22207 -2.74747 0
M  V30 4707 C 460.266 1.33183 -2.83251 0
M  V30 4708 C 460.741 1.73075 -4.24039 0
M  V30 4709 N 462.232 1.80174 -4.26722 0
M  V30 4710 C 462.967 2.1243 -5.32598 0
M  V30 4711 N 462.463 2.43096 -6.4875 0
M  V30 4712 N 464.256 2.13454 -5.19994 0
M  V30 4713 H 456.407 -0.215174 -2.11307 0
M  V30 4714 H 458.67 -0.0336281 -0.947403 0
M  V30 4715 H 458.376 0.468195 -3.4857 0
M  V30 4716 H 458.25 2.17173 -3.08409 0
M  V30 4717 H 460.637 2.07647 -2.09683 0
M  V30 4718 H 460.718 0.363333 -2.53206 0
M  V30 4719 H 460.362 0.991712 -4.98124 0
M  V30 4720 H 460.292 2.70979 -4.51529 0
M  V30 4721 H 462.783 1.58744 -3.42942 0
M  V30 4722 H 463.096 2.6682 -7.25277 0
M  V30 4723 H 461.441 2.40611 -6.52021 0
M  V30 4724 H 464.632 1.88956 -4.28268 0
M  V30 4725 H 464.805 2.38261 -6.02608 0
M  V30 4726 N 458.211 1.37122 0.776871 0
M  V30 4727 C 459.46 1.31373 1.53049 0
M  V30 4728 C 459.773 -0.101016 1.95339 0
M  V30 4729 O 460.979 -0.280953 2.70042 0
M  V30 4730 C 459.435 2.30567 2.76346 0
M  V30 4731 C 459.043 3.77543 2.41175 0
M  V30 4732 C 460.787 2.33818 3.54301 0
M  V30 4733 C 458.694 4.68481 3.60943 0
M  V30 4734 H 457.624 0.488234 0.574581 0
M  V30 4735 H 460.275 1.62554 0.851372 0
M  V30 4736 H 458.657 1.92396 3.46121 0
M  V30 4737 H 459.831 4.24521 1.79216 0
M  V30 4738 H 458.146 3.77187 1.76405 0
M  V30 4739 H 460.743 2.98965 4.4331 0
M  V30 4740 H 461.086 1.3503 3.93793 0
M  V30 4741 H 461.619 2.7067 2.91518 0
M  V30 4742 H 458.358 5.68378 3.26537 0
M  V30 4743 H 457.878 4.2621 4.22025 0
M  V30 4744 H 459.557 4.85366 4.27819 0
M  V30 4745 N 459.689 -1.00246 1.21608 0
M  V30 4746 C 460.636 -2.09073 0.977613 0
M  V30 4747 C 461.606 -1.65815 -0.097297 0
M  V30 4748 O 462.791 -1.90734 0.0503445 0
M  V30 4749 C 459.931 -3.40671 0.551133 0
M  V30 4750 C 459.044 -3.97326 1.69576 0
M  V30 4751 C 458.179 -5.17043 1.2182 0
M  V30 4752 C 457.218 -5.65813 2.335 0
M  V30 4753 N 456.355 -6.76778 1.86859 0
M  V30 4754 H 461.195 -2.28806 1.90924 0
M  V30 4755 H 458.732 -1.12186 0.951452 0
M  V30 4756 H 460.69 -4.16225 0.285097 0
M  V30 4757 H 459.32 -3.20967 -0.343489 0
M  V30 4758 H 458.372 -3.18734 2.07637 0
M  V30 4759 H 459.684 -4.29511 2.53617 0
M  V30 4760 H 458.838 -5.99852 0.908975 0
M  V30 4761 H 457.577 -4.86458 0.347869 0
M  V30 4762 H 456.582 -4.81599 2.65222 0
M  V30 4763 H 457.807 -5.98427 3.21033 0
M  V30 4764 H 455.753 -6.47994 1.02174 0
M  V30 4765 H 455.67 -7.08231 2.64471 0
M  V30 4766 H 456.938 -7.63116 1.58978 0
M  V30 4767 N 461.167 -1.02423 -1.1978 0
M  V30 4768 C 462.415 -0.716569 -1.8897 0
M  V30 4769 C 462.736 0.756769 -1.79716 0
M  V30 4770 O 462.006 1.5449 -1.20456 0
M  V30 4771 H 460.586 -0.262062 -0.699523 0
M  V30 4772 H 463.248 -1.29747 -1.45436 0
M  V30 4773 H 462.344 -1.00675 -2.95417 0
M  V30 4774 N 462.645 1.35699 -0.801477 0
M  V30 4775 C 463.893 1.9852 -0.37871 0
M  V30 4776 C 464.214 1.63907 1.05638 0
M  V30 4777 O 463.484 0.919013 1.73006 0
M  V30 4778 H 462.064 0.734322 -0.137042 0
M  V30 4779 H 464.726 1.65697 -1.02619 0
M  V30 4780 H 463.822 3.08382 -0.480284 0
M  V30 4781 N 464.123 0.554532 1.47522 0
M  V30 4782 C 465.053 -0.182974 2.32782 0
M  V30 4783 C 466.034 -0.911377 1.43624 0
M  V30 4784 O 467.219 -0.892366 1.72483 0
M  V30 4785 C 464.349 -1.21513 3.25349 0
M  V30 4786 C 463.303 -0.603355 4.23726 0
M  V30 4787 C 462.629 -1.73995 5.05598 0
M  V30 4788 C 463.929 0.441121 5.20434 0
M  V30 4789 H 465.623 0.52882 2.94693 0
M  V30 4790 H 463.169 0.255759 1.41711 0
M  V30 4791 H 465.122 -1.73922 3.83835 0
M  V30 4792 H 463.846 -1.95683 2.61487 0
M  V30 4793 H 462.505 -0.10059 3.66462 0
M  V30 4794 H 462.153 -2.47063 4.38143 0
M  V30 4795 H 461.853 -1.3364 5.72201 0
M  V30 4796 H 463.377 -2.26735 5.66942 0
M  V30 4797 H 464.791 0.00319931 5.733 0
M  V30 4798 H 463.188 0.763402 5.95224 0
M  V30 4799 H 464.258 1.33799 4.66075 0
M  V30 4800 N 465.601 -1.54893 0.290851 0
M  V30 4801 C 466.848 -1.99933 -0.321391 0
M  V30 4802 C 467.176 -1.17927 -1.54672 0
M  V30 4803 O 466.431 -0.240902 -1.94212 0
M  V30 4804 C 466.73 -3.49815 -0.732397 0
M  V30 4805 C 466.396 -4.4921 0.390056 0
M  V30 4806 C 465.058 -4.76107 0.698223 0
M  V30 4807 C 467.41 -5.08453 1.14562 0
M  V30 4808 C 464.738 -5.59514 1.76526 0
M  V30 4809 C 467.09 -5.9302 2.2025 0
M  V30 4810 C 465.754 -6.18232 2.51684 0
M  V30 4811 H 465.024 -0.731608 -0.117605 0
M  V30 4812 H 467.671 -1.87107 0.407839 0
M  V30 4813 H 465.976 -3.60199 -1.54155 0
M  V30 4814 H 467.673 -3.82083 -1.21712 0
M  V30 4815 H 464.263 -4.28372 0.13976 0
M  V30 4816 H 468.447 -4.87683 0.920801 0
M  V30 4817 H 463.703 -5.77289 2.01364 0
M  V30 4818 H 467.877 -6.37955 2.7926 0
M  V30 4819 H 465.504 -6.82653 3.34499 0
M  V30 4820 N 467.08 -0.0183926 -1.57589 0
M  V30 4821 C 468.043 0.951986 -2.08494 0
M  V30 4822 C 469.043 1.26092 -0.997874 0
M  V30 4823 O 470.233 1.20304 -1.25987 0
M  V30 4824 C 467.365 2.27165 -2.54182 0
M  V30 4825 H 468.558 0.511307 -2.95509 0
M  V30 4826 H 466.111 0.229444 -1.54607 0
M  V30 4827 H 466.846 2.75884 -1.70465 0
M  V30 4828 H 466.631 2.06057 -3.33591 0
M  V30 4829 H 468.121 2.9674 -2.93828 0
M  V30 4830 N 468.558 1.5553 0.254621 0
M  V30 4831 C 469.835 1.6774 1.00611 0
M  V30 4832 C 470.215 0.555993 2.03647 0
M  V30 4833 O 469.563 -0.441583 2.24193 0
M  V30 4834 C 469.773 3.07725 1.6464 0
M  V30 4835 C 471.121 3.66074 2.15116 0
M  V30 4836 O 472.145 3.10476 1.74595 0
M  V30 4837 O 471.004 4.63526 2.89493 0
M  V30 4838 H 468.098 0.681958 0.467828 0
M  V30 4839 H 470.644 1.67863 0.24902 0
M  V30 4840 H 469.416 3.80792 0.900734 0
M  V30 4841 H 469.039 3.1158 2.46989 0
M  V30 4842 N 470.036 -0.519951 1.48776 0
M  V30 4843 C 471.285 -1.27175 1.56555 0
M  V30 4844 C 471.598 -1.9401 0.248869 0
M  V30 4845 O 472.804 -2.70725 0.205004 0
M  V30 4846 C 471.26 -2.30811 2.76142 0
M  V30 4847 C 470.868 -1.7 4.14493 0
M  V30 4848 C 472.612 -3.06937 2.9324 0
M  V30 4849 C 470.519 -2.71635 5.25327 0
M  V30 4850 H 469.449 -0.478329 0.582853 0
M  V30 4851 H 472.1 -0.547916 1.75129 0
M  V30 4852 H 470.482 -3.06274 2.51023 0
M  V30 4853 H 471.656 -1.00658 4.49672 0
M  V30 4854 H 469.971 -1.06331 4.02595 0
M  V30 4855 H 472.568 -3.82905 3.73213 0
M  V30 4856 H 472.911 -3.63409 2.03075 0
M  V30 4857 H 473.444 -2.38589 3.18308 0
M  V30 4858 H 470.183 -2.1997 6.1749 0
M  V30 4859 H 469.703 -3.39275 4.94624 0
M  V30 4860 H 471.382 -3.34429 5.53865 0
M  V30 4861 N 471.514 -1.37532 -0.769588 0
M  V30 4862 C 472.477 -1.33292 -1.86456 0
M  V30 4863 C 473.477 -0.236537 -1.59051 0
M  V30 4864 O 474.667 -0.492511 -1.67093 0
M  V30 4865 C 471.799 -1.07118 -3.23633 0
M  V30 4866 H 472.992 -2.30692 -1.91628 0
M  V30 4867 H 470.545 -1.22593 -0.969572 0
M  V30 4868 H 471.28 -0.102578 -3.24138 0
M  V30 4869 H 471.065 -1.86479 -3.44917 0
M  V30 4870 H 472.555 -1.06806 -4.03711 0
M  V30 4871 N 472.992 0.995999 -1.22138 0
M  V30 4872 C 474.217 1.77601 -1.0711 0
M  V30 4873 C 474.642 1.84339 0.374264 0
M  V30 4874 O 474 1.29359 1.27028 0
M  V30 4875 C 474.048 3.18897 -1.68336 0
M  V30 4876 O 473.152 4.01663 -0.934928 0
M  V30 4877 H 472.493 0.547011 -0.376397 0
M  V30 4878 H 475.023 1.25137 -1.6187 0
M  V30 4879 H 475.033 3.69539 -1.72931 0
M  V30 4880 H 473.708 3.13308 -2.73516 0
M  V30 4881 H 472.285 3.60204 -0.964751 0
M  V30 4882 N 474.47 1.03057 1.19235 0
M  V30 4883 C 475.42 0.583386 2.2041 0
M  V30 4884 C 476.404 -0.368776 1.56617 0
M  V30 4885 O 477.596 -0.189471 1.75983 0
M  V30 4886 C 474.725 -0.0626534 3.43243 0
M  V30 4887 C 473.811 0.91205 4.14177 0
M  V30 4888 N 474.202 2.07514 4.61272 0
M  V30 4889 C 472.5 0.735859 4.39888 0
M  V30 4890 C 473.201 2.69003 5.15764 0
M  V30 4891 N 472.177 1.96954 5.06666 0
M  V30 4892 H 475.979 1.46988 2.54503 0
M  V30 4893 H 473.493 0.897785 1.35328 0
M  V30 4894 H 475.49 -0.400653 4.1497 0
M  V30 4895 H 474.15 -0.944813 3.1065 0
M  V30 4896 H 475.161 2.45448 4.56043 0
M  V30 4897 H 471.838 -0.0970656 4.17387 0
M  V30 4898 H 473.228 3.67514 5.6248 0
M  V30 4899 N 475.948 -1.35272 0.808662 0
M  V30 4900 C 477.359 -1.81179 0.450688 0
M  V30 4901 C 477.71 -1.67143 -1.02751 0
M  V30 4902 O 476.835 -1.20325 -1.79864 0
M  V30 4903 C 477.43 -3.28943 0.811275 0
M  V30 4904 C 475.989 -3.72985 0.505871 0
M  V30 4905 C 475.136 -2.57229 1.03578 0
M  V30 4906 H 478.087 -1.2322 1.00012 0
M  V30 4907 H 478.108 -3.80342 0.109588 0
M  V30 4908 H 477.62 -3.39127 1.88718 0
M  V30 4909 H 475.721 -3.68349 -0.561209 0
M  V30 4910 H 475.834 -4.67677 1.03995 0
M  V30 4911 H 474.198 -2.50548 0.458005 0
M  V30 4912 H 474.981 -2.7019 2.11784 0
M  V30 4913 N 477.426 -0.562348 -1.47226 0
M  V30 4914 C 478.672 -0.0485293 -2.03342 0
M  V30 4915 C 479.027 1.28898 -1.42839 0
M  V30 4916 O 478.32 1.82719 -0.576563 0
M  V30 4917 C 478.514 0.0969817 -3.57268 0
M  V30 4918 C 478.343 -1.22487 -4.32697 0
M  V30 4919 C 477.113 -1.79357 -4.72397 0
M  V30 4920 C 479.311 -2.14332 -4.67511 0
M  V30 4921 N 477.293 -3.05493 -5.32491 0
M  V30 4922 C 478.664 -3.25049 -5.27961 0
M  V30 4923 C 480.719 -2.14263 -4.4944 0
M  V30 4924 C 479.422 -4.35804 -5.72248 0
M  V30 4925 C 481.448 -3.24033 -4.94729 0
M  V30 4926 C 480.81 -4.3347 -5.55233 0
M  V30 4927 H 476.909 -0.0600464 -0.779691 0
M  V30 4928 H 479.493 -0.750769 -1.79643 0
M  V30 4929 H 477.664 0.768353 -3.80724 0
M  V30 4930 H 479.396 0.613333 -4.00025 0
M  V30 4931 H 476.151 -1.33093 -4.54514 0
M  V30 4932 H 476.575 -3.698 -5.67077 0
M  V30 4933 H 481.217 -1.30935 -4.02015 0
M  V30 4934 H 478.935 -5.19888 -6.18661 0
M  V30 4935 H 482.521 -3.25073 -4.82513 0
M  V30 4936 H 481.401 -5.17008 -5.89638 0
M  V30 4937 N 478.904 1.54736 -0.299062 0
M  V30 4938 C 479.836 2.20891 0.61153 0
M  V30 4939 C 480.849 1.20104 1.09904 0
M  V30 4940 O 482.038 1.46707 1.01683 0
M  V30 4941 C 479.138 2.84018 1.84897 0
M  V30 4942 C 478.311 4.10719 1.50428 0
M  V30 4943 C 477.37 4.57667 2.59667 0
M  V30 4944 O 476.396 5.2291 2.24842 0
M  V30 4945 N 477.598 4.29821 3.90172 0
M  V30 4946 H 480.363 2.99666 0.0452001 0
M  V30 4947 H 477.924 1.61446 -0.121178 0
M  V30 4948 H 479.916 3.1236 2.5732 0
M  V30 4949 H 478.486 2.09095 2.32375 0
M  V30 4950 H 477.706 3.89408 0.612781 0
M  V30 4951 H 478.994 4.93223 1.24934 0
M  V30 4952 H 478.392 3.77549 4.21276 0
M  V30 4953 H 476.949 4.62877 4.58899 0
M  V30 4954 N 480.382 0.0267497 1.57577 0
M  V30 4955 C 481.345 -0.940916 2.08996 0
M  V30 4956 C 482.345 -1.25561 1.00455 0
M  V30 4957 O 483.535 -1.19634 1.26623 0
M  V30 4958 C 480.667 -2.25814 2.55384 0
M  V30 4959 H 481.86 -0.495628 2.95776 0
M  V30 4960 H 479.413 -0.221241 1.54726 0
M  V30 4961 H 480.148 -2.74976 1.71926 0
M  V30 4962 H 479.933 -2.04285 3.34679 0
M  V30 4963 H 481.423 -2.95178 2.95398 0
M  V30 4964 N 481.861 -1.55662 -0.24637 0
M  V30 4965 C 482.824 -1.89558 -1.28842 0
M  V30 4966 C 483.824 -0.772082 -1.41052 0
M  V30 4967 O 485.014 -1.04007 -1.39743 0
M  V30 4968 C 482.146 -2.12449 -2.66605 0
M  V30 4969 H 483.339 -2.82735 -1.00004 0
M  V30 4970 H 480.892 -1.48562 -0.485684 0
M  V30 4971 H 481.627 -1.21742 -3.00582 0
M  V30 4972 H 481.412 -2.94273 -2.59125 0
M  V30 4973 H 482.902 -2.39854 -3.41847 0
M  V30 4974 N 483.339 0.512053 -1.4905 0
M  V30 4975 C 484.588 1.26343 -1.57227 0
M  V30 4976 C 484.901 1.93876 -0.259155 0
M  V30 4977 O 486.107 2.70612 -0.219358 0
M  V30 4978 C 484.563 2.29343 -2.77362 0
M  V30 4979 C 484.171 1.67799 -4.15388 0
M  V30 4980 C 485.915 3.05378 -2.94864 0
M  V30 4981 C 483.822 2.68845 -5.2676 0
M  V30 4982 H 482.752 0.475231 -0.585382 0
M  V30 4983 H 485.403 0.53862 -1.75417 0
M  V30 4984 H 483.785 3.04938 -2.52643 0
M  V30 4985 H 484.959 0.982715 -4.50199 0
M  V30 4986 H 483.274 1.04194 -4.03153 0
M  V30 4987 H 485.871 3.80921 -3.75238 0
M  V30 4988 H 486.214 3.62327 -2.05 0
M  V30 4989 H 486.747 2.36898 -3.19569 0
M  V30 4990 H 483.486 2.16692 -6.18647 0
M  V30 4991 H 483.006 3.36647 -4.96416 0
M  V30 4992 H 484.685 3.31487 -5.5563 0
M  V30 4993 N 484.817 1.37938 0.762283 0
M  V30 4994 C 486.064 1.33668 1.52115 0
M  V30 4995 C 486.392 -0.0759538 1.94352 0
M  V30 4996 O 485.647 -1.05121 1.6507 0
M  V30 4997 C 485.946 2.23042 2.79261 0
M  V30 4998 C 485.612 3.71159 2.56031 0
M  V30 4999 C 484.274 4.11523 2.49404 0
M  V30 5000 C 486.626 4.64955 2.35513 0
M  V30 5001 C 483.954 5.43784 2.20263 0
M  V30 5002 C 486.306 5.97464 2.07894 0
M  V30 5003 C 484.97 6.36922 1.99718 0
M  V30 5004 H 484.24 0.489127 0.556629 0
M  V30 5005 H 486.887 1.70224 0.877262 0
M  V30 5006 H 485.192 1.79512 3.48256 0
M  V30 5007 H 486.889 2.17047 3.37182 0
M  V30 5008 H 483.479 3.39153 2.62056 0
M  V30 5009 H 487.663 4.34623 2.39617 0
M  V30 5010 H 482.919 5.73307 2.12435 0
M  V30 5011 H 487.093 6.6969 1.91019 0
M  V30 5012 H 484.72 7.39331 1.76902 0
M  V30 5013 N 486.295 -0.989507 1.22664 0
M  V30 5014 C 487.258 -2.06183 1.00106 0
M  V30 5015 C 488.258 -1.60765 -0.0337726 0
M  V30 5016 O 489.448 -1.72989 0.205072 0
M  V30 5017 C 486.58 -3.37021 0.51279 0
M  V30 5018 H 487.773 -2.27629 1.95256 0
M  V30 5019 H 485.326 -1.16158 1.0458 0
M  V30 5020 H 486.061 -3.21261 -0.442917 0
M  V30 5021 H 485.846 -3.71323 1.25942 0
M  V30 5022 H 487.336 -4.1591 0.375315 0
M  V30 5023 N 487.773 -1.03688 -1.18687 0
M  V30 5024 C 488.72 -0.624624 -2.22187 0
M  V30 5025 C 489.69 0.365636 -1.62026 0
M  V30 5026 O 490.875 0.260481 -1.89014 0
M  V30 5027 C 488.015 0.0101738 -3.45099 0
M  V30 5028 C 487.128 -1.02709 -4.19613 0
M  V30 5029 C 486.263 -0.361213 -5.2997 0
M  V30 5030 C 485.302 -1.38384 -5.96252 0
M  V30 5031 N 484.439 -0.743196 -6.98155 0
M  V30 5032 H 489.279 -1.51176 -2.56807 0
M  V30 5033 H 486.816 -0.75636 -1.26165 0
M  V30 5034 H 488.774 0.395528 -4.15321 0
M  V30 5035 H 487.404 0.860848 -3.1111 0
M  V30 5036 H 486.456 -1.53043 -3.48256 0
M  V30 5037 H 487.768 -1.80398 -4.65036 0
M  V30 5038 H 486.922 0.0785537 -6.06649 0
M  V30 5039 H 485.661 0.447799 -4.8564 0
M  V30 5040 H 484.666 -1.83378 -5.18317 0
M  V30 5041 H 485.891 -2.19448 -6.42666 0
M  V30 5042 H 483.837 0.0455789 -6.55984 0
M  V30 5043 H 483.754 -1.45784 -7.41811 0
M  V30 5044 H 485.022 -0.327698 -7.78811 0
M  V30 5045 N 489.251 1.34841 -0.815825 0
M  V30 5046 C 490.201 2.27075 -0.205169 0
M  V30 5047 C 491.185 1.48205 0.626414 0
M  V30 5048 O 492.377 1.70306 0.482157 0
M  V30 5049 C 489.506 3.37322 0.637871 0
M  V30 5050 C 488.592 4.23609 -0.203948 0
M  V30 5051 N 488.983 4.89558 -1.27149 0
M  V30 5052 C 487.281 4.45998 0.0128971 0
M  V30 5053 C 487.982 5.53597 -1.7862 0
M  V30 5054 N 486.958 5.32535 -1.0912 0
M  V30 5055 H 490.76 2.75563 -1.02187 0
M  V30 5056 H 488.274 1.48477 -0.657912 0
M  V30 5057 H 490.271 4.02359 1.09146 0
M  V30 5058 H 488.931 2.90385 1.45281 0
M  V30 5059 H 489.942 4.9077 -1.65423 0
M  V30 5060 H 486.619 4.09837 0.79624 0
M  V30 5061 H 488.009 6.16184 -2.67892 0
M  V30 5062 N 490.729 0.570148 1.46925 0
M  V30 5063 C 492.145 0.23087 1.57921 0
M  V30 5064 C 492.345 -1.26676 1.56702 0
M  V30 5065 O 491.401 -2.04774 1.47729 0
M  V30 5066 C 492.714 0.868973 2.8787 0
M  V30 5067 C 494.262 0.841397 3.01479 0
M  V30 5068 C 494.737 1.45881 4.34146 0
M  V30 5069 N 496.228 1.42258 4.40814 0
M  V30 5070 C 496.963 1.8698 5.42057 0
M  V30 5071 N 496.459 2.39618 6.50042 0
M  V30 5072 N 498.252 1.77972 5.33181 0
M  V30 5073 H 490.403 1.54301 1.45962 0
M  V30 5074 H 492.666 0.644224 0.69547 0
M  V30 5075 H 492.372 1.922 2.94537 0
M  V30 5076 H 492.246 0.369682 3.75384 0
M  V30 5077 H 494.633 -0.202973 2.94401 0
M  V30 5078 H 494.714 1.37858 2.15474 0
M  V30 5079 H 494.358 2.50231 4.4198 0
M  V30 5080 H 494.288 0.896958 5.18905 0
M  V30 5081 H 496.779 1.03768 3.63374 0
M  V30 5082 H 497.092 2.71633 7.23488 0
M  V30 5083 H 495.437 2.43636 6.50897 0
M  V30 5084 H 498.628 1.36617 4.4772 0
M  V30 5085 H 498.801 2.13143 6.11943 0
M  V30 5086 N 492.207 -1.54576 0.307264 0
M  V30 5087 C 493.623 -1.59534 -0.0459251 0
M  V30 5088 C 493.823 -1.32414 -1.51884 0
M  V30 5089 O 492.879 -1.1006 -2.27251 0
M  V30 5090 C 494.192 -2.98566 0.357649 0
M  V30 5091 C 495.74 -3.11491 0.306937 0
M  V30 5092 C 496.215 -4.52842 0.685427 0
M  V30 5093 N 497.706 -4.58782 0.638203 0
M  V30 5094 C 498.441 -5.66238 0.903458 0
M  V30 5095 N 497.937 -6.81703 1.23501 0
M  V30 5096 N 499.73 -5.55937 0.830102 0
M  V30 5097 H 491.881 -1.70464 1.26712 0
M  V30 5098 H 494.144 -0.79647 0.514139 0
M  V30 5099 H 493.85 -3.23356 1.38325 0
M  V30 5100 H 493.724 -3.76117 -0.285565 0
M  V30 5101 H 496.111 -2.86446 -0.709424 0
M  V30 5102 H 496.192 -2.36081 0.984861 0
M  V30 5103 H 495.836 -4.78618 1.69963 0
M  V30 5104 H 495.766 -5.26598 -0.0146346 0
M  V30 5105 H 498.257 -3.75849 0.393138 0
M  V30 5106 H 498.57 -7.59582 1.42322 0
M  V30 5107 H 496.915 -6.8324 1.27311 0
M  V30 5108 H 500.106 -4.64608 0.570693 0
M  V30 5109 H 500.279 -6.39597 1.04019 0
M  V30 5110 N 493.685 -0.035106 -1.57561 0
M  V30 5111 C 494.91 0.655802 -1.96759 0
M  V30 5112 C 495.335 1.64523 -0.911809 0
M  V30 5113 O 494.693 1.80857 0.126673 0
M  V30 5114 C 494.741 1.33326 -3.35047 0
M  V30 5115 O 493.845 2.44866 -3.31835 0
M  V30 5116 H 493.186 0.171807 -0.641388 0
M  V30 5117 H 495.716 -0.0987369 -2.04362 0
M  V30 5118 H 495.726 1.68867 -3.71413 0
M  V30 5119 H 494.401 0.608033 -4.11431 0
M  V30 5120 H 492.978 2.11392 -3.07193 0
M  V30 5121 N 495.163 1.55791 0.238111 0
M  V30 5122 C 496.574 1.68383 0.806472 0
M  V30 5123 C 496.925 0.634157 1.85669 0
M  V30 5124 O 496.05 -0.217913 2.153 0
M  V30 5125 C 496.645 3.05268 1.46959 0
M  V30 5126 C 495.204 3.1977 1.98555 0
M  V30 5127 C 494.351 2.64279 0.839763 0
M  V30 5128 H 497.302 1.58694 0.0137535 0
M  V30 5129 H 497.323 3.00203 2.33792 0
M  V30 5130 H 496.835 3.81643 0.704993 0
M  V30 5131 H 494.936 2.48234 2.77868 0
M  V30 5132 H 495.049 4.26788 2.17689 0
M  V30 5133 H 493.413 2.22329 1.24265 0
M  V30 5134 H 494.196 3.43187 0.0881032 0
M  V30 5135 N 496.642 -0.504142 1.49319 0
M  V30 5136 C 497.89 -1.25598 1.58334 0
M  V30 5137 C 498.211 -1.93114 0.270538 0
M  V30 5138 O 497.481 -1.82585 -0.709891 0
M  V30 5139 H 496.061 -0.466571 0.58337 0
M  V30 5140 H 498.723 -0.584547 1.85928 0
M  V30 5141 H 497.819 -2.02159 2.37778 0
M  V30 5142 N 498.12 -1.38341 -0.754957 0
M  V30 5143 C 499.03 -1.3769 -1.89944 0
M  V30 5144 C 500.046 -0.274194 -1.71826 0
M  V30 5145 O 501.222 -0.512391 -1.94773 0
M  V30 5146 C 498.287 -1.19938 -3.25293 0
M  V30 5147 C 497.348 -2.40001 -3.55946 0
M  V30 5148 C 496.581 -2.23087 -4.84838 0
M  V30 5149 O 496.804 -1.22386 -5.57116 0
M  V30 5150 O 495.738 -3.11646 -5.14937 0
M  V30 5151 H 499.564 -2.3412 -1.93446 0
M  V30 5152 H 497.149 -1.19246 -0.900044 0
M  V30 5153 H 499.031 -1.12093 -4.06218 0
M  V30 5154 H 497.706 -0.265919 -3.22606 0
M  V30 5155 H 496.613 -2.53421 -2.75188 0
M  V30 5156 H 497.946 -3.31973 -3.63394 0
M  V30 5157 N 499.598 0.982988 -1.23187 0
M  V30 5158 C 501.014 1.2487 -0.993967 0
M  V30 5159 C 501.214 1.99155 0.306498 0
M  V30 5160 O 500.27 2.30688 1.0266 0
M  V30 5161 C 501.583 2.05078 -2.19917 0
M  V30 5162 C 503.131 2.18227 -2.2438 0
M  V30 5163 C 503.606 3.01825 -3.44479 0
M  V30 5164 N 505.097 3.09411 -3.44702 0
M  V30 5165 C 505.832 3.74412 -4.34285 0
M  V30 5166 N 505.328 4.41259 -5.341 0
M  V30 5167 N 507.121 3.71273 -4.22035 0
M  V30 5168 H 499.272 0.485253 -2.06783 0
M  V30 5169 H 501.535 0.276979 -0.906635 0
M  V30 5170 H 501.241 1.57867 -3.14279 0
M  V30 5171 H 501.115 3.05829 -2.2079 0
M  V30 5172 H 503.502 2.64648 -1.30559 0
M  V30 5173 H 503.583 1.16873 -2.2754 0
M  V30 5174 H 503.227 2.56102 -4.38605 0
M  V30 5175 H 503.157 4.03342 -3.38559 0
M  V30 5176 H 505.648 2.61845 -2.7248 0
M  V30 5177 H 505.961 4.88629 -5.98717 0
M  V30 5178 H 504.306 4.39975 -5.38002 0
M  V30 5179 H 507.497 3.18217 -3.43301 0
M  V30 5180 H 507.67 4.21649 -4.92053 0
M  V30 5181 N 501.076 1.04316 1.18135 0
M  V30 5182 C 502.323 0.74802 1.88178 0
M  V30 5183 C 502.651 -0.72441 1.80506 0
M  V30 5184 O 501.906 -1.54463 1.20165 0
M  V30 5185 C 502.205 1.16271 3.37958 0
M  V30 5186 C 501.871 2.63585 3.65833 0
M  V30 5187 C 500.533 3.03829 3.73151 0
M  V30 5188 C 502.885 3.58822 3.78016 0
M  V30 5189 C 500.213 4.38194 3.90132 0
M  V30 5190 C 502.565 4.92909 3.96514 0
M  V30 5191 C 501.229 5.3282 4.02068 0
M  V30 5192 H 500.499 0.27372 0.688592 0
M  V30 5193 H 503.146 1.30863 1.39811 0
M  V30 5194 H 501.451 0.520938 3.88321 0
M  V30 5195 H 503.148 0.911672 3.90499 0
M  V30 5196 H 499.738 2.31414 3.60757 0
M  V30 5197 H 503.922 3.28875 3.71692 0
M  V30 5198 H 499.178 4.68631 3.92677 0
M  V30 5199 H 503.352 5.66606 4.04883 0
M  V30 5200 H 500.979 6.36943 4.14979 0
M  V30 5201 N 502.554 -1.34406 0.822964 0
M  V30 5202 C 503.484 -2.32052 0.259608 0
M  V30 5203 C 504.465 -1.58243 -0.623961 0
M  V30 5204 O 505.65 -1.86224 -0.55083 0
M  V30 5205 C 502.78 -3.42434 -0.579314 0
M  V30 5206 C 501.734 -4.27499 0.20712 0
M  V30 5207 C 501.06 -5.29349 -0.754547 0
M  V30 5208 C 502.36 -5.02758 1.41533 0
M  V30 5209 H 504.054 -2.79418 1.07545 0
M  V30 5210 H 501.6 -1.34338 0.518593 0
M  V30 5211 H 503.553 -4.0976 -0.983612 0
M  V30 5212 H 502.277 -2.93717 -1.4282 0
M  V30 5213 H 500.936 -3.61776 0.592787 0
M  V30 5214 H 500.584 -4.76895 -1.59939 0
M  V30 5215 H 500.284 -5.8714 -0.232561 0
M  V30 5216 H 501.808 -5.99544 -1.1567 0
M  V30 5217 H 503.222 -5.62938 1.08504 0
M  V30 5218 H 501.619 -5.70123 1.87296 0
M  V30 5219 H 502.689 -4.32451 2.1935 0
M  V30 5220 N 504.032 -0.577932 -1.46621 0
M  V30 5221 C 505.272 -0.0643097 -2.04299 0
M  V30 5222 C 505.636 1.26967 -1.44026 0
M  V30 5223 O 506.837 1.87224 -1.92875 0
M  V30 5224 C 505.108 0.00547588 -3.574 0
M  V30 5225 S 506.667 0.462216 -4.36359 0
M  V30 5226 H 503.485 -0.0351573 -0.71013 0
M  V30 5227 H 506.087 -0.76935 -1.79725 0
M  V30 5228 H 504.791 -0.969423 -3.98786 0
M  V30 5229 H 504.322 0.733435 -3.86503 0
M  V30 5230 H 506.337 1.71791 -4.65513 0
M  V30 5231 N 505.51 1.54411 -0.315457 0
M  V30 5232 C 506.758 2.00023 0.288971 0
M  V30 5233 C 507.079 1.20529 1.5329 0
M  V30 5234 O 506.349 0.304986 1.93511 0
M  V30 5235 H 504.929 0.738891 0.109766 0
M  V30 5236 H 507.591 1.90094 -0.430129 0
M  V30 5237 H 506.687 3.07198 0.550999 0
M  V30 5238 N 506.988 0.0434614 1.5754 0
M  V30 5239 C 508.236 -0.630786 1.92004 0
M  V30 5240 C 508.557 -1.71836 0.921807 0
M  V30 5241 O 507.827 -1.9587 -0.034522 0
M  V30 5242 H 506.407 -0.235988 0.708745 0
M  V30 5243 H 509.069 0.0946462 1.9467 0
M  V30 5244 H 508.165 -1.07434 2.93026 0
M  V30 5245 N 508.466 -1.55915 -0.229846 0
M  V30 5246 C 509.715 -1.77742 -0.953455 0
M  V30 5247 C 510.028 -0.610524 -1.85828 0
M  V30 5248 O 511.234 -0.712219 -2.61992 0
M  V30 5249 C 509.69 -3.14738 -1.74551 0
M  V30 5250 C 509.298 -4.39126 -0.887242 0
M  V30 5251 C 511.042 -3.45895 -2.46084 0
M  V30 5252 C 508.949 -5.67149 -1.67617 0
M  V30 5253 H 507.879 -0.662648 -0.359741 0
M  V30 5254 H 510.53 -1.82322 -0.207576 0
M  V30 5255 H 508.912 -3.04311 -2.53399 0
M  V30 5256 H 510.086 -4.60588 -0.139892 0
M  V30 5257 H 508.401 -4.15427 -0.284443 0
M  V30 5258 H 510.998 -4.38767 -3.05594 0
M  V30 5259 H 511.341 -2.68007 -3.18556 0
M  V30 5260 H 511.874 -3.57614 -1.74233 0
M  V30 5261 H 508.613 -6.47906 -0.994881 0
M  V30 5262 H 508.133 -5.49763 -2.39836 0
M  V30 5263 H 509.812 -6.07025 -2.23898 0
M  V30 5264 N 509.944 0.496216 -1.49584 0
M  V30 5265 C 510.874 1.60576 -1.69521 0
M  V30 5266 C 511.855 1.61169 -0.543933 0
M  V30 5267 O 513.04 1.77834 -0.78031 0
M  V30 5268 C 510.17 2.99038 -1.76616 0
M  V30 5269 C 509.124 3.13312 -2.91581 0
M  V30 5270 C 508.45 4.53172 -2.83794 0
M  V30 5271 C 509.75 2.92886 -4.32452 0
M  V30 5272 H 511.444 1.44146 -2.62416 0
M  V30 5273 H 508.99 0.692024 -1.26282 0
M  V30 5274 H 510.943 3.76564 -1.8915 0
M  V30 5275 H 509.667 3.16568 -0.80324 0
M  V30 5276 H 508.326 2.38213 -2.78658 0
M  V30 5277 H 507.974 4.67585 -1.854 0
M  V30 5278 H 507.674 4.63662 -3.60958 0
M  V30 5279 H 509.198 5.32752 -2.98342 0
M  V30 5280 H 510.612 3.60178 -4.46032 0
M  V30 5281 H 509.009 3.14844 -5.10875 0
M  V30 5282 H 510.079 1.88966 -4.46565 0
M  V30 5283 N 511.423 1.38739 0.74761 0
M  V30 5284 C 512.672 1.3459 1.50228 0
M  V30 5285 C 512.985 -0.0595592 1.95509 0
M  V30 5286 O 514.191 -0.22361 2.70578 0
M  V30 5287 C 512.647 2.36377 2.71393 0
M  V30 5288 C 512.255 3.82573 2.33113 0
M  V30 5289 C 513.999 2.41281 3.49262 0
M  V30 5290 C 511.906 4.76032 3.50924 0
M  V30 5291 H 510.836 0.500312 0.564096 0
M  V30 5292 H 513.487 1.64324 0.8167 0
M  V30 5293 H 511.869 1.99694 3.41962 0
M  V30 5294 H 513.043 4.28227 1.70171 0
M  V30 5295 H 511.358 3.80844 1.68365 0
M  V30 5296 H 513.955 3.08301 4.36869 0
M  V30 5297 H 514.298 1.43353 3.9084 0
M  V30 5298 H 514.831 2.76793 2.85711 0
M  V30 5299 H 511.57 5.75177 3.14408 0
M  V30 5300 H 511.09 4.35066 4.12889 0
M  V30 5301 H 512.769 4.94331 4.17427 0
M  V30 5302 N 512.901 -0.976442 1.23707 0
M  V30 5303 C 514.126 -1.75875 1.09922 0
M  V30 5304 C 514.551 -1.84911 -0.34489 0
M  V30 5305 O 513.909 -1.31363 -1.24954 0
M  V30 5306 C 513.957 -3.16179 1.73388 0
M  V30 5307 O 513.061 -4.00124 0.99871 0
M  V30 5308 H 512.402 -0.540954 0.385052 0
M  V30 5309 H 514.932 -1.22546 1.6384 0
M  V30 5310 H 514.942 -3.66741 1.78788 0
M  V30 5311 H 513.617 -3.08917 2.78466 0
M  V30 5312 H 512.194 -3.58624 1.02193 0
M  V30 5313 N 514.379 -1.04941 -1.1758 0
M  V30 5314 C 515.604 -0.778253 -1.92245 0
M  V30 5315 C 516.029 0.659707 -1.76152 0
M  V30 5316 O 515.387 1.45803 -1.07755 0
M  V30 5317 C 515.435 -1.16051 -3.41416 0
M  V30 5318 O 514.539 -0.291153 -4.11371 0
M  V30 5319 H 513.88 -0.285619 -0.599431 0
M  V30 5320 H 516.41 -1.40159 -1.49052 0
M  V30 5321 H 516.42 -1.12619 -3.92149 0
M  V30 5322 H 515.095 -2.208 -3.52449 0
M  V30 5323 H 513.672 -0.385851 -3.70898 0
M  V30 5324 N 515.857 1.33968 -0.830081 0
M  V30 5325 C 517.097 1.99879 -0.427521 0
M  V30 5326 C 517.461 1.64355 0.992546 0
M  V30 5327 O 518.662 2.23164 1.49837 0
M  V30 5328 C 516.933 3.51771 -0.631815 0
M  V30 5329 S 518.492 4.37608 -0.323168 0
M  V30 5330 H 515.31 0.692485 -0.161202 0
M  V30 5331 H 517.912 1.63129 -1.07745 0
M  V30 5332 H 516.616 3.75113 -1.66488 0
M  V30 5333 H 516.147 3.93386 0.0325936 0
M  V30 5334 H 518.162 4.88683 0.860432 0
M  V30 5335 N 517.335 0.585699 1.46312 0
M  V30 5336 C 518.581 0.0808731 2.03239 0
M  V30 5337 C 518.936 -1.26609 1.44872 0
M  V30 5338 O 518.229 -1.81779 0.60556 0
M  V30 5339 C 518.423 -0.0401312 3.57377 0
M  V30 5340 C 518.252 1.29356 4.30694 0
M  V30 5341 C 517.022 1.86849 4.69484 0
M  V30 5342 C 519.22 2.21742 4.64042 0
M  V30 5343 N 517.202 3.13926 5.27564 0
M  V30 5344 C 518.573 3.33408 5.22723 0
M  V30 5345 C 520.628 2.21386 4.45974 0
M  V30 5346 C 519.331 4.44852 5.65242 0
M  V30 5347 C 521.357 3.31862 4.89511 0
M  V30 5348 C 520.719 4.42248 5.48266 0
M  V30 5349 H 516.818 0.072443 0.778637 0
M  V30 5350 H 519.402 0.779254 1.78426 0
M  V30 5351 H 517.573 -0.707686 3.81898 0
M  V30 5352 H 519.305 -0.549615 4.00951 0
M  V30 5353 H 516.06 1.40307 4.52339 0
M  V30 5354 H 516.484 3.78775 5.61122 0
M  V30 5355 H 521.126 1.37314 3.99881 0
M  V30 5356 H 518.844 5.29665 6.10312 0
M  V30 5357 H 522.43 3.32708 4.7728 0
M  V30 5358 H 521.31 5.26323 5.81338 0
M  V30 5359 N 518.813 -1.54241 0.323641 0
M  V30 5360 C 520.062 -1.9975 -0.279806 0
M  V30 5361 C 520.375 -1.2156 -1.5324 0
M  V30 5362 O 521.581 -1.57447 -2.21185 0
M  V30 5363 C 520.037 -3.55686 -0.549115 0
M  V30 5364 C 519.645 -4.4271 0.686432 0
M  V30 5365 C 521.389 -4.09663 -1.11251 0
M  V30 5366 C 519.296 -5.90119 0.389022 0
M  V30 5367 H 518.226 -0.746177 -0.10833 0
M  V30 5368 H 520.877 -1.78248 0.435877 0
M  V30 5369 H 519.259 -3.73176 -1.32499 0
M  V30 5370 H 520.433 -4.36996 1.46188 0
M  V30 5371 H 518.748 -3.99623 1.17005 0
M  V30 5372 H 521.345 -5.17386 -1.34965 0
M  V30 5373 H 521.688 -3.61651 -2.06191 0
M  V30 5374 H 522.221 -3.95806 -0.39782 0
M  V30 5375 H 518.96 -6.42326 1.30759 0
M  V30 5376 H 518.48 -5.98785 -0.348722 0
M  V30 5377 H 520.159 -6.47 -0.0011164 0
M  V30 5378 N 520.291 -0.0518155 -1.57515 0
M  V30 5379 C 521.221 0.920283 -2.146 0
M  V30 5380 C 522.202 1.32406 -1.06783 0
M  V30 5381 O 523.387 1.39866 -1.34726 0
M  V30 5382 C 520.517 2.1949 -2.6915 0
M  V30 5383 C 519.471 1.93116 -3.81956 0
M  V30 5384 C 518.797 3.27037 -4.23026 0
M  V30 5385 C 520.097 1.25225 -5.07066 0
M  V30 5386 H 521.791 0.444801 -2.96077 0
M  V30 5387 H 519.337 0.212508 -1.42423 0
M  V30 5388 H 521.29 2.87894 -3.07725 0
M  V30 5389 H 520.014 2.69244 -1.84865 0
M  V30 5390 H 518.673 1.27123 -3.43854 0
M  V30 5391 H 518.321 3.74595 -3.3569 0
M  V30 5392 H 518.021 3.10189 -4.99056 0
M  V30 5393 H 519.545 3.96673 -4.64202 0
M  V30 5394 H 520.959 1.83666 -5.43083 0
M  V30 5395 H 519.356 1.18702 -5.88243 0
M  V30 5396 H 520.426 0.228382 -4.84362 0
M  V30 5397 N 521.769 1.56035 0.221574 0
M  V30 5398 C 522.994 1.83476 0.967026 0
M  V30 5399 C 523.419 0.632139 1.7716 0
M  V30 5400 O 522.777 -0.419082 1.7639 0
M  V30 5401 C 522.825 3.08907 1.86034 0
M  V30 5402 O 521.929 2.876 2.95567 0
M  V30 5403 H 521.27 0.604913 0.273817 0
M  V30 5404 H 523.8 2.03247 0.234893 0
M  V30 5405 H 523.81 3.3901 2.27016 0
M  V30 5406 H 522.485 3.96068 1.26898 0
M  V30 5407 H 521.062 2.6873 2.58532 0
M  V30 5408 N 523.247 -0.488276 1.49845 0
M  V30 5409 C 524.21 -1.57069 1.66919 0
M  V30 5410 C 525.21 -1.51445 0.540479 0
M  V30 5411 O 526.4 -1.5437 0.807188 0
M  V30 5412 C 523.532 -2.96718 1.67844 0
M  V30 5413 H 524.725 -1.43254 2.63474 0
M  V30 5414 H 522.278 -0.713435 1.39068 0
M  V30 5415 H 523.013 -3.15996 0.7292 0
M  V30 5416 H 522.798 -3.02208 2.49826 0
M  V30 5417 H 524.288 -3.75335 1.83066 0
M  V30 5418 N 524.725 -1.39134 -0.740242 0
M  V30 5419 C 525.688 -1.37217 -1.83587 0
M  V30 5420 C 526.688 -0.270221 -1.58513 0
M  V30 5421 O 527.878 -0.527843 -1.6601 0
M  V30 5422 C 525.01 -1.13959 -3.21288 0
M  V30 5423 H 526.203 -2.34705 -1.86691 0
M  V30 5424 H 523.756 -1.24622 -0.94335 0
M  V30 5425 H 524.491 -0.17131 -3.23847 0
M  V30 5426 H 524.276 -1.93754 -3.40884 0
M  V30 5427 H 525.766 -1.15346 -4.01354 0
M  V30 5428 N 526.204 0.969867 -1.24223 0
M  V30 5429 C 527.154 2.04913 -0.999732 0
M  V30 5430 C 528.138 1.60795 0.0580636 0
M  V30 5431 O 529.33 1.76317 -0.155392 0
M  V30 5432 C 526.459 3.37942 -0.604154 0
M  V30 5433 C 525.545 3.88628 -1.69791 0
M  V30 5434 N 525.936 4.12274 -2.93025 0
M  V30 5435 C 524.234 4.17268 -1.57492 0
M  V30 5436 C 524.935 4.53808 -3.63914 0
M  V30 5437 N 523.911 4.58855 -2.91468 0
M  V30 5438 H 527.713 2.21168 -1.93551 0
M  V30 5439 H 525.227 1.15349 -1.14317 0
M  V30 5440 H 527.224 4.14863 -0.411665 0
M  V30 5441 H 525.884 3.23075 0.324465 0
M  V30 5442 H 526.895 3.99789 -3.29225 0
M  V30 5443 H 523.572 4.11346 -0.714175 0
M  V30 5444 H 524.962 4.80534 -4.69614 0
M  V30 5445 N 527.682 1.05563 1.17022 0
M  V30 5446 C 528.922 0.777033 1.89054 0
M  V30 5447 C 529.286 -0.683617 1.79418 0
M  V30 5448 O 530.487 -1.07648 2.46303 0
M  V30 5449 C 528.758 1.24886 3.34871 0
M  V30 5450 S 530.317 1.0982 4.24835 0
M  V30 5451 H 527.135 0.282082 0.652649 0
M  V30 5452 H 529.737 1.35103 1.41306 0
M  V30 5453 H 528.441 2.30699 3.3942 0
M  V30 5454 H 527.972 0.669292 3.87665 0
M  V30 5455 H 529.987 0.02462 4.96194 0
M  V30 5456 N 529.16 -1.33526 0.837174 0
M  V30 5457 C 530.407 -1.97837 0.432064 0
M  V30 5458 C 530.735 -1.66324 -1.00829 0
M  V30 5459 O 529.99 -0.93448 -1.71948 0
M  V30 5460 C 530.289 -3.52367 0.597675 0
M  V30 5461 C 529.955 -4.03826 2.00587 0
M  V30 5462 C 528.617 -4.1759 2.39106 0
M  V30 5463 C 530.969 -4.31333 2.92576 0
M  V30 5464 C 528.297 -4.56195 3.68921 0
M  V30 5465 C 530.649 -4.7139 4.2187 0
M  V30 5466 C 529.313 -4.8336 4.60347 0
M  V30 5467 H 528.583 -0.723937 0.158104 0
M  V30 5468 H 531.23 -1.5923 1.06387 0
M  V30 5469 H 529.535 -3.91624 -0.117452 0
M  V30 5470 H 531.232 -4.00126 0.26454 0
M  V30 5471 H 527.822 -3.93586 1.69671 0
M  V30 5472 H 532.006 -4.20224 2.64056 0
M  V30 5473 H 527.262 -4.63655 3.9854 0
M  V30 5474 H 531.436 -4.91631 4.93226 0
M  V30 5475 H 529.063 -5.1303 5.60985 0
M  V30 5476 N 530.638 -0.59345 -1.46 0
M  V30 5477 C 531.57 0.171569 -2.28557 0
M  V30 5478 C 532.583 0.845273 -1.39137 0
M  V30 5479 O 533.772 0.713033 -1.6364 0
M  V30 5480 C 530.872 1.26311 -3.14482 0
M  V30 5481 C 530.045 0.679258 -4.32094 0
M  V30 5482 C 529.104 1.65987 -4.99334 0
M  V30 5483 O 528.13 1.19171 -5.56585 0
M  V30 5484 N 529.332 2.99414 -4.97324 0
M  V30 5485 H 532.097 -0.536771 -2.94854 0
M  V30 5486 H 529.658 -0.431954 -1.56031 0
M  V30 5487 H 531.65 1.91863 -3.5633 0
M  V30 5488 H 530.22 1.87416 -2.50188 0
M  V30 5489 H 529.44 -0.153992 -3.93899 0
M  V30 5490 H 530.728 0.26916 -5.08088 0
M  V30 5491 H 530.126 3.40064 -4.52076 0
M  V30 5492 H 528.683 3.60426 -5.4308 0
M  V30 5493 N 532.116 1.54067 -0.331816 0
M  V30 5494 C 533.026 2.28322 0.539104 0
M  V30 5495 C 534.042 1.32985 1.1221 0
M  V30 5496 O 535.218 1.6601 1.1403 0
M  V30 5497 C 532.283 3.03277 1.68 0
M  V30 5498 C 531.344 4.14216 1.12798 0
M  V30 5499 C 530.577 4.85588 2.2145 0
M  V30 5500 O 530.8 4.56536 3.41952 0
M  V30 5501 O 529.734 5.72309 1.86404 0
M  V30 5502 H 533.56 3.03632 -0.0641692 0
M  V30 5503 H 531.145 1.49083 -0.0972365 0
M  V30 5504 H 533.027 3.50189 2.34405 0
M  V30 5505 H 531.702 2.30834 2.2693 0
M  V30 5506 H 530.609 3.71635 0.428782 0
M  V30 5507 H 531.942 4.88727 0.583698 0
M  V30 5508 N 533.594 0.0601682 1.57485 0
M  V30 5509 C 535.01 -0.296422 1.56823 0
M  V30 5510 C 535.21 -1.70831 1.0686 0
M  V30 5511 O 534.266 -2.4174 0.729245 0
M  V30 5512 C 535.579 -0.116681 3.00474 0
M  V30 5513 C 537.127 -0.187103 3.1244 0
M  V30 5514 C 537.602 -0.035783 4.57986 0
M  V30 5515 N 539.093 -0.0917676 4.63109 0
M  V30 5516 C 539.828 0.00107251 5.734 0
M  V30 5517 N 539.324 0.146773 6.92645 0
M  V30 5518 N 541.117 -0.0551577 5.62073 0
M  V30 5519 H 533.268 0.983055 1.88281 0
M  V30 5520 H 535.531 0.382386 0.867459 0
M  V30 5521 H 535.237 0.85712 3.41096 0
M  V30 5522 H 535.111 -0.873929 3.66936 0
M  V30 5523 H 537.498 -1.15138 2.71712 0
M  V30 5524 H 537.579 0.601052 2.48638 0
M  V30 5525 H 537.223 0.925212 4.99402 0
M  V30 5526 H 537.153 -0.843196 5.19806 0
M  V30 5527 H 539.644 -0.203261 3.77353 0
M  V30 5528 H 539.957 0.210076 7.72514 0
M  V30 5529 H 538.302 0.181979 6.94762 0
M  V30 5530 H 541.493 -0.167605 4.678 0
M  V30 5531 H 541.666 0.020652 6.47997 0
M  V30 5532 N 535.072 -1.5615 -0.213296 0
M  V30 5533 C 536.319 -1.79546 -0.936462 0
M  V30 5534 C 536.647 -0.630337 -1.84003 0
M  V30 5535 O 535.902 0.384883 -1.91878 0
M  V30 5536 C 536.201 -3.08772 -1.79985 0
M  V30 5537 C 535.867 -4.38532 -1.04882 0
M  V30 5538 C 534.529 -4.73787 -0.841393 0
M  V30 5539 C 536.881 -5.18609 -0.51907 0
M  V30 5540 C 534.209 -5.86627 -0.0924403 0
M  V30 5541 C 536.561 -6.32229 0.216581 0
M  V30 5542 C 535.225 -6.6608 0.435191 0
M  V30 5543 H 534.495 -0.657004 -0.342676 0
M  V30 5544 H 537.142 -1.9041 -0.204051 0
M  V30 5545 H 535.447 -2.93065 -2.60038 0
M  V30 5546 H 537.144 -3.24077 -2.36168 0
M  V30 5547 H 533.734 -4.10855 -1.22048 0
M  V30 5548 H 537.918 -4.91801 -0.666775 0
M  V30 5549 H 533.174 -6.11338 0.087081 0
M  V30 5550 H 537.348 -6.93503 0.634538 0
M  V30 5551 H 534.975 -7.5336 1.01746 0
M  V30 5552 N 536.55 0.480323 -1.50102 0
M  V30 5553 C 537.961 1.06142 -1.53593 0
M  V30 5554 C 538.312 1.93335 -0.334055 0
M  V30 5555 O 537.437 2.09188 0.55403 0
M  V30 5556 C 538.032 1.9317 -2.78336 0
M  V30 5557 C 536.591 2.46405 -2.84538 0
M  V30 5558 C 535.738 1.24521 -2.4777 0
M  V30 5559 H 538.689 0.26333 -1.565 0
M  V30 5560 H 538.71 2.78123 -2.59669 0
M  V30 5561 H 538.222 1.29683 -3.65792 0
M  V30 5562 H 536.323 3.13472 -2.01411 0
M  V30 5563 H 536.436 2.82143 -3.87211 0
M  V30 5564 H 534.8 1.57706 -2.00003 0
M  V30 5565 H 535.583 0.627102 -3.37524 0
M  V30 5566 N 538.028 1.39524 0.732853 0
M  V30 5567 C 539.439 1.32905 1.31122 0
M  V30 5568 C 539.79 -0.00558708 1.96199 0
M  V30 5569 O 538.915 -0.907706 1.96443 0
M  V30 5570 C 539.51 2.40704 2.38426 0
M  V30 5571 C 538.069 2.37599 2.91931 0
M  V30 5572 C 537.216 2.2248 1.65523 0
M  V30 5573 H 540.167 1.49581 0.530207 0
M  V30 5574 H 540.188 2.07616 3.18867 0
M  V30 5575 H 539.7 3.37829 1.91033 0
M  V30 5576 H 537.801 1.44119 3.43599 0
M  V30 5577 H 537.914 3.32538 3.44899 0
M  V30 5578 H 536.278 1.69691 1.8994 0
M  V30 5579 H 537.061 3.21577 1.20178 0
M  V30 5580 N 539.506 -0.963266 1.24736 0
M  V30 5581 C 540.456 -2.0438 1.01058 0
M  V30 5582 C 541.44 -1.60824 -0.0495354 0
M  V30 5583 O 542.632 -1.76232 0.164741 0
M  V30 5584 C 539.761 -3.37617 0.622067 0
M  V30 5585 C 538.847 -3.87722 1.7185 0
M  V30 5586 N 539.238 -4.10715 2.95207 0
M  V30 5587 C 537.536 -4.16426 1.59703 0
M  V30 5588 C 538.237 -4.51872 3.66315 0
M  V30 5589 N 537.213 -4.57302 2.93897 0
M  V30 5590 H 541.015 -2.20138 1.94721 0
M  V30 5591 H 538.529 -1.14741 1.14927 0
M  V30 5592 H 540.526 -4.14638 0.43366 0
M  V30 5593 H 539.186 -3.23242 -0.307327 0
M  V30 5594 H 540.197 -3.98037 3.31341 0
M  V30 5595 H 536.874 -4.10962 0.73598 0
M  V30 5596 H 538.264 -4.78037 4.72155 0
M  V30 5597 N 540.985 -1.06182 -1.16461 0
M  V30 5598 C 541.935 -0.641619 -2.18786 0
M  V30 5599 C 542.919 0.327122 -1.5754 0
M  V30 5600 O 544.111 0.142746 -1.76423 0
M  V30 5601 C 541.24 -0.0283734 -3.43288 0
M  V30 5602 C 540.326 -1.02154 -4.11613 0
M  V30 5603 N 540.717 -2.19671 -4.55608 0
M  V30 5604 C 539.015 -0.852229 -4.37782 0
M  V30 5605 C 539.716 -2.82583 -5.0845 0
M  V30 5606 N 538.692 -2.10318 -5.01266 0
M  V30 5607 H 542.494 -1.53684 -2.50516 0
M  V30 5608 H 540.008 -0.933349 -1.329 0
M  V30 5609 H 542.005 0.29049 -4.15887 0
M  V30 5610 H 540.665 0.862118 -3.13046 0
M  V30 5611 H 541.676 -2.57453 -4.49375 0
M  V30 5612 H 538.353 -0.0136314 -4.17498 0
M  V30 5613 H 539.743 -3.82298 -5.52538 0
M  V30 5614 N 542.463 1.3308 -0.844243 0
M  V30 5615 C 543.393 2.3161 -0.296493 0
M  V30 5616 C 544.374 1.59215 0.598707 0
M  V30 5617 O 545.559 1.87077 0.521134 0
M  V30 5618 C 542.689 3.43313 0.524762 0
M  V30 5619 C 541.643 4.27115 -0.275106 0
M  V30 5620 C 540.969 5.30483 0.670236 0
M  V30 5621 C 542.269 5.00443 -1.49514 0
M  V30 5622 H 543.963 2.77672 -1.11976 0
M  V30 5623 H 541.509 1.33496 -0.539899 0
M  V30 5624 H 543.462 4.11273 0.918298 0
M  V30 5625 H 542.186 2.95952 1.3813 0
M  V30 5626 H 540.845 3.60787 -0.650267 0
M  V30 5627 H 540.493 4.79379 1.52332 0
M  V30 5628 H 540.193 5.87435 0.139123 0
M  V30 5629 H 541.717 6.01308 1.06117 0
M  V30 5630 H 543.131 5.61141 -1.17447 0
M  V30 5631 H 541.528 5.67071 -1.96343 0
M  V30 5632 H 542.598 4.28906 -2.26202 0
M  V30 5633 N 543.941 0.601185 1.45683 0
M  V30 5634 C 545.169 0.100054 2.06658 0
M  V30 5635 C 545.584 -1.21285 1.44691 0
M  V30 5636 O 544.941 -1.73735 0.558772 0
M  V30 5637 C 544.992 -0.0528579 3.61461 0
M  V30 5638 O 544.713 1.20809 4.21114 0
M  V30 5639 C 546.214 -0.586193 4.39407 0
M  V30 5640 H 543.434 0.065905 0.667756 0
M  V30 5641 H 545.978 0.827101 1.87028 0
M  V30 5642 H 544.133 -0.730203 3.80456 0
M  V30 5643 H 544.547 1.03368 5.14213 0
M  V30 5644 H 546.021 -0.642297 5.4825 0
M  V30 5645 H 546.498 -1.60713 4.0874 0
M  V30 5646 H 547.104 0.0568935 4.25262 0
M  V30 5647 N 545.419 -1.53889 0.339982 0
M  V30 5648 C 546.665 -2.01152 -0.258003 0
M  V30 5649 C 546.998 -1.22749 -1.50487 0
M  V30 5650 O 546.273 -0.314156 -1.91946 0
M  V30 5651 C 546.556 -3.55468 -0.575717 0
M  V30 5652 C 546.409 -4.44584 0.682996 0
M  V30 5653 C 547.728 -4.1768 -1.38677 0
M  V30 5654 H 544.847 -0.731198 -0.0922992 0
M  V30 5655 H 547.489 -1.84352 0.459814 0
M  V30 5656 H 545.639 -3.69914 -1.18725 0
M  V30 5657 H 547.311 -4.41981 1.32102 0
M  V30 5658 H 545.554 -4.13592 1.3086 0
M  V30 5659 H 546.225 -5.5043 0.416001 0
M  V30 5660 H 548.701 -4.0691 -0.869705 0
M  V30 5661 H 547.577 -5.25734 -1.57783 0
M  V30 5662 H 547.838 -3.72069 -2.38782 0
M  V30 5663 N 546.897 -0.0685191 -1.57451 0
M  V30 5664 C 548.146 0.600898 -1.92541 0
M  V30 5665 C 548.459 1.70967 -0.950239 0
M  V30 5666 O 549.665 2.43844 -1.19384 0
M  V30 5667 C 548.121 1.12019 -3.42023 0
M  V30 5668 C 547.729 0.0426028 -4.4798 0
M  V30 5669 C 549.473 1.76386 -3.86119 0
M  V30 5670 C 547.38 0.575759 -5.88591 0
M  V30 5671 H 546.31 0.228225 -0.71863 0
M  V30 5672 H 548.961 -0.140223 -1.82963 0
M  V30 5673 H 547.343 1.91418 -3.46663 0
M  V30 5674 H 548.517 -0.73182 -4.54952 0
M  V30 5675 H 546.832 -0.504642 -4.13331 0
M  V30 5676 H 549.429 2.17302 -4.88553 0
M  V30 5677 H 549.772 2.62255 -3.23308 0
M  V30 5678 H 550.305 1.03615 -3.84069 0
M  V30 5679 H 547.044 -0.245691 -6.55039 0
M  V30 5680 H 546.564 1.31778 -5.85145 0
M  V30 5681 H 548.243 1.0532 -6.3837 0
M  V30 5682 N 548.375 1.56261 0.205012 0
M  V30 5683 C 549.305 1.96779 1.257 0
M  V30 5684 C 550.286 0.838309 1.48008 0
M  V30 5685 O 551.471 1.10189 1.59913 0
M  V30 5686 C 548.601 2.29876 2.60335 0
M  V30 5687 C 547.555 3.45469 2.52656 0
M  V30 5688 C 546.881 3.64215 3.91473 0
M  V30 5689 C 548.181 4.79954 2.06014 0
M  V30 5690 H 549.875 2.84904 0.920338 0
M  V30 5691 H 547.421 1.37072 0.441277 0
M  V30 5692 H 549.374 2.56814 3.34102 0
M  V30 5693 H 548.098 1.38622 2.95722 0
M  V30 5694 H 546.757 3.18605 1.81345 0
M  V30 5695 H 546.405 2.70309 4.24196 0
M  V30 5696 H 546.105 4.41973 3.87213 0
M  V30 5697 H 547.629 3.93519 4.66878 0
M  V30 5698 H 549.043 5.05989 2.69533 0
M  V30 5699 H 547.44 5.61111 2.12777 0
M  V30 5700 H 548.51 4.74201 1.01297 0
M  V30 5701 N 549.853 -0.472356 1.50355 0
M  V30 5702 C 551.101 -1.22211 1.60962 0
M  V30 5703 C 551.422 -1.92497 0.311439 0
M  V30 5704 O 550.692 -1.8405 -0.671002 0
M  V30 5705 H 549.272 -0.454092 0.593135 0
M  V30 5706 H 551.934 -0.544977 1.87126 0
M  V30 5707 H 551.03 -1.9707 2.42012 0
M  V30 5708 N 551.331 -1.39911 -0.725443 0
M  V30 5709 C 552.747 -1.21725 -1.03224 0
M  V30 5710 C 552.947 -0.0855224 -2.01318 0
M  V30 5711 O 552.003 0.55976 -2.46217 0
M  V30 5712 C 553.316 -2.55511 -1.58539 0
M  V30 5713 C 554.864 -2.62439 -1.70572 0
M  V30 5714 C 555.339 -3.9647 -2.29294 0
M  V30 5715 N 556.83 -3.98159 -2.36692 0
M  V30 5716 C 557.565 -4.98647 -2.83088 0
M  V30 5717 N 557.061 -6.0953 -3.2931 0
M  V30 5718 N 558.854 -4.8602 -2.82384 0
M  V30 5719 H 551.005 -2.12267 -0.075048 0
M  V30 5720 H 553.268 -0.943136 -0.0959066 0
M  V30 5721 H 552.974 -3.38926 -0.939249 0
M  V30 5722 H 552.848 -2.75905 -2.57208 0
M  V30 5723 H 555.235 -1.79401 -2.34306 0
M  V30 5724 H 555.316 -2.45885 -0.705297 0
M  V30 5725 H 554.96 -4.79942 -1.66186 0
M  V30 5726 H 554.89 -4.10349 -3.30032 0
M  V30 5727 H 557.381 -3.18085 -2.04035 0
M  V30 5728 H 557.694 -6.82106 -3.6325 0
M  V30 5729 H 556.039 -6.1311 -3.27294 0
M  V30 5730 H 559.23 -3.98493 -2.45603 0
M  V30 5731 H 559.403 -5.64478 -3.18226 0
M  V30 5732 N 552.809 0.956637 -1.25245 0
M  V30 5733 C 554.037 1.73571 -1.12608 0
M  V30 5734 C 554.452 1.86063 0.320324 0
M  V30 5735 O 553.809 1.35691 1.22042 0
M  V30 5736 C 553.86 3.15053 -1.77268 0
M  V30 5737 O 553.581 3.03174 -3.16255 0
M  V30 5738 C 555.082 4.09248 -1.70386 0
M  V30 5739 H 552.302 0.543955 -0.392879 0
M  V30 5740 H 554.846 1.20031 -1.65568 0
M  V30 5741 H 553.001 3.65543 -1.28284 0
M  V30 5742 H 553.415 3.9241 -3.48015 0
M  V30 5743 H 554.889 5.06138 -2.20291 0
M  V30 5744 H 555.366 4.34102 -0.667239 0
M  V30 5745 H 555.972 3.64672 -2.18849 0
M  V30 5746 N 554.287 1.06798 1.15896 0
M  V30 5747 C 555.517 0.807522 1.90165 0
M  V30 5748 C 555.925 -0.642417 1.7796 0
M  V30 5749 O 555.268 -1.45193 1.12537 0
M  V30 5750 C 555.33 1.12939 3.41299 0
M  V30 5751 C 554.994 2.57879 3.7729 0
M  V30 5752 C 555.991 3.56118 3.78782 0
M  V30 5753 C 553.676 2.93311 4.07767 0
M  V30 5754 C 555.67 4.87827 4.10248 0
M  V30 5755 C 553.357 4.25219 4.38899 0
M  V30 5756 C 554.355 5.22287 4.4012 0
M  V30 5757 O 554.043 6.51826 4.70508 0
M  V30 5758 H 553.775 0.291946 0.609708 0
M  V30 5759 H 556.329 1.42627 1.47806 0
M  V30 5760 H 554.559 0.45359 3.84031 0
M  V30 5761 H 556.248 0.852363 3.9685 0
M  V30 5762 H 557.014 3.30086 3.55342 0
M  V30 5763 H 552.893 2.18409 4.05979 0
M  V30 5764 H 556.437 5.63586 4.11116 0
M  V30 5765 H 552.334 4.51006 4.61805 0
M  V30 5766 H 553.102 6.56893 4.88298 0
M  V30 5767 N 555.766 -1.3263 0.851289 0
M  V30 5768 C 557.182 -1.50162 0.5407 0
M  V30 5769 C 557.382 -1.78788 -0.929369 0
M  V30 5770 O 556.438 -1.85545 -1.71258 0
M  V30 5771 C 557.751 -2.64803 1.42478 0
M  V30 5772 C 559.299 -2.78688 1.42485 0
M  V30 5773 C 559.774 -3.96405 2.29407 0
M  V30 5774 N 561.265 -4.0366 2.27184 0
M  V30 5775 C 562 -4.93971 2.9117 0
M  V30 5776 N 561.496 -5.89313 3.64256 0
M  V30 5777 N 563.289 -4.87066 2.80576 0
M  V30 5778 H 555.44 -1.12315 1.80275 0
M  V30 5779 H 557.703 -0.553266 0.769806 0
M  V30 5780 H 557.409 -2.50368 2.46999 0
M  V30 5781 H 557.283 -3.60506 1.10974 0
M  V30 5782 H 559.67 -2.92547 0.387304 0
M  V30 5783 H 559.751 -1.83708 1.78002 0
M  V30 5784 H 559.395 -3.83304 3.33228 0
M  V30 5785 H 559.325 -4.90654 1.91224 0
M  V30 5786 H 561.816 -3.35435 1.74045 0
M  V30 5787 H 562.129 -6.54913 4.10255 0
M  V30 5788 H 560.474 -5.8935 3.68364 0
M  V30 5789 H 563.665 -4.11552 2.23031 0
M  V30 5790 H 563.838 -5.57248 3.30725 0
M  V30 5791 N 557.244 -0.608902 -1.45362 0
M  V30 5792 C 558.49 -0.104762 -2.02529 0
M  V30 5793 C 558.823 1.26191 -1.47613 0
M  V30 5794 O 558.098 1.8327 -0.65134 0
M  V30 5795 C 558.381 -0.0672661 -3.60037 0
M  V30 5796 C 558.234 -1.4647 -4.25284 0
M  V30 5797 C 559.553 0.619877 -4.35713 0
M  V30 5798 H 556.672 -0.0395438 -0.735938 0
M  V30 5799 H 559.314 -0.781126 -1.73201 0
M  V30 5800 H 557.464 0.50871 -3.85155 0
M  V30 5801 H 559.136 -2.08785 -4.11347 0
M  V30 5802 H 557.379 -2.02502 -3.83634 0
M  V30 5803 H 558.05 -1.39069 -5.34195 0
M  V30 5804 H 560.526 0.130297 -4.15896 0
M  V30 5805 H 559.402 0.615224 -5.45441 0
M  V30 5806 H 559.663 1.68621 -4.0868 0
M  V30 5807 N 558.722 1.53707 -0.348139 0
M  V30 5808 C 559.968 2.01286 0.247332 0
M  V30 5809 C 560.301 1.23546 1.49834 0
M  V30 5810 O 559.576 0.324331 1.91777 0
M  V30 5811 C 559.859 3.55768 0.556858 0
M  V30 5812 C 559.712 4.44216 -0.706564 0
M  V30 5813 C 561.031 4.1841 1.3646 0
M  V30 5814 H 558.15 0.731677 0.0884201 0
M  V30 5815 H 560.792 1.84106 -0.469584 0
M  V30 5816 H 558.942 3.70539 1.16761 0
M  V30 5817 H 560.614 4.41274 -1.34444 0
M  V30 5818 H 558.857 4.12892 -1.33052 0
M  V30 5819 H 559.528 5.50202 -0.445186 0
M  V30 5820 H 562.004 4.07365 0.848113 0
M  V30 5821 H 560.88 5.26563 1.54992 0
M  V30 5822 H 561.141 3.7333 2.36805 0
M  V30 5823 N 560.2 0.0768682 1.57412 0
M  V30 5824 C 561.611 -0.455037 1.8107 0
M  V30 5825 C 561.962 -1.69323 0.991162 0
M  V30 5826 O 561.087 -2.15328 0.215156 0
M  V30 5827 C 561.682 -0.832316 3.28417 0
M  V30 5828 C 560.241 -1.30906 3.52903 0
M  V30 5829 C 559.388 -0.296714 2.75708 0
M  V30 5830 H 562.339 0.302514 1.5579 0
M  V30 5831 H 562.36 -1.69333 3.40744 0
M  V30 5832 H 561.872 0.0690532 3.88039 0
M  V30 5833 H 559.973 -2.22875 2.98592 0
M  V30 5834 H 560.086 -1.28348 4.61588 0
M  V30 5835 H 558.45 -0.775059 2.42621 0
M  V30 5836 H 559.233 0.597015 3.38069 0
M  V30 5837 N 561.678 -1.56367 -0.196722 0
M  V30 5838 C 562.926 -1.80172 -0.915554 0
M  V30 5839 C 563.247 -0.649649 -1.8386 0
M  V30 5840 O 562.517 0.332111 -1.93064 0
M  V30 5841 H 561.097 -0.664592 -0.341067 0
M  V30 5842 H 563.759 -1.93844 -0.202622 0
M  V30 5843 H 562.855 -2.7327 -1.50764 0
M  V30 5844 N 563.156 0.464375 -1.50603 0
M  V30 5845 C 564.066 1.58723 -1.72754 0
M  V30 5846 C 565.082 1.62925 -0.610844 0
M  V30 5847 O 566.258 1.8067 -0.889963 0
M  V30 5848 C 563.323 2.94897 -1.82309 0
M  V30 5849 C 562.384 3.0103 -3.06071 0
M  V30 5850 C 561.617 4.30708 -3.1516 0
M  V30 5851 O 561.84 5.2159 -2.30868 0
M  V30 5852 O 560.774 4.42571 -4.0794 0
M  V30 5853 H 564.6 1.42954 -2.67951 0
M  V30 5854 H 562.185 0.644579 -1.3478 0
M  V30 5855 H 564.067 3.75764 -1.90735 0
M  V30 5856 H 562.742 3.10851 -0.902967 0
M  V30 5857 H 561.649 2.19217 -3.03142 0
M  V30 5858 H 562.982 2.90014 -3.97684 0
M  V30 5859 N 564.634 1.40294 0.718013 0
M  V30 5860 C 565.544 1.42678 1.86226 0
M  V30 5861 C 566.56 0.319655 1.71039 0
M  V30 5862 O 567.736 0.563852 1.93346 0
M  V30 5863 C 564.801 1.2852 3.21999 0
M  V30 5864 C 563.862 2.49354 3.49458 0
M  V30 5865 C 563.095 2.35863 4.78753 0
M  V30 5866 O 563.318 1.37114 5.53675 0
M  V30 5867 O 562.252 3.25189 5.06494 0
M  V30 5868 H 566.078 2.39167 1.87171 0
M  V30 5869 H 563.663 1.2159 0.868112 0
M  V30 5870 H 565.545 1.22824 4.03103 0
M  V30 5871 H 564.22 0.351359 3.21787 0
M  V30 5872 H 563.127 2.60628 2.68373 0
M  V30 5873 H 564.46 3.41491 3.54464 0
M  V30 5874 N 566.112 -0.949982 1.2575 0
M  V30 5875 C 567.022 -2.08109 1.08295 0
M  V30 5876 C 568.038 -1.7399 0.0188181 0
M  V30 5877 O 569.214 -2.00187 0.220724 0
M  V30 5878 C 566.279 -3.39383 0.708534 0
M  V30 5879 C 565.34 -3.8734 1.85111 0
M  V30 5880 C 564.573 -5.12349 1.49447 0
M  V30 5881 O 564.796 -5.6905 0.392212 0
M  V30 5882 O 563.73 -5.5513 2.32624 0
M  V30 5883 H 567.556 -2.25738 2.03165 0
M  V30 5884 H 565.141 -1.06545 1.04731 0
M  V30 5885 H 567.023 -4.18277 0.512061 0
M  V30 5886 H 565.698 -3.23013 -0.210854 0
M  V30 5887 H 564.605 -3.09429 2.10248 0
M  V30 5888 H 565.938 -4.08216 2.74991 0
M  V30 5889 N 567.59 -1.07411 -1.15328 0
M  V30 5890 C 568.522 -0.652924 -2.19703 0
M  V30 5891 C 569.535 0.294869 -1.60107 0
M  V30 5892 O 570.724 0.0840932 -1.78302 0
M  V30 5893 C 567.824 0.061434 -3.38844 0
M  V30 5894 C 566.997 -0.902696 -4.27984 0
M  V30 5895 C 566.056 -0.225521 -5.25717 0
M  V30 5896 O 565.082 -0.86676 -5.62562 0
M  V30 5897 N 566.284 1.02858 -5.71315 0
M  V30 5898 H 569.049 -1.55081 -2.56457 0
M  V30 5899 H 566.61 -0.958883 -1.30449 0
M  V30 5900 H 568.602 0.525145 -4.01278 0
M  V30 5901 H 567.172 0.861269 -3.00501 0
M  V30 5902 H 566.392 -1.54551 -3.6264 0
M  V30 5903 H 567.68 -1.55636 -4.84412 0
M  V30 5904 H 567.078 1.56948 -5.43492 0
M  V30 5905 H 565.635 1.43596 -6.35786 0
M  V30 5906 N 569.068 1.32177 -0.85831 0
M  V30 5907 C 570.015 2.28794 -0.303607 0
M  V30 5908 C 570.985 1.55213 0.591453 0
M  V30 5909 O 572.17 1.83418 0.525585 0
M  V30 5910 C 569.31 3.41475 0.49889 0
M  V30 5911 C 568.423 4.2993 -0.422373 0
M  V30 5912 C 567.558 5.29743 0.393111 0
M  V30 5913 C 566.597 6.09842 -0.525317 0
M  V30 5914 N 565.734 7.01643 0.253208 0
M  V30 5915 H 570.574 2.75631 -1.13276 0
M  V30 5916 H 568.111 1.35606 -0.570026 0
M  V30 5917 H 570.069 4.05531 0.979826 0
M  V30 5918 H 568.699 2.95779 1.29284 0
M  V30 5919 H 567.751 3.66422 -1.02171 0
M  V30 5920 H 569.063 4.85899 -1.12709 0
M  V30 5921 H 568.217 5.9942 0.937056 0
M  V30 5922 H 566.956 4.744 1.13117 0
M  V30 5923 H 565.961 5.39066 -1.08112 0
M  V30 5924 H 567.186 6.6727 -1.26205 0
M  V30 5925 H 565.132 6.48725 0.974295 0
M  V30 5926 H 565.049 7.54981 -0.392398 0
M  V30 5927 H 566.317 7.756 0.778761 0
M  V30 5928 N 570.547 0.616602 1.45037 0
M  V30 5929 C 571.794 0.115331 2.02171 0
M  V30 5930 C 572.122 -1.25748 1.48383 0
M  V30 5931 O 571.377 -1.84511 0.652229 0
M  V30 5932 C 571.676 0.0356829 3.57382 0
M  V30 5933 C 571.342 1.34535 4.30362 0
M  V30 5934 C 570.004 1.70408 4.50016 0
M  V30 5935 C 572.356 2.21049 4.72003 0
M  V30 5936 C 569.684 2.92529 5.0857 0
M  V30 5937 C 572.036 3.42427 5.31908 0
M  V30 5938 C 570.7 3.78541 5.49784 0
M  V30 5939 H 569.97 0.0422024 0.739797 0
M  V30 5940 H 572.617 0.80002 1.73988 0
M  V30 5941 H 570.922 -0.732314 3.84895 0
M  V30 5942 H 572.619 -0.368463 3.99304 0
M  V30 5943 H 569.209 1.05615 4.15383 0
M  V30 5944 H 573.393 1.94632 4.56544 0
M  V30 5945 H 568.649 3.20605 5.20598 0
M  V30 5946 H 572.823 4.09709 5.63127 0
M  V30 5947 H 570.45 4.73255 5.94923 0
M  V30 5948 N 572.025 -1.5352 0.356285 0
M  V30 5949 C 572.935 -2.29151 -0.502712 0
M  V30 5950 C 573.951 -1.34753 -1.1008 0
M  V30 5951 O 575.127 -1.67803 -1.11374 0
M  V30 5952 C 572.192 -3.05911 -1.63154 0
M  V30 5953 C 571.253 -4.15958 -1.06194 0
M  V30 5954 C 570.486 -4.8905 -2.13696 0
M  V30 5955 O 570.709 -4.61919 -3.34645 0
M  V30 5956 O 569.643 -5.75202 -1.77275 0
M  V30 5957 H 573.469 -3.03492 0.112466 0
M  V30 5958 H 571.054 -1.4891 0.120942 0
M  V30 5959 H 572.936 -3.53874 -2.28804 0
M  V30 5960 H 571.611 -2.34415 -2.23229 0
M  V30 5961 H 570.518 -3.7227 -0.369603 0
M  V30 5962 H 571.851 -4.89593 -0.505872 0
M  V30 5963 N 573.503 -0.0852151 -1.57369 0
M  V30 5964 C 574.749 0.581666 -1.94279 0
M  V30 5965 C 575.082 1.68444 -0.966446 0
M  V30 5966 O 574.357 1.945 0.00215277 0
M  V30 5967 C 574.64 1.14609 -3.41375 0
M  V30 5968 C 574.493 0.0490414 -4.49773 0
M  V30 5969 C 575.812 2.04751 -3.8957 0
M  V30 5970 H 572.931 0.209972 -0.706456 0
M  V30 5971 H 575.573 -0.153915 -1.89376 0
M  V30 5972 H 573.723 1.77297 -3.45685 0
M  V30 5973 H 575.395 -0.584721 -4.57579 0
M  V30 5974 H 573.638 -0.618638 -4.29366 0
M  V30 5975 H 574.309 0.484601 -5.49869 0
M  V30 5976 H 576.785 1.51981 -3.87351 0
M  V30 5977 H 575.661 2.41173 -4.93079 0
M  V30 5978 H 575.922 2.96107 -3.28288 0
M  V30 5979 N 574.981 1.5647 0.188427 0
M  V30 5980 C 575.891 1.98285 1.2538 0
M  V30 5981 C 576.907 0.891535 1.49424 0
M  V30 5982 O 578.083 1.19782 1.61908 0
M  V30 5983 C 575.148 2.31965 2.57669 0
M  V30 5984 C 574.209 3.54838 2.41638 0
M  V30 5985 C 573.442 3.86901 3.67618 0
M  V30 5986 O 573.665 3.20163 4.72072 0
M  V30 5987 O 572.599 4.80309 3.62749 0
M  V30 5988 H 576.425 2.89145 0.928912 0
M  V30 5989 H 574.01 1.44112 0.393955 0
M  V30 5990 H 575.892 2.54673 3.35737 0
M  V30 5991 H 574.567 1.44271 2.89771 0
M  V30 5992 H 573.474 3.37369 1.61658 0
M  V30 5993 H 574.807 4.43019 2.14465 0
M  V30 5994 N 576.459 -0.456382 1.50847 0
M  V30 5995 C 577.406 -1.55249 1.70782 0
M  V30 5996 C 578.376 -1.56757 0.549231 0
M  V30 5997 O 579.561 -1.74061 0.7815 0
M  V30 5998 C 576.701 -2.93118 1.82143 0
M  V30 5999 C 575.814 -3.01285 3.09598 0
M  V30 6000 C 574.949 -4.30159 3.11667 0
M  V30 6001 C 573.988 -4.32124 4.33515 0
M  V30 6002 N 573.125 -5.52492 4.3324 0
M  V30 6003 H 577.965 -1.37555 2.64353 0
M  V30 6004 H 575.502 -0.668543 1.3103 0
M  V30 6005 H 577.46 -3.73088 1.86711 0
M  V30 6006 H 576.09 -3.09413 0.919978 0
M  V30 6007 H 575.142 -2.14096 3.14431 0
M  V30 6008 H 576.454 -2.98597 3.99551 0
M  V30 6009 H 575.608 -5.18489 3.15046 0
M  V30 6010 H 574.347 -4.35477 2.1957 0
M  V30 6011 H 573.352 -3.42189 4.30333 0
M  V30 6012 H 574.577 -4.28485 5.26856 0
M  V30 6013 H 572.523 -5.58567 3.44004 0
M  V30 6014 H 572.44 -5.51605 5.16979 0
M  V30 6015 H 573.708 -6.42906 4.40786 0
M  V30 6016 N 577.937 -1.40673 -0.710563 0
M  V30 6017 C 579.167 -1.4234 -1.49742 0
M  V30 6018 C 579.575 -0.022821 -1.89186 0
M  V30 6019 O 578.918 0.964773 -1.56326 0
M  V30 6020 C 578.98 -2.25509 -2.79975 0
M  V30 6021 C 578.644 -3.73862 -2.62824 0
M  V30 6022 C 579.641 -4.66379 -2.29752 0
M  V30 6023 C 577.326 -4.17735 -2.78932 0
M  V30 6024 C 579.32 -6.00756 -2.13006 0
M  V30 6025 C 577.007 -5.5218 -2.61802 0
M  V30 6026 C 578.005 -6.43505 -2.28888 0
M  V30 6027 O 577.693 -7.75472 -2.11894 0
M  V30 6028 H 577.425 -0.487311 -0.468513 0
M  V30 6029 H 579.979 -1.8542 -0.883668 0
M  V30 6030 H 578.209 -1.77218 -3.43701 0
M  V30 6031 H 579.898 -2.19058 -3.41714 0
M  V30 6032 H 580.664 -4.33778 -2.16936 0
M  V30 6033 H 576.543 -3.46967 -3.03537 0
M  V30 6034 H 580.087 -6.72003 -1.87237 0
M  V30 6035 H 575.984 -5.84365 -2.74204 0
M  V30 6036 H 576.752 -7.86458 -2.26775 0
M  V30 6037 N 579.415 0.9433 -1.26252 0
M  V30 6038 C 580.664 1.68369 -1.11062 0
M  V30 6039 C 580.977 1.92514 0.346104 0
M  V30 6040 O 582.183 2.64358 0.618646 0
M  V30 6041 C 580.639 3.03171 -1.93946 0
M  V30 6042 C 580.247 2.86782 -3.4418 0
M  V30 6043 C 581.991 3.80916 -1.87359 0
M  V30 6044 C 579.898 4.17044 -4.19319 0
M  V30 6045 H 578.828 0.631469 -0.412023 0
M  V30 6046 H 581.479 1.04922 -1.50544 0
M  V30 6047 H 579.861 3.67587 -1.47296 0
M  V30 6048 H 581.035 2.31229 -3.98585 0
M  V30 6049 H 579.35 2.22482 -3.51981 0
M  V30 6050 H 581.947 4.77417 -2.40784 0
M  V30 6051 H 582.29 4.07658 -0.843857 0
M  V30 6052 H 582.823 3.2327 -2.31821 0
M  V30 6053 H 579.562 3.95487 -5.22753 0
M  V30 6054 H 579.082 4.72319 -3.69696 0
M  V30 6055 H 580.761 4.85513 -4.27651 0
M  V30 6056 N 580.893 1.08022 1.14757 0
M  V30 6057 C 582.139 0.808705 1.85978 0
M  V30 6058 C 582.472 -0.663764 1.82504 0
M  V30 6059 O 581.747 -1.48765 1.25296 0
M  V30 6060 C 582.03 1.32623 3.34788 0
M  V30 6061 C 581.883 2.86375 3.46856 0
M  V30 6062 C 583.202 0.948291 4.29762 0
M  V30 6063 H 580.321 0.295244 0.675278 0
M  V30 6064 H 582.963 1.33917 1.34783 0
M  V30 6065 H 581.113 0.875002 3.78518 0
M  V30 6066 H 582.785 3.39839 3.11941 0
M  V30 6067 H 581.028 3.24232 2.88194 0
M  V30 6068 H 581.699 3.17658 4.51439 0
M  V30 6069 H 584.175 1.33722 3.94028 0
M  V30 6070 H 583.051 1.33765 5.32352 0
M  V30 6071 H 583.312 -0.145094 4.41862 0
M  V30 6072 N 582.371 -1.3172 0.865308 0
M  V30 6073 C 583.321 -2.26157 0.289305 0
M  V30 6074 C 584.305 -1.50428 -0.570977 0
M  V30 6075 O 585.497 -1.71978 -0.418617 0
M  V30 6076 C 582.626 -3.39457 -0.512237 0
M  V30 6077 C 581.712 -4.22561 0.361028 0
M  V30 6078 N 582.103 -4.84501 1.45231 0
M  V30 6079 C 580.401 -4.45739 0.152641 0
M  V30 6080 C 581.102 -5.46586 1.99043 0
M  V30 6081 N 580.078 -5.28119 1.28809 0
M  V30 6082 H 583.88 -2.71581 1.12344 0
M  V30 6083 H 581.394 -1.45932 0.712565 0
M  V30 6084 H 583.391 -4.06133 -0.941379 0
M  V30 6085 H 582.051 -2.95577 -1.34404 0
M  V30 6086 H 583.062 -4.84293 1.83524 0
M  V30 6087 H 579.739 -4.1251 -0.643583 0
M  V30 6088 H 581.129 -6.05817 2.90577 0
M  V30 6089 N 583.85 -0.624285 -1.44708 0
M  V30 6090 C 584.797 0.0847135 -2.30644 0
M  V30 6091 C 585.767 0.843575 -1.43084 0
M  V30 6092 O 586.952 0.825982 -1.71995 0
M  V30 6093 C 584.091 1.06495 -3.28257 0
M  V30 6094 C 583.205 0.305224 -4.3092 0
M  V30 6095 C 582.34 1.27667 -5.1563 0
M  V30 6096 C 581.379 0.505706 -6.10007 0
M  V30 6097 N 580.516 1.42727 -6.8744 0
M  V30 6098 H 585.356 -0.654068 -2.90733 0
M  V30 6099 H 582.893 -0.334334 -1.4325 0
M  V30 6100 H 584.851 1.64658 -3.83332 0
M  V30 6101 H 583.481 1.77094 -2.69884 0
M  V30 6102 H 582.533 -0.392207 -3.78373 0
M  V30 6103 H 583.845 -0.295553 -4.97924 0
M  V30 6104 H 582.999 1.92984 -5.75189 0
M  V30 6105 H 581.738 1.91137 -4.48685 0
M  V30 6106 H 580.743 -0.160999 -5.49564 0
M  V30 6107 H 581.968 -0.124183 -6.78986 0
M  V30 6108 H 579.913 2.04931 -6.23169 0
M  V30 6109 H 579.831 0.880345 -7.50857 0
M  V30 6110 H 581.099 2.0695 -7.51526 0
M  V30 6111 N 585.328 1.53329 -0.364422 0
M  V30 6112 C 586.238 2.29414 0.490552 0
M  V30 6113 C 587.254 1.35335 1.09363 0
M  V30 6114 O 588.43 1.68391 1.10483 0
M  V30 6115 C 585.495 3.06772 1.61529 0
M  V30 6116 C 584.556 4.16516 1.03986 0
M  V30 6117 C 583.789 4.90176 2.111 0
M  V30 6118 O 584.012 4.63687 3.32191 0
M  V30 6119 O 582.946 5.76134 1.74222 0
M  V30 6120 H 586.772 3.03428 -0.12856 0
M  V30 6121 H 584.357 1.48843 -0.128837 0
M  V30 6122 H 586.239 3.55082 2.26924 0
M  V30 6123 H 584.914 2.35596 2.21983 0
M  V30 6124 H 583.821 3.7246 0.349856 0
M  V30 6125 H 585.154 4.89855 0.4799 0
M  V30 6126 N 586.806 0.0935595 1.57322 0
M  V30 6127 C 588.053 -0.570509 1.94297 0
M  V30 6128 C 588.381 -1.68286 0.97519 0
M  V30 6129 O 587.636 -1.95699 -0.00548655 0
M  V30 6130 C 587.935 -1.16692 3.37813 0
M  V30 6131 C 587.601 -0.178509 4.50547 0
M  V30 6132 C 586.263 0.0933475 4.81109 0
M  V30 6133 C 588.615 0.496472 5.1883 0
M  V30 6134 C 585.943 1.0469 5.77284 0
M  V30 6135 C 588.295 1.43849 6.16028 0
M  V30 6136 C 586.959 1.71859 6.44997 0
M  V30 6137 H 586.229 -0.208764 0.710984 0
M  V30 6138 H 588.876 0.169066 1.90752 0
M  V30 6139 H 587.181 -1.98271 3.37929 0
M  V30 6140 H 588.878 -1.6884 3.63722 0
M  V30 6141 H 585.468 -0.400584 4.26724 0
M  V30 6142 H 589.652 0.299584 4.95395 0
M  V30 6143 H 584.908 1.27094 5.98044 0
M  V30 6144 H 589.082 1.96734 6.68034 0
M  V30 6145 H 586.709 2.45906 7.19329 0
M  V30 6146 N 588.284 -1.56567 -0.180126 0
M  V30 6147 C 589.561 -1.7235 -0.924931 0
M  V30 6148 C 589.941 -0.652523 -2.00762 0
M  V30 6149 O 589.289 0.334115 -2.26044 0
M  V30 6150 C 589.499 -3.1523 -1.49771 0
M  V30 6151 C 590.847 -3.75921 -1.97405 0
M  V30 6152 O 591.871 -3.18452 -1.59583 0
M  V30 6153 O 590.73 -4.7681 -2.67048 0
M  V30 6154 H 587.824 -0.703502 -0.434758 0
M  V30 6155 H 590.37 -1.6886 -0.168647 0
M  V30 6156 H 589.142 -3.84656 -0.718027 0
M  V30 6157 H 588.765 -3.23009 -2.31842 0
M  V30 6158 N 589.762 0.448376 -1.51087 0
M  V30 6159 C 591.039 1.20926 -1.53741 0
M  V30 6160 C 591.419 2.09025 -0.295222 0
M  V30 6161 O 590.767 2.16851 0.720283 0
M  V30 6162 C 590.977 2.02067 -2.84552 0
M  V30 6163 C 592.325 2.59486 -3.36084 0
M  V30 6164 O 593.349 2.12289 -2.86028 0
M  V30 6165 O 592.208 3.45539 -4.23397 0
M  V30 6166 H 589.302 0.549951 -0.617643 0
M  V30 6167 H 591.848 0.458344 -1.63393 0
M  V30 6168 H 590.62 1.37291 -3.66425 0
M  V30 6169 H 590.243 2.84246 -2.78011 0
M  V30 6170 N 591.24 1.41047 0.703093 0
M  V30 6171 C 592.517 1.30493 1.45708 0
M  V30 6172 C 592.897 -0.0709892 2.10981 0
M  V30 6173 O 592.245 -1.08471 2.01113 0
M  V30 6174 C 592.455 2.45287 2.48265 0
M  V30 6175 C 593.803 2.86104 3.13735 0
M  V30 6176 O 594.827 2.44971 2.58587 0
M  V30 6177 O 593.686 3.57206 4.13601 0
M  V30 6178 H 590.78 0.513144 0.648546 0
M  V30 6179 H 593.326 1.52995 0.734208 0
M  V30 6180 H 592.098 3.37135 1.98635 0
M  V30 6181 H 591.721 2.24622 3.28071 0
M  V30 6182 N 592.718 -0.936591 1.26751 0
M  V30 6183 C 593.946 -1.71758 1.15355 0
M  V30 6184 C 594.361 -1.86549 -0.290683 0
M  V30 6185 O 593.718 -1.37616 -1.19868 0
M  V30 6186 C 593.769 -3.12193 1.82258 0
M  V30 6187 O 593.49 -2.98105 3.21038 0
M  V30 6188 C 594.991 -4.06485 1.76875 0
M  V30 6189 H 592.211 -0.537636 0.401483 0
M  V30 6190 H 594.755 -1.17382 1.67457 0
M  V30 6191 H 592.91 -3.63456 1.34083 0
M  V30 6192 H 593.324 -3.86824 3.54214 0
M  V30 6193 H 594.798 -5.02569 2.28316 0
M  V30 6194 H 595.275 -4.32986 0.736216 0
M  V30 6195 H 595.881 -3.61144 2.24623 0
M  V30 6196 N 594.196 -1.08629 -1.14182 0
M  V30 6197 C 595.426 -0.837673 -1.88856 0
M  V30 6198 C 595.834 0.614024 -1.78959 0
M  V30 6199 O 595.177 1.43384 -1.14833 0
M  V30 6200 C 595.239 -1.18355 -3.39459 0
M  V30 6201 C 594.903 -2.63848 -3.73139 0
M  V30 6202 C 595.9 -3.62099 -3.73069 0
M  V30 6203 C 593.585 -2.99761 -4.03049 0
M  V30 6204 C 595.579 -4.94292 -4.02435 0
M  V30 6205 C 593.266 -4.32147 -4.32078 0
M  V30 6206 C 594.264 -5.29223 -4.31755 0
M  V30 6207 O 593.952 -6.59229 -4.60079 0
M  V30 6208 H 593.684 -0.301609 -0.604986 0
M  V30 6209 H 596.238 -1.44961 -1.45518 0
M  V30 6210 H 594.468 -0.514628 -3.8326 0
M  V30 6211 H 596.157 -0.915391 -3.95443 0
M  V30 6212 H 596.923 -3.35698 -3.50046 0
M  V30 6213 H 592.802 -2.2484 -4.02453 0
M  V30 6214 H 596.346 -5.70055 -4.02098 0
M  V30 6215 H 592.243 -4.58296 -4.54571 0
M  V30 6216 H 593.011 -6.64578 -4.77785 0
M  V30 6217 N 595.674 1.31259 -0.872281 0
M  V30 6218 C 596.951 1.91362 -0.404943 0
M  V30 6219 C 597.331 1.79362 1.11321 0
M  V30 6220 O 596.679 1.20277 1.94283 0
M  V30 6221 C 596.889 3.3749 -0.888893 0
M  V30 6222 C 598.237 4.14593 -0.916384 0
M  V30 6223 O 599.261 3.46282 -0.834701 0
M  V30 6224 O 598.12 5.3661 -1.03498 0
M  V30 6225 H 595.214 0.818016 -0.121569 0
M  V30 6226 H 597.76 1.39912 -0.960346 0
M  V30 6227 H 596.532 3.40249 -1.93251 0
M  V30 6228 H 596.155 3.96375 -0.311932 0
M  V30 6229 N 597.152 0.631951 1.44375 0
M  V30 6230 C 598.1 -0.0846693 2.32446 0
M  V30 6231 C 599.094 -0.834957 1.47393 0
M  V30 6232 O 600.3 -0.747764 1.63733 0
M  V30 6233 H 596.675 -0.0461508 0.750583 0
M  V30 6234 H 598.646 0.67619 2.90638 0
M  V30 6235 C 597.395 -1.05211 3.314 0
M  V30 6236 H 596.718 -0.484203 3.96857 0
M  V30 6237 H 598.158 -1.523 3.95703 0
M  V30 6238 C 596.617 -2.13776 2.60387 0
M  V30 6239 O 597.147 -3.21869 2.4034 0
M  V30 6240 N 595.353 -1.89733 2.20113 0
M  V30 6241 H 594.9 -1.01833 2.36618 0
M  V30 6242 H 594.858 -2.62572 1.72926 0
M  V30 6243 N 598.631 -1.53133 0.372548 0
M  V30 6244 C 599.908 -1.93704 -0.271693 0
M  V30 6245 C 600.288 -1.30667 -1.65799 0
M  V30 6246 O 599.636 -0.46838 -2.23648 0
M  V30 6247 C 599.846 -3.47576 -0.314903 0
M  V30 6248 C 601.194 -4.20998 -0.551912 0
M  V30 6249 O 602.218 -3.53994 -0.39582 0
M  V30 6250 O 601.077 -5.39748 -0.85639 0
M  V30 6251 H 598.171 -0.810457 -0.164586 0
M  V30 6252 H 600.717 -1.6427 0.425838 0
M  V30 6253 H 599.489 -3.85749 0.656792 0
M  V30 6254 H 599.112 -3.83264 -1.05804 0
M  V30 6255 N 600.109 -0.101901 -1.5727 0
M  V30 6256 C 601.358 0.559922 -1.93772 0
M  V30 6257 C 601.671 1.68913 -0.98629 0
M  V30 6258 O 602.877 2.41256 -1.24529 0
M  V30 6259 C 601.333 1.04739 -3.44322 0
M  V30 6260 C 600.941 -0.05243 -4.47969 0
M  V30 6261 C 602.685 1.68157 -3.89774 0
M  V30 6262 C 600.592 0.450781 -5.8968 0
M  V30 6263 H 599.522 0.212931 -0.723309 0
M  V30 6264 H 602.173 -0.179001 -1.82625 0
M  V30 6265 H 600.555 1.84021 -3.50645 0
M  V30 6266 H 601.729 -0.828157 -4.53297 0
M  V30 6267 H 600.044 -0.592202 -4.12167 0
M  V30 6268 H 602.641 2.0689 -4.93052 0
M  V30 6269 H 602.984 2.55338 -3.28798 0
M  V30 6270 H 603.517 0.954453 -3.8618 0
M  V30 6271 H 600.256 -0.38458 -6.54371 0
M  V30 6272 H 599.776 1.19336 -5.87809 0
M  V30 6273 H 601.455 0.917555 -6.40461 0
M  V30 6274 N 601.587 1.56661 0.17182 0
M  V30 6275 C 602.55 1.9549 1.19651 0
M  V30 6276 C 603.55 0.838501 1.37207 0
M  V30 6277 O 604.74 1.10556 1.34622 0
M  V30 6278 C 601.872 2.24927 2.56166 0
M  V30 6279 H 603.065 2.87184 0.864007 0
M  V30 6280 H 600.618 1.50711 0.41425 0
M  V30 6281 H 601.353 1.35944 2.94431 0
M  V30 6282 H 601.138 3.06301 2.4479 0
M  V30 6283 H 602.628 2.55891 3.30014 0
M  V30 6284 N 603.065 -0.440357 1.51323 0
M  V30 6285 C 603.995 -1.54174 1.75364 0
M  V30 6286 C 604.976 -1.59039 0.603375 0
M  V30 6287 O 606.161 -1.74815 0.845774 0
M  V30 6288 C 603.291 -2.92277 1.87593 0
M  V30 6289 C 602.245 -3.02274 3.03009 0
M  V30 6290 C 601.571 -4.42327 3.00418 0
M  V30 6291 C 602.871 -2.76634 4.43024 0
M  V30 6292 H 604.565 -1.34307 2.67585 0
M  V30 6293 H 602.111 -0.644678 1.28763 0
M  V30 6294 H 604.064 -3.69284 2.02995 0
M  V30 6295 H 602.788 -3.13369 0.920179 0
M  V30 6296 H 601.447 -2.27706 2.87307 0
M  V30 6297 H 601.095 -4.60382 2.02626 0
M  V30 6298 H 600.795 -4.49946 3.77918 0
M  V30 6299 H 602.319 -5.21312 3.17909 0
M  V30 6300 H 603.733 -3.43376 4.59093 0
M  V30 6301 H 602.13 -2.95666 5.22208 0
M  V30 6302 H 603.2 -1.72262 4.5327 0
M  V30 6303 N 604.543 -1.41418 -0.695603 0
M  V30 6304 C 605.473 -1.46035 -1.82197 0
M  V30 6305 C 606.454 -0.319025 -1.67082 0
M  V30 6306 O 607.639 -0.530462 -1.86815 0
M  V30 6307 C 604.769 -1.34179 -3.20333 0
M  V30 6308 C 603.723 -2.46123 -3.50154 0
M  V30 6309 C 603.049 -2.19332 -4.87645 0
M  V30 6310 C 604.349 -3.88463 -3.49133 0
M  V30 6311 H 606.043 -2.40303 -1.78591 0
M  V30 6312 H 603.589 -1.15663 -0.857797 0
M  V30 6313 H 605.542 -1.36021 -3.98844 0
M  V30 6314 H 604.266 -0.363952 -3.24566 0
M  V30 6315 H 602.925 -2.43563 -2.73994 0
M  V30 6316 H 602.573 -1.19891 -4.88503 0
M  V30 6317 H 602.273 -2.94344 -5.08562 0
M  V30 6318 H 603.797 -2.22889 -5.68465 0
M  V30 6319 H 605.211 -3.92738 -4.17648 0
M  V30 6320 H 603.608 -4.63158 -3.81582 0
M  V30 6321 H 604.678 -4.16617 -2.48109 0
M  V30 6322 N 606.021 0.929856 -1.27246 0
M  V30 6323 C 606.953 2.03434 -1.0558 0
M  V30 6324 C 607.966 1.62795 -0.0125762 0
M  V30 6325 O 609.155 1.76685 -0.2539 0
M  V30 6326 C 606.255 3.33915 -0.57912 0
M  V30 6327 C 605.428 4.03259 -1.69415 0
M  V30 6328 C 604.487 5.12014 -1.21357 0
M  V30 6329 O 603.513 5.36097 -1.91282 0
M  V30 6330 N 604.715 5.8046 -0.0680622 0
M  V30 6331 H 607.48 2.22583 -2.00691 0
M  V30 6332 H 605.041 1.1001 -1.18783 0
M  V30 6333 H 607.033 4.03978 -0.241563 0
M  V30 6334 H 605.603 3.11355 0.278703 0
M  V30 6335 H 604.823 3.26958 -2.20209 0
M  V30 6336 H 606.111 4.46337 -2.44255 0
M  V30 6337 H 605.509 5.63345 0.515626 0
M  V30 6338 H 604.066 6.51461 0.210332 0
M  V30 6339 N 607.499 1.09233 1.13605 0
M  V30 6340 C 608.429 0.751738 2.21068 0
M  V30 6341 C 609.41 -0.269688 1.67948 0
M  V30 6342 O 610.595 -0.13819 1.93708 0
M  V30 6343 C 607.725 0.16935 3.46887 0
M  V30 6344 C 606.679 1.12007 4.13084 0
M  V30 6345 C 606.005 0.399483 5.33206 0
M  V30 6346 C 607.305 2.46168 4.6065 0
M  V30 6347 H 608.999 1.65024 2.49815 0
M  V30 6348 H 606.545 0.794905 1.20072 0
M  V30 6349 H 608.498 -0.0809824 4.21322 0
M  V30 6350 H 607.222 -0.764335 3.1753 0
M  V30 6351 H 605.881 1.35564 3.40614 0
M  V30 6352 H 605.529 -0.538277 5.00112 0
M  V30 6353 H 605.229 1.03337 5.78442 0
M  V30 6354 H 606.753 0.157403 6.10397 0
M  V30 6355 H 608.167 2.26829 5.26518 0
M  V30 6356 H 606.564 3.05326 5.1662 0
M  V30 6357 H 607.634 3.07076 3.75276 0
M  V30 6358 N 608.977 -1.30795 0.87923 0
M  V30 6359 C 609.924 -2.28282 0.339968 0
M  V30 6360 C 610.894 -1.56134 -0.566685 0
M  V30 6361 O 612.079 -1.84231 -0.496338 0
M  V30 6362 C 609.219 -3.42225 -0.444501 0
M  V30 6363 C 608.332 -4.29204 0.490717 0
M  V30 6364 C 607.467 -5.30302 -0.308784 0
M  V30 6365 C 606.506 -6.08929 0.622272 0
M  V30 6366 N 605.643 -7.01957 -0.14155 0
M  V30 6367 H 610.483 -2.73794 1.17647 0
M  V30 6368 H 608.02 -1.34682 0.591527 0
M  V30 6369 H 609.978 -4.07038 -0.915186 0
M  V30 6370 H 608.608 -2.97799 -1.24562 0
M  V30 6371 H 607.66 -3.6475 1.07988 0
M  V30 6372 H 608.972 -4.84045 1.20425 0
M  V30 6373 H 608.126 -6.00835 -0.841575 0
M  V30 6374 H 606.865 -4.7614 -1.05556 0
M  V30 6375 H 605.87 -5.37278 1.16674 0
M  V30 6376 H 607.095 -6.65178 1.36804 0
M  V30 6377 H 605.041 -6.50192 -0.870966 0
M  V30 6378 H 604.958 -7.54261 0.51246 0
M  V30 6379 H 606.226 -7.76741 -0.655271 0
M  V30 6380 N 610.455 -0.639598 -1.44038 0
M  V30 6381 C 611.68 -0.153117 -2.06834 0
M  V30 6382 C 612.105 1.16676 -1.47541 0
M  V30 6383 O 611.463 1.71769 -0.580093 0
M  V30 6384 C 611.511 -0.0609169 -3.60549 0
M  V30 6385 O 610.615 0.98071 -4.00569 0
M  V30 6386 H 609.956 -0.0886402 -0.658057 0
M  V30 6387 H 612.486 -0.878674 -1.84771 0
M  V30 6388 H 612.496 0.126892 -4.07803 0
M  V30 6389 H 611.171 -1.0245 -4.03084 0
M  V30 6390 H 609.748 0.766789 -3.64931 0
M  V30 6391 N 611.933 1.52934 -0.380664 0
M  V30 6392 C 613.21 1.93845 0.261417 0
M  V30 6393 C 613.59 1.31544 1.65104 0
M  V30 6394 O 612.938 0.480234 2.23397 0
M  V30 6395 C 613.148 3.47739 0.296466 0
M  V30 6396 C 614.496 4.21284 0.529578 0
M  V30 6397 O 615.52 3.54199 0.377041 0
M  V30 6398 O 614.379 5.40195 0.827753 0
M  V30 6399 H 611.473 0.811318 0.160285 0
M  V30 6400 H 614.019 1.64042 -0.434544 0
M  V30 6401 H 612.791 3.85395 -0.67724 0
M  V30 6402 H 612.414 3.8382 1.0377 0
M  V30 6403 N 613.412 0.11024 1.57214 0
M  V30 6404 C 614.637 -0.561179 1.99664 0
M  V30 6405 C 615.062 -1.59985 0.989266 0
M  V30 6406 O 614.42 -1.81255 -0.0402399 0
M  V30 6407 C 614.468 -1.17189 3.41027 0
M  V30 6408 O 613.572 -2.28755 3.4314 0
M  V30 6409 H 612.913 -0.14101 0.648855 0
M  V30 6410 H 615.443 0.196128 2.03658 0
M  V30 6411 H 615.453 -1.50954 3.79047 0
M  V30 6412 H 614.128 -0.411041 4.13864 0
M  V30 6413 H 612.705 -1.96495 3.16929 0
M  V30 6414 N 614.89 -1.56749 -0.16351 0
M  V30 6415 C 616.115 -1.86938 -0.898264 0
M  V30 6416 C 616.54 -0.697456 -1.74692 0
M  V30 6417 O 615.898 0.353327 -1.77824 0
M  V30 6418 C 615.946 -3.15599 -1.74441 0
M  V30 6419 O 615.05 -2.98371 -2.8469 0
M  V30 6420 H 614.391 -0.614659 -0.251178 0
M  V30 6421 H 616.921 -2.03979 -0.159298 0
M  V30 6422 H 616.931 -3.47202 -2.14277 0
M  V30 6423 H 615.606 -4.00505 -1.1211 0
M  V30 6424 H 614.183 -2.7814 -2.4838 0
M  V30 6425 N 616.368 0.432326 -1.51554 0
M  V30 6426 C 617.784 0.769195 -1.39841 0
M  V30 6427 C 617.984 1.95584 -0.484675 0
M  V30 6428 O 617.04 2.52433 0.0582829 0
M  V30 6429 C 618.353 1.04487 -2.81963 0
M  V30 6430 C 619.901 1.149 -2.91148 0
M  V30 6431 C 620.376 1.45758 -4.34187 0
M  V30 6432 N 621.867 1.52671 -4.37317 0
M  V30 6433 C 622.602 1.78129 -5.4503 0
M  V30 6434 N 622.098 2.01345 -6.62897 0
M  V30 6435 N 623.891 1.79953 -5.32516 0
M  V30 6436 H 616.042 -0.349122 -2.09511 0
M  V30 6437 H 618.305 -0.0938113 -0.943347 0
M  V30 6438 H 618.011 0.24557 -3.50842 0
M  V30 6439 H 617.885 1.97119 -3.21596 0
M  V30 6440 H 620.272 1.93891 -2.22464 0
M  V30 6441 H 620.353 0.201568 -2.55005 0
M  V30 6442 H 619.997 0.672917 -5.03423 0
M  V30 6443 H 619.927 2.41715 -4.67848 0
M  V30 6444 H 622.418 1.36612 -3.52343 0
M  V30 6445 H 622.731 2.20155 -7.40778 0
M  V30 6446 H 621.076 1.98657 -6.66003 0
M  V30 6447 H 624.267 1.61337 -4.39418 0
M  V30 6448 H 624.44 1.99455 -6.1654 0
M  V30 6449 N 617.846 1.41785 0.688094 0
M  V30 6450 C 619.086 1.43018 1.46032 0
M  V30 6451 C 619.45 0.0402632 1.91958 0
M  V30 6452 O 620.651 -0.0726425 2.68702 0
M  V30 6453 C 618.922 2.4151 2.63453 0
M  V30 6454 S 620.481 2.61335 3.5249 0
M  V30 6455 H 617.299 0.506546 0.498931 0
M  V30 6456 H 619.901 1.78283 0.80221 0
M  V30 6457 H 618.605 3.41286 2.27929 0
M  V30 6458 H 618.136 2.07624 3.34149 0
M  V30 6459 H 620.151 1.88637 4.58945 0
M  V30 6460 N 619.324 -0.923095 1.27737 0
M  V30 6461 C 620.287 -2.00587 1.10894 0
M  V30 6462 C 621.287 -1.60718 0.0514927 0
M  V30 6463 O 622.477 -1.71658 0.296481 0
M  V30 6464 C 619.609 -3.33829 0.690717 0
M  V30 6465 H 620.802 -2.16959 2.07048 0
M  V30 6466 H 618.355 -1.10451 1.1059 0
M  V30 6467 H 619.09 -3.23157 -0.272 0
M  V30 6468 H 618.875 -3.64125 1.45448 0
M  V30 6469 H 620.365 -4.13336 0.595252 0
M  V30 6470 N 620.802 -1.09834 -1.13024 0
M  V30 6471 C 621.734 -0.699379 -2.18269 0
M  V30 6472 C 622.747 0.260841 -1.60697 0
M  V30 6473 O 623.936 0.0462538 -1.7844 0
M  V30 6474 C 621.036 -0.0104537 -3.38898 0
M  V30 6475 C 620.209 -0.993275 -4.25973 0
M  V30 6476 C 619.268 -0.336982 -5.2512 0
M  V30 6477 O 618.294 -0.985892 -5.60597 0
M  V30 6478 N 619.496 0.90716 -5.73368 0
M  V30 6479 H 622.261 -1.60486 -2.5311 0
M  V30 6480 H 619.822 -0.986337 -1.28386 0
M  V30 6481 H 621.814 0.43991 -4.02302 0
M  V30 6482 H 620.384 0.797335 -3.0226 0
M  V30 6483 H 619.604 -1.62208 -3.5928 0
M  V30 6484 H 620.892 -1.65876 -4.81002 0
M  V30 6485 H 620.29 1.45384 -5.46699 0
M  V30 6486 H 618.847 1.30077 -6.38689 0
M  V30 6487 N 622.28 1.30327 -0.886154 0
M  V30 6488 C 623.19 2.31854 -0.357866 0
M  V30 6489 C 624.206 1.65392 0.540502 0
M  V30 6490 O 625.382 1.96683 0.433339 0
M  V30 6491 C 622.447 3.44171 0.417999 0
M  V30 6492 C 621.508 4.26257 -0.510263 0
M  V30 6493 C 620.741 5.3321 0.228669 0
M  V30 6494 O 620.964 5.51542 1.45458 0
M  V30 6495 O 619.898 6.0042 -0.421832 0
M  V30 6496 H 623.724 2.78995 -1.19982 0
M  V30 6497 H 621.309 1.34518 -0.650028 0
M  V30 6498 H 623.191 4.12588 0.857251 0
M  V30 6499 H 621.866 2.99164 1.23623 0
M  V30 6500 H 620.773 3.60533 -0.99835 0
M  V30 6501 H 622.106 4.74871 -1.29454 0
M  V30 6502 N 623.758 0.647228 1.43697 0
M  V30 6503 C 624.983 0.164083 2.0675 0
M  V30 6504 C 625.408 -1.15892 1.48158 0
M  V30 6505 O 624.766 -1.71459 0.589194 0
M  V30 6506 C 624.814 0.0800368 3.60511 0
M  V30 6507 O 623.918 -0.959453 4.01084 0
M  V30 6508 H 623.259 0.0921288 0.657578 0
M  V30 6509 H 625.789 0.88846 1.84303 0
M  V30 6510 H 625.799 -0.105263 4.07864 0
M  V30 6511 H 624.474 1.04586 4.02535 0
M  V30 6512 H 623.051 -0.747425 3.65333 0
M  V30 6513 N 625.236 -1.5273 0.388769 0
M  V30 6514 C 626.461 -2.0647 -0.19621 0
M  V30 6515 C 626.886 -1.25865 -1.39784 0
M  V30 6516 O 626.244 -0.283562 -1.79069 0
M  V30 6517 C 626.292 -3.56456 -0.5451 0
M  V30 6518 O 625.396 -3.78426 -1.63912 0
M  V30 6519 H 624.737 -0.663599 -0.023067 0
M  V30 6520 H 627.267 -1.96898 0.556084 0
M  V30 6521 H 627.277 -3.99888 -0.809557 0
M  V30 6522 H 625.952 -4.14561 0.333417 0
M  V30 6523 H 624.529 -3.46884 -1.36842 0
M  V30 6524 N 626.714 -0.118576 -1.57153 0
M  V30 6525 C 627.96 0.540326 -1.95469 0
M  V30 6526 C 628.293 1.66356 -1.00196 0
M  V30 6527 O 627.568 1.94461 -0.039104 0
M  V30 6528 C 627.851 1.07342 -3.43729 0
M  V30 6529 C 627.704 -0.0463732 -4.49776 0
M  V30 6530 C 629.023 1.96442 -3.93826 0
M  V30 6531 H 626.142 0.19494 -0.710751 0
M  V30 6532 H 628.784 -0.19405 -1.89006 0
M  V30 6533 H 626.934 1.69925 -3.49368 0
M  V30 6534 H 628.606 -0.681648 -4.56236 0
M  V30 6535 H 626.849 -0.709574 -4.27957 0
M  V30 6536 H 627.52 0.367856 -5.50773 0
M  V30 6537 H 629.996 1.43731 -3.90488 0
M  V30 6538 H 628.872 2.3066 -4.98084 0
M  V30 6539 H 629.133 2.89077 -3.34495 0
M  V30 6540 N 628.193 1.56834 0.155195 0
M  V30 6541 C 629.439 1.83169 0.870467 0
M  V30 6542 C 629.772 0.698929 1.81187 0
M  V30 6543 O 629.047 -0.298035 1.92203 0
M  V30 6544 C 629.33 3.19965 1.65211 0
M  V30 6545 C 629.183 4.43792 0.732744 0
M  V30 6546 C 630.502 3.53885 2.61636 0
M  V30 6547 H 627.621 0.666288 0.315006 0
M  V30 6548 H 630.263 1.89513 0.135988 0
M  V30 6549 H 628.413 3.14687 2.27825 0
M  V30 6550 H 630.085 4.61148 0.118236 0
M  V30 6551 H 628.328 4.3378 0.0417906 0
M  V30 6552 H 628.999 5.36095 1.31552 0
M  V30 6553 H 631.475 3.5972 2.09143 0
M  V30 6554 H 630.351 4.50648 3.13381 0
M  V30 6555 H 630.612 2.79418 3.42605 0
M  V30 6556 N 629.671 -0.424282 1.51781 0
M  V30 6557 C 631.087 -0.761768 1.40247 0
M  V30 6558 C 631.287 -1.95324 0.495041 0
M  V30 6559 O 630.343 -2.5246 -0.0448949 0
M  V30 6560 C 631.656 -1.0299 2.82513 0
M  V30 6561 C 633.204 -1.13354 2.91753 0
M  V30 6562 C 633.679 -1.43453 4.34954 0
M  V30 6563 N 635.17 -1.5035 4.3812 0
M  V30 6564 C 635.905 -1.75236 5.45967 0
M  V30 6565 N 635.401 -1.97827 6.63955 0
M  V30 6566 N 637.194 -1.77126 5.33463 0
M  V30 6567 H 629.345 0.360228 2.09323 0
M  V30 6568 H 631.608 0.0988128 0.942836 0
M  V30 6569 H 631.314 -0.226961 3.50967 0
M  V30 6570 H 631.188 -1.95411 3.22637 0
M  V30 6571 H 633.575 -1.92709 2.23489 0
M  V30 6572 H 633.656 -0.188041 2.55108 0
M  V30 6573 H 633.3 -0.646209 5.03772 0
M  V30 6574 H 633.23 -2.3923 4.69123 0
M  V30 6575 H 635.721 -1.34742 3.53062 0
M  V30 6576 H 636.034 -2.16223 7.41935 0
M  V30 6577 H 634.379 -1.95123 6.67047 0
M  V30 6578 H 637.57 -1.59005 4.40267 0
M  V30 6579 H 637.743 -1.96182 6.17589 0
M  V30 6580 N 631.149 -1.42148 -0.680565 0
M  V30 6581 C 632.377 -1.45696 -1.46902 0
M  V30 6582 C 632.792 -0.0665858 -1.88683 0
M  V30 6583 O 632.149 0.917436 -1.57764 0
M  V30 6584 C 632.2 -2.37898 -2.72188 0
M  V30 6585 O 631.921 -3.71526 -2.32163 0
M  V30 6586 C 633.422 -2.50407 -3.65802 0
M  V30 6587 H 630.642 -0.495729 -0.45221 0
M  V30 6588 H 633.186 -1.866 -0.836709 0
M  V30 6589 H 631.341 -2.00263 -3.31622 0
M  V30 6590 H 631.755 -4.20849 -3.13027 0
M  V30 6591 H 633.229 -3.19056 -4.50452 0
M  V30 6592 H 633.706 -1.5401 -4.11312 0
M  V30 6593 H 634.312 -2.8874 -3.12265 0
M  V30 6594 N 632.627 0.916307 -1.28225 0
M  V30 6595 C 633.873 1.66765 -1.154 0
M  V30 6596 C 634.206 1.91912 0.297251 0
M  V30 6597 O 633.481 1.51766 1.21644 0
M  V30 6598 C 633.764 3.02715 -1.95028 0
M  V30 6599 C 633.617 2.84738 -3.48201 0
M  V30 6600 C 634.936 4.03215 -1.76369 0
M  V30 6601 H 632.055 0.605205 -0.42059 0
M  V30 6602 H 634.697 1.06255 -1.57512 0
M  V30 6603 H 632.847 3.54365 -1.59242 0
M  V30 6604 H 634.519 2.40118 -3.9388 0
M  V30 6605 H 632.762 2.19848 -3.73964 0
M  V30 6606 H 633.433 3.8127 -3.99171 0
M  V30 6607 H 635.909 3.60617 -2.07593 0
M  V30 6608 H 634.785 4.96306 -2.34459 0
M  V30 6609 H 635.046 4.36288 -0.71452 0
M  V30 6610 N 634.105 1.10431 1.1244 0
M  V30 6611 C 635.345 0.856518 1.85589 0
M  V30 6612 C 635.709 -0.606905 1.82156 0
M  V30 6613 O 636.91 -0.97105 2.50647 0
M  V30 6614 C 635.181 1.38977 3.29272 0
M  V30 6615 S 636.74 1.27739 4.19795 0
M  V30 6616 H 633.558 0.309509 0.640098 0
M  V30 6617 H 636.16 1.40975 1.35449 0
M  V30 6618 H 634.864 2.44887 3.2933 0
M  V30 6619 H 634.395 0.833112 3.84477 0
M  V30 6620 H 636.41 0.235051 4.95643 0
M  V30 6621 N 635.583 -1.29855 0.893053 0
M  V30 6622 C 636.513 -2.3035 0.382249 0
M  V30 6623 C 637.494 -1.61328 -0.539203 0
M  V30 6624 O 638.679 -1.88882 -0.451342 0
M  V30 6625 C 635.809 -3.45024 -0.396983 0
M  V30 6626 C 634.763 -4.258 0.433437 0
M  V30 6627 C 634.089 -5.32605 -0.472889 0
M  V30 6628 C 635.389 -4.94549 1.67984 0
M  V30 6629 H 637.083 -2.73325 1.22205 0
M  V30 6630 H 634.629 -1.314 0.589073 0
M  V30 6631 H 636.582 -4.14398 -0.765024 0
M  V30 6632 H 635.306 -3.00875 -1.2705 0
M  V30 6633 H 633.965 -3.58125 0.783723 0
M  V30 6634 H 633.613 -4.84702 -1.34435 0
M  V30 6635 H 633.313 -5.87547 0.0789958 0
M  V30 6636 H 634.837 -6.04832 -0.837269 0
M  V30 6637 H 636.251 -5.56395 1.38192 0
M  V30 6638 H 634.648 -5.59393 2.17254 0
M  V30 6639 H 635.718 -4.20215 2.41965 0
M  V30 6640 N 637.061 -0.65484 -1.43351 0
M  V30 6641 C 638.472 -0.248506 -1.85039 0
M  V30 6642 C 638.823 1.20526 -1.54816 0
M  V30 6643 O 637.948 1.92016 -0.99794 0
M  V30 6644 C 638.543 -0.444241 -3.35875 0
M  V30 6645 C 637.102 -0.0922108 -3.76287 0
M  V30 6646 C 636.249 -0.746327 -2.67068 0
M  V30 6647 H 639.2 -0.8584 -1.33481 0
M  V30 6648 H 639.221 0.309762 -3.79237 0
M  V30 6649 H 638.733 -1.50239 -3.5784 0
M  V30 6650 H 636.834 0.96328 -3.59933 0
M  V30 6651 H 636.947 -0.518807 -4.76283 0
M  V30 6652 H 635.311 -0.179416 -2.54067 0
M  V30 6653 H 636.094 -1.80754 -2.91861 0
M  V30 6654 N 638.539 1.52521 -0.396863 0
M  V30 6655 C 639.95 1.86547 0.0754868 0
M  V30 6656 C 640.301 1.31621 1.45501 0
M  V30 6657 O 639.426 0.650563 2.0639 0
M  V30 6658 C 640.021 3.38495 0.143754 0
M  V30 6659 C 638.58 3.72205 0.560413 0
M  V30 6660 C 637.727 2.75954 -0.272856 0
M  V30 6661 H 640.678 1.46323 -0.614434 0
M  V30 6662 H 640.699 3.68153 0.961425 0
M  V30 6663 H 640.211 3.78442 -0.860415 0
M  V30 6664 H 638.312 3.3783 1.57167 0
M  V30 6665 H 638.425 4.78074 0.313314 0
M  V30 6666 H 636.789 2.53339 0.263 0
M  V30 6667 H 637.572 3.1874 -1.27515 0
M  V30 6668 N 640.017 0.126909 1.57088 0
M  V30 6669 C 640.98 -0.806097 2.14557 0
M  V30 6670 C 641.98 -1.18918 1.08236 0
M  V30 6671 O 643.17 -1.11339 1.33975 0
M  V30 6672 C 640.302 -2.09116 2.69227 0
M  V30 6673 H 641.495 -0.306522 2.98329 0
M  V30 6674 H 639.048 -0.122393 1.5582 0
M  V30 6675 H 639.783 -2.63486 1.89065 0
M  V30 6676 H 639.568 -1.82588 3.46993 0
M  V30 6677 H 641.058 -2.75794 3.13572 0
M  V30 6678 N 641.495 -1.56914 -0.146875 0
M  V30 6679 C 642.772 -1.74273 -0.888165 0
M  V30 6680 C 643.152 -0.69496 -1.99333 0
M  V30 6681 O 642.5 0.286093 -2.26702 0
M  V30 6682 C 642.71 -3.18336 -1.43051 0
M  V30 6683 C 644.058 -3.80024 -1.89387 0
M  V30 6684 O 645.082 -3.21765 -1.52792 0
M  V30 6685 O 643.941 -4.82367 -2.56874 0
M  V30 6686 H 641.035 -0.712565 -0.419738 0
M  V30 6687 H 643.581 -1.6918 -0.132791 0
M  V30 6688 H 642.353 -3.86092 -0.636274 0
M  V30 6689 H 641.976 -3.27854 -2.24938 0
M  V30 6690 N 642.974 0.416227 -1.52004 0
M  V30 6691 C 643.904 1.51365 -1.77795 0
M  V30 6692 C 644.885 1.58059 -0.628601 0
M  V30 6693 O 646.07 1.73447 -0.873478 0
M  V30 6694 C 643.2 2.89256 -1.92219 0
M  V30 6695 C 642.154 2.97415 -3.0778 0
M  V30 6696 C 641.48 4.37492 -3.07417 0
M  V30 6697 C 642.78 2.69551 -4.47369 0
M  V30 6698 H 644.474 1.30033 -2.69688 0
M  V30 6699 H 642.02 0.624112 -1.29772 0
M  V30 6700 H 643.973 3.66008 -2.08845 0
M  V30 6701 H 642.697 3.11866 -0.969917 0
M  V30 6702 H 641.356 2.23107 -2.90893 0
M  V30 6703 H 641.004 4.571 -2.09925 0
M  V30 6704 H 640.704 4.43877 -3.85029 0
M  V30 6705 H 642.228 5.16188 -3.26162 0
M  V30 6706 H 643.642 3.36028 -4.64497 0
M  V30 6707 H 642.039 2.87321 -5.26846 0
M  V30 6708 H 643.109 1.65029 -4.55953 0
M  V30 6709 N 644.452 1.42507 0.673017 0
M  V30 6710 C 645.384 1.42074 1.79854 0
M  V30 6711 C 646.397 0.319569 1.59633 0
M  V30 6712 O 647.586 0.582769 1.68719 0
M  V30 6713 C 644.686 1.19886 3.16987 0
M  V30 6714 C 643.859 2.42471 3.64042 0
M  V30 6715 C 642.918 2.15802 4.79913 0
M  V30 6716 O 641.944 2.89015 4.90366 0
M  V30 6717 N 643.146 1.16225 5.68746 0
M  V30 6718 H 645.911 2.3909 1.8071 0
M  V30 6719 H 643.472 1.37409 0.856171 0
M  V30 6720 H 645.464 0.999591 3.92161 0
M  V30 6721 H 644.034 0.313879 3.1102 0
M  V30 6722 H 643.254 2.77954 2.79526 0
M  V30 6723 H 644.542 3.24097 3.92223 0
M  V30 6724 H 643.94 0.556756 5.62954 0
M  V30 6725 H 642.497 1.02285 6.43724 0
M  V30 6726 N 645.93 -0.909495 1.28709 0
M  V30 6727 C 646.86 -2.0291 1.15542 0
M  V30 6728 C 647.841 -1.7002 0.0521017 0
M  V30 6729 O 649.026 -1.92835 0.229849 0
M  V30 6730 C 646.156 -3.37458 0.820935 0
M  V30 6731 C 645.11 -3.84524 1.87949 0
M  V30 6732 C 644.436 -5.16086 1.39854 0
M  V30 6733 C 645.736 -4.05918 3.28676 0
M  V30 6734 H 647.43 -2.14183 2.09203 0
M  V30 6735 H 644.976 -1.02913 1.00722 0
M  V30 6736 H 646.929 -4.1528 0.715571 0
M  V30 6737 H 645.653 -3.26249 -0.151374 0
M  V30 6738 H 644.312 -3.08911 1.97408 0
M  V30 6739 H 643.96 -5.01284 0.41518 0
M  V30 6740 H 643.66 -5.48547 2.1064 0
M  V30 6741 H 645.184 -5.96459 1.30649 0
M  V30 6742 H 646.598 -4.74252 3.22115 0
M  V30 6743 H 644.995 -4.49717 3.97334 0
M  V30 6744 H 646.065 -3.10583 3.72379 0
M  V30 6745 N 647.408 -1.11026 -1.11852 0
M  V30 6746 C 648.819 -0.873203 -1.65021 0
M  V30 6747 C 649.17 0.595364 -1.86949 0
M  V30 6748 O 648.295 1.45645 -1.60051 0
M  V30 6749 C 648.89 -1.57859 -2.99777 0
M  V30 6750 C 647.449 -1.38807 -3.49871 0
M  V30 6751 C 646.596 -1.62403 -2.24768 0
M  V30 6752 H 649.547 -1.26712 -0.955503 0
M  V30 6753 H 649.568 -1.02111 -3.66543 0
M  V30 6754 H 649.08 -2.6474 -2.83786 0
M  V30 6755 H 647.181 -0.341163 -3.71035 0
M  V30 6756 H 647.294 -2.13421 -4.28938 0
M  V30 6757 H 645.658 -1.04714 -2.32179 0
M  V30 6758 H 646.441 -2.70549 -2.11324 0
M  V30 6759 N 648.886 1.2938 -0.899927 0
M  V30 6760 C 650.163 1.9046 -0.445443 0
M  V30 6761 C 650.543 1.81683 1.07492 0
M  V30 6762 O 649.891 1.24371 1.91688 0
M  V30 6763 C 650.101 3.35529 -0.960279 0
M  V30 6764 C 651.449 4.12556 -1.00412 0
M  V30 6765 O 652.473 3.44434 -0.907965 0
M  V30 6766 O 651.332 5.34294 -1.14857 0
M  V30 6767 H 648.426 0.815253 -0.138893 0
M  V30 6768 H 650.972 1.37844 -0.989808 0
M  V30 6769 H 649.744 3.36074 -2.00425 0
M  V30 6770 H 649.367 3.95624 -0.395939 0
M  V30 6771 N 650.364 0.662433 1.43002 0
M  V30 6772 C 651.61 0.188492 2.02525 0
M  V30 6773 C 651.965 -1.18752 1.51379 0
M  V30 6774 O 651.258 -1.78313 0.701065 0
M  V30 6775 C 651.452 0.149363 3.57088 0
M  V30 6776 C 651.281 1.52004 4.23231 0
M  V30 6777 C 650.051 2.11473 4.5892 0
M  V30 6778 C 652.249 2.46028 4.51635 0
M  V30 6779 N 650.231 3.4145 5.10181 0
M  V30 6780 C 651.602 3.60647 5.04315 0
M  V30 6781 C 653.657 2.44715 4.33612 0
M  V30 6782 C 652.36 4.74189 5.40867 0
M  V30 6783 C 654.386 3.57344 4.71232 0
M  V30 6784 C 653.748 4.70689 5.24053 0
M  V30 6785 H 649.847 0.113615 0.773703 0
M  V30 6786 H 652.431 0.872738 1.74044 0
M  V30 6787 H 650.602 -0.504255 3.85113 0
M  V30 6788 H 652.334 -0.336307 4.033 0
M  V30 6789 H 649.089 1.64087 4.44266 0
M  V30 6790 H 649.513 4.07987 5.40255 0
M  V30 6791 H 654.155 1.58318 3.9204 0
M  V30 6792 H 651.873 5.61271 5.81378 0
M  V30 6793 H 655.459 3.5754 4.58973 0
M  V30 6794 H 654.339 5.56398 5.52621 0
M  V30 6795 N 651.842 -1.52309 0.404946 0
M  V30 6796 C 653.07 -2.06185 -0.171818 0
M  V30 6797 C 653.485 -1.27536 -1.39212 0
M  V30 6798 O 652.842 -0.326112 -1.79563 0
M  V30 6799 C 652.893 -3.57647 -0.526417 0
M  V30 6800 O 652.614 -4.3332 0.645417 0
M  V30 6801 C 654.115 -4.27925 -1.15736 0
M  V30 6802 H 651.335 -0.670632 -0.0222328 0
M  V30 6803 H 653.879 -1.96259 0.574692 0
M  V30 6804 H 652.034 -3.67595 -1.22282 0
M  V30 6805 H 652.448 -5.23328 0.35042 0
M  V30 6806 H 653.922 -5.35093 -1.35572 0
M  V30 6807 H 654.399 -3.84134 -2.12926 0
M  V30 6808 H 655.005 -4.22335 -0.501281 0
M  V30 6809 N 653.32 -0.135238 -1.57019 0
M  V30 6810 C 654.23 0.822226 -2.19719 0
M  V30 6811 C 655.246 1.28057 -1.17802 0
M  V30 6812 O 656.422 1.3402 -1.50335 0
M  V30 6813 C 653.487 2.0484 -2.79717 0
M  V30 6814 C 652.548 1.64042 -3.96723 0
M  V30 6815 C 651.781 2.80814 -4.53849 0
M  V30 6816 O 652.004 3.967 -4.0986 0
M  V30 6817 O 650.938 2.56963 -5.44292 0
M  V30 6818 H 654.764 0.318552 -3.02025 0
M  V30 6819 H 652.349 0.0912021 -1.49121 0
M  V30 6820 H 654.231 2.76622 -3.17897 0
M  V30 6821 H 652.906 2.54182 -2.00432 0
M  V30 6822 H 651.813 0.893182 -3.63281 0
M  V30 6823 H 653.146 1.19426 -4.77492 0
M  V30 6824 N 654.798 1.5699 0.138552 0
M  V30 6825 C 656.038 1.85619 0.855849 0
M  V30 6826 C 656.402 0.720663 1.77962 0
M  V30 6827 O 657.603 0.888221 2.53701 0
M  V30 6828 C 655.874 3.19447 1.60275 0
M  V30 6829 S 657.433 3.69656 2.36431 0
M  V30 6830 H 654.251 0.650926 0.286035 0
M  V30 6831 H 656.853 1.9516 0.115331 0
M  V30 6832 H 655.557 4.00053 0.915737 0
M  V30 6833 H 655.088 3.12935 2.38402 0
M  V30 6834 H 657.103 3.39595 3.61787 0
M  V30 6835 N 656.276 -0.40816 1.52223 0
M  V30 6836 C 657.186 -1.52202 1.78526 0
M  V30 6837 C 658.202 -1.60546 0.670892 0
M  V30 6838 O 659.378 -1.77242 0.956404 0
M  V30 6839 C 656.443 -2.87928 1.93128 0
M  V30 6840 C 655.504 -2.89463 3.17033 0
M  V30 6841 C 654.737 -4.18715 3.30929 0
M  V30 6842 O 654.96 -5.12662 2.50067 0
M  V30 6843 O 653.894 -4.27125 4.24084 0
M  V30 6844 H 657.72 -1.32911 2.73072 0
M  V30 6845 H 655.305 -0.594112 1.37079 0
M  V30 6846 H 657.187 -3.68426 2.04549 0
M  V30 6847 H 655.862 -3.07285 1.01772 0
M  V30 6848 H 654.769 -2.07815 3.11069 0
M  V30 6849 H 656.102 -2.75055 4.08174 0
M  V30 6850 N 657.755 -1.42862 -0.66545 0
M  V30 6851 C 658.685 -1.49867 -1.79059 0
M  V30 6852 C 659.666 -0.354394 -1.66367 0
M  V30 6853 O 660.851 -0.569969 -1.85647 0
M  V30 6854 C 657.981 -1.40943 -3.17415 0
M  V30 6855 C 656.935 -2.53495 -3.44854 0
M  V30 6856 C 656.261 -2.29626 -4.82883 0
M  V30 6857 C 657.561 -3.95781 -3.40815 0
M  V30 6858 H 659.255 -2.44037 -1.73453 0
M  V30 6859 H 656.801 -1.17456 -0.833071 0
M  V30 6860 H 658.754 -1.4445 -3.95869 0
M  V30 6861 H 657.478 -0.432716 -3.23721 0
M  V30 6862 H 656.137 -2.4932 -2.68766 0
M  V30 6863 H 655.785 -1.30226 -4.8585 0
M  V30 6864 H 655.485 -3.05065 -5.02204 0
M  V30 6865 H 657.009 -2.34897 -5.63609 0
M  V30 6866 H 658.423 -4.01508 -4.09224 0
M  V30 6867 H 656.82 -4.71148 -3.71672 0
M  V30 6868 H 657.89 -4.21786 -2.39216 0
M  V30 6869 N 659.233 0.902656 -1.29189 0
M  V30 6870 C 660.458 1.69167 -1.19989 0
M  V30 6871 C 660.883 1.86607 0.236495 0
M  V30 6872 O 660.241 1.38425 1.17082 0
M  V30 6873 C 660.289 3.05532 -1.91527 0
M  V30 6874 O 659.393 3.93621 -1.2303 0
M  V30 6875 H 658.734 0.517584 -0.415936 0
M  V30 6876 H 661.264 1.12785 -1.70706 0
M  V30 6877 H 661.274 3.55693 -1.99866 0
M  V30 6878 H 659.949 2.92156 -2.96003 0
M  V30 6879 H 658.526 3.52055 -1.22928 0
M  V30 6880 N 660.711 1.11618 1.11262 0
M  V30 6881 C 661.959 0.864469 1.82678 0
M  V30 6882 C 662.28 -0.611564 1.85162 0
M  V30 6883 O 661.55 -1.44429 1.32352 0
M  V30 6884 H 660.13 0.316821 0.676486 0
M  V30 6885 H 662.792 1.40894 1.34666 0
M  V30 6886 H 661.888 1.23832 2.86482 0
M  V30 6887 N 662.189 -1.289 0.906776 0
M  V30 6888 C 663.419 -1.99112 0.551168 0
M  V30 6889 C 663.827 -1.67998 -0.870243 0
M  V30 6890 O 663.17 -0.92525 -1.58697 0
M  V30 6891 C 663.232 -3.53162 0.672065 0
M  V30 6892 C 662.896 -4.07849 2.06174 0
M  V30 6893 C 663.893 -4.22212 3.0337 0
M  V30 6894 C 661.578 -4.4271 2.37304 0
M  V30 6895 C 663.572 -4.70678 4.29815 0
M  V30 6896 C 661.259 -4.90871 3.6399 0
M  V30 6897 C 662.257 -5.04811 4.6006 0
M  V30 6898 O 661.945 -5.51925 5.84495 0
M  V30 6899 H 661.677 -0.642728 0.209469 0
M  V30 6900 H 664.231 -1.65234 1.22012 0
M  V30 6901 H 662.461 -3.86662 -0.05394 0
M  V30 6902 H 664.15 -4.046 0.324579 0
M  V30 6903 H 664.916 -3.9556 2.80637 0
M  V30 6904 H 660.795 -4.31114 1.63283 0
M  V30 6905 H 664.339 -4.81474 5.04806 0
M  V30 6906 H 660.236 -5.16961 3.86551 0
M  V30 6907 H 661.004 -5.70225 5.87185 0
M  V30 6908 N 663.667 -0.670007 -1.42649 0
M  V30 6909 C 664.915 -0.18991 -2.01206 0
M  V30 6910 C 665.236 1.20617 -1.53221 0
M  V30 6911 O 664.506 1.80898 -0.751856 0
M  V30 6912 H 663.086 -0.0672189 -0.743969 0
M  V30 6913 H 665.748 -0.865442 -1.74631 0
M  V30 6914 H 664.844 -0.187481 -3.11536 0
M  V30 6915 N 665.145 1.52092 -0.413018 0
M  V30 6916 C 666.092 2.27119 0.410558 0
M  V30 6917 C 667.062 1.29692 1.03774 0
M  V30 6918 O 668.247 1.58561 1.06128 0
M  V30 6919 C 665.387 3.09863 1.51918 0
M  V30 6920 C 664.5 4.22252 0.912528 0
M  V30 6921 C 663.635 4.92348 1.99417 0
M  V30 6922 C 662.674 5.96694 1.36466 0
M  V30 6923 N 661.811 6.60292 2.38661 0
M  V30 6924 H 666.651 2.97067 -0.235661 0
M  V30 6925 H 664.188 1.46542 -0.128055 0
M  V30 6926 H 666.146 3.56144 2.17295 0
M  V30 6927 H 664.776 2.42078 2.13537 0
M  V30 6928 H 663.828 3.80113 0.147697 0
M  V30 6929 H 665.14 4.9709 0.412717 0
M  V30 6930 H 664.294 5.42054 2.72512 0
M  V30 6931 H 663.033 4.17087 2.52764 0
M  V30 6932 H 662.038 5.46304 0.61906 0
M  V30 6933 H 663.263 6.73899 0.838827 0
M  V30 6934 H 661.209 5.87858 2.91134 0
M  V30 6935 H 661.126 7.30816 1.93503 0
M  V30 6936 H 662.394 7.14635 3.11314 0
M  V30 6937 N 666.623 0.143563 1.56945 0
M  V30 6938 C 667.573 -0.809115 2.1316 0
M  V30 6939 C 668.557 -1.21176 1.05855 0
M  V30 6940 O 669.749 -1.17875 1.3204 0
M  V30 6941 C 666.878 -2.04957 2.75405 0
M  V30 6942 C 665.964 -1.67018 3.89828 0
M  V30 6943 N 666.355 -0.998822 4.9584 0
M  V30 6944 C 664.653 -1.96313 4.00471 0
M  V30 6945 C 665.354 -0.816217 5.75945 0
M  V30 6946 N 664.33 -1.349 5.26596 0
M  V30 6947 H 668.132 -0.286919 2.92496 0
M  V30 6948 H 665.646 -0.0580948 1.62296 0
M  V30 6949 H 667.643 -2.74201 3.14037 0
M  V30 6950 H 666.303 -2.57697 1.97541 0
M  V30 6951 H 667.314 -0.659975 5.13678 0
M  V30 6952 H 663.991 -2.50927 3.33679 0
M  V30 6953 H 665.381 -0.287353 6.71285 0
M  V30 6954 N 668.101 -1.57061 -0.130224 0
M  V30 6955 C 669.011 -2.02802 -1.17934 0
M  V30 6956 C 670.027 -0.946378 -1.46013 0
M  V30 6957 O 671.203 -1.25708 -1.57351 0
M  V30 6958 C 668.268 -2.41368 -2.48882 0
M  V30 6959 C 667.329 -3.63561 -2.28301 0
M  V30 6960 C 666.562 -4.00279 -3.53005 0
M  V30 6961 O 666.785 -3.37463 -4.59864 0
M  V30 6962 O 665.719 -4.93441 -3.44673 0
M  V30 6963 H 669.545 -2.92394 -0.820958 0
M  V30 6964 H 667.13 -1.45475 -0.340197 0
M  V30 6965 H 669.012 -2.66958 -3.26054 0
M  V30 6966 H 667.687 -1.54926 -2.84217 0
M  V30 6967 H 666.594 -3.43136 -1.49025 0
M  V30 6968 H 667.927 -4.50673 -1.97875 0
M  V30 6969 N 669.579 0.400081 -1.52437 0
M  V30 6970 C 670.542 1.4707 -1.75793 0
M  V30 6971 C 671.542 1.48036 -0.627856 0
M  V30 6972 O 672.732 1.49401 -0.895817 0
M  V30 6973 C 669.864 2.86427 -1.84858 0
M  V30 6974 H 671.057 1.27649 -2.71377 0
M  V30 6975 H 668.61 0.631141 -1.42991 0
M  V30 6976 H 669.345 3.11207 -0.912194 0
M  V30 6977 H 669.13 2.87128 -2.6702 0
M  V30 6978 H 670.62 3.64023 -2.04638 0
M  V30 6979 N 671.057 1.43213 0.657864 0
M  V30 6980 C 671.987 1.50815 1.78262 0
M  V30 6981 C 672.968 0.363211 1.66177 0
M  V30 6982 O 674.153 0.579806 1.85343 0
M  V30 6983 C 671.283 1.42625 3.16663 0
M  V30 6984 C 670.237 2.5532 3.43505 0
M  V30 6985 C 669.563 2.32184 4.81658 0
M  V30 6986 C 670.863 3.97583 3.38711 0
M  V30 6987 H 672.557 2.44954 1.72157 0
M  V30 6988 H 670.103 1.17896 0.82683 0
M  V30 6989 H 672.056 1.46548 3.95097 0
M  V30 6990 H 670.78 0.449877 3.23487 0
M  V30 6991 H 669.439 2.50742 2.6744 0
M  V30 6992 H 669.087 1.32801 4.85153 0
M  V30 6993 H 668.787 3.07724 5.00579 0
M  V30 6994 H 670.311 2.37883 5.62356 0
M  V30 6995 H 671.725 4.03673 4.07089 0
M  V30 6996 H 670.122 4.73112 3.69168 0
M  V30 6997 H 671.192 4.23049 2.36976 0
M  V30 6998 N 672.536 -0.895792 1.29666 0
M  V30 6999 C 673.761 -1.68528 1.20885 0
M  V30 7000 C 674.186 -1.8673 -0.226595 0
M  V30 7001 O 673.544 -1.39044 -1.16347 0
M  V30 7002 C 673.592 -3.04512 1.93144 0
M  V30 7003 O 672.696 -3.92963 1.25115 0
M  V30 7004 H 672.037 -0.515371 0.418675 0
M  V30 7005 H 674.567 -1.11878 1.71302 0
M  V30 7006 H 674.577 -3.54628 2.0175 0
M  V30 7007 H 673.252 -2.90582 2.97548 0
M  V30 7008 H 671.829 -3.51399 1.24794 0
M  V30 7009 N 674.014 -1.12206 -1.10668 0
M  V30 7010 C 675.425 -0.890657 -1.64086 0
M  V30 7011 C 675.776 0.575502 -1.8757 0
M  V30 7012 O 674.901 1.4394 -1.61587 0
M  V30 7013 C 675.496 -1.61029 -2.98085 0
M  V30 7014 C 674.055 -1.4251 -3.48379 0
M  V30 7015 C 673.202 -1.64778 -2.23033 0
M  V30 7016 H 676.153 -1.27718 -0.94201 0
M  V30 7017 H 676.174 -1.05993 -3.65439 0
M  V30 7018 H 675.686 -2.67735 -2.80962 0
M  V30 7019 H 673.787 -0.380497 -3.70652 0
M  V30 7020 H 673.9 -2.17959 -4.26651 0
M  V30 7021 H 672.264 -1.07171 -2.31055 0
M  V30 7022 H 673.047 -2.72776 -2.08443 0
M  V30 7023 N 675.492 1.28418 -0.913599 0
M  V30 7024 C 676.739 1.94981 -0.546674 0
M  V30 7025 C 677.067 1.7192 0.909606 0
M  V30 7026 O 676.322 1.03314 1.66207 0
M  V30 7027 C 676.621 3.48283 -0.802099 0
M  V30 7028 C 676.287 3.91444 -2.2379 0
M  V30 7029 C 674.949 4.02939 -2.63046 0
M  V30 7030 C 677.301 4.13542 -3.17227 0
M  V30 7031 C 674.629 4.3391 -3.94891 0
M  V30 7032 C 676.981 4.45992 -4.48636 0
M  V30 7033 C 675.645 4.55698 -4.87746 0
M  V30 7034 H 674.915 0.713487 -0.200042 0
M  V30 7035 H 677.562 1.52756 -1.15489 0
M  V30 7036 H 675.867 3.91643 -0.111076 0
M  V30 7037 H 677.564 3.97903 -0.497375 0
M  V30 7038 H 674.154 3.83024 -1.9233 0
M  V30 7039 H 678.338 4.04114 -2.88107 0
M  V30 7040 H 673.594 4.39631 -4.24894 0
M  V30 7041 H 677.768 4.62038 -5.21051 0
M  V30 7042 H 675.395 4.79451 -5.89942 0
M  V30 7043 N 676.97 0.677563 1.42291 0
M  V30 7044 C 678.2 0.209155 2.05539 0
M  V30 7045 C 678.608 -1.13987 1.51009 0
M  V30 7046 O 677.951 -1.71976 0.645764 0
M  V30 7047 C 678.013 0.0697758 3.59432 0
M  V30 7048 C 677.677 1.34795 4.36668 0
M  V30 7049 C 678.674 2.28201 4.67141 0
M  V30 7050 C 676.359 1.59632 4.76259 0
M  V30 7051 C 678.353 3.44718 5.36142 0
M  V30 7052 C 676.04 2.76437 5.45 0
M  V30 7053 C 677.038 3.68805 5.74867 0
M  V30 7054 O 676.726 4.83567 6.42198 0
M  V30 7055 H 676.458 0.0986202 0.668768 0
M  V30 7056 H 679.012 0.925483 1.83368 0
M  V30 7057 H 677.242 -0.702157 3.80272 0
M  V30 7058 H 678.931 -0.359115 4.04308 0
M  V30 7059 H 679.697 2.10264 4.37052 0
M  V30 7060 H 675.576 0.886073 4.52404 0
M  V30 7061 H 679.12 4.16833 5.59371 0
M  V30 7062 H 675.017 2.94299 5.74507 0
M  V30 7063 H 675.785 4.83147 6.6069 0
M  V30 7064 N 678.448 -1.51871 0.421078 0
M  V30 7065 C 679.673 -2.0684 -0.152371 0
M  V30 7066 C 680.098 -1.28802 -1.37083 0
M  V30 7067 O 679.456 -0.321482 -1.78427 0
M  V30 7068 C 679.504 -3.57532 -0.469368 0
M  V30 7069 O 678.608 -3.81818 -1.55848 0
M  V30 7070 H 677.949 -0.663939 -0.00898586 0
M  V30 7071 H 680.479 -1.95674 0.597724 0
M  V30 7072 H 680.489 -4.01515 -0.724553 0
M  V30 7073 H 679.164 -4.13761 0.421276 0
M  V30 7074 H 677.741 -3.49709 -1.29453 0
M  V30 7075 N 679.926 -0.151884 -1.56866 0
M  V30 7076 C 680.836 0.798876 -2.20579 0
M  V30 7077 C 681.852 1.268 -1.19154 0
M  V30 7078 O 683.028 1.32418 -1.51748 0
M  V30 7079 C 680.093 2.01861 -2.81874 0
M  V30 7080 C 679.154 1.59825 -3.9844 0
M  V30 7081 C 678.387 2.75984 -4.56802 0
M  V30 7082 O 678.61 3.92331 -4.14044 0
M  V30 7083 O 677.544 2.51175 -5.46987 0
M  V30 7084 H 681.37 0.2865 -3.02346 0
M  V30 7085 H 678.955 0.0753806 -1.4921 0
M  V30 7086 H 680.837 2.73235 -3.20813 0
M  V30 7087 H 679.512 2.52042 -2.03117 0
M  V30 7088 H 678.419 0.854601 -3.64208 0
M  V30 7089 H 679.752 1.14355 -4.78731 0
M  V30 7090 N 681.404 1.57128 0.121893 0
M  V30 7091 C 682.82 1.52357 0.47534 0
M  V30 7092 C 683.02 0.864417 1.82017 0
M  V30 7093 O 682.076 0.445529 2.48538 0
M  V30 7094 C 683.389 2.97122 0.4625 0
M  V30 7095 C 684.937 3.08196 0.546255 0
M  V30 7096 C 685.412 4.54516 0.563833 0
M  V30 7097 N 686.903 4.58959 0.625353 0
M  V30 7098 C 687.638 5.69585 0.660354 0
M  V30 7099 N 687.134 6.89714 0.653175 0
M  V30 7100 N 688.927 5.57685 0.703143 0
M  V30 7101 H 681.078 1.98364 -0.75931 0
M  V30 7102 H 683.341 0.905777 -0.279772 0
M  V30 7103 H 683.047 3.48706 -0.457943 0
M  V30 7104 H 682.921 3.54406 1.29136 0
M  V30 7105 H 685.308 2.56617 1.45712 0
M  V30 7106 H 685.389 2.53912 -0.310234 0
M  V30 7107 H 685.033 5.06741 -0.342974 0
M  V30 7108 H 684.963 5.06609 1.43716 0
M  V30 7109 H 687.454 3.72489 0.637182 0
M  V30 7110 H 687.767 7.69781 0.682425 0
M  V30 7111 H 686.112 6.92223 0.620646 0
M  V30 7112 H 689.303 4.62744 0.706095 0
M  V30 7113 H 689.476 6.43909 0.726952 0
M  V30 7114 N 682.882 -0.391992 1.52647 0
M  V30 7115 C 683.812 -1.48517 1.8018 0
M  V30 7116 C 684.793 -1.57039 0.653667 0
M  V30 7117 O 685.978 -1.72036 0.900962 0
M  V30 7118 C 683.108 -2.86161 1.96797 0
M  V30 7119 C 682.062 -2.92481 3.12472 0
M  V30 7120 C 681.388 -4.32546 3.14338 0
M  V30 7121 C 682.688 -2.624 4.51601 0
M  V30 7122 H 684.382 -1.25726 2.71723 0
M  V30 7123 H 681.928 -0.603387 1.30749 0
M  V30 7124 H 683.881 -3.62639 2.14641 0
M  V30 7125 H 682.605 -3.10283 1.01941 0
M  V30 7126 H 681.264 -2.18451 2.94406 0
M  V30 7127 H 680.912 -4.53703 2.1717 0
M  V30 7128 H 680.612 -4.37695 3.92042 0
M  V30 7129 H 682.136 -5.10934 3.34333 0
M  V30 7130 H 683.55 -3.28596 4.69785 0
M  V30 7131 H 681.947 -2.78903 5.3135 0
M  V30 7132 H 683.017 -1.57754 4.58521 0
M  V30 7133 N 684.36 -1.4356 -0.65026 0
M  V30 7134 C 685.307 -1.48948 -1.76304 0
M  V30 7135 C 686.277 -0.338919 -1.62605 0
M  V30 7136 O 687.462 -0.54649 -1.82806 0
M  V30 7137 C 684.602 -1.42131 -3.14472 0
M  V30 7138 C 683.715 -2.67415 -3.39284 0
M  V30 7139 C 682.85 -2.52565 -4.67316 0
M  V30 7140 C 681.889 -3.73103 -4.85243 0
M  V30 7141 N 681.026 -3.57046 -6.04535 0
M  V30 7142 H 685.866 -2.44032 -1.71034 0
M  V30 7143 H 683.403 -1.21131 -0.834601 0
M  V30 7144 H 685.361 -1.36172 -3.94351 0
M  V30 7145 H 683.991 -0.506273 -3.18805 0
M  V30 7146 H 683.043 -2.8364 -2.53481 0
M  V30 7147 H 684.355 -3.56943 -3.48415 0
M  V30 7148 H 683.509 -2.44331 -5.55326 0
M  V30 7149 H 682.248 -1.60566 -4.60511 0
M  V30 7150 H 681.253 -3.81743 -3.95667 0
M  V30 7151 H 682.478 -4.66115 -4.93876 0
M  V30 7152 H 680.424 -2.67783 -5.98856 0
M  V30 7153 H 680.341 -4.40178 -6.14638 0
M  V30 7154 H 681.609 -3.52669 -6.95158 0
M  V30 7155 N 685.838 0.888903 -1.30139 0
M  V30 7156 C 686.748 2.02705 -1.18101 0
M  V30 7157 C 687.764 1.73702 -0.101809 0
M  V30 7158 O 688.94 1.98906 -0.315984 0
M  V30 7159 C 686.005 3.35616 -0.869651 0
M  V30 7160 C 685.066 3.78067 -2.03381 0
M  V30 7161 C 684.299 5.04635 -1.73721 0
M  V30 7162 O 684.522 5.66531 -0.663267 0
M  V30 7163 O 683.456 5.43399 -2.58845 0
M  V30 7164 H 687.282 2.15788 -2.13704 0
M  V30 7165 H 684.867 1.01426 -1.09695 0
M  V30 7166 H 686.749 4.15358 -0.711043 0
M  V30 7167 H 685.424 3.23651 0.0565002 0
M  V30 7168 H 684.331 2.99046 -2.24772 0
M  V30 7169 H 685.664 3.94631 -2.94155 0
M  V30 7170 N 687.317 1.12792 1.10072 0
M  V30 7171 C 688.28 0.802264 2.14701 0
M  V30 7172 C 689.28 -0.18515 1.59731 0
M  V30 7173 O 690.47 0.041109 1.74151 0
M  V30 7174 C 687.602 0.19285 3.40354 0
M  V30 7175 H 688.795 1.72932 2.45019 0
M  V30 7176 H 686.348 0.931662 1.25498 0
M  V30 7177 H 687.083 -0.743748 3.15656 0
M  V30 7178 H 686.868 0.903827 3.81541 0
M  V30 7179 H 688.358 -0.0183704 4.17596 0
M  V30 7180 N 688.795 -1.27931 0.920396 0
M  V30 7181 C 689.745 -2.24727 0.384966 0
M  V30 7182 C 690.729 -1.52715 -0.506661 0
M  V30 7183 O 691.921 -1.73599 -0.345298 0
M  V30 7184 C 689.05 -3.41324 -0.3678 0
M  V30 7185 C 688.136 -4.20649 0.539925 0
M  V30 7186 N 688.527 -4.77906 1.6565 0
M  V30 7187 C 686.825 -4.4469 0.341557 0
M  V30 7188 C 687.526 -5.37652 2.22047 0
M  V30 7189 N 686.502 -5.2218 1.51093 0
M  V30 7190 H 690.304 -2.66572 1.23761 0
M  V30 7191 H 687.818 -1.42779 0.773819 0
M  V30 7192 H 689.815 -4.0976 -0.768277 0
M  V30 7193 H 688.475 -3.01012 -1.21746 0
M  V30 7194 H 689.486 -4.76073 2.03899 0
M  V30 7195 H 686.163 -4.14868 -0.468045 0
M  V30 7196 H 687.553 -5.92948 3.1601 0
M  V30 7197 N 690.273 -0.685099 -1.4193 0
M  V30 7198 C 691.519 -0.211971 -2.01689 0
M  V30 7199 C 691.852 1.18189 -1.54094 0
M  V30 7200 O 691.127 1.79559 -0.747572 0
M  V30 7201 C 691.41 -0.258019 -3.59174 0
M  V30 7202 C 691.263 -1.68807 -4.16922 0
M  V30 7203 C 692.582 0.388044 -4.38386 0
M  V30 7204 H 689.701 -0.0784987 -0.732808 0
M  V30 7205 H 692.343 -0.871837 -1.68816 0
M  V30 7206 H 690.493 0.303832 -3.8731 0
M  V30 7207 H 692.165 -2.30296 -3.99702 0
M  V30 7208 H 690.408 -2.22553 -3.72361 0
M  V30 7209 H 691.079 -1.6719 -5.26072 0
M  V30 7210 H 693.555 -0.0903432 -4.16002 0
M  V30 7211 H 692.431 0.325232 -5.47936 0
M  V30 7212 H 692.692 1.4672 -4.17044 0
M  V30 7213 N 691.751 1.51645 -0.429126 0
M  V30 7214 C 693.167 1.59394 -0.080994 0
M  V30 7215 C 693.367 1.44064 1.40882 0
M  V30 7216 O 692.423 1.27771 2.17786 0
M  V30 7217 C 693.736 2.94779 -0.593773 0
M  V30 7218 C 695.284 3.08067 -0.553494 0
M  V30 7219 C 695.759 4.45963 -1.04311 0
M  V30 7220 N 697.25 4.5226 -1.00076 0
M  V30 7221 C 697.985 5.57268 -1.35056 0
M  V30 7222 N 697.481 6.69734 -1.77282 0
M  V30 7223 N 699.274 5.47582 -1.26925 0
M  V30 7224 H 691.425 1.59856 -1.39857 0
M  V30 7225 H 693.688 0.753095 -0.575805 0
M  V30 7226 H 693.394 3.11342 -1.63583 0
M  V30 7227 H 693.268 3.77197 -0.0142202 0
M  V30 7228 H 695.655 2.91177 0.479556 0
M  V30 7229 H 695.736 2.27508 -1.16935 0
M  V30 7230 H 695.38 4.63598 -2.07459 0
M  V30 7231 H 695.31 5.25049 -0.403873 0
M  V30 7232 H 697.801 3.71537 -0.690564 0
M  V30 7233 H 698.114 7.4587 -2.02232 0
M  V30 7234 H 696.459 6.70963 -1.81202 0
M  V30 7235 H 699.65 4.58604 -0.93809 0
M  V30 7236 H 699.823 6.29308 -1.54516 0
M  V30 7237 N 693.229 0.160201 1.56784 0
M  V30 7238 C 694.159 -0.770264 2.2043 0
M  V30 7239 C 695.14 -1.24736 1.15651 0
M  V30 7240 O 696.325 -1.30253 1.44041 0
M  V30 7241 C 693.455 -2.00427 2.83631 0
M  V30 7242 C 692.409 -1.66345 3.94352 0
M  V30 7243 C 691.735 -2.97119 4.4455 0
M  V30 7244 C 693.035 -0.899972 5.14488 0
M  V30 7245 H 694.729 -0.239783 2.98438 0
M  V30 7246 H 692.275 -0.113891 1.43549 0
M  V30 7247 H 694.228 -2.66012 3.26827 0
M  V30 7248 H 692.952 -2.5587 2.02973 0
M  V30 7249 H 691.611 -1.03133 3.51794 0
M  V30 7250 H 691.259 -3.5058 3.60698 0
M  V30 7251 H 690.959 -2.75073 5.19238 0
M  V30 7252 H 692.483 -3.63753 4.90425 0
M  V30 7253 H 693.897 -1.45818 5.54446 0
M  V30 7254 H 692.294 -0.778968 5.95023 0
M  V30 7255 H 693.364 0.105827 4.84785 0
M  V30 7256 N 694.707 -1.5719 -0.113559 0
M  V30 7257 C 695.937 -1.89053 -0.833212 0
M  V30 7258 C 696.345 -0.750139 -1.73694 0
M  V30 7259 O 695.688 0.287808 -1.81431 0
M  V30 7260 C 695.75 -3.15986 -1.71443 0
M  V30 7261 C 695.414 -4.46271 -0.984449 0
M  V30 7262 C 696.411 -5.18897 -0.322741 0
M  V30 7263 C 694.096 -4.92963 -0.964011 0
M  V30 7264 C 696.09 -6.3644 0.349646 0
M  V30 7265 C 693.777 -6.10422 -0.287828 0
M  V30 7266 C 694.775 -6.82009 0.36784 0
M  V30 7267 O 694.463 -7.97233 1.03322 0
M  V30 7268 H 694.195 -0.630225 -0.244526 0
M  V30 7269 H 696.749 -2.05152 -0.100847 0
M  V30 7270 H 694.979 -2.95984 -2.48858 0
M  V30 7271 H 696.668 -3.33826 -2.309 0
M  V30 7272 H 697.434 -4.83875 -0.330114 0
M  V30 7273 H 693.313 -4.37143 -1.46379 0
M  V30 7274 H 696.857 -6.92254 0.861996 0
M  V30 7275 H 692.754 -6.449 -0.278237 0
M  V30 7276 H 693.522 -8.13105 0.938247 0
M  V30 7277 N 696.185 0.383891 -1.52853 0
M  V30 7278 C 697.596 0.961591 -1.60032 0
M  V30 7279 C 697.947 1.90819 -0.456333 0
M  V30 7280 O 697.072 2.12288 0.419873 0
M  V30 7281 C 697.667 1.75078 -2.90057 0
M  V30 7282 C 696.226 2.2781 -2.99632 0
M  V30 7283 C 695.373 1.08512 -2.55187 0
M  V30 7284 H 698.324 0.163269 -1.57858 0
M  V30 7285 H 698.345 2.61046 -2.7683 0
M  V30 7286 H 697.857 1.06157 -3.73299 0
M  V30 7287 H 695.958 3.00028 -2.20939 0
M  V30 7288 H 696.071 2.56947 -4.0437 0
M  V30 7289 H 694.435 1.44667 -2.09627 0
M  V30 7290 H 695.218 0.41118 -3.40829 0
M  V30 7291 N 697.663 1.43903 0.642637 0
M  V30 7292 C 698.888 1.49758 1.43483 0
M  V30 7293 C 699.313 0.119911 1.87717 0
M  V30 7294 O 698.671 -0.888558 1.58033 0
M  V30 7295 C 698.719 2.45744 2.63898 0
M  V30 7296 O 697.823 1.95101 3.63331 0
M  V30 7297 H 697.164 0.506138 0.429791 0
M  V30 7298 H 699.694 1.88923 0.785438 0
M  V30 7299 H 699.704 2.63399 3.11584 0
M  V30 7300 H 698.379 3.45818 2.31046 0
M  V30 7301 H 696.956 1.87158 3.22531 0
M  V30 7302 N 699.141 -0.881989 1.30609 0
M  V30 7303 C 700.366 -1.67236 1.22665 0
M  V30 7304 C 700.791 -1.8696 -0.206777 0
M  V30 7305 O 700.149 -1.4027 -1.14865 0
M  V30 7306 C 700.197 -3.02446 1.96363 0
M  V30 7307 O 699.301 -3.91614 1.29276 0
M  V30 7308 H 698.642 -0.510902 0.424117 0
M  V30 7309 H 701.172 -1.10055 1.72479 0
M  V30 7310 H 701.182 -3.52468 2.055 0
M  V30 7311 H 699.857 -2.8741 3.00613 0
M  V30 7312 H 698.434 -3.50055 1.28514 0
M  V30 7313 N 700.619 -1.13374 -1.09472 0
M  V30 7314 C 702.035 -0.871846 -1.33682 0
M  V30 7315 C 702.235 0.492847 -1.9538 0
M  V30 7316 O 701.291 1.23946 -2.19985 0
M  V30 7317 C 702.604 -1.99608 -2.24893 0
M  V30 7318 C 704.152 -2.02812 -2.38404 0
M  V30 7319 C 704.627 -3.14497 -3.3295 0
M  V30 7320 N 706.118 -3.14004 -3.40523 0
M  V30 7321 C 706.853 -3.97061 -4.13679 0
M  V30 7322 N 706.349 -4.90131 -4.89636 0
M  V30 7323 N 708.142 -3.85162 -4.09398 0
M  V30 7324 H 700.293 -2.01288 -0.677995 0
M  V30 7325 H 702.556 -0.876492 -0.361201 0
M  V30 7326 H 702.262 -2.98 -1.86786 0
M  V30 7327 H 702.136 -1.90981 -3.25278 0
M  V30 7328 H 704.523 -1.05034 -2.75775 0
M  V30 7329 H 704.604 -2.15511 -1.37799 0
M  V30 7330 H 704.248 -4.12514 -2.96302 0
M  V30 7331 H 704.178 -2.99035 -4.33458 0
M  V30 7332 H 706.669 -2.46587 -2.86362 0
M  V30 7333 H 706.982 -5.49996 -5.42885 0
M  V30 7334 H 705.327 -4.94138 -4.88726 0
M  V30 7335 H 708.518 -3.11779 -3.49158 0
M  V30 7336 H 708.691 -4.5012 -4.6615 0
M  V30 7337 N 702.098 1.27442 -0.927168 0
M  V30 7338 C 703.338 1.96157 -0.574608 0
M  V30 7339 C 703.702 1.71265 0.867897 0
M  V30 7340 O 704.903 2.33664 1.3287 0
M  V30 7341 C 703.174 3.46115 -0.891009 0
M  V30 7342 S 704.733 4.34006 -0.646885 0
M  V30 7343 H 701.551 0.678619 -0.212125 0
M  V30 7344 H 704.153 1.54688 -1.19549 0
M  V30 7345 H 702.857 3.6173 -1.93854 0
M  V30 7346 H 702.388 3.92545 -0.259301 0
M  V30 7347 H 704.403 4.93719 0.495568 0
M  V30 7348 N 703.576 0.692616 1.41565 0
M  V30 7349 C 704.804 0.231279 2.05603 0
M  V30 7350 C 705.219 -1.11837 1.52111 0
M  V30 7351 O 704.576 -1.6983 0.66813 0
M  V30 7352 C 704.627 0.177125 3.61066 0
M  V30 7353 O 704.348 1.47346 4.12578 0
M  V30 7354 C 705.849 -0.30556 4.42246 0
M  V30 7355 H 703.069 0.108238 0.662213 0
M  V30 7356 H 705.613 0.944369 1.81389 0
M  V30 7357 H 703.768 -0.486769 3.8433 0
M  V30 7358 H 704.182 1.35861 5.06599 0
M  V30 7359 H 705.656 -0.29233 5.51225 0
M  V30 7360 H 706.133 -1.34393 4.18133 0
M  V30 7361 H 706.739 0.327229 4.24039 0
M  V30 7362 N 705.054 -1.51416 0.437162 0
M  V30 7363 C 706.279 -2.0699 -0.130424 0
M  V30 7364 C 706.704 -1.30249 -1.35709 0
M  V30 7365 O 706.062 -0.340388 -1.78076 0
M  V30 7366 C 706.11 -3.5801 -0.43142 0
M  V30 7367 O 705.214 -3.8345 -1.5179 0
M  V30 7368 H 704.555 -0.663997 -0.00194339 0
M  V30 7369 H 707.085 -1.95029 0.618445 0
M  V30 7370 H 707.095 -4.02261 -0.681926 0
M  V30 7371 H 705.77 -4.13291 0.465137 0
M  V30 7372 H 704.347 -3.51062 -1.25737 0
M  V30 7373 N 706.532 -0.168513 -1.56696 0
M  V30 7374 C 707.464 0.794249 -2.14998 0
M  V30 7375 C 708.477 1.1957 -1.10485 0
M  V30 7376 O 709.666 1.13604 -1.37682 0
M  V30 7377 C 706.766 2.08018 -2.67547 0
M  V30 7378 C 705.939 1.84274 -3.96689 0
M  V30 7379 C 704.998 2.97059 -4.3433 0
M  V30 7380 O 704.024 2.67815 -5.02259 0
M  V30 7381 N 705.226 4.24775 -3.9566 0
M  V30 7382 H 707.991 0.295832 -2.98236 0
M  V30 7383 H 705.552 0.0143611 -1.61894 0
M  V30 7384 H 707.544 2.82559 -2.89729 0
M  V30 7385 H 706.114 2.49059 -1.88914 0
M  V30 7386 H 705.334 0.936528 -3.82914 0
M  V30 7387 H 706.622 1.65773 -4.81037 0
M  V30 7388 H 706.02 4.51395 -3.40968 0
M  V30 7389 H 704.577 4.96027 -4.22848 0
M  V30 7390 N 708.01 1.57248 0.105221 0
M  V30 7391 C 708.96 1.9777 1.1345 0
M  V30 7392 C 709.944 0.854654 1.36325 0
M  V30 7393 O 711.136 1.11844 1.37186 0
M  V30 7394 C 708.265 2.39717 2.45745 0
M  V30 7395 C 707.351 3.58686 2.26286 0
M  V30 7396 N 707.742 4.73942 1.76671 0
M  V30 7397 C 706.04 3.64586 2.56891 0
M  V30 7398 C 706.741 5.55923 1.71245 0
M  V30 7399 N 705.717 4.98803 2.16093 0
M  V30 7400 H 709.519 2.84336 0.743664 0
M  V30 7401 H 707.033 1.59359 0.312787 0
M  V30 7402 H 709.03 2.66971 3.20206 0
M  V30 7403 H 707.69 1.54523 2.85574 0
M  V30 7404 H 708.701 4.9689 1.46016 0
M  V30 7405 H 705.378 2.90031 3.00314 0
M  V30 7406 H 706.768 6.58398 1.34022 0
M  V30 7407 N 709.488 -0.375779 1.53054 0
M  V30 7408 C 710.418 -1.46598 1.81745 0
M  V30 7409 C 711.399 -1.56337 0.670286 0
M  V30 7410 O 712.584 -1.71071 0.919158 0
M  V30 7411 C 709.714 -2.84058 1.99821 0
M  V30 7412 C 708.668 -2.8915 3.15557 0
M  V30 7413 C 707.994 -4.29187 3.18908 0
M  V30 7414 C 709.294 -2.57595 4.54359 0
M  V30 7415 H 710.988 -1.22837 2.73041 0
M  V30 7416 H 708.534 -0.589485 1.31381 0
M  V30 7417 H 710.487 -3.60342 2.18475 0
M  V30 7418 H 709.211 -3.09184 1.05226 0
M  V30 7419 H 707.87 -2.15316 2.96706 0
M  V30 7420 H 707.518 -4.51374 2.2197 0
M  V30 7421 H 707.218 -4.33512 3.96662 0
M  V30 7422 H 708.742 -5.07359 3.39734 0
M  V30 7423 H 710.156 -3.23595 4.73243 0
M  V30 7424 H 708.553 -2.73252 5.34279 0
M  V30 7425 H 709.623 -1.52882 4.60169 0
M  V30 7426 N 710.966 -1.44241 -0.634997 0
M  V30 7427 C 711.896 -1.53632 -1.7584 0
M  V30 7428 C 712.877 -0.389603 -1.65578 0
M  V30 7429 O 714.062 -0.609219 -1.84397 0
M  V30 7430 C 711.192 -1.47644 -3.14354 0
M  V30 7431 C 710.146 -2.60752 -3.394 0
M  V30 7432 C 709.472 -2.39817 -4.77904 0
M  V30 7433 C 710.772 -4.02921 -3.32343 0
M  V30 7434 H 712.466 -2.47662 -1.68238 0
M  V30 7435 H 710.012 -1.19197 -0.807969 0
M  V30 7436 H 711.965 -1.52815 -3.92716 0
M  V30 7437 H 710.689 -0.501284 -3.2273 0
M  V30 7438 H 709.348 -2.54965 -2.63417 0
M  V30 7439 H 708.996 -1.40502 -4.82978 0
M  V30 7440 H 708.696 -3.15649 -4.9562 0
M  V30 7441 H 710.22 -2.46799 -5.585 0
M  V30 7442 H 711.634 -4.10098 -4.00615 0
M  V30 7443 H 710.031 -4.78925 -3.61595 0
M  V30 7444 H 711.101 -4.26766 -2.30215 0
M  V30 7445 N 712.444 0.87505 -1.31075 0
M  V30 7446 C 713.392 2.00317 -1.18219 0
M  V30 7447 C 714.386 1.69152 -0.0916872 0
M  V30 7448 O 715.592 1.7821 -0.253229 0
M  V30 7449 H 711.967 0.656981 -0.365895 0
M  V30 7450 H 713.938 2.08293 -2.13674 0
M  V30 7451 C 712.687 3.35821 -0.901095 0
M  V30 7452 H 712.01 3.6032 -1.73233 0
M  V30 7453 H 713.45 4.15366 -0.851295 0
M  V30 7454 C 711.909 3.34563 0.396114 0
M  V30 7455 O 712.439 3.75971 1.41452 0
M  V30 7456 N 710.645 2.87681 0.410832 0
M  V30 7457 H 710.192 2.54179 -0.418415 0
M  V30 7458 H 710.15 2.87223 1.27869 0
M  V30 7459 N 713.922 1.13953 1.08869 0
M  V30 7460 C 715.338 0.878924 1.33218 0
M  V30 7461 C 715.538 -0.482478 1.95638 0
M  V30 7462 O 714.594 -1.22778 2.2064 0
M  V30 7463 C 715.907 2.00798 2.23832 0
M  V30 7464 C 717.455 2.04073 2.37325 0
M  V30 7465 C 717.93 3.16258 3.31278 0
M  V30 7466 N 719.421 3.15805 3.38853 0
M  V30 7467 C 720.156 3.99249 4.11567 0
M  V30 7468 N 719.652 4.92721 4.87029 0
M  V30 7469 N 721.445 3.87327 4.0735 0
M  V30 7470 H 713.596 2.01645 0.66731 0
M  V30 7471 H 715.859 0.878395 0.356547 0
M  V30 7472 H 715.565 2.98986 1.85203 0
M  V30 7473 H 715.439 1.92704 3.24261 0
M  V30 7474 H 717.826 1.06495 2.75214 0
M  V30 7475 H 717.907 2.16239 1.36654 0
M  V30 7476 H 717.551 4.14079 2.9411 0
M  V30 7477 H 717.481 3.0133 4.31866 0
M  V30 7478 H 719.972 2.48102 2.8505 0
M  V30 7479 H 720.285 5.52867 5.39961 0
M  V30 7480 H 718.63 4.96723 4.86098 0
M  V30 7481 H 721.821 3.13627 3.475 0
M  V30 7482 H 721.994 4.52585 4.63757 0
M  V30 7483 N 715.4 -1.26948 0.933913 0
M  V30 7484 C 716.628 -1.98186 0.59414 0
M  V30 7485 C 717.043 -1.69614 -0.829257 0
M  V30 7486 O 716.4 -0.960213 -1.55197 0
M  V30 7487 C 716.451 -3.52123 0.818026 0
M  V30 7488 O 716.172 -3.79698 2.18543 0
M  V30 7489 C 717.673 -4.40608 0.48781 0
M  V30 7490 H 714.893 -0.632305 0.224569 0
M  V30 7491 H 717.437 -1.61646 1.25263 0
M  V30 7492 H 715.592 -3.86851 0.206246 0
M  V30 7493 H 716.006 -4.7426 2.24005 0
M  V30 7494 H 717.48 -5.47606 0.695126 0
M  V30 7495 H 717.957 -4.35394 -0.576913 0
M  V30 7496 H 718.563 -4.11411 1.078 0
M  V30 7497 N 716.879 -0.700114 -1.41195 0
M  V30 7498 C 718.125 -0.233351 -2.01453 0
M  V30 7499 C 718.458 1.16548 -1.55339 0
M  V30 7500 O 717.733 1.78756 -0.766575 0
M  V30 7501 C 718.016 -0.2961 -3.58881 0
M  V30 7502 C 717.869 -1.7322 -4.15108 0
M  V30 7503 C 719.188 0.341525 -4.38773 0
M  V30 7504 H 716.307 -0.0862667 -0.731934 0
M  V30 7505 H 718.949 -0.889693 -1.67882 0
M  V30 7506 H 717.099 0.262736 -3.87611 0
M  V30 7507 H 718.771 -2.34523 -3.97236 0
M  V30 7508 H 717.014 -2.2649 -3.69979 0
M  V30 7509 H 717.685 -1.7276 -5.24269 0
M  V30 7510 H 720.161 -0.134461 -4.15883 0
M  V30 7511 H 719.037 0.267098 -5.4825 0
M  V30 7512 H 719.298 1.42289 -4.18577 0
M  V30 7513 N 718.357 1.51182 -0.445186 0
M  V30 7514 C 719.585 2.06568 0.117091 0
M  V30 7515 C 720 1.31182 1.35781 0
M  V30 7516 O 719.357 0.373605 1.78635 0
M  V30 7517 C 719.408 3.58917 0.431408 0
M  V30 7518 O 719.129 4.31456 -0.760078 0
M  V30 7519 C 720.63 4.30843 1.0435 0
M  V30 7520 H 717.85 0.670985 0.00444436 0
M  V30 7521 H 720.394 1.94666 -0.626525 0
M  V30 7522 H 718.549 3.70708 1.12493 0
M  V30 7523 H 718.963 5.22215 -0.489048 0
M  V30 7524 H 720.437 5.38499 1.21337 0
M  V30 7525 H 720.914 3.89644 2.02667 0
M  V30 7526 H 721.52 4.23516 0.38913 0
M  V30 7527 N 719.835 0.176821 1.56605 0
M  V30 7528 C 721.112 -0.513365 1.88743 0
M  V30 7529 C 721.492 -1.80929 1.08757 0
M  V30 7530 O 720.84 -2.27765 0.183127 0
M  V30 7531 C 721.05 -0.749925 3.40848 0
M  V30 7532 C 722.398 -1.07747 4.10701 0
M  V30 7533 O 723.422 -0.838277 3.46196 0
M  V30 7534 O 722.281 -1.52901 5.24675 0
M  V30 7535 H 719.375 -0.265296 0.783292 0
M  V30 7536 H 721.921 0.215669 1.68324 0
M  V30 7537 H 720.693 0.16599 3.90948 0
M  V30 7538 H 720.316 -1.53208 3.66897 0
M  V30 7539 N 721.313 -1.57302 -0.09688 0
M  V30 7540 C 722.261 -2.02942 -1.13654 0
M  V30 7541 C 723.255 -0.930173 -1.41577 0
M  V30 7542 O 724.461 -1.11535 -1.41279 0
M  V30 7543 H 720.836 -0.646726 -0.383731 0
M  V30 7544 H 722.807 -2.89452 -0.725267 0
M  V30 7545 C 721.556 -2.46815 -2.44903 0
M  V30 7546 H 720.879 -3.30979 -2.24261 0
M  V30 7547 H 722.319 -2.82527 -3.16156 0
M  V30 7548 C 720.778 -1.34071 -3.09074 0
M  V30 7549 O 721.308 -0.668856 -3.96092 0
M  V30 7550 N 719.514 -1.09214 -2.69296 0
M  V30 7551 H 719.061 -1.64029 -1.98626 0
M  V30 7552 H 719.019 -0.339785 -3.12559 0
M  V30 7553 N 722.791 0.367657 -1.53252 0
M  V30 7554 C 723.724 1.47264 -1.74323 0
M  V30 7555 C 724.702 1.51458 -0.591535 0
M  V30 7556 O 725.886 1.69542 -0.823883 0
M  V30 7557 C 723.013 2.85637 -1.82015 0
M  V30 7558 C 722.059 2.99176 -3.03967 0
M  V30 7559 S 722.892 2.68147 -4.63527 0
M  V30 7560 C 724.048 4.08673 -4.74065 0
M  V30 7561 H 724.281 1.29169 -2.67773 0
M  V30 7562 H 721.814 0.561866 -1.43814 0
M  V30 7563 H 723.772 3.65365 -1.87132 0
M  V30 7564 H 722.433 3.01043 -0.896195 0
M  V30 7565 H 721.626 4.00511 -3.05953 0
M  V30 7566 H 721.228 2.27367 -2.96952 0
M  V30 7567 H 723.52 5.02889 -4.53992 0
M  V30 7568 H 724.463 4.11693 -5.7612 0
M  V30 7569 H 724.871 3.95576 -4.02716 0
M  V30 7570 N 724.269 1.44576 0.627338 0
M  V30 7571 C 725.199 1.54562 1.75022 0
M  V30 7572 C 726.18 0.398378 1.65369 0
M  V30 7573 O 727.365 0.61899 1.84071 0
M  V30 7574 C 724.495 1.49309 3.13567 0
M  V30 7575 C 723.449 2.62549 3.38012 0
M  V30 7576 C 722.775 2.42348 4.76625 0
M  V30 7577 C 724.075 4.04678 3.30202 0
M  V30 7578 H 725.769 2.4855 1.66922 0
M  V30 7579 H 723.315 1.19624 0.801636 0
M  V30 7580 H 725.268 1.54895 3.919 0
M  V30 7581 H 723.992 0.518392 3.2246 0
M  V30 7582 H 722.651 2.56358 2.62061 0
M  V30 7583 H 722.299 1.43062 4.82226 0
M  V30 7584 H 721.999 3.18273 4.93939 0
M  V30 7585 H 723.523 2.49758 5.57183 0
M  V30 7586 H 724.937 4.12217 3.98435 0
M  V30 7587 H 723.334 4.80836 3.5905 0
M  V30 7588 H 724.404 4.2798 2.27949 0
M  V30 7589 N 725.747 -0.868086 1.31537 0
M  V30 7590 C 726.987 -1.63526 1.22632 0
M  V30 7591 C 727.351 -1.90828 -0.211815 0
M  V30 7592 O 728.552 -2.65429 -0.424387 0
M  V30 7593 C 726.823 -2.92849 2.04876 0
M  V30 7594 S 728.382 -3.83717 2.12853 0
M  V30 7595 H 725.2 -0.56105 0.436743 0
M  V30 7596 H 727.802 -1.02908 1.66223 0
M  V30 7597 H 726.506 -2.70717 3.08449 0
M  V30 7598 H 726.037 -3.58491 1.62011 0
M  V30 7599 H 728.052 -4.79719 1.26822 0
M  V30 7600 N 727.225 -1.14528 -1.08264 0
M  V30 7601 C 728.188 -0.83632 -2.13397 0
M  V30 7602 C 729.188 0.159715 -1.60005 0
M  V30 7603 O 730.378 -0.0688098 -1.74064 0
M  V30 7604 C 727.51 -0.246973 -3.40004 0
M  V30 7605 H 728.703 -1.76808 -2.42237 0
M  V30 7606 H 726.256 -0.951509 -1.24 0
M  V30 7607 H 726.991 0.693436 -3.168 0
M  V30 7608 H 726.776 -0.964412 -3.80055 0
M  V30 7609 H 728.266 -0.0480679 -4.17572 0
M  V30 7610 N 728.703 1.26451 -0.940633 0
M  V30 7611 C 729.951 1.93395 -0.586748 0
M  V30 7612 C 730.272 1.7417 0.876921 0
M  V30 7613 O 729.542 1.097 1.62304 0
M  V30 7614 H 728.122 0.715687 -0.214012 0
M  V30 7615 H 730.784 1.53902 -1.19584 0
M  V30 7616 H 729.88 3.01565 -0.804059 0
M  V30 7617 N 730.181 0.707592 1.40822 0
M  V30 7618 C 731.458 0.171172 1.9485 0
M  V30 7619 C 731.838 -1.32143 1.64625 0
M  V30 7620 O 731.186 -2.07372 0.959647 0
M  V30 7621 C 731.396 0.475334 3.45748 0
M  V30 7622 C 732.744 0.409625 4.22619 0
M  V30 7623 O 733.768 0.410934 3.53822 0
M  V30 7624 O 732.627 0.380185 5.45176 0
M  V30 7625 H 729.721 0.022015 0.826707 0
M  V30 7626 H 732.267 0.784577 1.50474 0
M  V30 7627 H 731.039 1.50801 3.61075 0
M  V30 7628 H 730.662 -0.168439 3.97243 0
M  V30 7629 N 731.66 -1.50943 0.453197 0
M  V30 7630 C 732.888 -2.06628 -0.106135 0
M  V30 7631 C 733.303 -1.31901 -1.35084 0
M  V30 7632 O 732.66 -0.383074 -1.78434 0
M  V30 7633 C 732.711 -3.5914 -0.412368 0
M  V30 7634 O 732.432 -4.31047 0.782948 0
M  V30 7635 C 733.933 -4.31391 -1.02064 0
M  V30 7636 H 731.153 -0.670999 -0.000885896 0
M  V30 7637 H 733.697 -1.94331 0.63684 0
M  V30 7638 H 731.852 -3.71299 -1.10526 0
M  V30 7639 H 732.266 -5.21948 0.516736 0
M  V30 7640 H 733.74 -5.39135 -1.1848 0
M  V30 7641 H 734.217 -3.90714 -2.00598 0
M  V30 7642 H 734.823 -4.23716 -0.366664 0
M  V30 7643 N 733.138 -0.185124 -1.56509 0
M  V30 7644 C 734.554 0.170865 -1.58683 0
M  V30 7645 C 734.754 1.61799 -1.20098 0
M  V30 7646 O 733.81 2.35181 -0.919038 0
M  V30 7647 C 735.123 -0.122459 -3.00451 0
M  V30 7648 C 736.671 -0.0617699 -3.12939 0
M  V30 7649 C 737.146 -0.328269 -4.56822 0
M  V30 7650 N 738.637 -0.276533 -4.62374 0
M  V30 7651 C 739.372 -0.456722 -5.71578 0
M  V30 7652 N 738.868 -0.69672 -6.89288 0
M  V30 7653 N 740.661 -0.391669 -5.60734 0
M  V30 7654 H 732.812 -1.12956 -1.79874 0
M  V30 7655 H 735.075 -0.45011 -0.834329 0
M  V30 7656 H 734.781 -1.12546 -3.33206 0
M  V30 7657 H 734.655 0.579578 -3.72721 0
M  V30 7658 H 737.042 0.931826 -2.80002 0
M  V30 7659 H 737.123 -0.796732 -2.43076 0
M  V30 7660 H 736.767 -1.31914 -4.9047 0
M  V30 7661 H 736.697 0.427465 -5.24862 0
M  V30 7662 H 739.188 -0.0972458 -3.77775 0
M  V30 7663 H 739.501 -0.823291 -7.68402 0
M  V30 7664 H 737.846 -0.733497 -6.91119 0
M  V30 7665 H 741.037 -0.204663 -4.67652 0
M  V30 7666 H 741.21 -0.535518 -6.45783 0
M  V30 7667 N 734.616 1.57351 0.0885366 0
M  V30 7668 C 735.841 1.91011 0.80805 0
M  V30 7669 C 736.266 0.780009 1.71165 0
M  V30 7670 O 735.624 -0.268083 1.79307 0
M  V30 7671 C 735.672 3.23562 1.59185 0
M  V30 7672 O 734.776 3.11615 2.7013 0
M  V30 7673 H 734.117 0.625943 0.221565 0
M  V30 7674 H 736.647 2.04507 0.0617954 0
M  V30 7675 H 736.657 3.5703 1.97468 0
M  V30 7676 H 735.332 4.05398 0.928741 0
M  V30 7677 H 733.909 2.89673 2.34827 0
M  V30 7678 N 736.094 -0.359525 1.53444 0
M  V30 7679 C 737.342 -1.09935 1.69584 0
M  V30 7680 C 737.663 -1.89656 0.453371 0
M  V30 7681 O 736.933 -1.8852 -0.53263 0
M  V30 7682 H 735.513 -0.408843 0.625185 0
M  V30 7683 H 738.175 -0.40467 1.90653 0
M  V30 7684 H 737.271 -1.78575 2.55964 0
M  V30 7685 N 737.572 -1.44907 -0.619662 0
M  V30 7686 C 738.82 -1.47999 -1.37625 0
M  V30 7687 C 739.141 -0.118295 -1.94641 0
M  V30 7688 O 738.411 0.85086 -1.76457 0
M  V30 7689 H 736.991 -0.544993 -0.510873 0
M  V30 7690 H 739.653 -1.80772 -0.728522 0
M  V30 7691 H 738.749 -2.21196 -2.20179 0
M  V30 7692 N 739.05 0.861098 -1.31996 0
M  V30 7693 C 740.461 1.43065 -1.19955 0
M  V30 7694 C 740.812 1.95273 0.190489 0
M  V30 7695 O 739.937 1.87012 1.08882 0
M  V30 7696 C 740.532 2.60052 -2.1716 0
M  V30 7697 C 739.091 3.13026 -2.09026 0
M  V30 7698 C 738.238 1.85756 -2.05888 0
M  V30 7699 H 741.189 0.668834 -1.43918 0
M  V30 7700 H 741.21 3.37016 -1.76637 0
M  V30 7701 H 740.722 2.22024 -3.18319 0
M  V30 7702 H 738.823 3.55653 -1.11092 0
M  V30 7703 H 738.936 3.74707 -2.98549 0
M  V30 7704 H 737.3 2.05088 -1.51033 0
M  V30 7705 H 738.083 1.49954 -3.08818 0
M  V30 7706 N 740.528 1.15101 1.07655 0
M  V30 7707 C 741.46 0.802722 2.14684 0
M  V30 7708 C 742.473 -0.183874 1.61758 0
M  V30 7709 O 743.662 0.0389349 1.78458 0
M  V30 7710 C 740.762 0.172135 3.38463 0
M  V30 7711 C 739.935 1.19538 4.20749 0
M  V30 7712 C 738.994 0.58714 5.22914 0
M  V30 7713 O 738.02 1.25224 5.55255 0
M  V30 7714 N 739.222 -0.632566 5.77043 0
M  V30 7715 H 741.987 1.72379 2.45164 0
M  V30 7716 H 739.548 1.04647 1.23534 0
M  V30 7717 H 741.54 -0.247465 4.03943 0
M  V30 7718 H 740.11 -0.652214 3.0572 0
M  V30 7719 H 739.33 1.79165 3.51132 0
M  V30 7720 H 740.618 1.88636 4.7254 0
M  V30 7721 H 740.016 -1.19135 5.53013 0
M  V30 7722 H 738.573 -0.994566 6.44167 0
M  V30 7723 N 742.006 -1.2595 0.947325 0
M  V30 7724 C 742.969 -2.24407 0.466285 0
M  V30 7725 C 743.969 -1.55054 -0.426005 0
M  V30 7726 O 745.159 -1.7275 -0.224319 0
M  V30 7727 C 742.291 -3.39326 -0.327201 0
M  V30 7728 H 743.484 -2.68477 1.33642 0
M  V30 7729 H 741.037 -1.38211 0.729887 0
M  V30 7730 H 741.772 -3.00667 -1.21532 0
M  V30 7731 H 741.557 -3.9085 0.312839 0
M  V30 7732 H 743.047 -4.12455 -0.653477 0
M  V30 7733 N 743.484 -0.715051 -1.40445 0
M  V30 7734 C 744.432 -0.0509974 -2.32544 0
M  V30 7735 C 745.426 0.747602 -1.52011 0
M  V30 7736 O 746.632 0.651031 -1.67814 0
M  V30 7737 H 743.007 0.00231113 -0.751996 0
M  V30 7738 H 744.978 -0.84449 -2.86201 0
M  V30 7739 C 743.727 0.857101 -3.3697 0
M  V30 7740 H 743.05 0.252 -3.99005 0
M  V30 7741 H 744.49 1.28971 -4.03909 0
M  V30 7742 C 742.949 1.98231 -2.72408 0
M  V30 7743 O 743.479 3.07309 -2.58697 0
M  V30 7744 N 741.685 1.76577 -2.308 0
M  V30 7745 H 741.232 0.878641 -2.42152 0
M  V30 7746 H 741.19 2.52043 -1.87941 0
M  V30 7747 N 744.962 1.50701 -0.461195 0
M  V30 7748 C 745.892 2.31182 0.328184 0
M  V30 7749 C 746.873 1.37644 0.999408 0
M  V30 7750 O 748.058 1.66565 0.99848 0
M  V30 7751 C 745.188 3.17113 1.41621 0
M  V30 7752 C 744.142 4.19124 0.867148 0
M  V30 7753 C 743.468 4.93728 2.05272 0
M  V30 7754 C 744.768 5.22174 -0.114808 0
M  V30 7755 H 746.462 2.97423 -0.343501 0
M  V30 7756 H 744.008 1.43033 -0.166641 0
M  V30 7757 H 745.961 3.72208 1.97584 0
M  V30 7758 H 744.685 2.48739 2.11652 0
M  V30 7759 H 743.344 3.65116 0.329557 0
M  V30 7760 H 742.992 4.21835 2.73978 0
M  V30 7761 H 742.692 5.62724 1.69161 0
M  V30 7762 H 744.216 5.51654 2.61744 0
M  V30 7763 H 745.63 5.72198 0.355316 0
M  V30 7764 H 744.027 5.98833 -0.389689 0
M  V30 7765 H 745.097 4.7353 -1.04391 0
M  V30 7766 N 746.441 0.193421 1.56409 0
M  V30 7767 C 747.391 -0.74089 2.15627 0
M  V30 7768 C 748.375 -1.17747 1.09656 0
M  V30 7769 O 749.567 -1.13615 1.35723 0
M  V30 7770 C 746.696 -1.96091 2.81786 0
M  V30 7771 C 745.782 -1.54531 3.94944 0
M  V30 7772 N 746.173 -0.840569 4.98767 0
M  V30 7773 C 744.471 -1.83473 4.06514 0
M  V30 7774 C 745.172 -0.632571 5.7825 0
M  V30 7775 N 744.148 -1.18078 5.30621 0
M  V30 7776 H 747.95 -0.193718 2.93261 0
M  V30 7777 H 745.464 -0.00643211 1.62399 0
M  V30 7778 H 747.461 -2.64071 3.22602 0
M  V30 7779 H 746.121 -2.51282 2.05639 0
M  V30 7780 H 747.132 -0.496218 5.15517 0
M  V30 7781 H 743.809 -2.40184 3.41493 0
M  V30 7782 H 745.199 -0.0736433 6.7186 0
M  V30 7783 N 747.919 -1.57396 -0.0801906 0
M  V30 7784 C 749.196 -1.77883 -0.813451 0
M  V30 7785 C 749.576 -0.778879 -1.96206 0
M  V30 7786 O 748.924 0.189683 -2.27711 0
M  V30 7787 C 749.134 -3.24116 -1.2942 0
M  V30 7788 C 750.482 -3.87714 -1.73098 0
M  V30 7789 O 751.506 -3.27956 -1.39007 0
M  V30 7790 O 750.365 -4.92828 -2.36184 0
M  V30 7791 H 747.459 -0.729727 -0.389138 0
M  V30 7792 H 750.005 -1.69591 -0.0609166 0
M  V30 7793 H 748.777 -3.88443 -0.471947 0
M  V30 7794 H 748.4 -3.371 -2.1083 0
M  V30 7795 N 749.397 0.351382 -1.53633 0
M  V30 7796 C 750.36 1.41403 -1.80383 0
M  V30 7797 C 751.36 1.45963 -0.674635 0
M  V30 7798 O 752.55 1.46476 -0.942895 0
M  V30 7799 C 749.682 2.80401 -1.93876 0
M  V30 7800 H 750.875 1.18951 -2.75301 0
M  V30 7801 H 748.428 0.58533 -1.44926 0
M  V30 7802 H 749.163 3.08147 -1.01074 0
M  V30 7803 H 748.948 2.78488 -2.7602 0
M  V30 7804 H 750.438 3.57329 -2.16116 0
M  V30 7805 N 750.875 1.45233 0.611969 0
M  V30 7806 C 752.115 1.50558 1.38245 0
M  V30 7807 C 752.479 0.141959 1.91474 0
M  V30 7808 O 753.68 0.0698926 2.68709 0
M  V30 7809 C 751.951 2.55136 2.50281 0
M  V30 7810 S 753.51 2.79652 3.38142 0
M  V30 7811 H 750.328 0.532281 0.471378 0
M  V30 7812 H 752.93 1.82285 0.706578 0
M  V30 7813 H 751.634 3.52888 2.09518 0
M  V30 7814 H 751.165 2.25045 3.22674 0
M  V30 7815 H 753.18 2.12699 4.48301 0
M  V30 7816 N 752.353 -0.854086 1.3245 0
M  V30 7817 C 753.285 -1.96932 1.17262 0
M  V30 7818 C 754.298 -1.62445 0.107469 0
M  V30 7819 O 755.487 -1.74904 0.356481 0
M  V30 7820 C 752.587 -3.29971 0.772817 0
M  V30 7821 C 751.76 -3.92695 1.92638 0
M  V30 7822 C 750.819 -5.04068 1.51003 0
M  V30 7823 O 749.845 -5.24032 2.22213 0
M  V30 7824 N 751.047 -5.79076 0.406371 0
M  V30 7825 H 753.812 -2.10503 2.13327 0
M  V30 7826 H 751.373 -1.02897 1.24995 0
M  V30 7827 H 753.365 -4.01883 0.476684 0
M  V30 7828 H 751.935 -3.1245 -0.0967 0
M  V30 7829 H 751.155 -3.13563 2.38897 0
M  V30 7830 H 752.443 -4.31337 2.69863 0
M  V30 7831 H 751.841 -5.65393 -0.186302 0
M  V30 7832 H 750.398 -6.51579 0.169846 0
M  V30 7833 N 753.831 -1.1567 -1.07043 0
M  V30 7834 C 755.079 -0.931673 -1.79344 0
M  V30 7835 C 755.4 0.542421 -1.87304 0
M  V30 7836 O 754.67 1.39418 -1.37621 0
M  V30 7837 H 753.25 -0.34171 -0.664262 0
M  V30 7838 H 755.912 -1.45795 -1.29344 0
M  V30 7839 H 755.008 -1.34379 -2.81689 0
M  V30 7840 N 755.309 1.25446 -0.953992 0
M  V30 7841 C 756.586 1.884 -0.525823 0
M  V30 7842 C 756.966 1.86079 0.996891 0
M  V30 7843 O 756.314 1.32389 1.8624 0
M  V30 7844 C 756.524 3.31154 -1.10172 0
M  V30 7845 C 757.872 4.07926 -1.17819 0
M  V30 7846 O 758.896 3.40273 -1.05323 0
M  V30 7847 O 757.755 5.28942 -1.37415 0
M  V30 7848 H 754.849 0.808629 -0.173345 0
M  V30 7849 H 757.395 1.33522 -1.04738 0
M  V30 7850 H 756.167 3.27271 -2.14499 0
M  V30 7851 H 755.79 3.93588 -0.56338 0
M  V30 7852 N 756.787 0.722489 1.40064 0
M  V30 7853 C 758.012 0.273446 2.05589 0
M  V30 7854 C 758.437 -1.07875 1.54093 0
M  V30 7855 O 757.795 -1.68095 0.679252 0
M  V30 7856 C 757.843 0.271023 3.5958 0
M  V30 7857 O 756.947 -0.745499 4.05606 0
M  V30 7858 H 756.288 0.126856 0.65177 0
M  V30 7859 H 758.818 0.984906 1.79334 0
M  V30 7860 H 758.828 0.111084 4.07849 0
M  V30 7861 H 757.503 1.25776 3.96425 0
M  V30 7862 H 756.08 -0.552719 3.68781 0
M  V30 7863 N 758.265 -1.50454 0.469181 0
M  V30 7864 C 759.513 -2.01916 -0.0862982 0
M  V30 7865 C 759.834 -1.35337 -1.40388 0
M  V30 7866 O 759.104 -0.498096 -1.89462 0
M  V30 7867 H 757.684 -0.746185 -0.0348825 0
M  V30 7868 H 760.346 -1.84804 0.619167 0
M  V30 7869 H 759.442 -3.11182 -0.239189 0
M  V30 7870 N 759.743 -0.201713 -1.56304 0
M  V30 7871 C 760.991 0.434447 -1.97375 0
M  V30 7872 C 761.312 1.61692 -1.08998 0
M  V30 7873 O 760.582 1.95223 -0.162682 0
M  V30 7874 H 759.162 0.163497 -0.728888 0
M  V30 7875 H 761.824 -0.289988 -1.92731 0
M  V30 7876 H 760.92 0.774136 -3.02347 0
M  V30 7877 N 761.222 1.57436 0.0718424 0
M  V30 7878 C 762.633 1.75975 0.623678 0
M  V30 7879 C 762.984 0.827155 1.77912 0
M  V30 7880 O 762.109 0.0112425 2.16397 0
M  V30 7881 C 762.704 3.1911 1.13816 0
M  V30 7882 C 761.263 3.38994 1.63586 0
M  V30 7883 C 760.41 2.71684 0.555261 0
M  V30 7884 H 763.361 1.57948 -0.154328 0
M  V30 7885 H 763.382 3.23267 2.00696 0
M  V30 7886 H 762.894 3.86962 0.296998 0
M  V30 7887 H 760.995 2.76256 2.50027 0
M  V30 7888 H 761.108 4.47436 1.71283 0
M  V30 7889 H 759.472 2.34236 1.00029 0
M  V30 7890 H 760.255 3.42191 -0.275712 0
M  V30 7891 N 762.7 -0.34323 1.53817 0
M  V30 7892 C 763.63 -1.42709 1.84814 0
M  V30 7893 C 764.611 -1.5488 0.703297 0
M  V30 7894 O 765.796 -1.69082 0.955237 0
M  V30 7895 C 762.926 -2.79756 2.05801 0
M  V30 7896 C 761.88 -2.82392 3.21619 0
M  V30 7897 C 761.206 -4.22326 3.2794 0
M  V30 7898 C 762.506 -2.479 4.59721 0
M  V30 7899 H 764.2 -1.17018 2.75585 0
M  V30 7900 H 761.746 -0.561485 1.32602 0
M  V30 7901 H 763.699 -3.55627 2.26069 0
M  V30 7902 H 762.423 -3.06883 1.11761 0
M  V30 7903 H 761.082 -2.08974 3.01207 0
M  V30 7904 H 760.73 -4.46564 2.31494 0
M  V30 7905 H 760.43 -4.25001 4.05768 0
M  V30 7906 H 761.954 -5.00039 3.50419 0
M  V30 7907 H 763.368 -3.13484 4.80001 0
M  V30 7908 H 761.765 -2.61857 5.39954 0
M  V30 7909 H 762.835 -1.43087 4.63308 0
M  V30 7910 N 764.178 -1.45556 -0.604258 0
M  V30 7911 C 765.424 -1.49968 -1.36519 0
M  V30 7912 C 765.757 -0.142236 -1.93678 0
M  V30 7913 O 765.032 0.843717 -1.75247 0
M  V30 7914 C 765.315 -2.58146 -2.51063 0
M  V30 7915 C 765.168 -4.03346 -1.99078 0
M  V30 7916 C 766.487 -2.62581 -3.53184 0
M  V30 7917 H 763.606 -0.545993 -0.495036 0
M  V30 7918 H 766.248 -1.77382 -0.680845 0
M  V30 7919 H 764.398 -2.34901 -3.09441 0
M  V30 7920 H 766.07 -4.37811 -1.45323 0
M  V30 7921 H 764.313 -4.13845 -1.30055 0
M  V30 7922 H 764.984 -4.74731 -2.81664 0
M  V30 7923 H 767.46 -2.83419 -3.04652 0
M  V30 7924 H 766.336 -3.40131 -4.30816 0
M  V30 7925 H 766.597 -1.67798 -4.09019 0
M  V30 7926 N 765.656 0.84705 -1.32902 0
M  V30 7927 C 766.896 1.61554 -1.25218 0
M  V30 7928 C 767.26 1.91141 0.18143 0
M  V30 7929 O 768.461 2.6607 0.382106 0
M  V30 7930 C 766.732 2.89553 -2.09509 0
M  V30 7931 S 768.291 3.80283 -2.18931 0
M  V30 7932 H 765.109 0.554031 -0.445613 0
M  V30 7933 H 767.711 1.00251 -1.67839 0
M  V30 7934 H 766.415 2.65776 -3.12716 0
M  V30 7935 H 765.946 3.55868 -1.67694 0
M  V30 7936 H 767.961 4.77641 -1.34438 0
M  V30 7937 N 767.134 1.16236 1.06428 0
M  V30 7938 C 768.064 0.890807 2.1584 0
M  V30 7939 C 769.045 -0.162333 1.69324 0
M  V30 7940 O 770.23 -0.0147191 1.94194 0
M  V30 7941 C 767.36 0.389615 3.45108 0
M  V30 7942 C 766.314 1.38051 4.05125 0
M  V30 7943 C 765.64 0.737773 5.29586 0
M  V30 7944 C 766.94 2.74965 4.44062 0
M  V30 7945 H 768.634 1.80577 2.38814 0
M  V30 7946 H 766.18 0.869657 1.14774 0
M  V30 7947 H 768.133 0.187127 4.20984 0
M  V30 7948 H 766.857 -0.560851 3.21748 0
M  V30 7949 H 765.516 1.56952 3.31303 0
M  V30 7950 H 765.164 -0.219135 5.02522 0
M  V30 7951 H 764.864 1.39914 5.70699 0
M  V30 7952 H 766.388 0.545275 6.0816 0
M  V30 7953 H 767.802 2.59855 5.11027 0
M  V30 7954 H 766.199 3.37563 4.96156 0
M  V30 7955 H 767.269 3.30321 3.54987 0
M  V30 7956 N 768.612 -1.24939 0.960631 0
M  V30 7957 C 769.56 -2.27659 0.47686 0
M  V30 7958 C 770.554 -1.63148 -0.455961 0
M  V30 7959 O 771.76 -1.76911 -0.332029 0
M  V30 7960 H 768.135 -0.739651 0.135723 0
M  V30 7961 H 770.106 -2.65844 1.35534 0
M  V30 7962 C 768.855 -3.46976 -0.224191 0
M  V30 7963 H 768.178 -3.96854 0.484471 0
M  V30 7964 H 769.618 -4.20717 -0.526615 0
M  V30 7965 C 768.077 -3.04159 -1.44876 0
M  V30 7966 O 768.607 -3.10697 -2.54618 0
M  V30 7967 N 766.813 -2.59284 -1.31226 0
M  V30 7968 H 766.36 -2.54164 -0.419361 0
M  V30 7969 H 766.318 -2.31 -2.13275 0
M  V30 7970 N 770.09 -0.729906 -1.39679 0
M  V30 7971 C 771.367 -0.202149 -1.94553 0
M  V30 7972 C 771.747 1.29507 -1.66707 0
M  V30 7973 O 771.095 2.05819 -0.992517 0
M  V30 7974 C 771.305 -0.530279 -3.44948 0
M  V30 7975 C 772.653 -0.476808 -4.21914 0
M  V30 7976 O 773.677 -0.467171 -3.53123 0
M  V30 7977 O 772.536 -0.466869 -5.44502 0
M  V30 7978 H 769.63 -0.0351644 -0.826252 0
M  V30 7979 H 772.176 -0.808417 -1.49207 0
M  V30 7980 H 770.948 -1.56526 -3.5863 0
M  V30 7981 H 770.571 0.10522 -3.97461 0
M  V30 7982 N 771.568 1.50203 -0.477153 0
M  V30 7983 C 772.816 2.01959 0.0755889 0
M  V30 7984 C 773.137 1.3608 1.39668 0
M  V30 7985 O 772.407 0.508136 1.89195 0
M  V30 7986 H 770.987 0.74636 0.0309248 0
M  V30 7987 H 773.649 1.84473 -0.628959 0
M  V30 7988 H 772.745 3.11305 0.222683 0
M  V30 7989 N 773.046 0.209999 1.56195 0
M  V30 7990 C 774.462 -0.145598 1.58934 0
M  V30 7991 C 774.662 -1.59868 1.22656 0
M  V30 7992 O 773.718 -2.33689 0.956336 0
M  V30 7993 C 775.031 0.170243 3.00218 0
M  V30 7994 C 776.579 0.111548 3.12801 0
M  V30 7995 C 777.054 0.400904 4.56242 0
M  V30 7996 N 778.545 0.350058 4.61875 0
M  V30 7997 C 779.28 0.547598 5.70779 0
M  V30 7998 N 778.776 0.806291 6.88092 0
M  V30 7999 N 780.569 0.480827 5.6004 0
M  V30 8000 H 772.72 1.15804 1.78054 0
M  V30 8001 H 774.983 0.463326 0.827063 0
M  V30 8002 H 774.689 1.17833 3.31373 0
M  V30 8003 H 774.563 -0.520208 3.73596 0
M  V30 8004 H 776.95 -0.887162 2.81449 0
M  V30 8005 H 777.031 0.835302 2.41777 0
M  V30 8006 H 776.675 1.397 4.8831 0
M  V30 8007 H 776.605 -0.34391 5.25476 0
M  V30 8008 H 779.096 0.157334 3.77572 0
M  V30 8009 H 779.409 0.945433 7.66995 0
M  V30 8010 H 777.754 0.843355 6.89864 0
M  V30 8011 H 780.945 0.279037 4.67268 0
M  V30 8012 H 781.118 0.638189 6.4485 0
M  V30 8013 N 774.524 -1.57472 -0.0634922 0
M  V30 8014 C 775.457 -1.99571 -1.10664 0
M  V30 8015 C 776.435 -0.874015 -1.37112 0
M  V30 8016 O 777.619 -1.13702 -1.50347 0
M  V30 8017 C 774.746 -2.3395 -2.44918 0
M  V30 8018 C 773.792 -3.56213 -2.34551 0
M  V30 8019 S 774.625 -5.06727 -1.73169 0
M  V30 8020 C 775.781 -5.44316 -3.08984 0
M  V30 8021 H 776.014 -2.87739 -0.747905 0
M  V30 8022 H 773.547 -1.5198 -0.272316 0
M  V30 8023 H 775.505 -2.54431 -3.22141 0
M  V30 8024 H 774.166 -1.46297 -2.7795 0
M  V30 8025 H 773.359 -3.77812 -3.33578 0
M  V30 8026 H 772.961 -3.35406 -1.65466 0
M  V30 8027 H 775.253 -5.42894 -4.05305 0
M  V30 8028 H 776.196 -6.4502 -2.92156 0
M  V30 8029 H 776.604 -4.71781 -3.09972 0
M  V30 8030 N 776.003 0.335068 -1.53997 0
M  V30 8031 C 777.231 1.09418 -1.756 0
M  V30 8032 C 777.646 1.82083 -0.499138 0
M  V30 8033 O 777.003 1.74646 0.529631 0
M  V30 8034 C 777.054 2.10115 -2.94166 0
M  V30 8035 O 776.775 1.40404 -4.14992 0
M  V30 8036 C 778.276 2.98336 -3.27888 0
M  V30 8037 H 775.496 0.32595 -0.586513 0
M  V30 8038 H 778.04 0.384693 -2.00849 0
M  V30 8039 H 776.195 2.76616 -2.71224 0
M  V30 8040 H 776.609 2.07743 -4.81605 0
M  V30 8041 H 778.083 3.6491 -4.1418 0
M  V30 8042 H 778.56 3.64814 -2.44556 0
M  V30 8043 H 779.166 2.37412 -3.52868 0
M  V30 8044 N 777.481 1.45874 0.596531 0
M  V30 8045 C 778.411 1.5824 1.71705 0
M  V30 8046 C 779.392 0.433366 1.64487 0
M  V30 8047 O 780.577 0.657895 1.82717 0
M  V30 8048 C 777.707 1.55927 3.10329 0
M  V30 8049 C 776.661 2.69659 3.32367 0
M  V30 8050 C 775.987 2.52403 4.71377 0
M  V30 8051 C 777.287 4.11591 3.21544 0
M  V30 8052 H 778.981 2.52035 1.61613 0
M  V30 8053 H 776.527 1.21297 0.776082 0
M  V30 8054 H 778.48 1.63173 3.88526 0
M  V30 8055 H 777.204 0.586674 3.21288 0
M  V30 8056 H 775.863 2.61859 2.56564 0
M  V30 8057 H 775.511 1.53258 4.79083 0
M  V30 8058 H 775.211 3.28679 4.87077 0
M  V30 8059 H 776.735 2.6152 5.5176 0
M  V30 8060 H 778.149 4.20576 3.89601 0
M  V30 8061 H 776.546 4.88344 3.4877 0
M  V30 8062 H 777.616 4.32719 2.1882 0
M  V30 8063 N 778.959 -0.83999 1.33349 0
M  V30 8064 C 780.205 -1.59753 1.24927 0
M  V30 8065 C 780.538 -1.93318 -0.184855 0
M  V30 8066 O 779.813 -1.586 -1.12589 0
M  V30 8067 C 780.096 -2.90829 2.12345 0
M  V30 8068 C 779.949 -2.63953 3.6421 0
M  V30 8069 C 781.268 -3.92246 1.99577 0
M  V30 8070 H 778.387 -0.579654 0.45516 0
M  V30 8071 H 781.029 -0.968909 1.63439 0
M  V30 8072 H 779.179 -3.44478 1.79631 0
M  V30 8073 H 780.851 -2.16745 4.07209 0
M  V30 8074 H 779.094 -1.97671 3.86146 0
M  V30 8075 H 779.765 -3.57348 4.20721 0
M  V30 8076 H 782.241 -3.479 2.28265 0
M  V30 8077 H 781.117 -4.81793 2.62996 0
M  V30 8078 H 781.378 -4.3138 0.967673 0
M  V30 8079 N 780.437 -1.16799 -1.0581 0
M  V30 8080 C 781.685 -0.950642 -1.78346 0
M  V30 8081 C 782.006 0.522524 -1.87869 0
M  V30 8082 O 781.276 1.3795 -1.39092 0
M  V30 8083 H 779.856 -0.348736 -0.6606 0
M  V30 8084 H 782.518 -1.47158 -1.27791 0
M  V30 8085 H 781.614 -1.37359 -2.80248 0
M  V30 8086 N 781.915 1.24427 -0.967243 0
M  V30 8087 C 783.164 1.91789 -0.624478 0
M  V30 8088 C 783.477 1.76448 0.844129 0
M  V30 8089 O 784.683 2.38495 1.2974 0
M  V30 8090 C 783.139 3.43743 -1.06626 0
M  V30 8091 C 782.747 3.67771 -2.55829 0
M  V30 8092 C 784.491 4.16958 -0.79662 0
M  V30 8093 C 782.398 5.13293 -2.93742 0
M  V30 8094 H 781.328 0.71811 -0.229856 0
M  V30 8095 H 783.979 1.41081 -1.17339 0
M  V30 8096 H 782.361 3.93484 -0.445663 0
M  V30 8097 H 783.535 3.28631 -3.23015 0
M  V30 8098 H 781.85 3.07841 -2.80398 0
M  V30 8099 H 784.447 5.24171 -1.05589 0
M  V30 8100 H 784.79 4.15442 0.267163 0
M  V30 8101 H 785.323 3.73164 -1.37816 0
M  V30 8102 H 782.062 5.19931 -3.9919 0
M  V30 8103 H 781.582 5.53433 -2.3124 0
M  V30 8104 H 783.261 5.81521 -2.83623 0
M  V30 8105 N 783.393 0.737304 1.3929 0
M  V30 8106 C 784.642 0.283129 1.99703 0
M  V30 8107 C 784.955 -1.13677 1.59176 0
M  V30 8108 O 786.161 -1.69058 2.12442 0
M  V30 8109 C 784.617 0.455262 3.57009 0
M  V30 8110 C 784.225 1.88319 4.06497 0
M  V30 8111 C 785.969 0.0629786 4.24453 0
M  V30 8112 C 783.876 2.00475 5.56385 0
M  V30 8113 H 782.806 0.102106 0.747054 0
M  V30 8114 H 785.457 0.911515 1.5926 0
M  V30 8115 H 783.839 -0.242057 3.9526 0
M  V30 8116 H 785.013 2.61265 3.79575 0
M  V30 8117 H 783.328 2.2289 3.51723 0
M  V30 8118 H 785.925 0.132787 5.34535 0
M  V30 8119 H 786.268 -0.982128 4.04549 0
M  V30 8120 H 786.801 0.71154 3.91385 0
M  V30 8121 H 783.54 3.03182 5.81172 0
M  V30 8122 H 783.06 1.31969 5.85102 0
M  V30 8123 H 784.739 1.787 6.21832 0
M  V30 8124 N 784.871 -1.49948 0.485112 0
M  V30 8125 C 786.096 -2.073 -0.0645059 0
M  V30 8126 C 786.521 -1.345 -1.31497 0
M  V30 8127 O 785.879 -0.39687 -1.76903 0
M  V30 8128 C 785.927 -3.59201 -0.317304 0
M  V30 8129 O 785.031 -3.88085 -1.39514 0
M  V30 8130 H 784.372 -0.663723 0.0191822 0
M  V30 8131 H 786.902 -1.92963 0.680179 0
M  V30 8132 H 786.912 -4.04227 -0.553604 0
M  V30 8133 H 785.587 -4.11602 0.596387 0
M  V30 8134 H 784.164 -3.54885 -1.14504 0
M  V30 8135 N 786.349 -0.21828 -1.56081 0
M  V30 8136 C 787.595 0.408181 -1.99262 0
M  V30 8137 C 787.95 1.57618 -1.10337 0
M  V30 8138 O 787.243 1.90991 -0.15263 0
M  V30 8139 C 787.437 0.894782 -3.46018 0
M  V30 8140 C 787.266 -0.224528 -4.49139 0
M  V30 8141 C 786.036 -0.689843 -5.00569 0
M  V30 8142 C 788.234 -1.04165 -5.03641 0
M  V30 8143 N 786.216 -1.78455 -5.8739 0
M  V30 8144 C 787.587 -1.98529 -5.87355 0
M  V30 8145 C 789.642 -1.08146 -4.86013 0
M  V30 8146 C 788.345 -2.96549 -6.55325 0
M  V30 8147 C 790.371 -2.04982 -5.5474 0
M  V30 8148 C 789.733 -2.98086 -6.38219 0
M  V30 8149 H 785.832 0.116127 -0.77333 0
M  V30 8150 H 788.416 -0.3293 -1.91895 0
M  V30 8151 H 786.587 1.60163 -3.53839 0
M  V30 8152 H 788.319 1.49379 -3.76122 0
M  V30 8153 H 785.074 -0.279021 -4.72777 0
M  V30 8154 H 785.498 -2.33381 -6.35502 0
M  V30 8155 H 790.14 -0.375581 -4.21129 0
M  V30 8156 H 787.858 -3.68101 -7.19394 0
M  V30 8157 H 791.444 -2.08732 -5.43067 0
M  V30 8158 H 790.324 -3.71794 -6.90463 0
M  V30 8159 N 787.827 1.57504 0.0551401 0
M  V30 8160 C 789.075 1.87684 0.74962 0
M  V30 8161 C 789.396 0.812547 1.77264 0
M  V30 8162 O 788.666 -0.15694 1.9527 0
M  V30 8163 H 787.246 0.6926 0.279846 0
M  V30 8164 H 789.908 1.94881 0.0272745 0
M  V30 8165 H 789.004 2.85734 1.25548 0
M  V30 8166 N 789.305 -0.326896 1.54172 0
M  V30 8167 C 790.235 -1.40741 1.86317 0
M  V30 8168 C 791.216 -1.54125 0.719684 0
M  V30 8169 O 792.401 -1.6806 0.973117 0
M  V30 8170 C 789.531 -2.77557 2.08757 0
M  V30 8171 C 788.485 -2.78965 3.24596 0
M  V30 8172 C 787.811 -4.18824 3.32401 0
M  V30 8173 C 789.111 -2.4301 4.62324 0
M  V30 8174 H 790.805 -1.14088 2.76811 0
M  V30 8175 H 788.351 -0.547389 1.3319 0
M  V30 8176 H 790.304 -3.53209 2.29829 0
M  V30 8177 H 789.028 -3.0568 1.15009 0
M  V30 8178 H 787.687 -2.05767 3.03406 0
M  V30 8179 H 787.335 -4.44083 2.36218 0
M  V30 8180 H 787.035 -4.20673 4.10253 0
M  V30 8181 H 788.559 -4.96294 3.55703 0
M  V30 8182 H 789.973 -3.08375 4.83299 0
M  V30 8183 H 788.37 -2.56116 5.42701 0
M  V30 8184 H 789.44 -1.38165 4.64799 0
M  V30 8185 N 790.784 -1.46188 -0.588786 0
M  V30 8186 C 792.032 -1.50885 -1.34455 0
M  V30 8187 C 792.353 -0.159555 -1.94346 0
M  V30 8188 O 791.623 0.813239 -1.78222 0
M  V30 8189 H 790.203 -0.555707 -0.499198 0
M  V30 8190 H 792.865 -1.82277 -0.690014 0
M  V30 8191 H 791.961 -2.25816 -2.15438 0
M  V30 8192 N 792.262 0.832906 -1.33792 0
M  V30 8193 C 793.502 1.60217 -1.26925 0
M  V30 8194 C 793.866 1.91323 0.161146 0
M  V30 8195 O 795.067 2.66461 0.353864 0
M  V30 8196 C 793.338 2.87314 -2.12568 0
M  V30 8197 S 794.897 3.77939 -2.22952 0
M  V30 8198 H 791.715 0.549273 -0.451464 0
M  V30 8199 H 794.317 0.984648 -1.68893 0
M  V30 8200 H 793.021 2.62444 -3.15518 0
M  V30 8201 H 792.552 3.5407 -1.71459 0
M  V30 8202 H 794.567 4.76188 -1.39496 0
M  V30 8203 N 793.74 1.17359 1.05189 0
M  V30 8204 C 794.988 0.960087 1.77839 0
M  V30 8205 C 795.309 -0.512554 1.88143 0
M  V30 8206 O 794.579 -1.3721 1.39822 0
M  V30 8207 H 793.159 0.352234 0.658741 0
M  V30 8208 H 795.821 1.47834 1.27008 0
M  V30 8209 H 794.917 1.38843 2.79516 0
M  V30 8210 N 795.218 -1.23913 0.973828 0
M  V30 8211 C 796.15 -2.24397 0.466763 0
M  V30 8212 C 797.163 -1.57078 -0.427828 0
M  V30 8213 O 798.352 -1.76973 -0.233019 0
M  V30 8214 C 795.452 -3.37141 -0.344798 0
M  V30 8215 C 794.625 -4.34037 0.541349 0
M  V30 8216 C 793.684 -5.2576 -0.215243 0
M  V30 8217 O 792.71 -5.67842 0.39291 0
M  V30 8218 N 793.912 -5.60702 -1.5031 0
M  V30 8219 H 796.677 -2.68536 1.33074 0
M  V30 8220 H 794.238 -1.38017 0.846346 0
M  V30 8221 H 796.23 -3.95476 -0.859133 0
M  V30 8222 H 794.8 -2.92239 -1.10974 0
M  V30 8223 H 794.02 -3.74302 1.23659 0
M  V30 8224 H 795.308 -4.95738 1.1455 0
M  V30 8225 H 794.706 -5.28451 -2.01882 0
M  V30 8226 H 793.263 -6.21538 -1.96301 0
M  V30 8227 N 796.696 -0.74468 -1.38897 0
M  V30 8228 C 797.643 -0.111064 -2.30533 0
M  V30 8229 C 798.613 0.719276 -1.49719 0
M  V30 8230 O 799.798 0.677244 -1.78376 0
M  V30 8231 C 796.938 0.78292 -3.36102 0
M  V30 8232 C 796.051 -0.0610817 -4.31957 0
M  V30 8233 C 795.186 0.835075 -5.24595 0
M  V30 8234 C 794.225 -0.0130974 -6.12099 0
M  V30 8235 N 793.362 0.839525 -6.97063 0
M  V30 8236 H 798.202 -0.898113 -2.84144 0
M  V30 8237 H 795.739 -0.454537 -1.39901 0
M  V30 8238 H 797.697 1.31578 -3.95908 0
M  V30 8239 H 796.327 1.53585 -2.83922 0
M  V30 8240 H 795.379 -0.711469 -3.73687 0
M  V30 8241 H 796.691 -0.716482 -4.93627 0
M  V30 8242 H 795.845 1.43542 -5.89475 0
M  V30 8243 H 794.584 1.52423 -4.63269 0
M  V30 8244 H 793.589 -0.626179 -5.46223 0
M  V30 8245 H 794.814 -0.699181 -6.75491 0
M  V30 8246 H 792.76 1.5138 -6.38295 0
M  V30 8247 H 792.677 0.240823 -7.55616 0
M  V30 8248 H 793.945 1.42513 -7.66362 0
M  V30 8249 N 798.174 1.49689 -0.493057 0
M  V30 8250 C 799.451 1.9525 0.116907 0
M  V30 8251 C 799.831 1.43429 1.54892 0
M  V30 8252 O 799.179 0.644621 2.19219 0
M  V30 8253 C 799.389 3.4898 0.037705 0
M  V30 8254 C 800.737 4.24052 0.215621 0
M  V30 8255 O 801.761 3.5602 0.113266 0
M  V30 8256 O 800.62 5.44847 0.42477 0
M  V30 8257 H 797.714 0.820973 0.099662 0
M  V30 8258 H 800.26 1.60367 -0.555029 0
M  V30 8259 H 799.032 3.79309 -0.961251 0
M  V30 8260 H 798.655 3.9046 0.750137 0
M  V30 8261 N 799.652 0.226554 1.55963 0
M  V30 8262 C 800.898 -0.404387 1.98727 0
M  V30 8263 C 801.231 -1.59059 1.11418 0
M  V30 8264 O 800.506 -1.93729 0.172971 0
M  V30 8265 C 800.789 -0.834081 3.50307 0
M  V30 8266 C 800.642 0.356104 4.48388 0
M  V30 8267 C 801.961 -1.68845 4.06423 0
M  V30 8268 H 799.08 -0.145515 0.722492 0
M  V30 8269 H 801.722 0.323791 1.87221 0
M  V30 8270 H 799.872 -1.45454 3.60244 0
M  V30 8271 H 801.544 0.99432 4.50456 0
M  V30 8272 H 799.787 1.0027 4.22053 0
M  V30 8273 H 800.458 0.0124333 5.51999 0
M  V30 8274 H 802.934 -1.16489 3.99461 0
M  V30 8275 H 801.81 -1.958 5.1279 0
M  V30 8276 H 802.071 -2.65347 3.53615 0
M  V30 8277 N 801.13 -1.57531 -0.0467866 0
M  V30 8278 C 802.541 -1.76945 -0.595603 0
M  V30 8279 C 802.892 -0.855354 -1.76573 0
M  V30 8280 O 802.017 -0.045668 -2.16352 0
M  V30 8281 C 802.612 -3.20881 -1.08725 0
M  V30 8282 C 801.171 -3.41553 -1.58172 0
M  V30 8283 C 800.318 -2.72533 -0.511968 0
M  V30 8284 H 803.269 -1.57682 0.179436 0
M  V30 8285 H 803.29 -3.26419 -1.95528 0
M  V30 8286 H 802.802 -3.87385 -0.235398 0
M  V30 8287 H 800.903 -2.80199 -2.456 0
M  V30 8288 H 801.016 -4.50104 -1.64143 0
M  V30 8289 H 799.38 -2.35797 -0.962899 0
M  V30 8290 H 800.163 -3.41709 0.330117 0
M  V30 8291 N 802.608 0.318715 -1.54344 0
M  V30 8292 C 803.856 1.054 -1.72439 0
M  V30 8293 C 804.177 1.88388 -0.503495 0
M  V30 8294 O 803.447 1.89866 0.48246 0
M  V30 8295 H 802.027 0.392124 -0.635805 0
M  V30 8296 H 804.689 0.35398 -1.91659 0
M  V30 8297 H 803.785 1.71726 -2.60608 0
M  V30 8298 N 804.086 1.46499 0.581025 0
M  V30 8299 C 805.332 1.52121 1.34116 0
M  V30 8300 C 805.665 0.173031 1.93428 0
M  V30 8301 O 804.94 -0.815729 1.76568 0
M  V30 8302 C 805.223 2.62108 2.46924 0
M  V30 8303 C 805.076 4.06462 1.92636 0
M  V30 8304 C 806.395 2.68167 3.48962 0
M  V30 8305 H 803.514 0.5538 0.486287 0
M  V30 8306 H 806.156 1.78443 0.652538 0
M  V30 8307 H 804.306 2.39794 3.05665 0
M  V30 8308 H 805.978 4.40068 1.3834 0
M  V30 8309 H 804.221 4.15862 1.23455 0
M  V30 8310 H 804.892 4.79152 2.74076 0
M  V30 8311 H 807.368 2.8823 3.00104 0
M  V30 8312 H 806.244 3.46942 4.2535 0
M  V30 8313 H 806.505 1.74284 4.06297 0
M  V30 8314 N 805.565 -0.825799 1.34232 0
M  V30 8315 C 806.795 -1.61129 1.29309 0
M  V30 8316 C 807.203 -1.88714 -0.135589 0
M  V30 8317 O 806.546 -1.47703 -1.09222 0
M  V30 8318 C 806.608 -2.97866 2.01287 0
M  V30 8319 C 806.272 -2.9319 3.50555 0
M  V30 8320 C 807.269 -2.67978 4.45515 0
M  V30 8321 C 804.954 -3.12913 3.92926 0
M  V30 8322 C 806.948 -2.62536 5.80822 0
M  V30 8323 C 804.635 -3.07096 5.28333 0
M  V30 8324 C 805.633 -2.8194 6.22092 0
M  V30 8325 O 805.321 -2.7605 7.55018 0
M  V30 8326 H 805.053 -0.507652 0.446391 0
M  V30 8327 H 807.607 -1.03575 1.77374 0
M  V30 8328 H 805.837 -3.57327 1.47832 0
M  V30 8329 H 807.526 -3.58848 1.89691 0
M  V30 8330 H 808.292 -2.52478 4.14101 0
M  V30 8331 H 804.171 -3.3151 3.20347 0
M  V30 8332 H 807.715 -2.42821 6.53975 0
M  V30 8333 H 803.612 -3.22148 5.59367 0
M  V30 8334 H 804.38 -2.91798 7.6472 0
M  V30 8335 N 807.043 -1.17915 -1.04565 0
M  V30 8336 C 808.271 -0.99616 -1.8134 0
M  V30 8337 C 808.686 0.455509 -1.83223 0
M  V30 8338 O 808.043 1.31636 -1.26405 0
M  V30 8339 C 808.094 -1.53758 -3.27171 0
M  V30 8340 O 807.815 -2.93241 -3.25486 0
M  V30 8341 C 809.316 -1.40007 -4.2061 0
M  V30 8342 H 806.536 -0.352055 -0.571225 0
M  V30 8343 H 809.08 -1.56349 -1.31815 0
M  V30 8344 H 807.235 -1.01213 -3.73945 0
M  V30 8345 H 807.649 -3.18392 -4.16805 0
M  V30 8346 H 809.123 -1.82695 -5.2089 0
M  V30 8347 H 809.6 -0.348054 -4.37819 0
M  V30 8348 H 810.206 -1.916 -3.79697 0
M  V30 8349 N 808.521 1.23394 -0.980386 0
M  V30 8350 C 809.468 2.24859 -0.520298 0
M  V30 8351 C 810.438 1.60144 0.440821 0
M  V30 8352 O 811.623 1.87593 0.348369 0
M  V30 8353 C 808.763 3.44675 0.171145 0
M  V30 8354 C 807.876 4.23947 -0.830233 0
M  V30 8355 C 807.011 5.31079 -0.113597 0
M  V30 8356 C 806.05 6.02058 -1.10419 0
M  V30 8357 N 805.187 7.00862 -0.416709 0
M  V30 8358 H 810.027 2.63579 -1.39032 0
M  V30 8359 H 807.564 1.29556 -0.696682 0
M  V30 8360 H 809.522 4.13024 0.588838 0
M  V30 8361 H 808.152 3.06755 1.00504 0
M  V30 8362 H 807.204 3.55016 -1.36631 0
M  V30 8363 H 808.516 4.72945 -1.58508 0
M  V30 8364 H 807.67 6.05622 0.36146 0
M  V30 8365 H 806.409 4.83022 0.673854 0
M  V30 8366 H 805.414 5.26307 -1.59 0
M  V30 8367 H 806.639 6.52203 -1.8923 0
M  V30 8368 H 804.585 6.55057 0.351535 0
M  V30 8369 H 804.502 7.47804 -1.11021 0
M  V30 8370 H 805.77 7.79492 0.0359606 0
M  V30 8371 N 809.999 0.752036 1.385 0
M  V30 8372 C 811.245 0.307958 2.00448 0
M  V30 8373 C 811.578 -1.10702 1.59558 0
M  V30 8374 O 810.853 -1.75788 0.832391 0
M  V30 8375 C 811.136 0.429092 3.57534 0
M  V30 8376 C 810.989 1.88507 4.08393 0
M  V30 8377 C 812.308 -0.178442 4.39738 0
M  V30 8378 H 809.427 0.113373 0.728228 0
M  V30 8379 H 812.069 0.951389 1.64465 0
M  V30 8380 H 810.219 -0.118695 3.88319 0
M  V30 8381 H 811.891 2.49104 3.88259 0
M  V30 8382 H 810.134 2.40066 3.61318 0
M  V30 8383 H 810.805 1.92099 5.17496 0
M  V30 8384 H 813.281 0.28872 4.15097 0
M  V30 8385 H 812.157 -0.0634349 5.48863 0
M  V30 8386 H 812.418 -1.26655 4.23569 0
M  V30 8387 N 811.477 -1.49425 0.500989 0
M  V30 8388 C 812.705 -2.06861 -0.0403443 0
M  V30 8389 C 813.12 -1.36132 -1.30819 0
M  V30 8390 O 812.477 -0.439647 -1.77125 0
M  V30 8391 C 812.528 -3.6027 -0.297902 0
M  V30 8392 O 812.249 -4.28338 0.919686 0
M  V30 8393 C 813.75 -4.34419 -0.882876 0
M  V30 8394 H 810.97 -0.670688 0.0204619 0
M  V30 8395 H 813.514 -1.92207 0.698342 0
M  V30 8396 H 811.669 -3.74627 -0.98657 0
M  V30 8397 H 812.083 -5.2004 0.682528 0
M  V30 8398 H 813.557 -5.42631 -1.01268 0
M  V30 8399 H 814.034 -3.96898 -1.88066 0
M  V30 8400 H 814.64 -4.24669 -0.231677 0
M  V30 8401 N 812.955 -0.234822 -1.55841 0
M  V30 8402 C 813.903 0.686145 -2.22249 0
M  V30 8403 C 814.897 1.18948 -1.20614 0
M  V30 8404 O 816.103 1.14777 -1.38659 0
M  V30 8405 H 812.478 0.239724 -0.712767 0
M  V30 8406 H 814.449 0.102762 -2.98223 0
M  V30 8407 C 813.198 1.8776 -2.92646 0
M  V30 8408 H 812.521 1.49943 -3.70617 0
M  V30 8409 H 813.961 2.4995 -3.42493 0
M  V30 8410 C 812.42 2.74127 -1.95847 0
M  V30 8411 O 812.95 3.7329 -1.48384 0
M  V30 8412 N 811.156 2.4044 -1.63209 0
M  V30 8413 H 810.703 1.59854 -2.02001 0
M  V30 8414 H 810.661 2.98504 -0.987063 0
M  V30 8415 N 814.433 1.57553 0.0384317 0
M  V30 8416 C 815.663 1.92813 0.742064 0
M  V30 8417 C 816.071 0.832157 1.69917 0
M  V30 8418 O 815.414 -0.200917 1.82598 0
M  V30 8419 C 815.476 3.23806 1.56172 0
M  V30 8420 C 815.14 4.50459 0.770407 0
M  V30 8421 C 816.137 5.19846 0.0748006 0
M  V30 8422 C 813.822 4.97001 0.727714 0
M  V30 8423 C 815.816 6.34047 -0.652902 0
M  V30 8424 C 813.503 6.111 -0.00373992 0
M  V30 8425 C 814.501 6.79477 -0.692816 0
M  V30 8426 O 814.189 7.91395 -1.41241 0
M  V30 8427 H 813.921 0.641174 0.214179 0
M  V30 8428 H 816.475 2.054 0.00285095 0
M  V30 8429 H 814.705 3.0752 2.34453 0
M  V30 8430 H 816.394 3.44463 2.14709 0
M  V30 8431 H 817.16 4.84899 0.098875 0
M  V30 8432 H 813.039 4.43629 1.25355 0
M  V30 8433 H 816.583 6.87353 -1.1913 0
M  V30 8434 H 812.48 6.45493 -0.0297703 0
M  V30 8435 H 813.248 8.07702 -1.32512 0
M  V30 8436 N 815.911 -0.310526 1.54511 0
M  V30 8437 C 816.841 -1.38757 1.878 0
M  V30 8438 C 817.822 -1.53353 0.735991 0
M  V30 8439 O 819.007 -1.67018 0.990887 0
M  V30 8440 C 816.137 -2.75327 2.11689 0
M  V30 8441 C 815.091 -2.75506 3.27537 0
M  V30 8442 C 814.417 -4.15275 3.36824 0
M  V30 8443 C 815.717 -2.38093 4.64875 0
M  V30 8444 H 817.411 -1.11146 2.78005 0
M  V30 8445 H 814.957 -0.533232 1.33763 0
M  V30 8446 H 816.91 -3.50752 2.33562 0
M  V30 8447 H 815.634 -3.04443 1.18245 0
M  V30 8448 H 814.293 -2.02538 3.05572 0
M  V30 8449 H 813.941 -4.41553 2.40915 0
M  V30 8450 H 813.641 -4.16299 4.14692 0
M  V30 8451 H 815.165 -4.92493 3.60947 0
M  V30 8452 H 816.579 -3.03232 4.86542 0
M  V30 8453 H 814.976 -2.50345 5.45387 0
M  V30 8454 H 816.046 -1.33227 4.66239 0
M  V30 8455 N 817.389 -1.46805 -0.573248 0
M  V30 8456 C 818.666 -1.43082 -1.33368 0
M  V30 8457 C 819.046 -0.119252 -2.10763 0
M  V30 8458 O 818.394 0.899239 -2.10062 0
M  V30 8459 C 818.604 -2.66643 -2.25172 0
M  V30 8460 C 819.952 -3.13188 -2.86702 0
M  V30 8461 O 820.976 -2.67258 -2.35482 0
M  V30 8462 O 819.835 -3.92994 -3.79761 0
M  V30 8463 H 816.929 -0.569451 -0.599712 0
M  V30 8464 H 819.475 -1.58984 -0.59348 0
M  V30 8465 H 818.247 -3.53649 -1.67475 0
M  V30 8466 H 817.87 -2.53247 -3.06516 0
M  V30 8467 N 818.867 0.818669 -1.34668 0
M  V30 8468 C 820.113 1.577 -1.28461 0
M  V30 8469 C 820.468 1.91867 0.143057 0
M  V30 8470 O 819.761 1.57545 1.09041 0
M  V30 8471 C 819.955 2.88245 -2.11304 0
M  V30 8472 C 819.784 2.66831 -3.61982 0
M  V30 8473 C 818.554 2.63346 -4.3125 0
M  V30 8474 C 820.752 2.38049 -4.55892 0
M  V30 8475 N 818.734 2.33522 -5.67751 0
M  V30 8476 C 820.105 2.17957 -5.80426 0
M  V30 8477 C 822.16 2.23812 -4.44761 0
M  V30 8478 C 820.863 1.8507 -6.95084 0
M  V30 8479 C 822.889 1.92321 -5.59255 0
M  V30 8480 C 822.251 1.73056 -6.82811 0
M  V30 8481 H 818.35 0.579284 -0.525314 0
M  V30 8482 H 820.934 0.959336 -1.69425 0
M  V30 8483 H 819.105 3.47927 -1.7263 0
M  V30 8484 H 820.837 3.53677 -1.96709 0
M  V30 8485 H 817.592 2.7757 -3.83734 0
M  V30 8486 H 818.016 2.21438 -6.39761 0
M  V30 8487 H 822.658 2.3741 -3.49852 0
M  V30 8488 H 820.376 1.7021 -7.89971 0
M  V30 8489 H 823.962 1.82031 -5.5259 0
M  V30 8490 H 822.842 1.49042 -7.69907 0
M  V30 8491 N 820.346 1.18468 1.03938 0
M  V30 8492 C 821.595 0.975193 1.76558 0
M  V30 8493 C 821.908 -0.495978 1.89207 0
M  V30 8494 O 823.114 -0.824009 2.58694 0
M  V30 8495 C 821.57 1.69579 3.17444 0
M  V30 8496 C 821.178 3.20636 3.12884 0
M  V30 8497 C 822.922 1.56917 3.94433 0
M  V30 8498 C 820.829 3.8533 4.48636 0
M  V30 8499 H 819.759 0.361244 0.66183 0
M  V30 8500 H 822.41 1.41854 1.16403 0
M  V30 8501 H 820.792 1.18022 3.78004 0
M  V30 8502 H 821.966 3.79228 2.61768 0
M  V30 8503 H 820.281 3.33454 2.49394 0
M  V30 8504 H 822.878 2.02611 4.94826 0
M  V30 8505 H 823.221 0.521638 4.13019 0
M  V30 8506 H 823.754 2.05762 3.40451 0
M  V30 8507 H 820.493 4.90136 4.35255 0
M  V30 8508 H 820.013 3.31526 4.99851 0
M  V30 8509 H 821.692 3.88269 5.17549 0
M  V30 8510 N 821.824 -1.22873 0.986916 0
M  V30 8511 C 823.24 -1.43594 0.696633 0
M  V30 8512 C 823.44 -1.87622 -0.734869 0
M  V30 8513 O 822.496 -2.02633 -1.50652 0
M  V30 8514 C 823.809 -2.48231 1.69711 0
M  V30 8515 C 825.357 -2.62037 1.71188 0
M  V30 8516 C 825.832 -3.6989 2.70084 0
M  V30 8517 N 827.323 -3.77341 2.68641 0
M  V30 8518 C 828.058 -4.6037 3.41829 0
M  V30 8519 N 827.554 -5.47438 4.24598 0
M  V30 8520 N 829.347 -4.54626 3.30563 0
M  V30 8521 H 821.498 -0.925982 1.91153 0
M  V30 8522 H 823.761 -0.46866 0.824052 0
M  V30 8523 H 823.467 -2.22812 2.72117 0
M  V30 8524 H 823.341 -3.46731 1.48516 0
M  V30 8525 H 825.728 -2.86803 0.694837 0
M  V30 8526 H 825.809 -1.63831 1.96451 0
M  V30 8527 H 825.453 -3.45872 3.71934 0
M  V30 8528 H 825.383 -4.67652 2.42093 0
M  V30 8529 H 827.874 -3.15124 2.08578 0
M  V30 8530 H 828.187 -6.078 4.77283 0
M  V30 8531 H 826.532 -5.4704 4.28687 0
M  V30 8532 H 829.723 -3.85627 2.65347 0
M  V30 8533 H 829.896 -5.19103 3.8786 0
M  V30 8534 N 823.302 -0.75937 -1.38099 0
M  V30 8535 C 824.579 -0.243371 -1.9408 0
M  V30 8536 C 824.959 1.25942 -1.69416 0
M  V30 8537 O 824.307 2.03667 -1.03595 0
M  V30 8538 C 824.517 -0.603328 -3.43745 0
M  V30 8539 C 825.865 -0.566195 -4.20808 0
M  V30 8540 O 826.889 -0.541969 -3.52053 0
M  V30 8541 O 825.748 -0.582261 -5.43389 0
M  V30 8542 H 822.842 -0.0526825 -0.82532 0
M  V30 8543 H 825.388 -0.839884 -1.47459 0
M  V30 8544 H 824.16 -1.64098 -3.55229 0
M  V30 8545 H 823.783 0.0208887 -3.97595 0
M  V30 8546 N 824.78 1.49157 -0.508906 0
M  V30 8547 C 825.728 2.30922 0.278906 0
M  V30 8548 C 826.722 1.39889 0.955382 0
M  V30 8549 O 827.928 1.56901 0.882169 0
M  V30 8550 H 824.303 0.744087 0.108805 0
M  V30 8551 H 826.274 2.95277 -0.430583 0
M  V30 8552 C 825.023 3.21432 1.32576 0
M  V30 8553 H 824.346 3.91413 0.814634 0
M  V30 8554 H 825.786 3.81568 1.84882 0
M  V30 8555 C 824.245 2.41583 2.34817 0
M  V30 8556 O 824.775 2.1256 3.40854 0
M  V30 8557 N 822.981 2.03462 2.07489 0
M  V30 8558 H 822.528 2.27265 1.21278 0
M  V30 8559 H 822.486 1.50345 2.76123 0
M  V30 8560 N 826.258 0.243083 1.55714 0
M  V30 8561 C 827.191 -0.698623 2.17243 0
M  V30 8562 C 828.169 -1.1756 1.12331 0
M  V30 8563 O 829.353 -1.25444 1.40699 0
M  V30 8564 C 826.48 -1.94901 2.77004 0
M  V30 8565 C 825.526 -1.61022 3.94936 0
M  V30 8566 S 826.359 -0.716173 5.30689 0
M  V30 8567 C 827.515 -1.97565 5.93901 0
M  V30 8568 H 827.748 -0.175724 2.9678 0
M  V30 8569 H 825.281 0.0275727 1.54375 0
M  V30 8570 H 827.239 -2.66687 3.12071 0
M  V30 8571 H 825.9 -2.44304 1.9742 0
M  V30 8572 H 825.093 -2.5398 4.35328 0
M  V30 8573 H 824.695 -0.972829 3.61126 0
M  V30 8574 H 826.987 -2.92333 6.11186 0
M  V30 8575 H 827.93 -1.61528 6.8943 0
M  V30 8576 H 828.338 -2.126 5.22935 0
M  V30 8577 N 827.736 -1.57571 -0.0300757 0
M  V30 8578 C 829.152 -1.54869 -0.385703 0
M  V30 8579 C 829.352 -0.969068 -1.76667 0
M  V30 8580 O 828.408 -0.589676 -2.45518 0
M  V30 8581 C 829.721 -2.99313 -0.288482 0
M  V30 8582 C 831.269 -3.10857 -0.365638 0
M  V30 8583 C 831.744 -4.5703 -0.297878 0
M  V30 8584 N 833.235 -4.61825 -0.356703 0
M  V30 8585 C 833.97 -5.72466 -0.327146 0
M  V30 8586 N 833.466 -6.92349 -0.249941 0
M  V30 8587 N 835.259 -5.60836 -0.376801 0
M  V30 8588 H 827.41 -1.936 0.87367 0
M  V30 8589 H 829.673 -0.887924 0.332106 0
M  V30 8590 H 829.379 -3.45443 0.66047 0
M  V30 8591 H 829.253 -3.61332 -1.08253 0
M  V30 8592 H 831.64 -2.64676 -1.30502 0
M  V30 8593 H 831.721 -2.51671 0.457744 0
M  V30 8594 H 831.365 -5.03879 0.637835 0
M  V30 8595 H 831.295 -5.14127 -1.13935 0
M  V30 8596 H 833.786 -3.75571 -0.418926 0
M  V30 8597 H 834.099 -7.7245 -0.23246 0
M  V30 8598 H 832.444 -6.94664 -0.216004 0
M  V30 8599 H 835.635 -4.66073 -0.435101 0
M  V30 8600 H 835.808 -6.47052 -0.350298 0
M  V30 8601 N 829.214 0.302327 -1.54673 0
M  V30 8602 C 830.625 0.875409 -1.64904 0
M  V30 8603 C 830.976 1.88132 -0.55684 0
M  V30 8604 O 830.101 2.14215 0.306754 0
M  V30 8605 C 830.696 1.59457 -2.9893 0
M  V30 8606 C 829.255 2.11607 -3.11287 0
M  V30 8607 C 828.402 0.948324 -2.6058 0
M  V30 8608 H 831.353 0.079362 -1.58501 0
M  V30 8609 H 831.374 2.46005 -2.90279 0
M  V30 8610 H 830.886 0.8622 -3.78402 0
M  V30 8611 H 828.987 2.87895 -2.36532 0
M  V30 8612 H 829.1 2.35151 -4.17422 0
M  V30 8613 H 827.464 1.33352 -2.17001 0
M  V30 8614 H 828.247 0.229936 -3.42529 0
M  V30 8615 O 830.731 1.55155 0.448226 0
M  V30 8616 H 831.422 1.59293 1.10206 0
M  V30 END ATOM
M  V30 BEGIN BOND
M  V30 END BOND
M  V30 END CTAB
M  END
$$$$
