drugbank_target|P00736 Complement C1r subcomponent (DB00110; DB00111; DB01593; DB06404; DB09228; DB14487; DB14533; DB14548)
 OpenBabel12092120043D

  0  0  0     0  0            999 V3000
M  V30 BEGIN CTAB
M  V30 COUNTS 11038 11191 0 0 0
M  V30 BEGIN ATOM
M  V30 1 H -0.908 1.98254 -0.117106 0
M  V30 2 N 0 1.576 0 0
M  V30 3 C 0.933 2.03868 1.02534 0
M  V30 4 C 1.911 0.928543 1.3348 0
M  V30 5 O 3.095 1.19667 1.45644 0
M  V30 6 C 0.222 2.43627 2.35294 0
M  V30 7 C -0.732 3.65373 2.2001 0
M  V30 8 S 0.101 5.13292 1.52614 0
M  V30 9 C 1.257 5.56322 2.86805 0
M  V30 10 H 1.49 2.90518 0.631377 0
M  V30 11 H -0.977 1.52953 0.210867 0
M  V30 12 H 0.981 2.67203 3.11629 0
M  V30 13 H -0.358 1.57376 2.7183 0
M  V30 14 H -1.165 3.90944 3.18086 0
M  V30 15 H -1.563 3.418 1.51819 0
M  V30 16 H 0.729 5.58782 3.83104 0
M  V30 17 H 1.672 6.56266 2.65933 0
M  V30 18 H 2.08 4.83886 2.90714 0
M  V30 19 N 1.4781 -0.272755 1.55222 0
M  V30 20 C 2.7241 -1.00172 1.77023 0
M  V30 21 C 3.0791 -1.83928 0.564633 0
M  V30 22 O 2.3721 -1.86416 -0.442674 0
M  V30 23 C 2.5661 -1.91642 3.01675 0
M  V30 24 C 2.3951 -1.16888 4.34243 0
M  V30 25 C 1.1651 -0.884464 4.97499 0
M  V30 26 C 3.3631 -0.55919 5.11251 0
M  V30 27 N 1.3451 -0.11015 6.13801 0
M  V30 28 C 2.7161 0.0809469 6.19947 0
M  V30 29 C 4.7711 -0.467058 4.95705 0
M  V30 30 C 3.4741 0.804335 7.14789 0
M  V30 31 C 5.5001 0.242739 5.90902 0
M  V30 32 C 4.8621 0.871613 6.98987 0
M  V30 33 H 0.9611 -0.348529 0.700037 0
M  V30 34 H 3.5451 -0.277365 1.92714 0
M  V30 35 H 1.7161 -2.61303 2.87359 0
M  V30 36 H 3.4481 -2.57901 3.1188 0
M  V30 37 H 0.2031 -1.18979 4.58411 0
M  V30 38 H 0.6271 0.264344 6.76484 0
M  V30 39 H 5.2691 -0.93894 4.12242 0
M  V30 40 H 2.9871 1.2879 7.97771 0
M  V30 41 H 6.5731 0.314347 5.8095 0
M  V30 42 H 5.4531 1.4121 7.71381 0
M  V30 43 N 2.9562 -1.48159 -0.537278 0
M  V30 44 C 3.8862 -1.65029 -1.6519 0
M  V30 45 C 4.8672 -0.499281 -1.62607 0
M  V30 46 O 6.0522 -0.730972 -1.79918 0
M  V30 47 C 3.1822 -1.68303 -3.03795 0
M  V30 48 C 2.1362 -2.8283 -3.21234 0
M  V30 49 C 1.4622 -2.71189 -4.60826 0
M  V30 50 C 2.7622 -4.24211 -3.04701 0
M  V30 51 H 4.4562 -2.58341 -1.51328 0
M  V30 52 H 2.0022 -1.24325 -0.726585 0
M  V30 53 H 3.9552 -1.78693 -3.81637 0
M  V30 54 H 2.6792 -0.715635 -3.18663 0
M  V30 55 H 1.3382 -2.71983 -2.45807 0
M  V30 56 H 0.9862 -1.72435 -4.7252 0
M  V30 57 H 0.6862 -3.48035 -4.7344 0
M  V30 58 H 2.2102 -2.83537 -5.40777 0
M  V30 59 H 3.6242 -4.3593 -3.72341 0
M  V30 60 H 2.0212 -5.01998 -3.28813 0
M  V30 61 H 3.0912 -4.41184 -2.01209 0
M  V30 62 N 4.4343 0.785586 -1.36625 0
M  V30 63 C 5.3643 1.91259 -1.33949 0
M  V30 64 C 6.3453 1.68795 -0.210325 0
M  V30 65 O 7.5303 1.89854 -0.408561 0
M  V30 66 C 4.6603 3.28339 -1.13186 0
M  V30 67 C 3.6143 3.65335 -2.22967 0
M  V30 68 C 2.9403 5.00806 -1.87342 0
M  V30 69 C 4.2403 3.7352 -3.65075 0
M  V30 70 H 5.9343 1.93755 -2.28253 0
M  V30 71 H 3.4803 0.930788 -1.09874 0
M  V30 72 H 5.4333 4.06804 -1.09948 0
M  V30 73 H 4.1573 3.2624 -0.153332 0
M  V30 74 H 2.8163 2.89169 -2.25337 0
M  V30 75 H 2.4643 4.95233 -0.880545 0
M  V30 76 H 2.1643 5.26529 -2.60846 0
M  V30 77 H 3.6883 5.81687 -1.85667 0
M  V30 78 H 5.1023 4.42168 -3.64911 0
M  V30 79 H 3.4993 4.10731 -4.37516 0
M  V30 80 H 4.5693 2.74527 -3.99703 0
M  V30 81 N 5.9124 1.20967 1.01018 0
M  V30 82 C 7.1424 1.04803 1.78044 0
M  V30 83 C 7.5504 -0.405462 1.84804 0
M  V30 84 O 6.8934 -1.2932 1.30468 0
M  V30 85 C 6.9554 1.56377 3.23707 0
M  V30 86 C 6.6194 3.04767 3.40538 0
M  V30 87 C 7.6164 4.02366 3.29239 0
M  V30 88 C 5.3014 3.43862 3.66147 0
M  V30 89 C 7.2954 5.37049 3.43304 0
M  V30 90 C 4.9824 4.78699 3.79855 0
M  V30 91 C 5.9804 5.75101 3.68439 0
M  V30 92 O 5.6684 7.07493 3.81719 0
M  V30 93 H 5.4004 0.368778 0.56655 0
M  V30 94 H 7.9544 1.60642 1.27997 0
M  V30 95 H 6.1844 0.949297 3.74867 0
M  V30 96 H 7.8734 1.36136 3.8239 0
M  V30 97 H 8.6394 3.73506 3.09384 0
M  V30 98 H 4.5184 2.69364 3.74118 0
M  V30 99 H 8.0624 6.12277 3.34309 0
M  V30 100 H 3.9594 5.07247 3.99213 0
M  V30 101 H 4.7274 7.1483 3.98697 0
M  V30 102 N 7.3905 -1.2043 1.01659 0
M  V30 103 C 8.3205 -2.25466 0.607226 0
M  V30 104 C 9.3015 -1.65853 -0.377716 0
M  V30 105 O 10.4865 -1.92409 -0.263149 0
M  V30 106 C 7.6165 -3.47256 -0.0552949 0
M  V30 107 C 6.5705 -4.19462 0.850632 0
M  V30 108 C 5.8965 -5.34673 0.0538859 0
M  V30 109 C 7.1965 -4.75603 2.15868 0
M  V30 110 H 8.8905 -2.59962 1.48526 0
M  V30 111 H 6.4365 -1.2496 0.715605 0
M  V30 112 H 8.3895 -4.19917 -0.353233 0
M  V30 113 H 7.1135 -3.11924 -0.968045 0
M  V30 114 H 5.7725 -3.48667 1.13257 0
M  V30 115 H 5.4205 -4.95585 -0.860514 0
M  V30 116 H 5.1205 -5.83913 0.657192 0
M  V30 117 H 6.6445 -6.10138 -0.237598 0
M  V30 118 H 8.0585 -5.40083 1.92311 0
M  V30 119 H 6.4555 -5.3528 2.71284 0
M  V30 120 H 7.5255 -3.94346 2.82169 0
M  V30 121 N 8.8686 -0.792821 -1.36206 0
M  V30 122 C 9.7986 -0.207853 -2.32573 0
M  V30 123 C 10.7796 0.659055 -1.56813 0
M  V30 124 O 11.9646 0.592176 -1.84951 0
M  V30 125 C 9.0946 0.655449 -3.41059 0
M  V30 126 C 8.0486 -0.111842 -4.27854 0
M  V30 127 C 7.3746 0.872274 -5.27537 0
M  V30 128 C 8.6746 -1.30299 -5.05786 0
M  V30 129 H 10.3686 -1.01294 -2.81744 0
M  V30 130 H 7.9146 -0.48854 -1.3546 0
M  V30 131 H 9.8676 1.07464 -4.07467 0
M  V30 132 H 8.5916 1.49328 -2.90463 0
M  V30 133 H 7.2506 -0.512053 -3.63006 0
M  V30 134 H 6.8986 1.70523 -4.73214 0
M  V30 135 H 6.5986 0.363291 -5.86476 0
M  V30 136 H 8.1226 1.28996 -5.96818 0
M  V30 137 H 9.5366 -0.959379 -5.65216 0
M  V30 138 H 7.9336 -1.7455 -5.74154 0
M  V30 139 H 9.0036 -2.09663 -4.37229 0
M  V30 140 N 10.3467 1.47872 -0.545128 0
M  V30 141 C 11.5927 2.02793 -0.0166104 0
M  V30 142 C 11.9257 1.41987 1.32489 0
M  V30 143 O 11.2007 0.571045 1.85928 0
M  V30 144 C 11.4837 3.59989 0.0893294 0
M  V30 145 C 11.3367 4.3125 -1.27841 0
M  V30 146 C 12.6557 4.32606 0.808724 0
M  V30 147 H 9.7747 0.736962 -0.00751035 0
M  V30 148 H 12.4167 1.76433 -0.705085 0
M  V30 149 H 10.5667 3.82579 0.675681 0
M  V30 150 H 12.2387 4.20035 -1.90704 0
M  V30 151 H 10.4817 3.92076 -1.85632 0
M  V30 152 H 11.1527 5.39736 -1.15713 0
M  V30 153 H 13.6287 4.14936 0.310992 0
M  V30 154 H 12.5047 5.42251 0.851782 0
M  V30 155 H 12.7657 4.00963 1.86229 0
M  V30 156 N 11.8248 0.280983 1.55075 0
M  V30 157 C 13.2358 -0.215629 1.85451 0
M  V30 158 C 13.5868 -1.54991 1.203 0
M  V30 159 O 12.7118 -2.10699 0.493435 0
M  V30 160 C 13.3068 -0.398026 3.36454 0
M  V30 161 C 11.8658 -0.838866 3.66933 0
M  V30 162 C 11.0128 0.064458 2.77225 0
M  V30 163 H 13.9638 0.502601 1.50531 0
M  V30 164 H 13.9848 -1.23569 3.59876 0
M  V30 165 H 13.4968 0.573241 3.83843 0
M  V30 166 H 11.5978 -1.8214 3.25048 0
M  V30 167 H 11.7108 -0.672123 4.74362 0
M  V30 168 H 10.0748 -0.452863 2.50642 0
M  V30 169 H 10.8578 1.03172 3.2743 0
M  V30 170 N 13.3029 -1.57598 0.00835791 0
M  V30 171 C 14.2659 -2.07884 -0.965242 0
M  V30 172 C 15.2659 -0.989825 -1.26725 0
M  V30 173 O 16.4559 -1.25218 -1.21104 0
M  V30 174 C 13.5879 -2.52731 -2.28779 0
M  V30 175 H 14.7809 -2.95178 -0.530112 0
M  V30 176 H 12.3339 -1.54458 -0.239283 0
M  V30 177 H 13.0689 -1.68705 -2.76964 0
M  V30 178 H 12.8539 -3.32272 -2.08177 0
M  V30 179 H 14.3439 -2.91933 -2.98605 0
M  V30 180 N 14.781 0.264519 -1.55364 0
M  V30 181 C 15.711 1.33121 -1.91836 0
M  V30 182 C 16.692 1.51101 -0.781192 0
M  V30 183 O 17.877 1.64003 -1.04003 0
M  V30 184 C 15.007 2.68921 -2.19769 0
M  V30 185 C 13.961 2.65661 -3.35571 0
M  V30 186 C 13.287 4.05093 -3.49004 0
M  V30 187 C 14.587 2.24187 -4.71739 0
M  V30 188 H 16.281 1.02844 -2.81182 0
M  V30 189 H 13.827 0.493286 -1.35287 0
M  V30 190 H 15.78 3.43663 -2.43872 0
M  V30 191 H 14.504 3.00799 -1.27231 0
M  V30 192 H 13.163 1.93377 -3.1145 0
M  V30 193 H 12.811 4.34206 -2.53917 0
M  V30 194 H 12.511 4.03804 -4.26868 0
M  V30 195 H 14.035 4.81561 -3.75408 0
M  V30 196 H 15.449 2.88654 -4.9533 0
M  V30 197 H 13.846 2.34044 -5.52579 0
M  V30 198 H 14.916 1.19327 -4.69988 0
M  V30 199 N 16.2591 1.48442 0.529413 0
M  V30 200 C 17.5061 1.56488 1.28521 0
M  V30 201 C 17.8341 0.239042 1.93025 0
M  V30 202 O 17.0891 -0.770713 1.79885 0
M  V30 203 C 17.3881 2.6523 2.39558 0
M  V30 204 C 17.0541 4.07648 1.92702 0
M  V30 205 C 15.7161 4.46411 1.79641 0
M  V30 206 C 18.0681 4.96896 1.573 0
M  V30 207 C 15.3961 5.72226 1.29514 0
M  V30 208 C 17.7481 6.23202 1.08636 0
M  V30 209 C 16.4121 6.60821 0.941919 0
M  V30 210 H 15.6821 0.572631 0.470292 0
M  V30 211 H 18.3291 1.82161 0.59072 0
M  V30 212 H 16.6341 2.33419 3.14679 0
M  V30 213 H 18.3311 2.68671 2.97686 0
M  V30 214 H 14.9211 3.77036 2.03819 0
M  V30 215 H 19.1051 4.67626 1.66251 0
M  V30 216 H 14.3611 6.00097 1.17019 0
M  V30 217 H 18.5351 6.91753 0.803136 0
M  V30 218 H 16.1621 7.58198 0.5513 0
M  V30 219 N 17.7372 -0.778329 1.37039 0
M  V30 220 C 18.9772 -1.54973 1.33276 0
M  V30 221 C 19.3412 -1.91816 -0.0839376 0
M  V30 222 O 20.5422 -2.6767 -0.246228 0
M  V30 223 C 18.8132 -2.78517 2.23971 0
M  V30 224 S 20.3722 -3.6865 2.37997 0
M  V30 225 H 17.1902 -0.530639 0.473226 0
M  V30 226 H 19.7922 -0.915806 1.72723 0
M  V30 227 H 18.4962 -2.4952 3.25835 0
M  V30 228 H 18.0272 -3.46875 1.85584 0
M  V30 229 H 20.0422 -4.70182 1.58567 0
M  V30 230 N 19.2153 -1.21501 -1.00376 0
M  V30 231 C 20.6313 -0.972629 -1.26539 0
M  V30 232 C 20.8313 0.340257 -1.98606 0
M  V30 233 O 19.8873 1.06561 -2.28913 0
M  V30 234 C 21.2003 -2.16404 -2.08781 0
M  V30 235 C 22.7483 -2.20643 -2.22004 0
M  V30 236 C 23.2233 -3.39306 -3.07629 0
M  V30 237 N 24.7143 -3.39401 -3.15217 0
M  V30 238 C 25.4493 -4.27867 -3.81729 0
M  V30 239 N 24.9453 -5.26533 -4.5026 0
M  V30 240 N 26.7383 -4.15672 -3.78382 0
M  V30 241 H 18.8893 -2.05929 -0.520281 0
M  V30 242 H 21.1523 -0.901803 -0.292328 0
M  V30 243 H 20.8583 -3.11554 -1.63178 0
M  V30 244 H 20.7323 -2.15567 -3.09533 0
M  V30 245 H 23.1193 -1.26048 -2.66825 0
M  V30 246 H 23.2003 -2.25523 -1.20718 0
M  V30 247 H 22.8443 -4.34195 -2.63509 0
M  V30 248 H 22.7743 -3.31665 -4.09031 0
M  V30 249 H 25.2653 -2.67997 -2.66432 0
M  V30 250 H 25.5783 -5.90337 -4.98721 0
M  V30 251 H 23.9233 -5.30457 -4.49044 0
M  V30 252 H 27.1143 -3.3785 -3.23998 0
M  V30 253 H 27.2873 -4.84825 -4.2994 0
M  V30 254 N 20.6934 1.19889 -1.02296 0
M  V30 255 C 21.6564 2.21116 -0.603351 0
M  V30 256 C 22.6564 1.5738 0.329884 0
M  V30 257 O 23.8464 1.73802 0.117702 0
M  V30 258 C 20.9784 3.40696 0.117992 0
M  V30 259 H 22.1714 2.59754 -1.49893 0
M  V30 260 H 19.7244 1.33463 -0.813468 0
M  V30 261 H 20.4594 3.07569 1.0282 0
M  V30 262 H 20.2444 3.88188 -0.552511 0
M  V30 263 H 21.7344 4.15692 0.398696 0
M  V30 264 N 22.1715 0.800033 1.35784 0
M  V30 265 C 23.4195 0.376597 1.9856 0
M  V30 266 C 23.7405 -1.05812 1.63795 0
M  V30 267 O 23.0105 -1.73103 0.917171 0
M  V30 268 H 21.5905 0.136261 0.734467 0
M  V30 269 H 24.2525 1.02442 1.65806 0
M  V30 270 H 23.3485 0.477002 3.08433 0
M  V30 271 N 23.6496 -1.47581 0.552962 0
M  V30 272 C 24.8976 -2.02082 0.0272703 0
M  V30 273 C 25.2186 -1.4301 -1.32563 0
M  V30 274 O 24.4886 -0.603745 -1.86365 0
M  V30 275 H 23.0686 -0.746966 0.00709182 0
M  V30 276 H 25.7306 -1.81033 0.722008 0
M  V30 277 H 24.8266 -3.12034 -0.0639951 0
M  V30 278 N 25.1277 -0.289203 -1.54924 0
M  V30 279 C 26.3527 0.329299 -2.04769 0
M  V30 280 C 26.7777 1.4763 -1.16564 0
M  V30 281 O 26.1357 1.80527 -0.167186 0
M  V30 282 C 26.1837 0.774438 -3.52186 0
M  V30 283 O 25.2877 1.88038 -3.67036 0
M  V30 284 H 24.6287 0.0659259 -0.660719 0
M  V30 285 H 27.1587 -0.42761 -2.00082 0
M  V30 286 H 27.1687 1.06642 -3.93816 0
M  V30 287 H 25.8437 -0.0646707 -4.1585 0
M  V30 288 H 24.4207 1.58985 -3.3731 0
M  V30 289 N 26.6058 1.57591 -0.0167156 0
M  V30 290 C 27.8548 1.90461 0.663877 0
M  V30 291 C 28.1678 0.893515 1.73999 0
M  V30 292 O 29.3738 1.11302 2.47637 0
M  V30 293 C 27.8298 3.38155 1.23204 0
M  V30 294 C 27.4378 4.47597 0.189866 0
M  V30 295 C 29.1818 3.80111 1.88986 0
M  V30 296 C 27.0888 5.86379 0.768964 0
M  V30 297 H 26.0188 0.710738 0.251729 0
M  V30 298 H 28.6698 1.83326 -0.0799926 0
M  V30 299 H 27.0518 3.40182 2.02712 0
M  V30 300 H 28.2258 4.57112 -0.581846 0
M  V30 301 H 26.5408 4.14766 -0.368475 0
M  V30 302 H 29.1378 4.81145 2.33247 0
M  V30 303 H 29.4808 3.14511 2.72743 0
M  V30 304 H 30.0138 3.80454 1.16187 0
M  V30 305 H 26.7528 6.55493 -0.0301957 0
M  V30 306 H 26.2728 5.80496 1.50945 0
M  V30 307 H 27.9518 6.34563 1.26251 0
M  V30 308 N 28.0839 -0.256276 1.55502 0
M  V30 309 C 29.4949 -0.826068 1.67431 0
M  V30 310 C 29.8459 -1.86396 0.612446 0
M  V30 311 O 28.9709 -2.15031 -0.243025 0
M  V30 312 C 29.5659 -1.50512 3.03532 0
M  V30 313 C 28.1249 -2.02273 3.17431 0
M  V30 314 C 27.2719 -0.870548 2.63281 0
M  V30 315 H 30.2229 -0.0322728 1.58667 0
M  V30 316 H 30.2439 -2.37279 2.97454 0
M  V30 317 H 29.7559 -0.749484 3.80794 0
M  V30 318 H 27.8569 -2.80746 2.44974 0
M  V30 319 H 27.9699 -2.22655 4.24219 0
M  V30 320 H 26.3339 -1.26851 2.20864 0
M  V30 321 H 27.1169 -0.128149 3.43061 0
M  V30 322 N 29.562 -1.4872 -0.521534 0
M  V30 323 C 30.811 -1.56419 -1.27341 0
M  V30 324 C 31.124 -0.246805 -1.94037 0
M  V30 325 O 32.33 -0.202122 -2.70747 0
M  V30 326 C 30.786 -2.75896 -2.31105 0
M  V30 327 C 30.394 -4.14311 -1.70441 0
M  V30 328 C 32.138 -2.92913 -3.07249 0
M  V30 329 C 30.045 -5.25038 -2.72194 0
M  V30 330 H 28.975 -0.582344 -0.478949 0
M  V30 331 H 31.626 -1.75071 -0.549779 0
M  V30 332 H 30.008 -2.50697 -3.06541 0
M  V30 333 H 31.182 -4.49564 -1.01136 0
M  V30 334 H 29.497 -4.02482 -1.06759 0
M  V30 335 H 32.094 -3.72805 -3.83302 0
M  V30 336 H 32.437 -2.02689 -3.63625 0
M  V30 337 H 32.97 -3.18054 -2.38928 0
M  V30 338 H 29.709 -6.17255 -2.20627 0
M  V30 339 H 29.229 -4.94263 -3.39801 0
M  V30 340 H 30.908 -5.53508 -3.35019 0
M  V30 341 N 31.0401 0.771051 -1.3745 0
M  V30 342 C 32.4511 1.34737 -1.29239 0
M  V30 343 C 32.8021 1.96109 0.0596908 0
M  V30 344 O 31.9271 1.93865 0.961534 0
M  V30 345 C 32.5221 2.44973 -2.34037 0
M  V30 346 C 31.0811 2.98372 -2.29458 0
M  V30 347 C 30.2281 1.71595 -2.17831 0
M  V30 348 H 33.1791 0.571256 -1.48062 0
M  V30 349 H 33.2001 3.24471 -1.98744 0
M  V30 350 H 32.7121 2.00276 -3.32432 0
M  V30 351 H 30.8131 3.47443 -1.34589 0
M  V30 352 H 30.9261 3.53939 -3.229 0
M  V30 353 H 29.2901 1.94547 -1.64388 0
M  V30 354 H 30.0731 1.29001 -3.18141 0
M  V30 355 N 32.5182 1.22032 0.997298 0
M  V30 356 C 33.4502 0.944263 2.08845 0
M  V30 357 C 34.4632 -0.0754663 1.62625 0
M  V30 358 O 35.6522 0.157994 1.77799 0
M  V30 359 C 32.7522 0.397723 3.36558 0
M  V30 360 C 31.9252 1.47362 4.11829 0
M  V30 361 C 30.9842 0.934951 5.17827 0
M  V30 362 O 30.0102 1.62016 5.45655 0
M  V30 363 N 31.2122 -0.245895 5.79979 0
M  V30 364 H 33.9772 1.88363 2.33109 0
M  V30 365 H 31.5382 1.12661 1.16272 0
M  V30 366 H 33.5302 0.0227771 4.04694 0
M  V30 367 H 32.1002 -0.446646 3.09393 0
M  V30 368 H 31.3202 2.02208 3.38386 0
M  V30 369 H 32.6082 2.19764 4.58891 0
M  V30 370 H 32.0062 -0.819475 5.59733 0
M  V30 371 H 30.5632 -0.562272 6.4937 0
M  V30 372 N 33.9963 -1.19345 1.0293 0
M  V30 373 C 34.9433 -2.2258 0.610464 0
M  V30 374 C 35.9133 -1.6179 -0.375946 0
M  V30 375 O 37.0983 -1.88844 -0.272511 0
M  V30 376 C 34.2383 -3.45085 -0.0321473 0
M  V30 377 C 33.3513 -4.20258 1.00035 0
M  V30 378 C 32.4863 -5.3019 0.32746 0
M  V30 379 C 31.5253 -5.97121 1.34584 0
M  V30 380 N 30.6623 -6.98615 0.698726 0
M  V30 381 H 35.5023 -2.57764 1.49538 0
M  V30 382 H 33.0393 -1.26644 0.748311 0
M  V30 383 H 34.9973 -4.15061 -0.421966 0
M  V30 384 H 33.6273 -3.10555 -0.88064 0
M  V30 385 H 32.6793 -3.49223 1.50823 0
M  V30 386 H 33.9913 -4.66175 1.77433 0
M  V30 387 H 33.1453 -6.06587 -0.11718 0
M  V30 388 H 31.8843 -4.85345 -0.478713 0
M  V30 389 H 30.8893 -5.19474 1.80074 0
M  V30 390 H 32.1143 -6.4405 2.15352 0
M  V30 391 H 30.0603 -6.55942 -0.0873471 0
M  V30 392 H 29.9773 -7.42724 1.41058 0
M  V30 393 H 31.2453 -7.79004 0.278102 0
M  V30 394 N 35.4744 -0.807222 -1.35358 0
M  V30 395 C 36.4044 -0.232509 -2.3234 0
M  V30 396 C 37.3854 0.642386 -1.57504 0
M  V30 397 O 38.5704 0.572526 -1.85569 0
M  V30 398 C 35.7004 0.619238 -3.41735 0
M  V30 399 C 34.6544 -0.157215 -4.27711 0
M  V30 400 C 33.9804 0.816273 -5.28433 0
M  V30 401 C 35.2804 -1.35656 -5.04376 0
M  V30 402 H 36.9744 -1.04276 -2.80654 0
M  V30 403 H 34.5204 -0.50288 -1.34934 0
M  V30 404 H 36.4734 1.03137 -4.08584 0
M  V30 405 H 35.1974 1.46239 -2.92031 0
M  V30 406 H 33.8564 -0.550525 -3.62443 0
M  V30 407 H 33.5044 1.65494 -4.74996 0
M  V30 408 H 33.2044 0.301067 -5.86828 0
M  V30 409 H 34.7284 1.22659 -5.98153 0
M  V30 410 H 36.1424 -1.01927 -5.64166 0
M  V30 411 H 34.5394 -1.8063 -5.7227 0
M  V30 412 H 35.6094 -2.14288 -4.34981 0
M  V30 413 N 36.9525 1.47285 -0.560781 0
M  V30 414 C 38.1995 2.02464 -0.038062 0
M  V30 415 C 38.5275 1.43474 1.31322 0
M  V30 416 O 37.7825 0.581311 1.86867 0
M  V30 417 C 38.0815 3.57258 0.100784 0
M  V30 418 C 37.7475 4.35184 -1.18007 0
M  V30 419 C 36.4095 4.56194 -1.53103 0
M  V30 420 C 38.7615 4.80098 -2.02867 0
M  V30 421 C 36.0895 5.19367 -2.729 0
M  V30 422 C 38.4415 5.44593 -3.21871 0
M  V30 423 C 37.1055 5.63835 -3.57276 0
M  V30 424 H 36.3755 0.740869 -0.0139279 0
M  V30 425 H 39.0225 1.76916 -0.733012 0
M  V30 426 H 37.3275 3.81819 0.878724 0
M  V30 427 H 39.0245 3.97606 0.520639 0
M  V30 428 H 35.6145 4.19113 -0.8968 0
M  V30 429 H 39.7985 4.63642 -1.7706 0
M  V30 430 H 35.0545 5.32459 -3.00496 0
M  V30 431 H 39.2285 5.78358 -3.87911 0
M  V30 432 H 36.8555 6.12557 -4.50197 0
M  V30 433 N 38.4306 0.297415 1.54768 0
M  V30 434 C 39.6786 -0.312295 1.99673 0
M  V30 435 C 39.9996 -1.54686 1.18732 0
M  V30 436 O 39.2696 -1.93854 0.282382 0
M  V30 437 H 37.8496 -0.118381 0.73756 0
M  V30 438 H 40.5116 0.407915 1.90583 0
M  V30 439 H 39.6076 -0.586813 3.06534 0
M  V30 440 N 39.9087 -1.5758 0.0250728 0
M  V30 441 C 40.8187 -2.1343 -0.973905 0
M  V30 442 C 41.8347 -1.08556 -1.35984 0
M  V30 443 O 43.0107 -1.40592 -1.44207 0
M  V30 444 C 40.0757 -2.64703 -2.23904 0
M  V30 445 C 39.1367 -3.84276 -1.91391 0
M  V30 446 C 38.3697 -4.33095 -3.11873 0
M  V30 447 O 38.5927 -3.81107 -4.24398 0
M  V30 448 O 37.5267 -5.24984 -2.94406 0
M  V30 449 H 41.3527 -2.99057 -0.529036 0
M  V30 450 H 38.9377 -1.48118 -0.195288 0
M  V30 451 H 40.8197 -2.97769 -2.98181 0
M  V30 452 H 39.4947 -1.82161 -2.6758 0
M  V30 453 H 38.4017 -3.56143 -1.14511 0
M  V30 454 H 39.7347 -4.67968 -1.52534 0
M  V30 455 N 41.3868 0.248026 -1.55636 0
M  V30 456 C 42.6328 0.97767 -1.77678 0
M  V30 457 C 42.9658 1.85016 -0.590135 0
M  V30 458 O 42.2408 1.90095 0.411611 0
M  V30 459 C 42.5238 1.83914 -3.09593 0
M  V30 460 C 42.3768 0.99491 -4.38659 0
M  V30 461 C 43.6958 2.82183 -3.37729 0
M  V30 462 H 40.8148 0.354005 -0.646413 0
M  V30 463 H 43.4568 0.248253 -1.88371 0
M  V30 464 H 41.6068 2.46104 -3.00608 0
M  V30 465 H 43.2788 0.391789 -4.59633 0
M  V30 466 H 41.5218 0.299231 -4.32767 0
M  V30 467 H 42.1928 1.63145 -5.2734 0
M  V30 468 H 44.6688 2.30129 -3.4667 0
M  V30 469 H 43.5448 3.39582 -4.31249 0
M  V30 470 H 43.8058 3.58588 -2.58586 0
M  V30 471 N 42.8649 1.48995 0.513639 0
M  V30 472 C 44.0929 1.61531 1.29288 0
M  V30 473 C 44.5079 0.281801 1.86685 0
M  V30 474 O 43.8649 -0.731111 1.67215 0
M  V30 475 C 43.9159 2.67449 2.43215 0
M  V30 476 O 43.6369 3.95626 1.88179 0
M  V30 477 C 45.1379 2.90575 3.34785 0
M  V30 478 H 42.3579 0.544165 0.392588 0
M  V30 479 H 44.9019 1.9494 0.617956 0
M  V30 480 H 43.0569 2.36853 3.0656 0
M  V30 481 H 43.4709 4.53868 2.62876 0
M  V30 482 H 44.9449 3.68449 4.11035 0
M  V30 483 H 45.4219 2.00011 3.91015 0
M  V30 484 H 46.0279 3.22538 2.77218 0
M  V30 485 N 44.343 -0.763751 1.37857 0
M  V30 486 C 45.568 -1.55805 1.36893 0
M  V30 487 C 45.993 -1.88054 -0.0416135 0
M  V30 488 O 45.351 -1.49825 -1.02089 0
M  V30 489 C 45.399 -2.84012 2.22192 0
M  V30 490 O 44.503 -3.78732 1.63204 0
M  V30 491 H 43.844 -0.471638 0.46739 0
M  V30 492 H 46.374 -0.944657 1.81487 0
M  V30 493 H 46.384 -3.33037 2.35691 0
M  V30 494 H 45.059 -2.59869 3.24716 0
M  V30 495 H 43.636 -3.37402 1.58791 0
M  V30 496 N 45.8211 -1.22559 -0.990812 0
M  V30 497 C 47.2321 -1.04791 -1.54518 0
M  V30 498 C 47.5831 0.387998 -1.92325 0
M  V30 499 O 46.7081 1.27328 -1.74976 0
M  V30 500 C 47.3031 -1.896 -2.80779 0
M  V30 501 C 45.8621 -1.76124 -3.32652 0
M  V30 502 C 45.0091 -1.8594 -2.05722 0
M  V30 503 H 47.9601 -1.36374 -0.811662 0
M  V30 504 H 47.9811 -1.41464 -3.53225 0
M  V30 505 H 47.4931 -2.94101 -2.53231 0
M  V30 506 H 45.5941 -0.743643 -3.65104 0
M  V30 507 H 45.7071 -2.58913 -4.03114 0
M  V30 508 H 44.0711 -1.29403 -2.19379 0
M  V30 509 H 44.8541 -2.91976 -1.80568 0
M  V30 510 N 47.2992 1.18797 -1.03562 0
M  V30 511 C 48.2292 2.24472 -0.643019 0
M  V30 512 C 49.2102 1.66433 0.351283 0
M  V30 513 O 50.3952 1.92803 0.232505 0
M  V30 514 C 47.5252 3.473 4.24935e-05 0
M  V30 515 C 46.4792 4.18055 -0.917257 0
M  V30 516 C 45.8052 5.34519 -0.138941 0
M  V30 517 C 47.1052 4.72109 -2.23407 0
M  V30 518 H 48.7992 2.57566 -1.52643 0
M  V30 519 H 46.3452 1.23806 -0.735394 0
M  V30 520 H 48.2982 4.20426 0.286383 0
M  V30 521 H 47.0222 3.13424 0.918299 0
M  V30 522 H 45.6812 3.46821 -1.1879 0
M  V30 523 H 45.3292 4.96891 0.781562 0
M  V30 524 H 45.0292 5.82794 -0.750005 0
M  V30 525 H 46.5532 6.10438 0.1405 0
M  V30 526 H 47.9672 5.36955 -2.00879 0
M  V30 527 H 46.3642 5.30897 -2.79765 0
M  V30 528 H 47.4342 3.89807 -2.88407 0
M  V30 529 N 48.7773 0.814389 1.34928 0
M  V30 530 C 50.0243 0.398423 1.98542 0
M  V30 531 C 50.3523 -1.03638 1.64589 0
M  V30 532 O 49.6073 -1.73509 0.90516 0
M  V30 533 C 49.9063 0.537781 3.53331 0
M  V30 534 C 49.5723 1.93704 4.07172 0
M  V30 535 C 48.2343 2.31984 4.21589 0
M  V30 536 C 50.5863 2.85213 4.36237 0
M  V30 537 C 47.9143 3.61125 4.62391 0
M  V30 538 C 50.2663 4.13809 4.78482 0
M  V30 539 C 48.9303 4.52077 4.91104 0
M  V30 540 H 48.2003 0.145793 0.726516 0
M  V30 541 H 50.8473 1.03669 1.61012 0
M  V30 542 H 49.1523 -0.183906 3.91368 0
M  V30 543 H 50.8493 0.196588 4.00518 0
M  V30 544 H 47.4393 1.62966 3.96409 0
M  V30 545 H 51.6233 2.56885 4.24645 0
M  V30 546 H 46.8793 3.90612 4.70353 0
M  V30 547 H 51.0533 4.84811 4.99932 0
M  V30 548 H 48.6803 5.52196 5.22478 0
M  V30 549 N 50.2554 -1.46986 0.568584 0
M  V30 550 C 51.6664 -1.86188 0.138219 0
M  V30 551 C 52.0174 -1.47388 -1.29504 0
M  V30 552 O 51.1424 -0.88219 -1.97602 0
M  V30 553 C 51.7374 -3.3792 0.244065 0
M  V30 554 C 50.2964 -3.76171 -0.131335 0
M  V30 555 C 49.4434 -2.71027 0.586465 0
M  V30 556 H 52.3944 -1.38342 0.777645 0
M  V30 557 H 52.4154 -3.76729 -0.534351 0
M  V30 558 H 51.9274 -3.66128 1.28731 0
M  V30 559 H 50.0284 -3.5358 -1.17526 0
M  V30 560 H 50.1414 -4.78523 0.235146 0
M  V30 561 H 48.5054 -2.54684 0.0282722 0
M  V30 562 H 49.2884 -3.02077 1.63109 0
M  V30 563 N 51.7335 -0.305618 -1.54608 0
M  V30 564 C 52.6805 0.568421 -2.23691 0
M  V30 565 C 53.6505 1.12592 -1.22116 0
M  V30 566 O 54.8355 1.16959 -1.50749 0
M  V30 567 C 51.9755 1.7322 -2.98477 0
M  V30 568 C 51.0885 1.20566 -4.14835 0
M  V30 569 C 50.2235 2.33368 -4.77193 0
M  V30 570 C 49.2625 1.7787 -5.85686 0
M  V30 571 N 48.3995 2.84263 -6.4198 0
M  V30 572 H 53.2395 -0.0272867 -2.97988 0
M  V30 573 H 50.7765 -0.0252363 -1.47078 0
M  V30 574 H 52.7345 2.41675 -3.40072 0
M  V30 575 H 51.3645 2.29947 -2.26548 0
M  V30 576 H 50.4165 0.413223 -3.78149 0
M  V30 577 H 51.7285 0.759417 -4.92985 0
M  V30 578 H 50.8825 3.09761 -5.21664 0
M  V30 579 H 49.6215 2.8132 -3.98385 0
M  V30 580 H 48.6265 0.99968 -5.40635 0
M  V30 581 H 49.8515 1.30816 -6.66381 0
M  V30 582 H 47.7975 3.31541 -5.66053 0
M  V30 583 H 47.7145 2.44149 -7.15491 0
M  V30 584 H 48.9825 3.6054 -6.91109 0
M  V30 585 N 53.2116 1.57565 -0.0334293 0
M  V30 586 C 54.6226 1.79746 0.504798 0
M  V30 587 C 54.9736 0.944091 1.71992 0
M  V30 588 O 54.0986 0.155694 2.15839 0
M  V30 589 C 54.6936 3.25997 0.922567 0
M  V30 590 C 53.2526 3.49159 1.40588 0
M  V30 591 C 52.3996 2.74785 0.372633 0
M  V30 592 H 55.3506 1.56565 -0.259436 0
M  V30 593 H 55.3716 3.35945 1.78666 0
M  V30 594 H 54.8836 3.88081 0.0379825 0
M  V30 595 H 52.9846 2.92332 2.31025 0
M  V30 596 H 53.0976 4.57873 1.41028 0
M  V30 597 H 51.4616 2.40391 0.841672 0
M  V30 598 H 52.2446 3.39587 -0.503559 0
M  V30 599 N 54.6897 -0.239769 1.55765 0
M  V30 600 C 55.9197 -0.982743 1.8173 0
M  V30 601 C 56.3277 -1.7917 0.607835 0
M  V30 602 O 55.6707 -1.78525 -0.432973 0
M  V30 603 C 55.7327 -1.96332 3.01155 0
M  V30 604 C 55.3967 -1.34062 4.36894 0
M  V30 605 C 56.3937 -0.739539 5.14613 0
M  V30 606 C 54.0787 -1.35784 4.83599 0
M  V30 607 C 56.0727 -0.163989 6.37189 0
M  V30 608 C 53.7597 -0.778441 6.06122 0
M  V30 609 C 54.7577 -0.182548 6.82756 0
M  V30 610 O 54.4457 0.387887 8.02964 0
M  V30 611 H 54.1777 -0.294481 0.608487 0
M  V30 612 H 56.7317 -0.26572 2.03674 0
M  V30 613 H 54.9617 -2.71884 2.74984 0
M  V30 614 H 56.6507 -2.57032 3.14149 0
M  V30 615 H 57.4167 -0.718687 4.79646 0
M  V30 616 H 53.2957 -1.81105 4.23936 0
M  V30 617 H 56.8397 0.301753 6.96947 0
M  V30 618 H 52.7367 -0.796645 6.40565 0
M  V30 619 H 53.5047 0.28044 8.18019 0
M  V30 620 N 56.1678 -1.49265 -0.50573 0
M  V30 621 C 57.5788 -1.51769 -1.08734 0
M  V30 622 C 57.9298 -0.301192 -1.93874 0
M  V30 623 O 57.0548 0.589456 -2.08217 0
M  V30 624 C 57.6498 -2.75017 -1.97867 0
M  V30 625 C 56.2088 -2.80314 -2.51199 0
M  V30 626 C 55.3558 -2.4562 -1.28709 0
M  V30 627 H 58.3068 -1.56031 -0.289855 0
M  V30 628 H 58.3278 -2.5491 -2.82491 0
M  V30 629 H 57.8398 -3.63539 -1.35873 0
M  V30 630 H 55.9408 -1.96061 -3.16845 0
M  V30 631 H 56.0538 -3.82366 -2.88675 0
M  V30 632 H 54.4178 -1.97297 -1.61078 0
M  V30 633 H 55.2008 -3.36411 -0.6843 0
M  V30 634 N 57.6459 0.756429 -1.3826 0
M  V30 635 C 58.5939 1.89149 -1.35372 0
M  V30 636 C 59.5879 1.67691 -0.24004 0
M  V30 637 O 60.7939 1.75294 -0.408919 0
M  V30 638 H 57.1689 0.622271 -0.422236 0
M  V30 639 H 59.1399 1.88701 -2.31159 0
M  V30 640 C 57.8889 3.26599 -1.19284 0
M  V30 641 H 57.2119 3.43695 -2.0424 0
M  V30 642 H 58.6519 4.06274 -1.21316 0
M  V30 643 C 57.1109 3.3675 0.100454 0
M  V30 644 O 57.6409 3.86951 1.07851 0
M  V30 645 N 55.8469 2.90179 0.15633 0
M  V30 646 H 55.3939 2.49517 -0.640253 0
M  V30 647 H 55.3519 2.97352 1.02123 0
M  V30 648 N 59.124 1.23083 0.984299 0
M  V30 649 C 60.072 1.00593 2.09723 0
M  V30 650 C 61.066 -0.0538014 1.69315 0
M  V30 651 O 62.272 0.0993719 1.79725 0
M  V30 652 H 58.647 0.30817 0.685956 0
M  V30 653 H 60.618 1.95012 2.2586 0
M  V30 654 C 59.367 0.609601 3.42314 0
M  V30 655 H 58.69 1.41675 3.73856 0
M  V30 656 H 60.13 0.491726 4.21139 0
M  V30 657 C 58.589 -0.681745 3.2993 0
M  V30 658 O 59.119 -1.73192 3.62446 0
M  V30 659 N 57.325 -0.656178 2.83095 0
M  V30 660 H 56.872 0.198759 2.56832 0
M  V30 661 H 56.83 -1.52044 2.75191 0
M  V30 662 N 60.6021 -1.18246 1.0419 0
M  V30 663 C 61.8491 -1.88257 0.746017 0
M  V30 664 C 62.1771 -1.80429 -0.726331 0
M  V30 665 O 61.4321 -1.2 -1.54591 0
M  V30 666 C 61.7311 -3.38082 1.15911 0
M  V30 667 C 61.3971 -3.66114 2.63195 0
M  V30 668 C 60.0591 -3.73474 3.03432 0
M  V30 669 C 62.4111 -3.78398 3.5842 0
M  V30 670 C 59.7391 -3.90599 4.37778 0
M  V30 671 C 62.0911 -3.97039 4.92487 0
M  V30 672 C 60.7551 -4.02635 5.32392 0
M  V30 673 H 60.0251 -0.688883 0.272987 0
M  V30 674 H 62.6721 -1.3995 1.30715 0
M  V30 675 H 60.9771 -3.88377 0.516806 0
M  V30 676 H 62.6741 -3.90596 0.907516 0
M  V30 677 H 59.2641 -3.61003 2.3103 0
M  V30 678 H 63.4481 -3.72042 3.28479 0
M  V30 679 H 58.7041 -3.93175 4.68213 0
M  V30 680 H 62.8781 -4.05486 5.66175 0
M  V30 681 H 60.5051 -4.15657 6.36501 0
M  V30 682 N 62.0802 -0.821533 -1.34494 0
M  V30 683 C 62.9902 -0.244355 -2.33324 0
M  V30 684 C 64.0062 0.620527 -1.62559 0
M  V30 685 O 65.1822 0.528754 -1.94335 0
M  V30 686 C 62.2472 0.585368 -3.41723 0
M  V30 687 C 61.3082 -0.301752 -4.28238 0
M  V30 688 C 60.5412 0.488466 -5.3146 0
M  V30 689 O 60.7642 1.72186 -5.4379 0
M  V30 690 O 59.6982 -0.12848 -6.01763 0
M  V30 691 H 63.5242 -1.06231 -2.84515 0
M  V30 692 H 61.1092 -0.583645 -1.37528 0
M  V30 693 H 62.9912 1.05747 -4.07916 0
M  V30 694 H 61.6662 1.38068 -2.92778 0
M  V30 695 H 60.5732 -0.821315 -3.64973 0
M  V30 696 H 61.9062 -1.06138 -4.8062 0
M  V30 697 N 63.5583 1.46682 -0.576371 0
M  V30 698 C 64.7863 2.06798 -0.0649635 0
M  V30 699 C 65.2013 1.42612 1.23723 0
M  V30 700 O 64.5583 0.529203 1.74659 0
M  V30 701 C 64.6093 3.6132 0.114202 0
M  V30 702 O 64.3303 4.23104 -1.13644 0
M  V30 703 C 65.8313 4.38349 0.66069 0
M  V30 704 H 63.0513 0.668778 -0.0545616 0
M  V30 705 H 65.5953 1.88404 -0.795237 0
M  V30 706 H 63.7503 3.79162 0.794673 0
M  V30 707 H 64.1643 5.15894 -0.946253 0
M  V30 708 H 65.6383 5.47081 0.73526 0
M  V30 709 H 66.1153 4.05953 1.67627 0
M  V30 710 H 66.7213 4.25297 0.0152951 0
M  V30 711 N 65.0364 0.313813 1.54444 0
M  V30 712 C 66.2644 -0.293918 2.04802 0
M  V30 713 C 66.6794 -1.46537 1.19047 0
M  V30 714 O 66.0364 -1.81182 0.218939 0
M  V30 715 C 66.0874 -0.737806 3.53891 0
M  V30 716 O 65.8084 0.387038 4.36387 0
M  V30 717 C 67.3094 -1.40936 4.203 0
M  V30 718 H 64.5294 -0.0620057 0.668129 0
M  V30 719 H 67.0734 0.457169 1.99324 0
M  V30 720 H 65.2284 -1.43889 3.59687 0
M  V30 721 H 65.6424 0.0391274 5.24485 0
M  V30 722 H 67.1164 -1.67099 5.26101 0
M  V30 723 H 67.5934 -2.35355 3.70816 0
M  V30 724 H 68.1994 -0.751117 4.18615 0
M  V30 725 N 66.5145 -1.57545 0.0417849 0
M  V30 726 C 67.7425 -1.96624 -0.643928 0
M  V30 727 C 68.1575 -0.918897 -1.64929 0
M  V30 728 O 67.5145 0.0979323 -1.82237 0
M  V30 729 C 67.5655 -3.35781 -1.33914 0
M  V30 730 O 67.2865 -4.365 -0.374048 0
M  V30 731 C 68.7875 -3.89566 -2.1155 0
M  V30 732 H 66.0075 -0.647316 -0.176702 0
M  V30 733 H 68.5515 -2.04229 0.105304 0
M  V30 734 H 66.7065 -3.29357 -2.03968 0
M  V30 735 H 67.1205 -5.17248 -0.869179 0
M  V30 736 H 68.5945 -4.89242 -2.55628 0
M  V30 737 H 69.0715 -3.24488 -2.9598 0
M  V30 738 H 69.6775 -3.99298 -1.46427 0
M  V30 739 N 67.9926 0.231505 -1.5589 0
M  V30 740 C 69.2386 0.95877 -1.78705 0
M  V30 741 C 69.5716 1.8438 -0.609725 0
M  V30 742 O 68.8466 1.90521 0.391426 0
M  V30 743 C 69.1296 1.8062 -3.11526 0
M  V30 744 C 68.9826 0.948328 -4.39689 0
M  V30 745 C 70.3016 2.78585 -3.40703 0
M  V30 746 H 67.4206 0.347129 -0.650131 0
M  V30 747 H 70.0626 0.228259 -1.88624 0
M  V30 748 H 68.2126 2.42902 -3.03201 0
M  V30 749 H 69.8846 0.343016 -4.60023 0
M  V30 750 H 68.1276 0.253314 -4.3306 0
M  V30 751 H 68.7986 1.57543 -5.29041 0
M  V30 752 H 71.2746 2.26439 -3.49091 0
M  V30 753 H 70.1506 3.34988 -4.34826 0
M  V30 754 H 70.4116 3.55825 -2.62375 0
M  V30 755 N 69.4707 1.49531 0.497807 0
M  V30 756 C 70.7197 1.58426 1.24837 0
M  V30 757 C 71.0327 0.277643 1.93619 0
M  V30 758 O 72.2387 0.24517 2.70391 0
M  V30 759 C 70.6947 2.79538 2.26686 0
M  V30 760 C 70.3027 4.16971 1.63828 0
M  V30 761 C 72.0467 2.97764 3.0255 0
M  V30 762 C 69.9537 5.29301 2.63807 0
M  V30 763 H 68.8837 0.58989 0.469623 0
M  V30 764 H 71.5347 1.75923 0.521857 0
M  V30 765 H 69.9167 2.55542 3.02514 0
M  V30 766 H 71.0907 4.51116 0.939711 0
M  V30 767 H 69.4057 4.04129 1.00342 0
M  V30 768 H 72.0027 3.78856 3.77323 0
M  V30 769 H 72.3457 2.08448 3.60354 0
M  V30 770 H 72.8787 3.21815 2.33838 0
M  V30 771 H 69.6177 6.20687 2.10779 0
M  V30 772 H 69.1377 4.99606 3.31894 0
M  V30 773 H 70.8167 5.58768 3.2617 0
M  V30 774 N 70.9488 -0.749086 1.3866 0
M  V30 775 C 72.1768 -1.53834 1.38358 0
M  V30 776 C 72.5918 -1.88783 -0.0255219 0
M  V30 777 O 71.9488 -1.53101 -0.993292 0
M  V30 778 C 71.9998 -2.83468 2.2434 0
M  V30 779 O 71.7208 -2.50008 3.5976 0
M  V30 780 C 73.2218 -3.7758 2.32267 0
M  V30 781 H 70.4418 -0.47585 0.473083 0
M  V30 782 H 72.9858 -0.926726 1.82297 0
M  V30 783 H 71.1408 -3.40995 1.83851 0
M  V30 784 H 71.5548 -3.33182 4.05081 0
M  V30 785 H 73.0288 -4.65478 2.96706 0
M  V30 786 H 73.5058 -4.18334 1.33765 0
M  V30 787 H 74.1118 -3.25976 2.73166 0
M  V30 788 N 72.4269 -1.23603 -0.977757 0
M  V30 789 C 73.6729 -1.07129 -1.72195 0
M  V30 790 C 74.0059 0.390501 -1.90233 0
M  V30 791 O 73.2809 1.28902 -1.45653 0
M  V30 792 C 73.5639 -1.80031 -3.11867 0
M  V30 793 C 73.4169 -3.33899 -3.01383 0
M  V30 794 C 74.7359 -1.56492 -4.11337 0
M  V30 795 H 71.8549 -0.390571 -0.624999 0
M  V30 796 H 74.4969 -1.52142 -1.13811 0
M  V30 797 H 72.6469 -1.41768 -3.6171 0
M  V30 798 H 74.3189 -3.81699 -2.59043 0
M  V30 799 H 72.5619 -3.62796 -2.37827 0
M  V30 800 H 73.2329 -3.801 -4.00285 0
M  V30 801 H 75.7089 -1.89757 -3.70313 0
M  V30 802 H 74.5849 -2.09973 -5.07151 0
M  V30 803 H 74.8459 -0.500874 -4.39254 0
M  V30 804 N 73.905 1.17692 -1.04816 0
M  V30 805 C 75.316 1.69501 -0.782698 0
M  V30 806 C 75.667 1.83456 0.695577 0
M  V30 807 O 74.792 1.51942 1.54086 0
M  V30 808 C 75.387 3.07874 -1.41419 0
M  V30 809 C 73.946 3.56864 -1.19686 0
M  V30 810 C 73.093 2.3322 -1.50012 0
M  V30 811 H 76.044 1.02262 -1.2136 0
M  V30 812 H 76.065 3.71528 -0.821428 0
M  V30 813 H 75.577 2.97685 -2.49009 0
M  V30 814 H 73.678 3.72337 -0.140043 0
M  V30 815 H 73.791 4.39851 -1.89916 0
M  V30 816 H 72.155 2.37501 -0.920071 0
M  V30 817 H 72.938 2.25644 -2.58727 0
M  V30 818 N 75.3831 0.828654 1.34056 0
M  V30 819 C 76.6111 0.43262 2.02326 0
M  V30 820 C 77.0261 -0.963147 1.62385 0
M  V30 821 O 76.3831 -1.62425 0.832121 0
M  V30 822 C 76.4341 0.53182 3.57567 0
M  V30 823 O 76.1551 1.87258 3.96063 0
M  V30 824 C 77.6561 0.131422 4.43105 0
M  V30 825 H 74.8761 0.172923 0.648335 0
M  V30 826 H 77.4201 1.1184 1.71208 0
M  V30 827 H 75.5751 -0.105938 3.87255 0
M  V30 828 H 75.9891 1.85087 4.90758 0
M  V30 829 H 77.4631 0.251904 5.51425 0
M  V30 830 H 77.9401 -0.925645 4.29335 0
M  V30 831 H 78.5461 0.743207 4.18756 0
M  V30 832 N 76.8612 -1.46375 0.584142 0
M  V30 833 C 78.1092 -2.01978 0.0701287 0
M  V30 834 C 78.4302 -1.4579 -1.295 0
M  V30 835 O 77.7002 -0.64314 -1.85042 0
M  V30 836 H 76.2802 -0.746648 0.0229345 0
M  V30 837 H 78.9422 -1.79461 0.760245 0
M  V30 838 H 78.0382 -3.121 0.0022064 0
M  V30 839 N 78.3393 -0.321999 -1.54275 0
M  V30 840 C 79.5693 0.282642 -2.04658 0
M  V30 841 C 79.9773 1.46453 -1.19784 0
M  V30 842 O 79.3203 1.82367 -0.220932 0
M  V30 843 C 79.3823 0.781857 -3.50895 0
M  V30 844 C 79.0463 -0.277517 -4.56157 0
M  V30 845 C 80.0433 -1.11307 -5.07845 0
M  V30 846 C 77.7283 -0.425256 -5.00497 0
M  V30 847 C 79.7223 -2.08211 -6.02434 0
M  V30 848 C 77.4093 -1.39771 -5.94901 0
M  V30 849 C 78.4073 -2.2246 -6.45756 0
M  V30 850 O 78.0953 -3.18054 -7.38307 0
M  V30 851 H 77.8273 0.0622636 -0.673126 0
M  V30 852 H 80.3813 -0.465792 -2.00049 0
M  V30 853 H 78.6113 1.58118 -3.52896 0
M  V30 854 H 80.3003 1.30467 -3.84361 0
M  V30 855 H 81.0663 -1.00991 -4.74369 0
M  V30 856 H 76.9453 0.20847 -4.60528 0
M  V30 857 H 80.4893 -2.72791 -6.42052 0
M  V30 858 H 76.3863 -1.50152 -6.27794 0
M  V30 859 H 77.1543 -3.13275 -7.56175 0
M  V30 860 N 79.8174 1.5752 -0.0501392 0
M  V30 861 C 81.2334 1.56631 0.306402 0
M  V30 862 C 81.4334 1.0577 1.71508 0
M  V30 863 O 80.4894 0.713837 2.422 0
M  V30 864 C 81.8024 3.00393 0.135811 0
M  V30 865 C 83.3504 3.12315 0.206993 0
M  V30 866 C 83.8254 4.57954 0.064944 0
M  V30 867 N 85.3164 4.63041 0.121254 0
M  V30 868 C 86.0514 5.73389 0.0354381 0
M  V30 869 N 85.5474 6.92724 -0.102666 0
M  V30 870 N 87.3404 5.62026 0.090946 0
M  V30 871 H 79.4914 1.88903 -0.971046 0
M  V30 872 H 81.7544 0.869876 -0.376855 0
M  V30 873 H 81.4604 3.41635 -0.835384 0
M  V30 874 H 81.3344 3.66373 0.897275 0
M  V30 875 H 83.7214 2.70973 1.16866 0
M  V30 876 H 83.8024 2.49016 -0.585208 0
M  V30 877 H 83.4464 4.99981 -0.893394 0
M  V30 878 H 83.3764 5.19258 0.876277 0
M  V30 879 H 85.8674 3.77216 0.227284 0
M  V30 880 H 86.1804 7.72633 -0.160882 0
M  V30 881 H 84.5254 6.94864 -0.137737 0
M  V30 882 H 87.7164 4.67684 0.197388 0
M  V30 883 H 87.8894 6.47997 0.0206089 0
M  V30 884 N 81.2955 -0.223234 1.56011 0
M  V30 885 C 82.5415 -0.949279 1.79211 0
M  V30 886 C 82.8745 -1.84054 0.619494 0
M  V30 887 O 82.1495 -1.90726 -0.381317 0
M  V30 888 C 82.4325 -1.78965 3.12479 0
M  V30 889 C 82.2855 -0.924997 4.40186 0
M  V30 890 C 83.6045 -2.76774 3.42175 0
M  V30 891 H 80.7235 -0.343676 0.651963 0
M  V30 892 H 83.3655 -0.218253 1.88742 0
M  V30 893 H 81.5155 -2.41291 3.04485 0
M  V30 894 H 83.1875 -0.318615 4.60198 0
M  V30 895 H 81.4305 -0.230344 4.33188 0
M  V30 896 H 82.1015 -1.54735 5.29869 0
M  V30 897 H 84.5775 -2.24584 3.50287 0
M  V30 898 H 83.4535 -3.32678 4.36597 0
M  V30 899 H 83.7145 -3.54429 2.64258 0
M  V30 900 N 82.7736 -1.49793 -0.48987 0
M  V30 901 C 83.7206 -1.67281 -1.59014 0
M  V30 902 C 84.6906 -0.514177 -1.57941 0
M  V30 903 O 85.8756 -0.742533 -1.75759 0
M  V30 904 C 83.0156 -1.75569 -2.97102 0
M  V30 905 C 82.1286 -3.0281 -3.08107 0
M  V30 906 C 81.2636 -3.02008 -4.36995 0
M  V30 907 C 80.3026 -4.23782 -4.41673 0
M  V30 908 N 79.4396 -4.20826 -5.62005 0
M  V30 909 H 84.2796 -2.61224 -1.43409 0
M  V30 910 H 81.8166 -1.29508 -0.697565 0
M  V30 911 H 83.7746 -1.78354 -3.77155 0
M  V30 912 H 82.4046 -0.850827 -3.11385 0
M  V30 913 H 81.4566 -3.09584 -2.21047 0
M  V30 914 H 82.7686 -3.92801 -3.07423 0
M  V30 915 H 81.9226 -3.03418 -5.25378 0
M  V30 916 H 80.6616 -2.09815 -4.4026 0
M  V30 917 H 79.6666 -4.22604 -3.5169 0
M  V30 918 H 80.8916 -5.17181 -4.40115 0
M  V30 919 H 78.8376 -3.31476 -5.66091 0
M  V30 920 H 78.7546 -5.04564 -5.62984 0
M  V30 921 H 80.0226 -4.26355 -6.52565 0
M  V30 922 N 84.2517 0.741722 -1.39055 0
M  V30 923 C 85.1817 1.869 -1.39966 0
M  V30 924 C 86.1627 1.6804 -0.26392 0
M  V30 925 O 87.3477 1.88458 -0.468755 0
M  V30 926 C 84.4777 3.24572 -1.23574 0
M  V30 927 C 83.4317 3.58056 -2.34477 0
M  V30 928 C 82.7577 4.94593 -2.0318 0
M  V30 929 C 84.0577 3.61716 -3.76774 0
M  V30 930 H 85.7517 1.86395 -2.34302 0
M  V30 931 H 83.2977 0.895361 -1.1278 0
M  V30 932 H 85.2507 4.031 -1.22834 0
M  V30 933 H 83.9747 3.25587 -0.257045 0
M  V30 934 H 82.6337 2.81854 -2.34423 0
M  V30 935 H 82.2817 4.92181 -1.03765 0
M  V30 936 H 81.9817 5.17964 -2.77465 0
M  V30 937 H 83.5057 5.75486 -2.04079 0
M  V30 938 H 84.9197 4.30335 -3.78794 0
M  V30 939 H 83.3167 3.96603 -4.50362 0
M  V30 940 H 84.3867 2.61672 -4.08235 0
M  V30 941 N 85.7298 1.2412 0.971189 0
M  V30 942 C 86.9758 1.08041 1.71625 0
M  V30 943 C 87.3088 -0.380407 1.90438 0
M  V30 944 O 86.5838 -1.28127 1.46334 0
M  V30 945 C 86.8668 1.81682 3.10908 0
M  V30 946 C 86.7198 3.35493 2.99608 0
M  V30 947 C 88.0388 1.58671 4.10501 0
M  V30 948 H 85.1578 0.39388 0.622919 0
M  V30 949 H 87.7998 1.52743 1.13003 0
M  V30 950 H 85.9498 1.43684 3.60953 0
M  V30 951 H 87.6218 3.83068 2.57015 0
M  V30 952 H 85.8648 3.64052 2.35899 0
M  V30 953 H 86.5358 3.82217 3.98264 0
M  V30 954 H 89.0118 1.91719 3.69301 0
M  V30 955 H 87.8878 2.1266 5.06031 0
M  V30 956 H 88.1488 0.524161 4.38982 0
M  V30 957 N 87.2079 -1.17134 1.05439 0
M  V30 958 C 88.4549 -1.87456 0.765942 0
M  V30 959 C 88.7829 -1.81189 -0.707153 0
M  V30 960 O 88.0379 -1.21633 -1.5331 0
M  V30 961 C 88.3369 -3.36833 1.19491 0
M  V30 962 C 88.0029 -3.63301 2.67063 0
M  V30 963 C 86.6649 -3.70234 3.07376 0
M  V30 964 C 89.0169 -3.74575 3.62413 0
M  V30 965 C 86.3449 -3.85933 4.41896 0
M  V30 966 C 88.6969 -3.91793 4.9667 0
M  V30 967 C 87.3609 -3.96966 5.36633 0
M  V30 968 H 86.6309 -0.685948 0.280278 0
M  V30 969 H 89.2779 -1.38556 1.32192 0
M  V30 970 H 87.5829 -3.87807 0.557969 0
M  V30 971 H 89.2799 -3.89611 0.948893 0
M  V30 972 H 85.8699 -3.58532 2.34846 0
M  V30 973 H 90.0539 -3.68537 3.32406 0
M  V30 974 H 85.3099 -3.88187 4.72357 0
M  V30 975 H 89.4839 -3.99458 5.70444 0
M  V30 976 H 87.1109 -4.08883 6.40874 0
M  V30 977 N 88.686 -0.835752 -1.33615 0
M  V30 978 C 89.618 -0.224151 -2.28101 0
M  V30 979 C 90.631 0.593331 -1.51603 0
M  V30 980 O 91.82 0.420911 -1.73466 0
M  V30 981 C 88.92 0.703309 -3.31522 0
M  V30 982 C 88.093 -0.0741528 -4.37337 0
M  V30 983 C 87.152 0.776176 -5.20444 0
M  V30 984 O 86.178 0.216506 -5.68788 0
M  V30 985 N 87.38 2.09401 -5.41416 0
M  V30 986 H 90.145 -1.03598 -2.81225 0
M  V30 987 H 87.706 -0.69392 -1.46275 0
M  V30 988 H 89.698 1.27707 -3.84022 0
M  V30 989 H 88.268 1.41585 -2.78698 0
M  V30 990 H 87.488 -0.82928 -3.85378 0
M  V30 991 H 88.776 -0.608863 -5.05144 0
M  V30 992 H 88.174 2.57229 -5.03835 0
M  V30 993 H 86.731 2.61633 -5.96985 0
M  V30 994 N 90.1641 1.46063 -0.591896 0
M  V30 995 C 91.0961 2.28539 0.174001 0
M  V30 996 C 92.1091 1.39047 0.846753 0
M  V30 997 O 93.2981 1.63564 0.714774 0
M  V30 998 C 90.3981 3.14347 1.26645 0
M  V30 999 C 89.5711 4.32021 0.683856 0
M  V30 1000 C 88.6301 4.99157 1.66518 0
M  V30 1001 O 87.6561 5.56458 1.19763 0
M  V30 1002 N 88.8581 4.97005 2.99943 0
M  V30 1003 H 91.6231 2.94911 -0.533633 0
M  V30 1004 H 89.1841 1.56077 -0.430294 0
M  V30 1005 H 91.1761 3.56125 1.92242 0
M  V30 1006 H 89.7461 2.49988 1.87682 0
M  V30 1007 H 88.9661 3.93915 -0.1498 0
M  V30 1008 H 90.2541 5.08059 0.274567 0
M  V30 1009 H 89.6521 4.51714 3.40545 0
M  V30 1010 H 88.2091 5.42696 3.61004 0
M  V30 1011 N 91.6422 0.330177 1.54103 0
M  V30 1012 C 92.8892 -0.270405 2.00686 0
M  V30 1013 C 93.2172 -1.51621 1.21825 0
M  V30 1014 O 92.4722 -1.93536 0.29025 0
M  V30 1015 C 92.7712 -0.643134 3.51566 0
M  V30 1016 C 92.4372 0.504251 4.48072 0
M  V30 1017 C 91.0992 0.819163 4.74176 0
M  V30 1018 C 93.4512 1.27465 5.05373 0
M  V30 1019 C 90.7792 1.90708 5.5484 0
M  V30 1020 C 93.1312 2.35271 5.87223 0
M  V30 1021 C 91.7952 2.67336 6.11627 0
M  V30 1022 H 91.0652 -0.0989482 0.734364 0
M  V30 1023 H 93.7122 0.455324 1.86008 0
M  V30 1024 H 92.0172 -1.44938 3.64006 0
M  V30 1025 H 93.7142 -1.11949 3.85056 0
M  V30 1026 H 90.3042 0.248733 4.27878 0
M  V30 1027 H 94.4882 1.04462 4.85182 0
M  V30 1028 H 89.7442 2.15991 5.71977 0
M  V30 1029 H 93.9182 2.95405 6.30641 0
M  V30 1030 H 91.5452 3.51763 6.73919 0
M  V30 1031 N 93.1203 -1.57491 0.0584922 0
M  V30 1032 C 94.3973 -1.84346 -0.653918 0
M  V30 1033 C 94.7773 -0.948355 -1.88599 0
M  V30 1034 O 94.1253 -0.0112403 -2.28497 0
M  V30 1035 C 94.3353 -3.34239 -1.00425 0
M  V30 1036 C 95.6833 -4.01431 -1.38342 0
M  V30 1037 O 96.7073 -3.38907 -1.09637 0
M  V30 1038 O 95.5663 -5.11683 -1.91943 0
M  V30 1039 H 92.6603 -0.761112 -0.323478 0
M  V30 1040 H 95.2063 -1.6947 0.0884125 0
M  V30 1041 H 93.9783 -3.91089 -0.128625 0
M  V30 1042 H 93.6013 -3.54329 -1.80378 0
M  V30 1043 N 94.5984 0.214957 -1.56127 0
M  V30 1044 C 95.5284 1.2695 -1.95974 0
M  V30 1045 C 96.5094 1.48539 -0.828868 0
M  V30 1046 O 97.6944 1.60611 -1.09168 0
M  V30 1047 C 94.8244 2.61794 -2.28214 0
M  V30 1048 C 93.7784 2.54851 -3.43853 0
M  V30 1049 C 93.1044 3.93785 -3.61715 0
M  V30 1050 C 94.4044 2.09065 -4.78632 0
M  V30 1051 H 96.0984 0.93846 -2.84312 0
M  V30 1052 H 93.6444 0.449996 -1.36788 0
M  V30 1053 H 95.5974 3.35731 -2.54682 0
M  V30 1054 H 94.3214 2.96599 -1.36736 0
M  V30 1055 H 92.9804 1.8337 -3.17444 0
M  V30 1056 H 92.6284 4.25908 -2.67602 0
M  V30 1057 H 92.3284 3.90019 -4.39498 0
M  V30 1058 H 93.8524 4.69374 -3.90539 0
M  V30 1059 H 95.2664 2.7275 -5.04262 0
M  V30 1060 H 93.6634 2.16346 -5.59745 0
M  V30 1061 H 94.7334 1.04315 -4.73547 0
M  V30 1062 N 96.0765 1.50051 0.48192 0
M  V30 1063 C 96.9865 1.7089 1.60728 0
M  V30 1064 C 98.0025 0.591788 1.63627 0
M  V30 1065 O 99.1785 0.868817 1.81696 0
M  V30 1066 C 96.2435 1.78855 2.97005 0
M  V30 1067 C 95.3045 3.02537 3.04581 0
M  V30 1068 C 94.5375 3.10112 4.34357 0
M  V30 1069 O 94.7605 2.24765 5.24249 0
M  V30 1070 O 93.6945 4.02747 4.47301 0
M  V30 1071 H 97.5205 2.66264 1.46072 0
M  V30 1072 H 95.1055 1.34018 0.660264 0
M  V30 1073 H 96.9875 1.86336 3.77964 0
M  V30 1074 H 95.6625 0.866628 3.11883 0
M  V30 1075 H 94.5695 3.00563 2.22739 0
M  V30 1076 H 95.9025 3.94272 2.94636 0
M  V30 1077 N 97.5546 -0.734337 1.39446 0
M  V30 1078 C 98.9656 -1.31264 1.32766 0
M  V30 1079 C 99.3166 -1.96198 -0.00767497 0
M  V30 1080 O 98.4416 -1.96346 -0.909796 0
M  V30 1081 C 99.0366 -2.38682 2.4045 0
M  V30 1082 C 97.5956 -2.92184 2.37288 0
M  V30 1083 C 96.7426 -1.6576 2.22304 0
M  V30 1084 H 99.6936 -0.531799 1.49525 0
M  V30 1085 H 99.7146 -3.19087 2.07276 0
M  V30 1086 H 99.2266 -1.91392 3.37625 0
M  V30 1087 H 97.3276 -3.43752 1.43754 0
M  V30 1088 H 97.4406 -3.45253 3.3217 0
M  V30 1089 H 95.8046 -1.9012 1.69489 0
M  V30 1090 H 96.5876 -1.20521 3.21449 0
M  V30 1091 N 99.0327 -1.24633 -0.964593 0
M  V30 1092 C 100.258 -1.11596 -1.74818 0
M  V30 1093 C 100.683 0.32723 -1.85232 0
M  V30 1094 O 100.041 1.23695 -1.32549 0
M  V30 1095 C 100.089 -1.76397 -3.1451 0
M  V30 1096 O 99.1927 -1.03685 -3.99153 0
M  V30 1097 H 98.5337 -0.390196 -0.537255 0
M  V30 1098 H 101.064 -1.65002 -1.20977 0
M  V30 1099 H 101.074 -1.8228 -3.65018 0
M  V30 1100 H 99.7487 -2.81401 -3.06246 0
M  V30 1101 H 98.3257 -1.05611 -3.57632 0
M  V30 1102 N 100.511 1.16574 -1.06058 0
M  V30 1103 C 101.421 2.2452 -0.680282 0
M  V30 1104 C 102.437 1.71348 0.302604 0
M  V30 1105 O 103.613 2.00822 0.152513 0
M  V30 1106 C 100.678 3.46629 -0.0700315 0
M  V30 1107 C 99.7388 4.14849 -1.10448 0
M  V30 1108 C 98.9718 5.31129 -0.523256 0
M  V30 1109 O 99.1948 5.66514 0.664709 0
M  V30 1110 O 98.1288 5.88526 -1.26179 0
M  V30 1111 H 101.955 2.59355 -1.58015 0
M  V30 1112 H 99.5398 1.24043 -0.832694 0
M  V30 1113 H 101.422 4.20543 0.268667 0
M  V30 1114 H 100.097 3.13573 0.803353 0
M  V30 1115 H 99.0038 3.42916 -1.49532 0
M  V30 1116 H 100.337 4.51954 -1.94931 0
M  V30 1117 N 101.989 0.842826 1.3317 0
M  V30 1118 C 103.237 0.439577 1.97262 0
M  V30 1119 C 103.558 -1.00548 1.67078 0
M  V30 1120 O 102.828 -1.70098 0.971779 0
M  V30 1121 H 101.408 0.159558 0.72976 0
M  V30 1122 H 104.07 1.07665 1.62463 0
M  V30 1123 H 103.166 0.574886 3.0676 0
M  V30 1124 N 103.467 -1.45747 0.599634 0
M  V30 1125 C 104.707 -2.04181 0.0946309 0
M  V30 1126 C 105.071 -1.45895 -1.24815 0
M  V30 1127 O 106.272 -1.95633 -1.8434 0
M  V30 1128 C 104.543 -3.57368 0.047581 0
M  V30 1129 S 106.102 -4.36997 -0.397387 0
M  V30 1130 H 102.92 -0.70953 0.0456954 0
M  V30 1131 H 105.522 -1.78564 0.795946 0
M  V30 1132 H 104.226 -3.97303 1.02852 0
M  V30 1133 H 103.757 -3.87549 -0.675977 0
M  V30 1134 H 105.772 -4.68012 -1.64862 0
M  V30 1135 N 104.945 -0.338344 -1.53925 0
M  V30 1136 C 106.192 0.259758 -2.00827 0
M  V30 1137 C 106.52 1.50973 -1.22628 0
M  V30 1138 O 105.775 1.93379 -0.300509 0
M  V30 1139 C 106.074 0.62448 -3.51902 0
M  V30 1140 C 105.74 -0.528006 -4.47798 0
M  V30 1141 C 104.402 -0.844298 -4.73735 0
M  V30 1142 C 106.754 -1.30143 -5.0469 0
M  V30 1143 C 104.082 -1.93648 -5.53821 0
M  V30 1144 C 106.434 -2.38382 -5.85967 0
M  V30 1145 C 105.098 -2.70576 -6.10201 0
M  V30 1146 H 104.368 0.0950523 -0.734878 0
M  V30 1147 H 107.015 -0.465182 -1.85764 0
M  V30 1148 H 105.32 1.43006 -3.64769 0
M  V30 1149 H 107.017 1.09905 -3.85645 0
M  V30 1150 H 103.607 -0.271421 -4.2774 0
M  V30 1151 H 107.791 -1.07033 -4.84621 0
M  V30 1152 H 103.047 -2.19021 -5.70824 0
M  V30 1153 H 107.221 -2.98746 -6.29066 0
M  V30 1154 H 104.848 -3.55333 -6.72044 0
M  V30 1155 N 106.423 1.57458 -0.0668435 0
M  V30 1156 C 107.653 1.97337 0.611677 0
M  V30 1157 C 108.061 0.943744 1.63982 0
M  V30 1158 O 107.404 -0.0785584 1.83532 0
M  V30 1159 C 107.466 3.33511 1.34205 0
M  V30 1160 C 107.13 4.54598 0.467941 0
M  V30 1161 C 108.127 5.19186 -0.272439 0
M  V30 1162 C 105.812 5.0075 0.39427 0
M  V30 1163 C 107.806 6.28274 -1.07476 0
M  V30 1164 C 105.493 6.09711 -0.411729 0
M  V30 1165 C 106.491 6.73335 -1.14492 0
M  V30 1166 O 106.179 7.80199 -1.93763 0
M  V30 1167 H 105.911 0.654042 0.170893 0
M  V30 1168 H 108.465 2.04961 -0.134289 0
M  V30 1169 H 106.695 3.22487 2.13398 0
M  V30 1170 H 108.384 3.58029 1.91233 0
M  V30 1171 H 109.15 4.84477 -0.225086 0
M  V30 1172 H 105.029 4.51009 0.954569 0
M  V30 1173 H 108.573 6.77866 -1.64755 0
M  V30 1174 H 104.47 6.43854 -0.460664 0
M  V30 1175 H 105.238 7.97053 -1.86142 0
M  V30 1176 N 107.901 -0.206675 1.56239 0
M  V30 1177 C 109.178 -0.954051 1.70755 0
M  V30 1178 C 109.558 -2.01841 0.618353 0
M  V30 1179 O 108.906 -2.25444 -0.372434 0
M  V30 1180 C 109.116 -1.551 3.12642 0
M  V30 1181 C 110.464 -2.03757 3.72516 0
M  V30 1182 O 111.488 -1.64965 3.15698 0
M  V30 1183 O 110.347 -2.75103 4.72208 0
M  V30 1184 H 107.441 -0.446636 0.696021 0
M  V30 1185 H 109.987 -0.197283 1.68549 0
M  V30 1186 H 108.759 -0.783212 3.83382 0
M  V30 1187 H 108.382 -2.37291 3.19028 0
M  V30 1188 N 109.379 -1.50304 -0.473955 0
M  V30 1189 C 110.609 -1.64663 -1.24778 0
M  V30 1190 C 111.017 -0.328174 -1.86332 0
M  V30 1191 O 110.36 0.699536 -1.69859 0
M  V30 1192 C 110.422 -2.6778 -2.39863 0
M  V30 1193 C 110.086 -4.11413 -1.98969 0
M  V30 1194 C 111.083 -4.97372 -1.51385 0
M  V30 1195 C 108.768 -4.57312 -2.07777 0
M  V30 1196 C 110.762 -6.27277 -1.13148 0
M  V30 1197 C 108.449 -5.87223 -1.69152 0
M  V30 1198 C 109.447 -6.72031 -1.21915 0
M  V30 1199 O 109.135 -7.99518 -0.838237 0
M  V30 1200 H 108.867 -0.556602 -0.383627 0
M  V30 1201 H 111.421 -1.9726 -0.572491 0
M  V30 1202 H 109.651 -2.30419 -3.10554 0
M  V30 1203 H 111.34 -2.71388 -3.01833 0
M  V30 1204 H 112.106 -4.63128 -1.44004 0
M  V30 1205 H 107.985 -3.91449 -2.43493 0
M  V30 1206 H 111.529 -6.93425 -0.762077 0
M  V30 1207 H 107.426 -6.20989 -1.76191 0
M  V30 1208 H 108.194 -8.12764 -0.967339 0
M  V30 1209 N 110.857 0.726932 -1.39834 0
M  V30 1210 C 112.103 1.48884 -1.377 0
M  V30 1211 C 112.436 1.94185 0.0244852 0
M  V30 1212 O 111.711 1.67361 0.990986 0
M  V30 1213 C 111.994 2.72288 -2.3565 0
M  V30 1214 C 111.847 2.32956 -3.84775 0
M  V30 1215 C 113.166 3.74414 -2.31306 0
M  V30 1216 H 110.285 0.540062 -0.5015 0
M  V30 1217 H 112.927 0.830547 -1.70886 0
M  V30 1218 H 111.077 3.28457 -2.07481 0
M  V30 1219 H 112.749 1.82356 -4.23726 0
M  V30 1220 H 110.992 1.65088 -4.01159 0
M  V30 1221 H 111.663 3.21362 -4.4881 0
M  V30 1222 H 114.139 3.27849 -2.56231 0
M  V30 1223 H 113.015 4.58414 -3.01907 0
M  V30 1224 H 113.276 4.21909 -1.32081 0
M  V30 1225 N 112.336 1.25143 0.95797 0
M  V30 1226 C 113.283 1.05235 2.05412 0
M  V30 1227 C 114.253 -0.0374561 1.66058 0
M  V30 1228 O 115.438 0.119073 1.90428 0
M  V30 1229 C 112.578 0.673589 3.38462 0
M  V30 1230 C 111.691 1.8379 3.90954 0
M  V30 1231 C 110.826 1.40381 5.12315 0
M  V30 1232 C 109.865 2.53746 5.57027 0
M  V30 1233 N 109.002 2.11136 6.69601 0
M  V30 1234 H 113.842 1.99048 2.21774 0
M  V30 1235 H 111.379 0.991277 1.08683 0
M  V30 1236 H 113.337 0.434964 4.14926 0
M  V30 1237 H 111.967 -0.227554 3.21997 0
M  V30 1238 H 111.019 2.18992 3.11041 0
M  V30 1239 H 112.331 2.68937 4.20089 0
M  V30 1240 H 111.485 1.12464 5.96185 0
M  V30 1241 H 110.224 0.523015 4.84887 0
M  V30 1242 H 109.229 2.82412 4.71724 0
M  V30 1243 H 110.454 3.42398 5.86464 0
M  V30 1244 H 108.4 1.25468 6.4389 0
M  V30 1245 H 108.317 2.89832 6.98236 0
M  V30 1246 H 109.585 1.86385 7.56889 0
M  V30 1247 N 113.814 -1.1601 1.06675 0
M  V30 1248 C 115.063 -1.85973 0.780818 0
M  V30 1249 C 115.376 -1.82819 -0.695444 0
M  V30 1250 O 116.582 -2.484 -1.09589 0
M  V30 1251 C 115.038 -3.33757 1.34665 0
M  V30 1252 C 114.646 -3.45374 2.85343 0
M  V30 1253 C 116.39 -4.0895 1.13843 0
M  V30 1254 C 114.297 -4.87266 3.35151 0
M  V30 1255 H 113.227 -0.696661 0.288407 0
M  V30 1256 H 115.878 -1.30903 1.28595 0
M  V30 1257 H 114.26 -3.88456 0.769274 0
M  V30 1258 H 115.434 -3.00816 3.49065 0
M  V30 1259 H 113.749 -2.83619 3.04876 0
M  V30 1260 H 116.346 -5.13654 1.4854 0
M  V30 1261 H 116.689 -4.16229 0.0770282 0
M  V30 1262 H 117.222 -3.605 1.68179 0
M  V30 1263 H 113.961 -4.85168 4.40786 0
M  V30 1264 H 113.481 -5.32433 2.76179 0
M  V30 1265 H 115.16 -5.56097 3.30704 0
M  V30 1266 N 115.292 -0.849877 -1.32721 0
M  V30 1267 C 116.517 -0.463856 -2.02146 0
M  V30 1268 C 116.942 0.930449 -1.63476 0
M  V30 1269 O 116.3 1.61033 -0.832952 0
M  V30 1270 C 116.348 -0.604955 -3.55489 0
M  V30 1271 O 115.452 0.36425 -4.10788 0
M  V30 1272 H 114.793 -0.187046 -0.637111 0
M  V30 1273 H 117.323 -1.14775 -1.69375 0
M  V30 1274 H 117.333 -0.490696 -4.05038 0
M  V30 1275 H 116.008 -1.62174 -3.82978 0
M  V30 1276 H 114.585 0.206628 -3.72327 0
M  V30 1277 N 116.77 1.45427 -0.607355 0
M  V30 1278 C 117.733 2.28974 0.101693 0
M  V30 1279 C 118.733 1.39754 0.795329 0
M  V30 1280 O 119.923 1.61878 0.643527 0
M  V30 1281 C 117.055 3.20768 1.15414 0
M  V30 1282 H 118.248 2.93147 -0.632844 0
M  V30 1283 H 115.801 1.51945 -0.366391 0
M  V30 1284 H 116.536 2.61395 1.91945 0
M  V30 1285 H 116.321 3.86489 0.66098 0
M  V30 1286 H 117.811 3.83589 1.65073 0
M  V30 1287 N 118.248 0.346503 1.53744 0
M  V30 1288 C 119.525 -0.304532 1.93215 0
M  V30 1289 C 119.905 -1.67993 1.27834 0
M  V30 1290 O 119.253 -2.24411 0.430352 0
M  V30 1291 C 119.463 -0.373852 3.46992 0
M  V30 1292 C 120.811 -0.62329 4.2 0
M  V30 1293 O 121.835 -0.455847 3.53271 0
M  V30 1294 O 120.694 -0.947879 5.38217 0
M  V30 1295 H 117.788 -0.178318 0.807547 0
M  V30 1296 H 120.334 0.397895 1.64969 0
M  V30 1297 H 119.106 0.591224 3.86808 0
M  V30 1298 H 118.729 -1.12294 3.81413 0
M  V30 1299 N 119.726 -1.57421 0.075193 0
M  V30 1300 C 120.673 -2.12915 -0.890843 0
M  V30 1301 C 121.643 -1.04252 -1.29309 0
M  V30 1302 O 122.828 -1.31933 -1.37834 0
M  V30 1303 C 119.968 -2.69795 -2.15186 0
M  V30 1304 C 119.081 -3.92624 -1.80194 0
M  V30 1305 C 118.216 -4.37736 -3.00933 0
M  V30 1306 C 117.255 -5.53205 -2.61974 0
M  V30 1307 N 116.392 -5.9326 -3.75483 0
M  V30 1308 H 121.232 -2.95156 -0.410735 0
M  V30 1309 H 118.769 -1.45854 -0.191086 0
M  V30 1310 H 120.727 -3.00883 -2.89008 0
M  V30 1311 H 119.357 -1.90313 -2.60731 0
M  V30 1312 H 118.409 -3.67977 -0.964218 0
M  V30 1313 H 119.721 -4.76482 -1.47534 0
M  V30 1314 H 118.875 -4.70503 -3.8303 0
M  V30 1315 H 117.614 -3.52739 -3.36789 0
M  V30 1316 H 116.619 -5.20086 -1.783 0
M  V30 1317 H 117.844 -6.39936 -2.27284 0
M  V30 1318 H 115.79 -5.11212 -4.11094 0
M  V30 1319 H 115.707 -6.71865 -3.46602 0
M  V30 1320 H 116.975 -6.30651 -4.58148 0
M  V30 1321 N 121.204 0.198386 -1.56346 0
M  V30 1322 C 122.151 1.24589 -1.94284 0
M  V30 1323 C 123.121 1.454 -0.802997 0
M  V30 1324 O 124.306 1.58588 -1.06087 0
M  V30 1325 C 121.446 2.58631 -2.28482 0
M  V30 1326 C 120.559 2.45426 -3.55514 0
M  V30 1327 C 119.694 3.7215 -3.79049 0
M  V30 1328 C 118.733 3.53763 -4.99518 0
M  V30 1329 N 117.87 4.72491 -5.19323 0
M  V30 1330 H 122.71 0.915356 -2.83593 0
M  V30 1331 H 120.247 0.440629 -1.40346 0
M  V30 1332 H 122.205 3.3672 -2.46324 0
M  V30 1333 H 120.835 2.89734 -1.42317 0
M  V30 1334 H 119.887 1.58652 -3.45737 0
M  V30 1335 H 121.199 2.27772 -4.43758 0
M  V30 1336 H 120.353 4.58679 -3.97113 0
M  V30 1337 H 119.092 3.92754 -2.89129 0
M  V30 1338 H 118.097 2.65619 -4.8138 0
M  V30 1339 H 119.322 3.34607 -5.90944 0
M  V30 1340 H 117.268 4.93365 -4.3235 0
M  V30 1341 H 117.185 4.5765 -6.01741 0
M  V30 1342 H 118.453 5.6038 -5.41843 0
M  V30 1343 N 122.682 1.50554 0.465978 0
M  V30 1344 C 123.907 1.65838 1.24549 0
M  V30 1345 C 124.332 0.343486 1.84937 0
M  V30 1346 O 123.69 -0.69324 1.67523 0
M  V30 1347 C 123.738 2.75533 2.32624 0
M  V30 1348 O 122.842 2.37142 3.37398 0
M  V30 1349 H 122.183 0.553893 0.366194 0
M  V30 1350 H 124.713 1.96959 0.553927 0
M  V30 1351 H 124.723 2.98763 2.77857 0
M  V30 1352 H 123.398 3.70962 1.88043 0
M  V30 1353 H 121.975 2.24377 2.97841 0
M  V30 1354 N 124.16 -0.719506 1.40217 0
M  V30 1355 C 125.09 -1.8465 1.42922 0
M  V30 1356 C 126.071 -1.67599 0.29062 0
M  V30 1357 O 127.256 -1.87688 0.498677 0
M  V30 1358 C 124.386 -3.22565 1.28722 0
M  V30 1359 C 123.34 -3.54281 2.40144 0
M  V30 1360 C 122.666 -4.91298 2.11023 0
M  V30 1361 C 123.966 -3.55676 3.82481 0
M  V30 1362 H 125.66 -1.82644 2.37237 0
M  V30 1363 H 123.206 -0.877305 1.1419 0
M  V30 1364 H 125.159 -4.01095 1.29232 0
M  V30 1365 H 123.883 -3.25137 0.308811 0
M  V30 1366 H 122.542 -2.78088 2.38877 0
M  V30 1367 H 122.19 -4.90468 1.11582 0
M  V30 1368 H 121.89 -5.13485 2.8567 0
M  V30 1369 H 123.414 -5.72166 2.13209 0
M  V30 1370 H 124.828 -4.24254 3.85592 0
M  V30 1371 H 123.225 -3.89388 4.56614 0
M  V30 1372 H 124.295 -2.55144 4.12346 0
M  V30 1373 N 125.638 -1.25649 -0.95132 0
M  V30 1374 C 126.886 -1.10375 -1.69298 0
M  V30 1375 C 127.207 0.355339 -1.91735 0
M  V30 1376 O 126.477 1.25188 -1.50681 0
M  V30 1377 H 125.057 -0.405461 -0.627384 0
M  V30 1378 H 127.719 -1.57823 -1.14358 0
M  V30 1379 H 126.815 -1.61465 -2.67087 0
M  V30 1380 N 127.117 1.15442 -1.07289 0
M  V30 1381 C 128.533 1.38201 -0.798288 0
M  V30 1382 C 128.733 1.92429 0.597769 0
M  V30 1383 O 127.789 2.12962 1.3566 0
M  V30 1384 C 129.102 2.35357 -1.87156 0
M  V30 1385 C 130.65 2.49021 -1.89624 0
M  V30 1386 C 131.125 3.49468 -2.96034 0
M  V30 1387 N 132.616 3.57003 -2.95132 0
M  V30 1388 C 133.351 4.34543 -3.74112 0
M  V30 1389 N 132.847 5.15421 -4.6294 0
M  V30 1390 N 134.64 4.29625 -3.62462 0
M  V30 1391 H 126.791 0.78584 -1.97328 0
M  V30 1392 H 129.054 0.408065 -0.855679 0
M  V30 1393 H 128.76 2.02626 -2.87464 0
M  V30 1394 H 128.634 3.35129 -1.73114 0
M  V30 1395 H 131.021 2.81051 -0.899687 0
M  V30 1396 H 131.102 1.4925 -2.07745 0
M  V30 1397 H 130.746 3.18173 -3.95889 0
M  V30 1398 H 130.676 4.48992 -2.75161 0
M  V30 1399 H 133.167 2.99276 -2.30743 0
M  V30 1400 H 133.48 5.7183 -5.19837 0
M  V30 1401 H 131.825 5.14729 -4.66989 0
M  V30 1402 H 135.016 3.65505 -2.92444 0
M  V30 1403 H 135.189 4.89807 -4.24256 0
M  V30 1404 N 128.595 0.856903 1.32268 0
M  V30 1405 C 129.842 0.461386 1.97174 0
M  V30 1406 C 130.17 -0.983491 1.67803 0
M  V30 1407 O 129.425 -1.70541 0.959903 0
M  V30 1408 C 129.724 0.649919 3.51441 0
M  V30 1409 C 129.39 2.0656 4.00804 0
M  V30 1410 C 128.052 2.45279 4.13995 0
M  V30 1411 C 130.404 2.98947 4.26943 0
M  V30 1412 C 127.732 3.75653 4.50668 0
M  V30 1413 C 130.084 4.28822 4.65075 0
M  V30 1414 C 128.748 4.67472 4.76472 0
M  V30 1415 H 128.018 0.168833 0.72151 0
M  V30 1416 H 130.665 1.08739 1.57633 0
M  V30 1417 H 128.97 -0.0593018 3.91755 0
M  V30 1418 H 130.667 0.32391 3.9969 0
M  V30 1419 H 127.257 1.75495 3.91024 0
M  V30 1420 H 131.441 2.70265 4.16258 0
M  V30 1421 H 126.697 4.05379 4.57688 0
M  V30 1422 H 130.871 5.0047 4.84255 0
M  V30 1423 H 128.498 5.68539 5.04646 0
M  V30 1424 N 130.073 -1.45103 0.615059 0
M  V30 1425 C 131.313 -2.04069 0.116282 0
M  V30 1426 C 131.677 -1.4721 -1.2326 0
M  V30 1427 O 132.878 -1.97577 -1.82255 0
M  V30 1428 C 131.149 -3.57298 0.085482 0
M  V30 1429 S 132.708 -4.37394 -0.351015 0
M  V30 1430 H 129.526 -0.709006 0.0532183 0
M  V30 1431 H 132.128 -1.77709 0.81484 0
M  V30 1432 H 130.832 -3.9619 1.0706 0
M  V30 1433 H 130.363 -3.88244 -0.634835 0
M  V30 1434 H 132.378 -4.69734 -1.59889 0
M  V30 1435 N 131.551 -0.354651 -1.53558 0
M  V30 1436 C 132.799 0.237972 -2.00694 0
M  V30 1437 C 133.12 1.50173 -1.24391 0
M  V30 1438 O 132.39 1.92673 -0.354135 0
M  V30 1439 H 130.97 0.0909256 -0.741446 0
M  V30 1440 H 133.632 -0.478368 -1.88938 0
M  V30 1441 H 132.728 0.47264 -3.085 0
M  V30 1442 N 133.029 1.57378 -0.0835403 0
M  V30 1443 C 133.961 2.10389 0.909338 0
M  V30 1444 C 134.974 1.03858 1.25369 0
M  V30 1445 O 136.163 1.31338 1.20882 0
M  V30 1446 C 133.263 2.55908 2.2218 0
M  V30 1447 C 132.436 3.86145 2.05453 0
M  V30 1448 C 131.495 4.17633 3.20108 0
M  V30 1449 O 130.521 4.87043 2.94581 0
M  V30 1450 N 131.723 3.72113 4.45547 0
M  V30 1451 H 134.488 2.962 0.456657 0
M  V30 1452 H 132.049 1.61579 0.101877 0
M  V30 1453 H 134.041 2.74027 2.97811 0
M  V30 1454 H 132.611 1.75171 2.58909 0
M  V30 1455 H 131.831 3.7729 1.1422 0
M  V30 1456 H 133.119 4.7137 1.91541 0
M  V30 1457 H 132.517 3.16062 4.69171 0
M  V30 1458 H 131.074 3.95409 5.18165 0
M  V30 1459 N 134.507 -0.190092 1.56449 0
M  V30 1460 C 135.437 -1.23816 1.97969 0
M  V30 1461 C 136.418 -1.47201 0.852395 0
M  V30 1462 O 137.603 -1.58854 1.1171 0
M  V30 1463 C 134.733 -2.5813 2.3235 0
M  V30 1464 C 133.687 -2.49348 3.47864 0
M  V30 1465 C 133.013 -3.8798 3.67934 0
M  V30 1466 C 134.313 -2.01424 4.81898 0
M  V30 1467 H 136.007 -0.89311 2.85769 0
M  V30 1468 H 133.553 -0.428177 1.37487 0
M  V30 1469 H 135.506 -3.31637 2.59991 0
M  V30 1470 H 134.23 -2.94386 1.41438 0
M  V30 1471 H 132.889 -1.78297 3.20321 0
M  V30 1472 H 132.537 -4.21597 2.74344 0
M  V30 1473 H 132.237 -3.82978 4.45648 0
M  V30 1474 H 133.761 -4.63101 3.97957 0
M  V30 1475 H 135.175 -2.64693 5.08538 0
M  V30 1476 H 133.572 -2.07413 5.63116 0
M  V30 1477 H 134.642 -0.967677 4.75146 0
M  V30 1478 N 135.985 -1.50799 -0.457987 0
M  V30 1479 C 137.233 -1.62121 -1.2067 0
M  V30 1480 C 137.554 -0.329793 -1.92191 0
M  V30 1481 O 136.824 0.653409 -1.84682 0
M  V30 1482 H 135.404 -0.597441 -0.448411 0
M  V30 1483 H 138.066 -1.87637 -0.527096 0
M  V30 1484 H 137.162 -2.43882 -1.94751 0
M  V30 1485 N 137.463 0.71206 -1.40597 0
M  V30 1486 C 138.688 1.50617 -1.42581 0
M  V30 1487 C 139.113 1.88079 -0.0282102 0
M  V30 1488 O 138.471 1.53511 0.964579 0
M  V30 1489 C 138.519 2.7557 -2.3258 0
M  V30 1490 O 137.623 3.72414 -1.77148 0
M  V30 1491 H 136.964 0.453966 -0.484573 0
M  V30 1492 H 139.494 0.876649 -1.84868 0
M  V30 1493 H 139.504 3.2406 -2.47889 0
M  V30 1494 H 138.179 2.47639 -3.34138 0
M  V30 1495 H 136.756 3.31276 -1.71204 0
M  V30 1496 N 138.941 1.26152 0.944643 0
M  V30 1497 C 140.352 1.10454 1.50522 0
M  V30 1498 C 140.703 -0.31635 1.93633 0
M  V30 1499 O 139.828 -1.20746 1.79581 0
M  V30 1500 C 140.423 1.99891 2.73549 0
M  V30 1501 C 138.982 1.88348 3.25886 0
M  V30 1502 C 138.129 1.93447 1.9868 0
M  V30 1503 H 141.08 1.39292 0.760489 0
M  V30 1504 H 141.101 1.54477 3.47732 0
M  V30 1505 H 140.613 3.03297 2.42141 0
M  V30 1506 H 138.714 0.878636 3.62092 0
M  V30 1507 H 138.827 2.73696 3.93227 0
M  V30 1508 H 137.191 1.37456 2.14425 0
M  V30 1509 H 137.974 2.98476 1.69607 0
M  V30 1510 N 140.419 -1.14872 1.07899 0
M  V30 1511 C 141.349 -2.2193 0.725887 0
M  V30 1512 C 142.33 -1.67622 -0.28927 0
M  V30 1513 O 143.515 -1.93533 -0.160787 0
M  V30 1514 C 140.645 -3.47061 0.128856 0
M  V30 1515 C 139.599 -4.14363 1.07178 0
M  V30 1516 C 138.925 -5.33636 0.337229 0
M  V30 1517 C 140.225 -4.63492 2.40775 0
M  V30 1518 H 141.919 -2.51724 1.62097 0
M  V30 1519 H 139.465 -1.20991 0.780838 0
M  V30 1520 H 141.418 -4.21199 -0.130147 0
M  V30 1521 H 140.142 -3.16617 -0.80134 0
M  V30 1522 H 138.801 -3.42173 1.3158 0
M  V30 1523 H 138.449 -4.99449 -0.596606 0
M  V30 1524 H 138.149 -5.79609 0.965788 0
M  V30 1525 H 139.673 -6.10539 0.0861567 0
M  V30 1526 H 141.087 -5.2913 2.20669 0
M  V30 1527 H 139.484 -5.20148 2.99276 0
M  V30 1528 H 140.554 -3.78834 3.02676 0
M  V30 1529 N 141.898 -0.863906 -1.31812 0
M  V30 1530 C 143.146 -0.470904 -1.96537 0
M  V30 1531 C 143.467 0.978771 -1.68657 0
M  V30 1532 O 142.737 1.6853 -0.998717 0
M  V30 1533 H 141.317 -0.171148 -0.72713 0
M  V30 1534 H 143.979 -1.10236 -1.60729 0
M  V30 1535 H 143.075 -0.623616 -3.05806 0
M  V30 1536 N 143.376 1.44774 -0.622745 0
M  V30 1537 C 144.324 2.32387 0.0994683 0
M  V30 1538 C 145.318 1.46859 0.844326 0
M  V30 1539 O 146.524 1.63254 0.758174 0
M  V30 1540 H 142.899 0.750273 0.0509291 0
M  V30 1541 H 144.87 2.91062 -0.65767 0
M  V30 1542 C 143.619 3.30723 1.07319 0
M  V30 1543 H 142.942 3.96541 0.509462 0
M  V30 1544 H 144.382 3.94725 1.54817 0
M  V30 1545 C 142.841 2.59021 2.15429 0
M  V30 1546 O 143.371 2.38286 3.23393 0
M  V30 1547 N 141.577 2.189 1.91131 0
M  V30 1548 H 141.124 2.35964 1.03337 0
M  V30 1549 H 141.082 1.71251 2.63668 0
M  V30 1550 N 144.854 0.36279 1.53368 0
M  V30 1551 C 146.265 -0.117022 1.86333 0
M  V30 1552 C 146.616 -1.48397 1.28347 0
M  V30 1553 O 145.741 -2.07787 0.604428 0
M  V30 1554 C 146.336 -0.21912 3.38091 0
M  V30 1555 C 144.895 -0.643184 3.70864 0
M  V30 1556 C 144.042 0.211318 2.76494 0
M  V30 1557 H 146.993 0.581687 1.47655 0
M  V30 1558 H 147.014 -1.04319 3.6592 0
M  V30 1559 H 146.526 0.775902 3.80265 0
M  V30 1560 H 144.627 -1.64654 3.34245 0
M  V30 1561 H 144.74 -0.41973 4.77258 0
M  V30 1562 H 143.104 -0.319367 2.5269 0
M  V30 1563 H 143.887 1.20383 3.21501 0
M  V30 1564 N 146.332 -1.57332 0.0918853 0
M  V30 1565 C 147.743 -1.81496 -0.437739 0
M  V30 1566 C 148.094 -1.00727 -1.6837 0
M  V30 1567 O 147.219 -0.235694 -2.15113 0
M  V30 1568 C 147.814 -3.29197 -0.800939 0
M  V30 1569 C 146.373 -3.54136 -1.27532 0
M  V30 1570 C 145.52 -2.75979 -0.270392 0
M  V30 1571 H 148.471 -1.55494 0.317366 0
M  V30 1572 H 148.492 -3.42344 -1.66074 0
M  V30 1573 H 148.004 -3.87955 0.106078 0
M  V30 1574 H 146.105 -3.00705 -2.20016 0
M  V30 1575 H 146.218 -4.62792 -1.23938 0
M  V30 1576 H 144.582 -2.43349 -0.751872 0
M  V30 1577 H 145.365 -3.37484 0.629248 0
M  V30 1578 N 147.81 0.181792 -1.56548 0
M  V30 1579 C 149.058 0.89832 -1.81038 0
M  V30 1580 C 149.379 1.83232 -0.667164 0
M  V30 1581 O 148.649 1.93372 0.313673 0
M  V30 1582 H 147.229 0.33471 -0.667816 0
M  V30 1583 H 149.891 0.184116 -1.94028 0
M  V30 1584 H 148.987 1.4815 -2.74696 0
M  V30 1585 N 149.288 1.51039 0.449983 0
M  V30 1586 C 150.235 1.71439 1.54523 0
M  V30 1587 C 151.205 0.555871 1.56522 0
M  V30 1588 O 152.39 0.788871 1.73728 0
M  V30 1589 C 149.53 1.83384 2.92343 0
M  V30 1590 C 148.643 3.10873 2.9997 0
M  V30 1591 C 147.778 3.13488 4.28834 0
M  V30 1592 C 146.817 4.35343 4.30282 0
M  V30 1593 N 145.954 4.35579 5.5065 0
M  V30 1594 H 150.794 2.64934 1.36433 0
M  V30 1595 H 148.331 1.31312 0.662982 0
M  V30 1596 H 150.289 1.88291 3.72293 0
M  V30 1597 H 148.919 0.933086 3.0902 0
M  V30 1598 H 147.971 3.15336 2.12761 0
M  V30 1599 H 149.283 4.00814 2.96901 0
M  V30 1600 H 148.437 3.17241 5.17149 0
M  V30 1601 H 147.176 2.21414 4.34543 0
M  V30 1602 H 146.181 4.3178 3.40362 0
M  V30 1603 H 147.406 5.28668 4.26248 0
M  V30 1604 H 145.352 3.46369 5.57104 0
M  V30 1605 H 145.269 5.19313 5.49409 0
M  V30 1606 H 146.537 4.43507 6.41032 0
M  V30 1607 N 150.766 -0.704594 1.40972 0
M  V30 1608 C 151.713 -1.81862 1.42109 0
M  V30 1609 C 152.683 -1.63781 0.276593 0
M  V30 1610 O 153.868 -1.84759 0.4763 0
M  V30 1611 C 151.008 -3.19669 1.30022 0
M  V30 1612 C 150.121 -3.49246 2.54267 0
M  V30 1613 C 149.256 -4.76618 2.3454 0
M  V30 1614 C 148.295 -4.99133 3.54306 0
M  V30 1615 N 147.432 -6.17726 3.33706 0
M  V30 1616 H 152.272 -1.80226 2.37324 0
M  V30 1617 H 149.809 -0.880238 1.17857 0
M  V30 1618 H 151.767 -3.99263 1.21018 0
M  V30 1619 H 150.397 -3.20506 0.384192 0
M  V30 1620 H 149.449 -2.64125 2.73756 0
M  V30 1621 H 150.761 -3.61788 3.43381 0
M  V30 1622 H 149.915 -5.64249 2.22952 0
M  V30 1623 H 148.654 -4.66305 1.42867 0
M  V30 1624 H 147.659 -4.09953 3.66359 0
M  V30 1625 H 148.884 -5.11311 4.4692 0
M  V30 1626 H 146.83 -6.08642 2.44725 0
M  V30 1627 H 146.747 -6.30995 4.16391 0
M  V30 1628 H 148.015 -7.08115 3.25873 0
M  V30 1629 N 152.244 -1.26651 -0.937939 0
M  V30 1630 C 153.154 -1.10276 -2.07066 0
M  V30 1631 C 154.17 -0.0354197 -1.73964 0
M  V30 1632 O 155.346 -0.239816 -1.99967 0
M  V30 1633 C 152.411 -0.740887 -3.38691 0
M  V30 1634 C 151.472 -1.88799 -3.85556 0
M  V30 1635 C 150.705 -1.54329 -5.10899 0
M  V30 1636 O 150.928 -0.446494 -5.6865 0
M  V30 1637 O 149.862 -2.37911 -5.52885 0
M  V30 1638 H 153.688 -2.05309 -2.23789 0
M  V30 1639 H 151.273 -1.05743 -1.0554 0
M  V30 1640 H 153.155 -0.55195 -4.1777 0
M  V30 1641 H 151.83 0.180022 -3.23199 0
M  V30 1642 H 150.737 -2.13191 -3.07409 0
M  V30 1643 H 152.07 -2.78874 -4.05574 0
M  V30 1644 N 153.722 1.14298 -1.08507 0
M  V30 1645 C 154.969 1.85359 -0.815373 0
M  V30 1646 C 155.297 1.83001 0.658865 0
M  V30 1647 O 154.552 1.25655 1.50031 0
M  V30 1648 C 154.851 3.33547 -1.28379 0
M  V30 1649 C 154.517 3.56093 -2.76602 0
M  V30 1650 C 153.179 3.61955 -3.17084 0
M  V30 1651 C 155.531 3.64834 -3.72217 0
M  V30 1652 C 152.859 3.74082 -4.51973 0
M  V30 1653 C 155.211 3.78487 -5.06883 0
M  V30 1654 C 153.875 3.82598 -5.46969 0
M  V30 1655 H 153.145 0.678276 -0.298366 0
M  V30 1656 H 155.792 1.35002 -1.35819 0
M  V30 1657 H 154.097 3.86191 -0.660593 0
M  V30 1658 H 155.794 3.86959 -1.05186 0
M  V30 1659 H 152.384 3.52179 -2.4427 0
M  V30 1660 H 156.568 3.59595 -3.42061 0
M  V30 1661 H 151.824 3.75527 -4.82483 0
M  V30 1662 H 155.998 3.84193 -5.80834 0
M  V30 1663 H 153.625 3.91747 -6.51489 0
M  V30 1664 N 155.201 0.870884 1.31352 0
M  V30 1665 C 156.134 0.271983 2.26573 0
M  V30 1666 C 157.112 -0.599385 1.51149 0
M  V30 1667 O 158.296 -0.552605 1.80218 0
M  V30 1668 C 155.423 -0.614801 3.33073 0
M  V30 1669 C 154.469 0.185342 4.26097 0
M  V30 1670 S 155.302 1.56444 5.12138 0
M  V30 1671 C 156.458 0.683807 6.22153 0
M  V30 1672 H 156.691 1.07916 2.77023 0
M  V30 1673 H 154.224 0.669459 1.39132 0
M  V30 1674 H 156.182 -1.12074 3.94905 0
M  V30 1675 H 154.843 -1.39593 2.81376 0
M  V30 1676 H 154.036 -0.490771 5.01605 0
M  V30 1677 H 153.638 0.623415 3.68768 0
M  V30 1678 H 155.93 -0.10521 6.77418 0
M  V30 1679 H 156.873 1.41004 6.93919 0
M  V30 1680 H 157.281 0.250952 5.63942 0
M  V30 1681 N 156.679 -1.44442 0.630414 0
M  V30 1682 C 157.904 -2.06927 0.139944 0
M  V30 1683 C 158.329 -1.46795 -1.17613 0
M  V30 1684 O 157.687 -0.569144 -1.72135 0
M  V30 1685 C 157.735 -3.6058 0.0379581 0
M  V30 1686 O 156.839 -3.99937 -1.0062 0
M  V30 1687 H 156.18 -0.658608 0.0844483 0
M  V30 1688 H 158.71 -1.85327 0.866891 0
M  V30 1689 H 158.72 -4.07714 -0.152856 0
M  V30 1690 H 157.395 -4.03728 0.998809 0
M  V30 1691 H 155.972 -3.64436 -0.79001 0
M  V30 1692 N 158.157 -0.370918 -1.53173 0
M  V30 1693 C 159.089 0.507823 -2.23503 0
M  V30 1694 C 160.102 1.04182 -1.251 0
M  V30 1695 O 161.291 0.947286 -1.5129 0
M  V30 1696 C 158.391 1.71447 -2.92334 0
M  V30 1697 C 157.564 1.31105 -4.17289 0
M  V30 1698 C 156.623 2.38035 -4.69282 0
M  V30 1699 O 155.649 2.00204 -5.32829 0
M  V30 1700 N 156.851 3.69697 -4.47554 0
M  V30 1701 H 159.616 -0.0946382 -2.99551 0
M  V30 1702 H 157.177 -0.196358 -1.60705 0
M  V30 1703 H 159.169 2.42469 -3.24023 0
M  V30 1704 H 157.739 2.22368 -2.19707 0
M  V30 1705 H 156.959 0.430462 -3.91843 0
M  V30 1706 H 158.247 1.0179 -4.98514 0
M  V30 1707 H 157.645 4.03205 -3.9679 0
M  V30 1708 H 156.202 4.36807 -4.8378 0
M  V30 1709 N 159.635 1.57281 -0.100228 0
M  V30 1710 C 160.883 1.94153 0.561157 0
M  V30 1711 C 161.204 0.983157 1.68401 0
M  V30 1712 O 160.474 0.0361132 1.95867 0
M  V30 1713 H 159.054 0.716791 0.210283 0
M  V30 1714 H 161.716 1.94202 -0.164765 0
M  V30 1715 H 160.812 2.96709 0.968008 0
M  V30 1716 N 161.113 -0.173488 1.56642 0
M  V30 1717 C 162.061 -1.23417 1.97157 0
M  V30 1718 C 163.055 -1.45946 0.860013 0
M  V30 1719 O 164.261 -1.46551 1.04512 0
M  V30 1720 H 160.636 -0.414818 0.62724 0
M  V30 1721 H 162.607 -0.865582 2.8557 0
M  V30 1722 C 161.356 -2.5665 2.34576 0
M  V30 1723 H 160.679 -2.40137 3.19647 0
M  V30 1724 H 162.119 -3.2956 2.6677 0
M  V30 1725 C 160.578 -3.15245 1.18836 0
M  V30 1726 O 161.108 -3.98883 0.474869 0
M  V30 1727 N 159.314 -2.74303 0.959497 0
M  V30 1728 H 158.861 -2.0639 1.54146 0
M  V30 1729 H 158.819 -3.13844 0.186932 0
M  V30 1730 N 162.591 -1.51276 -0.441967 0
M  V30 1731 C 163.538 -1.72256 -1.53612 0
M  V30 1732 C 164.508 -0.564164 -1.56225 0
M  V30 1733 O 165.693 -0.798074 -1.73307 0
M  V30 1734 C 162.833 -1.84932 -2.91366 0
M  V30 1735 C 161.946 -3.12459 -2.98317 0
M  V30 1736 C 161.081 -3.15758 -4.27166 0
M  V30 1737 C 160.12 -4.37619 -4.27967 0
M  V30 1738 N 159.257 -4.38493 -5.48333 0
M  V30 1739 H 164.097 -2.65654 -1.35026 0
M  V30 1740 H 161.634 -1.31662 -0.656009 0
M  V30 1741 H 163.592 -1.90263 -3.7129 0
M  V30 1742 H 162.222 -0.949461 -3.08521 0
M  V30 1743 H 161.274 -3.1646 -2.11086 0
M  V30 1744 H 162.586 -4.02382 -2.94771 0
M  V30 1745 H 161.74 -3.19979 -5.15459 0
M  V30 1746 H 160.479 -2.23715 -4.33362 0
M  V30 1747 H 159.484 -4.33579 -3.38067 0
M  V30 1748 H 160.709 -5.30921 -4.23438 0
M  V30 1749 H 158.655 -3.49318 -5.55259 0
M  V30 1750 H 158.572 -5.22219 -5.46647 0
M  V30 1751 H 159.84 -4.469 -6.38671 0
M  V30 1752 N 164.069 0.697108 -1.41344 0
M  V30 1753 C 165.002 1.82134 -1.37486 0
M  V30 1754 C 165.98 1.60784 -0.242351 0
M  V30 1755 O 167.164 1.83553 -0.429012 0
M  V30 1756 C 164.291 3.18788 -1.14421 0
M  V30 1757 C 163.337 3.58932 -2.3037 0
M  V30 1758 S 164.17 3.63916 -3.92843 0
M  V30 1759 C 165.326 5.03298 -3.72078 0
M  V30 1760 H 165.559 1.85129 -2.32625 0
M  V30 1761 H 163.092 0.865671 -1.2785 0
M  V30 1762 H 165.05 3.97677 -1.018 0
M  V30 1763 H 163.711 3.13404 -0.20905 0
M  V30 1764 H 162.904 4.58202 -2.09922 0
M  V30 1765 H 162.506 2.87347 -2.39391 0
M  V30 1766 H 164.798 5.90753 -3.31688 0
M  V30 1767 H 165.741 5.28788 -4.70945 0
M  V30 1768 H 166.149 4.74764 -3.05384 0
M  V30 1769 N 165.547 1.27147 0.931209 0
M  V30 1770 C 166.477 1.12081 2.04842 0
M  V30 1771 C 167.458 0.0232364 1.70084 0
M  V30 1772 O 168.643 0.197085 1.93197 0
M  V30 1773 C 165.773 0.76354 3.38803 0
M  V30 1774 C 164.727 1.81396 3.87659 0
M  V30 1775 C 164.053 1.31075 5.18385 0
M  V30 1776 C 165.353 3.21739 4.11438 0
M  V30 1777 H 167.047 2.05537 2.17703 0
M  V30 1778 H 164.593 0.989603 1.04608 0
M  V30 1779 H 166.546 0.644982 4.16435 0
M  V30 1780 H 165.27 -0.206727 3.25945 0
M  V30 1781 H 163.929 1.92136 3.12217 0
M  V30 1782 H 163.577 0.330037 5.01916 0
M  V30 1783 H 163.277 2.013 5.52044 0
M  V30 1784 H 164.801 1.20506 5.98591 0
M  V30 1785 H 166.215 3.14019 4.79651 0
M  V30 1786 H 164.612 3.89644 4.56397 0
M  V30 1787 H 165.682 3.67054 3.16859 0
M  V30 1788 N 167.025 -1.13721 1.09112 0
M  V30 1789 C 167.955 -2.21148 0.749385 0
M  V30 1790 C 168.936 -1.6792 -0.271475 0
M  V30 1791 O 170.121 -1.93693 -0.140251 0
M  V30 1792 C 167.251 -3.46905 0.165659 0
M  V30 1793 C 166.205 -4.13203 1.11567 0
M  V30 1794 C 165.531 -5.33248 0.393809 0
M  V30 1795 C 166.831 -4.60912 2.45678 0
M  V30 1796 H 168.525 -2.4999 1.64758 0
M  V30 1797 H 166.071 -1.20156 0.793626 0
M  V30 1798 H 168.024 -4.21313 -0.085466 0
M  V30 1799 H 166.748 -3.17449 -0.767714 0
M  V30 1800 H 165.407 -3.40758 1.35202 0
M  V30 1801 H 165.055 -5.00054 -0.543599 0
M  V30 1802 H 164.755 -5.78552 1.02721 0
M  V30 1803 H 166.279 -6.10413 0.150908 0
M  V30 1804 H 167.693 -5.26759 2.26269 0
M  V30 1805 H 166.09 -5.16944 3.04776 0
M  V30 1806 H 167.16 -3.75603 3.06677 0
M  V30 1807 N 168.503 -0.877838 -1.30888 0
M  V30 1808 C 169.731 -0.507414 -2.00581 0
M  V30 1809 C 170.146 0.902216 -1.65848 0
M  V30 1810 O 169.503 1.59225 -0.891831 0
M  V30 1811 C 169.554 -0.664162 -3.55347 0
M  V30 1812 O 169.275 -2.01829 -3.8884 0
M  V30 1813 C 170.776 -0.295787 -4.42312 0
M  V30 1814 H 167.996 -0.196866 -0.641471 0
M  V30 1815 H 170.54 -1.18117 -1.66939 0
M  V30 1816 H 168.695 -0.0378619 -3.87381 0
M  V30 1817 H 169.109 -2.03174 -4.8355 0
M  V30 1818 H 170.583 -0.456388 -5.5011 0
M  V30 1819 H 171.06 0.765663 -4.32475 0
M  V30 1820 H 171.666 -0.898113 -4.15709 0
M  V30 1821 N 169.982 1.44106 -0.638065 0
M  V30 1822 C 171.229 2.01978 -0.14533 0
M  V30 1823 C 171.557 1.50234 1.23532 0
M  V30 1824 O 170.812 0.679548 1.83523 0
M  V30 1825 C 171.111 3.5729 -0.0887327 0
M  V30 1826 C 170.777 4.28317 -1.40909 0
M  V30 1827 C 169.439 4.47437 -1.77069 0
M  V30 1828 C 171.791 4.6867 -2.28031 0
M  V30 1829 C 169.119 5.04171 -3.00047 0
M  V30 1830 C 171.471 5.26766 -3.50286 0
M  V30 1831 C 170.135 5.44104 -3.86661 0
M  V30 1832 H 169.405 0.739089 -0.0531801 0
M  V30 1833 H 172.052 1.72781 -0.825761 0
M  V30 1834 H 170.357 3.8594 0.675095 0
M  V30 1835 H 172.054 3.99807 0.309145 0
M  V30 1836 H 168.644 4.1377 -1.1177 0
M  V30 1837 H 172.828 4.53604 -2.01388 0
M  V30 1838 H 168.084 5.15782 -3.28298 0
M  V30 1839 H 172.258 5.56983 -4.18023 0
M  V30 1840 H 169.885 5.87832 -4.82034 0
M  V30 1841 N 171.46 0.379036 1.52974 0
M  V30 1842 C 172.41 -0.477772 2.22938 0
M  V30 1843 C 173.394 -1.03792 1.22948 0
M  V30 1844 O 174.586 -0.965725 1.48333 0
M  V30 1845 C 171.715 -1.60994 3.03209 0
M  V30 1846 C 170.801 -1.06203 4.10587 0
M  V30 1847 N 171.192 -0.238214 5.05239 0
M  V30 1848 C 169.49 -1.33554 4.25534 0
M  V30 1849 C 170.191 0.0633235 5.81666 0
M  V30 1850 N 169.167 -0.537901 5.40932 0
M  V30 1851 H 172.969 0.158295 2.93473 0
M  V30 1852 H 170.483 0.187778 1.61311 0
M  V30 1853 H 172.48 -2.23607 3.5186 0
M  V30 1854 H 171.14 -2.24893 2.34207 0
M  V30 1855 H 172.151 0.123695 5.17752 0
M  V30 1856 H 168.828 -1.97632 3.6776 0
M  V30 1857 H 170.218 0.730161 6.67921 0
M  V30 1858 N 172.938 -1.57226 0.108567 0
M  V30 1859 C 174.166 -1.99179 -0.559954 0
M  V30 1860 C 174.581 -0.988022 -1.60884 0
M  V30 1861 O 173.938 0.0205512 -1.82488 0
M  V30 1862 C 173.989 -3.41159 -1.19552 0
M  V30 1863 O 173.71 -4.37694 -0.188577 0
M  V30 1864 C 175.211 -3.98188 -1.94837 0
M  V30 1865 H 172.431 -0.654228 -0.149088 0
M  V30 1866 H 174.975 -2.03598 0.19183 0
M  V30 1867 H 173.13 -3.37711 -1.89815 0
M  V30 1868 H 173.544 -5.20469 -0.649014 0
M  V30 1869 H 175.018 -4.99644 -2.34648 0
M  V30 1870 H 175.495 -3.3675 -2.81951 0
M  V30 1871 H 176.101 -4.0515 -1.2936 0
M  V30 1872 N 174.416 0.165178 -1.56732 0
M  V30 1873 C 175.693 0.908443 -1.73224 0
M  V30 1874 C 176.073 2.0013 -0.67165 0
M  V30 1875 O 175.421 2.26353 0.31253 0
M  V30 1876 C 175.631 1.46756 -3.16644 0
M  V30 1877 C 176.979 1.93809 -3.77787 0
M  V30 1878 O 178.003 1.56537 -3.1996 0
M  V30 1879 O 176.862 2.62486 -4.79336 0
M  V30 1880 H 173.956 0.428025 -0.707618 0
M  V30 1881 H 176.502 0.152526 -1.69013 0
M  V30 1882 H 175.274 0.68129 -3.85323 0
M  V30 1883 H 174.897 2.28749 -3.25207 0
M  V30 1884 N 175.894 1.51508 0.433938 0
M  V30 1885 C 177.141 1.64345 1.18309 0
M  V30 1886 C 177.469 0.361315 1.91115 0
M  V30 1887 O 176.724 -0.654753 1.84422 0
M  V30 1888 C 177.023 2.79928 2.22205 0
M  V30 1889 C 176.689 4.19078 1.66387 0
M  V30 1890 C 175.351 4.56932 1.50887 0
M  V30 1891 C 177.703 5.05894 1.25381 0
M  V30 1892 C 175.031 5.79305 0.928608 0
M  V30 1893 C 177.383 6.2885 0.687823 0
M  V30 1894 C 176.047 6.65473 0.519755 0
M  V30 1895 H 175.317 0.601381 0.432923 0
M  V30 1896 H 177.964 1.85549 0.473676 0
M  V30 1897 H 176.269 2.52959 2.99197 0
M  V30 1898 H 177.966 2.87059 2.79997 0
M  V30 1899 H 174.556 3.89234 1.79428 0
M  V30 1900 H 178.74 4.77253 1.36175 0
M  V30 1901 H 173.996 6.06324 0.786186 0
M  V30 1902 H 178.17 6.95461 0.361581 0
M  V30 1903 H 175.797 7.6017 0.0679979 0
M  V30 1904 N 177.372 -0.689602 1.41712 0
M  V30 1905 C 178.597 -1.48329 1.44959 0
M  V30 1906 C 179.022 -1.8801 0.0581283 0
M  V30 1907 O 178.38 -1.55026 -0.940035 0
M  V30 1908 C 178.428 -2.71835 2.36935 0
M  V30 1909 O 177.532 -3.69549 1.8305 0
M  V30 1910 H 176.873 -0.446199 0.491734 0
M  V30 1911 H 179.403 -0.847127 1.86239 0
M  V30 1912 H 179.413 -3.20076 2.53013 0
M  V30 1913 H 178.088 -2.42291 3.38035 0
M  V30 1914 H 176.665 -3.2851 1.76452 0
M  V30 1915 N 178.85 -1.27639 -0.924453 0
M  V30 1916 C 179.798 -1.10485 -2.04685 0
M  V30 1917 C 180.792 -0.0270421 -1.69378 0
M  V30 1918 O 181.998 -0.185008 -1.79047 0
M  V30 1919 H 178.373 -0.340546 -0.670472 0
M  V30 1920 H 180.344 -2.05566 -2.16298 0
M  V30 1921 C 179.093 -0.772229 -3.39016 0
M  V30 1922 H 178.416 -1.59351 -3.66671 0
M  V30 1923 H 179.856 -0.692097 -4.18313 0
M  V30 1924 C 178.315 0.523554 -3.32807 0
M  V30 1925 O 178.845 1.55702 -3.70297 0
M  V30 1926 N 177.051 0.520363 -2.85903 0
M  V30 1927 H 176.598 -0.32107 -2.55591 0
M  V30 1928 H 176.556 1.38742 -2.82131 0
M  V30 1929 N 180.328 1.1314 -1.09713 0
M  V30 1930 C 181.238 2.22242 -0.751367 0
M  V30 1931 C 182.254 1.72224 0.247938 0
M  V30 1932 O 183.43 2.01205 0.0885463 0
M  V30 1933 C 180.495 3.46231 -0.180274 0
M  V30 1934 C 179.556 4.11125 -1.2359 0
M  V30 1935 C 178.789 5.29195 -0.691966 0
M  V30 1936 O 179.012 5.68342 0.48414 0
M  V30 1937 O 177.946 5.84214 -1.44838 0
M  V30 1938 H 181.772 2.54197 -1.66186 0
M  V30 1939 H 179.357 1.21331 -0.871735 0
M  V30 1940 H 181.239 4.21185 0.134739 0
M  V30 1941 H 179.914 3.1597 0.703185 0
M  V30 1942 H 178.821 3.37985 -1.60366 0
M  V30 1943 H 180.154 4.45524 -2.09211 0
M  V30 1944 N 181.806 0.884767 1.30421 0
M  V30 1945 C 182.716 0.355398 2.31892 0
M  V30 1946 C 183.732 -0.542261 1.65335 0
M  V30 1947 O 184.908 -0.435432 1.96637 0
M  V30 1948 C 181.973 -0.421661 3.44126 0
M  V30 1949 C 181.034 0.505727 4.26311 0
M  V30 1950 C 180.267 -0.234343 5.33185 0
M  V30 1951 O 180.49 -1.46045 5.51386 0
M  V30 1952 O 179.424 0.415443 6.00465 0
M  V30 1953 H 183.25 1.19685 2.79122 0
M  V30 1954 H 180.835 0.648596 1.34587 0
M  V30 1955 H 182.717 -0.861641 4.12497 0
M  V30 1956 H 181.392 -1.23942 2.99032 0
M  V30 1957 H 180.299 0.994513 3.60639 0
M  V30 1958 H 181.632 1.28948 4.75009 0
M  V30 1959 N 183.284 -1.43765 0.645699 0
M  V30 1960 C 184.232 -2.32516 -0.0624849 0
M  V30 1961 C 185.226 -1.48183 -0.820855 0
M  V30 1962 O 186.432 -1.64439 -0.732106 0
M  V30 1963 H 182.807 -0.750989 -0.0389864 0
M  V30 1964 H 184.778 -2.89979 0.703892 0
M  V30 1965 C 183.527 -3.32389 -1.02044 0
M  V30 1966 H 182.85 -3.97301 -0.446312 0
M  V30 1967 H 184.29 -3.97138 -1.48517 0
M  V30 1968 C 182.749 -2.62416 -2.11281 0
M  V30 1969 O 183.279 -2.434 -3.19561 0
M  V30 1970 N 181.485 -2.21913 -1.87624 0
M  V30 1971 H 181.032 -2.37578 -0.995703 0
M  V30 1972 H 180.99 -1.75424 -2.6091 0
M  V30 1973 N 184.763 -0.387143 -1.52771 0
M  V30 1974 C 186.011 0.195349 -2.01154 0
M  V30 1975 C 186.332 1.475 -1.27549 0
M  V30 1976 O 185.602 1.91878 -0.394924 0
M  V30 1977 H 184.182 0.075178 -0.743207 0
M  V30 1978 H 186.844 -0.518337 -1.87881 0
M  V30 1979 H 185.94 0.407096 -3.09434 0
M  V30 1980 N 186.241 1.57166 -0.116904 0
M  V30 1981 C 187.469 1.99473 0.549383 0
M  V30 1982 C 187.884 0.996541 1.60357 0
M  V30 1983 O 187.241 -0.0108731 1.82497 0
M  V30 1984 C 187.292 3.41788 1.17741 0
M  V30 1985 O 187.013 4.37788 0.165362 0
M  V30 1986 C 188.514 3.99216 1.92722 0
M  V30 1987 H 185.734 0.655009 0.145616 0
M  V30 1988 H 188.278 2.03494 -0.202625 0
M  V30 1989 H 186.433 3.38713 1.88021 0
M  V30 1990 H 186.847 5.20806 0.621403 0
M  V30 1991 H 188.321 5.00882 2.31995 0
M  V30 1992 H 188.798 3.3824 2.80161 0
M  V30 1993 H 189.404 4.0583 1.27209 0
M  V30 1994 N 187.719 -0.156864 1.56817 0
M  V30 1995 C 188.968 -0.869504 1.81996 0
M  V30 1996 C 189.281 -1.82777 0.696545 0
M  V30 1997 O 190.487 -2.58384 0.833658 0
M  V30 1998 C 188.943 -1.59679 3.22538 0
M  V30 1999 C 188.551 -0.681431 4.42787 0
M  V30 2000 C 190.295 -2.2968 3.56997 0
M  V30 2001 C 188.202 -1.40978 5.74351 0
M  V30 2002 H 187.132 -0.328438 0.678708 0
M  V30 2003 H 189.783 -0.1223 1.83092 0
M  V30 2004 H 188.165 -2.38927 3.158 0
M  V30 2005 H 189.339 0.0751166 4.60739 0
M  V30 2006 H 187.654 -0.0903431 4.16302 0
M  V30 2007 H 190.251 -2.84794 4.52544 0
M  V30 2008 H 190.594 -3.05707 2.82576 0
M  V30 2009 H 191.127 -1.57361 3.65352 0
M  V30 2010 H 187.866 -0.691561 6.51842 0
M  V30 2011 H 187.386 -2.13929 5.60352 0
M  V30 2012 H 189.065 -1.95337 6.16808 0
M  V30 2013 N 189.197 -1.51736 -0.425897 0
M  V30 2014 C 190.13 -1.68574 -1.53812 0
M  V30 2015 C 191.108 -0.53328 -1.53606 0
M  V30 2016 O 192.292 -0.758555 -1.72564 0
M  V30 2017 C 189.419 -1.70977 -2.92377 0
M  V30 2018 C 188.465 -2.92324 -3.10563 0
M  V30 2019 S 189.298 -4.52952 -2.85648 0
M  V30 2020 C 190.454 -4.58117 -4.26474 0
M  V30 2021 H 190.687 -2.62647 -1.39298 0
M  V30 2022 H 188.22 -1.41564 -0.616361 0
M  V30 2023 H 190.178 -1.73047 -3.72243 0
M  V30 2024 H 188.839 -0.78061 -3.04245 0
M  V30 2025 H 188.032 -2.90439 -4.11899 0
M  V30 2026 H 187.634 -2.88055 -2.38538 0
M  V30 2027 H 189.926 -4.34462 -5.19855 0
M  V30 2028 H 190.869 -5.59983 -4.33388 0
M  V30 2029 H 191.277 -3.8732 -4.10662 0
M  V30 2030 N 190.675 0.682077 -1.42076 0
M  V30 2031 C 191.922 1.44215 -1.42156 0
M  V30 2032 C 192.25 1.94468 -0.0354186 0
M  V30 2033 O 191.505 1.70816 0.955002 0
M  V30 2034 C 191.804 2.66036 -2.38662 0
M  V30 2035 C 191.47 2.34366 -3.85206 0
M  V30 2036 C 190.132 2.25439 -4.25124 0
M  V30 2037 C 192.484 2.08513 -4.77673 0
M  V30 2038 C 189.812 1.88775 -5.55501 0
M  V30 2039 C 192.164 1.73354 -6.08384 0
M  V30 2040 C 190.828 1.62933 -6.47309 0
M  V30 2041 H 190.098 0.527718 -0.520187 0
M  V30 2042 H 192.745 0.778387 -1.74967 0
M  V30 2043 H 191.05 3.3741 -1.99152 0
M  V30 2044 H 192.747 3.24205 -2.35991 0
M  V30 2045 H 189.337 2.42213 -3.53597 0
M  V30 2046 H 193.521 2.14346 -4.47626 0
M  V30 2047 H 188.777 1.7927 -5.84527 0
M  V30 2048 H 192.951 1.52373 -6.79526 0
M  V30 2049 H 190.578 1.34292 -7.48244 0
M  V30 2050 N 192.153 1.28127 0.917671 0
M  V30 2051 C 193.383 1.17722 1.6978 0
M  V30 2052 C 193.791 -0.267261 1.87303 0
M  V30 2053 O 193.134 -1.19286 1.39702 0
M  V30 2054 C 193.196 1.79958 3.11216 0
M  V30 2055 C 192.86 3.29187 3.16993 0
M  V30 2056 C 193.857 4.25679 2.98485 0
M  V30 2057 C 191.542 3.70075 3.39632 0
M  V30 2058 C 193.536 5.61035 3.02521 0
M  V30 2059 C 191.223 5.05557 3.433 0
M  V30 2060 C 192.221 6.00847 3.24764 0
M  V30 2061 O 191.909 7.33859 3.28187 0
M  V30 2062 H 191.641 0.409788 0.537634 0
M  V30 2063 H 194.195 1.69694 1.15728 0
M  V30 2064 H 192.425 1.22475 3.66793 0
M  V30 2065 H 194.114 1.64125 3.71238 0
M  V30 2066 H 194.88 3.95426 2.80826 0
M  V30 2067 H 190.759 2.96373 3.53106 0
M  V30 2068 H 194.303 6.35388 2.87971 0
M  V30 2069 H 190.2 5.35462 3.60486 0
M  V30 2070 H 190.968 7.42436 3.44575 0
M  V30 2071 N 193.631 -1.12557 1.10312 0
M  V30 2072 C 194.578 -2.18247 0.750781 0
M  V30 2073 C 195.548 -1.63853 -0.272293 0
M  V30 2074 O 196.733 -1.90195 -0.151862 0
M  V30 2075 C 193.873 -3.44591 0.187379 0
M  V30 2076 C 192.986 -4.13046 1.2656 0
M  V30 2077 C 192.121 -5.27034 0.663978 0
M  V30 2078 C 191.16 -5.87353 1.72287 0
M  V30 2079 N 190.297 -6.92757 1.1416 0
M  V30 2080 H 195.137 -2.47732 1.65628 0
M  V30 2081 H 192.674 -1.21629 0.827337 0
M  V30 2082 H 194.632 -4.16904 -0.157148 0
M  V30 2083 H 193.262 -3.15527 -0.681355 0
M  V30 2084 H 192.314 -3.38924 1.72727 0
M  V30 2085 H 193.626 -4.53947 2.06721 0
M  V30 2086 H 192.78 -6.06104 0.268824 0
M  V30 2087 H 191.519 -4.87407 -0.169082 0
M  V30 2088 H 190.524 -5.06971 2.12746 0
M  V30 2089 H 191.749 -6.29051 2.55875 0
M  V30 2090 H 189.695 -6.5517 0.329984 0
M  V30 2091 H 189.612 -7.3225 1.88007 0
M  V30 2092 H 190.88 -7.75658 0.772956 0
M  V30 2093 N 195.109 -0.891671 -1.2995 0
M  V30 2094 C 196.357 -0.512486 -1.95494 0
M  V30 2095 C 196.678 0.942776 -1.70695 0
M  V30 2096 O 195.948 1.66374 -1.03424 0
M  V30 2097 H 194.528 -0.186533 -0.723336 0
M  V30 2098 H 197.19 -1.13621 -1.58355 0
M  V30 2099 H 196.286 -0.688342 -3.04415 0
M  V30 2100 N 196.587 1.43421 -0.653314 0
M  V30 2101 C 197.834 2.01812 -0.166745 0
M  V30 2102 C 198.162 1.51535 1.21931 0
M  V30 2103 O 197.417 0.698975 1.82792 0
M  V30 2104 C 197.716 3.57176 -0.126623 0
M  V30 2105 C 197.382 4.26798 -1.45444 0
M  V30 2106 C 196.044 4.45534 -1.81805 0
M  V30 2107 C 198.396 4.66225 -2.32989 0
M  V30 2108 C 195.724 5.00961 -3.05377 0
M  V30 2109 C 198.076 5.23021 -3.55853 0
M  V30 2110 C 196.74 5.39973 -3.9241 0
M  V30 2111 H 196.01 0.738484 -0.0610162 0
M  V30 2112 H 198.657 1.71896 -0.84404 0
M  V30 2113 H 196.962 3.86634 0.634123 0
M  V30 2114 H 198.659 4.00112 0.266723 0
M  V30 2115 H 195.249 4.12561 -1.16153 0
M  V30 2116 H 199.433 4.51443 -2.06187 0
M  V30 2117 H 194.689 5.12271 -3.3375 0
M  V30 2118 H 198.863 5.52518 -4.23907 0
M  V30 2119 H 196.49 5.82687 -4.88242 0
M  V30 2120 N 198.065 0.39524 1.52563 0
M  V30 2121 C 198.995 -0.428384 2.29537 0
M  V30 2122 C 199.976 -1.05831 1.33169 0
M  V30 2123 O 201.161 -1.06995 1.62067 0
M  V30 2124 C 198.291 -1.55274 3.10656 0
M  V30 2125 C 197.245 -1.04855 4.14957 0
M  V30 2126 C 196.571 -2.26543 4.84337 0
M  V30 2127 C 197.871 -0.112324 5.22179 0
M  V30 2128 H 199.565 0.213867 2.98635 0
M  V30 2129 H 197.111 0.104298 1.43622 0
M  V30 2130 H 199.064 -2.1358 3.63265 0
M  V30 2131 H 197.788 -2.22266 2.39302 0
M  V30 2132 H 196.447 -0.487985 3.63338 0
M  V30 2133 H 196.095 -2.92059 4.09525 0
M  V30 2134 H 195.795 -1.93466 5.54837 0
M  V30 2135 H 197.319 -2.85481 5.39753 0
M  V30 2136 H 198.733 -0.603752 5.70112 0
M  V30 2137 H 197.13 0.128968 5.99961 0
M  V30 2138 H 198.2 0.837052 4.77621 0
M  V30 2139 N 199.544 -1.57102 0.125237 0
M  V30 2140 C 200.507 -2.14471 -0.80838 0
M  V30 2141 C 201.507 -1.0811 -1.19033 0
M  V30 2142 O 202.697 -1.33856 -1.11482 0
M  V30 2143 C 199.829 -2.69005 -2.09402 0
M  V30 2144 H 201.022 -2.98297 -0.309696 0
M  V30 2145 H 198.575 -1.55807 -0.124051 0
M  V30 2146 H 199.31 -1.88785 -2.63687 0
M  V30 2147 H 199.095 -3.46799 -1.82957 0
M  V30 2148 H 200.585 -3.13278 -2.76128 0
M  V30 2149 N 201.022 0.148545 -1.56898 0
M  V30 2150 C 202.252 0.875118 -1.8715 0
M  V30 2151 C 202.66 1.75322 -0.711262 0
M  V30 2152 O 202.003 1.80745 0.328151 0
M  V30 2153 C 202.065 1.7844 -3.12089 0
M  V30 2154 C 201.729 1.08361 -4.43967 0
M  V30 2155 C 202.726 0.438247 -5.1805 0
M  V30 2156 C 200.411 1.07358 -4.90693 0
M  V30 2157 C 202.405 -0.20779 -6.37061 0
M  V30 2158 C 200.092 0.42373 -6.09629 0
M  V30 2159 C 201.09 -0.215829 -6.82659 0
M  V30 2160 O 200.778 -0.855378 -7.99336 0
M  V30 2161 H 200.51 0.258504 -0.624621 0
M  V30 2162 H 203.064 0.14652 -2.04877 0
M  V30 2163 H 201.294 2.55389 -2.90367 0
M  V30 2164 H 202.983 2.38279 -3.286 0
M  V30 2165 H 203.749 0.437817 -4.8302 0
M  V30 2166 H 199.628 1.5608 -4.33774 0
M  V30 2167 H 203.172 -0.70758 -6.94002 0
M  V30 2168 H 199.069 0.421822 -6.4412 0
M  V30 2169 H 199.837 -0.756892 -8.14993 0
M  V30 2170 N 202.5 1.5196 0.417844 0
M  V30 2171 C 203.73 1.69181 1.18581 0
M  V30 2172 C 204.138 0.397104 1.84986 0
M  V30 2173 O 203.481 -0.636011 1.72339 0
M  V30 2174 C 203.543 2.76497 2.29759 0
M  V30 2175 C 203.207 4.18514 1.83563 0
M  V30 2176 C 204.204 5.02648 1.32821 0
M  V30 2177 C 201.889 4.64708 1.90661 0
M  V30 2178 C 203.883 6.31044 0.897894 0
M  V30 2179 C 201.57 5.93096 1.47241 0
M  V30 2180 C 202.568 6.76093 0.968891 0
M  V30 2181 O 202.256 8.02078 0.540924 0
M  V30 2182 H 201.988 0.570457 0.362705 0
M  V30 2183 H 204.542 1.99249 0.498885 0
M  V30 2184 H 202.772 2.41786 3.01789 0
M  V30 2185 H 204.461 2.82403 2.91553 0
M  V30 2186 H 205.227 4.68154 1.26716 0
M  V30 2187 H 201.106 4.00216 2.28797 0
M  V30 2188 H 204.65 6.95776 0.504192 0
M  V30 2189 H 200.547 6.271 1.53022 0
M  V30 2190 H 201.315 8.15794 0.66502 0
M  V30 2191 N 203.978 -0.674533 1.42435 0
M  V30 2192 C 204.91 -1.80005 1.41883 0
M  V30 2193 C 205.923 -1.59667 0.31787 0
M  V30 2194 O 207.112 -1.68781 0.580973 0
M  V30 2195 C 204.212 -3.17114 1.19549 0
M  V30 2196 C 203.385 -3.64299 2.42084 0
M  V30 2197 C 202.444 -4.80142 2.15291 0
M  V30 2198 O 201.47 -4.90673 2.88493 0
M  V30 2199 N 202.672 -5.68869 1.1562 0
M  V30 2200 H 205.437 -1.80964 2.38898 0
M  V30 2201 H 202.998 -0.857633 1.37318 0
M  V30 2202 H 204.99 -3.92267 0.995417 0
M  V30 2203 H 203.56 -3.11053 0.310569 0
M  V30 2204 H 202.78 -2.79822 2.77657 0
M  V30 2205 H 204.068 -3.92567 3.23679 0
M  V30 2206 H 203.466 -5.63012 0.550765 0
M  V30 2207 H 202.023 -6.43833 1.016 0
M  V30 2208 N 205.456 -1.28612 -0.910864 0
M  V30 2209 C 206.419 -1.12803 -1.9952 0
M  V30 2210 C 207.419 -0.0668264 -1.60661 0
M  V30 2211 O 208.609 -0.312847 -1.71368 0
M  V30 2212 C 205.741 -0.72254 -3.33155 0
M  V30 2213 H 206.934 -2.09109 -2.14973 0
M  V30 2214 H 204.487 -1.11639 -1.09391 0
M  V30 2215 H 205.222 0.241152 -3.23402 0
M  V30 2216 H 205.007 -1.48916 -3.62721 0
M  V30 2217 H 206.497 -0.634666 -4.12749 0
M  V30 2218 N 206.934 1.1197 -1.10907 0
M  V30 2219 C 208.18 1.8386 -0.855773 0
M  V30 2220 C 208.513 1.84134 0.617103 0
M  V30 2221 O 207.788 1.29041 1.45529 0
M  V30 2222 C 208.071 3.31305 -1.411 0
M  V30 2223 C 207.924 3.39456 -2.9511 0
M  V30 2224 C 209.243 4.2721 -1.05736 0
M  V30 2225 H 206.362 0.667545 -0.312334 0
M  V30 2226 H 209.004 1.31331 -1.37303 0
M  V30 2227 H 207.154 3.76169 -0.97105 0
M  V30 2228 H 208.826 3.03191 -3.47668 0
M  V30 2229 H 207.069 2.79849 -3.31462 0
M  V30 2230 H 207.74 4.43209 -3.29044 0
M  V30 2231 H 210.216 3.90497 -1.43706 0
M  V30 2232 H 209.092 5.28775 -1.47269 0
M  V30 2233 H 209.353 4.42088 0.0325958 0
M  V30 2234 N 208.412 0.89855 1.29475 0
M  V30 2235 C 209.689 0.443416 1.90508 0
M  V30 2236 C 210.069 -1.07685 1.81569 0
M  V30 2237 O 209.417 -1.9182 1.24166 0
M  V30 2238 C 209.627 0.956708 3.35631 0
M  V30 2239 C 210.975 0.999728 4.12663 0
M  V30 2240 O 211.999 0.904299 3.4453 0
M  V30 2241 O 210.858 1.14289 5.34416 0
M  V30 2242 H 207.952 0.138025 0.815401 0
M  V30 2243 H 210.498 0.98834 1.37949 0
M  V30 2244 H 209.27 2.00067 3.36287 0
M  V30 2245 H 208.893 0.391728 3.95666 0
M  V30 2246 N 209.89 -1.43072 0.660911 0
M  V30 2247 C 210.82 -2.33497 -0.0122829 0
M  V30 2248 C 211.801 -1.49903 -0.803925 0
M  V30 2249 O 212.986 -1.78546 -0.763864 0
M  V30 2250 C 210.116 -3.33363 -0.973994 0
M  V30 2251 C 209.07 -4.27003 -0.291928 0
M  V30 2252 C 208.396 -5.16967 -1.36562 0
M  V30 2253 C 209.696 -5.15816 0.820462 0
M  V30 2254 H 211.39 -2.90038 0.742873 0
M  V30 2255 H 208.936 -1.39461 0.358688 0
M  V30 2256 H 210.889 -3.95524 -1.45392 0
M  V30 2257 H 209.613 -2.75095 -1.7604 0
M  V30 2258 H 208.272 -3.66217 0.167623 0
M  V30 2259 H 207.92 -4.55034 -2.14366 0
M  V30 2260 H 207.62 -5.80441 -0.914454 0
M  V30 2261 H 209.144 -5.82003 -1.84675 0
M  V30 2262 H 210.558 -5.71742 0.422366 0
M  V30 2263 H 208.955 -5.8805 1.19656 0
M  V30 2264 H 210.025 -4.55045 1.67518 0
M  V30 2265 N 211.368 -0.403325 -1.52352 0
M  V30 2266 C 212.645 0.232611 -1.94212 0
M  V30 2267 C 213.025 1.63133 -1.33981 0
M  V30 2268 O 212.373 2.22659 -0.513344 0
M  V30 2269 C 212.583 0.244811 -3.4814 0
M  V30 2270 C 213.931 0.46698 -4.22024 0
M  V30 2271 O 214.955 0.324419 -3.5472 0
M  V30 2272 O 213.814 0.74747 -5.41364 0
M  V30 2273 H 210.908 0.148223 -0.813609 0
M  V30 2274 H 213.454 -0.458848 -1.63379 0
M  V30 2275 H 212.226 -0.734378 -3.84347 0
M  V30 2276 H 211.849 0.980611 -3.85318 0
M  V30 2277 N 212.846 1.57033 -0.133567 0
M  V30 2278 C 213.756 2.19632 0.824564 0
M  V30 2279 C 214.772 1.17666 1.28182 0
M  V30 2280 O 215.948 1.50193 1.3418 0
M  V30 2281 C 213.013 2.79499 2.05137 0
M  V30 2282 C 212.074 3.96548 1.64464 0
M  V30 2283 C 211.307 4.5355 2.81297 0
M  V30 2284 O 211.53 4.09438 3.97136 0
M  V30 2285 O 210.464 5.44018 2.57542 0
M  V30 2286 H 214.29 3.01991 0.321766 0
M  V30 2287 H 211.875 1.49112 0.0927889 0
M  V30 2288 H 213.757 3.17602 2.7696 0
M  V30 2289 H 212.432 2.00162 2.54395 0
M  V30 2290 H 211.339 3.63186 0.897048 0
M  V30 2291 H 212.672 4.77364 1.19934 0
M  V30 2292 N 214.325 -0.140222 1.56975 0
M  V30 2293 C 215.565 -0.857823 1.85528 0
M  V30 2294 C 215.929 -1.78039 0.718768 0
M  V30 2295 O 217.13 -2.53795 0.885521 0
M  V30 2296 C 215.401 -1.60615 3.19277 0
M  V30 2297 S 216.96 -2.36824 3.69405 0
M  V30 2298 H 213.778 -0.286727 0.650622 0
M  V30 2299 H 216.38 -0.117408 1.95147 0
M  V30 2300 H 215.084 -0.919994 3.99955 0
M  V30 2301 H 214.615 -2.38735 3.12681 0
M  V30 2302 H 216.63 -3.62148 3.3921 0
M  V30 2303 N 215.803 -1.52179 -0.40978 0
M  V30 2304 C 216.766 -1.74853 -1.48186 0
M  V30 2305 C 217.766 -0.618417 -1.48433 0
M  V30 2306 O 218.956 -0.886286 -1.49969 0
M  V30 2307 C 216.088 -1.8303 -2.87598 0
M  V30 2308 H 217.281 -2.70559 -1.29374 0
M  V30 2309 H 214.834 -1.42586 -0.640233 0
M  V30 2310 H 215.569 -0.89236 -3.11781 0
M  V30 2311 H 215.354 -2.65187 -2.88822 0
M  V30 2312 H 216.844 -2.02316 -3.65319 0
M  V30 2313 N 217.281 0.66697 -1.42791 0
M  V30 2314 C 218.506 1.46004 -1.47301 0
M  V30 2315 C 218.931 1.87894 -0.0880317 0
M  V30 2316 O 218.289 1.56502 0.915253 0
M  V30 2317 C 218.337 2.68031 -2.41229 0
M  V30 2318 O 217.441 3.6659 -1.88906 0
M  V30 2319 H 216.782 0.43832 -0.49877 0
M  V30 2320 H 219.312 0.817391 -1.87563 0
M  V30 2321 H 219.322 3.1601 -2.58073 0
M  V30 2322 H 217.997 2.36883 -3.41847 0
M  V30 2323 H 216.574 3.25661 -1.81656 0
M  V30 2324 N 218.759 1.29093 0.90403 0
M  V30 2325 C 220.175 1.07011 1.1841 0
M  V30 2326 C 220.375 -0.181358 2.00682 0
M  V30 2327 O 219.431 -0.880331 2.36657 0
M  V30 2328 C 220.744 2.32311 1.90924 0
M  V30 2329 C 222.292 2.37587 2.03768 0
M  V30 2330 C 222.767 3.62679 2.79693 0
M  V30 2331 N 224.258 3.63376 2.87249 0
M  V30 2332 C 224.993 4.56848 3.46522 0
M  V30 2333 N 224.489 5.60648 4.06996 0
M  V30 2334 N 226.282 4.44426 3.44154 0
M  V30 2335 H 218.433 2.09412 0.354993 0
M  V30 2336 H 220.696 0.922181 0.219742 0
M  V30 2337 H 220.402 3.23536 1.37905 0
M  V30 2338 H 220.276 2.39483 2.91424 0
M  V30 2339 H 222.663 1.46853 2.55965 0
M  V30 2340 H 222.744 2.34403 1.02415 0
M  V30 2341 H 222.388 4.53762 2.28173 0
M  V30 2342 H 222.318 3.63119 3.81381 0
M  V30 2343 H 224.809 2.88321 2.44293 0
M  V30 2344 H 225.122 6.28101 4.50232 0
M  V30 2345 H 223.467 5.64463 4.05471 0
M  V30 2346 H 226.658 3.62529 2.96126 0
M  V30 2347 H 226.831 5.17457 3.90054 0
M  V30 2348 N 220.237 -1.11381 1.11499 0
M  V30 2349 C 221.462 -1.87475 0.887019 0
M  V30 2350 C 221.887 -1.79639 -0.557796 0
M  V30 2351 O 221.245 -1.15924 -1.39396 0
M  V30 2352 C 221.293 -3.34213 1.35403 0
M  V30 2353 O 220.397 -4.0903 0.526146 0
M  V30 2354 H 219.738 -0.582099 0.319463 0
M  V30 2355 H 222.268 -1.40785 1.48461 0
M  V30 2356 H 222.278 -3.8506 1.34881 0
M  V30 2357 H 220.953 -3.39232 2.40612 0
M  V30 2358 H 219.53 -3.68082 0.597522 0
M  V30 2359 N 221.715 -0.905404 -1.28997 0
M  V30 2360 C 222.662 -0.385892 -2.27551 0
M  V30 2361 C 223.632 0.535113 -1.57244 0
M  V30 2362 O 224.817 0.459119 -1.85194 0
M  V30 2363 C 221.957 0.375461 -3.43051 0
M  V30 2364 C 221.07 -0.577092 -4.28128 0
M  V30 2365 C 220.205 0.201879 -5.30816 0
M  V30 2366 C 219.244 -0.744829 -6.07551 0
M  V30 2367 N 218.381 9.42587e-05 -7.021 0
M  V30 2368 H 223.221 -1.23139 -2.71368 0
M  V30 2369 H 220.758 -0.618542 -1.33463 0
M  V30 2370 H 222.716 0.832992 -4.088 0
M  V30 2371 H 221.346 1.18537 -3.00248 0
M  V30 2372 H 220.398 -1.15315 -3.62501 0
M  V30 2373 H 221.71 -1.30152 -4.8152 0
M  V30 2374 H 220.864 0.720351 -6.02408 0
M  V30 2375 H 219.603 0.959413 -4.7817 0
M  V30 2376 H 218.608 -1.27475 -5.34818 0
M  V30 2377 H 219.833 -1.50178 -6.62286 0
M  V30 2378 H 217.779 0.739791 -6.51815 0
M  V30 2379 H 217.696 -0.664321 -7.53076 0
M  V30 2380 H 218.964 0.498644 -7.77903 0
M  V30 2381 N 223.193 1.4272 -0.668489 0
M  V30 2382 C 224.418 2.06484 -0.194758 0
M  V30 2383 C 224.843 1.49862 1.13679 0
M  V30 2384 O 224.201 0.614582 1.70565 0
M  V30 2385 C 224.249 3.60353 -0.133546 0
M  V30 2386 O 223.353 4.02464 0.899806 0
M  V30 2387 H 222.694 0.656137 -0.10188 0
M  V30 2388 H 225.224 1.82964 -0.915722 0
M  V30 2389 H 225.234 4.07976 0.0447041 0
M  V30 2390 H 223.909 4.00938 -1.1055 0
M  V30 2391 H 222.486 3.66402 0.693109 0
M  V30 2392 N 224.671 0.411399 1.52136 0
M  V30 2393 C 225.919 -0.163322 2.01439 0
M  V30 2394 C 226.24 -1.45453 1.29879 0
M  V30 2395 O 225.51 -1.91225 0.4254 0
M  V30 2396 H 224.09 -0.0633447 0.744309 0
M  V30 2397 H 226.752 0.548161 1.87033 0
M  V30 2398 H 225.848 -0.357817 3.10042 0
M  V30 2399 N 226.149 -1.5696 0.141893 0
M  V30 2400 C 227.059 -2.20066 -0.812905 0
M  V30 2401 C 228.075 -1.18344 -1.27557 0
M  V30 2402 O 229.251 -1.50902 -1.33381 0
M  V30 2403 C 226.316 -2.80583 -2.03652 0
M  V30 2404 C 225.377 -3.97414 -1.62359 0
M  V30 2405 C 224.61 -4.55036 -2.78887 0
M  V30 2406 O 224.833 -4.11538 -3.94959 0
M  V30 2407 O 223.767 -5.45376 -2.54653 0
M  V30 2408 H 227.593 -3.02157 -0.305746 0
M  V30 2409 H 225.178 -1.49159 -0.0848799 0
M  V30 2410 H 227.06 -3.19067 -2.75272 0
M  V30 2411 H 225.735 -2.01508 -2.5333 0
M  V30 2412 H 224.642 -3.63656 -0.877775 0
M  V30 2413 H 225.975 -4.77994 -1.17401 0
M  V30 2414 N 227.627 0.131896 -1.57047 0
M  V30 2415 C 228.537 1.1815 -2.02676 0
M  V30 2416 C 229.553 1.46113 -0.944824 0
M  V30 2417 O 230.729 1.57485 -1.25541 0
M  V30 2418 C 227.794 2.49139 -2.41103 0
M  V30 2419 C 226.855 2.28688 -3.63318 0
M  V30 2420 C 226.088 3.53431 -3.99903 0
M  V30 2421 O 226.311 4.60223 -3.36973 0
M  V30 2422 O 225.245 3.45198 -4.93074 0
M  V30 2423 H 229.071 0.824069 -2.92306 0
M  V30 2424 H 226.656 0.341745 -1.45439 0
M  V30 2425 H 228.538 3.26338 -2.66611 0
M  V30 2426 H 227.213 2.84382 -1.54624 0
M  V30 2427 H 226.12 1.4939 -3.42977 0
M  V30 2428 H 227.453 1.98355 -4.50462 0
M  V30 2429 N 229.106 1.52395 0.401703 0
M  V30 2430 C 230.383 1.57387 1.16141 0
M  V30 2431 C 230.763 0.359359 2.08019 0
M  V30 2432 O 230.111 -0.65326 2.18963 0
M  V30 2433 C 230.321 2.90631 1.93221 0
M  V30 2434 C 231.669 3.43904 2.49028 0
M  V30 2435 O 232.693 2.92421 2.03393 0
M  V30 2436 O 231.552 4.33823 3.32356 0
M  V30 2437 H 228.646 0.634262 0.530698 0
M  V30 2438 H 231.192 1.64725 0.407883 0
M  V30 2439 H 229.964 3.70473 1.25958 0
M  V30 2440 H 229.587 2.8662 2.75563 0
M  V30 2441 N 230.584 -0.659388 1.43143 0
M  V30 2442 C 231.995 -1.24041 1.39537 0
M  V30 2443 C 232.346 -1.95963 0.0963364 0
M  V30 2444 O 231.471 -2.00892 -0.804438 0
M  V30 2445 C 232.066 -2.25601 2.52764 0
M  V30 2446 C 230.625 -2.79195 2.52443 0
M  V30 2447 C 229.772 -1.53743 2.30778 0
M  V30 2448 H 232.723 -0.451792 1.52133 0
M  V30 2449 H 232.744 -3.07651 2.23899 0
M  V30 2450 H 232.256 -1.73226 3.47296 0
M  V30 2451 H 230.357 -3.35649 1.61773 0
M  V30 2452 H 230.47 -3.2716 3.50004 0
M  V30 2453 H 228.834 -1.80869 1.79328 0
M  V30 2454 H 229.617 -1.03312 3.27386 0
M  V30 2455 N 232.062 -1.29571 -0.897171 0
M  V30 2456 C 232.994 -1.10724 -2.00681 0
M  V30 2457 C 234.007 -0.0540026 -1.6271 0
M  V30 2458 O 235.196 -0.298783 -1.75982 0
M  V30 2459 C 232.296 -0.663912 -3.32333 0
M  V30 2460 C 231.469 -1.79622 -3.98816 0
M  V30 2461 C 230.528 -1.34349 -5.0876 0
M  V30 2462 O 229.554 -2.04864 -5.31055 0
M  V30 2463 N 230.756 -0.215764 -5.80099 0
M  V30 2464 H 233.521 -2.06291 -2.17403 0
M  V30 2465 H 231.082 -1.21544 -1.06951 0
M  V30 2466 H 233.074 -0.344295 -4.03233 0
M  V30 2467 H 231.644 0.199375 -3.11964 0
M  V30 2468 H 230.864 -2.28459 -3.21248 0
M  V30 2469 H 232.152 -2.55535 -4.39976 0
M  V30 2470 H 231.55 0.372091 -5.64475 0
M  V30 2471 H 230.107 0.0444707 -6.51785 0
M  V30 2472 N 233.54 1.10788 -1.12088 0
M  V30 2473 C 234.951 1.64181 -0.88891 0
M  V30 2474 C 235.302 1.87508 0.577498 0
M  V30 2475 O 234.427 1.61434 1.44112 0
M  V30 2476 C 235.022 2.98257 -1.60712 0
M  V30 2477 C 233.581 3.4853 -1.42139 0
M  V30 2478 C 232.728 2.23208 -1.6454 0
M  V30 2479 H 235.679 0.943368 -1.27618 0
M  V30 2480 H 235.7 3.65552 -1.05604 0
M  V30 2481 H 235.212 2.81246 -2.67436 0
M  V30 2482 H 233.313 3.70692 -0.376552 0
M  V30 2483 H 233.426 4.26882 -2.17505 0
M  V30 2484 H 231.79 2.31169 -1.06925 0
M  V30 2485 H 232.573 2.08733 -2.72554 0
M  V30 2486 N 235.018 0.912232 1.28515 0
M  V30 2487 C 235.95 0.35676 2.26406 0
M  V30 2488 C 236.963 -0.503933 1.54804 0
M  V30 2489 O 238.152 -0.319059 1.75625 0
M  V30 2490 C 235.252 -0.508825 3.35058 0
M  V30 2491 C 234.425 0.329007 4.36161 0
M  V30 2492 C 233.484 -0.471422 5.24084 0
M  V30 2493 O 232.51 0.115482 5.69083 0
M  V30 2494 N 233.712 -1.77479 5.52704 0
M  V30 2495 H 236.477 1.19818 2.74707 0
M  V30 2496 H 234.038 0.778022 1.4198 0
M  V30 2497 H 236.03 -1.051 3.90815 0
M  V30 2498 H 234.6 -1.25095 2.86478 0
M  V30 2499 H 233.82 1.05256 3.79888 0
M  V30 2500 H 235.108 0.90234 5.00735 0
M  V30 2501 H 234.506 -2.27417 5.17975 0
M  V30 2502 H 233.063 -2.26382 6.11224 0
M  V30 2503 N 236.496 -1.42363 0.676048 0
M  V30 2504 C 237.736 -2.03392 0.20273 0
M  V30 2505 C 238.1 -1.52306 -1.16906 0
M  V30 2506 O 239.301 -2.05129 -1.73711 0
M  V30 2507 C 237.572 -3.56614 0.236947 0
M  V30 2508 S 239.131 -4.38489 -0.165186 0
M  V30 2509 H 235.949 -0.70611 0.0832418 0
M  V30 2510 H 238.551 -1.74093 0.88948 0
M  V30 2511 H 237.255 -3.91293 1.23767 0
M  V30 2512 H 236.786 -3.90587 -0.469596 0
M  V30 2513 H 238.801 -4.76093 -1.39822 0
M  V30 2514 N 237.974 -0.419461 -1.51915 0
M  V30 2515 C 238.906 0.43646 -2.25006 0
M  V30 2516 C 239.919 1.00149 -1.28351 0
M  V30 2517 O 241.108 0.898674 -1.54227 0
M  V30 2518 C 238.208 1.6206 -2.9764 0
M  V30 2519 C 237.381 1.17763 -4.21249 0
M  V30 2520 C 236.44 2.22985 -4.76617 0
M  V30 2521 O 235.466 1.83151 -5.38929 0
M  V30 2522 N 236.668 3.55271 -4.59089 0
M  V30 2523 H 239.433 -0.18989 -2.99098 0
M  V30 2524 H 236.994 -0.247386 -1.59999 0
M  V30 2525 H 238.986 2.32038 -3.31573 0
M  V30 2526 H 237.556 2.15266 -2.2667 0
M  V30 2527 H 236.776 0.305582 -3.93014 0
M  V30 2528 H 238.064 0.858781 -5.015 0
M  V30 2529 H 237.462 3.90377 -4.09417 0
M  V30 2530 H 236.019 4.21195 -4.97432 0
M  V30 2531 N 239.452 1.56882 -0.150215 0
M  V30 2532 C 240.402 2.13501 0.800071 0
M  V30 2533 C 241.386 1.06368 1.20726 0
M  V30 2534 O 242.578 1.32538 1.17314 0
M  V30 2535 C 239.707 2.76271 2.03787 0
M  V30 2536 C 238.793 3.90533 1.65364 0
M  V30 2537 N 239.184 4.96259 0.977794 0
M  V30 2538 C 237.482 4.013 1.94613 0
M  V30 2539 C 238.183 5.76286 0.791794 0
M  V30 2540 N 237.159 5.27163 1.32666 0
M  V30 2541 H 240.961 2.92615 0.274517 0
M  V30 2542 H 238.475 1.62319 0.0512144 0
M  V30 2543 H 240.472 3.15197 2.72867 0
M  V30 2544 H 239.132 1.98631 2.56857 0
M  V30 2545 H 240.143 5.13953 0.638193 0
M  V30 2546 H 236.82 3.3474 2.4951 0
M  V30 2547 H 238.21 6.71401 0.258894 0
M  V30 2548 N 240.93 -0.123565 1.57115 0
M  V30 2549 C 241.86 -1.15309 2.03042 0
M  V30 2550 C 242.841 -1.43454 0.914061 0
M  V30 2551 O 244.026 -1.53973 1.18347 0
M  V30 2552 C 241.156 -2.48043 2.43089 0
M  V30 2553 C 240.11 -2.3437 3.58127 0
M  V30 2554 C 239.436 -3.72026 3.84059 0
M  V30 2555 C 240.736 -1.80804 4.90007 0
M  V30 2556 H 242.43 -0.771102 2.893 0
M  V30 2557 H 239.976 -0.369479 1.39179 0
M  V30 2558 H 241.929 -3.20311 2.73823 0
M  V30 2559 H 240.653 -2.88122 1.53796 0
M  V30 2560 H 239.312 -1.64551 3.27595 0
M  V30 2561 H 238.96 -4.09582 2.91979 0
M  V30 2562 H 238.66 -3.63732 4.6149 0
M  V30 2563 H 240.184 -4.45806 4.1724 0
M  V30 2564 H 241.598 -2.42886 5.19307 0
M  V30 2565 H 239.995 -1.83343 5.71407 0
M  V30 2566 H 241.065 -0.76528 4.78823 0
M  V30 2567 N 242.408 -1.52605 -0.393616 0
M  V30 2568 C 243.648 -1.6911 -1.1481 0
M  V30 2569 C 244.012 -0.41969 -1.87357 0
M  V30 2570 O 245.213 -0.461034 -2.64817 0
M  V30 2571 C 243.484 -2.88909 -2.10395 0
M  V30 2572 S 245.043 -3.25977 -2.93742 0
M  V30 2573 H 241.861 -0.595337 -0.38871 0
M  V30 2574 H 244.463 -1.90641 -0.433178 0
M  V30 2575 H 243.167 -3.79672 -1.55812 0
M  V30 2576 H 242.698 -2.69698 -2.86403 0
M  V30 2577 H 244.713 -2.75806 -4.12487 0
M  V30 2578 N 243.887 0.651787 -1.4349 0
M  V30 2579 C 244.837 1.75783 -1.45205 0
M  V30 2580 C 245.821 1.57679 -0.320328 0
M  V30 2581 O 247.013 1.67767 -0.564211 0
M  V30 2582 C 244.142 3.14377 -1.3792 0
M  V30 2583 C 243.228 3.38023 -2.56127 0
M  V30 2584 N 243.619 3.32135 -3.81471 0
M  V30 2585 C 241.917 3.68747 -2.50882 0
M  V30 2586 C 242.618 3.55902 -4.60118 0
M  V30 2587 N 241.594 3.77783 -3.90872 0
M  V30 2588 H 245.396 1.69657 -2.39987 0
M  V30 2589 H 242.91 0.853508 -1.38163 0
M  V30 2590 H 244.907 3.93666 -1.37231 0
M  V30 2591 H 243.567 3.21683 -0.441596 0
M  V30 2592 H 244.578 3.11515 -4.13738 0
M  V30 2593 H 241.255 3.8316 -1.65816 0
M  V30 2594 H 242.645 3.57116 -5.69138 0
M  V30 2595 N 245.365 1.30045 0.890287 0
M  V30 2596 C 246.313 1.15873 2.01683 0
M  V30 2597 C 247.307 0.0719403 1.69247 0
M  V30 2598 O 248.513 0.232414 1.78493 0
M  V30 2599 H 244.888 0.358203 0.661207 0
M  V30 2600 H 246.859 2.11229 2.10772 0
M  V30 2601 C 245.608 0.861842 3.36849 0
M  V30 2602 H 244.931 1.69016 3.62317 0
M  V30 2603 H 246.371 0.802762 4.16331 0
M  V30 2604 C 244.83 -0.435132 3.34078 0
M  V30 2605 O 245.36 -1.4583 3.74295 0
M  V30 2606 N 243.566 -0.444377 2.87182 0
M  V30 2607 H 243.113 0.388723 2.5465 0
M  V30 2608 H 243.071 -1.31213 2.85711 0
M  V30 2609 N 246.843 -1.10192 1.12674 0
M  V30 2610 C 248.073 -1.85713 0.905213 0
M  V30 2611 C 248.481 -1.81056 -0.549108 0
M  V30 2612 O 247.824 -1.19927 -1.39151 0
M  V30 2613 C 247.886 -3.34972 1.30516 0
M  V30 2614 C 247.55 -3.63385 2.77129 0
M  V30 2615 C 248.547 -3.59772 3.75313 0
M  V30 2616 C 246.232 -3.91981 3.14096 0
M  V30 2617 C 248.226 -3.84354 5.08479 0
M  V30 2618 C 245.913 -4.16218 4.47443 0
M  V30 2619 C 246.911 -4.12395 5.44444 0
M  V30 2620 O 246.599 -4.36014 6.75387 0
M  V30 2621 H 246.331 -0.593719 0.323223 0
M  V30 2622 H 248.885 -1.40198 1.50112 0
M  V30 2623 H 247.115 -3.81156 0.652463 0
M  V30 2624 H 248.804 -3.91886 1.05736 0
M  V30 2625 H 249.57 -3.37716 3.48099 0
M  V30 2626 H 245.449 -3.94085 2.39202 0
M  V30 2627 H 248.993 -3.81285 5.84181 0
M  V30 2628 H 244.89 -4.37754 4.74386 0
M  V30 2629 H 245.658 -4.53516 6.8137 0
M  V30 2630 N 248.321 -0.919034 -1.28029 0
M  V30 2631 C 249.567 -0.555757 -1.95036 0
M  V30 2632 C 249.9 0.899198 -1.72128 0
M  V30 2633 O 249.175 1.64023 -1.04531 0
M  V30 2634 C 249.458 -0.872024 -3.49382 0
M  V30 2635 C 249.311 -2.3801 -3.81669 0
M  V30 2636 C 250.63 -0.37185 -4.38526 0
M  V30 2637 H 247.749 -0.203386 -0.708381 0
M  V30 2638 H 250.391 -1.14924 -1.51303 0
M  V30 2639 H 248.541 -0.366946 -3.86763 0
M  V30 2640 H 250.213 -2.9562 -3.54128 0
M  V30 2641 H 248.456 -2.83289 -3.28526 0
M  V30 2642 H 249.127 -2.55192 -4.8947 0
M  V30 2643 H 251.603 -0.804602 -4.08247 0
M  V30 2644 H 250.479 -0.622173 -5.45362 0
M  V30 2645 H 250.74 0.727934 -4.36066 0
M  V30 2646 N 249.799 1.42003 -0.683588 0
M  V30 2647 C 251.047 2.01015 -0.209101 0
M  V30 2648 C 251.368 1.54365 1.19149 0
M  V30 2649 O 250.638 0.769083 1.80172 0
M  V30 2650 H 249.218 0.743294 -0.074315 0
M  V30 2651 H 251.88 1.73798 -0.882066 0
M  V30 2652 H 250.976 3.11343 -0.2172 0
M  V30 2653 N 251.277 0.427512 1.51691 0
M  V30 2654 C 252.525 -0.141948 2.01601 0
M  V30 2655 C 252.846 -1.44067 1.31414 0
M  V30 2656 O 252.116 -1.90763 0.445658 0
M  V30 2657 H 250.696 -0.0554468 0.744939 0
M  V30 2658 H 253.358 0.567968 1.86441 0
M  V30 2659 H 252.454 -0.324913 3.10404 0
M  V30 2660 N 252.755 -1.56801 0.158532 0
M  V30 2661 C 253.985 -2.00568 -0.495583 0
M  V30 2662 C 254.393 -1.03774 -1.58201 0
M  V30 2663 O 253.736 -0.0285797 -1.83678 0
M  V30 2664 C 253.798 -3.40768 -1.14532 0
M  V30 2665 C 253.462 -4.56553 -0.202101 0
M  V30 2666 C 254.459 -5.16714 0.574675 0
M  V30 2667 C 252.144 -5.02197 -0.101648 0
M  V30 2668 C 254.138 -6.20939 1.43924 0
M  V30 2669 C 251.825 -6.06274 0.766508 0
M  V30 2670 C 252.823 -6.65515 1.53555 0
M  V30 2671 O 252.511 -7.67575 2.38922 0
M  V30 2672 H 252.243 -0.662893 -0.13247 0
M  V30 2673 H 254.797 -2.03829 0.253559 0
M  V30 2674 H 253.027 -3.34381 -1.94233 0
M  V30 2675 H 254.716 -3.6857 -1.70033 0
M  V30 2676 H 255.482 -4.82341 0.507167 0
M  V30 2677 H 251.361 -4.55807 -0.689994 0
M  V30 2678 H 254.905 -6.67107 2.03996 0
M  V30 2679 H 250.802 -6.40073 0.835266 0
M  V30 2680 H 251.57 -7.84844 2.32296 0
M  V30 2681 N 254.233 0.115231 -1.57178 0
M  V30 2682 C 255.48 0.822351 -1.8505 0
M  V30 2683 C 255.808 1.79701 -0.744168 0
M  V30 2684 O 255.063 1.93909 0.26414 0
M  V30 2685 C 255.362 1.60324 -3.19423 0
M  V30 2686 C 255.028 0.772536 -4.44233 0
M  V30 2687 C 253.69 0.543468 -4.78121 0
M  V30 2688 C 256.042 0.193746 -5.2084 0
M  V30 2689 C 253.37 -0.274583 -5.86057 0
M  V30 2690 C 255.722 -0.611517 -6.29637 0
M  V30 2691 C 254.386 -0.850867 -6.62055 0
M  V30 2692 H 253.656 0.30092 -0.677147 0
M  V30 2693 H 256.303 0.0845802 -1.91313 0
M  V30 2694 H 254.608 2.41203 -3.08753 0
M  V30 2695 H 256.305 2.1544 -3.38211 0
M  V30 2696 H 252.895 0.96117 -4.17683 0
M  V30 2697 H 257.079 0.357926 -4.95008 0
M  V30 2698 H 252.335 -0.469206 -6.09597 0
M  V30 2699 H 256.509 -1.06697 -6.88178 0
M  V30 2700 H 254.136 -1.48657 -7.45523 0
M  V30 2701 N 255.711 1.52812 0.385517 0
M  V30 2702 C 256.951 1.69716 1.13911 0
M  V30 2703 C 257.315 0.42962 1.87132 0
M  V30 2704 O 258.516 0.475071 2.64569 0
M  V30 2705 C 256.787 2.90021 2.0886 0
M  V30 2706 S 258.346 3.27531 2.92009 0
M  V30 2707 H 255.164 0.59739 0.385547 0
M  V30 2708 H 257.766 1.90868 0.423061 0
M  V30 2709 H 256.47 3.80493 1.53797 0
M  V30 2710 H 256.001 2.71213 2.84969 0
M  V30 2711 H 258.016 2.77989 4.11019 0
M  V30 2712 N 257.189 -0.644168 1.43834 0
M  V30 2713 C 258.414 -1.43642 1.49605 0
M  V30 2714 C 258.839 -1.8773 0.117913 0
M  V30 2715 O 258.197 -1.57938 -0.890239 0
M  V30 2716 C 258.245 -2.6416 2.45463 0
M  V30 2717 O 257.349 -3.63538 1.94714 0
M  V30 2718 H 256.69 -0.430329 0.50568 0
M  V30 2719 H 259.22 -0.787448 1.8884 0
M  V30 2720 H 259.23 -3.11864 2.63068 0
M  V30 2721 H 257.905 -2.31414 3.45572 0
M  V30 2722 H 256.482 -3.2273 1.86814 0
M  V30 2723 N 258.668 -1.30515 -0.883378 0
M  V30 2724 C 259.908 -1.20716 -1.64946 0
M  V30 2725 C 260.272 0.234072 -1.90568 0
M  V30 2726 O 261.473 0.455335 -2.64915 0
M  V30 2727 C 259.744 -2.01444 -2.9522 0
M  V30 2728 S 261.303 -2.0836 -3.86175 0
M  V30 2729 H 258.121 -0.430165 -0.566109 0
M  V30 2730 H 260.723 -1.65011 -1.04841 0
M  V30 2731 H 259.427 -3.05268 -2.74298 0
M  V30 2732 H 258.958 -1.57817 -3.60357 0
M  V30 2733 H 260.973 -1.21215 -4.81167 0
M  V30 2734 N 260.146 1.09593 -1.13257 0
M  V30 2735 C 261.562 1.33775 -0.870423 0
M  V30 2736 C 261.762 1.95327 0.494926 0
M  V30 2737 O 260.818 2.19853 1.2418 0
M  V30 2738 C 262.131 2.25106 -1.99369 0
M  V30 2739 C 263.679 2.3862 -2.02558 0
M  V30 2740 C 264.154 3.33285 -3.14142 0
M  V30 2741 N 265.645 3.40857 -3.13641 0
M  V30 2742 C 266.38 4.14101 -3.96621 0
M  V30 2743 N 265.876 4.90157 -4.8961 0
M  V30 2744 N 267.669 4.09808 -3.84726 0
M  V30 2745 H 259.82 0.680136 -2.01216 0
M  V30 2746 H 262.083 0.362133 -0.876107 0
M  V30 2747 H 261.789 1.87103 -2.97801 0
M  V30 2748 H 261.663 3.25481 -1.90635 0
M  V30 2749 H 264.05 2.75887 -1.0474 0
M  V30 2750 H 264.131 1.38028 -2.15364 0
M  V30 2751 H 263.775 2.96741 -4.12198 0
M  V30 2752 H 263.705 4.33776 -2.98574 0
M  V30 2753 H 266.196 2.86624 -2.46282 0
M  V30 2754 H 266.509 5.4347 -5.49418 0
M  V30 2755 H 264.854 4.89251 -4.93617 0
M  V30 2756 H 268.045 3.4949 -3.11408 0
M  V30 2757 H 268.218 4.66629 -4.49623 0
M  V30 2758 N 261.624 0.925811 1.2754 0
M  V30 2759 C 263.035 0.610102 1.7645 0
M  V30 2760 C 263.386 -0.874723 1.75622 0
M  V30 2761 O 262.511 -1.68444 1.35851 0
M  V30 2762 C 263.106 1.10073 3.20421 0
M  V30 2763 C 261.665 0.835723 3.67005 0
M  V30 2764 C 260.812 1.26054 2.46993 0
M  V30 2765 H 263.763 1.10579 1.13833 0
M  V30 2766 H 263.784 0.447557 3.77859 0
M  V30 2767 H 263.296 2.18143 3.20991 0
M  V30 2768 H 261.397 -0.231249 3.71882 0
M  V30 2769 H 261.51 1.45193 4.56569 0
M  V30 2770 H 259.874 0.679111 2.45479 0
M  V30 2771 H 260.657 2.34984 2.50275 0
M  V30 2772 N 263.102 -1.41638 0.69111 0
M  V30 2773 C 264.35 -2.00902 0.219758 0
M  V30 2774 C 264.671 -1.54994 -1.18329 0
M  V30 2775 O 263.941 -0.778628 -1.79762 0
M  V30 2776 H 262.521 -0.74289 0.0782558 0
M  V30 2777 H 265.183 -1.73327 0.891271 0
M  V30 2778 H 264.279 -3.11224 0.233708 0
M  V30 2779 N 264.58 -0.43555 -1.51462 0
M  V30 2780 C 265.81 0.130053 -2.0619 0
M  V30 2781 C 266.218 1.37164 -1.30317 0
M  V30 2782 O 265.561 1.80225 -0.355598 0
M  V30 2783 C 265.623 0.519418 -3.55728 0
M  V30 2784 C 265.287 -0.615119 -4.52841 0
M  V30 2785 C 266.284 -1.48671 -4.9819 0
M  V30 2786 C 263.969 -0.795341 -4.95963 0
M  V30 2787 C 265.963 -2.52324 -5.8533 0
M  V30 2788 C 263.65 -1.83514 -5.82894 0
M  V30 2789 C 264.648 -2.69748 -6.27475 0
M  V30 2790 O 264.336 -3.71944 -7.1268 0
M  V30 2791 H 264.068 0.0121612 -0.675891 0
M  V30 2792 H 266.622 -0.6129 -1.96043 0
M  V30 2793 H 264.852 1.31505 -3.63653 0
M  V30 2794 H 266.541 1.01597 -3.92979 0
M  V30 2795 H 267.307 -1.359 -4.65571 0
M  V30 2796 H 263.186 -0.133713 -4.60806 0
M  V30 2797 H 266.73 -3.19665 -6.20048 0
M  V30 2798 H 262.627 -1.96306 -6.14926 0
M  V30 2799 H 263.395 -3.68503 -7.30854 0
M  V30 2800 N 266.058 1.56714 -0.166846 0
M  V30 2801 C 266.968 2.21331 0.777791 0
M  V30 2802 C 267.984 1.20358 1.25658 0
M  V30 2803 O 269.16 1.53005 1.30964 0
M  V30 2804 C 266.225 2.83787 1.99163 0
M  V30 2805 C 265.286 3.99947 1.56016 0
M  V30 2806 C 264.519 4.59415 2.71613 0
M  V30 2807 O 264.742 4.17769 3.88362 0
M  V30 2808 O 263.676 5.49359 2.45945 0
M  V30 2809 H 267.502 3.02605 0.257636 0
M  V30 2810 H 265.087 1.49275 0.0611393 0
M  V30 2811 H 266.969 3.23405 2.70161 0
M  V30 2812 H 265.644 2.05513 2.50092 0
M  V30 2813 H 264.551 3.65007 0.819809 0
M  V30 2814 H 265.884 4.79801 1.09782 0
M  V30 2815 N 267.536 -0.106894 1.57237 0
M  V30 2816 C 268.466 -1.13148 2.04254 0
M  V30 2817 C 269.447 -1.42476 0.929224 0
M  V30 2818 O 270.632 -1.52709 1.19973 0
M  V30 2819 C 267.762 -2.4545 2.45706 0
M  V30 2820 C 266.716 -2.30558 3.60592 0
M  V30 2821 C 266.042 -3.67931 3.87983 0
M  V30 2822 C 267.342 -1.75597 4.91897 0
M  V30 2823 H 269.036 -0.740374 2.90101 0
M  V30 2824 H 266.582 -0.354696 1.39563 0
M  V30 2825 H 268.535 -3.17389 2.77205 0
M  V30 2826 H 267.259 -2.86475 1.56843 0
M  V30 2827 H 265.918 -1.61067 3.29322 0
M  V30 2828 H 265.566 -4.06462 2.96306 0
M  V30 2829 H 265.266 -3.58817 4.65322 0
M  V30 2830 H 266.79 -4.41356 4.21945 0
M  V30 2831 H 268.204 -2.37364 5.21854 0
M  V30 2832 H 266.601 -1.77272 5.73319 0
M  V30 2833 H 267.671 -0.714451 4.79608 0
M  V30 2834 N 269.014 -1.53014 -0.377408 0
M  V30 2835 C 269.946 -1.74884 -1.48149 0
M  V30 2836 C 270.959 -0.629433 -1.5014 0
M  V30 2837 O 272.148 -0.905416 -1.53833 0
M  V30 2838 C 269.248 -1.80299 -2.86959 0
M  V30 2839 C 268.421 -3.09776 -3.08801 0
M  V30 2840 C 267.48 -3.06586 -4.27658 0
M  V30 2841 O 266.506 -3.80419 -4.23403 0
M  V30 2842 N 267.708 -2.26578 -5.34455 0
M  V30 2843 H 270.473 -2.70147 -1.29771 0
M  V30 2844 H 268.034 -1.51646 -0.56703 0
M  V30 2845 H 270.026 -1.75657 -3.64591 0
M  V30 2846 H 268.596 -0.92372 -2.98641 0
M  V30 2847 H 267.816 -3.27815 -2.18931 0
M  V30 2848 H 269.104 -3.95366 -3.20255 0
M  V30 2849 H 268.502 -1.66081 -5.40771 0
M  V30 2850 H 267.059 -2.27766 -6.10709 0
M  V30 2851 N 270.492 0.636531 -1.44174 0
M  V30 2852 C 271.402 1.77754 -1.53103 0
M  V30 2853 C 272.418 1.68928 -0.417034 0
M  V30 2854 O 273.594 1.89801 -0.6736 0
M  V30 2855 C 270.659 3.14115 -1.46741 0
M  V30 2856 C 269.72 3.34612 -2.68948 0
M  V30 2857 C 268.953 4.64467 -2.6288 0
M  V30 2858 O 269.176 5.44919 -1.68581 0
M  V30 2859 O 268.11 4.87049 -3.53648 0
M  V30 2860 H 271.936 1.73174 -2.49489 0
M  V30 2861 H 269.521 0.79709 -1.2636 0
M  V30 2862 H 271.403 3.95412 -1.45696 0
M  V30 2863 H 270.078 3.19249 -0.534975 0
M  V30 2864 H 268.985 2.53014 -2.75562 0
M  V30 2865 H 270.318 3.34336 -3.61221 0
M  V30 2866 N 271.97 1.30982 0.876444 0
M  V30 2867 C 273.247 1.10942 1.61094 0
M  V30 2868 C 273.627 -0.338223 2.08373 0
M  V30 2869 O 272.975 -1.33122 1.85717 0
M  V30 2870 C 273.185 2.11789 2.77392 0
M  V30 2871 C 274.533 2.43965 3.47514 0
M  V30 2872 O 275.557 2.10166 2.87591 0
M  V30 2873 O 274.416 3.01817 4.55597 0
M  V30 2874 H 271.51 0.42667 0.708436 0
M  V30 2875 H 274.056 1.42438 0.922474 0
M  V30 2876 H 272.828 3.09194 2.39823 0
M  V30 2877 H 272.451 1.81161 3.5393 0
M  V30 2878 N 273.449 -1.08991 1.13837 0
M  V30 2879 C 274.677 -1.85011 0.926202 0
M  V30 2880 C 275.092 -1.8135 -0.525127 0
M  V30 2881 O 274.449 -1.21287 -1.36366 0
M  V30 2882 C 274.5 -3.32802 1.41155 0
M  V30 2883 O 274.221 -3.36444 2.80601 0
M  V30 2884 C 275.722 -4.25649 1.23847 0
M  V30 2885 H 272.942 -0.584249 0.32999 0
M  V30 2886 H 275.486 -1.37688 1.51202 0
M  V30 2887 H 273.641 -3.77536 0.868631 0
M  V30 2888 H 274.055 -4.28657 3.02248 0
M  V30 2889 H 275.529 -5.27485 1.62675 0
M  V30 2890 H 276.006 -4.38828 0.18065 0
M  V30 2891 H 276.612 -3.86735 1.76964 0
M  V30 2892 N 274.927 -0.932562 -1.27047 0
M  V30 2893 C 275.877 -0.406392 -2.24349 0
M  V30 2894 C 276.861 0.492066 -1.53191 0
M  V30 2895 O 278.053 0.328717 -1.73921 0
M  V30 2896 C 275.182 0.335214 -3.41659 0
M  V30 2897 C 274.268 -0.58004 -4.20115 0
M  V30 2898 N 274.659 -1.70203 -4.76303 0
M  V30 2899 C 272.957 -0.383974 -4.44344 0
M  V30 2900 C 273.658 -2.27167 -5.35509 0
M  V30 2901 N 272.634 -1.56068 -5.20715 0
M  V30 2902 H 276.436 -1.26299 -2.65378 0
M  V30 2903 H 273.95 -0.787408 -1.42034 0
M  V30 2904 H 275.947 0.729142 -4.10474 0
M  V30 2905 H 274.607 1.18868 -3.0216 0
M  V30 2906 H 275.618 -2.08433 -4.74106 0
M  V30 2907 H 272.295 0.428436 -4.15296 0
M  V30 2908 H 273.685 -3.21654 -5.89905 0
M  V30 2909 N 276.405 1.4127 -0.698611 0
M  V30 2910 C 277.63 2.06024 -0.238512 0
M  V30 2911 C 278.055 1.5224 1.10475 0
M  V30 2912 O 277.413 0.650623 1.69223 0
M  V30 2913 C 277.461 3.59988 -0.209952 0
M  V30 2914 O 276.565 4.04282 0.814235 0
M  V30 2915 H 275.906 0.653829 -0.115775 0
M  V30 2916 H 278.436 1.8098 -0.954326 0
M  V30 2917 H 278.446 4.07979 -0.0418436 0
M  V30 2918 H 277.121 3.98503 -1.1903 0
M  V30 2919 H 275.698 3.6779 0.615234 0
M  V30 2920 N 277.883 0.443576 1.51229 0
M  V30 2921 C 279.123 -0.119889 2.04048 0
M  V30 2922 C 279.487 -1.39418 1.32009 0
M  V30 2923 O 280.688 -2.03829 1.75235 0
M  V30 2924 C 278.959 -0.327233 3.55899 0
M  V30 2925 S 280.518 -0.853208 4.30425 0
M  V30 2926 H 277.336 -0.028921 0.710412 0
M  V30 2927 H 279.938 0.604413 1.85922 0
M  V30 2928 H 278.642 0.606445 4.05895 0
M  V30 2929 H 278.173 -1.07844 3.7833 0
M  V30 2930 H 280.188 -2.13005 4.48155 0
M  V30 2931 N 279.361 -1.56624 0.175154 0
M  V30 2932 C 280.293 -2.15333 -0.785128 0
M  V30 2933 C 281.306 -1.1099 -1.19101 0
M  V30 2934 O 282.495 -1.38162 -1.13019 0
M  V30 2935 C 279.595 -2.68427 -2.06882 0
M  V30 2936 C 278.768 -3.97466 -1.8259 0
M  V30 2937 C 277.827 -4.35585 -2.95215 0
M  V30 2938 O 276.853 -5.03389 -2.65684 0
M  V30 2939 N 278.055 -3.97457 -4.23094 0
M  V30 2940 H 280.82 -2.98359 -0.283187 0
M  V30 2941 H 278.381 -1.61898 -0.00749817 0
M  V30 2942 H 280.373 -2.90924 -2.81328 0
M  V30 2943 H 278.943 -1.89968 -2.48256 0
M  V30 2944 H 278.163 -3.83307 -0.920287 0
M  V30 2945 H 279.451 -4.81736 -1.63733 0
M  V30 2946 H 278.849 -3.42878 -4.49945 0
M  V30 2947 H 277.406 -4.24947 -4.9423 0
M  V30 2948 N 280.839 0.0985539 -1.57292 0
M  V30 2949 C 281.802 1.10402 -2.00858 0
M  V30 2950 C 282.802 1.33146 -0.901593 0
M  V30 2951 O 283.992 1.29318 -1.16716 0
M  V30 2952 C 281.124 2.45394 -2.36632 0
M  V30 2953 H 282.317 0.729099 -2.90902 0
M  V30 2954 H 279.87 0.343495 -1.52479 0
M  V30 2955 H 280.605 2.87769 -1.49531 0
M  V30 2956 H 280.39 2.30235 -3.17387 0
M  V30 2957 H 281.88 3.17718 -2.71007 0
M  V30 2958 N 282.317 1.53212 0.369288 0
M  V30 2959 C 283.227 1.82342 1.47609 0
M  V30 2960 C 284.243 0.711532 1.58787 0
M  V30 2961 O 285.419 1.0012 1.74751 0
M  V30 2962 C 282.484 2.00393 2.8292 0
M  V30 2963 C 281.545 3.24297 2.81301 0
M  V30 2964 C 280.778 3.41478 4.10157 0
M  V30 2965 O 281.001 2.63033 5.06132 0
M  V30 2966 O 279.935 4.34817 4.16194 0
M  V30 2967 H 283.761 2.76366 1.25918 0
M  V30 2968 H 281.346 1.38547 0.559034 0
M  V30 2969 H 283.228 2.13859 3.63101 0
M  V30 2970 H 281.903 1.09559 3.04596 0
M  V30 2971 H 280.81 3.16257 1.99831 0
M  V30 2972 H 282.143 4.15041 2.64578 0
M  V30 2973 N 283.795 -0.628877 1.44509 0
M  V30 2974 C 285.035 -1.39993 1.48934 0
M  V30 2975 C 285.399 -1.91627 0.119604 0
M  V30 2976 O 286.6 -2.68772 0.0385283 0
M  V30 2977 C 284.871 -2.53241 2.52198 0
M  V30 2978 S 286.43 -3.41383 2.75687 0
M  V30 2979 H 283.248 -0.477558 0.526744 0
M  V30 2980 H 285.85 -0.727804 1.81448 0
M  V30 2981 H 284.554 -2.13622 3.50419 0
M  V30 2982 H 284.085 -3.25278 2.21264 0
M  V30 2983 H 286.1 -4.50752 2.07453 0
M  V30 2984 N 285.273 -1.31445 -0.869486 0
M  V30 2985 C 286.498 -1.24256 -1.66058 0
M  V30 2986 C 286.923 0.188928 -1.87149 0
M  V30 2987 O 286.281 1.13522 -1.4136 0
M  V30 2988 C 286.329 -1.9924 -3.00559 0
M  V30 2989 O 285.433 -1.33007 -3.90362 0
M  V30 2990 H 284.774 -0.428973 -0.506831 0
M  V30 2991 H 287.304 -1.73521 -1.08404 0
M  V30 2992 H 287.314 -2.08854 -3.50491 0
M  V30 2993 H 285.989 -3.03342 -2.84528 0
M  V30 2994 H 284.566 -1.31848 -3.48813 0
M  V30 2995 N 286.751 1.08385 -1.14413 0
M  V30 2996 C 287.976 1.85057 -0.936413 0
M  V30 2997 C 288.401 1.81055 0.509971 0
M  V30 2998 O 287.759 1.1958 1.36273 0
M  V30 2999 C 287.807 3.30505 -1.44217 0
M  V30 3000 O 286.911 4.07491 -0.634409 0
M  V30 3001 H 286.252 0.573425 -0.334784 0
M  V30 3002 H 288.782 1.36799 -1.52142 0
M  V30 3003 H 288.792 3.81348 -1.45043 0
M  V30 3004 H 287.467 3.32734 -2.49522 0
M  V30 3005 H 286.044 3.66368 -0.694902 0
M  V30 3006 N 288.23 0.939286 1.26551 0
M  V30 3007 C 289.14 0.453432 2.30176 0
M  V30 3008 C 290.156 -0.471649 1.67486 0
M  V30 3009 O 291.332 -0.35164 1.98306 0
M  V30 3010 C 288.397 -0.275326 3.45605 0
M  V30 3011 C 287.458 0.686084 4.23782 0
M  V30 3012 C 286.691 -0.00798994 5.33699 0
M  V30 3013 O 286.914 -1.22528 5.57085 0
M  V30 3014 O 285.848 0.669746 5.98162 0
M  V30 3015 H 289.674 1.31416 2.73795 0
M  V30 3016 H 287.259 0.705095 1.31715 0
M  V30 3017 H 289.141 -0.685911 4.1578 0
M  V30 3018 H 287.816 -1.11147 3.0402 0
M  V30 3019 H 286.723 1.14658 3.56096 0
M  V30 3020 H 288.056 1.48979 4.69112 0
M  V30 3021 N 289.708 -1.40897 0.706093 0
M  V30 3022 C 290.638 -2.33418 0.0620085 0
M  V30 3023 C 291.619 -1.52385 -0.755827 0
M  V30 3024 O 292.804 -1.80886 -0.706674 0
M  V30 3025 C 289.934 -3.36293 -0.867445 0
M  V30 3026 C 288.888 -4.27716 -0.155932 0
M  V30 3027 C 288.214 -5.2105 -1.20046 0
M  V30 3028 C 289.514 -5.12944 0.984149 0
M  V30 3029 H 291.208 -2.87527 0.83477 0
M  V30 3030 H 288.754 -1.38249 0.402875 0
M  V30 3031 H 290.707 -3.99949 -1.32735 0
M  V30 3032 H 289.431 -2.80556 -1.67199 0
M  V30 3033 H 288.09 -3.65498 0.284047 0
M  V30 3034 H 287.738 -4.61624 -1.99781 0
M  V30 3035 H 287.438 -5.83056 -0.729328 0
M  V30 3036 H 288.962 -5.87584 -1.66066 0
M  V30 3037 H 290.376 -5.70109 0.604048 0
M  V30 3038 H 288.773 -5.83945 1.38304 0
M  V30 3039 H 289.843 -4.49485 1.81911 0
M  V30 3040 N 291.186 -0.45159 -1.50991 0
M  V30 3041 C 292.416 0.108177 -2.06317 0
M  V30 3042 C 292.824 1.35774 -1.31765 0
M  V30 3043 O 292.167 1.79838 -0.374694 0
M  V30 3044 C 292.229 0.481659 -3.56259 0
M  V30 3045 C 291.893 -0.663114 -4.52163 0
M  V30 3046 C 292.89 -1.53947 -4.96585 0
M  V30 3047 C 290.575 -0.8479 -4.95092 0
M  V30 3048 C 292.569 -2.58518 -5.82621 0
M  V30 3049 C 290.256 -1.89686 -5.80915 0
M  V30 3050 C 291.254 -2.76388 -6.24579 0
M  V30 3051 O 290.942 -3.79482 -7.08695 0
M  V30 3052 H 290.674 0.00499183 -0.675982 0
M  V30 3053 H 293.228 -0.633659 -1.95381 0
M  V30 3054 H 291.458 1.27641 -3.65027 0
M  V30 3055 H 293.147 0.974233 -3.94035 0
M  V30 3056 H 293.913 -1.4083 -4.64103 0
M  V30 3057 H 289.792 -0.18258 -4.60638 0
M  V30 3058 H 293.336 -3.26224 -6.16623 0
M  V30 3059 H 289.233 -2.02817 -6.12809 0
M  V30 3060 H 290.001 -3.76234 -7.26905 0
M  V30 3061 N 292.664 1.56529 -0.183458 0
M  V30 3062 C 293.892 2.01623 0.464285 0
M  V30 3063 C 294.307 1.06366 1.55986 0
M  V30 3064 O 293.664 0.0665398 1.82379 0
M  V30 3065 C 293.715 3.46475 1.03139 0
M  V30 3066 O 293.436 4.38095 -0.0204675 0
M  V30 3067 C 294.937 4.0703 1.75617 0
M  V30 3068 H 292.157 0.660596 0.117704 0
M  V30 3069 H 294.701 2.02451 -0.288751 0
M  V30 3070 H 292.856 3.46383 1.73486 0
M  V30 3071 H 293.27 5.22973 0.399952 0
M  V30 3072 H 294.744 5.10271 2.10542 0
M  V30 3073 H 295.221 3.49819 2.65563 0
M  V30 3074 H 295.827 4.1086 1.09882 0
M  V30 3075 N 294.142 -0.090211 1.57342 0
M  V30 3076 C 295.052 -1.12735 2.05738 0
M  V30 3077 C 296.068 -1.43557 0.983231 0
M  V30 3078 O 297.244 -1.54101 1.29672 0
M  V30 3079 C 294.309 -2.42659 2.47624 0
M  V30 3080 C 293.37 -2.18975 3.69254 0
M  V30 3081 C 292.603 -3.42704 4.09133 0
M  V30 3082 O 292.826 -4.51127 3.49057 0
M  V30 3083 O 291.76 -3.32003 5.02053 0
M  V30 3084 H 295.586 -0.746279 2.94388 0
M  V30 3085 H 293.171 -0.303064 1.46294 0
M  V30 3086 H 295.053 -3.19155 2.7517 0
M  V30 3087 H 293.728 -2.80182 1.62109 0
M  V30 3088 H 292.635 -1.40244 3.46818 0
M  V30 3089 H 293.968 -1.86342 4.55563 0
M  V30 3090 N 295.62 -1.53406 -0.361157 0
M  V30 3091 C 296.583 -1.79479 -1.42548 0
M  V30 3092 C 297.583 -0.665327 -1.4639 0
M  V30 3093 O 298.773 -0.933549 -1.47073 0
M  V30 3094 C 295.905 -1.92087 -2.8163 0
M  V30 3095 H 297.098 -2.74538 -1.20701 0
M  V30 3096 H 294.651 -1.4455 -0.594546 0
M  V30 3097 H 295.386 -0.991099 -3.08784 0
M  V30 3098 H 295.171 -2.74241 -2.80239 0
M  V30 3099 H 296.661 -2.13836 -3.58697 0
M  V30 3100 N 297.098 0.621204 -1.44841 0
M  V30 3101 C 298.323 1.41244 -1.51871 0
M  V30 3102 C 298.748 1.87519 -0.147764 0
M  V30 3103 O 298.106 1.59334 0.865 0
M  V30 3104 C 298.154 2.60221 -2.49634 0
M  V30 3105 O 297.258 3.60395 -2.00473 0
M  V30 3106 H 296.599 0.42223 -0.512463 0
M  V30 3107 H 299.129 0.757305 -1.90069 0
M  V30 3108 H 299.139 3.0764 -2.67996 0
M  V30 3109 H 297.814 2.25887 -3.4921 0
M  V30 3110 H 296.391 3.19717 -1.91925 0
M  V30 3111 N 298.576 1.31904 0.862503 0
M  V30 3112 C 299.824 1.21776 1.61292 0
M  V30 3113 C 300.145 -0.222413 1.93727 0
M  V30 3114 O 299.415 -1.1451 1.58947 0
M  V30 3115 H 297.995 0.447717 0.597962 0
M  V30 3116 H 300.657 1.65326 1.03215 0
M  V30 3117 H 299.753 1.7948 2.5533 0
M  V30 3118 N 300.054 -1.07777 1.14986 0
M  V30 3119 C 301.284 -1.83752 0.944402 0
M  V30 3120 C 301.692 -1.8218 -0.51058 0
M  V30 3121 O 301.035 -1.22852 -1.36576 0
M  V30 3122 C 301.097 -3.32128 1.37592 0
M  V30 3123 C 300.761 -3.57425 2.84775 0
M  V30 3124 C 301.758 -3.5173 3.8286 0
M  V30 3125 C 299.443 -3.8523 3.2234 0
M  V30 3126 C 301.437 -3.73482 5.16517 0
M  V30 3127 C 299.124 -4.06634 4.56171 0
M  V30 3128 C 300.122 -4.00754 5.53069 0
M  V30 3129 O 299.81 -4.2159 6.84483 0
M  V30 3130 H 299.542 -0.58673 0.335744 0
M  V30 3131 H 302.096 -1.36982 1.53052 0
M  V30 3132 H 300.326 -3.79686 0.733165 0
M  V30 3133 H 302.015 -3.89555 1.14024 0
M  V30 3134 H 302.781 -3.30256 3.55184 0
M  V30 3135 H 298.66 -3.88923 2.47508 0
M  V30 3136 H 302.204 -3.68808 5.92137 0
M  V30 3137 H 298.101 -4.27593 4.83564 0
M  V30 3138 H 298.869 -4.38961 6.90837 0
M  V30 3139 N 301.532 -0.945985 -1.26051 0
M  V30 3140 C 302.781 -0.591836 -1.92822 0
M  V30 3141 C 303.094 0.873956 -1.7499 0
M  V30 3142 O 304.3 1.33769 -2.36259 0
M  V30 3143 C 302.756 -1.00776 -3.45503 0
M  V30 3144 C 302.364 -2.4955 -3.7206 0
M  V30 3145 C 304.108 -0.725735 -4.1825 0
M  V30 3146 C 302.015 -2.84988 -5.18205 0
M  V30 3147 H 300.945 -0.217635 -0.721908 0
M  V30 3148 H 303.596 -1.14927 -1.43052 0
M  V30 3149 H 301.978 -0.378812 -3.94184 0
M  V30 3150 H 303.152 -3.1739 -3.34066 0
M  V30 3151 H 301.467 -2.75133 -3.12555 0
M  V30 3152 H 304.064 -0.966771 -5.25887 0
M  V30 3153 H 304.407 0.337639 -4.14929 0
M  V30 3154 H 304.94 -1.31463 -3.7545 0
M  V30 3155 H 301.679 -3.90307 -5.26631 0
M  V30 3156 H 301.199 -2.21813 -5.57278 0
M  V30 3157 H 302.878 -2.73712 -5.86252 0
M  V30 3158 N 303.011 1.40521 -0.713556 0
M  V30 3159 C 304.236 2.05759 -0.26035 0
M  V30 3160 C 304.661 1.53403 1.08854 0
M  V30 3161 O 304.019 0.668535 1.68524 0
M  V30 3162 C 304.067 3.59745 -0.248122 0
M  V30 3163 O 303.171 4.05123 0.77131 0
M  V30 3164 H 302.512 0.652564 -0.122703 0
M  V30 3165 H 305.042 1.79958 -0.973467 0
M  V30 3166 H 305.052 4.07911 -0.0851129 0
M  V30 3167 H 303.727 3.97218 -1.2325 0
M  V30 3168 H 302.304 3.68422 0.57619 0
M  V30 3169 N 304.489 0.459591 1.5075 0
M  V30 3170 C 305.714 -0.0996819 2.0716 0
M  V30 3171 C 306.139 -1.33761 1.32249 0
M  V30 3172 O 305.497 -1.77551 0.366786 0
M  V30 3173 C 305.545 -0.378226 3.58611 0
M  V30 3174 O 304.649 -1.46081 3.85661 0
M  V30 3175 H 303.99 0.00791392 0.663953 0
M  V30 3176 H 306.52 0.647329 1.9409 0
M  V30 3177 H 306.53 -0.622135 4.03229 0
M  V30 3178 H 305.205 0.526439 4.12555 0
M  V30 3179 H 303.782 -1.20511 3.5289 0
M  V30 3180 N 305.967 -1.56429 0.191757 0
M  V30 3181 C 306.897 -2.21937 -0.725696 0
M  V30 3182 C 307.878 -1.1814 -1.2238 0
M  V30 3183 O 309.063 -1.46636 -1.27325 0
M  V30 3184 C 306.193 -2.87611 -1.94672 0
M  V30 3185 C 305.147 -3.97623 -1.58366 0
M  V30 3186 C 304.473 -4.50446 -2.88102 0
M  V30 3187 C 305.773 -5.16197 -0.796133 0
M  V30 3188 H 307.467 -2.98861 -0.179606 0
M  V30 3189 H 305.013 -1.43749 -0.0849464 0
M  V30 3190 H 306.966 -3.3212 -2.59373 0
M  V30 3191 H 305.69 -2.08087 -2.51728 0
M  V30 3192 H 304.349 -3.53801 -0.960247 0
M  V30 3193 H 303.997 -3.67688 -3.43241 0
M  V30 3194 H 303.697 -5.24675 -2.64556 0
M  V30 3195 H 305.221 -4.97654 -3.53798 0
M  V30 3196 H 306.635 -5.57271 -1.34618 0
M  V30 3197 H 305.032 -5.96471 -0.658928 0
M  V30 3198 H 306.102 -4.84473 0.203478 0
M  V30 3199 N 307.445 0.0818655 -1.57387 0
M  V30 3200 C 308.355 1.11642 -2.06333 0
M  V30 3201 C 309.371 1.43033 -0.99083 0
M  V30 3202 O 310.547 1.53411 -1.30488 0
M  V30 3203 C 307.612 2.41342 -2.48907 0
M  V30 3204 C 306.673 2.17014 -3.7041 0
M  V30 3205 C 305.906 3.4053 -4.10944 0
M  V30 3206 O 306.129 4.4927 -3.51444 0
M  V30 3207 O 305.063 3.29336 -5.03807 0
M  V30 3208 H 308.889 0.730657 -2.9478 0
M  V30 3209 H 306.474 0.295301 -1.46452 0
M  V30 3210 H 308.356 3.17691 -2.76858 0
M  V30 3211 H 307.031 2.79319 -1.63593 0
M  V30 3212 H 305.938 1.38403 -3.47556 0
M  V30 3213 H 307.271 1.83923 -4.56545 0
M  V30 3214 N 308.923 1.53595 0.353017 0
M  V30 3215 C 310.153 1.74058 1.11299 0
M  V30 3216 C 310.561 0.475205 1.83135 0
M  V30 3217 O 309.904 -0.562344 1.74881 0
M  V30 3218 C 309.966 2.85994 2.17825 0
M  V30 3219 C 309.63 4.25923 1.65647 0
M  V30 3220 C 310.627 5.07829 1.11383 0
M  V30 3221 C 308.312 4.72377 1.7078 0
M  V30 3222 C 310.306 6.34285 0.629439 0
M  V30 3223 C 307.993 5.98808 1.21953 0
M  V30 3224 C 308.991 6.79594 0.681265 0
M  V30 3225 O 308.679 8.03651 0.200248 0
M  V30 3226 H 308.411 0.585327 0.338183 0
M  V30 3227 H 310.965 2.01186 0.413927 0
M  V30 3228 H 309.195 2.54368 2.91262 0
M  V30 3229 H 310.884 2.94515 2.79313 0
M  V30 3230 H 311.65 4.73107 1.06746 0
M  V30 3231 H 307.529 4.0956 2.11617 0
M  V30 3232 H 311.073 6.97288 0.208636 0
M  V30 3233 H 306.97 6.33026 1.26287 0
M  V30 3234 H 307.738 8.1788 0.318416 0
M  V30 3235 N 310.401 -0.613514 1.45168 0
M  V30 3236 C 311.812 -1.19539 1.43413 0
M  V30 3237 C 312.163 -1.95558 0.158632 0
M  V30 3238 O 311.288 -2.0335 -0.740119 0
M  V30 3239 C 311.883 -2.17445 2.59813 0
M  V30 3240 C 310.442 -2.71022 2.61197 0
M  V30 3241 C 309.589 -1.46323 2.35552 0
M  V30 3242 H 312.54 -0.403163 1.53494 0
M  V30 3243 H 312.561 -3.00373 2.33574 0
M  V30 3244 H 312.073 -1.62089 3.52631 0
M  V30 3245 H 310.174 -3.30332 1.7237 0
M  V30 3246 H 310.287 -3.15859 3.60236 0
M  V30 3247 H 308.651 -1.75072 1.84992 0
M  V30 3248 H 309.434 -0.92844 3.30507 0
M  V30 3249 N 311.879 -1.3236 -0.855495 0
M  V30 3250 C 313.295 -1.11332 -1.14356 0
M  V30 3251 C 313.495 0.106751 -2.01217 0
M  V30 3252 O 312.551 0.791891 -2.39761 0
M  V30 3253 C 313.864 -2.39237 -1.82171 0
M  V30 3254 C 315.412 -2.44986 -1.9481 0
M  V30 3255 C 315.887 -3.7281 -2.66039 0
M  V30 3256 N 317.378 -3.73787 -2.73565 0
M  V30 3257 C 318.113 -4.69394 -3.29327 0
M  V30 3258 N 317.609 -5.75367 -3.85907 0
M  V30 3259 N 319.402 -4.56893 -3.27423 0
M  V30 3260 H 311.553 -2.10586 -0.277027 0
M  V30 3261 H 313.816 -0.929701 -0.185364 0
M  V30 3262 H 313.522 -3.28431 -1.25802 0
M  V30 3263 H 313.396 -2.50134 -2.82335 0
M  V30 3264 H 315.783 -1.56252 -2.50338 0
M  V30 3265 H 315.864 -2.38043 -0.936448 0
M  V30 3266 H 315.508 -4.61918 -2.11174 0
M  V30 3267 H 315.438 -3.77024 -3.67642 0
M  V30 3268 H 317.929 -2.97189 -2.33424 0
M  V30 3269 H 318.242 -6.44378 -4.26611 0
M  V30 3270 H 316.587 -5.79123 -3.84242 0
M  V30 3271 H 319.778 -3.73269 -2.82467 0
M  V30 3272 H 319.951 -5.31577 -3.7058 0
M  V30 3273 N 313.357 1.07166 -1.15556 0
M  V30 3274 C 314.582 1.84053 -0.955988 0
M  V30 3275 C 315.007 1.81586 0.490739 0
M  V30 3276 O 314.365 1.21018 1.34997 0
M  V30 3277 C 314.413 3.28957 -1.47714 0
M  V30 3278 O 313.517 4.06795 -0.677593 0
M  V30 3279 H 312.858 0.569842 -0.340847 0
M  V30 3280 H 315.388 1.35178 -1.53584 0
M  V30 3281 H 315.398 3.79788 -1.4908 0
M  V30 3282 H 314.073 3.30068 -2.53037 0
M  V30 3283 H 312.65 3.6561 -0.733721 0
M  V30 3284 N 314.835 0.952656 1.25548 0
M  V30 3285 C 316.065 0.622592 1.96996 0
M  V30 3286 C 316.473 -0.809112 1.71026 0
M  V30 3287 O 315.816 -1.55258 0.981861 0
M  V30 3288 C 315.878 0.798946 3.5051 0
M  V30 3289 C 315.542 2.20744 4.00151 0
M  V30 3290 C 316.539 3.18394 4.11001 0
M  V30 3291 C 314.224 2.5311 4.33867 0
M  V30 3292 C 316.218 4.46504 4.54877 0
M  V30 3293 C 313.905 3.8145 4.7743 0
M  V30 3294 C 314.903 4.77959 4.87897 0
M  V30 3295 O 314.591 6.04012 5.30494 0
M  V30 3296 H 314.323 0.232503 0.634758 0
M  V30 3297 H 316.877 1.2789 1.60728 0
M  V30 3298 H 315.107 0.0854903 3.86605 0
M  V30 3299 H 316.796 0.47023 4.03167 0
M  V30 3300 H 317.562 2.94715 3.85186 0
M  V30 3301 H 313.441 1.78719 4.24948 0
M  V30 3302 H 316.985 5.21835 4.62962 0
M  V30 3303 H 312.882 4.04936 5.0269 0
M  V30 3304 H 313.65 6.0736 5.48685 0
M  V30 3305 N 316.313 -1.40141 0.720998 0
M  V30 3306 C 317.724 -1.83678 0.334553 0
M  V30 3307 C 318.075 -1.6027 -1.13173 0
M  V30 3308 O 317.2 -1.08643 -1.87152 0
M  V30 3309 C 317.795 -3.33437 0.600437 0
M  V30 3310 C 316.354 -3.75447 0.267642 0
M  V30 3311 C 315.501 -2.63296 0.870097 0
M  V30 3312 H 318.452 -1.29331 0.919732 0
M  V30 3313 H 318.473 -3.80269 -0.132517 0
M  V30 3314 H 317.985 -3.50442 1.66768 0
M  V30 3315 H 316.086 -3.64035 -0.794329 0
M  V30 3316 H 316.199 -4.73344 0.74042 0
M  V30 3317 H 314.563 -2.52954 0.297739 0
M  V30 3318 H 315.346 -2.83112 1.94172 0
M  V30 3319 N 317.792 -0.46758 -1.50504 0
M  V30 3320 C 319.203 -0.0116166 -1.86696 0
M  V30 3321 C 319.554 1.39202 -1.38265 0
M  V30 3322 O 318.679 2.0313 -0.746132 0
M  V30 3323 C 319.274 -0.0143044 -3.38797 0
M  V30 3324 C 317.833 0.386175 -3.74414 0
M  V30 3325 C 316.98 -0.401287 -2.74381 0
M  V30 3326 H 319.931 -0.682022 -1.43297 0
M  V30 3327 H 319.952 0.788641 -3.72237 0
M  V30 3328 H 319.464 -1.03602 -3.74016 0
M  V30 3329 H 317.565 1.41237 -3.44794 0
M  V30 3330 H 317.678 0.0899596 -4.79016 0
M  V30 3331 H 316.042 0.144536 -2.5429 0
M  V30 3332 H 316.825 -1.42244 -3.12444 0
M  V30 3333 N 319.27 1.56325 -0.20005 0
M  V30 3334 C 320.547 1.89484 0.48529 0
M  V30 3335 C 320.927 1.1143 1.79294 0
M  V30 3336 O 320.275 0.216919 2.27468 0
M  V30 3337 C 320.485 3.41923 0.699243 0
M  V30 3338 C 321.833 4.12256 1.01638 0
M  V30 3339 O 322.857 3.47402 0.786792 0
M  V30 3340 O 321.716 5.26887 1.45095 0
M  V30 3341 H 318.81 0.787144 0.253639 0
M  V30 3342 H 321.356 1.67985 -0.240633 0
M  V30 3343 H 320.128 3.90658 -0.224008 0
M  V30 3344 H 319.751 3.69131 1.47744 0
M  V30 3345 N 320.748 -0.0735177 1.57428 0
M  V30 3346 C 321.678 -1.0879 2.06608 0
M  V30 3347 C 322.659 -1.40473 0.959237 0
M  V30 3348 O 323.844 -1.5013 1.23185 0
M  V30 3349 C 320.974 -2.40183 2.50857 0
M  V30 3350 C 319.928 -2.22858 3.65402 0
M  V30 3351 C 319.254 -3.59619 3.957 0
M  V30 3352 C 320.554 -1.65123 4.95511 0
M  V30 3353 H 322.248 -0.678673 2.91607 0
M  V30 3354 H 319.794 -0.325013 1.40284 0
M  V30 3355 H 321.747 -3.11437 2.83874 0
M  V30 3356 H 320.471 -2.83083 1.62885 0
M  V30 3357 H 319.13 -1.54045 3.32664 0
M  V30 3358 H 318.778 -4.00086 3.04861 0
M  V30 3359 H 318.478 -3.48866 4.72828 0
M  V30 3360 H 320.002 -4.32306 4.31212 0
M  V30 3361 H 321.416 -2.26241 5.26771 0
M  V30 3362 H 319.813 -1.65071 5.7695 0
M  V30 3363 H 320.883 -0.612559 4.81015 0
M  V30 3364 N 322.226 -1.5378 -0.344866 0
M  V30 3365 C 323.642 -1.44015 -0.687888 0
M  V30 3366 C 323.842 -0.595834 -1.92489 0
M  V30 3367 O 322.898 -0.0863064 -2.52352 0
M  V30 3368 C 324.211 -2.87481 -0.881758 0
M  V30 3369 C 325.759 -2.97247 -0.980459 0
M  V30 3370 C 326.234 -4.41819 -1.20665 0
M  V30 3371 N 327.725 -4.45339 -1.27389 0
M  V30 3372 C 328.46 -5.54333 -1.46639 0
M  V30 3373 N 327.956 -6.73335 -1.63071 0
M  V30 3374 N 329.749 -5.41944 -1.49176 0
M  V30 3375 H 321.9 -2.07169 0.468475 0
M  V30 3376 H 324.163 -0.93643 0.147655 0
M  V30 3377 H 323.869 -3.51672 -0.0443444 0
M  V30 3378 H 323.743 -3.32352 -1.78388 0
M  V30 3379 H 326.13 -2.33197 -1.8084 0
M  V30 3380 H 326.211 -2.5574 -0.0552713 0
M  V30 3381 H 325.855 -5.06449 -0.383652 0
M  V30 3382 H 325.785 -4.80917 -2.14539 0
M  V30 3383 H 328.276 -3.59585 -1.1622 0
M  V30 3384 H 328.589 -7.52165 -1.77391 0
M  V30 3385 H 326.934 -6.76282 -1.60209 0
M  V30 3386 H 330.125 -4.47932 -1.3592 0
M  V30 3387 H 330.298 -6.26946 -1.63837 0
M  V30 3388 N 323.704 0.605807 -1.45491 0
M  V30 3389 C 324.944 1.37606 -1.51142 0
M  V30 3390 C 325.308 1.91413 -0.150075 0
M  V30 3391 O 326.509 2.68677 -0.0812828 0
M  V30 3392 C 324.78 2.49197 -2.56195 0
M  V30 3393 S 326.339 3.36953 -2.81083 0
M  V30 3394 H 323.157 0.469118 -0.534275 0
M  V30 3395 H 325.759 0.698845 -1.82583 0
M  V30 3396 H 324.463 2.0802 -3.53773 0
M  V30 3397 H 323.994 3.21717 -2.26411 0
M  V30 3398 H 326.009 4.47395 -2.14598 0
M  V30 3399 N 325.182 1.32811 0.848464 0
M  V30 3400 C 326.13 1.22231 1.97895 0
M  V30 3401 C 327.124 0.125749 1.68933 0
M  V30 3402 O 328.33 0.289083 1.77663 0
M  V30 3403 H 324.705 0.379058 0.649476 0
M  V30 3404 H 326.676 2.17828 2.03945 0
M  V30 3405 C 325.425 0.968572 3.33937 0
M  V30 3406 H 324.748 1.80458 3.56756 0
M  V30 3407 H 326.188 0.934808 4.13567 0
M  V30 3408 C 324.647 -0.328628 3.35293 0
M  V30 3409 O 325.177 -1.33848 3.78745 0
M  V30 3410 N 323.383 -0.352788 2.88451 0
M  V30 3411 H 322.93 0.469541 2.53285 0
M  V30 3412 H 322.888 -1.22057 2.89741 0
M  V30 3413 N 326.66 -1.06551 1.16123 0
M  V30 3414 C 327.89 -1.8274 0.963838 0
M  V30 3415 C 328.298 -1.82712 -0.491228 0
M  V30 3416 O 327.641 -1.24294 -1.35265 0
M  V30 3417 C 327.703 -3.3065 1.41106 0
M  V30 3418 C 327.367 -3.54384 2.88549 0
M  V30 3419 C 328.364 -3.4765 3.86569 0
M  V30 3420 C 326.049 -3.81789 3.26408 0
M  V30 3421 C 328.043 -3.67982 5.2045 0
M  V30 3422 C 325.73 -4.01772 4.60459 0
M  V30 3423 C 326.728 -3.94866 5.57288 0
M  V30 3424 O 326.416 -4.14306 6.88916 0
M  V30 3425 H 326.148 -0.583136 0.341948 0
M  V30 3426 H 328.702 -1.35351 1.54497 0
M  V30 3427 H 326.932 -3.78887 0.773394 0
M  V30 3428 H 328.621 -3.88324 1.1815 0
M  V30 3429 H 329.387 -3.2647 3.58667 0
M  V30 3430 H 325.266 -3.86276 2.51619 0
M  V30 3431 H 328.81 -3.62507 5.96015 0
M  V30 3432 H 324.707 -4.2244 4.88072 0
M  V30 3433 H 325.475 -4.31609 6.95454 0
M  V30 3434 N 328.138 -0.959301 -1.25041 0
M  V30 3435 C 329.363 -0.633507 -1.97488 0
M  V30 3436 C 329.788 0.788555 -1.70773 0
M  V30 3437 O 329.146 1.53394 -0.966431 0
M  V30 3438 C 329.194 -0.904057 -3.49083 0
M  V30 3439 O 328.298 0.0147939 -4.12397 0
M  V30 3440 H 327.639 -0.240368 -0.618966 0
M  V30 3441 H 330.169 -1.28717 -1.59038 0
M  V30 3442 H 330.179 -0.832203 -3.99423 0
M  V30 3443 H 328.854 -1.94048 -3.67856 0
M  V30 3444 H 327.431 -0.109664 -3.72739 0
M  V30 3445 N 329.616 1.39756 -0.72842 0
M  V30 3446 C 330.865 1.99879 -0.270407 0
M  V30 3447 C 331.178 1.58449 1.14688 0
M  V30 3448 O 332.384 2.11362 1.70407 0
M  V30 3449 C 330.84 3.57292 -0.43252 0
M  V30 3450 C 330.448 4.07688 -1.85727 0
M  V30 3451 C 332.192 4.24485 -0.0359507 0
M  V30 3452 C 330.099 5.5765 -1.96928 0
M  V30 3453 H 329.029 0.747689 -0.0973472 0
M  V30 3454 H 331.68 1.59837 -0.901355 0
M  V30 3455 H 330.062 3.95097 0.267219 0
M  V30 3456 H 331.236 3.81231 -2.58843 0
M  V30 3457 H 329.551 3.53135 -2.20646 0
M  V30 3458 H 332.148 5.34609 -0.0987484 0
M  V30 3459 H 332.491 4.03915 1.00787 0
M  V30 3460 H 333.024 3.9183 -0.686604 0
M  V30 3461 H 329.763 5.8309 -2.99476 0
M  V30 3462 H 329.283 5.8593 -1.28241 0
M  V30 3463 H 330.962 6.22957 -1.74737 0
M  V30 3464 N 331.094 0.475555 1.50254 0
M  V30 3465 C 332.51 0.12997 1.5907 0
M  V30 3466 C 332.71 -1.36385 1.48328 0
M  V30 3467 O 331.766 -2.13754 1.34407 0
M  V30 3468 C 333.079 0.684139 2.92814 0
M  V30 3469 C 334.627 0.647965 3.0622 0
M  V30 3470 C 335.102 1.17975 4.42545 0
M  V30 3471 N 336.593 1.13936 4.48969 0
M  V30 3472 C 337.328 1.52129 5.52851 0
M  V30 3473 N 336.824 1.97793 6.63965 0
M  V30 3474 N 338.617 1.43704 5.4342 0
M  V30 3475 H 330.768 1.44706 1.55479 0
M  V30 3476 H 333.031 0.598691 0.735033 0
M  V30 3477 H 332.737 1.73079 3.06164 0
M  V30 3478 H 332.611 0.130204 3.76975 0
M  V30 3479 H 334.998 -0.38979 2.92514 0
M  V30 3480 H 335.079 1.23876 2.23805 0
M  V30 3481 H 334.723 2.21616 4.57 0
M  V30 3482 H 334.653 0.565138 5.23559 0
M  V30 3483 H 337.144 0.804488 3.69238 0
M  V30 3484 H 337.457 2.25072 7.39299 0
M  V30 3485 H 335.802 2.01749 6.65073 0
M  V30 3486 H 338.993 1.07867 4.55502 0
M  V30 3487 H 339.166 1.73794 6.24259 0
M  V30 3488 N 332.573 -1.56217 0.208337 0
M  V30 3489 C 333.819 -1.98242 -0.427552 0
M  V30 3490 C 334.152 -1.09554 -1.60348 0
M  V30 3491 O 333.427 -0.15035 -1.93918 0
M  V30 3492 C 333.71 -3.4931 -0.874907 0
M  V30 3493 C 333.563 -4.48773 0.303751 0
M  V30 3494 C 334.882 -4.04424 -1.73577 0
M  V30 3495 H 332.001 -0.720744 -0.153936 0
M  V30 3496 H 334.643 -1.87586 0.30192 0
M  V30 3497 H 332.793 -3.58522 -1.49648 0
M  V30 3498 H 334.465 -4.51586 0.941682 0
M  V30 3499 H 332.708 -4.23194 0.953375 0
M  V30 3500 H 333.379 -5.51976 -0.0519883 0
M  V30 3501 H 335.855 -3.98075 -1.21143 0
M  V30 3502 H 334.731 -5.1047 -2.01771 0
M  V30 3503 H 334.992 -3.50494 -2.69456 0
M  V30 3504 N 334.051 0.0651679 -1.57465 0
M  V30 3505 C 334.961 1.09448 -2.07505 0
M  V30 3506 C 335.977 1.41974 -1.00595 0
M  V30 3507 O 337.153 1.52018 -1.32107 0
M  V30 3508 C 334.218 2.38689 -2.51453 0
M  V30 3509 C 333.279 2.13073 -3.72691 0
M  V30 3510 C 332.512 3.36152 -4.14533 0
M  V30 3511 O 332.735 4.45517 -3.56189 0
M  V30 3512 O 331.669 3.23974 -5.07272 0
M  V30 3513 H 335.495 0.69935 -2.95538 0
M  V30 3514 H 333.08 0.279752 -1.46757 0
M  V30 3515 H 334.962 3.14736 -2.80212 0
M  V30 3516 H 333.637 2.77568 -1.66546 0
M  V30 3517 H 332.544 1.34709 -3.49005 0
M  V30 3518 H 333.877 1.79071 -4.5847 0
M  V30 3519 N 335.529 1.53961 0.336706 0
M  V30 3520 C 336.945 1.44378 0.680241 0
M  V30 3521 C 337.145 0.606034 1.9217 0
M  V30 3522 O 336.201 0.099688 2.52303 0
M  V30 3523 C 337.514 2.87945 0.8665 0
M  V30 3524 C 339.062 2.97763 0.964682 0
M  V30 3525 C 339.537 4.42453 1.18321 0
M  V30 3526 N 341.028 4.46008 1.25025 0
M  V30 3527 C 341.763 5.55102 1.43697 0
M  V30 3528 N 341.259 6.7419 1.59498 0
M  V30 3529 N 343.052 5.42727 1.463 0
M  V30 3530 H 335.203 2.06918 -0.479455 0
M  V30 3531 H 337.466 0.935634 -0.152619 0
M  V30 3532 H 337.172 3.51691 0.0256937 0
M  V30 3533 H 337.046 3.33293 1.76623 0
M  V30 3534 H 339.433 2.34153 1.796 0
M  V30 3535 H 339.514 2.55766 0.041708 0
M  V30 3536 H 339.158 5.06645 0.356788 0
M  V30 3537 H 339.088 4.82048 2.11985 0
M  V30 3538 H 341.579 3.60196 1.14312 0
M  V30 3539 H 341.892 7.53095 1.734 0
M  V30 3540 H 340.237 6.77123 1.56621 0
M  V30 3541 H 343.428 4.48647 1.33543 0
M  V30 3542 H 343.601 6.27806 1.6051 0
M  V30 3543 N 337.007 -0.598083 1.45811 0
M  V30 3544 C 338.255 -1.35413 1.50026 0
M  V30 3545 C 338.576 -1.94444 0.147177 0
M  V30 3546 O 337.846 -1.77701 -0.824571 0
M  V30 3547 H 336.426 -0.502727 0.552517 0
M  V30 3548 H 339.088 -0.701606 1.81834 0
M  V30 3549 H 338.184 -2.16871 2.2444 0
M  V30 3550 N 338.485 -1.33259 -0.841409 0
M  V30 3551 C 339.415 -1.25926 -1.96634 0
M  V30 3552 C 340.396 -0.140349 -1.6952 0
M  V30 3553 O 341.581 -0.329707 -1.91381 0
M  V30 3554 C 338.711 -0.99512 -3.32738 0
M  V30 3555 C 337.665 -2.0767 -3.74242 0
M  V30 3556 C 336.991 -1.66474 -5.08125 0
M  V30 3557 C 338.291 -3.49318 -3.88297 0
M  V30 3558 H 339.985 -2.20046 -2.03027 0
M  V30 3559 H 337.531 -1.05931 -0.975425 0
M  V30 3560 H 339.484 -0.930323 -4.11002 0
M  V30 3561 H 338.208 -0.0183004 -3.26595 0
M  V30 3562 H 336.867 -2.13187 -2.98239 0
M  V30 3563 H 336.515 -0.675012 -4.9845 0
M  V30 3564 H 336.215 -2.3885 -5.36865 0
M  V30 3565 H 337.739 -1.61455 -5.88867 0
M  V30 3566 H 339.153 -3.46316 -4.56879 0
M  V30 3567 H 337.55 -4.20158 -4.28471 0
M  V30 3568 H 338.62 -3.8801 -2.9082 0
M  V30 3569 N 339.963 1.05934 -1.16686 0
M  V30 3570 C 341.191 1.8249 -0.974929 0
M  V30 3571 C 341.606 1.82679 0.476861 0
M  V30 3572 O 340.963 1.2486 1.33103 0
M  V30 3573 C 341.014 3.28943 -1.49929 0
M  V30 3574 O 340.735 3.28886 -2.89423 0
M  V30 3575 C 342.236 4.22215 -1.35089 0
M  V30 3576 H 339.456 0.575295 -0.345365 0
M  V30 3577 H 342 1.33631 -1.548 0
M  V30 3578 H 340.155 3.751 -0.968423 0
M  V30 3579 H 340.569 4.20493 -3.13506 0
M  V30 3580 H 342.043 5.22987 -1.76603 0
M  V30 3581 H 342.52 4.38195 -0.296935 0
M  V30 3582 H 343.126 3.81907 -1.87155 0
M  V30 3583 N 341.441 0.965919 1.2453 0
M  V30 3584 C 342.371 0.513476 2.27784 0
M  V30 3585 C 343.352 -0.445974 1.6415 0
M  V30 3586 O 344.537 -0.342485 1.91156 0
M  V30 3587 C 341.667 -0.198839 3.4673 0
M  V30 3588 C 340.621 0.676456 4.2262 0
M  V30 3589 C 339.947 -0.167248 5.34438 0
M  V30 3590 C 341.247 1.96017 4.84123 0
M  V30 3591 H 342.941 1.3765 2.65881 0
M  V30 3592 H 340.487 0.663321 1.27813 0
M  V30 3593 H 342.44 -0.526567 4.18097 0
M  V30 3594 H 341.164 -1.0962 3.07654 0
M  V30 3595 H 339.823 0.98743 3.53052 0
M  V30 3596 H 339.471 -1.0647 4.91603 0
M  V30 3597 H 339.171 0.415181 5.86131 0
M  V30 3598 H 340.695 -0.489688 6.08633 0
M  V30 3599 H 342.109 1.69814 5.47573 0
M  V30 3600 H 340.506 2.48918 5.4604 0
M  V30 3601 H 341.576 2.65622 4.05676 0
M  V30 3602 N 342.919 -1.39368 0.735821 0
M  V30 3603 C 343.869 -2.27885 0.0724287 0
M  V30 3604 C 344.853 -1.44301 -0.711756 0
M  V30 3605 O 346.045 -1.67206 -0.58063 0
M  V30 3606 C 343.174 -3.33029 -0.833454 0
M  V30 3607 C 342.26 -4.24078 -0.0433749 0
M  V30 3608 N 342.651 -4.96138 0.983903 0
M  V30 3609 C 340.949 -4.45164 -0.272905 0
M  V30 3610 C 341.65 -5.63069 1.4604 0
M  V30 3611 N 340.626 -5.37991 0.778857 0
M  V30 3612 H 344.428 -2.81052 0.859467 0
M  V30 3613 H 341.942 -1.5206 0.570227 0
M  V30 3614 H 343.939 -3.95311 -1.32419 0
M  V30 3615 H 342.599 -2.81421 -1.61964 0
M  V30 3616 H 343.61 -4.9958 1.36528 0
M  V30 3617 H 340.287 -4.04497 -1.03383 0
M  V30 3618 H 341.677 -6.30755 2.31511 0
M  V30 3619 N 344.397 -0.483516 -1.5 0
M  V30 3620 C 345.327 0.293829 -2.31644 0
M  V30 3621 C 346.308 0.978864 -1.39112 0
M  V30 3622 O 347.493 0.973644 -1.68029 0
M  V30 3623 C 344.623 1.36897 -3.19181 0
M  V30 3624 C 343.577 0.804833 -4.20365 0
M  V30 3625 C 342.903 1.9792 -4.96721 0
M  V30 3626 C 344.203 -0.192313 -5.21946 0
M  V30 3627 H 345.897 -0.387616 -2.9688 0
M  V30 3628 H 343.443 -0.187856 -1.42769 0
M  V30 3629 H 345.396 1.92037 -3.751 0
M  V30 3630 H 344.12 2.07936 -2.51853 0
M  V30 3631 H 342.779 0.275319 -3.65565 0
M  V30 3632 H 342.427 2.67686 -4.25856 0
M  V30 3633 H 342.127 1.60789 -5.65173 0
M  V30 3634 H 343.651 2.53526 -5.55479 0
M  V30 3635 H 345.065 0.270333 -5.72662 0
M  V30 3636 H 343.462 -0.478543 -5.98189 0
M  V30 3637 H 344.532 -1.11409 -4.71928 0
M  V30 3638 N 345.875 1.56104 -0.216619 0
M  V30 3639 C 346.822 2.2007 0.695531 0
M  V30 3640 C 347.792 1.15471 1.19397 0
M  V30 3641 O 348.977 1.43807 1.25396 0
M  V30 3642 C 346.117 2.88073 1.90021 0
M  V30 3643 C 345.23 4.07253 1.44113 0
M  V30 3644 C 344.365 4.63052 2.603 0
M  V30 3645 C 343.404 5.74545 2.11103 0
M  V30 3646 N 342.541 6.24656 3.20545 0
M  V30 3647 H 347.381 2.97655 0.143327 0
M  V30 3648 H 344.918 1.46982 0.0589934 0
M  V30 3649 H 346.876 3.25681 2.60745 0
M  V30 3650 H 345.506 2.13015 2.42538 0
M  V30 3651 H 344.558 3.75164 0.628999 0
M  V30 3652 H 345.87 4.8783 1.04036 0
M  V30 3653 H 345.024 5.03078 3.39113 0
M  V30 3654 H 343.763 3.81628 3.03663 0
M  V30 3655 H 342.768 5.34027 1.3075 0
M  V30 3656 H 343.993 6.57801 1.68746 0
M  V30 3657 H 341.939 5.46148 3.63399 0
M  V30 3658 H 341.856 7.00343 2.84704 0
M  V30 3659 H 343.124 6.69338 3.99508 0
M  V30 3660 N 347.353 -0.0568162 1.57498 0
M  V30 3661 C 348.6 -0.753104 1.87975 0
M  V30 3662 C 348.928 -1.76815 0.81035 0
M  V30 3663 O 348.183 -1.94756 -0.19199 0
M  V30 3664 C 348.482 -1.48359 3.25153 0
M  V30 3665 C 348.148 -0.60713 4.46794 0
M  V30 3666 C 346.81 -0.365642 4.79809 0
M  V30 3667 C 349.162 -0.000305978 5.212 0
M  V30 3668 C 346.49 0.491905 5.84634 0
M  V30 3669 C 348.842 0.844781 6.26934 0
M  V30 3670 C 347.506 1.096 6.58441 0
M  V30 3671 H 346.776 -0.27558 0.687849 0
M  V30 3672 H 349.423 -0.0135173 1.91495 0
M  V30 3673 H 347.728 -2.29577 3.17492 0
M  V30 3674 H 349.425 -2.02739 3.45974 0
M  V30 3675 H 346.015 -0.805487 4.20963 0
M  V30 3676 H 350.199 -0.173961 4.95995 0
M  V30 3677 H 345.455 0.695131 6.07436 0
M  V30 3678 H 349.629 1.32165 6.83744 0
M  V30 3679 H 347.256 1.76224 7.39492 0
M  V30 3680 N 348.832 -1.54138 -0.328536 0
M  V30 3681 C 349.762 -1.86167 -1.40939 0
M  V30 3682 C 350.743 -0.718044 -1.54202 0
M  V30 3683 O 351.928 -0.971328 -1.68163 0
M  V30 3684 C 349.058 -2.08461 -2.77779 0
M  V30 3685 C 348.012 -3.24299 -2.7931 0
M  V30 3686 C 347.338 -3.31955 -4.19178 0
M  V30 3687 C 348.638 -4.62065 -2.43502 0
M  V30 3688 H 350.332 -2.76689 -1.14383 0
M  V30 3689 H 347.878 -1.33132 -0.548806 0
M  V30 3690 H 349.831 -2.29453 -3.53454 0
M  V30 3691 H 348.555 -1.14684 -3.05802 0
M  V30 3692 H 347.214 -3.03187 -2.0609 0
M  V30 3693 H 346.862 -2.35745 -4.44335 0
M  V30 3694 H 346.562 -4.09805 -4.2111 0
M  V30 3695 H 348.086 -3.55175 -4.96672 0
M  V30 3696 H 349.5 -4.8297 -3.08889 0
M  V30 3697 H 347.897 -5.42429 -2.56693 0
M  V30 3698 H 348.967 -4.64652 -1.38659 0
M  V30 3699 N 350.31 0.590341 -1.46126 0
M  V30 3700 C 351.22 1.72793 -1.58681 0
M  V30 3701 C 352.236 1.67516 -0.470566 0
M  V30 3702 O 353.412 1.87562 -0.733642 0
M  V30 3703 C 350.477 3.09287 -1.5666 0
M  V30 3704 C 349.538 3.25886 -2.79458 0
M  V30 3705 C 348.771 4.55869 -2.77524 0
M  V30 3706 O 348.994 5.3928 -1.85832 0
M  V30 3707 O 347.928 4.75552 -3.68964 0
M  V30 3708 H 351.754 1.65149 -2.54872 0
M  V30 3709 H 349.339 0.756486 -1.28832 0
M  V30 3710 H 351.221 3.90577 -1.58202 0
M  V30 3711 H 349.896 3.17385 -0.636271 0
M  V30 3712 H 348.803 2.44119 -2.83472 0
M  V30 3713 H 350.136 3.22675 -3.71674 0
M  V30 3714 N 351.788 1.33704 0.83433 0
M  V30 3715 C 353.199 1.22813 1.4062 0
M  V30 3716 C 353.55 -0.151107 1.95617 0
M  V30 3717 O 352.675 -1.05092 1.89168 0
M  V30 3718 C 353.27 2.22355 2.55624 0
M  V30 3719 C 351.829 2.1529 3.08751 0
M  V30 3720 C 350.976 2.09589 1.8157 0
M  V30 3721 H 353.927 1.45236 0.639702 0
M  V30 3722 H 353.948 1.83391 3.33389 0
M  V30 3723 H 353.46 3.22728 2.15566 0
M  V30 3724 H 351.561 1.18235 3.53343 0
M  V30 3725 H 351.674 3.06038 3.68616 0
M  V30 3726 H 350.038 1.55134 2.02004 0
M  V30 3727 H 350.821 3.11777 1.43701 0
M  V30 3728 N 353.266 -1.05314 1.17247 0
M  V30 3729 C 354.513 -1.78293 0.960091 0
M  V30 3730 C 354.841 -1.87658 -0.51136 0
M  V30 3731 O 354.096 -1.3718 -1.39571 0
M  V30 3732 C 354.395 -3.2229 1.54479 0
M  V30 3733 C 354.061 -3.32987 3.04024 0
M  V30 3734 C 352.723 -3.35613 3.44844 0
M  V30 3735 C 355.075 -3.34102 4.00031 0
M  V30 3736 C 352.403 -3.36982 4.8027 0
M  V30 3737 C 354.755 -3.3701 5.35357 0
M  V30 3738 C 353.419 -3.37923 5.75642 0
M  V30 3739 H 352.689 -0.652422 0.351322 0
M  V30 3740 H 355.336 -1.23782 1.46117 0
M  V30 3741 H 353.641 -3.7972 0.965391 0
M  V30 3742 H 355.338 -3.77376 1.35603 0
M  V30 3743 H 351.928 -3.31655 2.71483 0
M  V30 3744 H 356.112 -3.31276 3.69554 0
M  V30 3745 H 351.368 -3.35999 5.10798 0
M  V30 3746 H 355.542 -3.36822 6.09528 0
M  V30 3747 H 353.169 -3.38738 6.80559 0
M  V30 3748 N 354.744 -0.972509 -1.24016 0
M  V30 3749 C 356.021 -0.553733 -1.87598 0
M  V30 3750 C 356.401 0.969158 -1.87538 0
M  V30 3751 O 355.749 1.84255 -1.35139 0
M  V30 3752 C 355.959 -1.15076 -3.29482 0
M  V30 3753 C 357.307 -1.23862 -4.06132 0
M  V30 3754 O 358.331 -1.10363 -3.38672 0
M  V30 3755 O 357.19 -1.45252 -5.26844 0
M  V30 3756 H 354.284 -0.185331 -0.805966 0
M  V30 3757 H 356.83 -1.06709 -1.31952 0
M  V30 3758 H 355.602 -2.19333 -3.2405 0
M  V30 3759 H 355.225 -0.621746 -3.92709 0
M  V30 3760 N 356.222 1.38976 -0.743202 0
M  V30 3761 C 357.471 1.99581 -0.291592 0
M  V30 3762 C 357.784 1.59656 1.13001 0
M  V30 3763 O 358.99 2.13157 1.68156 0
M  V30 3764 C 357.446 3.56813 -0.470391 0
M  V30 3765 C 357.054 4.05695 -1.90041 0
M  V30 3766 C 358.798 4.24423 -0.0809709 0
M  V30 3767 C 356.705 5.5553 -2.02832 0
M  V30 3768 H 355.635 0.746615 -0.105272 0
M  V30 3769 H 358.286 1.58872 -0.918258 0
M  V30 3770 H 356.668 3.95359 0.225299 0
M  V30 3771 H 357.842 3.78464 -2.62872 0
M  V30 3772 H 356.157 3.50775 -2.24379 0
M  V30 3773 H 358.754 5.34474 -0.155445 0
M  V30 3774 H 359.097 4.04962 0.96497 0
M  V30 3775 H 359.63 3.9108 -0.728124 0
M  V30 3776 H 356.369 5.79881 -3.05643 0
M  V30 3777 H 355.889 5.84537 -1.34448 0
M  V30 3778 H 357.568 6.21069 -1.81335 0
M  V30 3779 N 357.7 0.491464 1.49741 0
M  V30 3780 C 358.977 -0.118984 1.95238 0
M  V30 3781 C 359.357 -1.55044 1.43264 0
M  V30 3782 O 358.705 -2.19287 0.642287 0
M  V30 3783 C 358.915 -0.0414187 3.48975 0
M  V30 3784 C 360.263 -0.220133 4.24029 0
M  V30 3785 O 361.287 -0.117055 3.56008 0
M  V30 3786 O 360.146 -0.430567 5.44801 0
M  V30 3787 H 357.24 -0.100536 0.820866 0
M  V30 3788 H 359.786 0.553322 1.60426 0
M  V30 3789 H 358.558 0.957214 3.79412 0
M  V30 3790 H 358.181 -0.754292 3.9038 0
M  V30 3791 N 359.178 -1.55987 0.224894 0
M  V30 3792 C 360.455 -1.90232 -0.455083 0
M  V30 3793 C 360.835 -1.14269 -1.77499 0
M  V30 3794 O 360.183 -0.253079 -2.27094 0
M  V30 3795 C 360.393 -3.42993 -0.644758 0
M  V30 3796 C 361.741 -4.13821 -0.950669 0
M  V30 3797 O 362.765 -3.4861 -0.731423 0
M  V30 3798 O 361.624 -5.29128 -1.36695 0
M  V30 3799 H 358.718 -0.79108 -0.241084 0
M  V30 3800 H 361.264 -1.67581 0.267327 0
M  V30 3801 H 360.036 -3.90252 0.28613 0
M  V30 3802 H 359.659 -3.71434 -1.41853 0
M  V30 3803 N 360.656 0.0484629 -1.57525 0
M  V30 3804 C 361.606 1.06246 -2.01732 0
M  V30 3805 C 362.59 1.33155 -0.903245 0
M  V30 3806 O 363.782 1.33065 -1.16717 0
M  V30 3807 C 360.911 2.36943 -2.48421 0
M  V30 3808 C 359.997 2.13208 -3.6661 0
M  V30 3809 N 360.388 1.5947 -4.80003 0
M  V30 3810 C 358.686 2.43581 -3.7361 0
M  V30 3811 C 359.387 1.51092 -5.61735 0
M  V30 3812 N 358.363 1.9797 -5.0627 0
M  V30 3813 H 362.165 0.640675 -2.86832 0
M  V30 3814 H 359.679 0.255134 -1.60383 0
M  V30 3815 H 361.676 3.10374 -2.78341 0
M  V30 3816 H 360.336 2.79818 -1.64718 0
M  V30 3817 H 361.347 1.28008 -5.01831 0
M  V30 3818 H 358.024 2.89662 -3.00669 0
M  V30 3819 H 359.414 1.10199 -6.62801 0
M  V30 3820 N 362.134 1.5431 0.320358 0
M  V30 3821 C 363.066 1.80262 1.41556 0
M  V30 3822 C 364.079 0.684723 1.477 0
M  V30 3823 O 365.268 0.961886 1.50366 0
M  V30 3824 C 362.368 1.90825 2.8007 0
M  V30 3825 C 361.541 3.21023 2.97091 0
M  V30 3826 C 360.6 3.22247 4.15985 0
M  V30 3827 O 359.626 3.95871 4.08992 0
M  V30 3828 N 360.828 2.46258 5.25678 0
M  V30 3829 H 363.593 2.74778 1.19655 0
M  V30 3830 H 361.154 1.53646 0.510358 0
M  V30 3831 H 363.146 1.89067 3.57821 0
M  V30 3832 H 361.716 1.03392 2.95006 0
M  V30 3833 H 360.936 3.35715 2.06614 0
M  V30 3834 H 362.224 4.0698 3.05361 0
M  V30 3835 H 361.622 1.86037 5.34235 0
M  V30 3836 H 360.179 2.50275 6.01835 0
M  V30 3837 N 363.613 -0.582584 1.46437 0
M  V30 3838 C 364.545 -1.70618 1.53043 0
M  V30 3839 C 365.558 -1.57322 0.418769 0
M  V30 3840 O 366.747 -1.64744 0.687136 0
M  V30 3841 C 363.847 -3.08869 1.39474 0
M  V30 3842 C 363.02 -3.48166 2.64762 0
M  V30 3843 C 362.079 -4.65478 2.4539 0
M  V30 3844 O 361.105 -4.71333 3.19114 0
M  V30 3845 N 362.307 -5.60365 1.51564 0
M  V30 3846 H 365.072 -1.65405 2.49923 0
M  V30 3847 H 362.633 -0.768567 1.42494 0
M  V30 3848 H 364.625 -3.85143 1.24287 0
M  V30 3849 H 363.195 -3.08449 0.507758 0
M  V30 3850 H 362.415 -2.61598 2.9489 0
M  V30 3851 H 363.703 -3.71188 3.4799 0
M  V30 3852 H 363.101 -5.5837 0.907705 0
M  V30 3853 H 361.658 -6.36068 1.4234 0
M  V30 3854 N 365.091 -1.34144 -0.827227 0
M  V30 3855 C 366.337 -1.26446 -1.58554 0
M  V30 3856 C 366.67 0.1664 -1.93486 0
M  V30 3857 O 365.945 1.1107 -1.59667 0
M  V30 3858 C 366.228 -2.15111 -2.8879 0
M  V30 3859 C 366.081 -3.66712 -2.60465 0
M  V30 3860 C 367.4 -2.03311 -3.90324 0
M  V30 3861 H 364.519 -0.46067 -0.575284 0
M  V30 3862 H 367.161 -1.64356 -0.953269 0
M  V30 3863 H 365.311 -1.8291 -3.42748 0
M  V30 3864 H 366.983 -4.09259 -2.1285 0
M  V30 3865 H 365.226 -3.88014 -1.93978 0
M  V30 3866 H 365.897 -4.24112 -3.53317 0
M  V30 3867 H 368.373 -2.31574 -3.45706 0
M  V30 3868 H 367.249 -2.67582 -4.79261 0
M  V30 3869 H 367.51 -1.00879 -4.30437 0
M  V30 3870 N 366.569 1.04691 -1.17803 0
M  V30 3871 C 367.519 2.10856 -0.867391 0
M  V30 3872 C 368.503 1.601 0.160206 0
M  V30 3873 O 369.695 1.76948 -0.042947 0
M  V30 3874 C 366.824 3.411 -0.388012 0
M  V30 3875 C 365.91 3.9864 -1.44732 0
M  V30 3876 N 366.301 4.30075 -2.66212 0
M  V30 3877 C 364.599 4.26439 -1.30637 0
M  V30 3878 C 365.3 4.76033 -3.34317 0
M  V30 3879 N 364.276 4.76462 -2.61696 0
M  V30 3880 H 368.078 2.33029 -1.79094 0
M  V30 3881 H 365.592 1.22386 -1.0675 0
M  V30 3882 H 367.589 4.16641 -0.146994 0
M  V30 3883 H 366.249 3.20357 0.529271 0
M  V30 3884 H 367.26 4.19917 -3.03134 0
M  V30 3885 H 363.937 4.15056 -0.451129 0
M  V30 3886 H 365.327 5.09427 -4.38103 0
M  V30 3887 N 368.047 0.979072 1.23499 0
M  V30 3888 C 369.287 0.655228 1.93613 0
M  V30 3889 C 369.651 -0.796336 1.74707 0
M  V30 3890 O 370.852 -1.23094 2.38959 0
M  V30 3891 C 369.123 1.03337 3.42135 0
M  V30 3892 S 370.682 0.825793 4.3096 0
M  V30 3893 H 367.5 0.240004 0.669267 0
M  V30 3894 H 370.102 1.25843 1.49612 0
M  V30 3895 H 368.806 2.08646 3.53405 0
M  V30 3896 H 368.337 0.421397 3.91137 0
M  V30 3897 H 370.352 -0.290991 4.95346 0
M  V30 3898 N 369.525 -1.3858 0.750561 0
M  V30 3899 C 370.936 -1.82927 0.373438 0
M  V30 3900 C 371.287 -1.62634 -1.09748 0
M  V30 3901 O 370.412 -1.12588 -1.84805 0
M  V30 3902 C 371.007 -3.32088 0.671029 0
M  V30 3903 C 369.566 -3.74795 0.34722 0
M  V30 3904 C 368.713 -2.61391 0.92575 0
M  V30 3905 H 371.664 -1.27351 0.946958 0
M  V30 3906 H 371.685 -3.80465 -0.0518269 0
M  V30 3907 H 371.197 -3.46826 1.74164 0
M  V30 3908 H 369.298 -3.65638 -0.716933 0
M  V30 3909 H 369.411 -4.71667 0.840656 0
M  V30 3910 H 367.775 -2.52265 0.351327 0
M  V30 3911 H 368.558 -2.78929 2.00133 0
M  V30 3912 N 371.003 -0.499398 -1.49478 0
M  V30 3913 C 372.233 0.0424839 -2.06556 0
M  V30 3914 C 372.641 1.31514 -1.36018 0
M  V30 3915 O 371.984 1.78555 -0.431718 0
M  V30 3916 C 372.046 0.368074 -3.57611 0
M  V30 3917 C 371.71 -0.806631 -4.49825 0
M  V30 3918 C 372.707 -1.69667 -4.91436 0
M  V30 3919 C 370.392 -1.00498 -4.92144 0
M  V30 3920 C 372.386 -2.76923 -5.74101 0
M  V30 3921 C 370.073 -2.08072 -5.74586 0
M  V30 3922 C 371.071 -2.96119 -6.15469 0
M  V30 3923 O 370.759 -4.01836 -6.96264 0
M  V30 3924 H 370.491 -0.0165165 -0.675798 0
M  V30 3925 H 373.045 -0.695497 -1.93267 0
M  V30 3926 H 371.275 1.15963 -3.68903 0
M  V30 3927 H 372.964 0.848381 -3.96935 0
M  V30 3928 H 373.73 -1.55524 -4.59388 0
M  V30 3929 H 369.609 -0.329036 -4.59824 0
M  V30 3930 H 373.153 -3.45676 -6.05932 0
M  V30 3931 H 369.05 -2.22211 -6.06047 0
M  V30 3932 H 369.818 -3.9917 -7.14567 0
M  V30 3933 N 372.481 1.55866 -0.233164 0
M  V30 3934 C 373.758 1.90471 0.444988 0
M  V30 3935 C 374.138 1.15209 1.7689 0
M  V30 3936 O 373.486 0.265119 2.26957 0
M  V30 3937 C 373.696 3.4333 0.626559 0
M  V30 3938 C 375.044 4.14319 0.92871 0
M  V30 3939 O 376.068 3.48993 0.712926 0
M  V30 3940 O 374.927 5.29846 1.33887 0
M  V30 3941 H 372.021 0.792347 0.236885 0
M  V30 3942 H 374.567 1.67437 -0.276211 0
M  V30 3943 H 373.339 3.90095 -0.306822 0
M  V30 3944 H 372.962 3.72181 1.39881 0
M  V30 3945 N 373.959 -0.0401083 1.57549 0
M  V30 3946 C 374.891 -1.07149 2.02612 0
M  V30 3947 C 375.904 -1.33126 0.937085 0
M  V30 3948 O 377.093 -1.30808 1.21456 0
M  V30 3949 C 374.193 -2.41561 2.37701 0
M  V30 3950 C 373.366 -2.35096 3.68848 0
M  V30 3951 C 372.425 -3.51867 3.91249 0
M  V30 3952 O 371.451 -3.3186 4.62447 0
M  V30 3953 N 372.653 -4.73351 3.36035 0
M  V30 3954 H 375.418 -0.687485 2.91708 0
M  V30 3955 H 372.979 -0.228248 1.60283 0
M  V30 3956 H 374.971 -3.18379 2.49833 0
M  V30 3957 H 373.541 -2.71846 1.54332 0
M  V30 3958 H 372.761 -1.4345 3.67173 0
M  V30 3959 H 374.049 -2.27908 4.54901 0
M  V30 3960 H 373.447 -4.92507 2.78304 0
M  V30 3961 H 372.004 -5.47572 3.53565 0
M  V30 3962 N 375.437 -1.54477 -0.31217 0
M  V30 3963 C 376.367 -1.87652 -1.38957 0
M  V30 3964 C 377.348 -0.734358 -1.53431 0
M  V30 3965 O 378.533 -0.98911 -1.67123 0
M  V30 3966 C 375.663 -2.11396 -2.75552 0
M  V30 3967 C 374.617 -3.27243 -2.75855 0
M  V30 3968 C 373.943 -3.36382 -4.15633 0
M  V30 3969 C 375.243 -4.64622 -2.38587 0
M  V30 3970 H 376.937 -2.77887 -1.11442 0
M  V30 3971 H 374.483 -1.33707 -0.534655 0
M  V30 3972 H 376.436 -2.33189 -3.51 0
M  V30 3973 H 375.16 -1.17921 -3.04569 0
M  V30 3974 H 373.819 -3.05356 -2.02863 0
M  V30 3975 H 373.467 -2.40445 -4.41809 0
M  V30 3976 H 373.167 -4.14249 -4.1674 0
M  V30 3977 H 374.691 -3.60422 -4.92877 0
M  V30 3978 H 376.105 -4.86219 -3.03749 0
M  V30 3979 H 374.502 -5.45121 -2.50925 0
M  V30 3980 H 375.572 -4.66097 -1.33723 0
M  V30 3981 N 376.915 0.57481 -1.46744 0
M  V30 3982 C 377.847 1.69804 -1.53946 0
M  V30 3983 C 378.86 1.57098 -0.427106 0
M  V30 3984 O 380.049 1.64378 -0.695863 0
M  V30 3985 C 377.149 3.08125 -1.4111 0
M  V30 3986 C 376.322 3.46757 -2.66605 0
M  V30 3987 C 375.381 4.6417 -2.47855 0
M  V30 3988 O 374.407 4.69634 -3.21609 0
M  V30 3989 N 375.609 5.59553 -1.54534 0
M  V30 3990 H 378.374 1.64077 -2.50796 0
M  V30 3991 H 375.935 0.761 -1.429 0
M  V30 3992 H 377.927 3.84478 -1.26328 0
M  V30 3993 H 376.497 3.08175 -0.524109 0
M  V30 3994 H 375.717 2.6003 -2.96274 0
M  V30 3995 H 377.005 3.69337 -3.49954 0
M  V30 3996 H 376.403 5.57881 -0.937304 0
M  V30 3997 H 374.96 6.35304 -1.45711 0
M  V30 3998 N 378.394 1.34581 0.820102 0
M  V30 3999 C 379.643 1.26437 1.57151 0
M  V30 4000 C 379.956 -0.163111 1.94919 0
M  V30 4001 O 381.162 -0.366722 2.69012 0
M  V30 4002 C 379.618 2.21658 2.83541 0
M  V30 4003 C 379.226 3.69679 2.53065 0
M  V30 4004 C 380.97 2.22428 3.61561 0
M  V30 4005 C 378.877 4.56761 3.75664 0
M  V30 4006 H 377.807 0.469707 0.589823 0
M  V30 4007 H 380.458 1.59763 0.902656 0
M  V30 4008 H 378.84 1.81287 3.52067 0
M  V30 4009 H 380.014 4.18605 1.92631 0
M  V30 4010 H 378.329 3.71384 1.88316 0
M  V30 4011 H 380.926 2.8471 4.52597 0
M  V30 4012 H 381.269 1.22434 3.97889 0
M  V30 4013 H 381.802 2.61259 2.99981 0
M  V30 4014 H 378.541 5.57702 3.44454 0
M  V30 4015 H 378.061 4.12568 4.35371 0
M  V30 4016 H 379.74 4.71509 4.43044 0
M  V30 4017 N 379.872 -1.04064 1.18357 0
M  V30 4018 C 381.102 -1.80654 1.00238 0
M  V30 4019 C 381.51 -1.83713 -0.452362 0
M  V30 4020 O 380.853 -1.27135 -1.32599 0
M  V30 4021 C 380.915 -3.27582 1.48088 0
M  V30 4022 C 380.579 -3.48184 2.96002 0
M  V30 4023 C 381.576 -3.39372 3.93856 0
M  V30 4024 C 379.261 -3.7478 3.34433 0
M  V30 4025 C 381.255 -3.5686 5.28138 0
M  V30 4026 C 378.942 -3.91915 4.68877 0
M  V30 4027 C 379.94 -3.82956 5.65539 0
M  V30 4028 O 379.628 -3.996 6.97549 0
M  V30 4029 H 379.36 -0.575751 0.354241 0
M  V30 4030 H 381.914 -1.32044 1.57333 0
M  V30 4031 H 380.144 -3.77161 0.853588 0
M  V30 4032 H 381.833 -3.8573 1.2636 0
M  V30 4033 H 382.599 -3.18789 3.65511 0
M  V30 4034 H 378.478 -3.80852 2.59756 0
M  V30 4035 H 382.022 -3.49783 6.03571 0
M  V30 4036 H 377.919 -4.11992 4.96923 0
M  V30 4037 H 378.687 -4.1676 7.04452 0
M  V30 4038 N 381.35 -0.985608 -1.22978 0
M  V30 4039 C 382.313 -0.535071 -2.22867 0
M  V30 4040 C 383.313 0.378123 -1.56291 0
M  V30 4041 O 384.503 0.171092 -1.73358 0
M  V30 4042 C 381.635 0.222702 -3.40172 0
M  V30 4043 H 382.828 -1.41835 -2.6424 0
M  V30 4044 H 380.381 -0.772042 -1.35901 0
M  V30 4045 H 381.116 1.12229 -3.04262 0
M  V30 4046 H 380.901 -0.43288 -3.89703 0
M  V30 4047 H 382.391 0.526335 -4.1427 0
M  V30 4048 N 382.828 1.3818 -0.7579 0
M  V30 4049 C 383.776 2.32277 -0.122482 0
M  V30 4050 C 384.77 1.54238 0.700505 0
M  V30 4051 O 385.976 1.69737 0.599119 0
M  V30 4052 H 382.351 0.751712 -0.0208143 0
M  V30 4053 H 384.322 2.83469 -0.932099 0
M  V30 4054 C 383.071 3.39447 0.753076 0
M  V30 4055 H 382.394 3.99591 0.129184 0
M  V30 4056 H 383.834 4.07684 1.16489 0
M  V30 4057 C 382.293 2.78375 1.8976 0
M  V30 4058 O 382.823 2.68025 2.99208 0
M  V30 4059 N 381.029 2.36121 1.69397 0
M  V30 4060 H 380.576 2.4474 0.803762 0
M  V30 4061 H 380.534 1.95602 2.46145 0
M  V30 4062 N 384.306 0.507319 1.49211 0
M  V30 4063 C 385.554 -0.0348839 2.0207 0
M  V30 4064 C 385.875 -1.36898 1.38866 0
M  V30 4065 O 385.145 -1.88133 0.546151 0
M  V30 4066 H 383.725 -0.0158812 0.746831 0
M  V30 4067 H 386.387 0.665998 1.83168 0
M  V30 4068 H 385.483 -0.159917 3.1169 0
M  V30 4069 N 385.784 -1.5574 0.241426 0
M  V30 4070 C 386.731 -2.21149 -0.660432 0
M  V30 4071 C 387.701 -1.17356 -1.17545 0
M  V30 4072 O 388.886 -1.45784 -1.23093 0
M  V30 4073 C 386.026 -2.91059 -1.85414 0
M  V30 4074 C 385.139 -4.09495 -1.37616 0
M  V30 4075 C 384.274 -4.67135 -2.529 0
M  V30 4076 C 383.313 -5.77831 -2.01936 0
M  V30 4077 N 382.45 -6.29677 -3.10566 0
M  V30 4078 H 387.29 -2.97845 -0.095955 0
M  V30 4079 H 384.827 -1.47057 -0.0356024 0
M  V30 4080 H 386.785 -3.29788 -2.5553 0
M  V30 4081 H 385.415 -2.16846 -2.39118 0
M  V30 4082 H 384.467 -3.76117 -0.569235 0
M  V30 4083 H 385.779 -4.89423 -0.962618 0
M  V30 4084 H 384.933 -5.08409 -3.31067 0
M  V30 4085 H 383.672 -3.86411 -2.97553 0
M  V30 4086 H 382.677 -5.36039 -1.22238 0
M  V30 4087 H 383.902 -6.60402 -1.58259 0
M  V30 4088 H 381.848 -5.5186 -3.54664 0
M  V30 4089 H 381.765 -7.04783 -2.73526 0
M  V30 4090 H 383.033 -6.75609 -3.88809 0
M  V30 4091 N 387.262 0.0317525 -1.57568 0
M  V30 4092 C 388.21 1.05165 -2.07468 0
M  V30 4093 C 389.204 1.3761 -0.98792 0
M  V30 4094 O 390.41 1.36546 -1.17282 0
M  V30 4095 H 386.785 0.35666 -0.66204 0
M  V30 4096 H 388.756 0.604958 -2.92203 0
M  V30 4097 C 387.505 2.34488 -2.56731 0
M  V30 4098 H 386.828 2.10383 -3.39969 0
M  V30 4099 H 388.268 3.04203 -2.95358 0
M  V30 4100 C 386.727 3.03266 -1.46736 0
M  V30 4101 O 387.257 3.92988 -0.832069 0
M  V30 4102 N 385.463 2.6455 -1.20256 0
M  V30 4103 H 385.01 1.91674 -1.72102 0
M  V30 4104 H 384.968 3.10886 -0.468737 0
M  V30 4105 N 388.74 1.54641 0.303973 0
M  V30 4106 C 389.989 1.7299 1.03717 0
M  V30 4107 C 390.302 0.521168 1.88529 0
M  V30 4108 O 391.508 0.586408 2.65092 0
M  V30 4109 C 389.964 3.06051 1.89369 0
M  V30 4110 C 389.572 4.34393 1.09574 0
M  V30 4111 C 391.316 3.3376 2.62306 0
M  V30 4112 C 389.223 5.58506 1.94486 0
M  V30 4113 H 388.153 0.64473 0.390947 0
M  V30 4114 H 390.804 1.81124 0.294328 0
M  V30 4115 H 389.186 2.91874 2.67629 0
M  V30 4116 H 390.36 4.59396 0.359485 0
M  V30 4117 H 388.675 4.13597 0.482324 0
M  V30 4118 H 391.272 4.23687 3.26181 0
M  V30 4119 H 391.615 2.52503 3.3098 0
M  V30 4120 H 392.148 3.48894 1.91097 0
M  V30 4121 H 388.887 6.42422 1.30287 0
M  V30 4122 H 388.407 5.37694 2.65792 0
M  V30 4123 H 390.086 5.95651 2.52605 0
M  V30 4124 N 390.218 -0.567019 1.47046 0
M  V30 4125 C 391.466 -1.322 1.52864 0
M  V30 4126 C 391.787 -1.94088 0.188388 0
M  V30 4127 O 391.057 -1.7941 -0.786693 0
M  V30 4128 H 389.637 -0.490894 0.563056 0
M  V30 4129 H 392.299 -0.662879 1.83281 0
M  V30 4130 H 391.395 -2.12062 2.2899 0
M  V30 4131 N 391.696 -1.35014 -0.812953 0
M  V30 4132 C 392.606 -1.2951 -1.95613 0
M  V30 4133 C 393.622 -0.20107 -1.72834 0
M  V30 4134 O 394.798 -0.42932 -1.96771 0
M  V30 4135 C 391.863 -1.06033 -3.30088 0
M  V30 4136 C 390.924 -2.24688 -3.65805 0
M  V30 4137 C 390.157 -2.02322 -4.93864 0
M  V30 4138 O 390.38 -0.986464 -5.61805 0
M  V30 4139 O 389.314 -2.89525 -5.27692 0
M  V30 4140 H 393.14 -2.25705 -2.03202 0
M  V30 4141 H 390.725 -1.15321 -0.949811 0
M  V30 4142 H 392.607 -0.94763 -4.10607 0
M  V30 4143 H 391.282 -0.128852 -3.23443 0
M  V30 4144 H 390.189 -2.41521 -2.85689 0
M  V30 4145 H 391.522 -3.16261 -3.77147 0
M  V30 4146 N 393.175 1.03435 -1.18907 0
M  V30 4147 C 394.422 1.76743 -0.988334 0
M  V30 4148 C 394.75 1.88447 0.481441 0
M  V30 4149 O 394.005 1.39383 1.37371 0
M  V30 4150 C 394.304 3.19792 -1.59586 0
M  V30 4151 C 393.97 3.28108 -3.09283 0
M  V30 4152 C 392.632 3.30084 -3.5014 0
M  V30 4153 C 394.984 3.27696 -4.05296 0
M  V30 4154 C 392.312 3.29299 -4.85571 0
M  V30 4155 C 394.664 3.28451 -5.4065 0
M  V30 4156 C 393.328 3.28723 -5.80946 0
M  V30 4157 H 392.598 0.64675 -0.361657 0
M  V30 4158 H 395.245 1.21442 -1.48068 0
M  V30 4159 H 393.55 3.78136 -1.02568 0
M  V30 4160 H 395.247 3.75171 -1.41589 0
M  V30 4161 H 391.837 3.27294 -2.76725 0
M  V30 4162 H 396.021 3.25354 -3.74778 0
M  V30 4163 H 391.277 3.2783 -5.16079 0
M  V30 4164 H 395.451 3.27082 -6.14809 0
M  V30 4165 H 393.078 3.27868 -6.85862 0
M  V30 4166 N 394.653 0.992116 1.22453 0
M  V30 4167 C 395.893 0.675727 1.92907 0
M  V30 4168 C 396.257 -0.777762 1.75542 0
M  V30 4169 O 397.458 -1.20553 2.40251 0
M  V30 4170 C 395.729 1.0696 3.4102 0
M  V30 4171 S 397.288 0.871456 4.30059 0
M  V30 4172 H 394.106 0.247089 0.666684 0
M  V30 4173 H 396.708 1.27423 1.48269 0
M  V30 4174 H 395.412 2.12383 3.51172 0
M  V30 4175 H 394.943 0.462858 3.90668 0
M  V30 4176 H 396.958 -0.238436 4.95627 0
M  V30 4177 N 396.131 -1.37776 0.765217 0
M  V30 4178 C 397.379 -1.99454 0.325943 0
M  V30 4179 C 397.7 -1.61049 -1.09947 0
M  V30 4180 O 396.97 -0.872821 -1.75381 0
M  V30 4181 H 395.55 -0.737697 0.117525 0
M  V30 4182 H 398.212 -1.68359 0.981895 0
M  V30 4183 H 397.308 -3.09547 0.398353 0
M  V30 4184 N 397.609 -0.515225 -1.4894 0
M  V30 4185 C 398.556 0.255567 -2.29381 0
M  V30 4186 C 399.526 0.947387 -1.36432 0
M  V30 4187 O 400.711 0.951288 -1.65394 0
M  V30 4188 C 397.851 1.30551 -3.19453 0
M  V30 4189 C 396.964 0.624029 -4.27469 0
M  V30 4190 C 396.099 1.65563 -5.0474 0
M  V30 4191 C 395.138 0.956802 -6.04576 0
M  V30 4192 N 394.275 1.93326 -6.74959 0
M  V30 4193 H 399.115 -0.436607 -2.94784 0
M  V30 4194 H 396.652 -0.227154 -1.45336 0
M  V30 4195 H 398.61 1.92639 -3.70062 0
M  V30 4196 H 397.24 1.96626 -2.56004 0
M  V30 4197 H 396.292 -0.110459 -3.8024 0
M  V30 4198 H 397.604 0.0746092 -4.98744 0
M  V30 4199 H 396.758 2.35119 -5.59289 0
M  V30 4200 H 395.497 2.23893 -4.3327 0
M  V30 4201 H 394.502 0.247097 -5.49244 0
M  V30 4202 H 395.727 0.379814 -6.78037 0
M  V30 4203 H 393.673 2.50591 -6.06251 0
M  V30 4204 H 393.59 1.43489 -7.42258 0
M  V30 4205 H 394.858 2.62126 -7.34105 0
M  V30 4206 N 399.087 1.5561 -0.249682 0
M  V30 4207 C 400.019 2.18834 0.681496 0
M  V30 4208 C 401.032 1.16546 1.1367 0
M  V30 4209 O 402.221 1.43397 1.06299 0
M  V30 4210 C 399.321 2.77992 1.9384 0
M  V30 4211 C 398.494 4.05725 1.63419 0
M  V30 4212 C 397.553 4.49174 2.74096 0
M  V30 4213 O 396.579 5.15492 2.41364 0
M  V30 4214 N 397.781 4.17191 4.03649 0
M  V30 4215 H 400.546 2.9937 0.140514 0
M  V30 4216 H 398.107 1.6175 -0.0697541 0
M  V30 4217 H 400.099 3.04015 2.67127 0
M  V30 4218 H 398.669 2.01596 2.38909 0
M  V30 4219 H 397.889 3.87261 0.736358 0
M  V30 4220 H 399.177 4.88999 1.40562 0
M  V30 4221 H 398.575 3.63955 4.33074 0
M  V30 4222 H 397.132 4.48043 4.73393 0
M  V30 4223 N 400.565 -0.0233959 1.57583 0
M  V30 4224 C 401.981 -0.379134 1.55031 0
M  V30 4225 C 402.181 -1.76255 0.976548 0
M  V30 4226 O 401.237 -2.45266 0.600078 0
M  V30 4227 C 402.55 -0.275792 2.99433 0
M  V30 4228 C 404.098 -0.352458 3.11009 0
M  V30 4229 C 404.573 -0.278501 4.57152 0
M  V30 4230 N 406.064 -0.337123 4.61972 0
M  V30 4231 C 406.799 -0.302876 5.726 0
M  V30 4232 N 406.295 -0.220589 6.92449 0
M  V30 4233 N 408.088 -0.353023 5.6099 0
M  V30 4234 H 400.239 0.881869 1.93227 0
M  V30 4235 H 402.502 0.335867 0.886509 0
M  V30 4236 H 402.208 0.675108 3.4516 0
M  V30 4237 H 402.082 -1.06721 3.61788 0
M  V30 4238 H 404.469 -1.29379 2.65226 0
M  V30 4239 H 404.55 0.468409 2.51475 0
M  V30 4240 H 404.194 0.659189 5.03604 0
M  V30 4241 H 404.124 -1.11755 5.14605 0
M  V30 4242 H 406.615 -0.403002 3.75745 0
M  V30 4243 H 406.928 -0.199713 7.72542 0
M  V30 4244 H 405.273 -0.186555 6.9475 0
M  V30 4245 H 408.464 -0.415339 4.66254 0
M  V30 4246 H 408.637 -0.322866 6.47195 0
M  V30 4247 N 402.043 -1.548 -0.295768 0
M  V30 4248 C 403.454 -1.65274 -0.868411 0
M  V30 4249 C 403.805 -0.56481 -1.87894 0
M  V30 4250 O 402.93 0.29767 -2.14343 0
M  V30 4251 C 403.525 -2.99603 -1.58188 0
M  V30 4252 C 402.084 -3.12181 -2.10286 0
M  V30 4253 C 401.231 -2.6098 -0.93727 0
M  V30 4254 H 404.182 -1.58534 -0.0726422 0
M  V30 4255 H 404.203 -2.91319 -2.44772 0
M  V30 4256 H 403.715 -3.78764 -0.846151 0
M  V30 4257 H 401.816 -2.3775 -2.8689 0
M  V30 4258 H 401.929 -4.18415 -2.33379 0
M  V30 4259 H 400.293 -2.17564 -1.32431 0
M  V30 4260 H 401.076 -3.42623 -0.215414 0
M  V30 4261 N 403.521 0.559213 -1.47345 0
M  V30 4262 C 404.932 1.14134 -1.47751 0
M  V30 4263 C 405.283 1.94834 -0.231103 0
M  V30 4264 O 404.408 2.05957 0.664137 0
M  V30 4265 C 405.003 2.07653 -2.67705 0
M  V30 4266 C 403.562 2.61141 -2.71076 0
M  V30 4267 C 402.709 1.3748 -2.40821 0
M  V30 4268 H 405.66 0.345917 -1.54884 0
M  V30 4269 H 405.681 2.91497 -2.44561 0
M  V30 4270 H 405.193 1.4889 -3.58404 0
M  V30 4271 H 403.294 3.23707 -1.84511 0
M  V30 4272 H 403.407 3.02272 -3.7171 0
M  V30 4273 H 401.771 1.68086 -1.91362 0
M  V30 4274 H 402.554 0.805135 -3.33725 0
M  V30 4275 N 404.999 1.35443 0.805782 0
M  V30 4276 C 406.276 1.19325 1.54987 0
M  V30 4277 C 406.656 -0.227294 2.09873 0
M  V30 4278 O 406.004 -1.2309 1.92512 0
M  V30 4279 C 406.214 2.26196 2.65775 0
M  V30 4280 C 407.562 2.62043 3.34094 0
M  V30 4281 O 408.586 2.25115 2.76046 0
M  V30 4282 O 407.445 3.25542 4.38958 0
M  V30 4283 H 404.539 0.463623 0.684823 0
M  V30 4284 H 407.085 1.47127 0.845674 0
M  V30 4285 H 405.857 3.21471 2.23096 0
M  V30 4286 H 405.48 1.99667 3.43829 0
M  V30 4287 N 406.477 -1.02803 1.19454 0
M  V30 4288 C 407.407 -2.12999 0.956758 0
M  V30 4289 C 408.388 -1.69743 -0.110188 0
M  V30 4290 O 409.573 -1.94148 0.0450038 0
M  V30 4291 C 406.703 -3.43746 0.495553 0
M  V30 4292 C 405.657 -4.00688 1.50443 0
M  V30 4293 C 404.983 -5.27067 0.900275 0
M  V30 4294 C 406.283 -4.35397 2.8849 0
M  V30 4295 H 407.977 -2.33148 1.87836 0
M  V30 4296 H 405.523 -1.12045 0.904539 0
M  V30 4297 H 407.476 -4.2021 0.316493 0
M  V30 4298 H 406.2 -3.23321 -0.461646 0
M  V30 4299 H 404.859 -3.2632 1.67065 0
M  V30 4300 H 404.507 -5.02959 -0.064503 0
M  V30 4301 H 404.207 -5.66127 1.57397 0
M  V30 4302 H 405.731 -6.06196 0.73203 0
M  V30 4303 H 407.145 -5.02795 2.75446 0
M  V30 4304 H 405.542 -4.85541 3.52661 0
M  V30 4305 H 406.612 -3.44662 3.41081 0
M  V30 4306 N 407.956 -0.998596 -1.21925 0
M  V30 4307 C 409.233 -0.593401 -1.86382 0
M  V30 4308 C 409.613 0.92916 -1.89552 0
M  V30 4309 O 408.961 1.81347 -1.39017 0
M  V30 4310 C 409.171 -1.22039 -3.26967 0
M  V30 4311 C 410.519 -1.32449 -4.03413 0
M  V30 4312 O 411.543 -1.17522 -3.36254 0
M  V30 4313 O 410.402 -1.56395 -5.23644 0
M  V30 4314 H 407.496 -0.202385 -0.801854 0
M  V30 4315 H 410.042 -1.09484 -1.29659 0
M  V30 4316 H 408.814 -2.26158 -3.19325 0
M  V30 4317 H 408.437 -0.704906 -3.91301 0
M  V30 4318 N 409.434 1.37368 -0.772513 0
M  V30 4319 C 410.662 2.03942 -0.348588 0
M  V30 4320 C 411.077 1.58264 1.02947 0
M  V30 4321 O 410.434 0.764246 1.65727 0
M  V30 4322 C 410.485 3.5946 -0.38351 0
M  V30 4323 O 410.206 4.03468 -1.70721 0
M  V30 4324 C 411.707 4.4327 0.0519152 0
M  V30 4325 H 408.927 0.654931 -0.145966 0
M  V30 4326 H 411.471 1.75686 -1.04665 0
M  V30 4327 H 409.626 3.86486 0.265978 0
M  V30 4328 H 410.04 4.97991 -1.64636 0
M  V30 4329 H 411.514 5.51995 -0.0236733 0
M  V30 4330 H 411.991 4.2514 1.10238 0
M  V30 4331 H 412.597 4.21471 -0.569415 0
M  V30 4332 N 410.912 0.523116 1.48665 0
M  V30 4333 C 412.137 -0.0117284 2.07397 0
M  V30 4334 C 412.562 -1.28031 1.37803 0
M  V30 4335 O 411.92 -1.75836 0.441762 0
M  V30 4336 C 411.968 -0.225786 3.59892 0
M  V30 4337 O 411.072 -1.29592 3.91509 0
M  V30 4338 H 410.413 0.0360673 0.66302 0
M  V30 4339 H 412.943 0.729066 1.9117 0
M  V30 4340 H 412.953 -0.450552 4.05505 0
M  V30 4341 H 411.628 0.700944 4.09951 0
M  V30 4342 H 410.205 -1.05436 3.57684 0
M  V30 4343 N 412.39 -1.55475 0.257931 0
M  V30 4344 C 413.615 -2.04064 -0.370488 0
M  V30 4345 C 414.04 -1.13565 -1.49948 0
M  V30 4346 O 413.398 -0.130781 -1.80828 0
M  V30 4347 C 413.446 -3.50554 -0.845237 0
M  V30 4348 O 412.55 -3.63173 -1.95394 0
M  V30 4349 H 411.891 -0.659257 -0.0792243 0
M  V30 4350 H 414.421 -2.00903 0.387212 0
M  V30 4351 H 414.431 -3.91588 -1.14555 0
M  V30 4352 H 413.106 -4.15896 -0.0191259 0
M  V30 4353 H 411.683 -3.34039 -1.65748 0
M  V30 4354 N 413.868 0.0150385 -1.57593 0
M  V30 4355 C 414.816 1.02958 -2.08572 0
M  V30 4356 C 415.81 1.36554 -1.00246 0
M  V30 4357 O 417.016 1.35295 -1.18724 0
M  V30 4358 H 413.391 0.349619 -0.665786 0
M  V30 4359 H 415.362 0.573932 -2.92829 0
M  V30 4360 C 414.111 2.31752 -2.59203 0
M  V30 4361 H 413.434 2.06765 -3.42182 0
M  V30 4362 H 414.874 3.01053 -2.98568 0
M  V30 4363 C 413.333 3.01692 -1.49945 0
M  V30 4364 O 413.863 3.92083 -0.873704 0
M  V30 4365 N 412.069 2.6326 -1.23056 0
M  V30 4366 H 411.616 1.89838 -1.74125 0
M  V30 4367 H 411.574 3.10372 -0.501685 0
M  V30 4368 N 415.346 1.54954 0.287554 0
M  V30 4369 C 416.309 1.86076 1.33823 0
M  V30 4370 C 417.309 0.734414 1.43049 0
M  V30 4371 O 418.499 1.00266 1.42452 0
M  V30 4372 C 415.631 2.05305 2.72144 0
M  V30 4373 H 416.824 2.79984 1.07465 0
M  V30 4374 H 414.377 1.47223 0.524902 0
M  V30 4375 H 415.112 1.1373 3.03704 0
M  V30 4376 H 414.897 2.873 2.66836 0
M  V30 4377 H 416.387 2.30706 3.48087 0
M  V30 4378 N 416.824 -0.551391 1.4764 0
M  V30 4379 C 418.07 -1.31024 1.54792 0
M  V30 4380 C 418.403 -1.9304 0.211967 0
M  V30 4381 O 417.678 -1.78175 -0.77999 0
M  V30 4382 C 417.961 -2.41593 2.67029 0
M  V30 4383 C 417.814 -1.84408 4.10261 0
M  V30 4384 C 419.133 -3.43488 2.75143 0
M  V30 4385 H 416.252 -0.475031 0.563485 0
M  V30 4386 H 418.894 -0.616454 1.79722 0
M  V30 4387 H 417.044 -3.00772 2.45904 0
M  V30 4388 H 418.716 -1.29445 4.42766 0
M  V30 4389 H 416.959 -1.15051 4.18265 0
M  V30 4390 H 417.63 -2.64367 4.84576 0
M  V30 4391 H 420.106 -2.94236 2.94218 0
M  V30 4392 H 418.982 -4.18274 3.55441 0
M  V30 4393 H 419.243 -4.02703 1.82435 0
M  V30 4394 N 418.302 -1.35869 -0.798587 0
M  V30 4395 C 419.579 -1.20145 -1.54352 0
M  V30 4396 C 419.959 0.216161 -2.0999 0
M  V30 4397 O 419.307 1.22068 -1.93162 0
M  V30 4398 C 419.517 -2.27602 -2.64572 0
M  V30 4399 C 420.865 -2.63811 -3.32699 0
M  V30 4400 O 421.889 -2.26576 -2.74849 0
M  V30 4401 O 420.748 -3.27866 -4.37226 0
M  V30 4402 H 417.842 -0.467248 -0.682355 0
M  V30 4403 H 420.388 -1.47574 -0.837859 0
M  V30 4404 H 419.16 -3.2265 -2.21388 0
M  V30 4405 H 418.783 -2.01488 -3.42766 0
M  V30 4406 N 419.78 1.02168 -1.19998 0
M  V30 4407 C 420.71 2.12488 -0.96804 0
M  V30 4408 C 421.691 1.69799 0.101185 0
M  V30 4409 O 422.876 1.94121 -0.0552993 0
M  V30 4410 C 420.006 3.43479 -0.513776 0
M  V30 4411 C 418.96 3.99884 -1.52566 0
M  V30 4412 C 418.286 5.26582 -0.928214 0
M  V30 4413 C 419.586 4.33861 -2.90795 0
M  V30 4414 H 421.28 2.32149 -1.89069 0
M  V30 4415 H 418.826 1.11564 -0.910468 0
M  V30 4416 H 420.779 4.20036 -0.338774 0
M  V30 4417 H 419.503 3.23561 0.444493 0
M  V30 4418 H 418.162 3.25429 -1.68794 0
M  V30 4419 H 417.81 5.02986 0.0378289 0
M  V30 4420 H 417.51 5.65284 -1.60397 0
M  V30 4421 H 419.034 6.05799 -0.764167 0
M  V30 4422 H 420.448 5.01327 -2.78109 0
M  V30 4423 H 418.845 4.83664 -3.55231 0
M  V30 4424 H 419.915 3.42848 -3.42904 0
M  V30 4425 N 421.258 1.00505 1.21394 0
M  V30 4426 C 422.188 0.585684 2.26035 0
M  V30 4427 C 423.169 -0.393525 1.65485 0
M  V30 4428 O 424.354 -0.281497 1.92149 0
M  V30 4429 C 421.484 -0.0884283 3.47187 0
M  V30 4430 C 420.438 0.810567 4.20254 0
M  V30 4431 C 419.764 0.00286382 5.347 0
M  V30 4432 C 421.064 2.1132 4.77641 0
M  V30 4433 H 422.758 1.46039 2.61368 0
M  V30 4434 H 420.304 0.703648 1.25638 0
M  V30 4435 H 422.257 -0.393286 4.19561 0
M  V30 4436 H 420.981 -0.997766 3.10986 0
M  V30 4437 H 419.64 1.09925 3.49731 0
M  V30 4438 H 419.288 -0.907765 4.94741 0
M  V30 4439 H 418.988 0.601444 5.84514 0
M  V30 4440 H 420.512 -0.295808 6.09883 0
M  V30 4441 H 421.926 1.87148 5.41893 0
M  V30 4442 H 420.323 2.66164 5.37845 0
M  V30 4443 H 421.393 2.78393 3.9702 0
M  V30 4444 N 422.737 -1.36956 0.779787 0
M  V30 4445 C 423.984 -1.99491 0.347766 0
M  V30 4446 C 424.312 -1.61898 -1.07793 0
M  V30 4447 O 423.567 -0.86071 -1.75756 0
M  V30 4448 C 423.866 -3.54585 0.447686 0
M  V30 4449 C 423.532 -4.1197 1.83279 0
M  V30 4450 C 422.194 -4.27356 2.2118 0
M  V30 4451 C 424.546 -4.43354 2.74019 0
M  V30 4452 C 421.874 -4.71432 3.4924 0
M  V30 4453 C 424.226 -4.88858 4.01497 0
M  V30 4454 C 422.89 -5.0245 4.39432 0
M  V30 4455 H 422.16 -0.729991 0.127257 0
M  V30 4456 H 424.807 -1.63599 0.995376 0
M  V30 4457 H 423.112 -3.90773 -0.283447 0
M  V30 4458 H 424.809 -4.00888 0.0945948 0
M  V30 4459 H 421.399 -4.00428 1.52825 0
M  V30 4460 H 425.583 -4.31045 2.45995 0
M  V30 4461 H 420.839 -4.80141 3.78516 0
M  V30 4462 H 425.013 -5.12108 4.71931 0
M  V30 4463 H 422.64 -5.36362 5.38721 0
M  V30 4464 N 424.215 -0.530993 -1.48385 0
M  V30 4465 C 425.462 0.0027373 -2.025 0
M  V30 4466 C 425.79 1.34186 -1.40799 0
M  V30 4467 O 425.045 1.88 -0.543544 0
M  V30 4468 C 425.344 0.172742 -3.56982 0
M  V30 4469 C 425.01 -1.09215 -4.37473 0
M  V30 4470 C 423.672 -1.43881 -4.59186 0
M  V30 4471 C 426.024 -1.93153 -4.84088 0
M  V30 4472 C 423.352 -2.62381 -5.2476 0
M  V30 4473 C 425.704 -3.10833 -5.50968 0
M  V30 4474 C 424.368 -3.45843 -5.70919 0
M  V30 4475 H 423.638 0.00100165 -0.740999 0
M  V30 4476 H 426.285 -0.697219 -1.78357 0
M  V30 4477 H 424.59 0.955473 -3.79971 0
M  V30 4478 H 426.287 0.600642 -3.96476 0
M  V30 4479 H 422.877 -0.812177 -4.20834 0
M  V30 4480 H 427.061 -1.67683 -4.67115 0
M  V30 4481 H 422.317 -2.89707 -5.38405 0
M  V30 4482 H 426.491 -3.7618 -5.86056 0
M  V30 4483 H 424.118 -4.37764 -6.21503 0
M  V30 4484 N 425.693 1.55336 -0.266172 0
M  V30 4485 C 426.921 2.03801 0.356756 0
M  V30 4486 C 427.336 1.14485 1.50129 0
M  V30 4487 O 426.693 0.163121 1.8177 0
M  V30 4488 C 426.744 3.51455 0.846281 0
M  V30 4489 O 426.465 4.37371 -0.252663 0
M  V30 4490 C 427.966 4.15767 1.53794 0
M  V30 4491 H 425.186 0.665906 0.0825218 0
M  V30 4492 H 427.73 2.00636 -0.39566 0
M  V30 4493 H 425.885 3.55092 1.54881 0
M  V30 4494 H 426.299 5.24358 0.122173 0
M  V30 4495 H 427.773 5.20714 1.83198 0
M  V30 4496 H 428.25 3.63404 2.46646 0
M  V30 4497 H 428.856 4.16107 0.879488 0
M  V30 4498 N 427.171 -0.0066808 1.57599 0
M  V30 4499 C 428.448 -0.729586 1.81484 0
M  V30 4500 C 428.828 -1.92359 0.869558 0
M  V30 4501 O 428.176 -2.28348 -0.0832533 0
M  V30 4502 C 428.386 -1.1416 3.29801 0
M  V30 4503 C 429.734 -1.54823 3.95367 0
M  V30 4504 O 430.758 -1.23558 3.34084 0
M  V30 4505 O 429.617 -2.12937 5.03309 0
M  V30 4506 H 426.711 -0.354674 0.747085 0
M  V30 4507 H 429.257 0.0182609 1.6969 0
M  V30 4508 H 428.029 -0.290231 3.90222 0
M  V30 4509 H 427.652 -1.94876 3.46568 0
M  V30 4510 N 428.649 -1.55105 -0.279332 0
M  V30 4511 C 429.559 -1.90638 -1.36727 0
M  V30 4512 C 430.575 -0.802899 -1.54368 0
M  V30 4513 O 431.751 -1.10138 -1.68616 0
M  V30 4514 C 428.816 -2.16547 -2.70755 0
M  V30 4515 C 427.877 -3.40146 -2.61915 0
M  V30 4516 C 427.11 -3.6481 -3.8955 0
M  V30 4517 O 427.333 -2.92095 -4.89935 0
M  V30 4518 O 426.267 -4.58343 -3.90135 0
M  V30 4519 H 430.093 -2.83237 -1.09591 0
M  V30 4520 H 427.678 -1.4157 -0.477306 0
M  V30 4521 H 429.56 -2.34665 -3.50014 0
M  V30 4522 H 428.235 -1.27131 -2.9769 0
M  V30 4523 H 427.142 -3.2737 -1.81052 0
M  V30 4524 H 428.475 -4.29761 -2.3993 0
M  V30 4525 N 430.127 0.543554 -1.4793 0
M  V30 4526 C 431.352 1.32995 -1.59145 0
M  V30 4527 C 431.777 1.86472 -0.246956 0
M  V30 4528 O 431.135 1.63696 0.779324 0
M  V30 4529 C 431.183 2.46623 -2.63077 0
M  V30 4530 O 430.287 3.49261 -2.19295 0
M  V30 4531 H 429.628 0.394472 -0.534124 0
M  V30 4532 H 432.158 0.655489 -1.93816 0
M  V30 4533 H 432.168 2.93001 -2.83926 0
M  V30 4534 H 430.843 2.07059 -3.60693 0
M  V30 4535 H 429.42 3.09094 -2.08603 0
M  V30 4536 N 431.605 1.3629 0.791371 0
M  V30 4537 C 432.853 1.30154 1.5461 0
M  V30 4538 C 433.174 -0.119409 1.94634 0
M  V30 4539 O 432.444 -1.05924 1.64794 0
M  V30 4540 H 431.024 0.478784 0.573389 0
M  V30 4541 H 433.686 1.70565 0.94306 0
M  V30 4542 H 432.782 1.92762 2.45457 0
M  V30 4543 N 433.083 -1.0153 1.20538 0
M  V30 4544 C 434.36 -1.72327 0.925343 0
M  V30 4545 C 434.74 -2.03383 -0.565547 0
M  V30 4546 O 434.088 -1.69934 -1.52757 0
M  V30 4547 C 434.298 -2.9902 1.79967 0
M  V30 4548 C 435.646 -3.72258 2.04228 0
M  V30 4549 O 436.67 -3.08979 1.77231 0
M  V30 4550 O 435.529 -4.86053 2.4983 0
M  V30 4551 H 432.623 -0.751099 0.346092 0
M  V30 4552 H 435.169 -1.07366 1.31417 0
M  V30 4553 H 433.941 -2.72402 2.80915 0
M  V30 4554 H 433.564 -3.71721 1.41099 0
M  V30 4555 N 434.561 -1.01147 -1.20859 0
M  V30 4556 C 435.786 -0.716698 -1.94623 0
M  V30 4557 C 436.211 0.715415 -1.73964 0
M  V30 4558 O 435.569 1.49157 -1.03062 0
M  V30 4559 C 435.617 -1.0513 -3.44935 0
M  V30 4560 O 434.721 -0.160131 -4.12089 0
M  V30 4561 H 434.062 -0.266404 -0.608214 0
M  V30 4562 H 436.592 -1.35346 -1.53436 0
M  V30 4563 H 436.602 -1.00086 -3.95533 0
M  V30 4564 H 435.277 -2.09475 -3.59295 0
M  V30 4565 H 433.854 -0.267657 -3.71938 0
M  V30 4566 N 436.039 1.36541 -0.78704 0
M  V30 4567 C 437.455 1.52571 -0.46844 0
M  V30 4568 C 437.655 1.7415 1.01361 0
M  V30 4569 O 436.711 1.77163 1.79915 0
M  V30 4570 C 438.024 2.71299 -1.29682 0
M  V30 4571 C 439.572 2.85169 -1.29027 0
M  V30 4572 C 440.047 4.06898 -2.10233 0
M  V30 4573 N 441.538 4.1404 -2.07666 0
M  V30 4574 C 442.273 5.07301 -2.67271 0
M  V30 4575 N 441.769 6.06021 -3.35724 0
M  V30 4576 N 443.562 4.99898 -2.57018 0
M  V30 4577 H 435.713 1.20788 -1.74711 0
M  V30 4578 H 437.976 0.589364 -0.742532 0
M  V30 4579 H 437.682 2.61868 -2.34773 0
M  V30 4580 H 437.556 3.6539 -0.936479 0
M  V30 4581 H 439.943 2.94062 -0.247284 0
M  V30 4582 H 440.024 1.91992 -1.69035 0
M  V30 4583 H 439.668 3.98766 -3.1456 0
M  V30 4584 H 439.598 4.99218 -1.67597 0
M  V30 4585 H 442.089 3.43357 -1.57843 0
M  V30 4586 H 442.402 6.73741 -3.78541 0
M  V30 4587 H 440.747 6.06253 -3.39826 0
M  V30 4588 H 443.938 4.21724 -2.03142 0
M  V30 4589 H 444.111 5.72392 -3.03761 0
M  V30 4590 N 437.518 0.538854 1.48102 0
M  V30 4591 C 438.766 0.00798599 2.02098 0
M  V30 4592 C 439.087 -1.33922 1.41739 0
M  V30 4593 O 438.357 -1.86932 0.585934 0
M  V30 4594 H 436.937 -3.62179e-05 0.747 0
M  V30 4595 H 439.599 0.7047 1.81714 0
M  V30 4596 H 438.695 -0.0937672 3.11959 0
M  V30 4597 N 438.996 -1.55193 0.274407 0
M  V30 4598 C 440.242 -2.00604 -0.33608 0
M  V30 4599 C 440.597 -1.15948 -1.53538 0
M  V30 4600 O 439.89 -0.221385 -1.90317 0
M  V30 4601 C 440.084 -3.49019 -0.769458 0
M  V30 4602 C 439.913 -4.48038 0.386301 0
M  V30 4603 C 438.683 -4.97757 0.869854 0
M  V30 4604 C 440.881 -4.99558 1.22254 0
M  V30 4605 N 438.863 -5.80575 1.99515 0
M  V30 4606 C 440.234 -5.79816 2.19575 0
M  V30 4607 C 442.289 -4.81799 1.25597 0
M  V30 4608 C 440.992 -6.44208 3.19981 0
M  V30 4609 C 443.018 -5.46989 2.24848 0
M  V30 4610 C 442.38 -6.27058 3.20901 0
M  V30 4611 H 438.479 -0.777013 -0.088172 0
M  V30 4612 H 441.063 -1.90583 0.398266 0
M  V30 4613 H 439.234 -3.59383 -1.47303 0
M  V30 4614 H 440.966 -3.81263 -1.35722 0
M  V30 4615 H 437.721 -4.71464 0.449281 0
M  V30 4616 H 438.145 -6.26675 2.5614 0
M  V30 4617 H 442.787 -4.19501 0.527158 0
M  V30 4618 H 440.505 -7.05656 3.93796 0
M  V30 4619 H 444.091 -5.35189 2.28174 0
M  V30 4620 H 442.971 -6.7661 3.96445 0
M  V30 4621 N 440.474 -0.00167713 -1.576 0
M  V30 4622 C 441.421 0.989195 -2.08527 0
M  V30 4623 C 442.391 1.34031 -0.981065 0
M  V30 4624 O 443.576 1.43839 -1.2536 0
M  V30 4625 C 440.716 2.27537 -2.59463 0
M  V30 4626 C 439.829 1.98314 -3.83791 0
M  V30 4627 C 438.964 3.21025 -4.23222 0
M  V30 4628 C 438.003 2.87495 -5.40382 0
M  V30 4629 N 437.14 4.02749 -5.75098 0
M  V30 4630 H 441.98 0.547973 -2.92919 0
M  V30 4631 H 439.517 0.258917 -1.44803 0
M  V30 4632 H 441.475 3.02729 -2.87073 0
M  V30 4633 H 440.105 2.69325 -1.77943 0
M  V30 4634 H 439.157 1.13482 -3.63078 0
M  V30 4635 H 440.469 1.69601 -4.69081 0
M  V30 4636 H 439.623 4.04561 -4.52123 0
M  V30 4637 H 438.362 3.52877 -3.36644 0
M  V30 4638 H 437.367 2.02367 -5.11202 0
M  V30 4639 H 438.592 2.56889 -6.28637 0
M  V30 4640 H 436.538 4.34494 -4.91478 0
M  V30 4641 H 436.455 3.77566 -6.54966 0
M  V30 4642 H 437.723 4.87068 -6.08592 0
M  V30 4643 N 441.952 1.55251 0.271103 0
M  V30 4644 C 442.882 1.9127 1.33933 0
M  V30 4645 C 443.863 0.77478 1.5143 0
M  V30 4646 O 445.048 1.03307 1.64442 0
M  V30 4647 C 442.178 2.18627 2.69851 0
M  V30 4648 C 441.132 3.34442 2.67081 0
M  V30 4649 C 440.458 3.47284 4.06569 0
M  V30 4650 C 441.758 4.70784 2.26185 0
M  V30 4651 H 443.452 2.80744 1.04035 0
M  V30 4652 H 440.998 1.35077 0.499017 0
M  V30 4653 H 442.951 2.42413 3.44694 0
M  V30 4654 H 441.675 1.25955 3.01335 0
M  V30 4655 H 440.334 3.10627 1.94695 0
M  V30 4656 H 439.982 2.52074 4.35279 0
M  V30 4657 H 439.682 4.25152 4.0561 0
M  V30 4658 H 441.206 3.73363 4.83148 0
M  V30 4659 H 442.62 4.94102 2.90751 0
M  V30 4660 H 441.017 5.51582 2.36384 0
M  V30 4661 H 442.087 4.69478 1.21319 0
M  V30 4662 N 443.43 -0.535701 1.48216 0
M  V30 4663 C 444.846 -0.863701 1.3421 0
M  V30 4664 C 445.046 -1.98458 0.34879 0
M  V30 4665 O 444.102 -2.51432 -0.23204 0
M  V30 4666 C 445.415 -1.23662 2.74095 0
M  V30 4667 C 446.963 -1.34683 2.82541 0
M  V30 4668 C 447.438 -1.75322 4.23115 0
M  V30 4669 N 448.929 -1.82434 4.2576 0
M  V30 4670 C 449.664 -2.15252 5.31464 0
M  V30 4671 N 449.16 -2.46533 6.47452 0
M  V30 4672 N 450.953 -2.16209 5.18855 0
M  V30 4673 H 443.104 0.203965 2.11418 0
M  V30 4674 H 445.367 0.0286033 0.947568 0
M  V30 4675 H 445.073 -0.486674 3.48316 0
M  V30 4676 H 444.947 -2.18805 3.07253 0
M  V30 4677 H 447.334 -2.08756 2.08579 0
M  V30 4678 H 447.415 -0.376756 2.5301 0
M  V30 4679 H 447.059 -1.01812 4.97591 0
M  V30 4680 H 446.989 -2.7337 4.50085 0
M  V30 4681 H 449.48 -1.6056 3.42095 0
M  V30 4682 H 449.793 -2.70662 7.23852 0
M  V30 4683 H 448.138 -2.44065 6.50736 0
M  V30 4684 H 451.329 -1.91224 4.2726 0
M  V30 4685 H 451.502 -2.41453 6.01335 0
M  V30 4686 N 444.908 -1.36708 -0.784132 0
M  V30 4687 C 446.138 -1.34203 -1.57077 0
M  V30 4688 C 446.546 0.0774945 -1.89041 0
M  V30 4689 O 445.889 1.04628 -1.50992 0
M  V30 4690 C 445.951 -2.10351 -2.91535 0
M  V30 4691 C 445.615 -3.59405 -2.82272 0
M  V30 4692 C 446.612 -4.53545 -2.54151 0
M  V30 4693 C 444.297 -4.02362 -3.00683 0
M  V30 4694 C 446.291 -5.8862 -2.44551 0
M  V30 4695 C 443.978 -5.37526 -2.90704 0
M  V30 4696 C 444.976 -6.30468 -2.62677 0
M  V30 4697 O 444.664 -7.63149 -2.52702 0
M  V30 4698 H 444.396 -0.461791 -0.493685 0
M  V30 4699 H 446.95 -1.80475 -0.980712 0
M  V30 4700 H 445.18 -1.5875 -3.52612 0
M  V30 4701 H 446.869 -2.00636 -3.52845 0
M  V30 4702 H 447.635 -4.21669 -2.39625 0
M  V30 4703 H 443.514 -3.30389 -3.21503 0
M  V30 4704 H 447.058 -6.61133 -2.22596 0
M  V30 4705 H 442.955 -5.69008 -3.04795 0
M  V30 4706 H 443.723 -7.73331 -2.68144 0
M  V30 4707 N 446.386 1.0089 -1.21074 0
M  V30 4708 C 447.614 1.78191 -1.05145 0
M  V30 4709 C 448.029 1.84537 0.398952 0
M  V30 4710 O 447.386 1.30393 1.27687 0
M  V30 4711 C 447.437 3.22288 -1.63746 0
M  V30 4712 O 447.158 3.16315 -3.03111 0
M  V30 4713 C 448.659 4.16106 -1.52875 0
M  V30 4714 H 445.879 0.560129 -0.369454 0
M  V30 4715 H 448.423 1.26945 -1.60328 0
M  V30 4716 H 446.578 3.70655 -1.12664 0
M  V30 4717 H 446.992 4.06817 -3.31059 0
M  V30 4718 H 448.466 5.15026 -1.98626 0
M  V30 4719 H 448.943 4.36541 -0.482521 0
M  V30 4720 H 449.549 3.73625 -2.03185 0
M  V30 4721 N 447.864 1.01787 1.20321 0
M  V30 4722 C 449.092 0.727194 1.937 0
M  V30 4723 C 449.507 -0.712305 1.74848 0
M  V30 4724 O 448.864 -1.48327 1.06327 0
M  V30 4725 C 448.915 1.05497 3.45764 0
M  V30 4726 O 448.636 2.43794 3.64 0
M  V30 4727 C 450.137 0.785534 4.36285 0
M  V30 4728 H 447.357 0.266939 0.615617 0
M  V30 4729 H 449.901 1.35939 1.52777 0
M  V30 4730 H 448.056 0.468158 3.84561 0
M  V30 4731 H 448.47 2.55656 4.57974 0
M  V30 4732 H 449.944 1.06495 5.4163 0
M  V30 4733 H 450.421 -0.280273 4.38305 0
M  V30 4734 H 451.027 1.35456 4.03152 0
M  V30 4735 N 449.342 -1.36122 0.79427 0
M  V30 4736 C 450.252 -2.33769 0.197296 0
M  V30 4737 C 451.268 -1.61276 -0.653153 0
M  V30 4738 O 452.444 -1.9323 -0.5678 0
M  V30 4739 C 449.509 -3.40474 -0.654098 0
M  V30 4740 C 448.57 -4.28759 0.215411 0
M  V30 4741 C 447.803 -5.30368 -0.595443 0
M  V30 4742 O 448.026 -5.40211 -1.83107 0
M  V30 4743 O 446.96 -6.019 0.00721351 0
M  V30 4744 H 450.786 -2.86597 1.00478 0
M  V30 4745 H 448.371 -1.38676 0.555818 0
M  V30 4746 H 450.253 -4.05703 -1.13944 0
M  V30 4747 H 448.928 -2.89937 -1.43938 0
M  V30 4748 H 447.835 -3.66554 0.747615 0
M  V30 4749 H 449.168 -4.82661 0.964332 0
M  V30 4750 N 450.82 -0.546701 -1.47814 0
M  V30 4751 C 452.069 -0.0166497 -2.01693 0
M  V30 4752 C 452.382 1.33721 -1.42752 0
M  V30 4753 O 453.588 1.95658 -1.8823 0
M  V30 4754 C 452.044 0.0206769 -3.59894 0
M  V30 4755 C 451.652 -1.3293 -4.27824 0
M  V30 4756 C 453.396 0.498674 -4.21561 0
M  V30 4757 C 451.303 -1.25165 -5.78003 0
M  V30 4758 H 450.233 -0.0024541 -0.753996 0
M  V30 4759 H 452.884 -0.692984 -1.69912 0
M  V30 4760 H 451.266 0.76244 -3.88591 0
M  V30 4761 H 452.44 -2.08795 -4.10781 0
M  V30 4762 H 450.755 -1.74438 -3.78101 0
M  V30 4763 H 453.352 0.575 -5.31599 0
M  V30 4764 H 453.695 1.5083 -3.88016 0
M  V30 4765 H 454.228 -0.18791 -3.97356 0
M  V30 4766 H 450.967 -2.23695 -6.1615 0
M  V30 4767 H 450.487 -0.53464 -5.97412 0
M  V30 4768 H 452.166 -0.949299 -6.39998 0
M  V30 4769 N 452.299 1.55045 -0.282633 0
M  V30 4770 C 453.548 1.98938 0.332667 0
M  V30 4771 C 453.861 1.17455 1.56409 0
M  V30 4772 O 455.067 1.51527 2.25282 0
M  V30 4773 C 453.523 3.54105 0.643226 0
M  V30 4774 C 453.131 4.44374 -0.568814 0
M  V30 4775 C 454.875 4.06569 1.22074 0
M  V30 4776 C 452.782 5.90943 -0.232426 0
M  V30 4777 H 451.712 0.743043 0.128075 0
M  V30 4778 H 454.363 1.79341 -0.388464 0
M  V30 4779 H 452.745 3.69532 1.42346 0
M  V30 4780 H 453.919 4.40718 -1.34551 0
M  V30 4781 H 452.234 4.02585 -1.06369 0
M  V30 4782 H 454.831 5.13626 1.48635 0
M  V30 4783 H 455.174 3.56057 2.15707 0
M  V30 4784 H 455.707 3.94612 0.502621 0
M  V30 4785 H 452.446 6.45567 -1.13683 0
M  V30 4786 H 451.966 5.9765 0.507357 0
M  V30 4787 H 453.645 6.4677 0.172657 0
M  V30 4788 N 453.777 0.010035 1.57597 0
M  V30 4789 C 454.724 -0.978122 2.09049 0
M  V30 4790 C 455.694 -1.33509 0.988159 0
M  V30 4791 O 456.879 -1.43172 1.26121 0
M  V30 4792 C 454.019 -2.26158 2.60666 0
M  V30 4793 C 453.132 -1.96275 3.84838 0
M  V30 4794 C 452.267 -3.18776 4.24918 0
M  V30 4795 C 451.306 -2.84625 5.41899 0
M  V30 4796 N 450.443 -3.99693 5.77226 0
M  V30 4797 H 455.283 -0.532431 2.93205 0
M  V30 4798 H 452.82 -0.251234 1.44939 0
M  V30 4799 H 454.778 -3.01202 2.88675 0
M  V30 4800 H 453.408 -2.68378 1.79369 0
M  V30 4801 H 452.46 -1.11555 3.63675 0
M  V30 4802 H 453.772 -1.67111 4.69974 0
M  V30 4803 H 452.926 -4.02157 4.54262 0
M  V30 4804 H 451.665 -3.51087 3.38511 0
M  V30 4805 H 450.67 -1.99653 5.12268 0
M  V30 4806 H 451.895 -2.53551 6.29991 0
M  V30 4807 H 449.841 -4.31882 4.93776 0
M  V30 4808 H 449.758 -3.74087 6.56959 0
M  V30 4809 H 451.026 -4.83834 6.11167 0
M  V30 4810 N 455.255 -1.55392 -0.262866 0
M  V30 4811 C 456.495 -1.78231 -1.00064 0
M  V30 4812 C 456.859 -0.576966 -1.83126 0
M  V30 4813 O 458.06 -0.683809 -2.59957 0
M  V30 4814 C 456.331 -3.05701 -1.85153 0
M  V30 4815 S 457.89 -3.49699 -2.65058 0
M  V30 4816 H 454.708 -0.626138 -0.336856 0
M  V30 4817 H 457.31 -1.93626 -0.27005 0
M  V30 4818 H 456.014 -3.91511 -1.23074 0
M  V30 4819 H 455.545 -2.93 -2.62515 0
M  V30 4820 H 457.56 -3.09772 -3.87629 0
M  V30 4821 N 456.733 0.527833 -1.48498 0
M  V30 4822 C 458.144 1.10975 -1.50138 0
M  V30 4823 C 458.495 1.943 -0.272378 0
M  V30 4824 O 457.62 2.07319 0.620301 0
M  V30 4825 C 458.215 2.01927 -2.72049 0
M  V30 4826 C 456.774 2.55332 -2.76554 0
M  V30 4827 C 455.921 1.32341 -2.43683 0
M  V30 4828 H 458.872 0.312986 -1.55583 0
M  V30 4829 H 458.893 2.86244 -2.50689 0
M  V30 4830 H 458.405 1.41254 -3.61481 0
M  V30 4831 H 456.506 3.19721 -1.91336 0
M  V30 4832 H 456.619 2.94319 -3.78038 0
M  V30 4833 H 454.983 1.63989 -1.94884 0
M  V30 4834 H 455.766 0.734165 -3.35358 0
M  V30 4835 N 458.211 1.37122 0.776871 0
M  V30 4836 C 459.143 1.28342 1.89897 0
M  V30 4837 C 460.156 0.200277 1.61563 0
M  V30 4838 O 461.345 0.456012 1.72577 0
M  V30 4839 C 458.445 0.960427 3.25006 0
M  V30 4840 C 457.618 2.148 3.81025 0
M  V30 4841 C 456.677 1.79608 4.94598 0
M  V30 4842 O 455.703 2.51845 5.10454 0
M  V30 4843 N 456.905 0.737171 5.758 0
M  V30 4844 H 459.67 2.25027 1.97947 0
M  V30 4845 H 457.231 1.3068 0.955739 0
M  V30 4846 H 459.223 0.705942 3.98495 0
M  V30 4847 H 457.793 0.0823066 3.12492 0
M  V30 4848 H 457.013 2.56454 2.99374 0
M  V30 4849 H 458.301 2.9411 4.15183 0
M  V30 4850 H 457.699 0.137637 5.65533 0
M  V30 4851 H 456.256 0.542534 6.49538 0
M  V30 4852 N 459.689 -1.00246 1.21608 0
M  V30 4853 C 461.1 -1.55511 1.03312 0
M  V30 4854 C 461.451 -1.91946 -0.406332 0
M  V30 4855 O 460.576 -1.73753 -1.28992 0
M  V30 4856 C 461.171 -2.82576 1.86913 0
M  V30 4857 C 459.73 -3.34318 1.72941 0
M  V30 4858 C 458.877 -2.07487 1.83968 0
M  V30 4859 H 461.828 -0.824638 1.35593 0
M  V30 4860 H 461.849 -3.54559 1.38087 0
M  V30 4861 H 461.361 -2.56026 2.91672 0
M  V30 4862 H 459.462 -3.65797 0.70877 0
M  V30 4863 H 459.575 -4.05566 2.55055 0
M  V30 4864 H 457.939 -2.20603 1.27304 0
M  V30 4865 H 458.722 -1.83346 2.9024 0
M  V30 4866 N 461.167 -1.02423 -1.1978 0
M  V30 4867 C 462.114 -0.601023 -2.22837 0
M  V30 4868 C 463.084 0.382801 -1.61629 0
M  V30 4869 O 464.269 0.280514 -1.88727 0
M  V30 4870 C 461.409 0.0467755 -3.45068 0
M  V30 4871 C 460.522 -0.98253 -4.20678 0
M  V30 4872 C 459.657 -0.304982 -5.30324 0
M  V30 4873 C 458.696 -1.32052 -5.97686 0
M  V30 4874 N 457.833 -0.669105 -6.98904 0
M  V30 4875 H 462.673 -1.48444 -2.58396 0
M  V30 4876 H 460.21 -0.742936 -1.2696 0
M  V30 4877 H 462.168 0.439556 -4.14878 0
M  V30 4878 H 460.798 0.893796 -3.10179 0
M  V30 4879 H 459.85 -1.49341 -3.49859 0
M  V30 4880 H 461.162 -1.75455 -4.66923 0
M  V30 4881 H 460.316 0.142893 -6.06532 0
M  V30 4882 H 459.055 0.499283 -4.85138 0
M  V30 4883 H 458.06 -1.7787 -5.20233 0
M  V30 4884 H 459.285 -2.1262 -6.44957 0
M  V30 4885 H 457.231 0.115152 -6.55899 0
M  V30 4886 H 457.148 -1.37908 -7.43315 0
M  V30 4887 H 458.416 -0.245076 -7.79115 0
M  V30 4888 N 462.645 1.35699 -0.801477 0
M  V30 4889 C 463.873 2.03157 -0.391768 0
M  V30 4890 C 464.288 1.60412 0.995668 0
M  V30 4891 O 463.645 0.799228 1.64069 0
M  V30 4892 C 463.696 3.58566 -0.459671 0
M  V30 4893 O 463.417 3.99756 -1.7924 0
M  V30 4894 C 464.918 4.4328 -0.0421205 0
M  V30 4895 H 462.138 0.651688 -0.159825 0
M  V30 4896 H 464.682 1.73426 -1.08368 0
M  V30 4897 H 462.837 3.86963 0.183939 0
M  V30 4898 H 463.251 4.94387 -1.75162 0
M  V30 4899 H 464.725 5.51821 -0.140754 0
M  V30 4900 H 465.202 4.27383 1.01196 0
M  V30 4901 H 465.808 4.20168 -0.658687 0
M  V30 4902 N 464.123 0.554532 1.47522 0
M  V30 4903 C 465.053 -0.182974 2.32782 0
M  V30 4904 C 466.034 -0.911377 1.43624 0
M  V30 4905 O 467.219 -0.892366 1.72483 0
M  V30 4906 C 464.349 -1.21513 3.25349 0
M  V30 4907 C 463.303 -0.603355 4.23726 0
M  V30 4908 C 462.629 -1.73995 5.05598 0
M  V30 4909 C 463.929 0.441121 5.20434 0
M  V30 4910 H 465.623 0.52882 2.94693 0
M  V30 4911 H 463.169 0.255759 1.41711 0
M  V30 4912 H 465.122 -1.73922 3.83835 0
M  V30 4913 H 463.846 -1.95683 2.61487 0
M  V30 4914 H 462.505 -0.10059 3.66462 0
M  V30 4915 H 462.153 -2.47063 4.38143 0
M  V30 4916 H 461.853 -1.3364 5.72201 0
M  V30 4917 H 463.377 -2.26735 5.66942 0
M  V30 4918 H 464.791 0.00319931 5.733 0
M  V30 4919 H 463.188 0.763402 5.95224 0
M  V30 4920 H 464.258 1.33799 4.66075 0
M  V30 4921 N 465.601 -1.54893 0.290851 0
M  V30 4922 C 466.878 -1.91991 -0.373989 0
M  V30 4923 C 467.258 -1.21694 -1.72493 0
M  V30 4924 O 466.606 -0.34917 -2.25816 0
M  V30 4925 C 466.816 -3.45419 -0.498703 0
M  V30 4926 C 468.164 -4.1748 -0.774298 0
M  V30 4927 O 469.188 -3.51398 -0.582908 0
M  V30 4928 O 468.047 -5.3445 -1.14129 0
M  V30 4929 H 465.141 -0.800593 -0.207315 0
M  V30 4930 H 467.687 -1.66297 0.338164 0
M  V30 4931 H 466.459 -3.88688 0.451392 0
M  V30 4932 H 466.082 -3.77117 -1.25972 0
M  V30 4933 N 467.08 -0.0183926 -1.57589 0
M  V30 4934 C 467.99 0.982943 -2.13015 0
M  V30 4935 C 469.006 1.36443 -1.07979 0
M  V30 4936 O 470.182 1.44802 -1.3998 0
M  V30 4937 C 467.247 2.25024 -2.63752 0
M  V30 4938 C 466.308 1.93018 -3.83461 0
M  V30 4939 C 465.541 3.13706 -4.31769 0
M  V30 4940 O 465.764 4.2601 -3.79305 0
M  V30 4941 O 464.698 2.96629 -5.23732 0
M  V30 4942 H 468.524 0.541709 -2.9883 0
M  V30 4943 H 466.109 0.201565 -1.48034 0
M  V30 4944 H 467.991 2.99441 -2.96502 0
M  V30 4945 H 466.666 2.68349 -1.81026 0
M  V30 4946 H 465.573 1.16019 -3.55655 0
M  V30 4947 H 466.906 1.54516 -4.67317 0
M  V30 4948 N 468.558 1.5553 0.254621 0
M  V30 4949 C 469.805 1.77 0.983736 0
M  V30 4950 C 470.133 0.58133 1.85609 0
M  V30 4951 O 469.388 -0.435621 1.9079 0
M  V30 4952 C 469.687 3.03891 1.88109 0
M  V30 4953 C 469.353 4.35597 1.16472 0
M  V30 4954 C 468.015 4.7139 0.966714 0
M  V30 4955 C 470.367 5.1705 0.656387 0
M  V30 4956 C 467.695 5.86176 0.247942 0
M  V30 4957 C 470.047 6.32581 -0.0488807 0
M  V30 4958 C 468.711 6.67 -0.258438 0
M  V30 4959 H 467.981 0.647688 0.359974 0
M  V30 4960 H 470.628 1.89802 0.254463 0
M  V30 4961 H 468.933 2.86068 2.67717 0
M  V30 4962 H 470.63 3.17701 2.44677 0
M  V30 4963 H 467.22 4.07475 1.32899 0
M  V30 4964 H 471.404 4.8986 0.796933 0
M  V30 4965 H 466.66 6.11354 0.075035 0
M  V30 4966 H 470.834 6.94942 -0.450444 0
M  V30 4967 H 468.461 7.55793 -0.817358 0
M  V30 4968 N 470.036 -0.519951 1.48776 0
M  V30 4969 C 471.264 -1.29971 1.60982 0
M  V30 4970 C 471.679 -1.86803 0.273885 0
M  V30 4971 O 471.036 -1.66904 -0.738193 0
M  V30 4972 C 471.087 -2.44346 2.66415 0
M  V30 4973 O 470.808 -1.89855 3.94825 0
M  V30 4974 C 472.309 -3.36014 2.89153 0
M  V30 4975 H 469.529 -0.394891 0.542496 0
M  V30 4976 H 472.073 -0.626214 1.94676 0
M  V30 4977 H 470.228 -3.07562 2.35552 0
M  V30 4978 H 470.642 -2.64798 4.5275 0
M  V30 4979 H 472.116 -4.12593 3.66703 0
M  V30 4980 H 472.593 -3.91859 1.98351 0
M  V30 4981 H 473.199 -2.78582 3.21359 0
M  V30 4982 N 471.514 -1.37532 -0.769588 0
M  V30 4983 C 472.763 -1.32183 -1.5235 0
M  V30 4984 C 473.076 0.0906555 -1.9539 0
M  V30 4985 O 474.282 0.266628 -2.70188 0
M  V30 4986 C 472.738 -2.32029 -2.75119 0
M  V30 4987 C 472.346 -3.78816 -2.3917 0
M  V30 4988 C 474.09 -2.35694 -3.53056 0
M  V30 4989 C 471.997 -4.70388 -3.58453 0
M  V30 4990 H 470.927 -0.491275 -0.571984 0
M  V30 4991 H 473.578 -1.63004 -0.842739 0
M  V30 4992 H 471.96 -1.94229 -3.45096 0
M  V30 4993 H 473.134 -4.25466 -1.76962 0
M  V30 4994 H 471.449 -3.78117 -1.74402 0
M  V30 4995 H 474.046 -3.01312 -4.41718 0
M  V30 4996 H 474.389 -1.37117 -3.93071 0
M  V30 4997 H 474.922 -2.72212 -2.90078 0
M  V30 4998 H 471.661 -5.70102 -3.23518 0
M  V30 4999 H 471.181 -4.28442 -4.19758 0
M  V30 5000 H 472.86 -4.87628 -4.25239 0
M  V30 5001 N 472.992 0.995999 -1.22138 0
M  V30 5002 C 474.241 1.72928 -1.03821 0
M  V30 5003 C 474.554 1.90872 0.427444 0
M  V30 5004 O 475.76 2.61496 0.730212 0
M  V30 5005 C 474.216 3.11124 -1.80913 0
M  V30 5006 C 473.824 3.01122 -3.31707 0
M  V30 5007 C 475.568 3.8852 -1.71035 0
M  V30 5008 C 473.475 4.34453 -4.01253 0
M  V30 5009 H 472.405 0.648376 -0.384869 0
M  V30 5010 H 475.056 1.11213 -1.45959 0
M  V30 5011 H 473.438 3.73503 -1.31573 0
M  V30 5012 H 474.612 2.47926 -3.88419 0
M  V30 5013 H 472.927 2.3721 -3.42228 0
M  V30 5014 H 475.524 4.872 -2.20318 0
M  V30 5015 H 475.867 4.1087 -0.670196 0
M  V30 5016 H 476.4 3.32812 -2.17902 0
M  V30 5017 H 473.139 4.17303 -5.05508 0
M  V30 5018 H 472.659 4.87574 -3.49331 0
M  V30 5019 H 474.338 5.03215 -4.06674 0
M  V30 5020 N 474.47 1.03057 1.19235 0
M  V30 5021 C 475.402 0.570932 2.21975 0
M  V30 5022 C 476.415 -0.354088 1.58903 0
M  V30 5023 O 477.604 -0.150211 1.77867 0
M  V30 5024 C 474.704 -0.187152 3.38383 0
M  V30 5025 C 473.877 0.743231 4.31039 0
M  V30 5026 C 472.936 0.0302493 5.26191 0
M  V30 5027 O 471.962 0.657371 5.65391 0
M  V30 5028 N 473.164 -1.23991 5.67104 0
M  V30 5029 H 475.929 1.45456 2.62036 0
M  V30 5030 H 473.49 0.909807 1.33918 0
M  V30 5031 H 475.482 -0.673715 3.99053 0
M  V30 5032 H 474.052 -0.972205 2.97098 0
M  V30 5033 H 473.272 1.40985 3.68126 0
M  V30 5034 H 474.56 1.3755 4.89854 0
M  V30 5035 H 473.958 -1.77011 5.37293 0
M  V30 5036 H 472.515 -1.67093 6.30018 0
M  V30 5037 N 475.948 -1.35272 0.808662 0
M  V30 5038 C 476.896 -2.31663 0.208606 0
M  V30 5039 C 477.89 -1.56731 -0.642778 0
M  V30 5040 O 479.096 -1.71843 -0.53571 0
M  V30 5041 H 475.471 -0.750421 0.0486993 0
M  V30 5042 H 477.442 -2.79814 1.03666 0
M  V30 5043 C 476.191 -3.42008 -0.626573 0
M  V30 5044 H 475.514 -3.99795 0.0192103 0
M  V30 5045 H 476.954 -4.11727 -1.01278 0
M  V30 5046 C 475.413 -2.85226 -1.79298 0
M  V30 5047 O 475.943 -2.78945 -2.89055 0
M  V30 5048 N 474.149 -2.42245 -1.60516 0
M  V30 5049 H 473.696 -2.47554 -0.712375 0
M  V30 5050 H 473.654 -2.04603 -2.38715 0
M  V30 5051 N 477.426 -0.562348 -1.47226 0
M  V30 5052 C 478.356 0.170627 -2.32876 0
M  V30 5053 C 479.337 0.903748 -1.44106 0
M  V30 5054 O 480.522 0.883206 -1.72954 0
M  V30 5055 C 477.652 1.19786 -3.25989 0
M  V30 5056 C 476.606 0.580875 -4.2404 0
M  V30 5057 C 475.932 1.71311 -5.06514 0
M  V30 5058 C 477.232 -0.468714 -5.20193 0
M  V30 5059 H 478.926 -0.544441 -2.94408 0
M  V30 5060 H 476.472 -0.263271 -1.41573 0
M  V30 5061 H 478.425 1.71884 -3.84752 0
M  V30 5062 H 477.149 1.94294 -2.62521 0
M  V30 5063 H 475.808 0.0811538 -3.6651 0
M  V30 5064 H 475.456 2.44736 -4.39447 0
M  V30 5065 H 475.156 1.30604 -5.72902 0
M  V30 5066 H 476.68 2.23725 -5.68137 0
M  V30 5067 H 478.094 -0.0336028 -5.7329 0
M  V30 5068 H 476.491 -0.794957 -5.94811 0
M  V30 5069 H 477.561 -1.36269 -4.65359 0
M  V30 5070 N 478.904 1.54736 -0.299062 0
M  V30 5071 C 479.836 2.20891 0.61153 0
M  V30 5072 C 480.849 1.20104 1.09904 0
M  V30 5073 O 482.038 1.46707 1.01683 0
M  V30 5074 C 479.138 2.84018 1.84897 0
M  V30 5075 C 478.311 4.10719 1.50428 0
M  V30 5076 C 477.37 4.57667 2.59667 0
M  V30 5077 O 476.396 5.2291 2.24842 0
M  V30 5078 N 477.598 4.29821 3.90172 0
M  V30 5079 H 480.363 2.99666 0.0452001 0
M  V30 5080 H 477.924 1.61446 -0.121178 0
M  V30 5081 H 479.916 3.1236 2.5732 0
M  V30 5082 H 478.486 2.09095 2.32375 0
M  V30 5083 H 477.706 3.89408 0.612781 0
M  V30 5084 H 478.994 4.93223 1.24934 0
M  V30 5085 H 478.392 3.77549 4.21276 0
M  V30 5086 H 476.949 4.62877 4.58899 0
M  V30 5087 N 480.382 0.0267497 1.57577 0
M  V30 5088 C 481.793 -0.512413 1.79531 0
M  V30 5089 C 482.144 -1.72391 0.936791 0
M  V30 5090 O 481.269 -2.15903 0.146543 0
M  V30 5091 C 481.864 -0.936378 3.25603 0
M  V30 5092 C 480.423 -1.42067 3.4856 0
M  V30 5093 C 479.57 -0.384278 2.74624 0
M  V30 5094 H 482.521 0.252797 1.56674 0
M  V30 5095 H 482.542 -1.80088 3.35184 0
M  V30 5096 H 482.054 -0.0544332 3.88062 0
M  V30 5097 H 480.155 -2.32262 2.9135 0
M  V30 5098 H 480.268 -1.42968 4.57271 0
M  V30 5099 H 478.632 -0.851855 2.40032 0
M  V30 5100 H 479.415 0.489159 3.39797 0
M  V30 5101 N 481.861 -1.55662 -0.24637 0
M  V30 5102 C 482.793 -1.86811 -1.32794 0
M  V30 5103 C 483.806 -0.754413 -1.44265 0
M  V30 5104 O 484.995 -1.03253 -1.45606 0
M  V30 5105 C 482.095 -2.0397 -2.70646 0
M  V30 5106 C 481.268 -3.34832 -2.81436 0
M  V30 5107 C 480.327 -3.41727 -4.00136 0
M  V30 5108 O 479.353 -4.14934 -3.89639 0
M  V30 5109 N 480.555 -2.71058 -5.1333 0
M  V30 5110 H 483.32 -2.80174 -1.06409 0
M  V30 5111 H 480.881 -1.55906 -0.43647 0
M  V30 5112 H 482.873 -2.05924 -3.48393 0
M  V30 5113 H 481.443 -1.1735 -2.89738 0
M  V30 5114 H 480.663 -3.4519 -1.90361 0
M  V30 5115 H 481.951 -4.21085 -2.85595 0
M  V30 5116 H 481.349 -2.11314 -5.2475 0
M  V30 5117 H 479.906 -2.78704 -5.89209 0
M  V30 5118 N 483.339 0.512053 -1.4905 0
M  V30 5119 C 484.569 1.28928 -1.61434 0
M  V30 5120 C 484.977 1.87107 -0.280647 0
M  V30 5121 O 484.32 1.68024 0.742537 0
M  V30 5122 C 484.382 2.466 -2.61588 0
M  V30 5123 C 484.046 2.09375 -4.06216 0
M  V30 5124 C 485.043 1.63994 -4.93358 0
M  V30 5125 C 482.728 2.19348 -4.51876 0
M  V30 5126 C 484.722 1.29076 -6.24194 0
M  V30 5127 C 482.409 1.84041 -5.82728 0
M  V30 5128 C 483.407 1.38978 -6.68711 0
M  V30 5129 O 483.095 1.04144 -7.97126 0
M  V30 5130 H 482.827 0.397668 -0.546659 0
M  V30 5131 H 485.381 0.622507 -1.9574 0
M  V30 5132 H 483.611 3.16318 -2.22441 0
M  V30 5133 H 485.3 3.08642 -2.63619 0
M  V30 5134 H 486.066 1.55744 -4.59313 0
M  V30 5135 H 481.945 2.53376 -3.85125 0
M  V30 5136 H 485.489 0.938303 -6.91261 0
M  V30 5137 H 481.386 1.91938 -6.16304 0
M  V30 5138 H 482.154 1.17387 -8.10039 0
M  V30 5139 N 484.817 1.37938 0.762283 0
M  V30 5140 C 485.749 1.30349 1.88525 0
M  V30 5141 C 486.762 0.217402 1.61342 0
M  V30 5142 O 487.951 0.474291 1.72084 0
M  V30 5143 C 485.051 0.994844 3.23969 0
M  V30 5144 C 484.224 2.18829 3.78725 0
M  V30 5145 C 483.283 1.84844 4.92665 0
M  V30 5146 O 482.309 2.57244 5.07754 0
M  V30 5147 N 483.511 0.798201 5.74986 0
M  V30 5148 H 486.276 2.27114 1.95549 0
M  V30 5149 H 483.837 1.31686 0.941825 0
M  V30 5150 H 485.829 0.748168 3.97724 0
M  V30 5151 H 484.399 0.115446 3.12387 0
M  V30 5152 H 483.619 2.59615 2.96637 0
M  V30 5153 H 484.907 2.98497 4.1204 0
M  V30 5154 H 484.305 0.197611 5.65355 0
M  V30 5155 H 482.862 0.611396 6.48926 0
M  V30 5156 N 486.295 -0.989507 1.22664 0
M  V30 5157 C 487.542 -1.72953 1.05325 0
M  V30 5158 C 487.87 -1.90104 -0.411168 0
M  V30 5159 O 487.125 -1.44386 -1.32103 0
M  V30 5160 C 487.424 -3.13649 1.71345 0
M  V30 5161 C 487.09 -3.16403 3.21248 0
M  V30 5162 C 485.752 -3.16862 3.62149 0
M  V30 5163 C 488.104 -3.12428 4.17179 0
M  V30 5164 C 485.432 -3.11051 4.97458 0
M  V30 5165 C 487.784 -3.08159 5.52468 0
M  V30 5166 C 486.448 -3.06935 5.92746 0
M  V30 5167 H 485.718 -0.632881 0.385412 0
M  V30 5168 H 488.365 -1.15863 1.52473 0
M  V30 5169 H 486.67 -3.74069 1.16532 0
M  V30 5170 H 488.367 -3.69658 1.55416 0
M  V30 5171 H 484.957 -3.16798 2.88682 0
M  V30 5172 H 489.141 -3.11221 3.86595 0
M  V30 5173 H 484.397 -3.0845 5.27891 0
M  V30 5174 H 488.571 -3.04039 6.26525 0
M  V30 5175 H 486.198 -3.02186 6.97558 0
M  V30 5176 N 487.773 -1.03688 -1.18687 0
M  V30 5177 C 489.189 -0.755413 -1.4059 0
M  V30 5178 C 489.389 0.656659 -1.905 0
M  V30 5179 O 488.445 1.42144 -2.08689 0
M  V30 5180 C 489.758 -1.7983 -2.41001 0
M  V30 5181 C 491.306 -1.81877 -2.54735 0
M  V30 5182 C 491.781 -2.85148 -3.58406 0
M  V30 5183 N 493.272 -2.84015 -3.6591 0
M  V30 5184 C 494.007 -3.60573 -4.45841 0
M  V30 5185 N 493.503 -4.46871 -5.29413 0
M  V30 5186 N 495.296 -3.49079 -4.40568 0
M  V30 5187 H 487.447 -1.94818 -0.846148 0
M  V30 5188 H 489.71 -0.842727 -0.434184 0
M  V30 5189 H 489.416 -2.81097 -2.1137 0
M  V30 5190 H 489.29 -1.62727 -3.40294 0
M  V30 5191 H 491.677 -0.812836 -2.83685 0
M  V30 5192 H 491.758 -2.03057 -1.55568 0
M  V30 5193 H 491.402 -3.85918 -3.30197 0
M  V30 5194 H 491.332 -2.61224 -4.57241 0
M  V30 5195 H 493.823 -2.21431 -3.0623 0
M  V30 5196 H 494.136 -5.02007 -5.87545 0
M  V30 5197 H 492.481 -4.5094 -5.28846 0
M  V30 5198 H 495.672 -2.81066 -3.74325 0
M  V30 5199 H 495.845 -4.08994 -5.02621 0
M  V30 5200 N 489.251 1.34841 -0.815825 0
M  V30 5201 C 490.528 1.92908 -0.323416 0
M  V30 5202 C 490.908 1.74479 1.18828 0
M  V30 5203 O 490.256 1.11928 1.99209 0
M  V30 5204 C 490.466 3.40957 -0.744952 0
M  V30 5205 C 491.814 4.18107 -0.739716 0
M  V30 5206 O 492.838 3.49511 -0.68708 0
M  V30 5207 O 491.697 5.40517 -0.806456 0
M  V30 5208 H 488.791 0.822436 -0.0867646 0
M  V30 5209 H 491.337 1.4386 -0.90014 0
M  V30 5210 H 490.109 3.4814 -1.78646 0
M  V30 5211 H 489.732 3.97341 -0.143535 0
M  V30 5212 N 490.729 0.570148 1.46925 0
M  V30 5213 C 491.959 0.0561151 2.06524 0
M  V30 5214 C 492.367 -1.24874 1.42137 0
M  V30 5215 O 491.71 -1.76292 0.516417 0
M  V30 5216 C 491.772 -0.197035 3.5896 0
M  V30 5217 C 491.436 1.02033 4.45464 0
M  V30 5218 C 492.433 1.92921 4.82781 0
M  V30 5219 C 490.118 1.23864 4.86788 0
M  V30 5220 C 492.112 3.03999 5.60235 0
M  V30 5221 C 489.799 2.35249 5.64004 0
M  V30 5222 C 490.797 3.25146 6.0064 0
M  V30 5223 O 490.485 4.34598 6.76299 0
M  V30 5224 H 490.217 0.0487409 0.674241 0
M  V30 5225 H 492.771 0.786915 1.89728 0
M  V30 5226 H 491.001 -0.982299 3.74016 0
M  V30 5227 H 492.69 -0.658032 4.00531 0
M  V30 5228 H 493.456 1.77265 4.51444 0
M  V30 5229 H 489.335 0.54805 4.57731 0
M  V30 5230 H 492.879 3.74192 5.8875 0
M  V30 5231 H 488.776 2.50873 5.94755 0
M  V30 5232 H 489.544 4.32808 6.94708 0
M  V30 5233 N 492.207 -1.54576 0.307264 0
M  V30 5234 C 493.454 -2.00263 -0.300167 0
M  V30 5235 C 493.782 -1.19561 -1.53413 0
M  V30 5236 O 493.037 -0.261487 -1.93945 0
M  V30 5237 C 493.336 -3.50572 -0.695253 0
M  V30 5238 C 493.002 -4.48771 0.437679 0
M  V30 5239 C 491.664 -4.7534 0.748681 0
M  V30 5240 C 494.016 -5.0721 1.19949 0
M  V30 5241 C 491.344 -5.5761 1.8245 0
M  V30 5242 C 493.696 -5.90651 2.26527 0
M  V30 5243 C 492.36 -6.15528 2.58227 0
M  V30 5244 H 491.63 -0.732814 -0.109839 0
M  V30 5245 H 494.277 -1.86664 0.427661 0
M  V30 5246 H 492.582 -3.61814 -1.50326 0
M  V30 5247 H 494.279 -3.83352 -1.17653 0
M  V30 5248 H 490.869 -4.282 0.185187 0
M  V30 5249 H 495.053 -4.86679 0.972474 0
M  V30 5250 H 490.309 -5.75121 2.07476 0
M  V30 5251 H 494.483 -6.34957 2.86011 0
M  V30 5252 H 492.11 -6.79066 3.4172 0
M  V30 5253 N 493.685 -0.035106 -1.57561 0
M  V30 5254 C 494.934 0.641604 -1.91223 0
M  V30 5255 C 495.247 1.72944 -0.913761 0
M  V30 5256 O 496.453 2.46321 -1.14185 0
M  V30 5257 C 494.909 1.19249 -3.3957 0
M  V30 5258 C 494.517 0.137616 -4.47789 0
M  V30 5259 C 496.261 1.84537 -3.82291 0
M  V30 5260 C 494.168 0.700478 -5.87237 0
M  V30 5261 H 493.098 0.243417 -0.713627 0
M  V30 5262 H 495.749 -0.101382 -1.8322 0
M  V30 5263 H 494.131 1.98728 -3.42525 0
M  V30 5264 H 495.305 -0.635153 -4.56402 0
M  V30 5265 H 493.62 -0.416855 -4.14308 0
M  V30 5266 H 496.217 2.27616 -4.83834 0
M  V30 5267 H 496.56 2.69054 -3.17672 0
M  V30 5268 H 497.093 1.11739 -3.81784 0
M  V30 5269 H 493.832 -0.106693 -6.55413 0
M  V30 5270 H 493.352 1.4416 -5.82218 0
M  V30 5271 H 495.031 1.18837 -6.35993 0
M  V30 5272 N 495.163 1.55791 0.238111 0
M  V30 5273 C 496.126 1.90239 1.27835 0
M  V30 5274 C 497.126 0.779552 1.4064 0
M  V30 5275 O 498.316 1.04747 1.3919 0
M  V30 5276 C 495.448 2.13859 2.65475 0
M  V30 5277 H 496.641 2.83262 0.985034 0
M  V30 5278 H 494.194 1.48818 0.477799 0
M  V30 5279 H 494.929 1.23334 2.99932 0
M  V30 5280 H 494.714 2.95643 2.57561 0
M  V30 5281 H 496.204 2.41664 3.40571 0
M  V30 5282 N 496.642 -0.504142 1.49319 0
M  V30 5283 C 497.87 -1.28256 1.62351 0
M  V30 5284 C 498.285 -1.86502 0.293682 0
M  V30 5285 O 497.642 -1.67678 -0.720449 0
M  V30 5286 C 497.693 -2.41507 2.68992 0
M  V30 5287 O 497.414 -1.85656 3.96817 0
M  V30 5288 C 498.915 -3.32929 2.927 0
M  V30 5289 H 496.135 -0.389115 0.546654 0
M  V30 5290 H 498.679 -0.605531 1.95329 0
M  V30 5291 H 496.834 -3.05046 2.38801 0
M  V30 5292 H 497.248 -2.59981 4.55533 0
M  V30 5293 H 498.722 -4.0868 3.71058 0
M  V30 5294 H 499.199 -3.89733 2.02496 0
M  V30 5295 H 499.805 -2.75158 3.24296 0
M  V30 5296 N 498.12 -1.38341 -0.754957 0
M  V30 5297 C 499.36 -1.35888 -1.52689 0
M  V30 5298 C 499.724 0.0513682 -1.91931 0
M  V30 5299 O 500.925 0.200761 -2.68049 0
M  V30 5300 C 499.196 -2.28666 -2.74676 0
M  V30 5301 S 500.755 -2.4422 -3.64558 0
M  V30 5302 H 497.573 -0.482165 -0.522531 0
M  V30 5303 H 500.175 -1.74253 -0.886358 0
M  V30 5304 H 498.879 -3.30023 -2.43953 0
M  V30 5305 H 498.41 -1.91445 -3.43675 0
M  V30 5306 H 500.425 -1.66525 -4.67423 0
M  V30 5307 N 499.598 0.982988 -1.23187 0
M  V30 5308 C 500.545 2.07491 -1.01075 0
M  V30 5309 C 501.515 1.65949 0.070905 0
M  V30 5310 O 502.7 1.90629 -0.0806822 0
M  V30 5311 C 499.84 3.39751 -0.605261 0
M  V30 5312 C 498.953 3.94578 -1.75876 0
M  V30 5313 C 498.088 5.15039 -1.3003 0
M  V30 5314 C 497.127 5.62027 -2.42472 0
M  V30 5315 N 496.264 6.73719 -1.97602 0
M  V30 5316 H 501.104 2.25739 -1.9454 0
M  V30 5317 H 498.641 1.10659 -0.969179 0
M  V30 5318 H 500.599 4.15719 -0.351279 0
M  V30 5319 H 499.229 3.21473 0.292382 0
M  V30 5320 H 498.281 3.1539 -2.12681 0
M  V30 5321 H 499.593 4.25422 -2.60418 0
M  V30 5322 H 498.747 5.9833 -1.00429 0
M  V30 5323 H 497.486 4.85843 -0.425216 0
M  V30 5324 H 496.491 4.77318 -2.7285 0
M  V30 5325 H 497.716 5.93244 -3.30512 0
M  V30 5326 H 495.662 6.46287 -1.1247 0
M  V30 5327 H 495.579 7.03934 -2.75705 0
M  V30 5328 H 496.847 7.6049 -1.71098 0
M  V30 5329 N 501.076 1.04316 1.18135 0
M  V30 5330 C 502.008 0.594444 2.21357 0
M  V30 5331 C 503.021 -0.337215 1.59269 0
M  V30 5332 O 504.21 -0.131337 1.78016 0
M  V30 5333 C 501.31 -0.151251 3.38562 0
M  V30 5334 C 500.483 0.788907 4.30227 0
M  V30 5335 C 499.542 0.0860572 5.2613 0
M  V30 5336 O 498.568 0.717302 5.64662 0
M  V30 5337 N 499.77 -1.17969 5.68387 0
M  V30 5338 H 502.535 1.48227 2.60478 0
M  V30 5339 H 500.096 0.92396 1.32946 0
M  V30 5340 H 502.088 -0.631352 3.99745 0
M  V30 5341 H 500.658 -0.940639 2.98112 0
M  V30 5342 H 499.878 1.44882 3.6661 0
M  V30 5343 H 501.166 1.42738 4.88368 0
M  V30 5344 H 500.564 -1.71302 5.3914 0
M  V30 5345 H 499.121 -1.60402 6.31755 0
M  V30 5346 N 502.554 -1.34406 0.822964 0
M  V30 5347 C 503.802 -1.97892 0.410245 0
M  V30 5348 C 504.123 -1.65567 -1.03017 0
M  V30 5349 O 503.393 -0.94642 -1.71522 0
M  V30 5350 H 501.973 -0.732049 0.148707 0
M  V30 5351 H 504.635 -1.64043 1.05242 0
M  V30 5352 H 503.731 -3.07579 0.529284 0
M  V30 5353 N 504.032 -0.577932 -1.46621 0
M  V30 5354 C 505.262 -0.0670668 -2.06491 0
M  V30 5355 C 505.67 1.24119 -1.42798 0
M  V30 5356 O 505.013 1.76016 -0.525759 0
M  V30 5357 C 505.075 0.177995 -3.59059 0
M  V30 5358 C 504.739 -1.04394 -4.44917 0
M  V30 5359 C 505.736 -1.95479 -4.81751 0
M  V30 5360 C 503.421 -1.26444 -4.86125 0
M  V30 5361 C 505.415 -3.06965 -5.58615 0
M  V30 5362 C 503.102 -2.38237 -5.62749 0
M  V30 5363 C 504.1 -3.28327 -5.98908 0
M  V30 5364 O 503.788 -4.38179 -6.73984 0
M  V30 5365 H 503.52 -0.0523159 -0.673973 0
M  V30 5366 H 506.074 -0.796966 -1.89308 0
M  V30 5367 H 504.304 0.962451 -3.74531 0
M  V30 5368 H 505.993 0.636782 -4.00874 0
M  V30 5369 H 506.759 -1.79657 -4.50498 0
M  V30 5370 H 502.638 -0.572316 -4.57434 0
M  V30 5371 H 506.182 -3.77309 -5.86757 0
M  V30 5372 H 502.079 -2.54023 -5.93416 0
M  V30 5373 H 502.847 -4.36486 -6.92403 0
M  V30 5374 N 505.51 1.54411 -0.315457 0
M  V30 5375 C 506.442 2.21527 0.588067 0
M  V30 5376 C 507.455 1.21263 1.08624 0
M  V30 5377 O 508.644 1.47777 1.00121 0
M  V30 5378 C 505.744 2.85963 1.81875 0
M  V30 5379 C 504.917 4.12291 1.46063 0
M  V30 5380 C 503.976 4.60396 2.54799 0
M  V30 5381 O 503.002 5.25265 2.19283 0
M  V30 5382 N 504.204 4.33935 3.85591 0
M  V30 5383 H 506.969 2.99697 0.013414 0
M  V30 5384 H 504.53 1.61308 -0.138295 0
M  V30 5385 H 506.522 3.15071 2.53993 0
M  V30 5386 H 505.092 2.11548 2.30144 0
M  V30 5387 H 504.312 3.90036 0.571445 0
M  V30 5388 H 505.6 4.9452 1.19695 0
M  V30 5389 H 504.998 3.81996 4.17248 0
M  V30 5390 H 503.555 4.67718 4.53964 0
M  V30 5391 N 506.988 0.0434614 1.5754 0
M  V30 5392 C 507.918 -0.931651 2.14109 0
M  V30 5393 C 508.899 -1.32971 1.06079 0
M  V30 5394 O 510.084 -1.40579 1.33982 0
M  V30 5395 C 507.214 -2.20914 2.67982 0
M  V30 5396 C 506.168 -1.95139 3.80926 0
M  V30 5397 C 505.494 -3.29276 4.21285 0
M  V30 5398 C 506.794 -1.27913 5.06395 0
M  V30 5399 H 508.488 -0.460497 2.95837 0
M  V30 5400 H 506.034 -0.220058 1.42309 0
M  V30 5401 H 507.987 -2.89522 3.06194 0
M  V30 5402 H 506.711 -2.70221 1.83434 0
M  V30 5403 H 505.37 -1.28945 3.43175 0
M  V30 5404 H 505.018 -3.76369 3.33699 0
M  V30 5405 H 504.718 -3.12831 4.97404 0
M  V30 5406 H 506.242 -3.99129 4.62091 0
M  V30 5407 H 507.656 -1.86544 5.42102 0
M  V30 5408 H 506.053 -1.2182 5.87605 0
M  V30 5409 H 507.123 -0.254066 4.84234 0
M  V30 5410 N 508.466 -1.55915 -0.229846 0
M  V30 5411 C 509.715 -1.77742 -0.953455 0
M  V30 5412 C 510.028 -0.610524 -1.85828 0
M  V30 5413 O 511.234 -0.712219 -2.61992 0
M  V30 5414 C 509.69 -3.14738 -1.74551 0
M  V30 5415 C 509.298 -4.39126 -0.887242 0
M  V30 5416 C 511.042 -3.45895 -2.46084 0
M  V30 5417 C 508.949 -5.67149 -1.67617 0
M  V30 5418 H 507.879 -0.662648 -0.359741 0
M  V30 5419 H 510.53 -1.82322 -0.207576 0
M  V30 5420 H 508.912 -3.04311 -2.53399 0
M  V30 5421 H 510.086 -4.60588 -0.139892 0
M  V30 5422 H 508.401 -4.15427 -0.284443 0
M  V30 5423 H 510.998 -4.38767 -3.05594 0
M  V30 5424 H 511.341 -2.68007 -3.18556 0
M  V30 5425 H 511.874 -3.57614 -1.74233 0
M  V30 5426 H 508.613 -6.47906 -0.994881 0
M  V30 5427 H 508.133 -5.49763 -2.39836 0
M  V30 5428 H 509.812 -6.07025 -2.23898 0
M  V30 5429 N 509.944 0.496216 -1.49584 0
M  V30 5430 C 510.854 1.62352 -1.69349 0
M  V30 5431 C 511.87 1.64184 -0.576147 0
M  V30 5432 O 513.046 1.82517 -0.85144 0
M  V30 5433 C 510.111 2.98698 -1.76013 0
M  V30 5434 C 509.172 3.07454 -2.99617 0
M  V30 5435 C 508.405 4.37296 -3.05953 0
M  V30 5436 O 508.628 5.2637 -2.19752 0
M  V30 5437 O 507.562 4.51124 -3.9846 0
M  V30 5438 H 511.388 1.48606 -2.64859 0
M  V30 5439 H 508.973 0.673022 -1.33382 0
M  V30 5440 H 510.855 3.79725 -1.82721 0
M  V30 5441 H 509.53 3.12696 -0.836828 0
M  V30 5442 H 508.437 2.25597 -2.98424 0
M  V30 5443 H 509.77 2.98385 -3.91443 0
M  V30 5444 N 511.423 1.38739 0.74761 0
M  V30 5445 C 512.671 1.35007 1.50391 0
M  V30 5446 C 512.992 -0.0574274 1.94915 0
M  V30 5447 O 512.262 -1.00628 1.6808 0
M  V30 5448 H 510.842 0.496784 0.557866 0
M  V30 5449 H 513.504 1.73479 0.888319 0
M  V30 5450 H 512.6 2.00474 2.392 0
M  V30 5451 N 512.901 -0.976442 1.23707 0
M  V30 5452 C 513.849 -2.09078 1.01927 0
M  V30 5453 C 514.843 -1.69345 -0.0430193 0
M  V30 5454 O 516.049 -1.79659 0.110814 0
M  V30 5455 H 512.424 -0.68398 0.312531 0
M  V30 5456 H 514.395 -2.24614 1.96447 0
M  V30 5457 C 513.144 -3.41919 0.631385 0
M  V30 5458 H 512.467 -3.72946 1.44053 0
M  V30 5459 H 513.907 -4.20817 0.518532 0
M  V30 5460 C 512.366 -3.30357 -0.660723 0
M  V30 5461 O 512.896 -3.63542 -1.70881 0
M  V30 5462 N 511.102 -2.83507 -0.638139 0
M  V30 5463 H 510.649 -2.567 0.215108 0
M  V30 5464 H 510.607 -2.76153 -1.50289 0
M  V30 5465 N 514.379 -1.04941 -1.1758 0
M  V30 5466 C 515.311 -0.606174 -2.21039 0
M  V30 5467 C 516.324 0.328763 -1.59446 0
M  V30 5468 O 517.513 0.121895 -1.78083 0
M  V30 5469 C 514.613 0.133294 -3.38638 0
M  V30 5470 C 513.786 -0.811711 -4.29802 0
M  V30 5471 C 512.845 -0.113958 -5.26077 0
M  V30 5472 O 511.871 -0.747237 -5.64274 0
M  V30 5473 N 513.073 1.14953 -5.69004 0
M  V30 5474 H 515.838 -1.49606 -2.59689 0
M  V30 5475 H 513.399 -0.930997 -1.32454 0
M  V30 5476 H 515.391 0.610144 -4.00074 0
M  V30 5477 H 513.961 0.924816 -2.98607 0
M  V30 5478 H 513.181 -1.46824 -3.65837 0
M  V30 5479 H 514.469 -1.45326 -4.87604 0
M  V30 5480 H 513.867 1.68441 -5.40041 0
M  V30 5481 H 512.424 1.57049 -6.32597 0
M  V30 5482 N 515.857 1.33968 -0.830081 0
M  V30 5483 C 517.103 1.98357 -0.422191 0
M  V30 5484 C 517.436 1.65633 1.01387 0
M  V30 5485 O 516.711 0.931648 1.70735 0
M  V30 5486 C 516.994 3.54492 -0.633043 0
M  V30 5487 C 516.847 3.96934 -2.11574 0
M  V30 5488 C 518.166 4.40039 -0.0735584 0
M  V30 5489 H 515.285 0.720544 -0.154871 0
M  V30 5490 H 517.927 1.58749 -1.04397 0
M  V30 5491 H 516.077 3.88361 -0.103775 0
M  V30 5492 H 517.749 3.73363 -2.7092 0
M  V30 5493 H 515.992 3.46984 -2.60354 0
M  V30 5494 H 516.663 5.05651 -2.21406 0
M  V30 5495 H 519.139 4.12764 -0.52585 0
M  V30 5496 H 518.015 5.48327 -0.250841 0
M  V30 5497 H 518.276 4.30124 1.02202 0
M  V30 5498 N 517.335 0.585699 1.46312 0
M  V30 5499 C 518.265 -0.133556 2.33118 0
M  V30 5500 C 519.246 -0.880707 1.45525 0
M  V30 5501 O 520.431 -0.855579 1.74337 0
M  V30 5502 C 517.561 -1.14585 3.27853 0
M  V30 5503 C 516.515 -0.513341 4.2491 0
M  V30 5504 C 515.841 -1.63231 5.09175 0
M  V30 5505 C 517.141 0.551413 5.19381 0
M  V30 5506 H 518.835 0.59121 2.93505 0
M  V30 5507 H 516.381 0.285761 1.41136 0
M  V30 5508 H 518.334 -1.65741 3.87438 0
M  V30 5509 H 517.058 -1.90093 2.65579 0
M  V30 5510 H 515.717 -0.0228349 3.66593 0
M  V30 5511 H 515.365 -2.37713 4.43285 0
M  V30 5512 H 515.065 -1.21473 5.74907 0
M  V30 5513 H 516.589 -2.14658 5.71624 0
M  V30 5514 H 518.003 0.124804 5.73164 0
M  V30 5515 H 516.4 0.889486 5.93471 0
M  V30 5516 H 517.47 1.43655 4.63132 0
M  V30 5517 N 518.813 -1.54241 0.323641 0
M  V30 5518 C 519.763 -2.21071 -0.557833 0
M  V30 5519 C 520.747 -1.19126 -1.08157 0
M  V30 5520 O 521.939 -1.44755 -1.01857 0
M  V30 5521 C 519.068 -2.97208 -1.71821 0
M  V30 5522 C 518.154 -4.06491 -1.20936 0
M  V30 5523 N 518.545 -5.04052 -0.420202 0
M  V30 5524 C 516.843 -4.20443 -1.48808 0
M  V30 5525 C 517.544 -5.81516 -0.146413 0
M  V30 5526 N 516.52 -5.38641 -0.732562 0
M  V30 5527 H 520.322 -2.93853 0.0523921 0
M  V30 5528 H 517.836 -1.61883 0.129502 0
M  V30 5529 H 519.833 -3.4357 -2.36146 0
M  V30 5530 H 518.493 -2.25947 -2.33191 0
M  V30 5531 H 519.504 -5.17862 -0.0630401 0
M  V30 5532 H 516.181 -3.60396 -2.10762 0
M  V30 5533 H 517.571 -6.70119 0.488895 0
M  V30 5534 N 520.291 -0.0518155 -1.57515 0
M  V30 5535 C 521.516 0.634896 -1.97443 0
M  V30 5536 C 521.941 1.63546 -0.929207 0
M  V30 5537 O 521.299 1.80981 0.107484 0
M  V30 5538 C 521.347 1.29765 -3.36442 0
M  V30 5539 O 520.451 2.41333 -3.34413 0
M  V30 5540 H 519.792 0.164994 -0.643174 0
M  V30 5541 H 522.322 -0.120407 -2.04245 0
M  V30 5542 H 522.332 1.64918 -3.73184 0
M  V30 5543 H 521.007 0.564361 -4.12053 0
M  V30 5544 H 519.584 2.08122 -3.09418 0
M  V30 5545 N 521.769 1.56035 0.221574 0
M  V30 5546 C 523.016 1.79047 0.94597 0
M  V30 5547 C 523.344 0.62057 1.84334 0
M  V30 5548 O 522.599 -0.395053 1.91671 0
M  V30 5549 C 522.898 3.07813 1.8162 0
M  V30 5550 C 522.564 4.3797 1.07206 0
M  V30 5551 C 521.226 4.73334 0.866508 0
M  V30 5552 C 523.578 5.18326 0.546565 0
M  V30 5553 C 520.906 5.8657 0.123549 0
M  V30 5554 C 523.258 6.32335 -0.18305 0
M  V30 5555 C 521.922 6.66301 -0.399861 0
M  V30 5556 H 521.192 0.655178 0.346155 0
M  V30 5557 H 523.839 1.90299 0.214146 0
M  V30 5558 H 522.144 2.91682 2.61589 0
M  V30 5559 H 523.841 3.2282 2.37884 0
M  V30 5560 H 520.431 4.10202 1.24226 0
M  V30 5561 H 524.615 4.9144 0.692847 0
M  V30 5562 H 519.871 6.11376 -0.0546591 0
M  V30 5563 H 524.045 6.9383 -0.59775 0
M  V30 5564 H 521.672 7.53889 -0.977489 0
M  V30 5565 N 523.247 -0.488276 1.49845 0
M  V30 5566 C 524.475 -1.26527 1.63702 0
M  V30 5567 C 524.89 -1.8618 0.313447 0
M  V30 5568 O 524.247 -1.68432 -0.702624 0
M  V30 5569 C 524.298 -2.3864 2.71538 0
M  V30 5570 O 524.019 -1.81437 3.98763 0
M  V30 5571 C 525.52 -3.29805 2.96215 0
M  V30 5572 H 522.74 -0.383295 0.55075 0
M  V30 5573 H 525.284 -0.584779 1.95961 0
M  V30 5574 H 523.439 -3.02496 2.42023 0
M  V30 5575 H 523.853 -2.55135 4.58265 0
M  V30 5576 H 525.327 -4.04722 3.75372 0
M  V30 5577 H 525.804 -3.87563 2.06619 0
M  V30 5578 H 526.41 -2.71703 3.27196 0
M  V30 5579 N 524.725 -1.39134 -0.740242 0
M  V30 5580 C 525.688 -1.37217 -1.83587 0
M  V30 5581 C 526.688 -0.270221 -1.58513 0
M  V30 5582 O 527.878 -0.527843 -1.6601 0
M  V30 5583 C 525.01 -1.13959 -3.21288 0
M  V30 5584 H 526.203 -2.34705 -1.86691 0
M  V30 5585 H 523.756 -1.24622 -0.94335 0
M  V30 5586 H 524.491 -0.17131 -3.23847 0
M  V30 5587 H 524.276 -1.93754 -3.40884 0
M  V30 5588 H 525.766 -1.15346 -4.01354 0
M  V30 5589 N 526.204 0.969867 -1.24223 0
M  V30 5590 C 527.45 1.7151 -1.08223 0
M  V30 5591 C 527.783 1.90478 0.37838 0
M  V30 5592 O 527.058 1.4647 1.27971 0
M  V30 5593 C 527.341 3.10714 -1.82013 0
M  V30 5594 C 527.194 2.9925 -3.35811 0
M  V30 5595 C 528.513 4.10332 -1.59108 0
M  V30 5596 H 525.632 0.622499 -0.394543 0
M  V30 5597 H 528.274 1.1284 -1.52863 0
M  V30 5598 H 526.424 3.608 -1.44068 0
M  V30 5599 H 528.096 2.56608 -3.83341 0
M  V30 5600 H 526.339 2.35512 -3.64303 0
M  V30 5601 H 527.01 3.97857 -3.82641 0
M  V30 5602 H 529.486 3.69097 -1.92111 0
M  V30 5603 H 528.362 5.05804 -2.13198 0
M  V30 5604 H 528.623 4.38926 -0.528832 0
M  V30 5605 N 527.682 1.05563 1.17022 0
M  V30 5606 C 528.922 0.777033 1.89054 0
M  V30 5607 C 529.286 -0.683617 1.79418 0
M  V30 5608 O 530.487 -1.07648 2.46303 0
M  V30 5609 C 528.758 1.24886 3.34871 0
M  V30 5610 S 530.317 1.0982 4.24835 0
M  V30 5611 H 527.135 0.282082 0.652649 0
M  V30 5612 H 529.737 1.35103 1.41306 0
M  V30 5613 H 528.441 2.30699 3.3942 0
M  V30 5614 H 527.972 0.669292 3.87665 0
M  V30 5615 H 529.987 0.02462 4.96194 0
M  V30 5616 N 529.16 -1.33526 0.837174 0
M  V30 5617 C 530.092 -2.28077 0.226579 0
M  V30 5618 C 531.105 -1.51666 -0.591717 0
M  V30 5619 O 532.294 -1.73511 -0.419064 0
M  V30 5620 C 529.394 -3.31597 -0.69978 0
M  V30 5621 C 528.567 -4.37329 0.0788067 0
M  V30 5622 C 527.626 -5.20526 -0.770637 0
M  V30 5623 O 526.652 -5.68811 -0.210453 0
M  V30 5624 N 527.854 -5.41639 -2.08825 0
M  V30 5625 H 530.619 -2.81115 1.03897 0
M  V30 5626 H 528.18 -1.46201 0.695476 0
M  V30 5627 H 530.172 -3.84158 -1.27298 0
M  V30 5628 H 528.742 -2.78848 -1.41288 0
M  V30 5629 H 527.962 -3.8529 0.833381 0
M  V30 5630 H 529.25 -5.05079 0.614238 0
M  V30 5631 H 528.648 -5.04108 -2.56693 0
M  V30 5632 H 527.205 -5.97263 -2.60998 0
M  V30 5633 N 530.638 -0.59345 -1.46 0
M  V30 5634 C 531.915 -0.0157933 -1.95594 0
M  V30 5635 C 532.295 1.44807 -1.53604 0
M  V30 5636 O 531.643 2.14342 -0.791824 0
M  V30 5637 C 531.853 -0.199081 -3.48432 0
M  V30 5638 C 533.201 -0.0724943 -4.24538 0
M  V30 5639 O 534.225 -0.128469 -3.55968 0
M  V30 5640 O 533.084 0.0542426 -5.46473 0
M  V30 5641 H 530.178 0.043749 -0.825842 0
M  V30 5642 H 532.724 -0.662522 -1.56233 0
M  V30 5643 H 531.496 -1.21631 -3.71916 0
M  V30 5644 H 531.119 0.483576 -3.94648 0
M  V30 5645 N 532.116 1.54067 -0.331816 0
M  V30 5646 C 533.393 1.92915 0.322955 0
M  V30 5647 C 533.773 1.26225 1.69205 0
M  V30 5648 O 533.121 0.408919 2.24811 0
M  V30 5649 C 533.331 3.46619 0.406946 0
M  V30 5650 C 534.679 4.19386 0.663339 0
M  V30 5651 O 535.703 3.5282 0.489536 0
M  V30 5652 O 534.562 5.37288 0.999193 0
M  V30 5653 H 531.656 0.805808 0.186016 0
M  V30 5654 H 534.202 1.65342 -0.382135 0
M  V30 5655 H 532.974 3.87354 -0.554287 0
M  V30 5656 H 532.597 3.80324 1.15929 0
M  V30 5657 N 533.594 0.0601682 1.57485 0
M  V30 5658 C 534.842 -0.610386 1.92662 0
M  V30 5659 C 535.163 -1.70849 0.939981 0
M  V30 5660 O 534.433 -1.95895 -0.0137455 0
M  V30 5661 H 533.013 -0.228457 0.711208 0
M  V30 5662 H 535.675 0.115288 1.94559 0
M  V30 5663 H 534.771 -1.0432 2.94149 0
M  V30 5664 N 535.072 -1.5615 -0.213296 0
M  V30 5665 C 536.3 -1.83638 -0.953139 0
M  V30 5666 C 536.715 -0.640362 -1.77609 0
M  V30 5667 O 536.072 0.391071 -1.78261 0
M  V30 5668 C 536.123 -3.09735 -1.86405 0
M  V30 5669 O 535.844 -4.24723 -1.07435 0
M  V30 5670 C 537.345 -3.5027 -2.71709 0
M  V30 5671 H 534.565 -0.610263 -0.278962 0
M  V30 5672 H 537.109 -2.03247 -0.226035 0
M  V30 5673 H 535.264 -2.92077 -2.545 0
M  V30 5674 H 535.678 -4.9641 -1.69343 0
M  V30 5675 H 537.152 -4.41515 -3.31313 0
M  V30 5676 H 537.629 -2.72406 -3.44516 0
M  V30 5677 H 538.235 -3.70396 -2.09015 0
M  V30 5678 N 536.55 0.480323 -1.50102 0
M  V30 5679 C 537.796 1.23208 -1.61837 0
M  V30 5680 C 538.151 1.89878 -0.310509 0
M  V30 5681 O 537.444 1.7871 0.690897 0
M  V30 5682 C 537.638 2.30708 -2.72963 0
M  V30 5683 C 537.467 1.74583 -4.14428 0
M  V30 5684 C 536.237 1.54964 -4.80951 0
M  V30 5685 C 538.435 1.24597 -4.98979 0
M  V30 5686 N 536.417 0.939855 -6.06663 0
M  V30 5687 C 537.788 0.758834 -6.15339 0
M  V30 5688 C 539.843 1.13365 -4.84822 0
M  V30 5689 C 538.546 0.17046 -7.19098 0
M  V30 5690 C 540.572 0.559221 -5.8875 0
M  V30 5691 C 539.934 0.082415 -7.04352 0
M  V30 5692 H 536.033 0.440065 -0.646426 0
M  V30 5693 H 538.617 0.535632 -1.87187 0
M  V30 5694 H 536.788 2.9779 -2.4935 0
M  V30 5695 H 538.52 2.97738 -2.74106 0
M  V30 5696 H 535.275 1.79926 -4.38091 0
M  V30 5697 H 535.699 0.653641 -6.73837 0
M  V30 5698 H 540.341 1.48823 -3.95742 0
M  V30 5699 H 538.059 -0.196347 -8.07861 0
M  V30 5700 H 541.645 0.474804 -5.79859 0
M  V30 5701 H 540.525 -0.355119 -7.83396 0
M  V30 5702 N 538.028 1.39524 0.732853 0
M  V30 5703 C 538.978 1.34905 1.83806 0
M  V30 5704 C 539.962 0.229546 1.59254 0
M  V30 5705 O 541.154 0.467255 1.70721 0
M  V30 5706 C 538.283 1.19699 3.21756 0
M  V30 5707 C 537.369 2.36359 3.5213 0
M  V30 5708 N 537.76 3.61834 3.53426 0
M  V30 5709 C 536.058 2.29363 3.82503 0
M  V30 5710 C 536.759 4.38992 3.81655 0
M  V30 5711 N 535.735 3.68606 3.99538 0
M  V30 5712 H 539.537 2.29882 1.83116 0
M  V30 5713 H 537.051 1.33051 0.931194 0
M  V30 5714 H 539.048 1.14472 4.00876 0
M  V30 5715 H 537.708 0.256739 3.23683 0
M  V30 5716 H 538.719 3.95228 3.34686 0
M  V30 5717 H 535.396 1.43612 3.92023 0
M  V30 5718 H 536.786 5.47763 3.89108 0
M  V30 5719 N 539.506 -0.963266 1.24736 0
M  V30 5720 C 540.922 -1.23273 1.01371 0
M  V30 5721 C 541.122 -1.99618 -0.274776 0
M  V30 5722 O 540.178 -2.32293 -0.989769 0
M  V30 5723 C 541.491 -2.01554 2.23152 0
M  V30 5724 C 543.039 -2.14629 2.27823 0
M  V30 5725 C 543.514 -2.96307 3.49237 0
M  V30 5726 N 545.005 -3.03887 3.49581 0
M  V30 5727 C 545.74 -3.67456 4.40186 0
M  V30 5728 N 545.236 -4.32706 5.41052 0
M  V30 5729 N 547.029 -3.64511 4.27888 0
M  V30 5730 H 539.18 -0.452294 2.07528 0
M  V30 5731 H 541.443 -0.262521 0.910926 0
M  V30 5732 H 541.149 -1.52847 3.1675 0
M  V30 5733 H 541.023 -3.02278 2.25628 0
M  V30 5734 H 543.41 -2.62537 1.34753 0
M  V30 5735 H 543.491 -1.13238 2.2937 0
M  V30 5736 H 543.135 -2.49091 4.42624 0
M  V30 5737 H 543.065 -3.97905 3.44933 0
M  V30 5738 H 545.556 -2.57477 2.76611 0
M  V30 5739 H 545.869 -4.79042 6.06415 0
M  V30 5740 H 544.214 -4.31361 5.44934 0
M  V30 5741 H 547.405 -3.12715 3.4832 0
M  V30 5742 H 547.578 -4.13768 4.98698 0
M  V30 5743 N 540.985 -1.06182 -1.16461 0
M  V30 5744 C 541.948 -0.675723 -2.19013 0
M  V30 5745 C 542.948 0.277963 -1.58379 0
M  V30 5746 O 544.138 0.0604962 -1.74095 0
M  V30 5747 C 541.27 0.00591459 -3.40899 0
M  V30 5748 H 542.463 -1.58353 -2.54685 0
M  V30 5749 H 540.016 -0.856908 -1.30716 0
M  V30 5750 H 540.751 0.92652 -3.10783 0
M  V30 5751 H 540.536 -0.67984 -3.86161 0
M  V30 5752 H 542.026 0.26181 -4.16778 0
M  V30 5753 N 542.463 1.3308 -0.844243 0
M  V30 5754 C 543.396 2.27075 -0.226279 0
M  V30 5755 C 544.374 1.49911 0.629716 0
M  V30 5756 O 545.558 1.79068 0.588803 0
M  V30 5757 C 542.685 3.31767 0.681782 0
M  V30 5758 C 541.731 4.26384 -0.0994565 0
M  V30 5759 S 542.564 5.15186 -1.46094 0
M  V30 5760 C 543.72 6.23405 -0.558319 0
M  V30 5761 H 543.953 2.79141 -1.02312 0
M  V30 5762 H 541.486 1.40452 -0.641292 0
M  V30 5763 H 543.444 3.92566 1.20008 0
M  V30 5764 H 542.105 2.78507 1.45234 0
M  V30 5765 H 541.298 5.00514 0.591733 0
M  V30 5766 H 540.9 3.69949 -0.548991 0
M  V30 5767 H 543.192 6.77069 0.241672 0
M  V30 5768 H 544.135 6.96619 -1.26995 0
M  V30 5769 H 544.543 5.64333 -0.13728 0
M  V30 5770 N 543.941 0.601185 1.45683 0
M  V30 5771 C 545.352 0.179659 1.85834 0
M  V30 5772 C 545.703 -1.26189 1.50236 0
M  V30 5773 O 544.828 -1.95587 0.925987 0
M  V30 5774 C 545.423 0.319277 3.37292 0
M  V30 5775 C 543.982 -0.0475092 3.7637 0
M  V30 5776 C 543.129 0.646692 2.69654 0
M  V30 5777 H 546.08 0.808268 1.36575 0
M  V30 5778 H 546.101 -0.4503 3.77826 0
M  V30 5779 H 545.613 1.36855 3.6317 0
M  V30 5780 H 543.714 -1.0962 3.5611 0
M  V30 5781 H 543.827 0.34168 4.7788 0
M  V30 5782 H 542.191 0.0849971 2.54558 0
M  V30 5783 H 542.974 1.69797 2.98369 0
M  V30 5784 N 545.419 -1.53889 0.339982 0
M  V30 5785 C 546.835 -1.59595 -0.0120752 0
M  V30 5786 C 547.035 -1.35605 -1.49042 0
M  V30 5787 O 546.091 -1.14856 -2.24865 0
M  V30 5788 C 547.404 -2.9774 0.420898 0
M  V30 5789 C 548.952 -3.1077 0.37294 0
M  V30 5790 C 549.427 -4.51286 0.781327 0
M  V30 5791 N 550.918 -4.57325 0.735374 0
M  V30 5792 C 551.653 -5.64194 1.02336 0
M  V30 5793 N 551.149 -6.7893 1.37933 0
M  V30 5794 N 552.942 -5.54051 0.947838 0
M  V30 5795 H 545.093 -1.67738 1.30299 0
M  V30 5796 H 547.356 -0.785385 0.530918 0
M  V30 5797 H 547.062 -3.20349 1.45152 0
M  V30 5798 H 546.936 -3.76639 -0.205721 0
M  V30 5799 H 549.323 -2.87886 -0.648505 0
M  V30 5800 H 549.404 -2.33939 1.03472 0
M  V30 5801 H 549.048 -4.74905 1.80077 0
M  V30 5802 H 548.978 -5.26511 0.0970679 0
M  V30 5803 H 551.469 -3.74931 0.472773 0
M  V30 5804 H 551.782 -7.56392 1.58402 0
M  V30 5805 H 550.127 -6.80386 1.41774 0
M  V30 5806 H 553.318 -4.63293 0.669115 0
M  V30 5807 H 553.491 -6.37246 1.17563 0
M  V30 5808 N 546.897 -0.0685191 -1.57451 0
M  V30 5809 C 548.137 0.605038 -1.9524 0
M  V30 5810 C 548.501 1.66974 -0.947816 0
M  V30 5811 O 549.702 2.39862 -1.21325 0
M  V30 5812 C 547.973 1.16999 -3.37707 0
M  V30 5813 S 549.532 1.85913 -3.97469 0
M  V30 5814 H 546.35 0.198203 -0.682815 0
M  V30 5815 H 548.952 -0.141594 -1.94987 0
M  V30 5816 H 547.656 0.383205 -4.08607 0
M  V30 5817 H 547.187 1.95305 -3.41496 0
M  V30 5818 H 549.202 3.14128 -3.84107 0
M  V30 5819 N 548.375 1.56261 0.205012 0
M  V30 5820 C 549.322 1.93754 1.25411 0
M  V30 5821 C 550.292 0.796826 1.45739 0
M  V30 5822 O 551.477 1.05414 1.59036 0
M  V30 5823 C 548.617 2.27383 2.59598 0
M  V30 5824 C 547.73 3.5447 2.46931 0
M  V30 5825 C 546.865 3.77468 3.73753 0
M  V30 5826 C 545.904 4.98014 3.55877 0
M  V30 5827 N 545.041 5.17316 4.74688 0
M  V30 5828 H 549.881 2.83203 0.92737 0
M  V30 5829 H 547.418 1.40158 0.446574 0
M  V30 5830 H 549.376 2.44895 3.37761 0
M  V30 5831 H 548.006 1.41088 2.90335 0
M  V30 5832 H 547.058 3.45061 1.60116 0
M  V30 5833 H 548.37 4.42789 2.29651 0
M  V30 5834 H 547.524 3.95165 4.60358 0
M  V30 5835 H 546.263 2.87461 3.93976 0
M  V30 5836 H 545.268 4.80249 2.67657 0
M  V30 5837 H 546.493 5.8952 3.37109 0
M  V30 5838 H 544.439 4.30255 4.95194 0
M  V30 5839 H 544.356 5.99796 4.60197 0
M  V30 5840 H 545.624 5.39463 5.62672 0
M  V30 5841 N 549.853 -0.472356 1.50355 0
M  V30 5842 C 551.102 -1.2213 1.60522 0
M  V30 5843 C 551.415 -1.9312 0.310466 0
M  V30 5844 O 552.621 -2.69936 0.291029 0
M  V30 5845 C 551.077 -2.21909 2.83345 0
M  V30 5846 C 550.685 -1.56727 4.19691 0
M  V30 5847 C 552.429 -2.97453 3.02856 0
M  V30 5848 C 550.336 -2.54785 5.33703 0
M  V30 5849 H 549.266 -0.459543 0.597776 0
M  V30 5850 H 551.917 -0.491922 1.76783 0
M  V30 5851 H 550.299 -2.98133 2.60639 0
M  V30 5852 H 551.473 -0.863007 4.52646 0
M  V30 5853 H 549.788 -0.934685 4.05774 0
M  V30 5854 H 552.385 -3.70838 3.85205 0
M  V30 5855 H 552.728 -3.56764 2.14534 0
M  V30 5856 H 553.261 -2.28342 3.25737 0
M  V30 5857 H 550 -2.00214 6.24175 0
M  V30 5858 H 549.52 -3.23367 5.05167 0
M  V30 5859 H 551.199 -3.16639 5.64224 0
M  V30 5860 N 551.331 -1.39911 -0.725443 0
M  V30 5861 C 552.278 -1.39393 -1.83952 0
M  V30 5862 C 553.248 -0.252249 -1.64173 0
M  V30 5863 O 554.433 -0.44882 -1.85446 0
M  V30 5864 C 551.573 -1.25262 -3.21564 0
M  V30 5865 C 550.686 -2.49054 -3.52982 0
M  V30 5866 C 549.821 -2.27439 -4.80047 0
M  V30 5867 C 548.86 -3.46857 -5.04338 0
M  V30 5868 N 547.997 -3.24499 -6.22611 0
M  V30 5869 H 552.837 -2.34622 -1.83729 0
M  V30 5870 H 550.374 -1.16537 -0.897636 0
M  V30 5871 H 552.332 -1.15077 -4.01015 0
M  V30 5872 H 550.962 -0.33657 -3.21041 0
M  V30 5873 H 550.014 -2.69805 -2.6816 0
M  V30 5874 H 551.326 -3.37973 -3.66846 0
M  V30 5875 H 550.48 -2.14551 -5.67497 0
M  V30 5876 H 549.219 -1.35929 -4.68374 0
M  V30 5877 H 548.224 -3.60232 -4.15346 0
M  V30 5878 H 549.449 -4.3928 -5.17889 0
M  V30 5879 H 547.395 -2.35663 -6.12208 0
M  V30 5880 H 547.312 -4.06978 -6.37106 0
M  V30 5881 H 548.58 -3.15325 -7.12875 0
M  V30 5882 N 552.809 0.956637 -1.25245 0
M  V30 5883 C 554.086 1.67716 -1.00651 0
M  V30 5884 C 554.466 2.0585 0.467866 0
M  V30 5885 O 553.814 1.77029 1.44475 0
M  V30 5886 C 554.024 2.90093 -1.94028 0
M  V30 5887 C 555.372 3.6209 -2.21756 0
M  V30 5888 O 556.396 3.00171 -1.9177 0
M  V30 5889 O 555.255 4.7358 -2.72735 0
M  V30 5890 H 552.349 0.733731 -0.381533 0
M  V30 5891 H 554.895 1.00974 -1.3639 0
M  V30 5892 H 553.667 2.58689 -2.93591 0
M  V30 5893 H 553.29 3.64566 -1.58674 0
M  V30 5894 N 554.287 1.06798 1.15896 0
M  V30 5895 C 555.527 0.797041 1.8822 0
M  V30 5896 C 555.891 -0.664549 1.80133 0
M  V30 5897 O 557.092 -1.0503 2.47431 0
M  V30 5898 C 555.363 1.28431 3.33527 0
M  V30 5899 S 556.922 1.14319 4.23647 0
M  V30 5900 H 553.74 0.288988 0.649621 0
M  V30 5901 H 556.342 1.36594 1.39865 0
M  V30 5902 H 555.046 2.34286 3.36954 0
M  V30 5903 H 554.577 0.710371 3.86933 0
M  V30 5904 H 556.592 0.0772467 4.9614 0
M  V30 5905 N 555.766 -1.3263 0.851289 0
M  V30 5906 C 557.014 -1.96978 0.452128 0
M  V30 5907 C 557.335 -1.67715 -0.99482 0
M  V30 5908 O 556.605 -0.98259 -1.69476 0
M  V30 5909 H 555.185 -0.72873 0.164202 0
M  V30 5910 H 557.847 -1.61774 1.08698 0
M  V30 5911 H 556.943 -3.06387 0.594407 0
M  V30 5912 N 557.244 -0.608902 -1.45362 0
M  V30 5913 C 558.176 0.147318 -2.28726 0
M  V30 5914 C 559.189 0.830468 -1.40025 0
M  V30 5915 O 560.378 0.695636 -1.64387 0
M  V30 5916 C 557.478 1.22968 -3.15804 0
M  V30 5917 C 556.651 0.633391 -4.3279 0
M  V30 5918 C 555.71 1.60682 -5.01067 0
M  V30 5919 O 554.736 1.13261 -5.57818 0
M  V30 5920 N 555.938 2.94123 -5.00472 0
M  V30 5921 H 558.703 -0.568014 -2.94268 0
M  V30 5922 H 556.264 -0.448479 -1.55564 0
M  V30 5923 H 558.256 1.88072 -3.58345 0
M  V30 5924 H 556.826 1.84752 -2.52162 0
M  V30 5925 H 556.046 -0.195762 -3.93714 0
M  V30 5926 H 557.334 0.215255 -5.08344 0
M  V30 5927 H 556.732 3.3525 -4.55657 0
M  V30 5928 H 555.289 3.54646 -5.46872 0
M  V30 5929 N 558.722 1.53707 -0.348139 0
M  V30 5930 C 560.133 1.86213 0.134797 0
M  V30 5931 C 560.484 1.26925 1.49614 0
M  V30 5932 O 559.609 0.584573 2.08355 0
M  V30 5933 C 560.204 3.37866 0.251371 0
M  V30 5934 C 558.763 3.70233 0.678543 0
M  V30 5935 C 557.91 2.76683 -0.184925 0
M  V30 5936 H 560.861 1.48204 -0.567571 0
M  V30 5937 H 560.882 3.64908 1.07806 0
M  V30 5938 H 560.394 3.80988 -0.739581 0
M  V30 5939 H 558.495 3.32659 1.67835 0
M  V30 5940 H 558.608 4.76836 0.465251 0
M  V30 5941 H 556.972 2.52374 0.343465 0
M  V30 5942 H 557.755 3.22635 -1.1731 0
M  V30 5943 N 560.2 0.0768682 1.57412 0
M  V30 5944 C 561.616 -0.279772 1.57129 0
M  V30 5945 C 561.816 -1.69688 1.08666 0
M  V30 5946 O 560.872 -2.40953 0.754843 0
M  V30 5947 C 562.185 -0.0848055 3.0058 0
M  V30 5948 C 563.733 -0.153954 3.12621 0
M  V30 5949 C 564.208 0.0127946 4.57998 0
M  V30 5950 N 565.699 -0.0426435 4.6318 0
M  V30 5951 C 566.434 0.0618892 5.73367 0
M  V30 5952 N 565.93 0.220229 6.9245 0
M  V30 5953 N 567.723 0.00446072 5.621 0
M  V30 5954 H 559.874 1.00297 1.87228 0
M  V30 5955 H 562.137 0.391565 0.863354 0
M  V30 5956 H 561.843 0.89325 3.40168 0
M  V30 5957 H 561.717 -0.834961 3.67843 0
M  V30 5958 H 564.104 -1.1225 2.72917 0
M  V30 5959 H 564.185 0.627389 2.47987 0
M  V30 5960 H 563.829 0.978128 4.98392 0
M  V30 5961 H 563.759 -0.788016 5.20671 0
M  V30 5962 H 566.25 -0.163226 3.77547 0
M  V30 5963 H 566.563 0.291999 7.72248 0
M  V30 5964 H 564.908 0.255658 6.9453 0
M  V30 5965 H 568.099 -0.117979 4.67951 0
M  V30 5966 H 568.272 0.0893796 6.47938 0
M  V30 5967 N 561.678 -1.56367 -0.196722 0
M  V30 5968 C 562.626 -1.95304 -1.2633 0
M  V30 5969 C 563.62 -0.838252 -1.47206 0
M  V30 5970 O 564.826 -1.02325 -1.48087 0
M  V30 5971 H 561.201 -0.621013 -0.424083 0
M  V30 5972 H 563.172 -2.84254 -0.907879 0
M  V30 5973 C 561.921 -2.3074 -2.60104 0
M  V30 5974 H 561.244 -3.16047 -2.44856 0
M  V30 5975 H 562.684 -2.61849 -3.33484 0
M  V30 5976 C 561.143 -1.14143 -3.16975 0
M  V30 5977 O 561.673 -0.415602 -3.99544 0
M  V30 5978 N 559.879 -0.91867 -2.75697 0
M  V30 5979 H 559.426 -1.51065 -2.08656 0
M  V30 5980 H 559.384 -0.140321 -3.14087 0
M  V30 5981 N 563.156 0.464375 -1.50603 0
M  V30 5982 C 564.086 1.56944 -1.72889 0
M  V30 5983 C 565.067 1.59979 -0.577997 0
M  V30 5984 O 566.252 1.76138 -0.817855 0
M  V30 5985 C 563.382 2.95225 -1.8292 0
M  V30 5986 C 562.336 3.07056 -2.98162 0
M  V30 5987 C 561.662 4.47051 -2.93343 0
M  V30 5988 C 562.962 2.83648 -4.38567 0
M  V30 5989 H 564.656 1.38547 -2.65415 0
M  V30 5990 H 562.202 0.665082 -1.27721 0
M  V30 5991 H 564.155 3.72467 -1.97095 0
M  V30 5992 H 562.879 3.14793 -0.870209 0
M  V30 5993 H 561.538 2.32248 -2.83648 0
M  V30 5994 H 561.186 4.63547 -1.95276 0
M  V30 5995 H 560.886 4.55902 -3.70712 0
M  V30 5996 H 562.41 5.26304 -3.09575 0
M  V30 5997 H 563.824 3.50636 -4.53572 0
M  V30 5998 H 562.221 3.03937 -5.17438 0
M  V30 5999 H 563.291 1.79451 -4.50472 0
M  V30 6000 N 564.634 1.40294 0.718013 0
M  V30 6001 C 566.045 1.34289 1.29705 0
M  V30 6002 C 566.396 0.0152228 1.96194 0
M  V30 6003 O 565.521 -0.88682 1.97394 0
M  V30 6004 C 566.116 2.43219 2.3586 0
M  V30 6005 C 564.675 2.40682 2.89394 0
M  V30 6006 C 563.822 2.24223 1.63154 0
M  V30 6007 H 566.773 1.50135 0.514312 0
M  V30 6008 H 566.794 2.10986 3.16647 0
M  V30 6009 H 566.306 3.39836 1.87439 0
M  V30 6010 H 564.407 1.47756 3.42051 0
M  V30 6011 H 564.52 3.36177 3.41353 0
M  V30 6012 H 562.884 1.71696 1.88129 0
M  V30 6013 H 563.667 3.22834 1.16761 0
M  V30 6014 N 566.112 -0.949982 1.2575 0
M  V30 6015 C 567.06 -2.06869 1.06339 0
M  V30 6016 C 568.054 -1.69399 -0.00708901 0
M  V30 6017 O 569.26 -1.79383 0.148897 0
M  V30 6018 H 565.635 -0.677197 0.326969 0
M  V30 6019 H 567.606 -2.20396 2.01167 0
M  V30 6020 C 566.355 -3.40503 0.703769 0
M  V30 6021 H 565.678 -3.69807 1.51931 0
M  V30 6022 H 567.118 -4.19623 0.607677 0
M  V30 6023 C 565.577 -3.31685 -0.5905 0
M  V30 6024 O 566.107 -3.67085 -1.63131 0
M  V30 6025 N 564.313 -2.84797 -0.577859 0
M  V30 6026 H 563.86 -2.56186 0.26951 0
M  V30 6027 H 563.818 -2.79279 -1.44398 0
M  V30 6028 N 567.59 -1.07411 -1.15328 0
M  V30 6029 C 568.838 -0.796073 -1.85761 0
M  V30 6030 C 569.159 0.679864 -1.82764 0
M  V30 6031 O 568.429 1.49242 -1.269 0
M  V30 6032 H 567.009 -0.291495 -0.687779 0
M  V30 6033 H 569.671 -1.35799 -1.39802 0
M  V30 6034 H 568.767 -1.13114 -2.90881 0
M  V30 6035 N 569.068 1.32177 -0.85831 0
M  V30 6036 C 570.345 1.91781 -0.384624 0
M  V30 6037 C 570.725 1.78171 1.13217 0
M  V30 6038 O 570.073 1.18209 1.95548 0
M  V30 6039 C 570.283 3.38414 -0.853047 0
M  V30 6040 C 571.631 4.15542 -0.872359 0
M  V30 6041 O 572.655 3.47148 -0.797926 0
M  V30 6042 O 571.514 5.37678 -0.978009 0
M  V30 6043 H 568.608 0.819259 -0.112886 0
M  V30 6044 H 571.154 1.40923 -0.945453 0
M  V30 6045 H 569.926 3.4228 -1.89632 0
M  V30 6046 H 569.549 3.96683 -0.269874 0
M  V30 6047 N 570.547 0.616602 1.45037 0
M  V30 6048 C 571.794 0.115331 2.02171 0
M  V30 6049 C 572.122 -1.25748 1.48383 0
M  V30 6050 O 571.377 -1.84511 0.652229 0
M  V30 6051 C 571.676 0.0356829 3.57382 0
M  V30 6052 C 571.342 1.34535 4.30362 0
M  V30 6053 C 570.004 1.70408 4.50016 0
M  V30 6054 C 572.356 2.21049 4.72003 0
M  V30 6055 C 569.684 2.92529 5.0857 0
M  V30 6056 C 572.036 3.42427 5.31908 0
M  V30 6057 C 570.7 3.78541 5.49784 0
M  V30 6058 H 569.97 0.0422024 0.739797 0
M  V30 6059 H 572.617 0.80002 1.73988 0
M  V30 6060 H 570.922 -0.732314 3.84895 0
M  V30 6061 H 572.619 -0.368463 3.99304 0
M  V30 6062 H 569.209 1.05615 4.15383 0
M  V30 6063 H 573.393 1.94632 4.56544 0
M  V30 6064 H 568.649 3.20605 5.20598 0
M  V30 6065 H 572.823 4.09709 5.63127 0
M  V30 6066 H 570.45 4.73255 5.94923 0
M  V30 6067 N 572.025 -1.5352 0.356285 0
M  V30 6068 C 573.441 -1.59599 0.00485267 0
M  V30 6069 C 573.641 -1.37179 -1.47595 0
M  V30 6070 O 572.697 -1.17234 -2.23635 0
M  V30 6071 C 574.01 -2.97277 0.452454 0
M  V30 6072 C 575.558 -3.10357 0.405881 0
M  V30 6073 C 576.033 -4.50432 0.829148 0
M  V30 6074 N 577.524 -4.5652 0.783838 0
M  V30 6075 C 578.259 -5.63077 1.08315 0
M  V30 6076 N 577.755 -6.77429 1.45126 0
M  V30 6077 N 579.548 -5.53014 1.00655 0
M  V30 6078 H 571.699 -1.66346 1.32071 0
M  V30 6079 H 573.962 -0.77971 0.539218 0
M  V30 6080 H 573.668 -3.18792 1.48542 0
M  V30 6081 H 573.542 -3.76836 -0.165762 0
M  V30 6082 H 575.929 -2.88558 -0.617934 0
M  V30 6083 H 576.01 -2.32828 1.05947 0
M  V30 6084 H 575.654 -4.72968 1.85103 0
M  V30 6085 H 575.584 -5.26378 0.152906 0
M  V30 6086 H 578.075 -3.74408 0.512513 0
M  V30 6087 H 578.388 -7.54669 1.66415 0
M  V30 6088 H 576.733 -6.78844 1.48983 0
M  V30 6089 H 579.924 -4.62557 0.718215 0
M  V30 6090 H 580.097 -6.35964 1.24315 0
M  V30 6091 N 573.503 -0.0852151 -1.57369 0
M  V30 6092 C 574.733 0.588605 -1.98038 0
M  V30 6093 C 575.141 1.62869 -0.962817 0
M  V30 6094 O 574.484 1.83611 0.057134 0
M  V30 6095 C 574.546 1.30303 -3.35054 0
M  V30 6096 C 574.21 0.414855 -4.55113 0
M  V30 6097 C 575.207 -0.333011 -5.18832 0
M  V30 6098 C 572.892 0.335804 -5.01176 0
M  V30 6099 C 574.886 -1.14801 -6.26976 0
M  V30 6100 C 572.573 -0.482857 -6.09189 0
M  V30 6101 C 573.571 -1.22342 -6.71953 0
M  V30 6102 O 573.259 -2.02855 -7.77885 0
M  V30 6103 H 572.991 0.163249 -0.655992 0
M  V30 6104 H 575.545 -0.1582 -2.0479 0
M  V30 6105 H 573.775 2.0962 -3.24956 0
M  V30 6106 H 575.464 1.87041 -3.60237 0
M  V30 6107 H 576.23 -0.281611 -4.84182 0
M  V30 6108 H 572.109 0.901869 -4.52092 0
M  V30 6109 H 575.653 -1.72654 -6.75897 0
M  V30 6110 H 571.55 -0.535773 -6.43273 0
M  V30 6111 H 572.318 -1.95432 -7.94826 0
M  V30 6112 N 574.981 1.5647 0.188427 0
M  V30 6113 C 576.209 1.85131 0.923803 0
M  V30 6114 C 576.624 0.668537 1.76567 0
M  V30 6115 O 575.981 -0.362662 1.7886 0
M  V30 6116 C 576.032 3.12661 1.81453 0
M  V30 6117 O 575.753 4.26378 1.00665 0
M  V30 6118 C 577.254 3.54548 2.66103 0
M  V30 6119 H 574.474 0.614624 0.269218 0
M  V30 6120 H 577.018 2.03581 0.193671 0
M  V30 6121 H 575.173 2.96088 2.49821 0
M  V30 6122 H 575.587 4.99041 1.61425 0
M  V30 6123 H 577.061 4.4673 3.24247 0
M  V30 6124 H 577.538 2.77853 3.40139 0
M  V30 6125 H 578.144 3.73674 2.03096 0
M  V30 6126 N 576.459 -0.456382 1.50847 0
M  V30 6127 C 577.687 -1.23026 1.66349 0
M  V30 6128 C 578.102 -1.85473 0.352868 0
M  V30 6129 O 577.459 -1.69885 -0.666739 0
M  V30 6130 C 577.51 -2.32827 2.76539 0
M  V30 6131 O 577.231 -1.72938 4.02522 0
M  V30 6132 C 578.732 -3.23448 3.03144 0
M  V30 6133 H 575.952 -0.371527 0.558756 0
M  V30 6134 H 578.496 -0.543082 1.97157 0
M  V30 6135 H 576.651 -2.97294 2.48384 0
M  V30 6136 H 577.065 -2.45357 4.63573 0
M  V30 6137 H 578.539 -3.96669 3.83872 0
M  V30 6138 H 579.016 -3.83094 2.14793 0
M  V30 6139 H 579.622 -2.64702 3.32886 0
M  V30 6140 N 577.937 -1.40673 -0.710563 0
M  V30 6141 C 579.165 -1.42547 -1.4996 0
M  V30 6142 C 579.58 -0.0265485 -1.88781 0
M  V30 6143 O 578.937 0.950694 -1.55782 0
M  V30 6144 C 578.988 -2.32071 -2.77173 0
M  V30 6145 O 578.709 -3.66518 -2.39992 0
M  V30 6146 C 580.21 -2.42591 -3.71032 0
M  V30 6147 H 577.43 -0.486025 -0.462623 0
M  V30 6148 H 579.974 -1.84783 -0.876102 0
M  V30 6149 H 578.129 -1.93184 -3.35795 0
M  V30 6150 H 578.543 -4.14115 -3.21884 0
M  V30 6151 H 580.017 -3.09429 -4.57119 0
M  V30 6152 H 580.494 -1.4525 -4.14486 0
M  V30 6153 H 581.1 -2.82051 -3.18319 0
M  V30 6154 N 579.415 0.9433 -1.26252 0
M  V30 6155 C 580.348 2.04162 -1.01946 0
M  V30 6156 C 581.326 1.62507 0.0550808 0
M  V30 6157 O 582.51 1.883 -0.0869025 0
M  V30 6158 C 579.637 3.34313 -0.54335 0
M  V30 6159 C 578.683 3.94939 -1.61013 0
M  V30 6160 S 579.516 4.29484 -3.19849 0
M  V30 6161 C 580.672 5.62738 -2.74001 0
M  V30 6162 H 580.905 2.24466 -1.94942 0
M  V30 6163 H 578.438 1.08441 -1.09909 0
M  V30 6164 H 580.396 4.09576 -0.275315 0
M  V30 6165 H 579.057 3.11957 0.36629 0
M  V30 6166 H 578.25 4.88812 -1.22795 0
M  V30 6167 H 577.852 3.26202 -1.82943 0
M  V30 6168 H 580.144 6.41356 -2.18333 0
M  V30 6169 H 581.087 6.05839 -3.66558 0
M  V30 6170 H 581.495 5.22514 -2.13634 0
M  V30 6171 N 580.893 1.08022 1.14757 0
M  V30 6172 C 582.141 0.805913 1.85336 0
M  V30 6173 C 582.462 -0.670162 1.83122 0
M  V30 6174 O 581.732 -1.48567 1.2769 0
M  V30 6175 H 580.312 0.295138 0.686223 0
M  V30 6176 H 582.974 1.36538 1.3908 0
M  V30 6177 H 582.07 1.14655 2.90277 0
M  V30 6178 N 582.371 -1.3172 0.865308 0
M  V30 6179 C 583.617 -1.97168 0.474633 0
M  V30 6180 C 583.95 -1.68263 -0.969604 0
M  V30 6181 O 583.225 -0.976588 -1.68205 0
M  V30 6182 C 583.508 -3.52689 0.726808 0
M  V30 6183 C 583.361 -3.91185 2.22024 0
M  V30 6184 C 584.68 -4.39689 0.190201 0
M  V30 6185 H 581.799 -0.716185 0.17392 0
M  V30 6186 H 584.441 -1.55925 1.08569 0
M  V30 6187 H 582.591 -3.8795 0.206705 0
M  V30 6188 H 584.263 -3.66049 2.80724 0
M  V30 6189 H 582.506 -3.3996 2.69462 0
M  V30 6190 H 583.177 -4.99604 2.34735 0
M  V30 6191 H 585.653 -4.11225 0.635103 0
M  V30 6192 H 584.529 -5.47469 0.396132 0
M  V30 6193 H 584.79 -4.32683 -0.907625 0
M  V30 6194 N 583.85 -0.624285 -1.44708 0
M  V30 6195 C 584.798 0.0969952 -2.32398 0
M  V30 6196 C 585.792 0.842762 -1.46949 0
M  V30 6197 O 586.998 0.756436 -1.63334 0
M  V30 6198 H 583.373 0.0501306 -0.750327 0
M  V30 6199 H 585.344 -0.660767 -2.90992 0
M  V30 6200 C 584.093 1.06967 -3.30837 0
M  V30 6201 H 583.416 0.505242 -3.96595 0
M  V30 6202 H 584.856 1.54397 -3.94889 0
M  V30 6203 C 583.315 2.15153 -2.5925 0
M  V30 6204 O 583.845 3.23139 -2.3863 0
M  V30 6205 N 582.051 1.90898 -2.19103 0
M  V30 6206 H 581.598 1.03086 -2.36074 0
M  V30 6207 H 581.556 2.63485 -1.71531 0
M  V30 6208 N 585.328 1.53329 -0.364422 0
M  V30 6209 C 586.556 2.05657 0.226424 0
M  V30 6210 C 586.971 1.23801 1.42544 0
M  V30 6211 O 586.328 0.27839 1.80364 0
M  V30 6212 C 586.379 3.56125 0.621056 0
M  V30 6213 O 586.1 4.34879 -0.530304 0
M  V30 6214 C 587.601 4.24706 1.27041 0
M  V30 6215 H 584.821 0.669806 0.0400056 0
M  V30 6216 H 587.365 1.97714 -0.522456 0
M  V30 6217 H 585.52 3.64223 1.31985 0
M  V30 6218 H 585.934 5.24073 -0.211546 0
M  V30 6219 H 587.408 5.3131 1.49711 0
M  V30 6220 H 587.885 3.78354 2.23036 0
M  V30 6221 H 588.491 4.20858 0.613079 0
M  V30 6222 N 586.806 0.0935595 1.57322 0
M  V30 6223 C 588.036 -0.578095 1.98347 0
M  V30 6224 C 588.444 -1.62357 0.971441 0
M  V30 6225 O 587.787 -1.83639 -0.0473959 0
M  V30 6226 C 587.849 -1.28525 3.3574 0
M  V30 6227 C 587.513 -0.390714 4.55327 0
M  V30 6228 C 588.51 0.360522 5.18648 0
M  V30 6229 C 586.195 -0.309221 5.01347 0
M  V30 6230 C 588.189 1.18125 6.26359 0
M  V30 6231 C 585.876 0.515157 6.08925 0
M  V30 6232 C 586.874 1.25904 6.71295 0
M  V30 6233 O 586.562 2.06978 7.76798 0
M  V30 6234 H 586.294 -0.159767 0.656849 0
M  V30 6235 H 588.848 0.169058 2.04703 0
M  V30 6236 H 587.078 -2.07894 3.26063 0
M  V30 6237 H 588.767 -1.85128 3.61223 0
M  V30 6238 H 589.533 0.307285 4.84026 0
M  V30 6239 H 585.412 -0.877881 4.52564 0
M  V30 6240 H 588.956 1.76236 6.74971 0
M  V30 6241 H 584.853 0.56988 6.42979 0
M  V30 6242 H 585.621 1.99644 7.93779 0
M  V30 6243 N 588.284 -1.56567 -0.180126 0
M  V30 6244 C 589.231 -1.95725 -1.22313 0
M  V30 6245 C 590.201 -0.819911 -1.44453 0
M  V30 6246 O 591.386 -1.07931 -1.57339 0
M  V30 6247 C 588.526 -2.31484 -2.55947 0
M  V30 6248 C 587.639 -3.58354 -2.4126 0
M  V30 6249 C 586.774 -3.83366 -3.67701 0
M  V30 6250 C 585.813 -5.03612 -3.47909 0
M  V30 6251 N 584.95 -5.24802 -4.66398 0
M  V30 6252 H 589.79 -2.84642 -0.882198 0
M  V30 6253 H 587.327 -1.4085 -0.42422 0
M  V30 6254 H 589.285 -2.50237 -3.33822 0
M  V30 6255 H 587.915 -1.45689 -2.88053 0
M  V30 6256 H 586.967 -3.47565 -1.54606 0
M  V30 6257 H 588.279 -4.46386 -2.22577 0
M  V30 6258 H 587.433 -4.02439 -4.54013 0
M  V30 6259 H 586.172 -2.93692 -3.89353 0
M  V30 6260 H 585.177 -4.84447 -2.59983 0
M  V30 6261 H 586.402 -5.94809 -3.27688 0
M  V30 6262 H 584.348 -4.38079 -4.88286 0
M  V30 6263 H 584.265 -6.07041 -4.50596 0
M  V30 6264 H 585.533 -5.48346 -5.54019 0
M  V30 6265 N 589.762 0.448376 -1.51087 0
M  V30 6266 C 590.725 1.52588 -1.71025 0
M  V30 6267 C 591.725 1.49958 -0.580442 0
M  V30 6268 O 592.915 1.52176 -0.847833 0
M  V30 6269 C 590.047 2.92163 -1.75652 0
M  V30 6270 H 591.24 1.36218 -2.67179 0
M  V30 6271 H 588.793 0.676313 -1.4091 0
M  V30 6272 H 589.528 3.13951 -0.812724 0
M  V30 6273 H 589.313 2.95478 -2.57751 0
M  V30 6274 H 590.803 3.70349 -1.92953 0
M  V30 6275 N 591.24 1.41047 0.703093 0
M  V30 6276 C 592.656 1.23351 1.01275 0
M  V30 6277 C 592.856 0.11754 2.01157 0
M  V30 6278 O 591.912 -0.520518 2.47077 0
M  V30 6279 C 593.225 2.58001 1.54454 0
M  V30 6280 C 594.773 2.65119 1.66376 0
M  V30 6281 C 595.248 4.00067 2.22958 0
M  V30 6282 N 596.739 4.01875 2.30328 0
M  V30 6283 C 597.474 5.03087 2.75119 0
M  V30 6284 N 596.97 6.14692 3.19571 0
M  V30 6285 N 598.763 4.90451 2.74616 0
M  V30 6286 H 590.914 2.1236 0.0412686 0
M  V30 6287 H 593.177 0.944543 0.08089 0
M  V30 6288 H 592.883 3.40378 0.88521 0
M  V30 6289 H 592.757 2.79962 2.52786 0
M  V30 6290 H 595.144 1.83106 2.31422 0
M  V30 6291 H 595.225 2.46975 0.666089 0
M  V30 6292 H 594.869 4.82526 1.58529 0
M  V30 6293 H 594.799 4.15547 3.23462 0
M  V30 6294 H 597.29 3.21291 1.98949 0
M  V30 6295 H 597.603 6.87799 3.52352 0
M  V30 6296 H 595.948 6.18239 3.17498 0
M  V30 6297 H 599.139 4.0235 2.39233 0
M  V30 6298 H 599.312 5.6947 3.09206 0
M  V30 6299 N 592.718 -0.936591 1.26751 0
M  V30 6300 C 593.967 -1.67778 1.11953 0
M  V30 6301 C 594.28 -1.92694 -0.33589 0
M  V30 6302 O 595.486 -2.64682 -0.604618 0
M  V30 6303 C 593.942 -3.02138 1.95551 0
M  V30 6304 C 593.55 -2.84953 3.45696 0
M  V30 6305 C 595.294 -3.79917 1.89377 0
M  V30 6306 C 593.201 -4.14814 4.21525 0
M  V30 6307 H 592.131 -0.629275 0.415366 0
M  V30 6308 H 594.782 -1.04122 1.51099 0
M  V30 6309 H 593.164 -3.668 1.49243 0
M  V30 6310 H 594.338 -2.29112 3.99805 0
M  V30 6311 H 592.653 -2.20612 3.53156 0
M  V30 6312 H 595.25 -4.76134 2.43312 0
M  V30 6313 H 595.593 -4.07204 0.865464 0
M  V30 6314 H 596.126 -3.22037 2.33532 0
M  V30 6315 H 592.865 -3.92709 5.24843 0
M  V30 6316 H 592.385 -4.70352 3.72195 0
M  V30 6317 H 594.064 -4.83239 4.3022 0
M  V30 6318 N 594.196 -1.08629 -1.14182 0
M  V30 6319 C 595.128 -0.676189 -2.18998 0
M  V30 6320 C 596.141 0.277871 -1.60411 0
M  V30 6321 O 597.33 0.0651771 -1.78381 0
M  V30 6322 C 594.43 0.0254916 -3.3889 0
M  V30 6323 C 593.603 -0.948039 -4.27002 0
M  V30 6324 C 592.662 -0.281268 -5.25448 0
M  V30 6325 O 591.688 -0.926378 -5.61611 0
M  V30 6326 N 592.89 0.967923 -5.72374 0
M  V30 6327 H 595.655 -1.57792 -2.54798 0
M  V30 6328 H 593.216 -0.972665 -1.29425 0
M  V30 6329 H 595.208 0.482554 -4.01813 0
M  V30 6330 H 593.778 0.829348 -3.01398 0
M  V30 6331 H 592.998 -1.58388 -3.6098 0
M  V30 6332 H 594.286 -1.60765 -4.82734 0
M  V30 6333 H 593.684 1.51175 -5.45126 0
M  V30 6334 H 592.241 1.36844 -6.37273 0
M  V30 6335 N 595.674 1.31259 -0.872281 0
M  V30 6336 C 596.904 2.00504 -0.498183 0
M  V30 6337 C 597.312 1.65632 0.914479 0
M  V30 6338 O 596.655 0.882849 1.61095 0
M  V30 6339 C 596.717 3.5482 -0.578194 0
M  V30 6340 C 596.381 4.13172 -1.95289 0
M  V30 6341 C 597.378 4.30107 -2.92069 0
M  V30 6342 C 595.063 4.48846 -2.25483 0
M  V30 6343 C 597.057 4.81908 -4.17185 0
M  V30 6344 C 594.744 5.00349 -3.50847 0
M  V30 6345 C 595.742 5.16831 -4.46514 0
M  V30 6346 O 595.43 5.67228 -5.69656 0
M  V30 6347 H 595.162 0.648055 -0.192354 0
M  V30 6348 H 597.716 1.6841 -1.17589 0
M  V30 6349 H 595.946 3.86383 0.156438 0
M  V30 6350 H 597.635 4.05318 -0.217192 0
M  V30 6351 H 598.401 4.02862 -2.7005 0
M  V30 6352 H 594.28 4.35292 -1.51795 0
M  V30 6353 H 597.824 4.94688 -4.91863 0
M  V30 6354 H 593.721 5.27028 -3.72708 0
M  V30 6355 H 594.489 5.85592 -5.7186 0
M  V30 6356 N 597.152 0.631951 1.44375 0
M  V30 6357 C 598.382 0.143658 2.061 0
M  V30 6358 C 598.79 -1.18733 1.47306 0
M  V30 6359 O 598.133 -1.73943 0.590724 0
M  V30 6360 C 598.195 -0.0446102 3.59472 0
M  V30 6361 C 597.859 1.20835 4.40736 0
M  V30 6362 C 598.856 2.13224 4.74164 0
M  V30 6363 C 596.541 1.44399 4.81097 0
M  V30 6364 C 598.535 3.27487 5.46838 0
M  V30 6365 C 596.222 2.58959 5.53519 0
M  V30 6366 C 597.22 3.50329 5.86309 0
M  V30 6367 O 596.908 4.62891 6.57257 0
M  V30 6368 H 596.64 0.0772939 0.671567 0
M  V30 6369 H 599.194 0.866677 1.8622 0
M  V30 6370 H 597.424 -0.822783 3.77845 0
M  V30 6371 H 599.113 -0.487561 4.02961 0
M  V30 6372 H 599.879 1.96253 4.4352 0
M  V30 6373 H 595.758 0.741696 4.54994 0
M  V30 6374 H 599.302 3.98826 5.72349 0
M  V30 6375 H 595.199 2.75873 5.83579 0
M  V30 6376 H 595.967 4.61883 6.75726 0
M  V30 6377 N 598.631 -1.53133 0.372548 0
M  V30 6378 C 599.871 -2.03267 -0.214943 0
M  V30 6379 C 600.235 -1.25362 -1.45425 0
M  V30 6380 O 601.436 -1.65536 -2.11781 0
M  V30 6381 C 599.707 -3.53985 -0.492897 0
M  V30 6382 S 601.266 -4.25977 -1.05307 0
M  V30 6383 H 598.084 -0.708289 -0.062029 0
M  V30 6384 H 600.686 -1.88539 0.517025 0
M  V30 6385 H 599.39 -4.08282 0.416442 0
M  V30 6386 H 598.921 -3.72887 -1.25375 0
M  V30 6387 H 600.936 -4.37731 -2.33679 0
M  V30 6388 N 600.109 -0.101901 -1.5727 0
M  V30 6389 C 601.059 0.865346 -2.1094 0
M  V30 6390 C 602.043 1.2394 -1.02605 0
M  V30 6391 O 603.235 1.21334 -1.28868 0
M  V30 6392 C 600.364 2.12187 -2.69874 0
M  V30 6393 C 599.45 1.77295 -3.85263 0
M  V30 6394 N 599.841 1.12993 -4.93017 0
M  V30 6395 C 598.139 2.06862 -3.95126 0
M  V30 6396 C 598.84 0.968631 -5.73579 0
M  V30 6397 N 597.816 1.48814 -5.22834 0
M  V30 6398 H 601.618 0.364368 -2.91633 0
M  V30 6399 H 599.132 0.101104 -1.62085 0
M  V30 6400 H 601.129 2.82431 -3.06657 0
M  V30 6401 H 599.789 2.62844 -1.90639 0
M  V30 6402 H 600.8 0.795935 -5.11747 0
M  V30 6403 H 597.477 2.59686 -3.26909 0
M  V30 6404 H 598.867 0.465231 -6.70287 0
M  V30 6405 N 601.587 1.56661 0.17182 0
M  V30 6406 C 602.497 1.99604 1.2327 0
M  V30 6407 C 603.513 0.907333 1.4847 0
M  V30 6408 O 604.689 1.21492 1.60629 0
M  V30 6409 C 601.754 2.34685 2.55194 0
M  V30 6410 C 600.815 3.57381 2.3786 0
M  V30 6411 C 600.048 3.90779 3.63494 0
M  V30 6412 O 600.271 3.25152 4.6865 0
M  V30 6413 O 599.205 4.84129 3.57634 0
M  V30 6414 H 603.031 2.90114 0.898192 0
M  V30 6415 H 600.616 1.44522 0.378647 0
M  V30 6416 H 602.498 2.5822 3.33017 0
M  V30 6417 H 601.173 1.47336 2.88225 0
M  V30 6418 H 600.08 3.39064 1.5807 0
M  V30 6419 H 601.413 4.45268 2.09754 0
M  V30 6420 N 603.065 -0.440357 1.51323 0
M  V30 6421 C 604.476 -1.02032 1.56353 0
M  V30 6422 C 604.827 -1.92382 0.385197 0
M  V30 6423 O 603.952 -2.10583 -0.498373 0
M  V30 6424 C 604.547 -1.85723 2.83359 0
M  V30 6425 C 603.106 -2.38774 2.90971 0
M  V30 6426 C 602.253 -1.17908 2.50984 0
M  V30 6427 H 605.204 -0.221744 1.57143 0
M  V30 6428 H 605.225 -2.71141 2.66951 0
M  V30 6429 H 604.737 -1.19939 3.69102 0
M  V30 6430 H 602.838 -3.08021 2.09651 0
M  V30 6431 H 602.951 -2.71778 3.94555 0
M  V30 6432 H 601.315 -1.52347 2.04114 0
M  V30 6433 H 602.098 -0.537393 3.39068 0
M  V30 6434 N 604.543 -1.41418 -0.695603 0
M  V30 6435 C 605.773 -1.43921 -1.48224 0
M  V30 6436 C 606.181 -0.0428855 -1.89151 0
M  V30 6437 O 605.524 0.948138 -1.5734 0
M  V30 6438 C 605.586 -2.28466 -2.77567 0
M  V30 6439 C 605.25 -3.76629 -2.58844 0
M  V30 6440 C 606.247 -4.6879 -2.24793 0
M  V30 6441 C 603.932 -4.2067 -2.74485 0
M  V30 6442 C 605.926 -6.02981 -2.06622 0
M  V30 6443 C 603.613 -5.54926 -2.55931 0
M  V30 6444 C 604.611 -6.45897 -2.2205 0
M  V30 6445 O 604.299 -7.77675 -2.03657 0
M  V30 6446 H 604.031 -0.492252 -0.463318 0
M  V30 6447 H 606.585 -1.86347 -0.863952 0
M  V30 6448 H 604.815 -1.80853 -3.41802 0
M  V30 6449 H 606.504 -2.2267 -3.39371 0
M  V30 6450 H 607.27 -4.36055 -2.12323 0
M  V30 6451 H 603.149 -3.50167 -2.9984 0
M  V30 6452 H 606.693 -6.73951 -1.80099 0
M  V30 6453 H 602.59 -5.8724 -2.67991 0
M  V30 6454 H 603.358 -7.88819 -2.1842 0
M  V30 6455 N 606.021 0.929856 -1.27246 0
M  V30 6456 C 607.251 1.70895 -1.16096 0
M  V30 6457 C 607.659 1.87039 0.285122 0
M  V30 6458 O 607.002 1.38557 1.20614 0
M  V30 6459 C 607.064 3.12919 -1.7698 0
M  V30 6460 C 606.728 3.2012 -3.26148 0
M  V30 6461 C 607.725 3.02533 -4.22812 0
M  V30 6462 C 605.41 3.43148 -3.66817 0
M  V30 6463 C 607.404 3.07861 -5.58122 0
M  V30 6464 C 605.091 3.48109 -5.02258 0
M  V30 6465 C 606.089 3.30483 -5.97721 0
M  V30 6466 O 605.777 3.35175 -7.30694 0
M  V30 6467 H 605.509 0.54152 -0.404639 0
M  V30 6468 H 608.063 1.17342 -1.68582 0
M  V30 6469 H 606.293 3.67945 -1.18969 0
M  V30 6470 H 607.982 3.72787 -1.60576 0
M  V30 6471 H 608.748 2.84586 -3.92728 0
M  V30 6472 H 604.627 3.55918 -2.9299 0
M  V30 6473 H 608.171 2.94021 -6.32612 0
M  V30 6474 H 604.068 3.65579 -5.31998 0
M  V30 6475 H 604.836 3.51644 -7.39114 0
M  V30 6476 N 607.499 1.09233 1.13605 0
M  V30 6477 C 608.446 0.729921 2.18954 0
M  V30 6478 C 609.416 -0.287916 1.63586 0
M  V30 6479 O 610.601 -0.170003 1.90041 0
M  V30 6480 C 607.741 0.154489 3.44754 0
M  V30 6481 C 606.854 1.22613 4.14234 0
M  V30 6482 C 605.989 0.613657 5.27644 0
M  V30 6483 C 605.028 1.66674 5.8897 0
M  V30 6484 N 604.165 1.07545 6.93814 0
M  V30 6485 H 609.005 1.63257 2.49302 0
M  V30 6486 H 606.542 0.815693 1.22413 0
M  V30 6487 H 608.5 -0.196923 4.16735 0
M  V30 6488 H 607.13 -0.711433 3.14863 0
M  V30 6489 H 606.182 1.69485 3.40557 0
M  V30 6490 H 607.494 2.0238 4.55899 0
M  V30 6491 H 606.648 0.210976 6.06333 0
M  V30 6492 H 605.387 -0.215584 4.87223 0
M  V30 6493 H 604.392 2.07899 5.08978 0
M  V30 6494 H 605.617 2.49861 6.31464 0
M  V30 6495 H 603.563 0.267451 6.55455 0
M  V30 6496 H 603.48 1.81011 7.3401 0
M  V30 6497 H 604.748 0.698906 7.7636 0
M  V30 6498 N 608.977 -1.30795 0.87923 0
M  V30 6499 C 609.91 -2.26396 0.286404 0
M  V30 6500 C 610.888 -1.51528 -0.589748 0
M  V30 6501 O 612.072 -1.80566 -0.541119 0
M  V30 6502 C 609.199 -3.33458 -0.593581 0
M  V30 6503 C 608.245 -4.2597 0.21247 0
M  V30 6504 S 609.078 -5.11132 1.59702 0
M  V30 6505 C 610.234 -6.21705 0.723408 0
M  V30 6506 H 610.467 -2.7633 1.09677 0
M  V30 6507 H 608 -1.38703 0.678305 0
M  V30 6508 H 609.958 -3.9561 -1.09557 0
M  V30 6509 H 608.619 -2.82259 -1.37799 0
M  V30 6510 H 607.812 -5.01907 -0.458822 0
M  V30 6511 H 607.414 -3.68363 0.646883 0
M  V30 6512 H 609.706 -6.77472 -0.0620739 0
M  V30 6513 H 610.649 -6.93007 1.4542 0
M  V30 6514 H 611.057 -5.63771 0.286855 0
M  V30 6515 N 610.455 -0.639598 -1.44038 0
M  V30 6516 C 611.387 0.0987684 -2.28987 0
M  V30 6517 C 612.4 0.80058 -1.41755 0
M  V30 6518 O 613.589 0.660611 -1.65826 0
M  V30 6519 C 610.689 1.16242 -3.18341 0
M  V30 6520 C 609.862 0.541447 -4.34036 0
M  V30 6521 C 608.921 1.50017 -5.04362 0
M  V30 6522 O 607.947 1.01403 -5.60095 0
M  V30 6523 N 609.149 2.83441 -5.06598 0
M  V30 6524 H 611.914 -0.630305 -2.92997 0
M  V30 6525 H 609.475 -0.481376 -1.54578 0
M  V30 6526 H 611.467 1.80429 -3.62253 0
M  V30 6527 H 610.037 1.79362 -2.56024 0
M  V30 6528 H 609.257 -0.27923 -3.9321 0
M  V30 6529 H 610.545 0.107379 -5.08687 0
M  V30 6530 H 609.943 3.2551 -4.62666 0
M  V30 6531 H 608.5 3.42966 -5.54272 0
M  V30 6532 N 611.933 1.52934 -0.380664 0
M  V30 6533 C 613.161 2.05886 0.204599 0
M  V30 6534 C 613.576 1.25305 1.41223 0
M  V30 6535 O 612.933 0.297504 1.80059 0
M  V30 6536 C 612.984 3.56764 0.583249 0
M  V30 6537 O 612.705 4.34292 -0.576398 0
M  V30 6538 C 614.206 4.2603 1.2253 0
M  V30 6539 H 611.426 0.670193 0.0328991 0
M  V30 6540 H 613.97 1.97148 -0.543397 0
M  V30 6541 H 612.125 3.65603 1.28115 0
M  V30 6542 H 612.539 5.23819 -0.267119 0
M  V30 6543 H 614.013 5.32868 1.44068 0
M  V30 6544 H 614.49 3.80698 2.19011 0
M  V30 6545 H 615.096 4.21485 0.568407 0
M  V30 6546 N 613.412 0.11024 1.57214 0
M  V30 6547 C 614.828 -0.24638 1.57687 0
M  V30 6548 C 615.028 -1.67344 1.12241 0
M  V30 6549 O 614.084 -2.39298 0.805783 0
M  V30 6550 C 615.397 -0.0210288 3.00693 0
M  V30 6551 C 616.945 -0.0876077 3.12877 0
M  V30 6552 C 617.42 0.10994 4.57868 0
M  V30 6553 N 618.911 0.0556135 4.63167 0
M  V30 6554 C 619.646 0.183495 5.73106 0
M  V30 6555 N 619.142 0.367058 6.91827 0
M  V30 6556 N 620.935 0.123689 5.61964 0
M  V30 6557 H 613.086 1.04246 1.85058 0
M  V30 6558 H 615.349 0.40979 0.854854 0
M  V30 6559 H 615.055 0.965203 3.38196 0
M  V30 6560 H 614.929 -0.756748 3.69531 0
M  V30 6561 H 617.316 -1.06436 2.75237 0
M  V30 6562 H 617.397 0.67985 2.466 0
M  V30 6563 H 617.041 1.08362 4.96206 0
M  V30 6564 H 616.971 -0.677397 5.22225 0
M  V30 6565 H 619.462 -0.0831062 3.77809 0
M  V30 6566 H 619.775 0.455739 7.71455 0
M  V30 6567 H 618.12 0.40292 6.93831 0
M  V30 6568 H 621.311 -0.0186928 4.68096 0
M  V30 6569 H 621.484 0.226797 6.47603 0
M  V30 6570 N 614.89 -1.56749 -0.16351 0
M  V30 6571 C 615.853 -1.96121 -1.18613 0
M  V30 6572 C 616.853 -0.845765 -1.36761 0
M  V30 6573 O 618.043 -1.11268 -1.34033 0
M  V30 6574 C 615.175 -2.26282 -2.54969 0
M  V30 6575 H 616.368 -2.87639 -0.848764 0
M  V30 6576 H 613.921 -1.50928 -0.406251 0
M  V30 6577 H 614.656 -1.37504 -2.93706 0
M  V30 6578 H 614.441 -3.07595 -2.43162 0
M  V30 6579 H 615.931 -2.57638 -3.28653 0
M  V30 6580 N 616.368 0.432326 -1.51554 0
M  V30 6581 C 617.616 1.17901 -1.64146 0
M  V30 6582 C 617.937 1.91604 -0.362367 0
M  V30 6583 O 617.207 1.85764 0.621968 0
M  V30 6584 H 615.787 0.438206 -0.604966 0
M  V30 6585 H 618.449 0.495172 -1.88505 0
M  V30 6586 H 617.545 1.90584 -2.47152 0
M  V30 6587 N 617.846 1.41785 0.688094 0
M  V30 6588 C 619.071 1.45117 1.48175 0
M  V30 6589 C 619.496 0.060129 1.88004 0
M  V30 6590 O 618.854 -0.938385 1.55126 0
M  V30 6591 C 618.902 2.37224 2.71583 0
M  V30 6592 O 618.006 1.83443 3.69354 0
M  V30 6593 H 617.347 0.492208 0.445676 0
M  V30 6594 H 619.877 1.86329 0.845145 0
M  V30 6595 H 619.887 2.53353 3.19806 0
M  V30 6596 H 618.562 3.38293 2.41931 0
M  V30 6597 H 617.139 1.76802 3.28322 0
M  V30 6598 N 619.324 -0.923095 1.27737 0
M  V30 6599 C 620.74 -1.19985 1.05241 0
M  V30 6600 C 620.94 -2.00391 -0.21113 0
M  V30 6601 O 619.996 -2.35324 -0.915366 0
M  V30 6602 C 621.309 -1.94352 2.29451 0
M  V30 6603 C 622.857 -2.07273 2.34536 0
M  V30 6604 C 623.332 -2.85046 3.58487 0
M  V30 6605 N 624.823 -2.92612 3.59072 0
M  V30 6606 C 625.558 -3.53266 4.51654 0
M  V30 6607 N 625.054 -4.15274 5.54545 0
M  V30 6608 N 626.847 -3.50714 4.39268 0
M  V30 6609 H 618.998 -0.386042 2.08862 0
M  V30 6610 H 621.261 -0.233407 0.918817 0
M  V30 6611 H 620.967 -1.42692 3.21453 0
M  V30 6612 H 620.841 -2.94947 2.3513 0
M  V30 6613 H 623.228 -2.58117 1.43037 0
M  V30 6614 H 623.309 -1.05884 2.32857 0
M  V30 6615 H 622.953 -2.34884 4.50324 0
M  V30 6616 H 622.883 -3.8673 3.57418 0
M  V30 6617 H 625.374 -2.48547 2.84663 0
M  V30 6618 H 625.687 -4.59507 6.21348 0
M  V30 6619 H 624.032 -4.13806 5.58382 0
M  V30 6620 H 627.223 -3.01475 3.58093 0
M  V30 6621 H 627.396 -3.97693 5.1161 0
M  V30 6622 N 620.802 -1.09834 -1.13024 0
M  V30 6623 C 621.712 -0.753731 -2.22162 0
M  V30 6624 C 622.728 0.246105 -1.72251 0
M  V30 6625 O 623.904 0.0864051 -2.01215 0
M  V30 6626 C 620.969 -0.183958 -3.46212 0
M  V30 6627 C 620.03 -1.24028 -4.10993 0
M  V30 6628 C 619.263 -0.697597 -5.29121 0
M  V30 6629 O 619.486 0.478092 -5.68393 0
M  V30 6630 O 618.42 -1.4546 -5.84059 0
M  V30 6631 H 622.246 -1.66456 -2.5402 0
M  V30 6632 H 619.831 -0.873026 -1.21238 0
M  V30 6633 H 621.713 0.130257 -4.21199 0
M  V30 6634 H 620.388 0.699823 -3.16045 0
M  V30 6635 H 619.295 -1.60725 -3.37814 0
M  V30 6636 H 620.628 -2.09685 -4.45301 0
M  V30 6637 N 622.28 1.30327 -0.886154 0
M  V30 6638 C 623.505 2.0079 -0.519425 0
M  V30 6639 C 623.93 1.65979 0.885013 0
M  V30 6640 O 623.288 0.877043 1.58675 0
M  V30 6641 C 623.336 3.53686 -0.702758 0
M  V30 6642 O 622.44 4.11637 0.250828 0
M  V30 6643 H 621.781 0.63171 -0.204544 0
M  V30 6644 H 624.311 1.66145 -1.19402 0
M  V30 6645 H 624.321 4.03531 -0.602207 0
M  V30 6646 H 622.996 3.78361 -1.72673 0
M  V30 6647 H 621.573 3.72755 0.103873 0
M  V30 6648 N 623.758 0.647228 1.43697 0
M  V30 6649 C 624.668 -0.0487997 2.34549 0
M  V30 6650 C 625.684 -0.818586 1.53542 0
M  V30 6651 O 626.86 -0.767195 1.86215 0
M  V30 6652 C 623.925 -1.00734 3.31743 0
M  V30 6653 C 622.986 -0.23515 4.28655 0
M  V30 6654 C 622.219 -1.14803 5.21206 0
M  V30 6655 O 622.442 -2.38717 5.18045 0
M  V30 6656 O 621.376 -0.623667 5.9866 0
M  V30 6657 H 625.202 0.698863 2.9555 0
M  V30 6658 H 622.787 0.407412 1.43738 0
M  V30 6659 H 624.669 -1.55837 3.91526 0
M  V30 6660 H 623.344 -1.73534 2.73254 0
M  V30 6661 H 622.251 0.359319 3.7237 0
M  V30 6662 H 623.584 0.453152 4.9011 0
M  V30 6663 N 625.236 -1.5273 0.388769 0
M  V30 6664 C 626.168 -2.24081 -0.481704 0
M  V30 6665 C 627.181 -1.26307 -1.02715 0
M  V30 6666 O 628.37 -1.52386 -0.929565 0
M  V30 6667 C 625.47 -2.94315 -1.68024 0
M  V30 6668 C 624.643 -4.18791 -1.26226 0
M  V30 6669 C 623.702 -4.72028 -2.32542 0
M  V30 6670 O 622.728 -5.35129 -1.93972 0
M  V30 6671 N 623.93 -4.51838 -3.64448 0
M  V30 6672 H 626.695 -2.9942 0.129591 0
M  V30 6673 H 624.256 -1.60465 0.2151 0
M  V30 6674 H 626.248 -3.26831 -2.38671 0
M  V30 6675 H 624.818 -2.22287 -2.19789 0
M  V30 6676 H 624.038 -3.92318 -0.384703 0
M  V30 6677 H 625.326 -4.99668 -0.959647 0
M  V30 6678 H 624.724 -4.01468 -3.98547 0
M  V30 6679 H 623.281 -4.88845 -4.31131 0
M  V30 6680 N 626.714 -0.118576 -1.57153 0
M  V30 6681 C 627.962 0.538461 -1.94795 0
M  V30 6682 C 628.283 1.67243 -1.00274 0
M  V30 6683 O 627.553 1.95811 -0.0589692 0
M  V30 6684 H 626.133 0.201904 -0.719197 0
M  V30 6685 H 628.795 -0.187418 -1.93997 0
M  V30 6686 H 627.891 0.933315 -2.97818 0
M  V30 6687 N 628.193 1.56834 0.155195 0
M  V30 6688 C 629.439 1.83169 0.870467 0
M  V30 6689 C 629.772 0.698929 1.81187 0
M  V30 6690 O 629.047 -0.298035 1.92203 0
M  V30 6691 C 629.33 3.19965 1.65211 0
M  V30 6692 C 629.183 4.43792 0.732744 0
M  V30 6693 C 630.502 3.53885 2.61636 0
M  V30 6694 H 627.621 0.666288 0.315006 0
M  V30 6695 H 630.263 1.89513 0.135988 0
M  V30 6696 H 628.413 3.14687 2.27825 0
M  V30 6697 H 630.085 4.61148 0.118236 0
M  V30 6698 H 628.328 4.3378 0.0417906 0
M  V30 6699 H 628.999 5.36095 1.31552 0
M  V30 6700 H 631.475 3.5972 2.09143 0
M  V30 6701 H 630.351 4.50648 3.13381 0
M  V30 6702 H 630.612 2.79418 3.42605 0
M  V30 6703 N 629.671 -0.424282 1.51781 0
M  V30 6704 C 630.901 -1.19297 1.68677 0
M  V30 6705 C 631.309 -1.85152 0.389258 0
M  V30 6706 O 630.652 -1.72067 -0.643311 0
M  V30 6707 C 630.714 -2.30929 2.75521 0
M  V30 6708 C 630.378 -1.85335 4.17732 0
M  V30 6709 C 631.375 -1.34951 5.0208 0
M  V30 6710 C 629.06 -1.92629 4.63896 0
M  V30 6711 C 631.054 -0.924636 6.30658 0
M  V30 6712 C 628.741 -1.49754 5.92467 0
M  V30 6713 C 629.739 -0.997543 6.75676 0
M  V30 6714 O 629.427 -0.57492 8.01842 0
M  V30 6715 H 629.159 -0.36512 0.568914 0
M  V30 6716 H 631.713 -0.507327 1.99036 0
M  V30 6717 H 629.943 -3.02811 2.40505 0
M  V30 6718 H 631.632 -2.92748 2.81165 0
M  V30 6719 H 632.398 -1.287 4.67612 0
M  V30 6720 H 628.277 -2.30491 3.99243 0
M  V30 6721 H 631.821 -0.533682 6.95556 0
M  V30 6722 H 627.718 -1.55679 6.26446 0
M  V30 6723 H 628.486 -0.699597 8.15505 0
M  V30 6724 N 631.149 -1.42148 -0.680565 0
M  V30 6725 C 632.377 -1.45696 -1.46902 0
M  V30 6726 C 632.792 -0.0665858 -1.88683 0
M  V30 6727 O 632.149 0.917436 -1.57764 0
M  V30 6728 C 632.2 -2.37898 -2.72188 0
M  V30 6729 O 631.921 -3.71526 -2.32163 0
M  V30 6730 C 633.422 -2.50407 -3.65802 0
M  V30 6731 H 630.642 -0.495729 -0.45221 0
M  V30 6732 H 633.186 -1.866 -0.836709 0
M  V30 6733 H 631.341 -2.00263 -3.31622 0
M  V30 6734 H 631.755 -4.20849 -3.13027 0
M  V30 6735 H 633.229 -3.19056 -4.50452 0
M  V30 6736 H 633.706 -1.5401 -4.11312 0
M  V30 6737 H 634.312 -2.8874 -3.12265 0
M  V30 6738 N 632.627 0.916307 -1.28225 0
M  V30 6739 C 633.867 1.67964 -1.16479 0
M  V30 6740 C 634.231 1.8991 0.282494 0
M  V30 6741 O 635.432 2.63671 0.522607 0
M  V30 6742 C 633.703 3.00251 -1.93866 0
M  V30 6743 S 635.262 3.91353 -1.98465 0
M  V30 6744 H 632.08 0.576873 -0.415619 0
M  V30 6745 H 634.682 1.09006 -1.62289 0
M  V30 6746 H 633.386 2.81978 -2.98189 0
M  V30 6747 H 632.917 3.64257 -1.48595 0
M  V30 6748 H 634.932 4.84096 -1.0893 0
M  V30 6749 N 634.105 1.10431 1.1244 0
M  V30 6750 C 635.333 0.868872 1.87772 0
M  V30 6751 C 635.748 -0.580645 1.7965 0
M  V30 6752 O 635.105 -1.40031 1.17036 0
M  V30 6753 C 635.156 1.30855 3.36986 0
M  V30 6754 O 634.877 2.70123 3.44914 0
M  V30 6755 C 636.378 1.107 4.29256 0
M  V30 6756 H 633.598 0.311868 0.59412 0
M  V30 6757 H 636.142 1.46897 1.42273 0
M  V30 6758 H 634.297 0.752126 3.80029 0
M  V30 6759 H 634.711 2.88923 4.37748 0
M  V30 6760 H 636.185 1.46378 5.32238 0
M  V30 6761 H 636.662 0.0456228 4.39176 0
M  V30 6762 H 637.268 1.64988 3.91994 0
M  V30 6763 N 635.583 -1.29855 0.893053 0
M  V30 6764 C 636.546 -2.26183 0.370687 0
M  V30 6765 C 637.546 -1.53108 -0.491385 0
M  V30 6766 O 638.736 -1.71643 -0.297386 0
M  V30 6767 C 635.868 -3.37633 -0.470827 0
M  V30 6768 H 637.061 -2.73903 1.22135 0
M  V30 6769 H 634.614 -1.41183 0.67061 0
M  V30 6770 H 635.349 -2.95241 -1.34175 0
M  V30 6771 H 635.134 -3.91825 0.146784 0
M  V30 6772 H 636.624 -4.09313 -0.827825 0
M  V30 6773 N 637.061 -0.65484 -1.43351 0
M  V30 6774 C 637.993 0.0744757 -2.29079 0
M  V30 6775 C 639.006 0.7855 -1.42596 0
M  V30 6776 O 640.195 0.642986 -1.66517 0
M  V30 6777 C 637.295 1.12859 -3.19556 0
M  V30 6778 C 636.468 0.495381 -4.34586 0
M  V30 6779 C 635.527 1.44659 -5.05925 0
M  V30 6780 O 634.553 0.954567 -5.61139 0
M  V30 6781 N 635.755 2.78051 -5.09576 0
M  V30 6782 H 638.52 -0.661346 -2.92312 0
M  V30 6783 H 636.081 -0.497744 -1.54059 0
M  V30 6784 H 638.073 1.76577 -3.64147 0
M  V30 6785 H 636.643 1.76636 -2.57912 0
M  V30 6786 H 635.863 -0.32092 -3.92892 0
M  V30 6787 H 637.151 0.0534203 -5.08772 0
M  V30 6788 H 636.549 3.20584 -4.66093 0
M  V30 6789 H 635.106 3.37068 -5.57878 0
M  V30 6790 N 638.539 1.52521 -0.396863 0
M  V30 6791 C 639.787 2.01274 0.182536 0
M  V30 6792 C 640.108 1.28485 1.46685 0
M  V30 6793 O 639.378 0.407134 1.91623 0
M  V30 6794 H 637.958 0.743671 0.0704442 0
M  V30 6795 H 640.62 1.87547 -0.530289 0
M  V30 6796 H 639.716 3.09687 0.387385 0
M  V30 6797 N 640.017 0.126909 1.57088 0
M  V30 6798 C 641.266 -0.529024 1.94639 0
M  V30 6799 C 641.579 -1.67323 1.01304 0
M  V30 6800 O 642.785 -2.39245 1.28352 0
M  V30 6801 C 641.241 -0.992483 3.45945 0
M  V30 6802 C 640.849 0.123691 4.47829 0
M  V30 6803 C 642.593 -1.61934 3.924 0
M  V30 6804 C 640.5 -0.356911 5.90322 0
M  V30 6805 H 639.43 -0.201397 0.726605 0
M  V30 6806 H 642.081 0.208032 1.82317 0
M  V30 6807 H 640.463 -1.7842 3.53528 0
M  V30 6808 H 641.637 0.900168 4.51922 0
M  V30 6809 H 639.952 0.657699 4.11173 0
M  V30 6810 H 642.549 -1.9902 4.96281 0
M  V30 6811 H 642.892 -2.50075 3.32819 0
M  V30 6812 H 643.425 -0.892894 3.8765 0
M  V30 6813 H 640.164 0.488636 6.53676 0
M  V30 6814 H 639.684 -1.0997 5.89633 0
M  V30 6815 H 641.363 -0.815547 6.41839 0
M  V30 6816 N 641.495 -1.56914 -0.146875 0
M  V30 6817 C 642.741 -1.84515 -0.855914 0
M  V30 6818 C 643.096 -0.710909 -1.78784 0
M  V30 6819 O 642.389 0.291123 -1.89375 0
M  V30 6820 C 642.583 -3.16128 -1.66727 0
M  V30 6821 C 642.412 -4.42246 -0.815405 0
M  V30 6822 C 641.182 -5.03006 -0.480976 0
M  V30 6823 C 643.38 -5.14094 -0.145684 0
M  V30 6824 N 641.362 -6.12695 0.384476 0
M  V30 6825 C 642.733 -6.17282 0.579902 0
M  V30 6826 C 644.788 -4.97856 -0.0663705 0
M  V30 6827 C 643.491 -7.0599 1.37731 0
M  V30 6828 C 645.517 -5.87028 0.71778 0
M  V30 6829 C 644.879 -6.89698 1.43165 0
M  V30 6830 H 640.978 -0.725829 -0.291026 0
M  V30 6831 H 643.562 -1.94322 -0.121279 0
M  V30 6832 H 641.733 -3.07468 -2.37315 0
M  V30 6833 H 643.465 -3.31635 -2.31949 0
M  V30 6834 H 640.22 -4.66504 -0.816789 0
M  V30 6835 H 640.644 -6.72158 0.80823 0
M  V30 6836 H 645.286 -4.18465 -0.603929 0
M  V30 6837 H 643.004 -7.84809 1.92613 0
M  V30 6838 H 646.59 -5.76532 0.781141 0
M  V30 6839 H 645.47 -7.57505 2.02868 0
M  V30 6840 N 642.974 0.416227 -1.52004 0
M  V30 6841 C 643.921 1.50666 -1.74838 0
M  V30 6842 C 644.891 1.55245 -0.590599 0
M  V30 6843 O 646.076 1.71928 -0.827374 0
M  V30 6844 C 643.216 2.88185 -1.89851 0
M  V30 6845 C 642.329 2.92971 -3.17478 0
M  V30 6846 C 641.464 4.21745 -3.22962 0
M  V30 6847 C 640.503 4.20478 -4.4482 0
M  V30 6848 N 639.64 5.40811 -4.47736 0
M  V30 6849 H 644.48 1.30498 -2.67907 0
M  V30 6850 H 642.017 0.633568 -1.32757 0
M  V30 6851 H 643.975 3.68007 -1.96537 0
M  V30 6852 H 642.605 3.06865 -1.00169 0
M  V30 6853 H 641.657 2.05684 -3.19997 0
M  V30 6854 H 642.969 2.87899 -4.07328 0
M  V30 6855 H 642.123 5.09954 -3.28682 0
M  V30 6856 H 640.862 4.29503 -2.31038 0
M  V30 6857 H 639.867 3.30659 -4.39254 0
M  V30 6858 H 641.092 4.14366 -5.38031 0
M  V30 6859 H 639.038 5.4925 -3.58692 0
M  V30 6860 H 638.955 5.37705 -5.31422 0
M  V30 6861 H 640.223 6.30993 -4.57676 0
M  V30 6862 N 644.452 1.42507 0.673017 0
M  V30 6863 C 645.4 1.46362 1.80779 0
M  V30 6864 C 646.394 0.339166 1.6597 0
M  V30 6865 O 647.6 0.512262 1.72557 0
M  V30 6866 H 643.975 0.458433 0.596107 0
M  V30 6867 H 645.946 2.41953 1.74646 0
M  V30 6868 C 644.695 1.38462 3.18941 0
M  V30 6869 H 644.018 2.24283 3.30964 0
M  V30 6870 H 645.458 1.45221 3.98355 0
M  V30 6871 C 643.917 0.0996354 3.36753 0
M  V30 6872 O 644.447 -0.846894 3.92671 0
M  V30 6873 N 642.653 0.016211 2.90595 0
M  V30 6874 H 642.2 0.78725 2.45276 0
M  V30 6875 H 642.158 -0.84291 3.0289 0
M  V30 6876 N 645.93 -0.909495 1.28709 0
M  V30 6877 C 646.84 -2.04558 1.14861 0
M  V30 6878 C 647.856 -1.73842 0.0741621 0
M  V30 6879 O 649.032 -1.99383 0.2843 0
M  V30 6880 C 646.097 -3.36957 0.816148 0
M  V30 6881 C 645.158 -3.81255 1.97341 0
M  V30 6882 C 644.391 -5.07335 1.65671 0
M  V30 6883 O 644.614 -5.67514 0.573053 0
M  V30 6884 O 643.548 -5.47449 2.50167 0
M  V30 6885 H 647.374 -2.19161 2.10243 0
M  V30 6886 H 644.959 -1.03159 1.08068 0
M  V30 6887 H 646.841 -4.16436 0.644873 0
M  V30 6888 H 645.516 -3.2352 -0.107983 0
M  V30 6889 H 644.423 -3.02584 2.19986 0
M  V30 6890 H 645.756 -3.99261 2.87839 0
M  V30 6891 N 647.408 -1.11026 -1.11852 0
M  V30 6892 C 648.34 -0.72249 -2.17515 0
M  V30 6893 C 649.353 0.243782 -1.60964 0
M  V30 6894 O 650.542 0.0273252 -1.78479 0
M  V30 6895 C 647.642 -0.0463979 -3.38868 0
M  V30 6896 C 646.815 -1.0384 -4.24895 0
M  V30 6897 C 645.874 -0.392659 -5.24733 0
M  V30 6898 O 644.9 -1.0453 -5.5952 0
M  V30 6899 N 646.102 0.846296 -5.74298 0
M  V30 6900 H 648.867 -1.63161 -2.51393 0
M  V30 6901 H 646.428 -0.999899 -1.27333 0
M  V30 6902 H 648.42 0.397215 -4.02746 0
M  V30 6903 H 646.99 0.765231 -3.03089 0
M  V30 6904 H 646.21 -1.6601 -3.57539 0
M  V30 6905 H 647.498 -1.70968 -4.79215 0
M  V30 6906 H 646.896 1.39578 -5.4821 0
M  V30 6907 H 645.453 1.23296 -6.40032 0
M  V30 6908 N 648.886 1.2938 -0.899927 0
M  V30 6909 C 649.833 2.27713 -0.376243 0
M  V30 6910 C 650.803 1.57016 0.541774 0
M  V30 6911 O 651.988 1.84997 0.466966 0
M  V30 6912 C 649.128 3.42889 0.39 0
M  V30 6913 C 648.241 4.28369 -0.558938 0
M  V30 6914 C 647.376 5.30726 0.224379 0
M  V30 6915 C 646.415 6.07862 -0.719068 0
M  V30 6916 N 645.552 7.02094 0.0298569 0
M  V30 6917 H 650.392 2.71888 -1.21988 0
M  V30 6918 H 647.929 1.33724 -0.612879 0
M  V30 6919 H 649.887 4.08443 0.850314 0
M  V30 6920 H 648.517 2.99743 1.19809 0
M  V30 6921 H 647.569 3.62986 -1.13777 0
M  V30 6922 H 648.881 4.82068 -1.2811 0
M  V30 6923 H 648.035 6.02098 0.745881 0
M  V30 6924 H 646.774 4.77759 0.979674 0
M  V30 6925 H 645.779 5.35353 -1.25207 0
M  V30 6926 H 647.004 6.62917 -1.4737 0
M  V30 6927 H 644.95 6.51496 0.767415 0
M  V30 6928 H 644.867 7.5335 -0.632391 0
M  V30 6929 H 646.135 7.77685 0.531615 0
M  V30 6930 N 650.364 0.662433 1.43002 0
M  V30 6931 C 651.612 0.179237 2.01304 0
M  V30 6932 C 651.933 -1.21428 1.52579 0
M  V30 6933 O 651.203 -1.81294 0.742252 0
M  V30 6934 H 649.783 0.0632725 0.744316 0
M  V30 6935 H 652.445 0.856169 1.75088 0
M  V30 6936 H 651.541 0.170957 3.11631 0
M  V30 6937 N 651.842 -1.52309 0.404946 0
M  V30 6938 C 652.752 -2.30634 -0.429555 0
M  V30 6939 C 653.768 -1.38187 -1.05737 0
M  V30 6940 O 654.944 -1.71261 -1.05979 0
M  V30 6941 C 652.009 -3.10947 -1.53339 0
M  V30 6942 C 651.07 -4.19126 -0.929065 0
M  V30 6943 C 650.303 -4.95601 -1.9803 0
M  V30 6944 O 650.526 -4.72331 -3.1978 0
M  V30 6945 O 649.46 -5.80551 -1.58886 0
M  V30 6946 H 653.286 -3.0298 0.208963 0
M  V30 6947 H 650.871 -1.4845 0.168255 0
M  V30 6948 H 652.753 -3.60974 -2.1743 0
M  V30 6949 H 651.428 -2.41399 -2.15658 0
M  V30 6950 H 650.335 -3.73257 -0.250982 0
M  V30 6951 H 651.668 -4.90955 -0.349855 0
M  V30 6952 N 653.32 -0.135238 -1.57019 0
M  V30 6953 C 654.267 0.808908 -2.1616 0
M  V30 6954 C 655.237 1.25234 -1.09113 0
M  V30 6955 O 656.422 1.32697 -1.37099 0
M  V30 6956 C 653.562 2.04729 -2.77813 0
M  V30 6957 C 652.675 1.65074 -3.99218 0
M  V30 6958 C 651.81 2.84002 -4.48906 0
M  V30 6959 C 650.849 2.40663 -5.62803 0
M  V30 6960 N 649.986 3.5256 -6.07162 0
M  V30 6961 H 654.826 0.297751 -2.96509 0
M  V30 6962 H 652.363 0.135264 -1.46477 0
M  V30 6963 H 654.321 2.7731 -3.11697 0
M  V30 6964 H 652.951 2.53275 -2.00128 0
M  V30 6965 H 652.003 0.823029 -3.7139 0
M  V30 6966 H 653.315 1.29236 -4.81767 0
M  V30 6967 H 652.469 3.64788 -4.84783 0
M  V30 6968 H 651.208 3.23076 -3.65339 0
M  V30 6969 H 650.213 1.58314 -5.26514 0
M  V30 6970 H 651.438 2.02687 -6.48147 0
M  V30 6971 H 649.384 3.91278 -5.26534 0
M  V30 6972 H 649.301 3.20699 -6.84608 0
M  V30 6973 H 650.569 4.33738 -6.47682 0
M  V30 6974 N 654.798 1.5699 0.138552 0
M  V30 6975 C 656.047 1.82998 0.848205 0
M  V30 6976 C 656.36 0.717829 1.81952 0
M  V30 6977 O 657.566 0.863756 2.57394 0
M  V30 6978 C 656.022 3.24379 1.55904 0
M  V30 6979 C 655.63 4.43552 0.62971 0
M  V30 6980 C 657.374 3.59654 2.25498 0
M  V30 6981 C 655.281 5.75957 1.34266 0
M  V30 6982 H 654.211 0.682495 0.320495 0
M  V30 6983 H 656.862 1.83222 0.100924 0
M  V30 6984 H 655.244 3.18567 2.35226 0
M  V30 6985 H 656.418 4.6062 -0.128882 0
M  V30 6986 H 654.733 4.16379 0.0417526 0
M  V30 6987 H 657.33 4.55837 2.79493 0
M  V30 6988 H 657.673 2.86124 3.02388 0
M  V30 6989 H 658.206 3.67164 1.53087 0
M  V30 6990 H 654.945 6.52604 0.615441 0
M  V30 6991 H 654.465 5.62811 2.07375 0
M  V30 6992 H 656.144 6.19046 1.88126 0
M  V30 6993 N 656.276 -0.40816 1.52223 0
M  V30 6994 C 657.687 -0.986929 1.58482 0
M  V30 6995 C 658.038 -1.91521 0.425917 0
M  V30 6996 O 657.163 -2.11593 -0.453593 0
M  V30 6997 C 657.758 -1.7967 2.87235 0
M  V30 6998 C 656.317 -2.32549 2.9597 0
M  V30 6999 C 655.464 -1.12558 2.53428 0
M  V30 7000 H 658.415 -0.188362 1.57578 0
M  V30 7001 H 658.436 -2.65417 2.72642 0
M  V30 7002 H 657.948 -1.12082 3.71563 0
M  V30 7003 H 656.049 -3.03505 2.16137 0
M  V30 7004 H 656.162 -2.63348 4.00231 0
M  V30 7005 H 654.526 -1.47984 2.07299 0
M  V30 7006 H 655.309 -0.465351 3.40131 0
M  V30 7007 N 657.755 -1.42862 -0.66545 0
M  V30 7008 C 659.171 -1.25993 -0.979687 0
M  V30 7009 C 659.371 -0.170831 -2.00775 0
M  V30 7010 O 658.427 0.454827 -2.4837 0
M  V30 7011 C 659.74 -2.62005 -1.47559 0
M  V30 7012 C 661.288 -2.69437 -1.59288 0
M  V30 7013 C 661.763 -4.05838 -2.12272 0
M  V30 7014 N 663.254 -4.0784 -2.19592 0
M  V30 7015 C 663.989 -5.10205 -2.61684 0
M  V30 7016 N 663.485 -6.22949 -3.03161 0
M  V30 7017 N 665.278 -4.9756 -2.61516 0
M  V30 7018 H 657.429 -2.12395 0.0150493 0
M  V30 7019 H 659.692 -0.946355 -0.0558187 0
M  V30 7020 H 659.398 -3.42605 -0.794654 0
M  V30 7021 H 659.272 -2.86566 -2.45275 0
M  V30 7022 H 661.659 -1.89178 -2.26486 0
M  V30 7023 H 661.74 -2.48655 -0.600374 0
M  V30 7024 H 661.384 -4.86559 -1.4568 0
M  V30 7025 H 661.314 -4.23977 -3.12331 0
M  V30 7026 H 663.805 -3.26452 -1.90361 0
M  V30 7027 H 664.118 -6.96899 -3.33993 0
M  V30 7028 H 662.463 -6.2644 -3.00995 0
M  V30 7029 H 665.654 -4.08551 -2.28481 0
M  V30 7030 H 665.827 -5.77468 -2.93999 0
M  V30 7031 N 659.233 0.902656 -1.29189 0
M  V30 7032 C 660.473 1.6672 -1.18254 0
M  V30 7033 C 660.837 1.90199 0.262336 0
M  V30 7034 O 662.038 2.6421 0.494612 0
M  V30 7035 C 660.309 2.98178 -1.9704 0
M  V30 7036 S 661.868 3.89226 -2.02605 0
M  V30 7037 H 658.686 0.572432 -0.421714 0
M  V30 7038 H 661.288 1.07279 -1.63436 0
M  V30 7039 H 659.992 2.788 -3.01163 0
M  V30 7040 H 659.523 3.62661 -1.5245 0
M  V30 7041 H 661.538 4.82913 -1.14059 0
M  V30 7042 N 660.711 1.11618 1.11262 0
M  V30 7043 C 661.641 0.79846 2.19424 0
M  V30 7044 C 662.622 -0.234003 1.68483 0
M  V30 7045 O 663.807 -0.0970704 1.93957 0
M  V30 7046 C 660.937 0.242892 3.4645 0
M  V30 7047 C 659.891 1.20744 4.10615 0
M  V30 7048 C 659.217 0.512494 5.32238 0
M  V30 7049 C 660.517 2.55884 4.55325 0
M  V30 7050 H 662.211 1.70286 2.46258 0
M  V30 7051 H 659.757 0.820195 1.18359 0
M  V30 7052 H 661.71 0.00840447 4.21399 0
M  V30 7053 H 660.434 -0.696811 3.1908 0
M  V30 7054 H 659.093 1.42759 3.37662 0
M  V30 7055 H 658.741 -0.432075 5.01141 0
M  V30 7056 H 658.441 1.15583 5.7612 0
M  V30 7057 H 659.965 0.286842 6.09926 0
M  V30 7058 H 661.379 2.37946 5.21588 0
M  V30 7059 H 659.776 3.16216 5.10027 0
M  V30 7060 H 660.846 3.14968 3.68678 0
M  V30 7061 N 662.189 -1.289 0.906776 0
M  V30 7062 C 663.6 -1.77336 0.58384 0
M  V30 7063 C 663.951 -1.74304 -0.900697 0
M  V30 7064 O 663.076 -1.33335 -1.70443 0
M  V30 7065 C 663.671 -3.22019 1.05304 0
M  V30 7066 C 662.23 -3.68205 0.781148 0
M  V30 7067 C 661.377 -2.48837 1.22373 0
M  V30 7068 H 664.328 -1.15462 1.08877 0
M  V30 7069 H 664.349 -3.78481 0.391414 0
M  V30 7070 H 663.861 -3.24194 2.13353 0
M  V30 7071 H 661.962 -3.71497 -0.28643 0
M  V30 7072 H 662.075 -4.58675 1.384 0
M  V30 7073 H 660.439 -2.46461 0.642594 0
M  V30 7074 H 661.222 -2.53736 2.31242 0
M  V30 7075 N 663.667 -0.670007 -1.42649 0
M  V30 7076 C 664.913 -0.190568 -2.01903 0
M  V30 7077 C 665.246 1.19817 -1.52832 0
M  V30 7078 O 664.521 1.80342 -0.728485 0
M  V30 7079 C 664.804 -0.21991 -3.59428 0
M  V30 7080 C 664.657 -1.64376 -4.18689 0
M  V30 7081 C 665.976 0.434519 -4.3795 0
M  V30 7082 H 663.095 -0.0707219 -0.733599 0
M  V30 7083 H 665.737 -0.853883 -1.69732 0
M  V30 7084 H 663.887 0.344894 -3.86966 0
M  V30 7085 H 665.559 -2.26044 -4.02122 0
M  V30 7086 H 663.802 -2.18591 -3.747 0
M  V30 7087 H 664.473 -1.61601 -5.27815 0
M  V30 7088 H 666.949 -0.0462156 -4.16074 0
M  V30 7089 H 665.825 0.38333 -5.4756 0
M  V30 7090 H 666.086 1.51135 -4.15464 0
M  V30 7091 N 665.145 1.52092 -0.413018 0
M  V30 7092 C 666.385 2.03765 0.160975 0
M  V30 7093 C 666.749 1.29174 1.4205 0
M  V30 7094 O 667.95 1.71093 2.07318 0
M  V30 7095 C 666.221 3.55167 0.398871 0
M  V30 7096 S 667.78 4.28619 0.939755 0
M  V30 7097 H 664.598 0.709685 0.0432281 0
M  V30 7098 H 667.2 1.87102 -0.566831 0
M  V30 7099 H 665.904 4.07034 -0.524544 0
M  V30 7100 H 665.435 3.7608 1.15444 0
M  V30 7101 H 667.45 4.43773 2.21991 0
M  V30 7102 N 666.623 0.143563 1.56945 0
M  V30 7103 C 667.871 -0.507402 1.95627 0
M  V30 7104 C 668.192 -1.65626 1.02922 0
M  V30 7105 O 667.462 -1.95693 0.0901136 0
M  V30 7106 H 666.042 -0.190436 0.722318 0
M  V30 7107 H 668.704 0.218257 1.93674 0
M  V30 7108 H 667.8 -0.885816 2.99265 0
M  V30 7109 N 668.101 -1.57061 -0.130224 0
M  V30 7110 C 669.048 -1.99517 -1.16024 0
M  V30 7111 C 670.018 -0.865452 -1.41771 0
M  V30 7112 O 671.203 -1.12882 -1.53826 0
M  V30 7113 C 668.343 -2.3951 -2.48453 0
M  V30 7114 C 667.456 -3.65848 -2.29737 0
M  V30 7115 C 666.591 -3.9487 -3.55318 0
M  V30 7116 C 665.63 -5.14426 -3.31711 0
M  V30 7117 N 664.767 -5.39375 -4.49466 0
M  V30 7118 H 669.607 -2.87305 -0.791194 0
M  V30 7119 H 667.144 -1.42129 -0.379195 0
M  V30 7120 H 669.102 -2.60731 -3.25692 0
M  V30 7121 H 667.732 -1.54779 -2.83272 0
M  V30 7122 H 666.784 -3.52307 -1.4347 0
M  V30 7123 H 668.096 -4.53241 -2.08263 0
M  V30 7124 H 667.25 -4.16679 -4.4098 0
M  V30 7125 H 665.989 -3.05931 -3.79813 0
M  V30 7126 H 664.994 -4.92473 -2.44439 0
M  V30 7127 H 666.219 -6.04933 -3.08598 0
M  V30 7128 H 664.165 -4.53391 -4.74102 0
M  V30 7129 H 664.082 -6.21069 -4.31055 0
M  V30 7130 H 665.35 -5.65694 -5.36293 0
M  V30 7131 N 669.579 0.400081 -1.52437 0
M  V30 7132 C 670.99 0.97851 -1.59003 0
M  V30 7133 C 671.341 1.91293 -0.436068 0
M  V30 7134 O 670.466 2.1183 0.442365 0
M  V30 7135 C 671.061 1.78145 -2.88184 0
M  V30 7136 C 669.62 2.30976 -2.97199 0
M  V30 7137 C 668.767 1.11212 -2.54022 0
M  V30 7138 H 671.718 0.180002 -1.57676 0
M  V30 7139 H 671.739 2.63968 -2.74046 0
M  V30 7140 H 671.251 1.1011 -3.72152 0
M  V30 7141 H 669.352 3.02355 -2.17744 0
M  V30 7142 H 669.465 2.61221 -4.01622 0
M  V30 7143 H 667.829 1.46882 -2.08081 0
M  V30 7144 H 668.612 0.447307 -3.40373 0
M  V30 7145 N 671.057 1.43213 0.657864 0
M  V30 7146 C 672.303 1.44798 1.41991 0
M  V30 7147 C 672.636 0.070256 1.94073 0
M  V30 7148 O 671.911 -0.908177 1.71995 0
M  V30 7149 C 672.194 2.4865 2.60471 0
M  V30 7150 C 672.047 3.95679 2.13911 0
M  V30 7151 C 673.366 2.49292 3.62686 0
M  V30 7152 H 670.485 0.527244 0.514959 0
M  V30 7153 H 673.127 1.74733 0.74621 0
M  V30 7154 H 671.277 2.23254 3.17946 0
M  V30 7155 H 672.949 4.32116 1.61472 0
M  V30 7156 H 671.192 4.08733 1.45325 0
M  V30 7157 H 671.863 4.6395 2.99089 0
M  V30 7158 H 674.339 2.71917 3.14961 0
M  V30 7159 H 673.215 3.23907 4.43143 0
M  V30 7160 H 673.476 1.52502 4.14964 0
M  V30 7161 N 672.536 -0.895792 1.29666 0
M  V30 7162 C 673.484 -2.02173 1.15017 0
M  V30 7163 C 674.478 -1.69276 0.0647651 0
M  V30 7164 O 675.684 -1.7859 0.224846 0
M  V30 7165 H 672.059 -0.662719 0.355397 0
M  V30 7166 H 674.03 -2.11666 2.10334 0
M  V30 7167 C 672.779 -3.37212 0.847555 0
M  V30 7168 H 672.102 -3.6303 1.67479 0
M  V30 7169 H 673.542 -4.16668 0.785106 0
M  V30 7170 C 672.001 -3.33891 -0.44929 0
M  V30 7171 O 672.531 -3.73673 -1.47415 0
M  V30 7172 N 670.737 -2.86991 -0.456547 0
M  V30 7173 H 670.284 -2.54813 0.377925 0
M  V30 7174 H 670.242 -2.85152 -1.32423 0
M  V30 7175 N 674.014 -1.12206 -1.10668 0
M  V30 7176 C 675.425 -0.890657 -1.64086 0
M  V30 7177 C 675.776 0.575502 -1.8757 0
M  V30 7178 O 674.901 1.4394 -1.61587 0
M  V30 7179 C 675.496 -1.61029 -2.98085 0
M  V30 7180 C 674.055 -1.4251 -3.48379 0
M  V30 7181 C 673.202 -1.64778 -2.23033 0
M  V30 7182 H 676.153 -1.27718 -0.94201 0
M  V30 7183 H 676.174 -1.05993 -3.65439 0
M  V30 7184 H 675.686 -2.67735 -2.80962 0
M  V30 7185 H 673.787 -0.380497 -3.70652 0
M  V30 7186 H 673.9 -2.17959 -4.26651 0
M  V30 7187 H 672.264 -1.07171 -2.31055 0
M  V30 7188 H 673.047 -2.72776 -2.08443 0
M  V30 7189 N 675.492 1.28418 -0.913599 0
M  V30 7190 C 676.738 1.9527 -0.547484 0
M  V30 7191 C 677.071 1.71745 0.906486 0
M  V30 7192 O 676.346 1.03834 1.64465 0
M  V30 7193 C 676.629 3.49748 -0.857205 0
M  V30 7194 C 676.482 3.82675 -2.3639 0
M  V30 7195 C 677.801 4.3868 -0.353258 0
M  V30 7196 H 674.92 0.709236 -0.200381 0
M  V30 7197 H 677.562 1.51789 -1.14281 0
M  V30 7198 H 675.712 3.86915 -0.350548 0
M  V30 7199 H 677.384 3.55378 -2.94116 0
M  V30 7200 H 675.627 3.29724 -2.81894 0
M  V30 7201 H 676.298 4.90547 -2.53115 0
M  V30 7202 H 678.774 4.08584 -0.787288 0
M  V30 7203 H 677.65 5.45621 -0.599049 0
M  V30 7204 H 677.911 4.35753 0.746413 0
M  V30 7205 N 676.97 0.677563 1.42291 0
M  V30 7206 C 677.88 0.000962654 2.346 0
M  V30 7207 C 678.896 -0.785833 1.55244 0
M  V30 7208 O 680.072 -0.727523 1.87801 0
M  V30 7209 C 677.137 -0.936746 3.33805 0
M  V30 7210 C 676.198 -0.144173 4.29058 0
M  V30 7211 C 675.431 -1.03722 5.23524 0
M  V30 7212 O 675.654 -2.27675 5.22992 0
M  V30 7213 O 674.588 -0.496542 5.99848 0
M  V30 7214 H 678.414 0.761397 2.94001 0
M  V30 7215 H 675.999 0.43781 1.42841 0
M  V30 7216 H 677.881 -1.47497 3.94744 0
M  V30 7217 H 676.556 -1.67698 2.76874 0
M  V30 7218 H 675.463 0.438224 3.71524 0
M  V30 7219 H 676.796 0.55701 4.89038 0
M  V30 7220 N 678.448 -1.51871 0.421078 0
M  V30 7221 C 679.38 -2.25052 -0.434065 0
M  V30 7222 C 680.393 -1.28458 -1.00013 0
M  V30 7223 O 681.582 -1.54323 -0.897033 0
M  V30 7224 C 678.682 -2.97813 -1.61743 0
M  V30 7225 C 677.855 -4.21374 -1.17315 0
M  V30 7226 C 676.914 -4.76854 -2.22478 0
M  V30 7227 O 675.94 -5.39123 -1.82577 0
M  V30 7228 N 677.142 -4.59467 -3.54782 0
M  V30 7229 H 679.907 -2.99077 0.193073 0
M  V30 7230 H 677.468 -1.59972 0.249088 0
M  V30 7231 H 679.46 -3.3182 -2.31685 0
M  V30 7232 H 678.03 -2.26899 -2.15024 0
M  V30 7233 H 677.25 -3.93046 -0.3014 0
M  V30 7234 H 678.538 -5.01591 -0.853444 0
M  V30 7235 H 677.936 -4.09832 -3.89941 0
M  V30 7236 H 676.493 -4.9788 -4.20665 0
M  V30 7237 N 679.926 -0.151884 -1.56866 0
M  V30 7238 C 681.342 0.204486 -1.58285 0
M  V30 7239 C 681.542 1.6431 -1.16639 0
M  V30 7240 O 680.598 2.37077 -0.868946 0
M  V30 7241 C 681.911 -0.0587019 -3.00643 0
M  V30 7242 C 683.459 0.00462303 -3.13 0
M  V30 7243 C 683.934 -0.231297 -4.57416 0
M  V30 7244 N 685.425 -0.178394 -4.62856 0
M  V30 7245 C 686.16 -0.335379 -5.72418 0
M  V30 7246 N 685.656 -0.550355 -6.90611 0
M  V30 7247 N 687.449 -0.272641 -5.61438 0
M  V30 7248 H 679.6 -1.09116 -1.82229 0
M  V30 7249 H 681.863 -0.432311 -0.843689 0
M  V30 7250 H 681.569 -1.05453 -3.35518 0
M  V30 7251 H 681.443 0.658508 -3.71407 0
M  V30 7252 H 683.83 0.991009 -2.77962 0
M  V30 7253 H 683.911 -0.744992 -2.44711 0
M  V30 7254 H 683.555 -1.2148 -4.93158 0
M  V30 7255 H 683.485 0.5387 -5.23837 0
M  V30 7256 H 685.976 -0.0170923 -3.77896 0
M  V30 7257 H 686.289 -0.660116 -7.69976 0
M  V30 7258 H 684.634 -0.586736 -6.92519 0
M  V30 7259 H 687.825 -0.105421 -4.67981 0
M  V30 7260 H 687.998 -0.398418 -6.46774 0
M  V30 7261 N 681.404 1.57128 0.121893 0
M  V30 7262 C 682.336 1.96773 1.17529 0
M  V30 7263 C 683.349 0.866668 1.37814 0
M  V30 7264 O 684.538 1.14497 1.3694 0
M  V30 7265 C 681.638 2.24832 2.53582 0
M  V30 7266 C 680.811 3.56138 2.53939 0
M  V30 7267 C 679.87 3.72443 3.71716 0
M  V30 7268 O 678.896 4.44584 3.55434 0
M  V30 7269 N 680.098 3.10993 4.90167 0
M  V30 7270 H 682.863 2.87743 0.838086 0
M  V30 7271 H 680.424 1.58881 0.311199 0
M  V30 7272 H 682.416 2.32958 3.30927 0
M  V30 7273 H 680.986 1.40002 2.79496 0
M  V30 7274 H 680.206 3.59226 1.62329 0
M  V30 7275 H 681.494 4.42448 2.51231 0
M  V30 7276 H 680.892 2.52345 5.06299 0
M  V30 7277 H 679.449 3.24644 5.65198 0
M  V30 7278 N 682.882 -0.391992 1.52647 0
M  V30 7279 C 684.298 -0.731848 1.41831 0
M  V30 7280 C 684.498 -1.9423 0.536361 0
M  V30 7281 O 683.554 -2.52499 0.00866571 0
M  V30 7282 C 684.867 -0.969743 2.84634 0
M  V30 7283 C 686.415 -1.0714 2.94092 0
M  V30 7284 C 686.89 -1.34195 4.37899 0
M  V30 7285 N 688.381 -1.41023 4.41211 0
M  V30 7286 C 689.116 -1.63616 5.49561 0
M  V30 7287 N 688.612 -1.83699 6.68002 0
M  V30 7288 N 690.405 -1.65771 5.371 0
M  V30 7289 H 682.556 0.404547 2.08512 0
M  V30 7290 H 684.819 0.11879 0.940528 0
M  V30 7291 H 684.525 -0.152465 3.51369 0
M  V30 7292 H 684.399 -1.88523 3.26709 0
M  V30 7293 H 686.786 -1.87925 2.27526 0
M  V30 7294 H 686.867 -0.133887 2.55449 0
M  V30 7295 H 686.511 -0.539207 5.0503 0
M  V30 7296 H 686.441 -2.29226 4.74092 0
M  V30 7297 H 688.932 -1.27223 3.55841 0
M  V30 7298 H 689.245 -2.00437 7.46354 0
M  V30 7299 H 687.59 -1.8093 6.71036 0
M  V30 7300 H 690.781 -1.4963 4.43541 0
M  V30 7301 H 690.954 -1.83038 6.21612 0
M  V30 7302 N 684.36 -1.4356 -0.65026 0
M  V30 7303 C 685.609 -1.44619 -1.406 0
M  V30 7304 C 685.922 -0.0752645 -1.95455 0
M  V30 7305 O 687.128 0.0366832 -2.71475 0
M  V30 7306 C 685.584 -2.54511 -2.54465 0
M  V30 7307 C 685.192 -3.97723 -2.06204 0
M  V30 7308 C 686.936 -2.64768 -3.31811 0
M  V30 7309 C 684.843 -4.99075 -3.17298 0
M  V30 7310 H 683.773 -0.537983 -0.52829 0
M  V30 7311 H 686.424 -1.69559 -0.701561 0
M  V30 7312 H 684.806 -2.22777 -3.27393 0
M  V30 7313 H 685.98 -4.38932 -1.40267 0
M  V30 7314 H 684.295 -3.91538 -1.41729 0
M  V30 7315 H 686.892 -3.37664 -4.14593 0
M  V30 7316 H 687.235 -1.69936 -3.80036 0
M  V30 7317 H 687.768 -2.95817 -2.65964 0
M  V30 7318 H 684.507 -5.95469 -2.74038 0
M  V30 7319 H 684.027 -4.62476 -3.81937 0
M  V30 7320 H 685.706 -5.21913 -3.82382 0
M  V30 7321 N 685.838 0.888903 -1.30139 0
M  V30 7322 C 687.087 1.63507 -1.18103 0
M  V30 7323 C 687.4 1.93808 0.264141 0
M  V30 7324 O 688.606 2.66744 0.505966 0
M  V30 7325 C 687.062 2.94673 -2.0663 0
M  V30 7326 C 686.67 2.71926 -3.56034 0
M  V30 7327 C 688.414 3.72626 -2.03346 0
M  V30 7328 C 686.321 3.98884 -4.3663 0
M  V30 7329 H 685.251 0.613426 -0.438435 0
M  V30 7330 H 687.902 0.984427 -1.54859 0
M  V30 7331 H 686.284 3.61009 -1.62754 0
M  V30 7332 H 687.458 2.14116 -4.08033 0
M  V30 7333 H 685.773 2.07353 -3.61101 0
M  V30 7334 H 688.37 4.66775 -2.60816 0
M  V30 7335 H 688.713 4.03712 -1.016 0
M  V30 7336 H 689.246 3.13147 -2.45324 0
M  V30 7337 H 685.985 3.72959 -5.39056 0
M  V30 7338 H 685.505 4.56214 -3.89396 0
M  V30 7339 H 687.184 4.66938 -4.47859 0
M  V30 7340 N 687.317 1.12792 1.10072 0
M  V30 7341 C 688.565 0.883796 1.81751 0
M  V30 7342 C 688.886 -0.591891 1.858 0
M  V30 7343 O 688.156 -1.43017 1.33876 0
M  V30 7344 H 686.736 0.323978 0.673088 0
M  V30 7345 H 689.398 1.42314 1.33164 0
M  V30 7346 H 688.494 1.26863 2.85153 0
M  V30 7347 N 688.795 -1.27931 0.920396 0
M  V30 7348 C 690.043 -1.94304 0.555906 0
M  V30 7349 C 690.364 -1.72753 -0.904519 0
M  V30 7350 O 689.634 -1.07104 -1.64029 0
M  V30 7351 H 688.214 -0.719001 0.202599 0
M  V30 7352 H 690.876 -1.55785 1.1712 0
M  V30 7353 H 689.972 -3.02806 0.755981 0
M  V30 7354 N 690.273 -0.685099 -1.4193 0
M  V30 7355 C 691.205 0.0258679 -2.29185 0
M  V30 7356 C 692.218 0.755076 -1.44231 0
M  V30 7357 O 693.407 0.60752 -1.67844 0
M  V30 7358 C 690.507 1.06055 -3.21878 0
M  V30 7359 C 689.68 0.403088 -4.35539 0
M  V30 7360 C 688.739 1.33895 -5.0888 0
M  V30 7361 O 687.765 0.835326 -5.63037 0
M  V30 7362 N 688.967 2.6718 -5.15359 0
M  V30 7363 H 691.732 -0.723201 -2.90843 0
M  V30 7364 H 689.293 -0.53031 -1.52968 0
M  V30 7365 H 691.285 1.68813 -3.6781 0
M  V30 7366 H 689.855 1.71126 -2.616 0
M  V30 7367 H 689.075 -0.404185 -3.92122 0
M  V30 7368 H 690.363 -0.0545098 -5.08771 0
M  V30 7369 H 689.761 3.10626 -4.72788 0
M  V30 7370 H 688.318 3.25159 -5.64903 0
M  V30 7371 N 691.751 1.51645 -0.429126 0
M  V30 7372 C 692.698 2.27542 0.386446 0
M  V30 7373 C 693.668 1.30786 1.02393 0
M  V30 7374 O 694.853 1.59678 1.0444 0
M  V30 7375 C 691.993 3.11457 1.48623 0
M  V30 7376 C 691.106 4.23196 0.867691 0
M  V30 7377 C 690.241 4.94435 1.94183 0
M  V30 7378 C 689.28 5.98108 1.30129 0
M  V30 7379 N 688.417 6.62786 2.31644 0
M  V30 7380 H 693.257 2.968 -0.267155 0
M  V30 7381 H 690.794 1.46397 -0.143591 0
M  V30 7382 H 692.752 3.58429 2.13506 0
M  V30 7383 H 691.382 2.44329 2.10957 0
M  V30 7384 H 690.434 3.80248 0.107373 0
M  V30 7385 H 691.746 4.97499 0.35997 0
M  V30 7386 H 690.9 5.44914 2.66747 0
M  V30 7387 H 689.639 4.19744 2.48326 0
M  V30 7388 H 688.644 5.4693 0.561082 0
M  V30 7389 H 689.869 6.74751 0.767303 0
M  V30 7390 H 687.815 5.90913 2.84883 0
M  V30 7391 H 687.732 7.32828 1.85741 0
M  V30 7392 H 689 7.17897 3.03717 0
M  V30 7393 N 693.229 0.160201 1.56784 0
M  V30 7394 C 694.192 -0.760405 2.16219 0
M  V30 7395 C 695.192 -1.16595 1.10735 0
M  V30 7396 O 696.382 -1.08472 1.36306 0
M  V30 7397 C 693.514 -2.03358 2.73603 0
M  V30 7398 H 694.707 -0.243173 2.98912 0
M  V30 7399 H 692.26 -0.0893139 1.56045 0
M  V30 7400 H 692.995 -2.59416 1.94612 0
M  V30 7401 H 692.78 -1.75186 3.50788 0
M  V30 7402 H 694.27 -2.69081 3.19351 0
M  V30 7403 N 694.707 -1.5719 -0.113559 0
M  V30 7404 C 695.654 -2.00736 -1.13901 0
M  V30 7405 C 696.624 -0.88044 -1.40846 0
M  V30 7406 O 697.809 -1.14507 -1.5262 0
M  V30 7407 C 694.949 -2.42132 -2.45899 0
M  V30 7408 C 694.062 -3.68264 -2.25844 0
M  V30 7409 C 693.197 -3.98617 -3.5111 0
M  V30 7410 C 692.236 -5.17915 -3.26236 0
M  V30 7411 N 691.373 -5.44111 -4.4372 0
M  V30 7412 H 696.213 -2.88128 -0.760677 0
M  V30 7413 H 693.75 -1.42523 -0.364099 0
M  V30 7414 H 695.708 -2.6417 -3.22908 0
M  V30 7415 H 694.338 -1.57775 -2.81615 0
M  V30 7416 H 693.39 -3.53809 -1.39726 0
M  V30 7417 H 694.702 -4.55425 -2.03444 0
M  V30 7418 H 693.856 -4.21333 -4.36536 0
M  V30 7419 H 692.595 -3.09942 -3.76546 0
M  V30 7420 H 691.6 -4.95038 -2.39202 0
M  V30 7421 H 692.825 -6.08172 -3.02165 0
M  V30 7422 H 690.771 -4.58394 -4.69266 0
M  V30 7423 H 690.688 -6.25606 -4.24444 0
M  V30 7424 H 691.956 -5.71351 -5.30263 0
M  V30 7425 N 696.185 0.383891 -1.52853 0
M  V30 7426 C 697.118 1.49105 -1.72751 0
M  V30 7427 C 698.096 1.52077 -0.575438 0
M  V30 7428 O 699.28 1.70406 -0.805854 0
M  V30 7429 C 696.407 2.87551 -1.78975 0
M  V30 7430 C 695.453 3.02383 -3.00777 0
M  V30 7431 S 696.286 2.73048 -4.60657 0
M  V30 7432 C 697.442 4.13678 -4.69704 0
M  V30 7433 H 697.675 1.32002 -2.66388 0
M  V30 7434 H 695.208 0.577088 -1.4321 0
M  V30 7435 H 697.166 3.6733 -1.83246 0
M  V30 7436 H 695.827 3.01977 -0.864215 0
M  V30 7437 H 695.02 4.03733 -3.01688 0
M  V30 7438 H 694.622 2.30504 -2.94523 0
M  V30 7439 H 696.914 5.07676 -4.48633 0
M  V30 7440 H 697.857 4.1778 -5.71721 0
M  V30 7441 H 698.265 3.99825 -3.98497 0
M  V30 7442 N 697.663 1.43903 0.642637 0
M  V30 7443 C 698.911 1.45791 1.39962 0
M  V30 7444 C 699.232 0.0873144 1.94804 0
M  V30 7445 O 698.502 -0.878825 1.75081 0
M  V30 7446 H 697.082 0.536797 0.519479 0
M  V30 7447 H 699.744 1.7959 0.757189 0
M  V30 7448 H 698.84 2.17665 2.2367 0
M  V30 7449 N 699.141 -0.881989 1.30609 0
M  V30 7450 C 700.089 -2.00942 1.17155 0
M  V30 7451 C 701.083 -1.69198 0.0827154 0
M  V30 7452 O 702.289 -1.78342 0.243775 0
M  V30 7453 H 698.664 -0.658913 0.362406 0
M  V30 7454 H 700.635 -2.09423 2.12567 0
M  V30 7455 C 699.384 -3.36294 0.883273 0
M  V30 7456 H 698.707 -3.61233 1.7132 0
M  V30 7457 H 700.147 -4.15812 0.829255 0
M  V30 7458 C 698.606 -3.34348 -0.413851 0
M  V30 7459 O 699.136 -3.75216 -1.43444 0
M  V30 7460 N 697.342 -2.87459 -0.426082 0
M  V30 7461 H 696.889 -2.54397 0.40493 0
M  V30 7462 H 696.847 -2.8654 -1.29391 0
M  V30 7463 N 700.619 -1.13374 -1.09472 0
M  V30 7464 C 701.866 -0.89519 -1.81639 0
M  V30 7465 C 702.194 0.57868 -1.85692 0
M  V30 7466 O 701.449 1.44426 -1.32059 0
M  V30 7467 C 701.748 -1.42759 -3.2765 0
M  V30 7468 C 701.414 -2.91822 -3.43731 0
M  V30 7469 C 700.076 -3.32521 -3.47827 0
M  V30 7470 C 702.428 -3.87727 -3.48307 0
M  V30 7471 C 699.756 -4.6781 -3.54078 0
M  V30 7472 C 702.108 -5.22859 -3.56091 0
M  V30 7473 C 700.772 -5.63086 -3.58456 0
M  V30 7474 H 700.042 -0.327573 -0.664663 0
M  V30 7475 H 702.689 -1.4156 -1.28969 0
M  V30 7476 H 700.994 -0.827871 -3.82954 0
M  V30 7477 H 702.691 -1.2191 -3.8202 0
M  V30 7478 H 699.281 -2.5935 -3.41226 0
M  V30 7479 H 703.465 -3.57371 -3.44383 0
M  V30 7480 H 698.721 -4.98353 -3.54195 0
M  V30 7481 H 702.895 -5.96989 -3.58577 0
M  V30 7482 H 700.522 -6.67905 -3.63052 0
M  V30 7483 N 702.098 1.27442 -0.927168 0
M  V30 7484 C 703.509 1.76385 -0.611979 0
M  V30 7485 C 703.86 1.75715 0.872853 0
M  V30 7486 O 702.985 1.3603 1.683 0
M  V30 7487 C 703.58 3.20303 -1.10414 0
M  V30 7488 C 702.139 3.66916 -0.839628 0
M  V30 7489 C 701.286 2.46859 -1.26317 0
M  V30 7490 H 704.237 1.13716 -1.107 0
M  V30 7491 H 704.258 3.77811 -0.451578 0
M  V30 7492 H 703.77 3.20759 -2.18484 0
M  V30 7493 H 701.871 3.71906 0.227292 0
M  V30 7494 H 701.984 4.56415 -1.45679 0
M  V30 7495 H 700.348 2.45407 -0.681723 0
M  V30 7496 H 701.131 2.50025 -2.3525 0
M  V30 7497 N 703.576 0.692616 1.41565 0
M  V30 7498 C 704.822 0.231408 2.02079 0
M  V30 7499 C 705.177 -1.15514 1.53864 0
M  V30 7500 O 704.47 -1.76786 0.73873 0
M  V30 7501 C 704.664 0.225073 3.56691 0
M  V30 7502 C 704.493 1.60947 4.19912 0
M  V30 7503 C 703.263 2.2116 4.54331 0
M  V30 7504 C 705.461 2.55553 4.46315 0
M  V30 7505 N 703.443 3.52195 5.02824 0
M  V30 7506 C 704.814 3.71263 4.96552 0
M  V30 7507 C 706.869 2.53857 4.28323 0
M  V30 7508 C 705.572 4.85555 5.30687 0
M  V30 7509 C 707.598 3.67259 4.63546 0
M  V30 7510 C 706.96 4.81699 5.13951 0
M  V30 7511 H 703.059 0.130001 0.771119 0
M  V30 7512 H 705.643 0.909459 1.72154 0
M  V30 7513 H 703.814 -0.422453 3.86096 0
M  V30 7514 H 705.546 -0.250685 4.03923 0
M  V30 7515 H 702.301 1.73474 4.40685 0
M  V30 7516 H 702.725 4.19354 5.3148 0
M  V30 7517 H 707.367 1.66598 3.88594 0
M  V30 7518 H 705.085 5.73477 5.69341 0
M  V30 7519 H 708.671 3.67195 4.51286 0
M  V30 7520 H 707.551 5.67995 5.40695 0
M  V30 7521 N 705.054 -1.51416 0.437162 0
M  V30 7522 C 705.986 -2.255 -0.410171 0
M  V30 7523 C 706.999 -1.29511 -0.986444 0
M  V30 7524 O 708.188 -1.55266 -0.880614 0
M  V30 7525 C 705.288 -2.99511 -1.58575 0
M  V30 7526 C 704.461 -4.22595 -1.12839 0
M  V30 7527 C 703.52 -4.79187 -2.17407 0
M  V30 7528 O 702.546 -5.4103 -1.76849 0
M  V30 7529 N 703.748 -4.63204 -3.49889 0
M  V30 7530 H 706.513 -2.98856 0.224783 0
M  V30 7531 H 704.074 -1.59699 0.266041 0
M  V30 7532 H 706.066 -3.34258 -2.28152 0
M  V30 7533 H 704.636 -2.29167 -2.12606 0
M  V30 7534 H 703.856 -3.93344 -0.259695 0
M  V30 7535 H 705.144 -5.02468 -0.800196 0
M  V30 7536 H 704.542 -4.13945 -3.85573 0
M  V30 7537 H 703.099 -5.02313 -4.15361 0
M  V30 7538 N 706.532 -0.168513 -1.56696 0
M  V30 7539 C 707.778 0.477865 -1.9709 0
M  V30 7540 C 708.111 1.63084 -1.05438 0
M  V30 7541 O 707.386 1.94238 -0.10095 0
M  V30 7542 C 707.669 0.963521 -3.4697 0
M  V30 7543 C 707.522 -0.189443 -4.49401 0
M  V30 7544 C 708.841 1.83813 -3.99876 0
M  V30 7545 H 705.96 0.172229 -0.716593 0
M  V30 7546 H 708.602 -0.254083 -1.88293 0
M  V30 7547 H 706.752 1.58724 -3.54597 0
M  V30 7548 H 708.424 -0.826451 -4.53836 0
M  V30 7549 H 706.667 -0.845366 -4.25483 0
M  V30 7550 H 707.338 0.192446 -5.51664 0
M  V30 7551 H 709.814 1.31235 -3.94863 0
M  V30 7552 H 708.69 2.14697 -5.0517 0
M  V30 7553 H 708.951 2.78289 -3.43523 0
M  V30 7554 N 708.01 1.57248 0.105221 0
M  V30 7555 C 709.257 1.8557 0.810552 0
M  V30 7556 C 709.585 0.755595 1.79223 0
M  V30 7557 O 708.84 -0.251788 1.94073 0
M  V30 7558 C 709.139 3.20437 1.58287 0
M  V30 7559 C 708.805 4.44716 0.744235 0
M  V30 7560 C 707.467 4.78458 0.513013 0
M  V30 7561 C 709.819 5.20953 0.160578 0
M  V30 7562 C 707.147 5.8587 -0.311894 0
M  V30 7563 C 709.499 6.29235 -0.651596 0
M  V30 7564 C 708.163 6.615 -0.893005 0
M  V30 7565 H 707.433 0.67905 0.296602 0
M  V30 7566 H 710.08 1.91363 0.0723968 0
M  V30 7567 H 708.385 3.10283 2.39232 0
M  V30 7568 H 710.082 3.39576 2.13282 0
M  V30 7569 H 706.672 4.18287 0.934555 0
M  V30 7570 H 710.856 4.95226 0.3264 0
M  V30 7571 H 706.112 6.09286 -0.508012 0
M  V30 7572 H 710.286 6.87484 -1.11077 0
M  V30 7573 H 707.913 7.44562 -1.53401 0
M  V30 7574 N 709.488 -0.375779 1.53054 0
M  V30 7575 C 710.716 -1.14036 1.72637 0
M  V30 7576 C 711.131 -1.83342 0.450687 0
M  V30 7577 O 710.488 -1.7318 -0.575749 0
M  V30 7578 C 710.539 -2.17841 2.88492 0
M  V30 7579 O 710.26 -1.51358 4.11123 0
M  V30 7580 C 711.761 -3.06924 3.19863 0
M  V30 7581 H 708.981 -0.341386 0.577665 0
M  V30 7582 H 711.525 -0.437809 1.99759 0
M  V30 7583 H 709.68 -2.8371 2.63794 0
M  V30 7584 H 710.094 -2.20439 4.75928 0
M  V30 7585 H 711.568 -3.75763 4.04359 0
M  V30 7586 H 712.045 -3.71169 2.34798 0
M  V30 7587 H 712.651 -2.46684 3.46449 0
M  V30 7588 N 710.966 -1.44241 -0.634997 0
M  V30 7589 C 711.914 -1.51103 -1.76835 0
M  V30 7590 C 712.908 -0.383051 -1.65012 0
M  V30 7591 O 714.114 -0.557832 -1.71138 0
M  V30 7592 H 710.489 -0.474076 -0.583743 0
M  V30 7593 H 712.46 -2.46499 -1.68169 0
M  V30 7594 C 711.209 -1.4687 -3.15158 0
M  V30 7595 H 710.532 -2.32979 -3.24901 0
M  V30 7596 H 711.972 -1.55731 -3.94365 0
M  V30 7597 C 710.431 -0.188884 -3.3637 0
M  V30 7598 O 710.961 0.742487 -3.94778 0
M  V30 7599 N 709.167 -0.0932516 -2.9045 0
M  V30 7600 H 708.714 -0.852004 -2.43102 0
M  V30 7601 H 708.672 0.762308 -3.05018 0
M  V30 7602 N 712.444 0.87505 -1.31075 0
M  V30 7603 C 713.693 1.62245 -1.19831 0
M  V30 7604 C 714.006 1.94078 0.24357 0
M  V30 7605 O 715.212 2.67265 0.477646 0
M  V30 7606 C 713.668 2.92464 -2.09744 0
M  V30 7607 C 713.276 2.68134 -3.58898 0
M  V30 7608 C 715.02 3.70449 -2.07287 0
M  V30 7609 C 712.927 3.9423 -4.40836 0
M  V30 7610 H 711.857 0.608741 -0.444916 0
M  V30 7611 H 714.508 0.967947 -1.55894 0
M  V30 7612 H 712.89 3.59262 -1.66574 0
M  V30 7613 H 714.064 2.09776 -4.10281 0
M  V30 7614 H 712.379 2.03511 -3.6328 0
M  V30 7615 H 714.976 4.63983 -2.65752 0
M  V30 7616 H 715.319 4.02611 -1.05876 0
M  V30 7617 H 715.852 3.10528 -2.48631 0
M  V30 7618 H 712.591 3.67221 -5.42982 0
M  V30 7619 H 712.111 4.52058 -3.94213 0
M  V30 7620 H 713.79 4.62162 -4.52786 0
M  V30 7621 N 713.922 1.13953 1.08869 0
M  V30 7622 C 714.872 0.790812 2.13846 0
M  V30 7623 C 715.856 -0.217819 1.59419 0
M  V30 7624 O 717.048 -0.0208723 1.76988 0
M  V30 7625 C 714.177 0.26479 3.42277 0
M  V30 7626 C 713.263 1.30267 4.03598 0
M  V30 7627 N 713.654 2.50535 4.39393 0
M  V30 7628 C 711.952 1.15178 4.30871 0
M  V30 7629 C 712.653 3.16938 4.87776 0
M  V30 7630 N 711.629 2.44349 4.85587 0
M  V30 7631 H 715.431 1.70577 2.39334 0
M  V30 7632 H 712.945 1.02268 1.26154 0
M  V30 7633 H 714.942 -0.00330398 4.169 0
M  V30 7634 H 713.602 -0.644419 3.18241 0
M  V30 7635 H 714.613 2.87798 4.30572 0
M  V30 7636 H 711.29 0.301204 4.16412 0
M  V30 7637 H 712.68 4.19453 5.2489 0
M  V30 7638 N 715.4 -1.26948 0.933913 0
M  V30 7639 C 716.648 -1.93704 0.576484 0
M  V30 7640 C 716.969 -1.73702 -0.886145 0
M  V30 7641 O 716.239 -1.08838 -1.62884 0
M  V30 7642 H 714.819 -0.716812 0.210214 0
M  V30 7643 H 717.481 -1.54534 1.18766 0
M  V30 7644 H 716.577 -3.01987 0.788055 0
M  V30 7645 N 716.879 -0.700114 -1.41195 0
M  V30 7646 C 718.295 -0.372114 -1.55201 0
M  V30 7647 C 718.495 1.12053 -1.6747 0
M  V30 7648 O 717.551 1.90642 -1.65566 0
M  V30 7649 C 718.864 -1.12462 -2.78878 0
M  V30 7650 C 720.412 -1.10941 -2.92679 0
M  V30 7651 C 720.887 -1.84376 -4.19249 0
M  V30 7652 N 722.378 -1.81368 -4.26216 0
M  V30 7653 C 723.113 -2.35024 -5.23021 0
M  V30 7654 N 722.609 -2.9717 -6.25829 0
M  V30 7655 N 724.402 -2.25254 -5.14992 0
M  V30 7656 H 716.553 -1.66816 -1.31477 0
M  V30 7657 H 718.816 -0.704223 -0.634644 0
M  V30 7658 H 718.522 -2.17937 -2.76037 0
M  V30 7659 H 718.396 -0.706152 -3.70531 0
M  V30 7660 H 720.783 -0.062911 -2.95033 0
M  V30 7661 H 720.864 -1.56698 -2.02187 0
M  V30 7662 H 720.508 -2.89008 -4.17656 0
M  V30 7663 H 720.438 -1.3605 -5.08722 0
M  V30 7664 H 722.929 -1.36062 -3.52556 0
M  V30 7665 H 723.242 -3.35668 -6.96094 0
M  V30 7666 H 721.587 -3.01249 -6.26318 0
M  V30 7667 H 724.778 -1.76372 -4.33602 0
M  V30 7668 H 724.951 -2.67373 -5.90268 0
M  V30 7669 N 718.357 1.51182 -0.445186 0
M  V30 7670 C 719.605 2.01753 0.11841 0
M  V30 7671 C 719.926 1.33087 1.42523 0
M  V30 7672 O 719.196 0.467891 1.9023 0
M  V30 7673 H 717.776 0.745536 0.0467492 0
M  V30 7674 H 720.438 1.85765 -0.589688 0
M  V30 7675 H 719.534 3.10762 0.288665 0
M  V30 7676 N 719.835 0.176821 1.56605 0
M  V30 7677 C 721.083 -0.465793 1.96659 0
M  V30 7678 C 721.404 -1.63406 1.06412 0
M  V30 7679 O 720.674 -1.95457 0.131603 0
M  V30 7680 H 719.254 -0.175072 0.726195 0
M  V30 7681 H 721.916 0.25929 1.93168 0
M  V30 7682 H 721.012 -0.822138 3.01077 0
M  V30 7683 N 721.313 -1.57302 -0.09688 0
M  V30 7684 C 722.561 -1.8563 -0.799117 0
M  V30 7685 C 722.882 -0.765263 -1.79356 0
M  V30 7686 O 722.152 0.208657 -1.94786 0
M  V30 7687 H 720.732 -0.684937 -0.298111 0
M  V30 7688 H 723.394 -1.9474 -0.0789341 0
M  V30 7689 H 722.49 -2.82305 -1.3308 0
M  V30 7690 N 722.791 0.367657 -1.53252 0
M  V30 7691 C 723.754 1.43308 -1.78873 0
M  V30 7692 C 724.754 1.46671 -0.659115 0
M  V30 7693 O 725.944 1.47468 -0.927306 0
M  V30 7694 C 723.076 2.82442 -1.90892 0
M  V30 7695 H 724.269 1.21864 -2.74024 0
M  V30 7696 H 721.822 0.600668 -1.44297 0
M  V30 7697 H 722.557 3.09202 -0.978 0
M  V30 7698 H 722.342 2.81399 -2.73051 0
M  V30 7699 H 723.832 3.59601 -2.12314 0
M  V30 7700 N 724.269 1.44576 0.627338 0
M  V30 7701 C 725.199 1.54562 1.75022 0
M  V30 7702 C 726.18 0.398378 1.65369 0
M  V30 7703 O 727.365 0.61899 1.84071 0
M  V30 7704 C 724.495 1.49309 3.13567 0
M  V30 7705 C 723.449 2.62549 3.38012 0
M  V30 7706 C 722.775 2.42348 4.76625 0
M  V30 7707 C 724.075 4.04678 3.30202 0
M  V30 7708 H 725.769 2.4855 1.66922 0
M  V30 7709 H 723.315 1.19624 0.801636 0
M  V30 7710 H 725.268 1.54895 3.919 0
M  V30 7711 H 723.992 0.518392 3.2246 0
M  V30 7712 H 722.651 2.56358 2.62061 0
M  V30 7713 H 722.299 1.43062 4.82226 0
M  V30 7714 H 721.999 3.18273 4.93939 0
M  V30 7715 H 723.523 2.49758 5.57183 0
M  V30 7716 H 724.937 4.12217 3.98435 0
M  V30 7717 H 723.334 4.80836 3.5905 0
M  V30 7718 H 724.404 4.2798 2.27949 0
M  V30 7719 N 725.747 -0.868086 1.31537 0
M  V30 7720 C 726.677 -1.99131 1.21939 0
M  V30 7721 C 727.658 -1.69768 0.106166 0
M  V30 7722 O 728.843 -1.92006 0.291081 0
M  V30 7723 C 725.973 -3.34676 0.927879 0
M  V30 7724 C 724.927 -3.7835 2.00088 0
M  V30 7725 C 724.253 -5.11375 1.56203 0
M  V30 7726 C 725.553 -3.95256 3.41424 0
M  V30 7727 H 727.247 -2.07419 2.15911 0
M  V30 7728 H 724.793 -0.996569 1.03945 0
M  V30 7729 H 726.746 -4.12793 0.847327 0
M  V30 7730 H 725.47 -3.26565 -0.0475042 0
M  V30 7731 H 724.129 -3.02474 2.07135 0
M  V30 7732 H 723.777 -4.99709 0.57445 0
M  V30 7733 H 723.477 -5.41568 2.27985 0
M  V30 7734 H 725.001 -5.92001 1.49558 0
M  V30 7735 H 726.415 -4.63764 3.3704 0
M  V30 7736 H 724.812 -4.36849 4.1144 0
M  V30 7737 H 725.882 -2.98579 3.82072 0
M  V30 7738 N 727.225 -1.14528 -1.08264 0
M  V30 7739 C 728.473 -0.912599 -1.80322 0
M  V30 7740 C 728.794 0.562256 -1.86718 0
M  V30 7741 O 728.064 1.40869 -1.36135 0
M  V30 7742 H 726.644 -0.334645 -0.667849 0
M  V30 7743 H 729.306 -1.44415 -1.30883 0
M  V30 7744 H 728.402 -1.31384 -2.83098 0
M  V30 7745 N 728.703 1.26451 -0.940633 0
M  V30 7746 C 729.98 1.88947 -0.505811 0
M  V30 7747 C 730.36 1.85011 1.01657 0
M  V30 7748 O 729.708 1.30406 1.87634 0
M  V30 7749 C 729.918 3.32304 -1.06654 0
M  V30 7750 C 731.266 4.09153 -1.13486 0
M  V30 7751 O 732.29 3.41371 -1.01708 0
M  V30 7752 O 731.149 5.30369 -1.31797 0
M  V30 7753 H 728.243 0.810422 -0.164759 0
M  V30 7754 H 730.789 1.34625 -1.03316 0
M  V30 7755 H 729.561 3.29527 -2.11015 0
M  V30 7756 H 729.184 3.94164 -0.521603 0
M  V30 7757 N 730.181 0.707592 1.40822 0
M  V30 7758 C 731.597 0.38034 1.55002 0
M  V30 7759 C 731.797 -1.11163 1.68062 0
M  V30 7760 O 730.853 -1.89761 1.66574 0
M  V30 7761 C 732.166 1.1394 2.78277 0
M  V30 7762 C 733.714 1.12492 2.92087 0
M  V30 7763 C 734.189 1.86597 4.18265 0
M  V30 7764 N 735.68 1.83626 4.25248 0
M  V30 7765 C 736.415 2.37794 5.21768 0
M  V30 7766 N 735.911 3.00485 6.24244 0
M  V30 7767 N 737.704 2.27982 5.13791 0
M  V30 7768 H 729.855 1.67511 1.3059 0
M  V30 7769 H 732.118 0.707579 0.630901 0
M  V30 7770 H 731.824 2.19398 2.74877 0
M  V30 7771 H 731.698 0.725793 3.70151 0
M  V30 7772 H 734.085 0.0785564 2.94995 0
M  V30 7773 H 734.166 1.57768 2.01353 0
M  V30 7774 H 733.81 2.91219 4.16118 0
M  V30 7775 H 733.74 1.38746 5.07993 0
M  V30 7776 H 736.231 1.3793 3.51829 0
M  V30 7777 H 736.544 3.39355 6.94304 0
M  V30 7778 H 734.889 3.04567 6.24711 0
M  V30 7779 H 738.08 1.78669 4.3266 0
M  V30 7780 H 738.253 2.70499 5.88841 0
M  V30 7781 N 731.66 -1.50943 0.453197 0
M  V30 7782 C 732.906 -2.03153 -0.100277 0
M  V30 7783 C 733.261 -1.33032 -1.38997 0
M  V30 7784 O 732.554 -0.441423 -1.86446 0
M  V30 7785 C 732.748 -3.55603 -0.357944 0
M  V30 7786 C 732.577 -4.40495 0.905223 0
M  V30 7787 C 731.347 -4.84247 1.44337 0
M  V30 7788 C 733.545 -4.81931 1.79575 0
M  V30 7789 N 731.527 -5.53403 2.65742 0
M  V30 7790 C 732.898 -5.50314 2.85577 0
M  V30 7791 C 734.953 -4.63903 1.80828 0
M  V30 7792 C 733.656 -6.02581 3.92797 0
M  V30 7793 C 735.682 -5.17097 2.86993 0
M  V30 7794 C 735.044 -5.8544 3.91713 0
M  V30 7795 H 731.143 -0.781995 0.00287755 0
M  V30 7796 H 733.727 -1.84651 0.617411 0
M  V30 7797 H 731.898 -3.74087 -1.04467 0
M  V30 7798 H 733.63 -3.9447 -0.904175 0
M  V30 7799 H 730.385 -4.63029 0.995045 0
M  V30 7800 H 730.809 -5.92598 3.27348 0
M  V30 7801 H 735.451 -4.10512 1.0119 0
M  V30 7802 H 733.169 -6.55018 4.73262 0
M  V30 7803 H 736.755 -5.0499 2.88923 0
M  V30 7804 H 735.635 -6.25861 4.72512 0
M  V30 7805 N 733.138 -0.185124 -1.56509 0
M  V30 7806 C 734.387 0.456421 -1.96468 0
M  V30 7807 C 734.7 1.63448 -1.07444 0
M  V30 7808 O 735.906 2.34316 -1.37143 0
M  V30 7809 C 734.362 0.863404 -3.4939 0
M  V30 7810 C 733.97 -0.289815 -4.47062 0
M  V30 7811 C 735.714 1.47259 -3.98139 0
M  V30 7812 C 733.621 0.137571 -5.9124 0
M  V30 7813 H 732.551 0.17429 -0.733579 0
M  V30 7814 H 735.202 -0.275554 -1.81419 0
M  V30 7815 H 733.584 1.65176 -3.59907 0
M  V30 7816 H 734.758 -1.06728 -4.4827 0
M  V30 7817 H 733.073 -0.809851 -4.08449 0
M  V30 7818 H 735.67 1.80463 -5.03326 0
M  V30 7819 H 736.013 2.3755 -3.41871 0
M  V30 7820 H 736.546 0.748405 -3.90696 0
M  V30 7821 H 733.285 -0.730907 -6.51412 0
M  V30 7822 H 732.805 0.8801 -5.93308 0
M  V30 7823 H 734.484 0.576771 -6.44424 0
M  V30 7824 N 734.616 1.57351 0.0885366 0
M  V30 7825 C 735.546 2.05561 1.10757 0
M  V30 7826 C 736.527 0.945789 1.41382 0
M  V30 7827 O 737.712 1.21747 1.51299 0
M  V30 7828 C 734.842 2.48554 2.42566 0
M  V30 7829 C 733.796 3.63259 2.26334 0
M  V30 7830 C 733.122 3.9225 3.63378 0
M  V30 7831 C 734.422 4.93913 1.69844 0
M  V30 7832 H 736.116 2.90946 0.706468 0
M  V30 7833 H 733.662 1.39968 0.338385 0
M  V30 7834 H 735.615 2.8089 3.14132 0
M  V30 7835 H 734.339 1.60176 2.84625 0
M  V30 7836 H 732.998 3.31179 1.57213 0
M  V30 7837 H 732.646 3.0103 4.02976 0
M  V30 7838 H 732.346 4.69478 3.53362 0
M  V30 7839 H 733.87 4.27067 4.36401 0
M  V30 7840 H 735.284 5.24588 2.31258 0
M  V30 7841 H 733.681 5.75349 1.70569 0
M  V30 7842 H 734.751 4.80409 0.65843 0
M  V30 7843 N 736.094 -0.359525 1.53444 0
M  V30 7844 C 737.322 -1.12198 1.73837 0
M  V30 7845 C 737.737 -1.82854 0.470107 0
M  V30 7846 O 737.094 -1.73781 -0.557349 0
M  V30 7847 C 737.145 -2.14769 2.90786 0
M  V30 7848 O 736.866 -1.46989 4.12706 0
M  V30 7849 C 738.367 -3.03514 3.231 0
M  V30 7850 H 735.587 -0.33524 0.581253 0
M  V30 7851 H 738.131 -0.416598 2.00212 0
M  V30 7852 H 736.286 -2.80896 2.66788 0
M  V30 7853 H 736.7 -2.15378 4.78239 0
M  V30 7854 H 738.174 -3.71453 4.08322 0
M  V30 7855 H 738.651 -3.68658 2.38721 0
M  V30 7856 H 739.257 -2.42996 3.49046 0
M  V30 7857 N 737.572 -1.44907 -0.619662 0
M  V30 7858 C 738.535 -1.52282 -1.71297 0
M  V30 7859 C 739.535 -0.40359 -1.55653 0
M  V30 7860 O 740.725 -0.666638 -1.6094 0
M  V30 7861 C 737.857 -1.40778 -3.10474 0
M  V30 7862 H 739.05 -2.49683 -1.66128 0
M  V30 7863 H 736.603 -1.32168 -0.834339 0
M  V30 7864 H 737.338 -0.445156 -3.2123 0
M  V30 7865 H 737.123 -2.21947 -3.23237 0
M  V30 7866 H 738.613 -1.48946 -3.90135 0
M  V30 7867 N 739.05 0.861098 -1.31996 0
M  V30 7868 C 740.013 1.95068 -1.20338 0
M  V30 7869 C 741.013 1.60289 -0.128114 0
M  V30 7870 O 742.203 1.70048 -0.378044 0
M  V30 7871 C 739.335 3.30153 -0.849205 0
M  V30 7872 H 740.528 2.06833 -2.17164 0
M  V30 7873 H 738.081 1.05049 -1.15734 0
M  V30 7874 H 738.816 3.24087 0.117508 0
M  V30 7875 H 738.601 3.56771 -1.62655 0
M  V30 7876 H 740.091 4.10025 -0.791782 0
M  V30 7877 N 740.528 1.15101 1.07655 0
M  V30 7878 C 741.478 0.813448 2.12995 0
M  V30 7879 C 742.462 -0.200899 1.59641 0
M  V30 7880 O 743.654 -0.00209918 1.77 0
M  V30 7881 C 740.783 0.301078 3.41977 0
M  V30 7882 C 739.869 1.3454 4.02194 0
M  V30 7883 N 740.26 2.55181 4.36711 0
M  V30 7884 C 738.558 1.19742 4.29625 0
M  V30 7885 C 739.259 3.22094 4.84387 0
M  V30 7886 N 738.235 2.49486 4.82968 0
M  V30 7887 H 742.037 1.73105 2.37511 0
M  V30 7888 H 739.551 1.03601 1.25063 0
M  V30 7889 H 741.548 0.040914 4.1688 0
M  V30 7890 H 740.208 -0.610629 3.18907 0
M  V30 7891 H 741.219 2.92349 4.27496 0
M  V30 7892 H 737.896 0.345353 4.16069 0
M  V30 7893 H 739.286 4.24996 5.20411 0
M  V30 7894 N 742.006 -1.2595 0.947325 0
M  V30 7895 C 743.234 -1.97544 0.615127 0
M  V30 7896 C 743.649 -1.70484 -0.811221 0
M  V30 7897 O 743.006 -0.97662 -1.5417 0
M  V30 7898 C 743.057 -3.51236 0.855328 0
M  V30 7899 O 742.778 -3.77359 2.22558 0
M  V30 7900 C 744.279 -4.40066 0.534515 0
M  V30 7901 H 741.499 -0.629888 0.231263 0
M  V30 7902 H 744.043 -1.60308 1.26971 0
M  V30 7903 H 742.198 -3.8661 0.247266 0
M  V30 7904 H 742.612 -4.71857 2.29022 0
M  V30 7905 H 744.086 -5.46838 0.753168 0
M  V30 7906 H 744.563 -4.35982 -0.530701 0
M  V30 7907 H 745.169 -4.10245 1.12158 0
M  V30 7908 N 743.484 -0.715051 -1.40445 0
M  V30 7909 C 744.414 -0.0768699 -2.33373 0
M  V30 7910 C 745.395 0.746109 -1.52863 0
M  V30 7911 O 746.58 0.695142 -1.81332 0
M  V30 7912 C 743.71 0.846014 -3.36838 0
M  V30 7913 C 742.664 0.128694 -4.27806 0
M  V30 7914 C 741.99 1.16726 -5.21804 0
M  V30 7915 C 743.29 -1.01679 -5.12307 0
M  V30 7916 H 744.984 -0.853061 -2.8699 0
M  V30 7917 H 742.53 -0.41167 -1.3799 0
M  V30 7918 H 744.483 1.30185 -4.00786 0
M  V30 7919 H 743.207 1.6541 -2.81615 0
M  V30 7920 H 741.866 -0.307314 -3.6531 0
M  V30 7921 H 741.514 1.96838 -4.62887 0
M  V30 7922 H 741.214 0.692188 -5.83509 0
M  V30 7923 H 742.738 1.62321 -5.88629 0
M  V30 7924 H 744.152 -0.640337 -5.69713 0
M  V30 7925 H 742.549 -1.4202 -5.83053 0
M  V30 7926 H 743.619 -1.84769 -4.48317 0
M  V30 7927 N 744.962 1.50701 -0.461195 0
M  V30 7928 C 746.192 2.06381 0.0950376 0
M  V30 7929 C 746.6 1.32627 1.34933 0
M  V30 7930 O 745.943 0.386137 1.79596 0
M  V30 7931 C 746.005 3.56558 0.458965 0
M  V30 7932 C 745.669 4.51732 -0.691891 0
M  V30 7933 C 746.666 4.95594 -1.57105 0
M  V30 7934 C 744.351 4.94542 -0.879407 0
M  V30 7935 C 746.345 5.80963 -2.62223 0
M  V30 7936 C 744.032 5.79695 -1.93382 0
M  V30 7937 C 745.03 6.22806 -2.80359 0
M  V30 7938 O 744.718 7.06265 -3.83986 0
M  V30 7939 H 744.45 0.676 0.000687488 0
M  V30 7940 H 747.004 1.94974 -0.646087 0
M  V30 7941 H 745.234 3.65832 1.25314 0
M  V30 7942 H 746.923 3.94647 0.949124 0
M  V30 7943 H 747.689 4.63197 -1.43783 0
M  V30 7944 H 743.568 4.60513 -0.211907 0
M  V30 7945 H 747.112 6.14533 -3.30143 0
M  V30 7946 H 743.009 6.11506 -2.06715 0
M  V30 7947 H 743.777 7.24494 -3.80855 0
M  V30 7948 N 746.441 0.193421 1.56409 0
M  V30 7949 C 747.852 -0.319471 1.83946 0
M  V30 7950 C 748.203 -1.61505 1.11403 0
M  V30 7951 O 747.328 -2.13139 0.374289 0
M  V30 7952 C 747.923 -0.586411 3.33686 0
M  V30 7953 C 746.482 -1.04368 3.61641 0
M  V30 7954 C 745.629 -0.0913834 2.77149 0
M  V30 7955 H 748.58 0.417242 1.53117 0
M  V30 7956 H 748.601 -1.43591 3.52366 0
M  V30 7957 H 748.113 0.356701 3.86457 0
M  V30 7958 H 746.214 -2.00113 3.14302 0
M  V30 7959 H 746.327 -0.937549 4.69837 0
M  V30 7960 H 744.691 -0.592954 2.47702 0
M  V30 7961 H 745.474 0.846142 3.32709 0
M  V30 7962 N 747.919 -1.57396 -0.0801906 0
M  V30 7963 C 748.866 -2.03107 -1.09618 0
M  V30 7964 C 749.836 -0.910118 -1.38946 0
M  V30 7965 O 751.021 -1.17719 -1.50156 0
M  V30 7966 C 748.161 -2.47293 -2.40708 0
M  V30 7967 C 747.274 -3.72972 -2.17982 0
M  V30 7968 C 746.409 -4.05975 -3.42576 0
M  V30 7969 C 745.448 -5.24719 -3.15177 0
M  V30 7970 N 744.585 -5.53401 -4.32078 0
M  V30 7971 H 749.425 -2.89677 -0.69939 0
M  V30 7972 H 746.962 -1.43263 -0.333785 0
M  V30 7973 H 748.92 -2.7096 -3.17232 0
M  V30 7974 H 747.55 -1.63713 -2.78205 0
M  V30 7975 H 746.602 -3.56693 -1.32189 0
M  V30 7976 H 747.914 -4.59638 -1.93738 0
M  V30 7977 H 747.068 -4.30498 -4.275 0
M  V30 7978 H 745.807 -3.17859 -3.69887 0
M  V30 7979 H 744.812 -5 -2.28648 0
M  V30 7980 H 746.037 -6.14445 -2.89197 0
M  V30 7981 H 743.983 -4.68245 -4.59437 0
M  V30 7982 H 743.9 -6.34469 -4.11078 0
M  V30 7983 H 745.168 -5.8247 -5.18024 0
M  V30 7984 N 749.397 0.351382 -1.53633 0
M  V30 7985 C 750.307 1.45471 -1.84052 0
M  V30 7986 C 751.323 1.57945 -0.730015 0
M  V30 7987 O 752.499 1.73571 -1.02153 0
M  V30 7988 C 749.564 2.80562 -2.03681 0
M  V30 7989 C 748.625 2.77497 -3.27558 0
M  V30 7990 C 747.858 4.06144 -3.46241 0
M  V30 7991 O 748.081 5.03028 -2.68922 0
M  V30 7992 O 747.015 4.11092 -4.39645 0
M  V30 7993 H 750.841 1.22684 -2.77817 0
M  V30 7994 H 748.426 0.542827 -1.3919 0
M  V30 7995 H 750.308 3.6058 -2.18082 0
M  V30 7996 H 748.983 3.03296 -1.13106 0
M  V30 7997 H 747.89 1.96126 -3.18568 0
M  V30 7998 H 749.223 2.59716 -4.18101 0
M  V30 7999 N 750.875 1.45233 0.611969 0
M  V30 8000 C 751.825 1.49997 1.71711 0
M  V30 8001 C 752.809 0.363689 1.56736 0
M  V30 8002 O 754.001 0.610261 1.66147 0
M  V30 8003 C 751.13 1.46537 3.10454 0
M  V30 8004 C 750.216 2.65351 3.30831 0
M  V30 8005 N 750.607 3.90485 3.21489 0
M  V30 8006 C 748.905 2.60955 3.61688 0
M  V30 8007 C 749.606 4.69758 3.43078 0
M  V30 8008 N 748.582 4.01141 3.66861 0
M  V30 8009 H 752.384 2.44574 1.62975 0
M  V30 8010 H 749.898 1.40464 0.815082 0
M  V30 8011 H 751.895 1.48035 3.89732 0
M  V30 8012 H 750.555 0.530139 3.20343 0
M  V30 8013 H 751.566 4.22171 2.99987 0
M  V30 8014 H 748.243 1.76319 3.78441 0
M  V30 8015 H 749.633 5.7877 3.41285 0
M  V30 8016 N 752.353 -0.854086 1.3245 0
M  V30 8017 C 753.263 -1.99503 1.23434 0
M  V30 8018 C 754.279 -1.73371 0.147828 0
M  V30 8019 O 755.455 -1.97998 0.368609 0
M  V30 8020 C 752.52 -3.33192 0.958328 0
M  V30 8021 C 751.581 -3.72542 2.13333 0
M  V30 8022 C 750.814 -4.99852 1.8704 0
M  V30 8023 O 751.037 -5.64573 0.813239 0
M  V30 8024 O 749.971 -5.36345 2.73161 0
M  V30 8025 H 753.797 -2.10046 2.1935 0
M  V30 8026 H 751.382 -0.984823 1.12346 0
M  V30 8027 H 753.264 -4.13327 0.820918 0
M  V30 8028 H 751.939 -3.23687 0.0293299 0
M  V30 8029 H 750.846 -2.92981 2.32622 0
M  V30 8030 H 752.179 -3.86694 3.04514 0
M  V30 8031 N 753.831 -1.1567 -1.07043 0
M  V30 8032 C 754.794 -0.858906 -2.12498 0
M  V30 8033 C 755.794 0.142735 -1.60165 0
M  V30 8034 O 756.984 -0.0872678 -1.73981 0
M  V30 8035 C 754.116 -0.283021 -3.39723 0
M  V30 8036 H 755.309 -1.79368 -2.40348 0
M  V30 8037 H 752.862 -0.964608 -1.22984 0
M  V30 8038 H 753.597 0.659796 -3.17517 0
M  V30 8039 H 753.382 -1.00467 -3.7901 0
M  V30 8040 H 754.872 -0.0923543 -4.17498 0
M  V30 8041 N 755.309 1.25446 -0.953992 0
M  V30 8042 C 756.241 2.25111 -0.431004 0
M  V30 8043 C 757.254 1.56377 0.452764 0
M  V30 8044 O 758.443 1.76579 0.261144 0
M  V30 8045 C 755.543 3.3655 0.39839 0
M  V30 8046 C 754.716 4.34843 -0.472229 0
M  V30 8047 C 753.775 5.25351 0.29886 0
M  V30 8048 O 752.801 5.68396 -0.302522 0
M  V30 8049 N 754.003 5.5824 1.59211 0
M  V30 8050 H 756.768 2.70619 -1.28785 0
M  V30 8051 H 754.329 1.39346 -0.824281 0
M  V30 8052 H 756.321 3.94059 0.921941 0
M  V30 8053 H 754.891 2.90436 1.15609 0
M  V30 8054 H 754.111 3.76222 -1.17689 0
M  V30 8055 H 755.399 4.97497 -1.06648 0
M  V30 8056 H 754.797 5.25172 2.10264 0
M  V30 8057 H 753.354 6.18336 2.06164 0
M  V30 8058 N 756.787 0.722489 1.40064 0
M  V30 8059 C 758.012 0.273446 2.05589 0
M  V30 8060 C 758.437 -1.07875 1.54093 0
M  V30 8061 O 757.795 -1.68095 0.679252 0
M  V30 8062 C 757.843 0.271023 3.5958 0
M  V30 8063 O 756.947 -0.745499 4.05606 0
M  V30 8064 H 756.288 0.126856 0.65177 0
M  V30 8065 H 758.818 0.984906 1.79334 0
M  V30 8066 H 758.828 0.111084 4.07849 0
M  V30 8067 H 757.503 1.25776 3.96425 0
M  V30 8068 H 756.08 -0.552719 3.68781 0
M  V30 8069 N 758.265 -1.50454 0.469181 0
M  V30 8070 C 759.213 -2.30101 -0.340033 0
M  V30 8071 C 760.207 -1.37306 -0.992135 0
M  V30 8072 O 761.413 -1.54506 -0.923458 0
M  V30 8073 H 757.788 -0.740941 -0.128495 0
M  V30 8074 H 759.759 -2.96315 0.352144 0
M  V30 8075 C 758.508 -3.17804 -1.41052 0
M  V30 8076 H 757.831 -3.89115 -0.918124 0
M  V30 8077 H 759.271 -3.76533 -1.94934 0
M  V30 8078 C 757.73 -2.35272 -2.4114 0
M  V30 8079 O 758.26 -2.03448 -3.4637 0
M  V30 8080 N 756.466 -1.97889 -2.1281 0
M  V30 8081 H 756.013 -2.2397 -1.27261 0
M  V30 8082 H 755.971 -1.42971 -2.80012 0
M  V30 8083 N 759.743 -0.201713 -1.56304 0
M  V30 8084 C 760.706 0.702811 -2.18159 0
M  V30 8085 C 761.706 1.13619 -1.13787 0
M  V30 8086 O 762.896 1.0482 -1.39134 0
M  V30 8087 C 760.028 1.96032 -2.78898 0
M  V30 8088 H 761.221 0.163836 -2.99452 0
M  V30 8089 H 758.774 0.04791 -1.56227 0
M  V30 8090 H 759.509 2.54165 -2.01421 0
M  V30 8091 H 759.294 1.65824 -3.55309 0
M  V30 8092 H 760.784 2.60519 -3.26373 0
M  V30 8093 N 761.222 1.57436 0.0718424 0
M  V30 8094 C 762.447 1.91858 0.787745 0
M  V30 8095 C 762.872 0.798119 1.70328 0
M  V30 8096 O 762.23 -0.24905 1.79581 0
M  V30 8097 C 762.278 3.25232 1.55744 0
M  V30 8098 O 761.382 3.14462 2.6681 0
M  V30 8099 H 760.723 0.628258 0.214914 0
M  V30 8100 H 763.253 2.04561 0.0401012 0
M  V30 8101 H 763.263 3.59105 1.9367 0
M  V30 8102 H 761.938 4.0636 0.885691 0
M  V30 8103 H 760.515 2.92148 2.31741 0
M  V30 8104 N 762.7 -0.34323 1.53817 0
M  V30 8105 C 763.63 -1.42709 1.84814 0
M  V30 8106 C 764.611 -1.5488 0.703297 0
M  V30 8107 O 765.796 -1.69082 0.955237 0
M  V30 8108 C 762.926 -2.79756 2.05801 0
M  V30 8109 C 761.88 -2.82392 3.21619 0
M  V30 8110 C 761.206 -4.22326 3.2794 0
M  V30 8111 C 762.506 -2.479 4.59721 0
M  V30 8112 H 764.2 -1.17018 2.75585 0
M  V30 8113 H 761.746 -0.561485 1.32602 0
M  V30 8114 H 763.699 -3.55627 2.26069 0
M  V30 8115 H 762.423 -3.06883 1.11761 0
M  V30 8116 H 761.082 -2.08974 3.01207 0
M  V30 8117 H 760.73 -4.46564 2.31494 0
M  V30 8118 H 760.43 -4.25001 4.05768 0
M  V30 8119 H 761.954 -5.00039 3.50419 0
M  V30 8120 H 763.368 -3.13484 4.80001 0
M  V30 8121 H 761.765 -2.61857 5.39954 0
M  V30 8122 H 762.835 -1.43087 4.63308 0
M  V30 8123 N 764.178 -1.45556 -0.604258 0
M  V30 8124 C 765.455 -1.40221 -1.36373 0
M  V30 8125 C 765.835 -0.0745195 -2.10968 0
M  V30 8126 O 765.183 0.943594 -2.08107 0
M  V30 8127 C 765.393 -2.61807 -2.30777 0
M  V30 8128 C 766.741 -3.07037 -2.93281 0
M  V30 8129 O 767.765 -2.62203 -2.41097 0
M  V30 8130 O 766.624 -3.8485 -3.88011 0
M  V30 8131 H 763.718 -0.556602 -0.611656 0
M  V30 8132 H 766.264 -1.57689 -0.627069 0
M  V30 8133 H 765.036 -3.50017 -1.74939 0
M  V30 8134 H 764.659 -2.46688 -3.11818 0
M  V30 8135 N 765.656 0.84705 -1.32902 0
M  V30 8136 C 766.902 1.60414 -1.24078 0
M  V30 8137 C 767.235 1.93217 0.195105 0
M  V30 8138 O 766.51 1.58001 1.13428 0
M  V30 8139 C 766.793 2.91951 -2.108 0
M  V30 8140 C 766.646 2.6588 -3.62805 0
M  V30 8141 C 767.965 3.93299 -1.97494 0
M  V30 8142 H 765.084 0.58206 -0.452079 0
M  V30 8143 H 767.726 0.977562 -1.62922 0
M  V30 8144 H 765.876 3.45425 -1.77802 0
M  V30 8145 H 767.548 2.18902 -4.06054 0
M  V30 8146 H 765.791 1.99716 -3.85092 0
M  V30 8147 H 766.462 3.59574 -4.1882 0
M  V30 8148 H 768.938 3.49105 -2.26417 0
M  V30 8149 H 767.814 4.8318 -2.60438 0
M  V30 8150 H 768.075 4.31887 -0.944782 0
M  V30 8151 N 767.134 1.16236 1.06428 0
M  V30 8152 C 768.381 0.943034 1.79201 0
M  V30 8153 C 768.709 -0.529243 1.87161 0
M  V30 8154 O 767.964 -1.40874 1.35842 0
M  V30 8155 C 768.263 1.51396 3.2375 0
M  V30 8156 C 767.929 3.00833 3.35873 0
M  V30 8157 C 766.591 3.41626 3.38888 0
M  V30 8158 C 768.943 3.96825 3.37904 0
M  V30 8159 C 766.271 4.77033 3.4155 0
M  V30 8160 C 768.623 5.32116 3.42104 0
M  V30 8161 C 767.287 5.72392 3.43401 0
M  V30 8162 H 766.557 0.34508 0.655744 0
M  V30 8163 H 769.204 1.44929 1.25171 0
M  V30 8164 H 767.509 0.929114 3.80624 0
M  V30 8165 H 769.206 1.31996 3.78653 0
M  V30 8166 H 765.796 2.68306 3.3423 0
M  V30 8167 H 769.98 3.66376 3.34787 0
M  V30 8168 H 765.236 5.07569 3.40858 0
M  V30 8169 H 769.41 6.06286 3.42623 0
M  V30 8170 H 767.037 6.77296 3.45216 0
M  V30 8171 N 768.612 -1.24939 0.960631 0
M  V30 8172 C 769.542 -2.28 0.503815 0
M  V30 8173 C 770.523 -1.63959 -0.452928 0
M  V30 8174 O 771.708 -1.91009 -0.350585 0
M  V30 8175 C 768.838 -3.46643 -0.213535 0
M  V30 8176 C 767.792 -4.22903 0.658535 0
M  V30 8177 C 767.118 -5.34363 -0.189902 0
M  V30 8178 C 768.418 -4.84949 1.93963 0
M  V30 8179 H 770.112 -2.66462 1.36521 0
M  V30 8180 H 767.658 -1.28093 0.657897 0
M  V30 8181 H 769.611 -4.1787 -0.544286 0
M  V30 8182 H 768.335 -3.07187 -1.10923 0
M  V30 8183 H 766.994 -3.53467 0.972455 0
M  V30 8184 H 766.642 -4.91147 -1.08553 0
M  V30 8185 H 766.342 -5.86302 0.390331 0
M  V30 8186 H 767.866 -6.0842 -0.515484 0
M  V30 8187 H 769.28 -5.48288 1.67491 0
M  V30 8188 H 767.677 -5.47091 2.46601 0
M  V30 8189 H 768.747 -4.06799 2.639 0
M  V30 8190 N 770.09 -0.729906 -1.39679 0
M  V30 8191 C 771.338 -0.275077 -2.00219 0
M  V30 8192 C 771.659 1.1401 -1.58199 0
M  V30 8193 O 770.929 1.77546 -0.827904 0
M  V30 8194 H 769.509 -0.0987127 -0.740449 0
M  V30 8195 H 772.171 -0.93873 -1.70804 0
M  V30 8196 H 771.267 -0.319446 -3.10461 0
M  V30 8197 N 771.568 1.50203 -0.477153 0
M  V30 8198 C 772.518 2.25561 0.332625 0
M  V30 8199 C 773.502 1.29401 0.956249 0
M  V30 8200 O 774.694 1.54267 0.867795 0
M  V30 8201 C 771.823 3.12984 1.41052 0
M  V30 8202 C 770.909 4.16595 0.79433 0
M  V30 8203 N 771.3 5.05722 -0.0889633 0
M  V30 8204 C 769.598 4.33279 1.0576 0
M  V30 8205 C 770.299 5.80039 -0.439286 0
M  V30 8206 N 769.275 5.43278 0.187018 0
M  V30 8207 H 773.077 2.91836 -0.347718 0
M  V30 8208 H 770.591 1.59759 -0.291686 0
M  V30 8209 H 772.588 3.65582 2.00388 0
M  V30 8210 H 771.248 2.48258 2.09279 0
M  V30 8211 H 772.259 5.15869 -0.458205 0
M  V30 8212 H 768.936 3.79769 1.7344 0
M  V30 8213 H 770.326 6.61802 -1.1605 0
M  V30 8214 N 773.046 0.209999 1.56195 0
M  V30 8215 C 774.274 -0.429996 2.02382 0
M  V30 8216 C 774.689 -1.54159 1.08998 0
M  V30 8217 O 774.046 -1.82239 0.0974856 0
M  V30 8218 C 774.097 -0.972433 3.48175 0
M  V30 8219 O 773.818 0.0948231 4.37997 0
M  V30 8220 C 775.319 -1.68683 4.09952 0
M  V30 8221 H 772.539 -0.106475 0.662498 0
M  V30 8222 H 775.083 0.323072 2.01932 0
M  V30 8223 H 773.238 -1.67582 3.49278 0
M  V30 8224 H 773.652 -0.31113 5.23576 0
M  V30 8225 H 775.126 -2.01851 5.13771 0
M  V30 8226 H 775.603 -2.59587 3.54276 0
M  V30 8227 H 776.209 -1.02893 4.12666 0
M  V30 8228 N 774.524 -1.57472 -0.0634922 0
M  V30 8229 C 775.472 -2.05307 -1.09323 0
M  V30 8230 C 776.466 -0.959995 -1.39572 0
M  V30 8231 O 777.672 -1.14507 -1.38882 0
M  V30 8232 H 774.047 -0.65472 -0.369927 0
M  V30 8233 H 776.018 -2.90925 -0.663707 0
M  V30 8234 C 774.767 -2.51954 -2.39613 0
M  V30 8235 H 774.09 -3.35662 -2.1719 0
M  V30 8236 H 775.53 -2.89169 -3.10092 0
M  V30 8237 C 773.989 -1.40596 -3.06161 0
M  V30 8238 O 774.519 -0.752722 -3.94585 0
M  V30 8239 N 772.725 -1.14902 -2.66919 0
M  V30 8240 H 772.272 -1.68205 -1.95102 0
M  V30 8241 H 772.23 -0.406006 -3.11767 0
M  V30 8242 N 776.003 0.335068 -1.53997 0
M  V30 8243 C 777.249 1.07594 -1.71905 0
M  V30 8244 C 777.582 1.88039 -0.485264 0
M  V30 8245 O 776.857 1.87482 0.517752 0
M  V30 8246 C 777.14 2.01016 -2.98772 0
M  V30 8247 C 776.993 1.23977 -4.32377 0
M  V30 8248 C 778.312 3.0071 -3.21343 0
M  V30 8249 H 775.431 0.38976 -0.625505 0
M  V30 8250 H 778.073 0.353684 -1.86679 0
M  V30 8251 H 776.223 2.62603 -2.86307 0
M  V30 8252 H 777.895 0.649383 -4.56706 0
M  V30 8253 H 776.138 0.541878 -4.30402 0
M  V30 8254 H 776.809 1.92512 -5.17342 0
M  V30 8255 H 779.285 2.4924 -3.33194 0
M  V30 8256 H 778.161 3.63272 -4.11491 0
M  V30 8257 H 778.422 3.72549 -2.38033 0
M  V30 8258 N 777.481 1.45874 0.596531 0
M  V30 8259 C 778.391 1.57947 1.73464 0
M  V30 8260 C 779.407 0.463461 1.67714 0
M  V30 8261 O 780.583 0.725685 1.87872 0
M  V30 8262 C 777.648 1.55348 3.09948 0
M  V30 8263 C 776.709 2.78074 3.27068 0
M  V30 8264 C 775.942 2.75589 4.57041 0
M  V30 8265 O 776.165 1.83545 5.40063 0
M  V30 8266 O 775.099 3.66945 4.77111 0
M  V30 8267 H 778.925 2.54169 1.66228 0
M  V30 8268 H 776.51 1.2851 0.76194 0
M  V30 8269 H 778.392 1.56545 3.91244 0
M  V30 8270 H 777.067 0.622811 3.17652 0
M  V30 8271 H 775.974 2.82435 2.45319 0
M  V30 8272 H 777.307 3.70303 3.24248 0
M  V30 8273 N 778.959 -0.83999 1.33349 0
M  V30 8274 C 779.869 -1.98182 1.25543 0
M  V30 8275 C 780.885 -1.73204 0.166208 0
M  V30 8276 O 782.061 -1.97596 0.389589 0
M  V30 8277 C 779.126 -3.32157 0.993614 0
M  V30 8278 C 778.187 -3.70258 2.17273 0
M  V30 8279 C 777.42 -4.9784 1.92331 0
M  V30 8280 O 777.643 -5.63679 0.873074 0
M  V30 8281 O 776.577 -5.33418 2.78835 0
M  V30 8282 H 780.403 -2.07708 2.21565 0
M  V30 8283 H 777.988 -0.972852 1.13384 0
M  V30 8284 H 779.87 -4.12433 0.864711 0
M  V30 8285 H 778.545 -3.23637 0.0636596 0
M  V30 8286 H 777.452 -2.90497 2.35716 0
M  V30 8287 H 778.785 -3.83442 3.08598 0
M  V30 8288 N 780.437 -1.16799 -1.0581 0
M  V30 8289 C 781.367 -0.902241 -2.15364 0
M  V30 8290 C 782.348 0.153351 -1.69407 0
M  V30 8291 O 783.533 0.00442032 -1.94199 0
M  V30 8292 C 780.663 -0.407911 -3.44896 0
M  V30 8293 C 779.617 -1.40197 -4.04387 0
M  V30 8294 C 778.943 -0.765848 -5.29187 0
M  V30 8295 C 780.243 -2.77316 -4.42598 0
M  V30 8296 H 781.937 -1.81841 -2.37853 0
M  V30 8297 H 779.483 -0.875731 -1.14311 0
M  V30 8298 H 781.436 -0.20945 -4.20879 0
M  V30 8299 H 780.16 0.54378 -3.22041 0
M  V30 8300 H 778.819 -1.58707 -3.30466 0
M  V30 8301 H 778.467 0.192482 -5.02632 0
M  V30 8302 H 778.167 -1.42939 -5.69949 0
M  V30 8303 H 779.691 -0.577519 -6.07863 0
M  V30 8304 H 781.105 -2.62561 -5.09642 0
M  V30 8305 H 779.502 -3.4019 -4.94359 0
M  V30 8306 H 780.572 -3.32199 -3.53231 0
M  V30 8307 N 781.915 1.24427 -0.967243 0
M  V30 8308 C 782.848 2.23885 -0.441683 0
M  V30 8309 C 783.826 1.55231 0.483963 0
M  V30 8310 O 785.01 1.83865 0.415445 0
M  V30 8311 C 782.137 3.36755 0.362458 0
M  V30 8312 C 781.183 4.23495 -0.505407 0
M  V30 8313 S 782.016 4.98916 -1.94534 0
M  V30 8314 C 783.172 6.15245 -1.14997 0
M  V30 8315 H 783.405 2.68118 -1.28453 0
M  V30 8316 H 780.938 1.337 -0.772243 0
M  V30 8317 H 782.896 4.02218 0.820445 0
M  V30 8318 H 781.557 2.91081 1.18027 0
M  V30 8319 H 780.75 5.03876 0.111979 0
M  V30 8320 H 780.352 3.63032 -0.899104 0
M  V30 8321 H 782.644 6.7629 -0.404769 0
M  V30 8322 H 783.587 6.81343 -1.92814 0
M  V30 8323 H 783.995 5.60455 -0.674543 0
M  V30 8324 N 783.393 0.737304 1.3929 0
M  V30 8325 C 784.34 0.0988364 2.30588 0
M  V30 8326 C 785.31 -0.727206 1.49335 0
M  V30 8327 O 786.495 -0.686694 1.78014 0
M  V30 8328 C 783.635 -0.800734 3.35682 0
M  V30 8329 C 782.748 0.0381731 4.31983 0
M  V30 8330 C 781.883 -0.862884 5.24145 0
M  V30 8331 C 780.922 -0.0193639 6.12097 0
M  V30 8332 N 780.059 -0.87648 6.96608 0
M  V30 8333 H 784.899 0.883031 2.84617 0
M  V30 8334 H 782.436 0.447111 1.4014 0
M  V30 8335 H 784.394 -1.33676 3.95205 0
M  V30 8336 H 783.024 -1.55088 2.83103 0
M  V30 8337 H 782.076 0.691641 3.74059 0
M  V30 8338 H 783.388 0.690294 4.94 0
M  V30 8339 H 782.542 -1.46667 5.88705 0
M  V30 8340 H 781.281 -1.54878 4.62454 0
M  V30 8341 H 780.286 0.597202 5.46547 0
M  V30 8342 H 781.511 0.663348 6.75852 0
M  V30 8343 H 779.457 -1.54762 6.37483 0
M  V30 8344 H 779.374 -0.280892 7.55478 0
M  V30 8345 H 780.642 -1.46575 7.65595 0
M  V30 8346 N 784.871 -1.49948 0.485112 0
M  V30 8347 C 785.801 -2.31675 -0.291364 0
M  V30 8348 C 786.782 -1.39216 -0.977383 0
M  V30 8349 O 787.967 -1.68133 -0.971855 0
M  V30 8350 C 785.097 -3.19326 -1.36558 0
M  V30 8351 C 784.051 -4.2045 -0.800359 0
M  V30 8352 C 783.377 -4.96931 -1.97391 0
M  V30 8353 C 784.677 -5.21925 0.197867 0
M  V30 8354 H 786.371 -2.96839 0.390775 0
M  V30 8355 H 783.917 -1.42749 0.189375 0
M  V30 8356 H 785.87 -3.75304 -1.91638 0
M  V30 8357 H 784.594 -2.52074 -2.07668 0
M  V30 8358 H 783.253 -3.65594 -0.271428 0
M  V30 8359 H 782.901 -4.26141 -2.67232 0
M  V30 8360 H 782.601 -5.65344 -1.60187 0
M  V30 8361 H 784.125 -5.55749 -2.52935 0
M  V30 8362 H 785.539 -5.72691 -0.264239 0
M  V30 8363 H 783.936 -5.98138 0.484908 0
M  V30 8364 H 785.006 -4.71809 1.11912 0
M  V30 8365 N 786.349 -0.21828 -1.56081 0
M  V30 8366 C 787.597 0.413488 -1.97825 0
M  V30 8367 C 787.918 1.60527 -1.10707 0
M  V30 8368 O 787.188 1.9504 -0.183378 0
M  V30 8369 H 785.768 0.155757 -0.730581 0
M  V30 8370 H 788.43 -0.310413 -1.92412 0
M  V30 8371 H 787.526 0.742024 -3.03151 0
M  V30 8372 N 787.827 1.57504 0.0551401 0
M  V30 8373 C 788.775 2.05884 1.08233 0
M  V30 8374 C 789.769 0.967383 1.39061 0
M  V30 8375 O 790.975 1.15242 1.38273 0
M  V30 8376 H 787.35 0.656673 0.366449 0
M  V30 8377 H 789.321 2.91273 0.648269 0
M  V30 8378 C 788.07 2.53221 2.38273 0
M  V30 8379 H 787.393 3.36809 2.15406 0
M  V30 8380 H 788.833 2.9081 3.08554 0
M  V30 8381 C 787.292 1.42218 3.05411 0
M  V30 8382 O 787.822 0.773638 3.9418 0
M  V30 8383 N 786.028 1.16316 2.66306 0
M  V30 8384 H 785.575 1.69237 1.94207 0
M  V30 8385 H 785.533 0.422534 3.11548 0
M  V30 8386 N 789.305 -0.326896 1.54172 0
M  V30 8387 C 790.255 -1.40319 1.79707 0
M  V30 8388 C 791.239 -1.47056 0.652938 0
M  V30 8389 O 792.431 -1.51645 0.91284 0
M  V30 8390 C 789.56 -2.77222 2.02491 0
M  V30 8391 C 788.646 -2.74811 3.23016 0
M  V30 8392 N 789.037 -2.42022 4.44138 0
M  V30 8393 C 787.335 -3.05943 3.24522 0
M  V30 8394 C 788.036 -2.48263 5.26061 0
M  V30 8395 N 787.012 -2.84567 4.63166 0
M  V30 8396 H 790.814 -1.13892 2.70935 0
M  V30 8397 H 788.328 -0.53536 1.53322 0
M  V30 8398 H 790.325 -3.54793 2.18923 0
M  V30 8399 H 788.985 -3.04582 1.12515 0
M  V30 8400 H 789.996 -2.14926 4.71197 0
M  V30 8401 H 786.673 -3.38367 2.44569 0
M  V30 8402 H 788.063 -2.2593 6.32776 0
M  V30 8403 N 790.784 -1.46188 -0.588786 0
M  V30 8404 C 792.195 -1.45421 -1.17088 0
M  V30 8405 C 792.546 -0.191801 -1.9526 0
M  V30 8406 O 791.671 0.705497 -2.04577 0
M  V30 8407 C 792.266 -2.63467 -2.13004 0
M  V30 8408 C 790.825 -2.6576 -2.6655 0
M  V30 8409 C 789.972 -2.38002 -1.42304 0
M  V30 8410 H 792.923 -1.54156 -0.377052 0
M  V30 8411 H 792.944 -2.38638 -2.96365 0
M  V30 8412 H 792.456 -3.55331 -1.56081 0
M  V30 8413 H 790.557 -1.77952 -3.27359 0
M  V30 8414 H 790.67 -3.65545 -3.09699 0
M  V30 8415 H 789.034 -1.87936 -1.71907 0
M  V30 8416 H 789.817 -3.32035 -0.872209 0
M  V30 8417 N 792.262 0.832906 -1.33792 0
M  V30 8418 C 793.511 1.58351 -1.24932 0
M  V30 8419 C 793.824 1.94754 0.181703 0
M  V30 8420 O 795.03 2.6865 0.392375 0
M  V30 8421 C 793.486 2.85643 -2.18943 0
M  V30 8422 C 793.094 2.56581 -3.67247 0
M  V30 8423 C 794.838 3.63667 -2.18968 0
M  V30 8424 C 792.745 3.80006 -4.53155 0
M  V30 8425 H 791.675 0.594278 -0.464058 0
M  V30 8426 H 794.326 0.91786 -1.58895 0
M  V30 8427 H 792.708 3.53781 -1.77919 0
M  V30 8428 H 793.882 1.96617 -4.16747 0
M  V30 8429 H 792.197 1.91851 -3.6957 0
M  V30 8430 H 794.794 4.55293 -2.80379 0
M  V30 8431 H 795.137 3.99039 -1.18631 0
M  V30 8432 H 795.67 3.0246 -2.58384 0
M  V30 8433 H 792.409 3.4976 -5.5439 0
M  V30 8434 H 791.929 4.39288 -4.08395 0
M  V30 8435 H 793.608 4.47523 -4.6726 0
M  V30 8436 N 793.74 1.17359 1.05189 0
M  V30 8437 C 795.156 0.920861 1.30355 0
M  V30 8438 C 795.356 -0.419993 1.97074 0
M  V30 8439 O 794.412 -1.15696 2.24434 0
M  V30 8440 C 795.725 2.07818 2.1733 0
M  V30 8441 C 797.273 2.1152 2.30712 0
M  V30 8442 C 797.748 3.26637 3.21048 0
M  V30 8443 N 799.239 3.26426 3.28634 0
M  V30 8444 C 799.974 4.12141 3.98657 0
M  V30 8445 N 799.47 5.07966 4.71107 0
M  V30 8446 N 801.263 4.00091 3.94821 0
M  V30 8447 H 793.414 2.03666 0.602821 0
M  V30 8448 H 795.677 0.889294 0.328421 0
M  V30 8449 H 795.383 3.04727 1.75597 0
M  V30 8450 H 795.257 2.02922 3.17966 0
M  V30 8451 H 797.644 1.15196 2.71687 0
M  V30 8452 H 797.725 2.20477 1.29706 0
M  V30 8453 H 797.369 4.23227 2.80788 0
M  V30 8454 H 797.299 3.14917 4.2206 0
M  V30 8455 H 799.79 2.57045 2.77013 0
M  V30 8456 H 800.103 5.69766 5.22099 0
M  V30 8457 H 798.448 5.11936 4.7005 0
M  V30 8458 H 801.639 3.24523 3.37346 0
M  V30 8459 H 801.812 4.6711 4.49123 0
M  V30 8460 N 795.218 -1.23913 0.973828 0
M  V30 8461 C 796.634 -1.44325 0.681363 0
M  V30 8462 C 796.834 -1.86832 -0.754728 0
M  V30 8463 O 795.89 -2.01024 -1.52793 0
M  V30 8464 C 797.203 -2.50017 1.67069 0
M  V30 8465 C 798.751 -2.63838 1.68399 0
M  V30 8466 C 799.226 -3.72734 2.66145 0
M  V30 8467 N 800.717 -3.80169 2.64624 0
M  V30 8468 C 801.452 -4.6397 3.36927 0
M  V30 8469 N 800.948 -5.51911 4.18767 0
M  V30 8470 N 802.741 -4.58106 3.25722 0
M  V30 8471 H 794.892 -0.946204 1.9016 0
M  V30 8472 H 797.155 -0.477374 0.819035 0
M  V30 8473 H 796.861 -2.25686 2.69738 0
M  V30 8474 H 796.735 -3.48287 1.4483 0
M  V30 8475 H 799.122 -2.87524 0.664379 0
M  V30 8476 H 799.203 -1.65906 1.94702 0
M  V30 8477 H 798.847 -3.49797 3.68245 0
M  V30 8478 H 798.777 -4.70193 2.3712 0
M  V30 8479 H 801.268 -3.17319 2.05224 0
M  V30 8480 H 801.581 -6.12828 4.70809 0
M  V30 8481 H 799.926 -5.51556 4.2286 0
M  V30 8482 H 803.117 -3.8842 2.61242 0
M  V30 8483 H 803.29 -5.23188 3.82333 0
M  V30 8484 N 796.696 -0.74468 -1.38897 0
M  V30 8485 C 797.942 -0.297324 -2.00609 0
M  V30 8486 C 798.275 1.11547 -1.58968 0
M  V30 8487 O 797.55 1.76227 -0.823057 0
M  V30 8488 C 797.833 -0.410125 -3.57757 0
M  V30 8489 C 797.686 -1.86338 -4.09387 0
M  V30 8490 C 799.005 0.20176 -4.39637 0
M  V30 8491 H 796.124 -0.109509 -0.728819 0
M  V30 8492 H 798.766 -0.942653 -1.64967 0
M  V30 8493 H 796.916 0.139287 -3.8825 0
M  V30 8494 H 798.588 -2.47042 -3.89574 0
M  V30 8495 H 796.831 -2.38146 -3.62586 0
M  V30 8496 H 797.502 -1.89352 -5.18507 0
M  V30 8497 H 799.978 -0.266703 -4.15244 0
M  V30 8498 H 798.854 0.0925415 -5.48822 0
M  V30 8499 H 799.115 1.289 -4.22891 0
M  V30 8500 N 798.174 1.49689 -0.493057 0
M  V30 8501 C 799.399 2.07331 0.0535114 0
M  V30 8502 C 799.824 1.35196 1.30781 0
M  V30 8503 O 799.182 0.406246 1.7669 0
M  V30 8504 C 799.23 3.59364 0.29825 0
M  V30 8505 O 798.334 3.88819 1.37454 0
M  V30 8506 H 797.675 0.663612 -0.0227018 0
M  V30 8507 H 800.205 1.926 -0.690402 0
M  V30 8508 H 800.215 4.04515 0.532159 0
M  V30 8509 H 798.89 4.1128 -0.618207 0
M  V30 8510 H 797.467 3.55487 1.12621 0
M  V30 8511 N 799.652 0.226554 1.55963 0
M  V30 8512 C 800.898 -0.404387 1.98727 0
M  V30 8513 C 801.231 -1.59059 1.11418 0
M  V30 8514 O 800.506 -1.93729 0.172971 0
M  V30 8515 C 800.789 -0.834081 3.50307 0
M  V30 8516 C 800.642 0.356104 4.48388 0
M  V30 8517 C 801.961 -1.68845 4.06423 0
M  V30 8518 H 799.08 -0.145515 0.722492 0
M  V30 8519 H 801.722 0.323791 1.87221 0
M  V30 8520 H 799.872 -1.45454 3.60244 0
M  V30 8521 H 801.544 0.99432 4.50456 0
M  V30 8522 H 799.787 1.0027 4.22053 0
M  V30 8523 H 800.458 0.0124333 5.51999 0
M  V30 8524 H 802.934 -1.16489 3.99461 0
M  V30 8525 H 801.81 -1.958 5.1279 0
M  V30 8526 H 802.071 -2.65347 3.53615 0
M  V30 8527 N 801.13 -1.57531 -0.0467866 0
M  V30 8528 C 802.08 -2.01845 -1.06031 0
M  V30 8529 C 803.064 -0.904662 -1.33059 0
M  V30 8530 O 804.256 -1.16858 -1.32941 0
M  V30 8531 C 801.385 -2.48673 -2.36679 0
M  V30 8532 C 800.471 -3.66837 -2.12818 0
M  V30 8533 N 800.862 -4.80172 -1.5896 0
M  V30 8534 C 799.16 -3.73869 -2.43183 0
M  V30 8535 C 799.861 -5.61895 -1.50494 0
M  V30 8536 N 798.837 -5.0648 -1.97431 0
M  V30 8537 H 802.639 -2.869 -0.637623 0
M  V30 8538 H 800.153 -1.6041 -0.253427 0
M  V30 8539 H 802.15 -2.78671 -3.10077 0
M  V30 8540 H 800.81 -1.65016 -2.79642 0
M  V30 8541 H 801.821 -5.01967 -1.27474 0
M  V30 8542 H 798.498 -3.00977 -2.89342 0
M  V30 8543 H 799.888 -6.62918 -1.09494 0
M  V30 8544 N 802.608 0.318715 -1.54344 0
M  V30 8545 C 804.019 0.89285 -1.63967 0
M  V30 8546 C 804.37 1.88712 -0.536855 0
M  V30 8547 O 803.495 2.13877 0.329457 0
M  V30 8548 C 804.09 1.62618 -2.97222 0
M  V30 8549 C 802.649 2.14897 -3.09025 0
M  V30 8550 C 801.796 0.975909 -2.5956 0
M  V30 8551 H 804.747 0.0961687 -1.58408 0
M  V30 8552 H 804.768 2.4907 -2.87653 0
M  V30 8553 H 804.28 0.902286 -3.77466 0
M  V30 8554 H 802.381 2.90387 -2.33465 0
M  V30 8555 H 802.494 2.39565 -4.14904 0
M  V30 8556 H 800.858 1.35646 -2.15574 0
M  V30 8557 H 801.641 0.266253 -3.42266 0
M  V30 8558 N 804.086 1.46499 0.581025 0
M  V30 8559 C 805.363 1.42372 1.34125 0
M  V30 8560 C 805.743 0.108073 2.10823 0
M  V30 8561 O 805.091 -0.910366 2.09582 0
M  V30 8562 C 805.301 2.65445 2.26583 0
M  V30 8563 C 806.649 3.11664 2.88359 0
M  V30 8564 O 807.673 2.66006 2.36896 0
M  V30 8565 O 806.532 3.90974 3.81839 0
M  V30 8566 H 803.626 0.566262 0.602724 0
M  V30 8567 H 806.172 1.58667 0.601903 0
M  V30 8568 H 804.944 3.52756 1.69348 0
M  V30 8569 H 804.567 2.51618 3.07854 0
M  V30 8570 N 805.565 -0.825799 1.34232 0
M  V30 8571 C 806.795 -1.61129 1.29309 0
M  V30 8572 C 807.203 -1.88714 -0.135589 0
M  V30 8573 O 806.546 -1.47703 -1.09222 0
M  V30 8574 C 806.608 -2.97866 2.01287 0
M  V30 8575 C 806.272 -2.9319 3.50555 0
M  V30 8576 C 807.269 -2.67978 4.45515 0
M  V30 8577 C 804.954 -3.12913 3.92926 0
M  V30 8578 C 806.948 -2.62536 5.80822 0
M  V30 8579 C 804.635 -3.07096 5.28333 0
M  V30 8580 C 805.633 -2.8194 6.22092 0
M  V30 8581 O 805.321 -2.7605 7.55018 0
M  V30 8582 H 805.053 -0.507652 0.446391 0
M  V30 8583 H 807.607 -1.03575 1.77374 0
M  V30 8584 H 805.837 -3.57327 1.47832 0
M  V30 8585 H 807.526 -3.58848 1.89691 0
M  V30 8586 H 808.292 -2.52478 4.14101 0
M  V30 8587 H 804.171 -3.3151 3.20347 0
M  V30 8588 H 807.715 -2.42821 6.53975 0
M  V30 8589 H 803.612 -3.22148 5.59367 0
M  V30 8590 H 804.38 -2.91798 7.6472 0
M  V30 8591 N 807.043 -1.17915 -1.04565 0
M  V30 8592 C 808.459 -0.927761 -1.29864 0
M  V30 8593 C 808.659 0.409536 -1.97294 0
M  V30 8594 O 807.715 1.14505 -2.25044 0
M  V30 8595 C 809.028 -2.08967 -2.16225 0
M  V30 8596 C 810.576 -2.12741 -2.29587 0
M  V30 8597 C 811.051 -3.28335 -3.19312 0
M  V30 8598 N 812.542 -3.28164 -3.26898 0
M  V30 8599 C 813.277 -4.14249 -3.96466 0
M  V30 8600 N 812.773 -5.10457 -4.68407 0
M  V30 8601 N 814.566 -4.02179 -3.92694 0
M  V30 8602 H 806.717 -2.03983 -0.592011 0
M  V30 8603 H 808.98 -0.891023 -0.323701 0
M  V30 8604 H 808.686 -3.05654 -1.73979 0
M  V30 8605 H 808.56 -2.04606 -3.16885 0
M  V30 8606 H 810.947 -1.16636 -2.71072 0
M  V30 8607 H 811.028 -2.21162 -1.28535 0
M  V30 8608 H 810.672 -4.2471 -2.78539 0
M  V30 8609 H 810.602 -3.17151 -4.20384 0
M  V30 8610 H 813.093 -2.58511 -2.75646 0
M  V30 8611 H 813.406 -5.72526 -5.1907 0
M  V30 8612 H 811.751 -5.14422 -4.67328 0
M  V30 8613 H 814.942 -3.26308 -3.3562 0
M  V30 8614 H 815.115 -4.69486 -4.4664 0
M  V30 8615 N 808.521 1.23394 -0.980386 0
M  V30 8616 C 809.453 2.24146 -0.478657 0
M  V30 8617 C 810.466 1.57303 0.419492 0
M  V30 8618 O 811.655 1.77094 0.223631 0
M  V30 8619 C 808.755 3.3732 0.326913 0
M  V30 8620 C 807.928 4.33744 -0.56436 0
M  V30 8621 C 806.987 5.25866 0.187358 0
M  V30 8622 O 806.013 5.67626 -0.423019 0
M  V30 8623 N 807.215 5.61492 1.47335 0
M  V30 8624 H 809.98 2.67826 -1.34496 0
M  V30 8625 H 807.541 1.37566 -0.853653 0
M  V30 8626 H 809.533 3.95926 0.838148 0
M  V30 8627 H 808.103 2.92823 1.09422 0
M  V30 8628 H 807.323 3.73641 -1.25642 0
M  V30 8629 H 808.611 4.95123 -1.17177 0
M  V30 8630 H 808.009 5.29514 1.99077 0
M  V30 8631 H 806.566 6.2257 1.93002 0
M  V30 8632 N 809.999 0.752036 1.385 0
M  V30 8633 C 811.276 0.233075 1.94206 0
M  V30 8634 C 811.656 -1.26838 1.68746 0
M  V30 8635 O 811.004 -2.04214 1.02513 0
M  V30 8636 C 811.214 0.58509 3.44061 0
M  V30 8637 C 812.562 0.543871 4.21102 0
M  V30 8638 O 813.586 0.523291 3.52335 0
M  V30 8639 O 812.445 0.553436 5.4369 0
M  V30 8640 H 809.539 0.0483049 0.825588 0
M  V30 8641 H 812.085 0.832053 1.47902 0
M  V30 8642 H 810.857 1.62212 3.56094 0
M  V30 8643 H 810.48 -0.0419738 3.97578 0
M  V30 8644 N 811.477 -1.49425 0.500989 0
M  V30 8645 C 812.387 -2.32899 -0.282011 0
M  V30 8646 C 813.403 -1.44632 -0.967346 0
M  V30 8647 O 814.579 -1.77654 -0.94873 0
M  V30 8648 C 811.644 -3.20069 -1.33253 0
M  V30 8649 C 810.705 -4.24186 -0.660636 0
M  V30 8650 C 809.938 -5.07191 -1.6611 0
M  V30 8651 O 810.161 -4.91712 -2.89094 0
M  V30 8652 O 809.095 -5.8948 -1.21643 0
M  V30 8653 H 812.921 -3.01038 0.401224 0
M  V30 8654 H 810.506 -1.47079 0.262323 0
M  V30 8655 H 812.388 -3.74071 -1.94033 0
M  V30 8656 H 811.063 -2.54625 -1.9987 0
M  V30 8657 H 809.97 -3.74098 -0.0130959 0
M  V30 8658 H 811.303 -4.92186 -0.0369179 0
M  V30 8659 N 812.955 -0.234822 -1.55841 0
M  V30 8660 C 814.18 0.400741 -2.03492 0
M  V30 8661 C 814.605 1.51618 -1.11327 0
M  V30 8662 O 813.963 1.81002 -0.103922 0
M  V30 8663 C 814.011 0.897184 -3.49261 0
M  V30 8664 O 813.115 2.00764 -3.60233 0
M  V30 8665 H 812.456 0.0890023 -0.658008 0
M  V30 8666 H 814.986 -0.357345 -2.01455 0
M  V30 8667 H 814.996 1.20356 -3.89844 0
M  V30 8668 H 813.671 0.0808639 -4.15821 0
M  V30 8669 H 812.248 1.70689 -3.31541 0
M  V30 8670 N 814.433 1.57553 0.0384317 0
M  V30 8671 C 815.663 1.92813 0.742064 0
M  V30 8672 C 816.071 0.832157 1.69917 0
M  V30 8673 O 815.414 -0.200917 1.82598 0
M  V30 8674 C 815.476 3.23806 1.56172 0
M  V30 8675 C 815.14 4.50459 0.770407 0
M  V30 8676 C 816.137 5.19846 0.0748006 0
M  V30 8677 C 813.822 4.97001 0.727714 0
M  V30 8678 C 815.816 6.34047 -0.652902 0
M  V30 8679 C 813.503 6.111 -0.00373992 0
M  V30 8680 C 814.501 6.79477 -0.692816 0
M  V30 8681 O 814.189 7.91395 -1.41241 0
M  V30 8682 H 813.921 0.641174 0.214179 0
M  V30 8683 H 816.475 2.054 0.00285095 0
M  V30 8684 H 814.705 3.0752 2.34453 0
M  V30 8685 H 816.394 3.44463 2.14709 0
M  V30 8686 H 817.16 4.84899 0.098875 0
M  V30 8687 H 813.039 4.43629 1.25355 0
M  V30 8688 H 816.583 6.87353 -1.1913 0
M  V30 8689 H 812.48 6.45493 -0.0297703 0
M  V30 8690 H 813.248 8.07702 -1.32512 0
M  V30 8691 N 815.911 -0.310526 1.54511 0
M  V30 8692 C 816.859 -1.40272 1.85544 0
M  V30 8693 C 817.853 -1.52941 0.728377 0
M  V30 8694 O 819.059 -1.55172 0.912234 0
M  V30 8695 H 815.434 -0.468355 0.588343 0
M  V30 8696 H 817.405 -1.11329 2.76855 0
M  V30 8697 C 816.154 -2.76279 2.11105 0
M  V30 8698 H 815.477 -2.67308 2.97298 0
M  V30 8699 H 816.917 -3.51736 2.36765 0
M  V30 8700 C 815.376 -3.24472 0.906618 0
M  V30 8701 O 815.906 -4.01514 0.122358 0
M  V30 8702 N 814.112 -2.81676 0.714632 0
M  V30 8703 H 813.659 -2.19143 1.35404 0
M  V30 8704 H 813.617 -3.14272 -0.089703 0
M  V30 8705 N 817.389 -1.46805 -0.573248 0
M  V30 8706 C 818.636 -1.52604 -1.3311 0
M  V30 8707 C 818.964 -0.181633 -1.9365 0
M  V30 8708 O 818.219 0.823775 -1.77517 0
M  V30 8709 C 818.518 -2.58001 -2.47326 0
M  V30 8710 C 818.184 -4.01747 -2.04719 0
M  V30 8711 C 816.846 -4.40881 -1.92814 0
M  V30 8712 C 819.198 -4.92008 -1.71982 0
M  V30 8713 C 816.526 -5.68129 -1.46445 0
M  V30 8714 C 818.878 -6.19703 -1.27089 0
M  V30 8715 C 817.542 -6.57733 -1.13768 0
M  V30 8716 H 816.812 -0.558417 -0.487084 0
M  V30 8717 H 819.459 -1.80327 -0.644538 0
M  V30 8718 H 817.764 -2.23974 -3.2147 0
M  V30 8719 H 819.461 -2.59715 -3.05531 0
M  V30 8720 H 816.051 -3.70819 -2.14922 0
M  V30 8721 H 820.235 -4.62485 -1.8006 0
M  V30 8722 H 815.491 -5.96359 -1.34783 0
M  V30 8723 H 819.665 -6.89064 -1.00814 0
M  V30 8724 H 817.292 -7.56228 -0.776142 0
M  V30 8725 N 818.867 0.818669 -1.34668 0
M  V30 8726 C 819.777 1.9616 -1.2868 0
M  V30 8727 C 820.793 1.72918 -0.193742 0
M  V30 8728 O 821.969 1.96951 -0.420975 0
M  V30 8729 C 819.034 3.30534 -1.04633 0
M  V30 8730 C 818.095 3.66755 -2.23136 0
M  V30 8731 C 817.328 4.94717 -2.00227 0
M  V30 8732 O 817.551 5.62218 -0.96264 0
M  V30 8733 O 816.485 5.28915 -2.87286 0
M  V30 8734 H 820.311 2.04157 -2.24842 0
M  V30 8735 H 817.896 0.954691 -1.14917 0
M  V30 8736 H 819.778 4.11005 -0.930216 0
M  V30 8737 H 818.453 3.23495 -0.115139 0
M  V30 8738 H 817.36 2.8671 -2.40308 0
M  V30 8739 H 818.693 3.78484 -3.1466 0
M  V30 8740 N 820.346 1.18468 1.03938 0
M  V30 8741 C 821.594 0.978895 1.76811 0
M  V30 8742 C 821.915 -0.49257 1.88676 0
M  V30 8743 O 821.185 -1.3572 1.41269 0
M  V30 8744 H 819.765 0.359201 0.654968 0
M  V30 8745 H 822.427 1.49173 1.25433 0
M  V30 8746 H 821.523 1.418 2.78027 0
M  V30 8747 N 821.824 -1.22873 0.986916 0
M  V30 8748 C 823.101 -1.86939 0.575589 0
M  V30 8749 C 823.481 -1.88656 -0.947205 0
M  V30 8750 O 822.829 -1.3728 -1.82665 0
M  V30 8751 C 823.039 -3.28117 1.18914 0
M  V30 8752 C 824.387 -4.04659 1.28593 0
M  V30 8753 O 825.411 -3.3736 1.14308 0
M  V30 8754 O 824.27 -5.25112 1.51391 0
M  V30 8755 H 821.364 -0.803748 0.194724 0
M  V30 8756 H 823.91 -1.30698 1.08241 0
M  V30 8757 H 822.682 -3.21468 2.231 0
M  V30 8758 H 822.305 -3.91956 0.667535 0
M  V30 8759 N 823.302 -0.75937 -1.38099 0
M  V30 8760 C 824.551 -0.314864 -1.99227 0
M  V30 8761 C 824.864 1.1113 -1.60964 0
M  V30 8762 O 826.07 1.65657 -2.15105 0
M  V30 8763 C 824.526 -0.512001 -3.56239 0
M  V30 8764 C 824.134 -1.94762 -4.0345 0
M  V30 8765 C 825.878 -0.130497 -4.24299 0
M  V30 8766 C 823.785 -2.09301 -5.53125 0
M  V30 8767 H 822.715 -0.113978 -0.745335 0
M  V30 8768 H 825.366 -0.936736 -1.57789 0
M  V30 8769 H 823.748 0.179144 -3.95595 0
M  V30 8770 H 824.922 -2.67271 -3.75371 0
M  V30 8771 H 823.237 -2.28457 -3.48133 0
M  V30 8772 H 825.834 -0.21781 -5.34256 0
M  V30 8773 H 826.177 0.917644 -4.0606 0
M  V30 8774 H 826.71 -0.773716 -3.90203 0
M  V30 8775 H 823.449 -3.1239 -5.76275 0
M  V30 8776 H 822.969 -1.41261 -5.82928 0
M  V30 8777 H 824.648 -1.88571 -6.1891 0
M  V30 8778 N 824.78 1.49157 -0.508906 0
M  V30 8779 C 825.743 2.27784 0.25434 0
M  V30 8780 C 826.743 1.34132 0.88686 0
M  V30 8781 O 827.933 1.5722 0.750168 0
M  V30 8782 C 825.065 3.12347 1.36573 0
M  V30 8783 H 826.258 2.96718 -0.435714 0
M  V30 8784 H 823.811 1.54052 -0.264128 0
M  V30 8785 H 824.546 2.47997 2.08969 0
M  V30 8786 H 824.331 3.81213 0.917543 0
M  V30 8787 H 825.821 3.71712 1.90315 0
M  V30 8788 N 826.258 0.243083 1.55714 0
M  V30 8789 C 827.188 -0.652336 2.24203 0
M  V30 8790 C 828.169 -1.1843 1.221 0
M  V30 8791 O 829.354 -1.22435 1.50743 0
M  V30 8792 C 826.484 -1.85111 2.93856 0
M  V30 8793 C 825.438 -1.45208 4.02615 0
M  V30 8794 C 824.764 -2.73137 4.59674 0
M  V30 8795 C 826.064 -0.625988 5.18535 0
M  V30 8796 H 827.758 -0.0812504 2.9929 0
M  V30 8797 H 825.304 -0.0376388 1.43951 0
M  V30 8798 H 827.257 -2.48314 3.40468 0
M  V30 8799 H 825.981 -2.44751 2.16251 0
M  V30 8800 H 824.64 -0.843406 3.56766 0
M  V30 8801 H 824.288 -3.30967 3.78774 0
M  V30 8802 H 823.988 -2.47163 5.33089 0
M  V30 8803 H 825.512 -3.37245 5.09017 0
M  V30 8804 H 826.926 -1.16223 5.61396 0
M  V30 8805 H 825.323 -0.462465 5.98315 0
M  V30 8806 H 826.393 0.362652 4.83542 0
M  V30 8807 N 827.736 -1.57571 -0.0300757 0
M  V30 8808 C 828.666 -2.0953 -1.03051 0
M  V30 8809 C 829.647 -0.99761 -1.37774 0
M  V30 8810 O 830.832 -1.27279 -1.46676 0
M  V30 8811 C 827.962 -2.57385 -2.33174 0
M  V30 8812 C 826.916 -3.71409 -2.12696 0
M  V30 8813 C 826.242 -4.05467 -3.4857 0
M  V30 8814 C 827.542 -4.99877 -1.51396 0
M  V30 8815 H 829.236 -2.93367 -0.597999 0
M  V30 8816 H 826.782 -1.41127 -0.286203 0
M  V30 8817 H 828.735 -2.92355 -3.03491 0
M  V30 8818 H 827.459 -1.70629 -2.78484 0
M  V30 8819 H 826.118 -3.36786 -1.44813 0
M  V30 8820 H 825.766 -3.15779 -3.91526 0
M  V30 8821 H 825.466 -4.82269 -3.35694 0
M  V30 8822 H 826.99 -4.4297 -4.2025 0
M  V30 8823 H 828.404 -5.3281 -2.11629 0
M  V30 8824 H 826.801 -5.81283 -1.49098 0
M  V30 8825 H 827.871 -4.82522 -0.479676 0
M  V30 8826 N 829.214 0.302327 -1.54673 0
M  V30 8827 C 830.124 1.39542 -1.88587 0
M  V30 8828 C 831.14 1.55543 -0.779895 0
M  V30 8829 O 832.316 1.70233 -1.07623 0
M  V30 8830 C 829.381 2.7394 -2.12504 0
M  V30 8831 C 828.442 2.66935 -3.3622 0
M  V30 8832 C 827.675 3.94923 -3.58987 0
M  V30 8833 O 827.898 4.94218 -2.84789 0
M  V30 8834 O 826.832 3.96896 -4.52501 0
M  V30 8835 H 830.658 1.13784 -2.81579 0
M  V30 8836 H 828.243 0.49827 -1.40846 0
M  V30 8837 H 830.125 3.5346 -2.29443 0
M  V30 8838 H 828.8 2.99544 -1.22698 0
M  V30 8839 H 827.707 1.85892 -3.24646 0
M  V30 8840 H 829.04 2.46283 -4.26152 0
M  V30 8841 N 830.692 1.47107 0.565454 0
M  V30 8842 C 831.622 1.61846 1.68309 0
M  V30 8843 C 832.603 0.468159 1.63531 0
M  V30 8844 O 833.788 0.696504 1.8128 0
M  V30 8845 C 830.918 1.62474 3.06952 0
M  V30 8846 C 829.872 2.76649 3.26572 0
M  V30 8847 C 829.198 2.62345 4.65917 0
M  V30 8848 C 830.498 4.18319 3.12741 0
M  V30 8849 H 832.192 2.55407 1.5623 0
M  V30 8850 H 829.738 1.22916 0.750179 0
M  V30 8851 H 831.691 1.71378 3.84977 0
M  V30 8852 H 830.415 0.654692 3.19971 0
M  V30 8853 H 829.074 2.67242 2.50952 0
M  V30 8854 H 828.722 1.63386 4.75725 0
M  V30 8855 H 828.422 3.38936 4.79996 0
M  V30 8856 H 829.946 2.73165 5.46089 0
M  V30 8857 H 831.36 4.28745 3.80593 0
M  V30 8858 H 829.757 4.95632 3.38333 0
M  V30 8859 H 830.827 4.37263 2.09592 0
M  V30 8860 N 832.17 -0.811516 1.35101 0
M  V30 8861 C 833.08 -1.95475 1.29718 0
M  V30 8862 C 834.096 -1.72813 0.202909 0
M  V30 8863 O 835.272 -1.96725 0.431414 0
M  V30 8864 C 832.337 -3.29975 1.06385 0
M  V30 8865 C 831.398 -3.65566 2.25077 0
M  V30 8866 C 830.631 -4.93648 2.02848 0
M  V30 8867 O 830.854 -5.617 0.992442 0
M  V30 8868 O 829.788 -5.27384 2.90087 0
M  V30 8869 H 833.614 -2.02961 2.25921 0
M  V30 8870 H 831.199 -0.948583 1.15422 0
M  V30 8871 H 833.081 -4.10506 0.951999 0
M  V30 8872 H 831.756 -3.2343 0.132294 0
M  V30 8873 H 830.663 -2.85432 2.41825 0
M  V30 8874 H 831.996 -3.7681 3.16662 0
M  V30 8875 N 833.648 -1.19017 -1.03309 0
M  V30 8876 C 834.596 -0.920627 -2.13605 0
M  V30 8877 C 835.59 0.121969 -1.6896 0
M  V30 8878 O 836.796 -0.0268854 -1.7998 0
M  V30 8879 H 833.171 -0.280284 -0.697814 0
M  V30 8880 H 835.142 -1.85755 -2.33533 0
M  V30 8881 C 833.891 -0.471198 -3.44492 0
M  V30 8882 H 833.214 -1.26499 -3.7926 0
M  V30 8883 H 834.654 -0.321663 -4.22778 0
M  V30 8884 C 833.113 0.81411 -3.26916 0
M  V30 8885 O 833.643 1.87654 -3.55175 0
M  V30 8886 N 831.849 0.769695 -2.80221 0
M  V30 8887 H 831.396 -0.0951278 -2.57424 0
M  V30 8888 H 831.354 1.63008 -2.68842 0
M  V30 8889 N 835.127 1.22348 -0.993418 0
M  V30 8890 C 836.352 1.95666 -0.687727 0
M  V30 8891 C 836.777 1.72883 0.741161 0
M  V30 8892 O 836.135 1.00837 1.50671 0
M  V30 8893 C 836.183 3.46457 -0.99998 0
M  V30 8894 O 835.287 4.12281 -0.0989386 0
M  V30 8895 H 834.628 0.612102 -0.257346 0
M  V30 8896 H 837.158 1.55428 -1.33054 0
M  V30 8897 H 837.168 3.96976 -0.942035 0
M  V30 8898 H 835.843 3.62365 -2.04118 0
M  V30 8899 H 834.42 3.72295 -0.212413 0
M  V30 8900 N 836.605 0.766683 1.37694 0
M  V30 8901 C 837.851 0.329201 2.0011 0
M  V30 8902 C 838.184 -1.09004 1.60723 0
M  V30 8903 O 837.459 -1.74895 0.850989 0
M  V30 8904 C 837.742 0.466989 3.57059 0
M  V30 8905 C 837.595 1.92828 4.06371 0
M  V30 8906 C 838.914 -0.131792 4.39903 0
M  V30 8907 H 836.033 0.12109 0.726984 0
M  V30 8908 H 838.675 0.968779 1.63446 0
M  V30 8909 H 836.825 -0.0775023 3.88423 0
M  V30 8910 H 838.497 2.53208 3.85595 0
M  V30 8911 H 836.74 2.43884 3.58752 0
M  V30 8912 H 837.411 1.97577 5.15429 0
M  V30 8913 H 839.887 0.332731 4.14768 0
M  V30 8914 H 838.763 -0.005217 5.489 0
M  V30 8915 H 839.024 -1.22156 4.24889 0
M  V30 8916 N 838.083 -1.48885 0.516809 0
M  V30 8917 C 839.311 -2.06892 -0.0184017 0
M  V30 8918 C 839.726 -1.37511 -1.29368 0
M  V30 8919 O 839.083 -0.458409 -1.76649 0
M  V30 8920 C 839.134 -3.60566 -0.259673 0
M  V30 8921 O 838.855 -4.27338 0.965065 0
M  V30 8922 C 840.356 -4.35331 -0.836751 0
M  V30 8923 H 837.576 -0.670433 0.0275743 0
M  V30 8924 H 840.12 -1.91455 0.718689 0
M  V30 8925 H 838.275 -3.75653 -0.94678 0
M  V30 8926 H 838.689 -5.19287 0.737647 0
M  V30 8927 H 840.163 -5.43675 -0.955065 0
M  V30 8928 H 840.64 -3.9887 -1.83845 0
M  V30 8929 H 841.246 -4.2489 -0.186622 0
M  V30 8930 N 839.561 -0.251338 -1.55583 0
M  V30 8931 C 840.491 0.640437 -2.24545 0
M  V30 8932 C 841.472 1.17781 -1.22726 0
M  V30 8933 O 842.657 1.21633 -1.5139 0
M  V30 8934 C 839.787 1.8355 -2.94834 0
M  V30 8935 C 838.741 1.4307 -4.03379 0
M  V30 8936 C 838.067 2.70695 -4.61116 0
M  V30 8937 C 839.367 0.59848 -5.1886 0
M  V30 8938 H 841.061 0.0653772 -2.99329 0
M  V30 8939 H 838.607 0.0300042 -1.43969 0
M  V30 8940 H 840.56 2.46505 -3.4178 0
M  V30 8941 H 839.284 2.43601 -2.17546 0
M  V30 8942 H 837.943 0.824474 -3.57209 0
M  V30 8943 H 837.591 3.28954 -3.80524 0
M  V30 8944 H 837.291 2.44332 -5.34393 0
M  V30 8945 H 838.815 3.34541 -5.10798 0
M  V30 8946 H 840.229 1.13244 -5.62004 0
M  V30 8947 H 838.626 0.430728 -5.98552 0
M  V30 8948 H 839.696 -0.38829 -4.83343 0
M  V30 8949 N 841.039 1.57585 0.0217189 0
M  V30 8950 C 842.287 1.89231 0.709641 0
M  V30 8951 C 842.608 0.849964 1.75501 0
M  V30 8952 O 841.878 -0.115485 1.95559 0
M  V30 8953 H 840.458 0.69838 0.265092 0
M  V30 8954 H 843.12 1.94895 -0.0140688 0
M  V30 8955 H 842.216 2.88333 1.19459 0
M  V30 8956 N 842.517 -0.29412 1.54831 0
M  V30 8957 C 843.928 -0.866651 1.65366 0
M  V30 8958 C 844.279 -1.87834 0.56681 0
M  V30 8959 O 843.404 -2.14374 -0.295389 0
M  V30 8960 C 843.999 -1.57869 2.99771 0
M  V30 8961 C 842.558 -2.09954 3.12404 0
M  V30 8962 C 841.705 -0.934492 2.6108 0
M  V30 8963 H 844.656 -0.0709551 1.58541 0
M  V30 8964 H 844.677 -2.44462 2.91579 0
M  V30 8965 H 844.189 -0.84212 3.78853 0
M  V30 8966 H 842.29 -2.86637 2.38055 0
M  V30 8967 H 842.403 -2.32934 4.18663 0
M  V30 8968 H 840.767 -1.32199 2.17705 0
M  V30 8969 H 841.55 -0.211768 3.42646 0
M  V30 8970 N 843.995 -1.47404 -0.557645 0
M  V30 8971 C 844.943 -1.60265 -1.68576 0
M  V30 8972 C 845.937 -0.469982 -1.6275 0
M  V30 8973 O 847.143 -0.647764 -1.67941 0
M  V30 8974 H 843.518 -0.504353 -0.557792 0
M  V30 8975 H 845.489 -2.55066 -1.54867 0
M  V30 8976 C 844.238 -1.63369 -3.0693 0
M  V30 8977 H 843.561 -2.49874 -3.12095 0
M  V30 8978 H 845.001 -1.76417 -3.85556 0
M  V30 8979 C 843.46 -0.366921 -3.34896 0
M  V30 8980 O 843.99 0.53218 -3.98159 0
M  V30 8981 N 842.196 -0.247082 -2.89548 0
M  V30 8982 H 841.743 -0.979669 -2.38244 0
M  V30 8983 H 841.701 0.599552 -3.0863 0
M  V30 8984 N 845.473 0.80434 -1.35529 0
M  V30 8985 C 846.403 1.93086 -1.31301 0
M  V30 8986 C 847.384 1.69068 -0.187044 0
M  V30 8987 O 848.569 1.90399 -0.382359 0
M  V30 8988 C 845.699 3.29867 -1.0865 0
M  V30 8989 C 844.653 3.68373 -2.17911 0
M  V30 8990 C 843.979 5.0334 -1.80423 0
M  V30 8991 C 845.279 3.78516 -3.59893 0
M  V30 8992 H 846.973 1.96882 -2.25561 0
M  V30 8993 H 844.519 0.945841 -1.08581 0
M  V30 8994 H 846.472 4.08281 -1.04331 0
M  V30 8995 H 845.196 3.2642 -0.108359 0
M  V30 8996 H 843.855 2.92247 -2.21331 0
M  V30 8997 H 843.503 4.96399 -0.812213 0
M  V30 8998 H 843.203 5.30074 -2.53565 0
M  V30 8999 H 844.727 5.84191 -1.77633 0
M  V30 9000 H 846.141 4.47155 -3.58783 0
M  V30 9001 H 844.538 4.16721 -4.31814 0
M  V30 9002 H 845.608 2.8001 -3.95882 0
M  V30 9003 N 846.951 1.19563 1.02676 0
M  V30 9004 C 847.881 0.959024 2.12897 0
M  V30 9005 C 848.862 -0.108382 1.69754 0
M  V30 9006 O 850.047 0.0470698 1.94143 0
M  V30 9007 C 847.177 0.499211 3.43693 0
M  V30 9008 C 846.131 1.5087 4.00528 0
M  V30 9009 C 845.457 0.905884 5.2697 0
M  V30 9010 C 846.757 2.88954 4.3509 0
M  V30 9011 H 848.451 1.88084 2.32948 0
M  V30 9012 H 845.997 0.905731 1.11949 0
M  V30 9013 H 847.95 0.320965 4.20176 0
M  V30 9014 H 846.674 -0.458205 3.2337 0
M  V30 9015 H 845.333 1.67413 3.26142 0
M  V30 9016 H 844.981 -0.0591506 5.02965 0
M  V30 9017 H 844.681 1.58 5.65959 0
M  V30 9018 H 846.205 0.73848 6.06118 0
M  V30 9019 H 847.619 2.75981 5.02501 0
M  V30 9020 H 846.016 3.53177 4.85166 0
M  V30 9021 H 847.086 3.41447 3.44299 0
M  V30 9022 N 848.429 -1.21819 0.999893 0
M  V30 9023 C 849.84 -1.72517 0.713775 0
M  V30 9024 C 850.191 -1.80505 -0.768922 0
M  V30 9025 O 849.316 -1.45611 -1.60083 0
M  V30 9026 C 849.911 -3.13321 1.28901 0
M  V30 9027 C 848.47 -3.61396 1.05212 0
M  V30 9028 C 847.617 -2.39074 1.40494 0
M  V30 9029 H 850.568 -1.07068 1.17141 0
M  V30 9030 H 850.589 -3.74535 0.671084 0
M  V30 9031 H 850.101 -3.07475 2.36814 0
M  V30 9032 H 848.202 -3.72599 -0.0100732 0
M  V30 9033 H 848.315 -4.47145 1.72042 0
M  V30 9034 H 846.679 -2.41015 0.823642 0
M  V30 9035 H 847.462 -2.35884 2.49427 0
M  V30 9036 N 849.908 -0.773975 -1.37286 0
M  V30 9037 C 851.157 -0.335977 -1.98882 0
M  V30 9038 C 851.47 1.09416 -1.62134 0
M  V30 9039 O 852.676 1.63366 -2.1685 0
M  V30 9040 C 851.132 -0.549756 -3.55676 0
M  V30 9041 C 850.74 -1.9903 -4.01361 0
M  V30 9042 C 852.484 -0.175493 -4.24137 0
M  V30 9043 C 850.391 -2.15156 -5.50874 0
M  V30 9044 H 849.321 -0.121877 -0.744085 0
M  V30 9045 H 851.972 -0.953419 -1.56787 0
M  V30 9046 H 850.354 0.137175 -3.95762 0
M  V30 9047 H 851.528 -2.71237 -3.72515 0
M  V30 9048 H 849.843 -2.32137 -3.4569 0
M  V30 9049 H 852.44 -0.274463 -5.33995 0
M  V30 9050 H 852.783 0.874524 -4.07011 0
M  V30 9051 H 853.316 -0.815058 -3.89361 0
M  V30 9052 H 850.055 -3.18485 -5.72929 0
M  V30 9053 H 849.575 -1.47435 -5.81397 0
M  V30 9054 H 851.254 -1.95124 -6.16876 0
M  V30 9055 N 851.386 1.48609 -0.524698 0
M  V30 9056 C 852.626 2.04398 0.00938367 0
M  V30 9057 C 852.99 1.39355 1.32077 0
M  V30 9058 O 854.191 1.86 1.94055 0
M  V30 9059 C 852.462 3.57148 0.134318 0
M  V30 9060 S 854.021 4.34409 0.619227 0
M  V30 9061 H 850.839 0.710936 -0.00953362 0
M  V30 9062 H 853.441 1.82382 -0.704058 0
M  V30 9063 H 852.145 4.02022 -0.825027 0
M  V30 9064 H 851.676 3.83607 0.872296 0
M  V30 9065 H 853.691 4.59017 1.88462 0
M  V30 9066 N 852.864 0.259585 1.55447 0
M  V30 9067 C 853.794 -0.62852 2.24882 0
M  V30 9068 C 854.775 -1.17128 1.23349 0
M  V30 9069 O 855.96 -1.20829 1.52033 0
M  V30 9070 C 853.09 -1.81983 2.95803 0
M  V30 9071 C 852.044 -1.40929 4.04132 0
M  V30 9072 C 851.37 -2.68246 4.62545 0
M  V30 9073 C 852.67 -0.570956 5.1917 0
M  V30 9074 H 854.364 -0.0495021 2.99359 0
M  V30 9075 H 851.91 -0.0223688 1.43983 0
M  V30 9076 H 853.863 -2.44689 3.43082 0
M  V30 9077 H 852.587 -2.42444 2.18835 0
M  V30 9078 H 851.246 -0.805519 3.57641 0
M  V30 9079 H 850.894 -3.26931 3.82263 0
M  V30 9080 H 850.594 -2.41495 5.35681 0
M  V30 9081 H 852.118 -3.31827 5.12565 0
M  V30 9082 H 853.532 -1.10262 5.62597 0
M  V30 9083 H 851.929 -0.398979 5.98772 0
M  V30 9084 H 852.999 0.413918 4.8313 0
M  V30 9085 N 854.342 -1.57594 -0.0133615 0
M  V30 9086 C 855.753 -1.78168 -0.557937 0
M  V30 9087 C 856.104 -0.892616 -1.74719 0
M  V30 9088 O 855.229 -0.0915491 -2.16206 0
M  V30 9089 C 855.824 -3.23115 -1.01894 0
M  V30 9090 C 854.383 -3.44831 -1.50892 0
M  V30 9091 C 853.53 -2.73558 -0.454044 0
M  V30 9092 H 856.481 -1.57266 0.212843 0
M  V30 9093 H 856.502 -3.30493 -1.8856 0
M  V30 9094 H 856.014 -3.87798 -0.153175 0
M  V30 9095 H 854.115 -2.85345 -2.39602 0
M  V30 9096 H 854.228 -4.53485 -1.54559 0
M  V30 9097 H 852.592 -2.37787 -0.912666 0
M  V30 9098 H 853.375 -3.40932 0.402524 0
M  V30 9099 N 855.82 0.285905 -1.54985 0
M  V30 9100 C 857.097 1.0397 -1.65679 0
M  V30 9101 C 857.477 2.04725 -0.514851 0
M  V30 9102 O 856.825 2.23257 0.486663 0
M  V30 9103 C 857.035 1.70807 -3.04345 0
M  V30 9104 C 858.383 2.22447 -3.61666 0
M  V30 9105 O 859.407 1.80815 -3.06895 0
M  V30 9106 O 858.266 2.98773 -4.57599 0
M  V30 9107 H 855.36 0.481473 -0.672394 0
M  V30 9108 H 857.906 0.282789 -1.67327 0
M  V30 9109 H 856.678 0.977271 -3.789 0
M  V30 9110 H 856.301 2.53217 -3.06541 0
M  V30 9111 N 857.298 1.47698 0.54982 0
M  V30 9112 C 858.246 1.61156 1.67724 0
M  V30 9113 C 859.24 0.478606 1.62498 0
M  V30 9114 O 860.446 0.656661 1.67595 0
M  V30 9115 H 856.821 0.507304 0.55511 0
M  V30 9116 H 858.792 2.55884 1.53512 0
M  V30 9117 C 857.541 1.64994 3.06059 0
M  V30 9118 H 856.864 2.51525 3.10765 0
M  V30 9119 H 858.304 1.78459 3.84615 0
M  V30 9120 C 856.763 0.384677 3.34697 0
M  V30 9121 O 857.293 -0.511057 3.98436 0
M  V30 9122 N 855.499 0.262434 2.89413 0
M  V30 9123 H 855.046 0.99229 2.37721 0
M  V30 9124 H 855.004 -0.583177 3.08944 0
M  V30 9125 N 858.776 -0.797141 1.35954 0
M  V30 9126 C 860.053 -1.54224 1.2031 0
M  V30 9127 C 860.433 -2.10013 -0.213926 0
M  V30 9128 O 859.781 -1.93292 -1.21862 0
M  V30 9129 C 859.991 -2.6433 2.27883 0
M  V30 9130 C 861.339 -3.32418 2.64165 0
M  V30 9131 O 862.363 -2.74607 2.26868 0
M  V30 9132 O 861.222 -4.36876 3.28331 0
M  V30 9133 H 858.316 -0.681857 0.467974 0
M  V30 9134 H 860.862 -0.836288 1.47663 0
M  V30 9135 H 859.634 -2.21044 3.22885 0
M  V30 9136 H 859.257 -3.42551 2.01853 0
M  V30 9137 N 860.254 -1.20106 -1.0204 0
M  V30 9138 C 861.482 -1.0344 -1.79186 0
M  V30 9139 C 861.897 0.416542 -1.84148 0
M  V30 9140 O 861.254 1.28925 -1.29168 0
M  V30 9141 C 861.305 -1.60663 -3.23836 0
M  V30 9142 O 861.026 -3.00079 -3.19193 0
M  V30 9143 C 862.527 -1.48897 -4.17546 0
M  V30 9144 H 859.747 -0.364093 -0.563629 0
M  V30 9145 H 862.291 -1.5911 -1.28469 0
M  V30 9146 H 860.446 -1.09122 -3.71714 0
M  V30 9147 H 860.86 -3.27162 -4.09958 0
M  V30 9148 H 862.334 -1.93703 -5.16898 0
M  V30 9149 H 862.811 -0.440843 -4.36982 0
M  V30 9150 H 863.417 -1.9961 -3.75547 0
M  V30 9151 N 861.732 1.21287 -1.00634 0
M  V30 9152 C 862.979 1.90389 -0.6898 0
M  V30 9153 C 863.307 1.78193 0.779574 0
M  V30 9154 O 862.562 1.15358 1.58085 0
M  V30 9155 C 862.861 3.41374 -1.05824 0
M  V30 9156 C 862.527 3.73766 -2.5221 0
M  V30 9157 C 861.189 3.82317 -2.92211 0
M  V30 9158 C 863.541 3.88871 -3.47028 0
M  V30 9159 C 860.869 4.03423 -4.2599 0
M  V30 9160 C 863.221 4.11484 -4.80483 0
M  V30 9161 C 861.885 4.18263 -5.20204 0
M  V30 9162 H 861.155 0.696683 -0.252416 0
M  V30 9163 H 863.802 1.43769 -1.26502 0
M  V30 9164 H 862.107 3.8974 -0.401281 0
M  V30 9165 H 863.804 3.93118 -0.79116 0
M  V30 9166 H 860.394 3.67702 -2.20212 0
M  V30 9167 H 864.578 3.8163 -3.17289 0
M  V30 9168 H 859.834 4.06902 -4.56334 0
M  V30 9169 H 864.008 4.22115 -5.53888 0
M  V30 9170 H 861.635 4.34369 -6.23881 0
M  V30 9171 N 863.21 0.781244 1.36873 0
M  V30 9172 C 864.44 0.361042 2.03421 0
M  V30 9173 C 864.848 -1.02471 1.59048 0
M  V30 9174 O 864.191 -1.66712 0.771552 0
M  V30 9175 C 864.253 0.336202 3.57924 0
M  V30 9176 C 863.917 1.66815 4.25467 0
M  V30 9177 C 864.914 2.62224 4.48926 0
M  V30 9178 C 862.599 1.9452 4.63106 0
M  V30 9179 C 864.593 3.83538 5.09095 0
M  V30 9180 C 862.28 3.16103 5.22994 0
M  V30 9181 C 863.278 4.10431 5.45926 0
M  V30 9182 O 862.966 5.29871 6.04559 0
M  V30 9183 H 862.698 0.147956 0.65961 0
M  V30 9184 H 865.252 1.05895 1.75998 0
M  V30 9185 H 863.482 -0.418147 3.84433 0
M  V30 9186 H 865.171 -0.0582199 4.05858 0
M  V30 9187 H 865.937 2.42104 4.20251 0
M  V30 9188 H 861.816 1.21921 4.44585 0
M  V30 9189 H 865.36 4.57178 5.2691 0
M  V30 9190 H 861.257 3.36104 5.51094 0
M  V30 9191 H 862.025 5.30825 6.23031 0
M  V30 9192 N 864.689 -1.48329 0.532571 0
M  V30 9193 C 865.966 -1.95492 -0.0650985 0
M  V30 9194 C 866.346 -1.47485 -1.51034 0
M  V30 9195 O 865.694 -0.702516 -2.17433 0
M  V30 9196 C 865.904 -3.48957 0.0548341 0
M  V30 9197 C 867.252 -4.24475 -0.103115 0
M  V30 9198 O 868.276 -3.56195 -0.0188343 0
M  V30 9199 O 867.135 -5.45781 -0.280164 0
M  V30 9200 H 864.229 -0.823327 -0.0778603 0
M  V30 9201 H 866.775 -1.58839 0.597353 0
M  V30 9202 H 865.547 -3.76628 1.06148 0
M  V30 9203 H 865.17 -3.92311 -0.64635 0
M  V30 9204 N 866.167 -0.267825 -1.55308 0
M  V30 9205 C 867.097 0.616585 -2.25212 0
M  V30 9206 C 868.078 1.16472 -1.23969 0
M  V30 9207 O 869.263 1.20021 -1.52672 0
M  V30 9208 C 866.393 1.80412 -2.96764 0
M  V30 9209 C 865.347 1.38784 -4.04874 0
M  V30 9210 C 864.673 2.65789 -4.63961 0
M  V30 9211 C 865.973 0.543415 -5.19465 0
M  V30 9212 H 867.667 0.0336257 -2.99381 0
M  V30 9213 H 865.213 0.0147328 -1.43992 0
M  V30 9214 H 867.166 2.42866 -3.44375 0
M  V30 9215 H 865.89 2.4128 -2.20118 0
M  V30 9216 H 864.549 0.786541 -3.58063 0
M  V30 9217 H 864.197 3.24899 -3.83992 0
M  V30 9218 H 863.897 2.38651 -5.36954 0
M  V30 9219 H 865.421 3.29104 -5.14318 0
M  V30 9220 H 866.835 1.07277 -5.63174 0
M  V30 9221 H 865.232 0.367219 -5.98975 0
M  V30 9222 H 866.302 -0.439534 -4.82904 0
M  V30 9223 N 867.645 1.57599 0.00500368 0
M  V30 9224 C 868.893 1.89973 0.68953 0
M  V30 9225 C 869.214 0.868531 1.7459 0
M  V30 9226 O 868.484 -0.0947367 1.95671 0
M  V30 9227 H 867.064 0.701153 0.25767 0
M  V30 9228 H 869.726 1.94869 -0.0347392 0
M  V30 9229 H 868.822 2.89584 1.16394 0
M  V30 9230 N 869.123 -0.277682 1.55134 0
M  V30 9231 C 870.053 -1.34742 1.90701 0
M  V30 9232 C 871.034 -1.51757 0.768354 0
M  V30 9233 O 872.219 -1.64879 1.02609 0
M  V30 9234 C 869.349 -2.70775 2.17481 0
M  V30 9235 C 868.303 -2.68497 3.33307 0
M  V30 9236 C 867.629 -4.08037 3.45557 0
M  V30 9237 C 868.929 -2.28178 4.69821 0
M  V30 9238 H 870.623 -1.05224 2.803 0
M  V30 9239 H 868.169 -0.504738 1.34864 0
M  V30 9240 H 870.122 -3.45719 2.40949 0
M  V30 9241 H 868.846 -3.01867 1.24676 0
M  V30 9242 H 867.505 -1.9601 3.09799 0
M  V30 9243 H 867.153 -4.36344 2.50226 0
M  V30 9244 H 866.853 -4.07409 4.23429 0
M  V30 9245 H 868.377 -4.84726 3.71312 0
M  V30 9246 H 869.791 -2.92843 4.92865 0
M  V30 9247 H 868.188 -2.3872 5.50575 0
M  V30 9248 H 869.258 -1.23308 4.6896 0
M  V30 9249 N 870.601 -1.47988 -0.541979 0
M  V30 9250 C 871.534 -1.56172 -1.66389 0
M  V30 9251 C 872.512 -0.412879 -1.57271 0
M  V30 9252 O 873.696 -0.622816 -1.77914 0
M  V30 9253 C 870.823 -1.47851 -3.04726 0
M  V30 9254 C 869.869 -2.67428 -3.32242 0
M  V30 9255 S 870.702 -4.29502 -3.19825 0
M  V30 9256 C 871.858 -4.2376 -4.60628 0
M  V30 9257 H 872.091 -2.51086 -1.59195 0
M  V30 9258 H 869.624 -1.36373 -0.724005 0
M  V30 9259 H 871.582 -1.43738 -3.84512 0
M  V30 9260 H 870.243 -0.542958 -3.09372 0
M  V30 9261 H 869.436 -2.57711 -4.33129 0
M  V30 9262 H 869.038 -2.68743 -2.60103 0
M  V30 9263 H 871.33 -3.92953 -5.51901 0
M  V30 9264 H 872.273 -5.24786 -4.75401 0
M  V30 9265 H 872.681 -3.54398 -4.39389 0
M  V30 9266 N 872.079 0.78992 -1.36375 0
M  V30 9267 C 873.327 1.54472 -1.30319 0
M  V30 9268 C 873.648 1.94647 0.117338 0
M  V30 9269 O 872.918 1.64906 1.05748 0
M  V30 9270 H 871.498 0.572879 -0.479394 0
M  V30 9271 H 874.16 0.941245 -1.70665 0
M  V30 9272 H 873.256 2.45252 -1.93024 0
M  V30 9273 N 873.557 1.20646 1.01402 0
M  V30 9274 C 874.787 1.04238 1.78376 0
M  V30 9275 C 875.195 -0.411327 1.84675 0
M  V30 9276 O 874.538 -1.29734 1.30057 0
M  V30 9277 C 874.6 1.55349 3.24202 0
M  V30 9278 C 874.264 3.03684 3.41504 0
M  V30 9279 C 875.261 4.01318 3.30514 0
M  V30 9280 C 872.946 3.42698 3.67237 0
M  V30 9281 C 874.94 5.35956 3.45007 0
M  V30 9282 C 872.627 4.77491 3.81373 0
M  V30 9283 C 873.625 5.73929 3.70263 0
M  V30 9284 O 873.313 7.06277 3.83963 0
M  V30 9285 H 873.045 0.366978 0.567718 0
M  V30 9286 H 875.599 1.60235 1.28506 0
M  V30 9287 H 873.829 0.93739 3.75166 0
M  V30 9288 H 875.518 1.34921 3.8282 0
M  V30 9289 H 876.284 3.72522 3.10568 0
M  V30 9290 H 872.163 2.68175 3.74971 0
M  V30 9291 H 875.707 6.11212 3.36252 0
M  V30 9292 H 871.604 5.05977 4.00821 0
M  V30 9293 H 872.372 7.13561 4.00965 0
M  V30 9294 N 875.035 -1.20752 1.01276 0
M  V30 9295 C 876.281 -1.90302 0.700924 0
M  V30 9296 C 876.614 -1.78406 -0.767142 0
M  V30 9297 O 875.889 -1.16575 -1.55694 0
M  V30 9298 C 876.172 -3.41831 1.13242 0
M  V30 9299 C 876.025 -3.6268 2.66051 0
M  V30 9300 C 877.344 -4.34486 0.700738 0
M  V30 9301 H 874.463 -0.69107 0.256107 0
M  V30 9302 H 877.105 -1.42227 1.25982 0
M  V30 9303 H 875.255 -3.82906 0.656902 0
M  V30 9304 H 876.927 -3.30882 3.21426 0
M  V30 9305 H 875.17 -3.06281 3.07204 0
M  V30 9306 H 875.841 -4.68882 2.91296 0
M  V30 9307 H 878.317 -4.01036 1.10948 0
M  V30 9308 H 877.193 -5.39136 1.03073 0
M  V30 9309 H 877.454 -4.40307 -0.39778 0
M  V30 9310 N 876.513 -0.788492 -1.36457 0
M  V30 9311 C 877.738 -0.371224 -2.04051 0
M  V30 9312 C 878.163 1.004 -1.59064 0
M  V30 9313 O 877.521 1.64663 -0.758679 0
M  V30 9314 C 877.569 -0.442275 -3.57877 0
M  V30 9315 O 876.673 0.55113 -4.08701 0
M  V30 9316 H 876.014 -0.157808 -0.644975 0
M  V30 9317 H 878.544 -1.06935 -1.74431 0
M  V30 9318 H 878.554 -0.305548 -4.06854 0
M  V30 9319 H 877.229 -1.44547 -3.89973 0
M  V30 9320 H 875.806 0.37614 -3.70998 0
M  V30 9321 N 877.991 1.48044 -0.54043 0
M  V30 9322 C 879.239 2.02097 -0.0101367 0
M  V30 9323 C 879.56 1.41881 1.33771 0
M  V30 9324 O 878.83 0.587923 1.8687 0
M  V30 9325 H 877.41 0.747 -0.000758716 0
M  V30 9326 H 880.072 1.81639 -0.706634 0
M  V30 9327 H 879.168 3.11969 0.0904474 0
M  V30 9328 N 879.47 0.276058 1.55163 0
M  V30 9329 C 880.717 -0.340455 1.99618 0
M  V30 9330 C 881.045 -1.5579 1.16446 0
M  V30 9331 O 880.3 -1.94433 0.222359 0
M  V30 9332 C 880.599 -0.765744 3.491 0
M  V30 9333 C 880.265 0.347174 4.49561 0
M  V30 9334 C 878.927 0.65276 4.76752 0
M  V30 9335 C 881.279 1.09705 5.09523 0
M  V30 9336 C 878.607 1.71179 5.61173 0
M  V30 9337 C 880.959 2.14581 5.95095 0
M  V30 9338 C 879.623 2.45773 6.20606 0
M  V30 9339 H 878.893 -0.124581 0.730452 0
M  V30 9340 H 881.54 0.389966 1.87487 0
M  V30 9341 H 879.845 -1.57585 3.58712 0
M  V30 9342 H 881.542 -1.25352 3.80904 0
M  V30 9343 H 878.132 0.0988779 4.28486 0
M  V30 9344 H 882.316 0.874223 4.8854 0
M  V30 9345 H 877.572 1.95846 5.79184 0
M  V30 9346 H 881.746 2.7316 6.40591 0
M  V30 9347 H 879.373 3.27969 6.85813 0
M  V30 9348 N 880.948 -1.576 0.00335426 0
M  V30 9349 C 882.196 -1.90336 -0.679446 0
M  V30 9350 C 882.517 -0.877777 -1.74127 0
M  V30 9351 O 881.787 0.0843585 -1.95718 0
M  V30 9352 H 880.367 -0.702509 -0.253948 0
M  V30 9353 H 883.029 -1.94848 0.0450731 0
M  V30 9354 H 882.125 -2.90197 -1.14857 0
M  V30 9355 N 882.426 0.269451 -1.5528 0
M  V30 9356 C 883.672 1.00206 -1.76314 0
M  V30 9357 C 884.005 1.85812 -0.564581 0
M  V30 9358 O 883.28 1.89509 0.437769 0
M  V30 9359 C 883.563 1.88163 -3.07029 0
M  V30 9360 C 883.416 1.05527 -4.37246 0
M  V30 9361 C 884.735 2.8681 -3.33808 0
M  V30 9362 H 881.854 0.36288 -0.641473 0
M  V30 9363 H 884.496 0.274188 -1.88011 0
M  V30 9364 H 882.646 2.50224 -2.97187 0
M  V30 9365 H 884.318 0.455094 -4.5905 0
M  V30 9366 H 882.561 0.358842 -4.32313 0
M  V30 9367 H 883.232 1.70397 -5.25042 0
M  V30 9368 H 885.708 2.34884 -3.43466 0
M  V30 9369 H 884.584 3.45492 -4.26528 0
M  V30 9370 H 884.845 3.62118 -2.5362 0
M  V30 9371 N 883.904 1.48273 0.534124 0
M  V30 9372 C 884.837 1.57053 1.65559 0
M  V30 9373 C 885.815 0.421213 1.5705 0
M  V30 9374 O 886.999 0.632242 1.77581 0
M  V30 9375 C 884.126 1.49465 3.03937 0
M  V30 9376 C 883.172 2.69186 3.30819 0
M  V30 9377 S 884.005 4.31192 3.17543 0
M  V30 9378 C 885.161 4.26197 4.58375 0
M  V30 9379 H 885.394 2.51927 1.57861 0
M  V30 9380 H 882.927 1.36755 0.716763 0
M  V30 9381 H 884.885 1.45775 3.83745 0
M  V30 9382 H 883.546 0.559357 3.09079 0
M  V30 9383 H 882.739 2.60005 4.31756 0
M  V30 9384 H 882.341 2.70118 2.58674 0
M  V30 9385 H 884.633 3.95874 5.49809 0
M  V30 9386 H 885.576 5.27299 4.72611 0
M  V30 9387 H 885.984 3.56723 4.37503 0
M  V30 9388 N 885.382 -0.782676 1.36792 0
M  V30 9389 C 886.292 -1.92679 1.33835 0
M  V30 9390 C 887.308 -1.72344 0.23952 0
M  V30 9391 O 888.484 -1.95766 0.473045 0
M  V30 9392 C 885.549 -3.27644 1.1336 0
M  V30 9393 C 884.61 -3.6071 2.32781 0
M  V30 9394 C 883.843 -4.89234 2.13273 0
M  V30 9395 O 884.066 -5.59468 1.11136 0
M  V30 9396 O 883 -5.21112 3.01208 0
M  V30 9397 H 886.826 -1.98124 2.30175 0
M  V30 9398 H 884.411 -0.923887 1.17408 0
M  V30 9399 H 886.293 -4.08394 1.03886 0
M  V30 9400 H 884.968 -3.23076 0.200868 0
M  V30 9401 H 883.875 -2.80238 2.47825 0
M  V30 9402 H 885.208 -3.70008 3.24584 0
M  V30 9403 N 886.86 -1.21182 -1.00761 0
M  V30 9404 C 887.77 -0.984691 -2.12934 0
M  V30 9405 C 888.786 0.0623657 -1.73888 0
M  V30 9406 O 889.962 -0.1271 -2.00999 0
M  V30 9407 C 887.027 -0.549447 -3.42319 0
M  V30 9408 C 886.088 -1.66841 -3.95553 0
M  V30 9409 C 885.321 -1.25384 -5.18763 0
M  V30 9410 O 885.544 -0.126333 -5.7026 0
M  V30 9411 O 884.478 -2.06475 -5.65377 0
M  V30 9412 H 888.304 -1.92413 -2.3497 0
M  V30 9413 H 885.889 -0.99647 -1.11314 0
M  V30 9414 H 887.771 -0.316384 -4.20211 0
M  V30 9415 H 886.446 0.361304 -3.21677 0
M  V30 9416 H 885.353 -1.95585 -3.189 0
M  V30 9417 H 886.686 -2.55649 -4.206 0
M  V30 9418 N 888.338 1.20213 -1.01915 0
M  V30 9419 C 889.285 2.2309 -0.591571 0
M  V30 9420 C 890.255 1.61465 0.389649 0
M  V30 9421 O 891.44 1.88606 0.288511 0
M  V30 9422 C 888.58 3.45045 0.0614028 0
M  V30 9423 C 887.693 4.21091 -0.964688 0
M  V30 9424 C 886.828 5.30448 -0.282499 0
M  V30 9425 C 885.867 5.98241 -1.29517 0
M  V30 9426 N 885.004 6.99182 -0.639472 0
M  V30 9427 H 889.844 2.59023 -1.47347 0
M  V30 9428 H 887.381 1.27274 -0.737547 0
M  V30 9429 H 889.339 4.14688 0.45714 0
M  V30 9430 H 887.969 3.09797 0.906937 0
M  V30 9431 H 887.021 3.50489 -1.47857 0
M  V30 9432 H 888.333 4.67662 -1.73475 0
M  V30 9433 H 887.487 6.06466 0.168603 0
M  V30 9434 H 886.226 4.84922 0.519843 0
M  V30 9435 H 885.231 5.20982 -1.75663 0
M  V30 9436 H 886.456 6.45853 -2.09884 0
M  V30 9437 H 884.402 6.55844 0.142955 0
M  V30 9438 H 884.319 7.43893 -1.34756 0
M  V30 9439 H 885.587 7.79212 -0.212047 0
M  V30 9440 N 889.816 0.795718 1.36037 0
M  V30 9441 C 891.065 0.367575 1.98322 0
M  V30 9442 C 891.378 -1.06823 1.63854 0
M  V30 9443 O 892.584 -1.59895 2.19421 0
M  V30 9444 C 891.04 0.606272 3.54757 0
M  V30 9445 C 890.648 2.0539 3.98144 0
M  V30 9446 C 892.392 0.242947 4.23804 0
M  V30 9447 C 890.299 2.23893 5.47381 0
M  V30 9448 H 889.229 0.133699 0.742052 0
M  V30 9449 H 891.88 0.978242 1.5525 0
M  V30 9450 H 890.262 -0.0741957 3.9593 0
M  V30 9451 H 891.436 2.77129 3.68152 0
M  V30 9452 H 889.751 2.37607 3.41953 0
M  V30 9453 H 892.348 0.359382 5.33491 0
M  V30 9454 H 892.691 -0.809661 4.08351 0
M  V30 9455 H 893.224 0.876899 3.88015 0
M  V30 9456 H 889.963 3.27559 5.6779 0
M  V30 9457 H 889.483 1.56666 5.78978 0
M  V30 9458 H 891.162 2.04914 6.13693 0
M  V30 9459 N 891.294 -1.47756 0.548274 0
M  V30 9460 C 892.257 -2.28379 -0.193857 0
M  V30 9461 C 893.257 -1.36436 -0.850986 0
M  V30 9462 O 894.447 -1.59154 -0.70822 0
M  V30 9463 C 891.579 -3.15858 -1.28243 0
M  V30 9464 H 892.772 -2.95458 0.514231 0
M  V30 9465 H 890.325 -1.53298 0.304879 0
M  V30 9466 H 891.06 -2.5345 -2.0232 0
M  V30 9467 H 890.845 -3.83512 -0.816148 0
M  V30 9468 H 892.335 -3.76627 -1.80393 0
M  V30 9469 N 892.772 -0.284283 -1.55015 0
M  V30 9470 C 893.722 0.613913 -2.19579 0
M  V30 9471 C 894.706 1.11153 -1.16335 0
M  V30 9472 O 895.898 1.05508 -1.42116 0
M  V30 9473 C 893.027 1.79329 -2.92739 0
M  V30 9474 C 892.113 1.31242 -4.03282 0
M  V30 9475 N 892.504 0.548344 -5.02819 0
M  V30 9476 C 890.802 1.5946 -4.1652 0
M  V30 9477 C 891.503 0.294358 -5.80955 0
M  V30 9478 N 890.479 0.869406 -5.36603 0
M  V30 9479 H 894.281 0.0224088 -2.93891 0
M  V30 9480 H 891.795 -0.0882619 -1.6216 0
M  V30 9481 H 893.792 2.44814 -3.37449 0
M  V30 9482 H 892.452 2.38865 -2.1994 0
M  V30 9483 H 893.463 0.194812 -5.17533 0
M  V30 9484 H 890.14 2.19866 -3.54916 0
M  V30 9485 H 891.53 -0.318195 -6.71146 0
M  V30 9486 N 894.251 1.57596 -0.0117121 0
M  V30 9487 C 895.528 1.82323 0.708356 0
M  V30 9488 C 895.908 0.891947 1.91331 0
M  V30 9489 O 895.256 -0.0565984 2.2843 0
M  V30 9490 C 895.466 3.31111 1.10303 0
M  V30 9491 C 896.814 3.97147 1.50199 0
M  V30 9492 O 897.838 3.35503 1.1965 0
M  V30 9493 O 896.697 5.0576 2.07049 0
M  V30 9494 H 893.791 0.751173 0.345931 0
M  V30 9495 H 896.337 1.69657 -0.0380632 0
M  V30 9496 H 895.109 3.90534 0.24467 0
M  V30 9497 H 894.732 3.48818 1.90818 0
M  V30 9498 N 895.729 -0.261212 1.5542 0
M  V30 9499 C 896.659 -1.32712 1.92119 0
M  V30 9500 C 897.64 -1.50934 0.784406 0
M  V30 9501 O 898.825 -1.63781 1.04352 0
M  V30 9502 C 895.955 -2.68453 2.20341 0
M  V30 9503 C 894.909 -2.64947 3.36136 0
M  V30 9504 C 894.235 -4.04349 3.49865 0
M  V30 9505 C 895.535 -2.23182 4.72215 0
M  V30 9506 H 897.229 -1.02245 2.81401 0
M  V30 9507 H 894.775 -0.490406 1.35392 0
M  V30 9508 H 896.728 -3.43144 2.44603 0
M  V30 9509 H 895.452 -3.00527 1.27871 0
M  V30 9510 H 894.111 -1.92714 3.11861 0
M  V30 9511 H 893.759 -4.33665 2.5484 0
M  V30 9512 H 893.459 -4.02895 4.27726 0
M  V30 9513 H 894.983 -4.80761 3.76432 0
M  V30 9514 H 896.397 -2.87599 4.95943 0
M  V30 9515 H 894.794 -2.32867 5.53076 0
M  V30 9516 H 895.864 -1.18327 4.70241 0
M  V30 9517 N 897.207 -1.48554 -0.526253 0
M  V30 9518 C 898.623 -1.34757 -0.855138 0
M  V30 9519 C 898.823 -0.36142 -1.98232 0
M  V30 9520 O 897.879 0.216026 -2.51574 0
M  V30 9521 C 899.192 -2.74877 -1.21915 0
M  V30 9522 C 900.74 -2.83393 -1.32882 0
M  V30 9523 C 901.215 -4.24223 -1.72624 0
M  V30 9524 N 902.706 -4.26913 -1.7972 0
M  V30 9525 C 903.441 -5.32824 -2.11863 0
M  V30 9526 N 902.937 -6.49008 -2.42405 0
M  V30 9527 N 904.73 -5.20221 -2.12901 0
M  V30 9528 H 896.881 -2.11284 0.217422 0
M  V30 9529 H 899.144 -0.947367 0.0346362 0
M  V30 9530 H 898.85 -3.48619 -0.464486 0
M  V30 9531 H 898.724 -3.0864 -2.16844 0
M  V30 9532 H 901.111 -2.09904 -2.07424 0
M  V30 9533 H 901.192 -2.53245 -0.360638 0
M  V30 9534 H 900.836 -4.98229 -0.986411 0
M  V30 9535 H 900.766 -4.51817 -2.70498 0
M  V30 9536 H 903.257 -3.4311 -1.58379 0
M  V30 9537 H 903.57 -7.25561 -2.66048 0
M  V30 9538 H 901.915 -6.52277 -2.39917 0
M  V30 9539 H 905.106 -4.28469 -1.885 0
M  V30 9540 H 905.279 -6.02861 -2.37619 0
M  V30 9541 N 898.685 0.775411 -1.37205 0
M  V30 9542 C 899.932 1.53384 -1.32211 0
M  V30 9543 C 900.26 1.9427 0.0944958 0
M  V30 9544 O 899.515 1.64059 1.06692 0
M  V30 9545 C 899.814 2.81377 -2.20367 0
M  V30 9546 C 899.48 2.59561 -3.68699 0
M  V30 9547 C 898.142 2.53319 -4.09124 0
M  V30 9548 C 900.494 2.39939 -4.62686 0
M  V30 9549 C 897.822 2.25442 -5.41658 0
M  V30 9550 C 900.174 2.13586 -5.95453 0
M  V30 9551 C 898.838 2.05786 -6.34987 0
M  V30 9552 H 898.108 0.561271 -0.483793 0
M  V30 9553 H 900.755 0.893466 -1.6938 0
M  V30 9554 H 899.06 3.49954 -1.76181 0
M  V30 9555 H 900.757 3.39238 -2.13819 0
M  V30 9556 H 897.347 2.6528 -3.36637 0
M  V30 9557 H 901.531 2.43753 -4.32317 0
M  V30 9558 H 896.787 2.17896 -5.71254 0
M  V30 9559 H 900.961 1.97401 -6.67837 0
M  V30 9560 H 898.588 1.83948 -7.37609 0
M  V30 9561 N 900.163 1.21714 1.00117 0
M  V30 9562 C 901.409 1.03823 1.74208 0
M  V30 9563 C 901.742 -0.426733 1.89454 0
M  V30 9564 O 901.017 -1.31658 1.43166 0
M  V30 9565 C 901.3 1.74047 3.15246 0
M  V30 9566 C 901.153 3.28087 3.077 0
M  V30 9567 C 902.472 1.48614 4.14249 0
M  V30 9568 H 899.591 0.378573 0.632338 0
M  V30 9569 H 902.233 1.49942 1.16694 0
M  V30 9570 H 900.383 1.3484 3.64349 0
M  V30 9571 H 902.055 3.76686 2.6628 0
M  V30 9572 H 900.298 3.58191 2.44707 0
M  V30 9573 H 900.969 3.72392 4.07466 0
M  V30 9574 H 903.445 1.82656 3.73866 0
M  V30 9575 H 902.321 2.00257 5.11066 0
M  V30 9576 H 902.582 0.416957 4.40129 0
M  V30 9577 N 901.641 -1.19671 1.02551 0
M  V30 9578 C 903.057 -1.41305 0.741963 0
M  V30 9579 C 903.257 -1.89865 -0.674807 0
M  V30 9580 O 902.313 -2.07323 -1.44129 0
M  V30 9581 C 903.626 -2.42706 1.77522 0
M  V30 9582 C 905.174 -2.56458 1.79438 0
M  V30 9583 C 905.649 -3.61111 2.81715 0
M  V30 9584 N 907.14 -3.68603 2.8051 0
M  V30 9585 C 907.875 -4.49262 3.56302 0
M  V30 9586 N 907.371 -5.33653 4.41799 0
M  V30 9587 N 909.164 -4.43879 3.44859 0
M  V30 9588 H 901.315 -0.8647 1.94002 0
M  V30 9589 H 903.578 -0.442206 0.838545 0
M  V30 9590 H 903.284 -2.14042 2.79068 0
M  V30 9591 H 903.158 -3.41831 1.59472 0
M  V30 9592 H 905.545 -2.84447 0.78573 0
M  V30 9593 H 905.626 -1.57499 2.01563 0
M  V30 9594 H 905.27 -3.33864 3.82749 0
M  V30 9595 H 905.2 -4.59713 2.56849 0
M  V30 9596 H 907.691 -3.08329 2.18498 0
M  V30 9597 H 908.004 -5.92308 4.96378 0
M  V30 9598 H 906.349 -5.33125 4.45873 0
M  V30 9599 H 909.54 -3.7699 2.77482 0
M  V30 9600 H 909.713 -5.06501 4.04179 0
M  V30 9601 N 903.119 -0.802921 -1.35613 0
M  V30 9602 C 904.049 -0.225131 -2.32412 0
M  V30 9603 C 905.03 0.647383 -1.57299 0
M  V30 9604 O 906.215 0.578414 -1.85386 0
M  V30 9605 C 903.345 0.630085 -3.41537 0
M  V30 9606 C 902.299 -0.143635 -4.27759 0
M  V30 9607 C 901.625 0.833046 -5.28171 0
M  V30 9608 C 902.925 -1.34054 -5.04804 0
M  V30 9609 H 904.619 -1.03385 -2.80984 0
M  V30 9610 H 902.165 -0.498593 -1.35093 0
M  V30 9611 H 904.118 1.04433 -4.08254 0
M  V30 9612 H 902.842 1.47165 -2.91565 0
M  V30 9613 H 901.501 -0.539015 -3.62616 0
M  V30 9614 H 901.149 1.67001 -4.74468 0
M  V30 9615 H 900.849 0.319697 -5.8673 0
M  V30 9616 H 902.373 1.24558 -5.97761 0
M  V30 9617 H 903.787 -1.00136 -5.64487 0
M  V30 9618 H 902.184 -1.78812 -5.72841 0
M  V30 9619 H 903.254 -2.12906 -4.35659 0
M  V30 9620 N 904.597 1.47463 -0.556102 0
M  V30 9621 C 906.008 1.86298 -0.122429 0
M  V30 9622 C 906.359 1.46285 1.30749 0
M  V30 9623 O 905.484 0.865405 1.98342 0
M  V30 9624 C 906.079 3.38115 -0.215407 0
M  V30 9625 C 904.638 3.76046 0.163223 0
M  V30 9626 C 903.785 2.71515 -0.563466 0
M  V30 9627 H 906.736 1.38996 -0.765888 0
M  V30 9628 H 906.757 3.76263 0.566271 0
M  V30 9629 H 906.269 3.67207 -1.25622 0
M  V30 9630 H 904.37 3.5257 1.20519 0
M  V30 9631 H 904.483 4.78705 -0.194568 0
M  V30 9632 H 902.847 2.54699 -0.00667879 0
M  V30 9633 H 903.63 3.03449 -1.60542 0
M  V30 9634 N 906.075 0.2925 1.54862 0
M  V30 9635 C 907.321 -0.319736 2.00264 0
M  V30 9636 C 907.654 -1.5419 1.18064 0
M  V30 9637 O 906.929 -1.92821 0.254983 0
M  V30 9638 C 907.212 -0.684753 3.5353 0
M  V30 9639 C 907.065 0.545961 4.46474 0
M  V30 9640 C 908.384 -1.51456 4.13218 0
M  V30 9641 H 905.503 -0.11474 0.728014 0
M  V30 9642 H 908.145 0.402907 1.85679 0
M  V30 9643 H 906.295 -1.30044 3.66089 0
M  V30 9644 H 907.967 1.18448 4.45834 0
M  V30 9645 H 906.21 1.1808 4.1742 0
M  V30 9646 H 906.881 0.246544 5.51449 0
M  V30 9647 H 909.357 -0.994421 4.04043 0
M  V30 9648 H 908.233 -1.73875 5.20633 0
M  V30 9649 H 908.494 -2.5011 3.64551 0
M  V30 9650 N 907.553 -1.57587 0.0200696 0
M  V30 9651 C 908.516 -2.08595 -0.949767 0
M  V30 9652 C 909.516 -0.999215 -1.25985 0
M  V30 9653 O 910.706 -1.26115 -1.2017 0
M  V30 9654 C 907.838 -2.54424 -2.26895 0
M  V30 9655 H 909.031 -2.95563 -0.508161 0
M  V30 9656 H 906.584 -1.54631 -0.227798 0
M  V30 9657 H 907.319 -1.70758 -2.75703 0
M  V30 9658 H 907.104 -3.3381 -2.05702 0
M  V30 9659 H 908.594 -2.94144 -2.96427 0
M  V30 9660 N 909.032 0.252966 -1.55557 0
M  V30 9661 C 909.98 1.33289 -1.90622 0
M  V30 9662 C 910.974 1.50133 -0.784638 0
M  V30 9663 O 912.18 1.51679 -0.969196 0
M  V30 9664 H 908.555 0.446196 -0.605321 0
M  V30 9665 H 910.526 1.00977 -2.80796 0
M  V30 9666 C 909.275 2.68254 -2.21213 0
M  V30 9667 H 908.598 2.5609 -3.07014 0
M  V30 9668 H 910.038 3.42707 -2.49656 0
M  V30 9669 C 908.497 3.20884 -1.02642 0
M  V30 9670 O 909.027 4.00783 -0.271292 0
M  V30 9671 N 907.233 2.7883 -0.818682 0
M  V30 9672 H 906.78 2.13966 -1.43444 0
M  V30 9673 H 906.738 3.14388 -0.0269989 0
M  V30 9674 N 910.51 1.48831 0.518367 0
M  V30 9675 C 911.921 1.50842 1.10016 0
M  V30 9676 C 912.272 0.284744 1.94123 0
M  V30 9677 O 911.397 -0.607088 2.0771 0
M  V30 9678 C 911.992 2.73329 2.00191 0
M  V30 9679 C 910.551 2.78175 2.53566 0
M  V30 9680 C 909.698 2.4452 1.30786 0
M  V30 9681 H 912.649 1.55779 0.303073 0
M  V30 9682 H 912.67 2.52506 2.84642 0
M  V30 9683 H 912.182 3.62374 1.3895 0
M  V30 9684 H 910.283 1.93368 3.18496 0
M  V30 9685 H 910.396 3.79905 2.91906 0
M  V30 9686 H 908.76 1.95924 1.62744 0
M  V30 9687 H 909.543 3.35819 0.712797 0
M  V30 9688 N 911.988 -0.768124 1.37614 0
M  V30 9689 C 912.92 -1.89076 1.29548 0
M  V30 9690 C 913.933 -1.61433 0.21056 0
M  V30 9691 O 915.122 -1.72283 0.466992 0
M  V30 9692 C 912.222 -3.24388 0.981102 0
M  V30 9693 C 911.395 -3.79649 2.17222 0
M  V30 9694 C 910.454 -4.93444 1.82754 0
M  V30 9695 O 909.48 -5.0884 2.5509 0
M  V30 9696 N 910.682 -5.75319 0.773819 0
M  V30 9697 H 913.447 -1.9651 2.26283 0
M  V30 9698 H 911.008 -0.947399 1.31286 0
M  V30 9699 H 913 -3.98038 0.731301 0
M  V30 9700 H 911.57 -3.12433 0.102203 0
M  V30 9701 H 910.79 -2.97735 2.58355 0
M  V30 9702 H 912.078 -4.13302 2.96748 0
M  V30 9703 H 911.476 -5.65433 0.173644 0
M  V30 9704 H 910.033 -6.4918 0.583882 0
M  V30 9705 N 913.466 -1.22244 -0.994698 0
M  V30 9706 C 914.429 -0.992308 -2.06606 0
M  V30 9707 C 915.429 0.0405872 -1.60749 0
M  V30 9708 O 916.619 -0.197737 -1.73074 0
M  V30 9709 C 913.751 -0.498499 -3.37236 0
M  V30 9710 H 914.944 -1.9429 -2.28455 0
M  V30 9711 H 912.497 -1.04087 -1.166 0
M  V30 9712 H 913.232 0.456531 -3.21071 0
M  V30 9713 H 913.017 -1.24367 -3.71854 0
M  V30 9714 H 914.507 -0.35768 -4.16065 0
M  V30 9715 N 914.944 1.19125 -1.03184 0
M  V30 9716 C 916.184 1.90582 -0.738785 0
M  V30 9717 C 916.548 1.78004 0.719627 0
M  V30 9718 O 917.749 2.44084 1.12589 0
M  V30 9719 C 916.02 3.37319 -1.18114 0
M  V30 9720 S 917.579 4.26962 -1.01238 0
M  V30 9721 H 914.397 0.6582 -0.268875 0
M  V30 9722 H 916.999 1.43999 -1.32229 0
M  V30 9723 H 915.703 3.43999 -2.23814 0
M  V30 9724 H 915.234 3.88935 -0.591051 0
M  V30 9725 H 917.249 4.96143 0.0753558 0
M  V30 9726 N 916.422 0.810101 1.35185 0
M  V30 9727 C 917.332 0.224565 2.33523 0
M  V30 9728 C 918.348 -0.634287 1.62027 0
M  V30 9729 O 919.524 -0.545211 1.9388 0
M  V30 9730 C 916.589 -0.614319 3.41214 0
M  V30 9731 C 915.65 0.265435 4.28479 0
M  V30 9732 C 914.883 -0.533506 5.31027 0
M  V30 9733 O 915.106 -1.7679 5.42311 0
M  V30 9734 O 914.04 0.0774573 6.0185 0
M  V30 9735 H 917.866 1.03815 2.85405 0
M  V30 9736 H 915.451 0.571964 1.38018 0
M  V30 9737 H 917.333 -1.09201 4.07005 0
M  V30 9738 H 916.008 -1.40545 2.91597 0
M  V30 9739 H 914.915 0.790343 3.65656 0
M  V30 9740 H 916.248 1.0206 4.81503 0
M  V30 9741 N 917.9 -1.47166 0.563914 0
M  V30 9742 C 918.848 -2.31798 -0.193009 0
M  V30 9743 C 919.842 -1.43338 -0.902805 0
M  V30 9744 O 921.048 -1.60067 -0.823328 0
M  V30 9745 H 917.423 -0.747613 -0.0811139 0
M  V30 9746 H 919.394 -2.93476 0.539876 0
M  V30 9747 C 918.143 -3.26131 -1.20555 0
M  V30 9748 H 917.466 -3.94166 -0.668803 0
M  V30 9749 H 918.906 -3.88167 -1.70593 0
M  V30 9750 C 917.365 -2.50132 -2.25689 0
M  V30 9751 O 917.895 -2.25064 -3.3273 0
M  V30 9752 N 916.101 -2.11022 -1.99795 0
M  V30 9753 H 915.648 -2.3161 -1.1276 0
M  V30 9754 H 915.606 -1.60489 -2.70353 0
M  V30 9755 N 919.378 -0.300708 -1.54705 0
M  V30 9756 C 920.624 0.301982 -2.01146 0
M  V30 9757 C 920.979 1.51548 -1.18537 0
M  V30 9758 O 920.272 1.89914 -0.253656 0
M  V30 9759 C 920.466 0.710108 -3.50275 0
M  V30 9760 C 920.295 -0.462291 -4.47318 0
M  V30 9761 C 919.065 -0.954214 -4.96208 0
M  V30 9762 C 921.263 -1.30716 -4.97411 0
M  V30 9763 N 919.245 -2.09341 -5.77105 0
M  V30 9764 C 920.616 -2.29384 -5.76006 0
M  V30 9765 C 922.671 -1.33756 -4.79597 0
M  V30 9766 C 921.374 -3.30869 -6.38685 0
M  V30 9767 C 923.4 -2.34099 -5.43094 0
M  V30 9768 C 922.762 -3.31498 -6.21521 0
M  V30 9769 H 918.861 0.0749709 -0.778398 0
M  V30 9770 H 921.445 -0.430557 -1.8988 0
M  V30 9771 H 919.616 1.41182 -3.61832 0
M  V30 9772 H 921.348 1.29231 -3.83512 0
M  V30 9773 H 918.103 -0.529238 -4.70634 0
M  V30 9774 H 918.527 -2.66739 -6.22237 0
M  V30 9775 H 923.169 -0.598284 -4.18546 0
M  V30 9776 H 920.887 -4.05717 -6.9887 0
M  V30 9777 H 924.473 -2.37225 -5.31239 0
M  V30 9778 H 923.353 -4.07872 -6.69784 0
M  V30 9779 N 920.856 1.57574 -0.0284266 0
M  V30 9780 C 921.786 2.1321 0.952039 0
M  V30 9781 C 922.767 1.04806 1.33977 0
M  V30 9782 O 923.952 1.32635 1.41851 0
M  V30 9783 C 921.082 2.65862 2.23461 0
M  V30 9784 C 920.036 3.79047 1.98765 0
M  V30 9785 C 919.362 4.18124 3.33281 0
M  V30 9786 C 920.662 5.05151 1.32739 0
M  V30 9787 H 922.356 2.95385 0.488705 0
M  V30 9788 H 919.902 1.42092 0.233628 0
M  V30 9789 H 921.855 3.03417 2.92431 0
M  V30 9790 H 920.579 1.80848 2.71959 0
M  V30 9791 H 919.238 3.41929 1.32213 0
M  V30 9792 H 918.886 3.30092 3.79537 0
M  V30 9793 H 918.586 4.94396 3.17563 0
M  V30 9794 H 920.11 4.58262 4.0352 0
M  V30 9795 H 921.524 5.40297 1.91708 0
M  V30 9796 H 919.921 5.86416 1.27421 0
M  V30 9797 H 920.991 4.83969 0.300261 0
M  V30 9798 N 922.334 -0.244713 1.55689 0
M  V30 9799 C 923.75 -0.593331 1.48161 0
M  V30 9800 C 923.95 -1.88234 0.719047 0
M  V30 9801 O 923.006 -2.51266 0.249292 0
M  V30 9802 C 924.319 -0.694032 2.92581 0
M  V30 9803 C 925.867 -0.786213 3.02965 0
M  V30 9804 C 926.342 -0.918457 4.48696 0
M  V30 9805 N 927.833 -0.983272 4.52643 0
M  V30 9806 C 928.568 -1.1049 5.62654 0
M  V30 9807 N 928.064 -1.19193 6.8247 0
M  V30 9808 N 929.857 -1.13823 5.50455 0
M  V30 9809 H 922.008 0.601446 2.03707 0
M  V30 9810 H 924.271 0.207894 0.924924 0
M  V30 9811 H 923.977 0.183133 3.51223 0
M  V30 9812 H 923.851 -1.56525 3.4319 0
M  V30 9813 H 926.238 -1.65383 2.44402 0
M  V30 9814 H 926.319 0.110202 2.55563 0
M  V30 9815 H 925.963 -0.0553881 5.0787 0
M  V30 9816 H 925.893 -1.82994 4.93782 0
M  V30 9817 H 928.384 -0.927269 3.66347 0
M  V30 9818 H 928.697 -1.28387 7.62061 0
M  V30 9819 H 927.042 -1.16147 6.85226 0
M  V30 9820 H 930.233 -1.06673 4.55783 0
M  V30 9821 H 930.406 -1.22957 6.36228 0
M  V30 9822 N 923.813 -1.49104 -0.510467 0
M  V30 9823 C 925.061 -1.578 -1.26268 0
M  V30 9824 C 925.382 -0.262349 -1.93227 0
M  V30 9825 O 924.652 0.717624 -1.82283 0
M  V30 9826 H 923.232 -0.581387 -0.46904 0
M  V30 9827 H 925.894 -1.85678 -0.592423 0
M  V30 9828 H 924.99 -2.36919 -2.03165 0
M  V30 9829 N 925.291 0.760815 -1.38019 0
M  V30 9830 C 926.238 1.8744 -1.34666 0
M  V30 9831 C 927.208 1.64762 -0.210386 0
M  V30 9832 O 928.393 1.86528 -0.401479 0
M  V30 9833 C 925.533 3.24648 -1.17037 0
M  V30 9834 C 924.646 3.59206 -2.3999 0
M  V30 9835 C 923.781 4.8568 -2.15148 0
M  V30 9836 C 922.82 5.13002 -3.3391 0
M  V30 9837 N 921.957 6.30668 -3.08549 0
M  V30 9838 H 926.797 1.8964 -2.29871 0
M  V30 9839 H 924.334 0.927004 -1.14215 0
M  V30 9840 H 926.292 4.03814 -1.04834 0
M  V30 9841 H 924.922 3.21793 -0.254758 0
M  V30 9842 H 923.974 2.74939 -2.62893 0
M  V30 9843 H 925.286 3.75328 -3.28527 0
M  V30 9844 H 924.44 5.72773 -2.00039 0
M  V30 9845 H 923.179 4.71682 -1.23965 0
M  V30 9846 H 922.184 4.2438 -3.49545 0
M  V30 9847 H 923.409 5.28901 -4.25958 0
M  V30 9848 H 921.355 6.18008 -2.20006 0
M  V30 9849 H 921.272 6.47257 -3.90633 0
M  V30 9850 H 922.54 7.20669 -2.9708 0
M  V30 9851 N 926.769 1.22769 0.988202 0
M  V30 9852 C 927.717 0.999271 2.10041 0
M  V30 9853 C 928.711 -0.0591767 1.69297 0
M  V30 9854 O 929.917 0.0936653 1.79756 0
M  V30 9855 H 926.292 0.30599 0.686931 0
M  V30 9856 H 928.263 1.94294 2.26478 0
M  V30 9857 C 927.012 0.59873 3.42506 0
M  V30 9858 H 926.335 1.40487 3.74304 0
M  V30 9859 H 927.775 0.478353 4.21293 0
M  V30 9860 C 926.234 -0.692216 3.29712 0
M  V30 9861 O 926.764 -1.74342 3.61895 0
M  V30 9862 N 924.97 -0.665163 2.82885 0
M  V30 9863 H 924.517 0.190604 2.56894 0
M  V30 9864 H 924.475 -1.52917 2.74706 0
M  V30 9865 N 928.247 -1.18576 1.03814 0
M  V30 9866 C 929.663 -1.4051 0.756909 0
M  V30 9867 C 929.863 -1.9057 -0.654631 0
M  V30 9868 O 928.919 -2.0884 -1.41922 0
M  V30 9869 C 930.232 -2.4081 1.80087 0
M  V30 9870 C 931.78 -2.54541 1.82148 0
M  V30 9871 C 932.255 -3.58102 2.85529 0
M  V30 9872 N 933.746 -3.65607 2.84404 0
M  V30 9873 C 934.481 -4.45458 3.61047 0
M  V30 9874 N 933.977 -5.28937 4.47434 0
M  V30 9875 N 935.77 -4.40196 3.49548 0
M  V30 9876 H 927.921 -0.844075 1.94908 0
M  V30 9877 H 930.184 -0.433287 0.843188 0
M  V30 9878 H 929.89 -2.1107 2.81322 0
M  V30 9879 H 929.764 -3.4012 1.63089 0
M  V30 9880 H 932.151 -2.83598 0.815855 0
M  V30 9881 H 932.232 -1.55352 2.03223 0
M  V30 9882 H 931.876 -3.29786 3.86269 0
M  V30 9883 H 931.806 -4.56963 2.6171 0
M  V30 9884 H 934.297 -3.05994 2.21756 0
M  V30 9885 H 934.61 -5.8701 5.02632 0
M  V30 9886 H 932.955 -5.28366 4.51503 0
M  V30 9887 H 936.146 -3.74026 2.81464 0
M  V30 9888 H 936.319 -5.02186 4.09528 0
M  V30 9889 N 929.725 -0.817259 -1.34754 0
M  V30 9890 C 930.658 -0.180483 -2.27485 0
M  V30 9891 C 931.636 0.659792 -1.48612 0
M  V30 9892 O 932.82 0.624761 -1.77845 0
M  V30 9893 C 929.947 0.748487 -3.30326 0
M  V30 9894 C 928.993 -0.0135304 -4.26498 0
M  V30 9895 S 929.826 -1.35685 -5.18025 0
M  V30 9896 C 930.982 -0.432605 -6.24403 0
M  V30 9897 H 931.215 -0.966677 -2.81145 0
M  V30 9898 H 928.748 -0.612864 -1.41716 0
M  V30 9899 H 930.706 1.27893 -3.90069 0
M  V30 9900 H 929.367 1.50816 -2.75524 0
M  V30 9901 H 928.56 0.692454 -4.9922 0
M  V30 9902 H 928.162 -0.474344 -3.7098 0
M  V30 9903 H 930.454 0.378035 -6.76444 0
M  V30 9904 H 931.397 -1.12934 -6.99036 0
M  V30 9905 H 931.805 -0.0235533 -5.64495 0
M  V30 9906 N 931.203 1.46865 -0.571711 0
M  V30 9907 C 932.48 1.95596 0.0132445 0
M  V30 9908 C 932.86 1.51438 1.47071 0
M  V30 9909 O 932.208 0.759917 2.15494 0
M  V30 9910 C 932.418 3.48689 -0.147335 0
M  V30 9911 C 933.766 4.24599 -0.00946329 0
M  V30 9912 O 934.79 3.5612 -0.0756112 0
M  V30 9913 O 933.649 5.46332 0.135361 0
M  V30 9914 H 930.743 0.825102 0.0560039 0
M  V30 9915 H 933.289 1.57199 -0.639256 0
M  V30 9916 H 932.061 3.73681 -1.16096 0
M  V30 9917 H 931.684 3.93887 0.542109 0
M  V30 9918 N 932.681 0.308908 1.54543 0
M  V30 9919 C 933.927 -0.298478 2.00592 0
M  V30 9920 C 934.26 -1.52929 1.19692 0
M  V30 9921 O 933.535 -1.9254 0.27542 0
M  V30 9922 C 933.818 -0.647218 3.54236 0
M  V30 9923 C 933.671 0.593284 4.4587 0
M  V30 9924 C 934.99 -1.47064 4.14801 0
M  V30 9925 H 932.109 -0.107012 0.72919 0
M  V30 9926 H 934.751 0.422578 1.85241 0
M  V30 9927 H 932.901 -1.26153 3.67447 0
M  V30 9928 H 934.573 1.2317 4.44552 0
M  V30 9929 H 932.816 1.22501 4.16144 0
M  V30 9930 H 933.487 0.305018 5.51157 0
M  V30 9931 H 935.963 -0.951511 4.05075 0
M  V30 9932 H 934.839 -1.68343 5.22448 0
M  V30 9933 H 935.1 -2.4623 3.67183 0
M  V30 9934 N 934.159 -1.57557 0.0367827 0
M  V30 9935 C 935.406 -1.92114 -0.640185 0
M  V30 9936 C 935.734 -0.913887 -1.71693 0
M  V30 9937 O 934.989 0.0760343 -1.95552 0
M  V30 9938 C 935.288 -3.33387 -1.28794 0
M  V30 9939 C 934.954 -4.4961 -0.340819 0
M  V30 9940 C 933.616 -4.81133 -0.0801574 0
M  V30 9941 C 935.968 -5.20283 0.309106 0
M  V30 9942 C 933.296 -5.80683 0.838107 0
M  V30 9943 C 935.648 -6.20813 1.21547 0
M  V30 9944 C 934.312 -6.50773 1.48495 0
M  V30 9945 H 933.582 -0.702996 -0.23426 0
M  V30 9946 H 936.229 -1.91238 0.100188 0
M  V30 9947 H 934.534 -3.30561 -2.10324 0
M  V30 9948 H 936.231 -3.57399 -1.81843 0
M  V30 9949 H 932.821 -4.25002 -0.554161 0
M  V30 9950 H 937.005 -4.96153 0.120794 0
M  V30 9951 H 932.261 -6.02238 1.05451 0
M  V30 9952 H 936.435 -6.74692 1.72522 0
M  V30 9953 H 934.062 -7.27727 2.19814 0
M  V30 9954 N 935.637 0.236453 -1.55816 0
M  V30 9955 C 936.862 0.98449 -1.82545 0
M  V30 9956 C 937.287 1.77755 -0.615206 0
M  V30 9957 O 936.645 1.75982 0.435895 0
M  V30 9958 C 936.693 1.88973 -3.07118 0
M  V30 9959 O 935.797 2.98298 -2.84766 0
M  V30 9960 H 935.138 0.279577 -0.602273 0
M  V30 9961 H 937.668 0.254277 -2.03014 0
M  V30 9962 H 937.678 2.3024 -3.36829 0
M  V30 9963 H 936.353 1.30671 -3.94839 0
M  V30 9964 H 934.93 2.61085 -2.6625 0
M  V30 9965 N 937.115 1.49373 0.502552 0
M  V30 9966 C 938.047 1.62045 1.62093 0
M  V30 9967 C 939.06 0.503221 1.54827 0
M  V30 9968 O 940.249 0.775208 1.60788 0
M  V30 9969 C 937.349 1.55971 3.00876 0
M  V30 9970 C 936.522 2.832 3.33341 0
M  V30 9971 C 935.581 2.702 4.51529 0
M  V30 9972 O 934.607 3.44132 4.53389 0
M  V30 9973 N 935.809 1.81642 5.5135 0
M  V30 9974 H 938.574 2.58501 1.51649 0
M  V30 9975 H 936.135 1.46442 0.690396 0
M  V30 9976 H 938.127 1.4493 3.77859 0
M  V30 9977 H 936.697 0.673795 3.05252 0
M  V30 9978 H 935.917 3.08604 2.4527 0
M  V30 9979 H 937.205 3.67551 3.51829 0
M  V30 9980 H 936.603 1.20829 5.52645 0
M  V30 9981 H 935.16 1.76524 6.27441 0
M  V30 9982 N 938.594 -0.753485 1.38421 0
M  V30 9983 C 939.542 -1.8886 1.35774 0
M  V30 9984 C 940.536 -1.67639 0.243608 0
M  V30 9985 O 941.742 -1.75206 0.412649 0
M  V30 9986 H 938.117 -0.62137 0.42356 0
M  V30 9987 H 940.088 -1.88209 2.3156 0
M  V30 9988 C 938.837 -3.26344 1.19979 0
M  V30 9989 H 938.16 -3.43259 2.04971 0
M  V30 9990 H 939.6 -4.06015 1.22181 0
M  V30 9991 C 938.059 -3.36771 -0.0932867 0
M  V30 9992 O 938.589 -3.8718 -1.07027 0
M  V30 9993 N 936.795 -2.90212 -0.150154 0
M  V30 9994 H 936.342 -2.4938 0.645562 0
M  V30 9995 H 936.3 -2.97569 -1.0149 0
M  V30 9996 N 940.072 -1.23292 -0.981677 0
M  V30 9997 C 941.005 -0.956198 -2.07201 0
M  V30 9998 C 941.983 0.105027 -1.6226 0
M  V30 9999 O 943.167 -0.0289582 -1.88478 0
M  V30 10000 C 940.294 -0.44029 -3.35826 0
M  V30 10001 C 939.34 -1.48792 -3.99704 0
M  V30 10002 S 940.173 -3.06491 -4.39117 0
M  V30 10003 C 941.329 -2.56567 -5.70898 0
M  V30 10004 H 941.562 -1.87947 -2.30355 0
M  V30 10005 H 939.095 -1.06522 -1.1177 0
M  V30 10006 H 941.053 -0.149237 -4.10229 0
M  V30 10007 H 939.714 0.462045 -3.10683 0
M  V30 10008 H 938.907 -1.07706 -4.92357 0
M  V30 10009 H 938.509 -1.72826 -3.31673 0
M  V30 10010 H 940.801 -1.98508 -6.47766 0
M  V30 10011 H 941.744 -3.47755 -6.16824 0
M  V30 10012 H 942.152 -1.97465 -5.28836 0
M  V30 10013 N 941.55 1.18024 -1.04442 0
M  V30 10014 C 942.797 1.88098 -0.750022 0
M  V30 10015 C 943.125 1.80583 0.722489 0
M  V30 10016 O 942.38 1.20329 1.54335 0
M  V30 10017 C 942.679 3.37834 -1.16631 0
M  V30 10018 C 942.345 3.65553 -2.63974 0
M  V30 10019 C 941.007 3.72827 -3.04226 0
M  V30 10020 C 943.359 3.77634 -3.59224 0
M  V30 10021 C 940.687 3.89666 -4.38608 0
M  V30 10022 C 943.039 3.9599 -4.9333 0
M  V30 10023 C 941.703 4.01501 -5.33248 0
M  V30 10024 H 940.973 0.6883 -0.274452 0
M  V30 10025 H 943.62 1.39671 -1.31012 0
M  V30 10026 H 941.925 3.88266 -0.525071 0
M  V30 10027 H 943.622 3.90402 -0.915827 0
M  V30 10028 H 940.212 3.6051 -2.31798 0
M  V30 10029 H 944.396 3.71342 -3.2927 0
M  V30 10030 H 939.652 3.92178 -4.69048 0
M  V30 10031 H 943.826 4.0428 -5.67037 0
M  V30 10032 H 941.453 4.14301 -6.37384 0
M  V30 10033 N 943.028 0.824394 1.34319 0
M  V30 10034 C 944.268 0.419044 2.00058 0
M  V30 10035 C 944.632 -0.999504 1.63933 0
M  V30 10036 O 945.833 -1.50781 2.22527 0
M  V30 10037 C 944.104 0.616897 3.52036 0
M  V30 10038 S 945.663 0.304614 4.37741 0
M  V30 10039 H 942.481 0.158265 0.693162 0
M  V30 10040 H 945.083 1.07053 1.63585 0
M  V30 10041 H 943.787 1.64896 3.75816 0
M  V30 10042 H 943.318 -0.0492693 3.93369 0
M  V30 10043 H 945.333 -0.88114 4.88314 0
M  V30 10044 N 944.506 -1.46559 0.579492 0
M  V30 10045 C 945.469 -2.28739 -0.145371 0
M  V30 10046 C 946.469 -1.38211 -0.821854 0
M  V30 10047 O 947.659 -1.6062 -0.674302 0
M  V30 10048 C 944.791 -3.18507 -1.21515 0
M  V30 10049 H 945.984 -2.94301 0.576786 0
M  V30 10050 H 943.537 -1.52616 0.337327 0
M  V30 10051 H 944.272 -2.57685 -1.96899 0
M  V30 10052 H 944.057 -3.85157 -0.734616 0
M  V30 10053 H 945.547 -3.80369 -1.72363 0
M  V30 10054 N 945.984 -0.3171 -1.54377 0
M  V30 10055 C 947.232 0.286842 -2.00054 0
M  V30 10056 C 947.553 1.53161 -1.20692 0
M  V30 10057 O 946.823 1.93479 -0.307045 0
M  V30 10058 H 945.403 0.108979 -0.739008 0
M  V30 10059 H 948.065 -0.432152 -1.90049 0
M  V30 10060 H 947.161 0.547729 -3.07256 0
M  V30 10061 N 947.462 1.57535 -0.0451378 0
M  V30 10062 C 948.412 2.07683 0.940829 0
M  V30 10063 C 949.396 0.9807 1.27558 0
M  V30 10064 O 950.588 1.2441 1.25901 0
M  V30 10065 C 947.717 2.62049 2.21778 0
M  V30 10066 C 946.803 3.78621 1.91068 0
M  V30 10067 N 947.194 4.88623 1.30694 0
M  V30 10068 C 945.492 3.87411 2.20972 0
M  V30 10069 C 946.193 5.69714 1.17478 0
M  V30 10070 N 945.169 5.17129 1.67566 0
M  V30 10071 H 948.971 2.90129 0.469267 0
M  V30 10072 H 946.485 1.61615 0.159472 0
M  V30 10073 H 948.482 2.96276 2.93302 0
M  V30 10074 H 947.142 1.81039 2.69546 0
M  V30 10075 H 948.153 5.08545 0.979907 0
M  V30 10076 H 944.83 3.17335 2.71302 0
M  V30 10077 H 946.22 6.68174 0.706574 0
M  V30 10078 N 948.94 -0.228186 1.55939 0
M  V30 10079 C 950.351 -0.795734 1.68893 0
M  V30 10080 C 950.702 -1.85261 0.645967 0
M  V30 10081 O 949.827 -2.15434 -0.2042 0
M  V30 10082 C 950.422 -1.45013 3.06197 0
M  V30 10083 C 948.981 -1.96514 3.21028 0
M  V30 10084 C 948.128 -0.822918 2.64808 0
M  V30 10085 H 951.079 -0.0036485 1.587 0
M  V30 10086 H 951.1 -2.31875 3.01685 0
M  V30 10087 H 950.612 -0.680678 3.82084 0
M  V30 10088 H 948.713 -2.76282 2.49998 0
M  V30 10089 H 948.826 -2.14967 4.28166 0
M  V30 10090 H 947.19 -1.22846 2.23116 0
M  V30 10091 H 947.973 -0.0662493 3.43236 0
M  V30 10092 N 950.418 -1.49637 -0.494624 0
M  V30 10093 C 951.643 -1.63431 -1.27691 0
M  V30 10094 C 952.068 -0.30813 -1.85559 0
M  V30 10095 O 951.426 0.725083 -1.66169 0
M  V30 10096 C 951.474 -2.71043 -2.3784 0
M  V30 10097 O 950.578 -2.3066 -3.41862 0
M  V30 10098 H 949.919 -0.546804 -0.376698 0
M  V30 10099 H 952.449 -1.95866 -0.591413 0
M  V30 10100 H 952.459 -2.93406 -2.83508 0
M  V30 10101 H 951.134 -3.67306 -1.95088 0
M  V30 10102 H 949.711 -2.18652 -3.02069 0
M  V30 10103 N 951.896 0.746133 -1.38819 0
M  V30 10104 C 952.826 1.87344 -1.39372 0
M  V30 10105 C 953.807 1.68123 -0.258583 0
M  V30 10106 O 954.992 1.88606 -0.462769 0
M  V30 10107 C 952.122 3.24962 -1.22543 0
M  V30 10108 C 951.076 3.58799 -2.33339 0
M  V30 10109 C 950.402 4.95235 -2.01609 0
M  V30 10110 C 951.702 3.62911 -3.75624 0
M  V30 10111 H 953.396 1.87138 -2.33709 0
M  V30 10112 H 950.942 0.898937 -1.12495 0
M  V30 10113 H 952.895 4.03488 -1.21554 0
M  V30 10114 H 951.619 3.25667 -0.246707 0
M  V30 10115 H 950.278 2.82596 -2.33527 0
M  V30 10116 H 949.926 4.92508 -1.02202 0
M  V30 10117 H 949.626 5.18843 -2.75819 0
M  V30 10118 H 951.15 5.76131 -2.02251 0
M  V30 10119 H 952.564 4.31535 -3.77426 0
M  V30 10120 H 950.961 3.98031 -4.491 0
M  V30 10121 H 952.031 2.62967 -4.07402 0
M  V30 10122 N 953.375 1.23811 0.975125 0
M  V30 10123 C 954.322 1.02394 2.06843 0
M  V30 10124 C 955.292 -0.060337 1.6599 0
M  V30 10125 O 956.477 0.0928187 1.90574 0
M  V30 10126 C 953.617 0.626882 3.39359 0
M  V30 10127 C 952.73 1.78385 3.9345 0
M  V30 10128 C 951.865 1.33307 5.14201 0
M  V30 10129 C 950.904 2.46045 5.60471 0
M  V30 10130 N 950.041 2.01888 6.72448 0
M  V30 10131 H 954.881 1.95973 2.24496 0
M  V30 10132 H 952.418 0.976206 1.10039 0
M  V30 10133 H 954.376 0.377742 4.15486 0
M  V30 10134 H 953.006 -0.271907 3.21653 0
M  V30 10135 H 952.058 2.14685 3.14029 0
M  V30 10136 H 953.37 2.63122 4.23755 0
M  V30 10137 H 952.524 1.04237 5.97678 0
M  V30 10138 H 951.263 0.456143 4.85562 0
M  V30 10139 H 950.268 2.75884 4.75571 0
M  V30 10140 H 951.493 3.34283 5.91127 0
M  V30 10141 H 949.439 1.16583 6.45558 0
M  V30 10142 H 949.356 2.80182 7.02164 0
M  V30 10143 H 950.624 1.75937 7.59386 0
M  V30 10144 N 954.853 -1.17469 1.05066 0
M  V30 10145 C 955.785 -2.20974 0.608526 0
M  V30 10146 C 956.798 -1.59481 -0.327066 0
M  V30 10147 O 957.987 -1.78096 -0.12 0
M  V30 10148 C 955.087 -3.38652 -0.12969 0
M  V30 10149 C 954.26 -4.29716 0.816285 0
M  V30 10150 C 953.319 -5.26064 0.119556 0
M  V30 10151 O 952.345 -5.64194 0.753241 0
M  V30 10152 N 953.547 -5.69126 -1.14347 0
M  V30 10153 H 956.312 -2.59529 1.49882 0
M  V30 10154 H 953.873 -1.32355 0.932406 0
M  V30 10155 H 955.865 -4.00139 -0.605886 0
M  V30 10156 H 954.435 -2.98705 -0.921638 0
M  V30 10157 H 953.655 -3.6568 1.47213 0
M  V30 10158 H 954.943 -4.87449 1.45845 0
M  V30 10159 H 954.341 -5.4022 -1.67866 0
M  V30 10160 H 952.898 -6.32764 -1.56376 0
M  V30 10161 N 956.331 -0.831506 -1.3388 0
M  V30 10162 C 957.608 -0.345907 -1.92517 0
M  V30 10163 C 957.988 1.16784 -1.75854 0
M  V30 10164 O 957.336 1.97889 -1.14245 0
M  V30 10165 C 957.546 -0.784692 -3.40064 0
M  V30 10166 C 958.894 -0.78846 -4.17215 0
M  V30 10167 O 959.918 -0.727823 -3.48685 0
M  V30 10168 O 958.777 -0.869481 -5.39539 0
M  V30 10169 H 955.871 -0.0963568 -0.821367 0
M  V30 10170 H 958.417 -0.916868 -1.42799 0
M  V30 10171 H 957.189 -1.82697 -3.46031 0
M  V30 10172 H 956.812 -0.189897 -3.97146 0
M  V30 10173 N 957.809 1.4625 -0.587256 0
M  V30 10174 C 958.772 2.28812 0.133238 0
M  V30 10175 C 959.772 1.38645 0.814513 0
M  V30 10176 O 960.962 1.60975 0.665774 0
M  V30 10177 C 958.094 3.19147 1.19824 0
M  V30 10178 H 959.287 2.93991 -0.592386 0
M  V30 10179 H 956.84 1.52435 -0.345416 0
M  V30 10180 H 957.575 2.58725 1.95529 0
M  V30 10181 H 957.36 3.85541 0.71418 0
M  V30 10182 H 958.85 3.81278 1.70344 0
M  V30 10183 N 959.287 0.325282 1.54207 0
M  V30 10184 C 960.527 -0.277347 2.0251 0
M  V30 10185 C 960.891 -1.49211 1.20831 0
M  V30 10186 O 962.092 -2.16771 1.58945 0
M  V30 10187 C 960.363 -0.601517 3.52302 0
M  V30 10188 S 961.922 -1.18356 4.22537 0
M  V30 10189 H 958.74 -0.08378 0.706047 0
M  V30 10190 H 961.342 0.458804 1.9004 0
M  V30 10191 H 960.046 0.290696 4.09369 0
M  V30 10192 H 959.577 -1.36782 3.68855 0
M  V30 10193 H 961.592 -2.47029 4.30338 0
M  V30 10194 N 960.765 -1.57509 0.0534917 0
M  V30 10195 C 961.697 -2.08616 -0.949322 0
M  V30 10196 C 962.71 -1.01446 -1.27328 0
M  V30 10197 O 963.899 -1.29007 -1.23367 0
M  V30 10198 C 960.999 -2.51622 -2.27024 0
M  V30 10199 C 960.172 -3.82154 -2.12785 0
M  V30 10200 C 959.231 -4.11448 -3.2802 0
M  V30 10201 O 958.257 -4.81333 -3.03822 0
M  V30 10202 N 959.459 -3.63543 -4.52567 0
M  V30 10203 H 962.224 -2.95275 -0.5131 0
M  V30 10204 H 959.785 -1.61355 -0.132693 0
M  V30 10205 H 961.777 -2.68293 -3.02986 0
M  V30 10206 H 960.347 -1.70198 -2.62205 0
M  V30 10207 H 959.567 -3.75041 -1.21399 0
M  V30 10208 H 960.855 -4.67629 -2.00501 0
M  V30 10209 H 960.253 -3.07051 -4.75117 0
M  V30 10210 H 958.81 -3.85448 -5.25617 0
M  V30 10211 N 962.243 0.219913 -1.56058 0
M  V30 10212 C 963.491 0.942199 -1.78793 0
M  V30 10213 C 963.812 1.84804 -0.622284 0
M  V30 10214 O 963.082 1.9255 0.360735 0
M  V30 10215 H 961.662 0.350895 -0.659455 0
M  V30 10216 H 964.324 0.231376 -1.93522 0
M  V30 10217 H 963.42 1.54804 -2.71002 0
M  V30 10218 N 963.721 1.49897 0.486681 0
M  V30 10219 C 964.998 1.50614 1.24799 0
M  V30 10220 C 965.378 0.24193 2.09709 0
M  V30 10221 O 964.726 -0.775237 2.14947 0
M  V30 10222 C 964.936 2.79318 2.09243 0
M  V30 10223 C 966.284 3.29371 2.67955 0
M  V30 10224 O 967.308 2.80533 2.19499 0
M  V30 10225 O 966.167 4.14466 3.56202 0
M  V30 10226 H 963.261 0.603447 0.565491 0
M  V30 10227 H 965.807 1.62174 0.499778 0
M  V30 10228 H 964.579 3.62812 1.46572 0
M  V30 10229 H 964.202 2.70687 2.91229 0
M  V30 10230 N 965.199 -0.738761 1.39212 0
M  V30 10231 C 966.424 -1.5331 1.39681 0
M  V30 10232 C 966.849 -1.88098 -0.00768715 0
M  V30 10233 O 966.207 -1.51642 -0.993699 0
M  V30 10234 C 966.255 -2.79958 2.27279 0
M  V30 10235 O 965.359 -3.75727 1.70008 0
M  V30 10236 H 964.7 -0.463131 0.475821 0
M  V30 10237 H 967.23 -0.911768 1.83161 0
M  V30 10238 H 967.24 -3.28732 2.41659 0
M  V30 10239 H 965.915 -2.5397 3.29351 0
M  V30 10240 H 964.492 -3.34483 1.64851 0
M  V30 10241 N 966.677 -1.24326 -0.968545 0
M  V30 10242 C 967.925 -1.08032 -1.70803 0
M  V30 10243 C 968.246 0.381728 -1.91227 0
M  V30 10244 O 967.516 1.27253 -1.48942 0
M  V30 10245 H 966.096 -0.396777 -0.632912 0
M  V30 10246 H 968.758 -1.56232 -1.16523 0
M  V30 10247 H 967.854 -1.57769 -2.69287 0
M  V30 10248 N 968.156 1.1691 -1.05688 0
M  V30 10249 C 969.404 1.86922 -0.768409 0
M  V30 10250 C 969.725 1.81735 0.706921 0
M  V30 10251 O 968.995 1.24671 1.51109 0
M  V30 10252 H 967.575 0.69203 -0.281253 0
M  V30 10253 H 970.237 1.41803 -1.33708 0
M  V30 10254 H 969.333 2.92528 -1.08783 0
M  V30 10255 N 969.634 0.838594 1.33437 0
M  V30 10256 C 970.88 0.434813 1.98084 0
M  V30 10257 C 971.213 -1.00331 1.66275 0
M  V30 10258 O 970.488 -1.70139 0.942501 0
M  V30 10259 C 970.771 0.655602 3.54082 0
M  V30 10260 C 970.624 2.14097 3.95578 0
M  V30 10261 C 971.943 0.101576 4.39983 0
M  V30 10262 H 969.062 0.159456 0.719544 0
M  V30 10263 H 971.704 1.05406 1.58081 0
M  V30 10264 H 969.854 0.128501 3.88287 0
M  V30 10265 H 971.526 2.73292 3.71631 0
M  V30 10266 H 969.769 2.62558 3.4532 0
M  V30 10267 H 970.44 2.24621 5.04231 0
M  V30 10268 H 972.916 0.552122 4.12421 0
M  V30 10269 H 971.792 0.28575 5.48156 0
M  V30 10270 H 972.053 -0.994616 4.30767 0
M  V30 10271 N 971.112 -1.45937 0.595003 0
M  V30 10272 C 972.359 -2.0232 0.0853053 0
M  V30 10273 C 972.687 -1.465 -1.27937 0
M  V30 10274 O 971.942 -0.624767 -1.85459 0
M  V30 10275 C 972.241 -3.57396 -0.0173747 0
M  V30 10276 C 971.907 -4.32311 1.28131 0
M  V30 10277 C 970.569 -4.52496 1.63708 0
M  V30 10278 C 972.921 -4.75233 2.14017 0
M  V30 10279 C 970.249 -5.12857 2.84947 0
M  V30 10280 C 972.601 -5.36933 3.34493 0
M  V30 10281 C 971.265 -5.55343 3.70338 0
M  V30 10282 H 970.535 -0.740342 0.0312154 0
M  V30 10283 H 973.182 -1.75157 0.774103 0
M  V30 10284 H 971.487 -3.83766 -0.789371 0
M  V30 10285 H 973.184 -3.98713 -0.427699 0
M  V30 10286 H 969.774 -4.16905 0.994374 0
M  V30 10287 H 973.958 -4.59383 1.87833 0
M  V30 10288 H 969.214 -5.253 3.12841 0
M  V30 10289 H 973.388 -5.69147 4.01304 0
M  V30 10290 H 971.015 -6.01883 4.64371 0
M  V30 10291 N 972.59 -0.333456 -1.54032 0
M  V30 10292 C 973.553 0.515392 -2.2333 0
M  V30 10293 C 974.553 1.03566 -1.23007 0
M  V30 10294 O 975.743 0.926514 -1.47517 0
M  V30 10295 C 972.875 1.7169 -2.94508 0
M  V30 10296 H 974.068 -0.0905407 -2.99763 0
M  V30 10297 H 971.621 -0.0846651 -1.56071 0
M  V30 10298 H 972.356 2.3618 -2.22237 0
M  V30 10299 H 972.141 1.35115 -3.68085 0
M  V30 10300 H 973.631 2.31922 -3.47278 0
M  V30 10301 N 974.068 1.57479 -0.061844 0
M  V30 10302 C 975.314 1.93395 0.610443 0
M  V30 10303 C 975.647 0.941334 1.6986 0
M  V30 10304 O 974.922 -0.0310262 1.94475 0
M  V30 10305 C 975.205 3.39636 1.19664 0
M  V30 10306 C 975.058 4.49651 0.115805 0
M  V30 10307 C 976.377 3.86488 2.10512 0
M  V30 10308 H 973.496 0.703262 0.220436 0
M  V30 10309 H 976.138 1.89583 -0.125785 0
M  V30 10310 H 974.288 3.43015 1.82409 0
M  V30 10311 H 975.96 4.58397 -0.516728 0
M  V30 10312 H 974.203 4.30237 -0.55483 0
M  V30 10313 H 974.874 5.49089 0.566176 0
M  V30 10314 H 977.35 3.85052 1.57715 0
M  V30 10315 H 976.226 4.89444 2.48466 0
M  V30 10316 H 976.487 3.23856 3.00948 0
M  V30 10317 N 975.546 -0.211634 1.56173 0
M  V30 10318 C 976.962 -0.56177 1.49386 0
M  V30 10319 C 977.162 -1.86666 0.758813 0
M  V30 10320 O 976.218 -2.50681 0.302534 0
M  V30 10321 C 977.531 -0.631815 2.93987 0
M  V30 10322 C 979.079 -0.721773 3.04564 0
M  V30 10323 C 979.554 -0.823075 4.50544 0
M  V30 10324 N 981.045 -0.887038 4.54627 0
M  V30 10325 C 981.78 -0.985304 5.64871 0
M  V30 10326 N 981.276 -1.0469 6.84844 0
M  V30 10327 N 983.069 -1.02121 5.52746 0
M  V30 10328 H 975.22 0.64452 2.02385 0
M  V30 10329 H 977.483 0.227466 0.920306 0
M  V30 10330 H 977.189 0.257592 3.50755 0
M  V30 10331 H 977.063 -1.4921 3.46433 0
M  V30 10332 H 979.45 -1.60162 2.47855 0
M  V30 10333 H 979.531 0.164385 2.55271 0
M  V30 10334 H 979.175 0.0523511 5.07873 0
M  V30 10335 H 979.105 -1.72479 4.97552 0
M  V30 10336 H 981.596 -0.849352 3.68231 0
M  V30 10337 H 981.909 -1.12193 7.64613 0
M  V30 10338 H 980.254 -1.01586 6.87536 0
M  V30 10339 H 983.445 -0.969814 4.57943 0
M  V30 10340 H 983.618 -1.09434 6.38693 0
M  V30 10341 N 977.024 -1.50153 -0.478725 0
M  V30 10342 C 978.301 -1.51274 -1.23999 0
M  V30 10343 C 978.681 -0.253048 -2.09578 0
M  V30 10344 O 978.029 0.763827 -2.15355 0
M  V30 10345 C 978.239 -2.80423 -2.07759 0
M  V30 10346 C 979.587 -3.30788 -2.66204 0
M  V30 10347 O 980.611 -2.81693 -2.18008 0
M  V30 10348 O 979.47 -4.1635 -3.53999 0
M  V30 10349 H 976.564 -0.606438 -0.562283 0
M  V30 10350 H 979.11 -1.62436 -0.491171 0
M  V30 10351 H 977.882 -3.63584 -1.44645 0
M  V30 10352 H 977.505 -2.72228 -2.89789 0
M  V30 10353 N 978.502 0.731368 -1.39602 0
M  V30 10354 C 979.913 1.30981 -1.33045 0
M  V30 10355 C 980.264 1.962 0.00349918 0
M  V30 10356 O 979.389 1.96539 0.905615 0
M  V30 10357 C 979.984 2.3817 -2.40958 0
M  V30 10358 C 978.543 2.91678 -2.3791 0
M  V30 10359 C 977.69 1.65286 -2.22656 0
M  V30 10360 H 980.641 0.528615 -1.49637 0
M  V30 10361 H 980.662 3.18645 -2.07955 0
M  V30 10362 H 980.174 1.90673 -3.38032 0
M  V30 10363 H 978.275 3.43446 -1.44485 0
M  V30 10364 H 978.388 3.44545 -3.32904 0
M  V30 10365 H 976.752 1.89759 -1.69893 0
M  V30 10366 H 977.535 1.19836 -3.21705 0
M  V30 10367 N 979.98 1.24838 0.961938 0
M  V30 10368 C 980.928 1.0436 2.07874 0
M  V30 10369 C 981.922 -0.0232531 1.69384 0
M  V30 10370 O 983.128 0.131773 1.79517 0
M  V30 10371 H 979.503 0.320492 0.680286 0
M  V30 10372 H 981.474 1.99055 2.22306 0
M  V30 10373 C 980.223 0.671246 3.41159 0
M  V30 10374 H 979.546 1.48395 3.7124 0
M  V30 10375 H 980.986 0.567608 4.20184 0
M  V30 10376 C 979.445 -0.622124 3.31106 0
M  V30 10377 O 979.975 -1.66627 3.65511 0
M  V30 10378 N 978.181 -0.605009 2.84232 0
M  V30 10379 H 977.728 0.245052 2.56432 0
M  V30 10380 H 977.686 -1.47056 2.77888 0
M  V30 10381 N 981.458 -1.16348 1.06306 0
M  V30 10382 C 982.686 -1.90782 0.800614 0
M  V30 10383 C 983.101 -1.77439 -0.645033 0
M  V30 10384 O 982.458 -1.11912 -1.4416 0
M  V30 10385 C 982.509 -3.41484 1.18621 0
M  V30 10386 O 982.23 -3.54428 2.57512 0
M  V30 10387 C 983.731 -4.32968 0.951525 0
M  V30 10388 H 980.951 -0.604977 0.290247 0
M  V30 10389 H 983.495 -1.47476 1.41672 0
M  V30 10390 H 981.65 -3.82493 0.614633 0
M  V30 10391 H 982.064 -4.4788 2.72954 0
M  V30 10392 H 983.538 -5.37169 1.27095 0
M  V30 10393 H 984.015 -4.39055 -0.112734 0
M  V30 10394 H 984.621 -3.97687 1.50749 0
M  V30 10395 N 982.937 -0.845659 -1.3299 0
M  V30 10396 C 984.214 -0.366306 -1.92139 0
M  V30 10397 C 984.594 1.14912 -1.77083 0
M  V30 10398 O 983.942 1.96667 -1.16338 0
M  V30 10399 C 984.152 -0.820716 -3.39213 0
M  V30 10400 C 985.5 -0.832667 -4.16355 0
M  V30 10401 O 986.524 -0.764764 -3.47893 0
M  V30 10402 O 985.383 -0.926658 -5.38586 0
M  V30 10403 H 982.477 -0.105063 -0.820299 0
M  V30 10404 H 985.023 -0.931962 -1.41819 0
M  V30 10405 H 983.795 -1.86357 -3.44074 0
M  V30 10406 H 983.418 -0.232009 -3.96923 0
M  V30 10407 N 984.415 1.45619 -0.602734 0
M  V30 10408 C 985.831 1.57368 -0.26599 0
M  V30 10409 C 986.031 1.59485 1.23154 0
M  V30 10410 O 985.087 1.52254 2.01432 0
M  V30 10411 C 986.4 2.85863 -0.932881 0
M  V30 10412 C 987.948 2.9953 -0.908344 0
M  V30 10413 C 988.423 4.30789 -1.55515 0
M  V30 10414 N 989.914 4.37536 -1.52042 0
M  V30 10415 C 990.649 5.37758 -1.99008 0
M  V30 10416 N 990.145 6.44544 -2.54038 0
M  V30 10417 N 991.938 5.29085 -1.89805 0
M  V30 10418 H 984.089 1.42489 -1.57514 0
M  V30 10419 H 986.352 0.680948 -0.659556 0
M  V30 10420 H 986.058 2.90183 -1.98713 0
M  V30 10421 H 985.932 3.74467 -0.453209 0
M  V30 10422 H 988.319 2.9478 0.137344 0
M  V30 10423 H 988.4 2.12349 -1.42623 0
M  V30 10424 H 988.044 4.36297 -2.60014 0
M  V30 10425 H 987.974 5.16778 -1.01232 0
M  V30 10426 H 990.465 3.60972 -1.11837 0
M  V30 10427 H 990.778 7.17258 -2.87682 0
M  V30 10428 H 989.123 6.45308 -2.58075 0
M  V30 10429 H 992.314 4.44566 -1.46556 0
M  V30 10430 H 992.487 6.07043 -2.26722 0
M  V30 10431 N 985.893 0.34162 1.53853 0
M  V30 10432 C 987.139 -0.248546 2.01876 0
M  V30 10433 C 987.494 -1.48352 1.22513 0
M  V30 10434 O 986.787 -1.89174 0.303919 0
M  V30 10435 C 986.981 -0.616989 3.52034 0
M  V30 10436 C 986.81 0.580727 4.45935 0
M  V30 10437 C 985.58 1.08544 4.93504 0
M  V30 10438 C 987.778 1.43858 4.93771 0
M  V30 10439 N 985.76 2.24568 5.71351 0
M  V30 10440 C 987.131 2.44575 5.69722 0
M  V30 10441 C 989.186 1.46425 4.75882 0
M  V30 10442 C 987.889 3.47687 6.29688 0
M  V30 10443 C 989.915 2.48416 5.36697 0
M  V30 10444 C 989.277 3.4786 6.12514 0
M  V30 10445 H 985.376 -0.0543067 0.780112 0
M  V30 10446 H 987.96 0.480749 1.88671 0
M  V30 10447 H 986.131 -1.31539 3.65448 0
M  V30 10448 H 987.863 -1.19018 3.86803 0
M  V30 10449 H 984.618 0.653832 4.69065 0
M  V30 10450 H 985.042 2.83143 6.14946 0
M  V30 10451 H 989.684 0.709044 4.16812 0
M  V30 10452 H 987.402 4.24103 6.87868 0
M  V30 10453 H 990.988 2.51227 5.24763 0
M  V30 10454 H 989.868 4.25486 6.58734 0
M  V30 10455 N 987.371 -1.57444 0.0701946 0
M  V30 10456 C 988.617 -1.93716 -0.600178 0
M  V30 10457 C 988.95 -0.950329 -1.69359 0
M  V30 10458 O 988.225 0.0207123 -1.94489 0
M  V30 10459 C 988.508 -3.40266 -1.17861 0
M  V30 10460 C 988.361 -4.49706 -0.0919575 0
M  V30 10461 C 989.68 -3.87599 -2.08459 0
M  V30 10462 H 986.799 -0.704421 -0.216704 0
M  V30 10463 H 989.441 -1.89514 0.135838 0
M  V30 10464 H 987.591 -3.43977 -1.80587 0
M  V30 10465 H 989.263 -4.58116 0.541031 0
M  V30 10466 H 987.506 -4.29937 0.577639 0
M  V30 10467 H 988.177 -5.49381 -0.537048 0
M  V30 10468 H 990.653 -3.85883 -1.5567 0
M  V30 10469 H 989.529 -4.90755 -2.45867 0
M  V30 10470 H 989.79 -3.25448 -2.99226 0
M  V30 10471 N 988.849 0.203349 -1.56283 0
M  V30 10472 C 989.812 1.23566 -1.93039 0
M  V30 10473 C 990.812 1.38869 -0.810687 0
M  V30 10474 O 992.002 1.36822 -1.07821 0
M  V30 10475 C 989.134 2.60645 -2.1972 0
M  V30 10476 H 990.327 0.921692 -2.85385 0
M  V30 10477 H 987.88 0.44453 -1.49845 0
M  V30 10478 H 988.615 2.9711 -1.29985 0
M  V30 10479 H 988.4 2.50911 -3.01307 0
M  V30 10480 H 989.89 3.35103 -2.4919 0
M  V30 10481 N 990.327 1.50405 0.470755 0
M  V30 10482 C 991.555 1.65168 1.24608 0
M  V30 10483 C 991.97 0.335153 1.85801 0
M  V30 10484 O 991.327 -0.682919 1.69241 0
M  V30 10485 C 991.378 2.74305 2.35455 0
M  V30 10486 O 991.099 4.00854 1.76771 0
M  V30 10487 C 992.6 3.00044 3.26326 0
M  V30 10488 H 989.82 0.555186 0.376842 0
M  V30 10489 H 992.364 1.9663 0.56187 0
M  V30 10490 H 990.519 2.45536 2.99651 0
M  V30 10491 H 990.933 4.61211 2.49769 0
M  V30 10492 H 992.407 3.8007 4.00313 0
M  V30 10493 H 992.884 2.11128 3.85126 0
M  V30 10494 H 993.49 3.30345 2.67866 0
M  V30 10495 N 991.805 -0.723954 1.39988 0
M  V30 10496 C 993.053 -1.48078 1.3754 0
M  V30 10497 C 993.374 -1.94985 -0.0243358 0
M  V30 10498 O 992.644 -1.69764 -0.977602 0
M  V30 10499 H 991.224 -0.549354 0.506181 0
M  V30 10500 H 993.886 -0.858746 1.74962 0
M  V30 10501 H 992.982 -2.35763 2.04505 0
M  V30 10502 N 993.283 -1.25346 -0.955304 0
M  V30 10503 C 994.532 -1.0945 -1.69421 0
M  V30 10504 C 994.845 0.364459 -1.92175 0
M  V30 10505 O 996.051 0.643843 -2.63755 0
M  V30 10506 C 994.507 -1.91045 -3.05008 0
M  V30 10507 C 994.115 -3.41428 -2.90053 0
M  V30 10508 C 995.859 -1.83716 -3.82686 0
M  V30 10509 C 993.766 -4.1532 -4.21026 0
M  V30 10510 H 992.696 -0.405978 -0.635372 0
M  V30 10511 H 995.347 -1.49536 -1.06354 0
M  V30 10512 H 993.729 -1.43781 -3.68975 0
M  V30 10513 H 994.903 -3.9636 -2.35022 0
M  V30 10514 H 993.218 -3.49842 -2.25831 0
M  V30 10515 H 995.815 -2.36217 -4.79693 0
M  V30 10516 H 996.158 -0.804919 -4.08444 0
M  V30 10517 H 996.691 -2.28726 -3.25468 0
M  V30 10518 H 993.43 -5.18955 -4.00457 0
M  V30 10519 H 992.95 -3.65172 -4.75825 0
M  V30 10520 H 994.629 -4.22999 -4.89572 0
M  V30 10521 N 994.761 1.15782 -1.06922 0
M  V30 10522 C 996.007 1.86741 -0.790922 0
M  V30 10523 C 996.34 1.81863 0.681149 0
M  V30 10524 O 995.615 1.23871 1.49954 0
M  V30 10525 C 995.898 3.36038 -1.29422 0
M  V30 10526 C 995.751 3.49573 -2.83052 0
M  V30 10527 C 997.07 4.30647 -0.907239 0
M  V30 10528 H 994.189 0.678064 -0.288787 0
M  V30 10529 H 996.831 1.36054 -1.32624 0
M  V30 10530 H 994.981 3.79336 -0.838843 0
M  V30 10531 H 996.653 3.1517 -3.36847 0
M  V30 10532 H 994.896 2.91275 -3.21467 0
M  V30 10533 H 995.567 4.5445 -3.13335 0
M  V30 10534 H 998.043 3.95286 -1.29956 0
M  V30 10535 H 996.919 5.33604 -1.28679 0
M  V30 10536 H 997.18 4.41703 0.187251 0
M  V30 10537 N 996.239 0.8527 1.3254 0
M  V30 10538 C 997.464 0.468157 2.02047 0
M  V30 10539 C 997.889 -0.926967 1.63673 0
M  V30 10540 O 997.247 -1.60855 0.836378 0
M  V30 10541 C 997.295 0.612519 3.5536 0
M  V30 10542 O 996.399 -0.355506 4.10865 0
M  V30 10543 H 995.74 0.188401 0.636711 0
M  V30 10544 H 998.27 1.15135 1.6913 0
M  V30 10545 H 998.28 0.499315 4.04933 0
M  V30 10546 H 996.955 1.62988 3.82632 0
M  V30 10547 H 995.532 -0.198703 3.7237 0
M  V30 10548 N 997.718 -1.45297 0.610449 0
M  V30 10549 C 998.964 -2.03073 0.115358 0
M  V30 10550 C 999.319 -1.47 -1.24132 0
M  V30 10551 O 998.612 -0.636326 -1.80725 0
M  V30 10552 C 998.806 -3.57394 0.0205329 0
M  V30 10553 C 998.635 -4.28436 1.36647 0
M  V30 10554 C 997.405 -4.66245 1.94791 0
M  V30 10555 C 999.603 -4.60211 2.29587 0
M  V30 10556 N 997.585 -5.22159 3.22835 0
M  V30 10557 C 998.956 -5.16989 3.42232 0
M  V30 10558 C 1001.01 -4.42152 2.28923 0
M  V30 10559 C 999.714 -5.5761 4.54382 0
M  V30 10560 C 1001.74 -4.83808 3.40123 0
M  V30 10561 C 1001.1 -5.40681 4.5149 0
M  V30 10562 H 997.201 -0.777296 0.0856485 0
M  V30 10563 H 999.785 -1.77077 0.809426 0
M  V30 10564 H 997.956 -3.83045 -0.642763 0
M  V30 10565 H 999.688 -4.01826 -0.481481 0
M  V30 10566 H 996.443 -4.49893 1.47965 0
M  V30 10567 H 996.867 -5.54613 3.88245 0
M  V30 10568 H 1001.51 -3.97493 1.44081 0
M  V30 10569 H 999.227 -6.01234 5.39947 0
M  V30 10570 H 1002.81 -4.71565 3.40761 0
M  V30 10571 H 1001.69 -5.72321 5.36114 0
M  V30 10572 N 999.196 -0.349774 -1.5367 0
M  V30 10573 C 1000.44 0.244343 -2.00617 0
M  V30 10574 C 1000.76 1.50567 -1.23914 0
M  V30 10575 O 1000.03 1.92784 -0.348016 0
M  V30 10576 H 998.615 0.0932792 -0.741153 0
M  V30 10577 H 1001.28 -0.472367 -1.89089 0
M  V30 10578 H 1000.37 0.482433 -3.08349 0
M  V30 10579 N 1000.67 1.57404 -0.0785433 0
M  V30 10580 C 1001.92 1.9292 0.588626 0
M  V30 10581 C 1002.24 0.961106 1.70359 0
M  V30 10582 O 1003.44 1.20934 2.43079 0
M  V30 10583 C 1001.9 3.42729 1.09839 0
M  V30 10584 C 1001.51 4.47998 0.0140773 0
M  V30 10585 C 1003.25 3.87235 1.73924 0
M  V30 10586 C 1001.16 5.88945 0.538269 0
M  V30 10587 H 1000.09 0.720069 0.223645 0
M  V30 10588 H 1002.74 1.8287 -0.15187 0
M  V30 10589 H 1001.12 3.47875 1.89207 0
M  V30 10590 H 1002.29 4.54476 -0.760773 0
M  V30 10591 H 1000.61 4.13001 -0.53095 0
M  V30 10592 H 1003.21 4.89927 2.14186 0
M  V30 10593 H 1003.55 3.24971 2.60191 0
M  V30 10594 H 1004.08 3.84721 1.01168 0
M  V30 10595 H 1000.82 6.5487 -0.287395 0
M  V30 10596 H 1000.34 5.85972 1.28049 0
M  V30 10597 H 1002.02 6.39028 1.01253 0
M  V30 10598 N 1002.15 -0.195058 1.56388 0
M  V30 10599 C 1003.4 -0.913636 1.8027 0
M  V30 10600 C 1003.72 -1.83791 0.651606 0
M  V30 10601 O 1002.99 -1.931 -0.330057 0
M  V30 10602 H 1001.57 -0.34036 0.664954 0
M  V30 10603 H 1004.23 -0.200559 1.93865 0
M  V30 10604 H 1003.33 -1.50473 2.7343 0
M  V30 10605 N 1003.63 -1.50653 -0.462772 0
M  V30 10606 C 1004.87 -1.637 -1.22399 0
M  V30 10607 C 1005.23 -0.333847 -1.89075 0
M  V30 10608 O 1006.43 -0.339837 -2.66643 0
M  V30 10609 C 1004.71 -2.79018 -2.23347 0
M  V30 10610 S 1006.26 -3.12248 -3.08296 0
M  V30 10611 H 1003.08 -0.576998 -0.415444 0
M  V30 10612 H 1005.68 -1.88468 -0.519631 0
M  V30 10613 H 1004.39 -3.72174 -1.72958 0
M  V30 10614 H 1003.92 -2.56362 -2.98399 0
M  V30 10615 H 1005.93 -2.56716 -4.24631 0
M  V30 10616 N 1005.11 0.71652 -1.4037 0
M  V30 10617 C 1006.33 1.51069 -1.42102 0
M  V30 10618 C 1006.76 1.88087 -0.0222387 0
M  V30 10619 O 1006.12 1.53204 0.969448 0
M  V30 10620 C 1006.16 2.76307 -2.31704 0
M  V30 10621 O 1005.27 3.72975 -1.75964 0
M  V30 10622 H 1004.61 0.455502 -0.483129 0
M  V30 10623 H 1007.14 0.882514 -1.84588 0
M  V30 10624 H 1007.15 3.24846 -2.46859 0
M  V30 10625 H 1005.82 2.48698 -3.3335 0
M  V30 10626 H 1004.4 3.31818 -1.70151 0
M  V30 10627 N 1006.59 1.25851 0.948643 0
M  V30 10628 C 1008 1.02802 1.22081 0
M  V30 10629 C 1008.2 -0.251461 1.99925 0
M  V30 10630 O 1007.26 -0.962592 2.33432 0
M  V30 10631 C 1008.57 2.25489 1.98936 0
M  V30 10632 C 1010.12 2.30312 2.11956 0
M  V30 10633 C 1010.59 3.52671 2.92211 0
M  V30 10634 N 1012.09 3.53103 2.99787 0
M  V30 10635 C 1012.82 4.44445 3.62294 0
M  V30 10636 N 1012.32 5.46065 4.26362 0
M  V30 10637 N 1014.11 4.32113 3.59493 0
M  V30 10638 H 1006.26 2.08042 0.428044 0
M  V30 10639 H 1008.52 0.913928 0.251872 0
M  V30 10640 H 1008.23 3.18513 1.4914 0
M  V30 10641 H 1008.1 2.2914 2.99624 0
M  V30 10642 H 1010.49 1.37808 2.60946 0
M  V30 10643 H 1010.57 2.30676 1.10554 0
M  V30 10644 H 1010.22 4.45501 2.43909 0
M  V30 10645 H 1010.15 3.49554 3.93853 0
M  V30 10646 H 1012.64 2.79597 2.54232 0
M  V30 10647 H 1012.95 6.11964 4.71932 0
M  V30 10648 H 1011.29 5.49931 4.24972 0
M  V30 10649 H 1014.49 3.51946 3.08629 0
M  V30 10650 H 1014.66 5.03493 4.0792 0
M  V30 10651 N 1008.06 -1.15214 1.07534 0
M  V30 10652 C 1009.31 -1.85676 0.79805 0
M  V30 10653 C 1009.63 -1.82837 -0.677919 0
M  V30 10654 O 1008.9 -1.27059 -1.49107 0
M  V30 10655 H 1007.48 -0.687468 0.292227 0
M  V30 10656 H 1010.15 -1.39658 1.35947 0
M  V30 10657 H 1009.24 -2.9076 1.13423 0
M  V30 10658 N 1009.54 -0.859717 -1.32086 0
M  V30 10659 C 1010.77 -0.479028 -2.0097 0
M  V30 10660 C 1011.18 0.930242 -1.64752 0
M  V30 10661 O 1010.52 1.6193 -0.867437 0
M  V30 10662 C 1010.59 -0.54431 -3.55355 0
M  V30 10663 C 1010.25 -1.91337 -4.15017 0
M  V30 10664 C 1011.25 -2.87951 -4.32874 0
M  V30 10665 C 1008.93 -2.21189 -4.50977 0
M  V30 10666 C 1010.93 -4.12567 -4.85867 0
M  V30 10667 C 1008.61 -3.46057 -5.03674 0
M  V30 10668 C 1009.61 -4.41562 -5.21068 0
M  V30 10669 O 1009.3 -5.64218 -5.72637 0
M  V30 10670 H 1009.03 -0.186161 -0.649861 0
M  V30 10671 H 1011.58 -1.15976 -1.69525 0
M  V30 10672 H 1009.81 0.1933 -3.86217 0
M  V30 10673 H 1011.5 -0.178506 -4.05507 0
M  V30 10674 H 1012.27 -2.66194 -4.05421 0
M  V30 10675 H 1008.15 -1.47635 -4.36721 0
M  V30 10676 H 1011.69 -4.8712 -4.99359 0
M  V30 10677 H 1007.59 -3.67662 -5.30561 0
M  V30 10678 H 1008.36 -5.66246 -5.91023 0
M  V30 10679 N 1011.02 1.44971 -0.618145 0
M  V30 10680 C 1012.27 2.0176 -0.11725 0
M  V30 10681 C 1012.59 1.48773 1.26062 0
M  V30 10682 O 1011.86 0.686152 1.83491 0
M  V30 10683 H 1010.44 0.745909 -0.0403545 0
M  V30 10684 H 1013.1 1.77638 -0.801923 0
M  V30 10685 H 1012.2 3.1201 -0.0750477 0
M  V30 10686 N 1012.5 0.357919 1.53482 0
M  V30 10687 C 1013.75 -0.234163 2.01142 0
M  V30 10688 C 1014.07 -1.49399 1.2454 0
M  V30 10689 O 1013.33 -1.92981 0.325111 0
M  V30 10690 C 1013.63 -0.579617 3.52669 0
M  V30 10691 C 1013.29 0.584988 4.47089 0
M  V30 10692 C 1011.96 0.904558 4.72622 0
M  V30 10693 C 1014.31 1.3656 5.02992 0
M  V30 10694 C 1011.64 2.00685 5.5131 0
M  V30 10695 C 1013.99 2.45824 5.82884 0
M  V30 10696 C 1012.65 2.78325 6.06706 0
M  V30 10697 H 1011.92 -0.0856863 0.736029 0
M  V30 10698 H 1014.57 0.488801 1.85157 0
M  V30 10699 H 1012.87 -1.38349 3.66561 0
M  V30 10700 H 1014.57 -1.04985 3.87013 0
M  V30 10701 H 1011.16 0.32587 4.27359 0
M  V30 10702 H 1015.34 1.13196 4.83219 0
M  V30 10703 H 1010.6 2.26272 5.67988 0
M  V30 10704 H 1014.77 3.06732 6.25211 0
M  V30 10705 H 1012.4 3.63862 6.67464 0
M  V30 10706 N 1013.98 -1.5736 0.0868897 0
M  V30 10707 C 1015.21 -1.981 -0.586498 0
M  V30 10708 C 1015.61 -0.96455 -1.62767 0
M  V30 10709 O 1014.96 0.0551801 -1.83617 0
M  V30 10710 C 1015.02 -3.35193 -1.29947 0
M  V30 10711 C 1014.68 -4.55157 -0.410012 0
M  V30 10712 C 1015.68 -5.18797 0.338532 0
M  V30 10713 C 1013.37 -5.01212 -0.33047 0
M  V30 10714 C 1015.36 -6.26854 1.15468 0
M  V30 10715 C 1013.05 -6.09138 0.48934 0
M  V30 10716 C 1014.04 -6.71823 1.23057 0
M  V30 10717 O 1013.73 -7.77669 2.03683 0
M  V30 10718 H 1013.46 -0.656166 -0.16255 0
M  V30 10719 H 1016.02 -2.04773 0.160379 0
M  V30 10720 H 1014.25 -3.25179 -2.09274 0
M  V30 10721 H 1015.94 -3.60435 -1.86658 0
M  V30 10722 H 1016.7 -4.84151 0.286764 0
M  V30 10723 H 1012.58 -4.52188 -0.897058 0
M  V30 10724 H 1016.13 -6.75712 1.73374 0
M  V30 10725 H 1012.02 -6.43215 0.542618 0
M  V30 10726 H 1012.79 -7.94618 1.96277 0
M  V30 10727 N 1015.45 0.186762 -1.56489 0
M  V30 10728 C 1016.68 0.921832 -1.85229 0
M  V30 10729 C 1017.1 1.76496 -0.670416 0
M  V30 10730 O 1016.45 1.78899 0.360758 0
M  V30 10731 C 1016.51 1.81121 -3.12854 0
M  V30 10732 O 1016.23 1.00211 -4.26485 0
M  V30 10733 C 1017.73 2.65725 -3.54831 0
M  V30 10734 H 1014.95 0.268563 -0.61491 0
M  V30 10735 H 1017.49 0.191505 -2.03601 0
M  V30 10736 H 1015.65 2.49506 -2.96354 0
M  V30 10737 H 1016.06 1.60893 -4.99213 0
M  V30 10738 H 1017.53 3.23771 -4.47075 0
M  V30 10739 H 1018.01 3.39843 -2.78215 0
M  V30 10740 H 1018.62 2.02698 -3.7389 0
M  V30 10741 N 1016.93 1.50896 0.454776 0
M  V30 10742 C 1017.88 1.70947 1.55067 0
M  V30 10743 C 1018.85 0.550899 1.56698 0
M  V30 10744 O 1020.03 0.783352 1.73978 0
M  V30 10745 C 1017.17 1.82455 2.92924 0
M  V30 10746 C 1016.29 3.09919 3.00956 0
M  V30 10747 C 1015.42 3.12125 4.29827 0
M  V30 10748 C 1014.46 4.33975 4.31662 0
M  V30 10749 N 1013.6 4.33828 5.5203 0
M  V30 10750 H 1018.44 2.645 1.37273 0
M  V30 10751 H 1015.98 1.31101 0.667148 0
M  V30 10752 H 1017.93 1.87108 3.72889 0
M  V30 10753 H 1016.56 0.92327 3.09315 0
M  V30 10754 H 1015.62 3.14659 2.13761 0
M  V30 10755 H 1016.93 3.99869 2.98172 0
M  V30 10756 H 1016.08 3.15598 5.18154 0
M  V30 10757 H 1014.82 2.20033 4.35243 0
M  V30 10758 H 1013.83 4.30697 3.41731 0
M  V30 10759 H 1015.05 5.27312 4.27924 0
M  V30 10760 H 1013 3.44598 5.58201 0
M  V30 10761 H 1012.91 5.17566 5.51055 0
M  V30 10762 H 1014.18 4.4147 6.42437 0
M  V30 10763 N 1018.41 -0.709066 1.40748 0
M  V30 10764 C 1019.66 -1.47119 1.39585 0
M  V30 10765 C 1019.99 -1.942 0.000245323 0
M  V30 10766 O 1019.26 -1.68609 -0.969593 0
M  V30 10767 C 1019.55 -2.69266 2.39099 0
M  V30 10768 C 1019.4 -2.28037 3.8771 0
M  V30 10769 C 1020.72 -3.71438 2.36055 0
M  V30 10770 H 1017.84 -0.533632 0.508336 0
M  V30 10771 H 1020.48 -0.808718 1.7193 0
M  V30 10772 H 1018.63 -3.25788 2.11647 0
M  V30 10773 H 1020.3 -1.76946 4.26014 0
M  V30 10774 H 1018.55 -1.59966 4.03229 0
M  V30 10775 H 1019.22 -3.15621 4.52866 0
M  V30 10776 H 1021.69 -3.24559 2.60385 0
M  V30 10777 H 1020.57 -4.54532 3.07721 0
M  V30 10778 H 1020.83 -4.20193 1.37443 0
M  V30 10779 N 1019.89 -1.26353 -0.941956 0
M  V30 10780 C 1020.82 -1.10341 -2.05784 0
M  V30 10781 C 1021.8 -0.00881565 -1.70098 0
M  V30 10782 O 1022.99 -0.180699 -1.93357 0
M  V30 10783 C 1020.12 -0.734788 -3.39438 0
M  V30 10784 C 1019.07 -1.78103 -3.89183 0
M  V30 10785 C 1018.4 -1.26675 -5.19478 0
M  V30 10786 C 1019.7 -3.1824 -4.14151 0
M  V30 10787 H 1021.39 -2.03684 -2.19438 0
M  V30 10788 H 1018.94 -0.980698 -1.05443 0
M  V30 10789 H 1020.89 -0.609653 -4.16967 0
M  V30 10790 H 1019.61 0.234354 -3.25758 0
M  V30 10791 H 1018.27 -1.89482 -3.13835 0
M  V30 10792 H 1017.92 -0.287472 -5.02178 0
M  V30 10793 H 1017.62 -1.96612 -5.53731 0
M  V30 10794 H 1019.14 -1.15427 -5.99591 0
M  V30 10795 H 1020.56 -3.09942 -4.82296 0
M  V30 10796 H 1018.95 -3.8576 -4.59684 0
M  V30 10797 H 1020.02 -3.64354 -3.19959 0
M  V30 10798 N 1021.37 1.14642 -1.08144 0
M  V30 10799 C 1022.32 2.21708 -0.703448 0
M  V30 10800 C 1023.31 1.66907 0.289535 0
M  V30 10801 O 1024.52 1.79354 0.152387 0
M  V30 10802 H 1020.89 0.722247 -0.209437 0
M  V30 10803 H 1022.86 2.50862 -1.61588 0
M  V30 10804 C 1021.61 3.47472 -0.125975 0
M  V30 10805 H 1020.93 3.89967 -0.881216 0
M  V30 10806 H 1022.37 4.2388 0.100737 0
M  V30 10807 C 1020.83 3.17189 1.13546 0
M  V30 10808 O 1021.36 3.34733 2.22073 0
M  V30 10809 N 1019.57 2.71169 1.04479 0
M  V30 10810 H 1019.12 2.57093 0.161566 0
M  V30 10811 H 1019.07 2.51282 1.88957 0
M  V30 10812 N 1022.85 0.866709 1.31628 0
M  V30 10813 C 1024.08 0.489679 2.00713 0
M  V30 10814 C 1024.48 -0.921492 1.65243 0
M  V30 10815 O 1023.83 -1.61467 0.876012 0
M  V30 10816 C 1023.89 0.563148 3.55062 0
M  V30 10817 C 1023.55 1.93535 4.13996 0
M  V30 10818 C 1024.55 2.90243 4.31341 0
M  V30 10819 C 1022.23 2.23578 4.49798 0
M  V30 10820 C 1024.23 4.15138 4.83673 0
M  V30 10821 C 1021.92 3.48723 5.01832 0
M  V30 10822 C 1022.91 4.44319 5.18719 0
M  V30 10823 O 1022.6 5.67247 5.69637 0
M  V30 10824 H 1022.33 0.189605 0.648865 0
M  V30 10825 H 1024.89 1.16874 1.68907 0
M  V30 10826 H 1023.12 -0.172815 3.86314 0
M  V30 10827 H 1024.81 0.200009 4.05407 0
M  V30 10828 H 1025.57 2.6834 4.04003 0
M  V30 10829 H 1021.45 1.49949 4.35932 0
M  V30 10830 H 1025 4.89762 4.96769 0
M  V30 10831 H 1020.89 3.70471 5.28603 0
M  V30 10832 H 1021.66 5.69372 5.88011 0
M  V30 10833 N 1024.32 -1.44642 0.625825 0
M  V30 10834 C 1025.57 -2.02393 0.128391 0
M  V30 10835 C 1025.9 -1.49075 -1.2446 0
M  V30 10836 O 1025.18 -0.672684 -1.82497 0
M  V30 10837 C 1025.46 -3.59934 0.109279 0
M  V30 10838 C 1025.31 -4.23546 1.51423 0
M  V30 10839 C 1026.63 -4.36406 -0.568985 0
M  V30 10840 H 1023.75 -0.735427 0.0481299 0
M  V30 10841 H 1026.39 -1.72277 0.801286 0
M  V30 10842 H 1024.54 -3.85722 -0.463726 0
M  V30 10843 H 1026.22 -4.08882 2.13572 0
M  V30 10844 H 1024.46 -3.81245 2.06966 0
M  V30 10845 H 1025.13 -5.32535 1.45294 0
M  V30 10846 H 1027.61 -4.1602 -0.0817516 0
M  V30 10847 H 1026.48 -5.46122 -0.551527 0
M  V30 10848 H 1026.74 -4.1062 -1.6384 0
M  V30 10849 N 1025.8 -0.366053 -1.5329 0
M  V30 10850 C 1027.08 0.279902 -1.93587 0
M  V30 10851 C 1027.46 1.66352 -1.29963 0
M  V30 10852 O 1026.81 2.23845 -0.458895 0
M  V30 10853 C 1027.02 0.329634 -3.4744 0
M  V30 10854 C 1028.36 0.569754 -4.2076 0
M  V30 10855 O 1029.39 0.410823 -3.53823 0
M  V30 10856 O 1028.25 0.879262 -5.3938 0
M  V30 10857 H 1025.34 0.16802 -0.809752 0
M  V30 10858 H 1027.89 -0.418871 -1.64449 0
M  V30 10859 H 1026.66 -0.640434 -3.86023 0
M  V30 10860 H 1026.28 1.07428 -3.82812 0
M  V30 10861 N 1027.28 1.57312 -0.0952337 0
M  V30 10862 C 1028.53 1.95449 0.563155 0
M  V30 10863 C 1028.88 0.976396 1.65784 0
M  V30 10864 O 1028.17 0.00241533 1.916 0
M  V30 10865 C 1028.37 3.37937 1.16332 0
M  V30 10866 C 1028.2 4.49517 0.128308 0
M  V30 10867 C 1026.97 5.04437 -0.295252 0
M  V30 10868 C 1029.16 5.10257 -0.643571 0
M  V30 10869 N 1027.15 5.99573 -1.31852 0
M  V30 10870 C 1028.52 6.01113 -1.51867 0
M  V30 10871 C 1030.57 4.92996 -0.697074 0
M  V30 10872 C 1029.28 6.76559 -2.44256 0
M  V30 10873 C 1031.3 5.69104 -1.60857 0
M  V30 10874 C 1030.66 6.59626 -2.47129 0
M  V30 10875 H 1026.76 0.761844 0.176402 0
M  V30 10876 H 1029.35 1.93886 -0.177833 0
M  V30 10877 H 1027.52 3.40193 1.87413 0
M  V30 10878 H 1029.25 3.63253 1.78408 0
M  V30 10879 H 1026 4.7351 0.0925153 0
M  V30 10880 H 1026.43 6.51843 -1.82836 0
M  V30 10881 H 1031.07 4.22777 -0.0442422 0
M  V30 10882 H 1028.79 7.4604 -3.10564 0
M  V30 10883 H 1032.37 5.57761 -1.65511 0
M  V30 10884 H 1031.25 7.17487 -3.16515 0
M  V30 10885 N 1028.76 -0.17846 1.56586 0
M  V30 10886 C 1030.01 -0.894502 1.8078 0
M  V30 10887 C 1030.32 -1.8372 0.67129 0
M  V30 10888 O 1031.53 -2.59509 0.797971 0
M  V30 10889 C 1029.98 -1.64109 3.20306 0
M  V30 10890 C 1029.59 -0.742387 4.41806 0
M  V30 10891 C 1031.33 -2.34578 3.53798 0
M  V30 10892 C 1029.24 -1.4888 5.72354 0
M  V30 10893 H 1028.17 -0.33776 0.674117 0
M  V30 10894 H 1030.82 -0.14752 1.82906 0
M  V30 10895 H 1029.2 -2.43257 3.12477 0
M  V30 10896 H 1030.38 0.011615 4.60799 0
M  V30 10897 H 1028.69 -0.147705 4.16138 0
M  V30 10898 H 1031.29 -2.91004 4.48577 0
M  V30 10899 H 1031.63 -3.09572 2.78336 0
M  V30 10900 H 1032.17 -1.62381 3.63149 0
M  V30 10901 H 1028.9 -0.781325 6.50827 0
M  V30 10902 H 1028.42 -2.21631 5.57351 0
M  V30 10903 H 1030.1 -2.03819 6.14058 0
M  V30 10904 N 1030.24 -1.51135 -0.446768 0
M  V30 10905 C 1031.18 -1.71767 -1.54158 0
M  V30 10906 C 1032.15 -0.559201 -1.56404 0
M  V30 10907 O 1033.34 -0.792567 -1.7356 0
M  V30 10908 C 1030.48 -1.84006 -2.91952 0
M  V30 10909 C 1029.59 -3.11511 -2.99308 0
M  V30 10910 C 1028.73 -3.144 -4.28166 0
M  V30 10911 C 1027.76 -4.36258 -4.29355 0
M  V30 10912 N 1026.9 -4.3675 -5.49722 0
M  V30 10913 H 1031.74 -2.65224 -1.35869 0
M  V30 10914 H 1029.28 -1.31453 -0.660186 0
M  V30 10915 H 1031.24 -1.89083 -3.71892 0
M  V30 10916 H 1029.87 -0.939661 -3.08821 0
M  V30 10917 H 1028.92 -3.15788 -2.12089 0
M  V30 10918 H 1030.23 -4.01445 -2.96047 0
M  V30 10919 H 1029.38 -3.18341 -5.16473 0
M  V30 10920 H 1028.12 -2.22338 -4.3407 0
M  V30 10921 H 1027.13 -4.32503 -3.39442 0
M  V30 10922 H 1028.35 -5.29574 -4.25122 0
M  V30 10923 H 1026.3 -3.47554 -5.56365 0
M  V30 10924 H 1026.22 -5.20481 -5.48302 0
M  V30 10925 H 1027.48 -4.4487 -6.40086 0
M  V30 10926 N 1031.71 0.701592 -1.41122 0
M  V30 10927 C 1032.66 1.81559 -1.42495 0
M  V30 10928 C 1033.63 1.63722 -0.280078 0
M  V30 10929 O 1034.82 1.84658 -0.480231 0
M  V30 10930 C 1031.96 3.19392 -1.30702 0
M  V30 10931 C 1031.07 3.48704 -2.55009 0
M  V30 10932 C 1030.2 4.76118 -2.35554 0
M  V30 10933 C 1029.24 4.98378 -3.55367 0
M  V30 10934 N 1028.38 6.17014 -3.3502 0
M  V30 10935 H 1033.22 1.7972 -2.37707 0
M  V30 10936 H 1030.76 0.877727 -1.18044 0
M  V30 10937 H 1032.71 3.99004 -1.21867 0
M  V30 10938 H 1031.34 3.20423 -0.391012 0
M  V30 10939 H 1030.4 2.63542 -2.74317 0
M  V30 10940 H 1031.71 3.61057 -3.44151 0
M  V30 10941 H 1030.86 5.63774 -2.24152 0
M  V30 10942 H 1029.6 4.66 -1.43859 0
M  V30 10943 H 1028.61 4.09172 -3.6723 0
M  V30 10944 H 1029.83 5.10359 -4.48007 0
M  V30 10945 H 1027.78 6.0812 -2.4602 0
M  V30 10946 H 1027.69 6.30107 -4.17733 0
M  V30 10947 H 1028.96 7.0742 -3.27379 0
M  V30 10948 N 1033.19 1.2685 0.935242 0
M  V30 10949 C 1034.1 1.10716 2.06831 0
M  V30 10950 C 1035.12 0.0391222 1.73956 0
M  V30 10951 O 1036.29 0.244071 1.99916 0
M  V30 10952 C 1033.36 0.748093 3.38533 0
M  V30 10953 C 1032.42 1.89619 3.85153 0
M  V30 10954 C 1031.65 1.55416 5.1057 0
M  V30 10955 O 1031.88 0.458596 5.68553 0
M  V30 10956 O 1030.81 2.39087 5.52378 0
M  V30 10957 H 1034.64 2.05785 2.23352 0
M  V30 10958 H 1032.22 1.05967 1.05315 0
M  V30 10959 H 1034.1 0.560841 4.17651 0
M  V30 10960 H 1032.78 -0.173142 3.23237 0
M  V30 10961 H 1031.68 2.13845 3.06954 0
M  V30 10962 H 1033.02 2.79737 4.04979 0
M  V30 10963 N 1034.67 -1.14067 1.0875 0
M  V30 10964 C 1035.6 -2.18306 0.664652 0
M  V30 10965 C 1036.58 -1.59312 -0.325359 0
M  V30 10966 O 1037.77 -1.87111 -0.228385 0
M  V30 10967 C 1034.89 -3.38693 -0.0218723 0
M  V30 10968 C 1033.94 -4.16263 0.928844 0
M  V30 10969 S 1034.77 -4.76817 2.43734 0
M  V30 10970 C 1035.93 -6.00557 1.76302 0
M  V30 10971 H 1036.16 -2.53837 1.54772 0
M  V30 10972 H 1033.69 -1.25254 0.902817 0
M  V30 10973 H 1035.65 -4.0843 -0.411686 0
M  V30 10974 H 1034.31 -3.01478 -0.881481 0
M  V30 10975 H 1033.51 -5.02446 0.395446 0
M  V30 10976 H 1033.11 -3.52146 1.25972 0
M  V30 10977 H 1035.4 -6.68788 1.08301 0
M  V30 10978 H 1036.34 -6.58492 2.60373 0
M  V30 10979 H 1036.75 -5.50827 1.23489 0
M  V30 10980 N 1036.15 -0.873678 -1.31166 0
M  V30 10981 C 1037.06 -0.335726 -2.32185 0
M  V30 10982 C 1038.07 0.556259 -1.64869 0
M  V30 10983 O 1039.25 0.452087 -1.9626 0
M  V30 10984 C 1036.32 0.450822 -3.43756 0
M  V30 10985 C 1035.38 -0.469565 -4.26724 0
M  V30 10986 C 1034.61 0.279538 -5.32967 0
M  V30 10987 O 1034.83 1.50715 -5.50128 0
M  V30 10988 O 1033.77 -0.36452 -6.00795 0
M  V30 10989 H 1037.59 -1.17314 -2.80127 0
M  V30 10990 H 1035.18 -0.637163 -1.35132 0
M  V30 10991 H 1037.06 0.896582 -4.11752 0
M  V30 10992 H 1035.73 1.26472 -2.9797 0
M  V30 10993 H 1034.64 -0.963902 -3.61469 0
M  V30 10994 H 1035.97 -1.24916 -4.76085 0
M  V30 10995 N 1037.63 1.44308 -0.633487 0
M  V30 10996 C 1038.54 2.34492 0.0711787 0
M  V30 10997 C 1039.55 1.52754 0.8332 0
M  V30 10998 O 1040.73 1.85475 0.784929 0
M  V30 10999 C 1037.79 3.30767 1.03895 0
M  V30 11000 C 1036.85 4.28412 0.276043 0
M  V30 11001 C 1036.09 5.20087 1.19772 0
M  V30 11002 O 1036.31 5.15743 2.4365 0
M  V30 11003 O 1035.24 5.98038 0.680764 0
M  V30 11004 H 1039.07 2.96203 -0.67063 0
M  V30 11005 H 1036.66 1.4412 -0.393678 0
M  V30 11006 H 1038.54 3.90021 1.59566 0
M  V30 11007 H 1037.21 2.71586 1.76133 0
M  V30 11008 H 1036.12 3.72696 -0.32377 0
M  V30 11009 H 1037.45 4.9052 -0.406364 0
M  V30 11010 N 1039.1 0.374177 1.53094 0
M  V30 11011 C 1040.01 -0.475935 2.29722 0
M  V30 11012 C 1041.03 -1.085 1.36029 0
M  V30 11013 O 1042.21 -1.09408 1.69091 0
M  V30 11014 C 1039.27 -1.59572 3.07795 0
M  V30 11015 C 1038.33 -1.01332 4.17169 0
M  V30 11016 C 1037.57 -2.07975 4.9151 0
M  V30 11017 O 1037.79 -3.29232 4.65793 0
M  V30 11018 O 1036.72 -1.7055 5.77232 0
M  V30 11019 H 1040.55 0.147877 3.0334 0
M  V30 11020 H 1038.13 0.138312 1.48758 0
M  V30 11021 H 1040.02 -2.24658 3.5652 0
M  V30 11022 H 1038.69 -2.20478 2.37005 0
M  V30 11023 H 1037.6 -0.326133 3.72676 0
M  V30 11024 H 1038.93 -0.4487 4.90151 0
M  V30 11025 N 1040.58 -1.57259 0.103575 0
M  V30 11026 C 1041.86 -1.86143 -0.600852 0
M  V30 11027 C 1042.24 -1.00198 -1.85805 0
M  V30 11028 O 1041.59 -0.0766791 -2.28371 0
M  V30 11029 C 1041.8 -3.36978 -0.908108 0
M  V30 11030 C 1043.15 -4.05228 -1.26788 0
M  V30 11031 O 1044.17 -3.41908 -0.998859 0
M  V30 11032 O 1043.03 -5.16971 -1.7721 0
M  V30 11033 H 1040.12 -0.770064 -0.301547 0
M  V30 11034 H 1042.67 -1.69147 0.136914 0
M  V30 11035 H 1041.44 -3.91296 -0.0165615 0
M  V30 11036 H 1041.06 -3.5935 -1.70156 0
M  V30 11037 O 1042.1 0.0362313 -1.61459 0
M  V30 11038 H 1042.79 0.657704 -1.82192 0
M  V30 END ATOM
M  V30 BEGIN BOND
M  V30 END BOND
M  V30 END CTAB
M  END
$$$$
